drugbank_target|P68344 Envelope glycoprotein GP340 (DB00632)
 OpenBabel12092119373D

  0  0  0     0  0            999 V3000
M  V30 BEGIN CTAB
M  V30 COUNTS 12818 12983 0 0 0
M  V30 BEGIN ATOM
M  V30 1 H -0.908 1.98254 -0.117106 0
M  V30 2 N 0 1.576 0 0
M  V30 3 C 0.933 2.03868 1.02534 0
M  V30 4 C 1.911 0.928543 1.3348 0
M  V30 5 O 3.095 1.19667 1.45644 0
M  V30 6 C 0.222 2.43627 2.35294 0
M  V30 7 C -0.732 3.65373 2.2001 0
M  V30 8 S 0.101 5.13292 1.52614 0
M  V30 9 C 1.257 5.56322 2.86805 0
M  V30 10 H 1.49 2.90518 0.631377 0
M  V30 11 H -0.977 1.52953 0.210867 0
M  V30 12 H 0.981 2.67203 3.11629 0
M  V30 13 H -0.358 1.57376 2.7183 0
M  V30 14 H -1.165 3.90944 3.18086 0
M  V30 15 H -1.563 3.418 1.51819 0
M  V30 16 H 0.729 5.58782 3.83104 0
M  V30 17 H 1.672 6.56266 2.65933 0
M  V30 18 H 2.08 4.83886 2.90714 0
M  V30 19 N 1.4781 -0.272755 1.55222 0
M  V30 20 C 2.3881 -1.35918 1.91216 0
M  V30 21 C 3.4041 -1.54026 0.809436 0
M  V30 22 O 4.5801 -1.68148 1.10852 0
M  V30 23 C 1.6451 -2.69834 2.17693 0
M  V30 24 C 0.7061 -2.6047 3.41253 0
M  V30 25 C -0.0609 -3.88 3.66458 0
M  V30 26 O 0.1621 -4.88693 2.94169 0
M  V30 27 O -0.9039 -3.88189 4.59992 0
M  V30 28 H 2.9221 -1.0839 2.83699 0
M  V30 29 H 0.5071 -0.471301 1.41771 0
M  V30 30 H 2.3891 -3.49017 2.36147 0
M  V30 31 H 1.0641 -2.97148 1.28392 0
M  V30 32 H -0.0289 -1.79663 3.28134 0
M  V30 33 H 1.3041 -2.38106 4.30774 0
M  V30 34 N 2.9562 -1.48159 -0.537278 0
M  V30 35 C 3.9192 -1.61665 -1.62472 0
M  V30 36 C 4.9192 -0.490395 -1.5314 0
M  V30 37 O 6.1092 -0.755998 -1.5694 0
M  V30 38 C 3.2412 -1.57997 -3.02076 0
M  V30 39 H 4.4342 -2.58621 -1.51839 0
M  V30 40 H 1.9872 -1.36647 -0.758771 0
M  V30 41 H 2.7222 -0.624913 -3.18222 0
M  V30 42 H 2.5072 -2.39755 -3.10258 0
M  V30 43 H 3.9972 -1.70627 -3.81151 0
M  V30 44 N 4.4343 0.785586 -1.36625 0
M  V30 45 C 5.3973 1.87999 -1.31107 0
M  V30 46 C 6.3973 1.59316 -0.217959 0
M  V30 47 O 7.5873 1.67656 -0.472977 0
M  V30 48 C 4.7193 3.24861 -1.03334 0
M  V30 49 H 5.9123 1.94307 -2.2844 0
M  V30 50 H 3.4653 0.983813 -1.21453 0
M  V30 51 H 4.2003 3.24235 -0.0647432 0
M  V30 52 H 3.9853 3.4707 -1.82441 0
M  V30 53 H 5.4753 4.04929 -1.02088 0
M  V30 54 N 5.9124 1.20967 1.01018 0
M  V30 55 C 6.8424 0.988272 2.11555 0
M  V30 56 C 7.8234 -0.0849778 1.69888 0
M  V30 57 O 9.0084 0.0738202 1.9406 0
M  V30 58 C 6.1384 0.546528 3.42973 0
M  V30 59 C 5.0924 1.56375 3.9841 0
M  V30 60 C 4.4184 0.97842 5.25672 0
M  V30 61 C 5.7184 2.94922 4.31066 0
M  V30 62 H 7.4124 1.91276 2.30334 0
M  V30 63 H 4.9584 0.921073 1.1069 0
M  V30 64 H 6.9114 0.378839 4.19694 0
M  V30 65 H 5.6354 -0.413598 3.23971 0
M  V30 66 H 4.2944 1.71891 3.23804 0
M  V30 67 H 3.9424 0.0101688 5.02999 0
M  V30 68 H 3.6424 1.65784 5.63728 0
M  V30 69 H 5.1664 0.821939 6.05043 0
M  V30 70 H 6.5804 2.8288 4.9865 0
M  V30 71 H 4.9774 3.5983 4.80253 0
M  V30 72 H 6.0474 3.4616 3.39561 0
M  V30 73 N 7.3905 -1.2043 1.01659 0
M  V30 74 C 8.3205 -2.25466 0.607226 0
M  V30 75 C 9.3015 -1.65853 -0.377716 0
M  V30 76 O 10.4865 -1.92409 -0.263149 0
M  V30 77 C 7.6165 -3.47256 -0.0552949 0
M  V30 78 C 6.5705 -4.19462 0.850632 0
M  V30 79 C 5.8965 -5.34673 0.0538859 0
M  V30 80 C 7.1965 -4.75603 2.15868 0
M  V30 81 H 8.8905 -2.59962 1.48526 0
M  V30 82 H 6.4365 -1.2496 0.715605 0
M  V30 83 H 8.3895 -4.19917 -0.353233 0
M  V30 84 H 7.1135 -3.11924 -0.968045 0
M  V30 85 H 5.7725 -3.48667 1.13257 0
M  V30 86 H 5.4205 -4.95585 -0.860514 0
M  V30 87 H 5.1205 -5.83913 0.657192 0
M  V30 88 H 6.6445 -6.10138 -0.237598 0
M  V30 89 H 8.0585 -5.40083 1.92311 0
M  V30 90 H 6.4555 -5.3528 2.71284 0
M  V30 91 H 7.5255 -3.94346 2.82169 0
M  V30 92 N 8.8686 -0.792821 -1.36206 0
M  V30 93 C 10.1146 -0.36733 -1.99446 0
M  V30 94 C 10.4476 1.05917 -1.62774 0
M  V30 95 O 9.7226 1.7324 -0.88421 0
M  V30 96 C 10.0056 -0.535044 -3.56103 0
M  V30 97 C 9.8586 -2.00548 -4.02617 0
M  V30 98 C 11.1776 0.0478191 -4.40074 0
M  V30 99 H 8.2966 -0.134941 -0.724541 0
M  V30 100 H 10.9386 -0.999794 -1.61568 0
M  V30 101 H 9.0886 0.00336329 -3.885 0
M  V30 102 H 10.7606 -2.60521 -3.80692 0
M  V30 103 H 9.0036 -2.50686 -3.54032 0
M  V30 104 H 9.6746 -2.07377 -5.11565 0
M  V30 105 H 12.1506 -0.411822 -4.14057 0
M  V30 106 H 11.0266 -0.0995336 -5.4881 0
M  V30 107 H 11.2876 1.14025 -4.27142 0
M  V30 108 N 10.3467 1.47872 -0.545128 0
M  V30 109 C 11.5867 2.04391 -0.0187854 0
M  V30 110 C 11.9507 1.41162 1.30144 0
M  V30 111 O 13.1517 1.88656 1.91474 0
M  V30 112 C 11.4227 3.57299 0.0850867 0
M  V30 113 S 12.9817 4.35221 0.559302 0
M  V30 114 H 9.7997 0.710737 -0.0193301 0
M  V30 115 H 12.4017 1.81395 -0.729125 0
M  V30 116 H 11.1057 4.00847 -0.880351 0
M  V30 117 H 10.6367 3.84773 0.819348 0
M  V30 118 H 12.6517 4.61571 1.82118 0
M  V30 119 N 11.8248 0.280983 1.55075 0
M  V30 120 C 12.7568 -0.637268 2.20163 0
M  V30 121 C 13.7698 -1.11298 1.18813 0
M  V30 122 O 14.9588 -1.03388 1.4551 0
M  V30 123 C 12.0588 -1.88199 2.81841 0
M  V30 124 C 11.2318 -1.55211 4.08936 0
M  V30 125 C 10.2908 -2.64991 4.54606 0
M  V30 126 O 9.3168 -2.30929 5.2025 0
M  V30 127 N 10.5188 -3.95161 4.25238 0
M  V30 128 H 13.2838 -0.0801694 2.99593 0
M  V30 129 H 10.8448 0.102329 1.61576 0
M  V30 130 H 12.8368 -2.60948 3.09335 0
M  V30 131 H 11.4068 -2.34799 2.06369 0
M  V30 132 H 10.6268 -0.658185 3.88666 0
M  V30 133 H 11.9148 -1.30681 4.91732 0
M  V30 134 H 11.3128 -4.25653 3.72607 0
M  V30 135 H 9.8698 -4.6427 4.5749 0
M  V30 136 N 13.3029 -1.57598 0.00835791 0
M  V30 137 C 14.5329 -1.94931 -0.684496 0
M  V30 138 C 14.9409 -0.882233 -1.67372 0
M  V30 139 O 14.2839 0.146621 -1.83114 0
M  V30 140 C 14.3459 -3.283 -1.4649 0
M  V30 141 C 14.0099 -4.52548 -0.63634 0
M  V30 142 C 15.0069 -5.19839 0.0795586 0
M  V30 143 C 12.6919 -4.98942 -0.579849 0
M  V30 144 C 14.6859 -6.3183 0.840843 0
M  V30 145 C 12.3729 -6.10819 0.185155 0
M  V30 146 C 13.3709 -6.77121 0.894227 0
M  V30 147 O 13.0589 -7.86853 1.64673 0
M  V30 148 H 12.7909 -0.647249 -0.19505 0
M  V30 149 H 15.3449 -2.05318 0.0581272 0
M  V30 150 H 13.5749 -3.14345 -2.2522 0
M  V30 151 H 15.2639 -3.50685 -2.04389 0
M  V30 152 H 16.0299 -4.84979 0.0451202 0
M  V30 153 H 11.9089 -4.47155 -1.1213 0
M  V30 154 H 15.4529 -6.83513 1.39483 0
M  V30 155 H 11.3499 -6.4512 0.221384 0
M  V30 156 H 12.1179 -8.03412 1.56432 0
M  V30 157 N 14.781 0.264519 -1.55364 0
M  V30 158 C 16.009 1.013 -1.80405 0
M  V30 159 C 16.424 1.79618 -0.581622 0
M  V30 160 O 15.781 1.76879 0.449468 0
M  V30 161 C 15.832 1.96487 -3.03439 0
M  V30 162 O 15.553 1.21341 -4.20961 0
M  V30 163 C 17.054 2.83079 -3.41147 0
M  V30 164 H 14.274 0.298875 -0.600762 0
M  V30 165 H 16.818 0.292736 -2.02394 0
M  V30 166 H 14.973 2.63965 -2.83551 0
M  V30 167 H 15.387 1.85573 -4.90574 0
M  V30 168 H 16.861 3.4565 -4.30384 0
M  V30 169 H 17.338 3.53286 -2.60932 0
M  V30 170 H 17.944 2.2108 -3.63323 0
M  V30 171 N 16.2591 1.48442 0.529413 0
M  V30 172 C 17.5081 1.55742 1.28169 0
M  V30 173 C 17.8211 0.236511 1.94165 0
M  V30 174 O 19.0271 0.187761 2.7085 0
M  V30 175 C 17.4831 2.74667 2.32564 0
M  V30 176 C 17.0911 4.13402 1.72636 0
M  V30 177 C 18.8351 2.9128 3.08798 0
M  V30 178 C 16.7421 5.23587 2.74975 0
M  V30 179 H 15.6721 0.579796 0.48203 0
M  V30 180 H 18.3231 1.74776 0.559056 0
M  V30 181 H 16.7051 2.49067 3.07866 0
M  V30 182 H 17.8791 4.49022 1.03519 0
M  V30 183 H 16.1941 4.0191 1.08892 0
M  V30 184 H 18.7911 3.70767 3.85274 0
M  V30 185 H 19.1341 2.00757 3.64695 0
M  V30 186 H 19.6671 3.16782 2.40611 0
M  V30 187 H 16.4061 6.16076 2.23897 0
M  V30 188 H 15.9261 4.92454 3.42417 0
M  V30 189 H 17.6051 5.51724 3.37949 0
M  V30 190 N 17.7372 -0.778329 1.37039 0
M  V30 191 C 18.6692 -1.90034 1.2814 0
M  V30 192 C 19.6822 -1.61585 0.198558 0
M  V30 193 O 20.8712 -1.72625 0.454175 0
M  V30 194 C 17.9712 -3.25108 0.956968 0
M  V30 195 C 17.1442 -3.81253 2.14394 0
M  V30 196 C 16.2032 -4.94789 1.79082 0
M  V30 197 O 15.2292 -5.10721 2.51301 0
M  V30 198 N 16.4312 -5.75878 0.731043 0
M  V30 199 H 19.1962 -1.98186 2.24816 0
M  V30 200 H 16.7572 -0.957129 1.30578 0
M  V30 201 H 18.7492 -3.9857 0.701701 0
M  V30 202 H 17.3192 -3.125 0.0789812 0
M  V30 203 H 16.5392 -2.99647 2.56135 0
M  V30 204 H 17.8272 -4.15495 2.93668 0
M  V30 205 H 17.2252 -5.65547 0.131618 0
M  V30 206 H 15.7822 -6.49596 0.535622 0
M  V30 207 N 19.2153 -1.21501 -1.00376 0
M  V30 208 C 20.4403 -1.05977 -1.78279 0
M  V30 209 C 20.8653 0.385994 -1.84097 0
M  V30 210 O 20.2233 1.27849 -1.28547 0
M  V30 211 C 20.2713 -1.66302 -3.19963 0
M  V30 212 O 19.3753 -0.909333 -4.0225 0
M  V30 213 H 18.7163 -0.372906 -0.549397 0
M  V30 214 H 21.2463 -1.6107 -1.26165 0
M  V30 215 H 21.2563 -1.70574 -3.70632 0
M  V30 216 H 19.9313 -2.71515 -3.15043 0
M  V30 217 H 18.5083 -0.941795 -3.60811 0
M  V30 218 N 20.6934 1.19889 -1.02296 0
M  V30 219 C 21.6234 2.25141 -0.619174 0
M  V30 220 C 22.6044 1.66051 0.368915 0
M  V30 221 O 23.7894 1.92546 0.252941 0
M  V30 222 C 20.9194 3.4728 0.0368783 0
M  V30 223 C 19.8734 4.19005 -0.872865 0
M  V30 224 C 19.1994 5.34637 -0.0822402 0
M  V30 225 C 20.4994 4.74452 -2.18387 0
M  V30 226 H 22.1934 2.59171 -1.49903 0
M  V30 227 H 19.7394 1.24579 -0.722222 0
M  V30 228 H 21.6924 4.20098 0.330958 0
M  V30 229 H 20.4164 3.12433 0.95149 0
M  V30 230 H 19.0754 3.48061 -1.15105 0
M  V30 231 H 18.7234 4.96034 0.83422 0
M  V30 232 H 18.4234 5.83557 -0.688149 0
M  V30 233 H 19.9474 6.10255 0.205238 0
M  V30 234 H 21.3614 5.39055 -1.95172 0
M  V30 235 H 19.7584 5.33834 -2.74119 0
M  V30 236 H 20.8284 3.92844 -2.84257 0
M  V30 237 N 22.1715 0.800033 1.35784 0
M  V30 238 C 23.4205 0.37387 1.98205 0
M  V30 239 C 23.7335 -1.06302 1.64193 0
M  V30 240 O 24.9395 -1.59198 2.19928 0
M  V30 241 C 23.3955 0.617532 3.54562 0
M  V30 242 C 23.0035 2.06654 3.9749 0
M  V30 243 C 24.7475 0.256401 4.23725 0
M  V30 244 C 22.6545 2.2563 5.46667 0
M  V30 245 H 21.5845 0.136055 0.741623 0
M  V30 246 H 24.2355 0.983166 1.54939 0
M  V30 247 H 22.6175 -0.0616248 3.95952 0
M  V30 248 H 23.7915 2.78296 3.67271 0
M  V30 249 H 22.1065 2.38691 3.41197 0
M  V30 250 H 24.7035 0.376318 5.33374 0
M  V30 251 H 25.0465 -0.796692 4.08606 0
M  V30 252 H 25.5795 0.889214 3.87734 0
M  V30 253 H 22.3185 3.2936 5.66747 0
M  V30 254 H 21.8385 1.58504 5.78478 0
M  V30 255 H 23.5175 2.06861 6.1304 0
M  V30 256 N 23.6496 -1.47581 0.552962 0
M  V30 257 C 24.5816 -2.27997 -0.234533 0
M  V30 258 C 25.5946 -1.36753 -0.883321 0
M  V30 259 O 26.7836 -1.61612 -0.757889 0
M  V30 260 C 23.8836 -3.10879 -1.34935 0
M  V30 261 C 23.0566 -4.30056 -0.798158 0
M  V30 262 C 22.1156 -4.94567 -1.79694 0
M  V30 263 O 21.1416 -5.53087 -1.34474 0
M  V30 264 N 22.3436 -4.88878 -3.13015 0
M  V30 265 H 25.1086 -2.96222 0.455255 0
M  V30 266 H 22.6696 -1.57163 0.388761 0
M  V30 267 H 24.6616 -3.50903 -2.01616 0
M  V30 268 H 23.2316 -2.44924 -1.94244 0
M  V30 269 H 22.4516 -3.94174 0.0453079 0
M  V30 270 H 23.7396 -5.07152 -0.409173 0
M  V30 271 H 23.1376 -4.42526 -3.52402 0
M  V30 272 H 21.6946 -5.32934 -3.75266 0
M  V30 273 N 25.1277 -0.289203 -1.54924 0
M  V30 274 C 26.0577 0.58549 -2.2604 0
M  V30 275 C 27.0387 1.14753 -1.25562 0
M  V30 276 O 28.2237 1.17906 -1.54311 0
M  V30 277 C 25.3537 1.76305 -2.99222 0
M  V30 278 C 24.3077 1.33191 -4.06748 0
M  V30 279 C 23.6337 2.5937 -4.6758 0
M  V30 280 C 24.9337 0.471775 -5.20165 0
M  V30 281 H 26.6277 -0.00763532 -2.99399 0
M  V30 282 H 24.1737 -0.00511229 -1.43999 0
M  V30 283 H 26.1267 2.38097 -3.47689 0
M  V30 284 H 24.8507 2.38223 -2.23422 0
M  V30 285 H 23.5097 0.737121 -3.59113 0
M  V30 286 H 23.1577 3.19576 -3.88433 0
M  V30 287 H 22.8577 2.31228 -5.40192 0
M  V30 288 H 24.3817 3.21985 -5.18804 0
M  V30 289 H 25.7957 0.995056 -5.64599 0
M  V30 290 H 24.1927 0.284639 -5.99425 0
M  V30 291 H 25.2627 -0.506041 -4.82252 0
M  V30 292 N 26.6058 1.57591 -0.0167156 0
M  V30 293 C 27.8338 1.95575 0.675128 0
M  V30 294 C 28.2488 0.892542 1.6637 0
M  V30 295 O 27.6058 -0.126912 1.82058 0
M  V30 296 C 27.6568 3.33608 1.39239 0
M  V30 297 O 27.3778 4.3585 0.443444 0
M  V30 298 C 28.8788 3.86151 2.17721 0
M  V30 299 H 26.0988 0.644423 0.186978 0
M  V30 300 H 28.6428 2.0437 -0.0728 0
M  V30 301 H 26.7978 3.2607 2.09182 0
M  V30 302 H 27.2118 5.158 0.951358 0
M  V30 303 H 28.6858 4.85114 2.63379 0
M  V30 304 H 29.1628 3.19738 3.01105 0
M  V30 305 H 29.7688 3.96918 1.52761 0
M  V30 306 N 28.0839 -0.256276 1.55502 0
M  V30 307 C 29.4999 -0.604325 1.47716 0
M  V30 308 C 29.6999 -1.88763 0.705039 0
M  V30 309 O 28.7559 -2.51445 0.230613 0
M  V30 310 C 30.0689 -0.715756 2.92057 0
M  V30 311 C 31.6169 -0.808706 3.02372 0
M  V30 312 C 32.0919 -0.951777 4.48001 0
M  V30 313 N 33.5829 -1.01688 4.519 0
M  V30 314 C 34.3179 -1.14668 5.61817 0
M  V30 315 N 33.8139 -1.24261 6.81565 0
M  V30 316 N 35.6069 -1.1791 5.49594 0
M  V30 317 H 27.7579 0.586291 2.04148 0
M  V30 318 H 30.0209 0.201015 0.926443 0
M  V30 319 H 29.7269 0.157027 3.51349 0
M  V30 320 H 29.6009 -1.59071 3.42018 0
M  V30 321 H 31.9879 -1.67195 2.43166 0
M  V30 322 H 32.0689 0.0912063 2.55637 0
M  V30 323 H 31.7129 -0.0931291 5.07815 0
M  V30 324 H 31.6429 -1.86659 4.92408 0
M  V30 325 H 34.1339 -0.954468 3.65648 0
M  V30 326 H 34.4469 -1.34046 7.61086 0
M  V30 327 H 32.7919 -1.21236 6.84344 0
M  V30 328 H 35.9829 -1.10057 4.54978 0
M  V30 329 H 36.1559 -1.27681 6.35296 0
M  V30 330 N 29.562 -1.4872 -0.521534 0
M  V30 331 C 30.839 -1.4766 -1.2828 0
M  V30 332 C 31.219 -0.19292 -2.10217 0
M  V30 333 O 30.567 0.825193 -2.13079 0
M  V30 334 C 30.777 -2.74358 -2.15705 0
M  V30 335 C 32.125 -3.23028 -2.75569 0
M  V30 336 O 33.149 -2.75333 -2.25987 0
M  V30 337 O 32.008 -4.0604 -3.65778 0
M  V30 338 H 29.102 -0.590085 -0.579421 0
M  V30 339 H 31.648 -1.60963 -0.537492 0
M  V30 340 H 30.42 -3.59292 -1.54999 0
M  V30 341 H 30.043 -2.63816 -2.97467 0
M  V30 342 N 31.0401 0.771051 -1.3745 0
M  V30 343 C 32.3171 1.519 -1.23231 0
M  V30 344 C 32.6971 2.10383 0.173809 0
M  V30 345 O 32.0451 1.95583 1.18151 0
M  V30 346 C 32.2551 2.59933 -2.32886 0
M  V30 347 C 33.6031 3.27316 -2.70461 0
M  V30 348 O 34.6271 2.70228 -2.32068 0
M  V30 349 O 33.4861 4.30531 -3.36608 0
M  V30 350 H 30.5801 0.672803 -0.480901 0
M  V30 351 H 33.1261 0.807957 -1.49232 0
M  V30 352 H 31.8981 2.14842 -3.27045 0
M  V30 353 H 31.5211 3.38637 -2.08353 0
M  V30 354 N 32.5182 1.22032 0.997298 0
M  V30 355 C 33.9292 1.0397 1.55071 0
M  V30 356 C 34.2802 -0.398192 1.92117 0
M  V30 357 O 33.4052 -1.28254 1.74298 0
M  V30 358 C 34.0002 1.88109 2.81781 0
M  V30 359 C 32.5592 1.74357 3.33581 0
M  V30 360 C 31.7062 1.84846 2.06706 0
M  V30 361 H 34.6572 1.35941 0.818883 0
M  V30 362 H 34.6782 1.39589 3.53971 0
M  V30 363 H 34.1902 2.92754 2.54787 0
M  V30 364 H 32.2912 0.72427 3.65493 0
M  V30 365 H 32.4042 2.56772 4.04481 0
M  V30 366 H 30.7682 1.28238 2.20062 0
M  V30 367 H 31.5512 2.91014 1.82114 0
M  V30 368 N 33.9963 -1.19345 1.0293 0
M  V30 369 C 35.2443 -1.88665 0.724574 0
M  V30 370 C 35.5653 -1.80036 -0.749144 0
M  V30 371 O 34.8353 -1.2111 -1.53978 0
M  V30 372 H 33.4153 -0.698406 0.265025 0
M  V30 373 H 36.0773 -1.44885 1.30362 0
M  V30 374 H 35.1733 -2.94987 1.01926 0
M  V30 375 N 35.4744 -0.807222 -1.35358 0
M  V30 376 C 36.7214 -0.387888 -1.9875 0
M  V30 377 C 37.0494 1.04509 -1.64037 0
M  V30 378 O 36.3044 1.73986 -0.895946 0
M  V30 379 C 36.6034 -0.519036 -3.53611 0
M  V30 380 C 36.2694 -1.91542 -4.08194 0
M  V30 381 C 34.9314 -2.29745 -4.22813 0
M  V30 382 C 37.2834 -2.82896 -4.37744 0
M  V30 383 C 34.6114 -3.58668 -4.643 0
M  V30 384 C 36.9634 -4.11265 -4.8067 0
M  V30 385 C 35.6274 -4.49466 -4.93494 0
M  V30 386 H 34.8974 -0.141938 -0.727279 0
M  V30 387 H 37.5444 -1.02814 -1.6156 0
M  V30 388 H 35.8494 0.204658 -3.91265 0
M  V30 389 H 37.5464 -0.175345 -4.00616 0
M  V30 390 H 34.1364 -1.60862 -3.97268 0
M  V30 391 H 38.3204 -2.54629 -4.26002 0
M  V30 392 H 33.5764 -3.88113 -4.72418 0
M  V30 393 H 37.7504 -4.82153 -5.02496 0
M  V30 394 H 35.3774 -5.49418 -5.25399 0
M  V30 395 N 36.9525 1.47285 -0.560781 0
M  V30 396 C 38.1995 2.02464 -0.038062 0
M  V30 397 C 38.5275 1.43474 1.31322 0
M  V30 398 O 37.7825 0.581311 1.86867 0
M  V30 399 C 38.0815 3.57258 0.100784 0
M  V30 400 C 37.7475 4.35184 -1.18007 0
M  V30 401 C 36.4095 4.56194 -1.53103 0
M  V30 402 C 38.7615 4.80098 -2.02867 0
M  V30 403 C 36.0895 5.19367 -2.729 0
M  V30 404 C 38.4415 5.44593 -3.21871 0
M  V30 405 C 37.1055 5.63835 -3.57276 0
M  V30 406 H 36.3755 0.740869 -0.0139279 0
M  V30 407 H 39.0225 1.76916 -0.733012 0
M  V30 408 H 37.3275 3.81819 0.878724 0
M  V30 409 H 39.0245 3.97606 0.520639 0
M  V30 410 H 35.6145 4.19113 -0.8968 0
M  V30 411 H 39.7985 4.63642 -1.7706 0
M  V30 412 H 35.0545 5.32459 -3.00496 0
M  V30 413 H 39.2285 5.78358 -3.87911 0
M  V30 414 H 36.8555 6.12557 -4.50197 0
M  V30 415 N 38.4306 0.297415 1.54768 0
M  V30 416 C 39.3786 -0.596051 2.24833 0
M  V30 417 C 40.3726 -1.13992 1.25308 0
M  V30 418 O 41.5786 -1.09098 1.4317 0
M  V30 419 H 37.9536 -0.210814 0.721846 0
M  V30 420 H 39.9246 0.0174667 2.98395 0
M  V30 421 C 38.6736 -1.75818 2.99972 0
M  V30 422 H 37.9966 -1.3489 3.76357 0
M  V30 423 H 39.4366 -2.35949 3.52284 0
M  V30 424 C 37.8956 -2.66014 2.06732 0
M  V30 425 O 38.4256 -3.67009 1.63302 0
M  V30 426 N 36.6316 -2.33669 1.72763 0
M  V30 427 H 36.1786 -1.51586 2.08277 0
M  V30 428 H 36.1366 -2.94285 1.10652 0
M  V30 429 N 39.9087 -1.5758 0.0250728 0
M  V30 430 C 41.1547 -1.91917 -0.655413 0
M  V30 431 C 41.4877 -0.901433 -1.72011 0
M  V30 432 O 40.7627 0.0764069 -1.9435 0
M  V30 433 C 41.0457 -3.36751 -1.27558 0
M  V30 434 C 40.8987 -4.49258 -0.220719 0
M  V30 435 C 42.2177 -3.81469 -2.19475 0
M  V30 436 H 39.3367 -0.697925 -0.23679 0
M  V30 437 H 41.9787 -1.89825 0.0815036 0
M  V30 438 H 40.1287 -3.38664 -1.90365 0
M  V30 439 H 41.8007 -4.59478 0.409601 0
M  V30 440 H 40.0437 -4.31415 0.454264 0
M  V30 441 H 40.7147 -5.47618 -0.694175 0
M  V30 442 H 43.1907 -3.81266 -1.66659 0
M  V30 443 H 42.0667 -4.83512 -2.59822 0
M  V30 444 H 42.3277 -3.16744 -3.08424 0
M  V30 445 N 41.3868 0.248026 -1.55636 0
M  V30 446 C 42.2968 1.32859 -1.93354 0
M  V30 447 C 43.3128 1.52719 -0.833838 0
M  V30 448 O 44.4888 1.66363 -1.13513 0
M  V30 449 C 41.5538 2.66337 -2.21958 0
M  V30 450 C 40.6148 2.55008 -3.45354 0
M  V30 451 C 39.8478 3.82121 -3.72584 0
M  V30 452 O 40.0708 4.83951 -3.01907 0
M  V30 453 O 39.0048 3.80822 -4.6611 0
M  V30 454 H 42.8308 1.03862 -2.85388 0
M  V30 455 H 40.4158 0.448686 -1.42503 0
M  V30 456 H 42.2978 3.45216 -2.4167 0
M  V30 457 H 40.9728 2.95068 -1.33103 0
M  V30 458 H 39.8798 1.7442 -3.30951 0
M  V30 459 H 41.2128 2.31222 -4.34508 0
M  V30 460 N 42.8649 1.48995 0.513639 0
M  V30 461 C 44.1139 1.57093 1.2651 0
M  V30 462 C 44.4269 0.257091 1.93903 0
M  V30 463 O 45.6329 0.216478 2.70636 0
M  V30 464 C 44.0889 2.77118 2.29638 0
M  V30 465 C 43.6969 4.15209 1.68241 0
M  V30 466 C 45.4409 2.94538 3.05692 0
M  V30 467 C 43.3479 5.26474 2.69406 0
M  V30 468 H 42.2779 0.584876 0.475854 0
M  V30 469 H 44.9289 1.7536 0.540487 0
M  V30 470 H 43.3109 2.52319 3.05207 0
M  V30 471 H 44.4849 4.50094 0.987505 0
M  V30 472 H 42.7999 4.03042 1.04623 0
M  V30 473 H 45.3969 3.74832 3.8132 0
M  V30 474 H 45.7399 2.04614 3.62545 0
M  V30 475 H 46.2729 3.19316 2.37238 0
M  V30 476 H 43.0119 6.18417 2.17351 0
M  V30 477 H 42.5319 4.96058 3.37175 0
M  V30 478 H 44.2109 5.55277 3.32078 0
M  V30 479 N 44.343 -0.763751 1.37857 0
M  V30 480 C 45.273 -1.89103 1.36975 0
M  V30 481 C 46.254 -1.68439 0.237152 0
M  V30 482 O 47.439 -1.8918 0.438713 0
M  V30 483 C 44.569 -3.26496 1.18395 0
M  V30 484 C 43.523 -3.61741 2.28751 0
M  V30 485 C 42.849 -4.97762 1.95286 0
M  V30 486 C 44.149 -3.67665 3.70972 0
M  V30 487 H 45.843 -1.90099 2.31307 0
M  V30 488 H 43.389 -0.91319 1.11341 0
M  V30 489 H 45.342 -4.05003 1.16406 0
M  V30 490 H 44.066 -3.25955 0.205215 0
M  V30 491 H 42.725 -2.85547 2.29909 0
M  V30 492 H 42.373 -4.93769 0.959221 0
M  V30 493 H 42.073 -5.22313 2.69189 0
M  V30 494 H 43.597 -5.7866 1.94898 0
M  V30 495 H 45.011 -4.36307 3.719 0
M  V30 496 H 43.408 -4.03718 4.43995 0
M  V30 497 H 44.478 -2.68134 4.0402 0
M  V30 498 N 45.8211 -1.22559 -0.990812 0
M  V30 499 C 46.7311 -1.01394 -2.11557 0
M  V30 500 C 47.7471 0.0383962 -1.73958 0
M  V30 501 O 48.9231 -0.154787 -2.00804 0
M  V30 502 C 45.9881 -0.596569 -3.41529 0
M  V30 503 C 45.0491 -1.72276 -3.93217 0
M  V30 504 C 44.2821 -1.32521 -5.16985 0
M  V30 505 O 44.5051 -0.204909 -5.70032 0
M  V30 506 O 43.4391 -2.14247 -5.62478 0
M  V30 507 H 47.2651 -1.95633 -2.32296 0
M  V30 508 H 44.8501 -1.01172 -1.0993 0
M  V30 509 H 46.7321 -0.374263 -4.19735 0
M  V30 510 H 45.4071 0.316939 -3.22145 0
M  V30 511 H 44.3141 -1.99961 -3.16174 0
M  V30 512 H 45.6471 -2.61421 -4.17037 0
M  V30 513 N 47.2992 1.18797 -1.03562 0
M  V30 514 C 48.5462 1.8865 -0.736023 0
M  V30 515 C 48.8742 1.80041 0.735889 0
M  V30 516 O 48.1292 1.19179 1.55225 0
M  V30 517 C 48.4282 3.38692 -1.14117 0
M  V30 518 C 48.0942 3.67504 -2.6125 0
M  V30 519 C 46.7562 3.75078 -3.01447 0
M  V30 520 C 49.1082 3.80293 -3.56408 0
M  V30 521 C 46.4362 3.92915 -4.35701 0
M  V30 522 C 48.7882 3.99645 -4.90374 0
M  V30 523 C 47.4522 4.05453 -5.30249 0
M  V30 524 H 46.7222 0.690321 -0.26933 0
M  V30 525 H 49.3692 1.40641 -1.29971 0
M  V30 526 H 47.6742 3.88645 -0.496202 0
M  V30 527 H 49.3712 3.91072 -0.886789 0
M  V30 528 H 45.9612 3.62223 -2.29113 0
M  V30 529 H 50.1452 3.73779 -3.26501 0
M  V30 530 H 45.4012 3.95653 -4.66121 0
M  V30 531 H 49.5752 4.08482 -5.64017 0
M  V30 532 H 47.2022 4.19027 -6.34288 0
M  V30 533 N 48.7773 0.814389 1.34928 0
M  V30 534 C 50.1883 0.458364 1.80986 0
M  V30 535 C 50.5393 -1.02042 1.67577 0
M  V30 536 O 49.6643 -1.79352 1.21086 0
M  V30 537 C 50.2593 0.825212 3.28597 0
M  V30 538 C 48.8183 0.521677 3.72767 0
M  V30 539 C 47.9653 1.04668 2.56788 0
M  V30 540 H 50.9163 1.00533 1.22795 0
M  V30 541 H 50.9373 0.12571 3.80292 0
M  V30 542 H 50.4493 1.90154 3.38324 0
M  V30 543 H 48.5503 -0.545589 3.68584 0
M  V30 544 H 48.6633 1.05977 4.67232 0
M  V30 545 H 47.0273 0.468622 2.50352 0
M  V30 546 H 47.8103 2.12927 2.6929 0
M  V30 547 N 50.2554 -1.46986 0.568584 0
M  V30 548 C 51.5024 -2.02441 0.0487986 0
M  V30 549 C 51.8304 -1.44169 -1.30559 0
M  V30 550 O 51.0854 -0.591213 -1.86556 0
M  V30 551 C 51.3844 -3.57306 -0.081836 0
M  V30 552 C 51.0504 -4.34552 1.20313 0
M  V30 553 C 49.7124 -4.55376 1.5552 0
M  V30 554 C 52.0644 -4.79016 2.05411 0
M  V30 555 C 49.3924 -5.17913 2.7565 0
M  V30 556 C 51.7444 -5.42879 3.24754 0
M  V30 557 C 50.4084 -5.61933 3.60261 0
M  V30 558 H 49.6784 -0.740785 0.0178567 0
M  V30 559 H 52.3254 -1.76525 0.742384 0
M  V30 560 H 50.6304 -3.8228 -0.858463 0
M  V30 561 H 52.3274 -3.97876 -0.499546 0
M  V30 562 H 48.9174 -4.18631 0.919014 0
M  V30 563 H 53.1014 -4.62696 1.79516 0
M  V30 564 H 48.3574 -5.30858 3.03315 0
M  V30 565 H 52.5314 -5.76293 3.90973 0
M  V30 566 H 50.1584 -6.10161 4.53439 0
M  V30 567 N 51.7335 -0.305618 -1.54608 0
M  V30 568 C 52.9635 0.304333 -2.04346 0
M  V30 569 C 53.3715 1.47715 -1.18224 0
M  V30 570 O 52.7145 1.82591 -0.201577 0
M  V30 571 C 52.7765 0.819031 -3.50046 0
M  V30 572 C 52.4405 -0.22912 -4.56425 0
M  V30 573 C 53.4375 -1.05914 -5.08997 0
M  V30 574 C 51.1225 -0.372148 -5.0092 0
M  V30 575 C 53.1165 -2.01809 -6.04609 0
M  V30 576 C 50.8035 -1.33454 -5.9635 0
M  V30 577 C 51.8015 -2.15599 -6.48079 0
M  V30 578 O 51.4895 -3.10205 -7.41639 0
M  V30 579 H 51.2215 0.0693996 -0.672428 0
M  V30 580 H 53.7755 -0.444548 -2.00532 0
M  V30 581 H 52.0055 1.61852 -3.51199 0
M  V30 582 H 53.6945 1.34537 -3.82955 0
M  V30 583 H 54.4605 -0.959538 -4.75413 0
M  V30 584 H 50.3395 0.257304 -4.60281 0
M  V30 585 H 53.8835 -2.65966 -6.44909 0
M  V30 586 H 49.7805 -1.43485 -6.29351 0
M  V30 587 H 50.5485 -3.05237 -7.59455 0
M  V30 588 N 53.2116 1.57565 -0.0334293 0
M  V30 589 C 54.6226 1.79746 0.504798 0
M  V30 590 C 54.9736 0.944091 1.71992 0
M  V30 591 O 54.0986 0.155694 2.15839 0
M  V30 592 C 54.6936 3.25997 0.922567 0
M  V30 593 C 53.2526 3.49159 1.40588 0
M  V30 594 C 52.3996 2.74785 0.372633 0
M  V30 595 H 55.3506 1.56565 -0.259436 0
M  V30 596 H 55.3716 3.35945 1.78666 0
M  V30 597 H 54.8836 3.88081 0.0379825 0
M  V30 598 H 52.9846 2.92332 2.31025 0
M  V30 599 H 53.0976 4.57873 1.41028 0
M  V30 600 H 51.4616 2.40391 0.841672 0
M  V30 601 H 52.2446 3.39587 -0.503559 0
M  V30 602 N 54.6897 -0.239769 1.55765 0
M  V30 603 C 55.6527 -1.28038 1.90103 0
M  V30 604 C 56.6527 -1.40723 0.778055 0
M  V30 605 O 57.8427 -1.39301 1.04599 0
M  V30 606 C 54.9747 -2.65702 2.13577 0
M  V30 607 H 56.1677 -0.988048 2.83157 0
M  V30 608 H 53.7207 -0.479382 1.48767 0
M  V30 609 H 54.4557 -3.00063 1.23015 0
M  V30 610 H 54.2407 -2.57875 2.95369 0
M  V30 611 H 55.7307 -3.40828 2.41301 0
M  V30 612 N 56.1678 -1.49265 -0.50573 0
M  V30 613 C 57.4078 -1.60128 -1.27038 0
M  V30 614 C 57.7718 -0.279557 -1.89954 0
M  V30 615 O 58.9728 -0.263329 -2.67507 0
M  V30 616 C 57.2438 -2.72507 -2.31246 0
M  V30 617 S 58.8028 -3.0329 -3.17113 0
M  V30 618 H 55.6208 -0.564863 -0.4318 0
M  V30 619 H 58.2228 -1.86902 -0.573397 0
M  V30 620 H 56.9268 -3.67068 -1.83546 0
M  V30 621 H 56.4578 -2.4771 -3.05619 0
M  V30 622 H 58.4728 -2.44448 -4.31809 0
M  V30 623 N 57.6459 0.756429 -1.3826 0
M  V30 624 C 58.5939 1.89149 -1.35372 0
M  V30 625 C 59.5879 1.67691 -0.24004 0
M  V30 626 O 60.7939 1.75294 -0.408919 0
M  V30 627 H 57.1689 0.622271 -0.422236 0
M  V30 628 H 59.1399 1.88701 -2.31159 0
M  V30 629 C 57.8889 3.26599 -1.19284 0
M  V30 630 H 57.2119 3.43695 -2.0424 0
M  V30 631 H 58.6519 4.06274 -1.21316 0
M  V30 632 C 57.1109 3.3675 0.100454 0
M  V30 633 O 57.6409 3.86951 1.07851 0
M  V30 634 N 55.8469 2.90179 0.15633 0
M  V30 635 H 55.3939 2.49517 -0.640253 0
M  V30 636 H 55.3519 2.97352 1.02123 0
M  V30 637 N 59.124 1.23083 0.984299 0
M  V30 638 C 60.37 1.06214 1.72761 0
M  V30 639 C 60.703 -0.400584 1.90024 0
M  V30 640 O 59.978 -1.29672 1.44967 0
M  V30 641 C 60.261 1.78375 3.12817 0
M  V30 642 C 60.114 3.32296 3.03149 0
M  V30 643 C 61.433 1.54309 4.12161 0
M  V30 644 H 58.552 0.387251 0.627061 0
M  V30 645 H 61.194 1.51536 1.14616 0
M  V30 646 H 59.344 1.39848 3.62457 0
M  V30 647 H 61.016 3.8032 2.61064 0
M  V30 648 H 59.259 3.6153 2.39747 0
M  V30 649 H 59.93 3.77972 4.02295 0
M  V30 650 H 62.406 1.87791 3.71314 0
M  V30 651 H 61.282 2.07281 5.08258 0
M  V30 652 H 61.543 0.477572 4.39513 0
M  V30 653 N 60.6021 -1.18246 1.0419 0
M  V30 654 C 61.8421 -1.89948 0.754916 0
M  V30 655 C 62.2061 -1.78608 -0.70451 0
M  V30 656 O 63.4071 -2.4503 -1.10516 0
M  V30 657 C 61.6781 -3.36305 1.20969 0
M  V30 658 S 63.2371 -4.26088 1.04854 0
M  V30 659 H 60.0551 -0.655897 0.274446 0
M  V30 660 H 62.6571 -1.42873 1.33445 0
M  V30 661 H 61.3611 -3.42089 2.26722 0
M  V30 662 H 60.8921 -3.8842 0.624004 0
M  V30 663 H 62.9071 -4.96189 -0.0332896 0
M  V30 664 N 62.0802 -0.821533 -1.34494 0
M  V30 665 C 63.3082 -0.421884 -2.02553 0
M  V30 666 C 63.7232 0.971745 -1.61872 0
M  V30 667 O 63.0802 1.62864 -0.823496 0
M  V30 668 C 63.1312 -0.51285 -3.57844 0
M  V30 669 O 62.8522 -1.85155 -3.97051 0
M  V30 670 C 64.3532 -0.107921 -4.43169 0
M  V30 671 H 61.5732 -0.169482 -0.649243 0
M  V30 672 H 64.1172 -1.1093 -1.71798 0
M  V30 673 H 62.2722 0.126474 -3.87193 0
M  V30 674 H 62.6862 -1.82482 -4.91732 0
M  V30 675 H 64.1602 -0.222657 -5.51551 0
M  V30 676 H 64.6372 0.948401 -4.28838 0
M  V30 677 H 65.2432 -0.720989 -4.19144 0
M  V30 678 N 63.5583 1.46682 -0.576371 0
M  V30 679 C 64.5213 2.28707 0.150239 0
M  V30 680 C 65.5213 1.38035 0.824794 0
M  V30 681 O 66.7113 1.60476 0.677719 0
M  V30 682 C 63.8433 3.18248 1.22192 0
M  V30 683 H 65.0363 2.94423 -0.570521 0
M  V30 684 H 62.5893 1.52688 -0.334078 0
M  V30 685 H 63.3243 2.57265 1.97447 0
M  V30 686 H 63.1093 3.85 0.742812 0
M  V30 687 H 64.5993 3.80001 1.73172 0
M  V30 688 N 65.0364 0.313813 1.54444 0
M  V30 689 C 66.3134 -0.345447 1.92525 0
M  V30 690 C 66.6934 -1.70667 1.24242 0
M  V30 691 O 66.0414 -2.25273 0.382654 0
M  V30 692 C 66.2514 -0.44737 3.46121 0
M  V30 693 C 67.5994 -0.712238 4.18584 0
M  V30 694 O 68.6234 -0.530678 3.52225 0
M  V30 695 O 67.4824 -1.06183 5.36085 0
M  V30 696 H 64.5764 -0.195407 0.803583 0
M  V30 697 H 67.1224 0.362813 1.65776 0
M  V30 698 H 65.8944 0.509043 3.87975 0
M  V30 699 H 65.5174 -1.20359 3.78945 0
M  V30 700 N 66.5145 -1.57545 0.0417849 0
M  V30 701 C 67.7605 -1.92601 -0.635021 0
M  V30 702 C 68.0935 -0.919627 -1.71045 0
M  V30 703 O 67.3685 0.0557892 -1.9442 0
M  V30 704 C 67.6515 -3.38085 -1.23979 0
M  V30 705 C 67.5045 -4.49467 -0.173057 0
M  V30 706 C 68.8235 -3.83776 -2.15416 0
M  V30 707 H 65.9425 -0.700397 -0.229374 0
M  V30 708 H 68.5845 -1.89728 0.101633 0
M  V30 709 H 66.7345 -3.40664 -1.86762 0
M  V30 710 H 68.4065 -4.59018 0.458312 0
M  V30 711 H 66.6495 -4.30909 0.499996 0
M  V30 712 H 67.3205 -5.48323 -0.636054 0
M  V30 713 H 69.7965 -3.83013 -1.62605 0
M  V30 714 H 68.6725 -4.8624 -2.54679 0
M  V30 715 H 68.9335 -3.19998 -3.05047 0
M  V30 716 N 67.9926 0.231505 -1.5589 0
M  V30 717 C 68.9406 1.30649 -1.92441 0
M  V30 718 C 69.9346 1.49037 -0.805254 0
M  V30 719 O 71.1406 1.50329 -0.990007 0
M  V30 720 H 67.5156 0.437812 -0.611412 0
M  V30 721 H 69.4866 0.970973 -2.82161 0
M  V30 722 C 68.2356 2.65179 -2.24889 0
M  V30 723 H 67.5586 2.51835 -3.10514 0
M  V30 724 H 68.9986 3.39234 -2.54355 0
M  V30 725 C 67.4576 3.19439 -1.07054 0
M  V30 726 O 67.9876 4.00371 -0.326499 0
M  V30 727 N 66.1936 2.77675 -0.85703 0
M  V30 728 H 65.7406 2.11969 -1.46379 0
M  V30 729 H 65.6986 3.14321 -0.0703223 0
M  V30 730 N 69.4707 1.49531 0.497807 0
M  V30 731 C 70.4337 1.65916 1.58128 0
M  V30 732 C 71.4337 0.530825 1.51786 0
M  V30 733 O 72.6237 0.797342 1.54881 0
M  V30 734 C 69.7557 1.65951 2.9778 0
M  V30 735 H 70.9487 2.62556 1.44929 0
M  V30 736 H 68.5017 1.38611 0.722275 0
M  V30 737 H 69.2367 0.709065 3.16453 0
M  V30 738 H 69.0217 2.47897 3.03792 0
M  V30 739 H 70.5117 1.80673 3.76493 0
M  V30 740 N 70.9488 -0.749086 1.3866 0
M  V30 741 C 72.1768 -1.53834 1.38358 0
M  V30 742 C 72.5918 -1.88783 -0.0255219 0
M  V30 743 O 71.9488 -1.53101 -0.993292 0
M  V30 744 C 71.9998 -2.83468 2.2434 0
M  V30 745 O 71.7208 -2.50008 3.5976 0
M  V30 746 C 73.2218 -3.7758 2.32267 0
M  V30 747 H 70.4418 -0.47585 0.473083 0
M  V30 748 H 72.9858 -0.926726 1.82297 0
M  V30 749 H 71.1408 -3.40995 1.83851 0
M  V30 750 H 71.5548 -3.33182 4.05081 0
M  V30 751 H 73.0288 -4.65478 2.96706 0
M  V30 752 H 73.5058 -4.18334 1.33765 0
M  V30 753 H 74.1118 -3.25976 2.73166 0
M  V30 754 N 72.4269 -1.23603 -0.977757 0
M  V30 755 C 73.6759 -1.06377 -1.71368 0
M  V30 756 C 73.9889 0.399062 -1.91486 0
M  V30 757 O 75.1949 0.691312 -2.62551 0
M  V30 758 C 73.6509 -1.85512 -3.08404 0
M  V30 759 C 73.2589 -3.36141 -2.96164 0
M  V30 760 C 75.0029 -1.76783 -3.85938 0
M  V30 761 C 72.9099 -4.07659 -4.28449 0
M  V30 762 H 71.8399 -0.394452 -0.642591 0
M  V30 763 H 74.4909 -1.47594 -1.09034 0
M  V30 764 H 72.8729 -1.37103 -3.71509 0
M  V30 765 H 74.0469 -3.92056 -2.42133 0
M  V30 766 H 72.3619 -3.45712 -2.32104 0
M  V30 767 H 74.9589 -2.27526 -4.83876 0
M  V30 768 H 75.3019 -0.731116 -4.0983 0
M  V30 769 H 75.8349 -2.22818 -3.2954 0
M  V30 770 H 72.5739 -5.11648 -4.09752 0
M  V30 771 H 72.0939 -3.5653 -4.82334 0
M  V30 772 H 73.7729 -4.141 -4.97122 0
M  V30 773 N 73.905 1.17692 -1.04816 0
M  V30 774 C 74.853 2.23632 -0.63966 0
M  V30 775 C 75.847 1.6601 0.337219 0
M  V30 776 O 77.053 1.78844 0.203693 0
M  V30 777 H 73.428 0.727949 -0.188665 0
M  V30 778 H 75.399 2.55387 -1.54337 0
M  V30 779 C 74.148 3.4769 -0.0264051 0
M  V30 780 H 73.471 3.92331 -0.769164 0
M  V30 781 H 74.911 4.23418 0.222098 0
M  V30 782 C 73.37 3.13807 1.22584 0
M  V30 783 O 73.9 3.28236 2.31569 0
M  V30 784 N 72.106 2.68065 1.12202 0
M  V30 785 H 71.653 2.56525 0.235133 0
M  V30 786 H 71.611 2.45767 1.96076 0
M  V30 787 N 75.3831 0.828654 1.34056 0
M  V30 788 C 76.6301 0.419458 1.98108 0
M  V30 789 C 76.9581 -1.01886 1.65679 0
M  V30 790 O 76.2131 -1.72539 0.923512 0
M  V30 791 C 76.5121 0.575226 3.52741 0
M  V30 792 C 76.1781 1.98012 4.05095 0
M  V30 793 C 74.8401 2.36442 4.19104 0
M  V30 794 C 77.1921 2.89824 4.33188 0
M  V30 795 C 74.5201 3.66009 4.58535 0
M  V30 796 C 76.8721 4.1886 4.74066 0
M  V30 797 C 75.5361 4.5726 4.86281 0
M  V30 798 H 74.8061 0.153491 0.724929 0
M  V30 799 H 77.4531 1.05371 1.59904 0
M  V30 800 H 75.7581 -0.142385 3.91541 0
M  V30 801 H 77.4551 0.239057 4.00287 0
M  V30 802 H 74.0451 1.67162 3.94658 0
M  V30 803 H 78.2291 2.61375 4.21897 0
M  V30 804 H 73.4851 3.95579 4.66184 0
M  V30 805 H 77.6591 4.90086 4.94761 0
M  V30 806 H 75.2861 5.57707 5.16592 0
M  V30 807 N 76.8612 -1.46375 0.584142 0
M  V30 808 C 78.1382 -1.956 0.0033388 0
M  V30 809 C 78.5182 -1.52679 -1.45782 0
M  V30 810 O 77.8662 -0.77816 -2.14842 0
M  V30 811 C 78.0762 -3.48551 0.176891 0
M  V30 812 C 79.4242 -4.24576 0.0454609 0
M  V30 813 O 80.4482 -3.56043 0.105801 0
M  V30 814 O 79.3072 -5.46427 -0.0890376 0
M  V30 815 H 76.4012 -0.825547 -0.0490066 0
M  V30 816 H 78.9472 -1.56652 0.65256 0
M  V30 817 H 77.7192 -3.72683 1.1926 0
M  V30 818 H 77.3422 -3.94332 -0.508695 0
M  V30 819 N 78.3393 -0.321999 -1.54275 0
M  V30 820 C 79.5853 0.281461 -2.00837 0
M  V30 821 C 79.9183 1.51909 -1.20985 0
M  V30 822 O 79.1933 1.923 -0.291733 0
M  V30 823 C 79.4763 0.617162 -3.54772 0
M  V30 824 C 79.3293 -0.631064 -4.45351 0
M  V30 825 C 80.6483 1.43542 -4.16033 0
M  V30 826 H 77.7673 0.100826 -0.730071 0
M  V30 827 H 80.4093 -0.438268 -1.84876 0
M  V30 828 H 78.5593 1.23034 -3.68504 0
M  V30 829 H 80.2313 -1.26934 -4.43492 0
M  V30 830 H 78.4743 -1.26025 -4.15091 0
M  V30 831 H 79.1453 -0.351735 -5.50878 0
M  V30 832 H 81.6213 0.917134 -4.05867 0
M  V30 833 H 80.4973 1.63907 -5.23856 0
M  V30 834 H 80.7583 2.43108 -3.69257 0
M  V30 835 N 79.8174 1.5752 -0.0501392 0
M  V30 836 C 81.0654 1.9227 0.622642 0
M  V30 837 C 81.3864 0.929083 1.71444 0
M  V30 838 O 80.6564 -0.0262186 1.95882 0
M  V30 839 H 79.2364 0.709739 0.232981 0
M  V30 840 H 81.8984 1.94628 -0.102898 0
M  V30 841 H 80.9944 2.93479 1.06191 0
M  V30 842 N 81.2955 -0.223234 1.56011 0
M  V30 843 C 82.5435 -0.946003 1.78592 0
M  V30 844 C 82.8645 -1.84936 0.618349 0
M  V30 845 O 82.1345 -1.92473 -0.364833 0
M  V30 846 H 80.7145 -0.352298 0.658707 0
M  V30 847 H 83.3765 -0.235494 1.93472 0
M  V30 848 H 82.4725 -1.55381 2.70672 0
M  V30 849 N 82.7736 -1.49793 -0.48987 0
M  V30 850 C 83.7206 -1.67281 -1.59014 0
M  V30 851 C 84.6906 -0.514177 -1.57941 0
M  V30 852 O 85.8756 -0.742533 -1.75759 0
M  V30 853 C 83.0156 -1.75569 -2.97102 0
M  V30 854 C 82.1286 -3.0281 -3.08107 0
M  V30 855 C 81.2636 -3.02008 -4.36995 0
M  V30 856 C 80.3026 -4.23782 -4.41673 0
M  V30 857 N 79.4396 -4.20826 -5.62005 0
M  V30 858 H 84.2796 -2.61224 -1.43409 0
M  V30 859 H 81.8166 -1.29508 -0.697565 0
M  V30 860 H 83.7746 -1.78354 -3.77155 0
M  V30 861 H 82.4046 -0.850827 -3.11385 0
M  V30 862 H 81.4566 -3.09584 -2.21047 0
M  V30 863 H 82.7686 -3.92801 -3.07423 0
M  V30 864 H 81.9226 -3.03418 -5.25378 0
M  V30 865 H 80.6616 -2.09815 -4.4026 0
M  V30 866 H 79.6666 -4.22604 -3.5169 0
M  V30 867 H 80.8916 -5.17181 -4.40115 0
M  V30 868 H 78.8376 -3.31476 -5.66091 0
M  V30 869 H 78.7546 -5.04564 -5.62984 0
M  V30 870 H 80.0226 -4.26355 -6.52565 0
M  V30 871 N 84.2517 0.741722 -1.39055 0
M  V30 872 C 85.1987 1.85566 -1.37237 0
M  V30 873 C 86.1687 1.64457 -0.233072 0
M  V30 874 O 87.3537 1.85957 -0.427147 0
M  V30 875 C 84.4937 3.23004 -1.215 0
M  V30 876 C 83.6067 3.55864 -2.44918 0
M  V30 877 C 82.7417 4.82669 -2.21821 0
M  V30 878 C 81.7807 5.08351 -3.40948 0
M  V30 879 N 80.9177 6.26356 -3.17211 0
M  V30 880 H 85.7577 1.86455 -2.32462 0
M  V30 881 H 83.2947 0.911176 -1.15482 0
M  V30 882 H 85.2527 4.02331 -1.10389 0
M  V30 883 H 83.8827 3.21411 -0.29908 0
M  V30 884 H 82.9347 2.7129 -2.66657 0
M  V30 885 H 84.2467 3.70765 -3.33668 0
M  V30 886 H 83.4007 5.69962 -2.07914 0
M  V30 887 H 82.1397 4.69929 -1.30454 0
M  V30 888 H 81.1447 4.19522 -3.55361 0
M  V30 889 H 82.3697 5.22981 -4.33207 0
M  V30 890 H 80.3157 6.14917 -2.28502 0
M  V30 891 H 80.2327 6.41813 -3.99515 0
M  V30 892 H 81.5007 7.16506 -3.06984 0
M  V30 893 N 85.7298 1.2412 0.971189 0
M  V30 894 C 86.6798 0.997551 2.05019 0
M  V30 895 C 87.6638 -0.0597747 1.60789 0
M  V30 896 O 88.8558 0.153516 1.76333 0
M  V30 897 C 85.9848 0.600557 3.38006 0
M  V30 898 C 85.0708 1.69377 3.88809 0
M  V30 899 N 85.4618 2.92586 4.12586 0
M  V30 900 C 83.7598 1.57048 4.17435 0
M  V30 901 C 84.4608 3.63431 4.54195 0
M  V30 902 N 83.4368 2.90979 4.59165 0
M  V30 903 H 87.2388 1.93316 2.21374 0
M  V30 904 H 84.7528 1.14194 1.1547 0
M  V30 905 H 86.7498 0.40725 4.14906 0
M  V30 906 H 85.4098 -0.327903 3.2304 0
M  V30 907 H 86.4208 3.288 4.00139 0
M  V30 908 H 83.0978 0.709798 4.11422 0
M  V30 909 H 84.4878 4.69102 4.81033 0
M  V30 910 N 87.2079 -1.17134 1.05439 0
M  V30 911 C 88.1549 -2.21235 0.657539 0
M  V30 912 C 89.1249 -1.62551 -0.341543 0
M  V30 913 O 90.3099 -1.89379 -0.232393 0
M  V30 914 C 87.4499 -3.45076 0.0410575 0
M  V30 915 C 86.5629 -4.18042 1.08927 0
M  V30 916 C 85.6979 -5.29376 0.439848 0
M  V30 917 C 84.7369 -5.94132 1.4722 0
M  V30 918 N 83.8739 -6.96975 0.846756 0
M  V30 919 H 88.7139 -2.54534 1.54972 0
M  V30 920 H 86.2509 -1.25028 0.775006 0
M  V30 921 H 88.2089 -4.15862 -0.33383 0
M  V30 922 H 86.8389 -3.12353 -0.814568 0
M  V30 923 H 85.8909 -3.45945 1.58196 0
M  V30 924 H 87.2029 -4.62306 1.87282 0
M  V30 925 H 86.3569 -6.06699 0.0115125 0
M  V30 926 H 85.0959 -4.86251 -0.375656 0
M  V30 927 H 84.1009 -5.15538 1.91052 0
M  V30 928 H 85.3259 -6.39337 2.28965 0
M  V30 929 H 83.2719 -6.5598 0.0518075 0
M  V30 930 H 83.1889 -7.39565 1.5678 0
M  V30 931 H 84.4569 -7.78239 0.443277 0
M  V30 932 N 88.686 -0.835752 -1.33615 0
M  V30 933 C 89.616 -0.281739 -2.31794 0
M  V30 934 C 90.597 0.608833 -1.58831 0
M  V30 935 O 91.782 0.533035 -1.86741 0
M  V30 936 C 88.912 0.546612 -3.42971 0
M  V30 937 C 87.866 -0.247904 -4.27281 0
M  V30 938 C 87.192 0.704001 -5.30045 0
M  V30 939 C 88.492 -1.46324 -5.01385 0
M  V30 940 H 90.186 -1.10206 -2.78379 0
M  V30 941 H 87.732 -0.531388 -1.33837 0
M  V30 942 H 89.685 0.944467 -4.1068 0
M  V30 943 H 88.409 1.40011 -2.95067 0
M  V30 944 H 87.068 -0.627281 -3.61194 0
M  V30 945 H 86.716 1.55381 -4.78399 0
M  V30 946 H 86.416 0.176524 -5.87335 0
M  V30 947 H 87.94 1.09944 -6.0062 0
M  V30 948 H 89.354 -1.13871 -5.61877 0
M  V30 949 H 87.751 -1.92728 -5.6831 0
M  V30 950 H 88.821 -2.23467 -4.30338 0
M  V30 951 N 90.1641 1.46063 -0.591896 0
M  V30 952 C 91.1121 2.32124 0.148739 0
M  V30 953 C 92.1061 1.45035 0.875286 0
M  V30 954 O 93.3121 1.61609 0.792632 0
M  V30 955 H 89.6871 0.749024 0.066832 0
M  V30 956 H 91.6581 2.92392 -0.595783 0
M  V30 957 C 90.4071 3.28373 1.1431 0
M  V30 958 H 89.7301 3.95371 0.59346 0
M  V30 959 H 91.1701 3.91352 1.63155 0
M  V30 960 C 89.6291 2.54393 2.20875 0
M  V30 961 O 90.1591 2.31373 3.28374 0
M  V30 962 N 88.3651 2.14797 1.95731 0
M  V30 963 H 87.9121 2.33719 1.08319 0
M  V30 964 H 87.8701 1.65619 2.67241 0
M  V30 965 N 91.6422 0.330177 1.54103 0
M  V30 966 C 92.5722 -0.525353 2.27513 0
M  V30 967 C 93.5532 -1.11383 1.2856 0
M  V30 968 O 94.7382 -1.13773 1.57383 0
M  V30 969 C 91.8682 -1.6831 3.03791 0
M  V30 970 C 90.8222 -1.2236 4.10137 0
M  V30 971 C 90.1482 -2.46882 4.74293 0
M  V30 972 C 91.4482 -0.333697 5.21233 0
M  V30 973 H 93.1422 0.087013 2.99274 0
M  V30 974 H 90.6882 0.0432893 1.43935 0
M  V30 975 H 92.6412 -2.28795 3.5388 0
M  V30 976 H 91.3652 -2.32216 2.29659 0
M  V30 977 H 90.0242 -0.64165 3.60941 0
M  V30 978 H 89.6722 -3.09165 3.96769 0
M  V30 979 H 89.3722 -2.16825 5.46133 0
M  V30 980 H 90.8962 -3.08117 5.27159 0
M  V30 981 H 92.3102 -0.845013 5.67038 0
M  V30 982 H 90.7072 -0.125612 5.99969 0
M  V30 983 H 91.7772 0.633724 4.80741 0
M  V30 984 N 93.1203 -1.57491 0.0584922 0
M  V30 985 C 94.3973 -1.84346 -0.653918 0
M  V30 986 C 94.7773 -0.948355 -1.88599 0
M  V30 987 O 94.1253 -0.0112403 -2.28497 0
M  V30 988 C 94.3353 -3.34239 -1.00425 0
M  V30 989 C 95.6833 -4.01431 -1.38342 0
M  V30 990 O 96.7073 -3.38907 -1.09637 0
M  V30 991 O 95.5663 -5.11683 -1.91943 0
M  V30 992 H 92.6603 -0.761112 -0.323478 0
M  V30 993 H 95.2063 -1.6947 0.0884125 0
M  V30 994 H 93.9783 -3.91089 -0.128625 0
M  V30 995 H 93.6013 -3.54329 -1.80378 0
M  V30 996 N 94.5984 0.214957 -1.56127 0
M  V30 997 C 95.8454 0.938372 -1.79446 0
M  V30 998 C 96.1734 1.8407 -0.628378 0
M  V30 999 O 95.4284 1.91837 0.386925 0
M  V30 1000 C 95.7274 1.80314 -3.0858 0
M  V30 1001 C 95.3934 1.05349 -4.3842 0
M  V30 1002 C 94.0554 0.846435 -4.73697 0
M  V30 1003 C 96.4074 0.524588 -5.18553 0
M  V30 1004 C 93.7354 0.098683 -5.86617 0
M  V30 1005 C 96.0874 -0.209853 -6.32252 0
M  V30 1006 C 94.7514 -0.428102 -6.66126 0
M  V30 1007 H 94.0214 0.343375 -0.656639 0
M  V30 1008 H 96.6684 0.206077 -1.90388 0
M  V30 1009 H 94.9734 2.6035 -2.92789 0
M  V30 1010 H 96.6704 2.36513 -3.23825 0
M  V30 1011 H 93.2604 1.22486 -4.10725 0
M  V30 1012 H 97.4444 0.672008 -4.91729 0
M  V30 1013 H 92.7004 -0.0805753 -6.11347 0
M  V30 1014 H 96.8744 -0.627157 -6.9357 0
M  V30 1015 H 94.5014 -1.00944 -7.53468 0
M  V30 1016 N 96.0765 1.50051 0.48192 0
M  V30 1017 C 97.3245 1.60181 1.23234 0
M  V30 1018 C 97.6455 0.299176 1.92691 0
M  V30 1019 O 96.9155 -0.682708 1.83619 0
M  V30 1020 H 95.4955 0.590232 0.457859 0
M  V30 1021 H 98.1575 1.86775 0.556881 0
M  V30 1022 H 97.2535 2.40753 1.98607 0
M  V30 1023 N 97.5546 -0.734337 1.39446 0
M  V30 1024 C 98.4846 -1.86155 1.40955 0
M  V30 1025 C 99.4656 -1.67898 0.272827 0
M  V30 1026 O 100.651 -1.88207 0.478743 0
M  V30 1027 C 97.7806 -3.23912 1.25294 0
M  V30 1028 C 96.7346 -3.56808 2.36373 0
M  V30 1029 C 96.0606 -4.93508 2.058 0
M  V30 1030 C 97.3606 -3.59713 3.78687 0
M  V30 1031 H 99.0546 -1.8515 2.35287 0
M  V30 1032 H 96.6006 -0.889367 1.13253 0
M  V30 1033 H 98.5536 -4.02443 1.2497 0
M  V30 1034 H 97.2776 -3.25446 0.274308 0
M  V30 1035 H 95.9366 -2.80606 2.35914 0
M  V30 1036 H 95.5846 -4.91623 1.06374 0
M  V30 1037 H 95.2846 -5.16486 2.80208 0
M  V30 1038 H 96.8086 -5.74396 2.07128 0
M  V30 1039 H 98.2226 -4.2832 3.81071 0
M  V30 1040 H 96.6196 -3.94209 4.52459 0
M  V30 1041 H 97.6896 -2.59504 4.09617 0
M  V30 1042 N 99.0327 -1.24633 -0.964593 0
M  V30 1043 C 99.9627 -1.06611 -2.07741 0
M  V30 1044 C 100.944 0.0218666 -1.70086 0
M  V30 1045 O 102.129 -0.145793 -1.93652 0
M  V30 1046 C 99.2587 -0.673444 -3.40708 0
M  V30 1047 C 98.2127 -1.71054 -3.92332 0
M  V30 1048 C 97.5387 -1.17285 -5.21678 0
M  V30 1049 C 98.8387 -3.10718 -4.19824 0
M  V30 1050 H 100.533 -1.99693 -2.23076 0
M  V30 1051 H 98.0787 -0.96152 -1.07195 0
M  V30 1052 H 100.032 -0.534345 -4.17998 0
M  V30 1053 H 98.7557 0.293073 -3.25282 0
M  V30 1054 H 97.4147 -1.83791 -3.17201 0
M  V30 1055 H 97.0627 -0.196847 -5.02615 0
M  V30 1056 H 96.7627 -1.86592 -5.57187 0
M  V30 1057 H 98.2867 -1.04593 -6.01575 0
M  V30 1058 H 99.7007 -3.01192 -4.87808 0
M  V30 1059 H 98.0977 -3.77406 -4.66567 0
M  V30 1060 H 99.1677 -3.58524 -3.26479 0
M  V30 1061 N 100.511 1.16574 -1.06058 0
M  V30 1062 C 101.739 1.90952 -0.796552 0
M  V30 1063 C 102.154 1.77302 0.648808 0
M  V30 1064 O 101.511 1.11605 1.44397 0
M  V30 1065 C 101.562 3.41736 -1.17894 0
M  V30 1066 O 101.283 3.54975 -2.56758 0
M  V30 1067 C 102.784 4.33169 -0.942308 0
M  V30 1068 H 100.004 0.605594 -0.288959 0
M  V30 1069 H 102.548 1.47777 -1.41358 0
M  V30 1070 H 100.703 3.82623 -0.606491 0
M  V30 1071 H 101.117 4.4846 -2.72 0
M  V30 1072 H 102.591 5.37439 -1.25952 0
M  V30 1073 H 103.068 4.3903 0.122078 0
M  V30 1074 H 103.674 3.98007 -1.49902 0
M  V30 1075 N 101.989 0.842826 1.3317 0
M  V30 1076 C 103.4 0.496651 1.79973 0
M  V30 1077 C 103.751 -0.984641 1.69703 0
M  V30 1078 O 102.876 -1.76743 1.24863 0
M  V30 1079 C 103.471 0.894727 3.26772 0
M  V30 1080 C 102.03 0.600629 3.71577 0
M  V30 1081 C 101.177 1.10091 2.5451 0
M  V30 1082 H 104.128 1.03116 1.20635 0
M  V30 1083 H 104.149 0.206347 3.7994 0
M  V30 1084 H 103.661 1.97287 3.34215 0
M  V30 1085 H 101.762 -0.467284 3.69658 0
M  V30 1086 H 101.875 1.15863 4.64879 0
M  V30 1087 H 100.239 0.52162 2.49301 0
M  V30 1088 H 101.022 2.18591 2.64713 0
M  V30 1089 N 103.467 -1.45747 0.599634 0
M  V30 1090 C 104.417 -2.27538 -0.145107 0
M  V30 1091 C 105.401 -1.3686 -0.846055 0
M  V30 1092 O 106.593 -1.6091 -0.737357 0
M  V30 1093 C 103.722 -3.23569 -1.14708 0
M  V30 1094 C 102.808 -4.21734 -0.447383 0
M  V30 1095 N 103.199 -5.03257 0.506535 0
M  V30 1096 C 101.497 -4.40536 -0.695966 0
M  V30 1097 C 102.198 -5.74426 0.917068 0
M  V30 1098 N 101.174 -5.42966 0.26253 0
M  V30 1099 H 104.976 -2.87965 0.587672 0
M  V30 1100 H 102.49 -1.56803 0.422697 0
M  V30 1101 H 104.487 -3.8089 -1.69495 0
M  V30 1102 H 103.147 -2.64702 -1.8805 0
M  V30 1103 H 104.158 -5.10319 0.882899 0
M  V30 1104 H 100.835 -3.92802 -1.41467 0
M  V30 1105 H 102.225 -6.4995 1.70338 0
M  V30 1106 N 104.945 -0.338344 -1.53925 0
M  V30 1107 C 106.173 0.261298 -2.05243 0
M  V30 1108 C 106.588 1.44625 -1.21363 0
M  V30 1109 O 105.945 1.80811 -0.247736 0
M  V30 1110 C 105.996 0.681412 -3.5502 0
M  V30 1111 O 105.717 -0.456414 -4.35716 0
M  V30 1112 C 107.218 1.34232 -4.22489 0
M  V30 1113 H 104.438 0.0513685 -0.669031 0
M  V30 1114 H 106.982 -0.488822 -1.98572 0
M  V30 1115 H 105.137 1.38148 -3.61931 0
M  V30 1116 H 105.551 -0.122564 -5.24357 0
M  V30 1117 H 107.025 1.58708 -5.28693 0
M  V30 1118 H 107.502 2.29426 -3.74514 0
M  V30 1119 H 108.108 0.684424 -4.19757 0
M  V30 1120 N 106.423 1.57458 -0.0668435 0
M  V30 1121 C 107.37 2.12439 0.902122 0
M  V30 1122 C 108.34 1.03565 1.2986 0
M  V30 1123 O 109.525 1.312 1.38532 0
M  V30 1124 C 106.665 2.6865 2.16614 0
M  V30 1125 C 105.778 3.91663 1.82274 0
M  V30 1126 C 104.913 4.36134 3.0325 0
M  V30 1127 C 103.952 5.51808 2.64904 0
M  V30 1128 N 103.089 5.9126 3.78624 0
M  V30 1129 H 107.929 2.94934 0.426382 0
M  V30 1130 H 105.466 1.4575 0.198819 0
M  V30 1131 H 107.424 2.99346 2.90599 0
M  V30 1132 H 106.054 1.88928 2.61737 0
M  V30 1133 H 105.106 3.6746 0.983719 0
M  V30 1134 H 106.418 4.75693 1.50059 0
M  V30 1135 H 105.572 4.68465 3.85519 0
M  V30 1136 H 104.311 3.50948 3.38655 0
M  V30 1137 H 103.316 5.19133 1.81055 0
M  V30 1138 H 104.541 6.38722 2.30675 0
M  V30 1139 H 102.487 5.09024 4.138 0
M  V30 1140 H 102.404 6.70018 3.5016 0
M  V30 1141 H 103.672 6.28212 4.61486 0
M  V30 1142 N 107.901 -0.206675 1.56239 0
M  V30 1143 C 108.864 -1.23976 1.92776 0
M  V30 1144 C 109.864 -1.39041 0.807729 0
M  V30 1145 O 111.054 -1.37051 1.0753 0
M  V30 1146 C 108.186 -2.61112 2.19165 0
M  V30 1147 H 109.379 -0.927764 2.85189 0
M  V30 1148 H 106.932 -0.447718 1.4975 0
M  V30 1149 H 107.667 -2.97386 1.29352 0
M  V30 1150 H 107.452 -2.51552 3.00772 0
M  V30 1151 H 108.942 -3.35633 2.48476 0
M  V30 1152 N 109.379 -1.50304 -0.473955 0
M  V30 1153 C 110.625 -1.61389 -1.22806 0
M  V30 1154 C 110.958 -0.311955 -1.91678 0
M  V30 1155 O 110.233 0.686384 -1.81986 0
M  V30 1156 C 110.516 -2.79219 -2.27396 0
M  V30 1157 C 110.369 -4.19286 -1.62848 0
M  V30 1158 C 111.688 -2.92614 -3.28732 0
M  V30 1159 H 108.807 -0.587399 -0.445119 0
M  V30 1160 H 111.449 -1.82681 -0.522265 0
M  V30 1161 H 109.599 -2.61195 -2.87592 0
M  V30 1162 H 111.271 -4.48892 -1.06271 0
M  V30 1163 H 109.514 -4.23677 -0.931693 0
M  V30 1164 H 110.185 -4.97655 -2.38838 0
M  V30 1165 H 112.661 -3.09105 -2.78556 0
M  V30 1166 H 111.537 -3.76688 -3.99246 0
M  V30 1167 H 111.798 -2.03107 -3.92683 0
M  V30 1168 N 110.857 0.726932 -1.39834 0
M  V30 1169 C 112.087 1.51393 -1.40583 0
M  V30 1170 C 112.495 1.892 -0.000740625 0
M  V30 1171 O 111.838 1.55189 0.982951 0
M  V30 1172 C 111.9 2.82588 -2.22226 0
M  V30 1173 C 111.564 2.67169 -3.70769 0
M  V30 1174 C 112.561 2.3518 -4.63666 0
M  V30 1175 C 110.246 2.83788 -4.14451 0
M  V30 1176 C 112.24 2.20002 -5.98229 0
M  V30 1177 C 109.927 2.68229 -5.49087 0
M  V30 1178 C 110.925 2.36382 -6.4079 0
M  V30 1179 O 110.613 2.2093 -7.72946 0
M  V30 1180 H 110.345 0.474168 -0.48181 0
M  V30 1181 H 112.899 0.905247 -1.84376 0
M  V30 1182 H 111.129 3.45746 -1.73195 0
M  V30 1183 H 112.818 3.44247 -2.15055 0
M  V30 1184 H 113.584 2.21984 -4.31217 0
M  V30 1185 H 109.463 3.07566 -3.43401 0
M  V30 1186 H 113.007 1.95067 -6.69772 0
M  V30 1187 H 108.904 2.81006 -5.81125 0
M  V30 1188 H 109.672 2.35937 -7.83757 0
M  V30 1189 N 112.336 1.25143 0.95797 0
M  V30 1190 C 113.268 1.01023 2.05735 0
M  V30 1191 C 114.281 -0.0236902 1.62783 0
M  V30 1192 O 115.47 0.21448 1.77207 0
M  V30 1193 C 112.57 0.504595 3.35122 0
M  V30 1194 C 111.743 1.6039 4.06932 0
M  V30 1195 C 110.802 1.09922 5.14591 0
M  V30 1196 O 109.828 1.79293 5.40225 0
M  V30 1197 N 111.03 -0.0612545 5.80468 0
M  V30 1198 H 113.795 1.95683 2.26998 0
M  V30 1199 H 111.356 1.16303 1.12629 0
M  V30 1200 H 113.348 0.151516 4.04416 0
M  V30 1201 H 111.918 -0.347989 3.10657 0
M  V30 1202 H 111.138 2.12872 3.31782 0
M  V30 1203 H 112.426 2.34252 4.51667 0
M  V30 1204 H 111.824 -0.640985 5.62057 0
M  V30 1205 H 110.381 -0.355395 6.5083 0
M  V30 1206 N 113.814 -1.1601 1.06675 0
M  V30 1207 C 115.225 -1.68235 0.809565 0
M  V30 1208 C 115.576 -1.8454 -0.666303 0
M  V30 1209 O 114.701 -1.54374 -1.5165 0
M  V30 1210 C 115.296 -3.05585 1.46299 0
M  V30 1211 C 113.855 -3.54915 1.25349 0
M  V30 1212 C 113.002 -2.30804 1.53703 0
M  V30 1213 H 115.953 -1.00318 1.22971 0
M  V30 1214 H 115.974 -3.70174 0.880431 0
M  V30 1215 H 115.486 -2.93686 2.53713 0
M  V30 1216 H 113.587 -3.72067 0.199261 0
M  V30 1217 H 113.7 -4.36774 1.9689 0
M  V30 1218 H 112.064 -2.36007 0.957739 0
M  V30 1219 H 112.847 -2.21499 2.62284 0
M  V30 1220 N 115.292 -0.849877 -1.32721 0
M  V30 1221 C 116.708 -0.539102 -1.50219 0
M  V30 1222 C 116.908 0.931271 -1.78689 0
M  V30 1223 O 115.964 1.71455 -1.85363 0
M  V30 1224 C 117.277 -1.42196 -2.64954 0
M  V30 1225 C 118.825 -1.42189 -2.78839 0
M  V30 1226 C 119.3 -2.28985 -3.96648 0
M  V30 1227 N 120.791 -2.26754 -4.03902 0
M  V30 1228 C 121.526 -2.90644 -4.94281 0
M  V30 1229 N 121.022 -3.63629 -5.897 0
M  V30 1230 N 122.815 -2.80057 -4.87365 0
M  V30 1231 H 114.966 -1.80156 -1.12506 0
M  V30 1232 H 117.229 -0.769217 -0.554085 0
M  V30 1233 H 116.935 -2.46733 -2.50631 0
M  V30 1234 H 116.809 -1.10591 -3.60624 0
M  V30 1235 H 119.196 -0.38419 -2.92588 0
M  V30 1236 H 119.277 -1.77807 -1.83898 0
M  V30 1237 H 118.921 -3.32819 -3.83658 0
M  V30 1238 H 118.851 -1.90702 -4.90857 0
M  V30 1239 H 121.342 -1.73688 -3.3562 0
M  V30 1240 H 121.655 -4.09558 -6.55349 0
M  V30 1241 H 120 -3.67737 -5.89741 0
M  V30 1242 H 123.191 -2.22593 -4.11789 0
M  V30 1243 H 123.364 -3.30132 -5.57599 0
M  V30 1244 N 116.77 1.45427 -0.607355 0
M  V30 1245 C 118.018 2.01841 -0.102253 0
M  V30 1246 C 118.339 1.47832 1.27164 0
M  V30 1247 O 117.609 0.672497 1.83995 0
M  V30 1248 H 116.189 0.746188 -0.0348101 0
M  V30 1249 H 118.851 1.78229 -0.7887 0
M  V30 1250 H 117.947 3.12057 -0.0518585 0
M  V30 1251 N 118.248 0.346503 1.53744 0
M  V30 1252 C 119.211 -0.496439 2.23759 0
M  V30 1253 C 120.211 -1.0252 1.2388 0
M  V30 1254 O 121.401 -0.913974 1.48297 0
M  V30 1255 C 118.533 -1.69187 2.95954 0
M  V30 1256 H 119.726 0.115952 2.99676 0
M  V30 1257 H 117.279 0.0978939 1.55993 0
M  V30 1258 H 118.014 -2.34288 2.24231 0
M  V30 1259 H 117.799 -1.31989 3.69217 0
M  V30 1260 H 119.289 -2.28969 3.49232 0
M  V30 1261 N 119.726 -1.57421 0.075193 0
M  V30 1262 C 120.973 -1.93618 -0.593146 0
M  V30 1263 C 121.301 -0.955484 -1.69413 0
M  V30 1264 O 120.556 0.0283251 -1.9568 0
M  V30 1265 C 120.855 -3.36428 -1.20626 0
M  V30 1266 C 120.521 -4.50307 -0.231078 0
M  V30 1267 C 119.183 -4.81186 0.0371936 0
M  V30 1268 C 121.535 -5.19374 0.435888 0
M  V30 1269 C 118.863 -5.78466 0.979461 0
M  V30 1270 C 121.215 -6.17665 1.3665 0
M  V30 1271 C 119.879 -6.46958 1.6432 0
M  V30 1272 H 119.149 -0.708499 -0.217047 0
M  V30 1273 H 121.796 -1.90937 0.146793 0
M  V30 1274 H 120.101 -3.35592 -2.02201 0
M  V30 1275 H 121.798 -3.61727 -1.73073 0
M  V30 1276 H 118.388 -4.26227 -0.450357 0
M  V30 1277 H 122.572 -4.95711 0.241748 0
M  V30 1278 H 117.828 -5.99487 1.20106 0
M  V30 1279 H 122.002 -6.70284 1.88924 0
M  V30 1280 H 119.629 -7.2215 2.37494 0
M  V30 1281 N 121.204 0.198386 -1.56346 0
M  V30 1282 C 122.452 0.91747 -1.80075 0
M  V30 1283 C 122.773 1.83929 -0.647692 0
M  V30 1284 O 122.043 1.93029 0.334166 0
M  V30 1285 H 120.623 0.341774 -0.664228 0
M  V30 1286 H 123.285 0.204684 -1.93822 0
M  V30 1287 H 122.381 1.51055 -2.7311 0
M  V30 1288 N 122.682 1.50554 0.465978 0
M  V30 1289 C 123.93 1.61479 1.21528 0
M  V30 1290 C 124.251 0.319596 1.92363 0
M  V30 1291 O 123.521 -0.663194 1.84333 0
M  V30 1292 H 122.101 0.595055 0.451573 0
M  V30 1293 H 124.763 1.87355 0.53704 0
M  V30 1294 H 123.859 2.42846 1.96042 0
M  V30 1295 N 124.16 -0.719506 1.40217 0
M  V30 1296 C 125.385 -1.51371 1.4178 0
M  V30 1297 C 125.81 -1.88091 0.0182355 0
M  V30 1298 O 125.168 -1.52997 -0.972707 0
M  V30 1299 C 125.216 -2.768 2.31115 0
M  V30 1300 O 124.32 -3.73349 1.7517 0
M  V30 1301 H 123.661 -0.456529 0.482159 0
M  V30 1302 H 126.191 -0.88644 1.844 0
M  V30 1303 H 126.201 -3.25371 2.46167 0
M  V30 1304 H 124.876 -2.49407 3.3282 0
M  V30 1305 H 123.453 -3.32179 1.69444 0
M  V30 1306 N 125.638 -1.25649 -0.95132 0
M  V30 1307 C 126.548 -1.08073 -2.08224 0
M  V30 1308 C 127.564 -0.0169666 -1.73992 0
M  V30 1309 O 128.74 -0.218593 -2.0021 0
M  V30 1310 C 125.805 -0.704922 -3.39458 0
M  V30 1311 C 124.866 -1.84699 -3.87537 0
M  V30 1312 C 124.099 -1.48902 -5.12508 0
M  V30 1313 O 124.322 -0.386156 -5.69091 0
M  V30 1314 O 123.256 -2.32033 -5.55378 0
M  V30 1315 H 127.082 -2.02924 -2.25954 0
M  V30 1316 H 124.667 -1.04618 -1.06656 0
M  V30 1317 H 126.549 -0.507609 -4.18332 0
M  V30 1318 H 125.224 0.214291 -3.2299 0
M  V30 1319 H 124.131 -2.09919 -3.09653 0
M  V30 1320 H 125.464 -2.74557 -4.08509 0
M  V30 1321 N 127.117 1.15442 -1.07289 0
M  V30 1322 C 128.065 2.22225 -0.686952 0
M  V30 1323 C 129.059 1.66688 0.30193 0
M  V30 1324 O 130.265 1.79236 0.165712 0
M  V30 1325 H 126.64 0.723783 -0.204064 0
M  V30 1326 H 128.611 2.52056 -1.5972 0
M  V30 1327 C 127.36 3.47556 -0.100149 0
M  V30 1328 H 126.683 3.90612 -0.852211 0
M  V30 1329 H 128.123 4.23794 0.132235 0
M  V30 1330 C 126.582 3.16337 1.159 0
M  V30 1331 O 127.112 3.33074 2.24555 0
M  V30 1332 N 125.318 2.70385 1.06491 0
M  V30 1333 H 124.865 2.56966 0.180668 0
M  V30 1334 H 124.823 2.49871 1.90819 0
M  V30 1335 N 128.595 0.856903 1.32268 0
M  V30 1336 C 129.558 0.308171 2.27119 0
M  V30 1337 C 130.558 -0.533421 1.51695 0
M  V30 1338 O 131.748 -0.344607 1.70757 0
M  V30 1339 C 128.88 -0.563757 3.36206 0
M  V30 1340 H 130.073 1.14535 2.77167 0
M  V30 1341 H 127.626 0.631421 1.42978 0
M  V30 1342 H 128.361 -1.42266 2.91429 0
M  V30 1343 H 128.146 0.0386749 3.92081 0
M  V30 1344 H 129.636 -0.940386 4.06874 0
M  V30 1345 N 130.073 -1.45103 0.615059 0
M  V30 1346 C 131.301 -2.06553 0.11977 0
M  V30 1347 C 131.716 -1.45842 -1.19898 0
M  V30 1348 O 131.073 -0.575325 -1.73194 0
M  V30 1349 C 131.124 -3.61495 -0.018364 0
M  V30 1350 O 130.845 -4.19942 1.24822 0
M  V30 1351 C 132.346 -4.39947 -0.544237 0
M  V30 1352 H 129.566 -0.667096 0.0722739 0
M  V30 1353 H 132.11 -1.8623 0.84491 0
M  V30 1354 H 130.265 -3.81135 -0.693865 0
M  V30 1355 H 130.679 -5.13204 1.0827 0
M  V30 1356 H 132.153 -5.48838 -0.589953 0
M  V30 1357 H 132.63 -4.10255 -1.56805 0
M  V30 1358 H 133.236 -4.25188 0.0974703 0
M  V30 1359 N 131.551 -0.354651 -1.53558 0
M  V30 1360 C 132.499 0.512195 -2.26891 0
M  V30 1361 C 133.493 1.09263 -1.29452 0
M  V30 1362 O 134.699 1.03709 -1.47121 0
M  V30 1363 H 131.074 0.183878 -0.729173 0
M  V30 1364 H 133.045 -0.128202 -2.98124 0
M  V30 1365 C 131.794 1.64563 -3.06291 0
M  V30 1366 H 131.117 1.20829 -3.81104 0
M  V30 1367 H 132.557 2.22711 -3.60799 0
M  V30 1368 C 131.016 2.58158 -2.16462 0
M  V30 1369 O 131.546 3.60695 -1.76811 0
M  V30 1370 N 129.752 2.27096 -1.81317 0
M  V30 1371 H 129.299 1.43751 -2.1376 0
M  V30 1372 H 129.257 2.89975 -1.21498 0
M  V30 1373 N 133.029 1.57378 -0.0835403 0
M  V30 1374 C 133.959 2.1641 0.87686 0
M  V30 1375 C 134.94 1.09429 1.30228 0
M  V30 1376 O 136.125 1.37516 1.37124 0
M  V30 1377 C 133.255 2.73517 2.14022 0
M  V30 1378 C 132.209 3.85769 1.85381 0
M  V30 1379 C 131.535 4.29529 3.18448 0
M  V30 1380 C 132.835 5.09486 1.14984 0
M  V30 1381 H 134.529 2.96914 0.385059 0
M  V30 1382 H 132.075 1.42823 0.18377 0
M  V30 1383 H 134.028 3.13463 2.81636 0
M  V30 1384 H 132.752 1.90252 2.65465 0
M  V30 1385 H 131.411 3.46345 1.20169 0
M  V30 1386 H 131.059 3.43169 3.67755 0
M  V30 1387 H 130.759 5.05204 3.00071 0
M  V30 1388 H 132.283 4.72099 3.8724 0
M  V30 1389 H 133.697 5.46674 1.72687 0
M  V30 1390 H 132.094 5.90515 1.06826 0
M  V30 1391 H 133.164 4.84724 0.130749 0
M  V30 1392 N 134.507 -0.190092 1.56449 0
M  V30 1393 C 135.754 -0.909705 1.80916 0
M  V30 1394 C 136.082 -1.83047 0.657583 0
M  V30 1395 O 135.337 -1.92428 -0.356356 0
M  V30 1396 C 135.636 -1.75382 3.1141 0
M  V30 1397 C 135.302 -0.983606 4.40041 0
M  V30 1398 C 133.964 -0.770967 4.74984 0
M  V30 1399 C 136.316 -0.442024 5.19322 0
M  V30 1400 C 133.644 -0.0053448 5.867 0
M  V30 1401 C 135.996 0.310412 6.31838 0
M  V30 1402 C 134.66 0.534023 6.6536 0
M  V30 1403 H 133.93 -0.332885 0.662019 0
M  V30 1404 H 136.577 -0.175762 1.90692 0
M  V30 1405 H 134.882 -2.55659 2.96893 0
M  V30 1406 H 136.579 -2.31331 3.27547 0
M  V30 1407 H 133.169 -1.15936 4.12622 0
M  V30 1408 H 137.353 -0.593693 4.92736 0
M  V30 1409 H 132.609 0.177825 6.11141 0
M  V30 1410 H 136.783 0.737419 6.92485 0
M  V30 1411 H 134.41 1.12918 7.51767 0
M  V30 1412 N 135.985 -1.50799 -0.457987 0
M  V30 1413 C 136.915 -1.73553 -1.5621 0
M  V30 1414 C 137.896 -0.584774 -1.59732 0
M  V30 1415 O 139.081 -0.825314 -1.7579 0
M  V30 1416 C 136.211 -1.84169 -2.94447 0
M  V30 1417 C 135.165 -2.99461 -3.0579 0
M  V30 1418 C 134.491 -2.95235 -4.45803 0
M  V30 1419 C 135.791 -4.39766 -2.81786 0
M  V30 1420 H 137.485 -2.66 -1.37421 0
M  V30 1421 H 135.031 -1.28002 -0.659662 0
M  V30 1422 H 136.984 -1.98672 -3.71628 0
M  V30 1423 H 135.708 -0.883545 -3.14422 0
M  V30 1424 H 134.367 -2.8463 -2.31044 0
M  V30 1425 H 134.015 -1.97239 -4.62715 0
M  V30 1426 H 133.715 -3.72642 -4.54326 0
M  V30 1427 H 135.239 -3.11803 -5.24987 0
M  V30 1428 H 136.653 -4.55054 -3.4871 0
M  V30 1429 H 135.05 -5.18722 -3.0174 0
M  V30 1430 H 136.12 -4.51229 -1.7754 0
M  V30 1431 N 137.463 0.71206 -1.40597 0
M  V30 1432 C 138.393 1.83889 -1.43899 0
M  V30 1433 C 139.374 1.67442 -0.299504 0
M  V30 1434 O 140.559 1.87421 -0.508624 0
M  V30 1435 C 137.689 3.21877 -1.30431 0
M  V30 1436 C 136.643 3.53002 -2.42019 0
M  V30 1437 C 135.969 4.90172 -2.13626 0
M  V30 1438 C 137.269 3.53643 -3.84362 0
M  V30 1439 H 138.963 1.81383 -2.38203 0
M  V30 1440 H 136.509 0.871237 -1.14654 0
M  V30 1441 H 138.462 4.00404 -1.31357 0
M  V30 1442 H 137.186 3.24968 -0.326049 0
M  V30 1443 H 135.845 2.76818 -2.40349 0
M  V30 1444 H 135.493 4.89869 -1.14182 0
M  V30 1445 H 135.193 5.11962 -2.88389 0
M  V30 1446 H 136.717 5.71028 -2.1624 0
M  V30 1447 H 138.131 4.22203 -3.87837 0
M  V30 1448 H 136.528 3.86961 -4.58673 0
M  V30 1449 H 137.598 2.52954 -4.13693 0
M  V30 1450 N 138.941 1.26152 0.944643 0
M  V30 1451 C 139.851 1.09176 2.07648 0
M  V30 1452 C 140.867 0.0261935 1.7398 0
M  V30 1453 O 142.043 0.229208 2.00091 0
M  V30 1454 C 139.108 0.722915 3.39079 0
M  V30 1455 C 138.169 1.86752 3.86552 0
M  V30 1456 C 137.402 1.51617 5.11711 0
M  V30 1457 O 137.625 0.416331 5.68879 0
M  V30 1458 O 136.559 2.34975 5.54139 0
M  V30 1459 H 140.385 2.0412 2.24875 0
M  V30 1460 H 137.97 1.05182 1.061 0
M  V30 1461 H 139.852 0.529787 4.18056 0
M  V30 1462 H 138.527 -0.197159 3.23099 0
M  V30 1463 H 137.434 2.11558 3.08535 0
M  V30 1464 H 138.767 2.76719 4.07047 0
M  V30 1465 N 140.419 -1.14872 1.07899 0
M  V30 1466 C 141.349 -2.2193 0.725887 0
M  V30 1467 C 142.33 -1.67622 -0.28927 0
M  V30 1468 O 143.515 -1.93533 -0.160787 0
M  V30 1469 C 140.645 -3.47061 0.128856 0
M  V30 1470 C 139.599 -4.14363 1.07178 0
M  V30 1471 C 138.925 -5.33636 0.337229 0
M  V30 1472 C 140.225 -4.63492 2.40775 0
M  V30 1473 H 141.919 -2.51724 1.62097 0
M  V30 1474 H 139.465 -1.20991 0.780838 0
M  V30 1475 H 141.418 -4.21199 -0.130147 0
M  V30 1476 H 140.142 -3.16617 -0.80134 0
M  V30 1477 H 138.801 -3.42173 1.3158 0
M  V30 1478 H 138.449 -4.99449 -0.596606 0
M  V30 1479 H 138.149 -5.79609 0.965788 0
M  V30 1480 H 139.673 -6.10539 0.0861567 0
M  V30 1481 H 141.087 -5.2913 2.20669 0
M  V30 1482 H 139.484 -5.20148 2.99276 0
M  V30 1483 H 140.554 -3.78834 3.02676 0
M  V30 1484 N 141.898 -0.863906 -1.31812 0
M  V30 1485 C 142.828 -0.330843 -2.31144 0
M  V30 1486 C 143.809 0.575005 -1.60087 0
M  V30 1487 O 144.994 0.493304 -1.8783 0
M  V30 1488 C 142.124 0.47374 -3.44054 0
M  V30 1489 C 141.078 -0.338481 -4.26659 0
M  V30 1490 C 140.404 0.591412 -5.31419 0
M  V30 1491 C 141.704 -1.56926 -4.98168 0
M  V30 1492 H 143.398 -1.16086 -2.75979 0
M  V30 1493 H 140.944 -0.559657 -1.32679 0
M  V30 1494 H 142.897 0.857143 -4.12591 0
M  V30 1495 H 141.621 1.33721 -2.9797 0
M  V30 1496 H 140.28 -0.703754 -3.59782 0
M  V30 1497 H 139.928 1.45199 -4.81587 0
M  V30 1498 H 139.628 0.0519022 -5.87577 0
M  V30 1499 H 141.152 0.97179 -6.02817 0
M  V30 1500 H 142.566 -1.25764 -5.59336 0
M  V30 1501 H 140.963 -2.04739 -5.64094 0
M  V30 1502 H 142.033 -2.32544 -4.25501 0
M  V30 1503 N 143.376 1.44774 -0.622745 0
M  V30 1504 C 144.624 2.01721 -0.123655 0
M  V30 1505 C 144.945 1.49172 1.25589 0
M  V30 1506 O 144.215 0.691974 1.83272 0
M  V30 1507 H 142.795 0.745777 -0.0427225 0
M  V30 1508 H 145.457 1.77382 -0.807559 0
M  V30 1509 H 144.553 3.11984 -0.0849534 0
M  V30 1510 N 144.854 0.36279 1.53368 0
M  V30 1511 C 145.817 -0.472679 2.24273 0
M  V30 1512 C 146.817 -1.012 1.24961 0
M  V30 1513 O 148.007 -0.898194 1.49259 0
M  V30 1514 C 145.139 -1.66039 2.97731 0
M  V30 1515 H 146.332 0.14773 2.99536 0
M  V30 1516 H 143.885 0.114434 1.55881 0
M  V30 1517 H 144.62 -2.31896 2.26704 0
M  V30 1518 H 144.405 -1.28066 3.70596 0
M  V30 1519 H 145.895 -2.25252 3.51641 0
M  V30 1520 N 146.332 -1.57332 0.0918853 0
M  V30 1521 C 147.58 -1.93853 -0.571446 0
M  V30 1522 C 147.901 -0.974212 -1.6892 0
M  V30 1523 O 147.171 -0.0257254 -1.95883 0
M  V30 1524 H 145.751 -0.715666 -0.214082 0
M  V30 1525 H 148.413 -1.94287 0.154464 0
M  V30 1526 H 147.509 -2.96191 -0.983729 0
M  V30 1527 N 147.81 0.181792 -1.56548 0
M  V30 1528 C 148.72 1.24538 -1.98815 0
M  V30 1529 C 149.736 1.49045 -0.897861 0
M  V30 1530 O 150.912 1.61399 -1.20467 0
M  V30 1531 C 147.977 2.56683 -2.33055 0
M  V30 1532 C 147.038 2.40131 -3.55859 0
M  V30 1533 C 146.271 3.65975 -3.88456 0
M  V30 1534 O 146.494 4.70711 -3.22161 0
M  V30 1535 O 145.428 3.6071 -4.81842 0
M  V30 1536 H 149.254 0.916647 -2.89536 0
M  V30 1537 H 146.839 0.387842 -1.44278 0
M  V30 1538 H 148.721 3.34655 -2.56094 0
M  V30 1539 H 147.396 2.89157 -1.45498 0
M  V30 1540 H 146.303 1.60226 -3.38051 0
M  V30 1541 H 147.636 2.12585 -4.43924 0
M  V30 1542 N 149.288 1.51039 0.449983 0
M  V30 1543 C 150.218 1.74379 1.55288 0
M  V30 1544 C 151.199 0.593236 1.5942 0
M  V30 1545 O 152.384 0.834625 1.7535 0
M  V30 1546 C 149.514 1.85728 2.93466 0
M  V30 1547 C 148.468 3.01078 3.04197 0
M  V30 1548 C 147.794 2.97595 4.44231 0
M  V30 1549 C 149.094 4.41254 2.7945 0
M  V30 1550 H 150.788 2.66725 1.36008 0
M  V30 1551 H 148.334 1.2835 0.652864 0
M  V30 1552 H 150.287 2.0064 3.70569 0
M  V30 1553 H 149.011 0.900207 3.13949 0
M  V30 1554 H 147.67 2.85851 2.29531 0
M  V30 1555 H 147.318 1.99691 4.61663 0
M  V30 1556 H 147.018 3.75046 4.52343 0
M  V30 1557 H 148.542 3.14583 5.23326 0
M  V30 1558 H 149.956 4.56897 3.46292 0
M  V30 1559 H 148.353 5.20315 2.98985 0
M  V30 1560 H 149.423 4.52164 1.75144 0
M  V30 1561 N 150.766 -0.704594 1.40972 0
M  V30 1562 C 151.729 -1.80035 1.41845 0
M  V30 1563 C 152.729 -1.57774 0.310474 0
M  V30 1564 O 153.919 -1.64613 0.56992 0
M  V30 1565 C 151.051 -3.18284 1.22098 0
M  V30 1566 H 152.244 -1.80658 2.3938 0
M  V30 1567 H 149.797 -0.911329 1.26982 0
M  V30 1568 H 150.532 -3.23306 0.253672 0
M  V30 1569 H 150.317 -3.35843 2.02366 0
M  V30 1570 H 151.807 -3.98289 1.25522 0
M  V30 1571 N 152.244 -1.26651 -0.937939 0
M  V30 1572 C 153.174 -1.10993 -2.05433 0
M  V30 1573 C 154.155 -0.0142161 -1.70094 0
M  V30 1574 O 155.34 -0.186837 -1.93299 0
M  V30 1575 C 152.47 -0.745561 -3.39203 0
M  V30 1576 C 151.424 -1.79337 -3.88616 0
M  V30 1577 C 150.75 -1.28324 -5.19073 0
M  V30 1578 C 152.05 -3.19553 -4.13138 0
M  V30 1579 H 153.744 -2.0438 -2.1879 0
M  V30 1580 H 151.29 -0.984041 -1.05131 0
M  V30 1581 H 153.243 -0.622888 -4.16771 0
M  V30 1582 H 151.967 0.22401 -3.25831 0
M  V30 1583 H 150.626 -1.90477 -3.13231 0
M  V30 1584 H 150.274 -0.303414 -5.02084 0
M  V30 1585 H 149.974 -1.98369 -5.53103 0
M  V30 1586 H 151.498 -1.1733 -5.99221 0
M  V30 1587 H 152.912 -3.11471 -4.81309 0
M  V30 1588 H 151.309 -3.87218 -4.58457 0
M  V30 1589 H 152.379 -3.65368 -3.18801 0
M  V30 1590 N 153.722 1.14298 -1.08507 0
M  V30 1591 C 154.95 1.89219 -0.836876 0
M  V30 1592 C 155.365 1.78638 0.611054 0
M  V30 1593 O 154.722 1.14643 1.41998 0
M  V30 1594 C 154.773 3.39158 -1.25116 0
M  V30 1595 O 154.494 3.49449 -2.64229 0
M  V30 1596 C 155.995 4.31073 -1.03398 0
M  V30 1597 H 153.215 0.599328 -0.301739 0
M  V30 1598 H 155.759 1.44746 -1.44461 0
M  V30 1599 H 153.914 3.81251 -0.687514 0
M  V30 1600 H 154.328 4.42589 -2.81452 0
M  V30 1601 H 155.802 5.34646 -1.37323 0
M  V30 1602 H 156.279 4.3919 0.0289259 0
M  V30 1603 H 156.885 3.94738 -1.58311 0
M  V30 1604 N 155.201 0.870884 1.31352 0
M  V30 1605 C 156.134 0.271983 2.26573 0
M  V30 1606 C 157.112 -0.599385 1.51149 0
M  V30 1607 O 158.296 -0.552605 1.80218 0
M  V30 1608 C 155.423 -0.614801 3.33073 0
M  V30 1609 C 154.469 0.185342 4.26097 0
M  V30 1610 S 155.302 1.56444 5.12138 0
M  V30 1611 C 156.458 0.683807 6.22153 0
M  V30 1612 H 156.691 1.07916 2.77023 0
M  V30 1613 H 154.224 0.669459 1.39132 0
M  V30 1614 H 156.182 -1.12074 3.94905 0
M  V30 1615 H 154.843 -1.39593 2.81376 0
M  V30 1616 H 154.036 -0.490771 5.01605 0
M  V30 1617 H 153.638 0.623415 3.68768 0
M  V30 1618 H 155.93 -0.10521 6.77418 0
M  V30 1619 H 156.873 1.41004 6.93919 0
M  V30 1620 H 157.281 0.250952 5.63942 0
M  V30 1621 N 156.679 -1.44442 0.630414 0
M  V30 1622 C 158.095 -1.56832 0.295973 0
M  V30 1623 C 158.295 -1.61806 -1.20088 0
M  V30 1624 O 157.351 -1.5607 -1.9849 0
M  V30 1625 C 158.664 -2.84031 0.987264 0
M  V30 1626 C 160.212 -2.97742 0.96534 0
M  V30 1627 C 160.687 -4.27743 1.63708 0
M  V30 1628 N 162.178 -4.34555 1.60364 0
M  V30 1629 C 162.913 -5.33862 2.09234 0
M  V30 1630 N 162.409 -6.39578 2.66292 0
M  V30 1631 N 164.202 -5.25366 1.99867 0
M  V30 1632 H 156.353 -1.39457 1.60205 0
M  V30 1633 H 158.616 -0.668237 0.672431 0
M  V30 1634 H 158.322 -2.86338 2.04215 0
M  V30 1635 H 158.196 -3.73534 0.524588 0
M  V30 1636 H 160.583 -2.94989 -0.0810639 0
M  V30 1637 H 160.664 -2.09589 1.4665 0
M  V30 1638 H 160.308 -4.31255 2.68293 0
M  V30 1639 H 160.238 -5.14752 1.11076 0
M  V30 1640 H 162.729 -3.58772 1.18705 0
M  V30 1641 H 163.042 -7.11637 3.01317 0
M  V30 1642 H 161.387 -6.40265 2.70343 0
M  V30 1643 H 164.578 -4.41688 1.55013 0
M  V30 1644 H 164.751 -6.02606 2.38265 0
M  V30 1645 N 158.157 -0.370918 -1.53173 0
M  V30 1646 C 159.382 0.220293 -2.06227 0
M  V30 1647 C 159.807 1.41243 -1.24225 0
M  V30 1648 O 159.165 1.79387 -0.262645 0
M  V30 1649 C 159.213 0.586663 -3.55796 0
M  V30 1650 O 158.317 1.68317 -3.76488 0
M  V30 1651 H 157.658 0.0308099 -0.663285 0
M  V30 1652 H 160.188 -0.533068 -1.97534 0
M  V30 1653 H 160.198 0.85617 -3.98916 0
M  V30 1654 H 158.873 -0.285013 -4.14922 0
M  V30 1655 H 157.45 1.40881 -3.45264 0
M  V30 1656 N 159.635 1.57281 -0.100228 0
M  V30 1657 C 160.582 2.14305 0.856858 0
M  V30 1658 C 161.552 1.06296 1.27634 0
M  V30 1659 O 162.737 1.34109 1.35718 0
M  V30 1660 C 159.877 2.73184 2.10866 0
M  V30 1661 C 158.99 3.95442 1.73925 0
M  V30 1662 C 158.125 4.42468 2.93931 0
M  V30 1663 C 157.164 5.57303 2.5314 0
M  V30 1664 N 156.301 5.99158 3.65997 0
M  V30 1665 H 161.141 2.95772 0.363726 0
M  V30 1666 H 158.678 1.46139 0.167858 0
M  V30 1667 H 160.636 3.05442 2.84185 0
M  V30 1668 H 159.266 1.94437 2.57671 0
M  V30 1669 H 158.318 3.69464 0.905554 0
M  V30 1670 H 159.63 4.78769 1.39935 0
M  V30 1671 H 158.784 4.76537 3.75496 0
M  V30 1672 H 157.523 3.58052 3.31134 0
M  V30 1673 H 156.528 5.22857 1.70003 0
M  V30 1674 H 157.753 6.43471 2.17075 0
M  V30 1675 H 155.699 5.17687 4.02909 0
M  V30 1676 H 155.616 6.77295 3.35869 0
M  V30 1677 H 156.884 6.3786 4.48057 0
M  V30 1678 N 161.113 -0.173488 1.56642 0
M  V30 1679 C 162.06 -1.21482 1.96242 0
M  V30 1680 C 163.03 -1.44104 0.826027 0
M  V30 1681 O 164.215 -1.5688 1.08597 0
M  V30 1682 C 161.355 -2.54964 2.32567 0
M  V30 1683 C 160.468 -2.39739 3.59373 0
M  V30 1684 C 159.603 -3.66072 3.84921 0
M  V30 1685 C 158.642 -3.45771 5.05083 0
M  V30 1686 N 157.779 -4.64169 5.26775 0
M  V30 1687 H 162.619 -0.870123 2.85014 0
M  V30 1688 H 160.156 -0.418245 1.41029 0
M  V30 1689 H 162.114 -3.32758 2.5165 0
M  V30 1690 H 160.744 -2.87433 1.46908 0
M  V30 1691 H 159.796 -1.53131 3.48217 0
M  V30 1692 H 161.108 -2.20683 4.47326 0
M  V30 1693 H 160.262 -4.52303 4.0436 0
M  V30 1694 H 159.001 -3.88105 2.9534 0
M  V30 1695 H 158.006 -2.57927 4.85545 0
M  V30 1696 H 159.231 -3.25163 5.96193 0
M  V30 1697 H 157.177 -4.86425 4.40144 0
M  V30 1698 H 157.094 -4.48019 6.08946 0
M  V30 1699 H 158.362 -5.51689 5.5069 0
M  V30 1700 N 162.591 -1.51276 -0.441967 0
M  V30 1701 C 163.521 -1.752 -1.54361 0
M  V30 1702 C 164.502 -0.601682 -1.59103 0
M  V30 1703 O 165.687 -0.843913 -1.74905 0
M  V30 1704 C 162.817 -1.87282 -2.92477 0
M  V30 1705 C 161.771 -3.02687 -3.02596 0
M  V30 1706 C 161.097 -2.99947 -4.42647 0
M  V30 1707 C 162.397 -4.4273 -2.77106 0
M  V30 1708 H 164.091 -2.67442 -1.34592 0
M  V30 1709 H 161.637 -1.28694 -0.646048 0
M  V30 1710 H 163.59 -2.02602 -3.695 0
M  V30 1711 H 162.314 -0.916844 -3.13467 0
M  V30 1712 H 160.973 -2.87065 -2.28012 0
M  V30 1713 H 160.621 -2.02136 -4.60597 0
M  V30 1714 H 160.321 -3.77439 -4.50348 0
M  V30 1715 H 161.845 -3.17354 -5.2165 0
M  V30 1716 H 163.259 -4.58727 -3.43864 0
M  V30 1717 H 161.656 -5.21893 -2.96222 0
M  V30 1718 H 162.726 -4.53087 -1.72744 0
M  V30 1719 N 164.069 0.697108 -1.41344 0
M  V30 1720 C 165.48 1.27697 -1.36199 0
M  V30 1721 C 165.831 1.9615 -0.0443463 0
M  V30 1722 O 164.956 1.98689 0.857419 0
M  V30 1723 C 165.551 2.32223 -2.46694 0
M  V30 1724 C 164.11 2.8579 -2.44952 0
M  V30 1725 C 163.257 1.59807 -2.26621 0
M  V30 1726 H 166.208 0.491968 -1.50882 0
M  V30 1727 H 166.229 3.1348 -2.15664 0
M  V30 1728 H 165.741 1.82373 -3.42581 0
M  V30 1729 H 163.842 3.3982 -1.52817 0
M  V30 1730 H 163.955 3.36325 -3.41207 0
M  V30 1731 H 162.319 1.8556 -1.7447 0
M  V30 1732 H 163.102 1.11956 -3.24532 0
M  V30 1733 N 165.547 1.27147 0.931209 0
M  V30 1734 C 166.796 1.12664 1.67302 0
M  V30 1735 C 167.109 -0.327718 1.92835 0
M  V30 1736 O 168.315 -0.593392 2.64936 0
M  V30 1737 C 166.771 1.9683 3.01307 0
M  V30 1738 C 166.379 3.46901 2.83485 0
M  V30 1739 C 168.123 1.90985 3.79111 0
M  V30 1740 C 166.03 4.23279 4.13024 0
M  V30 1741 H 164.96 0.41803 0.627509 0
M  V30 1742 H 167.611 1.51539 1.03481 0
M  V30 1743 H 165.993 1.50797 3.66164 0
M  V30 1744 H 167.167 4.00773 2.27415 0
M  V30 1745 H 165.482 3.54088 2.19113 0
M  V30 1746 H 168.079 2.45328 4.75098 0
M  V30 1747 H 168.422 0.882718 4.06834 0
M  V30 1748 H 168.955 2.34895 3.21044 0
M  V30 1749 H 165.694 5.26503 3.90481 0
M  V30 1750 H 165.214 3.74186 4.6877 0
M  V30 1751 H 166.893 4.32265 4.81411 0
M  V30 1752 N 167.025 -1.13721 1.09112 0
M  V30 1753 C 167.973 -2.21103 0.722219 0
M  V30 1754 C 168.967 -1.67147 -0.275374 0
M  V30 1755 O 170.173 -1.79477 -0.137176 0
M  V30 1756 H 166.548 -0.720445 0.215553 0
M  V30 1757 H 168.519 -2.49483 1.63709 0
M  V30 1758 C 167.268 -3.47352 0.15543 0
M  V30 1759 H 166.591 -3.89206 0.914246 0
M  V30 1760 H 168.031 -4.2395 -0.0647967 0
M  V30 1761 C 166.49 -3.1814 -1.10852 0
M  V30 1762 O 167.02 -3.36604 -2.19227 0
M  V30 1763 N 165.226 -2.72045 -1.02176 0
M  V30 1764 H 164.773 -2.57221 -0.139764 0
M  V30 1765 H 164.731 -2.52875 -1.8682 0
M  V30 1766 N 168.503 -0.877838 -1.30888 0
M  V30 1767 C 169.752 -0.488793 -1.95688 0
M  V30 1768 C 170.065 0.965485 -1.70111 0
M  V30 1769 O 171.271 1.46104 -2.28836 0
M  V30 1770 C 169.727 -0.823201 -3.50359 0
M  V30 1771 C 169.335 -2.29477 -3.84765 0
M  V30 1772 C 171.079 -0.503009 -4.21509 0
M  V30 1773 C 168.986 -2.57118 -5.32583 0
M  V30 1774 H 167.916 -0.179062 -0.732429 0
M  V30 1775 H 170.567 -1.07183 -1.48943 0
M  V30 1776 H 168.949 -0.169331 -3.95638 0
M  V30 1777 H 170.123 -2.99236 -3.5042 0
M  V30 1778 H 168.438 -2.58178 -3.267 0
M  V30 1779 H 171.035 -0.68665 -5.30273 0
M  V30 1780 H 171.378 0.557109 -4.12555 0
M  V30 1781 H 171.911 -1.11376 -3.8189 0
M  V30 1782 H 168.65 -3.61843 -5.4658 0
M  V30 1783 H 168.17 -1.91961 -5.68253 0
M  V30 1784 H 169.849 -2.42251 -5.99936 0
M  V30 1785 N 169.982 1.44106 -0.638065 0
M  V30 1786 C 171.21 2.06336 -0.152615 0
M  V30 1787 C 171.625 1.47731 1.17563 0
M  V30 1788 O 170.982 0.602806 1.72257 0
M  V30 1789 C 171.033 3.61479 -0.0391491 0
M  V30 1790 O 170.754 4.17903 -1.31487 0
M  V30 1791 C 172.255 4.40757 0.474176 0
M  V30 1792 H 169.475 0.665862 -0.0828776 0
M  V30 1793 H 172.019 1.84862 -0.87443 0
M  V30 1794 H 170.174 3.82191 0.633142 0
M  V30 1795 H 170.588 5.11416 -1.16421 0
M  V30 1796 H 172.062 5.49707 0.502562 0
M  V30 1797 H 172.539 4.12697 1.50258 0
M  V30 1798 H 173.145 4.24979 -0.165102 0
M  V30 1799 N 171.46 0.379036 1.52974 0
M  V30 1800 C 172.688 -0.20679 2.05864 0
M  V30 1801 C 173.103 -1.41356 1.25155 0
M  V30 1802 O 172.46 -1.8009 0.295588 0
M  V30 1803 C 172.511 -0.587045 3.56702 0
M  V30 1804 O 172.232 0.571776 4.34353 0
M  V30 1805 C 173.733 -1.22983 4.25899 0
M  V30 1806 H 170.953 -0.0336123 0.670158 0
M  V30 1807 H 173.497 0.541298 1.97206 0
M  V30 1808 H 171.652 -1.28504 3.65466 0
M  V30 1809 H 172.066 0.261544 5.23847 0
M  V30 1810 H 173.54 -1.44635 5.32715 0
M  V30 1811 H 174.017 -2.19416 3.80465 0
M  V30 1812 H 174.623 -0.572892 4.21424 0
M  V30 1813 N 172.938 -1.57226 0.108567 0
M  V30 1814 C 174.186 -1.94448 -0.550853 0
M  V30 1815 C 174.507 -0.992074 -1.67878 0
M  V30 1816 O 173.777 -0.0465 -1.95845 0
M  V30 1817 H 172.357 -0.717897 -0.206479 0
M  V30 1818 H 175.019 -1.94112 0.175062 0
M  V30 1819 H 174.115 -2.97218 -0.952259 0
M  V30 1820 N 174.416 0.165178 -1.56732 0
M  V30 1821 C 175.326 1.22423 -2.00125 0
M  V30 1822 C 176.342 1.48084 -0.913619 0
M  V30 1823 O 177.518 1.60112 -1.22172 0
M  V30 1824 C 174.583 2.54197 -2.35764 0
M  V30 1825 C 173.644 2.36343 -3.58386 0
M  V30 1826 C 172.877 3.61834 -3.92316 0
M  V30 1827 O 173.1 4.67267 -3.27135 0
M  V30 1828 O 172.034 3.55579 -4.85641 0
M  V30 1829 H 175.86 0.885886 -2.90492 0
M  V30 1830 H 173.445 0.372518 -1.44681 0
M  V30 1831 H 175.327 3.3192 -2.59629 0
M  V30 1832 H 174.002 2.87598 -1.48557 0
M  V30 1833 H 172.909 1.56632 -3.39731 0
M  V30 1834 H 174.242 2.07865 -4.46154 0
M  V30 1835 N 175.894 1.51508 0.433938 0
M  V30 1836 C 176.804 1.75917 1.5521 0
M  V30 1837 C 177.82 0.643545 1.61662 0
M  V30 1838 O 178.996 0.926183 1.7884 0
M  V30 1839 C 176.061 1.88213 2.91164 0
M  V30 1840 C 175.122 3.12074 2.94802 0
M  V30 1841 C 174.355 3.23774 4.24271 0
M  V30 1842 O 174.578 2.4133 5.16833 0
M  V30 1843 O 173.512 4.16774 4.34262 0
M  V30 1844 H 177.338 2.70777 1.37527 0
M  V30 1845 H 174.923 1.36051 0.617293 0
M  V30 1846 H 176.805 1.98267 3.71845 0
M  V30 1847 H 175.48 0.965413 3.08968 0
M  V30 1848 H 174.387 3.07497 2.13065 0
M  V30 1849 H 175.72 4.03446 2.81943 0
M  V30 1850 N 177.372 -0.689602 1.41712 0
M  V30 1851 C 178.304 -1.815 1.39966 0
M  V30 1852 C 179.317 -1.59995 0.300917 0
M  V30 1853 O 180.506 -1.69387 0.563039 0
M  V30 1854 C 177.606 -3.18364 1.16179 0
M  V30 1855 C 176.779 -3.66847 2.38206 0
M  V30 1856 C 175.838 -4.82398 2.10186 0
M  V30 1857 O 174.864 -4.93706 2.83272 0
M  V30 1858 N 176.066 -5.70064 1.0958 0
M  V30 1859 H 178.831 -1.83488 2.36965 0
M  V30 1860 H 176.392 -0.872149 1.36401 0
M  V30 1861 H 178.384 -3.93301 0.953756 0
M  V30 1862 H 176.954 -3.11365 0.27756 0
M  V30 1863 H 176.174 -2.82751 2.74673 0
M  V30 1864 H 177.462 -3.95978 3.19498 0
M  V30 1865 H 176.86 -5.63565 0.491019 0
M  V30 1866 H 175.417 -6.44874 0.947656 0
M  V30 1867 N 178.85 -1.27639 -0.924453 0
M  V30 1868 C 179.782 -1.06442 -2.02985 0
M  V30 1869 C 180.795 -0.0194771 -1.62788 0
M  V30 1870 O 181.984 -0.261388 -1.76576 0
M  V30 1871 C 179.084 -0.59327 -3.33667 0
M  V30 1872 C 178.257 -1.71123 -4.02537 0
M  V30 1873 C 177.316 -1.23527 -5.11495 0
M  V30 1874 O 176.342 -1.93553 -5.35281 0
M  V30 1875 N 177.544 -0.0926678 -5.80426 0
M  V30 1876 H 180.309 -2.01633 -2.2173 0
M  V30 1877 H 177.87 -1.19248 -1.09505 0
M  V30 1878 H 179.862 -0.258686 -4.03872 0
M  V30 1879 H 178.432 0.265502 -3.1147 0
M  V30 1880 H 177.652 -2.21593 -3.26022 0
M  V30 1881 H 178.94 -2.46145 -4.45298 0
M  V30 1882 H 178.338 0.491741 -5.63559 0
M  V30 1883 H 176.895 0.182714 -6.51544 0
M  V30 1884 N 180.328 1.1314 -1.09713 0
M  V30 1885 C 181.574 1.84757 -0.836224 0
M  V30 1886 C 181.907 1.8347 0.636598 0
M  V30 1887 O 181.182 1.27491 1.46889 0
M  V30 1888 C 181.465 3.32782 -1.37578 0
M  V30 1889 C 181.318 3.42567 -2.91493 0
M  V30 1890 C 182.637 4.28307 -1.01198 0
M  V30 1891 H 179.756 0.67082 -0.305236 0
M  V30 1892 H 182.398 1.3278 -1.35903 0
M  V30 1893 H 180.548 3.77177 -0.931097 0
M  V30 1894 H 182.22 3.06862 -3.44432 0
M  V30 1895 H 180.463 2.83349 -3.28475 0
M  V30 1896 H 181.134 4.46674 -3.24324 0
M  V30 1897 H 183.61 3.91999 -1.39556 0
M  V30 1898 H 182.486 5.30307 -1.41653 0
M  V30 1899 H 182.747 4.42029 0.0794833 0
M  V30 1900 N 181.806 0.884767 1.30421 0
M  V30 1901 C 183.031 0.517288 2.00845 0
M  V30 1902 C 183.456 -0.886779 1.65885 0
M  V30 1903 O 182.814 -1.58768 0.875354 0
M  V30 1904 C 182.862 0.698994 3.5376 0
M  V30 1905 O 181.966 -0.255208 4.1161 0
M  V30 1906 H 181.307 0.203872 0.631927 0
M  V30 1907 H 183.837 1.19225 1.66272 0
M  V30 1908 H 183.847 0.597912 4.03595 0
M  V30 1909 H 182.522 1.72271 3.78544 0
M  V30 1910 H 181.099 -0.10784 3.72744 0
M  V30 1911 N 183.284 -1.43765 0.645699 0
M  V30 1912 C 184.214 -2.33471 -0.0370477 0
M  V30 1913 C 185.195 -1.49042 -0.819779 0
M  V30 1914 O 186.38 -1.77726 -0.782758 0
M  V30 1915 C 183.51 -3.32311 -1.0093 0
M  V30 1916 C 182.464 -4.2667 -0.337201 0
M  V30 1917 C 181.79 -5.1549 -1.42037 0
M  V30 1918 C 183.09 -5.16657 0.765706 0
M  V30 1919 H 184.784 -2.90809 0.712069 0
M  V30 1920 H 182.33 -1.39834 0.343876 0
M  V30 1921 H 184.283 -3.9396 -1.49578 0
M  V30 1922 H 183.007 -2.73213 -1.78948 0
M  V30 1923 H 181.666 -3.66374 0.128771 0
M  V30 1924 H 181.314 -4.52735 -2.1918 0
M  V30 1925 H 181.014 -5.79438 -0.975966 0
M  V30 1926 H 182.538 -5.80012 -1.90838 0
M  V30 1927 H 183.952 -5.72158 0.361702 0
M  V30 1928 H 182.349 -5.89286 1.13413 0
M  V30 1929 H 183.419 -4.56796 1.62683 0
M  V30 1930 N 184.763 -0.387143 -1.52771 0
M  V30 1931 C 185.673 0.456442 -2.30117 0
M  V30 1932 C 186.689 1.07342 -1.36944 0
M  V30 1933 O 187.865 1.07971 -1.70013 0
M  V30 1934 C 184.93 1.56957 -3.09136 0
M  V30 1935 C 183.991 0.977916 -4.18014 0
M  V30 1936 C 183.224 2.038 -4.93256 0
M  V30 1937 O 183.447 3.25271 -4.68567 0
M  V30 1938 O 182.381 1.6565 -5.78657 0
M  V30 1939 H 186.207 -0.17359 -3.03203 0
M  V30 1940 H 183.792 -0.150919 -1.48636 0
M  V30 1941 H 185.674 2.21628 -3.58412 0
M  V30 1942 H 184.349 2.18461 -2.38865 0
M  V30 1943 H 183.256 0.294525 -3.72939 0
M  V30 1944 H 184.589 0.407128 -4.90513 0
M  V30 1945 N 186.241 1.57166 -0.116904 0
M  V30 1946 C 187.466 1.999 0.55271 0
M  V30 1947 C 187.891 0.996039 1.59564 0
M  V30 1948 O 187.249 -0.032556 1.81271 0
M  V30 1949 C 187.297 3.4152 1.15742 0
M  V30 1950 O 186.401 3.44106 2.27299 0
M  V30 1951 H 185.742 0.649447 0.138258 0
M  V30 1952 H 188.272 2.03573 -0.204759 0
M  V30 1953 H 188.282 3.79684 1.49346 0
M  V30 1954 H 186.957 4.14034 0.393493 0
M  V30 1955 H 185.534 3.17759 1.9515 0
M  V30 1956 N 187.719 -0.156864 1.56817 0
M  V30 1957 C 188.965 -0.872416 1.83076 0
M  V30 1958 C 189.298 -1.81261 0.697001 0
M  V30 1959 O 188.573 -1.92171 -0.30008 0
M  V30 1960 C 188.856 -1.65551 3.19789 0
M  V30 1961 C 188.709 -0.737467 4.43713 0
M  V30 1962 C 190.028 -2.62012 3.53606 0
M  V30 1963 H 187.147 -0.315715 0.665953 0
M  V30 1964 H 189.789 -0.138004 1.89498 0
M  V30 1965 H 187.939 -2.28159 3.14445 0
M  V30 1966 H 189.611 -0.123143 4.61136 0
M  V30 1967 H 187.854 -0.0464067 4.33775 0
M  V30 1968 H 188.525 -1.32122 5.35955 0
M  V30 1969 H 191.001 -2.09525 3.59497 0
M  V30 1970 H 189.877 -3.13861 4.50314 0
M  V30 1971 H 190.138 -3.42902 2.79053 0
M  V30 1972 N 189.197 -1.51736 -0.425897 0
M  V30 1973 C 190.474 -1.55519 -1.1863 0
M  V30 1974 C 190.854 -0.326219 -2.08564 0
M  V30 1975 O 190.202 0.688012 -2.17896 0
M  V30 1976 C 190.412 -2.87521 -1.9782 0
M  V30 1977 C 191.76 -3.39899 -2.54468 0
M  V30 1978 O 192.784 -2.89148 -2.08019 0
M  V30 1979 O 191.643 -4.2848 -3.39215 0
M  V30 1980 H 188.737 -0.625739 -0.540721 0
M  V30 1981 H 191.283 -1.64055 -0.434038 0
M  V30 1982 H 190.055 -3.68422 -1.31836 0
M  V30 1983 H 189.678 -2.822 -2.80088 0
M  V30 1984 N 190.675 0.682077 -1.42076 0
M  V30 1985 C 191.921 1.44428 -1.42367 0
M  V30 1986 C 192.254 1.94164 -0.0373056 0
M  V30 1987 O 191.529 1.70429 0.937239 0
M  V30 1988 C 191.812 2.64654 -2.44194 0
M  V30 1989 C 191.665 2.20596 -3.91991 0
M  V30 1990 C 192.984 3.66865 -2.431 0
M  V30 1991 H 190.103 0.523834 -0.518428 0
M  V30 1992 H 192.745 0.77576 -1.73442 0
M  V30 1993 H 190.895 3.2169 -2.17826 0
M  V30 1994 H 192.567 1.68783 -4.29313 0
M  V30 1995 H 190.81 1.52242 -4.06208 0
M  V30 1996 H 191.481 3.06921 -4.58807 0
M  V30 1997 H 193.957 3.19531 -2.66532 0
M  V30 1998 H 192.833 4.48577 -3.16339 0
M  V30 1999 H 193.094 4.17493 -1.45437 0
M  V30 2000 N 192.153 1.28127 0.917671 0
M  V30 2001 C 193.383 1.17722 1.6978 0
M  V30 2002 C 193.791 -0.267261 1.87303 0
M  V30 2003 O 193.134 -1.19286 1.39702 0
M  V30 2004 C 193.196 1.79958 3.11216 0
M  V30 2005 C 192.86 3.29187 3.16993 0
M  V30 2006 C 193.857 4.25679 2.98485 0
M  V30 2007 C 191.542 3.70075 3.39632 0
M  V30 2008 C 193.536 5.61035 3.02521 0
M  V30 2009 C 191.223 5.05557 3.433 0
M  V30 2010 C 192.221 6.00847 3.24764 0
M  V30 2011 O 191.909 7.33859 3.28187 0
M  V30 2012 H 191.641 0.409788 0.537634 0
M  V30 2013 H 194.195 1.69694 1.15728 0
M  V30 2014 H 192.425 1.22475 3.66793 0
M  V30 2015 H 194.114 1.64125 3.71238 0
M  V30 2016 H 194.88 3.95426 2.80826 0
M  V30 2017 H 190.759 2.96373 3.53106 0
M  V30 2018 H 194.303 6.35388 2.87971 0
M  V30 2019 H 190.2 5.35462 3.60486 0
M  V30 2020 H 190.968 7.42436 3.44575 0
M  V30 2021 N 193.631 -1.12557 1.10312 0
M  V30 2022 C 194.878 -1.84038 0.844759 0
M  V30 2023 C 195.206 -1.84026 -0.629668 0
M  V30 2024 O 194.461 -1.28026 -1.48013 0
M  V30 2025 C 194.76 -3.31462 1.33669 0
M  V30 2026 C 194.426 -3.51647 2.82232 0
M  V30 2027 C 193.088 -3.56864 3.22802 0
M  V30 2028 C 195.44 -3.58867 3.77974 0
M  V30 2029 C 192.768 -3.66844 4.57867 0
M  V30 2030 C 195.12 -3.70375 5.1284 0
M  V30 2031 C 193.784 -3.73848 5.52986 0
M  V30 2032 H 193.054 -0.673444 0.309119 0
M  V30 2033 H 195.701 -1.32824 1.37949 0
M  V30 2034 H 194.006 -3.85091 0.721949 0
M  V30 2035 H 195.703 -3.85236 1.11329 0
M  V30 2036 H 192.293 -3.48249 2.49842 0
M  V30 2037 H 196.477 -3.54107 3.47738 0
M  V30 2038 H 191.733 -3.67804 4.88396 0
M  V30 2039 H 195.907 -3.74904 5.86873 0
M  V30 2040 H 193.534 -3.81333 6.57639 0
M  V30 2041 N 195.109 -0.891671 -1.2995 0
M  V30 2042 C 196.041 -0.320695 -2.26945 0
M  V30 2043 C 197.054 0.528497 -1.53983 0
M  V30 2044 O 198.243 0.346959 -1.75096 0
M  V30 2045 C 195.343 0.562066 -3.34207 0
M  V30 2046 C 194.516 -0.259576 -4.36629 0
M  V30 2047 C 193.575 0.554739 -5.23268 0
M  V30 2048 O 192.601 -0.0249311 -5.69195 0
M  V30 2049 N 193.803 1.8625 -5.4981 0
M  V30 2050 H 196.568 -1.15432 -2.76578 0
M  V30 2051 H 194.129 -0.755336 -1.432 0
M  V30 2052 H 196.121 1.11304 -3.89093 0
M  V30 2053 H 194.691 1.29637 -2.84452 0
M  V30 2054 H 193.911 -0.991986 -3.81514 0
M  V30 2055 H 195.199 -0.822564 -5.02107 0
M  V30 2056 H 194.597 2.35628 -5.14292 0
M  V30 2057 H 193.154 2.36078 -6.07545 0
M  V30 2058 N 196.587 1.43421 -0.653314 0
M  V30 2059 C 197.864 1.95361 -0.0966581 0
M  V30 2060 C 198.244 1.59461 1.38331 0
M  V30 2061 O 197.592 0.879777 2.10884 0
M  V30 2062 C 197.802 3.47311 -0.342988 0
M  V30 2063 C 199.15 4.23875 -0.24798 0
M  V30 2064 O 200.174 3.55133 -0.275553 0
M  V30 2065 O 199.033 5.4623 -0.171771 0
M  V30 2066 H 196.127 0.826945 0.00956291 0
M  V30 2067 H 198.673 1.5336 -0.726558 0
M  V30 2068 H 197.445 3.66569 -1.36906 0
M  V30 2069 H 197.068 3.9631 0.319975 0
M  V30 2070 N 198.065 0.39524 1.52563 0
M  V30 2071 C 199.311 -0.185318 2.01952 0
M  V30 2072 C 199.644 -1.45964 1.28095 0
M  V30 2073 O 198.919 -1.90689 0.38315 0
M  V30 2074 C 199.202 -0.447193 3.57312 0
M  V30 2075 C 199.055 0.842828 4.41833 0
M  V30 2076 C 200.374 -1.23529 4.22408 0
M  V30 2077 H 197.493 -0.0658788 0.73405 0
M  V30 2078 H 200.135 0.525975 1.82575 0
M  V30 2079 H 198.285 -1.05312 3.73954 0
M  V30 2080 H 199.957 1.4795 4.36931 0
M  V30 2081 H 198.2 1.45686 4.08605 0
M  V30 2082 H 198.871 0.614165 5.48573 0
M  V30 2083 H 201.347 -0.722445 4.0978 0
M  V30 2084 H 200.223 -1.38727 5.3108 0
M  V30 2085 H 200.484 -2.25213 3.80436 0
M  V30 2086 N 199.544 -1.57102 0.125237 0
M  V30 2087 C 200.791 -1.95407 -0.531248 0
M  V30 2088 C 201.119 -1.0089 -1.66287 0
M  V30 2089 O 200.374 -0.0339431 -1.95671 0
M  V30 2090 C 200.673 -3.40096 -1.09862 0
M  V30 2091 C 200.339 -4.50815 -0.0876989 0
M  V30 2092 C 199.001 -4.80824 0.19026 0
M  V30 2093 C 201.353 -5.17724 0.600902 0
M  V30 2094 C 198.681 -5.75058 1.163 0
M  V30 2095 C 201.033 -6.13005 1.56231 0
M  V30 2096 C 199.697 -6.41403 1.8482 0
M  V30 2097 H 198.967 -0.715046 -0.194397 0
M  V30 2098 H 201.614 -1.90373 0.207463 0
M  V30 2099 H 199.919 -3.41855 -1.91422 0
M  V30 2100 H 201.616 -3.6705 -1.61478 0
M  V30 2101 H 198.206 -4.27444 -0.314528 0
M  V30 2102 H 202.39 -4.94691 0.399333 0
M  V30 2103 H 197.646 -5.95362 1.39117 0
M  V30 2104 H 201.82 -6.63934 2.10153 0
M  V30 2105 H 199.447 -7.14229 2.60349 0
M  V30 2106 N 201.022 0.148545 -1.56898 0
M  V30 2107 C 202.27 0.859717 -1.82902 0
M  V30 2108 C 202.591 1.81775 -0.70588 0
M  V30 2109 O 201.861 1.93994 0.272586 0
M  V30 2110 H 200.441 0.320469 -0.674766 0
M  V30 2111 H 203.103 0.142918 -1.94375 0
M  V30 2112 H 202.199 1.4229 -2.77777 0
M  V30 2113 N 202.5 1.5196 0.417844 0
M  V30 2114 C 203.728 1.69426 1.18753 0
M  V30 2115 C 204.143 0.399955 1.84515 0
M  V30 2116 O 203.5 -0.623288 1.71527 0
M  V30 2117 C 203.551 2.82375 2.25714 0
M  V30 2118 O 203.272 4.06793 1.62638 0
M  V30 2119 C 204.773 3.11277 3.15628 0
M  V30 2120 H 201.993 0.568031 0.357186 0
M  V30 2121 H 204.537 1.98475 0.49273 0
M  V30 2122 H 202.692 2.5587 2.90877 0
M  V30 2123 H 203.106 4.69667 2.3348 0
M  V30 2124 H 204.58 3.93843 3.86771 0
M  V30 2125 H 205.057 2.24473 3.77503 0
M  V30 2126 H 205.663 3.39515 2.56144 0
M  V30 2127 N 203.978 -0.674533 1.42435 0
M  V30 2128 C 204.911 -1.79924 1.40366 0
M  V30 2129 C 205.889 -1.60378 0.267899 0
M  V30 2130 O 207.073 -1.82847 0.458159 0
M  V30 2131 C 204.2 -3.16927 1.19478 0
M  V30 2132 C 203.246 -3.55221 2.36051 0
M  V30 2133 S 204.079 -3.5762 3.98583 0
M  V30 2134 C 205.235 -4.97315 3.80038 0
M  V30 2135 H 205.468 -1.81405 2.35541 0
M  V30 2136 H 203.001 -0.845221 1.29211 0
M  V30 2137 H 204.959 -3.96007 1.08114 0
M  V30 2138 H 203.62 -3.13031 0.258883 0
M  V30 2139 H 202.813 -4.54804 2.17185 0
M  V30 2140 H 202.415 -2.83502 2.43932 0
M  V30 2141 H 204.707 -5.85401 3.41045 0
M  V30 2142 H 205.65 -5.21228 4.79298 0
M  V30 2143 H 206.058 -4.69845 3.12899 0
M  V30 2144 N 205.456 -1.28612 -0.910864 0
M  V30 2145 C 206.702 -1.17116 -1.66299 0
M  V30 2146 C 207.057 0.276917 -1.90397 0
M  V30 2147 O 206.35 1.19795 -1.49532 0
M  V30 2148 C 206.544 -1.90624 -3.0232 0
M  V30 2149 C 206.373 -3.42431 -2.91498 0
M  V30 2150 C 205.143 -4.11773 -2.92867 0
M  V30 2151 C 207.341 -4.38124 -2.69355 0
M  V30 2152 N 205.323 -5.50025 -2.72664 0
M  V30 2153 C 206.694 -5.63759 -2.58023 0
M  V30 2154 C 208.749 -4.28016 -2.54375 0
M  V30 2155 C 207.452 -6.80436 -2.33238 0
M  V30 2156 C 209.478 -5.44433 -2.30969 0
M  V30 2157 C 208.84 -6.69034 -2.20394 0
M  V30 2158 H 204.939 -0.483506 -0.61461 0
M  V30 2159 H 207.523 -1.62299 -1.0755 0
M  V30 2160 H 205.694 -1.4787 -3.5915 0
M  V30 2161 H 207.426 -1.71488 -3.66571 0
M  V30 2162 H 204.181 -3.63378 -3.03732 0
M  V30 2163 H 204.605 -6.22705 -2.65646 0
M  V30 2164 H 209.247 -3.32388 -2.613 0
M  V30 2165 H 206.965 -7.7613 -2.25051 0
M  V30 2166 H 210.551 -5.38504 -2.20238 0
M  V30 2167 H 209.431 -7.57595 -2.02531 0
M  V30 2168 N 206.934 1.1197 -1.10907 0
M  V30 2169 C 208.174 1.85224 -0.864378 0
M  V30 2170 C 208.538 1.82411 0.599178 0
M  V30 2171 O 209.739 2.51057 0.960416 0
M  V30 2172 C 208.01 3.2868 -1.40371 0
M  V30 2173 S 209.569 4.1925 -1.29518 0
M  V30 2174 H 206.387 0.63878 -0.312219 0
M  V30 2175 H 208.989 1.3485 -1.41548 0
M  V30 2176 H 207.693 3.28289 -2.46281 0
M  V30 2177 H 207.224 3.84121 -0.849402 0
M  V30 2178 H 209.239 4.95539 -0.256059 0
M  V30 2179 N 208.412 0.89855 1.29475 0
M  V30 2180 C 209.362 0.346767 2.25348 0
M  V30 2181 C 210.346 -0.532509 1.51833 0
M  V30 2182 O 211.538 -0.374714 1.72988 0
M  V30 2183 C 208.667 -0.425681 3.40651 0
M  V30 2184 C 207.753 0.46845 4.21505 0
M  V30 2185 N 208.144 1.57514 4.80648 0
M  V30 2186 C 206.442 0.26603 4.45206 0
M  V30 2187 C 207.143 2.12889 5.41344 0
M  V30 2188 N 206.119 1.42208 5.24669 0
M  V30 2189 H 209.921 1.19219 2.68634 0
M  V30 2190 H 207.435 0.749473 1.44072 0
M  V30 2191 H 209.432 -0.837716 4.08397 0
M  V30 2192 H 208.092 -1.26838 2.98902 0
M  V30 2193 H 209.103 1.95789 4.79465 0
M  V30 2194 H 205.78 -0.538394 4.14014 0
M  V30 2195 H 207.17 3.05901 5.98226 0
M  V30 2196 N 209.89 -1.43072 0.660911 0
M  V30 2197 C 210.84 -2.27948 -0.04847 0
M  V30 2198 C 211.824 -1.40325 -0.787246 0
M  V30 2199 O 213.016 -1.63893 -0.668446 0
M  V30 2200 C 210.145 -3.28143 -1.00881 0
M  V30 2201 C 209.231 -4.23252 -0.268108 0
M  V30 2202 N 209.622 -5.00656 0.719528 0
M  V30 2203 C 207.92 -4.43092 -0.508493 0
M  V30 2204 C 208.621 -5.70019 1.15988 0
M  V30 2205 N 207.597 -5.41364 0.492584 0
M  V30 2206 H 211.399 -2.85213 0.709279 0
M  V30 2207 H 208.913 -1.54869 0.488822 0
M  V30 2208 H 210.91 -3.87736 -1.53188 0
M  V30 2209 H 209.57 -2.7244 -1.76654 0
M  V30 2210 H 210.581 -5.06115 1.09855 0
M  V30 2211 H 207.258 -3.98449 -1.24679 0
M  V30 2212 H 208.648 -6.4214 1.97751 0
M  V30 2213 N 211.368 -0.403325 -1.52352 0
M  V30 2214 C 212.331 0.413051 -2.25447 0
M  V30 2215 C 213.331 0.978513 -1.276 0
M  V30 2216 O 214.521 0.858305 -1.51587 0
M  V30 2217 C 211.653 1.58087 -3.02029 0
M  V30 2218 H 212.846 -0.227094 -2.99039 0
M  V30 2219 H 210.399 -0.155722 -1.55522 0
M  V30 2220 H 211.134 2.25804 -2.32772 0
M  V30 2221 H 210.919 1.18195 -3.73861 0
M  V30 2222 H 212.409 2.1585 -3.57489 0
M  V30 2223 N 212.846 1.57033 -0.133567 0
M  V30 2224 C 213.756 2.19632 0.824564 0
M  V30 2225 C 214.772 1.17666 1.28182 0
M  V30 2226 O 215.948 1.50193 1.3418 0
M  V30 2227 C 213.013 2.79499 2.05137 0
M  V30 2228 C 212.074 3.96548 1.64464 0
M  V30 2229 C 211.307 4.5355 2.81297 0
M  V30 2230 O 211.53 4.09438 3.97136 0
M  V30 2231 O 210.464 5.44018 2.57542 0
M  V30 2232 H 214.29 3.01991 0.321766 0
M  V30 2233 H 211.875 1.49112 0.0927889 0
M  V30 2234 H 213.757 3.17602 2.7696 0
M  V30 2235 H 212.432 2.00162 2.54395 0
M  V30 2236 H 211.339 3.63186 0.897048 0
M  V30 2237 H 212.672 4.77364 1.19934 0
M  V30 2238 N 214.325 -0.140222 1.56975 0
M  V30 2239 C 215.258 -1.20266 1.93936 0
M  V30 2240 C 216.236 -1.41212 0.806099 0
M  V30 2241 O 217.42 -1.55713 1.06234 0
M  V30 2242 C 214.547 -2.56037 2.21726 0
M  V30 2243 C 213.593 -2.51646 3.44349 0
M  V30 2244 S 214.426 -1.97678 4.97678 0
M  V30 2245 C 215.582 -3.35165 5.28597 0
M  V30 2246 H 215.815 -0.887358 2.83749 0
M  V30 2247 H 213.348 -0.346119 1.50471 0
M  V30 2248 H 215.306 -3.34167 2.38416 0
M  V30 2249 H 213.967 -2.84755 1.32566 0
M  V30 2250 H 213.16 -3.51608 3.61092 0
M  V30 2251 H 212.762 -1.81628 3.26936 0
M  V30 2252 H 215.054 -4.31302 5.2248 0
M  V30 2253 H 215.997 -3.23269 6.30002 0
M  V30 2254 H 216.405 -3.32614 4.56101 0
M  V30 2255 N 215.803 -1.52179 -0.40978 0
M  V30 2256 C 216.735 -1.71703 -1.51825 0
M  V30 2257 C 217.748 -0.597445 -1.51441 0
M  V30 2258 O 218.937 -0.872582 -1.55719 0
M  V30 2259 C 216.037 -1.74171 -2.90719 0
M  V30 2260 C 215.21 -3.03156 -3.15302 0
M  V30 2261 C 214.269 -2.97445 -4.34065 0
M  V30 2262 O 213.295 -3.71352 -4.31377 0
M  V30 2263 N 214.497 -2.15191 -5.39141 0
M  V30 2264 H 217.262 -2.67334 -1.35472 0
M  V30 2265 H 214.823 -1.50409 -0.599069 0
M  V30 2266 H 216.815 -1.67884 -3.68235 0
M  V30 2267 H 215.385 -0.860166 -3.00533 0
M  V30 2268 H 214.605 -3.23097 -2.25836 0
M  V30 2269 H 215.893 -3.88484 -3.28569 0
M  V30 2270 H 215.291 -1.54573 -5.44173 0
M  V30 2271 H 213.848 -2.1476 -6.15403 0
M  V30 2272 N 217.281 0.66697 -1.42791 0
M  V30 2273 C 218.229 1.80157 -1.47127 0
M  V30 2274 C 219.223 1.65825 -0.346199 0
M  V30 2275 O 220.429 1.72338 -0.519572 0
M  V30 2276 H 216.804 0.594158 -0.460956 0
M  V30 2277 H 218.775 1.73619 -2.42692 0
M  V30 2278 C 217.524 3.18351 -1.39813 0
M  V30 2279 H 216.847 3.3001 -2.25684 0
M  V30 2280 H 218.287 3.97736 -1.46908 0
M  V30 2281 C 216.746 3.36707 -0.11391 0
M  V30 2282 O 217.276 3.93027 0.830241 0
M  V30 2283 N 215.482 2.90586 -0.0285295 0
M  V30 2284 H 215.029 2.4494 -0.79764 0
M  V30 2285 H 214.987 3.03245 0.830063 0
M  V30 2286 N 218.759 1.29093 0.90403 0
M  V30 2287 C 220.17 1.15186 1.46932 0
M  V30 2288 C 220.521 -0.254587 1.94541 0
M  V30 2289 O 219.646 -1.14972 1.83332 0
M  V30 2290 C 220.241 2.08492 2.67051 0
M  V30 2291 C 218.8 1.98621 3.19729 0
M  V30 2292 C 217.947 1.9967 1.92425 0
M  V30 2293 H 220.898 1.41641 0.715789 0
M  V30 2294 H 220.919 1.65461 3.42641 0
M  V30 2295 H 220.431 3.10847 2.3237 0
M  V30 2296 H 218.532 0.993389 3.59114 0
M  V30 2297 H 218.645 2.86068 3.8432 0
M  V30 2298 H 217.009 1.44208 2.09943 0
M  V30 2299 H 217.792 3.03721 1.60026 0
M  V30 2300 N 220.237 -1.11381 1.11499 0
M  V30 2301 C 221.483 -1.83403 0.865512 0
M  V30 2302 C 221.816 -1.84459 -0.607329 0
M  V30 2303 O 221.091 -1.29811 -1.44842 0
M  V30 2304 C 221.374 -3.30552 1.42855 0
M  V30 2305 C 221.227 -3.37886 2.96906 0
M  V30 2306 C 222.546 -4.26643 1.08 0
M  V30 2307 H 219.665 -0.665879 0.31587 0
M  V30 2308 H 222.307 -1.30601 1.37998 0
M  V30 2309 H 220.457 -3.75648 0.990985 0
M  V30 2310 H 222.129 -3.01343 3.49271 0
M  V30 2311 H 220.372 -2.78088 3.32941 0
M  V30 2312 H 221.043 -4.41458 3.31389 0
M  V30 2313 H 223.519 -3.89729 1.45775 0
M  V30 2314 H 222.395 -5.27986 1.50072 0
M  V30 2315 H 222.656 -4.42099 -0.00915037 0
M  V30 2316 N 221.715 -0.905404 -1.28997 0
M  V30 2317 C 222.945 -0.549049 -1.99171 0
M  V30 2318 C 223.353 0.87203 -1.67906 0
M  V30 2319 O 222.696 1.58796 -0.923561 0
M  V30 2320 C 222.758 -0.668306 -3.53234 0
M  V30 2321 C 222.422 -2.0574 -4.08069 0
M  V30 2322 C 223.419 -3.0292 -4.22534 0
M  V30 2323 C 221.104 -2.36833 -4.42962 0
M  V30 2324 C 223.098 -4.29314 -4.71135 0
M  V30 2325 C 220.785 -3.63467 -4.91258 0
M  V30 2326 C 221.783 -4.59522 -5.053 0
M  V30 2327 O 221.471 -5.83907 -5.52546 0
M  V30 2328 H 221.203 -0.208784 -0.64295 0
M  V30 2329 H 223.757 -1.21836 -1.65363 0
M  V30 2330 H 221.987 0.0580547 -3.86656 0
M  V30 2331 H 223.676 -0.320273 -4.04634 0
M  V30 2332 H 224.442 -2.80216 -3.95859 0
M  V30 2333 H 220.321 -1.62824 -4.31288 0
M  V30 2334 H 223.865 -5.04293 -4.8201 0
M  V30 2335 H 219.762 -3.86 -5.17372 0
M  V30 2336 H 220.53 -5.86578 -5.70849 0
M  V30 2337 N 223.193 1.4272 -0.668489 0
M  V30 2338 C 224.123 2.335 -0.000100175 0
M  V30 2339 C 225.104 1.50328 0.795964 0
M  V30 2340 O 226.289 1.78949 0.754385 0
M  V30 2341 C 223.419 3.33874 0.956302 0
M  V30 2342 C 222.373 4.27152 0.269278 0
M  V30 2343 C 221.699 5.17684 1.33818 0
M  V30 2344 C 222.999 5.15373 -0.847805 0
M  V30 2345 H 224.693 2.89639 -0.758244 0
M  V30 2346 H 222.239 1.39269 -0.366079 0
M  V30 2347 H 224.192 3.9629 1.43292 0
M  V30 2348 H 222.916 2.76025 1.74579 0
M  V30 2349 H 221.575 3.66123 -0.187042 0
M  V30 2350 H 221.223 4.56165 2.1195 0
M  V30 2351 H 220.923 5.80918 0.883659 0
M  V30 2352 H 222.447 5.82974 1.81586 0
M  V30 2353 H 223.861 5.7151 -0.452681 0
M  V30 2354 H 222.258 5.87407 -1.22773 0
M  V30 2355 H 223.328 4.5415 -1.69929 0
M  V30 2356 N 224.671 0.411399 1.52136 0
M  V30 2357 C 225.92 -0.165009 2.01024 0
M  V30 2358 C 226.233 -1.4603 1.30133 0
M  V30 2359 O 227.439 -2.1181 1.69849 0
M  V30 2360 C 225.895 -0.344618 3.58246 0
M  V30 2361 C 225.503 0.938716 4.38055 0
M  V30 2362 C 227.247 -0.876195 4.15359 0
M  V30 2363 C 225.154 0.726172 5.86925 0
M  V30 2364 H 224.084 -0.0654407 0.751155 0
M  V30 2365 H 226.735 0.537192 1.75461 0
M  V30 2366 H 225.117 -1.10921 3.80148 0
M  V30 2367 H 226.291 1.70963 4.27912 0
M  V30 2368 H 224.606 1.39688 3.92271 0
M  V30 2369 H 227.203 -1.05128 5.24263 0
M  V30 2370 H 227.546 -1.85152 3.7286 0
M  V30 2371 H 228.079 -0.170607 3.97434 0
M  V30 2372 H 224.818 1.67312 6.33788 0
M  V30 2373 H 224.338 -0.00540283 5.998 0
M  V30 2374 H 226.017 0.369231 6.45946 0
M  V30 2375 N 226.149 -1.5696 0.141893 0
M  V30 2376 C 227.56 -1.82797 -0.379776 0
M  V30 2377 C 227.911 -1.06033 -1.6508 0
M  V30 2378 O 227.036 -0.304011 -2.14254 0
M  V30 2379 C 227.631 -3.31578 -0.695802 0
M  V30 2380 C 226.19 -3.58014 -1.16201 0
M  V30 2381 C 225.337 -2.76699 -0.182455 0
M  V30 2382 H 228.288 -1.54406 0.366675 0
M  V30 2383 H 228.309 -3.47454 -1.55099 0
M  V30 2384 H 227.821 -3.87421 0.229449 0
M  V30 2385 H 225.922 -3.07553 -2.10338 0
M  V30 2386 H 226.035 -4.66501 -1.09151 0
M  V30 2387 H 224.399 -2.45618 -0.674072 0
M  V30 2388 H 225.182 -3.35311 0.736297 0
M  V30 2389 N 227.627 0.131896 -1.57047 0
M  V30 2390 C 228.537 1.1815 -2.02676 0
M  V30 2391 C 229.553 1.46113 -0.944824 0
M  V30 2392 O 230.729 1.57485 -1.25541 0
M  V30 2393 C 227.794 2.49139 -2.41103 0
M  V30 2394 C 226.855 2.28688 -3.63318 0
M  V30 2395 C 226.088 3.53431 -3.99903 0
M  V30 2396 O 226.311 4.60223 -3.36973 0
M  V30 2397 O 225.245 3.45198 -4.93074 0
M  V30 2398 H 229.071 0.824069 -2.92306 0
M  V30 2399 H 226.656 0.341745 -1.45439 0
M  V30 2400 H 228.538 3.26338 -2.66611 0
M  V30 2401 H 227.213 2.84382 -1.54624 0
M  V30 2402 H 226.12 1.4939 -3.42977 0
M  V30 2403 H 227.453 1.98355 -4.50462 0
M  V30 2404 N 229.106 1.52395 0.401703 0
M  V30 2405 C 230.334 1.70676 1.16949 0
M  V30 2406 C 230.749 0.419503 1.8408 0
M  V30 2407 O 230.106 -0.605061 1.72178 0
M  V30 2408 C 230.157 2.84753 2.22706 0
M  V30 2409 O 229.878 4.08495 1.58314 0
M  V30 2410 C 231.379 3.14608 3.12309 0
M  V30 2411 H 228.599 0.571787 0.351142 0
M  V30 2412 H 231.143 1.98987 0.471652 0
M  V30 2413 H 229.298 2.58941 2.88147 0
M  V30 2414 H 229.712 4.72117 2.28485 0
M  V30 2415 H 231.186 3.97923 3.82572 0
M  V30 2416 H 231.663 2.28464 3.75101 0
M  V30 2417 H 232.269 3.42212 2.52529 0
M  V30 2418 N 230.584 -0.659388 1.43143 0
M  V30 2419 C 231.83 -1.42145 1.44647 0
M  V30 2420 C 232.163 -1.9408 0.0681907 0
M  V30 2421 O 231.438 -1.71899 -0.910007 0
M  V30 2422 C 231.721 -2.60735 2.48373 0
M  V30 2423 C 231.574 -2.14332 3.95451 0
M  V30 2424 C 232.893 -3.62951 2.48906 0
M  V30 2425 H 230.012 -0.51552 0.526696 0
M  V30 2426 H 232.654 -0.748069 1.74654 0
M  V30 2427 H 230.804 -3.18184 2.22916 0
M  V30 2428 H 232.476 -1.61932 4.31944 0
M  V30 2429 H 230.719 -1.4576 4.08578 0
M  V30 2430 H 231.39 -2.99583 4.63631 0
M  V30 2431 H 233.866 -3.1525 2.71582 0
M  V30 2432 H 232.742 -4.43487 3.23435 0
M  V30 2433 H 233.003 -4.15126 1.52061 0
M  V30 2434 N 232.062 -1.29571 -0.897171 0
M  V30 2435 C 233.473 -1.15964 -1.46319 0
M  V30 2436 C 233.824 0.244267 -1.94674 0
M  V30 2437 O 232.949 1.13998 -1.83939 0
M  V30 2438 C 233.544 -2.09906 -2.65942 0
M  V30 2439 C 232.103 -2.00314 -3.18671 0
M  V30 2440 C 231.25 -2.00687 -1.91363 0
M  V30 2441 H 234.201 -1.42019 -0.708268 0
M  V30 2442 H 234.222 -1.67276 -3.41759 0
M  V30 2443 H 233.734 -3.12075 -2.30718 0
M  V30 2444 H 231.835 -1.01242 -3.58582 0
M  V30 2445 H 231.948 -2.88102 -3.82798 0
M  V30 2446 H 230.312 -1.45319 -2.09175 0
M  V30 2447 H 231.095 -3.04566 -1.58413 0
M  V30 2448 N 233.54 1.10788 -1.12088 0
M  V30 2449 C 234.77 1.86191 -0.895351 0
M  V30 2450 C 235.178 1.80763 0.558702 0
M  V30 2451 O 234.521 1.19188 1.39785 0
M  V30 2452 C 234.583 3.35659 -1.28737 0
M  V30 2453 C 234.247 3.64849 -2.75198 0
M  V30 2454 C 235.244 3.61757 -3.734 0
M  V30 2455 C 232.929 3.93641 -3.12013 0
M  V30 2456 C 234.923 3.87045 -5.06434 0
M  V30 2457 C 232.61 4.18585 -4.4523 0
M  V30 2458 C 233.608 4.15277 -5.42249 0
M  V30 2459 O 233.296 4.3959 -6.73065 0
M  V30 2460 H 233.028 0.595425 -0.32007 0
M  V30 2461 H 235.582 1.40992 -1.49367 0
M  V30 2462 H 233.812 3.81497 -0.63224 0
M  V30 2463 H 235.501 3.92441 -1.03656 0
M  V30 2464 H 236.267 3.39557 -3.46303 0
M  V30 2465 H 232.146 3.95348 -2.37109 0
M  V30 2466 H 235.69 3.84378 -5.82151 0
M  V30 2467 H 231.587 4.40264 -4.72057 0
M  V30 2468 H 232.355 4.57123 -6.78956 0
M  V30 2469 N 235.018 0.912232 1.28515 0
M  V30 2470 C 236.267 0.540504 1.94323 0
M  V30 2471 C 236.58 -0.920044 1.72611 0
M  V30 2472 O 237.786 -1.39986 2.32629 0
M  V30 2473 C 236.242 0.915803 3.48053 0
M  V30 2474 C 235.85 2.39598 3.78546 0
M  V30 2475 C 237.594 0.614588 4.20027 0
M  V30 2476 C 235.501 2.71148 5.25578 0
M  V30 2477 H 234.431 0.198418 0.727424 0
M  V30 2478 H 237.082 1.11094 1.46049 0
M  V30 2479 H 235.464 0.274168 3.9505 0
M  V30 2480 H 236.638 3.08422 3.42364 0
M  V30 2481 H 234.953 2.66749 3.1974 0
M  V30 2482 H 237.55 0.827002 5.28266 0
M  V30 2483 H 237.893 -0.447531 4.13887 0
M  V30 2484 H 238.426 1.21462 3.78803 0
M  V30 2485 H 235.165 3.76207 5.36794 0
M  V30 2486 H 234.685 2.0696 5.62963 0
M  V30 2487 H 236.364 2.58072 5.93302 0
M  V30 2488 N 236.496 -1.42363 0.676048 0
M  V30 2489 C 237.443 -2.308 -0.00150904 0
M  V30 2490 C 238.413 -1.46032 -0.791444 0
M  V30 2491 O 239.598 -1.74861 -0.76344 0
M  V30 2492 C 236.738 -3.31883 -0.945919 0
M  V30 2493 C 235.851 -4.31741 -0.149675 0
M  V30 2494 C 234.986 -5.19898 -1.08995 0
M  V30 2495 C 234.025 -6.11434 -0.285465 0
M  V30 2496 N 233.162 -6.92138 -1.17851 0
M  V30 2497 H 238.002 -2.88187 0.758455 0
M  V30 2498 H 235.539 -1.41952 0.38576 0
M  V30 2499 H 237.497 -3.89019 -1.50731 0
M  V30 2500 H 236.127 -2.76093 -1.6725 0
M  V30 2501 H 235.179 -3.76713 0.528359 0
M  V30 2502 H 236.491 -4.96534 0.474866 0
M  V30 2503 H 235.645 -5.81772 -1.72123 0
M  V30 2504 H 234.384 -4.55284 -1.74837 0
M  V30 2505 H 233.389 -5.48627 0.359018 0
M  V30 2506 H 234.614 -6.78097 0.368883 0
M  V30 2507 H 232.56 -6.30152 -1.82332 0
M  V30 2508 H 232.477 -7.53542 -0.609082 0
M  V30 2509 H 233.745 -7.58499 -1.79722 0
M  V30 2510 N 237.974 -0.419461 -1.51915 0
M  V30 2511 C 239.22 0.145505 -2.02879 0
M  V30 2512 C 239.575 1.41926 -1.29903 0
M  V30 2513 O 238.868 1.87383 -0.399782 0
M  V30 2514 C 239.062 0.437067 -3.54717 0
M  V30 2515 C 238.891 -0.806877 -4.42402 0
M  V30 2516 C 237.661 -1.33514 -4.87342 0
M  V30 2517 C 239.859 -1.68796 -4.85811 0
M  V30 2518 N 237.841 -2.53349 -5.59185 0
M  V30 2519 C 239.212 -2.73247 -5.56539 0
M  V30 2520 C 241.267 -1.70449 -4.67816 0
M  V30 2521 C 239.97 -3.79276 -6.11181 0
M  V30 2522 C 241.996 -2.75403 -5.23361 0
M  V30 2523 C 241.358 -3.78575 -5.9402 0
M  V30 2524 H 237.457 0.0145424 -0.781865 0
M  V30 2525 H 240.041 -0.576126 -1.85981 0
M  V30 2526 H 238.212 1.12774 -3.71667 0
M  V30 2527 H 239.944 0.99182 -3.92358 0
M  V30 2528 H 236.699 -0.891657 -4.65131 0
M  V30 2529 H 237.123 -3.14066 -5.99743 0
M  V30 2530 H 241.765 -0.920209 -4.12664 0
M  V30 2531 H 239.483 -4.58554 -6.65397 0
M  V30 2532 H 243.069 -2.77603 -5.113 0
M  V30 2533 H 241.949 -4.58453 -6.36231 0
M  V30 2534 N 239.452 1.56882 -0.150215 0
M  V30 2535 C 240.729 1.87844 0.545327 0
M  V30 2536 C 241.109 1.0567 1.82749 0
M  V30 2537 O 240.457 0.144442 2.28043 0
M  V30 2538 C 240.667 3.39526 0.80767 0
M  V30 2539 C 242.015 4.08814 1.14703 0
M  V30 2540 O 243.039 3.44723 0.896917 0
M  V30 2541 O 241.898 5.22004 1.61784 0
M  V30 2542 H 238.992 0.778677 0.278553 0
M  V30 2543 H 241.538 1.68666 -0.187068 0
M  V30 2544 H 240.31 3.91173 -0.0996096 0
M  V30 2545 H 239.933 3.64243 1.59413 0
M  V30 2546 N 240.93 -0.123565 1.57115 0
M  V30 2547 C 241.878 -1.17082 2.00984 0
M  V30 2548 C 242.872 -1.43136 0.906009 0
M  V30 2549 O 244.078 -1.43152 1.09121 0
M  V30 2550 H 240.453 -0.394653 0.64012 0
M  V30 2551 H 242.424 -0.774292 2.88179 0
M  V30 2552 C 241.173 -2.49057 2.42623 0
M  V30 2553 H 240.496 -2.29846 3.27125 0
M  V30 2554 H 241.936 -3.20906 2.7712 0
M  V30 2555 C 240.395 -3.11305 1.28805 0
M  V30 2556 O 240.925 -3.97171 0.60153 0
M  V30 2557 N 239.131 -2.71111 1.04628 0
M  V30 2558 H 238.678 -2.01382 1.60634 0
M  V30 2559 H 238.636 -3.1309 0.286685 0
M  V30 2560 N 242.408 -1.52605 -0.393616 0
M  V30 2561 C 243.648 -1.6911 -1.1481 0
M  V30 2562 C 244.012 -0.41969 -1.87357 0
M  V30 2563 O 245.213 -0.461034 -2.64817 0
M  V30 2564 C 243.484 -2.88909 -2.10395 0
M  V30 2565 S 245.043 -3.25977 -2.93742 0
M  V30 2566 H 241.861 -0.595337 -0.38871 0
M  V30 2567 H 244.463 -1.90641 -0.433178 0
M  V30 2568 H 243.167 -3.79672 -1.55812 0
M  V30 2569 H 242.698 -2.69698 -2.86403 0
M  V30 2570 H 244.713 -2.75806 -4.12487 0
M  V30 2571 N 243.887 0.651787 -1.4349 0
M  V30 2572 C 244.835 1.78586 -1.49029 0
M  V30 2573 C 245.829 1.65448 -0.363767 0
M  V30 2574 O 247.035 1.71777 -0.537821 0
M  V30 2575 H 243.41 0.589236 -0.467231 0
M  V30 2576 H 245.381 1.71035 -2.44519 0
M  V30 2577 C 244.13 3.16851 -1.43181 0
M  V30 2578 H 243.453 3.27598 -2.29171 0
M  V30 2579 H 244.893 3.96156 -1.51118 0
M  V30 2580 C 243.352 3.36568 -0.149616 0
M  V30 2581 O 243.882 3.93885 0.788509 0
M  V30 2582 N 242.088 2.90539 -0.0593484 0
M  V30 2583 H 241.635 2.4408 -0.823575 0
M  V30 2584 H 241.593 3.04108 0.797853 0
M  V30 2585 N 245.365 1.30045 0.890287 0
M  V30 2586 C 246.59 1.21598 1.68014 0
M  V30 2587 C 247.015 -0.218678 1.86825 0
M  V30 2588 O 246.373 -1.15756 1.39536 0
M  V30 2589 C 246.421 1.94434 3.03691 0
M  V30 2590 O 245.525 1.2678 3.92429 0
M  V30 2591 H 244.866 0.420856 0.513592 0
M  V30 2592 H 247.396 1.71775 1.11151 0
M  V30 2593 H 247.406 2.03251 3.5377 0
M  V30 2594 H 246.081 2.98777 2.89318 0
M  V30 2595 H 244.658 1.26282 3.50866 0
M  V30 2596 N 246.843 -1.10192 1.12674 0
M  V30 2597 C 248.071 -1.85983 0.906527 0
M  V30 2598 C 248.486 -1.80783 -0.544333 0
M  V30 2599 O 247.843 -1.19834 -1.37645 0
M  V30 2600 C 247.894 -3.34281 1.37618 0
M  V30 2601 O 247.615 -3.39401 2.77017 0
M  V30 2602 C 249.116 -4.26938 1.19325 0
M  V30 2603 H 246.336 -0.587716 0.323775 0
M  V30 2604 H 248.88 -1.39284 1.49734 0
M  V30 2605 H 247.035 -3.78436 0.828539 0
M  V30 2606 H 247.449 -4.31838 2.97684 0
M  V30 2607 H 248.923 -5.29181 1.57071 0
M  V30 2608 H 249.4 -4.38995 0.134097 0
M  V30 2609 H 250.006 -3.8859 1.72852 0
M  V30 2610 N 248.321 -0.919034 -1.28029 0
M  V30 2611 C 249.269 -0.401753 -2.29104 0
M  V30 2612 C 250.263 0.509354 -1.61561 0
M  V30 2613 O 251.469 0.390014 -1.75724 0
M  V30 2614 H 247.844 -0.111331 -0.743713 0
M  V30 2615 H 249.815 -1.2672 -2.70156 0
M  V30 2616 C 248.564 0.338148 -3.46052 0
M  V30 2617 H 247.887 -0.353732 -3.98232 0
M  V30 2618 H 249.327 0.664653 -4.18758 0
M  V30 2619 C 247.786 1.54798 -2.99231 0
M  V30 2620 O 248.316 2.64696 -3.02157 0
M  V30 2621 N 246.522 1.3968 -2.54829 0
M  V30 2622 H 246.069 0.502698 -2.52647 0
M  V30 2623 H 246.027 2.20755 -2.23863 0
M  V30 2624 N 249.799 1.42003 -0.683588 0
M  V30 2625 C 251.048 2.00638 -0.206681 0
M  V30 2626 C 251.361 1.5472 1.19671 0
M  V30 2627 O 252.567 2.05833 1.77045 0
M  V30 2628 C 251.023 3.58487 -0.318632 0
M  V30 2629 C 250.631 4.1339 -1.72663 0
M  V30 2630 C 252.375 4.24384 0.0991141 0
M  V30 2631 C 250.282 5.63633 -1.79087 0
M  V30 2632 H 249.212 0.750408 -0.0735107 0
M  V30 2633 H 251.863 1.62624 -0.850048 0
M  V30 2634 H 250.245 3.94047 0.392781 0
M  V30 2635 H 251.419 3.89273 -2.46583 0
M  V30 2636 H 249.734 3.59976 -2.09299 0
M  V30 2637 H 252.331 5.34652 0.0713833 0
M  V30 2638 H 252.674 4.00505 1.13586 0
M  V30 2639 H 253.207 3.93816 -0.561599 0
M  V30 2640 H 249.946 5.92323 -2.80774 0
M  V30 2641 H 249.466 5.89714 -1.09535 0
M  V30 2642 H 251.145 6.28201 -1.5483 0
M  V30 2643 N 251.277 0.427512 1.51691 0
M  V30 2644 C 252.505 -0.141191 2.06418 0
M  V30 2645 C 252.92 -1.37303 1.29589 0
M  V30 2646 O 252.277 -1.79059 0.352732 0
M  V30 2647 C 252.328 -0.473266 3.58389 0
M  V30 2648 O 252.049 0.709673 4.32314 0
M  V30 2649 C 253.55 -1.09371 4.29596 0
M  V30 2650 H 250.77 -0.0122747 0.670888 0
M  V30 2651 H 253.314 0.603764 1.95384 0
M  V30 2652 H 251.469 -1.16812 3.69369 0
M  V30 2653 H 251.883 0.42807 5.2275 0
M  V30 2654 H 253.357 -1.27613 5.37046 0
M  V30 2655 H 253.834 -2.072 3.87253 0
M  V30 2656 H 254.44 -0.43853 4.23033 0
M  V30 2657 N 252.755 -1.56801 0.158532 0
M  V30 2658 C 253.718 -2.16138 -0.762705 0
M  V30 2659 C 254.718 -1.1061 -1.16713 0
M  V30 2660 O 255.908 -1.36191 -1.08617 0
M  V30 2661 C 253.04 -2.73386 -2.03649 0
M  V30 2662 H 254.233 -2.98886 -0.246354 0
M  V30 2663 H 251.786 -1.56035 -0.0909744 0
M  V30 2664 H 252.521 -1.94335 -2.59623 0
M  V30 2665 H 252.306 -3.50601 -1.75559 0
M  V30 2666 H 253.796 -3.19065 -2.6942 0
M  V30 2667 N 254.233 0.115231 -1.57178 0
M  V30 2668 C 255.479 0.82357 -1.85325 0
M  V30 2669 C 255.812 1.79349 -0.744814 0
M  V30 2670 O 255.087 1.92899 0.249024 0
M  V30 2671 C 255.37 1.57014 -3.24066 0
M  V30 2672 C 255.223 0.619565 -4.45513 0
M  V30 2673 C 256.542 2.52545 -3.60429 0
M  V30 2674 H 253.661 0.297948 -0.674089 0
M  V30 2675 H 256.303 0.0877138 -1.89797 0
M  V30 2676 H 254.453 2.19742 -3.20383 0
M  V30 2677 H 256.125 0.000837639 -4.613 0
M  V30 2678 H 254.368 -0.0686174 -4.33746 0
M  V30 2679 H 255.039 1.17866 -5.3927 0
M  V30 2680 H 257.515 1.9992 -3.64926 0
M  V30 2681 H 256.391 3.01811 -4.58477 0
M  V30 2682 H 256.652 3.35383 -2.88047 0
M  V30 2683 N 255.711 1.52812 0.385517 0
M  V30 2684 C 256.957 1.68275 1.13188 0
M  V30 2685 C 257.29 0.423179 1.89533 0
M  V30 2686 O 256.565 -0.579113 1.85679 0
M  V30 2687 C 256.848 2.92001 2.1073 0
M  V30 2688 C 256.701 4.28067 1.38125 0
M  V30 2689 C 258.02 3.11283 3.11113 0
M  V30 2690 H 255.139 0.612352 0.410115 0
M  V30 2691 H 257.781 1.85415 0.414869 0
M  V30 2692 H 255.931 2.77519 2.71874 0
M  V30 2693 H 257.603 4.54324 0.799187 0
M  V30 2694 H 255.846 4.28388 0.683092 0
M  V30 2695 H 256.517 5.10733 2.09417 0
M  V30 2696 H 258.993 3.2482 2.6006 0
M  V30 2697 H 257.869 3.99325 3.76605 0
M  V30 2698 H 258.13 2.25656 3.80173 0
M  V30 2699 N 257.189 -0.644168 1.43834 0
M  V30 2700 C 258.605 -0.960875 1.27434 0
M  V30 2701 C 258.805 -2.00499 0.200618 0
M  V30 2702 O 257.861 -2.49018 -0.417906 0
M  V30 2703 C 259.174 -1.43653 2.64167 0
M  V30 2704 C 260.722 -1.55271 2.71772 0
M  V30 2705 C 261.197 -2.06224 4.08944 0
M  V30 2706 N 262.688 -2.13513 4.11055 0
M  V30 2707 C 263.423 -2.54081 5.14033 0
M  V30 2708 N 262.919 -2.9388 6.27381 0
M  V30 2709 N 264.712 -2.54101 5.01387 0
M  V30 2710 H 256.863 0.0465779 2.12349 0
M  V30 2711 H 259.126 -0.0417638 0.94708 0
M  V30 2712 H 258.832 -0.743706 3.43747 0
M  V30 2713 H 258.706 -2.40993 2.90176 0
M  V30 2714 H 261.093 -2.23653 1.92519 0
M  V30 2715 H 261.174 -0.563395 2.49519 0
M  V30 2716 H 260.818 -1.38441 4.88668 0
M  V30 2717 H 260.748 -3.06003 4.28567 0
M  V30 2718 H 263.239 -1.85493 3.29242 0
M  V30 2719 H 263.552 -3.2361 7.01781 0
M  V30 2720 H 261.897 -2.91663 6.30839 0
M  V30 2721 H 265.088 -2.22391 4.11898 0
M  V30 2722 H 265.261 -2.85394 5.81768 0
M  V30 2723 N 258.668 -1.30515 -0.883378 0
M  V30 2724 C 259.631 -1.1701 -1.97082 0
M  V30 2725 C 260.631 -0.10089 -1.60483 0
M  V30 2726 O 261.821 -0.349127 -1.70666 0
M  V30 2727 C 258.953 -0.793045 -3.31547 0
M  V30 2728 H 260.146 -2.13622 -2.10489 0
M  V30 2729 H 257.699 -1.13935 -1.06998 0
M  V30 2730 H 258.434 0.172499 -3.23841 0
M  V30 2731 H 258.219 -1.56576 -3.5948 0
M  V30 2732 H 259.709 -0.722073 -4.1131 0
M  V30 2733 N 260.146 1.09593 -1.13257 0
M  V30 2734 C 261.078 2.16015 -0.766167 0
M  V30 2735 C 262.091 1.61423 0.211303 0
M  V30 2736 O 263.28 1.78498 -0.00863946 0
M  V30 2737 C 260.38 3.38706 -0.114662 0
M  V30 2738 C 259.553 4.22717 -1.12379 0
M  V30 2739 C 258.612 5.23835 -0.498301 0
M  V30 2740 O 257.638 5.573 -1.15781 0
M  V30 2741 N 258.84 5.75886 0.730417 0
M  V30 2742 H 261.605 2.48055 -1.68193 0
M  V30 2743 H 259.166 1.25292 -1.02535 0
M  V30 2744 H 261.158 4.03464 0.315991 0
M  V30 2745 H 259.728 3.04569 0.704011 0
M  V30 2746 H 258.948 3.54122 -1.73179 0
M  V30 2747 H 260.236 4.75673 -1.80589 0
M  V30 2748 H 259.634 5.50911 1.28504 0
M  V30 2749 H 258.191 6.42387 1.10376 0
M  V30 2750 N 261.624 0.925811 1.2754 0
M  V30 2751 C 262.872 0.564138 1.94067 0
M  V30 2752 C 263.193 -0.897188 1.73134 0
M  V30 2753 O 262.463 -1.63573 1.07799 0
M  V30 2754 H 261.043 0.205645 0.718136 0
M  V30 2755 H 263.705 1.1778 1.55287 0
M  V30 2756 H 262.801 0.76881 3.02483 0
M  V30 2757 N 263.102 -1.41638 0.69111 0
M  V30 2758 C 264.032 -2.3347 0.037248 0
M  V30 2759 C 265.013 -1.51575 -0.771947 0
M  V30 2760 O 266.198 -1.80126 -0.72582 0
M  V30 2761 C 263.328 -3.35354 -0.903064 0
M  V30 2762 C 262.282 -4.27526 -0.201288 0
M  V30 2763 C 261.608 -5.19747 -1.25565 0
M  V30 2764 C 262.908 -5.13959 0.929689 0
M  V30 2765 H 264.602 -2.88397 0.804227 0
M  V30 2766 H 262.148 -1.38669 0.388189 0
M  V30 2767 H 264.101 -3.98519 -1.36969 0
M  V30 2768 H 262.825 -2.78767 -1.70166 0
M  V30 2769 H 261.484 -3.65779 0.245265 0
M  V30 2770 H 261.132 -4.59479 -2.04666 0
M  V30 2771 H 260.832 -5.8225 -0.791128 0
M  V30 2772 H 262.356 -5.85789 -1.72288 0
M  V30 2773 H 263.77 -5.70718 0.543546 0
M  V30 2774 H 262.167 -5.85379 1.32103 0
M  V30 2775 H 263.237 -4.51389 1.77133 0
M  V30 2776 N 264.58 -0.43555 -1.51462 0
M  V30 2777 C 265.857 0.191364 -1.94662 0
M  V30 2778 C 266.237 1.60254 -1.37411 0
M  V30 2779 O 265.585 2.2152 -0.560458 0
M  V30 2780 C 265.795 0.17091 -3.48581 0
M  V30 2781 C 267.143 0.377357 -4.2292 0
M  V30 2782 O 268.167 0.249104 -3.55328 0
M  V30 2783 O 267.026 0.63247 -5.42828 0
M  V30 2784 H 264.12 0.130932 -0.816569 0
M  V30 2785 H 266.666 -0.4934 -1.62369 0
M  V30 2786 H 265.438 -0.815738 -3.82703 0
M  V30 2787 H 265.061 0.898659 -3.87311 0
M  V30 2788 N 266.058 1.56714 -0.166846 0
M  V30 2789 C 267.304 1.97039 0.479962 0
M  V30 2790 C 267.637 1.05264 1.63197 0
M  V30 2791 O 266.912 0.0988833 1.94248 0
M  V30 2792 C 267.195 3.46867 0.967212 0
M  V30 2793 C 267.048 4.49421 -0.18466 0
M  V30 2794 C 268.367 3.9968 1.84238 0
M  V30 2795 H 265.486 0.71641 0.172992 0
M  V30 2796 H 268.128 1.8832 -0.252079 0
M  V30 2797 H 266.278 3.54428 1.59101 0
M  V30 2798 H 267.95 4.53924 -0.821621 0
M  V30 2799 H 266.193 4.25573 -0.840837 0
M  V30 2800 H 266.864 5.51644 0.198317 0
M  V30 2801 H 269.34 3.94723 1.31655 0
M  V30 2802 H 268.216 5.04941 2.15234 0
M  V30 2803 H 268.477 3.43226 2.78654 0
M  V30 2804 N 267.536 -0.106894 1.57237 0
M  V30 2805 C 268.764 -0.826389 1.8968 0
M  V30 2806 C 269.179 -1.72856 0.759353 0
M  V30 2807 O 268.536 -1.80503 -0.269263 0
M  V30 2808 C 268.587 -1.64967 3.21665 0
M  V30 2809 O 268.308 -0.783804 4.31031 0
M  V30 2810 C 269.809 -2.47326 3.67892 0
M  V30 2811 H 267.029 -0.236927 0.627779 0
M  V30 2812 H 269.573 -0.0876593 2.04312 0
M  V30 2813 H 267.728 -2.34103 3.08666 0
M  V30 2814 H 268.142 -1.35284 5.06753 0
M  V30 2815 H 269.616 -3.00604 4.6297 0
M  V30 2816 H 270.093 -3.25247 2.95146 0
M  V30 2817 H 270.699 -1.83411 3.83719 0
M  V30 2818 N 269.014 -1.53014 -0.377408 0
M  V30 2819 C 269.944 -1.81589 -1.46791 0
M  V30 2820 C 270.925 -0.668622 -1.56408 0
M  V30 2821 O 272.11 -0.917337 -1.71168 0
M  V30 2822 C 269.24 -1.99519 -2.8427 0
M  V30 2823 C 268.194 -3.15249 -2.89486 0
M  V30 2824 C 267.52 -3.18451 -4.29527 0
M  V30 2825 C 268.82 -4.54084 -2.58079 0
M  V30 2826 H 270.514 -2.7291 -1.23127 0
M  V30 2827 H 268.06 -1.31319 -0.590883 0
M  V30 2828 H 270.013 -2.18092 -3.60575 0
M  V30 2829 H 268.737 -1.04897 -3.09296 0
M  V30 2830 H 267.396 -2.96477 -2.15631 0
M  V30 2831 H 267.044 -2.2149 -4.5161 0
M  V30 2832 H 266.744 -3.962 -4.33934 0
M  V30 2833 H 268.268 -3.39193 -5.07721 0
M  V30 2834 H 269.682 -4.72899 -3.24098 0
M  V30 2835 H 268.079 -5.33987 -2.7382 0
M  V30 2836 H 269.149 -4.60006 -1.53372 0
M  V30 2837 N 270.492 0.636531 -1.44174 0
M  V30 2838 C 271.903 1.21806 -1.41493 0
M  V30 2839 C 272.254 1.95785 -0.1275 0
M  V30 2840 O 271.379 2.02147 0.772376 0
M  V30 2841 C 271.974 2.21551 -2.56321 0
M  V30 2842 C 270.533 2.75143 -2.56853 0
M  V30 2843 C 269.68 1.50052 -2.33195 0
M  V30 2844 H 272.631 0.427531 -1.52833 0
M  V30 2845 H 272.652 3.0405 -2.28765 0
M  V30 2846 H 272.164 1.67679 -3.50008 0
M  V30 2847 H 270.265 3.33033 -1.67093 0
M  V30 2848 H 270.378 3.2155 -3.55165 0
M  V30 2849 H 268.742 1.77993 -1.82183 0
M  V30 2850 H 269.525 0.980903 -3.28988 0
M  V30 2851 N 271.97 1.30982 0.876444 0
M  V30 2852 C 272.9 1.20668 1.99903 0
M  V30 2853 C 273.881 0.095354 1.69833 0
M  V30 2854 O 275.066 0.27885 1.92188 0
M  V30 2855 C 272.196 0.90655 3.3526 0
M  V30 2856 C 271.15 1.97675 3.79617 0
M  V30 2857 C 270.476 1.52943 5.1236 0
M  V30 2858 C 271.776 3.389 3.97422 0
M  V30 2859 H 273.47 2.14586 2.0879 0
M  V30 2860 H 271.016 1.03308 1.00317 0
M  V30 2861 H 272.969 0.821025 4.13324 0
M  V30 2862 H 271.693 -0.0682969 3.26529 0
M  V30 2863 H 270.352 2.05205 3.03787 0
M  V30 2864 H 270 0.54262 5.00065 0
M  V30 2865 H 269.7 2.24532 5.43009 0
M  V30 2866 H 271.224 1.45786 5.92941 0
M  V30 2867 H 272.638 3.34081 4.659 0
M  V30 2868 H 271.035 4.0865 4.3946 0
M  V30 2869 H 272.105 3.80163 3.01006 0
M  V30 2870 N 273.449 -1.08991 1.13837 0
M  V30 2871 C 274.674 -1.85551 0.926585 0
M  V30 2872 C 275.099 -1.80782 -0.519566 0
M  V30 2873 O 274.457 -1.18855 -1.36906 0
M  V30 2874 C 274.505 -3.31266 1.42462 0
M  V30 2875 O 273.609 -4.07822 0.612789 0
M  V30 2876 H 272.95 -0.575192 0.331738 0
M  V30 2877 H 275.48 -1.37604 1.51414 0
M  V30 2878 H 275.49 -3.82112 1.43019 0
M  V30 2879 H 274.165 -3.34052 2.47754 0
M  V30 2880 H 272.742 -3.66731 0.675463 0
M  V30 2881 N 274.927 -0.932562 -1.27047 0
M  V30 2882 C 275.857 -0.452902 -2.29066 0
M  V30 2883 C 276.838 0.489338 -1.62909 0
M  V30 2884 O 278.023 0.393046 -1.90181 0
M  V30 2885 C 275.153 0.290698 -3.46081 0
M  V30 2886 C 274.107 -0.564168 -4.24265 0
M  V30 2887 C 273.433 0.308886 -5.33807 0
M  V30 2888 C 274.733 -1.83112 -4.89149 0
M  V30 2889 H 276.427 -1.30552 -2.69437 0
M  V30 2890 H 273.973 -0.629201 -1.29526 0
M  V30 2891 H 275.926 0.637233 -4.16554 0
M  V30 2892 H 274.65 1.17738 -3.0464 0
M  V30 2893 H 273.309 -0.893477 -3.55545 0
M  V30 2894 H 272.957 1.19467 -4.88607 0
M  V30 2895 H 272.657 -0.259633 -5.87026 0
M  V30 2896 H 274.181 0.650884 -6.07121 0
M  V30 2897 H 275.595 -1.55236 -5.51883 0
M  V30 2898 H 273.992 -2.34353 -5.52448 0
M  V30 2899 H 275.062 -2.54772 -4.12576 0
M  V30 2900 N 276.405 1.4127 -0.698611 0
M  V30 2901 C 277.816 1.84187 -0.305289 0
M  V30 2902 C 278.167 1.58449 1.15708 0
M  V30 2903 O 277.292 1.05651 1.88856 0
M  V30 2904 C 277.887 3.3435 -0.547314 0
M  V30 2905 C 276.446 3.75826 -0.207878 0
M  V30 2906 C 275.593 2.64647 -0.828099 0
M  V30 2907 H 278.544 1.30778 -0.89904 0
M  V30 2908 H 278.565 3.8001 0.192998 0
M  V30 2909 H 278.077 3.53051 -1.61172 0
M  V30 2910 H 276.178 3.62725 0.852143 0
M  V30 2911 H 276.291 4.74462 -0.665021 0
M  V30 2912 H 274.655 2.53395 -0.257458 0
M  V30 2913 H 275.438 2.86165 -1.89643 0
M  V30 2914 N 277.883 0.443576 1.51229 0
M  V30 2915 C 279.111 -0.11929 2.06556 0
M  V30 2916 C 279.526 -1.35921 1.31038 0
M  V30 2917 O 278.883 -1.78675 0.371704 0
M  V30 2918 C 278.934 -0.435228 3.5887 0
M  V30 2919 O 278.655 0.755486 4.31537 0
M  V30 2920 C 280.156 -1.04808 4.30732 0
M  V30 2921 H 277.376 -0.0051584 0.67098 0
M  V30 2922 H 279.92 0.624453 1.94733 0
M  V30 2923 H 278.075 -1.12887 3.70588 0
M  V30 2924 H 278.489 0.483491 5.22267 0
M  V30 2925 H 279.963 -1.2191 5.3837 0
M  V30 2926 H 280.44 -2.03081 3.89429 0
M  V30 2927 H 281.046 -0.393637 4.23474 0
M  V30 2928 N 279.361 -1.56624 0.175154 0
M  V30 2929 C 280.586 -2.01813 -0.478137 0
M  V30 2930 C 281.011 -1.05457 -1.55757 0
M  V30 2931 O 280.369 -0.0347439 -1.81267 0
M  V30 2932 C 280.417 -3.45581 -1.02987 0
M  V30 2933 O 279.521 -3.52305 -2.14371 0
M  V30 2934 H 278.862 -0.65413 -0.114059 0
M  V30 2935 H 281.392 -2.02673 0.280173 0
M  V30 2936 H 281.402 -3.84965 -1.35151 0
M  V30 2937 H 280.077 -4.1521 -0.239556 0
M  V30 2938 H 278.654 -3.24783 -1.83222 0
M  V30 2939 N 280.839 0.0985539 -1.57292 0
M  V30 2940 C 281.802 1.10402 -2.00858 0
M  V30 2941 C 282.802 1.33146 -0.901593 0
M  V30 2942 O 283.992 1.29318 -1.16716 0
M  V30 2943 C 281.124 2.45394 -2.36632 0
M  V30 2944 H 282.317 0.729099 -2.90902 0
M  V30 2945 H 279.87 0.343495 -1.52479 0
M  V30 2946 H 280.605 2.87769 -1.49531 0
M  V30 2947 H 280.39 2.30235 -3.17387 0
M  V30 2948 H 281.88 3.17718 -2.71007 0
M  V30 2949 N 282.317 1.53212 0.369288 0
M  V30 2950 C 283.249 1.75668 1.47219 0
M  V30 2951 C 284.262 0.637387 1.49804 0
M  V30 2952 O 285.451 0.913561 1.5335 0
M  V30 2953 C 282.551 1.81818 2.85999 0
M  V30 2954 C 281.724 3.11409 3.07153 0
M  V30 2955 C 280.783 3.08849 4.26026 0
M  V30 2956 O 279.809 3.82659 4.2138 0
M  V30 2957 N 281.011 2.29409 5.33246 0
M  V30 2958 H 283.776 2.70832 1.28337 0
M  V30 2959 H 281.337 1.51944 0.55898 0
M  V30 2960 H 283.329 1.77588 3.63655 0
M  V30 2961 H 281.899 0.939544 2.98146 0
M  V30 2962 H 281.119 3.28971 2.1719 0
M  V30 2963 H 282.407 3.97059 3.18154 0
M  V30 2964 H 281.805 1.68946 5.39883 0
M  V30 2965 H 280.362 2.31001 6.09493 0
M  V30 2966 N 283.795 -0.628877 1.44509 0
M  V30 2967 C 285.072 -1.38733 1.37886 0
M  V30 2968 C 285.452 -2.11065 0.0387008 0
M  V30 2969 O 284.8 -2.06476 -0.97878 0
M  V30 2970 C 285.01 -2.35188 2.57852 0
M  V30 2971 C 286.358 -2.9845 3.02014 0
M  V30 2972 O 287.382 -2.45513 2.58073 0
M  V30 2973 O 286.241 -3.94487 3.78209 0
M  V30 2974 H 283.335 -0.621015 0.54614 0
M  V30 2975 H 285.881 -0.653744 1.56602 0
M  V30 2976 H 284.653 -1.80855 3.46998 0
M  V30 2977 H 284.276 -3.1596 2.4136 0
M  V30 2978 N 285.273 -1.31445 -0.869486 0
M  V30 2979 C 286.498 -1.24256 -1.66058 0
M  V30 2980 C 286.923 0.188928 -1.87149 0
M  V30 2981 O 286.281 1.13522 -1.4136 0
M  V30 2982 C 286.329 -1.9924 -3.00559 0
M  V30 2983 O 285.433 -1.33007 -3.90362 0
M  V30 2984 H 284.774 -0.428973 -0.506831 0
M  V30 2985 H 287.304 -1.73521 -1.08404 0
M  V30 2986 H 287.314 -2.08854 -3.50491 0
M  V30 2987 H 285.989 -3.03342 -2.84528 0
M  V30 2988 H 284.566 -1.31848 -3.48813 0
M  V30 2989 N 286.751 1.08385 -1.14413 0
M  V30 2990 C 287.699 2.17406 -0.826888 0
M  V30 2991 C 288.693 1.6827 0.195312 0
M  V30 2992 O 289.899 1.79927 0.0513892 0
M  V30 2993 H 286.274 0.70934 -0.249681 0
M  V30 2994 H 288.245 2.41388 -1.75426 0
M  V30 2995 C 286.994 3.46215 -0.320979 0
M  V30 2996 H 286.317 3.84401 -1.0989 0
M  V30 2997 H 287.757 4.23777 -0.137549 0
M  V30 2998 C 286.216 3.23067 0.955472 0
M  V30 2999 O 286.746 3.4668 2.02918 0
M  V30 3000 N 284.952 2.7661 0.890798 0
M  V30 3001 H 284.499 2.57594 0.0168815 0
M  V30 3002 H 284.457 2.61501 1.74542 0
M  V30 3003 N 288.23 0.939286 1.26551 0
M  V30 3004 C 289.477 0.585847 1.9384 0
M  V30 3005 C 289.805 -0.874784 1.73718 0
M  V30 3006 O 289.06 -1.64092 1.06642 0
M  V30 3007 C 289.359 0.872106 3.46596 0
M  V30 3008 C 289.025 2.31632 3.86856 0
M  V30 3009 C 287.687 2.71111 3.97558 0
M  V30 3010 C 290.039 3.25494 4.07066 0
M  V30 3011 C 287.367 4.03553 4.25866 0
M  V30 3012 C 289.719 4.57531 4.36862 0
M  V30 3013 C 288.383 4.96828 4.45778 0
M  V30 3014 H 287.653 0.214377 0.709312 0
M  V30 3015 H 290.3 1.18544 1.50398 0
M  V30 3016 H 288.605 0.18996 3.91339 0
M  V30 3017 H 290.302 0.577442 3.96821 0
M  V30 3018 H 286.892 2.00008 3.79071 0
M  V30 3019 H 291.076 2.9619 3.98227 0
M  V30 3020 H 286.332 4.33665 4.30981 0
M  V30 3021 H 290.506 5.30254 4.51446 0
M  V30 3022 H 288.133 5.99482 4.67468 0
M  V30 3023 N 289.708 -1.40897 0.706093 0
M  V30 3024 C 290.933 -2.05895 0.249435 0
M  V30 3025 C 291.358 -1.52823 -1.09666 0
M  V30 3026 O 290.716 -0.659589 -1.68876 0
M  V30 3027 C 290.764 -3.59872 0.22904 0
M  V30 3028 O 289.868 -4.04708 -0.792784 0
M  V30 3029 H 289.209 -0.653206 0.119241 0
M  V30 3030 H 291.739 -1.80471 0.96391 0
M  V30 3031 H 291.749 -4.07951 0.0634791 0
M  V30 3032 H 290.424 -3.97866 1.21141 0
M  V30 3033 H 289.001 -3.68111 -0.59572 0
M  V30 3034 N 291.186 -0.45159 -1.50991 0
M  V30 3035 C 292.432 0.110237 -2.025 0
M  V30 3036 C 292.765 1.41109 -1.33424 0
M  V30 3037 O 292.04 1.89135 -0.453659 0
M  V30 3038 C 292.323 0.314271 -3.58726 0
M  V30 3039 C 292.176 -1.00623 -4.38401 0
M  V30 3040 C 293.495 1.07767 -4.26702 0
M  V30 3041 H 290.614 0.0385897 -0.735989 0
M  V30 3042 H 293.256 -0.593374 -1.80497 0
M  V30 3043 H 291.406 0.913601 -3.77605 0
M  V30 3044 H 293.078 -1.64064 -4.31139 0
M  V30 3045 H 291.321 -1.6075 -4.02917 0
M  V30 3046 H 291.992 -0.817341 -5.45915 0
M  V30 3047 H 294.468 0.56986 -4.12179 0
M  V30 3048 H 293.344 1.18921 -5.35863 0
M  V30 3049 H 293.605 2.10939 -3.88532 0
M  V30 3050 N 292.664 1.56529 -0.183458 0
M  V30 3051 C 293.611 2.18546 0.742055 0
M  V30 3052 C 294.581 1.12912 1.2182 0
M  V30 3053 O 295.766 1.41115 1.28418 0
M  V30 3054 C 292.906 2.83977 1.96089 0
M  V30 3055 C 292.019 4.04105 1.52719 0
M  V30 3056 C 291.154 4.57427 2.70063 0
M  V30 3057 C 290.193 5.69938 2.23243 0
M  V30 3058 N 289.33 6.17717 3.33722 0
M  V30 3059 H 294.17 2.97284 0.206432 0
M  V30 3060 H 291.707 1.46823 0.0901571 0
M  V30 3061 H 293.665 3.20077 2.67594 0
M  V30 3062 H 292.295 2.07822 2.47002 0
M  V30 3063 H 291.347 3.73745 0.708436 0
M  V30 3064 H 292.659 4.85513 1.1436 0
M  V30 3065 H 291.813 4.95772 3.49708 0
M  V30 3066 H 290.552 3.75101 3.11689 0
M  V30 3067 H 289.557 5.31133 1.42048 0
M  V30 3068 H 290.782 6.54073 1.82661 0
M  V30 3069 H 288.728 5.38317 3.74902 0
M  V30 3070 H 288.645 6.94146 2.99495 0
M  V30 3071 H 289.913 6.60713 4.13616 0
M  V30 3072 N 294.142 -0.090211 1.57342 0
M  V30 3073 C 295.37 -0.806224 1.90546 0
M  V30 3074 C 295.785 -1.72041 0.777644 0
M  V30 3075 O 295.142 -1.80778 -0.250103 0
M  V30 3076 C 295.193 -1.61546 3.23396 0
M  V30 3077 O 294.914 -0.738043 4.31839 0
M  V30 3078 C 296.415 -2.4341 3.70495 0
M  V30 3079 H 293.635 -0.230256 0.630257 0
M  V30 3080 H 296.179 -0.0659843 2.04394 0
M  V30 3081 H 294.334 -2.30816 3.11131 0
M  V30 3082 H 294.748 -1.29901 5.08159 0
M  V30 3083 H 296.222 -2.95676 4.66133 0
M  V30 3084 H 296.699 -3.22098 2.98579 0
M  V30 3085 H 297.305 -1.79331 3.85643 0
M  V30 3086 N 295.62 -1.53406 -0.361157 0
M  V30 3087 C 296.53 -1.83122 -1.4664 0
M  V30 3088 C 297.546 -0.719943 -1.58407 0
M  V30 3089 O 298.722 -1.01046 -1.74218 0
M  V30 3090 C 295.787 -2.01891 -2.81853 0
M  V30 3091 C 294.848 -3.25784 -2.79577 0
M  V30 3092 C 294.081 -3.43648 -4.0834 0
M  V30 3093 O 294.304 -2.65714 -5.0473 0
M  V30 3094 O 293.238 -4.37018 -4.13883 0
M  V30 3095 H 297.064 -2.7703 -1.24451 0
M  V30 3096 H 294.649 -1.38841 -0.551678 0
M  V30 3097 H 296.531 -2.15782 -3.61962 0
M  V30 3098 H 295.206 -1.11173 -3.0401 0
M  V30 3099 H 294.113 -3.17312 -1.98151 0
M  V30 3100 H 295.446 -4.16439 -2.62373 0
M  V30 3101 N 297.098 0.621204 -1.44841 0
M  V30 3102 C 298.031 1.7459 -1.46947 0
M  V30 3103 C 299.009 1.59273 -0.327238 0
M  V30 3104 O 300.193 1.81021 -0.525706 0
M  V30 3105 C 297.32 3.12274 -1.31159 0
M  V30 3106 C 296.366 3.46216 -2.49072 0
M  V30 3107 S 297.199 3.4258 -4.11581 0
M  V30 3108 C 298.355 4.82867 -3.98233 0
M  V30 3109 H 298.588 1.72538 -2.42111 0
M  V30 3110 H 296.121 0.796683 -1.32259 0
M  V30 3111 H 298.079 3.91722 -1.22737 0
M  V30 3112 H 296.74 3.11855 -0.374885 0
M  V30 3113 H 295.933 4.4643 -2.33915 0
M  V30 3114 H 295.535 2.74253 -2.54286 0
M  V30 3115 H 297.827 5.7234 -3.62537 0
M  V30 3116 H 298.77 5.0308 -4.98313 0
M  V30 3117 H 299.178 4.57908 -3.30121 0
M  V30 3118 N 298.576 1.31904 0.862503 0
M  V30 3119 C 299.506 1.22782 1.98612 0
M  V30 3120 C 300.487 0.113362 1.69722 0
M  V30 3121 O 301.672 0.299218 1.91881 0
M  V30 3122 C 298.802 0.942058 3.34279 0
M  V30 3123 C 297.756 2.0169 3.77499 0
M  V30 3124 C 297.082 1.58369 5.10709 0
M  V30 3125 C 298.382 3.43096 3.93805 0
M  V30 3126 H 300.076 2.16788 2.06502 0
M  V30 3127 H 297.622 1.04366 0.992154 0
M  V30 3128 H 299.575 0.864818 4.1243 0
M  V30 3129 H 298.299 -0.0336603 3.26583 0
M  V30 3130 H 296.958 2.08416 3.01593 0
M  V30 3131 H 296.606 0.595628 4.99461 0
M  V30 3132 H 296.306 2.30279 5.40597 0
M  V30 3133 H 297.83 1.52067 5.91361 0
M  V30 3134 H 299.244 3.39003 4.62331 0
M  V30 3135 H 297.641 4.13288 4.35101 0
M  V30 3136 H 298.711 3.83334 2.96957 0
M  V30 3137 N 300.054 -1.07777 1.14986 0
M  V30 3138 C 301.302 -1.79934 0.920235 0
M  V30 3139 C 301.623 -1.86955 -0.554336 0
M  V30 3140 O 300.893 -1.36731 -1.40291 0
M  V30 3141 H 299.473 -0.666424 0.337473 0
M  V30 3142 H 302.135 -1.3027 1.44968 0
M  V30 3143 H 301.231 -2.82539 1.32583 0
M  V30 3144 N 301.532 -0.945985 -1.26051 0
M  V30 3145 C 302.48 -0.450259 -2.282 0
M  V30 3146 C 303.474 0.47497 -1.62605 0
M  V30 3147 O 304.68 0.352653 -1.76512 0
M  V30 3148 H 301.055 -0.127081 -0.741184 0
M  V30 3149 H 303.026 -1.32422 -2.67408 0
M  V30 3150 C 301.775 0.26467 -3.46691 0
M  V30 3151 H 301.098 -0.438123 -3.97392 0
M  V30 3152 H 302.538 0.575678 -4.20074 0
M  V30 3153 C 300.997 1.48416 -3.02447 0
M  V30 3154 O 301.527 2.58227 -3.07704 0
M  V30 3155 N 299.733 1.34243 -2.57735 0
M  V30 3156 H 299.28 0.448994 -2.53657 0
M  V30 3157 H 299.238 2.15957 -2.28495 0
M  V30 3158 N 303.011 1.40521 -0.713556 0
M  V30 3159 C 303.921 2.34522 -0.0606667 0
M  V30 3160 C 304.937 1.57193 0.74607 0
M  V30 3161 O 306.113 1.89591 0.679493 0
M  V30 3162 C 303.178 3.36081 0.851491 0
M  V30 3163 C 302.239 4.29286 0.0349339 0
M  V30 3164 C 301.472 5.25994 0.903649 0
M  V30 3165 O 301.695 5.28616 2.14292 0
M  V30 3166 O 300.629 6.00918 0.343723 0
M  V30 3167 H 304.455 2.91968 -0.835972 0
M  V30 3168 H 302.04 1.41681 -0.47402 0
M  V30 3169 H 303.922 3.98369 1.37404 0
M  V30 3170 H 302.597 2.81052 1.60598 0
M  V30 3171 H 301.504 3.70289 -0.532633 0
M  V30 3172 H 302.837 4.87462 -0.681287 0
M  V30 3173 N 304.489 0.459591 1.5075 0
M  V30 3174 C 305.738 -0.100971 2.01447 0
M  V30 3175 C 306.051 -1.41816 1.34713 0
M  V30 3176 O 307.257 -2.06299 1.76502 0
M  V30 3177 C 305.713 -0.23047 3.59161 0
M  V30 3178 C 305.321 1.0776 4.34847 0
M  V30 3179 C 307.065 -0.743608 4.17936 0
M  V30 3180 C 304.972 0.91253 5.84317 0
M  V30 3181 H 303.902 -0.0415102 0.752856 0
M  V30 3182 H 306.553 0.592742 1.73663 0
M  V30 3183 H 304.935 -0.987703 3.83485 0
M  V30 3184 H 306.109 1.8449 4.22256 0
M  V30 3185 H 304.424 1.52097 3.87628 0
M  V30 3186 H 307.021 -0.883959 5.27343 0
M  V30 3187 H 307.364 -1.73196 3.78562 0
M  V30 3188 H 307.897 -0.04408 3.97776 0
M  V30 3189 H 304.636 1.87391 6.28144 0
M  V30 3190 H 304.156 0.185422 5.99513 0
M  V30 3191 H 305.835 0.574547 6.44444 0
M  V30 3192 N 305.967 -1.56429 0.191757 0
M  V30 3193 C 307.244 -1.89224 -0.495332 0
M  V30 3194 C 307.624 -1.10478 -1.79883 0
M  V30 3195 O 306.972 -0.204852 -2.2758 0
M  V30 3196 C 307.182 -3.41548 -0.717367 0
M  V30 3197 C 308.53 -4.11711 -1.03823 0
M  V30 3198 O 309.554 -3.4698 -0.805204 0
M  V30 3199 O 308.413 -5.2611 -1.47887 0
M  V30 3200 H 305.507 -0.785788 -0.25781 0
M  V30 3201 H 308.053 -1.68111 0.231721 0
M  V30 3202 H 306.825 -3.90772 0.203287 0
M  V30 3203 H 306.448 -3.68342 -1.497 0
M  V30 3204 N 307.445 0.0818655 -1.57387 0
M  V30 3205 C 308.694 0.781681 -1.85937 0
M  V30 3206 C 309.007 1.79246 -0.782957 0
M  V30 3207 O 310.213 2.54112 -0.955987 0
M  V30 3208 C 308.669 1.44109 -3.29789 0
M  V30 3209 C 308.277 0.469396 -4.45534 0
M  V30 3210 C 310.021 2.12386 -3.67549 0
M  V30 3211 C 307.928 1.13415 -5.80423 0
M  V30 3212 H 306.858 0.295682 -0.693605 0
M  V30 3213 H 309.509 0.0348051 -1.83467 0
M  V30 3214 H 307.891 2.23588 -3.2684 0
M  V30 3215 H 309.065 -0.294856 -4.59856 0
M  V30 3216 H 307.38 -0.108383 -4.16259 0
M  V30 3217 H 309.977 2.62878 -4.65617 0
M  V30 3218 H 310.32 2.91877 -2.96839 0
M  V30 3219 H 310.853 1.39751 -3.72444 0
M  V30 3220 H 307.592 0.379771 -6.54399 0
M  V30 3221 H 307.112 1.8695 -5.69921 0
M  V30 3222 H 308.791 1.65686 -6.25426 0
M  V30 3223 N 308.923 1.53595 0.353017 0
M  V30 3224 C 309.833 1.83897 1.45667 0
M  V30 3225 C 310.849 0.728334 1.58023 0
M  V30 3226 O 312.025 1.01968 1.73679 0
M  V30 3227 C 309.09 2.03383 2.80778 0
M  V30 3228 C 308.151 3.27262 2.77845 0
M  V30 3229 C 307.384 3.45809 4.06512 0
M  V30 3230 O 307.607 2.68387 5.03314 0
M  V30 3231 O 306.541 4.39207 4.11559 0
M  V30 3232 H 310.367 2.77686 1.2298 0
M  V30 3233 H 307.952 1.39132 0.544308 0
M  V30 3234 H 309.834 2.17698 3.60812 0
M  V30 3235 H 308.509 1.12783 3.03417 0
M  V30 3236 H 307.416 3.18359 1.96465 0
M  V30 3237 H 308.749 4.17824 2.60161 0
M  V30 3238 N 310.401 -0.613514 1.45168 0
M  V30 3239 C 311.641 -1.38405 1.5041 0
M  V30 3240 C 312.005 -1.91489 0.139922 0
M  V30 3241 O 313.206 -2.68716 0.067033 0
M  V30 3242 C 311.477 -2.50552 2.5487 0
M  V30 3243 S 313.036 -3.38439 2.79292 0
M  V30 3244 H 309.854 -0.471945 0.531779 0
M  V30 3245 H 312.456 -0.708518 1.82209 0
M  V30 3246 H 311.16 -2.09894 3.52665 0
M  V30 3247 H 310.691 -3.22913 2.24701 0
M  V30 3248 H 312.706 -4.48527 2.12222 0
M  V30 3249 N 311.879 -1.3236 -0.855495 0
M  V30 3250 C 313.128 -1.22226 -1.60448 0
M  V30 3251 C 313.441 0.214733 -1.94418 0
M  V30 3252 O 314.647 0.437917 -2.67945 0
M  V30 3253 C 313.103 -2.14063 -2.89318 0
M  V30 3254 C 312.711 -3.62839 -2.62777 0
M  V30 3255 C 314.455 -2.12764 -3.67331 0
M  V30 3256 C 312.362 -4.4664 -3.87643 0
M  V30 3257 H 311.292 -0.453904 -0.602069 0
M  V30 3258 H 313.943 -1.57314 -0.944698 0
M  V30 3259 H 312.325 -1.71889 -3.5675 0
M  V30 3260 H 313.499 -4.1335 -2.03662 0
M  V30 3261 H 311.814 -3.66261 -1.98096 0
M  V30 3262 H 314.411 -2.72611 -4.59987 0
M  V30 3263 H 314.754 -1.11841 -4.00995 0
M  V30 3264 H 315.287 -2.53214 -3.06802 0
M  V30 3265 H 312.026 -5.48373 -3.5912 0
M  V30 3266 H 311.546 -4.0088 -4.46156 0
M  V30 3267 H 313.225 -4.59597 -4.55389 0
M  V30 3268 N 313.357 1.07166 -1.15556 0
M  V30 3269 C 314.29 2.13808 -0.797593 0
M  V30 3270 C 315.268 1.6101 0.226812 0
M  V30 3271 O 316.452 1.88161 0.112932 0
M  V30 3272 C 313.579 3.38187 -0.186371 0
M  V30 3273 C 312.625 4.09766 -1.18297 0
M  V30 3274 S 313.458 4.60932 -2.72584 0
M  V30 3275 C 314.614 5.88583 -2.12886 0
M  V30 3276 H 314.847 2.43843 -1.70083 0
M  V30 3277 H 312.38 1.19467 -0.978106 0
M  V30 3278 H 314.338 4.10189 0.159837 0
M  V30 3279 H 312.999 3.06326 0.694489 0
M  V30 3280 H 312.192 4.99065 -0.703562 0
M  V30 3281 H 311.794 3.43736 -1.47381 0
M  V30 3282 H 314.086 6.60866 -1.49208 0
M  V30 3283 H 315.029 6.41241 -3.0036 0
M  V30 3284 H 315.437 5.42194 -1.57116 0
M  V30 3285 N 314.835 0.952656 1.25548 0
M  V30 3286 C 315.745 0.47782 2.29682 0
M  V30 3287 C 316.761 -0.453859 1.67977 0
M  V30 3288 O 317.937 -0.330587 1.98668 0
M  V30 3289 C 315.002 -0.238655 3.45878 0
M  V30 3290 C 314.063 0.730994 4.23031 0
M  V30 3291 C 313.296 0.0486165 5.33678 0
M  V30 3292 O 313.519 -1.16612 5.58353 0
M  V30 3293 O 312.453 0.733152 5.97418 0
M  V30 3294 H 316.279 1.34312 2.72386 0
M  V30 3295 H 313.864 0.719026 1.30959 0
M  V30 3296 H 315.746 -0.641774 4.16484 0
M  V30 3297 H 314.421 -1.07916 3.05181 0
M  V30 3298 H 313.328 1.18428 3.5486 0
M  V30 3299 H 314.661 1.53946 4.67506 0
M  V30 3300 N 316.313 -1.40141 0.720998 0
M  V30 3301 C 317.59 -1.94677 0.189757 0
M  V30 3302 C 317.97 -1.65879 -1.30566 0
M  V30 3303 O 317.318 -0.979391 -2.06447 0
M  V30 3304 C 317.528 -3.45279 0.508304 0
M  V30 3305 C 318.876 -4.22209 0.449934 0
M  V30 3306 O 319.9 -3.53413 0.444677 0
M  V30 3307 O 318.759 -5.44788 0.432189 0
M  V30 3308 H 315.853 -0.826459 0.0299026 0
M  V30 3309 H 318.399 -1.49719 0.7989 0
M  V30 3310 H 317.171 -3.59619 1.54239 0
M  V30 3311 H 316.794 -3.97386 -0.130525 0
M  V30 3312 N 317.792 -0.46758 -1.50504 0
M  V30 3313 C 319.04 0.0884469 -2.01906 0
M  V30 3314 C 319.361 1.40532 -1.35188 0
M  V30 3315 O 318.631 1.89515 -0.496079 0
M  V30 3316 H 317.211 0.0356765 -0.746148 0
M  V30 3317 H 319.873 -0.6172 -1.84869 0
M  V30 3318 H 318.969 0.2425 -3.11156 0
M  V30 3319 N 319.27 1.56325 -0.20005 0
M  V30 3320 C 320.18 2.22931 0.730668 0
M  V30 3321 C 321.196 1.22997 1.23076 0
M  V30 3322 O 322.372 1.55748 1.27689 0
M  V30 3323 C 319.437 2.87948 1.93098 0
M  V30 3324 C 318.498 4.03166 1.47497 0
M  V30 3325 C 317.731 4.65073 2.61807 0
M  V30 3326 O 317.954 4.25913 3.79413 0
M  V30 3327 O 316.888 5.54452 2.34237 0
M  V30 3328 H 320.714 3.03084 0.193391 0
M  V30 3329 H 318.299 1.49371 0.0294621 0
M  V30 3330 H 320.181 3.29063 2.6324 0
M  V30 3331 H 318.856 2.10771 2.45677 0
M  V30 3332 H 317.763 3.66664 0.742201 0
M  V30 3333 H 319.096 4.82022 0.995796 0
M  V30 3334 N 320.748 -0.0735177 1.57428 0
M  V30 3335 C 321.997 -0.771809 1.86349 0
M  V30 3336 C 322.31 -1.78828 0.792452 0
M  V30 3337 O 323.516 -2.53602 0.96945 0
M  V30 3338 C 321.972 -1.42358 3.30548 0
M  V30 3339 C 321.58 -0.445761 4.45777 0
M  V30 3340 C 323.324 -2.10434 3.6867 0
M  V30 3341 C 321.231 -1.10335 5.81016 0
M  V30 3342 H 320.161 -0.291999 0.695164 0
M  V30 3343 H 322.812 -0.0250749 1.83483 0
M  V30 3344 H 321.194 -2.21852 3.28021 0
M  V30 3345 H 322.368 0.319239 4.59693 0
M  V30 3346 H 320.683 0.130457 4.16196 0
M  V30 3347 H 323.28 -2.60405 4.67004 0
M  V30 3348 H 323.623 -2.90298 2.98383 0
M  V30 3349 H 324.156 -1.37773 3.7318 0
M  V30 3350 H 320.895 -0.345061 6.54591 0
M  V30 3351 H 320.415 -1.83925 5.70904 0
M  V30 3352 H 322.094 -1.62367 6.26295 0
M  V30 3353 N 322.226 -1.5378 -0.344866 0
M  V30 3354 C 323.451 -1.75211 -1.10977 0
M  V30 3355 C 323.876 -0.48936 -1.81623 0
M  V30 3356 O 323.234 0.557925 -1.72502 0
M  V30 3357 C 323.282 -2.93147 -2.09993 0
M  V30 3358 O 322.386 -2.63203 -3.17487 0
M  V30 3359 H 321.727 -0.581241 -0.321021 0
M  V30 3360 H 324.257 -2.00738 -0.395661 0
M  V30 3361 H 324.267 -3.19898 -2.53237 0
M  V30 3362 H 322.942 -3.84731 -1.5797 0
M  V30 3363 H 321.519 -2.47336 -2.79069 0
M  V30 3364 N 323.704 0.605807 -1.45491 0
M  V30 3365 C 324.636 1.73031 -1.5031 0
M  V30 3366 C 325.649 1.57968 -0.393687 0
M  V30 3367 O 326.838 1.65817 -0.660839 0
M  V30 3368 C 323.938 3.11049 -1.34543 0
M  V30 3369 C 323.111 3.52334 -2.59189 0
M  V30 3370 C 322.17 4.69323 -2.37954 0
M  V30 3371 O 321.196 4.7635 -3.11575 0
M  V30 3372 N 322.398 5.62705 -1.4263 0
M  V30 3373 H 325.163 1.6936 -2.4726 0
M  V30 3374 H 322.724 0.79114 -1.41254 0
M  V30 3375 H 324.716 3.87071 -1.18144 0
M  V30 3376 H 323.286 3.09217 -0.458623 0
M  V30 3377 H 322.506 2.66256 -2.90691 0
M  V30 3378 H 323.794 3.76677 -3.42041 0
M  V30 3379 H 323.192 5.59744 -0.818758 0
M  V30 3380 H 321.749 6.38252 -1.32202 0
M  V30 3381 N 325.182 1.32811 0.848464 0
M  V30 3382 C 326.428 1.23907 1.60546 0
M  V30 3383 C 326.761 -0.197161 1.93197 0
M  V30 3384 O 326.036 -1.13596 1.5788 0
M  V30 3385 C 326.319 2.10489 2.92175 0
M  V30 3386 C 326.172 3.62522 2.66266 0
M  V30 3387 C 327.491 1.97075 3.93509 0
M  V30 3388 H 324.61 0.451459 0.58254 0
M  V30 3389 H 327.252 1.62818 0.979296 0
M  V30 3390 H 325.402 1.77434 3.45614 0
M  V30 3391 H 327.074 4.05821 2.19334 0
M  V30 3392 H 325.317 3.84879 2.00126 0
M  V30 3393 H 325.988 4.18437 3.6002 0
M  V30 3394 H 328.464 2.26045 3.49346 0
M  V30 3395 H 327.34 2.59923 4.83457 0
M  V30 3396 H 327.601 0.940186 4.31987 0
M  V30 3397 N 326.66 -1.06551 1.16123 0
M  V30 3398 C 327.59 -2.15935 0.88851 0
M  V30 3399 C 328.571 -1.69306 -0.164135 0
M  V30 3400 O 329.756 -1.94193 -0.0167857 0
M  V30 3401 C 326.886 -3.45149 0.385942 0
M  V30 3402 C 325.84 -4.05271 1.3762 0
M  V30 3403 C 325.166 -5.29664 0.732137 0
M  V30 3404 C 326.466 -4.44355 2.74493 0
M  V30 3405 H 328.16 -2.39006 1.80323 0
M  V30 3406 H 325.706 -1.14866 0.868435 0
M  V30 3407 H 327.659 -4.21004 0.182647 0
M  V30 3408 H 326.383 -3.21689 -0.564274 0
M  V30 3409 H 325.042 -3.3147 1.56599 0
M  V30 3410 H 324.69 -5.02499 -0.224483 0
M  V30 3411 H 324.39 -5.70848 1.39307 0
M  V30 3412 H 325.914 -6.08218 0.538802 0
M  V30 3413 H 327.328 -5.11303 2.59311 0
M  V30 3414 H 325.725 -4.96515 3.37035 0
M  V30 3415 H 326.795 -3.55339 3.29943 0
M  V30 3416 N 328.138 -0.959301 -1.25041 0
M  V30 3417 C 329.549 -0.65667 -1.74771 0
M  V30 3418 C 329.9 0.827852 -1.77879 0
M  V30 3419 O 329.025 1.64783 -1.40269 0
M  V30 3420 C 329.62 -1.1853 -3.1739 0
M  V30 3421 C 328.179 -0.932734 -3.6466 0
M  V30 3422 C 327.326 -1.32558 -2.43564 0
M  V30 3423 H 330.277 -1.13558 -1.10862 0
M  V30 3424 H 330.298 -0.547582 -3.76539 0
M  V30 3425 H 329.81 -2.26576 -3.15095 0
M  V30 3426 H 327.911 0.13257 -3.72364 0
M  V30 3427 H 328.024 -1.57248 -4.52559 0
M  V30 3428 H 326.388 -0.743956 -2.43593 0
M  V30 3429 H 327.171 -2.41537 -2.43957 0
M  V30 3430 N 329.616 1.39756 -0.72842 0
M  V30 3431 C 330.864 2.00248 -0.272946 0
M  V30 3432 C 331.185 1.58077 1.14178 0
M  V30 3433 O 330.455 0.826014 1.77634 0
M  V30 3434 H 329.035 0.740554 -0.0979247 0
M  V30 3435 H 331.697 1.70903 -0.936912 0
M  V30 3436 H 330.793 3.10495 -0.316142 0
M  V30 3437 N 331.094 0.475555 1.50254 0
M  V30 3438 C 332.371 -0.139685 1.95101 0
M  V30 3439 C 332.751 -1.56555 1.41611 0
M  V30 3440 O 332.099 -2.19956 0.618993 0
M  V30 3441 C 332.309 -0.0784298 3.48912 0
M  V30 3442 C 333.657 -0.265095 4.23772 0
M  V30 3443 O 334.681 -0.154808 3.55863 0
M  V30 3444 O 333.54 -0.488327 5.44314 0
M  V30 3445 H 330.634 -0.109236 0.819754 0
M  V30 3446 H 333.18 0.536276 1.61004 0
M  V30 3447 H 331.952 0.916918 3.80405 0
M  V30 3448 H 331.575 -0.795655 3.89558 0
M  V30 3449 N 332.573 -1.56217 0.208337 0
M  V30 3450 C 333.521 -2.21053 -0.723769 0
M  V30 3451 C 334.515 -1.18578 -1.20978 0
M  V30 3452 O 335.721 -1.36691 -1.17114 0
M  V30 3453 H 332.096 -0.708595 -0.251788 0
M  V30 3454 H 334.067 -2.98006 -0.153365 0
M  V30 3455 C 332.816 -2.89417 -1.927 0
M  V30 3456 H 332.139 -3.68019 -1.56212 0
M  V30 3457 H 333.579 -3.38201 -2.55727 0
M  V30 3458 C 332.038 -1.91166 -2.77411 0
M  V30 3459 O 332.568 -1.42026 -3.75754 0
M  V30 3460 N 330.774 -1.59105 -2.43175 0
M  V30 3461 H 330.321 -1.99259 -1.63259 0
M  V30 3462 H 330.279 -0.936255 -3.00136 0
M  V30 3463 N 334.051 0.0651679 -1.57465 0
M  V30 3464 C 334.998 1.07675 -2.04144 0
M  V30 3465 C 335.968 1.38071 -0.923335 0
M  V30 3466 O 337.153 1.49026 -1.19146 0
M  V30 3467 C 334.293 2.38337 -2.49579 0
M  V30 3468 C 333.406 2.14413 -3.75035 0
M  V30 3469 C 332.541 3.38686 -4.09225 0
M  V30 3470 C 331.58 3.10156 -5.27702 0
M  V30 3471 N 330.717 4.26778 -5.57499 0
M  V30 3472 H 335.557 0.671716 -2.90331 0
M  V30 3473 H 333.094 0.3201 -1.43575 0
M  V30 3474 H 335.052 3.14632 -2.73975 0
M  V30 3475 H 333.682 2.7663 -1.6636 0
M  V30 3476 H 332.734 1.2878 -3.57939 0
M  V30 3477 H 334.046 1.89344 -4.61466 0
M  V30 3478 H 333.2 4.23373 -4.34558 0
M  V30 3479 H 331.939 3.66837 -3.21374 0
M  V30 3480 H 330.944 2.23866 -5.02159 0
M  V30 3481 H 332.169 2.8332 -6.17176 0
M  V30 3482 H 330.115 4.54948 -4.72608 0
M  V30 3483 H 330.032 4.05005 -6.38362 0
M  V30 3484 H 331.3 5.12443 -5.87386 0
M  V30 3485 N 335.529 1.53961 0.336706 0
M  V30 3486 C 336.776 1.71536 1.07618 0
M  V30 3487 C 337.104 0.482125 1.8843 0
M  V30 3488 O 336.359 -0.536142 1.88213 0
M  V30 3489 C 336.658 2.93493 2.03953 0
M  V30 3490 C 336.324 4.28811 1.39399 0
M  V30 3491 C 334.986 4.65602 1.21523 0
M  V30 3492 C 337.338 5.12844 0.929541 0
M  V30 3493 C 334.666 5.84037 0.558312 0
M  V30 3494 C 337.018 6.31951 0.286505 0
M  V30 3495 C 335.682 6.67432 0.0954869 0
M  V30 3496 H 334.952 0.627696 0.393801 0
M  V30 3497 H 337.599 1.88186 0.354715 0
M  V30 3498 H 335.904 2.71475 2.82504 0
M  V30 3499 H 337.601 3.04285 2.61174 0
M  V30 3500 H 334.191 3.99858 1.54311 0
M  V30 3501 H 338.375 4.84947 1.05548 0
M  V30 3502 H 333.631 6.10097 0.398995 0
M  V30 3503 H 337.805 6.96352 -0.0814376 0
M  V30 3504 H 335.432 7.59063 -0.415579 0
M  V30 3505 N 337.007 -0.598083 1.45811 0
M  V30 3506 C 337.955 -1.72932 1.55555 0
M  V30 3507 C 338.949 -1.63984 0.424921 0
M  V30 3508 O 340.155 -1.69663 0.601205 0
M  V30 3509 H 336.53 -0.571489 0.488779 0
M  V30 3510 H 338.501 -1.61842 2.50699 0
M  V30 3511 C 337.25 -3.11318 1.54843 0
M  V30 3512 H 336.573 -3.18867 2.41172 0
M  V30 3513 H 338.013 -3.90274 1.65717 0
M  V30 3514 C 336.472 -3.3578 0.274427 0
M  V30 3515 O 337.002 -3.9654 -0.641778 0
M  V30 3516 N 335.208 -2.90119 0.167139 0
M  V30 3517 H 334.755 -2.40855 0.913596 0
M  V30 3518 H 334.713 -3.0686 -0.684435 0
M  V30 3519 N 338.485 -1.33259 -0.841409 0
M  V30 3520 C 339.734 -1.23921 -1.59143 0
M  V30 3521 C 340.047 0.1941 -1.94635 0
M  V30 3522 O 341.253 0.409474 -2.68394 0
M  V30 3523 C 339.709 -2.17119 -2.87032 0
M  V30 3524 C 339.317 -3.65606 -2.58914 0
M  V30 3525 C 341.061 -2.16648 -3.65053 0
M  V30 3526 C 338.968 -4.50726 -3.82884 0
M  V30 3527 H 337.898 -0.460264 -0.597221 0
M  V30 3528 H 340.549 -1.58307 -0.927959 0
M  V30 3529 H 338.931 -1.75663 -3.54906 0
M  V30 3530 H 340.105 -4.15487 -1.99267 0
M  V30 3531 H 338.42 -3.68341 -1.942 0
M  V30 3532 H 341.017 -2.77474 -4.57069 0
M  V30 3533 H 341.36 -1.16088 -3.99787 0
M  V30 3534 H 341.893 -2.56453 -3.041 0
M  V30 3535 H 338.632 -5.52151 -3.53283 0
M  V30 3536 H 338.152 -4.0559 -4.41879 0
M  V30 3537 H 339.831 -4.64401 -4.50489 0
M  V30 3538 N 339.963 1.05934 -1.16686 0
M  V30 3539 C 341.191 1.8249 -0.974929 0
M  V30 3540 C 341.606 1.82679 0.476861 0
M  V30 3541 O 340.963 1.2486 1.33103 0
M  V30 3542 C 341.014 3.28943 -1.49929 0
M  V30 3543 O 340.735 3.28886 -2.89423 0
M  V30 3544 C 342.236 4.22215 -1.35089 0
M  V30 3545 H 339.456 0.575295 -0.345365 0
M  V30 3546 H 342 1.33631 -1.548 0
M  V30 3547 H 340.155 3.751 -0.968423 0
M  V30 3548 H 340.569 4.20493 -3.13506 0
M  V30 3549 H 342.043 5.22987 -1.76603 0
M  V30 3550 H 342.52 4.38195 -0.296935 0
M  V30 3551 H 343.126 3.81907 -1.87155 0
M  V30 3552 N 341.441 0.965919 1.2453 0
M  V30 3553 C 342.681 0.634656 1.94297 0
M  V30 3554 C 343.045 -0.814822 1.73852 0
M  V30 3555 O 344.246 -1.25622 2.3764 0
M  V30 3556 C 342.517 0.99702 3.43212 0
M  V30 3557 S 344.076 0.780038 4.31811 0
M  V30 3558 H 340.894 0.232893 0.671775 0
M  V30 3559 H 343.496 1.24249 1.50938 0
M  V30 3560 H 342.2 2.04886 3.55598 0
M  V30 3561 H 341.731 0.379888 3.91562 0
M  V30 3562 H 343.746 -0.343512 4.9501 0
M  V30 3563 N 342.919 -1.39368 0.735821 0
M  V30 3564 C 344.144 -2.05319 0.293052 0
M  V30 3565 C 344.569 -1.55115 -1.064 0
M  V30 3566 O 343.927 -0.695261 -1.67439 0
M  V30 3567 C 343.975 -3.59305 0.305323 0
M  V30 3568 O 343.079 -4.06299 -0.706761 0
M  V30 3569 H 342.42 -0.650529 0.13307 0
M  V30 3570 H 344.95 -1.78386 1.00197 0
M  V30 3571 H 344.96 -4.07724 0.149997 0
M  V30 3572 H 343.635 -3.95207 1.29553 0
M  V30 3573 H 342.212 -3.69292 -0.517504 0
M  V30 3574 N 344.397 -0.483516 -1.5 0
M  V30 3575 C 345.645 0.067027 -2.01989 0
M  V30 3576 C 345.966 1.3909 -1.36671 0
M  V30 3577 O 345.236 1.88978 -0.516152 0
M  V30 3578 H 343.816 0.0277606 -0.746484 0
M  V30 3579 H 346.478 -0.636773 -1.84204 0
M  V30 3580 H 345.574 0.209484 -3.11396 0
M  V30 3581 N 345.875 1.56104 -0.216619 0
M  V30 3582 C 347.105 2.02269 0.420802 0
M  V30 3583 C 347.513 1.09575 1.5424 0
M  V30 3584 O 346.856 0.0967308 1.83445 0
M  V30 3585 C 346.918 3.44784 1.01806 0
M  V30 3586 C 346.582 4.56988 0.0325154 0
M  V30 3587 C 347.579 5.14225 -0.766055 0
M  V30 3588 C 345.264 5.02228 -0.0848092 0
M  V30 3589 C 347.258 6.15169 -1.6687 0
M  V30 3590 C 344.945 6.03011 -0.990994 0
M  V30 3591 C 345.943 6.59357 -1.78149 0
M  V30 3592 O 345.631 7.58179 -2.67245 0
M  V30 3593 H 345.363 0.667353 0.107776 0
M  V30 3594 H 347.917 2.02747 -0.329034 0
M  V30 3595 H 346.147 3.41359 1.81689 0
M  V30 3596 H 347.836 3.74626 1.56237 0
M  V30 3597 H 348.602 4.80126 -0.685836 0
M  V30 3598 H 344.481 4.58054 0.520349 0
M  V30 3599 H 348.025 6.59076 -2.28615 0
M  V30 3600 H 343.922 6.36532 -1.07225 0
M  V30 3601 H 344.69 7.75682 -2.61265 0
M  V30 3602 N 347.353 -0.0568162 1.57498 0
M  V30 3603 C 348.263 -1.08346 2.08083 0
M  V30 3604 C 349.279 -1.41439 1.01346 0
M  V30 3605 O 350.455 -1.51316 1.32912 0
M  V30 3606 C 347.52 -2.37352 2.52715 0
M  V30 3607 C 346.581 -2.11093 3.73816 0
M  V30 3608 C 345.814 -3.33949 4.1631 0
M  V30 3609 O 346.037 -4.43622 3.58547 0
M  V30 3610 O 344.971 -3.21279 5.08983 0
M  V30 3611 H 348.797 -0.683667 2.95905 0
M  V30 3612 H 346.382 -0.271965 1.46904 0
M  V30 3613 H 348.264 -3.13246 2.81877 0
M  V30 3614 H 346.939 -2.76681 1.68016 0
M  V30 3615 H 345.846 -1.32856 3.49714 0
M  V30 3616 H 347.179 -1.76637 4.59413 0
M  V30 3617 N 348.832 -1.54138 -0.328536 0
M  V30 3618 C 350.057 -1.76378 -1.09112 0
M  V30 3619 C 350.482 -0.508596 -1.81094 0
M  V30 3620 O 349.84 0.539598 -1.73084 0
M  V30 3621 C 349.888 -2.95358 -2.06872 0
M  V30 3622 O 348.992 -2.66556 -3.14677 0
M  V30 3623 H 348.333 -0.584614 -0.314838 0
M  V30 3624 H 350.863 -2.01146 -0.374348 0
M  V30 3625 H 350.873 -3.22566 -2.4983 0
M  V30 3626 H 349.548 -3.86385 -1.5388 0
M  V30 3627 H 348.125 -2.50282 -2.7643 0
M  V30 3628 N 350.31 0.590341 -1.46126 0
M  V30 3629 C 351.26 1.69466 -1.5253 0
M  V30 3630 C 352.244 1.56179 -0.386917 0
M  V30 3631 O 353.436 1.65223 -0.634858 0
M  V30 3632 C 350.565 3.08245 -1.5113 0
M  V30 3633 C 349.651 3.26856 -2.70233 0
M  V30 3634 N 350.042 3.15657 -3.95214 0
M  V30 3635 C 348.34 3.57775 -2.66296 0
M  V30 3636 C 349.041 3.36066 -4.74799 0
M  V30 3637 N 348.017 3.60865 -4.06543 0
M  V30 3638 H 351.819 1.59326 -2.46966 0
M  V30 3639 H 349.333 0.79414 -1.41659 0
M  V30 3640 H 351.33 3.87492 -1.53804 0
M  V30 3641 H 349.99 3.19521 -0.577636 0
M  V30 3642 H 351.001 2.93686 -4.26578 0
M  V30 3643 H 347.678 3.75782 -1.81918 0
M  V30 3644 H 349.068 3.32655 -5.83772 0
M  V30 3645 N 351.788 1.33704 0.83433 0
M  V30 3646 C 353.034 1.25603 1.59222 0
M  V30 3647 C 353.367 -0.176659 1.93395 0
M  V30 3648 O 352.642 -1.11915 1.59076 0
M  V30 3649 C 352.925 2.13576 2.89926 0
M  V30 3650 C 352.778 3.65326 2.62406 0
M  V30 3651 C 354.097 2.01238 3.91397 0
M  V30 3652 H 351.216 0.457613 0.577719 0
M  V30 3653 H 353.858 1.63848 0.961972 0
M  V30 3654 H 352.008 1.8109 3.43713 0
M  V30 3655 H 353.68 4.08124 2.15017 0
M  V30 3656 H 351.923 3.8698 1.96033 0
M  V30 3657 H 352.594 4.22232 3.55562 0
M  V30 3658 H 355.07 2.29738 3.46929 0
M  V30 3659 H 353.946 2.65036 4.80673 0
M  V30 3660 H 354.207 0.985951 4.30966 0
M  V30 3661 N 353.266 -1.05314 1.17247 0
M  V30 3662 C 354.677 -1.59753 0.96623 0
M  V30 3663 C 355.028 -1.9005 -0.487378 0
M  V30 3664 O 354.153 -1.68126 -1.36245 0
M  V30 3665 C 354.748 -2.90249 1.74759 0
M  V30 3666 C 353.307 -3.41352 1.58606 0
M  V30 3667 C 352.454 -2.15103 1.75002 0
M  V30 3668 H 355.405 -0.881406 1.31973 0
M  V30 3669 H 355.426 -3.60097 1.22925 0
M  V30 3670 H 354.938 -2.68166 2.8055 0
M  V30 3671 H 353.039 -3.68474 0.552985 0
M  V30 3672 H 353.152 -4.16019 2.37624 0
M  V30 3673 H 351.516 -2.25804 1.17833 0
M  V30 3674 H 352.299 -1.95491 2.82202 0
M  V30 3675 N 354.744 -0.972509 -1.24016 0
M  V30 3676 C 355.969 -0.654417 -1.96805 0
M  V30 3677 C 356.394 0.770398 -1.716 0
M  V30 3678 O 355.752 1.52361 -0.982647 0
M  V30 3679 C 355.8 -0.941031 -3.48105 0
M  V30 3680 O 354.904 -0.0289472 -4.1239 0
M  V30 3681 H 354.245 -0.24692 -0.616382 0
M  V30 3682 H 356.775 -1.30396 -1.57664 0
M  V30 3683 H 356.785 -0.87452 -3.98517 0
M  V30 3684 H 355.46 -1.97939 -3.65777 0
M  V30 3685 H 354.037 -0.149192 -3.72601 0
M  V30 3686 N 356.222 1.38976 -0.743202 0
M  V30 3687 C 357.47 1.99948 -0.29417 0
M  V30 3688 C 357.791 1.59279 1.12495 0
M  V30 3689 O 357.061 0.844808 1.76748 0
M  V30 3690 H 355.641 0.739473 -0.105774 0
M  V30 3691 H 358.303 1.699 -0.954986 0
M  V30 3692 H 357.399 3.10142 -0.349056 0
M  V30 3693 N 357.7 0.491464 1.49741 0
M  V30 3694 C 358.948 -0.0563141 2.02022 0
M  V30 3695 C 359.269 -1.38363 1.37407 0
M  V30 3696 O 358.539 -1.88702 0.526166 0
M  V30 3697 H 357.119 -0.0238014 0.746621 0
M  V30 3698 H 359.781 0.646533 1.83864 0
M  V30 3699 H 358.877 -0.192967 3.11503 0
M  V30 3700 N 359.178 -1.55987 0.224894 0
M  V30 3701 C 360.427 -1.97566 -0.406273 0
M  V30 3702 C 360.74 -1.11569 -1.6066 0
M  V30 3703 O 361.946 -1.43062 -2.3075 0
M  V30 3704 C 360.402 -3.51474 -0.774207 0
M  V30 3705 C 360.01 -4.46179 0.403496 0
M  V30 3706 C 361.754 -4.01758 -1.37079 0
M  V30 3707 C 359.661 -5.91399 0.0129412 0
M  V30 3708 H 358.591 -0.737777 -0.155565 0
M  V30 3709 H 361.242 -1.80659 0.321635 0
M  V30 3710 H 359.624 -3.63994 -1.55963 0
M  V30 3711 H 360.798 -4.45409 1.18101 0
M  V30 3712 H 359.113 -4.06255 0.913536 0
M  V30 3713 H 361.71 -5.07756 -1.67596 0
M  V30 3714 H 362.053 -3.47805 -2.28773 0
M  V30 3715 H 362.586 -3.92475 -0.648733 0
M  V30 3716 H 359.325 -6.49341 0.896451 0
M  V30 3717 H 358.845 -5.95356 -0.728821 0
M  V30 3718 H 360.524 -6.45683 -0.412582 0
M  V30 3719 N 360.656 0.0484629 -1.57525 0
M  V30 3720 C 361.586 1.0549 -2.08313 0
M  V30 3721 C 362.567 1.38929 -0.981463 0
M  V30 3722 O 363.752 1.48151 -1.25558 0
M  V30 3723 C 360.882 2.36162 -2.54646 0
M  V30 3724 C 359.836 2.17016 -3.68901 0
M  V30 3725 C 359.162 3.53278 -4.01371 0
M  V30 3726 C 360.462 1.57219 -4.98076 0
M  V30 3727 H 362.156 0.632195 -2.92649 0
M  V30 3728 H 359.702 0.302654 -1.40784 0
M  V30 3729 H 361.655 3.06882 -2.88793 0
M  V30 3730 H 360.379 2.80456 -1.67368 0
M  V30 3731 H 359.038 1.48733 -3.35073 0
M  V30 3732 H 358.686 3.95185 -3.11188 0
M  V30 3733 H 358.386 3.41299 -4.78318 0
M  V30 3734 H 359.91 4.25391 -4.38035 0
M  V30 3735 H 361.324 2.17832 -5.30304 0
M  V30 3736 H 359.721 1.55871 -5.79503 0
M  V30 3737 H 360.791 0.535956 -4.81929 0
M  V30 3738 N 362.134 1.5431 0.320358 0
M  V30 3739 C 363.362 1.76636 1.07738 0
M  V30 3740 C 363.777 0.51649 1.81598 0
M  V30 3741 O 363.134 -0.512942 1.75143 0
M  V30 3742 C 363.185 2.96158 2.07299 0
M  V30 3743 O 362.906 4.16313 1.36438 0
M  V30 3744 C 364.407 3.3072 2.95193 0
M  V30 3745 H 361.627 0.589597 0.320339 0
M  V30 3746 H 364.171 2.01207 0.36551 0
M  V30 3747 H 362.326 2.73851 2.74016 0
M  V30 3748 H 362.74 4.83565 2.03138 0
M  V30 3749 H 364.214 4.17643 3.60941 0
M  V30 3750 H 364.691 2.48026 3.62463 0
M  V30 3751 H 365.297 3.55117 2.34034 0
M  V30 3752 N 363.613 -0.582584 1.46437 0
M  V30 3753 C 364.838 -1.37168 1.55563 0
M  V30 3754 C 365.263 -1.87061 0.19743 0
M  V30 3755 O 364.621 -1.61572 -0.822451 0
M  V30 3756 C 364.669 -2.53511 2.56446 0
M  V30 3757 O 363.773 -3.54953 2.09958 0
M  V30 3758 H 363.114 -0.408494 0.523477 0
M  V30 3759 H 365.644 -0.706646 1.9201 0
M  V30 3760 H 365.654 -3.00426 2.76058 0
M  V30 3761 H 364.329 -2.16549 3.55076 0
M  V30 3762 H 362.906 -3.14516 2.00334 0
M  V30 3763 N 365.091 -1.34144 -0.827227 0
M  V30 3764 C 366.319 -1.29325 -1.61501 0
M  V30 3765 C 366.734 0.13354 -1.88327 0
M  V30 3766 O 366.091 1.0793 -1.47164 0
M  V30 3767 C 366.142 -2.07746 -2.95844 0
M  V30 3768 O 365.863 -3.4486 -2.70191 0
M  V30 3769 C 367.364 -2.10273 -3.90256 0
M  V30 3770 H 364.584 -0.445069 -0.50215 0
M  V30 3771 H 367.128 -1.76693 -1.02955 0
M  V30 3772 H 365.283 -1.6403 -3.5096 0
M  V30 3773 H 365.697 -3.85345 -3.55822 0
M  V30 3774 H 367.171 -2.69575 -4.81698 0
M  V30 3775 H 367.648 -1.096 -4.25305 0
M  V30 3776 H 368.254 -2.54059 -3.41078 0
M  V30 3777 N 366.569 1.04691 -1.17803 0
M  V30 3778 C 367.794 1.81984 -0.994813 0
M  V30 3779 C 368.219 1.82586 0.452112 0
M  V30 3780 O 367.577 1.23854 1.324 0
M  V30 3781 C 367.625 3.2575 -1.54659 0
M  V30 3782 O 366.729 4.05267 -0.763728 0
M  V30 3783 H 366.07 0.562483 -0.352857 0
M  V30 3784 H 368.6 1.3189 -1.56417 0
M  V30 3785 H 368.61 3.76541 -1.57102 0
M  V30 3786 H 367.285 3.24627 -2.59981 0
M  V30 3787 H 365.862 3.63972 -0.811108 0
M  V30 3788 N 368.047 0.979072 1.23499 0
M  V30 3789 C 369.458 0.684391 1.73704 0
M  V30 3790 C 369.809 -0.799448 1.79174 0
M  V30 3791 O 368.934 -1.62531 1.42873 0
M  V30 3792 C 369.529 1.23564 3.15464 0
M  V30 3793 C 368.088 0.99063 3.6313 0
M  V30 3794 C 367.235 1.36416 2.41425 0
M  V30 3795 H 370.186 1.15307 1.09041 0
M  V30 3796 H 370.207 0.607417 3.7562 0
M  V30 3797 H 369.719 2.31561 3.1145 0
M  V30 3798 H 367.82 -0.0733136 3.72528 0
M  V30 3799 H 367.933 1.64427 4.5 0
M  V30 3800 H 366.297 0.782616 2.42378 0
M  V30 3801 H 367.08 2.45387 2.40083 0
M  V30 3802 N 369.525 -1.3858 0.750561 0
M  V30 3803 C 370.771 -2.00481 0.305825 0
M  V30 3804 C 371.104 -1.5944 -1.10872 0
M  V30 3805 O 370.379 -0.83052 -1.75877 0
M  V30 3806 C 370.662 -3.5758 0.425287 0
M  V30 3807 C 370.515 -4.08594 1.88072 0
M  V30 3808 C 371.834 -4.39719 -0.183122 0
M  V30 3809 H 368.953 -0.728348 0.112598 0
M  V30 3810 H 371.595 -1.64566 0.949638 0
M  V30 3811 H 369.745 -3.88306 -0.122828 0
M  V30 3812 H 371.417 -3.88523 2.48691 0
M  V30 3813 H 369.66 -3.61574 2.39681 0
M  V30 3814 H 370.331 -5.177 1.91548 0
M  V30 3815 H 372.807 -4.15128 0.284303 0
M  V30 3816 H 371.683 -5.48856 -0.0692757 0
M  V30 3817 H 371.944 -4.23434 -1.27106 0
M  V30 3818 N 371.003 -0.499398 -1.49478 0
M  V30 3819 C 371.966 0.268838 -2.27618 0
M  V30 3820 C 372.966 0.895383 -1.33565 0
M  V30 3821 O 374.156 0.760164 -1.56739 0
M  V30 3822 C 371.288 1.38559 -3.11471 0
M  V30 3823 H 372.481 -0.416812 -2.96989 0
M  V30 3824 H 370.034 -0.254313 -1.54217 0
M  V30 3825 H 370.769 2.10544 -2.46661 0
M  V30 3826 H 370.554 0.941797 -3.80621 0
M  V30 3827 H 372.044 1.92678 -3.70493 0
M  V30 3828 N 372.481 1.55866 -0.233164 0
M  V30 3829 C 373.709 2.02998 0.399905 0
M  V30 3830 C 374.124 1.11274 1.52524 0
M  V30 3831 O 373.481 0.124528 1.82075 0
M  V30 3832 C 373.532 3.4958 0.920639 0
M  V30 3833 O 373.253 4.37808 -0.159834 0
M  V30 3834 C 374.754 4.12411 1.62578 0
M  V30 3835 H 371.974 0.664006 0.0966281 0
M  V30 3836 H 374.518 2.0143 -0.353013 0
M  V30 3837 H 372.673 3.51727 1.62379 0
M  V30 3838 H 373.087 5.23981 0.23337 0
M  V30 3839 H 374.561 5.16711 1.94201 0
M  V30 3840 H 375.038 3.5809 2.54299 0
M  V30 3841 H 375.644 4.14148 0.967553 0
M  V30 3842 N 373.959 -0.0401083 1.57549 0
M  V30 3843 C 375.37 -0.588097 1.77196 0
M  V30 3844 C 375.721 -1.76209 0.862832 0
M  V30 3845 O 374.846 -2.16331 0.0548389 0
M  V30 3846 C 375.441 -1.07363 3.21339 0
M  V30 3847 C 374 -1.56723 3.42221 0
M  V30 3848 C 373.147 -0.50041 2.72747 0
M  V30 3849 H 376.098 0.186119 1.57605 0
M  V30 3850 H 376.119 -1.94143 3.27244 0
M  V30 3851 H 375.631 -0.218975 3.87482 0
M  V30 3852 H 373.732 -2.4441 2.81237 0
M  V30 3853 H 373.845 -1.62234 4.50796 0
M  V30 3854 H 372.209 -0.952894 2.36203 0
M  V30 3855 H 372.992 0.344599 3.41566 0
M  V30 3856 N 375.437 -1.54477 -0.31217 0
M  V30 3857 C 376.686 -1.72438 -1.04633 0
M  V30 3858 C 376.999 -0.511163 -1.88803 0
M  V30 3859 O 378.205 -0.572341 -2.65399 0
M  V30 3860 C 376.661 -3.05043 -1.9099 0
M  V30 3861 C 376.269 -4.33806 -1.11877 0
M  V30 3862 C 378.013 -3.32364 -2.64073 0
M  V30 3863 C 375.92 -5.57467 -1.97445 0
M  V30 3864 H 374.85 -0.642647 -0.394361 0
M  V30 3865 H 377.501 -1.80966 -0.303929 0
M  V30 3866 H 375.883 -2.90451 -2.69173 0
M  V30 3867 H 377.057 -4.59199 -0.383843 0
M  V30 3868 H 375.372 -4.13336 -0.504252 0
M  V30 3869 H 377.969 -4.21951 -3.28423 0
M  V30 3870 H 378.312 -2.50745 -3.32314 0
M  V30 3871 H 378.845 -3.47875 -1.92944 0
M  V30 3872 H 375.584 -6.41722 -1.33692 0
M  V30 3873 H 375.104 -5.36277 -2.6864 0
M  V30 3874 H 376.783 -5.94303 -2.5576 0
M  V30 3875 N 376.915 0.57481 -1.46744 0
M  V30 3876 C 378.326 1.15695 -1.46532 0
M  V30 3877 C 378.677 1.95068 -0.210425 0
M  V30 3878 O 377.802 2.05241 0.685944 0
M  V30 3879 C 378.397 2.1048 -2.65487 0
M  V30 3880 C 376.956 2.64002 -2.68291 0
M  V30 3881 C 376.103 1.40026 -2.39349 0
M  V30 3882 H 379.054 0.362325 -1.54509 0
M  V30 3883 H 379.075 2.94074 -2.41455 0
M  V30 3884 H 378.587 1.52683 -3.56805 0
M  V30 3885 H 376.688 3.25646 -1.81067 0
M  V30 3886 H 376.801 3.06197 -3.68483 0
M  V30 3887 H 375.165 1.70106 -1.89568 0
M  V30 3888 H 375.948 0.840485 -3.32852 0
M  V30 3889 N 378.394 1.34581 0.820102 0
M  V30 3890 C 379.642 1.26845 1.57336 0
M  V30 3891 C 379.963 -0.160667 1.94337 0
M  V30 3892 O 379.233 -1.09396 1.6251 0
M  V30 3893 H 377.813 0.466514 0.583415 0
M  V30 3894 H 380.475 1.68526 0.979027 0
M  V30 3895 H 379.571 1.87513 2.4949 0
M  V30 3896 N 379.872 -1.04064 1.18357 0
M  V30 3897 C 381.1 -1.80916 1.00384 0
M  V30 3898 C 381.515 -1.83414 -0.447738 0
M  V30 3899 O 380.872 -1.26962 -1.31099 0
M  V30 3900 C 380.923 -3.26516 1.55144 0
M  V30 3901 O 380.644 -3.2424 2.94618 0
M  V30 3902 C 382.145 -4.20013 1.41789 0
M  V30 3903 H 379.365 -0.569728 0.354474 0
M  V30 3904 H 381.909 -1.31151 1.56906 0
M  V30 3905 H 380.064 -3.73512 1.02798 0
M  V30 3906 H 380.478 -4.15452 3.20156 0
M  V30 3907 H 381.952 -5.20111 1.84901 0
M  V30 3908 H 382.429 -4.37667 0.36661 0
M  V30 3909 H 383.035 -3.78881 1.93207 0
M  V30 3910 N 381.35 -0.985608 -1.22978 0
M  V30 3911 C 382.598 -0.656087 -1.91154 0
M  V30 3912 C 382.919 0.813561 -1.77218 0
M  V30 3913 O 382.189 1.58244 -1.1548 0
M  V30 3914 H 380.769 -0.239674 -0.707506 0
M  V30 3915 H 383.431 -1.25054 -1.49491 0
M  V30 3916 H 382.527 -0.912253 -2.9847 0
M  V30 3917 N 382.828 1.3818 -0.7579 0
M  V30 3918 C 384.058 2.04004 -0.326463 0
M  V30 3919 C 384.466 1.57286 1.05156 0
M  V30 3920 O 383.809 0.743144 1.67997 0
M  V30 3921 C 383.871 3.58444 -0.275402 0
M  V30 3922 C 383.535 4.28237 -1.59569 0
M  V30 3923 C 384.532 4.53312 -2.54566 0
M  V30 3924 C 382.217 4.66341 -1.86631 0
M  V30 3925 C 384.211 5.15531 -3.74842 0
M  V30 3926 C 381.898 5.28283 -3.0718 0
M  V30 3927 C 382.896 5.52814 -4.01106 0
M  V30 3928 O 382.584 6.13465 -5.19534 0
M  V30 3929 H 382.316 0.662026 -0.136739 0
M  V30 3930 H 384.87 1.7777 -1.02893 0
M  V30 3931 H 383.1 3.83667 0.483337 0
M  V30 3932 H 384.789 4.05701 0.127099 0
M  V30 3933 H 385.555 4.24299 -2.34936 0
M  V30 3934 H 381.434 4.46591 -1.14358 0
M  V30 3935 H 384.978 5.34594 -4.48168 0
M  V30 3936 H 380.875 5.56719 -3.26702 0
M  V30 3937 H 381.643 6.31951 -5.20173 0
M  V30 3938 N 384.306 0.507319 1.49211 0
M  V30 3939 C 385.269 -0.256763 2.27757 0
M  V30 3940 C 386.269 -0.888287 1.34038 0
M  V30 3941 O 387.459 -0.751841 1.5714 0
M  V30 3942 C 384.591 -1.36905 3.12202 0
M  V30 3943 H 385.784 0.432557 2.96764 0
M  V30 3944 H 383.337 0.262488 1.5408 0
M  V30 3945 H 384.072 -2.09233 2.47775 0
M  V30 3946 H 383.857 -0.921599 3.81115 0
M  V30 3947 H 385.347 -1.9071 3.7151 0
M  V30 3948 N 385.784 -1.5574 0.241426 0
M  V30 3949 C 387.014 -2.02913 -0.38857 0
M  V30 3950 C 387.422 -1.12014 -1.52478 0
M  V30 3951 O 386.765 -0.125903 -1.83268 0
M  V30 3952 C 386.827 -3.4636 -0.963075 0
M  V30 3953 C 386.491 -4.56982 0.0401916 0
M  V30 3954 C 387.488 -5.12941 0.847766 0
M  V30 3955 C 385.173 -5.0203 0.164699 0
M  V30 3956 C 387.167 -6.12437 1.76636 0
M  V30 3957 C 384.854 -6.01358 1.0868 0
M  V30 3958 C 385.852 -6.5644 1.88616 0
M  V30 3959 O 385.54 -7.53831 2.79273 0
M  V30 3960 H 385.272 -0.668983 -0.0971452 0
M  V30 3961 H 387.826 -2.02198 0.361248 0
M  V30 3962 H 386.056 -3.44206 -1.76235 0
M  V30 3963 H 387.745 -3.77065 -1.50257 0
M  V30 3964 H 388.511 -4.78974 0.762133 0
M  V30 3965 H 384.39 -4.58824 -0.447411 0
M  V30 3966 H 387.934 -6.55355 2.39071 0
M  V30 3967 H 383.831 -6.34746 1.17338 0
M  V30 3968 H 384.599 -7.71428 2.73572 0
M  V30 3969 N 387.262 0.0317525 -1.57568 0
M  V30 3970 C 388.487 0.738664 -1.938 0
M  V30 3971 C 388.912 1.68242 -0.841208 0
M  V30 3972 O 388.27 1.80157 0.203267 0
M  V30 3973 C 388.318 1.47417 -3.29091 0
M  V30 3974 O 387.422 2.5872 -3.2115 0
M  V30 3975 H 386.763 0.198856 -0.633524 0
M  V30 3976 H 389.293 -0.0119713 -2.04596 0
M  V30 3977 H 389.303 1.84468 -3.63917 0
M  V30 3978 H 387.978 0.781988 -4.08482 0
M  V30 3979 H 386.555 2.24231 -2.97951 0
M  V30 3980 N 388.74 1.54641 0.303973 0
M  V30 3981 C 389.67 1.88386 1.3796 0
M  V30 3982 C 390.651 0.742485 1.5304 0
M  V30 3983 O 391.836 0.997959 1.66597 0
M  V30 3984 C 388.966 2.12854 2.74427 0
M  V30 3985 C 387.92 3.28702 2.74115 0
M  V30 3986 C 387.246 3.38582 4.13844 0
M  V30 3987 C 388.546 4.65881 2.3612 0
M  V30 3988 H 390.24 2.78474 1.09966 0
M  V30 3989 H 387.786 1.33988 0.527556 0
M  V30 3990 H 389.739 2.35047 3.49758 0
M  V30 3991 H 388.463 1.19535 3.03939 0
M  V30 3992 H 387.122 3.06428 2.0124 0
M  V30 3993 H 386.77 2.42784 4.40528 0
M  V30 3994 H 386.47 4.16453 4.14537 0
M  V30 3995 H 387.994 3.63031 4.90959 0
M  V30 3996 H 389.408 4.87823 3.01167 0
M  V30 3997 H 387.805 5.46444 2.48031 0
M  V30 3998 H 388.875 4.66799 1.3125 0
M  V30 3999 N 390.218 -0.567019 1.47046 0
M  V30 4000 C 391.634 -0.891975 1.32348 0
M  V30 4001 C 391.834 -1.99154 0.306616 0
M  V30 4002 O 390.89 -2.50883 -0.28532 0
M  V30 4003 C 392.203 -1.29449 2.7141 0
M  V30 4004 C 393.751 -1.40646 2.79621 0
M  V30 4005 C 394.226 -1.84257 4.19301 0
M  V30 4006 N 395.717 -1.91424 4.21795 0
M  V30 4007 C 396.452 -2.26476 5.26779 0
M  V30 4008 N 395.948 -2.60211 6.42077 0
M  V30 4009 N 397.741 -2.27166 5.14152 0
M  V30 4010 H 389.892 0.159074 2.11803 0
M  V30 4011 H 392.155 0.00849752 0.947962 0
M  V30 4012 H 391.861 -0.560448 3.47206 0
M  V30 4013 H 391.735 -2.25273 3.02542 0
M  V30 4014 H 394.122 -2.13133 2.04104 0
M  V30 4015 H 394.203 -0.430339 2.52154 0
M  V30 4016 H 393.847 -1.12343 4.95319 0
M  V30 4017 H 393.777 -2.82855 4.44185 0
M  V30 4018 H 396.268 -1.6778 3.38612 0
M  V30 4019 H 396.581 -2.85956 7.17948 0
M  V30 4020 H 394.926 -2.57813 6.45413 0
M  V30 4021 H 398.117 -2.00244 4.23107 0
M  V30 4022 H 398.29 -2.54154 5.96079 0
M  V30 4023 N 391.696 -1.35014 -0.812953 0
M  V30 4024 C 392.626 -1.30069 -1.93919 0
M  V30 4025 C 393.607 -0.176275 -1.69184 0
M  V30 4026 O 394.792 -0.370227 -1.90638 0
M  V30 4027 C 391.922 -1.06547 -3.30552 0
M  V30 4028 C 390.876 -2.15561 -3.69753 0
M  V30 4029 C 390.202 -1.77214 -5.04479 0
M  V30 4030 C 391.502 -3.57476 -3.808 0
M  V30 4031 H 393.196 -2.24303 -1.98314 0
M  V30 4032 H 390.742 -1.07977 -0.952736 0
M  V30 4033 H 392.695 -1.01729 -4.08937 0
M  V30 4034 H 391.419 -0.0875719 -3.26483 0
M  V30 4035 H 390.078 -2.19466 -2.9365 0
M  V30 4036 H 389.726 -0.780589 -4.96906 0
M  V30 4037 H 389.426 -2.50184 -5.31678 0
M  V30 4038 H 390.95 -1.7391 -5.8531 0
M  V30 4039 H 392.364 -3.55929 -4.4943 0
M  V30 4040 H 390.761 -4.29152 -4.19462 0
M  V30 4041 H 391.831 -3.94091 -2.82525 0
M  V30 4042 N 393.175 1.03435 -1.18907 0
M  V30 4043 C 394.403 1.80381 -1.01342 0
M  V30 4044 C 394.818 1.83649 0.438005 0
M  V30 4045 O 394.175 1.27655 1.30424 0
M  V30 4046 C 394.226 3.25689 -1.56873 0
M  V30 4047 O 393.947 3.22673 -2.96334 0
M  V30 4048 C 395.448 4.19255 -1.44014 0
M  V30 4049 H 392.668 0.56784 -0.35749 0
M  V30 4050 H 395.212 1.30317 -1.576 0
M  V30 4051 H 393.367 3.72962 -1.04777 0
M  V30 4052 H 393.781 4.13748 -3.22355 0
M  V30 4053 H 395.255 5.19123 -1.87657 0
M  V30 4054 H 395.732 4.37467 -0.389815 0
M  V30 4055 H 396.338 3.77851 -1.95214 0
M  V30 4056 N 394.653 0.992116 1.22453 0
M  V30 4057 C 396.064 0.702776 1.72968 0
M  V30 4058 C 396.415 -0.780399 1.80012 0
M  V30 4059 O 395.54 -1.61007 1.44589 0
M  V30 4060 C 396.135 1.26903 3.14135 0
M  V30 4061 C 394.694 1.02909 3.62059 0
M  V30 4062 C 393.841 1.38969 2.39964 0
M  V30 4063 H 396.792 1.16457 1.07812 0
M  V30 4064 H 396.813 0.647223 3.74955 0
M  V30 4065 H 396.325 2.34851 3.08977 0
M  V30 4066 H 394.426 -0.0337979 3.72585 0
M  V30 4067 H 394.539 1.69191 4.48231 0
M  V30 4068 H 392.903 0.808279 2.41535 0
M  V30 4069 H 393.686 2.4792 2.37467 0
M  V30 4070 N 396.131 -1.37776 0.765217 0
M  V30 4071 C 397.547 -1.53297 0.444108 0
M  V30 4072 C 397.747 -1.72515 -1.04119 0
M  V30 4073 O 396.803 -1.74278 -1.82711 0
M  V30 4074 C 398.116 -2.73328 1.25349 0
M  V30 4075 C 399.664 -2.87185 1.24473 0
M  V30 4076 C 400.139 -4.10191 2.03733 0
M  V30 4077 N 401.63 -4.17291 2.01053 0
M  V30 4078 C 402.365 -5.11488 2.59166 0
M  V30 4079 N 401.861 -6.11285 3.26041 0
M  V30 4080 N 403.654 -5.03924 2.49032 0
M  V30 4081 H 395.805 -1.23552 1.72768 0
M  V30 4082 H 398.068 -0.601103 0.733062 0
M  V30 4083 H 397.774 -2.6557 2.30577 0
M  V30 4084 H 397.648 -3.66834 0.87823 0
M  V30 4085 H 400.035 -2.94418 0.20047 0
M  V30 4086 H 400.116 -1.94657 1.65959 0
M  V30 4087 H 399.76 -4.0372 3.08176 0
M  V30 4088 H 399.69 -5.01821 1.59633 0
M  V30 4089 H 402.181 -3.45825 1.5236 0
M  V30 4090 H 402.494 -6.79678 3.67774 0
M  V30 4091 H 400.839 -6.11583 3.30138 0
M  V30 4092 H 404.03 -4.24902 1.96407 0
M  V30 4093 H 404.203 -5.77152 2.94617 0
M  V30 4094 N 397.609 -0.515225 -1.4894 0
M  V30 4095 C 399.02 -0.0710067 -1.86565 0
M  V30 4096 C 399.371 1.34733 -1.42623 0
M  V30 4097 O 398.496 2.00653 -0.810379 0
M  V30 4098 C 399.091 -0.122083 -3.3858 0
M  V30 4099 C 397.65 0.266863 -3.75453 0
M  V30 4100 C 396.797 -0.488376 -2.72966 0
M  V30 4101 H 399.748 -0.727266 -1.41055 0
M  V30 4102 H 399.769 0.669818 -3.74558 0
M  V30 4103 H 399.281 -1.15448 -3.70531 0
M  V30 4104 H 397.382 1.30196 -3.49113 0
M  V30 4105 H 397.495 -0.0624811 -4.79059 0
M  V30 4106 H 395.859 0.0635622 -2.54621 0
M  V30 4107 H 396.642 -1.52113 -3.07761 0
M  V30 4108 N 399.087 1.5561 -0.249682 0
M  V30 4109 C 400.333 1.99306 0.374841 0
M  V30 4110 C 400.666 1.13767 1.57387 0
M  V30 4111 O 399.941 0.201711 1.93451 0
M  V30 4112 C 400.224 3.51507 0.781986 0
M  V30 4113 C 400.077 4.4781 -0.422629 0
M  V30 4114 C 401.396 4.08884 1.62793 0
M  V30 4115 H 398.515 0.724572 0.134773 0
M  V30 4116 H 401.157 1.86719 -0.351549 0
M  V30 4117 H 399.307 3.62363 1.4009 0
M  V30 4118 H 400.979 4.48931 -1.06108 0
M  V30 4119 H 399.222 4.20518 -1.06524 0
M  V30 4120 H 399.893 5.51919 -0.0943766 0
M  V30 4121 H 402.369 4.01147 1.10547 0
M  V30 4122 H 401.245 5.1564 1.88166 0
M  V30 4123 H 401.506 3.57515 2.60068 0
M  V30 4124 N 400.565 -0.0233959 1.57583 0
M  V30 4125 C 401.79 -0.728376 1.94189 0
M  V30 4126 C 402.215 -1.67793 0.850119 0
M  V30 4127 O 401.573 -1.80262 -0.19371 0
M  V30 4128 C 401.621 -1.45669 3.29868 0
M  V30 4129 O 400.725 -2.57013 3.22518 0
M  V30 4130 H 400.066 -0.195493 0.63457 0
M  V30 4131 H 402.596 0.0228214 2.04587 0
M  V30 4132 H 402.606 -1.82535 3.6489 0
M  V30 4133 H 401.281 -0.760314 4.08891 0
M  V30 4134 H 399.858 -2.22648 2.99136 0
M  V30 4135 N 402.043 -1.548 -0.295768 0
M  V30 4136 C 403.459 -1.4613 -0.641722 0
M  V30 4137 C 403.659 -0.656771 -1.90496 0
M  V30 4138 O 402.715 -0.166547 -2.5195 0
M  V30 4139 C 404.028 -2.90141 -0.789852 0
M  V30 4140 C 405.576 -3.00216 -0.885396 0
M  V30 4141 C 406.051 -4.45434 -1.06548 0
M  V30 4142 N 407.542 -4.49166 -1.13156 0
M  V30 4143 C 408.277 -5.58717 -1.28929 0
M  V30 4144 N 407.773 -6.78182 -1.41567 0
M  V30 4145 N 409.566 -5.46415 -1.31859 0
M  V30 4146 H 401.717 -2.05574 0.534147 0
M  V30 4147 H 403.98 -0.931259 0.177372 0
M  V30 4148 H 403.686 -3.51635 0.0675598 0
M  V30 4149 H 403.56 -3.37859 -1.67724 0
M  V30 4150 H 405.947 -2.38833 -1.73329 0
M  V30 4151 H 406.028 -2.55787 0.0261185 0
M  V30 4152 H 405.672 -5.07413 -0.222335 0
M  V30 4153 H 405.602 -4.87499 -1.9913 0
M  V30 4154 H 408.093 -3.631 -1.04721 0
M  V30 4155 H 408.406 -7.57428 -1.53372 0
M  V30 4156 H 406.751 -6.81037 -1.38613 0
M  V30 4157 H 409.942 -4.5203 -1.21601 0
M  V30 4158 H 410.115 -6.31841 -1.43808 0
M  V30 4159 N 403.521 0.559213 -1.47345 0
M  V30 4160 C 404.768 1.31648 -1.53867 0
M  V30 4161 C 405.096 1.93468 -0.200104 0
M  V30 4162 O 404.351 1.78295 0.806799 0
M  V30 4163 C 404.65 2.44853 -2.6035 0
M  V30 4164 C 404.316 2.00876 -4.03683 0
M  V30 4165 C 402.978 1.88599 -4.42701 0
M  V30 4166 C 405.33 1.67279 -4.93626 0
M  V30 4167 C 402.658 1.41017 -5.69501 0
M  V30 4168 C 405.01 1.21169 -6.20887 0
M  V30 4169 C 403.674 1.07487 -6.58789 0
M  V30 4170 H 402.944 0.481734 -0.56304 0
M  V30 4171 H 405.591 0.627301 -1.80934 0
M  V30 4172 H 403.896 3.19318 -2.27032 0
M  V30 4173 H 405.593 3.03039 -2.62619 0
M  V30 4174 H 402.183 2.11374 -3.72853 0
M  V30 4175 H 406.367 1.75638 -4.64182 0
M  V30 4176 H 401.623 1.29086 -5.97618 0
M  V30 4177 H 405.797 0.942345 -6.89995 0
M  V30 4178 H 403.424 0.703946 -7.56934 0
M  V30 4179 N 404.999 1.35443 0.805782 0
M  V30 4180 C 405.929 1.31095 1.93226 0
M  V30 4181 C 406.91 0.185244 1.69088 0
M  V30 4182 O 408.095 0.380332 1.90439 0
M  V30 4183 C 405.225 1.08299 3.29983 0
M  V30 4184 C 404.179 2.17519 3.68605 0
M  V30 4185 C 403.505 1.79887 5.03532 0
M  V30 4186 C 404.805 3.5949 3.78898 0
M  V30 4187 H 406.499 2.25352 1.97122 0
M  V30 4188 H 404.045 1.0848 0.946996 0
M  V30 4189 H 405.998 1.03897 4.08391 0
M  V30 4190 H 404.722 0.104885 3.26432 0
M  V30 4191 H 403.381 2.2102 2.92482 0
M  V30 4192 H 403.029 0.80693 4.96485 0
M  V30 4193 H 402.729 2.53001 5.30344 0
M  V30 4194 H 404.253 1.77011 5.84379 0
M  V30 4195 H 405.667 3.58307 4.47536 0
M  V30 4196 H 404.064 4.31371 4.1718 0
M  V30 4197 H 405.134 3.95584 2.80431 0
M  V30 4198 N 406.477 -1.02803 1.19454 0
M  V30 4199 C 407.725 -1.75869 0.995722 0
M  V30 4200 C 408.046 -1.89138 -0.474543 0
M  V30 4201 O 407.316 -1.42558 -1.34366 0
M  V30 4202 H 405.896 -0.651511 0.365435 0
M  V30 4203 H 408.558 -1.24004 1.50363 0
M  V30 4204 H 407.654 -2.76661 1.44447 0
M  V30 4205 N 407.956 -0.998596 -1.21925 0
M  V30 4206 C 408.904 -0.546641 -2.26085 0
M  V30 4207 C 409.898 0.405576 -1.64473 0
M  V30 4208 O 411.104 0.277471 -1.77849 0
M  V30 4209 H 407.479 -0.158403 -0.735127 0
M  V30 4210 H 409.45 -1.43645 -2.61551 0
M  V30 4211 C 408.199 0.117388 -3.47502 0
M  V30 4212 H 407.522 -0.606277 -3.95176 0
M  V30 4213 H 408.962 0.396993 -4.22137 0
M  V30 4214 C 407.421 1.35455 -3.0847 0
M  V30 4215 O 407.951 2.44944 -3.18379 0
M  V30 4216 N 406.157 1.23191 -2.63196 0
M  V30 4217 H 405.704 0.341006 -2.55333 0
M  V30 4218 H 405.662 2.06071 -2.37449 0
M  V30 4219 N 409.434 1.37368 -0.772513 0
M  V30 4220 C 410.382 2.32134 -0.147111 0
M  V30 4221 C 411.376 1.54972 0.684106 0
M  V30 4222 O 412.582 1.70363 0.581083 0
M  V30 4223 H 408.957 0.751449 -0.028786 0
M  V30 4224 H 410.928 2.82464 -0.962112 0
M  V30 4225 C 409.677 3.40226 0.71703 0
M  V30 4226 H 409 3.99706 0.0867951 0
M  V30 4227 H 410.44 4.08897 1.12159 0
M  V30 4228 C 408.899 2.80372 1.86797 0
M  V30 4229 O 409.429 2.71183 2.96349 0
M  V30 4230 N 407.635 2.37904 1.66883 0
M  V30 4231 H 407.182 2.45578 0.777759 0
M  V30 4232 H 407.14 1.98202 2.44056 0
M  V30 4233 N 410.912 0.523116 1.48665 0
M  V30 4234 C 412.137 -0.0117284 2.07397 0
M  V30 4235 C 412.562 -1.28031 1.37803 0
M  V30 4236 O 411.92 -1.75836 0.441762 0
M  V30 4237 C 411.968 -0.225786 3.59892 0
M  V30 4238 O 411.072 -1.29592 3.91509 0
M  V30 4239 H 410.413 0.0360673 0.66302 0
M  V30 4240 H 412.943 0.729066 1.9117 0
M  V30 4241 H 412.953 -0.450552 4.05505 0
M  V30 4242 H 411.628 0.700944 4.09951 0
M  V30 4243 H 410.205 -1.05436 3.57684 0
M  V30 4244 N 412.39 -1.55475 0.257931 0
M  V30 4245 C 413.639 -1.98383 -0.364275 0
M  V30 4246 C 413.952 -1.14952 -1.58258 0
M  V30 4247 O 415.158 -1.47924 -2.27664 0
M  V30 4248 C 413.614 -3.53037 -0.699479 0
M  V30 4249 C 413.222 -4.45223 0.498046 0
M  V30 4250 C 414.966 -4.04575 -1.28526 0
M  V30 4251 C 412.873 -5.91238 0.138383 0
M  V30 4252 H 411.803 -0.740911 -0.13988 0
M  V30 4253 H 414.454 -1.79936 0.359883 0
M  V30 4254 H 412.836 -3.6722 -1.48207 0
M  V30 4255 H 414.01 -4.42803 1.27522 0
M  V30 4256 H 412.325 -4.04226 0.999503 0
M  V30 4257 H 414.922 -5.11196 -1.56788 0
M  V30 4258 H 415.265 -3.5258 -2.21344 0
M  V30 4259 H 415.798 -3.93762 -0.565337 0
M  V30 4260 H 412.537 -6.47294 1.03398 0
M  V30 4261 H 412.057 -5.96768 -0.602374 0
M  V30 4262 H 413.736 -6.46413 -0.27553 0
M  V30 4263 N 413.868 0.0150385 -1.57593 0
M  V30 4264 C 414.798 1.01047 -2.10503 0
M  V30 4265 C 415.779 1.36816 -1.01071 0
M  V30 4266 O 416.964 1.45455 -1.28672 0
M  V30 4267 C 414.094 2.30708 -2.59598 0
M  V30 4268 C 413.048 2.09142 -3.73421 0
M  V30 4269 C 412.374 3.44685 -4.08774 0
M  V30 4270 C 413.674 1.46619 -5.01298 0
M  V30 4271 H 415.368 0.569978 -2.93925 0
M  V30 4272 H 412.914 0.272724 -1.41394 0
M  V30 4273 H 414.867 3.00687 -2.95238 0
M  V30 4274 H 413.591 2.76843 -1.73279 0
M  V30 4275 H 412.25 1.41592 -3.38153 0
M  V30 4276 H 411.898 3.88495 -3.195 0
M  V30 4277 H 411.598 3.31077 -4.8545 0
M  V30 4278 H 413.122 4.16004 -4.4696 0
M  V30 4279 H 414.536 2.06535 -5.34805 0
M  V30 4280 H 412.933 1.43544 -5.82679 0
M  V30 4281 H 414.003 0.433611 -4.82957 0
M  V30 4282 N 415.346 1.54954 0.287554 0
M  V30 4283 C 416.576 1.78622 1.03816 0
M  V30 4284 C 416.984 0.552451 1.80955 0
M  V30 4285 O 416.327 -0.487665 1.77109 0
M  V30 4286 C 416.389 2.94975 2.055 0
M  V30 4287 C 416.053 4.32565 1.47433 0
M  V30 4288 C 417.05 5.12096 0.897436 0
M  V30 4289 C 414.735 4.79195 1.50591 0
M  V30 4290 C 416.729 6.36383 0.359851 0
M  V30 4291 C 414.416 6.03441 0.964459 0
M  V30 4292 C 415.414 6.81872 0.392413 0
M  V30 4293 O 415.102 8.03777 -0.140788 0
M  V30 4294 H 414.834 0.599144 0.313053 0
M  V30 4295 H 417.388 2.02761 0.328225 0
M  V30 4296 H 415.618 2.66493 2.80211 0
M  V30 4297 H 417.307 3.06097 2.6657 0
M  V30 4298 H 418.073 4.77209 0.865841 0
M  V30 4299 H 413.952 4.18167 1.94055 0
M  V30 4300 H 417.496 6.97545 -0.0872951 0
M  V30 4301 H 413.393 6.37813 0.993246 0
M  V30 4302 H 414.161 8.18495 -0.0287617 0
M  V30 4303 N 416.824 -0.551391 1.4764 0
M  V30 4304 C 418.07 -1.31024 1.54792 0
M  V30 4305 C 418.403 -1.9304 0.211967 0
M  V30 4306 O 417.678 -1.78175 -0.77999 0
M  V30 4307 C 417.961 -2.41593 2.67029 0
M  V30 4308 C 417.814 -1.84408 4.10261 0
M  V30 4309 C 419.133 -3.43488 2.75143 0
M  V30 4310 H 416.252 -0.475031 0.563485 0
M  V30 4311 H 418.894 -0.616454 1.79722 0
M  V30 4312 H 417.044 -3.00772 2.45904 0
M  V30 4313 H 418.716 -1.29445 4.42766 0
M  V30 4314 H 416.959 -1.15051 4.18265 0
M  V30 4315 H 417.63 -2.64367 4.84576 0
M  V30 4316 H 420.106 -2.94236 2.94218 0
M  V30 4317 H 418.982 -4.18274 3.55441 0
M  V30 4318 H 419.243 -4.02703 1.82435 0
M  V30 4319 N 418.302 -1.35869 -0.798587 0
M  V30 4320 C 419.549 -1.29588 -1.55606 0
M  V30 4321 C 419.877 0.127456 -1.94082 0
M  V30 4322 O 419.132 1.09461 -1.62225 0
M  V30 4323 C 419.431 -2.1556 -2.85077 0
M  V30 4324 C 419.097 -3.6424 -2.65781 0
M  V30 4325 C 417.759 -4.04766 -2.60227 0
M  V30 4326 C 420.111 -4.58547 -2.47758 0
M  V30 4327 C 417.439 -5.37753 -2.34603 0
M  V30 4328 C 419.791 -5.91742 -2.23662 0
M  V30 4329 C 418.455 -6.31402 -2.16534 0
M  V30 4330 H 417.725 -0.474197 -0.569402 0
M  V30 4331 H 420.372 -1.67839 -0.922086 0
M  V30 4332 H 418.677 -1.70216 -3.52893 0
M  V30 4333 H 420.374 -2.08031 -3.42818 0
M  V30 4334 H 416.964 -3.32086 -2.70956 0
M  V30 4335 H 421.148 -4.28117 -2.51056 0
M  V30 4336 H 416.404 -5.67474 -2.2756 0
M  V30 4337 H 420.578 -6.6439 -2.08708 0
M  V30 4338 H 418.205 -7.34381 -1.96441 0
M  V30 4339 N 419.78 1.02168 -1.19998 0
M  V30 4340 C 421.01 1.79036 -1.031 0
M  V30 4341 C 421.418 1.84409 0.423078 0
M  V30 4342 O 420.761 1.29228 1.30559 0
M  V30 4343 C 420.823 3.25185 -1.53281 0
M  V30 4344 C 420.487 3.43431 -3.01503 0
M  V30 4345 C 421.484 3.33063 -3.99206 0
M  V30 4346 C 419.169 3.69412 -3.40353 0
M  V30 4347 C 421.163 3.48413 -5.33748 0
M  V30 4348 C 418.85 3.84406 -4.75053 0
M  V30 4349 C 419.848 3.7391 -5.71559 0
M  V30 4350 O 419.536 3.88452 -7.03818 0
M  V30 4351 H 419.268 0.570043 -0.363355 0
M  V30 4352 H 421.822 1.29524 -1.59414 0
M  V30 4353 H 420.052 3.75756 -0.913483 0
M  V30 4354 H 421.741 3.83671 -1.32481 0
M  V30 4355 H 422.507 3.12934 -3.70537 0
M  V30 4356 H 418.386 3.76671 -2.65782 0
M  V30 4357 H 421.93 3.40137 -6.09059 0
M  V30 4358 H 417.827 4.04035 -5.03415 0
M  V30 4359 H 418.595 4.055 -7.10993 0
M  V30 4360 N 421.258 1.00505 1.21394 0
M  V30 4361 C 422.483 0.706367 1.95001 0
M  V30 4362 C 422.908 -0.72463 1.73582 0
M  V30 4363 O 422.266 -1.49702 1.0227 0
M  V30 4364 C 422.314 1.03299 3.45487 0
M  V30 4365 O 421.418 0.138275 4.12168 0
M  V30 4366 H 420.759 0.263175 0.609619 0
M  V30 4367 H 423.289 1.34531 1.54151 0
M  V30 4368 H 423.299 0.979872 3.96059 0
M  V30 4369 H 421.974 2.07567 3.60401 0
M  V30 4370 H 420.551 0.247928 3.72075 0
M  V30 4371 N 422.737 -1.36956 0.779787 0
M  V30 4372 C 423.985 -1.99097 0.347079 0
M  V30 4373 C 424.306 -1.62206 -1.08232 0
M  V30 4374 O 423.576 -0.891373 -1.74446 0
M  V30 4375 H 422.156 -0.736409 0.125342 0
M  V30 4376 H 424.818 -1.67308 0.999696 0
M  V30 4377 H 423.914 -3.09107 0.431162 0
M  V30 4378 N 424.215 -0.530993 -1.48385 0
M  V30 4379 C 425.163 0.244595 -2.3131 0
M  V30 4380 C 426.157 0.93451 -1.41291 0
M  V30 4381 O 427.363 0.85878 -1.58193 0
M  V30 4382 H 423.738 0.0977472 -0.74562 0
M  V30 4383 H 425.709 -0.474369 -2.94605 0
M  V30 4384 C 424.458 1.2779 -3.23365 0
M  V30 4385 H 423.781 0.756439 -3.92579 0
M  V30 4386 H 425.221 1.79198 -3.84271 0
M  V30 4387 C 423.68 2.31205 -2.45042 0
M  V30 4388 O 424.21 3.37661 -2.17596 0
M  V30 4389 N 422.416 2.04446 -2.0652 0
M  V30 4390 H 421.963 1.17891 -2.2904 0
M  V30 4391 H 421.921 2.73861 -1.54427 0
M  V30 4392 N 425.693 1.55336 -0.266172 0
M  V30 4393 C 426.941 1.99003 0.35246 0
M  V30 4394 C 427.262 1.15591 1.57047 0
M  V30 4395 O 426.532 0.243268 1.94384 0
M  V30 4396 H 425.112 0.735025 0.133217 0
M  V30 4397 H 427.774 1.91367 -0.369434 0
M  V30 4398 H 426.87 3.05289 0.648453 0
M  V30 4399 N 427.171 -0.0066808 1.57599 0
M  V30 4400 C 428.582 -0.550379 1.78403 0
M  V30 4401 C 428.933 -1.74339 0.900014 0
M  V30 4402 O 428.058 -2.16166 0.100713 0
M  V30 4403 C 428.653 -1.00523 3.23544 0
M  V30 4404 C 427.212 -1.49428 3.45468 0
M  V30 4405 C 426.359 -0.442444 2.73748 0
M  V30 4406 H 429.31 0.219508 1.57175 0
M  V30 4407 H 429.331 -1.87157 3.31289 0
M  V30 4408 H 428.843 -0.136735 3.87859 0
M  V30 4409 H 426.944 -2.3839 2.86358 0
M  V30 4410 H 427.057 -1.52635 4.54136 0
M  V30 4411 H 425.421 -0.902578 2.38171 0
M  V30 4412 H 426.204 0.416973 3.40758 0
M  V30 4413 N 428.649 -1.55105 -0.279332 0
M  V30 4414 C 429.596 -1.8755 -1.34513 0
M  V30 4415 C 430.566 -0.726384 -1.49375 0
M  V30 4416 O 431.751 -0.977063 -1.63884 0
M  V30 4417 C 428.891 -2.14738 -2.70151 0
M  V30 4418 C 428.004 -3.42285 -2.63562 0
M  V30 4419 C 427.139 -3.59206 -3.91337 0
M  V30 4420 C 426.178 -4.80467 -3.79233 0
M  V30 4421 N 425.315 -4.94079 -4.98829 0
M  V30 4422 H 430.155 -2.78456 -1.06143 0
M  V30 4423 H 427.692 -1.37867 -0.512936 0
M  V30 4424 H 429.65 -2.28501 -3.49061 0
M  V30 4425 H 428.28 -1.27075 -2.96735 0
M  V30 4426 H 427.332 -3.37029 -1.76397 0
M  V30 4427 H 428.644 -4.31328 -2.50515 0
M  V30 4428 H 427.798 -3.72751 -4.78687 0
M  V30 4429 H 426.537 -2.68337 -4.07243 0
M  V30 4430 H 425.542 -4.66932 -2.90266 0
M  V30 4431 H 426.767 -5.72765 -3.64852 0
M  V30 4432 H 424.713 -4.06139 -5.15158 0
M  V30 4433 H 424.63 -5.77156 -4.8829 0
M  V30 4434 H 425.898 -5.12003 -5.8777 0
M  V30 4435 N 430.127 0.543554 -1.4793 0
M  V30 4436 C 431.09 1.63156 -1.60975 0
M  V30 4437 C 432.09 1.53346 -0.483899 0
M  V30 4438 O 433.28 1.5726 -0.749339 0
M  V30 4439 C 430.412 3.02743 -1.56716 0
M  V30 4440 H 431.605 1.52934 -2.57975 0
M  V30 4441 H 429.158 0.764557 -1.36324 0
M  V30 4442 H 429.893 3.18484 -0.611418 0
M  V30 4443 H 429.678 3.11272 -2.38438 0
M  V30 4444 H 431.168 3.81871 -1.6901 0
M  V30 4445 N 431.605 1.3629 0.791371 0
M  V30 4446 C 432.83 1.33726 1.58531 0
M  V30 4447 C 433.255 -0.0794933 1.87932 0
M  V30 4448 O 432.613 -1.05087 1.47738 0
M  V30 4449 C 432.661 2.16425 2.88431 0
M  V30 4450 O 431.765 1.5554 3.81944 0
M  V30 4451 H 431.106 0.457793 0.480959 0
M  V30 4452 H 433.636 1.79547 0.981031 0
M  V30 4453 H 433.646 2.28933 3.37718 0
M  V30 4454 H 432.321 3.19415 2.66359 0
M  V30 4455 H 430.898 1.51961 3.40532 0
M  V30 4456 N 433.083 -1.0153 1.20538 0
M  V30 4457 C 434.331 -1.74803 1.01432 0
M  V30 4458 C 434.652 -1.8963 -0.454456 0
M  V30 4459 O 433.922 -1.43975 -1.32846 0
M  V30 4460 H 432.502 -0.647598 0.372324 0
M  V30 4461 H 435.164 -1.22402 1.5167 0
M  V30 4462 H 434.26 -2.75114 1.47373 0
M  V30 4463 N 434.561 -1.01147 -1.20859 0
M  V30 4464 C 435.809 -0.696486 -1.89719 0
M  V30 4465 C 436.13 0.775788 -1.78904 0
M  V30 4466 O 435.4 1.55759 -1.18811 0
M  V30 4467 H 433.98 -0.254628 -0.702263 0
M  V30 4468 H 436.642 -1.28197 -1.46804 0
M  V30 4469 H 435.738 -0.975357 -2.96468 0
M  V30 4470 N 436.039 1.36541 -0.78704 0
M  V30 4471 C 437.316 1.9355 -0.282424 0
M  V30 4472 C 437.696 1.71919 1.22503 0
M  V30 4473 O 437.044 1.07677 2.01539 0
M  V30 4474 C 437.254 3.4246 -0.672462 0
M  V30 4475 C 438.602 4.19582 -0.650863 0
M  V30 4476 O 439.626 3.50889 -0.612789 0
M  V30 4477 O 438.485 5.42106 -0.691623 0
M  V30 4478 H 435.579 0.824091 -0.0693 0
M  V30 4479 H 438.125 1.45736 -0.869423 0
M  V30 4480 H 436.897 3.51851 -1.71221 0
M  V30 4481 H 436.52 3.97556 -0.0592211 0
M  V30 4482 N 437.518 0.538854 1.48102 0
M  V30 4483 C 438.748 0.0122958 2.06596 0
M  V30 4484 C 439.156 -1.27861 1.39457 0
M  V30 4485 O 438.499 -1.77348 0.478907 0
M  V30 4486 C 438.561 -0.273131 3.58461 0
M  V30 4487 C 438.225 0.92561 4.47528 0
M  V30 4488 C 439.222 1.82637 4.86765 0
M  V30 4489 C 436.907 1.13511 4.89306 0
M  V30 4490 C 438.901 2.92047 5.66558 0
M  V30 4491 C 436.588 2.23233 5.68868 0
M  V30 4492 C 437.586 3.12333 6.07402 0
M  V30 4493 O 437.274 4.20155 6.85365 0
M  V30 4494 H 437.006 0.0344283 0.675123 0
M  V30 4495 H 439.56 0.746494 1.91355 0
M  V30 4496 H 437.79 -1.06141 3.71848 0
M  V30 4497 H 439.479 -0.742842 3.99045 0
M  V30 4498 H 440.245 1.67649 4.55103 0
M  V30 4499 H 436.124 0.450835 4.5879 0
M  V30 4500 H 439.668 3.6162 5.96554 0
M  V30 4501 H 435.565 2.38201 5.99942 0
M  V30 4502 H 436.333 4.17975 7.03732 0
M  V30 4503 N 438.996 -1.55193 0.274407 0
M  V30 4504 C 440.236 -2.01488 -0.343778 0
M  V30 4505 C 440.6 -1.1586 -1.53103 0
M  V30 4506 O 441.801 -1.51732 -2.2188 0
M  V30 4507 C 440.072 -3.50134 -0.717021 0
M  V30 4508 S 441.631 -4.18417 -1.32184 0
M  V30 4509 H 438.449 -0.70291 -0.106948 0
M  V30 4510 H 441.051 -1.91446 0.396075 0
M  V30 4511 H 439.755 -4.10104 0.155947 0
M  V30 4512 H 439.286 -3.64159 -1.48835 0
M  V30 4513 H 441.301 -4.21984 -2.61044 0
M  V30 4514 N 440.474 -0.00167713 -1.576 0
M  V30 4515 C 441.723 0.682021 -1.89819 0
M  V30 4516 C 442.036 1.74844 -0.876871 0
M  V30 4517 O 443.242 2.48688 -1.08934 0
M  V30 4518 C 441.698 1.26425 -3.36964 0
M  V30 4519 C 441.306 0.232568 -4.47396 0
M  V30 4520 C 443.05 1.92604 -3.78291 0
M  V30 4521 C 440.957 0.824882 -5.85619 0
M  V30 4522 H 439.887 0.258499 -0.708304 0
M  V30 4523 H 442.538 -0.0624957 -1.83394 0
M  V30 4524 H 440.92 2.05949 -3.38232 0
M  V30 4525 H 442.094 -0.5382 -4.57646 0
M  V30 4526 H 440.409 -0.32888 -4.15099 0
M  V30 4527 H 443.006 2.37827 -4.78897 0
M  V30 4528 H 443.349 2.75732 -3.11894 0
M  V30 4529 H 443.882 1.19812 -3.79328 0
M  V30 4530 H 440.621 0.0323542 -6.55492 0
M  V30 4531 H 440.141 1.56477 -5.79029 0
M  V30 4532 H 441.82 1.32301 -6.33329 0
M  V30 4533 N 441.952 1.55251 0.271103 0
M  V30 4534 C 442.884 1.84675 1.35749 0
M  V30 4535 C 443.897 0.731366 1.45447 0
M  V30 4536 O 445.086 1.00924 1.4723 0
M  V30 4537 C 442.186 1.99638 2.73857 0
M  V30 4538 C 441.359 3.30312 2.86727 0
M  V30 4539 C 440.418 3.35318 4.05522 0
M  V30 4540 O 439.444 4.08682 3.96191 0
M  V30 4541 N 440.646 2.62857 5.17577 0
M  V30 4542 H 443.411 2.78445 1.10853 0
M  V30 4543 H 440.972 1.55191 0.461218 0
M  V30 4544 H 442.964 2.00355 3.51625 0
M  V30 4545 H 441.534 1.12725 2.91568 0
M  V30 4546 H 440.754 3.42118 1.95829 0
M  V30 4547 H 442.042 4.16488 2.92258 0
M  V30 4548 H 441.44 2.02939 5.28046 0
M  V30 4549 H 439.997 2.69295 5.93568 0
M  V30 4550 N 443.43 -0.535701 1.48216 0
M  V30 4551 C 444.655 -1.32149 1.59848 0
M  V30 4552 C 445.08 -1.86338 0.256842 0
M  V30 4553 O 444.438 -1.64107 -0.770632 0
M  V30 4554 C 444.486 -2.45224 2.64381 0
M  V30 4555 O 443.59 -3.48093 2.21144 0
M  V30 4556 H 442.931 -0.391634 0.536208 0
M  V30 4557 H 445.461 -0.645202 1.94161 0
M  V30 4558 H 445.471 -2.91491 2.85476 0
M  V30 4559 H 444.146 -2.05143 3.61786 0
M  V30 4560 H 442.723 -3.07984 2.10239 0
M  V30 4561 N 444.908 -1.36708 -0.784132 0
M  V30 4562 C 445.856 -1.31533 -1.91838 0
M  V30 4563 C 446.85 -0.206205 -1.6814 0
M  V30 4564 O 448.056 -0.373519 -1.76082 0
M  V30 4565 H 444.431 -0.409613 -0.630651 0
M  V30 4566 H 446.402 -2.2731 -1.9332 0
M  V30 4567 C 445.151 -1.12679 -3.28936 0
M  V30 4568 H 444.474 -1.97274 -3.4774 0
M  V30 4569 H 445.914 -1.13106 -4.08636 0
M  V30 4570 C 444.373 0.168281 -3.36479 0
M  V30 4571 O 444.903 1.15625 -3.84699 0
M  V30 4572 N 443.109 0.214762 -2.89805 0
M  V30 4573 H 442.656 -0.589852 -2.50756 0
M  V30 4574 H 442.614 1.08094 -2.95234 0
M  V30 4575 N 446.386 1.0089 -1.21074 0
M  V30 4576 C 447.635 1.74019 -1.01981 0
M  V30 4577 C 447.948 1.90408 0.447665 0
M  V30 4578 O 449.154 2.60707 0.757906 0
M  V30 4579 C 447.61 3.13026 -1.77603 0
M  V30 4580 C 447.218 3.04623 -3.28495 0
M  V30 4581 C 448.962 3.90312 -1.66904 0
M  V30 4582 C 446.869 4.38685 -3.96623 0
M  V30 4583 H 445.799 0.652422 -0.377971 0
M  V30 4584 H 448.45 1.12755 -1.44771 0
M  V30 4585 H 446.832 3.74878 -1.27604 0
M  V30 4586 H 448.006 2.52032 -3.85767 0
M  V30 4587 H 446.321 2.40827 -3.39693 0
M  V30 4588 H 448.918 4.8951 -2.15138 0
M  V30 4589 H 449.261 4.11558 -0.62658 0
M  V30 4590 H 449.794 3.35104 -2.14359 0
M  V30 4591 H 446.533 4.22641 -5.01054 0
M  V30 4592 H 446.053 4.91252 -3.4414 0
M  V30 4593 H 447.732 5.075 -4.01314 0
M  V30 4594 N 447.864 1.01787 1.20321 0
M  V30 4595 C 449.11 0.708985 1.90003 0
M  V30 4596 C 449.443 -0.759572 1.78729 0
M  V30 4597 O 448.718 -1.55198 1.17234 0
M  V30 4598 C 449.001 1.1469 3.41348 0
M  V30 4599 C 448.854 2.67586 3.61549 0
M  V30 4600 C 450.173 0.71915 4.34185 0
M  V30 4601 H 447.292 0.259034 0.689978 0
M  V30 4602 H 449.934 1.26584 1.41692 0
M  V30 4603 H 448.084 0.673128 3.82624 0
M  V30 4604 H 449.756 3.22826 3.29517 0
M  V30 4605 H 447.999 3.085 3.04976 0
M  V30 4606 H 448.67 2.93281 4.67643 0
M  V30 4607 H 451.146 1.12647 4.00562 0
M  V30 4608 H 450.022 1.05358 5.38694 0
M  V30 4609 H 450.283 -0.379111 4.40472 0
M  V30 4610 N 449.342 -1.36122 0.79427 0
M  V30 4611 C 450.589 -1.99111 0.368905 0
M  V30 4612 C 450.917 -1.63032 -1.0607 0
M  V30 4613 O 450.172 -0.879303 -1.74833 0
M  V30 4614 C 450.471 -3.5409 0.48527 0
M  V30 4615 C 450.137 -4.10003 1.87638 0
M  V30 4616 C 448.799 -4.24986 2.257 0
M  V30 4617 C 451.151 -4.40423 2.78706 0
M  V30 4618 C 448.479 -4.67701 3.54221 0
M  V30 4619 C 450.831 -4.84573 4.0666 0
M  V30 4620 C 449.495 -4.97761 4.44737 0
M  V30 4621 H 448.765 -0.7286 0.134992 0
M  V30 4622 H 451.412 -1.62534 1.01267 0
M  V30 4623 H 449.717 -3.91052 -0.241984 0
M  V30 4624 H 451.414 -4.00766 0.137109 0
M  V30 4625 H 448.004 -3.98784 1.57064 0
M  V30 4626 H 452.188 -4.28412 2.50553 0
M  V30 4627 H 447.444 -4.761 3.83587 0
M  V30 4628 H 451.618 -5.07074 4.77336 0
M  V30 4629 H 449.245 -5.30618 5.44379 0
M  V30 4630 N 450.82 -0.546701 -1.47814 0
M  V30 4631 C 452.045 -0.021268 -2.07389 0
M  V30 4632 C 452.47 1.25822 -1.39822 0
M  V30 4633 O 451.828 1.75111 -0.46968 0
M  V30 4634 C 451.876 0.168502 -3.60206 0
M  V30 4635 O 450.98 1.23347 -3.93522 0
M  V30 4636 H 450.321 -0.0466108 -0.662362 0
M  V30 4637 H 452.851 -0.759387 -1.89985 0
M  V30 4638 H 452.861 0.385982 -4.0617 0
M  V30 4639 H 451.536 -0.766075 -4.08784 0
M  V30 4640 H 450.113 0.997319 -3.59316 0
M  V30 4641 N 452.299 1.55045 -0.282633 0
M  V30 4642 C 453.576 1.9179 0.384166 0
M  V30 4643 C 453.956 1.20778 1.73136 0
M  V30 4644 O 453.304 0.33719 2.25998 0
M  V30 4645 C 453.514 3.45149 0.517014 0
M  V30 4646 C 454.862 4.17064 0.796427 0
M  V30 4647 O 455.886 3.51084 0.601535 0
M  V30 4648 O 454.745 5.33837 1.16962 0
M  V30 4649 H 451.839 0.799483 0.211558 0
M  V30 4650 H 454.385 1.66474 -0.32934 0
M  V30 4651 H 453.157 3.88922 -0.430772 0
M  V30 4652 H 452.78 3.76443 1.2797 0
M  V30 4653 N 453.777 0.010035 1.57597 0
M  V30 4654 C 454.687 -0.994226 2.12491 0
M  V30 4655 C 455.703 -1.37013 1.07254 0
M  V30 4656 O 456.879 -1.45542 1.3921 0
M  V30 4657 C 453.944 -2.2642 2.62555 0
M  V30 4658 C 453.005 -1.95049 3.82432 0
M  V30 4659 C 452.238 -3.15991 4.30099 0
M  V30 4660 O 452.461 -4.28015 3.7704 0
M  V30 4661 O 451.395 -2.99403 5.22151 0
M  V30 4662 H 455.221 -0.557549 2.98538 0
M  V30 4663 H 452.806 -0.209413 1.47925 0
M  V30 4664 H 454.688 -3.01009 2.9491 0
M  V30 4665 H 453.363 -2.69306 1.796 0
M  V30 4666 H 452.27 -1.17904 3.55034 0
M  V30 4667 H 453.603 -1.56992 4.66491 0
M  V30 4668 N 455.255 -1.55392 -0.262866 0
M  V30 4669 C 456.504 -1.75679 -0.990943 0
M  V30 4670 C 456.817 -0.57097 -1.87081 0
M  V30 4671 O 458.023 -0.656486 -2.63444 0
M  V30 4672 C 456.479 -3.10964 -1.81188 0
M  V30 4673 C 456.087 -4.37146 -0.980188 0
M  V30 4674 C 457.831 -3.40597 -2.53365 0
M  V30 4675 C 455.738 -5.63466 -1.7961 0
M  V30 4676 H 454.668 -0.654868 -0.373716 0
M  V30 4677 H 457.319 -1.81841 -0.246203 0
M  V30 4678 H 455.701 -2.98867 -2.59797 0
M  V30 4679 H 456.875 -4.60187 -0.237558 0
M  V30 4680 H 455.19 -4.14731 -0.372497 0
M  V30 4681 H 457.787 -4.32186 -3.14833 0
M  V30 4682 H 458.13 -2.6119 -3.24169 0
M  V30 4683 H 458.663 -3.53838 -1.81779 0
M  V30 4684 H 455.402 -6.4565 -1.13209 0
M  V30 4685 H 454.922 -5.44552 -2.51443 0
M  V30 4686 H 456.601 -6.02139 -2.36723 0
M  V30 4687 N 456.733 0.527833 -1.48498 0
M  V30 4688 C 458.144 1.10975 -1.50138 0
M  V30 4689 C 458.495 1.943 -0.272378 0
M  V30 4690 O 457.62 2.07319 0.620301 0
M  V30 4691 C 458.215 2.01927 -2.72049 0
M  V30 4692 C 456.774 2.55332 -2.76554 0
M  V30 4693 C 455.921 1.32341 -2.43683 0
M  V30 4694 H 458.872 0.312986 -1.55583 0
M  V30 4695 H 458.893 2.86244 -2.50689 0
M  V30 4696 H 458.405 1.41254 -3.61481 0
M  V30 4697 H 456.506 3.19721 -1.91336 0
M  V30 4698 H 456.619 2.94319 -3.78038 0
M  V30 4699 H 454.983 1.63989 -1.94884 0
M  V30 4700 H 455.766 0.734165 -3.35358 0
M  V30 4701 N 458.211 1.37122 0.776871 0
M  V30 4702 C 459.174 1.32301 1.8716 0
M  V30 4703 C 460.174 0.228099 1.59174 0
M  V30 4704 O 461.364 0.483642 1.67352 0
M  V30 4705 C 458.496 1.054 3.24197 0
M  V30 4706 H 459.689 2.29673 1.92848 0
M  V30 4707 H 457.242 1.22077 0.97606 0
M  V30 4708 H 457.977 0.0853872 3.24188 0
M  V30 4709 H 457.762 1.84648 3.45901 0
M  V30 4710 H 459.252 1.04664 4.04271 0
M  V30 4711 N 459.689 -1.00246 1.21608 0
M  V30 4712 C 460.914 -1.78167 1.06167 0
M  V30 4713 C 461.339 -1.84138 -0.384035 0
M  V30 4714 O 460.697 -1.28683 -1.27712 0
M  V30 4715 C 460.745 -3.19786 1.66642 0
M  V30 4716 O 459.849 -4.02153 0.913613 0
M  V30 4717 H 459.19 -0.549 0.37349 0
M  V30 4718 H 461.72 -1.25994 1.61204 0
M  V30 4719 H 461.73 -3.70451 1.70969 0
M  V30 4720 H 460.405 -3.14754 2.7185 0
M  V30 4721 H 458.982 -3.60711 0.945635 0
M  V30 4722 N 461.167 -1.02423 -1.1978 0
M  V30 4723 C 462.099 -0.559152 -2.22275 0
M  V30 4724 C 463.112 0.36251 -1.58713 0
M  V30 4725 O 464.301 0.159641 -1.77785 0
M  V30 4726 C 461.401 0.205094 -3.38279 0
M  V30 4727 C 460.574 -0.720361 -4.31427 0
M  V30 4728 C 459.633 -0.00234368 -5.262 0
M  V30 4729 O 458.659 -0.627378 -5.65732 0
M  V30 4730 N 459.861 1.26996 -5.66438 0
M  V30 4731 H 462.626 -1.44064 -2.62804 0
M  V30 4732 H 460.187 -0.902692 -1.34399 0
M  V30 4733 H 462.179 0.694868 -3.9869 0
M  V30 4734 H 460.749 0.987947 -2.96578 0
M  V30 4735 H 459.969 -1.39031 -3.68869 0
M  V30 4736 H 461.257 -1.3495 -4.90577 0
M  V30 4737 H 460.655 1.79858 -5.36347 0
M  V30 4738 H 459.212 1.70432 -6.29123 0
M  V30 4739 N 462.645 1.35699 -0.801477 0
M  V30 4740 C 463.922 1.9324 -0.302937 0
M  V30 4741 C 464.302 1.73209 1.20672 0
M  V30 4742 O 463.65 1.09809 2.00385 0
M  V30 4743 C 463.86 3.41728 -0.708747 0
M  V30 4744 C 465.208 4.18868 -0.695328 0
M  V30 4745 O 466.232 3.5022 -0.649971 0
M  V30 4746 O 465.091 5.41342 -0.749081 0
M  V30 4747 H 462.185 0.82331 -0.0780367 0
M  V30 4748 H 464.731 1.44806 -0.884832 0
M  V30 4749 H 463.503 3.50015 -1.74944 0
M  V30 4750 H 463.126 3.97471 -0.101384 0
M  V30 4751 N 464.123 0.554532 1.47522 0
M  V30 4752 C 465.056 -0.242442 2.26908 0
M  V30 4753 C 466.034 -0.922722 1.33883 0
M  V30 4754 O 467.218 -0.942244 1.63261 0
M  V30 4755 C 464.345 -1.34525 3.10839 0
M  V30 4756 C 463.391 -0.773805 4.19422 0
M  V30 4757 S 464.224 0.377525 5.34168 0
M  V30 4758 C 465.38 -0.727164 6.21662 0
M  V30 4759 H 465.613 0.431218 2.94156 0
M  V30 4760 H 463.146 0.3408 1.50592 0
M  V30 4761 H 465.104 -1.97683 3.59766 0
M  V30 4762 H 463.765 -1.99073 2.42958 0
M  V30 4763 H 462.958 -1.60187 4.77866 0
M  V30 4764 H 462.56 -0.218448 3.73361 0
M  V30 4765 H 464.852 -1.61992 6.57849 0
M  V30 4766 H 465.795 -0.180135 7.07871 0
M  V30 4767 H 466.203 -1.01863 5.55233 0
M  V30 4768 N 465.601 -1.54893 0.290851 0
M  V30 4769 C 467.012 -1.85584 -0.203816 0
M  V30 4770 C 467.363 -1.21285 -1.54222 0
M  V30 4771 O 466.488 -0.506841 -2.10381 0
M  V30 4772 C 467.083 -3.367 -0.376595 0
M  V30 4773 C 465.642 -3.6746 -0.815485 0
M  V30 4774 C 464.789 -2.77178 0.0821087 0
M  V30 4775 H 467.74 -1.50208 0.512175 0
M  V30 4776 H 467.761 -3.60656 -1.21275 0
M  V30 4777 H 467.273 -3.8347 0.59767 0
M  V30 4778 H 465.374 -3.26201 -1.80066 0
M  V30 4779 H 465.487 -4.7478 -0.641905 0
M  V30 4780 H 463.851 -2.50925 -0.436895 0
M  V30 4781 H 464.634 -3.26767 1.05254 0
M  V30 4782 N 467.08 -0.0183926 -1.57589 0
M  V30 4783 C 468.308 0.673046 -1.95647 0
M  V30 4784 C 468.723 1.66275 -0.894312 0
M  V30 4785 O 468.08 1.82072 0.124975 0
M  V30 4786 C 468.131 1.38884 -3.33756 0
M  V30 4787 O 467.852 0.438806 -4.35897 0
M  V30 4788 C 469.353 2.1731 -3.86383 0
M  V30 4789 H 466.573 0.186292 -0.644621 0
M  V30 4790 H 469.117 -0.0749748 -2.04363 0
M  V30 4791 H 467.272 2.08835 -3.26293 0
M  V30 4792 H 467.686 0.945869 -5.15901 0
M  V30 4793 H 469.16 2.62863 -4.85394 0
M  V30 4794 H 469.637 3.00764 -3.20059 0
M  V30 4795 H 470.243 1.52339 -3.97081 0
M  V30 4796 N 468.558 1.5553 0.254621 0
M  V30 4797 C 469.506 1.9048 1.33492 0
M  V30 4798 C 470.5 0.78304 1.50216 0
M  V30 4799 O 471.706 0.967582 1.51782 0
M  V30 4800 H 468.081 0.604846 0.44684 0
M  V30 4801 H 470.052 2.80688 1.01275 0
M  V30 4802 C 468.801 2.20928 2.68489 0
M  V30 4803 H 468.124 3.06742 2.56417 0
M  V30 4804 H 469.564 2.49291 3.42972 0
M  V30 4805 C 468.023 1.023 3.20993 0
M  V30 4806 O 468.553 0.267027 4.00811 0
M  V30 4807 N 466.759 0.815714 2.78917 0
M  V30 4808 H 466.306 1.43217 2.14119 0
M  V30 4809 H 466.264 0.0236532 3.14391 0
M  V30 4810 N 470.036 -0.519951 1.48776 0
M  V30 4811 C 471.264 -1.29971 1.60982 0
M  V30 4812 C 471.679 -1.86803 0.273885 0
M  V30 4813 O 471.036 -1.66904 -0.738193 0
M  V30 4814 C 471.087 -2.44346 2.66415 0
M  V30 4815 O 470.808 -1.89855 3.94825 0
M  V30 4816 C 472.309 -3.36014 2.89153 0
M  V30 4817 H 469.529 -0.394891 0.542496 0
M  V30 4818 H 472.073 -0.626214 1.94676 0
M  V30 4819 H 470.228 -3.07562 2.35552 0
M  V30 4820 H 470.642 -2.64798 4.5275 0
M  V30 4821 H 472.116 -4.12593 3.66703 0
M  V30 4822 H 472.593 -3.91859 1.98351 0
M  V30 4823 H 473.199 -2.78582 3.21359 0
M  V30 4824 N 471.514 -1.37532 -0.769588 0
M  V30 4825 C 472.742 -1.36059 -1.55871 0
M  V30 4826 C 473.157 0.053544 -1.88724 0
M  V30 4827 O 472.514 1.01591 -1.5161 0
M  V30 4828 C 472.565 -2.20107 -2.86767 0
M  V30 4829 O 472.286 -3.56009 -2.55321 0
M  V30 4830 C 473.787 -2.26636 -3.80987 0
M  V30 4831 H 471.007 -0.465967 -0.482821 0
M  V30 4832 H 473.551 -1.80901 -0.953686 0
M  V30 4833 H 471.706 -1.78768 -3.43687 0
M  V30 4834 H 472.12 -4.0009 -3.39158 0
M  V30 4835 H 473.594 -2.89763 -4.69831 0
M  V30 4836 H 474.071 -1.2754 -4.20274 0
M  V30 4837 H 474.677 -2.68296 -3.29996 0
M  V30 4838 N 472.992 0.995999 -1.22138 0
M  V30 4839 C 474.269 1.70834 -0.952642 0
M  V30 4840 C 474.649 2.04257 0.533119 0
M  V30 4841 O 473.997 1.72343 1.50034 0
M  V30 4842 C 474.207 2.96119 -1.84701 0
M  V30 4843 C 475.555 3.68962 -2.10124 0
M  V30 4844 O 476.579 3.0612 -1.82124 0
M  V30 4845 O 475.438 4.82017 -2.57531 0
M  V30 4846 H 472.532 0.745498 -0.357997 0
M  V30 4847 H 475.078 1.05262 -1.33109 0
M  V30 4848 H 473.85 2.67898 -2.85213 0
M  V30 4849 H 473.473 3.6943 -1.46995 0
M  V30 4850 N 474.47 1.03057 1.19235 0
M  V30 4851 C 475.719 0.72326 1.88287 0
M  V30 4852 C 476.032 -0.751333 1.80594 0
M  V30 4853 O 477.238 -1.17176 2.44912 0
M  V30 4854 C 475.694 1.24338 3.3774 0
M  V30 4855 C 475.302 2.74587 3.53986 0
M  V30 4856 C 477.046 1.01213 4.12257 0
M  V30 4857 C 474.953 3.20009 4.97341 0
M  V30 4858 H 473.883 0.266848 0.705201 0
M  V30 4859 H 476.534 1.24509 1.34795 0
M  V30 4860 H 474.916 0.649457 3.90638 0
M  V30 4861 H 476.09 3.39649 3.11408 0
M  V30 4862 H 474.405 2.9601 2.9286 0
M  V30 4863 H 477.002 1.32675 5.17978 0
M  V30 4864 H 477.345 -0.051001 4.16269 0
M  V30 4865 H 477.878 1.57014 3.65501 0
M  V30 4866 H 474.617 4.25659 4.98493 0
M  V30 4867 H 474.137 2.59676 5.40674 0
M  V30 4868 H 475.816 3.13447 5.66003 0
M  V30 4869 N 475.948 -1.35272 0.808662 0
M  V30 4870 C 477.176 -2.02946 0.402537 0
M  V30 4871 C 477.591 -1.60937 -0.987147 0
M  V30 4872 O 476.948 -0.807917 -1.63643 0
M  V30 4873 C 476.999 -3.58317 0.47868 0
M  V30 4874 O 476.72 -3.98799 1.81358 0
M  V30 4875 C 478.221 -4.43251 0.0656281 0
M  V30 4876 H 475.441 -0.650831 0.163279 0
M  V30 4877 H 477.985 -1.72849 1.09286 0
M  V30 4878 H 476.14 -3.87055 -0.163415 0
M  V30 4879 H 476.554 -4.93451 1.77781 0
M  V30 4880 H 478.028 -5.51738 0.170017 0
M  V30 4881 H 478.505 -4.27913 -0.989278 0
M  V30 4882 H 479.111 -4.19813 0.68096 0
M  V30 4883 N 477.426 -0.562348 -1.47226 0
M  V30 4884 C 478.656 -0.0451619 -2.06551 0
M  V30 4885 C 479.064 1.25626 -1.41473 0
M  V30 4886 O 478.407 1.76563 -0.507061 0
M  V30 4887 C 478.469 0.216068 -3.5885 0
M  V30 4888 C 478.133 -0.996691 -4.45999 0
M  V30 4889 C 479.13 -1.90358 -4.83797 0
M  V30 4890 C 476.815 -1.21281 -4.87438 0
M  V30 4891 C 478.809 -3.01023 -5.6184 0
M  V30 4892 C 476.496 -2.32255 -5.65244 0
M  V30 4893 C 477.494 -3.21956 -6.02356 0
M  V30 4894 O 477.182 -4.31005 -6.78594 0
M  V30 4895 H 476.914 -0.0451646 -0.67449 0
M  V30 4896 H 479.468 -0.776842 -1.90143 0
M  V30 4897 H 477.698 1.00212 -3.7349 0
M  V30 4898 H 479.387 0.679264 -4.00176 0
M  V30 4899 H 480.153 -1.74868 -4.52378 0
M  V30 4900 H 476.032 -0.523767 -4.58015 0
M  V30 4901 H 479.576 -3.71064 -5.90726 0
M  V30 4902 H 475.473 -2.47715 -5.96077 0
M  V30 4903 H 476.241 -4.29118 -6.96994 0
M  V30 4904 N 478.904 1.54736 -0.299062 0
M  V30 4905 C 480.15 2.00397 0.311244 0
M  V30 4906 C 480.483 1.18716 1.53688 0
M  V30 4907 O 479.758 0.263154 1.92712 0
M  V30 4908 C 480.041 3.53817 0.669761 0
M  V30 4909 C 479.894 4.46239 -0.564882 0
M  V30 4910 C 481.213 4.13856 1.49702 0
M  V30 4911 H 478.332 0.728493 0.111653 0
M  V30 4912 H 480.974 1.85506 -0.410774 0
M  V30 4913 H 479.124 3.66637 1.28491 0
M  V30 4914 H 480.796 4.45328 -1.20337 0
M  V30 4915 H 479.039 4.16916 -1.19849 0
M  V30 4916 H 479.71 5.5134 -0.269918 0
M  V30 4917 H 482.186 4.04461 0.977284 0
M  V30 4918 H 481.062 5.21365 1.71666 0
M  V30 4919 H 481.323 3.65608 2.48563 0
M  V30 4920 N 480.382 0.0267497 1.57577 0
M  V30 4921 C 481.63 -0.651116 1.91324 0
M  V30 4922 C 481.951 -1.72804 0.90353 0
M  V30 4923 O 481.221 -1.95822 -0.0552946 0
M  V30 4924 H 479.801 -0.243491 0.706202 0
M  V30 4925 H 482.463 0.0739935 1.94759 0
M  V30 4926 H 481.559 -1.10536 2.9187 0
M  V30 4927 N 481.861 -1.55662 -0.24637 0
M  V30 4928 C 483.138 -1.68272 -0.997198 0
M  V30 4929 C 483.518 -0.566785 -2.03349 0
M  V30 4930 O 482.866 0.429688 -2.24424 0
M  V30 4931 C 483.076 -3.08594 -1.63006 0
M  V30 4932 C 484.424 -3.6721 -2.13171 0
M  V30 4933 O 485.448 -3.11397 -1.72946 0
M  V30 4934 O 484.307 -4.65054 -2.87031 0
M  V30 4935 H 481.401 -0.684429 -0.464205 0
M  V30 4936 H 483.947 -1.67993 -0.240114 0
M  V30 4937 H 482.719 -3.81264 -0.880527 0
M  V30 4938 H 482.342 -3.12886 -2.45333 0
M  V30 4939 N 483.339 0.512053 -1.4905 0
M  V30 4940 C 484.287 1.63568 -1.65373 0
M  V30 4941 C 485.281 1.61228 -0.519806 0
M  V30 4942 O 486.487 1.65869 -0.699101 0
M  V30 4943 H 482.862 0.542019 -0.521267 0
M  V30 4944 H 484.833 1.4695 -2.59708 0
M  V30 4945 C 483.582 3.01761 -1.7273 0
M  V30 4946 H 482.905 3.04263 -2.59353 0
M  V30 4947 H 484.345 3.79948 -1.8819 0
M  V30 4948 C 482.804 3.33609 -0.46973 0
M  V30 4949 O 483.334 3.99607 0.409492 0
M  V30 4950 N 481.54 2.88651 -0.336003 0
M  V30 4951 H 481.087 2.35119 -1.05247 0
M  V30 4952 H 481.045 3.10328 0.504363 0
M  V30 4953 N 484.817 1.37938 0.762283 0
M  V30 4954 C 485.78 1.34279 1.85747 0
M  V30 4955 C 486.78 0.244969 1.58923 0
M  V30 4956 O 487.97 0.501365 1.66829 0
M  V30 4957 C 485.102 1.08833 3.23061 0
M  V30 4958 H 486.295 2.31705 1.90401 0
M  V30 4959 H 483.848 1.23105 0.963057 0
M  V30 4960 H 484.583 0.119767 3.24079 0
M  V30 4961 H 484.368 1.88306 3.43923 0
M  V30 4962 H 485.858 1.08946 4.03138 0
M  V30 4963 N 486.295 -0.989507 1.22664 0
M  V30 4964 C 487.523 -1.76496 1.07967 0
M  V30 4965 C 487.938 -1.85148 -0.369543 0
M  V30 4966 O 487.295 -1.32408 -1.25596 0
M  V30 4967 C 487.346 -3.19642 1.68853 0
M  V30 4968 O 487.067 -3.11453 3.08105 0
M  V30 4969 C 488.568 -4.13621 1.59475 0
M  V30 4970 H 485.788 -0.55418 0.378319 0
M  V30 4971 H 488.332 -1.24378 1.62328 0
M  V30 4972 H 486.487 -3.68816 1.18547 0
M  V30 4973 H 486.901 -4.01499 3.37489 0
M  V30 4974 H 488.375 -5.11801 2.06795 0
M  V30 4975 H 488.852 -4.35718 0.55191 0
M  V30 4976 H 489.458 -3.70346 2.09103 0
M  V30 4977 N 487.773 -1.03688 -1.18687 0
M  V30 4978 C 489.003 -0.756819 -1.92239 0
M  V30 4979 C 489.411 0.689374 -1.76194 0
M  V30 4980 O 488.754 1.48126 -1.08648 0
M  V30 4981 C 488.816 -1.03851 -3.44173 0
M  V30 4982 C 488.48 -2.47785 -3.83994 0
M  V30 4983 C 489.477 -3.4595 -3.88091 0
M  V30 4984 C 487.162 -2.82397 -4.154 0
M  V30 4985 C 489.156 -4.76779 -4.23038 0
M  V30 4986 C 486.843 -4.13433 -4.50018 0
M  V30 4987 C 487.841 -5.10434 -4.53813 0
M  V30 4988 O 487.529 -6.39122 -4.87625 0
M  V30 4989 H 487.261 -0.275678 -0.617234 0
M  V30 4990 H 489.815 -1.38658 -1.51536 0
M  V30 4991 H 488.045 -0.351612 -3.85098 0
M  V30 4992 H 489.734 -0.746846 -3.9897 0
M  V30 4993 H 490.5 -3.20549 -3.63969 0
M  V30 4994 H 486.379 -2.07568 -4.11627 0
M  V30 4995 H 489.923 -5.52488 -4.25914 0
M  V30 4996 H 485.82 -4.38604 -4.736 0
M  V30 4997 H 486.588 -6.43715 -5.05542 0
M  V30 4998 N 489.251 1.34841 -0.815825 0
M  V30 4999 C 490.476 2.03261 -0.41226 0
M  V30 5000 C 490.901 1.61055 0.971751 0
M  V30 5001 O 490.259 0.7917 1.63101 0
M  V30 5002 C 490.307 3.56914 -0.514289 0
M  V30 5003 O 489.411 4.09728 0.468675 0
M  V30 5004 H 488.752 0.641664 -0.170771 0
M  V30 5005 H 491.282 1.72241 -1.10427 0
M  V30 5006 H 491.292 4.06156 -0.387457 0
M  V30 5007 H 489.967 3.86982 -1.52375 0
M  V30 5008 H 488.544 3.71681 0.301316 0
M  V30 5009 N 490.729 0.570148 1.46925 0
M  V30 5010 C 491.975 0.0510284 2.02736 0
M  V30 5011 C 492.308 -1.3006 1.44215 0
M  V30 5012 O 491.583 -1.84932 0.602521 0
M  V30 5013 C 491.866 -0.028215 3.60089 0
M  V30 5014 C 491.719 1.35142 4.29018 0
M  V30 5015 C 493.038 -0.735181 4.33916 0
M  V30 5016 H 490.157 0.0200178 0.736728 0
M  V30 5017 H 492.799 0.73493 1.75211 0
M  V30 5018 H 490.949 -0.610648 3.83671 0
M  V30 5019 H 492.621 1.97806 4.16738 0
M  V30 5020 H 490.864 1.9226 3.88868 0
M  V30 5021 H 491.535 1.24857 5.37694 0
M  V30 5022 H 494.011 -0.240519 4.15404 0
M  V30 5023 H 492.887 -0.759622 5.43618 0
M  V30 5024 H 493.148 -1.79397 4.04066 0
M  V30 5025 N 492.207 -1.54576 0.307264 0
M  V30 5026 C 493.618 -1.8579 -0.184121 0
M  V30 5027 C 493.969 -1.22914 -1.52927 0
M  V30 5028 O 493.094 -0.529126 -2.09831 0
M  V30 5029 C 493.689 -3.37081 -0.340862 0
M  V30 5030 C 492.248 -3.68304 -0.776465 0
M  V30 5031 C 491.395 -2.77076 0.111503 0
M  V30 5032 H 494.346 -1.49656 0.528078 0
M  V30 5033 H 494.367 -3.61922 -1.17443 0
M  V30 5034 H 493.879 -3.82815 0.638309 0
M  V30 5035 H 491.98 -3.28092 -1.76596 0
M  V30 5036 H 492.093 -4.75434 -0.591512 0
M  V30 5037 H 490.457 -2.51374 -0.410256 0
M  V30 5038 H 491.24 -3.25632 1.08714 0
M  V30 5039 N 493.685 -0.035106 -1.57561 0
M  V30 5040 C 494.618 0.979673 -2.06101 0
M  V30 5041 C 495.596 1.31378 -0.958046 0
M  V30 5042 O 496.78 1.42942 -1.22881 0
M  V30 5043 C 493.907 2.29809 -2.48808 0
M  V30 5044 C 492.953 2.11817 -3.70184 0
M  V30 5045 S 493.786 1.41143 -5.16565 0
M  V30 5046 C 494.942 2.74341 -5.62572 0
M  V30 5047 H 495.175 0.566506 -2.91853 0
M  V30 5048 H 492.708 0.176744 -1.53385 0
M  V30 5049 H 494.666 3.056 -2.74078 0
M  V30 5050 H 493.327 2.68257 -1.63392 0
M  V30 5051 H 492.52 3.09299 -3.97933 0
M  V30 5052 H 492.122 1.44168 -3.45097 0
M  V30 5053 H 494.414 3.70562 -5.67177 0
M  V30 5054 H 495.357 2.51249 -6.62027 0
M  V30 5055 H 495.765 2.79863 -4.90242 0
M  V30 5056 N 495.163 1.55791 0.238111 0
M  V30 5057 C 496.409 1.78297 0.966337 0
M  V30 5058 C 496.742 0.601903 1.84637 0
M  V30 5059 O 496.017 -0.399499 1.90353 0
M  V30 5060 C 496.3 3.10758 1.81939 0
M  V30 5061 C 496.153 4.39283 0.966958 0
M  V30 5062 C 497.472 3.39519 2.80027 0
M  V30 5063 H 494.591 0.648654 0.349882 0
M  V30 5064 H 497.233 1.88525 0.236253 0
M  V30 5065 H 495.383 3.02168 2.44185 0
M  V30 5066 H 497.055 4.59873 0.362514 0
M  V30 5067 H 495.298 4.32948 0.271669 0
M  V30 5068 H 495.969 5.28368 1.59784 0
M  V30 5069 H 498.445 3.48128 2.27917 0
M  V30 5070 H 497.321 4.33402 3.36829 0
M  V30 5071 H 497.582 2.60864 3.56934 0
M  V30 5072 N 496.642 -0.504142 1.49319 0
M  V30 5073 C 497.87 -1.28256 1.62351 0
M  V30 5074 C 498.285 -1.86502 0.293682 0
M  V30 5075 O 497.642 -1.67678 -0.720449 0
M  V30 5076 C 497.693 -2.41507 2.68992 0
M  V30 5077 O 497.414 -1.85656 3.96817 0
M  V30 5078 C 498.915 -3.32929 2.927 0
M  V30 5079 H 496.135 -0.389115 0.546654 0
M  V30 5080 H 498.679 -0.605531 1.95329 0
M  V30 5081 H 496.834 -3.05046 2.38801 0
M  V30 5082 H 497.248 -2.59981 4.55533 0
M  V30 5083 H 498.722 -4.0868 3.71058 0
M  V30 5084 H 499.199 -3.89733 2.02496 0
M  V30 5085 H 499.805 -2.75158 3.24296 0
M  V30 5086 N 498.12 -1.38341 -0.754957 0
M  V30 5087 C 499.345 -1.37882 -1.5493 0
M  V30 5088 C 499.77 0.0296385 -1.88077 0
M  V30 5089 O 499.128 1.01133 -1.50472 0
M  V30 5090 C 499.176 -2.23996 -2.82592 0
M  V30 5091 O 498.28 -1.65612 -3.77686 0
M  V30 5092 H 497.621 -0.470384 -0.468652 0
M  V30 5093 H 500.151 -1.82084 -0.933082 0
M  V30 5094 H 500.161 -2.37806 -3.3153 0
M  V30 5095 H 498.836 -3.26365 -2.57796 0
M  V30 5096 H 497.413 -1.60936 -3.36384 0
M  V30 5097 N 499.598 0.982988 -1.23187 0
M  V30 5098 C 500.508 2.10907 -1.02739 0
M  V30 5099 C 501.524 1.73979 0.0273188 0
M  V30 5100 O 502.7 2.00702 -0.16757 0
M  V30 5101 C 499.765 3.41142 -0.618304 0
M  V30 5102 C 498.826 3.92112 -1.74777 0
M  V30 5103 C 498.059 5.16131 -1.3581 0
M  V30 5104 O 498.282 5.6989 -0.241201 0
M  V30 5105 O 497.216 5.61103 -2.17824 0
M  V30 5106 H 501.042 2.31046 -1.97108 0
M  V30 5107 H 498.627 1.09284 -1.01869 0
M  V30 5108 H 500.509 4.19488 -0.400982 0
M  V30 5109 H 499.184 3.2234 0.296421 0
M  V30 5110 H 498.091 3.14895 -2.0197 0
M  V30 5111 H 499.424 4.15364 -2.64071 0
M  V30 5112 N 501.076 1.04316 1.18135 0
M  V30 5113 C 502.353 0.662166 1.84051 0
M  V30 5114 C 502.733 -0.858169 1.9287 0
M  V30 5115 O 502.081 -1.76062 1.45652 0
M  V30 5116 C 502.291 1.3409 3.22212 0
M  V30 5117 C 503.639 1.4733 3.9822 0
M  V30 5118 O 504.663 1.29921 3.31661 0
M  V30 5119 O 503.522 1.75722 5.17479 0
M  V30 5120 H 500.616 0.232005 0.79379 0
M  V30 5121 H 503.162 1.1422 1.25506 0
M  V30 5122 H 501.934 2.37853 3.10711 0
M  V30 5123 H 501.557 0.849649 3.88416 0
M  V30 5124 N 502.554 -1.34406 0.822964 0
M  V30 5125 C 503.517 -2.2783 0.250271 0
M  V30 5126 C 504.517 -1.50288 -0.571854 0
M  V30 5127 O 505.707 -1.69825 -0.387952 0
M  V30 5128 C 502.839 -3.34663 -0.649137 0
M  V30 5129 H 504.032 -2.79992 1.07444 0
M  V30 5130 H 501.585 -1.44539 0.594829 0
M  V30 5131 H 502.32 -2.87714 -1.49637 0
M  V30 5132 H 502.105 -3.92052 -0.0611199 0
M  V30 5133 H 503.595 -4.04349 -1.04363 0
M  V30 5134 N 504.032 -0.577932 -1.46621 0
M  V30 5135 C 504.98 0.170882 -2.31971 0
M  V30 5136 C 505.974 0.889086 -1.44193 0
M  V30 5137 O 507.18 0.808017 -1.60845 0
M  V30 5138 H 503.555 0.0739763 -0.748353 0
M  V30 5139 H 505.526 -0.567856 -2.92947 0
M  V30 5140 C 504.275 1.17438 -3.27267 0
M  V30 5141 H 503.598 0.63116 -3.94787 0
M  V30 5142 H 505.038 1.66882 -3.89778 0
M  V30 5143 C 503.497 2.23292 -2.52274 0
M  V30 5144 O 504.027 3.30567 -2.28229 0
M  V30 5145 N 502.233 1.97772 -2.12919 0
M  V30 5146 H 501.78 1.10545 -2.32675 0
M  V30 5147 H 501.738 2.68809 -1.63062 0
M  V30 5148 N 505.51 1.54411 -0.315457 0
M  V30 5149 C 506.735 2.05299 0.294496 0
M  V30 5150 C 507.16 1.19052 1.4563 0
M  V30 5151 O 506.518 0.197804 1.80218 0
M  V30 5152 C 506.566 3.5345 0.714549 0
M  V30 5153 O 505.67 3.70175 1.81781 0
M  V30 5154 H 505.011 0.661743 0.0547019 0
M  V30 5155 H 507.541 1.99327 -0.461508 0
M  V30 5156 H 507.551 3.9557 0.999426 0
M  V30 5157 H 506.226 4.1568 -0.135244 0
M  V30 5158 H 504.803 3.3996 1.53236 0
M  V30 5159 N 506.988 0.0434614 1.5754 0
M  V30 5160 C 508.399 -0.493343 1.80064 0
M  V30 5161 C 508.75 -1.71388 0.955023 0
M  V30 5162 O 507.875 -2.15736 0.169434 0
M  V30 5163 C 508.47 -0.90179 3.26578 0
M  V30 5164 C 507.029 -1.38362 3.50047 0
M  V30 5165 C 506.176 -0.355129 2.75017 0
M  V30 5166 H 509.127 0.2694 1.56397 0
M  V30 5167 H 509.148 -1.76523 3.37075 0
M  V30 5168 H 508.66 -0.013271 3.88098 0
M  V30 5169 H 506.761 -2.29159 2.93798 0
M  V30 5170 H 506.874 -1.3811 4.58762 0
M  V30 5171 H 505.238 -0.826348 2.40922 0
M  V30 5172 H 506.021 0.525172 3.39259 0
M  V30 5173 N 508.466 -1.55915 -0.229846 0
M  V30 5174 C 509.414 -1.9258 -1.30444 0
M  V30 5175 C 510.408 -0.806839 -1.48951 0
M  V30 5176 O 511.614 -0.991606 -1.50224 0
M  V30 5177 H 507.989 -0.611878 -0.437161 0
M  V30 5178 H 509.96 -2.82264 -0.96797 0
M  V30 5179 C 508.709 -2.25171 -2.6494 0
M  V30 5180 H 508.032 -3.10782 -2.51504 0
M  V30 5181 H 509.472 -2.54716 -3.38963 0
M  V30 5182 C 507.931 -1.07394 -3.19324 0
M  V30 5183 O 508.461 -0.330759 -4.00336 0
M  V30 5184 N 506.667 -0.859984 -2.77584 0
M  V30 5185 H 506.214 -1.46605 -2.11813 0
M  V30 5186 H 506.172 -0.0736671 -3.14314 0
M  V30 5187 N 509.944 0.496216 -1.49584 0
M  V30 5188 C 511.19 1.25189 -1.59548 0
M  V30 5189 C 511.523 1.9212 -0.283466 0
M  V30 5190 O 510.798 1.80947 0.713324 0
M  V30 5191 C 511.081 2.31516 -2.75812 0
M  V30 5192 C 510.934 1.69054 -4.16822 0
M  V30 5193 C 512.253 3.3304 -2.87702 0
M  V30 5194 H 509.372 0.45379 -0.580727 0
M  V30 5195 H 512.014 0.549327 -1.81886 0
M  V30 5196 H 510.164 2.91438 -2.56897 0
M  V30 5197 H 511.836 1.12923 -4.47265 0
M  V30 5198 H 510.079 0.994485 -4.22247 0
M  V30 5199 H 510.75 2.462 -4.94054 0
M  V30 5200 H 513.226 2.83114 -3.04936 0
M  V30 5201 H 512.102 4.04794 -3.7072 0
M  V30 5202 H 512.363 3.95655 -1.97255 0
M  V30 5203 N 511.423 1.38739 0.74761 0
M  V30 5204 C 512.651 1.38521 1.53686 0
M  V30 5205 C 513.066 -0.0235129 1.88785 0
M  V30 5206 O 512.423 -0.991662 1.53207 0
M  V30 5207 C 512.474 2.24641 2.83229 0
M  V30 5208 O 512.195 3.60026 2.49625 0
M  V30 5209 C 513.696 2.32669 3.77333 0
M  V30 5210 H 510.916 0.473589 0.475347 0
M  V30 5211 H 513.46 1.82395 0.924786 0
M  V30 5212 H 511.615 1.84213 3.40799 0
M  V30 5213 H 512.029 4.05435 3.3275 0
M  V30 5214 H 513.503 2.97201 4.65162 0
M  V30 5215 H 513.98 1.3421 4.18192 0
M  V30 5216 H 514.586 2.73512 3.25685 0
M  V30 5217 N 512.901 -0.976442 1.23707 0
M  V30 5218 C 514.147 -1.72081 1.07312 0
M  V30 5219 C 514.48 -1.90275 -0.388476 0
M  V30 5220 O 513.755 -1.4579 -1.28746 0
M  V30 5221 C 514.038 -3.11675 1.80363 0
M  V30 5222 C 513.891 -3.01027 3.3422 0
M  V30 5223 C 515.21 -4.1117 1.5693 0
M  V30 5224 H 512.329 -0.624583 0.391236 0
M  V30 5225 H 514.971 -1.13649 1.52263 0
M  V30 5226 H 513.121 -3.61559 1.42153 0
M  V30 5227 H 514.793 -2.58637 3.81975 0
M  V30 5228 H 513.036 -2.3744 3.63049 0
M  V30 5229 H 513.707 -3.9988 3.80525 0
M  V30 5230 H 516.183 -3.7011 1.90151 0
M  V30 5231 H 515.059 -5.06928 2.10513 0
M  V30 5232 H 515.32 -4.392 0.505548 0
M  V30 5233 N 514.379 -1.04941 -1.1758 0
M  V30 5234 C 515.607 -0.778294 -1.91703 0
M  V30 5235 C 516.022 0.665697 -1.76675 0
M  V30 5236 O 515.379 1.45456 -1.10222 0
M  V30 5237 C 515.43 -1.14628 -3.42845 0
M  V30 5238 O 515.151 -2.53359 -3.57409 0
M  V30 5239 C 516.652 -0.900931 -4.34049 0
M  V30 5240 H 513.872 -0.283167 -0.608323 0
M  V30 5241 H 516.416 -1.39942 -1.49119 0
M  V30 5242 H 514.571 -0.569953 -3.83184 0
M  V30 5243 H 514.985 -2.67709 -4.51035 0
M  V30 5244 H 516.459 -1.20817 -5.38616 0
M  V30 5245 H 516.936 0.163966 -4.38894 0
M  V30 5246 H 517.542 -1.46097 -3.99419 0
M  V30 5247 N 515.857 1.33968 -0.830081 0
M  V30 5248 C 516.82 2.27694 -0.26235 0
M  V30 5249 C 517.82 1.50589 0.563876 0
M  V30 5250 O 519.01 1.70028 0.378941 0
M  V30 5251 C 516.142 3.35002 0.63138 0
M  V30 5252 H 517.335 2.79419 -1.08928 0
M  V30 5253 H 514.888 1.44221 -0.602486 0
M  V30 5254 H 515.623 2.88504 1.48109 0
M  V30 5255 H 515.408 3.92079 0.0403276 0
M  V30 5256 H 516.898 4.04897 1.02217 0
M  V30 5257 N 517.335 0.585699 1.46312 0
M  V30 5258 C 518.582 0.0724211 2.0237 0
M  V30 5259 C 518.91 -1.28868 1.45683 0
M  V30 5260 O 518.165 -1.85853 0.612945 0
M  V30 5261 C 518.464 -0.0401312 3.57377 0
M  V30 5262 C 518.13 1.25376 4.33119 0
M  V30 5263 C 516.792 1.60824 4.5353 0
M  V30 5264 C 519.144 2.10987 4.76586 0
M  V30 5265 C 516.472 2.81676 5.14661 0
M  V30 5266 C 518.824 3.31068 5.39052 0
M  V30 5267 C 517.488 3.66794 5.5769 0
M  V30 5268 H 516.758 0.0265007 0.740526 0
M  V30 5269 H 519.405 0.762935 1.75646 0
M  V30 5270 H 517.71 -0.813791 3.83255 0
M  V30 5271 H 519.407 -0.453078 3.98432 0
M  V30 5272 H 515.997 0.967808 4.1753 0
M  V30 5273 H 520.181 1.84904 4.60569 0
M  V30 5274 H 515.437 3.0949 5.27282 0
M  V30 5275 H 519.611 3.97672 5.71691 0
M  V30 5276 H 517.238 4.60529 6.04828 0
M  V30 5277 N 518.813 -1.54241 0.323641 0
M  V30 5278 C 520.059 -2.01572 -0.272089 0
M  V30 5279 C 520.414 -1.20774 -1.49771 0
M  V30 5280 O 519.707 -0.281821 -1.89516 0
M  V30 5281 C 519.901 -3.5129 -0.658031 0
M  V30 5282 C 519.73 -4.46582 0.528645 0
M  V30 5283 C 518.5 -4.94737 1.02777 0
M  V30 5284 C 520.698 -4.95416 1.38086 0
M  V30 5285 N 518.68 -5.73933 2.17885 0
M  V30 5286 C 520.051 -5.72537 2.3791 0
M  V30 5287 C 522.106 -4.77559 1.40861 0
M  V30 5288 C 520.809 -6.33702 3.40314 0
M  V30 5289 C 522.835 -5.39559 2.42136 0
M  V30 5290 C 522.197 -6.16532 3.40688 0
M  V30 5291 H 518.296 -0.779425 -0.0634072 0
M  V30 5292 H 520.88 -1.8922 0.458697 0
M  V30 5293 H 519.051 -3.63888 -1.35795 0
M  V30 5294 H 520.783 -3.85388 -1.23524 0
M  V30 5295 H 517.538 -4.69796 0.599046 0
M  V30 5296 H 517.962 -6.18209 2.75947 0
M  V30 5297 H 522.604 -4.17611 0.660352 0
M  V30 5298 H 520.322 -6.9277 4.16047 0
M  V30 5299 H 523.908 -5.27659 2.45086 0
M  V30 5300 H 522.788 -6.63655 4.1777 0
M  V30 5301 N 520.291 -0.0518155 -1.57515 0
M  V30 5302 C 521.254 0.907547 -2.10467 0
M  V30 5303 C 522.254 1.23947 -1.02439 0
M  V30 5304 O 523.444 1.17604 -1.2851 0
M  V30 5305 C 520.576 2.21723 -2.58944 0
M  V30 5306 H 521.769 0.44851 -2.96527 0
M  V30 5307 H 519.322 0.196598 -1.55059 0
M  V30 5308 H 520.057 2.72206 -1.76279 0
M  V30 5309 H 519.842 1.98935 -3.37886 0
M  V30 5310 H 521.332 2.90441 -3.00056 0
M  V30 5311 N 521.769 1.56035 0.221574 0
M  V30 5312 C 523.015 1.80221 0.942973 0
M  V30 5313 C 523.37 0.624799 1.81973 0
M  V30 5314 O 522.663 -0.381145 1.87771 0
M  V30 5315 C 522.857 3.07813 1.8162 0
M  V30 5316 C 522.686 4.37852 1.02548 0
M  V30 5317 C 521.456 5.00138 0.720418 0
M  V30 5318 C 523.654 5.12813 0.390799 0
M  V30 5319 N 521.636 6.13831 -0.0917139 0
M  V30 5320 C 523.007 6.19346 -0.284728 0
M  V30 5321 C 525.062 4.96972 0.303828 0
M  V30 5322 C 523.765 7.11758 -1.03891 0
M  V30 5323 C 525.791 5.89784 -0.436883 0
M  V30 5324 C 525.153 6.95743 -1.10095 0
M  V30 5325 H 521.252 0.711117 0.325325 0
M  V30 5326 H 523.836 1.93522 0.213854 0
M  V30 5327 H 522.007 2.95795 2.51714 0
M  V30 5328 H 523.739 3.20191 2.47508 0
M  V30 5329 H 520.494 4.62075 1.03843 0
M  V30 5330 H 520.918 6.75249 -0.486615 0
M  V30 5331 H 525.56 4.15107 0.802896 0
M  V30 5332 H 523.278 7.93105 -1.54949 0
M  V30 5333 H 526.864 5.79603 -0.505181 0
M  V30 5334 H 525.744 7.66322 -1.66495 0
M  V30 5335 N 523.247 -0.488276 1.49845 0
M  V30 5336 C 524.658 -1.06955 1.53028 0
M  V30 5337 C 525.009 -1.9351 0.323797 0
M  V30 5338 O 524.134 -2.08891 -0.565116 0
M  V30 5339 C 524.729 -1.94643 2.77307 0
M  V30 5340 C 523.288 -2.4791 2.83227 0
M  V30 5341 C 522.435 -1.25833 2.47106 0
M  V30 5342 H 525.386 -0.271626 1.56358 0
M  V30 5343 H 525.407 -2.79496 2.5819 0
M  V30 5344 H 524.919 -1.31621 3.65099 0
M  V30 5345 H 523.02 -3.14535 1.99745 0
M  V30 5346 H 523.133 -2.84193 3.85709 0
M  V30 5347 H 521.497 -1.58764 1.99163 0
M  V30 5348 H 522.28 -0.644993 3.37186 0
M  V30 5349 N 524.725 -1.39134 -0.740242 0
M  V30 5350 C 525.673 -1.3757 -1.87556 0
M  V30 5351 C 526.667 -0.259593 -1.67399 0
M  V30 5352 O 527.873 -0.429349 -1.74804 0
M  V30 5353 H 524.248 -0.42947 -0.6173 0
M  V30 5354 H 526.219 -2.33345 -1.85991 0
M  V30 5355 C 524.968 -1.23087 -3.25184 0
M  V30 5356 H 524.291 -2.08237 -3.41288 0
M  V30 5357 H 525.731 -1.26049 -4.0483 0
M  V30 5358 C 524.19 0.0611471 -3.36845 0
M  V30 5359 O 524.72 1.03328 -3.88183 0
M  V30 5360 N 522.926 0.122454 -2.90342 0
M  V30 5361 H 522.473 -0.669329 -2.48752 0
M  V30 5362 H 522.431 0.986463 -2.98523 0
M  V30 5363 N 526.204 0.969867 -1.24223 0
M  V30 5364 C 527.152 2.08535 -1.03034 0
M  V30 5365 C 528.146 1.69366 0.0340379 0
M  V30 5366 O 529.352 1.79597 -0.12034 0
M  V30 5367 H 525.727 0.682313 -0.316154 0
M  V30 5368 H 527.698 2.23569 -1.97635 0
M  V30 5369 C 526.447 3.4158 -0.649509 0
M  V30 5370 H 525.77 3.72177 -1.46028 0
M  V30 5371 H 527.21 4.20536 -0.540841 0
M  V30 5372 C 525.669 3.30703 0.643194 0
M  V30 5373 O 526.199 3.64443 1.68951 0
M  V30 5374 N 524.405 2.83841 0.623095 0
M  V30 5375 H 523.952 2.56583 -0.228719 0
M  V30 5376 H 523.91 2.76946 1.48823 0
M  V30 5377 N 527.682 1.05563 1.17022 0
M  V30 5378 C 528.91 0.78845 1.91288 0
M  V30 5379 C 529.325 -0.656318 1.77025 0
M  V30 5380 O 528.682 -1.44869 1.10992 0
M  V30 5381 C 528.733 1.16444 3.42232 0
M  V30 5382 O 528.454 2.5525 3.5606 0
M  V30 5383 C 529.955 0.923937 4.33565 0
M  V30 5384 H 527.175 0.286389 0.606813 0
M  V30 5385 H 529.719 1.4073 1.48375 0
M  V30 5386 H 527.874 0.590266 3.82877 0
M  V30 5387 H 528.288 2.70097 4.49609 0
M  V30 5388 H 529.762 1.23672 5.37968 0
M  V30 5389 H 530.239 -0.140688 4.38975 0
M  V30 5390 H 530.845 1.48214 3.98639 0
M  V30 5391 N 529.16 -1.33526 0.837174 0
M  V30 5392 C 530.07 -2.33023 0.271568 0
M  V30 5393 C 531.086 -1.63272 -0.601514 0
M  V30 5394 O 532.262 -1.94939 -0.506038 0
M  V30 5395 C 529.327 -3.42382 -0.545448 0
M  V30 5396 C 528.388 -4.27857 0.351709 0
M  V30 5397 C 527.621 -5.31994 -0.426409 0
M  V30 5398 O 527.844 -5.45763 -1.65828 0
M  V30 5399 O 526.778 -6.01572 0.1987 0
M  V30 5400 H 530.604 -2.83256 1.09545 0
M  V30 5401 H 528.189 -1.36837 0.599655 0
M  V30 5402 H 530.071 -4.09122 -1.00979 0
M  V30 5403 H 528.746 -2.94369 -1.34641 0
M  V30 5404 H 527.653 -3.6399 0.863853 0
M  V30 5405 H 528.986 -4.79349 1.1174 0
M  V30 5406 N 530.638 -0.59345 -1.46 0
M  V30 5407 C 531.866 -0.0890934 -2.06708 0
M  V30 5408 C 532.281 1.2205 -1.44046 0
M  V30 5409 O 531.638 1.74029 -0.549551 0
M  V30 5410 C 531.689 0.0720263 -3.61428 0
M  V30 5411 O 531.41 -1.18574 -4.21748 0
M  V30 5412 C 532.911 0.609487 -4.3909 0
M  V30 5413 H 530.131 -0.0623628 -0.668096 0
M  V30 5414 H 532.675 -0.817171 -1.87464 0
M  V30 5415 H 530.83 0.750369 -3.80063 0
M  V30 5416 H 531.244 -1.0064 -5.14754 0
M  V30 5417 H 532.718 0.671363 -5.47902 0
M  V30 5418 H 533.195 1.62878 -4.07882 0
M  V30 5419 H 533.801 -0.03434 -4.25286 0
M  V30 5420 N 532.116 1.54067 -0.331816 0
M  V30 5421 C 533.393 1.92915 0.322955 0
M  V30 5422 C 533.773 1.26225 1.69205 0
M  V30 5423 O 533.121 0.408919 2.24811 0
M  V30 5424 C 533.331 3.46619 0.406946 0
M  V30 5425 C 534.679 4.19386 0.663339 0
M  V30 5426 O 535.703 3.5282 0.489536 0
M  V30 5427 O 534.562 5.37288 0.999193 0
M  V30 5428 H 531.656 0.805808 0.186016 0
M  V30 5429 H 534.202 1.65342 -0.382135 0
M  V30 5430 H 532.974 3.87354 -0.554287 0
M  V30 5431 H 532.597 3.80324 1.15929 0
M  V30 5432 N 533.594 0.0601682 1.57485 0
M  V30 5433 C 534.841 -0.611594 1.93043 0
M  V30 5434 C 535.169 -1.70317 0.939274 0
M  V30 5435 O 534.424 -1.95644 -0.046996 0
M  V30 5436 C 534.723 -1.23831 3.35262 0
M  V30 5437 C 534.389 -0.274037 4.50066 0
M  V30 5438 C 533.051 -0.00872394 4.81199 0
M  V30 5439 C 535.403 0.386308 5.19766 0
M  V30 5440 C 532.731 0.924218 5.79375 0
M  V30 5441 C 535.083 1.3075 6.1894 0
M  V30 5442 C 533.747 1.58139 6.48497 0
M  V30 5443 H 533.017 -0.223798 0.706396 0
M  V30 5444 H 535.664 0.128566 1.91068 0
M  V30 5445 H 533.969 -2.05394 3.33647 0
M  V30 5446 H 535.666 -1.76517 3.60059 0
M  V30 5447 H 532.256 -0.491008 4.25778 0
M  V30 5448 H 536.44 0.194436 4.95919 0
M  V30 5449 H 531.696 1.1438 6.00606 0
M  V30 5450 H 535.87 1.82519 6.72056 0
M  V30 5451 H 533.497 2.30593 7.24383 0
M  V30 5452 N 535.072 -1.5615 -0.213296 0
M  V30 5453 C 536.019 -1.93086 -1.26437 0
M  V30 5454 C 536.989 -0.789086 -1.4616 0
M  V30 5455 O 538.174 -1.04569 -1.59593 0
M  V30 5456 C 535.314 -2.26003 -2.608 0
M  V30 5457 C 534.427 -3.53156 -2.48807 0
M  V30 5458 C 533.562 -3.7548 -3.7575 0
M  V30 5459 C 532.601 -4.96119 -3.58514 0
M  V30 5460 N 531.738 -5.14791 -4.77425 0
M  V30 5461 H 536.578 -2.82707 -0.942376 0
M  V30 5462 H 534.115 -1.39919 -0.454001 0
M  V30 5463 H 536.073 -2.431 -3.39055 0
M  V30 5464 H 534.703 -1.39546 -2.91079 0
M  V30 5465 H 533.755 -3.44207 -1.61944 0
M  V30 5466 H 535.067 -4.41565 -2.31996 0
M  V30 5467 H 534.221 -3.92718 -4.62447 0
M  V30 5468 H 532.96 -2.85368 -3.95495 0
M  V30 5469 H 531.965 -4.78823 -2.70201 0
M  V30 5470 H 533.19 -5.87724 -3.40231 0
M  V30 5471 H 531.136 -4.27623 -4.97468 0
M  V30 5472 H 531.053 -5.97347 -4.63371 0
M  V30 5473 H 532.321 -5.36471 -5.65525 0
M  V30 5474 N 536.55 0.480323 -1.50102 0
M  V30 5475 C 537.79 1.24301 -1.62261 0
M  V30 5476 C 538.154 1.89452 -0.311758 0
M  V30 5477 O 539.355 2.67022 -0.308696 0
M  V30 5478 C 537.626 2.26588 -2.76392 0
M  V30 5479 S 539.185 3.11919 -3.08629 0
M  V30 5480 H 536.003 0.42215 -0.57211 0
M  V30 5481 H 538.605 0.541591 -1.87848 0
M  V30 5482 H 537.309 1.7729 -3.70131 0
M  V30 5483 H 536.84 3.01371 -2.52862 0
M  V30 5484 H 538.855 4.27598 -2.51742 0
M  V30 5485 N 538.028 1.39524 0.732853 0
M  V30 5486 C 538.975 1.38416 1.84688 0
M  V30 5487 C 539.945 0.243539 1.64305 0
M  V30 5488 O 541.13 0.438979 1.85681 0
M  V30 5489 C 538.27 1.23555 3.22224 0
M  V30 5490 C 537.383 2.47179 3.54298 0
M  V30 5491 C 536.518 2.2489 4.81246 0
M  V30 5492 C 535.557 3.44178 5.0617 0
M  V30 5493 N 534.694 3.21192 6.24323 0
M  V30 5494 H 539.534 2.33645 1.84971 0
M  V30 5495 H 537.071 1.16059 0.903804 0
M  V30 5496 H 539.029 1.12949 4.0162 0
M  V30 5497 H 537.659 0.31954 3.21215 0
M  V30 5498 H 536.711 2.68379 2.69587 0
M  V30 5499 H 538.023 3.36022 3.68633 0
M  V30 5500 H 537.177 2.11538 5.68627 0
M  V30 5501 H 535.916 1.33443 4.69089 0
M  V30 5502 H 534.921 3.58025 4.17251 0
M  V30 5503 H 536.146 4.36528 5.20212 0
M  V30 5504 H 534.092 2.32413 6.1345 0
M  V30 5505 H 534.009 4.03594 6.39256 0
M  V30 5506 H 535.277 3.1154 7.14537 0
M  V30 5507 N 539.506 -0.963266 1.24736 0
M  V30 5508 C 540.752 -1.71 1.10139 0
M  V30 5509 C 541.107 -1.89089 -0.35541 0
M  V30 5510 O 540.4 -1.44451 -1.25875 0
M  V30 5511 C 540.594 -3.09944 1.7796 0
M  V30 5512 C 540.423 -3.05408 3.30085 0
M  V30 5513 C 539.193 -3.09643 3.99311 0
M  V30 5514 C 541.391 -2.87241 4.26611 0
M  V30 5515 N 539.373 -2.95174 5.3828 0
M  V30 5516 C 540.744 -2.81114 5.52607 0
M  V30 5517 C 542.799 -2.71856 4.17132 0
M  V30 5518 C 541.502 -2.61174 6.70209 0
M  V30 5519 C 543.528 -2.53284 5.34417 0
M  V30 5520 C 542.89 -2.4787 6.59348 0
M  V30 5521 H 538.989 -0.634078 0.457678 0
M  V30 5522 H 541.573 -1.14169 1.57713 0
M  V30 5523 H 539.744 -3.64958 1.32893 0
M  V30 5524 H 541.476 -3.73348 1.56183 0
M  V30 5525 H 538.231 -3.18498 3.50508 0
M  V30 5526 H 538.655 -2.91168 6.11188 0
M  V30 5527 H 543.297 -2.74821 3.21299 0
M  V30 5528 H 541.015 -2.56952 7.6616 0
M  V30 5529 H 544.601 -2.42317 5.28936 0
M  V30 5530 H 543.481 -2.33685 7.48573 0
M  V30 5531 N 540.985 -1.06182 -1.16461 0
M  V30 5532 C 542.213 -0.798583 -1.90867 0
M  V30 5533 C 542.628 0.646921 -1.77371 0
M  V30 5534 O 541.985 1.44279 -1.11758 0
M  V30 5535 C 542.036 -1.18258 -3.4161 0
M  V30 5536 O 541.757 -2.57135 -3.54701 0
M  V30 5537 C 543.258 -0.946917 -4.33069 0
M  V30 5538 H 540.478 -0.289603 -0.605286 0
M  V30 5539 H 543.022 -1.41515 -1.47627 0
M  V30 5540 H 541.177 -0.610562 -3.82558 0
M  V30 5541 H 541.591 -2.72477 -4.4817 0
M  V30 5542 H 543.065 -1.26523 -5.37304 0
M  V30 5543 H 543.542 0.117406 -4.39043 0
M  V30 5544 H 544.148 -1.50326 -3.97847 0
M  V30 5545 N 542.463 1.3308 -0.844243 0
M  V30 5546 C 543.393 2.3161 -0.296493 0
M  V30 5547 C 544.374 1.59215 0.598707 0
M  V30 5548 O 545.559 1.87077 0.521134 0
M  V30 5549 C 542.689 3.43313 0.524762 0
M  V30 5550 C 541.643 4.27115 -0.275106 0
M  V30 5551 C 540.969 5.30483 0.670236 0
M  V30 5552 C 542.269 5.00443 -1.49514 0
M  V30 5553 H 543.963 2.77672 -1.11976 0
M  V30 5554 H 541.509 1.33496 -0.539899 0
M  V30 5555 H 543.462 4.11273 0.918298 0
M  V30 5556 H 542.186 2.95952 1.3813 0
M  V30 5557 H 540.845 3.60787 -0.650267 0
M  V30 5558 H 540.493 4.79379 1.52332 0
M  V30 5559 H 540.193 5.87435 0.139123 0
M  V30 5560 H 541.717 6.01308 1.06117 0
M  V30 5561 H 543.131 5.61141 -1.17447 0
M  V30 5562 H 541.528 5.67071 -1.96343 0
M  V30 5563 H 542.598 4.28906 -2.26202 0
M  V30 5564 N 543.941 0.601185 1.45683 0
M  V30 5565 C 545.169 0.100054 2.06658 0
M  V30 5566 C 545.584 -1.21285 1.44691 0
M  V30 5567 O 544.941 -1.73735 0.558772 0
M  V30 5568 C 544.992 -0.0528579 3.61461 0
M  V30 5569 O 544.713 1.20809 4.21114 0
M  V30 5570 C 546.214 -0.586193 4.39407 0
M  V30 5571 H 543.434 0.065905 0.667756 0
M  V30 5572 H 545.978 0.827101 1.87028 0
M  V30 5573 H 544.133 -0.730203 3.80456 0
M  V30 5574 H 544.547 1.03368 5.14213 0
M  V30 5575 H 546.021 -0.642297 5.4825 0
M  V30 5576 H 546.498 -1.60713 4.0874 0
M  V30 5577 H 547.104 0.0568935 4.25262 0
M  V30 5578 N 545.419 -1.53889 0.339982 0
M  V30 5579 C 546.644 -2.05741 -0.261798 0
M  V30 5580 C 547.069 -1.21354 -1.43718 0
M  V30 5581 O 546.427 -0.22645 -1.7988 0
M  V30 5582 C 546.475 -3.54542 -0.658228 0
M  V30 5583 O 545.579 -3.7302 -1.75869 0
M  V30 5584 H 544.92 -0.662529 -0.0441672 0
M  V30 5585 H 547.45 -1.98568 0.493161 0
M  V30 5586 H 547.46 -3.9711 -0.936368 0
M  V30 5587 H 546.135 -4.15412 0.201358 0
M  V30 5588 H 544.712 -3.42355 -1.47809 0
M  V30 5589 N 546.897 -0.0685191 -1.57451 0
M  V30 5590 C 548.145 0.60016 -1.92983 0
M  V30 5591 C 548.466 1.70348 -0.949028 0
M  V30 5592 O 547.736 1.959 0.00335647 0
M  V30 5593 H 546.316 0.224682 -0.712409 0
M  V30 5594 H 548.978 -0.125605 -1.94495 0
M  V30 5595 H 548.074 1.02759 -2.94698 0
M  V30 5596 N 548.375 1.56261 0.205012 0
M  V30 5597 C 549.603 1.84141 0.943386 0
M  V30 5598 C 550.018 0.649772 1.77266 0
M  V30 5599 O 549.375 -0.381612 1.78466 0
M  V30 5600 C 549.426 3.10719 1.84759 0
M  V30 5601 O 549.147 4.25286 1.05181 0
M  V30 5602 C 550.648 3.51706 2.69848 0
M  V30 5603 H 547.868 0.611734 0.275721 0
M  V30 5604 H 550.412 2.03364 0.215253 0
M  V30 5605 H 548.567 2.93422 2.52947 0
M  V30 5606 H 548.981 4.97301 1.66709 0
M  V30 5607 H 550.455 4.43266 3.28967 0
M  V30 5608 H 550.932 2.7423 3.43067 0
M  V30 5609 H 551.538 3.71499 2.07047 0
M  V30 5610 N 549.853 -0.472356 1.50355 0
M  V30 5611 C 551.264 -1.05326 1.54154 0
M  V30 5612 C 551.615 -1.93155 0.344303 0
M  V30 5613 O 550.74 -2.09479 -0.542928 0
M  V30 5614 C 551.335 -1.91691 2.79356 0
M  V30 5615 C 549.894 -2.44892 2.8584 0
M  V30 5616 C 549.041 -1.23205 2.48426 0
M  V30 5617 H 551.992 -0.255027 1.56637 0
M  V30 5618 H 552.013 -2.76742 2.6114 0
M  V30 5619 H 551.525 -1.27741 3.66475 0
M  V30 5620 H 549.626 -3.12399 2.0307 0
M  V30 5621 H 549.739 -2.80086 3.88701 0
M  V30 5622 H 548.103 -1.56643 2.00836 0
M  V30 5623 H 548.886 -0.609194 3.37852 0
M  V30 5624 N 551.331 -1.39911 -0.725443 0
M  V30 5625 C 552.556 -1.41137 -1.5197 0
M  V30 5626 C 552.981 -0.010262 -1.88097 0
M  V30 5627 O 552.339 0.979184 -1.52583 0
M  V30 5628 C 552.387 -2.2994 -2.77777 0
M  V30 5629 O 551.491 -1.73586 -3.74088 0
M  V30 5630 H 550.832 -0.480219 -0.458569 0
M  V30 5631 H 553.362 -1.84023 -0.894249 0
M  V30 5632 H 553.372 -2.44785 -3.26411 0
M  V30 5633 H 552.047 -3.31759 -2.50816 0
M  V30 5634 H 550.624 -1.68035 -3.32894 0
M  V30 5635 N 552.809 0.956637 -1.25245 0
M  V30 5636 C 554.057 1.69764 -1.09657 0
M  V30 5637 C 554.378 1.91583 0.363464 0
M  V30 5638 O 553.648 1.50149 1.25825 0
M  V30 5639 H 552.228 0.629097 -0.402798 0
M  V30 5640 H 554.89 1.15026 -1.57337 0
M  V30 5641 H 553.986 2.67769 -1.60331 0
M  V30 5642 N 554.287 1.06798 1.15896 0
M  V30 5643 C 555.527 0.797041 1.8822 0
M  V30 5644 C 555.891 -0.664549 1.80133 0
M  V30 5645 O 557.092 -1.0503 2.47431 0
M  V30 5646 C 555.363 1.28431 3.33527 0
M  V30 5647 S 556.922 1.14319 4.23647 0
M  V30 5648 H 553.74 0.288988 0.649621 0
M  V30 5649 H 556.342 1.36594 1.39865 0
M  V30 5650 H 555.046 2.34286 3.36954 0
M  V30 5651 H 554.577 0.710371 3.86933 0
M  V30 5652 H 556.592 0.0772467 4.9614 0
M  V30 5653 N 555.766 -1.3263 0.851289 0
M  V30 5654 C 556.676 -2.32722 0.296268 0
M  V30 5655 C 557.692 -1.63901 -0.584162 0
M  V30 5656 O 558.868 -1.95465 -0.485334 0
M  V30 5657 C 555.933 -3.42942 -0.509103 0
M  V30 5658 C 554.994 -4.2746 0.397069 0
M  V30 5659 C 554.227 -5.32416 -0.36996 0
M  V30 5660 O 554.45 -5.47491 -1.6003 0
M  V30 5661 O 553.384 -6.01327 0.262493 0
M  V30 5662 H 557.21 -2.82078 1.12543 0
M  V30 5663 H 554.795 -1.36194 0.614135 0
M  V30 5664 H 556.677 -4.1017 -0.96634 0
M  V30 5665 H 555.352 -2.95781 -1.31512 0
M  V30 5666 H 554.259 -3.63053 0.902411 0
M  V30 5667 H 555.592 -4.78136 1.16818 0
M  V30 5668 N 557.244 -0.608902 -1.45362 0
M  V30 5669 C 558.192 0.121639 -2.32282 0
M  V30 5670 C 559.186 0.858301 -1.46046 0
M  V30 5671 O 560.392 0.773718 -1.62523 0
M  V30 5672 H 556.767 0.058086 -0.749753 0
M  V30 5673 H 558.738 -0.629866 -2.91677 0
M  V30 5674 C 557.487 1.1047 -3.29684 0
M  V30 5675 H 556.81 0.547278 -3.96036 0
M  V30 5676 H 558.25 1.58576 -3.9323 0
M  V30 5677 C 556.709 2.17891 -2.56954 0
M  V30 5678 O 557.239 3.25652 -2.35189 0
M  V30 5679 N 555.445 1.93211 -2.17066 0
M  V30 5680 H 554.992 1.05584 -2.34967 0
M  V30 5681 H 554.95 2.6529 -1.68727 0
M  V30 5682 N 558.722 1.53707 -0.348139 0
M  V30 5683 C 559.971 2.0017 0.247992 0
M  V30 5684 C 560.284 1.23983 1.51286 0
M  V30 5685 O 561.49 1.60946 2.18652 0
M  V30 5686 C 559.946 3.56515 0.492459 0
M  V30 5687 C 559.554 4.41562 -0.756777 0
M  V30 5688 C 561.298 4.11381 1.0472 0
M  V30 5689 C 559.205 5.89426 -0.482856 0
M  V30 5690 H 558.135 0.747806 0.0964452 0
M  V30 5691 H 560.786 1.77532 -0.464179 0
M  V30 5692 H 559.168 3.75236 1.26545 0
M  V30 5693 H 560.342 4.34615 -1.53122 0
M  V30 5694 H 558.657 3.97711 -1.23348 0
M  V30 5695 H 561.254 5.19468 1.26717 0
M  V30 5696 H 561.597 3.64885 2.00411 0
M  V30 5697 H 562.13 3.96389 0.334801 0
M  V30 5698 H 558.869 6.40164 -1.40962 0
M  V30 5699 H 558.389 5.99264 0.253416 0
M  V30 5700 H 560.068 6.4692 -0.101816 0
M  V30 5701 N 560.2 0.0768682 1.57412 0
M  V30 5702 C 561.425 -0.603404 1.98428 0
M  V30 5703 C 561.85 -1.62047 0.955108 0
M  V30 5704 O 561.208 -1.81129 -0.0786778 0
M  V30 5705 C 561.256 -1.24396 3.38464 0
M  V30 5706 O 560.36 -2.35982 3.3821 0
M  V30 5707 H 559.701 -0.154741 0.645718 0
M  V30 5708 H 562.231 0.152885 2.04028 0
M  V30 5709 H 562.241 -1.5896 3.7576 0
M  V30 5710 H 560.916 -0.498735 4.12899 0
M  V30 5711 H 559.493 -2.03173 3.1269 0
M  V30 5712 N 561.678 -1.56367 -0.196722 0
M  V30 5713 C 562.926 -1.80172 -0.915554 0
M  V30 5714 C 563.247 -0.649649 -1.8386 0
M  V30 5715 O 562.517 0.332111 -1.93064 0
M  V30 5716 H 561.097 -0.664592 -0.341067 0
M  V30 5717 H 563.759 -1.93844 -0.202622 0
M  V30 5718 H 562.855 -2.7327 -1.50764 0
M  V30 5719 N 563.156 0.464375 -1.50603 0
M  V30 5720 C 564.119 1.54393 -1.69397 0
M  V30 5721 C 565.119 1.50566 -0.564504 0
M  V30 5722 O 566.309 1.53066 -0.831645 0
M  V30 5723 C 563.441 2.9401 -1.72543 0
M  V30 5724 H 564.634 1.39044 -2.65719 0
M  V30 5725 H 562.187 0.69122 -1.40185 0
M  V30 5726 H 562.922 3.14795 -0.77938 0
M  V30 5727 H 562.707 2.98195 -2.54602 0
M  V30 5728 H 564.197 3.72375 -1.89015 0
M  V30 5729 N 564.634 1.40294 0.718013 0
M  V30 5730 C 565.881 1.3844 1.47786 0
M  V30 5731 C 566.209 -0.0140838 1.94495 0
M  V30 5732 O 565.464 -0.998165 1.68331 0
M  V30 5733 C 565.763 2.31814 2.72024 0
M  V30 5734 C 565.429 3.79117 2.44093 0
M  V30 5735 C 564.091 4.19249 2.36185 0
M  V30 5736 C 566.443 4.72212 2.20602 0
M  V30 5737 C 563.771 5.50516 2.02851 0
M  V30 5738 C 566.123 6.03775 1.88781 0
M  V30 5739 C 564.787 6.42953 1.79354 0
M  V30 5740 H 564.057 0.506588 0.540786 0
M  V30 5741 H 566.704 1.72929 0.822663 0
M  V30 5742 H 565.009 1.90501 3.42369 0
M  V30 5743 H 566.706 2.27664 3.30106 0
M  V30 5744 H 563.296 3.47318 2.51133 0
M  V30 5745 H 567.48 4.42026 2.25669 0
M  V30 5746 H 562.736 5.79776 1.94088 0
M  V30 5747 H 566.91 6.75428 1.69617 0
M  V30 5748 H 564.537 7.44584 1.53291 0
M  V30 5749 N 566.112 -0.949982 1.2575 0
M  V30 5750 C 567.075 -2.02894 1.06615 0
M  V30 5751 C 568.075 -1.60791 0.0173905 0
M  V30 5752 O 569.265 -1.72249 0.260003 0
M  V30 5753 C 566.397 -3.35219 0.619751 0
M  V30 5754 H 567.59 -2.21302 2.02399 0
M  V30 5755 H 565.143 -1.12772 1.08223 0
M  V30 5756 H 565.878 -3.22508 -0.340486 0
M  V30 5757 H 565.663 -3.67129 1.37692 0
M  V30 5758 H 567.153 -4.14505 0.507443 0
M  V30 5759 N 567.59 -1.07411 -1.15328 0
M  V30 5760 C 568.815 -0.818856 -1.90551 0
M  V30 5761 C 569.24 0.622194 -1.77512 0
M  V30 5762 O 568.598 1.43484 -1.10824 0
M  V30 5763 C 568.646 -1.23267 -3.38877 0
M  V30 5764 O 567.75 -0.378345 -4.10661 0
M  V30 5765 H 567.091 -0.29827 -0.593238 0
M  V30 5766 H 569.621 -1.43289 -1.46046 0
M  V30 5767 H 569.631 -1.20912 -3.89672 0
M  V30 5768 H 568.306 -2.28226 -3.47686 0
M  V30 5769 H 566.883 -0.464437 -3.69996 0
M  V30 5770 N 569.068 1.32177 -0.85831 0
M  V30 5771 C 570.016 2.30729 -0.294442 0
M  V30 5772 C 571.01 1.59009 0.584165 0
M  V30 5773 O 572.216 1.73713 0.471562 0
M  V30 5774 H 568.591 0.748097 -0.0765171 0
M  V30 5775 H 570.562 2.75774 -1.1398 0
M  V30 5776 C 569.311 3.44098 0.499208 0
M  V30 5777 H 568.634 3.99449 -0.167579 0
M  V30 5778 H 570.074 4.15202 0.859273 0
M  V30 5779 C 568.533 2.91684 1.68588 0
M  V30 5780 O 569.063 2.89481 2.78503 0
M  V30 5781 N 567.269 2.48036 1.51415 0
M  V30 5782 H 566.816 2.50027 0.620006 0
M  V30 5783 H 566.774 2.13322 2.30957 0
M  V30 5784 N 570.547 0.616602 1.45037 0
M  V30 5785 C 571.963 0.280994 1.57107 0
M  V30 5786 C 572.163 -1.21627 1.60653 0
M  V30 5787 O 571.219 -1.9997 1.54169 0
M  V30 5788 C 572.532 0.960116 2.8496 0
M  V30 5789 C 574.08 0.936884 2.98649 0
M  V30 5790 C 574.555 1.59619 4.29285 0
M  V30 5791 N 576.046 1.5621 4.36065 0
M  V30 5792 C 576.781 2.04131 5.35834 0
M  V30 5793 N 576.277 2.60177 6.4209 0
M  V30 5794 N 578.07 1.94845 5.27249 0
M  V30 5795 H 570.221 1.58867 1.40979 0
M  V30 5796 H 572.484 0.666024 0.674623 0
M  V30 5797 H 572.19 2.01473 2.88273 0
M  V30 5798 H 572.064 0.488921 3.74018 0
M  V30 5799 H 574.451 -0.109209 2.94898 0
M  V30 5800 H 574.532 1.44643 2.10979 0
M  V30 5801 H 574.176 2.64166 4.33796 0
M  V30 5802 H 574.106 1.06159 5.15789 0
M  V30 5803 H 576.597 1.15276 3.59889 0
M  V30 5804 H 576.91 2.94513 7.1448 0
M  V30 5805 H 575.255 2.64221 6.42816 0
M  V30 5806 H 578.446 1.50792 4.43147 0
M  V30 5807 H 578.619 2.32504 6.04852 0
M  V30 5808 N 572.025 -1.5352 0.356285 0
M  V30 5809 C 573.253 -2.05534 -0.237328 0
M  V30 5810 C 573.668 -1.23043 -1.43199 0
M  V30 5811 O 573.025 -0.268821 -1.80509 0
M  V30 5812 C 573.076 -3.55791 -0.639933 0
M  V30 5813 O 572.797 -4.35154 0.507233 0
M  V30 5814 C 574.298 -4.24027 -1.29292 0
M  V30 5815 H 571.518 -0.669585 -0.0435572 0
M  V30 5816 H 574.062 -1.97988 0.511963 0
M  V30 5817 H 572.217 -3.63518 -1.33915 0
M  V30 5818 H 572.631 -5.24178 0.18375 0
M  V30 5819 H 574.105 -5.30509 -1.52527 0
M  V30 5820 H 574.582 -3.77166 -2.25039 0
M  V30 5821 H 575.188 -4.20527 -0.63539 0
M  V30 5822 N 573.503 -0.0852151 -1.57369 0
M  V30 5823 C 574.75 0.580806 -1.93992 0
M  V30 5824 C 575.078 1.68801 -0.966252 0
M  V30 5825 O 574.333 1.95694 0.0158649 0
M  V30 5826 C 574.632 1.18482 -3.3719 0
M  V30 5827 C 574.298 0.2024 -4.50446 0
M  V30 5828 C 572.96 -0.0678318 -4.81152 0
M  V30 5829 C 575.312 -0.46895 -5.19086 0
M  V30 5830 C 572.64 -1.01627 -5.77831 0
M  V30 5831 C 574.992 -1.4058 -6.16782 0
M  V30 5832 C 573.656 -1.68436 -6.45899 0
M  V30 5833 H 572.926 0.212532 -0.709867 0
M  V30 5834 H 575.573 -0.158947 -1.90839 0
M  V30 5835 H 573.878 2.0006 -3.36873 0
M  V30 5836 H 575.575 1.70767 -3.62822 0
M  V30 5837 H 572.165 0.423208 -4.26505 0
M  V30 5838 H 576.349 -0.273307 -4.95547 0
M  V30 5839 H 571.605 -1.2392 -5.9871 0
M  V30 5840 H 575.779 -1.93188 -6.69068 0
M  V30 5841 H 573.406 -2.42088 -7.20623 0
M  V30 5842 N 574.981 1.5647 0.188427 0
M  V30 5843 C 576.258 1.71857 0.934058 0
M  V30 5844 C 576.638 0.641867 2.01105 0
M  V30 5845 O 575.986 -0.346098 2.25864 0
M  V30 5846 C 576.196 3.14431 1.5144 0
M  V30 5847 C 577.544 3.74869 1.99396 0
M  V30 5848 O 578.568 3.17601 1.61269 0
M  V30 5849 O 577.427 4.75387 2.69573 0
M  V30 5850 H 574.521 0.701186 0.438483 0
M  V30 5851 H 577.067 1.68768 0.177599 0
M  V30 5852 H 575.839 3.8427 0.738416 0
M  V30 5853 H 575.462 3.21775 2.33552 0
M  V30 5854 N 576.459 -0.456382 1.50847 0
M  V30 5855 C 577.708 -1.2042 1.61808 0
M  V30 5856 C 578.021 -1.9278 0.330932 0
M  V30 5857 O 579.227 -2.69612 0.319643 0
M  V30 5858 C 577.683 -2.18891 2.85683 0
M  V30 5859 C 577.291 -1.52267 4.2133 0
M  V30 5860 C 579.035 -2.94224 3.05994 0
M  V30 5861 C 576.942 -2.4911 5.36375 0
M  V30 5862 H 575.872 -0.453177 0.602616 0
M  V30 5863 H 578.523 -0.473144 1.77295 0
M  V30 5864 H 576.905 -2.95351 2.63787 0
M  V30 5865 H 578.079 -0.814949 4.53536 0
M  V30 5866 H 576.394 -0.891594 4.06743 0
M  V30 5867 H 578.991 -3.66732 3.89117 0
M  V30 5868 H 579.334 -3.54469 2.18306 0
M  V30 5869 H 579.867 -2.24874 3.28141 0
M  V30 5870 H 576.606 -1.93582 6.26264 0
M  V30 5871 H 576.126 -3.17991 5.08569 0
M  V30 5872 H 577.805 -3.10637 5.67551 0
M  V30 5873 N 577.937 -1.40673 -0.710563 0
M  V30 5874 C 579.165 -1.42547 -1.4996 0
M  V30 5875 C 579.58 -0.0265485 -1.88781 0
M  V30 5876 O 578.937 0.950694 -1.55782 0
M  V30 5877 C 578.988 -2.32071 -2.77173 0
M  V30 5878 O 578.709 -3.66518 -2.39992 0
M  V30 5879 C 580.21 -2.42591 -3.71032 0
M  V30 5880 H 577.43 -0.486025 -0.462623 0
M  V30 5881 H 579.974 -1.84783 -0.876102 0
M  V30 5882 H 578.129 -1.93184 -3.35795 0
M  V30 5883 H 578.543 -4.14115 -3.21884 0
M  V30 5884 H 580.017 -3.09429 -4.57119 0
M  V30 5885 H 580.494 -1.4525 -4.14486 0
M  V30 5886 H 581.1 -2.82051 -3.18319 0
M  V30 5887 N 579.415 0.9433 -1.26252 0
M  V30 5888 C 580.661 1.69175 -1.11837 0
M  V30 5889 C 580.994 1.91238 0.337891 0
M  V30 5890 O 580.269 1.49152 1.24836 0
M  V30 5891 C 580.552 3.06783 -1.88563 0
M  V30 5892 C 580.405 2.9206 -3.42083 0
M  V30 5893 C 581.724 4.06865 -1.67776 0
M  V30 5894 H 578.843 0.61399 -0.407658 0
M  V30 5895 H 581.485 1.09572 -1.55222 0
M  V30 5896 H 579.635 3.57663 -1.51689 0
M  V30 5897 H 581.307 2.48419 -3.88698 0
M  V30 5898 H 579.55 2.27731 -3.69217 0
M  V30 5899 H 580.221 3.89651 -3.90994 0
M  V30 5900 H 582.697 3.64939 -1.99897 0
M  V30 5901 H 581.573 5.01168 -2.23879 0
M  V30 5902 H 581.834 4.37705 -0.621816 0
M  V30 5903 N 580.893 1.08022 1.14757 0
M  V30 5904 C 582.118 0.82895 1.90114 0
M  V30 5905 C 582.543 -0.612772 1.77839 0
M  V30 5906 O 581.901 -1.42895 1.11583 0
M  V30 5907 C 581.949 1.25062 3.38219 0
M  V30 5908 O 581.053 0.400119 4.10454 0
M  V30 5909 H 580.394 0.301412 0.591648 0
M  V30 5910 H 582.924 1.44062 1.45284 0
M  V30 5911 H 582.934 1.22977 3.89025 0
M  V30 5912 H 581.609 2.30067 3.46471 0
M  V30 5913 H 580.186 0.484052 3.69745 0
M  V30 5914 N 582.371 -1.3172 0.865308 0
M  V30 5915 C 583.619 -1.96487 0.472995 0
M  V30 5916 C 583.94 -1.68761 -0.976975 0
M  V30 5917 O 583.21 -1.00051 -1.68424 0
M  V30 5918 H 581.79 -0.726947 0.171922 0
M  V30 5919 H 584.452 -1.60612 1.10407 0
M  V30 5920 H 583.548 -3.0574 0.62687 0
M  V30 5921 N 583.85 -0.624285 -1.44708 0
M  V30 5922 C 584.779 0.0717025 -2.3339 0
M  V30 5923 C 585.76 0.841814 -1.47809 0
M  V30 5924 O 586.946 0.809056 -1.76544 0
M  V30 5925 C 584.076 1.05852 -3.30776 0
M  V30 5926 C 583.029 0.400503 -4.26122 0
M  V30 5927 C 582.356 1.49674 -5.13324 0
M  V30 5928 C 583.656 -0.688924 -5.17737 0
M  V30 5929 H 585.35 -0.668819 -2.91834 0
M  V30 5930 H 582.896 -0.32308 -1.40329 0
M  V30 5931 H 584.849 1.5541 -3.91696 0
M  V30 5932 H 583.572 1.82984 -2.70526 0
M  V30 5933 H 582.231 -0.0743687 -3.66525 0
M  V30 5934 H 581.88 2.25877 -4.49431 0
M  V30 5935 H 581.58 1.06188 -5.77926 0
M  V30 5936 H 583.104 1.99427 -5.77115 0
M  V30 5937 H 584.518 -0.276724 -5.72632 0
M  V30 5938 H 582.915 -1.04652 -5.90904 0
M  V30 5939 H 583.985 -1.55884 -4.5916 0
M  V30 5940 N 585.328 1.53329 -0.364422 0
M  V30 5941 C 586.576 2.00842 0.225189 0
M  V30 5942 C 586.897 1.25345 1.49378 0
M  V30 5943 O 586.167 0.366396 1.92443 0
M  V30 5944 H 584.747 0.742009 0.0862027 0
M  V30 5945 H 587.409 1.8863 -0.490389 0
M  V30 5946 H 586.505 3.08795 0.452987 0
M  V30 5947 N 586.806 0.0935595 1.57322 0
M  V30 5948 C 588.034 -0.578934 1.98635 0
M  V30 5949 C 588.449 -1.61819 0.972626 0
M  V30 5950 O 587.806 -1.82461 -0.0379638 0
M  V30 5951 C 587.857 -1.22802 3.40003 0
M  V30 5952 O 587.578 -0.230334 4.37494 0
M  V30 5953 C 589.079 -1.98627 3.96311 0
M  V30 5954 H 586.299 -0.155324 0.652775 0
M  V30 5955 H 588.843 0.172393 2.03772 0
M  V30 5956 H 586.998 -1.93029 3.35885 0
M  V30 5957 H 587.412 -0.698649 5.19826 0
M  V30 5958 H 588.886 -2.39405 4.97382 0
M  V30 5959 H 589.363 -2.85151 3.34044 0
M  V30 5960 H 589.969 -1.3322 4.03897 0
M  V30 5961 N 588.284 -1.56567 -0.180126 0
M  V30 5962 C 589.247 -1.94852 -1.20686 0
M  V30 5963 C 590.247 -0.831212 -1.3765 0
M  V30 5964 O 591.437 -1.09841 -1.35206 0
M  V30 5965 C 588.569 -2.23565 -2.57355 0
M  V30 5966 H 589.762 -2.86722 -0.879225 0
M  V30 5967 H 587.315 -1.50489 -0.422237 0
M  V30 5968 H 588.05 -1.34381 -2.95148 0
M  V30 5969 H 587.835 -3.04999 -2.46411 0
M  V30 5970 H 589.325 -2.54137 -3.31367 0
M  V30 5971 N 589.762 0.448376 -1.51087 0
M  V30 5972 C 591.173 1.0286 -1.5581 0
M  V30 5973 C 591.524 1.92583 -0.374989 0
M  V30 5974 O 590.649 2.10316 0.509533 0
M  V30 5975 C 591.244 1.87223 -2.8237 0
M  V30 5976 C 589.803 2.40314 -2.897 0
M  V30 5977 C 588.95 1.19238 -2.50355 0
M  V30 5978 H 591.901 0.230075 -1.57023 0
M  V30 5979 H 591.922 2.72553 -2.6551 0
M  V30 5980 H 591.434 1.21894 -3.68461 0
M  V30 5981 H 589.535 3.09129 -2.08014 0
M  V30 5982 H 589.648 2.73866 -3.93108 0
M  V30 5983 H 588.012 1.53428 -2.03303 0
M  V30 5984 H 588.795 0.555367 -3.38778 0
M  V30 5985 N 591.24 1.41047 0.703093 0
M  V30 5986 C 592.187 1.42302 1.81711 0
M  V30 5987 C 593.157 0.278336 1.63751 0
M  V30 5988 O 594.342 0.478266 1.84709 0
M  V30 5989 C 591.482 1.30362 3.19531 0
M  V30 5990 C 590.595 2.54638 3.48975 0
M  V30 5991 C 589.73 2.35047 4.76368 0
M  V30 5992 C 588.769 3.54837 4.98756 0
M  V30 5993 N 587.906 3.34363 6.1737 0
M  V30 5994 H 592.746 2.37516 1.79973 0
M  V30 5995 H 590.283 1.1795 0.878983 0
M  V30 5996 H 592.241 1.21443 3.99134 0
M  V30 5997 H 590.871 0.387602 3.20464 0
M  V30 5998 H 589.923 2.74037 2.63833 0
M  V30 5999 H 591.235 3.43766 3.61423 0
M  V30 6000 H 590.389 2.23552 5.64012 0
M  V30 6001 H 589.128 1.43363 4.66153 0
M  V30 6002 H 588.133 3.66795 4.09563 0
M  V30 6003 H 589.358 4.47464 5.10835 0
M  V30 6004 H 587.304 2.45373 6.08382 0
M  V30 6005 H 587.221 4.17063 6.30551 0
M  V30 6006 H 588.489 3.26626 7.07768 0
M  V30 6007 N 592.718 -0.936591 1.26751 0
M  V30 6008 C 593.946 -1.71758 1.15355 0
M  V30 6009 C 594.361 -1.86549 -0.290683 0
M  V30 6010 O 593.718 -1.37616 -1.19868 0
M  V30 6011 C 593.769 -3.12193 1.82258 0
M  V30 6012 O 593.49 -2.98105 3.21038 0
M  V30 6013 C 594.991 -4.06485 1.76875 0
M  V30 6014 H 592.211 -0.537636 0.401483 0
M  V30 6015 H 594.755 -1.17382 1.67457 0
M  V30 6016 H 592.91 -3.63456 1.34083 0
M  V30 6017 H 593.324 -3.86824 3.54214 0
M  V30 6018 H 594.798 -5.02569 2.28316 0
M  V30 6019 H 595.275 -4.32986 0.736216 0
M  V30 6020 H 595.881 -3.61144 2.24623 0
M  V30 6021 N 594.196 -1.08629 -1.14182 0
M  V30 6022 C 595.126 -0.740003 -2.21464 0
M  V30 6023 C 596.107 0.278591 -1.67803 0
M  V30 6024 O 597.292 0.148461 -1.93632 0
M  V30 6025 C 594.422 -0.150952 -3.46972 0
M  V30 6026 C 593.376 -1.09815 -4.13672 0
M  V30 6027 C 592.702 -0.3712 -5.3341 0
M  V30 6028 C 594.002 -2.43722 -4.61949 0
M  V30 6029 H 595.696 -1.63697 -2.50686 0
M  V30 6030 H 593.242 -0.788526 -1.20492 0
M  V30 6031 H 595.195 0.103325 -4.21273 0
M  V30 6032 H 593.919 0.781164 -3.1712 0
M  V30 6033 H 592.578 -1.33756 -3.41328 0
M  V30 6034 H 592.226 0.564792 -4.99819 0
M  V30 6035 H 591.926 -1.00267 -5.78982 0
M  V30 6036 H 593.45 -0.12503 -6.10472 0
M  V30 6037 H 594.864 -2.24034 -5.27714 0
M  V30 6038 H 593.261 -3.02582 -5.18232 0
M  V30 6039 H 594.331 -3.05082 -3.76899 0
M  V30 6040 N 595.674 1.31259 -0.872281 0
M  V30 6041 C 596.923 1.95893 -0.480493 0
M  V30 6042 C 597.236 1.697 0.972688 0
M  V30 6043 O 598.442 2.28214 1.47073 0
M  V30 6044 C 596.898 3.50705 -0.808342 0
M  V30 6045 C 596.506 3.85735 -2.27844 0
M  V30 6046 C 598.25 4.21719 -0.485136 0
M  V30 6047 C 596.157 5.33668 -2.54858 0
M  V30 6048 H 595.087 0.733182 -0.175955 0
M  V30 6049 H 597.738 1.49396 -1.0655 0
M  V30 6050 H 596.12 3.95706 -0.152558 0
M  V30 6051 H 597.294 3.51686 -2.97748 0
M  V30 6052 H 595.609 3.27792 -2.56791 0
M  V30 6053 H 598.206 5.30559 -0.664166 0
M  V30 6054 H 598.549 4.12316 0.574592 0
M  V30 6055 H 599.082 3.82359 -1.09756 0
M  V30 6056 H 595.821 5.48109 -3.59523 0
M  V30 6057 H 595.341 5.69061 -1.8955 0
M  V30 6058 H 597.02 6.00958 -2.39706 0
M  V30 6059 N 597.152 0.631951 1.44375 0
M  V30 6060 C 598.401 0.134214 2.01253 0
M  V30 6061 C 598.714 -1.25171 1.50305 0
M  V30 6062 O 599.92 -1.8435 1.99317 0
M  V30 6063 C 598.376 0.189187 3.59402 0
M  V30 6064 C 597.984 1.57647 4.19346 0
M  V30 6065 C 599.728 -0.252044 4.23751 0
M  V30 6066 C 597.635 1.58651 5.69722 0
M  V30 6067 H 596.565 0.0464101 0.75257 0
M  V30 6068 H 599.216 0.790868 1.65582 0
M  V30 6069 H 597.598 -0.534584 3.92375 0
M  V30 6070 H 598.772 2.32389 3.97909 0
M  V30 6071 H 597.087 1.96186 3.67288 0
M  V30 6072 H 599.684 -0.264084 5.34047 0
M  V30 6073 H 600.027 -1.27951 3.96149 0
M  V30 6074 H 600.56 0.41926 3.95584 0
M  V30 6075 H 597.299 2.59237 6.0206 0
M  V30 6076 H 596.819 0.882039 5.93279 0
M  V30 6077 H 598.498 1.32082 6.33375 0
M  V30 6078 N 598.631 -1.53133 0.372548 0
M  V30 6079 C 599.859 -2.05774 -0.215515 0
M  V30 6080 C 600.274 -1.24555 -1.41886 0
M  V30 6081 O 599.631 -0.287951 -1.80214 0
M  V30 6082 C 599.682 -3.5645 -0.602161 0
M  V30 6083 O 599.403 -4.34591 0.553359 0
M  V30 6084 C 600.904 -4.25374 -1.24787 0
M  V30 6085 H 598.124 -0.670009 -0.0364529 0
M  V30 6086 H 600.668 -1.97434 0.532934 0
M  V30 6087 H 598.823 -3.64918 -1.30052 0
M  V30 6088 H 599.237 -5.23954 0.239336 0
M  V30 6089 H 600.711 -5.32097 -1.46891 0
M  V30 6090 H 601.188 -3.79531 -2.21026 0
M  V30 6091 H 601.794 -4.21177 -0.590752 0
M  V30 6092 N 600.109 -0.101901 -1.5727 0
M  V30 6093 C 601.525 0.254739 -1.57554 0
M  V30 6094 C 601.725 1.67937 -1.11352 0
M  V30 6095 O 600.781 2.39722 -0.793081 0
M  V30 6096 C 602.094 0.036975 -3.00677 0
M  V30 6097 C 603.642 0.104199 -3.12827 0
M  V30 6098 C 604.117 -0.0856565 -4.5792 0
M  V30 6099 N 605.608 -0.0310498 -4.6319 0
M  V30 6100 C 606.343 -0.153099 -5.73196 0
M  V30 6101 N 605.839 -0.330364 -6.92012 0
M  V30 6102 N 607.632 -0.0938854 -5.62022 0
M  V30 6103 H 599.783 -1.03263 -1.85609 0
M  V30 6104 H 602.046 -0.405251 -0.857016 0
M  V30 6105 H 601.752 -0.947254 -3.38703 0
M  V30 6106 H 601.626 0.776335 -3.69124 0
M  V30 6107 H 604.013 1.07894 -2.74669 0
M  V30 6108 H 604.094 -0.666762 -2.46957 0
M  V30 6109 H 603.738 -1.05729 -4.96773 0
M  V30 6110 H 603.668 0.705082 -5.21858 0
M  V30 6111 H 606.159 0.103141 -3.77759 0
M  V30 6112 H 606.472 -0.41482 -7.71686 0
M  V30 6113 H 604.817 -0.366119 -6.94035 0
M  V30 6114 H 608.008 0.0435168 -4.6808 0
M  V30 6115 H 608.181 -0.19245 -6.47714 0
M  V30 6116 N 601.587 1.56661 0.17182 0
M  V30 6117 C 602.815 1.861 0.904115 0
M  V30 6118 C 603.23 0.687227 1.75848 0
M  V30 6119 O 602.587 -0.343671 1.79235 0
M  V30 6120 C 602.638 3.14568 1.78127 0
M  V30 6121 O 602.359 4.27422 0.961366 0
M  V30 6122 C 603.86 3.5735 2.62327 0
M  V30 6123 H 601.08 0.617445 0.262684 0
M  V30 6124 H 603.624 2.03775 0.172068 0
M  V30 6125 H 601.779 2.98721 2.46666 0
M  V30 6126 H 602.193 5.00725 1.56123 0
M  V30 6127 H 603.667 4.50144 3.1949 0
M  V30 6128 H 604.144 2.81445 3.37173 0
M  V30 6129 H 604.75 3.75807 1.99121 0
M  V30 6130 N 603.065 -0.440357 1.51323 0
M  V30 6131 C 604.028 -1.51679 1.71832 0
M  V30 6132 C 605.028 -1.49648 0.588386 0
M  V30 6133 O 606.218 -1.51724 0.855891 0
M  V30 6134 C 603.35 -2.91228 1.77199 0
M  V30 6135 H 604.543 -1.34799 2.67898 0
M  V30 6136 H 602.096 -0.66883 1.41267 0
M  V30 6137 H 602.831 -3.13516 0.829363 0
M  V30 6138 H 602.616 -2.94107 2.59314 0
M  V30 6139 H 604.106 -3.69321 1.94915 0
M  V30 6140 N 604.543 -1.41418 -0.695603 0
M  V30 6141 C 605.771 -1.4413 -1.48439 0
M  V30 6142 C 606.186 -0.0465698 -1.88743 0
M  V30 6143 O 605.543 0.934117 -1.56782 0
M  V30 6144 C 605.594 -2.34998 -2.74696 0
M  V30 6145 O 605.315 -3.69043 -2.36091 0
M  V30 6146 C 606.816 -2.46513 -3.68438 0
M  V30 6147 H 604.036 -0.490905 -0.457442 0
M  V30 6148 H 606.58 -1.85702 -0.856454 0
M  V30 6149 H 604.735 -1.96735 -3.33728 0
M  V30 6150 H 605.149 -4.17505 -3.17474 0
M  V30 6151 H 606.623 -3.1426 -4.53811 0
M  V30 6152 H 607.1 -1.49638 -4.12922 0
M  V30 6153 H 607.706 -2.85412 -3.1531 0
M  V30 6154 N 606.021 0.929856 -1.27246 0
M  V30 6155 C 606.969 2.05151 -1.09616 0
M  V30 6156 C 607.963 1.69388 -0.0198617 0
M  V30 6157 O 609.169 1.79124 -0.177417 0
M  V30 6158 H 605.544 0.671909 -0.337701 0
M  V30 6159 H 607.515 2.17168 -2.04648 0
M  V30 6160 C 606.264 3.3934 -0.757851 0
M  V30 6161 H 605.587 3.67343 -1.57795 0
M  V30 6162 H 607.027 4.18603 -0.674358 0
M  V30 6163 C 605.486 3.32582 0.537658 0
M  V30 6164 O 606.016 3.69633 1.57271 0
M  V30 6165 N 604.222 2.8568 0.532478 0
M  V30 6166 H 603.769 2.55725 -0.310233 0
M  V30 6167 H 603.727 2.81541 1.39936 0
M  V30 6168 N 607.499 1.09233 1.13605 0
M  V30 6169 C 608.462 0.733553 2.17144 0
M  V30 6170 C 609.462 -0.235873 1.59061 0
M  V30 6171 O 610.652 -0.0143167 1.74194 0
M  V30 6172 C 607.784 0.084471 3.40795 0
M  V30 6173 H 608.977 1.65049 2.50397 0
M  V30 6174 H 606.53 0.891264 1.28399 0
M  V30 6175 H 607.265 -0.843795 3.1313 0
M  V30 6176 H 607.05 0.781985 3.84223 0
M  V30 6177 H 608.54 -0.151216 4.17326 0
M  V30 6178 N 608.977 -1.30795 0.87923 0
M  V30 6179 C 610.205 -2.00527 0.509548 0
M  V30 6180 C 610.62 -1.65944 -0.90045 0
M  V30 6181 O 609.977 -0.893525 -1.5913 0
M  V30 6182 C 610.028 -3.55276 0.667943 0
M  V30 6183 O 609.749 -3.88625 2.02242 0
M  V30 6184 C 611.25 -4.4228 0.300494 0
M  V30 6185 H 608.47 -0.641261 0.197549 0
M  V30 6186 H 611.014 -1.66813 1.18295 0
M  V30 6187 H 609.169 -3.87377 0.0419843 0
M  V30 6188 H 609.583 -4.83334 2.03688 0
M  V30 6189 H 611.057 -5.50061 0.462242 0
M  V30 6190 H 611.534 -4.32556 -0.76106 0
M  V30 6191 H 612.14 -4.15613 0.902536 0
M  V30 6192 N 610.455 -0.639598 -1.44038 0
M  V30 6193 C 611.683 -0.154811 -2.0632 0
M  V30 6194 C 612.098 1.17406 -1.47856 0
M  V30 6195 O 611.455 1.72193 -0.604638 0
M  V30 6196 C 611.506 -0.0429958 -3.61474 0
M  V30 6197 O 611.227 -1.31932 -4.17763 0
M  V30 6198 C 612.728 0.469486 -4.40807 0
M  V30 6199 H 609.948 -0.0835862 -0.665773 0
M  V30 6200 H 612.492 -0.876397 -1.84769 0
M  V30 6201 H 610.647 0.629075 -3.82258 0
M  V30 6202 H 611.061 -1.16965 -5.11292 0
M  V30 6203 H 612.535 0.496712 -5.49761 0
M  V30 6204 H 613.012 1.49819 -4.12857 0
M  V30 6205 H 613.618 -0.169624 -4.24962 0
M  V30 6206 N 611.933 1.52934 -0.380664 0
M  V30 6207 C 613.161 2.05886 0.204599 0
M  V30 6208 C 613.576 1.25305 1.41223 0
M  V30 6209 O 612.933 0.297504 1.80059 0
M  V30 6210 C 612.984 3.56764 0.583249 0
M  V30 6211 O 612.705 4.34292 -0.576398 0
M  V30 6212 C 614.206 4.2603 1.2253 0
M  V30 6213 H 611.426 0.670193 0.0328991 0
M  V30 6214 H 613.97 1.97148 -0.543397 0
M  V30 6215 H 612.125 3.65603 1.28115 0
M  V30 6216 H 612.539 5.23819 -0.267119 0
M  V30 6217 H 614.013 5.32868 1.44068 0
M  V30 6218 H 614.49 3.80698 2.19011 0
M  V30 6219 H 615.096 4.21485 0.568407 0
M  V30 6220 N 613.412 0.11024 1.57214 0
M  V30 6221 C 614.64 -0.557834 1.99238 0
M  V30 6222 C 615.055 -1.60778 0.989734 0
M  V30 6223 O 614.412 -1.82491 -0.0186092 0
M  V30 6224 C 614.463 -1.19189 3.41286 0
M  V30 6225 O 614.184 -0.183919 4.37714 0
M  V30 6226 C 615.685 -1.94413 3.98395 0
M  V30 6227 H 612.905 -0.148392 0.654386 0
M  V30 6228 H 615.449 0.193996 2.03578 0
M  V30 6229 H 613.604 -1.89456 3.37913 0
M  V30 6230 H 614.018 -0.643475 5.20538 0
M  V30 6231 H 615.492 -2.34116 4.99894 0
M  V30 6232 H 615.969 -2.81592 3.3705 0
M  V30 6233 H 616.575 -1.28928 4.05287 0
M  V30 6234 N 614.89 -1.56749 -0.16351 0
M  V30 6235 C 615.84 -1.93424 -1.20712 0
M  V30 6236 C 616.824 -0.803469 -1.39403 0
M  V30 6237 O 618.016 -1.06675 -1.41243 0
M  V30 6238 C 615.145 -2.30431 -2.54473 0
M  V30 6239 C 614.231 -3.5004 -2.39443 0
M  V30 6240 N 614.622 -4.67058 -1.9414 0
M  V30 6241 C 612.92 -3.548 -2.70246 0
M  V30 6242 C 613.621 -5.49184 -1.9176 0
M  V30 6243 N 612.597 -4.9044 -2.34457 0
M  V30 6244 H 616.399 -2.8138 -0.848681 0
M  V30 6245 H 613.913 -1.58089 -0.371717 0
M  V30 6246 H 615.91 -2.54903 -3.29894 0
M  V30 6247 H 614.57 -1.43818 -2.91112 0
M  V30 6248 H 615.581 -4.91128 -1.64357 0
M  V30 6249 H 612.258 -2.78685 -3.10871 0
M  V30 6250 H 613.648 -6.5297 -1.58366 0
M  V30 6251 N 616.368 0.432326 -1.51554 0
M  V30 6252 C 617.315 1.52512 -1.7323 0
M  V30 6253 C 618.285 1.55863 -0.5741 0
M  V30 6254 O 619.47 1.72796 -0.809093 0
M  V30 6255 C 616.61 2.90183 -1.86783 0
M  V30 6256 C 615.723 2.96322 -3.14352 0
M  V30 6257 C 614.858 4.25147 -3.18471 0
M  V30 6258 C 613.897 4.25172 -4.40335 0
M  V30 6259 N 613.034 5.45529 -4.41975 0
M  V30 6260 H 617.874 1.33332 -2.66508 0
M  V30 6261 H 615.411 0.647613 -1.32077 0
M  V30 6262 H 617.369 3.70071 -1.92623 0
M  V30 6263 H 615.999 3.0791 -0.969087 0
M  V30 6264 H 615.051 2.09066 -3.17798 0
M  V30 6265 H 616.363 2.92203 -4.04251 0
M  V30 6266 H 615.517 5.13411 -3.23255 0
M  V30 6267 H 614.256 4.31929 -2.2647 0
M  V30 6268 H 613.261 3.353 -4.35723 0
M  V30 6269 H 614.486 4.20049 -5.33606 0
M  V30 6270 H 612.432 5.53024 -3.52847 0
M  V30 6271 H 612.349 5.43311 -5.25689 0
M  V30 6272 H 613.617 6.35812 -4.50958 0
M  V30 6273 N 617.846 1.41785 0.688094 0
M  V30 6274 C 619.092 1.41753 1.4503 0
M  V30 6275 C 619.425 0.0290745 1.94178 0
M  V30 6276 O 618.7 -0.944456 1.7003 0
M  V30 6277 C 618.983 2.43069 2.65686 0
M  V30 6278 C 618.836 3.91053 2.22256 0
M  V30 6279 C 620.155 2.41543 3.67893 0
M  V30 6280 H 617.274 0.516202 0.526027 0
M  V30 6281 H 619.916 1.73111 0.783105 0
M  V30 6282 H 618.066 2.1646 3.2261 0
M  V30 6283 H 619.738 4.28594 1.70602 0
M  V30 6284 H 617.981 4.05559 1.53963 0
M  V30 6285 H 618.652 4.57501 3.08863 0
M  V30 6286 H 621.128 2.65175 3.20658 0
M  V30 6287 H 620.004 3.14434 4.49914 0
M  V30 6288 H 620.265 1.43666 4.18106 0
M  V30 6289 N 619.324 -0.923095 1.27737 0
M  V30 6290 C 620.573 -1.66581 1.13727 0
M  V30 6291 C 620.886 -1.9304 -0.315433 0
M  V30 6292 O 622.092 -2.65309 -0.57651 0
M  V30 6293 C 620.548 -3.00047 1.98745 0
M  V30 6294 C 620.156 -2.8127 3.48699 0
M  V30 6295 C 621.9 -3.77887 1.93395 0
M  V30 6296 C 619.807 -4.1032 4.25901 0
M  V30 6297 H 618.737 -0.624834 0.422017 0
M  V30 6298 H 621.388 -1.02514 1.52194 0
M  V30 6299 H 619.77 -3.65197 1.53125 0
M  V30 6300 H 620.944 -2.24859 4.02213 0
M  V30 6301 H 619.259 -2.16854 3.55476 0
M  V30 6302 H 621.856 -4.73526 2.48348 0
M  V30 6303 H 622.199 -4.06264 0.908605 0
M  V30 6304 H 622.732 -3.19541 2.36935 0
M  V30 6305 H 619.471 -3.8712 5.28978 0
M  V30 6306 H 618.991 -4.66377 3.77163 0
M  V30 6307 H 620.67 -4.78648 4.35321 0
M  V30 6308 N 620.802 -1.09834 -1.13024 0
M  V30 6309 C 622.049 -0.83695 -1.84395 0
M  V30 6310 C 622.377 0.637463 -1.83757 0
M  V30 6311 O 621.632 1.48554 -1.27398 0
M  V30 6312 C 621.931 -1.32263 -3.32026 0
M  V30 6313 C 621.597 -2.80739 -3.52841 0
M  V30 6314 C 620.259 -3.21286 -3.5823 0
M  V30 6315 C 622.611 -3.76449 -3.60466 0
M  V30 6316 C 619.939 -4.56308 -3.68781 0
M  V30 6317 C 622.291 -5.11266 -3.72546 0
M  V30 6318 C 620.955 -5.51397 -3.76189 0
M  V30 6319 H 620.225 -0.306262 -0.674748 0
M  V30 6320 H 622.872 -1.37385 -1.33408 0
M  V30 6321 H 621.177 -0.705618 -3.85394 0
M  V30 6322 H 622.874 -1.09695 -3.85705 0
M  V30 6323 H 619.464 -2.48363 -3.49305 0
M  V30 6324 H 623.648 -3.46234 -3.55578 0
M  V30 6325 H 618.904 -4.86832 -3.69871 0
M  V30 6326 H 623.078 -5.85279 -3.77388 0
M  V30 6327 H 620.705 -6.56017 -3.84117 0
M  V30 6328 N 622.28 1.30327 -0.886154 0
M  V30 6329 C 623.505 2.0079 -0.519425 0
M  V30 6330 C 623.93 1.65979 0.885013 0
M  V30 6331 O 623.288 0.877043 1.58675 0
M  V30 6332 C 623.336 3.53686 -0.702758 0
M  V30 6333 O 622.44 4.11637 0.250828 0
M  V30 6334 H 621.781 0.63171 -0.204544 0
M  V30 6335 H 624.311 1.66145 -1.19402 0
M  V30 6336 H 624.321 4.03531 -0.602207 0
M  V30 6337 H 622.996 3.78361 -1.72673 0
M  V30 6338 H 621.573 3.72755 0.103873 0
M  V30 6339 N 623.758 0.647228 1.43697 0
M  V30 6340 C 624.705 -0.0480092 2.3075 0
M  V30 6341 C 625.675 -0.820705 1.44408 0
M  V30 6342 O 626.86 -0.798515 1.73287 0
M  V30 6343 C 624 -1.01259 3.2991 0
M  V30 6344 C 623.113 -0.236629 4.31351 0
M  V30 6345 C 622.248 -1.19447 5.17596 0
M  V30 6346 C 621.287 -0.408595 6.10735 0
M  V30 6347 N 620.424 -1.31772 6.89623 0
M  V30 6348 H 625.264 0.700238 2.89656 0
M  V30 6349 H 622.801 0.357082 1.427 0
M  V30 6350 H 624.759 -1.58538 3.85903 0
M  V30 6351 H 623.389 -1.72778 2.72667 0
M  V30 6352 H 622.441 0.452353 3.77701 0
M  V30 6353 H 623.753 0.374731 4.9739 0
M  V30 6354 H 622.907 -1.83809 5.78186 0
M  V30 6355 H 621.646 -1.83975 4.51669 0
M  V30 6356 H 620.651 0.24841 5.49239 0
M  V30 6357 H 621.876 0.232188 6.78703 0
M  V30 6358 H 619.822 -1.94991 6.2635 0
M  V30 6359 H 619.739 -0.760779 7.52162 0
M  V30 6360 H 621.007 -1.94967 7.54724 0
M  V30 6361 N 625.236 -1.5273 0.388769 0
M  V30 6362 C 626.199 -2.25043 -0.434544 0
M  V30 6363 C 627.199 -1.26661 -0.990644 0
M  V30 6364 O 628.389 -1.50762 -0.872731 0
M  V30 6365 C 625.521 -3.00507 -1.60961 0
M  V30 6366 H 626.714 -2.99242 0.198549 0
M  V30 6367 H 624.267 -1.55664 0.140875 0
M  V30 6368 H 625.002 -2.30607 -2.28015 0
M  V30 6369 H 624.787 -3.72716 -1.21757 0
M  V30 6370 H 626.277 -3.55413 -2.19251 0
M  V30 6371 N 626.714 -0.118576 -1.57153 0
M  V30 6372 C 628.125 0.40687 -1.82213 0
M  V30 6373 C 628.476 1.66636 -1.03571 0
M  V30 6374 O 627.601 2.14682 -0.272171 0
M  V30 6375 C 628.196 0.744949 -3.30509 0
M  V30 6376 C 626.755 1.21503 -3.5625 0
M  V30 6377 C 625.902 0.223511 -2.76398 0
M  V30 6378 H 628.853 -0.343712 -1.54933 0
M  V30 6379 H 628.874 1.6024 -3.45114 0
M  V30 6380 H 628.386 -0.171911 -3.87719 0
M  V30 6381 H 626.487 2.1488 -3.04396 0
M  V30 6382 H 626.6 1.16065 -4.64829 0
M  V30 6383 H 624.964 0.71046 -2.44591 0
M  V30 6384 H 625.747 -0.686439 -3.36367 0
M  V30 6385 N 628.193 1.56834 0.155195 0
M  V30 6386 C 629.103 2.009 1.21146 0
M  V30 6387 C 630.119 0.923029 1.475 0
M  V30 6388 O 631.295 1.23189 1.59331 0
M  V30 6389 C 628.36 2.37378 2.52691 0
M  V30 6390 C 627.421 3.59883 2.34057 0
M  V30 6391 C 626.654 3.94612 3.59329 0
M  V30 6392 O 626.877 3.30104 4.65175 0
M  V30 6393 O 625.811 4.87895 3.52479 0
M  V30 6394 H 629.637 2.9105 0.867371 0
M  V30 6395 H 627.222 1.44916 0.363298 0
M  V30 6396 H 629.104 2.61737 3.3026 0
M  V30 6397 H 627.779 1.50385 2.86646 0
M  V30 6398 H 626.686 3.40722 1.54465 0
M  V30 6399 H 628.019 4.47468 2.0502 0
M  V30 6400 N 629.671 -0.424282 1.51781 0
M  V30 6401 C 630.896 -1.19928 1.6921 0
M  V30 6402 C 631.321 -1.8392 0.394355 0
M  V30 6403 O 630.679 -1.69371 -0.646778 0
M  V30 6404 C 630.727 -2.24937 2.81843 0
M  V30 6405 O 629.831 -3.3073 2.46356 0
M  V30 6406 H 629.172 -0.35078 0.563781 0
M  V30 6407 H 631.702 -0.499401 1.98412 0
M  V30 6408 H 631.712 -2.69512 3.06312 0
M  V30 6409 H 630.387 -1.77742 3.76006 0
M  V30 6410 H 628.964 -2.9154 2.32505 0
M  V30 6411 N 631.149 -1.42148 -0.680565 0
M  V30 6412 C 632.377 -1.45696 -1.46902 0
M  V30 6413 C 632.792 -0.0665858 -1.88683 0
M  V30 6414 O 632.149 0.917436 -1.57764 0
M  V30 6415 C 632.2 -2.37898 -2.72188 0
M  V30 6416 O 631.921 -3.71526 -2.32163 0
M  V30 6417 C 633.422 -2.50407 -3.65802 0
M  V30 6418 H 630.642 -0.495729 -0.45221 0
M  V30 6419 H 633.186 -1.866 -0.836709 0
M  V30 6420 H 631.341 -2.00263 -3.31622 0
M  V30 6421 H 631.755 -4.20849 -3.13027 0
M  V30 6422 H 633.229 -3.19056 -4.50452 0
M  V30 6423 H 633.706 -1.5401 -4.11312 0
M  V30 6424 H 634.312 -2.8874 -3.12265 0
M  V30 6425 N 632.627 0.916307 -1.28225 0
M  V30 6426 C 633.855 1.69901 -1.18073 0
M  V30 6427 C 634.27 1.86988 0.260968 0
M  V30 6428 O 633.627 1.39505 1.17663 0
M  V30 6429 C 633.678 3.09254 -1.87201 0
M  V30 6430 O 633.399 2.92959 -3.2574 0
M  V30 6431 C 634.9 4.0362 -1.83319 0
M  V30 6432 H 632.12 0.531181 -0.409985 0
M  V30 6433 H 634.664 1.14703 -1.69303 0
M  V30 6434 H 632.819 3.61277 -1.39848 0
M  V30 6435 H 633.233 3.81139 -3.60324 0
M  V30 6436 H 634.707 4.98873 -2.36282 0
M  V30 6437 H 635.184 4.3176 -0.805007 0
M  V30 6438 H 635.79 3.57524 -2.3034 0
M  V30 6439 N 634.105 1.10431 1.1244 0
M  V30 6440 C 635.333 0.868872 1.87772 0
M  V30 6441 C 635.748 -0.580645 1.7965 0
M  V30 6442 O 635.105 -1.40031 1.17036 0
M  V30 6443 C 635.156 1.30855 3.36986 0
M  V30 6444 O 634.877 2.70123 3.44914 0
M  V30 6445 C 636.378 1.107 4.29256 0
M  V30 6446 H 633.598 0.311868 0.59412 0
M  V30 6447 H 636.142 1.46897 1.42273 0
M  V30 6448 H 634.297 0.752126 3.80029 0
M  V30 6449 H 634.711 2.88923 4.37748 0
M  V30 6450 H 636.185 1.46378 5.32238 0
M  V30 6451 H 636.662 0.0456228 4.39176 0
M  V30 6452 H 637.268 1.64988 3.91994 0
M  V30 6453 N 635.583 -1.29855 0.893053 0
M  V30 6454 C 636.808 -2.00512 0.530066 0
M  V30 6455 C 637.233 -1.66446 -0.876199 0
M  V30 6456 O 636.591 -0.885446 -1.58207 0
M  V30 6457 C 636.639 -3.53308 0.721505 0
M  V30 6458 O 635.743 -4.11764 -0.228994 0
M  V30 6459 H 635.084 -0.630617 0.207891 0
M  V30 6460 H 637.614 -1.6551 1.20282 0
M  V30 6461 H 637.624 -4.03206 0.623599 0
M  V30 6462 H 636.299 -3.77439 1.74678 0
M  V30 6463 H 634.876 -3.72805 -0.0841034 0
M  V30 6464 N 637.061 -0.65484 -1.43351 0
M  V30 6465 C 638.472 -0.248506 -1.85039 0
M  V30 6466 C 638.823 1.20526 -1.54816 0
M  V30 6467 O 637.948 1.92016 -0.99794 0
M  V30 6468 C 638.543 -0.444241 -3.35875 0
M  V30 6469 C 637.102 -0.0922108 -3.76287 0
M  V30 6470 C 636.249 -0.746327 -2.67068 0
M  V30 6471 H 639.2 -0.8584 -1.33481 0
M  V30 6472 H 639.221 0.309762 -3.79237 0
M  V30 6473 H 638.733 -1.50239 -3.5784 0
M  V30 6474 H 636.834 0.96328 -3.59933 0
M  V30 6475 H 636.947 -0.518807 -4.76283 0
M  V30 6476 H 635.311 -0.179416 -2.54067 0
M  V30 6477 H 636.094 -1.80754 -2.91861 0
M  V30 6478 N 638.539 1.52521 -0.396863 0
M  V30 6479 C 639.767 2.06091 0.18275 0
M  V30 6480 C 640.182 1.26796 1.39886 0
M  V30 6481 O 639.539 0.316585 1.79733 0
M  V30 6482 C 639.59 3.57362 0.545377 0
M  V30 6483 O 639.311 4.33656 -0.622428 0
M  V30 6484 C 640.812 4.27305 1.18004 0
M  V30 6485 H 638.032 0.670504 0.025789 0
M  V30 6486 H 640.576 1.96561 -0.564276 0
M  V30 6487 H 638.731 3.66941 1.2423 0
M  V30 6488 H 639.145 5.23507 -0.322662 0
M  V30 6489 H 640.619 5.34366 1.38408 0
M  V30 6490 H 641.096 3.83 2.1496 0
M  V30 6491 H 641.702 4.22064 0.523671 0
M  V30 6492 N 640.017 0.126909 1.57088 0
M  V30 6493 C 640.947 -0.816847 2.18746 0
M  V30 6494 C 641.928 -1.27161 1.12979 0
M  V30 6495 O 643.113 -1.33279 1.41246 0
M  V30 6496 C 640.243 -2.06398 2.79315 0
M  V30 6497 C 639.197 -1.74673 3.90735 0
M  V30 6498 C 638.523 -3.06482 4.38147 0
M  V30 6499 C 639.823 -1.0089 5.12463 0
M  V30 6500 H 641.517 -0.303032 2.97863 0
M  V30 6501 H 639.063 -0.144314 1.43275 0
M  V30 6502 H 641.016 -2.72885 3.2111 0
M  V30 6503 H 639.74 -2.60118 1.975 0
M  V30 6504 H 638.399 -1.10572 3.49527 0
M  V30 6505 H 638.047 -3.58152 3.5318 0
M  V30 6506 H 637.747 -2.86025 5.13287 0
M  V30 6507 H 639.271 -3.74073 4.82599 0
M  V30 6508 H 640.685 -1.57546 5.51228 0
M  V30 6509 H 639.082 -0.905006 5.93237 0
M  V30 6510 H 640.152 0.00297335 4.849 0
M  V30 6511 N 641.495 -1.56914 -0.146875 0
M  V30 6512 C 642.443 -1.99224 -1.20053 0
M  V30 6513 C 643.437 -0.884661 -1.44465 0
M  V30 6514 O 644.643 -1.06984 -1.44756 0
M  V30 6515 H 641.018 -0.634191 -0.404112 0
M  V30 6516 H 642.989 -2.86998 -0.816987 0
M  V30 6517 C 641.738 -2.38899 -2.52632 0
M  V30 6518 H 641.061 -3.23677 -2.34677 0
M  V30 6519 H 642.501 -2.72326 -3.24984 0
M  V30 6520 C 640.96 -1.2417 -3.13183 0
M  V30 6521 O 641.49 -0.542503 -3.9802 0
M  V30 6522 N 639.696 -1.00592 -2.72635 0
M  V30 6523 H 639.243 -1.57627 -2.03744 0
M  V30 6524 H 639.201 -0.240174 -3.13481 0
M  V30 6525 N 642.974 0.416227 -1.52004 0
M  V30 6526 C 644.202 1.18573 -1.69553 0
M  V30 6527 C 644.617 1.84472 -0.401919 0
M  V30 6528 O 643.974 1.71593 0.621463 0
M  V30 6529 C 644.025 2.25413 -2.82615 0
M  V30 6530 O 643.746 1.62205 -4.06966 0
M  V30 6531 C 645.247 3.15297 -3.11613 0
M  V30 6532 H 642.467 0.356582 -0.56841 0
M  V30 6533 H 645.011 0.490618 -1.98528 0
M  V30 6534 H 643.166 2.90604 -2.56179 0
M  V30 6535 H 643.58 2.3298 -4.69916 0
M  V30 6536 H 645.054 3.86351 -3.94255 0
M  V30 6537 H 645.531 3.77264 -2.24874 0
M  V30 6538 H 646.137 2.55783 -3.39787 0
M  V30 6539 N 644.452 1.42507 0.673017 0
M  V30 6540 C 645.68 1.46473 1.46128 0
M  V30 6541 C 646.095 0.0765912 1.88645 0
M  V30 6542 O 645.452 -0.909057 1.58248 0
M  V30 6543 C 645.503 2.39339 2.70923 0
M  V30 6544 O 645.224 3.72752 2.3019 0
M  V30 6545 C 646.725 2.52343 3.64469 0
M  V30 6546 H 643.945 0.49812 0.449575 0
M  V30 6547 H 646.489 1.87041 0.826802 0
M  V30 6548 H 644.644 2.02019 3.30556 0
M  V30 6549 H 645.058 4.22503 3.10791 0
M  V30 6550 H 646.532 3.2144 4.48754 0
M  V30 6551 H 647.009 1.56189 4.1049 0
M  V30 6552 H 647.615 2.90392 3.10729 0
M  V30 6553 N 645.93 -0.909495 1.28709 0
M  V30 6554 C 647.178 -1.65577 1.15882 0
M  V30 6555 C 647.499 -1.928 -0.292108 0
M  V30 6556 O 646.769 -1.54716 -1.20166 0
M  V30 6557 H 645.349 -0.613714 0.425869 0
M  V30 6558 H 648.011 -1.09108 1.61498 0
M  V30 6559 H 647.107 -2.61634 1.70159 0
M  V30 6560 N 647.408 -1.11026 -1.11852 0
M  V30 6561 C 648.655 -0.85646 -1.83497 0
M  V30 6562 C 648.983 0.617938 -1.84423 0
M  V30 6563 O 648.238 1.47194 -1.28966 0
M  V30 6564 C 648.537 -1.35777 -3.30604 0
M  V30 6565 C 648.203 -2.84465 -3.49843 0
M  V30 6566 C 646.865 -3.25068 -3.54802 0
M  V30 6567 C 649.217 -3.80251 -3.56453 0
M  V30 6568 C 646.545 -4.60194 -3.63921 0
M  V30 6569 C 648.897 -5.15188 -3.67102 0
M  V30 6570 C 647.561 -5.55356 -3.70319 0
M  V30 6571 H 646.831 -0.313401 -0.671462 0
M  V30 6572 H 649.478 -1.38792 -1.31943 0
M  V30 6573 H 647.783 -0.746455 -3.84624 0
M  V30 6574 H 649.48 -1.13779 -3.8452 0
M  V30 6575 H 646.07 -2.52054 -3.46651 0
M  V30 6576 H 650.254 -3.49986 -3.51886 0
M  V30 6577 H 645.51 -4.90728 -3.64686 0
M  V30 6578 H 649.684 -5.89248 -3.71159 0
M  V30 6579 H 647.311 -6.60054 -3.77138 0
M  V30 6580 N 648.886 1.2938 -0.899927 0
M  V30 6581 C 649.849 2.25983 -0.382677 0
M  V30 6582 C 650.849 1.53366 0.483259 0
M  V30 6583 O 652.039 1.71798 0.28828 0
M  V30 6584 C 649.171 3.37878 0.452915 0
M  V30 6585 H 650.364 2.73252 -1.23586 0
M  V30 6586 H 647.917 1.40825 -0.678088 0
M  V30 6587 H 648.652 2.95949 1.32608 0
M  V30 6588 H 648.437 3.91742 -0.167562 0
M  V30 6589 H 649.927 4.09746 0.806107 0
M  V30 6590 N 650.364 0.662433 1.43002 0
M  V30 6591 C 651.327 -0.0142016 2.29196 0
M  V30 6592 C 652.327 -0.741394 1.42688 0
M  V30 6593 O 653.517 -0.581257 1.64216 0
M  V30 6594 C 650.649 -1.03084 3.24941 0
M  V30 6595 H 651.842 0.7443 2.90517 0
M  V30 6596 H 649.395 0.424133 1.50435 0
M  V30 6597 H 650.13 -1.81826 2.68533 0
M  V30 6598 H 649.915 -0.512946 3.8873 0
M  V30 6599 H 651.405 -1.50308 3.89612 0
M  V30 6600 N 651.842 -1.52309 0.404946 0
M  V30 6601 C 653.253 -1.86585 -0.0655926 0
M  V30 6602 C 653.604 -1.3239 -1.44801 0
M  V30 6603 O 652.729 -0.6615 -2.06042 0
M  V30 6604 C 653.324 -3.38566 -0.125801 0
M  V30 6605 C 651.883 -3.72497 -0.540666 0
M  V30 6606 C 651.03 -2.75806 0.287487 0
M  V30 6607 H 653.981 -1.45995 0.622185 0
M  V30 6608 H 654.002 -3.68658 -0.941888 0
M  V30 6609 H 653.514 -3.77981 0.880473 0
M  V30 6610 H 651.615 -3.38659 -1.55373 0
M  V30 6611 H 651.728 -4.78234 -0.287956 0
M  V30 6612 H 650.092 -2.53474 -0.249561 0
M  V30 6613 H 650.875 -3.18059 1.29203 0
M  V30 6614 N 653.32 -0.135238 -1.57019 0
M  V30 6615 C 654.268 0.826099 -2.17436 0
M  V30 6616 C 655.262 1.26378 -1.12805 0
M  V30 6617 O 656.468 1.23363 -1.31079 0
M  V30 6618 H 652.843 0.284568 -0.696078 0
M  V30 6619 H 654.814 0.292212 -2.96966 0
M  V30 6620 C 653.563 2.05991 -2.80112 0
M  V30 6621 H 652.886 1.73209 -3.60331 0
M  V30 6622 H 654.326 2.71225 -3.25903 0
M  V30 6623 C 652.785 2.86027 -1.78017 0
M  V30 6624 O 653.315 3.81971 -1.24344 0
M  V30 6625 N 651.521 2.50332 -1.47588 0
M  V30 6626 H 651.068 1.72377 -1.91426 0
M  V30 6627 H 651.026 3.04177 -0.795228 0
M  V30 6628 N 654.798 1.5699 0.138552 0
M  V30 6629 C 656.026 1.87976 0.864437 0
M  V30 6630 C 656.441 0.724372 1.74351 0
M  V30 6631 O 655.798 -0.305575 1.79924 0
M  V30 6632 C 655.849 3.18276 1.71414 0
M  V30 6633 O 655.57 4.29365 0.870487 0
M  V30 6634 C 657.071 3.62834 2.54688 0
M  V30 6635 H 654.291 0.622878 0.249528 0
M  V30 6636 H 656.835 2.04094 0.128805 0
M  V30 6637 H 654.99 3.03886 2.40274 0
M  V30 6638 H 655.404 5.03924 1.45466 0
M  V30 6639 H 656.878 4.5682 3.0987 0
M  V30 6640 H 657.355 2.88533 3.31127 0
M  V30 6641 H 657.961 3.79946 1.91105 0
M  V30 6642 N 656.276 -0.40816 1.52223 0
M  V30 6643 C 657.504 -1.17672 1.70179 0
M  V30 6644 C 657.919 -1.84257 0.411696 0
M  V30 6645 O 657.276 -1.7192 -0.612354 0
M  V30 6646 C 657.327 -2.23911 2.83806 0
M  V30 6647 O 657.048 -1.60044 4.0782 0
M  V30 6648 C 658.549 -3.1364 3.13281 0
M  V30 6649 H 655.769 -0.353562 0.570293 0
M  V30 6650 H 658.313 -0.480083 1.98785 0
M  V30 6651 H 656.468 -2.89242 2.57717 0
M  V30 6652 H 656.882 -2.30484 4.71145 0
M  V30 6653 H 658.356 -3.84255 3.96298 0
M  V30 6654 H 658.833 -3.76066 2.26872 0
M  V30 6655 H 659.439 -2.53977 3.41139 0
M  V30 6656 N 657.755 -1.42862 -0.66545 0
M  V30 6657 C 658.983 -1.47246 -1.45349 0
M  V30 6658 C 659.398 -0.0865944 -1.88601 0
M  V30 6659 O 658.755 0.900652 -1.58728 0
M  V30 6660 C 658.806 -2.40772 -2.6965 0
M  V30 6661 O 658.527 -3.73968 -2.2821 0
M  V30 6662 C 660.028 -2.54272 -3.63126 0
M  V30 6663 H 657.248 -0.500497 -0.446927 0
M  V30 6664 H 659.792 -1.87477 -0.816871 0
M  V30 6665 H 657.947 -2.0377 -3.29479 0
M  V30 6666 H 658.361 -4.24146 -3.08546 0
M  V30 6667 H 659.835 -3.23815 -4.47043 0
M  V30 6668 H 660.312 -1.58364 -4.09656 0
M  V30 6669 H 660.918 -2.92036 -3.09185 0
M  V30 6670 N 659.233 0.902656 -1.29189 0
M  V30 6671 C 660.481 1.6496 -1.16758 0
M  V30 6672 C 660.802 1.92952 0.28188 0
M  V30 6673 O 660.072 1.55351 1.19344 0
M  V30 6674 H 658.652 0.611447 -0.429118 0
M  V30 6675 H 661.314 1.0825 -1.62074 0
M  V30 6676 H 660.41 2.60728 -1.71544 0
M  V30 6677 N 660.711 1.11618 1.11262 0
M  V30 6678 C 661.641 0.79846 2.19424 0
M  V30 6679 C 662.622 -0.234003 1.68483 0
M  V30 6680 O 663.807 -0.0970704 1.93957 0
M  V30 6681 C 660.937 0.242892 3.4645 0
M  V30 6682 C 659.891 1.20744 4.10615 0
M  V30 6683 C 659.217 0.512494 5.32238 0
M  V30 6684 C 660.517 2.55884 4.55325 0
M  V30 6685 H 662.211 1.70286 2.46258 0
M  V30 6686 H 659.757 0.820195 1.18359 0
M  V30 6687 H 661.71 0.00840447 4.21399 0
M  V30 6688 H 660.434 -0.696811 3.1908 0
M  V30 6689 H 659.093 1.42759 3.37662 0
M  V30 6690 H 658.741 -0.432075 5.01141 0
M  V30 6691 H 658.441 1.15583 5.7612 0
M  V30 6692 H 659.965 0.286842 6.09926 0
M  V30 6693 H 661.379 2.37946 5.21588 0
M  V30 6694 H 659.776 3.16216 5.10027 0
M  V30 6695 H 660.846 3.14968 3.68678 0
M  V30 6696 N 662.189 -1.289 0.906776 0
M  V30 6697 C 663.6 -1.77336 0.58384 0
M  V30 6698 C 663.951 -1.74304 -0.900697 0
M  V30 6699 O 663.076 -1.33335 -1.70443 0
M  V30 6700 C 663.671 -3.22019 1.05304 0
M  V30 6701 C 662.23 -3.68205 0.781148 0
M  V30 6702 C 661.377 -2.48837 1.22373 0
M  V30 6703 H 664.328 -1.15462 1.08877 0
M  V30 6704 H 664.349 -3.78481 0.391414 0
M  V30 6705 H 663.861 -3.24194 2.13353 0
M  V30 6706 H 661.962 -3.71497 -0.28643 0
M  V30 6707 H 662.075 -4.58675 1.384 0
M  V30 6708 H 660.439 -2.46461 0.642594 0
M  V30 6709 H 661.222 -2.53736 2.31242 0
M  V30 6710 N 663.667 -0.670007 -1.42649 0
M  V30 6711 C 664.892 -0.196955 -2.06463 0
M  V30 6712 C 665.317 1.1352 -1.49983 0
M  V30 6713 O 664.675 1.705 -0.616397 0
M  V30 6714 C 664.723 -0.137381 -3.60338 0
M  V30 6715 O 663.827 0.895523 -4.02559 0
M  V30 6716 H 663.168 -0.102579 -0.656029 0
M  V30 6717 H 665.698 -0.917669 -1.82866 0
M  V30 6718 H 665.708 0.0403625 -4.0798 0
M  V30 6719 H 664.383 -1.10977 -4.0082 0
M  V30 6720 H 662.96 0.689209 -3.66476 0
M  V30 6721 N 665.145 1.52092 -0.413018 0
M  V30 6722 C 666.37 2.06756 0.163338 0
M  V30 6723 C 666.795 1.28073 1.37764 0
M  V30 6724 O 666.153 0.312015 1.78595 0
M  V30 6725 C 666.201 3.57278 0.488322 0
M  V30 6726 O 665.305 3.80986 1.57871 0
M  V30 6727 H 664.646 0.663882 0.0125068 0
M  V30 6728 H 667.176 1.95988 -0.587339 0
M  V30 6729 H 667.186 4.01125 0.745836 0
M  V30 6730 H 665.861 4.13978 -0.399327 0
M  V30 6731 H 664.438 3.49017 1.31306 0
M  V30 6732 N 666.623 0.143563 1.56945 0
M  V30 6733 C 667.851 -0.515447 2.00377 0
M  V30 6734 C 668.266 -1.58643 1.02361 0
M  V30 6735 O 667.623 -1.82489 0.0201039 0
M  V30 6736 C 667.674 -1.11923 3.43737 0
M  V30 6737 O 667.395 -0.0910318 4.38005 0
M  V30 6738 C 668.896 -1.85918 4.02429 0
M  V30 6739 H 666.116 -0.134478 0.657386 0
M  V30 6740 H 668.66 0.237135 2.0312 0
M  V30 6741 H 666.815 -1.82245 3.41856 0
M  V30 6742 H 667.229 -0.532916 5.21786 0
M  V30 6743 H 668.703 -2.2346 5.04747 0
M  V30 6744 H 669.18 -2.7438 3.42947 0
M  V30 6745 H 669.786 -1.20303 4.07931 0
M  V30 6746 N 668.101 -1.57061 -0.130224 0
M  V30 6747 C 669.051 -1.95941 -1.16582 0
M  V30 6748 C 670.035 -0.832858 -1.37667 0
M  V30 6749 O 671.227 -1.09647 -1.38948 0
M  V30 6750 C 668.356 -2.35777 -2.49528 0
M  V30 6751 C 667.442 -3.5504 -2.31964 0
M  V30 6752 N 667.833 -4.71071 -1.84189 0
M  V30 6753 C 666.131 -3.60453 -2.62659 0
M  V30 6754 C 666.832 -5.53128 -1.80068 0
M  V30 6755 N 665.808 -4.95303 -2.24001 0
M  V30 6756 H 669.61 -2.83117 -0.788806 0
M  V30 6757 H 667.124 -1.58842 -0.3381 0
M  V30 6758 H 669.121 -2.61843 -3.24413 0
M  V30 6759 H 667.781 -1.49961 -2.87996 0
M  V30 6760 H 668.792 -4.94504 -1.53903 0
M  V30 6761 H 665.469 -2.85217 -3.0489 0
M  V30 6762 H 666.859 -6.56182 -1.4448 0
M  V30 6763 N 669.579 0.400081 -1.52437 0
M  V30 6764 C 670.825 1.14788 -1.67187 0
M  V30 6765 C 671.158 1.89928 -0.405074 0
M  V30 6766 O 670.433 1.85118 0.596804 0
M  V30 6767 C 670.716 2.13507 -2.89977 0
M  V30 6768 C 670.569 1.42204 -4.2673 0
M  V30 6769 C 671.888 3.14069 -3.083 0
M  V30 6770 H 669.007 0.415939 -0.608411 0
M  V30 6771 H 671.649 0.432542 -1.85011 0
M  V30 6772 H 669.799 2.7451 -2.74912 0
M  V30 6773 H 671.471 0.842503 -4.53541 0
M  V30 6774 H 669.714 0.723939 -4.27717 0
M  V30 6775 H 670.385 2.14281 -5.08712 0
M  V30 6776 H 672.861 2.63148 -3.22323 0
M  V30 6777 H 671.737 3.80398 -3.95713 0
M  V30 6778 H 671.998 3.82309 -2.22018 0
M  V30 6779 N 671.057 1.43213 0.657864 0
M  V30 6780 C 672.468 1.39669 1.23893 0
M  V30 6781 C 672.819 0.0984217 1.95953 0
M  V30 6782 O 671.944 -0.8023 2.00978 0
M  V30 6783 C 672.539 2.53004 2.25332 0
M  V30 6784 C 671.098 2.5274 2.78926 0
M  V30 6785 C 670.245 2.30941 1.53497 0
M  V30 6786 H 673.196 1.52181 0.450172 0
M  V30 6787 H 673.217 2.24226 3.07413 0
M  V30 6788 H 672.729 3.4748 1.72856 0
M  V30 6789 H 670.83 1.6213 3.35477 0
M  V30 6790 H 670.943 3.50352 3.26787 0
M  V30 6791 H 669.307 1.7952 1.80678 0
M  V30 6792 H 670.09 3.27496 1.02963 0
M  V30 6793 N 672.536 -0.895792 1.29666 0
M  V30 6794 C 673.764 -1.68001 1.20761 0
M  V30 6795 C 674.179 -1.87379 -0.231187 0
M  V30 6796 O 673.536 -1.41359 -1.15429 0
M  V30 6797 C 673.587 -3.06236 1.92098 0
M  V30 6798 O 673.308 -2.8774 3.30359 0
M  V30 6799 C 674.809 -4.00652 1.89717 0
M  V30 6800 H 672.029 -0.524591 0.418384 0
M  V30 6801 H 674.573 -1.11995 1.71106 0
M  V30 6802 H 672.728 -3.59007 1.45578 0
M  V30 6803 H 673.142 -3.75359 3.66342 0
M  V30 6804 H 674.616 -4.95051 2.44189 0
M  V30 6805 H 675.093 -4.30424 0.873595 0
M  V30 6806 H 675.699 -3.53815 2.35998 0
M  V30 6807 N 674.014 -1.12206 -1.10668 0
M  V30 6808 C 674.962 -0.782918 -2.19028 0
M  V30 6809 C 675.956 0.229175 -1.67843 0
M  V30 6810 O 677.162 0.0876295 -1.79787 0
M  V30 6811 H 673.537 -0.235339 -0.714227 0
M  V30 6812 H 675.508 -1.70527 -2.44874 0
M  V30 6813 C 674.257 -0.25116 -3.46792 0
M  V30 6814 H 673.58 -1.02123 -3.86537 0
M  V30 6815 H 675.02 -0.0521409 -4.23968 0
M  V30 6816 C 673.479 1.02037 -3.21076 0
M  V30 6817 O 674.009 2.09862 -3.42522 0
M  V30 6818 N 672.215 0.946348 -2.74759 0
M  V30 6819 H 671.762 0.068777 -2.57508 0
M  V30 6820 H 671.72 1.79775 -2.57931 0
M  V30 6821 N 675.492 1.28418 -0.913599 0
M  V30 6822 C 676.422 2.29713 -0.418847 0
M  V30 6823 C 677.403 1.62165 0.513469 0
M  V30 6824 O 678.588 1.89576 0.421235 0
M  V30 6825 C 675.718 3.45612 0.342042 0
M  V30 6826 C 674.672 4.25056 -0.501123 0
M  V30 6827 C 673.998 5.3329 0.388097 0
M  V30 6828 C 675.298 4.91814 -1.75831 0
M  V30 6829 H 676.992 2.71346 -1.26538 0
M  V30 6830 H 674.538 1.30446 -0.609903 0
M  V30 6831 H 676.491 4.15562 0.699 0
M  V30 6832 H 675.215 3.02858 1.22248 0
M  V30 6833 H 673.874 3.56833 -0.840598 0
M  V30 6834 H 673.522 4.8678 1.26707 0
M  V30 6835 H 673.222 5.87347 -0.172459 0
M  V30 6836 H 674.746 6.06088 0.74094 0
M  V30 6837 H 676.16 5.54126 -1.47026 0
M  V30 6838 H 674.557 5.55866 -2.26126 0
M  V30 6839 H 675.627 4.16313 -2.4862 0
M  V30 6840 N 676.97 0.677563 1.42291 0
M  V30 6841 C 678.198 0.209459 2.05837 0
M  V30 6842 C 678.613 -1.13444 1.50917 0
M  V30 6843 O 677.97 -1.70529 0.65008 0
M  V30 6844 C 678.021 0.138819 3.61233 0
M  V30 6845 O 677.742 1.42962 4.14118 0
M  V30 6846 C 679.243 -0.352449 4.41897 0
M  V30 6847 H 676.463 0.101209 0.663323 0
M  V30 6848 H 679.007 0.925077 1.8238 0
M  V30 6849 H 677.162 -0.527505 3.83792 0
M  V30 6850 H 677.576 1.3048 5.08011 0
M  V30 6851 H 679.05 -0.350778 5.50884 0
M  V30 6852 H 679.527 -1.3882 4.16684 0
M  V30 6853 H 680.133 0.282236 4.24362 0
M  V30 6854 N 678.448 -1.51871 0.421078 0
M  V30 6855 C 679.411 -2.25914 -0.386712 0
M  V30 6856 C 680.411 -1.28733 -0.963555 0
M  V30 6857 O 681.601 -1.52579 -0.840556 0
M  V30 6858 C 678.733 -3.03853 -1.54551 0
M  V30 6859 H 679.926 -2.98754 0.261978 0
M  V30 6860 H 677.479 -1.5533 0.173862 0
M  V30 6861 H 678.214 -2.35392 -2.23072 0
M  V30 6862 H 677.999 -3.75215 -1.13824 0
M  V30 6863 H 679.489 -3.59984 -2.11663 0
M  V30 6864 N 679.926 -0.151884 -1.56866 0
M  V30 6865 C 681.337 0.368128 -1.83035 0
M  V30 6866 C 681.688 1.64402 -1.07082 0
M  V30 6867 O 680.813 2.14056 -0.317647 0
M  V30 6868 C 681.408 0.674676 -3.32014 0
M  V30 6869 C 679.967 1.13919 -3.58747 0
M  V30 6870 C 679.114 0.164833 -2.7681 0
M  V30 6871 H 682.065 -0.376499 -1.54169 0
M  V30 6872 H 682.086 1.52883 -3.48435 0
M  V30 6873 H 681.598 -0.254113 -3.87267 0
M  V30 6874 H 679.699 2.08375 -3.08886 0
M  V30 6875 H 679.812 1.06179 -4.67186 0
M  V30 6876 H 678.176 0.658419 -2.46043 0
M  V30 6877 H 678.959 -0.757633 -3.34836 0
M  V30 6878 N 681.404 1.57128 0.121893 0
M  V30 6879 C 682.367 1.99197 1.13372 0
M  V30 6880 C 683.367 0.881728 1.3447 0
M  V30 6881 O 684.557 1.14783 1.31036 0
M  V30 6882 C 681.689 2.32963 2.4888 0
M  V30 6883 H 682.882 2.89788 0.772204 0
M  V30 6884 H 680.435 1.51952 0.366093 0
M  V30 6885 H 681.17 1.45243 2.89957 0
M  V30 6886 H 680.955 3.13934 2.34921 0
M  V30 6887 H 682.445 2.66261 3.21706 0
M  V30 6888 N 682.882 -0.391992 1.52647 0
M  V30 6889 C 684.107 -1.16312 1.71716 0
M  V30 6890 C 684.532 -1.83042 0.433279 0
M  V30 6891 O 683.89 -1.70705 -0.610707 0
M  V30 6892 C 683.938 -2.18908 2.86551 0
M  V30 6893 O 683.042 -3.2543 2.53316 0
M  V30 6894 H 682.383 -0.338743 0.571095 0
M  V30 6895 H 684.913 -0.457202 1.99426 0
M  V30 6896 H 684.923 -2.62954 3.1196 0
M  V30 6897 H 683.598 -1.69726 3.79692 0
M  V30 6898 H 682.175 -2.86543 2.38637 0
M  V30 6899 N 684.36 -1.4356 -0.65026 0
M  V30 6900 C 685.588 -1.48779 -1.43779 0
M  V30 6901 C 686.003 -0.106593 -1.88499 0
M  V30 6902 O 685.36 0.883766 -1.59674 0
M  V30 6903 C 685.411 -2.43618 -2.67081 0
M  V30 6904 O 685.132 -3.76367 -2.24231 0
M  V30 6905 C 686.633 -2.5811 -3.60409 0
M  V30 6906 H 683.853 -0.50521 -0.441593 0
M  V30 6907 H 686.397 -1.88332 -0.796941 0
M  V30 6908 H 684.552 -2.07253 -3.273 0
M  V30 6909 H 684.966 -4.27394 -3.0403 0
M  V30 6910 H 686.44 -3.28539 -4.43583 0
M  V30 6911 H 686.917 -1.627 -4.07953 0
M  V30 6912 H 687.523 -2.95298 -3.0607 0
M  V30 6913 N 685.838 0.888903 -1.30139 0
M  V30 6914 C 687.086 1.63713 -1.18501 0
M  V30 6915 C 687.407 1.9324 0.261399 0
M  V30 6916 O 686.677 1.56608 1.17689 0
M  V30 6917 H 685.257 0.606861 -0.435579 0
M  V30 6918 H 687.919 1.06525 -1.63213 0
M  V30 6919 H 687.015 2.58894 -1.743 0
M  V30 6920 N 687.317 1.12792 1.10072 0
M  V30 6921 C 688.728 0.899346 1.63611 0
M  V30 6922 C 689.079 -0.565547 1.87872 0
M  V30 6923 O 688.204 -1.43081 1.62348 0
M  V30 6924 C 688.799 1.62608 2.97227 0
M  V30 6925 C 687.358 1.44356 3.47618 0
M  V30 6926 C 686.505 1.65958 2.22156 0
M  V30 6927 H 689.456 1.28216 0.935223 0
M  V30 6928 H 689.477 1.0793 3.64872 0
M  V30 6929 H 688.989 2.69221 2.79538 0
M  V30 6930 H 687.09 0.400148 3.70445 0
M  V30 6931 H 687.203 2.20218 4.25489 0
M  V30 6932 H 685.567 1.08395 2.30484 0
M  V30 6933 H 686.35 2.73877 2.06993 0
M  V30 6934 N 688.795 -1.27931 0.920396 0
M  V30 6935 C 690.023 -1.98805 0.573087 0
M  V30 6936 C 690.438 -1.68724 -0.847201 0
M  V30 6937 O 689.795 -0.943699 -1.56207 0
M  V30 6938 C 689.846 -3.52971 0.780633 0
M  V30 6939 O 689.567 -3.81994 2.14504 0
M  V30 6940 C 691.068 -4.411 0.44105 0
M  V30 6941 H 688.288 -0.634651 0.21785 0
M  V30 6942 H 690.832 -1.62965 1.23542 0
M  V30 6943 H 688.987 -3.87048 0.165204 0
M  V30 6944 H 689.401 -4.76609 2.18962 0
M  V30 6945 H 690.875 -5.48312 0.637006 0
M  V30 6946 H 691.352 -4.34758 -0.62306 0
M  V30 6947 H 691.958 -4.12532 1.0343 0
M  V30 6948 N 690.273 -0.685099 -1.4193 0
M  V30 6949 C 691.519 -0.211971 -2.01689 0
M  V30 6950 C 691.852 1.18189 -1.54094 0
M  V30 6951 O 691.127 1.79559 -0.747572 0
M  V30 6952 C 691.41 -0.258019 -3.59174 0
M  V30 6953 C 691.263 -1.68807 -4.16922 0
M  V30 6954 C 692.582 0.388044 -4.38386 0
M  V30 6955 H 689.701 -0.0784987 -0.732808 0
M  V30 6956 H 692.343 -0.871837 -1.68816 0
M  V30 6957 H 690.493 0.303832 -3.8731 0
M  V30 6958 H 692.165 -2.30296 -3.99702 0
M  V30 6959 H 690.408 -2.22553 -3.72361 0
M  V30 6960 H 691.079 -1.6719 -5.26072 0
M  V30 6961 H 693.555 -0.0903432 -4.16002 0
M  V30 6962 H 692.431 0.325232 -5.47936 0
M  V30 6963 H 692.692 1.4672 -4.17044 0
M  V30 6964 N 691.751 1.51645 -0.429126 0
M  V30 6965 C 692.976 2.06917 0.141399 0
M  V30 6966 C 693.401 1.29527 1.36398 0
M  V30 6967 O 692.759 0.33094 1.78254 0
M  V30 6968 C 692.807 3.57776 0.4504 0
M  V30 6969 O 691.911 3.82639 1.53821 0
M  V30 6970 H 691.252 0.663978 0.0054647 0
M  V30 6971 H 693.782 1.95355 -0.608093 0
M  V30 6972 H 693.792 4.01894 0.703249 0
M  V30 6973 H 692.467 4.13532 -0.443213 0
M  V30 6974 H 691.044 3.5039 1.27597 0
M  V30 6975 N 693.229 0.160201 1.56784 0
M  V30 6976 C 694.457 -0.494165 2.00912 0
M  V30 6977 C 694.872 -1.57548 1.04038 0
M  V30 6978 O 694.229 -1.82457 0.0394581 0
M  V30 6979 C 694.28 -1.08271 3.44905 0
M  V30 6980 O 694.001 -0.0445704 4.38077 0
M  V30 6981 C 695.502 -1.8164 4.04378 0
M  V30 6982 H 692.722 -0.127498 0.658776 0
M  V30 6983 H 695.266 0.258665 2.02858 0
M  V30 6984 H 693.421 -1.78609 3.4377 0
M  V30 6985 H 693.835 -0.477544 5.22322 0
M  V30 6986 H 695.309 -2.18094 5.07089 0
M  V30 6987 H 695.786 -2.70727 3.45838 0
M  V30 6988 H 696.392 -1.15969 4.09184 0
M  V30 6989 N 694.707 -1.5719 -0.113559 0
M  V30 6990 C 695.67 -1.99796 -1.12314 0
M  V30 6991 C 696.67 -0.888847 -1.34001 0
M  V30 6992 O 697.86 -1.15476 -1.30426 0
M  V30 6993 C 694.992 -2.34279 -2.47641 0
M  V30 6994 H 696.185 -2.90193 -0.756825 0
M  V30 6995 H 693.738 -1.52144 -0.358029 0
M  V30 6996 H 694.473 -1.46778 -2.89183 0
M  V30 6997 H 694.258 -3.15175 -2.33253 0
M  V30 6998 H 695.748 -2.67963 -3.2029 0
M  V30 6999 N 696.185 0.383891 -1.52853 0
M  V30 7000 C 697.462 1.14296 -1.58732 0
M  V30 7001 C 697.842 2.07585 -0.383611 0
M  V30 7002 O 697.19 2.1971 0.627661 0
M  V30 7003 C 697.4 1.89816 -2.92867 0
M  V30 7004 C 698.748 2.44998 -3.46787 0
M  V30 7005 O 699.772 1.99966 -2.94774 0
M  V30 7006 O 698.631 3.2727 -4.37672 0
M  V30 7007 H 695.725 0.52326 -0.640413 0
M  V30 7008 H 698.271 0.388631 -1.6519 0
M  V30 7009 H 697.043 1.21626 -3.71918 0
M  V30 7010 H 696.666 2.72199 -2.89816 0
M  V30 7011 N 697.663 1.43903 0.642637 0
M  V30 7012 C 698.909 1.46296 1.40447 0
M  V30 7013 C 699.242 0.0908361 1.93987 0
M  V30 7014 O 698.517 -0.889884 1.72949 0
M  V30 7015 C 698.8 2.51399 2.57819 0
M  V30 7016 C 698.653 3.97926 2.09702 0
M  V30 7017 C 699.972 2.53125 3.60022 0
M  V30 7018 H 697.091 0.532676 0.509338 0
M  V30 7019 H 699.733 1.75515 0.727635 0
M  V30 7020 H 697.883 2.26614 3.1556 0
M  V30 7021 H 699.555 4.33804 1.5688 0
M  V30 7022 H 697.798 4.10252 1.40982 0
M  V30 7023 H 698.469 4.67096 2.94152 0
M  V30 7024 H 700.945 2.75242 3.12059 0
M  V30 7025 H 699.821 3.28589 4.39682 0
M  V30 7026 H 700.082 1.56895 4.13324 0
M  V30 7027 N 699.141 -0.881989 1.30609 0
M  V30 7028 C 700.369 -1.66711 1.22536 0
M  V30 7029 C 700.784 -1.87614 -0.2113 0
M  V30 7030 O 700.141 -1.42576 -1.13923 0
M  V30 7031 C 700.192 -3.04182 1.95335 0
M  V30 7032 O 699.913 -2.8422 3.33393 0
M  V30 7033 C 701.414 -3.98617 1.93956 0
M  V30 7034 H 698.634 -0.520124 0.423925 0
M  V30 7035 H 701.178 -1.10174 1.72285 0
M  V30 7036 H 699.333 -3.57442 1.49378 0
M  V30 7037 H 699.747 -3.71452 3.70302 0
M  V30 7038 H 701.221 -4.92433 2.49426 0
M  V30 7039 H 701.698 -4.29473 0.919198 0
M  V30 7040 H 702.304 -3.51292 2.39738 0
M  V30 7041 N 700.619 -1.13374 -1.09472 0
M  V30 7042 C 701.844 -0.918711 -1.85942 0
M  V30 7043 C 702.269 0.527225 -1.8056 0
M  V30 7044 O 701.627 1.37408 -1.18274 0
M  V30 7045 C 701.675 -1.41056 -3.31867 0
M  V30 7046 O 700.779 -0.595496 -4.08078 0
M  V30 7047 H 700.12 -0.329297 -0.576593 0
M  V30 7048 H 702.65 -1.50829 -1.38245 0
M  V30 7049 H 702.66 -1.41398 -3.82715 0
M  V30 7050 H 701.335 -2.46335 -3.35099 0
M  V30 7051 H 699.912 -0.659911 -3.67014 0
M  V30 7052 N 702.098 1.27442 -0.927168 0
M  V30 7053 C 703.509 1.76385 -0.611979 0
M  V30 7054 C 703.86 1.75715 0.872853 0
M  V30 7055 O 702.985 1.3603 1.683 0
M  V30 7056 C 703.58 3.20303 -1.10414 0
M  V30 7057 C 702.139 3.66916 -0.839628 0
M  V30 7058 C 701.286 2.46859 -1.26317 0
M  V30 7059 H 704.237 1.13716 -1.107 0
M  V30 7060 H 704.258 3.77811 -0.451578 0
M  V30 7061 H 703.77 3.20759 -2.18484 0
M  V30 7062 H 701.871 3.71906 0.227292 0
M  V30 7063 H 701.984 4.56415 -1.45679 0
M  V30 7064 H 700.348 2.45407 -0.681723 0
M  V30 7065 H 701.131 2.50025 -2.3525 0
M  V30 7066 N 703.576 0.692616 1.41565 0
M  V30 7067 C 704.804 0.231279 2.05603 0
M  V30 7068 C 705.219 -1.11837 1.52111 0
M  V30 7069 O 704.576 -1.6983 0.66813 0
M  V30 7070 C 704.627 0.177125 3.61066 0
M  V30 7071 O 704.348 1.47346 4.12578 0
M  V30 7072 C 705.849 -0.30556 4.42246 0
M  V30 7073 H 703.069 0.108238 0.662213 0
M  V30 7074 H 705.613 0.944369 1.81389 0
M  V30 7075 H 703.768 -0.486769 3.8433 0
M  V30 7076 H 704.182 1.35861 5.06599 0
M  V30 7077 H 705.656 -0.29233 5.51225 0
M  V30 7078 H 706.133 -1.34393 4.18133 0
M  V30 7079 H 706.739 0.327229 4.24039 0
M  V30 7080 N 705.054 -1.51416 0.437162 0
M  V30 7081 C 706.465 -1.86682 -0.0260005 0
M  V30 7082 C 706.816 -1.35432 -1.4196 0
M  V30 7083 O 705.941 -0.705055 -2.04592 0
M  V30 7084 C 706.536 -3.38757 -0.0539577 0
M  V30 7085 C 705.095 -3.7356 -0.461532 0
M  V30 7086 C 704.242 -2.75134 0.345924 0
M  V30 7087 H 707.193 -1.44642 0.653013 0
M  V30 7088 H 707.214 -3.70573 -0.863478 0
M  V30 7089 H 706.726 -3.76028 0.96045 0
M  V30 7090 H 704.827 -3.41878 -1.48155 0
M  V30 7091 H 704.94 -4.78737 -0.186451 0
M  V30 7092 H 703.304 -2.53947 -0.195739 0
M  V30 7093 H 704.087 -3.15247 1.35921 0
M  V30 7094 N 706.532 -0.168513 -1.56696 0
M  V30 7095 C 707.495 0.748928 -2.16619 0
M  V30 7096 C 708.495 1.16007 -1.11351 0
M  V30 7097 O 709.685 1.07748 -1.3688 0
M  V30 7098 C 706.817 2.01904 -2.74677 0
M  V30 7099 H 708.01 0.227317 -2.99037 0
M  V30 7100 H 705.563 0.0810372 -1.5609 0
M  V30 7101 H 706.298 2.58381 -1.95985 0
M  V30 7102 H 706.083 1.73323 -3.51712 0
M  V30 7103 H 707.573 2.67383 -3.20774 0
M  V30 7104 N 708.01 1.57248 0.105221 0
M  V30 7105 C 709.258 1.85204 0.808951 0
M  V30 7106 C 709.579 0.75574 1.7976 0
M  V30 7107 O 708.849 -0.218984 1.94672 0
M  V30 7108 H 707.429 0.683346 0.301739 0
M  V30 7109 H 710.091 1.94695 0.0892605 0
M  V30 7110 H 709.187 2.81595 1.34575 0
M  V30 7111 N 709.488 -0.375779 1.53054 0
M  V30 7112 C 710.716 -1.14036 1.72637 0
M  V30 7113 C 711.131 -1.83342 0.450687 0
M  V30 7114 O 710.488 -1.7318 -0.575749 0
M  V30 7115 C 710.539 -2.17841 2.88492 0
M  V30 7116 O 710.26 -1.51358 4.11123 0
M  V30 7117 C 711.761 -3.06924 3.19863 0
M  V30 7118 H 708.981 -0.341386 0.577665 0
M  V30 7119 H 711.525 -0.437809 1.99759 0
M  V30 7120 H 709.68 -2.8371 2.63794 0
M  V30 7121 H 710.094 -2.20439 4.75928 0
M  V30 7122 H 711.568 -3.75763 4.04359 0
M  V30 7123 H 712.045 -3.71169 2.34798 0
M  V30 7124 H 712.651 -2.46684 3.46449 0
M  V30 7125 N 710.966 -1.44241 -0.634997 0
M  V30 7126 C 712.194 -1.50296 -1.42193 0
M  V30 7127 C 712.609 -0.12658 -1.88375 0
M  V30 7128 O 711.966 0.86678 -1.60603 0
M  V30 7129 C 712.017 -2.46437 -2.64482 0
M  V30 7130 O 711.738 -3.78724 -2.20226 0
M  V30 7131 C 713.239 -2.61918 -3.57651 0
M  V30 7132 H 710.459 -0.509865 -0.43621 0
M  V30 7133 H 713.003 -1.89167 -0.776921 0
M  V30 7134 H 711.158 -2.10712 -3.25083 0
M  V30 7135 H 711.572 -4.30595 -2.9948 0
M  V30 7136 H 713.046 -3.33225 -4.40074 0
M  V30 7137 H 713.523 -1.67017 -4.06204 0
M  V30 7138 H 714.129 -2.98528 -3.02921 0
M  V30 7139 N 712.444 0.87505 -1.31075 0
M  V30 7140 C 713.669 1.66583 -1.23551 0
M  V30 7141 C 714.094 1.87067 0.19686 0
M  V30 7142 O 713.452 1.40877 1.1412 0
M  V30 7143 C 713.5 3.01401 -1.97965 0
M  V30 7144 O 712.604 3.90923 -1.31351 0
M  V30 7145 H 711.945 0.508645 -0.426821 0
M  V30 7146 H 714.475 1.09139 -1.7306 0
M  V30 7147 H 714.485 3.51374 -2.07366 0
M  V30 7148 H 713.16 2.85812 -3.02133 0
M  V30 7149 H 711.737 3.49369 -1.30368 0
M  V30 7150 N 713.922 1.13953 1.08869 0
M  V30 7151 C 715.17 0.903023 1.80803 0
M  V30 7152 C 715.491 -0.572151 1.86417 0
M  V30 7153 O 714.761 -1.41589 1.35386 0
M  V30 7154 H 713.341 0.331099 0.669614 0
M  V30 7155 H 716.003 1.43719 1.31647 0
M  V30 7156 H 715.099 1.29881 2.83791 0
M  V30 7157 N 715.4 -1.26948 0.933913 0
M  V30 7158 C 716.363 -2.24889 0.442457 0
M  V30 7159 C 717.363 -1.54594 -0.442426 0
M  V30 7160 O 718.553 -1.72502 -0.242629 0
M  V30 7161 C 715.685 -3.3896 -0.363173 0
M  V30 7162 H 716.878 -2.69879 1.30787 0
M  V30 7163 H 714.431 -1.38978 0.715187 0
M  V30 7164 H 715.166 -2.99361 -1.24714 0
M  V30 7165 H 714.951 -3.9116 0.271366 0
M  V30 7166 H 716.441 -4.11739 -0.697186 0
M  V30 7167 N 716.879 -0.700114 -1.41195 0
M  V30 7168 C 718.104 -0.240704 -2.05998 0
M  V30 7169 C 718.529 1.10313 -1.52357 0
M  V30 7170 O 717.887 1.69154 -0.652424 0
M  V30 7171 C 717.935 -0.213783 -3.59966 0
M  V30 7172 O 717.039 0.809933 -4.04368 0
M  V30 7173 H 716.38 -0.116471 -0.653705 0
M  V30 7174 H 718.91 -0.956251 -1.80878 0
M  V30 7175 H 718.92 -0.0461852 -4.07974 0
M  V30 7176 H 717.595 -1.19454 -3.98376 0
M  V30 7177 H 716.172 0.611319 -3.67855 0
M  V30 7178 N 718.357 1.51182 -0.445186 0
M  V30 7179 C 719.768 1.86693 0.0160999 0
M  V30 7180 C 720.119 1.36183 1.4124 0
M  V30 7181 O 719.244 0.715895 2.04215 0
M  V30 7182 C 719.839 3.38781 0.0359918 0
M  V30 7183 C 718.398 3.73799 0.441715 0
M  V30 7184 C 717.545 2.74947 -0.360511 0
M  V30 7185 H 720.496 1.44294 -0.660674 0
M  V30 7186 H 720.517 3.71026 0.843813 0
M  V30 7187 H 720.029 3.75513 -0.980378 0
M  V30 7188 H 718.13 3.42659 1.4634 0
M  V30 7189 H 718.243 4.78829 0.16106 0
M  V30 7190 H 716.607 2.54047 0.182269 0
M  V30 7191 H 717.39 3.14521 -1.3759 0
M  V30 7192 N 719.835 0.176821 1.56605 0
M  V30 7193 C 721.081 -0.467406 1.9734 0
M  V30 7194 C 721.414 -1.62523 1.06301 0
M  V30 7195 O 720.689 -1.94182 0.11125 0
M  V30 7196 C 720.972 -0.945106 3.47476 0
M  V30 7197 C 720.825 0.213273 4.49294 0
M  V30 7198 C 722.144 -1.8169 4.00845 0
M  V30 7199 H 719.263 -0.168426 0.717497 0
M  V30 7200 H 721.905 0.264065 1.88156 0
M  V30 7201 H 720.055 -1.56841 3.55434 0
M  V30 7202 H 721.727 0.850508 4.53392 0
M  V30 7203 H 719.97 0.867918 4.25029 0
M  V30 7204 H 720.641 -0.163187 5.51759 0
M  V30 7205 H 723.117 -1.29139 3.95553 0
M  V30 7206 H 721.993 -2.12015 5.06301 0
M  V30 7207 H 722.254 -2.76463 3.44994 0
M  V30 7208 N 721.313 -1.57302 -0.09688 0
M  V30 7209 C 722.541 -1.90202 -0.814295 0
M  V30 7210 C 722.956 -0.770344 -1.72369 0
M  V30 7211 O 722.313 0.257764 -1.8067 0
M  V30 7212 C 722.364 -3.22708 -1.62916 0
M  V30 7213 O 722.085 -4.31522 -0.756343 0
M  V30 7214 C 723.586 -3.69459 -2.44979 0
M  V30 7215 H 720.806 -0.629275 -0.232925 0
M  V30 7216 H 723.35 -2.04364 -0.0746482 0
M  V30 7217 H 721.505 -3.1015 -2.32133 0
M  V30 7218 H 721.919 -5.07604 -1.32054 0
M  V30 7219 H 723.393 -4.64875 -2.9765 0
M  V30 7220 H 723.87 -2.97211 -3.23361 0
M  V30 7221 H 724.476 -3.84879 -1.80964 0
M  V30 7222 N 722.791 0.367657 -1.53252 0
M  V30 7223 C 724.202 0.944563 -1.61043 0
M  V30 7224 C 724.553 1.90325 -0.476546 0
M  V30 7225 O 723.678 2.12721 0.397333 0
M  V30 7226 C 724.273 1.71992 -2.91898 0
M  V30 7227 C 722.832 2.2462 -3.02031 0
M  V30 7228 C 721.979 1.05799 -2.56324 0
M  V30 7229 H 724.93 0.146516 -1.58022 0
M  V30 7230 H 724.951 2.58095 -2.79584 0
M  V30 7231 H 724.463 1.02192 -3.74404 0
M  V30 7232 H 722.564 2.97668 -2.24108 0
M  V30 7233 H 722.677 2.52644 -4.07073 0
M  V30 7234 H 721.041 1.42435 -2.1115 0
M  V30 7235 H 721.824 0.375008 -3.41246 0
M  V30 7236 N 724.269 1.44576 0.627338 0
M  V30 7237 C 725.494 1.51271 1.41887 0
M  V30 7238 C 725.919 0.139814 1.8758 0
M  V30 7239 O 725.277 -0.871746 1.58966 0
M  V30 7240 C 725.325 2.48529 2.61277 0
M  V30 7241 O 724.429 1.98944 3.61241 0
M  V30 7242 H 723.77 0.510668 0.424399 0
M  V30 7243 H 726.3 1.89746 0.765356 0
M  V30 7244 H 726.31 2.66689 3.08773 0
M  V30 7245 H 724.985 3.48249 2.27366 0
M  V30 7246 H 723.562 1.90568 3.20528 0
M  V30 7247 N 725.747 -0.868086 1.31537 0
M  V30 7248 C 727.158 -1.437 1.19195 0
M  V30 7249 C 727.509 -1.95169 -0.200842 0
M  V30 7250 O 726.634 -1.86432 -1.09872 0
M  V30 7251 C 727.229 -2.612 2.15778 0
M  V30 7252 C 725.788 -3.1413 2.07363 0
M  V30 7253 C 724.935 -1.86845 2.049 0
M  V30 7254 H 727.886 -0.676457 1.43561 0
M  V30 7255 H 727.907 -3.37948 1.74847 0
M  V30 7256 H 727.419 -2.23709 3.17137 0
M  V30 7257 H 725.52 -3.56238 1.09204 0
M  V30 7258 H 725.633 -3.76285 2.96557 0
M  V30 7259 H 723.997 -2.05886 1.49943 0
M  V30 7260 H 724.78 -1.51589 3.08019 0
M  V30 7261 N 727.225 -1.14528 -1.08264 0
M  V30 7262 C 728.45 -0.938381 -1.84957 0
M  V30 7263 C 728.875 0.508044 -1.81109 0
M  V30 7264 O 728.233 1.36146 -1.19724 0
M  V30 7265 C 728.281 -1.44568 -3.30352 0
M  V30 7266 O 727.385 -0.638745 -4.07423 0
M  V30 7267 H 726.726 -0.335394 -0.573068 0
M  V30 7268 H 729.256 -1.52287 -1.36637 0
M  V30 7269 H 729.266 -1.45449 -3.81194 0
M  V30 7270 H 727.941 -2.49876 -3.32468 0
M  V30 7271 H 726.518 -0.698801 -3.66294 0
M  V30 7272 N 728.703 1.26451 -0.940633 0
M  V30 7273 C 730.114 1.75726 -0.630653 0
M  V30 7274 C 730.465 1.76631 0.854167 0
M  V30 7275 O 729.59 1.37807 1.66848 0
M  V30 7276 C 730.185 3.19114 -1.13805 0
M  V30 7277 C 728.744 3.66005 -0.878497 0
M  V30 7278 C 727.891 2.45505 -1.28928 0
M  V30 7279 H 730.842 1.12535 -1.119 0
M  V30 7280 H 730.863 3.77311 -0.491625 0
M  V30 7281 H 730.375 3.18424 -2.21874 0
M  V30 7282 H 728.476 3.72126 0.187833 0
M  V30 7283 H 728.589 4.54844 -1.50512 0
M  V30 7284 H 726.953 2.4467 -0.707713 0
M  V30 7285 H 727.736 2.47516 -2.37888 0
M  V30 7286 N 730.181 0.707592 1.40822 0
M  V30 7287 C 731.597 0.38034 1.55002 0
M  V30 7288 C 731.797 -1.11163 1.68062 0
M  V30 7289 O 730.853 -1.89761 1.66574 0
M  V30 7290 C 732.166 1.1394 2.78277 0
M  V30 7291 C 733.714 1.12492 2.92087 0
M  V30 7292 C 734.189 1.86597 4.18265 0
M  V30 7293 N 735.68 1.83626 4.25248 0
M  V30 7294 C 736.415 2.37794 5.21768 0
M  V30 7295 N 735.911 3.00485 6.24244 0
M  V30 7296 N 737.704 2.27982 5.13791 0
M  V30 7297 H 729.855 1.67511 1.3059 0
M  V30 7298 H 732.118 0.707579 0.630901 0
M  V30 7299 H 731.824 2.19398 2.74877 0
M  V30 7300 H 731.698 0.725793 3.70151 0
M  V30 7301 H 734.085 0.0785564 2.94995 0
M  V30 7302 H 734.166 1.57768 2.01353 0
M  V30 7303 H 733.81 2.91219 4.16118 0
M  V30 7304 H 733.74 1.38746 5.07993 0
M  V30 7305 H 736.231 1.3793 3.51829 0
M  V30 7306 H 736.544 3.39355 6.94304 0
M  V30 7307 H 734.889 3.04567 6.24711 0
M  V30 7308 H 738.08 1.78669 4.3266 0
M  V30 7309 H 738.253 2.70499 5.88841 0
M  V30 7310 N 731.66 -1.50943 0.453197 0
M  V30 7311 C 732.937 -1.94872 -0.168633 0
M  V30 7312 C 733.317 -1.39272 -1.5864 0
M  V30 7313 O 732.665 -0.586272 -2.20851 0
M  V30 7314 C 732.875 -3.48757 -0.130217 0
M  V30 7315 C 734.223 -4.23331 -0.327975 0
M  V30 7316 O 735.247 -3.55594 -0.207619 0
M  V30 7317 O 734.106 -5.43529 -0.569077 0
M  V30 7318 H 731.2 -0.818042 -0.121394 0
M  V30 7319 H 733.746 -1.61782 0.512316 0
M  V30 7320 H 732.518 -3.81725 0.860346 0
M  V30 7321 H 732.141 -3.88333 -0.853397 0
M  V30 7322 N 733.138 -0.185124 -1.56509 0
M  V30 7323 C 734.086 0.756505 -2.19954 0
M  V30 7324 C 735.08 1.22725 -1.16769 0
M  V30 7325 O 736.286 1.1913 -1.34937 0
M  V30 7326 H 732.661 0.262279 -0.704779 0
M  V30 7327 H 734.632 0.197587 -2.97745 0
M  V30 7328 C 733.381 1.96975 -2.86524 0
M  V30 7329 H 732.704 1.61658 -3.65659 0
M  V30 7330 H 734.144 2.60719 -3.34367 0
M  V30 7331 C 732.603 2.80219 -1.87027 0
M  V30 7332 O 733.133 3.77821 -1.36433 0
M  V30 7333 N 731.339 2.4551 -1.55477 0
M  V30 7334 H 730.886 1.66199 -1.96813 0
M  V30 7335 H 730.844 3.01493 -0.891597 0
M  V30 7336 N 734.616 1.57351 0.0885366 0
M  V30 7337 C 735.864 1.86051 0.789262 0
M  V30 7338 C 736.185 0.774763 1.78948 0
M  V30 7339 O 735.455 -0.198324 1.94894 0
M  V30 7340 H 734.035 0.686508 0.294475 0
M  V30 7341 H 736.697 1.94779 0.0686055 0
M  V30 7342 H 735.793 2.83007 1.31581 0
M  V30 7343 N 736.094 -0.359525 1.53444 0
M  V30 7344 C 737.322 -1.12198 1.73837 0
M  V30 7345 C 737.737 -1.82854 0.470107 0
M  V30 7346 O 737.094 -1.73781 -0.557349 0
M  V30 7347 C 737.145 -2.14769 2.90786 0
M  V30 7348 O 736.866 -1.46989 4.12706 0
M  V30 7349 C 738.367 -3.03514 3.231 0
M  V30 7350 H 735.587 -0.33524 0.581253 0
M  V30 7351 H 738.131 -0.416598 2.00212 0
M  V30 7352 H 736.286 -2.80896 2.66788 0
M  V30 7353 H 736.7 -2.15378 4.78239 0
M  V30 7354 H 738.174 -3.71453 4.08322 0
M  V30 7355 H 738.651 -3.68658 2.38721 0
M  V30 7356 H 739.257 -2.42996 3.49046 0
M  V30 7357 N 737.572 -1.44907 -0.619662 0
M  V30 7358 C 738.482 -1.55168 -1.75955 0
M  V30 7359 C 739.498 -0.43672 -1.6843 0
M  V30 7360 O 740.674 -0.695704 -1.89002 0
M  V30 7361 C 737.739 -1.50397 -3.12381 0
M  V30 7362 C 736.8 -2.72835 -3.31451 0
M  V30 7363 C 736.033 -2.68283 -4.61368 0
M  V30 7364 O 736.256 -1.74929 -5.42914 0
M  V30 7365 O 735.19 -3.59308 -4.82889 0
M  V30 7366 H 739.016 -2.51493 -1.7025 0
M  V30 7367 H 736.601 -1.27282 -0.782289 0
M  V30 7368 H 738.483 -1.50301 -3.93685 0
M  V30 7369 H 737.158 -0.572197 -3.18603 0
M  V30 7370 H 736.065 -2.78496 -2.49781 0
M  V30 7371 H 737.398 -3.65098 -3.30098 0
M  V30 7372 N 739.05 0.861098 -1.31996 0
M  V30 7373 C 740.275 1.65264 -1.2531 0
M  V30 7374 C 740.7 1.87265 0.177007 0
M  V30 7375 O 740.058 1.4208 1.12619 0
M  V30 7376 C 740.106 2.99284 -2.0115 0
M  V30 7377 O 739.21 3.89508 -1.3549 0
M  V30 7378 H 738.551 0.50409 -0.432192 0
M  V30 7379 H 741.081 1.07297 -1.74208 0
M  V30 7380 H 741.091 3.49154 -2.11081 0
M  V30 7381 H 739.766 2.82591 -3.05148 0
M  V30 7382 H 738.343 3.47966 -1.34066 0
M  V30 7383 N 740.528 1.15101 1.07655 0
M  V30 7384 C 741.475 0.844958 2.14777 0
M  V30 7385 C 742.445 -0.200798 1.64882 0
M  V30 7386 O 743.63 -0.0690278 1.90675 0
M  V30 7387 C 740.77 0.337018 3.4345 0
M  V30 7388 C 739.883 1.44398 4.07153 0
M  V30 7389 C 739.018 0.892487 5.23649 0
M  V30 7390 C 738.057 1.9766 5.79307 0
M  V30 7391 N 737.194 1.44171 6.87138 0
M  V30 7392 H 742.034 1.76242 2.40297 0
M  V30 7393 H 739.571 0.879435 1.17917 0
M  V30 7394 H 741.529 0.024256 4.17193 0
M  V30 7395 H 740.159 -0.543531 3.18191 0
M  V30 7396 H 739.211 1.87299 3.31094 0
M  V30 7397 H 740.523 2.26262 4.4453 0
M  V30 7398 H 739.677 0.532083 6.04362 0
M  V30 7399 H 738.416 0.0429854 4.87681 0
M  V30 7400 H 737.421 2.34586 4.97242 0
M  V30 7401 H 738.646 2.82982 6.17331 0
M  V30 7402 H 736.592 0.614518 6.53115 0
M  V30 7403 H 736.509 2.19665 7.23383 0
M  V30 7404 H 737.777 1.10945 7.71564 0
M  V30 7405 N 742.006 -1.2595 0.947325 0
M  V30 7406 C 742.969 -2.24407 0.466285 0
M  V30 7407 C 743.969 -1.55054 -0.426005 0
M  V30 7408 O 745.159 -1.7275 -0.224319 0
M  V30 7409 C 742.291 -3.39326 -0.327201 0
M  V30 7410 H 743.484 -2.68477 1.33642 0
M  V30 7411 H 741.037 -1.38211 0.729887 0
M  V30 7412 H 741.772 -3.00667 -1.21532 0
M  V30 7413 H 741.557 -3.9085 0.312839 0
M  V30 7414 H 743.047 -4.12455 -0.653477 0
M  V30 7415 N 743.484 -0.715051 -1.40445 0
M  V30 7416 C 744.895 -0.326763 -1.83818 0
M  V30 7417 C 745.246 1.13851 -1.59789 0
M  V30 7418 O 744.371 1.87611 -1.07848 0
M  V30 7419 C 744.966 -0.586297 -3.33688 0
M  V30 7420 C 743.525 -0.251724 -3.75557 0
M  V30 7421 C 742.672 -0.858928 -2.63662 0
M  V30 7422 H 745.623 -0.914241 -1.2972 0
M  V30 7423 H 745.644 0.148636 -3.8021 0
M  V30 7424 H 745.156 -1.65281 -3.51146 0
M  V30 7425 H 743.257 0.809754 -3.63695 0
M  V30 7426 H 743.37 -0.720348 -4.73654 0
M  V30 7427 H 741.734 -0.287013 -2.53078 0
M  V30 7428 H 742.517 -1.9297 -2.83932 0
M  V30 7429 N 744.962 1.50701 -0.461195 0
M  V30 7430 C 746.239 1.94958 0.158296 0
M  V30 7431 C 746.619 1.40111 1.57899 0
M  V30 7432 O 745.967 0.597976 2.20537 0
M  V30 7433 C 746.177 3.48821 0.11172 0
M  V30 7434 C 747.525 4.23499 0.30552 0
M  V30 7435 O 748.549 3.557 0.188758 0
M  V30 7436 O 747.408 5.43823 0.540244 0
M  V30 7437 H 744.502 0.818674 0.117054 0
M  V30 7438 H 747.048 1.61508 -0.520888 0
M  V30 7439 H 745.82 3.81263 -0.880577 0
M  V30 7440 H 745.443 3.88781 0.832791 0
M  V30 7441 N 746.441 0.193421 1.56409 0
M  V30 7442 C 747.374 -0.767384 2.1491 0
M  V30 7443 C 748.352 -1.21075 1.08534 0
M  V30 7444 O 749.536 -1.29856 1.36637 0
M  V30 7445 C 746.663 -2.03615 2.70663 0
M  V30 7446 C 745.709 -1.73505 3.89613 0
M  V30 7447 S 746.542 -0.884645 5.28142 0
M  V30 7448 C 747.698 -2.1636 5.87315 0
M  V30 7449 H 747.931 -0.270053 2.96071 0
M  V30 7450 H 745.464 -0.0215546 1.54385 0
M  V30 7451 H 747.422 -2.7648 3.03429 0
M  V30 7452 H 746.083 -2.50461 1.89547 0
M  V30 7453 H 745.276 -2.67701 4.27027 0
M  V30 7454 H 744.878 -1.08723 3.57848 0
M  V30 7455 H 747.17 -3.11629 6.01576 0
M  V30 7456 H 748.113 -1.8338 6.83943 0
M  V30 7457 H 748.521 -2.29129 5.15907 0
M  V30 7458 N 747.919 -1.57396 -0.0801906 0
M  V30 7459 C 749.147 -1.91055 -0.794075 0
M  V30 7460 C 749.562 -0.788583 -1.71542 0
M  V30 7461 O 748.919 0.238587 -1.80934 0
M  V30 7462 C 748.97 -3.24418 -1.59484 0
M  V30 7463 O 748.691 -4.323 -0.710532 0
M  V30 7464 C 750.192 -3.72037 -2.41046 0
M  V30 7465 H 747.412 -0.63171 -0.226238 0
M  V30 7466 H 749.956 -2.04431 -0.0529685 0
M  V30 7467 H 748.111 -3.12595 -2.2883 0
M  V30 7468 H 748.525 -5.08976 -1.26663 0
M  V30 7469 H 749.999 -4.68006 -2.92702 0
M  V30 7470 H 750.476 -3.00624 -3.2019 0
M  V30 7471 H 751.082 -3.86777 -1.76871 0
M  V30 7472 N 749.397 0.351382 -1.53633 0
M  V30 7473 C 750.622 1.11718 -1.74739 0
M  V30 7474 C 751.047 1.81829 -0.481657 0
M  V30 7475 O 750.405 1.72264 0.565233 0
M  V30 7476 C 750.453 2.11234 -2.92254 0
M  V30 7477 O 749.557 3.186 -2.61855 0
M  V30 7478 H 748.898 0.323482 -0.579875 0
M  V30 7479 H 751.428 0.404167 -2.00568 0
M  V30 7480 H 751.438 2.54591 -3.18822 0
M  V30 7481 H 750.113 1.59599 -3.84058 0
M  V30 7482 H 748.69 2.80115 -2.4615 0
M  V30 7483 N 750.875 1.45233 0.611969 0
M  V30 7484 C 752.286 1.4354 1.19387 0
M  V30 7485 C 752.637 0.160713 1.95541 0
M  V30 7486 O 751.762 -0.737954 2.03429 0
M  V30 7487 C 752.357 2.60045 2.17169 0
M  V30 7488 C 750.916 2.61486 2.70744 0
M  V30 7489 C 750.063 2.35708 1.46072 0
M  V30 7490 H 753.014 1.53536 0.401529 0
M  V30 7491 H 753.035 2.33893 3.00124 0
M  V30 7492 H 752.547 3.52803 1.61714 0
M  V30 7493 H 750.648 1.72721 3.30149 0
M  V30 7494 H 750.761 3.60572 3.15476 0
M  V30 7495 H 749.125 1.85178 1.74875 0
M  V30 7496 H 749.908 3.30606 0.924922 0
M  V30 7497 N 752.353 -0.854086 1.3245 0
M  V30 7498 C 753.581 -1.64074 1.26045 0
M  V30 7499 C 753.996 -1.8802 -0.171456 0
M  V30 7500 O 753.353 -1.4496 -1.10873 0
M  V30 7501 C 753.404 -2.9997 2.01743 0
M  V30 7502 O 753.125 -2.77084 3.39346 0
M  V30 7503 C 754.626 -3.94414 2.02368 0
M  V30 7504 H 751.846 -0.511015 0.434862 0
M  V30 7505 H 754.39 -1.06494 1.74583 0
M  V30 7506 H 752.545 -3.54193 1.56926 0
M  V30 7507 H 752.959 -3.63514 3.78098 0
M  V30 7508 H 754.433 -4.87032 2.59815 0
M  V30 7509 H 754.91 -4.27427 1.01009 0
M  V30 7510 H 755.516 -3.46127 2.47135 0
M  V30 7511 N 753.831 -1.1567 -1.07043 0
M  V30 7512 C 755.056 -0.957946 -1.83952 0
M  V30 7513 C 755.481 0.488807 -1.81638 0
M  V30 7514 O 754.839 1.34869 -1.21162 0
M  V30 7515 C 754.887 -1.48064 -3.288 0
M  V30 7516 O 753.991 -0.681921 -4.06723 0
M  V30 7517 H 753.332 -0.341453 -0.569479 0
M  V30 7518 H 755.862 -1.53728 -1.35015 0
M  V30 7519 H 755.872 -1.49484 -3.7963 0
M  V30 7520 H 754.547 -2.53388 -3.29799 0
M  V30 7521 H 753.124 -0.737612 -3.65532 0
M  V30 7522 N 755.309 1.25446 -0.953992 0
M  V30 7523 C 756.272 2.24156 -0.478179 0
M  V30 7524 C 757.272 1.55278 0.417776 0
M  V30 7525 O 758.462 1.72866 0.215155 0
M  V30 7526 C 755.594 3.39495 0.309202 0
M  V30 7527 H 756.787 2.67764 -1.35064 0
M  V30 7528 H 754.34 1.37822 -0.737206 0
M  V30 7529 H 755.075 3.01307 1.19936 0
M  V30 7530 H 754.86 3.90679 -0.333562 0
M  V30 7531 H 756.35 4.12796 0.631594 0
M  V30 7532 N 756.787 0.722489 1.40064 0
M  V30 7533 C 758.033 0.265371 2.01056 0
M  V30 7534 C 758.366 -1.14062 1.57174 0
M  V30 7535 O 757.641 -1.77514 0.794916 0
M  V30 7536 C 757.924 0.353157 3.58364 0
M  V30 7537 C 757.777 1.79802 4.123 0
M  V30 7538 C 759.096 -0.271677 4.39261 0
M  V30 7539 H 756.215 0.0979002 0.730469 0
M  V30 7540 H 758.857 0.916289 1.66446 0
M  V30 7541 H 757.007 -0.201037 3.87979 0
M  V30 7542 H 758.679 2.40813 3.93455 0
M  V30 7543 H 756.922 2.32348 3.66329 0
M  V30 7544 H 757.593 1.81079 5.21454 0
M  V30 7545 H 760.069 0.200607 4.15616 0
M  V30 7546 H 758.945 -0.179843 5.48605 0
M  V30 7547 H 759.206 -1.35611 4.20787 0
M  V30 7548 N 758.265 -1.50454 0.469181 0
M  V30 7549 C 759.493 -2.06729 -0.0842134 0
M  V30 7550 C 759.908 -1.33326 -1.33677 0
M  V30 7551 O 759.265 -0.401977 -1.78018 0
M  V30 7552 C 759.316 -3.59557 -0.374253 0
M  V30 7553 O 759.037 -4.30192 0.828622 0
M  V30 7554 C 760.538 -4.32449 -0.974824 0
M  V30 7555 H 757.758 -0.670971 0.006231 0
M  V30 7556 H 760.302 -1.93645 0.657415 0
M  V30 7557 H 758.457 -3.7245 -1.06581 0
M  V30 7558 H 758.871 -5.21371 0.572066 0
M  V30 7559 H 760.345 -5.40361 -1.12755 0
M  V30 7560 H 760.822 -3.92819 -1.96442 0
M  V30 7561 H 761.428 -4.24082 -0.321703 0
M  V30 7562 N 759.743 -0.201713 -1.56304 0
M  V30 7563 C 760.971 0.440723 -2.02152 0
M  V30 7564 C 761.386 1.54735 -1.08179 0
M  V30 7565 O 760.743 1.82289 -0.0878196 0
M  V30 7566 C 760.794 0.990884 -3.47655 0
M  V30 7567 O 760.515 -0.0715937 -4.38041 0
M  V30 7568 C 762.016 1.70854 -4.09052 0
M  V30 7569 H 759.236 0.109987 -0.661924 0
M  V30 7570 H 761.78 -0.312358 -2.021 0
M  V30 7571 H 759.935 1.69432 -3.48384 0
M  V30 7572 H 760.349 0.338892 -5.23404 0
M  V30 7573 H 761.823 2.04572 -5.12693 0
M  V30 7574 H 762.3 2.61462 -3.52894 0
M  V30 7575 H 762.906 1.0508 -4.12114 0
M  V30 7576 N 761.222 1.57436 0.0718424 0
M  V30 7577 C 762.633 1.75975 0.623678 0
M  V30 7578 C 762.984 0.827155 1.77912 0
M  V30 7579 O 762.109 0.0112425 2.16397 0
M  V30 7580 C 762.704 3.1911 1.13816 0
M  V30 7581 C 761.263 3.38994 1.63586 0
M  V30 7582 C 760.41 2.71684 0.555261 0
M  V30 7583 H 763.361 1.57948 -0.154328 0
M  V30 7584 H 763.382 3.23267 2.00696 0
M  V30 7585 H 762.894 3.86962 0.296998 0
M  V30 7586 H 760.995 2.76256 2.50027 0
M  V30 7587 H 761.108 4.47436 1.71283 0
M  V30 7588 H 759.472 2.34236 1.00029 0
M  V30 7589 H 760.255 3.42191 -0.275712 0
M  V30 7590 N 762.7 -0.34323 1.53817 0
M  V30 7591 C 763.928 -1.10348 1.75017 0
M  V30 7592 C 764.343 -1.82345 0.489475 0
M  V30 7593 O 763.7 -1.74362 -0.538886 0
M  V30 7594 C 763.751 -2.11672 2.93048 0
M  V30 7595 O 763.472 -1.42603 4.14241 0
M  V30 7596 C 764.973 -3.0007 3.26301 0
M  V30 7597 H 762.193 -0.329056 0.584776 0
M  V30 7598 H 764.737 -0.395339 2.00642 0
M  V30 7599 H 762.892 -2.78051 2.69753 0
M  V30 7600 H 763.306 -2.10294 4.80496 0
M  V30 7601 H 764.78 -3.67101 4.12239 0
M  V30 7602 H 765.257 -3.66105 2.42618 0
M  V30 7603 H 765.863 -2.3928 3.51604 0
M  V30 7604 N 764.178 -1.45556 -0.604258 0
M  V30 7605 C 765.589 -1.44171 -1.18624 0
M  V30 7606 C 765.94 -0.171081 -1.95453 0
M  V30 7607 O 765.065 0.727156 -2.03817 0
M  V30 7608 C 765.66 -2.61193 -2.15786 0
M  V30 7609 C 764.219 -2.62918 -2.69353 0
M  V30 7610 C 763.366 -2.36479 -1.4482 0
M  V30 7611 H 766.317 -1.53747 -0.393381 0
M  V30 7612 H 766.338 -2.35481 -2.98879 0
M  V30 7613 H 765.85 -3.53656 -1.59841 0
M  V30 7614 H 763.951 -1.7447 -3.29228 0
M  V30 7615 H 764.064 -3.6224 -3.13559 0
M  V30 7616 H 762.428 -1.86103 -1.73891 0
M  V30 7617 H 763.211 -3.31091 -0.907376 0
M  V30 7618 N 765.656 0.84705 -1.32902 0
M  V30 7619 C 766.604 1.97765 -1.22441 0
M  V30 7620 C 767.598 1.68919 -0.127546 0
M  V30 7621 O 768.804 1.77633 -0.290973 0
M  V30 7622 H 765.179 0.649072 -0.379748 0
M  V30 7623 H 767.15 2.03713 -2.18044 0
M  V30 7624 C 765.899 3.33834 -0.972125 0
M  V30 7625 H 765.222 3.56564 -1.80837 0
M  V30 7626 H 766.662 4.13467 -0.939209 0
M  V30 7627 C 765.121 3.35328 0.325059 0
M  V30 7628 O 765.651 3.78887 1.33445 0
M  V30 7629 N 763.857 2.88488 0.349718 0
M  V30 7630 H 763.404 2.53234 -0.472236 0
M  V30 7631 H 763.362 2.8987 1.21748 0
M  V30 7632 N 767.134 1.16236 1.06428 0
M  V30 7633 C 768.097 0.870163 2.1204 0
M  V30 7634 C 769.097 -0.134239 1.60239 0
M  V30 7635 O 770.287 0.0964932 1.73933 0
M  V30 7636 C 767.419 0.301033 3.39568 0
M  V30 7637 H 768.612 1.8064 2.39394 0
M  V30 7638 H 766.165 0.971116 1.2247 0
M  V30 7639 H 766.9 -0.642948 3.17863 0
M  V30 7640 H 766.685 1.02475 3.78472 0
M  V30 7641 H 768.175 0.114494 4.17443 0
M  V30 7642 N 768.612 -1.24939 0.960631 0
M  V30 7643 C 769.84 -1.96881 0.636045 0
M  V30 7644 C 770.255 -1.71334 -0.793093 0
M  V30 7645 O 769.612 -0.992917 -1.53125 0
M  V30 7646 C 769.663 -3.50309 0.892533 0
M  V30 7647 O 769.384 -3.74977 2.26548 0
M  V30 7648 C 770.885 -4.39474 0.581159 0
M  V30 7649 H 768.105 -0.627399 0.237931 0
M  V30 7650 H 770.649 -1.58952 1.28664 0
M  V30 7651 H 768.804 -3.86326 0.288257 0
M  V30 7652 H 769.218 -4.69401 2.34014 0
M  V30 7653 H 770.692 -5.46008 0.811125 0
M  V30 7654 H 771.169 -4.3652 -0.48443 0
M  V30 7655 H 771.775 -4.09032 1.16502 0
M  V30 7656 N 770.09 -0.729906 -1.39679 0
M  V30 7657 C 771.315 -0.284345 -2.05442 0
M  V30 7658 C 771.74 1.07056 -1.54663 0
M  V30 7659 O 771.098 1.67732 -0.688157 0
M  V30 7660 C 771.146 -0.290089 -3.59431 0
M  V30 7661 O 770.25 0.723978 -4.05995 0
M  V30 7662 H 769.591 -0.130311 -0.651088 0
M  V30 7663 H 772.121 -0.994403 -1.78809 0
M  V30 7664 H 772.131 -0.132712 -4.07784 0
M  V30 7665 H 770.806 -1.27877 -3.95753 0
M  V30 7666 H 769.383 0.533154 -3.69069 0
M  V30 7667 N 771.568 1.50203 -0.477153 0
M  V30 7668 C 772.979 1.86685 -0.0235041 0
M  V30 7669 C 773.33 1.39148 1.38319 0
M  V30 7670 O 772.455 0.759051 2.02651 0
M  V30 7671 C 773.05 3.38781 -0.0358767 0
M  V30 7672 C 771.609 3.74652 0.362327 0
M  V30 7673 C 770.756 2.7412 -0.41875 0
M  V30 7674 H 773.707 1.4286 -0.691133 0
M  V30 7675 H 773.728 3.72732 0.764924 0
M  V30 7676 H 773.24 3.73349 -1.05981 0
M  V30 7677 H 771.341 3.45686 1.39039 0
M  V30 7678 H 771.454 4.79063 0.059457 0
M  V30 7679 H 769.818 2.54376 0.128341 0
M  V30 7680 H 770.601 3.11532 -1.44231 0
M  V30 7681 N 773.046 0.209999 1.56195 0
M  V30 7682 C 774.274 -0.429996 2.02382 0
M  V30 7683 C 774.689 -1.54159 1.08998 0
M  V30 7684 O 774.046 -1.82239 0.0974856 0
M  V30 7685 C 774.097 -0.972433 3.48175 0
M  V30 7686 O 773.818 0.0948231 4.37997 0
M  V30 7687 C 775.319 -1.68683 4.09952 0
M  V30 7688 H 772.539 -0.106475 0.662498 0
M  V30 7689 H 775.083 0.323072 2.01932 0
M  V30 7690 H 773.238 -1.67582 3.49278 0
M  V30 7691 H 773.652 -0.31113 5.23576 0
M  V30 7692 H 775.126 -2.01851 5.13771 0
M  V30 7693 H 775.603 -2.59587 3.54276 0
M  V30 7694 H 776.209 -1.02893 4.12666 0
M  V30 7695 N 774.524 -1.57472 -0.0634922 0
M  V30 7696 C 775.935 -1.76303 -0.614337 0
M  V30 7697 C 776.286 -0.836578 -1.77471 0
M  V30 7698 O 775.411 -0.0227184 -2.16388 0
M  V30 7699 C 776.006 -3.19709 -1.12122 0
M  V30 7700 C 774.565 -3.39856 -1.61786 0
M  V30 7701 C 773.712 -2.71975 -0.540845 0
M  V30 7702 H 776.663 -1.57864 0.162702 0
M  V30 7703 H 776.684 -3.24326 -1.98979 0
M  V30 7704 H 776.196 -3.87114 -0.276472 0
M  V30 7705 H 774.297 -2.77578 -2.48558 0
M  V30 7706 H 774.41 -4.48338 -1.68908 0
M  V30 7707 H 772.774 -2.34763 -0.987854 0
M  V30 7708 H 773.557 -3.4204 0.293856 0
M  V30 7709 N 776.003 0.335068 -1.53997 0
M  V30 7710 C 776.966 1.39481 -1.81872 0
M  V30 7711 C 777.966 1.4524 -0.690078 0
M  V30 7712 O 779.156 1.45467 -0.958377 0
M  V30 7713 C 776.288 2.78329 -1.9684 0
M  V30 7714 H 777.481 1.16024 -2.76547 0
M  V30 7715 H 775.034 0.569926 -1.45539 0
M  V30 7716 H 775.769 3.07058 -1.04337 0
M  V30 7717 H 775.554 2.75544 -2.78958 0
M  V30 7718 H 777.044 3.55016 -2.19894 0
M  V30 7719 N 777.481 1.45874 0.596531 0
M  V30 7720 C 778.727 1.5069 1.35722 0
M  V30 7721 C 779.06 0.152506 1.936 0
M  V30 7722 O 778.335 -0.834411 1.75692 0
M  V30 7723 C 778.618 2.59474 2.4969 0
M  V30 7724 C 778.471 4.04396 1.96937 0
M  V30 7725 C 779.79 2.64451 3.51787 0
M  V30 7726 H 776.909 0.548611 0.492133 0
M  V30 7727 H 779.551 1.77741 0.671428 0
M  V30 7728 H 777.701 2.36539 3.08191 0
M  V30 7729 H 779.373 4.38576 1.43 0
M  V30 7730 H 777.616 4.14529 1.27859 0
M  V30 7731 H 778.287 4.76218 2.79143 0
M  V30 7732 H 780.763 2.85031 3.03145 0
M  V30 7733 H 779.639 3.42411 4.29006 0
M  V30 7734 H 779.9 1.69965 4.08123 0
M  V30 7735 N 778.959 -0.83999 1.33349 0
M  V30 7736 C 780.187 -1.62728 1.27778 0
M  V30 7737 C 780.602 -1.88191 -0.151505 0
M  V30 7738 O 779.959 -1.46128 -1.09329 0
M  V30 7739 C 780.01 -2.97813 2.04913 0
M  V30 7740 O 779.731 -2.73469 3.42266 0
M  V30 7741 C 781.232 -3.92245 2.0654 0
M  V30 7742 H 778.452 -0.506374 0.440257 0
M  V30 7743 H 780.996 -1.04637 1.75703 0
M  V30 7744 H 779.151 -3.52509 1.60674 0
M  V30 7745 H 779.565 -3.59483 3.81932 0
M  V30 7746 H 781.039 -4.84249 2.64966 0
M  V30 7747 H 781.516 -4.26332 1.05537 0
M  V30 7748 H 782.122 -3.43487 2.50793 0
M  V30 7749 N 780.437 -1.16799 -1.0581 0
M  V30 7750 C 781.665 -0.97687 -1.82387 0
M  V30 7751 C 782.08 0.474917 -1.82729 0
M  V30 7752 O 781.437 1.3297 -1.25001 0
M  V30 7753 C 781.488 -1.50279 -3.28783 0
M  V30 7754 O 781.209 -2.89772 -3.28578 0
M  V30 7755 C 782.71 -1.35538 -4.22071 0
M  V30 7756 H 779.93 -0.345977 -0.574927 0
M  V30 7757 H 782.474 -1.54942 -1.33466 0
M  V30 7758 H 780.629 -0.972414 -3.74997 0
M  V30 7759 H 781.043 -3.13954 -4.20159 0
M  V30 7760 H 782.517 -1.7716 -5.22799 0
M  V30 7761 H 782.994 -0.301598 -4.38163 0
M  V30 7762 H 783.6 -1.87562 -3.81708 0
M  V30 7763 N 781.915 1.24427 -0.967243 0
M  V30 7764 C 783.326 1.74349 -0.667785 0
M  V30 7765 C 783.677 1.78403 0.816509 0
M  V30 7766 O 782.802 1.41315 1.63887 0
M  V30 7767 C 783.397 3.16628 -1.20548 0
M  V30 7768 C 781.956 3.64059 -0.955934 0
M  V30 7769 C 781.103 2.42715 -1.34106 0
M  V30 7770 H 784.054 1.10136 -1.14262 0
M  V30 7771 H 784.075 3.76183 -0.571547 0
M  V30 7772 H 783.587 3.13646 -2.28578 0
M  V30 7773 H 781.688 3.72441 0.108858 0
M  V30 7774 H 781.801 4.51549 -1.60126 0
M  V30 7775 H 780.165 2.43114 -0.759452 0
M  V30 7776 H 780.948 2.42414 -2.43085 0
M  V30 7777 N 783.393 0.737304 1.3929 0
M  V30 7778 C 784.621 0.296573 2.04763 0
M  V30 7779 C 785.036 -1.06941 1.55592 0
M  V30 7780 O 784.393 -1.67619 0.721822 0
M  V30 7781 C 784.444 0.291906 3.6032 0
M  V30 7782 O 784.165 1.60397 4.07682 0
M  V30 7783 C 785.666 -0.164708 4.42994 0
M  V30 7784 H 782.886 0.129251 0.658434 0
M  V30 7785 H 785.43 1.0016 1.78293 0
M  V30 7786 H 783.585 -0.364251 3.85684 0
M  V30 7787 H 783.999 1.51909 5.0202 0
M  V30 7788 H 785.473 -0.116814 5.51876 0
M  V30 7789 H 785.95 -1.21022 4.22197 0
M  V30 7790 H 786.556 0.461968 4.22784 0
M  V30 7791 N 784.871 -1.49948 0.485112 0
M  V30 7792 C 786.282 -1.8667 0.0334041 0
M  V30 7793 C 786.633 -1.3988 -1.37579 0
M  V30 7794 O 785.758 -0.769788 -2.02245 0
M  V30 7795 C 786.353 -3.38757 0.0538426 0
M  V30 7796 C 784.912 -3.74839 -0.342453 0
M  V30 7797 C 784.059 -2.73894 0.433281 0
M  V30 7798 H 787.01 -1.42492 0.698699 0
M  V30 7799 H 787.031 -3.73132 -0.745146 0
M  V30 7800 H 786.543 -3.72782 1.07959 0
M  V30 7801 H 784.644 -3.46419 -1.37203 0
M  V30 7802 H 784.757 -4.79088 -0.0340503 0
M  V30 7803 H 783.121 -2.54441 -0.114849 0
M  V30 7804 H 783.904 -3.10763 1.45881 0
M  V30 7805 N 786.349 -0.21828 -1.56081 0
M  V30 7806 C 787.297 0.709679 -2.21509 0
M  V30 7807 C 788.291 1.20221 -1.19346 0
M  V30 7808 O 789.497 1.16241 -1.37433 0
M  V30 7809 H 785.872 0.247271 -0.710184 0
M  V30 7810 H 787.843 0.134386 -2.98097 0
M  V30 7811 C 786.592 1.90853 -2.90638 0
M  V30 7812 H 785.915 1.53865 -3.69006 0
M  V30 7813 H 787.355 2.53568 -3.39822 0
M  V30 7814 C 785.814 2.76189 -1.92929 0
M  V30 7815 O 786.344 3.74842 -1.44416 0
M  V30 7816 N 784.55 2.42157 -1.6065 0
M  V30 7817 H 784.097 1.61987 -2.00294 0
M  V30 7818 H 784.055 2.99534 -0.955347 0
M  V30 7819 N 787.827 1.57504 0.0551401 0
M  V30 7820 C 788.79 2.03826 1.04821 0
M  V30 7821 C 789.79 0.937968 1.30609 0
M  V30 7822 O 790.98 1.20237 1.2605 0
M  V30 7823 C 788.112 2.43309 2.38775 0
M  V30 7824 H 789.305 2.92802 0.6486 0
M  V30 7825 H 786.858 1.53368 0.301315 0
M  V30 7826 H 787.593 1.5741 2.83536 0
M  V30 7827 H 787.378 3.23615 2.21395 0
M  V30 7828 H 788.868 2.79666 3.10124 0
M  V30 7829 N 789.305 -0.326896 1.54172 0
M  V30 7830 C 790.533 -1.08486 1.76177 0
M  V30 7831 C 790.948 -1.81815 0.508788 0
M  V30 7832 O 790.305 -1.74924 -0.520362 0
M  V30 7833 C 790.356 -2.08552 2.95276 0
M  V30 7834 O 790.077 -1.38202 4.15731 0
M  V30 7835 C 791.578 -2.96593 3.29466 0
M  V30 7836 H 788.798 -0.322835 0.588233 0
M  V30 7837 H 791.342 -0.374036 2.0105 0
M  V30 7838 H 789.497 -2.75174 2.72687 0
M  V30 7839 H 789.911 -2.05186 4.827 0
M  V30 7840 H 791.385 -3.62708 4.16109 0
M  V30 7841 H 791.862 -3.63511 2.46487 0
M  V30 7842 H 792.468 -2.35537 3.54122 0
M  V30 7843 N 790.784 -1.46188 -0.588786 0
M  V30 7844 C 792.009 -1.5498 -1.37826 0
M  V30 7845 C 792.434 -0.189498 -1.87143 0
M  V30 7846 O 791.792 0.829293 -1.61222 0
M  V30 7847 C 791.84 -2.55369 -2.54596 0
M  V30 7848 O 790.944 -2.08452 -3.55839 0
M  V30 7849 H 790.285 -0.521741 -0.41071 0
M  V30 7850 H 792.815 -1.91708 -0.714779 0
M  V30 7851 H 792.825 -2.74782 -3.01594 0
M  V30 7852 H 791.5 -3.54155 -2.18052 0
M  V30 7853 H 790.077 -1.98999 -3.15363 0
M  V30 7854 N 792.262 0.832906 -1.33792 0
M  V30 7855 C 793.673 1.40489 -1.22963 0
M  V30 7856 C 794.024 1.95633 0.149026 0
M  V30 7857 O 793.149 1.8928 1.04891 0
M  V30 7858 C 793.744 2.55387 -2.22627 0
M  V30 7859 C 792.303 3.08522 -2.15618 0
M  V30 7860 C 791.45 1.81347 -2.09782 0
M  V30 7861 H 794.401 0.638156 -1.45304 0
M  V30 7862 H 794.422 3.33193 -1.83746 0
M  V30 7863 H 793.934 2.15222 -3.22957 0
M  V30 7864 H 792.035 3.53217 -1.18611 0
M  V30 7865 H 792.148 3.6829 -3.0643 0
M  V30 7866 H 790.512 2.01839 -1.55349 0
M  V30 7867 H 791.295 1.43369 -3.1193 0
M  V30 7868 N 793.74 1.17359 1.05189 0
M  V30 7869 C 794.968 0.986529 1.81866 0
M  V30 7870 C 795.383 -0.46522 1.82979 0
M  V30 7871 O 794.74 -1.32305 1.25705 0
M  V30 7872 C 794.791 1.52021 3.27982 0
M  V30 7873 O 794.512 2.91511 3.27037 0
M  V30 7874 C 796.013 1.37774 4.21347 0
M  V30 7875 H 793.233 0.349021 0.573084 0
M  V30 7876 H 795.777 1.55648 1.32643 0
M  V30 7877 H 793.932 0.992287 3.74476 0
M  V30 7878 H 794.346 3.16178 4.18488 0
M  V30 7879 H 795.82 1.7993 5.21852 0
M  V30 7880 H 796.297 0.32483 4.37997 0
M  V30 7881 H 796.903 1.89583 3.80708 0
M  V30 7882 N 795.218 -1.23913 0.973828 0
M  V30 7883 C 796.148 -2.27453 0.527969 0
M  V30 7884 C 797.129 -1.6443 -0.435513 0
M  V30 7885 O 798.314 -1.9137 -0.330306 0
M  V30 7886 C 795.444 -3.4685 -0.176757 0
M  V30 7887 C 794.398 -4.22181 0.703352 0
M  V30 7888 C 793.724 -5.34534 -0.133215 0
M  V30 7889 C 795.024 -4.82865 1.99096 0
M  V30 7890 H 796.718 -2.65 1.3934 0
M  V30 7891 H 794.264 -1.27388 0.671446 0
M  V30 7892 H 796.217 -4.18424 -0.499934 0
M  V30 7893 H 794.941 -3.08346 -1.07659 0
M  V30 7894 H 793.6 -3.52416 1.00989 0
M  V30 7895 H 793.248 -4.92271 -1.03338 0
M  V30 7896 H 792.948 -5.85855 0.452494 0
M  V30 7897 H 794.472 -6.08933 -0.450924 0
M  V30 7898 H 795.886 -5.46481 1.73297 0
M  V30 7899 H 794.283 -5.44444 2.52389 0
M  V30 7900 H 795.353 -4.03977 2.68199 0
M  V30 7901 N 796.696 -0.74468 -1.38897 0
M  V30 7902 C 797.944 -0.296298 -1.99916 0
M  V30 7903 C 798.265 1.12325 -1.59399 0
M  V30 7904 O 797.535 1.76658 -0.846689 0
M  V30 7905 H 796.115 -0.106561 -0.73936 0
M  V30 7906 H 798.777 -0.956793 -1.69798 0
M  V30 7907 H 797.873 -0.352356 -3.10105 0
M  V30 7908 N 798.174 1.49689 -0.493057 0
M  V30 7909 C 799.121 2.28976 0.28959 0
M  V30 7910 C 800.091 1.35011 0.967536 0
M  V30 7911 O 801.276 1.63964 0.975736 0
M  V30 7912 C 798.416 3.1748 1.35279 0
M  V30 7913 C 797.529 4.26496 0.687418 0
M  V30 7914 C 796.664 5.02226 1.73038 0
M  V30 7915 C 795.703 6.03089 1.04645 0
M  V30 7916 N 794.84 6.72014 2.03325 0
M  V30 7917 H 799.68 2.954 -0.392798 0
M  V30 7918 H 797.217 1.45657 -0.205554 0
M  V30 7919 H 799.175 3.67162 1.98111 0
M  V30 7920 H 797.805 2.53057 2.00405 0
M  V30 7921 H 796.857 3.80362 -0.0540001 0
M  V30 7922 H 798.169 4.98578 0.14864 0
M  V30 7923 H 797.323 5.55737 2.43395 0
M  V30 7924 H 796.062 4.29899 2.303 0
M  V30 7925 H 795.067 5.48817 0.328606 0
M  V30 7926 H 796.292 6.77398 0.480428 0
M  V30 7927 H 794.238 6.02464 2.59564 0
M  V30 7928 H 794.155 7.40046 1.54492 0
M  V30 7929 H 795.423 7.30133 2.72995 0
M  V30 7930 N 799.652 0.226554 1.55963 0
M  V30 7931 C 800.88 -0.408507 2.02827 0
M  V30 7932 C 801.295 -1.52994 1.10627 0
M  V30 7933 O 800.652 -1.82126 0.116809 0
M  V30 7934 C 800.703 -0.93545 3.49187 0
M  V30 7935 O 800.424 0.141273 4.37872 0
M  V30 7936 C 801.925 -1.64325 4.11719 0
M  V30 7937 H 799.145 -0.099442 0.66359 0
M  V30 7938 H 801.689 0.344471 2.01578 0
M  V30 7939 H 799.844 -1.63868 3.51036 0
M  V30 7940 H 800.258 -0.25558 5.23877 0
M  V30 7941 H 801.732 -1.9639 5.15883 0
M  V30 7942 H 802.209 -2.55815 3.57009 0
M  V30 7943 H 802.815 -0.9851 4.13734 0
M  V30 7944 N 801.13 -1.57531 -0.0467866 0
M  V30 7945 C 802.355 -1.93087 -0.757123 0
M  V30 7946 C 802.78 -0.825116 -1.69037 0
M  V30 7947 O 802.138 0.220449 -1.79955 0
M  V30 7948 C 802.186 -3.27669 -1.5055 0
M  V30 7949 O 801.29 -3.18667 -2.61773 0
M  V30 7950 H 800.631 -0.631597 -0.204892 0
M  V30 7951 H 803.161 -2.04599 -0.00755232 0
M  V30 7952 H 803.171 -3.6214 -1.87932 0
M  V30 7953 H 801.846 -4.07717 -0.820931 0
M  V30 7954 H 800.423 -2.95798 -2.27064 0
M  V30 7955 N 802.608 0.318715 -1.54344 0
M  V30 7956 C 804.019 0.89285 -1.63967 0
M  V30 7957 C 804.37 1.88712 -0.536855 0
M  V30 7958 O 803.495 2.13877 0.329457 0
M  V30 7959 C 804.09 1.62618 -2.97222 0
M  V30 7960 C 802.649 2.14897 -3.09025 0
M  V30 7961 C 801.796 0.975909 -2.5956 0
M  V30 7962 H 804.747 0.0961687 -1.58408 0
M  V30 7963 H 804.768 2.4907 -2.87653 0
M  V30 7964 H 804.28 0.902286 -3.77466 0
M  V30 7965 H 802.381 2.90387 -2.33465 0
M  V30 7966 H 802.494 2.39565 -4.14904 0
M  V30 7967 H 800.858 1.35646 -2.15574 0
M  V30 7968 H 801.641 0.266253 -3.42266 0
M  V30 7969 N 804.086 1.46499 0.581025 0
M  V30 7970 C 805.314 1.5547 1.36517 0
M  V30 7971 C 805.729 0.196407 1.87776 0
M  V30 7972 O 805.086 -0.806577 1.63709 0
M  V30 7973 C 805.137 2.56084 2.55154 0
M  V30 7974 O 804.858 3.86637 2.06018 0
M  V30 7975 C 806.359 2.75011 3.47683 0
M  V30 7976 H 803.579 0.525703 0.416986 0
M  V30 7977 H 806.123 1.9192 0.706177 0
M  V30 7978 H 804.278 2.22633 3.17039 0
M  V30 7979 H 804.692 4.41413 2.83292 0
M  V30 7980 H 806.166 3.49329 4.27403 0
M  V30 7981 H 806.643 1.81978 3.99726 0
M  V30 7982 H 807.249 3.09565 2.91632 0
M  V30 7983 N 805.565 -0.825799 1.34232 0
M  V30 7984 C 806.79 -1.61883 1.29648 0
M  V30 7985 C 807.215 -1.87669 -0.127295 0
M  V30 7986 O 806.573 -1.45016 -1.08813 0
M  V30 7987 C 806.621 -2.93846 2.09014 0
M  V30 7988 O 805.725 -3.85778 1.4577 0
M  V30 7989 H 805.066 -0.492454 0.445405 0
M  V30 7990 H 807.596 -1.02641 1.76992 0
M  V30 7991 H 807.606 -3.43435 2.20264 0
M  V30 7992 H 806.281 -2.74401 3.12533 0
M  V30 7993 H 804.858 -3.4429 1.43245 0
M  V30 7994 N 807.043 -1.17915 -1.04565 0
M  V30 7995 C 808.006 -0.903787 -2.10628 0
M  V30 7996 C 809.006 0.10873 -1.60432 0
M  V30 7997 O 810.196 -0.124152 -1.73757 0
M  V30 7998 C 807.328 -0.355017 -3.39046 0
M  V30 7999 H 808.521 -1.84425 -2.3649 0
M  V30 8000 H 806.074 -0.990477 -1.2091 0
M  V30 8001 H 806.809 0.592297 -3.18845 0
M  V30 8002 H 806.594 -1.08484 -3.76794 0
M  V30 8003 H 808.084 -0.180891 -4.17208 0
M  V30 8004 N 808.521 1.23394 -0.980386 0
M  V30 8005 C 809.767 1.92094 -0.650223 0
M  V30 8006 C 810.1 1.76309 0.814173 0
M  V30 8007 O 809.375 1.12406 1.5873 0
M  V30 8008 C 809.658 3.44713 -1.04139 0
M  V30 8009 C 809.511 3.69606 -2.56342 0
M  V30 8010 C 810.83 4.36191 -0.585296 0
M  V30 8011 H 807.949 0.697618 -0.237695 0
M  V30 8012 H 810.591 1.45517 -1.22167 0
M  V30 8013 H 808.741 3.84513 -0.55515 0
M  V30 8014 H 810.413 3.39288 -3.1254 0
M  V30 8015 H 808.656 3.14318 -2.98976 0
M  V30 8016 H 809.327 4.76441 -2.78762 0
M  V30 8017 H 811.803 4.03836 -1.00276 0
M  V30 8018 H 810.679 5.41679 -0.887428 0
M  V30 8019 H 810.94 4.39097 0.51438 0
M  V30 8020 N 809.999 0.752036 1.385 0
M  V30 8021 C 811.227 0.318274 2.04437 0
M  V30 8022 C 811.642 -1.05285 1.56718 0
M  V30 8023 O 810.999 -1.66844 0.73956 0
M  V30 8024 C 811.05 0.330106 3.5999 0
M  V30 8025 O 810.771 1.64712 4.05957 0
M  V30 8026 C 812.272 -0.117713 4.43144 0
M  V30 8027 H 809.492 0.136228 0.657026 0
M  V30 8028 H 812.036 1.02045 1.7722 0
M  V30 8029 H 810.191 -0.323323 3.86048 0
M  V30 8030 H 810.605 1.57225 5.0038 0
M  V30 8031 H 812.079 -0.0582735 5.51969 0
M  V30 8032 H 812.556 -1.16538 4.23457 0
M  V30 8033 H 813.162 0.506784 4.2227 0
M  V30 8034 N 811.477 -1.49425 0.500989 0
M  V30 8035 C 812.705 -2.06861 -0.0403443 0
M  V30 8036 C 813.12 -1.36132 -1.30819 0
M  V30 8037 O 812.477 -0.439647 -1.77125 0
M  V30 8038 C 812.528 -3.6027 -0.297902 0
M  V30 8039 O 812.249 -4.28338 0.919686 0
M  V30 8040 C 813.75 -4.34419 -0.882876 0
M  V30 8041 H 810.97 -0.670688 0.0204619 0
M  V30 8042 H 813.514 -1.92207 0.698342 0
M  V30 8043 H 811.669 -3.74627 -0.98657 0
M  V30 8044 H 812.083 -5.2004 0.682528 0
M  V30 8045 H 813.557 -5.42631 -1.01268 0
M  V30 8046 H 814.034 -3.96898 -1.88066 0
M  V30 8047 H 814.64 -4.24669 -0.231677 0
M  V30 8048 N 812.955 -0.234822 -1.55841 0
M  V30 8049 C 814.366 0.270588 -1.84729 0
M  V30 8050 C 814.717 1.58494 -1.15646 0
M  V30 8051 O 813.842 2.12071 -0.430667 0
M  V30 8052 C 814.437 0.497733 -3.35124 0
M  V30 8053 C 812.996 0.947428 -3.64281 0
M  V30 8054 C 812.143 0.01787 -2.77294 0
M  V30 8055 H 815.094 -0.457691 -1.51957 0
M  V30 8056 H 815.115 1.34199 -3.56049 0
M  V30 8057 H 814.627 -0.459037 -3.85376 0
M  V30 8058 H 812.728 1.91709 -3.19497 0
M  V30 8059 H 812.841 0.812651 -4.72158 0
M  V30 8060 H 811.205 0.527071 -2.49187 0
M  V30 8061 H 811.988 -0.934056 -3.30349 0
M  V30 8062 N 814.433 1.57553 0.0384317 0
M  V30 8063 C 815.661 1.93093 0.743141 0
M  V30 8064 C 816.076 0.833787 1.69391 0
M  V30 8065 O 815.433 -0.190532 1.81503 0
M  V30 8066 C 815.484 3.28533 1.50826 0
M  V30 8067 O 815.205 4.34032 0.595665 0
M  V30 8068 C 816.706 3.78297 2.31098 0
M  V30 8069 H 813.926 0.637486 0.20941 0
M  V30 8070 H 816.47 2.045 -0.00125154 0
M  V30 8071 H 814.625 3.18552 2.20462 0
M  V30 8072 H 815.039 5.12155 1.13124 0
M  V30 8073 H 816.513 4.75602 2.80191 0
M  V30 8074 H 816.99 3.09008 3.12107 0
M  V30 8075 H 817.596 3.91331 1.66555 0
M  V30 8076 N 815.911 -0.310526 1.54511 0
M  V30 8077 C 817.322 -0.884142 1.64438 0
M  V30 8078 C 817.673 -1.88425 0.546855 0
M  V30 8079 O 816.798 -2.14049 -0.31811 0
M  V30 8080 C 817.393 -1.6104 2.9808 0
M  V30 8081 C 815.952 -2.13255 3.1016 0
M  V30 8082 C 815.099 -0.96213 2.60074 0
M  V30 8083 H 818.05 -0.0877666 1.58457 0
M  V30 8084 H 818.071 -2.47541 2.8897 0
M  V30 8085 H 817.583 -0.882255 3.77939 0
M  V30 8086 H 815.684 -2.89145 2.35002 0
M  V30 8087 H 815.797 -2.37361 4.16169 0
M  V30 8088 H 814.161 -1.34501 2.16291 0
M  V30 8089 H 814.944 -0.248098 3.42402 0
M  V30 8090 N 817.389 -1.46805 -0.573248 0
M  V30 8091 C 818.337 -1.58468 -1.70267 0
M  V30 8092 C 819.331 -0.452694 -1.63239 0
M  V30 8093 O 820.537 -0.629915 -1.68618 0
M  V30 8094 H 816.912 -0.498408 -0.56311 0
M  V30 8095 H 818.883 -2.5341 -1.57563 0
M  V30 8096 C 817.632 -1.60104 -3.08645 0
M  V30 8097 H 816.955 -2.4655 -3.14727 0
M  V30 8098 H 818.395 -1.72318 -3.87405 0
M  V30 8099 C 816.854 -0.33138 -3.35266 0
M  V30 8100 O 817.384 0.57438 -3.97572 0
M  V30 8101 N 815.59 -0.216358 -2.89793 0
M  V30 8102 H 815.137 -0.954345 -2.3927 0
M  V30 8103 H 815.095 0.632253 -3.07977 0
M  V30 8104 N 818.867 0.818669 -1.34668 0
M  V30 8105 C 819.83 1.9114 -1.26483 0
M  V30 8106 C 820.83 1.598 -0.179044 0
M  V30 8107 O 822.02 1.6876 -0.431952 0
M  V30 8108 C 819.152 3.27285 -0.95381 0
M  V30 8109 H 820.345 1.9982 -2.23634 0
M  V30 8110 H 817.898 1.01314 -1.19018 0
M  V30 8111 H 818.633 3.24297 0.0143428 0
M  V30 8112 H 818.418 3.51416 -1.73924 0
M  V30 8113 H 819.908 4.07299 -0.921827 0
M  V30 8114 N 820.346 1.18468 1.03938 0
M  V30 8115 C 821.574 1.00576 1.80809 0
M  V30 8116 C 821.989 -0.445786 1.83462 0
M  V30 8117 O 821.346 -1.30964 1.27101 0
M  V30 8118 C 821.397 1.55491 3.26351 0
M  V30 8119 O 821.118 2.94963 3.23926 0
M  V30 8120 C 822.619 1.42236 4.19862 0
M  V30 8121 H 819.839 0.35508 0.56935 0
M  V30 8122 H 822.383 1.57046 1.30984 0
M  V30 8123 H 820.538 1.03195 3.73403 0
M  V30 8124 H 820.952 3.20598 4.15111 0
M  V30 8125 H 822.426 1.85455 5.19914 0
M  V30 8126 H 822.903 0.371267 4.37628 0
M  V30 8127 H 823.509 1.9361 3.78675 0
M  V30 8128 N 821.824 -1.22873 0.986916 0
M  V30 8129 C 823.049 -1.96028 0.677341 0
M  V30 8130 C 823.474 -1.72487 -0.750319 0
M  V30 8131 O 822.832 -1.00036 -1.51203 0
M  V30 8132 C 822.88 -3.46983 0.981593 0
M  V30 8133 O 821.984 -4.12328 0.0770729 0
M  V30 8134 H 821.325 -0.613458 0.254096 0
M  V30 8135 H 823.855 -1.56132 1.32227 0
M  V30 8136 H 823.865 -3.9747 0.920969 0
M  V30 8137 H 822.54 -3.63442 2.02194 0
M  V30 8138 H 821.117 -3.72402 0.192666 0
M  V30 8139 N 823.302 -0.75937 -1.38099 0
M  V30 8140 C 824.713 -0.385078 -1.82686 0
M  V30 8141 C 825.064 1.0871 -1.6333 0
M  V30 8142 O 824.189 1.84084 -1.13762 0
M  V30 8143 C 824.784 -0.692161 -3.31654 0
M  V30 8144 C 823.343 -0.371077 -3.74566 0
M  V30 8145 C 822.49 -0.942375 -2.60796 0
M  V30 8146 H 825.441 -0.955048 -1.26746 0
M  V30 8147 H 825.462 0.0276001 -3.8049 0
M  V30 8148 H 824.974 -1.76369 -3.4571 0
M  V30 8149 H 823.075 0.693637 -3.66087 0
M  V30 8150 H 823.188 -0.870672 -4.71122 0
M  V30 8151 H 821.552 -0.367383 -2.52036 0
M  V30 8152 H 822.335 -2.01905 -2.77649 0
M  V30 8153 N 824.78 1.49157 -0.508906 0
M  V30 8154 C 826.008 2.06879 0.0293734 0
M  V30 8155 C 826.423 1.36823 1.30095 0
M  V30 8156 O 825.78 0.449034 1.7689 0
M  V30 8157 C 825.831 3.60423 0.278791 0
M  V30 8158 O 825.552 4.27844 -0.942389 0
M  V30 8159 C 827.053 4.34881 0.859825 0
M  V30 8160 H 824.273 0.67057 -0.0240184 0
M  V30 8161 H 826.817 1.91834 -0.708526 0
M  V30 8162 H 824.972 3.75145 0.966689 0
M  V30 8163 H 825.386 5.19671 -0.710097 0
M  V30 8164 H 826.86 5.43161 0.983884 0
M  V30 8165 H 827.337 3.9789 1.85958 0
M  V30 8166 H 827.943 4.24785 0.209152 0
M  V30 8167 N 826.258 0.243083 1.55714 0
M  V30 8168 C 827.669 -0.260788 1.8487 0
M  V30 8169 C 828.02 -1.57879 1.16485 0
M  V30 8170 O 827.145 -2.1184 0.441908 0
M  V30 8171 C 827.74 -0.479954 3.35383 0
M  V30 8172 C 826.299 -0.928096 3.64778 0
M  V30 8173 C 825.446 -0.00316416 2.773 0
M  V30 8174 H 828.397 0.465743 1.51712 0
M  V30 8175 H 828.418 -1.32308 3.56756 0
M  V30 8176 H 827.93 0.479468 3.85127 0
M  V30 8177 H 826.031 -1.90012 3.20509 0
M  V30 8178 H 826.144 -0.7876 4.72582 0
M  V30 8179 H 824.508 -0.513849 2.49463 0
M  V30 8180 H 825.291 0.951562 3.29849 0
M  V30 8181 N 827.736 -1.57571 -0.0300757 0
M  V30 8182 C 828.699 -2.05468 -1.01565 0
M  V30 8183 C 829.699 -0.958628 -1.29101 0
M  V30 8184 O 830.889 -1.22228 -1.24121 0
M  V30 8185 C 828.021 -2.47077 -2.34874 0
M  V30 8186 H 829.214 -2.93797 -0.601936 0
M  V30 8187 H 826.767 -1.53828 -0.276878 0
M  V30 8188 H 827.502 -1.61901 -2.80996 0
M  V30 8189 H 827.287 -3.27097 -2.16218 0
M  V30 8190 H 828.777 -2.84564 -3.05635 0
M  V30 8191 N 829.214 0.302327 -1.54673 0
M  V30 8192 C 830.46 1.03924 -1.74149 0
M  V30 8193 C 830.793 1.86968 -0.525041 0
M  V30 8194 O 830.068 1.88538 0.477868 0
M  V30 8195 C 830.351 1.94633 -3.02969 0
M  V30 8196 C 830.204 1.14778 -4.34909 0
M  V30 8197 C 831.523 2.93826 -3.27649 0
M  V30 8198 H 828.642 0.376405 -0.633631 0
M  V30 8199 H 831.284 0.314007 -1.87387 0
M  V30 8200 H 829.434 2.56471 -2.91813 0
M  V30 8201 H 831.106 0.552363 -4.57981 0
M  V30 8202 H 829.349 0.450462 -4.31455 0
M  V30 8203 H 830.02 1.81495 -5.21309 0
M  V30 8204 H 832.496 2.42117 -3.38406 0
M  V30 8205 H 831.372 3.54462 -4.19104 0
M  V30 8206 H 831.633 3.67416 -2.45882 0
M  V30 8207 N 830.692 1.47107 0.565454 0
M  V30 8208 C 831.92 1.56909 1.3486 0
M  V30 8209 C 832.335 0.216312 1.87557 0
M  V30 8210 O 831.692 -0.789168 1.64555 0
M  V30 8211 C 831.743 2.58776 2.52423 0
M  V30 8212 O 831.464 3.888 2.01906 0
M  V30 8213 C 832.965 2.78683 3.44747 0
M  V30 8214 H 830.185 0.530096 0.411387 0
M  V30 8215 H 832.729 1.92658 0.685782 0
M  V30 8216 H 830.884 2.25983 3.1466 0
M  V30 8217 H 831.298 4.44393 2.78595 0
M  V30 8218 H 832.772 3.53842 4.23674 0
M  V30 8219 H 833.249 1.86208 3.97773 0
M  V30 8220 H 833.855 3.12641 2.88333 0
M  V30 8221 N 832.17 -0.811516 1.35101 0
M  V30 8222 C 833.398 -1.59981 1.31201 0
M  V30 8223 C 833.813 -1.8847 -0.111552 0
M  V30 8224 O 833.17 -1.48414 -1.06205 0
M  V30 8225 C 833.221 -2.934 2.11184 0
M  V30 8226 O 832.942 -2.66148 3.4799 0
M  V30 8227 C 834.443 -3.87776 2.14813 0
M  V30 8228 H 831.663 -0.496921 0.450899 0
M  V30 8229 H 834.207 -1.00886 1.77883 0
M  V30 8230 H 832.362 -3.49022 1.68115 0
M  V30 8231 H 832.776 -3.51301 3.89471 0
M  V30 8232 H 834.25 -4.7852 2.75178 0
M  V30 8233 H 834.727 -4.23997 1.14556 0
M  V30 8234 H 835.333 -3.3809 2.58022 0
M  V30 8235 N 833.648 -1.19017 -1.03309 0
M  V30 8236 C 835.059 -0.993206 -1.5809 0
M  V30 8237 C 835.41 0.45505 -1.9085 0
M  V30 8238 O 834.535 1.33372 -1.70414 0
M  V30 8239 C 835.13 -1.79661 -2.87241 0
M  V30 8240 C 833.689 -1.64377 -3.38611 0
M  V30 8241 C 832.836 -1.78628 -2.12102 0
M  V30 8242 H 835.787 -1.3345 -0.858879 0
M  V30 8243 H 835.808 -1.29019 -3.57958 0
M  V30 8244 H 835.32 -2.85061 -2.63366 0
M  V30 8245 H 833.421 -0.615447 -3.67482 0
M  V30 8246 H 833.534 -2.44651 -4.11926 0
M  V30 8247 H 831.898 -1.21648 -2.23772 0
M  V30 8248 H 832.681 -2.8548 -1.90673 0
M  V30 8249 N 835.127 1.22348 -0.993418 0
M  V30 8250 C 836.355 1.95125 -0.688021 0
M  V30 8251 C 836.77 1.73377 0.747388 0
M  V30 8252 O 836.127 1.03317 1.50439 0
M  V30 8253 C 836.178 3.47819 -0.985097 0
M  V30 8254 O 835.899 3.68838 -2.3641 0
M  V30 8255 C 837.4 4.37779 -0.697474 0
M  V30 8256 H 834.62 0.62087 -0.254481 0
M  V30 8257 H 837.164 1.55485 -1.32833 0
M  V30 8258 H 835.319 3.85426 -0.390583 0
M  V30 8259 H 835.733 4.63032 -2.46377 0
M  V30 8260 H 837.207 5.43666 -0.955604 0
M  V30 8261 H 837.684 4.37651 0.368524 0
M  V30 8262 H 838.29 4.05799 -1.27306 0
M  V30 8263 N 836.605 0.766683 1.37694 0
M  V30 8264 C 838.016 0.394761 1.82479 0
M  V30 8265 C 838.367 -1.07842 1.63904 0
M  V30 8266 O 837.492 -1.83479 1.14737 0
M  V30 8267 C 838.087 0.70974 3.31283 0
M  V30 8268 C 836.646 0.390936 3.74364 0
M  V30 8269 C 835.793 0.956192 2.60293 0
M  V30 8270 H 838.744 0.961756 1.26238 0
M  V30 8271 H 838.765 -0.00742144 3.80499 0
M  V30 8272 H 838.277 1.782 3.4477 0
M  V30 8273 H 836.378 -0.674213 3.66449 0
M  V30 8274 H 836.491 0.895645 4.70654 0
M  V30 8275 H 834.855 0.380744 2.51838 0
M  V30 8276 H 835.638 2.03375 2.76575 0
M  V30 8277 N 838.083 -1.48885 0.516809 0
M  V30 8278 C 839.031 -2.31066 -0.266656 0
M  V30 8279 C 840.025 -1.40393 -0.94795 0
M  V30 8280 O 841.231 -1.57366 -0.873836 0
M  V30 8281 H 837.606 -0.744654 -0.104858 0
M  V30 8282 H 839.577 -2.95045 0.446236 0
M  V30 8283 C 838.326 -3.22131 -1.3087 0
M  V30 8284 H 837.649 -3.91839 -0.793865 0
M  V30 8285 H 839.089 -3.82544 -1.82856 0
M  V30 8286 C 837.548 -2.42825 -2.33533 0
M  V30 8287 O 838.078 -2.14364 -3.39722 0
M  V30 8288 N 836.284 -2.04559 -2.06407 0
M  V30 8289 H 835.831 -2.27905 -1.20071 0
M  V30 8290 H 835.789 -1.51807 -2.75322 0
M  V30 8291 N 839.561 -0.251338 -1.55583 0
M  V30 8292 C 840.524 0.63305 -2.20284 0
M  V30 8293 C 841.524 1.09941 -1.17344 0
M  V30 8294 O 842.714 1.00341 -1.42399 0
M  V30 8295 C 839.846 1.8706 -2.84993 0
M  V30 8296 H 841.039 0.0684846 -2.99822 0
M  V30 8297 H 838.592 -0.00181653 -1.563 0
M  V30 8298 H 839.327 2.47629 -2.09405 0
M  V30 8299 H 839.112 1.54436 -3.60405 0
M  V30 8300 H 840.602 2.50004 -3.34496 0
M  V30 8301 N 841.039 1.57585 0.0217189 0
M  V30 8302 C 842.267 1.93871 0.722619 0
M  V30 8303 C 842.682 0.851706 1.68498 0
M  V30 8304 O 842.039 -0.17127 1.81695 0
M  V30 8305 C 842.09 3.30114 1.47333 0
M  V30 8306 O 841.811 4.34639 0.549597 0
M  V30 8307 C 843.312 3.80727 2.27072 0
M  V30 8308 H 840.532 0.639671 0.202637 0
M  V30 8309 H 843.076 2.04487 -0.0229414 0
M  V30 8310 H 841.231 3.20872 2.17071 0
M  V30 8311 H 841.645 5.13326 1.07686 0
M  V30 8312 H 843.119 4.78547 2.75131 0
M  V30 8313 H 843.596 3.12301 3.08812 0
M  V30 8314 H 844.202 3.93075 1.62395 0
M  V30 8315 N 842.517 -0.29412 1.54831 0
M  V30 8316 C 843.766 -1.02614 1.73647 0
M  V30 8317 C 844.079 -1.88193 0.533162 0
M  V30 8318 O 845.285 -2.64713 0.603275 0
M  V30 8319 C 843.741 -1.87417 3.07251 0
M  V30 8320 C 843.349 -1.06806 4.35082 0
M  V30 8321 C 845.093 -2.60176 3.35423 0
M  V30 8322 C 843 -1.90926 5.59733 0
M  V30 8323 H 841.93 -0.386834 0.647206 0
M  V30 8324 H 844.581 -0.282789 1.81308 0
M  V30 8325 H 842.963 -2.65765 2.93572 0
M  V30 8326 H 844.137 -0.330226 4.59615 0
M  V30 8327 H 842.452 -0.455979 4.13896 0
M  V30 8328 H 845.049 -3.23476 4.25755 0
M  V30 8329 H 845.392 -3.29365 2.54606 0
M  V30 8330 H 845.925 -1.88871 3.50103 0
M  V30 8331 H 842.664 -1.26194 6.43238 0
M  V30 8332 H 842.184 -2.62363 5.39375 0
M  V30 8333 H 843.863 -2.48807 5.97247 0
M  V30 8334 N 843.995 -1.47404 -0.557645 0
M  V30 8335 C 845.406 -1.47872 -1.13977 0
M  V30 8336 C 845.757 -0.233176 -1.94809 0
M  V30 8337 O 844.882 0.661945 -2.06027 0
M  V30 8338 C 845.477 -2.67926 -2.07368 0
M  V30 8339 C 844.036 -2.71354 -2.60852 0
M  V30 8340 C 843.183 -2.40967 -1.37223 0
M  V30 8341 H 846.134 -1.54921 -0.344268 0
M  V30 8342 H 846.155 -2.44871 -2.91236 0
M  V30 8343 H 845.667 -3.58562 -1.48509 0
M  V30 8344 H 843.768 -1.84855 -3.23511 0
M  V30 8345 H 843.881 -3.72032 -3.01876 0
M  V30 8346 H 842.245 -1.91541 -1.67882 0
M  V30 8347 H 843.028 -3.33811 -0.801583 0
M  V30 8348 N 845.473 0.80434 -1.35529 0
M  V30 8349 C 846.701 1.59283 -1.32048 0
M  V30 8350 C 847.116 1.88527 0.101556 0
M  V30 8351 O 846.473 1.48975 1.05417 0
M  V30 8352 C 846.524 2.92276 -2.12737 0
M  V30 8353 O 846.245 2.64299 -3.49396 0
M  V30 8354 C 847.746 3.86631 -2.16867 0
M  V30 8355 H 844.966 0.494523 -0.453528 0
M  V30 8356 H 847.51 0.999415 -1.78415 0
M  V30 8357 H 845.665 3.48125 -1.69964 0
M  V30 8358 H 846.079 3.4923 -3.91329 0
M  V30 8359 H 847.553 4.77053 -2.77712 0
M  V30 8360 H 848.03 4.23384 -1.16803 0
M  V30 8361 H 848.636 3.36717 -2.59811 0
M  V30 8362 N 846.951 1.19563 1.02676 0
M  V30 8363 C 847.881 0.959024 2.12897 0
M  V30 8364 C 848.862 -0.108382 1.69754 0
M  V30 8365 O 850.047 0.0470698 1.94143 0
M  V30 8366 C 847.177 0.499211 3.43693 0
M  V30 8367 C 846.131 1.5087 4.00528 0
M  V30 8368 C 845.457 0.905884 5.2697 0
M  V30 8369 C 846.757 2.88954 4.3509 0
M  V30 8370 H 848.451 1.88084 2.32948 0
M  V30 8371 H 845.997 0.905731 1.11949 0
M  V30 8372 H 847.95 0.320965 4.20176 0
M  V30 8373 H 846.674 -0.458205 3.2337 0
M  V30 8374 H 845.333 1.67413 3.26142 0
M  V30 8375 H 844.981 -0.0591506 5.02965 0
M  V30 8376 H 844.681 1.58 5.65959 0
M  V30 8377 H 846.205 0.73848 6.06118 0
M  V30 8378 H 847.619 2.75981 5.02501 0
M  V30 8379 H 846.016 3.53177 4.85166 0
M  V30 8380 H 847.086 3.41447 3.44299 0
M  V30 8381 N 848.429 -1.21819 0.999893 0
M  V30 8382 C 849.677 -1.90375 0.678351 0
M  V30 8383 C 849.998 -1.78155 -0.792824 0
M  V30 8384 O 849.268 -1.17319 -1.56885 0
M  V30 8385 H 847.848 -0.704661 0.247915 0
M  V30 8386 H 850.51 -1.48021 1.2679 0
M  V30 8387 H 849.606 -2.97385 0.947023 0
M  V30 8388 N 849.908 -0.773975 -1.37286 0
M  V30 8389 C 850.855 -0.159938 -2.30245 0
M  V30 8390 C 851.825 0.687356 -1.51211 0
M  V30 8391 O 853.01 0.639255 -1.79773 0
M  V30 8392 C 850.15 0.711452 -3.37687 0
M  V30 8393 C 849.263 -0.152692 -4.3173 0
M  V30 8394 C 848.398 0.723613 -5.26248 0
M  V30 8395 C 847.437 -0.14293 -6.11933 0
M  V30 8396 N 846.574 0.691479 -6.98687 0
M  V30 8397 H 851.414 -0.958182 -2.82175 0
M  V30 8398 H 848.951 -0.48411 -1.38906 0
M  V30 8399 H 850.909 1.2315 -3.9861 0
M  V30 8400 H 849.539 1.47528 -2.87116 0
M  V30 8401 H 848.591 -0.790574 -3.72094 0
M  V30 8402 H 849.903 -0.821027 -4.91997 0
M  V30 8403 H 849.057 1.31006 -5.92387 0
M  V30 8404 H 847.796 1.42562 -4.66398 0
M  V30 8405 H 846.801 -0.7419 -5.44771 0
M  V30 8406 H 848.026 -0.842305 -6.73856 0
M  V30 8407 H 845.972 1.37806 -6.41362 0
M  V30 8408 H 845.889 0.0804911 -7.55957 0
M  V30 8409 H 847.157 1.26225 -7.69212 0
M  V30 8410 N 851.386 1.48609 -0.524698 0
M  V30 8411 C 852.614 2.06899 0.00742946 0
M  V30 8412 C 853.029 1.38196 1.28637 0
M  V30 8413 O 852.386 0.467771 1.76403 0
M  V30 8414 C 852.437 3.60699 0.240548 0
M  V30 8415 O 852.158 4.26821 -0.987715 0
M  V30 8416 C 853.659 4.35769 0.813652 0
M  V30 8417 H 850.879 0.670278 -0.0311294 0
M  V30 8418 H 853.423 1.91071 -0.728832 0
M  V30 8419 H 851.578 3.76149 0.926845 0
M  V30 8420 H 851.992 5.18889 -0.765175 0
M  V30 8421 H 853.466 5.44174 0.926219 0
M  V30 8422 H 853.943 3.9984 1.81728 0
M  V30 8423 H 854.549 4.24983 0.164086 0
M  V30 8424 N 852.864 0.259585 1.55447 0
M  V30 8425 C 854.089 -0.368317 2.04103 0
M  V30 8426 C 854.514 -1.49827 1.13725 0
M  V30 8427 O 853.872 -1.80814 0.132705 0
M  V30 8428 C 853.92 -0.841506 3.50644 0
M  V30 8429 O 853.024 -1.95008 3.63381 0
M  V30 8430 H 852.365 -0.0785227 0.659341 0
M  V30 8431 H 854.895 0.389349 2.00861 0
M  V30 8432 H 854.905 -1.14138 3.9171 0
M  V30 8433 H 853.58 -0.0147001 4.15897 0
M  V30 8434 H 852.157 -1.65393 3.34215 0
M  V30 8435 N 854.342 -1.57594 -0.0133615 0
M  V30 8436 C 855.753 -1.78168 -0.557937 0
M  V30 8437 C 856.104 -0.892616 -1.74719 0
M  V30 8438 O 855.229 -0.0915491 -2.16206 0
M  V30 8439 C 855.824 -3.23115 -1.01894 0
M  V30 8440 C 854.383 -3.44831 -1.50892 0
M  V30 8441 C 853.53 -2.73558 -0.454044 0
M  V30 8442 H 856.481 -1.57266 0.212843 0
M  V30 8443 H 856.502 -3.30493 -1.8856 0
M  V30 8444 H 856.014 -3.87798 -0.153175 0
M  V30 8445 H 854.115 -2.85345 -2.39602 0
M  V30 8446 H 854.228 -4.53485 -1.54559 0
M  V30 8447 H 852.592 -2.37787 -0.912666 0
M  V30 8448 H 853.375 -3.40932 0.402524 0
M  V30 8449 N 855.82 0.285905 -1.54985 0
M  V30 8450 C 857.048 1.03776 -1.78992 0
M  V30 8451 C 857.463 1.80402 -0.556814 0
M  V30 8452 O 856.82 1.76242 0.473801 0
M  V30 8453 C 856.871 2.0065 -3.00702 0
M  V30 8454 O 856.592 1.27131 -4.19249 0
M  V30 8455 C 858.093 2.87753 -3.37214 0
M  V30 8456 H 855.313 0.307126 -0.596586 0
M  V30 8457 H 857.857 0.3206 -2.01971 0
M  V30 8458 H 856.012 2.67847 -2.79887 0
M  V30 8459 H 856.426 1.92316 -4.8797 0
M  V30 8460 H 857.9 3.51548 -4.2558 0
M  V30 8461 H 858.377 3.56848 -2.56039 0
M  V30 8462 H 858.983 2.26065 -3.60242 0
M  V30 8463 N 857.298 1.47698 0.54982 0
M  V30 8464 C 858.523 1.58579 1.33669 0
M  V30 8465 C 858.948 0.239049 1.86575 0
M  V30 8466 O 858.306 -0.786256 1.63364 0
M  V30 8467 C 858.354 2.62029 2.47736 0
M  V30 8468 O 857.458 2.17813 3.50188 0
M  V30 8469 H 856.799 0.532447 0.396732 0
M  V30 8470 H 859.329 1.93536 0.6637 0
M  V30 8471 H 859.339 2.82682 2.94202 0
M  V30 8472 H 858.014 3.59812 2.08586 0
M  V30 8473 H 856.591 2.07291 3.09976 0
M  V30 8474 N 858.776 -0.797141 1.35954 0
M  V30 8475 C 859.739 -1.89104 1.29508 0
M  V30 8476 C 860.739 -1.59495 0.204444 0
M  V30 8477 O 861.929 -1.68051 0.458746 0
M  V30 8478 C 859.061 -3.25726 1.00576 0
M  V30 8479 H 860.254 -1.96237 2.26785 0
M  V30 8480 H 857.807 -0.994075 1.20614 0
M  V30 8481 H 858.542 -3.24279 0.0372519 0
M  V30 8482 H 858.327 -3.48604 1.79492 0
M  V30 8483 H 859.817 -4.0578 0.986508 0
M  V30 8484 N 860.254 -1.20106 -1.0204 0
M  V30 8485 C 861.5 -1.01039 -1.75838 0
M  V30 8486 C 861.833 0.456819 -1.88751 0
M  V30 8487 O 861.108 1.33919 -1.41053 0
M  V30 8488 C 861.391 -1.69009 -3.17975 0
M  V30 8489 C 861.244 -3.2315 -3.1288 0
M  V30 8490 C 862.563 -1.42005 -4.16561 0
M  V30 8491 H 859.682 -0.368465 -0.638281 0
M  V30 8492 H 862.324 -1.48066 -1.19064 0
M  V30 8493 H 860.474 -1.29026 -3.66449 0
M  V30 8494 H 862.146 -3.72402 -2.72239 0
M  V30 8495 H 860.389 -3.54253 -2.50374 0
M  V30 8496 H 861.06 -3.65862 -4.13339 0
M  V30 8497 H 863.536 -1.76685 -3.76725 0
M  V30 8498 H 862.412 -1.92101 -5.14187 0
M  V30 8499 H 862.673 -0.346884 -4.40737 0
M  V30 8500 N 861.732 1.21287 -1.00634 0
M  V30 8501 C 862.96 1.94385 -0.708678 0
M  V30 8502 C 863.375 1.7416 0.728957 0
M  V30 8503 O 862.732 1.04906 1.49335 0
M  V30 8504 C 862.783 3.46755 -1.02193 0
M  V30 8505 O 862.504 3.6631 -2.40309 0
M  V30 8506 C 864.005 4.37014 -0.743867 0
M  V30 8507 H 861.225 0.618136 -0.261052 0
M  V30 8508 H 863.769 1.54067 -1.34475 0
M  V30 8509 H 861.924 3.8499 -0.431441 0
M  V30 8510 H 862.338 4.60393 -2.51274 0
M  V30 8511 H 863.812 5.42621 -1.01321 0
M  V30 8512 H 864.289 4.38017 0.322084 0
M  V30 8513 H 864.895 4.04426 -1.31603 0
M  V30 8514 N 863.21 0.781244 1.36873 0
M  V30 8515 C 864.438 0.361566 2.03716 0
M  V30 8516 C 864.853 -1.01937 1.58916 0
M  V30 8517 O 864.21 -1.65237 0.774783 0
M  V30 8518 C 864.261 0.406391 3.59208 0
M  V30 8519 O 863.982 1.73286 4.02372 0
M  V30 8520 C 865.483 -0.0236894 4.43294 0
M  V30 8521 H 862.703 0.150133 0.653988 0
M  V30 8522 H 865.247 1.05781 1.75016 0
M  V30 8523 H 863.402 -0.241364 3.86647 0
M  V30 8524 H 863.816 1.67804 4.96933 0
M  V30 8525 H 865.29 0.0588205 5.51969 0
M  V30 8526 H 865.767 -1.07529 4.25833 0
M  V30 8527 H 866.373 0.59624 4.211 0
M  V30 8528 N 864.689 -1.48329 0.532571 0
M  V30 8529 C 866.1 -1.86469 0.0927749 0
M  V30 8530 C 866.451 -1.44186 -1.3306 0
M  V30 8531 O 865.576 -0.833741 -1.99694 0
M  V30 8532 C 866.171 -3.38414 0.161588 0
M  V30 8533 C 864.73 -3.75739 -0.223028 0
M  V30 8534 C 863.877 -2.72377 0.520199 0
M  V30 8535 H 866.828 -1.40197 0.743678 0
M  V30 8536 H 866.849 -3.75314 -0.626059 0
M  V30 8537 H 866.361 -3.69159 1.19765 0
M  V30 8538 H 864.462 -3.50608 -1.26113 0
M  V30 8539 H 864.575 -4.78954 0.118385 0
M  V30 8540 H 862.939 -2.54678 -0.0338425 0
M  V30 8541 H 863.722 -3.05965 1.55694 0
M  V30 8542 N 866.167 -0.267825 -1.55308 0
M  V30 8543 C 867.395 0.354587 -2.03839 0
M  V30 8544 C 867.81 1.50007 -1.14644 0
M  V30 8545 O 867.167 1.81752 -0.165055 0
M  V30 8546 C 867.218 0.84254 -3.51544 0
M  V30 8547 O 866.939 -0.257318 -4.37344 0
M  V30 8548 C 868.44 1.53351 -4.15931 0
M  V30 8549 H 865.66 0.0818131 -0.665994 0
M  V30 8550 H 868.204 -0.397795 -2.00594 0
M  V30 8551 H 866.359 1.54503 -3.55257 0
M  V30 8552 H 866.773 0.116593 -5.2437 0
M  V30 8553 H 868.247 1.82643 -5.20908 0
M  V30 8554 H 868.724 2.4626 -3.63666 0
M  V30 8555 H 869.33 0.87506 -4.162 0
M  V30 8556 N 867.645 1.57599 0.00500368 0
M  V30 8557 C 869.056 1.78462 0.54848 0
M  V30 8558 C 869.407 0.901869 1.74243 0
M  V30 8559 O 868.532 0.103014 2.16155 0
M  V30 8560 C 869.127 3.2365 1.00179 0
M  V30 8561 C 867.686 3.45627 1.49061 0
M  V30 8562 C 866.833 2.73794 0.439531 0
M  V30 8563 H 869.784 1.57151 -0.22118 0
M  V30 8564 H 869.805 3.31488 1.86805 0
M  V30 8565 H 869.317 3.87873 0.132607 0
M  V30 8566 H 867.418 2.86612 2.38085 0
M  V30 8567 H 867.531 4.54298 1.52152 0
M  V30 8568 H 865.895 2.38267 0.900043 0
M  V30 8569 H 866.678 3.40714 -0.420599 0
M  V30 8570 N 869.123 -0.277682 1.55134 0
M  V30 8571 C 870.071 -1.36305 1.88478 0
M  V30 8572 C 871.065 -1.51362 0.760654 0
M  V30 8573 O 872.271 -1.53202 0.944943 0
M  V30 8574 H 868.646 -0.45577 0.598146 0
M  V30 8575 H 870.617 -1.05431 2.79154 0
M  V30 8576 C 869.366 -2.71739 2.16918 0
M  V30 8577 H 868.689 -2.60942 3.02901 0
M  V30 8578 H 870.129 -3.46635 2.44172 0
M  V30 8579 C 868.588 -3.22476 0.975239 0
M  V30 8580 O 869.118 -4.01164 0.207497 0
M  V30 8581 N 867.324 -2.80097 0.774219 0
M  V30 8582 H 866.871 -2.16221 1.40022 0
M  V30 8583 H 866.829 -3.14392 -0.023021 0
M  V30 8584 N 870.601 -1.47988 -0.541979 0
M  V30 8585 C 871.564 -1.61148 -1.62984 0
M  V30 8586 C 872.564 -0.48553 -1.53295 0
M  V30 8587 O 873.754 -0.751012 -1.5718 0
M  V30 8588 C 870.886 -1.57038 -3.02576 0
M  V30 8589 H 872.079 -2.58138 -1.52659 0
M  V30 8590 H 869.632 -1.36405 -0.763106 0
M  V30 8591 H 870.367 -0.614807 -3.18419 0
M  V30 8592 H 870.152 -2.38769 -3.11018 0
M  V30 8593 H 871.642 -1.69416 -3.81691 0
M  V30 8594 N 872.079 0.78992 -1.36375 0
M  V30 8595 C 873.307 1.57873 -1.3373 0
M  V30 8596 C 873.722 1.88624 0.0815544 0
M  V30 8597 O 873.079 1.50085 1.03831 0
M  V30 8598 C 873.13 2.90003 -2.15825 0
M  V30 8599 O 872.851 2.60578 -3.5218 0
M  V30 8600 C 874.352 3.84309 -2.20955 0
M  V30 8601 H 871.572 0.489685 -0.458748 0
M  V30 8602 H 874.116 0.980436 -1.79465 0
M  V30 8603 H 872.271 3.46303 -1.73646 0
M  V30 8604 H 872.685 3.4506 -3.95011 0
M  V30 8605 H 874.159 4.74081 -2.82756 0
M  V30 8606 H 874.636 4.22121 -1.21287 0
M  V30 8607 H 875.242 3.33942 -2.63368 0
M  V30 8608 N 873.557 1.20646 1.01402 0
M  V30 8609 C 874.782 1.04462 1.79172 0
M  V30 8610 C 875.207 -0.401588 1.83763 0
M  V30 8611 O 874.565 -1.28934 1.27459 0
M  V30 8612 C 874.613 1.63583 3.21361 0
M  V30 8613 O 873.717 0.875198 4.03006 0
M  V30 8614 H 873.058 0.368235 0.552539 0
M  V30 8615 H 875.588 1.59994 1.27526 0
M  V30 8616 H 875.598 1.67426 3.72065 0
M  V30 8617 H 874.273 2.68835 3.17334 0
M  V30 8618 H 872.85 0.911172 3.61597 0
M  V30 8619 N 875.035 -1.20752 1.01276 0
M  V30 8620 C 876.446 -1.7175 0.732033 0
M  V30 8621 C 876.797 -1.8131 -0.749733 0
M  V30 8622 O 875.922 -1.47301 -1.58529 0
M  V30 8623 C 876.517 -3.11936 1.32217 0
M  V30 8624 C 875.076 -3.6026 1.09039 0
M  V30 8625 C 874.223 -2.37571 1.43022 0
M  V30 8626 H 877.174 -1.0582 1.1827 0
M  V30 8627 H 877.195 -3.73802 0.710771 0
M  V30 8628 H 876.707 -3.04946 2.40061 0
M  V30 8629 H 874.808 -3.72588 0.0294464 0
M  V30 8630 H 874.921 -4.45295 1.76775 0
M  V30 8631 H 873.285 -2.40128 0.849159 0
M  V30 8632 H 874.068 -2.33225 2.51915 0
M  V30 8633 N 876.513 -0.788492 -1.36457 0
M  V30 8634 C 877.741 -0.372365 -2.03522 0
M  V30 8635 C 878.156 1.01093 -1.59454 0
M  V30 8636 O 877.513 1.64824 -0.783535 0
M  V30 8637 C 877.564 -0.425435 -3.58988 0
M  V30 8638 O 877.285 -1.75418 -4.01448 0
M  V30 8639 C 878.786 0.000180167 -4.433 0
M  V30 8640 H 876.006 -0.1536 -0.653183 0
M  V30 8641 H 878.55 -1.06708 -1.74452 0
M  V30 8642 H 876.705 0.220856 -3.8677 0
M  V30 8643 H 877.119 -1.70437 -4.96036 0
M  V30 8644 H 878.593 -0.0880919 -5.5193 0
M  V30 8645 H 879.07 1.05269 -4.26398 0
M  V30 8646 H 879.676 -0.618563 -4.20778 0
M  V30 8647 N 877.991 1.48044 -0.54043 0
M  V30 8648 C 879.237 2.02797 -0.0101718 0
M  V30 8649 C 879.57 1.41565 1.32939 0
M  V30 8650 O 878.845 0.565139 1.86109 0
M  V30 8651 C 879.128 3.59959 0.100758 0
M  V30 8652 C 878.981 4.31654 -1.26471 0
M  V30 8653 C 880.3 4.32347 0.822455 0
M  V30 8654 H 877.419 0.736982 -0.00517052 0
M  V30 8655 H 880.061 1.76656 -0.69948 0
M  V30 8656 H 878.211 3.82363 0.687824 0
M  V30 8657 H 879.883 4.20639 -1.89369 0
M  V30 8658 H 878.126 3.92663 -1.84386 0
M  V30 8659 H 878.797 5.401 -1.13998 0
M  V30 8660 H 881.273 4.14835 0.324164 0
M  V30 8661 H 880.149 5.41978 0.868993 0
M  V30 8662 H 880.41 4.00369 1.87501 0
M  V30 8663 N 879.47 0.276058 1.55163 0
M  V30 8664 C 880.718 -0.339782 1.99223 0
M  V30 8665 C 881.039 -1.56307 1.16589 0
M  V30 8666 O 880.309 -1.94225 0.25564 0
M  V30 8667 H 878.889 -0.128534 0.735859 0
M  V30 8668 H 881.551 0.381612 1.91128 0
M  V30 8669 H 880.647 -0.629 3.05696 0
M  V30 8670 N 880.948 -1.576 0.00335426 0
M  V30 8671 C 881.858 -2.12067 -1.00322 0
M  V30 8672 C 882.874 -1.06672 -1.37467 0
M  V30 8673 O 884.05 -1.38592 -1.46131 0
M  V30 8674 C 881.115 -2.61593 -2.27531 0
M  V30 8675 C 880.176 -3.81602 -1.96668 0
M  V30 8676 C 879.409 -4.28756 -3.17811 0
M  V30 8677 O 879.632 -3.75222 -4.2961 0
M  V30 8678 O 878.566 -5.20877 -3.01613 0
M  V30 8679 H 882.392 -2.98299 -0.570199 0
M  V30 8680 H 879.977 -1.47835 -0.215682 0
M  V30 8681 H 881.859 -2.93631 -3.02256 0
M  V30 8682 H 880.534 -1.78457 -2.70065 0
M  V30 8683 H 879.441 -3.54531 -1.19408 0
M  V30 8684 H 880.774 -4.65822 -1.58968 0
M  V30 8685 N 882.426 0.269451 -1.5528 0
M  V30 8686 C 883.654 1.01872 -1.80082 0
M  V30 8687 C 884.069 1.79802 -0.575917 0
M  V30 8688 O 883.426 1.76735 0.455081 0
M  V30 8689 C 883.477 1.9745 -3.02813 0
M  V30 8690 O 883.198 1.22677 -4.20573 0
M  V30 8691 C 884.699 2.8416 -3.40247 0
M  V30 8692 H 881.919 0.300781 -0.59981 0
M  V30 8693 H 884.463 0.29916 -2.023 0
M  V30 8694 H 882.618 2.64864 -2.82712 0
M  V30 8695 H 883.032 1.87129 -4.89982 0
M  V30 8696 H 884.506 3.47014 -4.29284 0
M  V30 8697 H 884.983 3.54113 -2.59809 0
M  V30 8698 H 885.589 2.22232 -3.6262 0
M  V30 8699 N 883.904 1.48273 0.534124 0
M  V30 8700 C 885.129 1.59988 1.31979 0
M  V30 8701 C 885.554 0.258824 1.86311 0
M  V30 8702 O 884.912 -0.768885 1.64188 0
M  V30 8703 C 884.96 2.64642 2.44943 0
M  V30 8704 O 884.064 2.21515 3.47858 0
M  V30 8705 H 883.405 0.536625 0.391063 0
M  V30 8706 H 885.935 1.94229 0.643135 0
M  V30 8707 H 885.945 2.85786 2.91187 0
M  V30 8708 H 884.62 3.62004 2.04758 0
M  V30 8709 H 883.197 2.10567 3.0776 0
M  V30 8710 N 885.382 -0.782676 1.36792 0
M  V30 8711 C 886.793 -1.35828 1.28092 0
M  V30 8712 C 887.144 -1.96052 -0.076315 0
M  V30 8713 O 886.269 -1.93042 -0.977935 0
M  V30 8714 C 886.864 -2.46949 2.31952 0
M  V30 8715 C 885.423 -3.00307 2.2692 0
M  V30 8716 C 884.57 -1.73436 2.16368 0
M  V30 8717 H 887.521 -0.583788 1.47572 0
M  V30 8718 H 887.542 -3.26144 1.95986 0
M  V30 8719 H 887.054 -2.03087 3.30722 0
M  V30 8720 H 885.155 -3.48571 1.31639 0
M  V30 8721 H 885.268 -3.56663 3.19887 0
M  V30 8722 H 883.632 -1.95934 1.62733 0
M  V30 8723 H 884.415 -1.31693 3.17036 0
M  V30 8724 N 886.86 -1.21182 -1.00761 0
M  V30 8725 C 887.792 -0.926523 -2.09638 0
M  V30 8726 C 888.805 0.0892511 -1.62555 0
M  V30 8727 O 889.994 -0.142915 -1.77927 0
M  V30 8728 C 887.094 -0.369175 -3.36883 0
M  V30 8729 C 886.267 -1.43866 -4.13063 0
M  V30 8730 C 885.326 -0.891015 -5.18601 0
M  V30 8731 O 884.352 -1.57384 -5.47009 0
M  V30 8732 N 885.554 0.295057 -5.7975 0
M  V30 8733 H 888.319 -1.8638 -2.34697 0
M  V30 8734 H 885.88 -1.11671 -1.17223 0
M  V30 8735 H 887.872 0.011534 -4.04698 0
M  V30 8736 H 886.442 0.472861 -3.09003 0
M  V30 8737 H 885.662 -1.99332 -3.40089 0
M  V30 8738 H 886.95 -2.15866 -4.60738 0
M  V30 8739 H 886.348 0.8669 -5.59018 0
M  V30 8740 H 884.905 0.617306 -6.4887 0
M  V30 8741 N 888.338 1.20213 -1.01915 0
M  V30 8742 C 889.301 2.21307 -0.596327 0
M  V30 8743 C 890.301 1.57274 0.334879 0
M  V30 8744 O 891.491 1.73764 0.12322 0
M  V30 8745 C 888.623 3.40657 0.128808 0
M  V30 8746 H 889.816 2.60228 -1.49068 0
M  V30 8747 H 887.369 1.33721 -0.809226 0
M  V30 8748 H 888.104 3.07241 1.03796 0
M  V30 8749 H 887.889 3.88361 -0.540183 0
M  V30 8750 H 889.379 4.15564 0.411892 0
M  V30 8751 N 889.816 0.795718 1.36037 0
M  V30 8752 C 890.764 0.18649 2.31851 0
M  V30 8753 C 891.758 -0.657704 1.56111 0
M  V30 8754 O 892.964 -0.552083 1.71324 0
M  V30 8755 H 889.339 0.0415363 0.750852 0
M  V30 8756 H 891.31 1.00992 2.8079 0
M  V30 8757 C 890.059 -0.65918 3.41394 0
M  V30 8758 H 889.382 -0.01894 3.99796 0
M  V30 8759 H 890.822 -1.05202 4.10741 0
M  V30 8760 C 889.281 -1.82011 2.83502 0
M  V30 8761 O 889.811 -2.91703 2.76174 0
M  V30 8762 N 888.017 -1.62821 2.40703 0
M  V30 8763 H 887.564 -0.735965 2.46863 0
M  V30 8764 H 887.522 -2.40657 2.02316 0
M  V30 8765 N 891.294 -1.47756 0.548274 0
M  V30 8766 C 892.522 -2.06884 0.0254873 0
M  V30 8767 C 892.937 -1.40225 -1.26422 0
M  V30 8768 O 892.294 -0.495776 -1.75637 0
M  V30 8769 C 892.345 -3.61036 -0.183134 0
M  V30 8770 O 892.066 -4.25195 1.05549 0
M  V30 8771 C 893.567 -4.37008 -0.744222 0
M  V30 8772 H 890.787 -0.669697 0.041789 0
M  V30 8773 H 893.331 -1.89888 0.759138 0
M  V30 8774 H 891.486 -3.77576 -0.866886 0
M  V30 8775 H 891.9 -5.17606 0.847629 0
M  V30 8776 H 893.374 -5.45579 -0.839529 0
M  V30 8777 H 893.851 -4.0268 -1.75344 0
M  V30 8778 H 894.457 -4.25191 -0.0964542 0
M  V30 8779 N 892.772 -0.284283 -1.55015 0
M  V30 8780 C 894 0.332948 -2.04203 0
M  V30 8781 C 894.415 1.48783 -1.16229 0
M  V30 8782 O 893.772 1.81567 -0.184323 0
M  V30 8783 C 893.823 0.805207 -3.52418 0
M  V30 8784 O 893.544 -0.303689 -4.37046 0
M  V30 8785 C 895.045 1.48931 -4.17534 0
M  V30 8786 H 892.265 0.0747447 -0.666824 0
M  V30 8787 H 894.809 -0.419048 -2.00161 0
M  V30 8788 H 892.964 1.50727 -3.56876 0
M  V30 8789 H 893.378 0.0609703 -5.24465 0
M  V30 8790 H 894.852 1.77108 -5.22816 0
M  V30 8791 H 895.329 2.42389 -3.66257 0
M  V30 8792 H 895.935 0.830867 -4.17105 0
M  V30 8793 N 894.251 1.57596 -0.0117121 0
M  V30 8794 C 895.199 2.1029 0.994035 0
M  V30 8795 C 896.193 1.02549 1.34833 0
M  V30 8796 O 897.399 1.21003 1.3326 0
M  V30 8797 H 893.774 0.671624 0.338268 0
M  V30 8798 H 895.745 2.93761 0.524147 0
M  V30 8799 C 894.494 2.63099 2.27319 0
M  V30 8800 H 893.817 3.45642 2.00927 0
M  V30 8801 H 895.257 3.03635 2.95942 0
M  V30 8802 C 893.716 1.55044 2.99104 0
M  V30 8803 O 894.246 0.940127 3.90544 0
M  V30 8804 N 892.452 1.27506 2.61133 0
M  V30 8805 H 891.999 1.77322 1.86855 0
M  V30 8806 H 891.957 0.554292 3.09475 0
M  V30 8807 N 895.729 -0.261212 1.5542 0
M  V30 8808 C 896.679 -1.32571 1.85496 0
M  V30 8809 C 897.663 -1.44155 0.714722 0
M  V30 8810 O 898.855 -1.47637 0.976336 0
M  V30 8811 C 895.984 -2.68384 2.14067 0
M  V30 8812 C 895.07 -2.60864 3.34381 0
M  V30 8813 N 895.461 -2.22967 4.54004 0
M  V30 8814 C 893.759 -2.91904 3.37206 0
M  V30 8815 C 894.46 -2.25727 5.36118 0
M  V30 8816 N 893.436 -2.64667 4.74818 0
M  V30 8817 H 897.238 -1.02298 2.75522 0
M  V30 8818 H 894.752 -0.469849 1.55455 0
M  V30 8819 H 896.749 -3.45189 2.33774 0
M  V30 8820 H 895.409 -2.99536 1.25332 0
M  V30 8821 H 896.42 -1.94748 4.79889 0
M  V30 8822 H 893.097 -3.2769 2.587 0
M  V30 8823 H 894.487 -1.98889 6.41789 0
M  V30 8824 N 897.207 -1.48554 -0.526253 0
M  V30 8825 C 898.435 -1.60429 -1.30652 0
M  V30 8826 C 898.85 -0.265963 -1.86917 0
M  V30 8827 O 898.207 0.745262 -1.6659 0
M  V30 8828 C 898.258 -2.65377 -2.45473 0
M  V30 8829 O 897.979 -3.94017 -1.91527 0
M  V30 8830 C 899.48 -2.87726 -3.37237 0
M  V30 8831 H 896.7 -0.540817 -0.397187 0
M  V30 8832 H 899.244 -1.94409 -0.634461 0
M  V30 8833 H 897.399 -2.34246 -3.08557 0
M  V30 8834 H 897.813 -4.51623 -2.66715 0
M  V30 8835 H 899.287 -3.64951 -4.14144 0
M  V30 8836 H 899.764 -1.96688 -3.92696 0
M  V30 8837 H 900.37 -3.20176 -2.79942 0
M  V30 8838 N 898.685 0.775411 -1.37205 0
M  V30 8839 C 899.615 1.90258 -1.35367 0
M  V30 8840 C 900.596 1.68634 -0.222864 0
M  V30 8841 O 901.781 1.89545 -0.422659 0
M  V30 8842 C 898.911 3.27488 -1.15623 0
M  V30 8843 C 897.865 3.63668 -2.25676 0
M  V30 8844 C 897.191 4.994 -1.91059 0
M  V30 8845 C 898.491 3.70797 -3.67841 0
M  V30 8846 H 900.185 1.92053 -2.29687 0
M  V30 8847 H 897.731 0.922597 -1.10563 0
M  V30 8848 H 899.684 4.05976 -1.12968 0
M  V30 8849 H 898.408 3.26117 -0.177573 0
M  V30 8850 H 897.067 2.87486 -2.2748 0
M  V30 8851 H 896.715 4.94565 -0.917324 0
M  V30 8852 H 896.415 5.24576 -2.64751 0
M  V30 8853 H 897.939 5.80291 -1.89985 0
M  V30 8854 H 899.353 4.39444 -3.68187 0
M  V30 8855 H 897.75 4.07468 -4.40556 0
M  V30 8856 H 898.82 2.71549 -4.01732 0
M  V30 8857 N 900.163 1.21714 1.00117 0
M  V30 8858 C 901.411 1.03465 1.73607 0
M  V30 8859 C 901.732 -0.432295 1.90148 0
M  V30 8860 O 901.002 -1.31157 1.45515 0
M  V30 8861 H 899.582 0.379857 0.643209 0
M  V30 8862 H 902.244 1.53088 1.20624 0
M  V30 8863 H 901.34 1.50574 2.73375 0
M  V30 8864 N 901.641 -1.19671 1.02551 0
M  V30 8865 C 902.889 -1.88894 0.71858 0
M  V30 8866 C 903.21 -1.79797 -0.754856 0
M  V30 8867 O 902.48 -1.20621 -1.54362 0
M  V30 8868 H 901.06 -0.699244 0.262806 0
M  V30 8869 H 903.722 -1.45298 1.29902 0
M  V30 8870 H 902.818 -2.95309 1.00989 0
M  V30 8871 N 903.119 -0.802921 -1.35613 0
M  V30 8872 C 904.347 -0.39393 -2.03115 0
M  V30 8873 C 904.762 0.993961 -1.60517 0
M  V30 8874 O 904.119 1.63984 -0.800973 0
M  V30 8875 C 904.17 -0.463486 -3.58516 0
M  V30 8876 O 903.891 -1.79666 -3.99565 0
M  V30 8877 C 905.392 -0.0468377 -4.43275 0
M  V30 8878 H 902.612 -0.160519 -0.651517 0
M  V30 8879 H 905.156 -1.08552 -1.73311 0
M  V30 8880 H 903.311 0.179821 -3.86982 0
M  V30 8881 H 903.725 -1.75688 -4.942 0
M  V30 8882 H 905.199 -0.146626 -5.51805 0
M  V30 8883 H 905.676 1.00741 -4.2749 0
M  V30 8884 H 906.282 -0.663158 -4.20098 0
M  V30 8885 N 904.597 1.47463 -0.556102 0
M  V30 8886 C 905.822 2.07371 -0.0344729 0
M  V30 8887 C 906.247 1.40621 1.2493 0
M  V30 8888 O 905.605 0.48082 1.74808 0
M  V30 8889 C 905.653 3.60306 0.145563 0
M  V30 8890 O 904.757 3.94299 1.20839 0
M  V30 8891 H 904.098 0.662052 -0.0508274 0
M  V30 8892 H 906.628 1.89498 -0.771469 0
M  V30 8893 H 906.638 4.06408 0.360112 0
M  V30 8894 H 905.313 4.08288 -0.792089 0
M  V30 8895 H 903.89 3.59944 0.97442 0
M  V30 8896 N 906.075 0.2925 1.54862 0
M  V30 8897 C 907.3 -0.32494 2.04839 0
M  V30 8898 C 907.725 -1.47381 1.16877 0
M  V30 8899 O 907.083 -1.80492 0.171028 0
M  V30 8900 C 907.131 -0.76694 3.5235 0
M  V30 8901 O 906.235 -1.87256 3.67436 0
M  V30 8902 H 905.576 -0.0645195 0.660858 0
M  V30 8903 H 908.106 0.431867 1.9999 0
M  V30 8904 H 908.116 -1.05804 3.94043 0
M  V30 8905 H 906.791 0.0735212 4.15835 0
M  V30 8906 H 905.368 -1.58266 3.37648 0
M  V30 8907 N 907.553 -1.57587 0.0200696 0
M  V30 8908 C 908.781 -1.95718 -0.670964 0
M  V30 8909 C 909.196 -0.896081 -1.6618 0
M  V30 8910 O 908.553 0.123037 -1.82085 0
M  V30 8911 C 908.604 -3.33904 -1.38529 0
M  V30 8912 O 908.325 -4.35943 -0.434167 0
M  V30 8913 C 909.826 -3.86614 -2.16898 0
M  V30 8914 H 907.046 -0.644819 -0.185606 0
M  V30 8915 H 909.59 -2.04354 0.0771495 0
M  V30 8916 H 907.745 -3.26515 -2.08487 0
M  V30 8917 H 908.159 -5.16001 -0.940378 0
M  V30 8918 H 909.633 -4.85673 -2.62346 0
M  V30 8919 H 910.11 -3.20379 -3.00423 0
M  V30 8920 H 910.716 -3.97243 -1.51916 0
M  V30 8921 N 909.032 0.252966 -1.55557 0
M  V30 8922 C 910.443 0.822503 -1.67606 0
M  V30 8923 C 910.794 1.86265 -0.616411 0
M  V30 8924 O 909.919 2.15082 0.238447 0
M  V30 8925 C 910.514 1.49866 -3.03852 0
M  V30 8926 C 909.073 2.01597 -3.17861 0
M  V30 8927 C 908.22 0.864943 -2.63465 0
M  V30 8928 H 911.171 0.0288958 -1.58674 0
M  V30 8929 H 911.192 2.36646 -2.97958 0
M  V30 8930 H 910.704 0.741378 -3.80953 0
M  V30 8931 H 908.805 2.80224 -2.45571 0
M  V30 8932 H 908.918 2.21752 -4.24692 0
M  V30 8933 H 907.282 1.2638 -2.21134 0
M  V30 8934 H 908.065 0.120847 -3.43087 0
M  V30 8935 N 910.51 1.48831 0.518367 0
M  V30 8936 C 911.756 1.57672 1.27543 0
M  V30 8937 C 912.089 0.254915 1.9252 0
M  V30 8938 O 911.364 -0.740107 1.79868 0
M  V30 8939 C 911.647 2.72345 2.35585 0
M  V30 8940 C 911.5 4.14267 1.75224 0
M  V30 8941 C 912.819 2.82726 3.37274 0
M  V30 8942 H 909.938 0.573926 0.462361 0
M  V30 8943 H 912.58 1.8105 0.576267 0
M  V30 8944 H 910.73 2.52543 2.95219 0
M  V30 8945 H 912.402 4.45539 1.19551 0
M  V30 8946 H 910.645 4.20724 1.05706 0
M  V30 8947 H 911.316 4.90345 2.53507 0
M  V30 8948 H 913.792 3.00699 2.8761 0
M  V30 8949 H 912.668 3.6467 4.10252 0
M  V30 8950 H 912.929 1.9136 3.9854 0
M  V30 8951 N 911.988 -0.768124 1.37614 0
M  V30 8952 C 913.234 -1.52907 1.33219 0
M  V30 8953 C 913.567 -1.94026 -0.0821218 0
M  V30 8954 O 912.842 -1.64345 -1.04023 0
M  V30 8955 C 913.125 -2.79164 2.27463 0
M  V30 8956 C 912.978 -2.44276 3.7769 0
M  V30 8957 C 914.297 -3.81115 2.20089 0
M  V30 8958 H 911.416 -0.554712 0.485246 0
M  V30 8959 H 914.058 -0.880911 1.68345 0
M  V30 8960 H 912.208 -3.34472 1.97639 0
M  V30 8961 H 913.88 -1.94855 4.18126 0
M  V30 8962 H 912.123 -1.76925 3.96081 0
M  V30 8963 H 912.794 -3.34544 4.39072 0
M  V30 8964 H 915.27 -3.35311 2.46386 0
M  V30 8965 H 914.146 -4.67174 2.88166 0
M  V30 8966 H 914.407 -4.25644 1.19498 0
M  V30 8967 N 913.466 -1.22244 -0.994698 0
M  V30 8968 C 914.694 -1.07218 -1.76952 0
M  V30 8969 C 915.109 0.377388 -1.8499 0
M  V30 8970 O 914.466 1.26157 -1.31874 0
M  V30 8971 C 914.517 -1.67496 -3.20355 0
M  V30 8972 O 914.238 -3.06782 -3.12756 0
M  V30 8973 C 915.739 -1.57721 -4.14294 0
M  V30 8974 H 912.959 -0.375966 -0.555779 0
M  V30 8975 H 915.503 -1.61799 -1.25065 0
M  V30 8976 H 913.658 -1.16982 -3.69315 0
M  V30 8977 H 914.072 -3.35784 -4.02926 0
M  V30 8978 H 915.546 -2.04623 -5.12673 0
M  V30 8979 H 916.023 -0.533434 -4.35949 0
M  V30 8980 H 916.629 -2.07531 -3.71229 0
M  V30 8981 N 914.944 1.19125 -1.03184 0
M  V30 8982 C 916.169 1.93379 -0.749628 0
M  V30 8983 C 916.594 1.75153 0.685785 0
M  V30 8984 O 915.952 1.05579 1.47386 0
M  V30 8985 C 916 3.43101 -1.1097 0
M  V30 8986 O 915.104 4.11758 -0.230053 0
M  V30 8987 H 914.445 0.603605 -0.276689 0
M  V30 8988 H 916.975 1.51116 -1.37931 0
M  V30 8989 H 916.985 3.93778 -1.06785 0
M  V30 8990 H 915.66 3.55688 -2.15544 0
M  V30 8991 H 914.237 3.7143 -0.330748 0
M  V30 8992 N 916.422 0.810101 1.35185 0
M  V30 8993 C 917.833 0.452616 1.81131 0
M  V30 8994 C 918.184 -1.02573 1.67252 0
M  V30 8995 O 917.309 -1.79735 1.20516 0
M  V30 8996 C 917.904 0.814775 3.28857 0
M  V30 8997 C 916.463 0.509839 3.72931 0
M  V30 8998 C 915.61 1.03852 2.57119 0
M  V30 8999 H 918.561 1.00143 1.23114 0
M  V30 9000 H 918.582 0.113635 3.8033 0
M  V30 9001 H 918.094 1.89078 3.38926 0
M  V30 9002 H 916.195 -0.557289 3.68409 0
M  V30 9003 H 916.308 1.04493 4.67566 0
M  V30 9004 H 914.672 0.460671 2.50499 0
M  V30 9005 H 915.455 2.12071 2.69964 0
M  V30 9006 N 917.9 -1.47166 0.563914 0
M  V30 9007 C 919.311 -1.86231 0.132307 0
M  V30 9008 C 919.662 -1.46976 -1.29971 0
M  V30 9009 O 918.787 -0.875911 -1.97881 0
M  V30 9010 C 919.382 -3.37996 0.233335 0
M  V30 9011 C 917.941 -3.76127 -0.143278 0
M  V30 9012 C 917.088 -2.71212 0.577857 0
M  V30 9013 H 920.039 -1.38588 0.773249 0
M  V30 9014 H 920.06 -3.76558 -0.546309 0
M  V30 9015 H 919.572 -3.66535 1.27568 0
M  V30 9016 H 917.673 -3.53205 -1.18648 0
M  V30 9017 H 917.786 -4.78595 0.219952 0
M  V30 9018 H 916.15 -2.54692 0.020186 0
M  V30 9019 H 916.933 -3.02593 1.62149 0
M  V30 9020 N 919.378 -0.300708 -1.54705 0
M  V30 9021 C 920.325 0.57552 -2.23509 0
M  V30 9022 C 921.295 1.12979 -1.21758 0
M  V30 9023 O 922.48 1.17437 -1.50377 0
M  V30 9024 C 919.62 1.74167 -2.97926 0
M  V30 9025 C 918.733 1.21882 -4.1445 0
M  V30 9026 C 917.868 2.34881 -4.7645 0
M  V30 9027 C 916.907 1.79729 -5.85119 0
M  V30 9028 N 916.044 2.863 -6.41075 0
M  V30 9029 H 920.884 -0.0178257 -2.97995 0
M  V30 9030 H 918.421 -0.0205666 -1.47086 0
M  V30 9031 H 920.379 2.42753 -3.39303 0
M  V30 9032 H 919.009 2.30665 -2.25817 0
M  V30 9033 H 918.061 0.425227 -3.78016 0
M  V30 9034 H 919.373 0.775065 -4.92741 0
M  V30 9035 H 918.527 3.11415 -5.20678 0
M  V30 9036 H 917.266 2.82584 -3.97489 0
M  V30 9037 H 916.271 1.01684 -5.40315 0
M  V30 9038 H 917.496 1.32931 -6.65963 0
M  V30 9039 H 915.442 3.33337 -5.64998 0
M  V30 9040 H 915.359 2.46419 -7.14712 0
M  V30 9041 H 916.627 3.62732 -6.89961 0
M  V30 9042 N 920.856 1.57574 -0.0284266 0
M  V30 9043 C 921.804 2.11332 0.971675 0
M  V30 9044 C 922.798 1.03974 1.33738 0
M  V30 9045 O 924.004 1.22409 1.31969 0
M  V30 9046 H 920.379 0.675174 0.331125 0
M  V30 9047 H 922.35 2.943 0.49296 0
M  V30 9048 C 921.099 2.65496 2.24516 0
M  V30 9049 H 920.422 3.47753 1.9725 0
M  V30 9050 H 921.862 3.06757 2.92705 0
M  V30 9051 C 920.321 1.58207 2.97443 0
M  V30 9052 O 920.851 0.981496 3.89525 0
M  V30 9053 N 919.057 1.30269 2.59766 0
M  V30 9054 H 918.604 1.79294 1.84963 0
M  V30 9055 H 918.562 0.587085 3.0887 0
M  V30 9056 N 922.334 -0.244713 1.55689 0
M  V30 9057 C 923.297 -1.2864 1.89695 0
M  V30 9058 C 924.297 -1.40969 0.773583 0
M  V30 9059 O 925.487 -1.39632 1.04156 0
M  V30 9060 C 922.619 -2.66379 2.12732 0
M  V30 9061 H 923.812 -0.997033 2.82841 0
M  V30 9062 H 921.365 -0.484103 1.48614 0
M  V30 9063 H 922.1 -3.00452 1.22062 0
M  V30 9064 H 921.885 -2.58812 2.94549 0
M  V30 9065 H 923.375 -3.41592 2.40218 0
M  V30 9066 N 923.813 -1.49104 -0.510467 0
M  V30 9067 C 925.041 -1.61806 -1.28944 0
M  V30 9068 C 925.456 -0.285774 -1.86625 0
M  V30 9069 O 924.813 0.727551 -1.67371 0
M  V30 9070 C 924.864 -2.67966 -2.42645 0
M  V30 9071 O 924.585 -3.96026 -1.87337 0
M  V30 9072 C 926.086 -2.91286 -3.34166 0
M  V30 9073 H 923.306 -0.544999 -0.391429 0
M  V30 9074 H 925.85 -1.95071 -0.613805 0
M  V30 9075 H 924.005 -2.37505 -3.06056 0
M  V30 9076 H 924.419 -4.54427 -2.61909 0
M  V30 9077 H 925.893 -3.69323 -4.1025 0
M  V30 9078 H 926.37 -2.00842 -3.90588 0
M  V30 9079 H 926.976 -3.23127 -2.76531 0
M  V30 9080 N 925.291 0.760815 -1.38019 0
M  V30 9081 C 926.516 1.55513 -1.37224 0
M  V30 9082 C 926.941 1.88062 0.037611 0
M  V30 9083 O 926.299 1.50042 1.0177 0
M  V30 9084 C 926.347 2.83539 -2.22796 0
M  V30 9085 O 925.451 3.78384 -1.64009 0
M  V30 9086 H 924.792 0.470642 -0.468393 0
M  V30 9087 H 927.322 0.940792 -1.81687 0
M  V30 9088 H 927.332 3.32535 -2.36399 0
M  V30 9089 H 926.007 2.59178 -3.25269 0
M  V30 9090 H 924.584 3.37063 -1.59508 0
M  V30 9091 N 926.769 1.22769 0.988202 0
M  V30 9092 C 927.732 1.00325 2.06076 0
M  V30 9093 C 928.732 -0.0320618 1.60768 0
M  V30 9094 O 929.922 0.206912 1.72967 0
M  V30 9095 C 927.054 0.516376 3.36966 0
M  V30 9096 H 928.247 1.95499 2.27421 0
M  V30 9097 H 925.8 1.04704 1.16047 0
M  V30 9098 H 926.535 -0.439498 3.21308 0
M  V30 9099 H 926.32 1.26337 3.71189 0
M  V30 9100 H 927.81 0.37974 4.1587 0
M  V30 9101 N 928.247 -1.18576 1.03814 0
M  V30 9102 C 929.493 -1.88773 0.741132 0
M  V30 9103 C 929.826 -1.79993 -0.729127 0
M  V30 9104 O 929.101 -1.19851 -1.53186 0
M  V30 9105 C 929.384 -3.39352 1.20468 0
M  V30 9106 C 929.237 -3.56955 2.73684 0
M  V30 9107 C 930.556 -4.32901 0.792741 0
M  V30 9108 H 927.675 -0.685482 0.270708 0
M  V30 9109 H 930.317 -1.39523 1.2897 0
M  V30 9110 H 928.467 -3.81427 0.737974 0
M  V30 9111 H 930.139 -3.2399 3.28372 0
M  V30 9112 H 928.382 -2.99696 3.13632 0
M  V30 9113 H 929.053 -4.62598 3.01176 0
M  V30 9114 H 931.529 -3.98592 1.1943 0
M  V30 9115 H 930.405 -5.36828 1.14486 0
M  V30 9116 H 930.666 -4.41052 -0.304295 0
M  V30 9117 N 929.725 -0.817259 -1.34754 0
M  V30 9118 C 930.953 -0.415451 -2.02686 0
M  V30 9119 C 931.368 0.97688 -1.61563 0
M  V30 9120 O 930.725 1.63125 -0.818321 0
M  V30 9121 C 930.776 -0.501486 -3.58005 0
M  V30 9122 O 930.497 -1.83893 -3.97637 0
M  V30 9123 C 931.998 -0.0938504 -4.43201 0
M  V30 9124 H 929.218 -0.16742 -0.649778 0
M  V30 9125 H 931.762 -1.10384 -1.7215 0
M  V30 9126 H 929.917 0.138766 -3.87151 0
M  V30 9127 H 930.331 -1.8092 -4.92309 0
M  V30 9128 H 931.805 -0.205145 -5.51619 0
M  V30 9129 H 932.282 0.962011 -4.28535 0
M  V30 9130 H 932.888 -0.707677 -4.19371 0
M  V30 9131 N 931.203 1.46865 -0.571711 0
M  V30 9132 C 932.431 2.06818 -0.0583975 0
M  V30 9133 C 932.846 1.42218 1.24175 0
M  V30 9134 O 932.203 0.523655 1.74826 0
M  V30 9135 C 932.254 3.61281 0.125673 0
M  V30 9136 O 931.975 4.23462 -1.123 0
M  V30 9137 C 933.476 4.38137 0.674604 0
M  V30 9138 H 930.696 0.668948 -0.052438 0
M  V30 9139 H 933.24 1.88656 -0.789251 0
M  V30 9140 H 931.395 3.78908 0.806707 0
M  V30 9141 H 931.809 5.16192 -0.929869 0
M  V30 9142 H 933.283 5.46845 0.752626 0
M  V30 9143 H 933.76 4.05419 1.68915 0
M  V30 9144 H 934.366 4.2529 0.0287979 0
M  V30 9145 N 932.681 0.308908 1.54543 0
M  V30 9146 C 933.929 -0.297447 1.99899 0
M  V30 9147 C 934.25 -1.53799 1.19878 0
M  V30 9148 O 933.52 -1.93639 0.29678 0
M  V30 9149 H 932.1 -0.112897 0.738419 0
M  V30 9150 H 934.762 0.422067 1.90275 0
M  V30 9151 H 933.858 -0.564016 3.06961 0
M  V30 9152 N 934.159 -1.57557 0.0367827 0
M  V30 9153 C 935.091 -2.07597 -0.971395 0
M  V30 9154 C 936.104 -1.0009 -1.28397 0
M  V30 9155 O 937.293 -1.27692 -1.24728 0
M  V30 9156 C 934.393 -2.492 -2.2968 0
M  V30 9157 C 933.566 -3.79875 -2.16826 0
M  V30 9158 C 932.625 -4.07946 -3.32366 0
M  V30 9159 O 931.651 -4.78083 -3.0891 0
M  V30 9160 N 932.853 -3.58722 -4.56397 0
M  V30 9161 H 935.618 -2.94714 -0.544389 0
M  V30 9162 H 933.179 -1.61205 -0.1498 0
M  V30 9163 H 935.171 -2.65065 -3.05815 0
M  V30 9164 H 933.741 -1.67407 -2.63995 0
M  V30 9165 H 932.961 -3.73732 -1.2537 0
M  V30 9166 H 934.249 -4.65476 -2.0545 0
M  V30 9167 H 933.647 -3.01994 -4.78347 0
M  V30 9168 H 932.204 -3.79852 -5.29675 0
M  V30 9169 N 935.637 0.236453 -1.55816 0
M  V30 9170 C 936.587 1.29603 -1.87582 0
M  V30 9171 C 937.571 1.42999 -0.737566 0
M  V30 9172 O 938.763 1.46065 -0.999701 0
M  V30 9173 C 935.892 2.64945 -2.1831 0
M  V30 9174 C 934.978 2.55511 -3.38489 0
M  V30 9175 N 935.369 2.15716 -4.57494 0
M  V30 9176 C 933.667 2.86502 -3.41808 0
M  V30 9177 C 934.368 2.17169 -5.39641 0
M  V30 9178 N 933.344 2.5708 -4.78969 0
M  V30 9179 H 937.146 0.979016 -2.77115 0
M  V30 9180 H 934.66 0.445058 -1.56183 0
M  V30 9181 H 936.657 3.41426 -2.39236 0
M  V30 9182 H 935.317 2.97504 -1.30082 0
M  V30 9183 H 936.328 1.87089 -4.82927 0
M  V30 9184 H 933.005 3.23533 -2.6388 0
M  V30 9185 H 934.395 1.88653 -6.44872 0
M  V30 9186 N 937.115 1.49373 0.502552 0
M  V30 9187 C 938.063 1.66411 1.62512 0
M  V30 9188 C 939.057 0.530062 1.60893 0
M  V30 9189 O 940.263 0.709648 1.65421 0
M  V30 9190 H 936.638 0.524707 0.538689 0
M  V30 9191 H 938.609 2.60639 1.45293 0
M  V30 9192 C 937.358 1.74648 3.00655 0
M  V30 9193 H 936.681 2.61285 3.02606 0
M  V30 9194 H 938.121 1.90605 3.78742 0
M  V30 9195 C 936.58 0.490963 3.33303 0
M  V30 9196 O 937.11 -0.384039 3.9986 0
M  V30 9197 N 935.316 0.354375 2.88431 0
M  V30 9198 H 934.863 1.06742 2.34444 0
M  V30 9199 H 934.821 -0.484593 3.10643 0
M  V30 9200 N 938.594 -0.753485 1.38421 0
M  V30 9201 C 939.843 -1.50797 1.33952 0
M  V30 9202 C 940.156 -1.95482 -0.0678464 0
M  V30 9203 O 941.362 -2.7048 -0.235078 0
M  V30 9204 C 939.818 -2.72393 2.35224 0
M  V30 9205 C 939.426 -2.34733 3.81582 0
M  V30 9206 C 941.17 -3.50281 2.39798 0
M  V30 9207 C 939.077 -3.52939 4.7454 0
M  V30 9208 H 938.007 -0.566211 0.497916 0
M  V30 9209 H 940.658 -0.823659 1.63976 0
M  V30 9210 H 939.04 -3.42806 1.98243 0
M  V30 9211 H 940.214 -1.71985 4.27502 0
M  V30 9212 H 938.529 -1.69978 3.80127 0
M  V30 9213 H 941.126 -4.38172 3.06447 0
M  V30 9214 H 941.469 -3.91444 1.41695 0
M  V30 9215 H 942.002 -2.86881 2.75579 0
M  V30 9216 H 938.741 -3.16843 5.73839 0
M  V30 9217 H 938.261 -4.1473 4.33312 0
M  V30 9218 H 939.94 -4.19519 4.92557 0
M  V30 9219 N 940.072 -1.23292 -0.981677 0
M  V30 9220 C 941.3 -1.09088 -1.75805 0
M  V30 9221 C 941.715 0.357746 -1.8538 0
M  V30 9222 O 941.072 1.24751 -1.33205 0
M  V30 9223 C 941.123 -1.70885 -3.1856 0
M  V30 9224 O 940.844 -3.10082 -3.09484 0
M  V30 9225 C 942.345 -1.62106 -4.12597 0
M  V30 9226 H 939.565 -0.38184 -0.55176 0
M  V30 9227 H 942.109 -1.63116 -1.23342 0
M  V30 9228 H 940.264 -1.20893 -3.68054 0
M  V30 9229 H 940.678 -3.40039 -3.99342 0
M  V30 9230 H 942.152 -2.10049 -5.10474 0
M  V30 9231 H 942.629 -0.579642 -4.35358 0
M  V30 9232 H 943.235 -2.11457 -3.69007 0
M  V30 9233 N 941.55 1.18024 -1.04442 0
M  V30 9234 C 942.775 1.92573 -0.770097 0
M  V30 9235 C 943.2 1.75871 0.667169 0
M  V30 9236 O 942.558 1.07136 1.46258 0
M  V30 9237 C 942.606 3.41904 -1.14602 0
M  V30 9238 O 941.71 4.11491 -0.273712 0
M  V30 9239 H 941.051 0.600636 -0.283076 0
M  V30 9240 H 943.581 1.49645 -1.39526 0
M  V30 9241 H 943.591 3.92623 -1.10956 0
M  V30 9242 H 942.266 3.53382 -2.19304 0
M  V30 9243 H 940.843 3.71059 -0.370124 0
M  V30 9244 N 943.028 0.824394 1.34319 0
M  V30 9245 C 944.253 0.425194 2.02995 0
M  V30 9246 C 944.678 -0.961476 1.6167 0
M  V30 9247 O 944.036 -1.62593 0.80207 0
M  V30 9248 C 944.084 0.537004 3.56579 0
M  V30 9249 O 943.188 -0.442576 4.10018 0
M  V30 9250 H 942.529 0.174853 0.640564 0
M  V30 9251 H 945.059 1.11522 1.71534 0
M  V30 9252 H 945.069 0.413311 4.05901 0
M  V30 9253 H 943.744 1.54836 3.86004 0
M  V30 9254 H 942.321 -0.277644 3.71865 0
M  V30 9255 N 944.506 -1.46559 0.579492 0
M  V30 9256 C 945.731 -2.0729 0.0674595 0
M  V30 9257 C 946.156 -1.4259 -1.22677 0
M  V30 9258 O 945.514 -0.50857 -1.74021 0
M  V30 9259 C 945.562 -3.60492 -0.0882227 0
M  V30 9260 O 944.666 -3.96172 -1.14551 0
M  V30 9261 H 944.007 -0.661159 0.0613536 0
M  V30 9262 H 946.537 -1.88247 0.801519 0
M  V30 9263 H 946.547 -4.06929 -0.295411 0
M  V30 9264 H 945.222 -4.06976 0.856943 0
M  V30 9265 H 943.799 -3.61448 -0.917033 0
M  V30 9266 N 945.984 -0.3171 -1.54377 0
M  V30 9267 C 947.212 0.289558 -2.04864 0
M  V30 9268 C 947.627 1.46284 -1.19359 0
M  V30 9269 O 946.984 1.81135 -0.222795 0
M  V30 9270 C 947.035 0.730273 -3.54047 0
M  V30 9271 O 946.756 -0.396325 -4.36304 0
M  V30 9272 C 948.257 1.40041 -4.20599 0
M  V30 9273 H 945.477 0.0605836 -0.668259 0
M  V30 9274 H 948.021 -0.461411 -1.99227 0
M  V30 9275 H 946.176 1.43123 -3.59992 0
M  V30 9276 H 946.59 -0.0502901 -5.24476 0
M  V30 9277 H 948.064 1.65979 -5.26455 0
M  V30 9278 H 948.541 2.34565 -3.71316 0
M  V30 9279 H 949.147 0.742206 -4.18774 0
M  V30 9280 N 947.462 1.57535 -0.0451378 0
M  V30 9281 C 948.687 1.97172 0.64326 0
M  V30 9282 C 949.112 0.922266 1.63939 0
M  V30 9283 O 948.47 -0.115155 1.80934 0
M  V30 9284 C 948.518 3.35889 1.3119 0
M  V30 9285 O 947.622 3.33387 2.42748 0
M  V30 9286 H 946.963 0.642469 0.167719 0
M  V30 9287 H 949.493 2.04295 -0.111747 0
M  V30 9288 H 949.503 3.72481 1.66499 0
M  V30 9289 H 948.178 4.1181 0.581823 0
M  V30 9290 H 946.755 3.08533 2.09432 0
M  V30 9291 N 948.94 -0.228186 1.55939 0
M  V30 9292 C 950.165 -0.974795 1.83064 0
M  V30 9293 C 950.59 -1.77426 0.624624 0
M  V30 9294 O 949.948 -1.76211 -0.426556 0
M  V30 9295 C 949.996 -1.87342 3.08116 0
M  V30 9296 O 949.1 -2.96784 2.86344 0
M  V30 9297 H 948.441 -0.276379 0.603747 0
M  V30 9298 H 950.971 -0.243507 2.03146 0
M  V30 9299 H 950.981 -2.28451 3.38045 0
M  V30 9300 H 949.656 -1.28575 3.95526 0
M  V30 9301 H 948.233 -2.59669 2.67631 0
M  V30 9302 N 950.418 -1.49637 -0.494624 0
M  V30 9303 C 951.351 -1.61387 -1.61337 0
M  V30 9304 C 952.329 -0.462704 -1.55878 0
M  V30 9305 O 953.513 -0.679103 -1.75842 0
M  V30 9306 C 950.64 -1.57471 -2.99867 0
M  V30 9307 C 949.686 -2.77863 -3.23565 0
M  V30 9308 S 950.519 -4.3946 -3.05999 0
M  V30 9309 C 951.675 -4.382 -4.46914 0
M  V30 9310 H 951.908 -2.56024 -1.51126 0
M  V30 9311 H 949.441 -1.38607 -0.680253 0
M  V30 9312 H 951.399 -1.55898 -3.79745 0
M  V30 9313 H 950.06 -0.641107 -3.07488 0
M  V30 9314 H 949.253 -2.71361 -4.24711 0
M  V30 9315 H 948.855 -2.76882 -2.51421 0
M  V30 9316 H 951.147 -4.10312 -5.3912 0
M  V30 9317 H 952.09 -5.39645 -4.58464 0
M  V30 9318 H 952.498 -3.68197 -4.27891 0
M  V30 9319 N 951.896 0.746133 -1.38819 0
M  V30 9320 C 953.121 1.54049 -1.38866 0
M  V30 9321 C 953.546 1.88092 0.0176624 0
M  V30 9322 O 952.904 1.51113 1.00173 0
M  V30 9323 C 952.952 2.8116 -2.25791 0
M  V30 9324 O 952.056 3.76623 -1.68014 0
M  V30 9325 H 951.397 0.465648 -0.473359 0
M  V30 9326 H 953.927 0.921469 -1.82675 0
M  V30 9327 H 953.937 3.30009 -2.39913 0
M  V30 9328 H 952.612 2.55713 -3.27999 0
M  V30 9329 H 951.189 3.35352 -1.63074 0
M  V30 9330 N 953.375 1.23811 0.975125 0
M  V30 9331 C 954.305 1.04846 2.08638 0
M  V30 9332 C 955.286 -0.0362859 1.70061 0
M  V30 9333 O 956.471 0.12937 1.93769 0
M  V30 9334 C 953.601 0.644534 3.41267 0
M  V30 9335 C 952.555 1.67722 3.93768 0
M  V30 9336 C 951.881 1.12857 5.22654 0
M  V30 9337 C 953.181 3.07147 4.22443 0
M  V30 9338 H 954.875 1.97795 2.24761 0
M  V30 9339 H 952.421 0.952397 1.08006 0
M  V30 9340 H 954.374 0.498887 4.18436 0
M  V30 9341 H 953.098 -0.320641 3.25022 0
M  V30 9342 H 951.757 1.81095 3.18748 0
M  V30 9343 H 951.405 0.154227 5.02764 0
M  V30 9344 H 951.105 1.81862 5.58749 0
M  V30 9345 H 952.629 0.994891 6.0244 0
M  V30 9346 H 954.043 2.97045 4.90344 0
M  V30 9347 H 952.44 3.73437 4.6975 0
M  V30 9348 H 953.51 3.55743 3.29507 0
M  V30 9349 N 954.853 -1.17469 1.05066 0
M  V30 9350 C 956.269 -1.39699 0.771769 0
M  V30 9351 C 956.469 -1.91253 -0.634382 0
M  V30 9352 O 955.525 -2.10334 -1.39699 0
M  V30 9353 C 956.838 -2.38886 1.82631 0
M  V30 9354 C 958.386 -2.52595 1.84838 0
M  V30 9355 C 958.861 -3.55054 2.89311 0
M  V30 9356 N 960.352 -3.6257 2.88266 0
M  V30 9357 C 961.087 -4.41603 3.65752 0
M  V30 9358 N 960.583 -5.24162 4.53019 0
M  V30 9359 N 962.376 -4.36464 3.54197 0
M  V30 9360 H 954.527 -0.823355 1.95792 0
M  V30 9361 H 956.79 -0.42432 0.847736 0
M  V30 9362 H 956.496 -2.08075 2.83545 0
M  V30 9363 H 956.37 -3.38371 1.66687 0
M  V30 9364 H 958.757 -2.82717 0.845888 0
M  V30 9365 H 958.838 -1.53188 2.04859 0
M  V30 9366 H 958.482 -3.2567 3.89745 0
M  V30 9367 H 958.412 -4.54162 2.66542 0
M  V30 9368 H 960.903 -3.03625 2.24989 0
M  V30 9369 H 961.216 -5.81646 5.0883 0
M  V30 9370 H 959.561 -5.23547 4.57081 0
M  V30 9371 H 962.752 -3.7102 2.85416 0
M  V30 9372 H 962.925 -4.97814 4.14832 0
M  V30 9373 N 956.331 -0.831506 -1.3388 0
M  V30 9374 C 957.742 -0.481375 -1.80388 0
M  V30 9375 C 958.093 0.998993 -1.68863 0
M  V30 9376 O 957.218 1.77795 -1.2336 0
M  V30 9377 C 957.813 -0.86699 -3.27519 0
M  V30 9378 C 956.372 -0.569105 -3.72073 0
M  V30 9379 C 955.519 -1.07929 -2.55434 0
M  V30 9380 H 958.47 -1.02089 -1.21505 0
M  V30 9381 H 958.491 -0.174128 -3.80101 0
M  V30 9382 H 958.003 -1.94447 -3.35875 0
M  V30 9383 H 956.104 0.498607 -3.69249 0
M  V30 9384 H 956.217 -1.11918 -4.65845 0
M  V30 9385 H 954.581 -0.500465 -2.49735 0
M  V30 9386 H 955.364 -2.16339 -2.66556 0
M  V30 9387 N 957.809 1.4625 -0.587256 0
M  V30 9388 C 959.034 2.07252 -0.0784517 0
M  V30 9389 C 959.459 1.43239 1.21919 0
M  V30 9390 O 958.817 0.517791 1.73749 0
M  V30 9391 C 958.865 3.60534 0.0691037 0
M  V30 9392 O 957.969 3.96773 1.12448 0
M  V30 9393 H 957.31 0.660825 -0.064859 0
M  V30 9394 H 959.84 1.87819 -0.811491 0
M  V30 9395 H 959.85 4.0708 0.273826 0
M  V30 9396 H 958.525 4.06516 -0.878514 0
M  V30 9397 H 957.102 3.6193 0.897852 0
M  V30 9398 N 959.287 0.325282 1.54207 0
M  V30 9399 C 960.512 -0.281418 2.05482 0
M  V30 9400 C 960.937 -1.44869 1.19977 0
M  V30 9401 O 960.295 -1.80088 0.209275 0
M  V30 9402 C 960.343 -0.692029 3.53897 0
M  V30 9403 O 959.447 -1.7942 3.71325 0
M  V30 9404 H 958.788 -0.0504872 0.662078 0
M  V30 9405 H 961.318 0.474191 1.99029 0
M  V30 9406 H 961.328 -0.974219 3.96198 0
M  V30 9407 H 960.003 0.161709 4.15586 0
M  V30 9408 H 958.58 -1.51069 3.40929 0
M  V30 9409 N 960.765 -1.57509 0.0534917 0
M  V30 9410 C 962.014 -1.91959 -0.619244 0
M  V30 9411 C 962.327 -0.933882 -1.71866 0
M  V30 9412 O 963.533 -1.17052 -2.44972 0
M  V30 9413 C 961.989 -3.40938 -1.15278 0
M  V30 9414 C 961.597 -4.47919 -0.085348 0
M  V30 9415 C 963.341 -3.84419 -1.80063 0
M  V30 9416 C 961.248 -5.88014 -0.631897 0
M  V30 9417 H 960.178 -0.71642 -0.235072 0
M  V30 9418 H 962.829 -1.83089 0.122758 0
M  V30 9419 H 961.211 -3.44821 -1.94717 0
M  V30 9420 H 962.385 -4.55629 0.688374 0
M  V30 9421 H 960.7 -4.13793 0.465178 0
M  V30 9422 H 963.297 -4.86457 -2.21954 0
M  V30 9423 H 963.64 -3.20791 -2.65328 0
M  V30 9424 H 964.173 -3.83062 -1.07275 0
M  V30 9425 H 960.912 -6.55244 0.183175 0
M  V30 9426 H 960.432 -5.83861 -1.37355 0
M  V30 9427 H 962.111 -6.37336 -1.11407 0
M  V30 9428 N 962.243 0.219913 -1.56058 0
M  V30 9429 C 963.468 0.965073 -1.83579 0
M  V30 9430 C 963.893 1.77092 -0.634024 0
M  V30 9431 O 963.251 1.76434 0.417205 0
M  V30 9432 C 963.299 1.85705 -3.09105 0
M  V30 9433 O 962.403 2.95261 -2.87914 0
M  V30 9434 H 961.744 0.273173 -0.605204 0
M  V30 9435 H 964.274 0.23273 -2.03272 0
M  V30 9436 H 964.284 2.26655 -3.39252 0
M  V30 9437 H 962.959 1.26476 -3.96203 0
M  V30 9438 H 961.536 2.58246 -2.69005 0
M  V30 9439 N 963.721 1.49897 0.486681 0
M  V30 9440 C 964.631 1.70379 1.6127 0
M  V30 9441 C 965.647 0.58659 1.63814 0
M  V30 9442 O 966.823 0.863044 1.81971 0
M  V30 9443 C 963.888 1.77911 2.97571 0
M  V30 9444 C 962.949 3.01569 3.0554 0
M  V30 9445 C 962.182 3.08732 4.35339 0
M  V30 9446 O 962.405 2.23099 5.2496 0
M  V30 9447 O 961.339 4.01325 4.48578 0
M  V30 9448 H 965.165 2.65799 1.46916 0
M  V30 9449 H 962.75 1.33808 0.664516 0
M  V30 9450 H 964.632 1.85135 3.78554 0
M  V30 9451 H 963.307 0.856722 3.12157 0
M  V30 9452 H 962.214 2.99854 2.23693 0
M  V30 9453 H 963.547 3.93335 2.95886 0
M  V30 9454 N 965.199 -0.738761 1.39212 0
M  V30 9455 C 966.427 -1.52801 1.39497 0
M  V30 9456 C 966.842 -1.88797 -0.0114917 0
M  V30 9457 O 966.199 -1.53835 -0.981887 0
M  V30 9458 C 966.25 -2.81793 2.2644 0
M  V30 9459 O 965.971 -2.47328 3.61608 0
M  V30 9460 C 967.472 -3.75844 2.35067 0
M  V30 9461 H 964.692 -0.472322 0.476606 0
M  V30 9462 H 967.236 -0.913153 1.8298 0
M  V30 9463 H 965.391 -3.3962 1.8638 0
M  V30 9464 H 965.805 -3.30162 4.07545 0
M  V30 9465 H 967.279 -4.6326 3.00157 0
M  V30 9466 H 967.756 -4.17329 1.3687 0
M  V30 9467 H 968.362 -3.23937 2.75581 0
M  V30 9468 N 966.677 -1.24326 -0.968545 0
M  V30 9469 C 967.607 -1.05951 -2.08079 0
M  V30 9470 C 968.588 0.0272666 -1.70078 0
M  V30 9471 O 969.773 -0.139644 -1.93697 0
M  V30 9472 C 966.903 -0.662623 -3.4092 0
M  V30 9473 C 965.857 -1.69807 -3.92873 0
M  V30 9474 C 965.183 -1.15628 -5.22048 0
M  V30 9475 C 966.483 -3.09383 -4.20808 0
M  V30 9476 H 968.177 -1.98984 -2.23709 0
M  V30 9477 H 965.723 -0.958112 -1.075 0
M  V30 9478 H 967.676 -0.521071 -4.18166 0
M  V30 9479 H 966.4 0.303399 -3.25188 0
M  V30 9480 H 965.059 -1.82783 -3.17783 0
M  V30 9481 H 964.707 -0.180888 -5.02675 0
M  V30 9482 H 964.407 -1.84822 -5.57776 0
M  V30 9483 H 965.931 -1.02683 -6.01904 0
M  V30 9484 H 967.345 -2.99642 -4.88761 0
M  V30 9485 H 965.742 -3.75923 -4.67763 0
M  V30 9486 H 966.812 -3.57486 -3.27616 0
M  V30 9487 N 968.156 1.1691 -1.05688 0
M  V30 9488 C 969.381 1.91745 -0.790478 0
M  V30 9489 C 969.806 1.76568 0.648478 0
M  V30 9490 O 969.164 1.08682 1.45114 0
M  V30 9491 C 969.212 3.4067 -1.18222 0
M  V30 9492 O 968.316 4.11177 -0.317341 0
M  V30 9493 H 967.657 0.5976 -0.28943 0
M  V30 9494 H 970.187 1.48157 -1.41105 0
M  V30 9495 H 970.197 3.91424 -1.15114 0
M  V30 9496 H 968.872 3.51036 -2.2304 0
M  V30 9497 H 967.449 3.70645 -0.409459 0
M  V30 9498 N 969.634 0.838594 1.33437 0
M  V30 9499 C 971.045 0.490934 1.8013 0
M  V30 9500 C 971.396 -0.990024 1.6939 0
M  V30 9501 O 970.521 -1.77139 1.24302 0
M  V30 9502 C 971.116 0.884347 3.27055 0
M  V30 9503 C 969.675 0.588829 3.71766 0
M  V30 9504 C 968.822 1.09282 2.54858 0
M  V30 9505 H 971.773 1.02732 1.20962 0
M  V30 9506 H 971.794 0.194283 3.80004 0
M  V30 9507 H 971.306 1.96225 3.34839 0
M  V30 9508 H 969.407 -0.479018 3.69508 0
M  V30 9509 H 969.52 1.14387 4.65245 0
M  V30 9510 H 967.884 0.513702 2.49466 0
M  V30 9511 H 968.667 2.1775 2.65405 0
M  V30 9512 N 971.112 -1.45937 0.595003 0
M  V30 9513 C 972.337 -2.07207 0.0894416 0
M  V30 9514 C 972.762 -1.43884 -1.21157 0
M  V30 9515 O 972.12 -0.526998 -1.73472 0
M  V30 9516 C 972.168 -3.60565 -0.0499828 0
M  V30 9517 O 971.272 -3.97364 -1.10342 0
M  V30 9518 H 970.613 -0.660471 0.0683627 0
M  V30 9519 H 973.143 -1.87386 0.82144 0
M  V30 9520 H 973.153 -4.0722 -0.252234 0
M  V30 9521 H 971.828 -4.06044 0.90006 0
M  V30 9522 H 970.405 -3.62401 -0.878645 0
M  V30 9523 N 972.59 -0.333456 -1.54032 0
M  V30 9524 C 973.818 0.267813 -2.05159 0
M  V30 9525 C 974.233 1.4501 -1.20903 0
M  V30 9526 O 973.59 1.80888 -0.241994 0
M  V30 9527 C 973.641 0.69268 -3.54802 0
M  V30 9528 O 973.362 -0.442579 -4.35859 0
M  V30 9529 C 974.863 1.35572 -4.2206 0
M  V30 9530 H 972.083 0.0534924 -0.668864 0
M  V30 9531 H 974.627 -0.482515 -1.98726 0
M  V30 9532 H 972.782 1.39297 -3.6149 0
M  V30 9533 H 973.196 -0.105915 -5.24393 0
M  V30 9534 H 974.67 1.60385 -5.28186 0
M  V30 9535 H 975.147 2.30614 -3.73783 0
M  V30 9536 H 975.753 0.697748 -4.19537 0
M  V30 9537 N 974.068 1.57479 -0.061844 0
M  V30 9538 C 975.293 1.97843 0.622311 0
M  V30 9539 C 975.718 0.939602 1.62951 0
M  V30 9540 O 975.076 -0.095958 1.81046 0
M  V30 9541 C 975.124 3.37262 1.2762 0
M  V30 9542 O 974.228 3.35943 2.39199 0
M  V30 9543 H 973.569 0.644212 0.160896 0
M  V30 9544 H 976.099 2.04165 -0.133409 0
M  V30 9545 H 976.109 3.74226 1.62539 0
M  V30 9546 H 974.784 4.12404 0.538112 0
M  V30 9547 H 973.361 3.10737 2.06148 0
M  V30 9548 N 975.546 -0.211634 1.56173 0
M  V30 9549 C 976.823 -0.959467 1.70451 0
M  V30 9550 C 977.203 -2.02036 0.611942 0
M  V30 9551 O 976.551 -2.25325 -0.37959 0
M  V30 9552 C 976.761 -1.56092 3.12148 0
M  V30 9553 C 978.109 -2.04939 3.71867 0
M  V30 9554 O 979.133 -1.65966 3.15172 0
M  V30 9555 O 977.992 -2.766 4.71333 0
M  V30 9556 H 975.086 -0.448844 0.6946 0
M  V30 9557 H 977.632 -0.202633 1.68486 0
M  V30 9558 H 976.404 -0.79538 3.83131 0
M  V30 9559 H 976.027 -2.38303 3.18273 0
M  V30 9560 N 977.024 -1.50153 -0.478725 0
M  V30 9561 C 977.972 -1.68975 -1.59844 0
M  V30 9562 C 978.966 -0.555591 -1.6003 0
M  V30 9563 O 980.172 -0.735875 -1.64271 0
M  V30 9564 H 976.547 -0.533211 -0.530274 0
M  V30 9565 H 978.518 -2.62917 -1.41128 0
M  V30 9566 C 977.267 -1.79409 -2.97838 0
M  V30 9567 H 976.59 -2.66066 -2.98411 0
M  V30 9568 H 978.03 -1.96606 -3.75662 0
M  V30 9569 C 976.489 -0.543927 -3.3248 0
M  V30 9570 O 977.019 0.320376 -4.0042 0
M  V30 9571 N 975.225 -0.400217 -2.87831 0
M  V30 9572 H 974.772 -1.10458 -2.32716 0
M  V30 9573 H 974.73 0.435111 -3.11375 0
M  V30 9574 N 978.502 0.731368 -1.39602 0
M  V30 9575 C 979.727 1.52567 -1.40492 0
M  V30 9576 C 980.152 1.881 -0.00228828 0
M  V30 9577 O 979.51 1.52167 0.985643 0
M  V30 9578 C 979.558 2.78749 -2.2876 0
M  V30 9579 O 978.662 3.7482 -1.71999 0
M  V30 9580 H 978.003 0.460601 -0.478271 0
M  V30 9581 H 980.533 0.902042 -1.83642 0
M  V30 9582 H 980.543 3.27446 -2.43399 0
M  V30 9583 H 979.218 2.5222 -3.30693 0
M  V30 9584 H 977.795 3.33604 -1.66622 0
M  V30 9585 N 979.98 1.24838 0.961938 0
M  V30 9586 C 981.208 1.11871 1.74047 0
M  V30 9587 C 981.623 -0.328209 1.85925 0
M  V30 9588 O 980.98 -1.22616 1.35173 0
M  V30 9589 C 981.031 1.75931 3.15801 0
M  V30 9590 O 980.752 3.14967 3.04512 0
M  V30 9591 C 982.253 1.68649 4.09966 0
M  V30 9592 H 979.473 0.390569 0.545616 0
M  V30 9593 H 982.017 1.65058 1.20732 0
M  V30 9594 H 980.172 1.26733 3.66084 0
M  V30 9595 H 980.586 3.46349 3.93882 0
M  V30 9596 H 982.06 2.18144 5.07067 0
M  V30 9597 H 982.537 0.648831 4.34381 0
M  V30 9598 H 983.143 2.17301 3.65596 0
M  V30 9599 N 981.458 -1.16348 1.06306 0
M  V30 9600 C 982.683 -1.91323 0.800636 0
M  V30 9601 C 983.108 -1.7691 -0.639105 0
M  V30 9602 O 982.466 -1.0945 -1.44535 0
M  V30 9603 C 982.514 -3.40038 1.20027 0
M  V30 9604 O 981.618 -4.11003 0.339142 0
M  V30 9605 H 980.959 -0.596057 0.292595 0
M  V30 9606 H 983.489 -1.47406 1.41889 0
M  V30 9607 H 983.499 -3.90808 1.17188 0
M  V30 9608 H 982.174 -3.49848 2.24898 0
M  V30 9609 H 980.751 -3.70423 0.42911 0
M  V30 9610 N 982.937 -0.845659 -1.3299 0
M  V30 9611 C 983.887 -0.2557 -2.26562 0
M  V30 9612 C 984.871 0.593245 -1.49564 0
M  V30 9613 O 986.063 0.444101 -1.71338 0
M  V30 9614 C 983.192 0.562573 -3.38659 0
M  V30 9615 C 982.278 -0.298259 -4.2305 0
M  V30 9616 N 982.669 -1.38023 -4.86604 0
M  V30 9617 C 980.967 -0.0864539 -4.45916 0
M  V30 9618 C 981.668 -1.90907 -5.49481 0
M  V30 9619 N 980.644 -1.20955 -5.29973 0
M  V30 9620 H 984.446 -1.083 -2.73219 0
M  V30 9621 H 981.96 -0.690823 -1.46974 0
M  V30 9622 H 983.957 1.00157 -4.0469 0
M  V30 9623 H 982.617 1.38777 -2.93549 0
M  V30 9624 H 983.628 -1.76314 -4.86964 0
M  V30 9625 H 980.305 0.70475 -4.11509 0
M  V30 9626 H 981.695 -2.81552 -6.10064 0
M  V30 9627 N 984.415 1.45619 -0.602734 0
M  V30 9628 C 985.348 2.27583 0.167708 0
M  V30 9629 C 986.326 1.36844 0.878206 0
M  V30 9630 O 987.51 1.6627 0.888058 0
M  V30 9631 C 984.637 3.15094 1.24232 0
M  V30 9632 C 983.683 4.21739 0.63549 0
M  V30 9633 S 984.516 5.32638 -0.552944 0
M  V30 9634 C 985.672 6.23716 0.522382 0
M  V30 9635 H 985.905 2.92579 -0.527697 0
M  V30 9636 H 983.438 1.4939 -0.390127 0
M  V30 9637 H 985.396 3.66071 1.85748 0
M  V30 9638 H 984.057 2.49372 1.90978 0
M  V30 9639 H 983.25 4.82874 1.44389 0
M  V30 9640 H 982.852 3.73878 0.0955772 0
M  V30 9641 H 985.144 6.62819 1.40276 0
M  V30 9642 H 986.087 7.0808 -0.0526951 0
M  V30 9643 H 986.495 5.58282 0.83553 0
M  V30 9644 N 985.893 0.34162 1.53853 0
M  V30 9645 C 987.304 -0.14269 1.86154 0
M  V30 9646 C 987.655 -1.50151 1.2629 0
M  V30 9647 O 986.78 -2.08601 0.575735 0
M  V30 9648 C 987.375 -0.265691 3.37757 0
M  V30 9649 C 985.934 -0.694231 3.69942 0
M  V30 9650 C 985.081 0.173195 2.76759 0
M  V30 9651 H 988.032 0.561284 1.48443 0
M  V30 9652 H 988.053 -1.09352 3.64448 0
M  V30 9653 H 987.565 0.723424 3.81298 0
M  V30 9654 H 985.666 -1.69244 3.31945 0
M  V30 9655 H 985.779 -0.485461 4.76634 0
M  V30 9656 H 984.143 -0.35416 2.52226 0
M  V30 9657 H 984.926 1.15941 3.23129 0
M  V30 9658 N 987.371 -1.57444 0.0701946 0
M  V30 9659 C 988.301 -2.15659 -0.895176 0
M  V30 9660 C 989.282 -1.08321 -1.31151 0
M  V30 9661 O 990.467 -1.36349 -1.38284 0
M  V30 9662 C 987.597 -2.71693 -2.16334 0
M  V30 9663 C 986.551 -3.84183 -1.88645 0
M  V30 9664 C 985.877 -4.26814 -3.22078 0
M  V30 9665 C 987.177 -5.08493 -1.19299 0
M  V30 9666 H 988.871 -2.96576 -0.410217 0
M  V30 9667 H 986.417 -1.42662 -0.195872 0
M  V30 9668 H 988.37 -3.11064 -2.84284 0
M  V30 9669 H 987.094 -1.87994 -2.67069 0
M  V30 9670 H 985.753 -3.45314 -1.23101 0
M  V30 9671 H 985.401 -3.40039 -3.70651 0
M  V30 9672 H 985.101 -5.02642 -3.04344 0
M  V30 9673 H 986.625 -4.68799 -3.91228 0
M  V30 9674 H 988.039 -5.4519 -1.77316 0
M  V30 9675 H 986.436 -5.89588 -1.11828 0
M  V30 9676 H 987.506 -4.84595 -0.171839 0
M  V30 9677 N 988.849 0.203349 -1.56283 0
M  V30 9678 C 989.779 1.2549 -1.96912 0
M  V30 9679 C 990.76 1.47919 -0.839884 0
M  V30 9680 O 991.945 1.59795 -1.10359 0
M  V30 9681 C 989.075 2.6009 -2.30153 0
M  V30 9682 C 988.029 2.52289 -3.45738 0
M  V30 9683 C 987.355 3.91086 -3.64632 0
M  V30 9684 C 988.655 2.05503 -4.80173 0
M  V30 9685 H 990.349 0.917306 -2.85002 0
M  V30 9686 H 987.895 0.439818 -1.37119 0
M  V30 9687 H 989.848 3.33829 -2.5717 0
M  V30 9688 H 988.572 2.95574 -1.38937 0
M  V30 9689 H 987.231 1.81006 -3.18798 0
M  V30 9690 H 986.879 4.23908 -2.7076 0
M  V30 9691 H 986.579 3.86742 -4.42385 0
M  V30 9692 H 988.103 4.66459 -3.94016 0
M  V30 9693 H 989.517 2.68995 -5.06275 0
M  V30 9694 H 987.914 2.1218 -5.61337 0
M  V30 9695 H 988.984 1.00793 -4.74309 0
M  V30 9696 N 990.327 1.50405 0.470755 0
M  V30 9697 C 991.555 1.65168 1.24608 0
M  V30 9698 C 991.97 0.335153 1.85801 0
M  V30 9699 O 991.327 -0.682919 1.69241 0
M  V30 9700 C 991.378 2.74305 2.35455 0
M  V30 9701 O 991.099 4.00854 1.76771 0
M  V30 9702 C 992.6 3.00044 3.26326 0
M  V30 9703 H 989.82 0.555186 0.376842 0
M  V30 9704 H 992.364 1.9663 0.56187 0
M  V30 9705 H 990.519 2.45536 2.99651 0
M  V30 9706 H 990.933 4.61211 2.49769 0
M  V30 9707 H 992.407 3.8007 4.00313 0
M  V30 9708 H 992.884 2.11128 3.85126 0
M  V30 9709 H 993.49 3.30345 2.67866 0
M  V30 9710 N 991.805 -0.723954 1.39988 0
M  V30 9711 C 993.03 -1.5182 1.41299 0
M  V30 9712 C 993.455 -1.88096 0.0122636 0
M  V30 9713 O 992.813 -1.52687 -0.977559 0
M  V30 9714 C 992.861 -2.77532 2.30235 0
M  V30 9715 O 991.965 -3.73903 1.73984 0
M  V30 9716 H 991.306 -0.458058 0.480707 0
M  V30 9717 H 993.836 -0.892291 1.84118 0
M  V30 9718 H 993.846 -3.2615 2.45132 0
M  V30 9719 H 992.521 -2.50462 3.32026 0
M  V30 9720 H 991.098 -3.32715 1.68389 0
M  V30 9721 N 993.283 -1.25346 -0.955304 0
M  V30 9722 C 994.246 -1.05754 -2.03344 0
M  V30 9723 C 995.246 -0.0105743 -1.60797 0
M  V30 9724 O 996.436 -0.252699 -1.72357 0
M  V30 9725 C 993.568 -0.605536 -3.35479 0
M  V30 9726 H 994.761 -2.01459 -2.22158 0
M  V30 9727 H 992.314 -1.07744 -1.1323 0
M  V30 9728 H 993.049 0.354154 -3.2236 0
M  V30 9729 H 992.834 -1.36134 -3.67709 0
M  V30 9730 H 994.324 -0.489867 -4.14717 0
M  V30 9731 N 994.761 1.15782 -1.06922 0
M  V30 9732 C 995.711 2.18373 -0.655537 0
M  V30 9733 C 996.695 1.57745 0.317084 0
M  V30 9734 O 997.887 1.76511 0.131509 0
M  V30 9735 C 995.016 3.43263 -0.0502314 0
M  V30 9736 C 994.102 4.10954 -1.04773 0
M  V30 9737 N 994.493 4.542 -2.22567 0
M  V30 9738 C 992.791 4.3723 -0.880087 0
M  V30 9739 C 993.492 5.06641 -2.85815 0
M  V30 9740 N 992.468 4.99917 -2.13505 0
M  V30 9741 H 996.27 2.49533 -1.55276 0
M  V30 9742 H 993.784 1.32303 -0.941793 0
M  V30 9743 H 995.781 4.16063 0.264003 0
M  V30 9744 H 994.441 3.13588 0.842167 0
M  V30 9745 H 995.452 4.47727 -2.60309 0
M  V30 9746 H 992.129 4.17481 -0.0402148 0
M  V30 9747 H 993.519 5.50092 -3.85808 0
M  V30 9748 N 996.239 0.8527 1.3254 0
M  V30 9749 C 997.65 0.510012 1.79599 0
M  V30 9750 C 998.001 -0.972002 1.70431 0
M  V30 9751 O 997.126 -1.7581 1.26173 0
M  V30 9752 C 997.721 0.918986 3.26098 0
M  V30 9753 C 996.28 0.628227 3.7112 0
M  V30 9754 C 995.427 1.11979 2.53685 0
M  V30 9755 H 998.378 1.04009 1.19866 0
M  V30 9756 H 998.399 0.234577 3.79776 0
M  V30 9757 H 997.911 1.99765 3.32739 0
M  V30 9758 H 996.012 -0.4398 3.69995 0
M  V30 9759 H 996.125 1.19315 4.64005 0
M  V30 9760 H 994.489 0.540133 2.48907 0
M  V30 9761 H 995.272 2.20552 2.63081 0
M  V30 9762 N 997.718 -1.45297 0.610449 0
M  V30 9763 C 998.946 -2.0659 0.113211 0
M  V30 9764 C 999.361 -1.4546 -1.20361 0
M  V30 9765 O 998.718 -0.569823 -1.73376 0
M  V30 9766 C 998.769 -3.61488 -0.0298411 0
M  V30 9767 O 998.49 -4.20336 1.23488 0
M  V30 9768 C 999.991 -4.39772 -0.558202 0
M  V30 9769 H 997.211 -0.667322 0.0701555 0
M  V30 9770 H 999.755 -1.86497 0.838993 0
M  V30 9771 H 997.91 -3.80913 -0.705963 0
M  V30 9772 H 998.324 -5.13545 1.0664 0
M  V30 9773 H 999.798 -5.48648 -0.607375 0
M  V30 9774 H 1000.27 -4.09755 -1.58107 0
M  V30 9775 H 1000.88 -4.25217 0.0839704 0
M  V30 9776 N 999.196 -0.349774 -1.5367 0
M  V30 9777 C 1000.44 0.244343 -2.00617 0
M  V30 9778 C 1000.76 1.50567 -1.23914 0
M  V30 9779 O 1000.03 1.92784 -0.348016 0
M  V30 9780 H 998.615 0.0932792 -0.741153 0
M  V30 9781 H 1001.28 -0.472367 -1.89089 0
M  V30 9782 H 1000.37 0.482433 -3.08349 0
M  V30 9783 N 1000.67 1.57404 -0.0785433 0
M  V30 9784 C 1001.92 1.93361 0.58786 0
M  V30 9785 C 1002.24 0.959856 1.6974 0
M  V30 9786 O 1001.51 0.0091173 1.95898 0
M  V30 9787 H 1000.09 0.713825 0.220141 0
M  V30 9788 H 1002.75 1.94411 -0.137986 0
M  V30 9789 H 1001.85 2.95346 1.00881 0
M  V30 9790 N 1002.15 -0.195058 1.56388 0
M  V30 9791 C 1003.06 -1.26219 1.97752 0
M  V30 9792 C 1004.08 -1.49801 0.885192 0
M  V30 9793 O 1005.25 -1.62415 1.19094 0
M  V30 9794 C 1002.32 -2.5865 2.3087 0
M  V30 9795 C 1001.38 -2.4314 3.5381 0
M  V30 9796 C 1000.61 -3.69255 3.85339 0
M  V30 9797 O 1000.84 -4.73425 3.18159 0
M  V30 9798 O 999.77 -3.64782 4.78767 0
M  V30 9799 H 1003.6 -0.941161 2.88749 0
M  V30 9800 H 1001.18 -0.40006 1.43944 0
M  V30 9801 H 1003.06 -3.36814 2.53247 0
M  V30 9802 H 1001.74 -2.9038 1.43042 0
M  V30 9803 H 1000.64 -1.63086 3.3668 0
M  V30 9804 H 1001.98 -2.16341 4.42105 0
M  V30 9805 N 1003.63 -1.50653 -0.462772 0
M  V30 9806 C 1004.58 -1.70661 -1.58043 0
M  V30 9807 C 1005.57 -0.572533 -1.59432 0
M  V30 9808 O 1006.78 -0.753257 -1.63481 0
M  V30 9809 H 1003.15 -0.538805 -0.524588 0
M  V30 9810 H 1005.12 -2.64399 -1.38332 0
M  V30 9811 C 1003.87 -1.82558 -2.95919 0
M  V30 9812 H 1003.2 -2.69216 -2.95572 0
M  V30 9813 H 1004.64 -2.0058 -3.73556 0
M  V30 9814 C 1003.09 -0.57916 -3.31885 0
M  V30 9815 O 1003.62 0.277888 -4.00738 0
M  V30 9816 N 1001.83 -0.430723 -2.8739 0
M  V30 9817 H 1001.38 -1.1292 -2.31531 0
M  V30 9818 H 1001.34 0.402061 -3.11819 0
M  V30 9819 N 1005.11 0.71652 -1.4037 0
M  V30 9820 C 1006.36 1.47193 -1.37903 0
M  V30 9821 C 1006.67 1.95593 0.0159939 0
M  V30 9822 O 1007.88 2.71009 0.163282 0
M  V30 9823 C 1006.33 2.6606 -2.42363 0
M  V30 9824 C 1005.94 2.24533 -3.87671 0
M  V30 9825 C 1007.68 3.438 -2.49001 0
M  V30 9826 C 1005.59 3.40234 -4.8373 0
M  V30 9827 H 1004.52 0.552811 -0.512753 0
M  V30 9828 H 1007.17 0.779894 -1.66102 0
M  V30 9829 H 1005.55 3.37429 -2.07262 0
M  V30 9830 H 1006.73 1.6059 -4.31911 0
M  V30 9831 H 1005.04 1.59839 -3.845 0
M  V30 9832 H 1007.64 4.29893 -3.17956 0
M  V30 9833 H 1007.98 3.8755 -1.52023 0
M  V30 9834 H 1008.52 2.79474 -2.83088 0
M  V30 9835 H 1005.26 3.01517 -5.82037 0
M  V30 9836 H 1004.78 4.03095 -4.44156 0
M  V30 9837 H 1006.45 4.06312 -5.03507 0
M  V30 9838 N 1006.59 1.25851 0.948643 0
M  V30 9839 C 1007.81 1.13711 1.72851 0
M  V30 9840 C 1008.23 -0.308471 1.86263 0
M  V30 9841 O 1007.59 -1.21175 1.36465 0
M  V30 9842 C 1007.64 1.79271 3.13918 0
M  V30 9843 O 1007.36 3.18179 3.01154 0
M  V30 9844 C 1008.86 1.72988 4.08154 0
M  V30 9845 H 1006.08 0.396334 0.541443 0
M  V30 9846 H 1008.62 1.66329 1.18974 0
M  V30 9847 H 1006.78 1.30609 3.64719 0
M  V30 9848 H 1007.19 3.50507 3.90186 0
M  V30 9849 H 1008.67 2.2351 5.04725 0
M  V30 9850 H 1009.14 0.694866 4.33668 0
M  V30 9851 H 1009.75 2.21166 3.63271 0
M  V30 9852 N 1008.06 -1.15214 1.07534 0
M  V30 9853 C 1009 -2.19634 0.655261 0
M  V30 9854 C 1010.01 -1.60139 -0.293165 0
M  V30 9855 O 1011.2 -1.78311 -0.0821957 0
M  V30 9856 C 1008.3 -3.38851 -0.0578281 0
M  V30 9857 C 1007.47 -4.27888 0.90725 0
M  V30 9858 C 1006.53 -5.25692 0.231115 0
M  V30 9859 O 1005.56 -5.62469 0.872746 0
M  V30 9860 N 1006.76 -5.71424 -1.0225 0
M  V30 9861 H 1009.52 -2.56292 1.55353 0
M  V30 9862 H 1007.08 -1.30347 0.960271 0
M  V30 9863 H 1009.08 -4.01334 -0.520874 0
M  V30 9864 H 1007.65 -3.00593 -0.858071 0
M  V30 9865 H 1006.87 -3.62475 1.54937 0
M  V30 9866 H 1008.15 -4.84246 1.56151 0
M  V30 9867 H 1007.55 -5.43659 -1.56369 0
M  V30 9868 H 1006.11 -6.35938 -1.42919 0
M  V30 9869 N 1009.54 -0.859717 -1.32086 0
M  V30 9870 C 1010.79 -0.466271 -1.97367 0
M  V30 9871 C 1011.12 0.976728 -1.6785 0
M  V30 9872 O 1010.4 1.68618 -0.969449 0
M  V30 9873 C 1010.68 -0.711851 -3.52994 0
M  V30 9874 C 1010.53 -2.20364 -3.92122 0
M  V30 9875 C 1011.85 -0.17156 -4.39765 0
M  V30 9876 H 1008.97 -0.170883 -0.716916 0
M  V30 9877 H 1011.61 -1.07907 -1.56384 0
M  V30 9878 H 1009.76 -0.190258 -3.88034 0
M  V30 9879 H 1011.43 -2.7917 -3.67236 0
M  V30 9880 H 1009.68 -2.68019 -3.41099 0
M  V30 9881 H 1010.35 -2.32615 -5.00594 0
M  V30 9882 H 1012.82 -0.617665 -4.1149 0
M  V30 9883 H 1011.7 -0.372921 -5.47632 0
M  V30 9884 H 1011.96 0.925959 -4.32294 0
M  V30 9885 N 1011.02 1.44971 -0.618145 0
M  V30 9886 C 1012.25 2.06527 -0.124165 0
M  V30 9887 C 1012.66 1.46097 1.19588 0
M  V30 9888 O 1012.02 0.57901 1.73071 0
M  V30 9889 C 1012.07 3.61498 0.0106701 0
M  V30 9890 O 1011.79 4.19675 -1.25716 0
M  V30 9891 C 1013.29 4.40061 0.534872 0
M  V30 9892 H 1010.51 0.666941 -0.0736935 0
M  V30 9893 H 1013.06 1.8605 -0.848871 0
M  V30 9894 H 1011.21 3.81282 0.685752 0
M  V30 9895 H 1011.63 5.12972 -1.09362 0
M  V30 9896 H 1013.1 5.48963 0.57827 0
M  V30 9897 H 1013.58 4.10587 1.55931 0
M  V30 9898 H 1014.18 4.25167 -0.10652 0
M  V30 9899 N 1012.5 0.357919 1.53482 0
M  V30 9900 C 1013.91 -0.122938 1.86295 0
M  V30 9901 C 1014.26 -1.48803 1.27875 0
M  V30 9902 O 1013.39 -2.07978 0.597828 0
M  V30 9903 C 1013.98 -0.229853 3.38019 0
M  V30 9904 C 1012.54 -0.654955 3.70658 0
M  V30 9905 C 1011.69 0.202539 2.76559 0
M  V30 9906 H 1014.64 0.576997 1.47839 0
M  V30 9907 H 1014.66 -1.05481 3.65587 0
M  V30 9908 H 1014.17 0.763825 3.80509 0
M  V30 9909 H 1012.27 -1.65714 3.33721 0
M  V30 9910 H 1012.38 -0.43488 4.77122 0
M  V30 9911 H 1010.75 -0.327388 2.52587 0
M  V30 9912 H 1011.53 1.19361 3.21882 0
M  V30 9913 N 1013.98 -1.5736 0.0868897 0
M  V30 9914 C 1014.94 -2.12436 -0.860439 0
M  V30 9915 C 1015.94 -1.05175 -1.21634 0
M  V30 9916 O 1017.13 -1.31098 -1.14713 0
M  V30 9917 C 1014.26 -2.63818 -2.159 0
M  V30 9918 H 1015.45 -2.97453 -0.382346 0
M  V30 9919 H 1013.01 -1.55458 -0.162009 0
M  V30 9920 H 1013.74 -1.82298 -2.68212 0
M  V30 9921 H 1013.53 -3.42234 -1.91359 0
M  V30 9922 H 1015.02 -3.06452 -2.83685 0
M  V30 9923 N 1015.45 0.186762 -1.56489 0
M  V30 9924 C 1016.68 0.925916 -1.85584 0
M  V30 9925 C 1017.1 1.75708 -0.671446 0
M  V30 9926 O 1016.46 1.7728 0.379687 0
M  V30 9927 C 1016.51 1.79107 -3.12975 0
M  V30 9928 O 1015.61 2.89088 -2.94112 0
M  V30 9929 H 1014.96 0.260275 -0.610863 0
M  V30 9930 H 1017.49 0.189561 -2.0372 0
M  V30 9931 H 1017.5 2.19408 -3.43983 0
M  V30 9932 H 1016.17 1.18044 -3.98796 0
M  V30 9933 H 1014.75 2.52482 -2.74422 0
M  V30 9934 N 1016.93 1.50896 0.454776 0
M  V30 9935 C 1018.16 1.6648 1.22849 0
M  V30 9936 C 1018.58 0.354841 1.85435 0
M  V30 9937 O 1017.93 -0.664931 1.69956 0
M  V30 9938 C 1017.98 2.76787 2.32532 0
M  V30 9939 O 1017.7 4.02706 1.72509 0
M  V30 9940 C 1019.21 3.03488 3.23125 0
M  V30 9941 H 1016.43 0.559152 0.370932 0
M  V30 9942 H 1018.97 1.97215 0.540983 0
M  V30 9943 H 1017.12 2.48701 2.9703 0
M  V30 9944 H 1017.54 4.63834 2.44863 0
M  V30 9945 H 1019.01 3.84294 3.9626 0
M  V30 9946 H 1019.49 2.152 3.82865 0
M  V30 9947 H 1020.1 3.33167 2.64347 0
M  V30 9948 N 1018.41 -0.709066 1.40748 0
M  V30 9949 C 1019.64 -1.50313 1.42901 0
M  V30 9950 C 1020.06 -1.88072 0.032213 0
M  V30 9951 O 1019.42 -1.53716 -0.96131 0
M  V30 9952 C 1019.47 -2.75074 2.33166 0
M  V30 9953 O 1018.57 -3.72036 1.7794 0
M  V30 9954 H 1017.91 -0.452934 0.485538 0
M  V30 9955 H 1020.44 -0.872712 1.85054 0
M  V30 9956 H 1020.45 -3.23532 2.48578 0
M  V30 9957 H 1019.13 -2.46927 3.34664 0
M  V30 9958 H 1017.7 -3.30911 1.71908 0
M  V30 9959 N 1019.89 -1.26353 -0.941956 0
M  V30 9960 C 1021.12 -1.14626 -1.72245 0
M  V30 9961 C 1021.53 0.298588 -1.86424 0
M  V30 9962 O 1020.89 1.2045 -1.37106 0
M  V30 9963 C 1020.94 -1.80933 -3.12963 0
M  V30 9964 O 1020.66 -3.19771 -2.99463 0
M  V30 9965 C 1022.16 -1.7515 -4.07231 0
M  V30 9966 H 1019.38 -0.3992 -0.539333 0
M  V30 9967 H 1021.93 -1.66958 -1.1809 0
M  V30 9968 H 1020.08 -1.32541 -3.64021 0
M  V30 9969 H 1020.5 -3.52571 -3.88322 0
M  V30 9970 H 1021.97 -2.26183 -5.03533 0
M  V30 9971 H 1022.45 -0.717855 -4.33294 0
M  V30 9972 H 1023.05 -2.2309 -3.62093 0
M  V30 9973 N 1021.37 1.14642 -1.08144 0
M  V30 9974 C 1022.32 2.17665 -0.678661 0
M  V30 9975 C 1023.3 1.58072 0.300336 0
M  V30 9976 O 1024.49 1.7664 0.112781 0
M  V30 9977 C 1021.62 3.43191 -0.0866362 0
M  V30 9978 C 1020.71 4.0982 -1.09126 0
M  V30 9979 N 1021.1 4.51814 -2.27372 0
M  V30 9980 C 1019.4 4.36272 -0.926411 0
M  V30 9981 C 1020.1 5.03581 -2.91172 0
M  V30 9982 N 1019.07 4.97624 -2.18795 0
M  V30 9983 H 1022.88 2.47872 -1.57914 0
M  V30 9984 H 1020.39 1.31296 -0.955772 0
M  V30 9985 H 1022.39 4.1632 0.219859 0
M  V30 9986 H 1021.05 3.14464 0.80886 0
M  V30 9987 H 1022.06 4.44941 -2.65044 0
M  V30 9988 H 1018.74 4.17414 -0.084492 0
M  V30 9989 H 1020.13 5.45969 -3.91621 0
M  V30 9990 N 1022.85 0.866709 1.31628 0
M  V30 9991 C 1023.8 0.291712 2.26126 0
M  V30 9992 C 1024.78 -0.569375 1.50489 0
M  V30 9993 O 1025.97 -0.416786 1.72023 0
M  V30 9994 C 1023.1 -0.508624 3.39511 0
M  V30 9995 C 1022.19 0.365524 4.22522 0
M  V30 9996 N 1022.58 1.45747 4.84346 0
M  V30 9997 C 1020.88 0.157384 4.45722 0
M  V30 9998 C 1021.58 1.99625 5.46374 0
M  V30 9999 N 1020.55 1.29371 5.27981 0
M  V30 10000 H 1024.35 1.12633 2.71461 0
M  V30 10001 H 1021.87 0.714118 1.45857 0
M  V30 10002 H 1023.87 -0.937057 4.06233 0
M  V30 10003 H 1022.53 -1.34089 2.9572 0
M  V30 10004 H 1023.54 1.84039 4.84097 0
M  V30 10005 H 1020.21 -0.639193 4.12578 0
M  V30 10006 H 1021.6 2.91222 6.05508 0
M  V30 10007 N 1024.32 -1.44642 0.625825 0
M  V30 10008 C 1025.57 -2.02393 0.128391 0
M  V30 10009 C 1025.9 -1.49075 -1.2446 0
M  V30 10010 O 1025.18 -0.672684 -1.82497 0
M  V30 10011 C 1025.46 -3.59934 0.109279 0
M  V30 10012 C 1025.31 -4.23546 1.51423 0
M  V30 10013 C 1026.63 -4.36406 -0.568985 0
M  V30 10014 H 1023.75 -0.735427 0.0481299 0
M  V30 10015 H 1026.39 -1.72277 0.801286 0
M  V30 10016 H 1024.54 -3.85722 -0.463726 0
M  V30 10017 H 1026.22 -4.08882 2.13572 0
M  V30 10018 H 1024.46 -3.81245 2.06966 0
M  V30 10019 H 1025.13 -5.32535 1.45294 0
M  V30 10020 H 1027.61 -4.1602 -0.0817516 0
M  V30 10021 H 1026.48 -5.46122 -0.551527 0
M  V30 10022 H 1026.74 -4.1062 -1.6384 0
M  V30 10023 N 1025.8 -0.366053 -1.5329 0
M  V30 10024 C 1027.03 0.226839 -2.06156 0
M  V30 10025 C 1027.45 1.41637 -1.23776 0
M  V30 10026 O 1026.81 1.7947 -0.256948 0
M  V30 10027 C 1026.86 0.597956 -3.55608 0
M  V30 10028 O 1025.96 1.69512 -3.75951 0
M  V30 10029 H 1025.3 0.0329156 -0.663184 0
M  V30 10030 H 1027.83 -0.526793 -1.97702 0
M  V30 10031 H 1027.84 0.868831 -3.98642 0
M  V30 10032 H 1026.52 -0.271838 -4.15011 0
M  V30 10033 H 1025.09 1.41976 -3.44815 0
M  V30 10034 N 1027.28 1.57312 -0.0952337 0
M  V30 10035 C 1028.51 1.98697 0.57682 0
M  V30 10036 C 1028.92 0.974347 1.61716 0
M  V30 10037 O 1028.28 -0.036022 1.82464 0
M  V30 10038 C 1028.33 3.40133 1.2244 0
M  V30 10039 O 1028.05 4.37518 0.225678 0
M  V30 10040 C 1029.55 3.96522 1.98205 0
M  V30 10041 H 1026.77 0.65294 0.154629 0
M  V30 10042 H 1029.32 2.03754 -0.174562 0
M  V30 10043 H 1027.47 3.3609 1.92671 0
M  V30 10044 H 1027.89 5.199 0.693116 0
M  V30 10045 H 1029.36 4.97637 2.38875 0
M  V30 10046 H 1029.84 3.34347 2.84796 0
M  V30 10047 H 1030.44 4.04038 1.3279 0
M  V30 10048 N 1028.76 -0.17846 1.56586 0
M  V30 10049 C 1029.98 -0.916061 1.86073 0
M  V30 10050 C 1030.41 -1.75349 0.680754 0
M  V30 10051 O 1029.77 -1.77479 -0.37028 0
M  V30 10052 C 1029.81 -1.77445 3.1392 0
M  V30 10053 O 1028.92 -2.87524 2.95641 0
M  V30 10054 H 1028.26 -0.257031 0.612234 0
M  V30 10055 H 1030.79 -0.178755 2.03818 0
M  V30 10056 H 1030.8 -2.1758 3.45142 0
M  V30 10057 H 1029.47 -1.15927 3.99417 0
M  V30 10058 H 1028.05 -2.51023 2.75757 0
M  V30 10059 N 1030.24 -1.51135 -0.446768 0
M  V30 10060 C 1031.46 -1.67411 -1.22427 0
M  V30 10061 C 1031.89 -0.367009 -1.84485 0
M  V30 10062 O 1031.24 0.67185 -1.68392 0
M  V30 10063 C 1031.29 -2.78473 -2.29096 0
M  V30 10064 O 1030.4 -2.41419 -3.34351 0
M  V30 10065 H 1029.74 -0.558512 -0.359111 0
M  V30 10066 H 1032.27 -1.97648 -0.5288 0
M  V30 10067 H 1032.28 -3.02277 -2.7403 0
M  V30 10068 H 1030.95 -3.73326 -1.83304 0
M  V30 10069 H 1029.53 -2.28152 -2.9496 0
M  V30 10070 N 1031.71 0.701592 -1.41122 0
M  V30 10071 C 1033.12 1.28129 -1.35793 0
M  V30 10072 C 1033.48 1.96163 -0.0381185 0
M  V30 10073 O 1032.6 1.98416 0.863723 0
M  V30 10074 C 1033.2 2.33005 -2.45955 0
M  V30 10075 C 1031.75 2.86566 -2.44043 0
M  V30 10076 C 1030.9 1.60526 -2.26112 0
M  V30 10077 H 1033.85 0.496756 -1.50725 0
M  V30 10078 H 1033.87 3.14163 -2.14667 0
M  V30 10079 H 1033.39 1.8346 -3.42 0
M  V30 10080 H 1031.49 3.40304 -1.51737 0
M  V30 10081 H 1031.6 3.37406 -3.40138 0
M  V30 10082 H 1029.96 1.86113 -1.7388 0
M  V30 10083 H 1030.75 1.12985 -3.24175 0
M  V30 10084 N 1033.19 1.2685 0.935242 0
M  V30 10085 C 1034.15 1.08975 2.01636 0
M  V30 10086 C 1035.15 0.0361543 1.60759 0
M  V30 10087 O 1036.34 0.280087 1.71934 0
M  V30 10088 C 1033.48 0.658831 3.34473 0
M  V30 10089 H 1034.67 2.04968 2.18925 0
M  V30 10090 H 1032.22 1.09531 1.11501 0
M  V30 10091 H 1032.96 -0.302824 3.22883 0
M  V30 10092 H 1032.74 1.41967 3.65497 0
M  V30 10093 H 1034.23 0.555783 4.13885 0
M  V30 10094 N 1034.67 -1.14067 1.0875 0
M  V30 10095 C 1036.08 -1.66747 0.839778 0
M  V30 10096 C 1036.43 -1.85711 -0.632909 0
M  V30 10097 O 1035.56 -1.57084 -1.48841 0
M  V30 10098 C 1036.15 -3.02896 1.51787 0
M  V30 10099 C 1034.71 -3.52596 1.3173 0
M  V30 10100 C 1033.86 -2.27994 1.57841 0
M  V30 10101 H 1036.81 -0.980838 1.24761 0
M  V30 10102 H 1036.83 -3.68526 0.947057 0
M  V30 10103 H 1036.34 -2.89062 2.58969 0
M  V30 10104 H 1034.44 -3.71647 0.266339 0
M  V30 10105 H 1034.56 -4.33151 2.04736 0
M  V30 10106 H 1032.92 -2.34241 1.00015 0
M  V30 10107 H 1033.7 -2.16732 2.66237 0
M  V30 10108 N 1036.15 -0.873678 -1.31166 0
M  V30 10109 C 1037.56 -0.566109 -1.49223 0
M  V30 10110 C 1037.76 0.898889 -1.80339 0
M  V30 10111 O 1036.82 1.68084 -1.88425 0
M  V30 10112 C 1038.13 -1.46952 -2.62346 0
M  V30 10113 C 1039.68 -1.47195 -2.76229 0
M  V30 10114 C 1040.16 -2.36102 -3.92454 0
M  V30 10115 N 1041.65 -2.34003 -3.99746 0
M  V30 10116 C 1042.38 -2.99513 -4.88958 0
M  V30 10117 N 1041.88 -3.74206 -5.83045 0
M  V30 10118 N 1043.67 -2.88802 -4.82234 0
M  V30 10119 H 1035.82 -1.82156 -1.09239 0
M  V30 10120 H 1038.09 -0.779086 -0.54012 0
M  V30 10121 H 1037.79 -2.51213 -2.4614 0
M  V30 10122 H 1037.67 -1.17077 -3.5857 0
M  V30 10123 H 1040.05 -0.436902 -2.91848 0
M  V30 10124 H 1040.13 -1.81095 -1.80661 0
M  V30 10125 H 1039.78 -3.39685 -3.77593 0
M  V30 10126 H 1039.71 -1.99524 -4.87337 0
M  V30 10127 H 1042.2 -1.79713 -3.32433 0
M  V30 10128 H 1042.51 -4.21312 -6.47855 0
M  V30 10129 H 1040.86 -3.78314 -5.83012 0
M  V30 10130 H 1044.05 -2.29984 -4.07707 0
M  V30 10131 H 1044.22 -3.40136 -5.51554 0
M  V30 10132 N 1037.63 1.44308 -0.633487 0
M  V30 10133 C 1039.04 1.85387 -0.221009 0
M  V30 10134 C 1039.39 1.5301 1.22811 0
M  V30 10135 O 1038.51 0.969325 1.93476 0
M  V30 10136 C 1039.11 3.36497 -0.394331 0
M  V30 10137 C 1037.67 3.76382 -0.0363405 0
M  V30 10138 C 1036.81 2.68146 -0.706598 0
M  V30 10139 H 1039.77 1.34741 -0.83849 0
M  V30 10140 H 1039.79 3.78735 0.366026 0
M  V30 10141 H 1039.3 3.60031 -1.44911 0
M  V30 10142 H 1037.4 3.58463 1.01661 0
M  V30 10143 H 1037.51 4.77 -0.448045 0
M  V30 10144 H 1035.88 2.54306 -0.14168 0
M  V30 10145 H 1036.66 2.94512 -1.76401 0
M  V30 10146 N 1039.1 0.374177 1.53094 0
M  V30 10147 C 1040.35 -0.212396 2.00981 0
M  V30 10148 C 1040.67 -1.48576 1.26293 0
M  V30 10149 O 1039.94 -1.92206 0.378642 0
M  V30 10150 H 1038.52 -0.0814763 0.742543 0
M  V30 10151 H 1041.19 0.502389 1.88314 0
M  V30 10152 H 1040.28 -0.433316 3.09077 0
M  V30 10153 N 1040.58 -1.57259 0.103575 0
M  V30 10154 C 1041.81 -1.99 -0.566275 0
M  V30 10155 C 1042.23 -0.982909 -1.61197 0
M  V30 10156 O 1041.58 0.026345 -1.82481 0
M  V30 10157 C 1041.63 -3.40778 -1.20635 0
M  V30 10158 O 1041.35 -4.37632 -0.202472 0
M  V30 10159 C 1042.86 -3.97567 -1.961 0
M  V30 10160 H 1040.08 -0.653751 -0.151164 0
M  V30 10161 H 1042.62 -2.03658 0.185365 0
M  V30 10162 H 1040.77 -3.37107 -1.90886 0
M  V30 10163 H 1041.19 -5.2026 -0.665535 0
M  V30 10164 H 1042.66 -4.98897 -2.36233 0
M  V30 10165 H 1043.14 -3.35853 -2.83018 0
M  V30 10166 H 1043.75 -4.04737 -1.30645 0
M  V30 10167 N 1042.06 0.170153 -1.56679 0
M  V30 10168 C 1043.29 0.902134 -1.86197 0
M  V30 10169 C 1043.7 1.75775 -0.689098 0
M  V30 10170 O 1043.06 1.79271 0.341763 0
M  V30 10171 C 1043.11 1.77792 -3.14757 0
M  V30 10172 O 1042.83 0.956817 -4.27524 0
M  V30 10173 C 1044.33 2.61947 -3.57629 0
M  V30 10174 H 1041.55 0.262026 -0.617724 0
M  V30 10175 H 1044.1 0.169899 -2.03793 0
M  V30 10176 H 1042.25 2.46348 -2.98984 0
M  V30 10177 H 1042.67 1.5559 -5.00891 0
M  V30 10178 H 1044.14 3.19011 -4.50484 0
M  V30 10179 H 1044.62 3.36873 -2.81803 0
M  V30 10180 H 1045.22 1.98721 -3.76019 0
M  V30 10181 N 1043.54 1.5137 0.438746 0
M  V30 10182 C 1044.76 1.68058 1.21537 0
M  V30 10183 C 1045.19 0.376787 1.84288 0
M  V30 10184 O 1044.55 -0.662911 1.68746 0
M  V30 10185 C 1044.59 2.79684 2.27616 0
M  V30 10186 O 1043.7 2.43189 3.33066 0
M  V30 10187 H 1043.04 0.560408 0.356144 0
M  V30 10188 H 1045.57 1.97926 0.518311 0
M  V30 10189 H 1045.58 3.03726 2.72423 0
M  V30 10190 H 1044.25 3.74293 1.81321 0
M  V30 10191 H 1042.83 2.29713 2.93746 0
M  V30 10192 N 1045.02 -0.694098 1.41492 0
M  V30 10193 C 1045.95 -1.81943 1.39389 0
M  V30 10194 C 1046.96 -1.6009 0.295836 0
M  V30 10195 O 1048.15 -1.69565 0.557658 0
M  V30 10196 C 1045.25 -3.18731 1.15167 0
M  V30 10197 C 1044.42 -3.67601 2.37041 0
M  V30 10198 C 1043.48 -4.83063 2.08654 0
M  V30 10199 O 1042.51 -4.94603 2.81704 0
M  V30 10200 N 1043.71 -5.70409 1.0777 0
M  V30 10201 H 1046.48 -1.84239 2.36381 0
M  V30 10202 H 1044.04 -0.876475 1.36123 0
M  V30 10203 H 1046.03 -3.93602 0.941264 0
M  V30 10204 H 1044.6 -3.11452 0.267673 0
M  V30 10205 H 1043.82 -2.83622 2.73774 0
M  V30 10206 H 1045.11 -3.96991 3.18239 0
M  V30 10207 H 1044.5 -5.63718 0.473123 0
M  V30 10208 H 1043.06 -6.45172 0.927177 0
M  V30 10209 N 1046.49 -1.27344 -0.928501 0
M  V30 10210 C 1047.46 -1.10043 -2.01055 0
M  V30 10211 C 1048.46 -0.0446793 -1.60738 0
M  V30 10212 O 1049.65 -0.289202 -1.71783 0
M  V30 10213 C 1046.78 -0.676559 -3.34119 0
M  V30 10214 H 1047.97 -2.06126 -2.17835 0
M  V30 10215 H 1045.53 -1.10121 -1.10919 0
M  V30 10216 H 1046.26 0.285697 -3.23039 0
M  V30 10217 H 1046.05 -1.43903 -3.64739 0
M  V30 10218 H 1047.54 -0.577725 -4.13584 0
M  V30 10219 N 1047.97 1.13488 -1.09353 0
M  V30 10220 C 1049.2 1.89133 -0.85108 0
M  V30 10221 C 1049.62 1.78542 0.591976 0
M  V30 10222 O 1048.98 1.13243 1.41583 0
M  V30 10223 C 1049.03 3.36736 -1.29001 0
M  V30 10224 O 1048.13 4.09959 -0.447993 0
M  V30 10225 H 1047.47 0.58809 -0.308296 0
M  V30 10226 H 1050 1.43593 -1.45747 0
M  V30 10227 H 1050.01 3.87564 -1.27508 0
M  V30 10228 H 1048.69 3.43762 -2.34095 0
M  V30 10229 H 1047.27 3.69155 -0.52717 0
M  V30 10230 N 1049.45 0.880621 1.30701 0
M  V30 10231 C 1050.7 0.495894 1.95922 0
M  V30 10232 C 1051.02 -0.957214 1.69889 0
M  V30 10233 O 1050.29 -1.67245 1.0201 0
M  V30 10234 H 1048.87 0.180394 0.724891 0
M  V30 10235 H 1051.53 1.12274 1.59313 0
M  V30 10236 H 1050.63 0.662508 3.04987 0
M  V30 10237 N 1050.93 -1.4397 0.641131 0
M  V30 10238 C 1052.34 -1.85267 0.230838 0
M  V30 10239 C 1052.69 -1.53659 -1.21998 0
M  V30 10240 O 1051.82 -0.979572 -1.92959 0
M  V30 10241 C 1052.41 -3.36284 0.412171 0
M  V30 10242 C 1050.97 -3.76358 0.0563004 0
M  V30 10243 C 1050.12 -2.67768 0.720809 0
M  V30 10244 H 1053.07 -1.34294 0.845624 0
M  V30 10245 H 1053.09 -3.78924 -0.345936 0
M  V30 10246 H 1052.6 -3.59258 1.46818 0
M  V30 10247 H 1050.7 -3.58997 -0.997582 0
M  V30 10248 H 1050.82 -4.76756 0.473335 0
M  V30 10249 H 1049.18 -2.54227 0.155164 0
M  V30 10250 H 1049.96 -2.93573 1.77961 0
M  V30 10251 N 1052.41 -0.382291 -1.52893 0
M  V30 10252 C 1053.66 0.201734 -2.01091 0
M  V30 10253 C 1053.98 1.47905 -1.2708 0
M  V30 10254 O 1053.25 1.92002 -0.38883 0
M  V30 10255 H 1051.83 0.0775373 -0.742965 0
M  V30 10256 H 1054.49 -0.512369 -1.88045 0
M  V30 10257 H 1053.58 0.416919 -3.09303 0
M  V30 10258 N 1053.89 1.57202 -0.111913 0
M  V30 10259 C 1054.83 2.16186 0.858286 0
M  V30 10260 C 1055.83 1.10917 1.28039 0
M  V30 10261 O 1057.03 1.29233 1.25295 0
M  V30 10262 H 1053.41 0.691777 0.29487 0
M  V30 10263 H 1055.38 2.96499 0.336265 0
M  V30 10264 C 1054.13 2.77024 2.10127 0
M  V30 10265 H 1053.45 3.5772 1.78539 0
M  V30 10266 H 1054.89 3.21841 2.76033 0
M  V30 10267 C 1053.35 1.73752 2.88638 0
M  V30 10268 O 1053.88 1.18659 3.83774 0
M  V30 10269 N 1052.09 1.43855 2.52496 0
M  V30 10270 H 1051.63 1.88846 1.75199 0
M  V30 10271 H 1051.59 0.749985 3.05324 0
M  V30 10272 N 1055.36 -0.161842 1.56767 0
M  V30 10273 C 1056.59 -0.896274 1.87034 0
M  V30 10274 C 1057.01 -1.74617 0.699314 0
M  V30 10275 O 1056.37 -1.77861 -0.351435 0
M  V30 10276 C 1056.42 -1.74105 3.15784 0
M  V30 10277 O 1055.52 -2.84372 2.98674 0
M  V30 10278 H 1054.86 -0.250523 0.614926 0
M  V30 10279 H 1057.39 -0.157127 2.03996 0
M  V30 10280 H 1057.4 -2.13907 3.4743 0
M  V30 10281 H 1056.08 -1.11684 4.00624 0
M  V30 10282 H 1054.66 -2.48084 2.78404 0
M  V30 10283 N 1056.84 -1.516 -0.430713 0
M  V30 10284 C 1058.07 -1.687 -1.20644 0
M  V30 10285 C 1058.49 -0.386555 -1.84085 0
M  V30 10286 O 1057.85 0.653952 -1.69095 0
M  V30 10287 C 1057.9 -2.80887 -2.2613 0
M  V30 10288 O 1057 -2.44952 -3.31772 0
M  V30 10289 H 1056.34 -0.562289 -0.353167 0
M  V30 10290 H 1058.87 -1.98198 -0.507807 0
M  V30 10291 H 1058.88 -3.05167 -2.70809 0
M  V30 10292 H 1057.56 -3.75249 -1.79334 0
M  V30 10293 H 1056.13 -2.31267 -2.92523 0
M  V30 10294 N 1058.32 0.686584 -1.41858 0
M  V30 10295 C 1059.55 1.47519 -1.45072 0
M  V30 10296 C 1059.96 1.88709 -0.0585868 0
M  V30 10297 O 1059.32 1.57373 0.924116 0
M  V30 10298 C 1059.37 2.73195 -2.36742 0
M  V30 10299 O 1059.09 2.33736 -3.70539 0
M  V30 10300 C 1060.59 3.66861 -2.48854 0
M  V30 10301 H 1057.81 0.454307 -0.493808 0
M  V30 10302 H 1060.36 0.844612 -1.86243 0
M  V30 10303 H 1058.51 3.32468 -1.98856 0
M  V30 10304 H 1058.93 3.14809 -4.19518 0
M  V30 10305 H 1060.4 4.51801 -3.17143 0
M  V30 10306 H 1060.88 4.11961 -1.52265 0
M  V30 10307 H 1061.48 3.13486 -2.87414 0
M  V30 10308 N 1059.8 1.27835 0.921735 0
M  V30 10309 C 1061.02 1.17465 1.70929 0
M  V30 10310 C 1061.45 -0.264171 1.86236 0
M  V30 10311 O 1060.81 -1.19124 1.36671 0
M  V30 10312 C 1060.85 1.8697 3.08342 0
M  V30 10313 O 1059.96 1.17173 3.95404 0
M  V30 10314 H 1059.3 0.408206 0.523702 0
M  V30 10315 H 1061.83 1.69013 1.15307 0
M  V30 10316 H 1061.84 1.94564 3.58621 0
M  V30 10317 H 1060.51 2.91633 2.96518 0
M  V30 10318 H 1059.09 1.17688 3.53842 0
M  V30 10319 N 1061.28 -1.12907 1.09954 0
M  V30 10320 C 1062.5 -1.88138 0.860905 0
M  V30 10321 C 1062.92 -1.79402 -0.588256 0
M  V30 10322 O 1062.28 -1.16442 -1.40526 0
M  V30 10323 C 1062.33 -3.37537 1.29425 0
M  V30 10324 O 1062.05 -3.46056 2.68658 0
M  V30 10325 C 1063.55 -4.29721 1.08879 0
M  V30 10326 H 1060.77 -0.595437 0.309347 0
M  V30 10327 H 1063.31 -1.42894 1.46292 0
M  V30 10328 H 1061.47 -3.80344 0.736009 0
M  V30 10329 H 1061.88 -4.38969 2.87065 0
M  V30 10330 H 1063.36 -5.32854 1.4412 0
M  V30 10331 H 1063.83 -4.39192 0.0270053 0
M  V30 10332 H 1064.44 -3.9269 1.63325 0
M  V30 10333 N 1062.75 -0.88754 -1.30232 0
M  V30 10334 C 1063.7 -0.354497 -2.28061 0
M  V30 10335 C 1064.67 0.556732 -1.56492 0
M  V30 10336 O 1065.86 0.484597 -1.84543 0
M  V30 10337 C 1063 0.422701 -3.42501 0
M  V30 10338 C 1062.11 -0.518036 -4.28883 0
M  V30 10339 C 1061.24 0.275011 -5.30488 0
M  V30 10340 C 1060.28 -0.661032 -6.0852 0
M  V30 10341 N 1059.42 0.0968509 -7.02033 0
M  V30 10342 H 1064.26 -1.19388 -2.73039 0
M  V30 10343 H 1061.8 -0.600091 -1.34303 0
M  V30 10344 H 1063.75 0.889249 -4.07613 0
M  V30 10345 H 1062.38 1.22664 -2.98586 0
M  V30 10346 H 1061.44 -1.10308 -3.64055 0
M  V30 10347 H 1062.75 -1.23504 -4.83268 0
M  V30 10348 H 1061.9 0.803301 -6.01358 0
M  V30 10349 H 1060.64 1.02522 -4.76802 0
M  V30 10350 H 1059.65 -1.20093 -5.36524 0
M  V30 10351 H 1060.87 -1.41037 -6.64293 0
M  V30 10352 H 1058.82 0.829548 -6.50734 0
M  V30 10353 H 1058.73 -0.560476 -7.5392 0
M  V30 10354 H 1060 0.6058 -7.77142 0
M  V30 10355 N 1064.23 1.43628 -0.648757 0
M  V30 10356 C 1065.64 1.85142 -0.24066 0
M  V30 10357 C 1065.99 1.54304 1.21181 0
M  V30 10358 O 1065.12 0.989792 1.92437 0
M  V30 10359 C 1065.71 3.3606 -0.429999 0
M  V30 10360 C 1064.27 3.76323 -0.0762588 0
M  V30 10361 C 1063.42 2.67382 -0.734999 0
M  V30 10362 H 1066.37 1.33844 -0.852734 0
M  V30 10363 H 1066.39 3.79102 0.325836 0
M  V30 10364 H 1065.9 3.58474 -1.48721 0
M  V30 10365 H 1064.01 3.59521 0.978529 0
M  V30 10366 H 1064.12 4.76498 -0.498612 0
M  V30 10367 H 1062.48 2.54141 -0.168644 0
M  V30 10368 H 1063.27 2.92625 -1.79515 0
M  V30 10369 N 1065.71 0.390394 1.52688 0
M  V30 10370 C 1066.96 -0.191067 2.01195 0
M  V30 10371 C 1067.28 -1.47229 1.27862 0
M  V30 10372 O 1066.55 -1.91793 0.399007 0
M  V30 10373 H 1065.13 -0.073596 0.743366 0
M  V30 10374 H 1067.79 0.522334 1.8777 0
M  V30 10375 H 1066.89 -0.40051 3.0952 0
M  V30 10376 N 1067.19 -1.57141 0.120249 0
M  V30 10377 C 1068.1 -2.18925 -0.843155 0
M  V30 10378 C 1069.11 -1.16575 -1.29175 0
M  V30 10379 O 1070.29 -1.4905 -1.35448 0
M  V30 10380 C 1067.36 -2.7775 -2.075 0
M  V30 10381 C 1066.42 -3.95139 -1.6782 0
M  V30 10382 C 1065.65 -4.51149 -2.85132 0
M  V30 10383 O 1065.87 -4.06056 -4.00593 0
M  V30 10384 O 1064.81 -5.41815 -2.62145 0
M  V30 10385 H 1068.63 -3.01707 -0.347357 0
M  V30 10386 H 1066.22 -1.49028 -0.105427 0
M  V30 10387 H 1068.1 -3.15243 -2.79643 0
M  V30 10388 H 1066.77 -1.97998 -2.56083 0
M  V30 10389 H 1065.68 -3.62412 -0.927807 0
M  V30 10390 H 1067.01 -4.7633 -1.23977 0
M  V30 10391 N 1068.67 0.153526 -1.5685 0
M  V30 10392 C 1069.91 0.868517 -1.83261 0
M  V30 10393 C 1070.25 1.81112 -0.700857 0
M  V30 10394 O 1069.52 1.92235 0.295989 0
M  V30 10395 C 1069.8 1.6487 -3.2014 0
M  V30 10396 C 1069.66 0.728021 -4.43869 0
M  V30 10397 C 1070.98 2.61259 -3.54163 0
M  V30 10398 H 1068.09 0.314297 -0.666623 0
M  V30 10399 H 1070.74 0.133971 -1.89527 0
M  V30 10400 H 1068.89 2.2749 -3.1493 0
M  V30 10401 H 1070.56 0.113328 -4.61161 0
M  V30 10402 H 1068.8 0.0371744 -4.33784 0
M  V30 10403 H 1069.47 1.30981 -5.36235 0
M  V30 10404 H 1071.95 2.0876 -3.59942 0
M  V30 10405 H 1070.82 3.12902 -4.50981 0
M  V30 10406 H 1071.09 3.42307 -2.79782 0
M  V30 10407 N 1070.14 1.51827 0.422667 0
M  V30 10408 C 1071.09 1.74791 1.53463 0
M  V30 10409 C 1072.09 0.614602 1.57858 0
M  V30 10410 O 1073.29 0.796336 1.61426 0
M  V30 10411 H 1069.67 0.552524 0.510118 0
M  V30 10412 H 1071.64 2.67974 1.31273 0
M  V30 10413 C 1070.39 1.90339 2.90975 0
M  V30 10414 H 1069.71 2.76958 2.8833 0
M  V30 10415 H 1071.15 2.10413 3.68106 0
M  V30 10416 C 1069.61 0.66695 3.30232 0
M  V30 10417 O 1070.14 -0.171542 4.01334 0
M  V30 10418 N 1068.35 0.506768 2.86147 0
M  V30 10419 H 1067.89 1.19019 2.28456 0
M  V30 10420 H 1067.85 -0.319247 3.12775 0
M  V30 10421 N 1071.62 -0.679052 1.4222 0
M  V30 10422 C 1072.87 -1.44125 1.42674 0
M  V30 10423 C 1073.2 -1.94156 0.041438 0
M  V30 10424 O 1072.48 -1.70628 -0.93361 0
M  V30 10425 C 1072.76 -2.64133 2.44756 0
M  V30 10426 C 1072.61 -2.19761 3.9246 0
M  V30 10427 C 1073.93 -3.66347 2.43881 0
M  V30 10428 H 1071.05 -0.522729 0.519541 0
M  V30 10429 H 1073.69 -0.772067 1.73606 0
M  V30 10430 H 1071.84 -3.21225 2.1851 0
M  V30 10431 H 1073.51 -1.67869 4.29671 0
M  V30 10432 H 1071.76 -1.51377 4.06531 0
M  V30 10433 H 1072.43 -3.05944 4.59459 0
M  V30 10434 H 1074.9 -3.18963 2.67211 0
M  V30 10435 H 1073.78 -4.47902 3.17293 0
M  V30 10436 H 1074.04 -4.17183 1.46325 0
M  V30 10437 N 1073.1 -1.28322 -0.914942 0
M  V30 10438 C 1074.33 -1.18254 -1.69775 0
M  V30 10439 C 1074.74 0.258978 -1.87015 0
M  V30 10440 O 1074.1 1.17514 -1.3963 0
M  V30 10441 C 1074.15 -1.8753 -3.09054 0
M  V30 10442 O 1073.87 -3.26051 -2.92613 0
M  V30 10443 C 1075.37 -1.83749 -4.03424 0
M  V30 10444 H 1072.59 -0.41055 -0.530744 0
M  V30 10445 H 1075.14 -1.69425 -1.14523 0
M  V30 10446 H 1073.29 -1.40233 -3.61128 0
M  V30 10447 H 1073.71 -3.60729 -3.80756 0
M  V30 10448 H 1075.18 -2.36813 -4.98622 0
M  V30 10449 H 1075.66 -0.809601 -4.31674 0
M  V30 10450 H 1076.26 -2.3072 -3.57279 0
M  V30 10451 N 1074.58 1.12322 -1.10551 0
M  V30 10452 C 1075.53 2.18087 -0.755424 0
M  V30 10453 C 1076.5 1.6391 0.268805 0
M  V30 10454 O 1077.68 1.90227 0.147813 0
M  V30 10455 C 1074.82 3.4455 -0.194713 0
M  V30 10456 C 1073.93 4.12775 -1.27439 0
M  V30 10457 C 1073.07 5.26891 -0.675194 0
M  V30 10458 C 1072.11 5.86985 -1.73536 0
M  V30 10459 N 1071.24 6.92512 -1.15635 0
M  V30 10460 H 1076.08 2.47379 -1.66155 0
M  V30 10461 H 1073.62 1.21452 -0.829924 0
M  V30 10462 H 1075.58 4.16936 0.148275 0
M  V30 10463 H 1074.21 3.15671 0.674638 0
M  V30 10464 H 1073.26 3.38556 -1.73448 0
M  V30 10465 H 1074.57 4.53506 -2.07687 0
M  V30 10466 H 1073.73 6.06046 -0.281723 0
M  V30 10467 H 1072.47 4.87442 0.158708 0
M  V30 10468 H 1071.47 5.06517 -2.13825 0
M  V30 10469 H 1072.7 6.28505 -2.57213 0
M  V30 10470 H 1070.64 6.55098 -0.343928 0
M  V30 10471 H 1070.56 7.31848 -1.89565 0
M  V30 10472 H 1071.83 7.75492 -0.789463 0
M  V30 10473 N 1076.06 0.894434 1.2976 0
M  V30 10474 C 1077.3 0.516646 1.95385 0
M  V30 10475 C 1077.63 -0.939141 1.70895 0
M  V30 10476 O 1076.9 -1.66153 1.03778 0
M  V30 10477 H 1075.48 0.188072 0.722937 0
M  V30 10478 H 1078.14 1.13958 1.58113 0
M  V30 10479 H 1077.23 0.694819 3.04267 0
M  V30 10480 N 1077.53 -1.43282 0.656365 0
M  V30 10481 C 1078.76 -2.06125 0.178879 0
M  V30 10482 C 1079.18 -1.49216 -1.15672 0
M  V30 10483 O 1078.53 -0.624693 -1.71475 0
M  V30 10484 C 1078.59 -3.614 0.0851785 0
M  V30 10485 O 1078.31 -4.16194 1.36798 0
M  V30 10486 C 1079.81 -4.41325 -0.41801 0
M  V30 10487 H 1077.03 -0.664753 0.0913504 0
M  V30 10488 H 1079.57 -1.83733 0.897901 0
M  V30 10489 H 1077.73 -3.82966 -0.584421 0
M  V30 10490 H 1078.14 -5.09892 1.22924 0
M  V30 10491 H 1079.61 -5.50303 -0.432519 0
M  V30 10492 H 1080.09 -4.14577 -1.44991 0
M  V30 10493 H 1080.7 -4.24735 0.219208 0
M  V30 10494 N 1079.01 -0.398486 -1.52479 0
M  V30 10495 C 1080.42 0.0735015 -1.86555 0
M  V30 10496 C 1080.78 1.45361 -1.31775 0
M  V30 10497 O 1079.9 2.0632 -0.652759 0
M  V30 10498 C 1080.5 0.140152 -3.3851 0
M  V30 10499 C 1079.05 0.556451 -3.72264 0
M  V30 10500 C 1078.2 -0.275792 -2.75925 0
M  V30 10501 H 1081.15 -0.615991 -1.46257 0
M  V30 10502 H 1081.17 0.957507 -3.68255 0
M  V30 10503 H 1080.69 -0.864442 -3.7835 0
M  V30 10504 H 1078.79 1.56808 -3.37997 0
M  V30 10505 H 1078.9 0.308227 -4.78107 0
M  V30 10506 H 1077.26 0.260304 -2.53366 0
M  V30 10507 H 1078.05 -1.27854 -3.18604 0
M  V30 10508 N 1080.49 1.57075 -0.12858 0
M  V30 10509 C 1081.9 1.82468 0.39526 0
M  V30 10510 C 1082.25 1.0463 1.65973 0
M  V30 10511 O 1081.38 0.285835 2.14504 0
M  V30 10512 C 1081.97 3.30976 0.723889 0
M  V30 10513 C 1080.53 3.57016 1.19232 0
M  V30 10514 C 1079.68 2.76534 0.205907 0
M  V30 10515 H 1082.63 1.54711 -0.353571 0
M  V30 10516 H 1082.65 3.46127 1.58039 0
M  V30 10517 H 1082.16 3.87602 -0.196595 0
M  V30 10518 H 1080.26 3.05758 2.12938 0
M  V30 10519 H 1080.38 4.65558 1.13103 0
M  V30 10520 H 1078.74 2.45038 0.694872 0
M  V30 10521 H 1079.52 3.35923 -0.707842 0
M  V30 10522 N 1081.97 -0.145205 1.5693 0
M  V30 10523 C 1082.92 -1.17923 1.98401 0
M  V30 10524 C 1083.89 -1.42591 0.851885 0
M  V30 10525 O 1085.07 -1.54896 1.11409 0
M  V30 10526 C 1082.21 -2.50727 2.37128 0
M  V30 10527 C 1081.32 -2.33218 3.63639 0
M  V30 10528 C 1080.46 -3.5907 3.91462 0
M  V30 10529 C 1079.5 -3.36605 5.11237 0
M  V30 10530 N 1078.64 -4.54592 5.35061 0
M  V30 10531 H 1083.48 -0.818573 2.86537 0
M  V30 10532 H 1081.01 -0.392739 1.4176 0
M  V30 10533 H 1082.97 -3.28165 2.57611 0
M  V30 10534 H 1081.6 -2.84736 1.52069 0
M  V30 10535 H 1080.65 -1.46826 3.50922 0
M  V30 10536 H 1081.96 -2.12579 4.51234 0
M  V30 10537 H 1081.12 -4.44936 4.12453 0
M  V30 10538 H 1079.86 -3.82715 3.02293 0
M  V30 10539 H 1078.86 -2.49127 4.90118 0
M  V30 10540 H 1080.09 -3.14357 6.01961 0
M  V30 10541 H 1078.03 -4.78406 4.48847 0
M  V30 10542 H 1077.95 -4.36962 6.16928 0
M  V30 10543 H 1079.22 -5.41666 5.60551 0
M  V30 10544 N 1083.45 -1.52049 -0.414609 0
M  V30 10545 C 1084.4 -1.75603 -1.52533 0
M  V30 10546 C 1085.39 -0.622965 -1.57529 0
M  V30 10547 O 1086.6 -0.804886 -1.61002 0
M  V30 10548 H 1082.97 -0.555222 -0.507181 0
M  V30 10549 H 1084.94 -2.68666 -1.2985 0
M  V30 10550 C 1083.69 -1.9188 -2.89961 0
M  V30 10551 H 1083.01 -2.78483 -2.86857 0
M  V30 10552 H 1084.45 -2.12363 -3.66985 0
M  V30 10553 C 1082.91 -0.684453 -3.29874 0
M  V30 10554 O 1083.44 0.150256 -4.01419 0
M  V30 10555 N 1081.65 -0.521936 -2.85874 0
M  V30 10556 H 1081.2 -1.20229 -2.27822 0
M  V30 10557 H 1081.15 0.302655 -3.1294 0
M  V30 10558 N 1084.93 0.6715 -1.42579 0
M  V30 10559 C 1085.89 1.76676 -1.46008 0
M  V30 10560 C 1086.89 1.57007 -0.347213 0
M  V30 10561 O 1088.08 1.63238 -0.608185 0
M  V30 10562 C 1085.21 3.15348 -1.29494 0
M  V30 10563 H 1086.4 1.75021 -2.43531 0
M  V30 10564 H 1083.96 0.881444 -1.29075 0
M  V30 10565 H 1084.69 3.22626 -0.32906 0
M  V30 10566 H 1084.48 3.31028 -2.10149 0
M  V30 10567 H 1085.97 3.95251 -1.34784 0
M  V30 10568 N 1086.4 1.28806 0.908124 0
M  V30 10569 C 1087.63 1.19153 1.69146 0
M  V30 10570 C 1088.05 -0.249056 1.8715 0
M  V30 10571 O 1087.4 -1.16772 1.40251 0
M  V30 10572 C 1087.45 1.89167 3.08055 0
M  V30 10573 O 1087.18 3.27599 2.90879 0
M  V30 10574 C 1088.68 1.85886 4.02444 0
M  V30 10575 H 1085.9 0.413359 0.528559 0
M  V30 10576 H 1088.44 1.7003 1.13622 0
M  V30 10577 H 1086.6 1.42146 3.60379 0
M  V30 10578 H 1087.01 3.62743 3.78837 0
M  V30 10579 H 1088.48 2.39454 4.97359 0
M  V30 10580 H 1088.96 0.832483 4.31238 0
M  V30 10581 H 1089.57 2.32612 3.5605 0
M  V30 10582 N 1087.88 -1.11734 1.11145 0
M  V30 10583 C 1089.11 -1.87755 0.881062 0
M  V30 10584 C 1089.53 -1.79461 -0.563496 0
M  V30 10585 O 1088.89 -1.15481 -1.39763 0
M  V30 10586 C 1088.94 -3.34641 1.34342 0
M  V30 10587 O 1088.04 -4.09195 0.513157 0
M  V30 10588 H 1087.38 -0.583111 0.317613 0
M  V30 10589 H 1089.91 -1.41256 1.48013 0
M  V30 10590 H 1089.92 -3.85486 1.33658 0
M  V30 10591 H 1088.6 -3.39994 2.39534 0
M  V30 10592 H 1087.17 -3.68269 0.585833 0
M  V30 10593 N 1089.36 -0.901303 -1.29284 0
M  V30 10594 C 1090.77 -0.576317 -1.77582 0
M  V30 10595 C 1091.12 0.908078 -1.73921 0
M  V30 10596 O 1090.25 1.71006 -1.32611 0
M  V30 10597 C 1090.84 -1.03938 -3.22463 0
M  V30 10598 C 1089.4 -0.765533 -3.68533 0
M  V30 10599 C 1088.55 -1.21318 -2.49354 0
M  V30 10600 H 1091.5 -1.08386 -1.15923 0
M  V30 10601 H 1091.52 -0.375367 -3.78644 0
M  V30 10602 H 1091.03 -2.11977 -3.25096 0
M  V30 10603 H 1089.13 0.302176 -3.71373 0
M  V30 10604 H 1089.25 -1.36454 -4.59257 0
M  V30 10605 H 1087.61 -0.632141 -2.46731 0
M  V30 10606 H 1088.39 -2.30165 -2.54714 0
M  V30 10607 N 1090.84 1.42931 -0.663954 0
M  V30 10608 C 1091.77 2.29122 0.0598878 0
M  V30 10609 C 1092.78 1.43094 0.776404 0
M  V30 10610 O 1093.97 1.66923 0.63237 0
M  V30 10611 C 1091.07 3.20268 1.10822 0
M  V30 10612 C 1090.24 4.34892 0.4677 0
M  V30 10613 C 1089.3 5.06836 1.41435 0
M  V30 10614 O 1088.33 5.61735 0.918818 0
M  V30 10615 N 1089.53 5.11336 2.74801 0
M  V30 10616 H 1092.3 2.91885 -0.679945 0
M  V30 10617 H 1089.86 1.53739 -0.507543 0
M  V30 10618 H 1091.85 3.65264 1.74255 0
M  V30 10619 H 1090.42 2.59031 1.7499 0
M  V30 10620 H 1089.64 3.92679 -0.34593 0
M  V30 10621 H 1090.93 5.08796 0.0210237 0
M  V30 10622 H 1090.33 4.68124 3.1761 0
M  V30 10623 H 1088.88 5.60013 3.33509 0
M  V30 10624 N 1092.32 0.406567 1.52266 0
M  V30 10625 C 1093.28 -0.408251 2.25535 0
M  V30 10626 C 1094.28 -0.975795 1.27808 0
M  V30 10627 O 1095.47 -0.855077 1.5177 0
M  V30 10628 C 1092.6 -1.57443 3.02365 0
M  V30 10629 H 1093.79 0.233459 2.9899 0
M  V30 10630 H 1091.35 0.159032 1.55489 0
M  V30 10631 H 1092.08 -2.25308 2.33252 0
M  V30 10632 H 1091.87 -1.17399 3.74112 0
M  V30 10633 H 1093.36 -2.15088 3.57948 0
M  V30 10634 N 1093.79 -1.57004 0.136909 0
M  V30 10635 C 1095.21 -1.82675 -0.385577 0
M  V30 10636 C 1095.56 -1.05508 -1.65416 0
M  V30 10637 O 1094.68 -0.297207 -2.14349 0
M  V30 10638 C 1095.28 -3.31356 -0.706326 0
M  V30 10639 C 1093.84 -3.57644 -1.17337 0
M  V30 10640 C 1092.98 -2.7664 -0.191239 0
M  V30 10641 H 1095.93 -1.54522 0.36177 0
M  V30 10642 H 1095.95 -3.4696 -1.56201 0
M  V30 10643 H 1095.47 -3.87492 0.217147 0
M  V30 10644 H 1093.57 -3.06883 -2.11313 0
M  V30 10645 H 1093.68 -4.66152 -1.10632 0
M  V30 10646 H 1092.04 -2.45403 -0.681867 0
M  V30 10647 H 1092.83 -3.35543 0.725647 0
M  V30 10648 N 1095.27 0.136881 -1.57004 0
M  V30 10649 C 1096.5 0.866405 -1.88436 0
M  V30 10650 C 1096.92 1.73483 -0.727006 0
M  V30 10651 O 1096.28 1.78398 0.323094 0
M  V30 10652 C 1096.33 1.69059 -3.18514 0
M  V30 10653 O 1095.43 2.79584 -3.03161 0
M  V30 10654 H 1094.77 0.240709 -0.618834 0
M  V30 10655 H 1097.3 0.124653 -2.0422 0
M  V30 10656 H 1097.31 2.08353 -3.50789 0
M  V30 10657 H 1095.99 1.05296 -4.0235 0
M  V30 10658 H 1094.57 2.43623 -2.82315 0
M  V30 10659 N 1096.75 1.52266 0.40654 0
M  V30 10660 C 1098 1.66123 1.15097 0
M  V30 10661 C 1098.32 0.394836 1.90961 0
M  V30 10662 O 1097.59 -0.590349 1.86793 0
M  V30 10663 H 1096.17 0.612317 0.427875 0
M  V30 10664 H 1098.83 1.89318 0.463106 0
M  V30 10665 H 1097.93 2.50351 1.86361 0
M  V30 10666 N 1098.23 -0.663929 1.42933 0
M  V30 10667 C 1099.16 -1.78946 1.43217 0
M  V30 10668 C 1100.17 -1.59426 0.329727 0
M  V30 10669 O 1101.36 -1.68344 0.5935 0
M  V30 10670 C 1098.46 -3.16217 1.21902 0
M  V30 10671 C 1097.64 -3.6249 2.44785 0
M  V30 10672 C 1096.69 -4.78529 2.18853 0
M  V30 10673 O 1095.72 -4.88516 2.92131 0
M  V30 10674 N 1096.92 -5.67994 1.19845 0
M  V30 10675 H 1099.69 -1.79184 2.40236 0
M  V30 10676 H 1097.25 -0.847404 1.37952 0
M  V30 10677 H 1099.24 -3.91517 1.02454 0
M  V30 10678 H 1097.81 -3.10814 0.333676 0
M  V30 10679 H 1097.03 -2.77751 2.79729 0
M  V30 10680 H 1098.32 -3.90151 3.26588 0
M  V30 10681 H 1097.72 -5.62588 0.59259 0
M  V30 10682 H 1096.27 -6.4306 1.06382 0
M  V30 10683 N 1099.71 -1.29285 -0.901281 0
M  V30 10684 C 1100.65 -1.1428 -2.00521 0
M  V30 10685 C 1101.62 -0.0365428 -1.6606 0
M  V30 10686 O 1102.81 -0.203771 -1.89709 0
M  V30 10687 C 1099.95 -0.823671 -3.35126 0
M  V30 10688 C 1099.06 -2.01021 -3.8238 0
M  V30 10689 C 1098.2 -1.6306 -5.05554 0
M  V30 10690 C 1097.24 -2.78304 -5.45173 0
M  V30 10691 N 1096.37 -2.4075 -6.59533 0
M  V30 10692 H 1101.21 -2.08729 -2.12688 0
M  V30 10693 H 1098.75 -1.0387 -1.04161 0
M  V30 10694 H 1100.71 -0.61934 -4.12577 0
M  V30 10695 H 1099.34 0.0839113 -3.22691 0
M  V30 10696 H 1098.39 -2.32629 -3.00978 0
M  V30 10697 H 1099.7 -2.8738 -4.07694 0
M  V30 10698 H 1098.86 -1.38906 -5.90584 0
M  V30 10699 H 1097.59 -0.738464 -4.82077 0
M  V30 10700 H 1096.6 -3.03142 -4.58678 0
M  V30 10701 H 1097.82 -3.68179 -5.70632 0
M  V30 10702 H 1095.77 -1.54022 -6.37662 0
M  V30 10703 H 1095.69 -3.20643 -6.84634 0
M  V30 10704 H 1096.96 -2.19912 -7.47836 0
M  V30 10705 N 1101.18 1.11143 -1.11736 0
M  V30 10706 C 1102.41 1.86745 -0.890727 0
M  V30 10707 C 1102.83 1.80315 0.55964 0
M  V30 10708 O 1102.18 1.18663 1.38656 0
M  V30 10709 C 1102.24 3.35436 -1.34779 0
M  V30 10710 O 1101.96 3.41738 -2.74129 0
M  V30 10711 C 1103.46 4.27935 -1.15702 0
M  V30 10712 H 1100.68 0.59044 -0.318781 0
M  V30 10713 H 1103.22 1.40549 -1.48547 0
M  V30 10714 H 1101.38 3.79125 -0.796425 0
M  V30 10715 H 1101.79 4.34347 -2.94012 0
M  V30 10716 H 1103.26 5.30494 -1.52579 0
M  V30 10717 H 1103.74 4.39093 -0.0968735 0
M  V30 10718 H 1104.35 3.90042 -1.69551 0
M  V30 10719 N 1102.66 0.908147 1.28804 0
M  V30 10720 C 1103.63 0.397058 2.25735 0
M  V30 10721 C 1104.63 -0.473483 1.53671 0
M  V30 10722 O 1105.82 -0.277335 1.71978 0
M  V30 10723 C 1102.95 -0.431392 3.38159 0
M  V30 10724 H 1104.14 1.25323 2.72459 0
M  V30 10725 H 1101.69 0.687041 1.4039 0
M  V30 10726 H 1102.43 -1.3072 2.96787 0
M  V30 10727 H 1102.21 0.192502 3.91627 0
M  V30 10728 H 1103.7 -0.78 4.10251 0
M  V30 10729 N 1104.14 -1.42577 0.671525 0
M  V30 10730 C 1105.39 -2.01882 0.192716 0
M  V30 10731 C 1105.72 -1.52959 -1.19654 0
M  V30 10732 O 1104.99 -0.730404 -1.80265 0
M  V30 10733 C 1105.28 -3.59404 0.223734 0
M  V30 10734 C 1105.13 -4.18514 1.64821 0
M  V30 10735 C 1106.45 -4.37996 -0.429858 0
M  V30 10736 H 1103.57 -0.733523 0.0715026 0
M  V30 10737 H 1106.21 -1.69641 0.855689 0
M  V30 10738 H 1104.36 -3.87003 -0.340776 0
M  V30 10739 H 1106.03 -4.01881 2.26472 0
M  V30 10740 H 1104.28 -3.74467 2.1899 0
M  V30 10741 H 1104.95 -5.27643 1.62162 0
M  V30 10742 H 1107.42 -4.16069 0.0506433 0
M  V30 10743 H 1106.3 -5.476 -0.377503 0
M  V30 10744 H 1106.56 -4.15625 -1.50693 0
M  V30 10745 N 1105.62 -0.414636 -1.52048 0
M  V30 10746 C 1107.03 0.0537107 -1.86623 0
M  V30 10747 C 1107.38 1.43955 -1.3331 0
M  V30 10748 O 1106.51 2.05616 -0.674606 0
M  V30 10749 C 1107.1 0.104241 -3.3864 0
M  V30 10750 C 1105.66 0.516936 -3.72833 0
M  V30 10751 C 1104.81 -0.305042 -2.75617 0
M  V30 10752 H 1107.76 -0.631469 -1.45596 0
M  V30 10753 H 1107.78 0.918395 -3.6925 0
M  V30 10754 H 1107.29 -0.904523 -3.77412 0
M  V30 10755 H 1105.39 1.53214 -3.39641 0
M  V30 10756 H 1105.5 0.2575 -4.78408 0
M  V30 10757 H 1103.87 0.233416 -2.53628 0
M  V30 10758 H 1104.65 -1.31226 -3.1723 0
M  V30 10759 N 1107.1 1.56929 -0.145233 0
M  V30 10760 C 1108.32 2.00431 0.513314 0
M  V30 10761 C 1108.74 1.0253 1.58534 0
M  V30 10762 O 1108.1 0.0220459 1.82487 0
M  V30 10763 C 1108.15 3.43856 1.11557 0
M  V30 10764 O 1107.87 4.38015 0.0863707 0
M  V30 10765 C 1109.37 4.02627 1.8549 0
M  V30 10766 H 1106.59 0.657529 0.133778 0
M  V30 10767 H 1109.13 2.03095 -0.239296 0
M  V30 10768 H 1107.29 3.4205 1.81881 0
M  V30 10769 H 1107.7 5.21842 0.527363 0
M  V30 10770 H 1109.18 5.04985 2.22923 0
M  V30 10771 H 1109.65 3.43239 2.74014 0
M  V30 10772 H 1110.26 4.08058 1.19869 0
M  V30 10773 N 1108.58 -0.128553 1.57075 0
M  V30 10774 C 1109.82 -0.839252 1.8462 0
M  V30 10775 C 1110.15 -1.79974 0.729582 0
M  V30 10776 O 1109.43 -1.92681 -0.265369 0
M  V30 10777 C 1109.71 -1.59756 3.22723 0
M  V30 10778 C 1109.57 -0.657313 4.44971 0
M  V30 10779 C 1110.88 -2.55592 3.58275 0
M  V30 10780 H 1108 -0.303652 0.671539 0
M  V30 10781 H 1110.65 -0.103802 1.89716 0
M  V30 10782 H 1108.8 -2.22451 3.18509 0
M  V30 10783 H 1110.47 -0.0399471 4.61283 0
M  V30 10784 H 1108.71 0.0318416 4.33788 0
M  V30 10785 H 1109.38 -1.22433 5.38251 0
M  V30 10786 H 1111.86 -2.03007 3.63218 0
M  V30 10787 H 1110.73 -3.05687 4.55902 0
M  V30 10788 H 1110.99 -3.37813 2.85193 0
M  V30 10789 N 1110.05 -1.5248 -0.398459 0
M  V30 10790 C 1111.28 -1.70925 -1.16586 0
M  V30 10791 C 1111.7 -0.42342 -1.83991 0
M  V30 10792 O 1111.05 0.601395 -1.72306 0
M  V30 10793 C 1111.1 -2.85226 -2.22099 0
M  V30 10794 O 1110.83 -4.08831 -1.57444 0
M  V30 10795 C 1112.33 -3.15272 -3.11639 0
M  V30 10796 H 1109.55 -0.572533 -0.349924 0
M  V30 10797 H 1112.09 -1.99087 -0.467416 0
M  V30 10798 H 1110.25 -2.59553 -2.87595 0
M  V30 10799 H 1110.66 -4.72603 -2.2748 0
M  V30 10800 H 1112.13 -3.98737 -3.81724 0
M  V30 10801 H 1112.61 -2.29262 -3.74614 0
M  V30 10802 H 1113.22 -3.42749 -2.518 0
M  V30 10803 N 1111.53 0.65634 -1.43283 0
M  V30 10804 C 1112.76 1.44906 -1.48382 0
M  V30 10805 C 1113.18 1.87823 -0.101993 0
M  V30 10806 O 1112.54 1.57178 0.903597 0
M  V30 10807 C 1112.59 2.66231 -2.43215 0
M  V30 10808 O 1111.69 3.65176 -1.91625 0
M  V30 10809 H 1111.03 0.434601 -0.502014 0
M  V30 10810 H 1113.56 0.803429 -1.88165 0
M  V30 10811 H 1113.57 3.14083 -2.60414 0
M  V30 10812 H 1112.25 2.34336 -3.43598 0
M  V30 10813 H 1110.82 3.24302 -1.84072 0
M  V30 10814 N 1113.01 1.29761 0.894412 0
M  V30 10815 C 1114.24 1.2094 1.67872 0
M  V30 10816 C 1114.65 -0.229192 1.87404 0
M  V30 10817 O 1114.01 -1.15278 1.41482 0
M  V30 10818 C 1114.06 1.92424 3.06032 0
M  V30 10819 O 1113.78 3.30665 2.87388 0
M  V30 10820 C 1115.28 1.90144 4.0045 0
M  V30 10821 H 1112.5 0.418942 0.524145 0
M  V30 10822 H 1115.05 1.71226 1.11813 0
M  V30 10823 H 1113.2 1.4596 3.58851 0
M  V30 10824 H 1113.62 3.66741 3.74969 0
M  V30 10825 H 1115.09 2.44716 4.94791 0
M  V30 10826 H 1115.57 0.878175 4.30331 0
M  V30 10827 H 1116.17 2.36375 3.53563 0
M  V30 10828 N 1114.49 -1.10549 1.12324 0
M  V30 10829 C 1115.74 -1.82124 0.876083 0
M  V30 10830 C 1116.06 -1.85547 -0.599761 0
M  V30 10831 O 1115.33 -1.33269 -1.43584 0
M  V30 10832 H 1113.91 -0.674455 0.321122 0
M  V30 10833 H 1116.57 -1.33766 1.41748 0
M  V30 10834 H 1115.66 -2.85688 1.25653 0
M  V30 10835 N 1115.97 -0.914965 -1.28321 0
M  V30 10836 C 1117.21 -0.547665 -1.94538 0
M  V30 10837 C 1117.53 0.911834 -1.72368 0
M  V30 10838 O 1116.8 1.64481 -1.06408 0
M  V30 10839 H 1115.38 -0.199549 -0.719853 0
M  V30 10840 H 1118.05 -1.16459 -1.5628 0
M  V30 10841 H 1117.14 -0.743138 -3.03124 0
M  V30 10842 N 1117.44 1.42219 -0.679077 0
M  V30 10843 C 1118.39 2.308 -0.00340316 0
M  V30 10844 C 1119.36 1.462 0.788334 0
M  V30 10845 O 1120.55 1.75023 0.759716 0
M  V30 10846 C 1117.69 3.32084 0.938854 0
M  V30 10847 C 1116.8 4.31772 0.140485 0
M  V30 10848 C 1115.93 5.20128 1.07888 0
M  V30 10849 C 1114.97 6.11493 0.27245 0
M  V30 10850 N 1114.11 6.92388 1.16378 0
M  V30 10851 H 1118.95 2.88024 -0.764587 0
M  V30 10852 H 1116.49 1.41869 -0.38878 0
M  V30 10853 H 1118.44 3.89339 1.49903 0
M  V30 10854 H 1117.07 2.76448 1.66662 0
M  V30 10855 H 1116.13 3.76599 -0.536376 0
M  V30 10856 H 1117.44 4.96432 -0.485433 0
M  V30 10857 H 1116.59 5.82137 1.70884 0
M  V30 10858 H 1115.33 4.55655 1.73868 0
M  V30 10859 H 1114.34 5.48549 -0.370693 0
M  V30 10860 H 1115.56 6.78017 -0.383315 0
M  V30 10861 H 1113.51 6.30538 1.8099 0
M  V30 10862 H 1113.42 7.5367 0.593043 0
M  V30 10863 H 1114.69 7.58879 1.78107 0
M  V30 10864 N 1118.92 0.422693 1.51826 0
M  V30 10865 C 1119.88 -0.384307 2.25955 0
M  V30 10866 C 1120.88 -0.962184 1.28836 0
M  V30 10867 O 1122.07 -0.838931 1.52668 0
M  V30 10868 C 1119.21 -1.54228 3.04018 0
M  V30 10869 H 1120.4 0.265157 2.98726 0
M  V30 10870 H 1117.95 0.175515 1.55311 0
M  V30 10871 H 1118.69 -2.22822 2.35629 0
M  V30 10872 H 1118.47 -1.13425 3.75336 0
M  V30 10873 H 1119.96 -2.1128 3.60209 0
M  V30 10874 N 1120.4 -1.5685 0.153553 0
M  V30 10875 C 1121.35 -2.18385 -0.800667 0
M  V30 10876 C 1122.34 -1.14272 -1.25053 0
M  V30 10877 O 1123.55 -1.32509 -1.21825 0
M  V30 10878 H 1119.92 -0.699352 -0.276425 0
M  V30 10879 H 1121.89 -2.97287 -0.257535 0
M  V30 10880 C 1120.64 -2.82497 -2.02708 0
M  V30 10881 H 1119.97 -3.62328 -1.68992 0
M  V30 10882 H 1121.41 -3.29047 -2.67403 0
M  V30 10883 C 1119.86 -1.81343 -2.8393 0
M  V30 10884 O 1120.39 -1.28793 -3.80493 0
M  V30 10885 N 1118.6 -1.50499 -2.48593 0
M  V30 10886 H 1118.15 -1.93425 -1.70131 0
M  V30 10887 H 1118.11 -0.830672 -3.03228 0
M  V30 10888 N 1121.88 0.120221 -1.57141 0
M  V30 10889 C 1123.1 0.84637 -1.89344 0
M  V30 10890 C 1123.53 1.72702 -0.745365 0
M  V30 10891 O 1122.89 1.7873 0.304155 0
M  V30 10892 C 1122.93 1.65671 -3.20289 0
M  V30 10893 O 1122.04 2.76353 -3.06109 0
M  V30 10894 H 1121.38 0.234132 -0.621352 0
M  V30 10895 H 1123.91 0.102986 -2.04341 0
M  V30 10896 H 1123.92 2.04621 -3.52979 0
M  V30 10897 H 1122.59 1.01023 -4.03444 0
M  V30 10898 H 1121.17 2.40615 -2.84884 0
M  V30 10899 N 1123.36 1.52689 0.390367 0
M  V30 10900 C 1124.58 1.71541 1.15678 0
M  V30 10901 C 1125 0.433171 1.83764 0
M  V30 10902 O 1124.36 -0.592248 1.72623 0
M  V30 10903 C 1124.41 2.864 2.20584 0
M  V30 10904 O 1124.13 4.0966 1.55274 0
M  V30 10905 C 1125.63 3.1692 3.09962 0
M  V30 10906 H 1122.85 0.574381 0.346883 0
M  V30 10907 H 1125.39 1.99332 0.456851 0
M  V30 10908 H 1123.55 2.61075 2.86214 0
M  V30 10909 H 1123.96 4.73802 2.2497 0
M  V30 10910 H 1125.44 4.00755 3.79604 0
M  V30 10911 H 1125.91 2.31245 3.73393 0
M  V30 10912 H 1126.52 3.4408 2.49979 0
M  V30 10913 N 1124.83 -0.648732 1.43629 0
M  V30 10914 C 1126.06 -1.4362 1.48932 0
M  V30 10915 C 1126.48 -1.88487 0.108599 0
M  V30 10916 O 1125.83 -1.59768 -0.882066 0
M  V30 10917 C 1125.89 -2.66822 2.43903 0
M  V30 10918 O 1125.61 -2.2383 3.76606 0
M  V30 10919 C 1127.11 -3.60134 2.58493 0
M  V30 10920 H 1124.33 -0.441055 0.505679 0
M  V30 10921 H 1126.87 -0.794936 1.88417 0
M  V30 10922 H 1125.03 -3.27079 2.07601 0
M  V30 10923 H 1125.44 -3.03575 4.27718 0
M  V30 10924 H 1126.91 -4.43234 3.29011 0
M  V30 10925 H 1127.39 -4.07779 1.63134 0
M  V30 10926 H 1128 -3.05756 2.95624 0
M  V30 10927 N 1126.31 -1.30234 -0.887518 0
M  V30 10928 C 1127.56 -1.18675 -1.63587 0
M  V30 10929 C 1127.88 0.259342 -1.93268 0
M  V30 10930 O 1127.15 1.17523 -1.56733 0
M  V30 10931 H 1125.73 -0.436224 -0.606397 0
M  V30 10932 H 1128.39 -1.63326 -1.06351 0
M  V30 10933 H 1127.49 -1.74575 -2.58708 0
M  V30 10934 N 1127.79 1.09952 -1.12909 0
M  V30 10935 C 1129.04 1.81657 -0.885729 0
M  V30 10936 C 1129.36 1.85863 0.589913 0
M  V30 10937 O 1128.63 1.34028 1.42875 0
M  V30 10938 H 1127.21 0.672743 -0.324694 0
M  V30 10939 H 1129.87 1.33013 -1.42456 0
M  V30 10940 H 1128.97 2.85018 -1.27167 0
M  V30 10941 N 1129.27 0.921757 1.27833 0
M  V30 10942 C 1130.22 0.414838 2.27041 0
M  V30 10943 C 1131.19 -0.515045 1.57913 0
M  V30 10944 O 1132.37 -0.435499 1.85763 0
M  V30 10945 C 1129.51 -0.331744 3.43502 0
M  V30 10946 C 1128.62 0.631565 4.27358 0
M  V30 10947 C 1127.76 -0.134265 5.3103 0
M  V30 10948 C 1126.8 0.822138 6.06554 0
M  V30 10949 N 1125.93 0.0893149 7.02043 0
M  V30 10950 H 1130.77 1.26585 2.69778 0
M  V30 10951 H 1128.31 0.635488 1.32665 0
M  V30 10952 H 1130.27 -0.780866 4.09827 0
M  V30 10953 H 1128.9 -1.14704 3.01733 0
M  V30 10954 H 1127.95 1.19922 3.61003 0
M  V30 10955 H 1129.26 1.36274 4.79824 0
M  V30 10956 H 1128.42 -0.643579 6.03277 0
M  V30 10957 H 1127.16 -0.898443 4.79353 0
M  V30 10958 H 1126.16 1.34275 5.33151 0
M  V30 10959 H 1127.39 1.586 6.6032 0
M  V30 10960 H 1125.33 -0.656725 6.52704 0
M  V30 10961 H 1125.25 0.760167 7.52169 0
M  V30 10962 H 1126.52 -0.399541 7.78475 0
M  V30 10963 N 1130.75 -1.41857 0.686609 0
M  V30 10964 C 1131.7 -2.27999 -0.00734666 0
M  V30 10965 C 1132.68 -1.41723 -0.761808 0
M  V30 10966 O 1133.87 -1.65072 -0.638776 0
M  V30 10967 C 1131 -3.29909 -0.949462 0
M  V30 10968 C 1130.09 -4.23666 -0.191722 0
M  V30 10969 N 1130.48 -4.99277 0.809715 0
M  V30 10970 C 1128.78 -4.43937 -0.428489 0
M  V30 10971 C 1129.48 -5.67834 1.2625 0
M  V30 10972 N 1128.45 -5.40387 0.590151 0
M  V30 10973 H 1132.26 -2.83887 0.760608 0
M  V30 10974 H 1129.77 -1.53962 0.516676 0
M  V30 10975 H 1131.77 -3.90436 -1.46169 0
M  V30 10976 H 1130.43 -2.75582 -1.71711 0
M  V30 10977 H 1131.44 -5.04051 1.18966 0
M  V30 10978 H 1128.11 -4.00633 -1.17472 0
M  V30 10979 H 1129.5 -6.38469 2.09301 0
M  V30 10980 N 1132.22 -0.430739 -1.51599 0
M  V30 10981 C 1133.45 0.136797 -2.06447 0
M  V30 10982 C 1133.87 1.37027 -1.29881 0
M  V30 10983 O 1133.22 1.78983 -0.356543 0
M  V30 10984 C 1133.28 0.465637 -3.58489 0
M  V30 10985 O 1133 -0.718873 -4.32162 0
M  V30 10986 C 1134.5 1.08456 -4.29828 0
M  V30 10987 H 1131.72 0.0108468 -0.670912 0
M  V30 10988 H 1134.26 -0.607921 -1.95255 0
M  V30 10989 H 1132.42 1.16025 -3.69617 0
M  V30 10990 H 1132.83 -0.439195 -5.22658 0
M  V30 10991 H 1134.3 1.2647 -5.37317 0
M  V30 10992 H 1134.78 2.06376 -3.87693 0
M  V30 10993 H 1135.39 0.429525 -4.23125 0
M  V30 10994 N 1133.7 1.56767 -0.161869 0
M  V30 10995 C 1134.93 2.00964 0.492027 0
M  V30 10996 C 1135.35 1.04206 1.57437 0
M  V30 10997 O 1134.7 0.0413998 1.82453 0
M  V30 10998 C 1134.75 3.4502 1.07904 0
M  V30 10999 O 1134.47 4.38082 0.0399085 0
M  V30 11000 C 1135.98 4.04572 1.81209 0
M  V30 11001 H 1133.2 0.658911 0.126797 0
M  V30 11002 H 1135.74 2.0283 -0.260824 0
M  V30 11003 H 1133.89 3.43959 1.78243 0
M  V30 11004 H 1134.31 5.22372 0.471985 0
M  V30 11005 H 1135.78 5.07321 2.17554 0
M  V30 11006 H 1136.26 3.46126 2.70359 0
M  V30 11007 H 1136.87 4.09307 1.15534 0
M  V30 11008 N 1135.18 -0.111886 1.57202 0
M  V30 11009 C 1136.43 -0.816794 1.84859 0
M  V30 11010 C 1136.75 -1.80079 0.748113 0
M  V30 11011 O 1136.02 -1.94578 -0.227235 0
M  V30 11012 H 1134.6 -0.304633 0.682061 0
M  V30 11013 H 1137.26 -0.097513 1.94656 0
M  V30 11014 H 1136.36 -1.35768 2.81022 0
M  V30 11015 N 1136.66 -1.52894 -0.382264 0
M  V30 11016 C 1137.61 -1.74531 -1.46707 0
M  V30 11017 C 1138.59 -0.599499 -1.49315 0
M  V30 11018 O 1139.78 -0.857577 -1.54837 0
M  V30 11019 C 1136.91 -1.92366 -2.84342 0
M  V30 11020 C 1136 -3.12899 -2.86278 0
M  V30 11021 N 1136.39 -4.35125 -2.57876 0
M  V30 11022 C 1134.69 -3.13282 -3.17444 0
M  V30 11023 C 1135.39 -5.16769 -2.67066 0
M  V30 11024 N 1134.37 -4.52606 -3.0108 0
M  V30 11025 H 1138.17 -2.66653 -1.23585 0
M  V30 11026 H 1135.68 -1.51292 -0.590286 0
M  V30 11027 H 1137.68 -2.0599 -3.62455 0
M  V30 11028 H 1136.34 -1.01461 -3.08441 0
M  V30 11029 H 1137.35 -4.63143 -2.31774 0
M  V30 11030 H 1134.03 -2.32211 -3.46964 0
M  V30 11031 H 1135.42 -6.24219 -2.48595 0
M  V30 11032 N 1138.14 0.641106 -1.43971 0
M  V30 11033 C 1139.39 1.39807 -1.4594 0
M  V30 11034 C 1139.71 1.94795 -0.0893874 0
M  V30 11035 O 1138.98 1.75175 0.876962 0
M  V30 11036 H 1137.56 0.518908 -0.537349 0
M  V30 11037 H 1140.22 0.755278 -1.79671 0
M  V30 11038 H 1139.31 2.23439 -2.17903 0
M  V30 11039 N 1139.62 1.30703 0.880598 0
M  V30 11040 C 1140.58 1.17429 1.96832 0
M  V30 11041 C 1141.58 0.104305 1.60461 0
M  V30 11042 O 1142.77 0.352758 1.70591 0
M  V30 11043 C 1139.9 0.800099 3.31378 0
M  V30 11044 H 1141.09 2.14069 2.10034 0
M  V30 11045 H 1138.65 1.14162 1.06755 0
M  V30 11046 H 1139.38 -0.165606 3.23877 0
M  V30 11047 H 1139.17 1.57341 3.59146 0
M  V30 11048 H 1140.66 0.730826 4.11155 0
M  V30 11049 N 1141.09 -1.09351 1.1349 0
M  V30 11050 C 1142.51 -1.3359 0.873269 0
M  V30 11051 C 1142.71 -1.95432 -0.490767 0
M  V30 11052 O 1141.77 -2.20117 -1.23712 0
M  V30 11053 C 1143.08 -2.24681 1.99847 0
M  V30 11054 C 1144.63 -2.38188 2.03065 0
M  V30 11055 C 1145.1 -3.32615 3.14851 0
M  V30 11056 N 1146.59 -3.40188 3.14366 0
M  V30 11057 C 1147.33 -4.13256 3.97501 0
M  V30 11058 N 1146.82 -4.89114 4.90652 0
M  V30 11059 N 1148.62 -4.08988 3.85597 0
M  V30 11060 H 1140.77 -0.675852 2.0136 0
M  V30 11061 H 1143.03 -0.360268 0.876876 0
M  V30 11062 H 1142.74 -1.86469 2.98198 0
M  V30 11063 H 1142.61 -3.25075 1.91327 0
M  V30 11064 H 1145 -2.75663 1.05327 0
M  V30 11065 H 1145.08 -1.3757 2.15658 0
M  V30 11066 H 1144.72 -2.95863 4.12829 0
M  V30 11067 H 1144.65 -4.33139 2.99496 0
M  V30 11068 H 1147.14 -2.861 2.46892 0
M  V30 11069 H 1147.46 -5.423 5.50573 0
M  V30 11070 H 1145.8 -4.882 4.94657 0
M  V30 11071 H 1148.99 -3.48826 3.12151 0
M  V30 11072 H 1149.17 -4.65671 4.50615 0
M  V30 11073 N 1142.57 -0.928524 -1.27343 0
M  V30 11074 C 1143.8 -0.585734 -1.98436 0
M  V30 11075 C 1144.21 0.83644 -1.69261 0
M  V30 11076 O 1143.57 1.55603 -0.953626 0
M  V30 11077 C 1143.62 -0.803092 -3.52467 0
M  V30 11078 O 1143.34 -2.16932 -3.80621 0
M  V30 11079 C 1144.84 -0.469127 -4.40811 0
M  V30 11080 H 1142.06 -0.221887 -0.633251 0
M  V30 11081 H 1144.61 -1.24577 -1.62175 0
M  V30 11082 H 1142.76 -0.189846 -3.86935 0
M  V30 11083 H 1143.18 -2.21992 -4.75205 0
M  V30 11084 H 1144.65 -0.671906 -5.47895 0
M  V30 11085 H 1145.13 0.595365 -4.35146 0
M  V30 11086 H 1145.73 -1.06055 -4.11865 0
M  V30 11087 N 1144.05 1.41491 -0.694123 0
M  V30 11088 C 1145.27 2.06099 -0.23197 0
M  V30 11089 C 1145.7 1.51888 1.10958 0
M  V30 11090 O 1145.06 0.645247 1.69429 0
M  V30 11091 C 1145.11 3.60053 -0.198522 0
M  V30 11092 O 1144.21 4.04021 0.827067 0
M  V30 11093 H 1143.55 0.654193 -0.113699 0
M  V30 11094 H 1146.08 1.81282 -0.948575 0
M  V30 11095 H 1146.09 4.0799 -0.0288904 0
M  V30 11096 H 1144.77 3.98879 -1.17764 0
M  V30 11097 H 1143.34 3.67593 0.626908 0
M  V30 11098 N 1145.53 0.438773 1.51369 0
M  V30 11099 C 1146.76 -0.125847 2.06517 0
M  V30 11100 C 1147.17 -1.36336 1.30606 0
M  V30 11101 O 1146.53 -1.78792 0.36603 0
M  V30 11102 C 1146.58 -0.446619 3.5873 0
M  V30 11103 O 1146.3 0.741781 4.31775 0
M  V30 11104 C 1147.8 -1.06175 4.30397 0
M  V30 11105 H 1145.02 -0.00728868 0.67096 0
M  V30 11106 H 1147.56 0.618267 1.9493 0
M  V30 11107 H 1145.72 -1.14064 3.70227 0
M  V30 11108 H 1146.13 0.466907 5.22418 0
M  V30 11109 H 1147.61 -1.23619 5.3798 0
M  V30 11110 H 1148.08 -2.04317 3.88782 0
M  V30 11111 H 1148.69 -0.40708 4.23347 0
M  V30 11112 N 1147.01 -1.56678 0.170181 0
M  V30 11113 C 1147.92 -2.21496 -0.773079 0
M  V30 11114 C 1148.93 -1.20626 -1.25401 0
M  V30 11115 O 1150.11 -1.53283 -1.30638 0
M  V30 11116 C 1147.17 -2.8421 -1.98558 0
M  V30 11117 C 1146.23 -4.00278 -1.55164 0
M  V30 11118 C 1145.47 -4.59992 -2.70634 0
M  V30 11119 O 1145.69 -4.18595 -3.87472 0
M  V30 11120 O 1144.62 -5.49881 -2.44775 0
M  V30 11121 H 1148.45 -3.02659 -0.251195 0
M  V30 11122 H 1146.03 -1.49288 -0.0579621 0
M  V30 11123 H 1147.92 -3.2398 -2.69472 0
M  V30 11124 H 1146.59 -2.06045 -2.49654 0
M  V30 11125 H 1145.5 -3.6518 -0.812038 0
M  V30 11126 H 1146.83 -4.80033 -1.0876 0
M  V30 11127 N 1148.48 0.103547 -1.57259 0
M  V30 11128 C 1149.89 0.659006 -1.74683 0
M  V30 11129 C 1150.25 1.79542 -0.791142 0
M  V30 11130 O 1149.37 2.16376 0.0323585 0
M  V30 11131 C 1149.97 1.20222 -3.16752 0
M  V30 11132 C 1148.52 1.70382 -3.35629 0
M  V30 11133 C 1147.67 0.609886 -2.7051 0
M  V30 11134 H 1150.62 -0.122474 -1.58227 0
M  V30 11135 H 1150.64 2.07169 -3.19157 0
M  V30 11136 H 1150.16 0.374901 -3.86285 0
M  V30 11137 H 1148.26 2.55542 -2.71162 0
M  V30 11138 H 1148.37 1.80263 -4.43894 0
M  V30 11139 H 1146.73 1.04728 -2.32173 0
M  V30 11140 H 1147.52 -0.206713 -3.42677 0
M  V30 11141 N 1149.96 1.53094 0.37415 0
M  V30 11142 C 1151.19 1.72758 1.13852 0
M  V30 11143 C 1151.6 0.452638 1.83294 0
M  V30 11144 O 1150.96 -0.573906 1.73241 0
M  V30 11145 C 1151.01 2.88724 2.17534 0
M  V30 11146 O 1150.73 4.11284 1.5092 0
M  V30 11147 C 1152.23 3.2019 3.06584 0
M  V30 11148 H 1149.45 0.578028 0.340771 0
M  V30 11149 H 1152 1.99805 0.435683 0
M  V30 11150 H 1150.15 2.64096 2.83429 0
M  V30 11151 H 1150.57 4.76162 2.19932 0
M  V30 11152 H 1152.04 4.04759 3.75332 0
M  V30 11153 H 1152.52 2.35193 3.70919 0
M  V30 11154 H 1153.12 3.46712 2.46315 0
M  V30 11155 N 1151.44 -0.633461 1.44309 0
M  V30 11156 C 1152.67 -1.42033 1.50447 0
M  V30 11157 C 1153.08 -1.88362 0.128585 0
M  V30 11158 O 1152.44 -1.60695 -0.865071 0
M  V30 11159 C 1152.49 -2.6422 2.46719 0
M  V30 11160 O 1152.21 -2.19823 3.78958 0
M  V30 11161 C 1153.71 -3.57372 2.62298 0
M  V30 11162 H 1150.93 -0.435667 0.510329 0
M  V30 11163 H 1153.48 -0.774907 1.8925 0
M  V30 11164 H 1151.63 -3.24859 2.11058 0
M  V30 11165 H 1152.05 -2.99022 4.30913 0
M  V30 11166 H 1153.52 -4.39719 3.33693 0
M  V30 11167 H 1154 -4.06026 1.67449 0
M  V30 11168 H 1154.6 -3.02603 2.9885 0
M  V30 11169 N 1152.92 -1.31168 -0.873655 0
M  V30 11170 C 1154.2 -1.11285 -1.60857 0
M  V30 11171 C 1154.58 0.333788 -2.08444 0
M  V30 11172 O 1153.92 1.32726 -1.86 0
M  V30 11173 C 1154.13 -2.12379 -2.7694 0
M  V30 11174 C 1155.48 -2.44704 -3.46994 0
M  V30 11175 O 1156.51 -2.10778 -2.87143 0
M  V30 11176 O 1155.36 -3.02786 -4.54954 0
M  V30 11177 H 1152.46 -0.428177 -0.707526 0
M  V30 11178 H 1155 -1.42634 -0.91944 0
M  V30 11179 H 1153.78 -3.09703 -2.39164 0
M  V30 11180 H 1153.4 -1.81914 -3.53544 0
M  V30 11181 N 1154.4 1.08748 -1.14068 0
M  V30 11182 C 1155.63 1.84546 -0.928789 0
M  V30 11183 C 1156.03 1.81741 0.526007 0
M  V30 11184 O 1155.38 1.2169 1.37613 0
M  V30 11185 C 1155.44 3.33282 -1.34771 0
M  V30 11186 C 1155.1 3.59826 -2.81734 0
M  V30 11187 C 1156.1 3.54964 -3.79864 0
M  V30 11188 C 1153.79 3.87949 -3.19063 0
M  V30 11189 C 1155.78 3.77847 -5.13332 0
M  V30 11190 C 1153.47 4.10487 -4.52707 0
M  V30 11191 C 1154.46 4.05429 -5.49651 0
M  V30 11192 O 1154.15 4.27378 -6.80884 0
M  V30 11193 H 1153.88 0.589555 -0.330758 0
M  V30 11194 H 1156.44 1.38275 -1.51886 0
M  V30 11195 H 1154.67 3.80294 -0.700948 0
M  V30 11196 H 1156.36 3.90508 -1.10718 0
M  V30 11197 H 1157.12 3.33256 -3.52371 0
M  V30 11198 H 1153 3.91007 -2.44201 0
M  V30 11199 H 1156.55 3.73815 -5.88989 0
M  V30 11200 H 1152.44 4.31677 -4.79922 0
M  V30 11201 H 1153.21 4.44802 -6.8709 0
M  V30 11202 N 1155.87 0.935264 1.26849 0
M  V30 11203 C 1157.12 0.578545 1.93642 0
M  V30 11204 C 1157.44 -0.884296 1.73796 0
M  V30 11205 O 1156.71 -1.62768 1.09011 0
M  V30 11206 H 1155.29 0.210976 0.716588 0
M  V30 11207 H 1157.96 1.1893 1.54407 0
M  V30 11208 H 1157.05 0.791268 3.01903 0
M  V30 11209 N 1157.35 -1.41121 0.701616 0
M  V30 11210 C 1158.6 -2.00733 0.234682 0
M  V30 11211 C 1158.92 -1.55869 -1.17174 0
M  V30 11212 O 1158.19 -0.791965 -1.79178 0
M  V30 11213 H 1156.77 -0.742288 0.0837745 0
M  V30 11214 H 1159.43 -1.7266 0.904127 0
M  V30 11215 H 1158.53 -3.11041 0.256831 0
M  V30 11216 N 1158.83 -0.446794 -1.51134 0
M  V30 11217 C 1160.11 0.176892 -1.94798 0
M  V30 11218 C 1160.49 1.59229 -1.38598 0
M  V30 11219 O 1159.84 2.21097 -0.576905 0
M  V30 11220 C 1160.05 0.145 -3.48699 0
M  V30 11221 C 1161.39 0.345917 -4.23189 0
M  V30 11222 O 1162.42 0.222691 -3.55503 0
M  V30 11223 O 1161.28 0.592112 -5.43283 0
M  V30 11224 H 1158.37 0.12486 -0.81752 0
M  V30 11225 H 1160.92 -0.505453 -1.61998 0
M  V30 11226 H 1159.69 -0.844156 -3.82086 0
M  V30 11227 H 1159.31 0.869851 -3.87968 0
M  V30 11228 N 1160.31 1.56586 -0.178487 0
M  V30 11229 C 1161.53 2.01915 0.473841 0
M  V30 11230 C 1161.96 1.05789 1.55533 0
M  V30 11231 O 1161.32 0.0386018 1.81259 0
M  V30 11232 C 1161.36 3.45799 1.02251 0
M  V30 11233 O 1160.47 3.52761 2.1362 0
M  V30 11234 H 1159.81 0.654372 0.112666 0
M  V30 11235 H 1162.34 2.02613 -0.284486 0
M  V30 11236 H 1162.35 3.85252 1.34332 0
M  V30 11237 H 1161.02 4.1526 0.230719 0
M  V30 11238 H 1159.6 3.25172 1.8253 0
M  V30 11239 N 1161.79 -0.095206 1.57312 0
M  V30 11240 C 1163.01 -0.81227 1.90289 0
M  V30 11241 C 1163.43 -1.72287 0.772178 0
M  V30 11242 O 1162.79 -1.80698 -0.255841 0
M  V30 11243 C 1162.84 -1.62572 3.22882 0
M  V30 11244 O 1162.56 -0.75175 4.31602 0
M  V30 11245 C 1164.06 -2.44585 3.6972 0
M  V30 11246 H 1161.28 -0.232256 0.629522 0
M  V30 11247 H 1163.82 -0.0724733 2.04372 0
M  V30 11248 H 1161.98 -2.31803 3.10397 0
M  V30 11249 H 1162.39 -1.31514 5.07744 0
M  V30 11250 H 1163.87 -2.97155 4.65191 0
M  V30 11251 H 1164.34 -3.23044 2.97555 0
M  V30 11252 H 1164.95 -1.80554 3.85072 0
M  V30 11253 N 1163.26 -1.53291 -0.366026 0
M  V30 11254 C 1164.49 -1.73359 -1.12934 0
M  V30 11255 C 1164.91 -0.462352 -1.83051 0
M  V30 11256 O 1164.26 0.564711 -1.73543 0
M  V30 11257 C 1164.32 -2.89873 -2.15999 0
M  V30 11258 O 1164.04 -4.12079 -1.48737 0
M  V30 11259 C 1165.54 -3.21811 -3.04881 0
M  V30 11260 H 1162.76 -0.579827 -0.337701 0
M  V30 11261 H 1165.3 -2.00033 -0.425081 0
M  V30 11262 H 1163.46 -2.65595 -2.82025 0
M  V30 11263 H 1163.87 -4.77322 -2.17404 0
M  V30 11264 H 1165.34 -4.06744 -3.7318 0
M  V30 11265 H 1165.82 -2.37156 -3.69667 0
M  V30 11266 H 1166.43 -3.48013 -2.44473 0
M  V30 11267 N 1164.74 0.6258 -1.44643 0
M  V30 11268 C 1166.15 1.20751 -1.42394 0
M  V30 11269 C 1166.5 1.95685 -0.142047 0
M  V30 11270 O 1165.63 2.02715 0.757332 0
M  V30 11271 C 1166.22 2.1964 -2.57961 0
M  V30 11272 C 1164.78 2.73227 -2.5889 0
M  V30 11273 C 1163.93 1.48315 -2.34303 0
M  V30 11274 H 1166.88 0.416162 -1.53146 0
M  V30 11275 H 1166.9 3.02342 -2.31019 0
M  V30 11276 H 1166.41 1.65073 -3.51244 0
M  V30 11277 H 1164.52 3.31782 -1.69563 0
M  V30 11278 H 1164.63 3.18902 -3.57545 0
M  V30 11279 H 1162.99 1.76634 -1.83501 0
M  V30 11280 H 1163.78 0.956427 -3.29708 0
M  V30 11281 N 1166.22 1.31629 0.866686 0
M  V30 11282 C 1167.64 1.10358 1.15296 0
M  V30 11283 C 1167.84 -0.123807 2.01119 0
M  V30 11284 O 1166.89 -0.81219 2.39081 0
M  V30 11285 C 1168.21 2.37684 1.84193 0
M  V30 11286 C 1169.75 2.43326 1.9688 0
M  V30 11287 C 1170.23 3.70541 2.69191 0
M  V30 11288 N 1171.72 3.71454 2.76724 0
M  V30 11289 C 1172.45 4.66585 3.33295 0
M  V30 11290 N 1171.95 5.72075 3.90771 0
M  V30 11291 N 1173.74 4.541 3.31284 0
M  V30 11292 H 1165.89 2.10343 0.29487 0
M  V30 11293 H 1168.16 0.928096 0.193239 0
M  V30 11294 H 1167.86 3.27352 1.28582 0
M  V30 11295 H 1167.74 2.47731 2.84445 0
M  V30 11296 H 1170.12 1.54124 2.51654 0
M  V30 11297 H 1170.21 2.3724 0.956596 0
M  V30 11298 H 1169.85 4.60111 2.15083 0
M  V30 11299 H 1169.78 3.73894 3.70825 0
M  V30 11300 H 1172.27 2.952 2.35936 0
M  V30 11301 H 1172.58 6.40738 4.32058 0
M  V30 11302 H 1170.93 5.75844 3.89138 0
M  V30 11303 H 1174.12 3.70861 2.85622 0
M  V30 11304 H 1174.29 5.28416 3.75074 0
M  V30 11305 N 1167.7 -1.08142 1.14644 0
M  V30 11306 C 1168.93 -1.84318 0.939926 0
M  V30 11307 C 1169.34 -1.81735 -0.511636 0
M  V30 11308 O 1168.7 -1.22297 -1.35461 0
M  V30 11309 C 1168.75 -3.31744 1.43625 0
M  V30 11310 O 1168.47 -3.3435 2.83094 0
M  V30 11311 C 1169.97 -4.24717 1.27007 0
M  V30 11312 H 1167.19 -0.581781 0.334323 0
M  V30 11313 H 1169.74 -1.36561 1.52221 0
M  V30 11314 H 1167.89 -3.7688 0.896664 0
M  V30 11315 H 1168.31 -4.26399 3.05425 0
M  V30 11316 H 1169.78 -5.26262 1.66591 0
M  V30 11317 H 1170.26 -4.38682 0.213257 0
M  V30 11318 H 1170.86 -3.85409 1.79833 0
M  V30 11319 N 1169.18 -0.941978 -1.26351 0
M  V30 11320 C 1170.59 -0.644413 -1.46012 0
M  V30 11321 C 1170.79 0.802031 -1.84851 0
M  V30 11322 O 1169.85 1.57859 -1.9707 0
M  V30 11323 C 1171.16 -1.60652 -2.54188 0
M  V30 11324 C 1172.71 -1.6163 -2.68038 0
M  V30 11325 C 1173.19 -2.56573 -3.79387 0
M  V30 11326 N 1174.68 -2.54863 -3.8678 0
M  V30 11327 C 1175.41 -3.2501 -4.72394 0
M  V30 11328 N 1174.91 -4.04586 -5.6239 0
M  V30 11329 N 1176.7 -3.13958 -4.66247 0
M  V30 11330 H 1168.85 -1.8769 -0.994293 0
M  V30 11331 H 1171.11 -0.806621 -0.498063 0
M  V30 11332 H 1170.82 -2.63907 -2.32478 0
M  V30 11333 H 1170.69 -1.3592 -3.5186 0
M  V30 11334 H 1173.08 -0.59099 -2.89122 0
M  V30 11335 H 1173.16 -1.90417 -1.70807 0
M  V30 11336 H 1172.81 -3.59223 -3.59056 0
M  V30 11337 H 1172.74 -2.25077 -4.76076 0
M  V30 11338 H 1175.23 -1.97082 -3.22439 0
M  V30 11339 H 1175.54 -4.55061 -6.24612 0
M  V30 11340 H 1173.89 -4.08687 -5.62139 0
M  V30 11341 H 1177.08 -2.51273 -3.94943 0
M  V30 11342 H 1177.25 -3.68894 -5.32749 0
M  V30 11343 N 1170.66 1.40747 -0.709091 0
M  V30 11344 C 1171.89 2.05022 -0.254887 0
M  V30 11345 C 1172.29 1.5351 1.10595 0
M  V30 11346 O 1171.64 0.683912 1.70494 0
M  V30 11347 C 1171.7 3.59188 -0.149823 0
M  V30 11348 C 1171.36 4.33557 -1.44489 0
M  V30 11349 C 1172.36 4.61941 -2.3855 0
M  V30 11350 C 1170.04 4.72585 -1.70201 0
M  V30 11351 C 1172.04 5.2833 -3.56575 0
M  V30 11352 C 1169.73 5.38707 -2.88509 0
M  V30 11353 C 1170.72 5.66509 -3.81518 0
M  V30 11354 O 1170.41 6.31267 -4.97752 0
M  V30 11355 H 1170.14 0.666405 -0.113493 0
M  V30 11356 H 1172.7 1.81261 -0.966099 0
M  V30 11357 H 1170.93 3.81742 0.617276 0
M  V30 11358 H 1172.62 4.05008 0.268965 0
M  V30 11359 H 1173.38 4.32259 -2.19947 0
M  V30 11360 H 1169.26 4.50318 -0.986628 0
M  V30 11361 H 1172.81 5.49947 -4.2919 0
M  V30 11362 H 1168.7 5.67809 -3.07023 0
M  V30 11363 H 1169.47 6.49764 -4.97745 0
M  V30 11364 N 1172.13 0.454803 1.50895 0
M  V30 11365 C 1173.08 -0.361974 2.29766 0
M  V30 11366 C 1174.08 -1.00519 1.36353 0
M  V30 11367 O 1175.28 -0.938159 1.53618 0
M  V30 11368 H 1171.66 -0.135559 0.739681 0
M  V30 11369 H 1173.63 0.323853 2.96637 0
M  V30 11370 C 1172.38 -1.44078 3.16444 0
M  V30 11371 H 1171.7 -0.955212 3.88221 0
M  V30 11372 H 1173.14 -1.98518 3.74655 0
M  V30 11373 C 1171.6 -2.43374 2.32961 0
M  V30 11374 O 1172.13 -3.48295 2.00133 0
M  V30 11375 N 1170.33 -2.14689 1.95849 0
M  V30 11376 H 1169.88 -1.29392 2.22745 0
M  V30 11377 H 1169.84 -2.81363 1.40292 0
M  V30 11378 N 1173.61 -1.56489 0.186789 0
M  V30 11379 C 1174.57 -2.17478 -0.723596 0
M  V30 11380 C 1175.57 -1.12698 -1.14699 0
M  V30 11381 O 1176.76 -1.38128 -1.06143 0
M  V30 11382 C 1173.9 -2.77015 -1.98685 0
M  V30 11383 H 1175.09 -2.99282 -0.192403 0
M  V30 11384 H 1172.64 -1.56174 -0.0628153 0
M  V30 11385 H 1173.38 -1.98987 -2.56076 0
M  V30 11386 H 1173.16 -3.53711 -1.69207 0
M  V30 11387 H 1174.65 -3.23872 -2.63622 0
M  V30 11388 N 1175.09 0.086862 -1.5736 0
M  V30 11389 C 1176.32 0.802167 -1.90717 0
M  V30 11390 C 1176.73 1.71875 -0.781304 0
M  V30 11391 O 1176.09 1.80831 0.246255 0
M  V30 11392 C 1176.14 1.60858 -3.23739 0
M  V30 11393 O 1175.86 0.728851 -4.31995 0
M  V30 11394 C 1177.36 2.42621 -3.71012 0
M  V30 11395 H 1174.58 0.228914 -0.630745 0
M  V30 11396 H 1177.13 0.061634 -2.04407 0
M  V30 11397 H 1175.28 2.30153 -3.11622 0
M  V30 11398 H 1175.7 1.2882 -5.08435 0
M  V30 11399 H 1177.17 2.94683 -4.66761 0
M  V30 11400 H 1177.65 3.21462 -2.99264 0
M  V30 11401 H 1178.25 1.78509 -3.86024 0
M  V30 11402 N 1176.57 1.53483 0.357892 0
M  V30 11403 C 1177.8 1.73956 1.12013 0
M  V30 11404 C 1178.21 0.472053 1.82803 0
M  V30 11405 O 1177.57 -0.555499 1.7384 0
M  V30 11406 C 1177.62 2.91015 2.14459 0
M  V30 11407 O 1177.34 4.12862 1.4655 0
M  V30 11408 C 1178.84 3.23423 3.0317 0
M  V30 11409 H 1176.06 0.58161 0.334621 0
M  V30 11410 H 1178.6 2.00256 0.414467 0
M  V30 11411 H 1176.76 2.67087 2.80612 0
M  V30 11412 H 1177.17 4.78468 2.14869 0
M  V30 11413 H 1178.65 4.08717 3.71018 0
M  V30 11414 H 1179.12 2.39114 3.68404 0
M  V30 11415 H 1179.73 3.49305 2.42624 0
M  V30 11416 N 1178.05 -0.61812 1.44973 0
M  V30 11417 C 1179.28 -1.40225 1.51725 0
M  V30 11418 C 1179.68 -1.88643 0.145098 0
M  V30 11419 O 1179.03 -1.62237 -0.861677 0
M  V30 11420 C 1179.09 -2.64808 2.4314 0
M  V30 11421 C 1178.75 -2.381 3.90073 0
M  V30 11422 C 1179.75 -1.99116 4.80259 0
M  V30 11423 C 1177.43 -2.51338 4.34896 0
M  V30 11424 C 1179.43 -1.73716 6.13271 0
M  V30 11425 C 1177.12 -2.25552 5.67952 0
M  V30 11426 C 1178.11 -1.86801 6.56958 0
M  V30 11427 O 1177.8 -1.6131 7.8755 0
M  V30 11428 H 1177.53 -0.436024 0.516584 0
M  V30 11429 H 1180.09 -0.761929 1.90745 0
M  V30 11430 H 1178.32 -3.31524 1.9907 0
M  V30 11431 H 1180.01 -3.26835 2.40694 0
M  V30 11432 H 1180.77 -1.88435 4.46897 0
M  V30 11433 H 1176.65 -2.80468 3.65867 0
M  V30 11434 H 1180.2 -1.43395 6.82703 0
M  V30 11435 H 1176.09 -2.35847 6.00872 0
M  V30 11436 H 1176.86 -1.75449 7.99475 0
M  V30 11437 N 1179.52 -1.32087 -0.859693 0
M  V30 11438 C 1180.45 -1.23204 -1.98351 0
M  V30 11439 C 1181.43 -0.116974 -1.69697 0
M  V30 11440 O 1182.62 -0.303301 -1.91817 0
M  V30 11441 C 1179.75 -0.949171 -3.34078 0
M  V30 11442 C 1178.7 -2.02493 -3.77069 0
M  V30 11443 C 1178.03 -1.59455 -5.1037 0
M  V30 11444 C 1179.33 -3.43934 -3.93074 0
M  V30 11445 H 1181.02 -2.17227 -2.0604 0
M  V30 11446 H 1178.57 -1.04577 -0.989931 0
M  V30 11447 H 1180.52 -0.873594 -4.12245 0
M  V30 11448 H 1179.25 0.0267095 -3.26589 0
M  V30 11449 H 1177.91 -2.09057 -3.01149 0
M  V30 11450 H 1177.55 -0.606256 -4.99333 0
M  V30 11451 H 1177.25 -2.31429 -5.40106 0
M  V30 11452 H 1178.78 -1.53325 -5.91036 0
M  V30 11453 H 1180.19 -3.39986 -4.61608 0
M  V30 11454 H 1178.59 -4.14214 -4.3422 0
M  V30 11455 H 1179.66 -3.83965 -2.9614 0
M  V30 11456 N 1181 1.07532 -1.15215 0
M  V30 11457 C 1182.41 1.61567 -0.935568 0
M  V30 11458 C 1182.76 1.89085 0.523557 0
M  V30 11459 O 1181.89 1.65495 1.39429 0
M  V30 11460 C 1182.48 2.93531 -1.69189 0
M  V30 11461 C 1181.04 3.44316 -1.52063 0
M  V30 11462 C 1180.19 2.18404 -1.70866 0
M  V30 11463 H 1183.14 0.906431 -1.30267 0
M  V30 11464 H 1183.16 3.62377 -1.16031 0
M  V30 11465 H 1182.67 2.73471 -2.75381 0
M  V30 11466 H 1180.77 3.69462 -0.482567 0
M  V30 11467 H 1180.89 4.20478 -2.29642 0
M  V30 11468 H 1179.25 2.28012 -1.13502 0
M  V30 11469 H 1180.03 2.00841 -2.7842 0
M  V30 11470 N 1182.48 0.948665 1.2585 0
M  V30 11471 C 1183.89 0.641829 1.75321 0
M  V30 11472 C 1184.24 -0.842903 1.77171 0
M  V30 11473 O 1183.37 -1.65967 1.38867 0
M  V30 11474 C 1183.96 1.15835 3.18383 0
M  V30 11475 C 1182.52 0.901784 3.65438 0
M  V30 11476 C 1181.67 1.30489 2.44679 0
M  V30 11477 H 1184.62 1.12614 1.1182 0
M  V30 11478 H 1184.64 0.515639 3.7699 0
M  V30 11479 H 1184.15 2.23897 3.17004 0
M  V30 11480 H 1182.25 -0.164135 3.72238 0
M  V30 11481 H 1182.37 1.53405 4.53876 0
M  V30 11482 H 1180.73 0.723278 2.44215 0
M  V30 11483 H 1181.51 2.3946 2.45996 0
M  V30 11484 N 1183.96 -1.40369 0.716545 0
M  V30 11485 C 1185.18 -2.05704 0.264729 0
M  V30 11486 C 1185.61 -1.53634 -1.08527 0
M  V30 11487 O 1184.97 -0.67212 -1.68381 0
M  V30 11488 C 1185.01 -3.59692 0.255778 0
M  V30 11489 O 1184.12 -4.05286 -0.762686 0
M  V30 11490 H 1183.46 -0.652301 0.124092 0
M  V30 11491 H 1185.99 -1.7975 0.977295 0
M  V30 11492 H 1186 -4.07892 0.0937944 0
M  V30 11493 H 1184.67 -3.96955 1.24095 0
M  V30 11494 H 1183.25 -3.68543 -0.568347 0
M  V30 11495 N 1185.44 -0.462799 -1.50652 0
M  V30 11496 C 1186.66 0.0929761 -2.06691 0
M  V30 11497 C 1187.08 1.34241 -1.32758 0
M  V30 11498 O 1186.44 1.78187 -0.394427 0
M  V30 11499 C 1186.49 0.389492 -3.59396 0
M  V30 11500 O 1186.21 -0.810379 -4.3054 0
M  V30 11501 C 1187.71 0.993147 -4.32032 0
M  V30 11502 H 1184.93 -0.00338664 -0.670991 0
M  V30 11503 H 1187.47 -0.649201 -1.93922 0
M  V30 11504 H 1185.63 1.08159 -3.71995 0
M  V30 11505 H 1186.04 -0.54996 -5.21609 0
M  V30 11506 H 1187.52 1.15044 -5.39878 0
M  V30 11507 H 1187.99 1.98106 -3.91983 0
M  V30 11508 H 1188.6 0.339677 -4.23941 0
M  V30 11509 N 1186.91 1.56388 -0.195085 0
M  V30 11510 C 1188.14 2.02406 0.452399 0
M  V30 11511 C 1188.56 1.07432 1.54402 0
M  V30 11512 O 1187.92 0.0578246 1.81208 0
M  V30 11513 C 1187.97 3.46864 0.985778 0
M  V30 11514 O 1187.07 3.55007 2.09867 0
M  V30 11515 H 1186.42 0.65553 0.105719 0
M  V30 11516 H 1188.95 2.02299 -0.30596 0
M  V30 11517 H 1188.96 3.86655 1.30238 0
M  V30 11518 H 1187.63 4.15481 0.186662 0
M  V30 11519 H 1186.21 3.2709 1.79071 0
M  V30 11520 N 1188.39 -0.0785156 1.57404 0
M  V30 11521 C 1189.62 -0.795871 1.91522 0
M  V30 11522 C 1190.04 -1.70665 0.790892 0
M  V30 11523 O 1189.4 -1.79474 -0.25666 0
M  V30 11524 C 1189.45 -1.57121 3.24569 0
M  V30 11525 O 1188.55 -2.6814 3.13328 0
M  V30 11526 H 1187.89 -0.217575 0.627341 0
M  V30 11527 H 1190.42 -0.0487724 2.04542 0
M  V30 11528 H 1190.43 -1.9519 3.5828 0
M  V30 11529 H 1189.11 -0.902909 4.05981 0
M  V30 11530 H 1187.69 -2.32978 2.91163 0
M  V30 11531 N 1189.87 -1.5367 -0.349747 0
M  V30 11532 C 1190.82 -1.81223 -1.42922 0
M  V30 11533 C 1191.79 -0.657536 -1.52531 0
M  V30 11534 O 1192.97 -0.90134 -1.68168 0
M  V30 11535 C 1190.11 -2.022 -2.79659 0
M  V30 11536 C 1189.23 -3.29915 -2.78891 0
M  V30 11537 C 1188.36 -3.40993 -4.07305 0
M  V30 11538 C 1187.4 -4.6268 -4.00741 0
M  V30 11539 N 1186.54 -4.70826 -5.20833 0
M  V30 11540 H 1191.38 -2.73328 -1.18727 0
M  V30 11541 H 1188.91 -1.35386 -0.57525 0
M  V30 11542 H 1190.87 -2.12351 -3.59114 0
M  V30 11543 H 1189.5 -1.13416 -3.0222 0
M  V30 11544 H 1188.55 -3.28637 -1.91577 0
M  V30 11545 H 1189.87 -4.19459 -2.69917 0
M  V30 11546 H 1189.02 -3.50542 -4.95182 0
M  V30 11547 H 1187.76 -2.49493 -4.19052 0
M  V30 11548 H 1186.76 -4.53215 -3.11249 0
M  V30 11549 H 1187.99 -5.55538 -3.90582 0
M  V30 11550 H 1185.93 -3.82233 -5.33136 0
M  V30 11551 H 1185.85 -5.54297 -5.14092 0
M  V30 11552 H 1187.12 -4.84677 -6.10499 0
M  V30 11553 N 1191.35 0.610423 -1.45298 0
M  V30 11554 C 1192.28 1.73207 -1.56594 0
M  V30 11555 C 1193.26 1.64893 -0.417651 0
M  V30 11556 O 1194.44 1.83336 -0.64043 0
M  V30 11557 C 1191.57 3.11803 -1.52959 0
M  V30 11558 C 1190.53 3.34925 -2.66475 0
M  V30 11559 C 1189.85 4.73764 -2.47894 0
M  V30 11560 C 1191.15 3.25456 -4.08504 0
M  V30 11561 H 1192.85 1.6401 -2.50482 0
M  V30 11562 H 1190.39 0.787621 -1.20551 0
M  V30 11563 H 1192.35 3.90065 -1.59458 0
M  V30 11564 H 1191.07 3.21833 -0.55599 0
M  V30 11565 H 1189.73 2.59051 -2.59399 0
M  V30 11566 H 1189.38 4.80524 -1.4868 0
M  V30 11567 H 1189.08 4.90191 -3.24016 0
M  V30 11568 H 1190.6 5.54231 -2.56243 0
M  V30 11569 H 1192.02 3.93597 -4.16839 0
M  V30 11570 H 1190.41 3.53414 -4.84994 0
M  V30 11571 H 1191.48 2.22939 -4.30612 0
M  V30 11572 N 1192.83 1.32541 0.852676 0
M  V30 11573 C 1194.24 1.11575 1.14119 0
M  V30 11574 C 1194.44 -0.102469 2.01239 0
M  V30 11575 O 1193.5 -0.786786 2.39929 0
M  V30 11576 C 1194.81 2.39624 1.81661 0
M  V30 11577 C 1196.36 2.454 1.94288 0
M  V30 11578 C 1196.83 3.73375 2.65245 0
M  V30 11579 N 1198.33 3.74368 2.72769 0
M  V30 11580 C 1199.06 4.70094 3.28328 0
M  V30 11581 N 1198.56 5.76187 3.84682 0
M  V30 11582 N 1200.35 4.57588 3.26449 0
M  V30 11583 H 1192.5 2.10644 0.272544 0
M  V30 11584 H 1194.76 0.930094 0.183385 0
M  V30 11585 H 1194.47 3.28698 1.25102 0
M  V30 11586 H 1194.34 2.50734 2.81802 0
M  V30 11587 H 1196.73 1.56784 2.50005 0
M  V30 11588 H 1196.81 2.38241 0.931379 0
M  V30 11589 H 1196.46 4.62366 2.10191 0
M  V30 11590 H 1196.39 3.77806 3.66838 0
M  V30 11591 H 1198.88 2.97685 2.32791 0
M  V30 11592 H 1199.19 6.45285 4.25238 0
M  V30 11593 H 1197.53 5.79939 3.83008 0
M  V30 11594 H 1200.73 3.7387 2.81672 0
M  V30 11595 H 1200.9 5.32365 3.69448 0
M  V30 11596 N 1194.3 -1.0692 1.15784 0
M  V30 11597 C 1195.72 -1.61069 0.944123 0
M  V30 11598 C 1196.07 -1.8936 -0.513522 0
M  V30 11599 O 1195.19 -1.66232 -1.38549 0
M  V30 11600 C 1195.79 -2.9263 1.70743 0
M  V30 11601 C 1194.35 -3.43505 1.53887 0
M  V30 11602 C 1193.49 -2.17495 1.72021 0
M  V30 11603 H 1196.44 -0.89951 1.30746 0
M  V30 11604 H 1196.46 -3.61757 1.17951 0
M  V30 11605 H 1195.98 -2.72007 2.76828 0
M  V30 11606 H 1194.08 -3.69201 0.502153 0
M  V30 11607 H 1194.19 -4.19254 2.31868 0
M  V30 11608 H 1192.55 -2.27407 1.1471 0
M  V30 11609 H 1193.34 -1.99362 2.79481 0
M  V30 11610 N 1195.78 -0.955326 -1.25345 0
M  V30 11611 C 1197.2 -0.659863 -1.4532 0
M  V30 11612 C 1197.4 0.78238 -1.85691 0
M  V30 11613 O 1196.45 1.5576 -1.98734 0
M  V30 11614 C 1197.77 -1.63339 -2.5247 0
M  V30 11615 C 1199.32 -1.64464 -2.66309 0
M  V30 11616 C 1199.79 -2.60583 -3.76644 0
M  V30 11617 N 1201.28 -2.58951 -3.84055 0
M  V30 11618 C 1202.02 -3.30002 -4.6892 0
M  V30 11619 N 1201.51 -4.10528 -5.58067 0
M  V30 11620 N 1203.31 -3.18886 -4.62891 0
M  V30 11621 H 1195.46 -1.88734 -0.97433 0
M  V30 11622 H 1197.72 -0.811858 -0.48948 0
M  V30 11623 H 1197.43 -2.66358 -2.29665 0
M  V30 11624 H 1197.3 -1.39644 -3.50399 0
M  V30 11625 H 1199.69 -0.621622 -2.88479 0
M  V30 11626 H 1199.77 -1.92218 -1.68778 0
M  V30 11627 H 1199.41 -3.63011 -3.55226 0
M  V30 11628 H 1199.34 -2.30113 -4.73662 0
M  V30 11629 H 1201.83 -2.00491 -3.20331 0
M  V30 11630 H 1202.15 -4.6166 -6.1975 0
M  V30 11631 H 1200.49 -4.14626 -5.57773 0
M  V30 11632 H 1203.68 -2.55447 -3.92255 0
M  V30 11633 H 1203.85 -3.74524 -5.28806 0
M  V30 11634 N 1197.26 1.39987 -0.723979 0
M  V30 11635 C 1198.51 2.01514 -0.276365 0
M  V30 11636 C 1198.86 1.56399 1.12058 0
M  V30 11637 O 1198.16 0.777927 1.75097 0
M  V30 11638 C 1198.35 3.56101 -0.304472 0
M  V30 11639 C 1198.18 4.16223 -1.70261 0
M  V30 11640 C 1196.95 4.49292 -2.31225 0
M  V30 11641 C 1199.15 4.40512 -2.65431 0
M  V30 11642 N 1197.13 4.94854 -3.63308 0
M  V30 11643 C 1198.5 4.88158 -3.82232 0
M  V30 11644 C 1200.55 4.22562 -2.63335 0
M  V30 11645 C 1199.26 5.19739 -4.97256 0
M  V30 11646 C 1201.28 4.5525 -3.77493 0
M  V30 11647 C 1200.65 5.03093 -4.93028 0
M  V30 11648 H 1196.74 0.768031 -0.147146 0
M  V30 11649 H 1199.33 1.70085 -0.947581 0
M  V30 11650 H 1197.5 3.86941 0.336344 0
M  V30 11651 H 1199.23 4.04381 0.160647 0
M  V30 11652 H 1195.99 4.36712 -1.83248 0
M  V30 11653 H 1196.41 5.22007 -4.31089 0
M  V30 11654 H 1201.05 3.84786 -1.75212 0
M  V30 11655 H 1198.77 5.56426 -5.86017 0
M  V30 11656 H 1202.36 4.42995 -3.77156 0
M  V30 11657 H 1201.24 5.27909 -5.79898 0
M  V30 11658 N 1198.74 0.470782 1.50404 0
M  V30 11659 C 1199.97 -0.0820134 2.06737 0
M  V30 11660 C 1200.38 -1.33535 1.33468 0
M  V30 11661 O 1199.74 -1.77975 0.403872 0
M  V30 11662 C 1199.79 -0.370427 3.59597 0
M  V30 11663 O 1199.51 0.8332 4.30104 0
M  V30 11664 C 1201.01 -0.970222 4.32552 0
M  V30 11665 H 1198.23 0.00694502 0.670964 0
M  V30 11666 H 1200.78 0.659476 1.93575 0
M  V30 11667 H 1198.93 -1.06185 3.72563 0
M  V30 11668 H 1199.35 0.577614 5.2131 0
M  V30 11669 H 1200.82 -1.1218 5.40481 0
M  V30 11670 H 1201.3 -1.96024 3.93028 0
M  V30 11671 H 1201.9 -0.31719 4.24116 0
M  V30 11672 N 1200.22 -1.56282 0.203376 0
M  V30 11673 C 1201.46 -1.97812 -0.433202 0
M  V30 11674 C 1201.79 -1.09052 -1.61053 0
M  V30 11675 O 1201.05 -0.131417 -1.95258 0
M  V30 11676 C 1201.35 -3.45148 -0.927759 0
M  V30 11677 C 1201.01 -4.50692 0.137083 0
M  V30 11678 C 1199.67 -4.79278 0.429652 0
M  V30 11679 C 1202.03 -5.14086 0.858174 0
M  V30 11680 C 1199.35 -5.68547 1.44815 0
M  V30 11681 C 1201.71 -6.04457 1.86588 0
M  V30 11682 C 1200.37 -6.31395 2.16556 0
M  V30 11683 H 1199.64 -0.723846 -0.15852 0
M  V30 11684 H 1202.29 -1.89102 0.302082 0
M  V30 11685 H 1200.59 -3.5097 -1.74147 0
M  V30 11686 H 1202.29 -3.74642 -1.42984 0
M  V30 11687 H 1198.88 -4.28481 -0.101111 0
M  V30 11688 H 1203.06 -4.92086 0.645376 0
M  V30 11689 H 1198.32 -5.87689 1.68615 0
M  V30 11690 H 1202.49 -6.52636 2.4298 0
M  V30 11691 H 1200.12 -7.00366 2.9562 0
M  V30 11692 N 1201.7 0.070167 -1.57444 0
M  V30 11693 C 1202.92 0.781894 -1.91557 0
M  V30 11694 C 1203.34 1.71037 -0.799489 0
M  V30 11695 O 1202.7 1.81082 0.227062 0
M  V30 11696 C 1202.75 1.57415 -3.25427 0
M  V30 11697 O 1202.47 0.682991 -4.32743 0
M  V30 11698 C 1203.97 2.38673 -3.73564 0
M  V30 11699 H 1201.19 0.222211 -0.633138 0
M  V30 11700 H 1203.73 0.0399504 -2.04461 0
M  V30 11701 H 1201.89 2.26835 -3.14045 0
M  V30 11702 H 1202.3 1.2342 -5.09772 0
M  V30 11703 H 1203.78 2.89716 -4.6986 0
M  V30 11704 H 1204.25 3.18269 -3.02657 0
M  V30 11705 H 1204.86 1.74405 -3.87896 0
M  V30 11706 N 1203.17 1.53854 0.341593 0
M  V30 11707 C 1204.4 1.75447 1.10604 0
M  V30 11708 C 1204.82 0.493225 1.81518 0
M  V30 11709 O 1204.18 -0.554253 1.7262 0
M  V30 11710 C 1204.23 2.93593 2.09369 0
M  V30 11711 O 1203.33 2.63878 3.16926 0
M  V30 11712 H 1202.67 0.581923 0.319783 0
M  V30 11713 H 1205.2 2.00822 0.391388 0
M  V30 11714 H 1205.21 3.20437 2.52556 0
M  V30 11715 H 1203.89 3.85067 1.57151 0
M  V30 11716 H 1202.47 2.47929 2.78542 0
M  V30 11717 N 1204.65 -0.602709 1.4562 0
M  V30 11718 C 1206.06 -1.1847 1.44297 0
M  V30 11719 C 1206.41 -1.95434 0.17316 0
M  V30 11720 O 1205.54 -2.03894 -0.724986 0
M  V30 11721 C 1206.13 -2.15508 2.61422 0
M  V30 11722 C 1204.69 -2.69073 2.63204 0
M  V30 11723 C 1203.84 -1.44568 2.36633 0
M  V30 11724 H 1206.79 -0.391745 1.53789 0
M  V30 11725 H 1206.81 -2.98628 2.35799 0
M  V30 11726 H 1206.32 -1.59464 3.53826 0
M  V30 11727 H 1204.42 -3.29042 1.7482 0
M  V30 11728 H 1204.54 -3.13173 3.62573 0
M  V30 11729 H 1202.9 -1.73692 1.86287 0
M  V30 11730 H 1203.68 -0.903852 3.31188 0
M  V30 11731 N 1206.13 -1.32992 -0.845635 0
M  V30 11732 C 1207.54 -1.21616 -1.41656 0
M  V30 11733 C 1207.89 0.167687 -1.95482 0
M  V30 11734 O 1207.02 1.06692 -1.8827 0
M  V30 11735 C 1207.61 -2.2018 -2.575 0
M  V30 11736 C 1206.17 -2.12664 -3.10565 0
M  V30 11737 C 1205.32 -2.08042 -1.83341 0
M  V30 11738 H 1208.27 -1.44688 -0.651993 0
M  V30 11739 H 1208.29 -1.80558 -3.34931 0
M  V30 11740 H 1207.8 -3.20888 -2.18294 0
M  V30 11741 H 1205.9 -1.15235 -3.54333 0
M  V30 11742 H 1206.02 -3.02902 -3.71197 0
M  V30 11743 H 1204.38 -1.53416 -2.03312 0
M  V30 11744 H 1205.16 -3.10547 -1.46339 0
M  V30 11745 N 1207.61 1.06304 -1.1635 0
M  V30 11746 C 1208.85 1.79366 -0.94634 0
M  V30 11747 C 1209.19 1.86981 0.524569 0
M  V30 11748 O 1208.46 1.36134 1.38917 0
M  V30 11749 C 1208.74 3.23861 -1.57436 0
M  V30 11750 C 1208.6 3.24327 -3.1166 0
M  V30 11751 C 1209.92 4.21409 -1.26895 0
M  V30 11752 H 1207.04 0.65115 -0.345215 0
M  V30 11753 H 1209.68 1.24325 -1.43678 0
M  V30 11754 H 1207.83 3.70862 -1.15731 0
M  V30 11755 H 1209.5 2.85488 -3.62346 0
M  V30 11756 H 1207.74 2.62983 -3.44997 0
M  V30 11757 H 1208.41 4.2626 -3.50723 0
M  V30 11758 H 1210.89 3.8285 -1.62989 0
M  V30 11759 H 1209.77 5.20778 -1.73439 0
M  V30 11760 H 1210.03 4.41701 -0.187768 0
M  V30 11761 N 1209.09 0.96196 1.24836 0
M  V30 11762 C 1210.31 0.63814 1.96813 0
M  V30 11763 C 1210.73 -0.79127 1.71419 0
M  V30 11764 O 1210.09 -1.5302 0.994546 0
M  V30 11765 C 1210.14 0.89626 3.50213 0
M  V30 11766 O 1209.86 2.26947 3.74735 0
M  V30 11767 C 1211.36 0.585836 4.39412 0
M  V30 11768 H 1208.58 0.238598 0.627146 0
M  V30 11769 H 1211.12 1.28833 1.58815 0
M  V30 11770 H 1209.28 0.292368 3.86295 0
M  V30 11771 H 1209.69 2.34514 4.69152 0
M  V30 11772 H 1211.17 0.816935 5.45921 0
M  V30 11773 H 1211.64 -0.479784 4.36572 0
M  V30 11774 H 1212.25 1.16938 4.08908 0
M  V30 11775 N 1210.56 -1.39601 0.731392 0
M  V30 11776 C 1211.79 -2.04887 0.28789 0
M  V30 11777 C 1212.21 -1.55138 -1.076 0
M  V30 11778 O 1211.56 -0.71471 -1.67923 0
M  V30 11779 C 1211.61 -3.6044 0.276629 0
M  V30 11780 O 1211.34 -4.08358 1.58668 0
M  V30 11781 C 1212.84 -4.4292 -0.183485 0
M  V30 11782 H 1210.06 -0.658976 0.126459 0
M  V30 11783 H 1212.6 -1.78716 0.994031 0
M  V30 11784 H 1210.76 -3.85526 -0.380597 0
M  V30 11785 H 1211.17 -5.02659 1.4978 0
M  V30 11786 H 1212.64 -5.51822 -0.140207 0
M  V30 11787 H 1213.12 -4.2168 -1.22811 0
M  V30 11788 H 1213.73 -4.22976 0.444042 0
M  V30 11789 N 1212.04 -0.478751 -1.50152 0
M  V30 11790 C 1213.01 0.300181 -2.27226 0
M  V30 11791 C 1214.01 0.913705 -1.32318 0
M  V30 11792 O 1215.2 0.781692 -1.55677 0
M  V30 11793 C 1212.33 1.42838 -3.09532 0
M  V30 11794 H 1213.52 -0.375845 -2.97536 0
M  V30 11795 H 1211.07 -0.233037 -1.54553 0
M  V30 11796 H 1211.81 2.13923 -2.43737 0
M  V30 11797 H 1211.59 0.994161 -3.79287 0
M  V30 11798 H 1213.08 1.97765 -3.67802 0
M  V30 11799 N 1213.52 1.56172 -0.211661 0
M  V30 11800 C 1214.45 2.17107 0.734657 0
M  V30 11801 C 1215.47 1.1374 1.16478 0
M  V30 11802 O 1216.65 1.40763 1.09764 0
M  V30 11803 C 1213.75 2.73182 2.00561 0
M  V30 11804 C 1212.93 4.0162 1.73264 0
M  V30 11805 C 1211.99 4.42357 2.84968 0
M  V30 11806 O 1211.01 5.09453 2.53863 0
M  V30 11807 N 1212.21 4.07223 4.13702 0
M  V30 11808 H 1214.98 2.98939 0.213475 0
M  V30 11809 H 1212.54 1.61872 -0.0302898 0
M  V30 11810 H 1214.53 2.97411 2.74461 0
M  V30 11811 H 1213.1 1.9571 2.43754 0
M  V30 11812 H 1212.32 3.85351 0.830575 0
M  V30 11813 H 1213.61 4.85426 1.52445 0
M  V30 11814 H 1213.01 3.53286 4.4182 0
M  V30 11815 H 1211.57 4.36366 4.84178 0
M  V30 11816 N 1215 -0.0618163 1.57479 0
M  V30 11817 C 1215.96 -1.05684 2.0338 0
M  V30 11818 C 1216.96 -1.31006 0.932423 0
M  V30 11819 O 1218.15 -1.26559 1.19702 0
M  V30 11820 C 1215.28 -2.39805 2.42294 0
M  V30 11821 H 1216.48 -0.661006 2.92525 0
M  V30 11822 H 1214.03 -0.307814 1.53239 0
M  V30 11823 H 1214.76 -2.84201 1.56207 0
M  V30 11824 H 1214.55 -2.22764 3.22674 0
M  V30 11825 H 1216.04 -3.11307 2.78349 0
M  V30 11826 N 1216.48 -1.54033 -0.333429 0
M  V30 11827 C 1217.7 -1.75716 -1.09232 0
M  V30 11828 C 1218.12 -0.501076 -1.82029 0
M  V30 11829 O 1217.48 0.527772 -1.74702 0
M  V30 11830 C 1217.53 -2.9439 -2.09802 0
M  V30 11831 O 1217.25 -4.15141 -1.39963 0
M  V30 11832 C 1218.75 -3.28206 -2.97987 0
M  V30 11833 H 1215.97 -0.586859 -0.325326 0
M  V30 11834 H 1218.51 -2.0089 -0.382555 0
M  V30 11835 H 1216.67 -2.71518 -2.76327 0
M  V30 11836 H 1217.08 -4.81826 -2.0723 0
M  V30 11837 H 1218.56 -4.14568 -3.64469 0
M  V30 11838 H 1219.03 -2.44944 -3.64553 0
M  V30 11839 H 1219.64 -3.5312 -2.37036 0
M  V30 11840 N 1217.95 0.594978 -1.45938 0
M  V30 11841 C 1219.2 1.35561 -1.50834 0
M  V30 11842 C 1219.53 1.93584 -0.154566 0
M  V30 11843 O 1218.81 1.75781 0.832541 0
M  V30 11844 C 1219.09 2.49414 -2.5974 0
M  V30 11845 C 1218.94 1.96506 -4.04605 0
M  V30 11846 C 1220.26 3.51505 -2.64825 0
M  V30 11847 H 1217.38 0.491549 -0.549134 0
M  V30 11848 H 1220.02 0.669536 -1.77812 0
M  V30 11849 H 1218.17 3.07939 -2.36866 0
M  V30 11850 H 1219.85 1.42533 -4.38728 0
M  V30 11851 H 1218.09 1.27418 -4.14665 0
M  V30 11852 H 1218.76 2.78636 -4.76515 0
M  V30 11853 H 1221.24 3.02841 -2.85353 0
M  V30 11854 H 1220.11 4.28641 -3.42867 0
M  V30 11855 H 1220.37 4.07942 -1.70399 0
M  V30 11856 N 1219.43 1.33438 0.838571 0
M  V30 11857 C 1220.84 1.22366 1.41009 0
M  V30 11858 C 1221.19 -0.157317 1.95568 0
M  V30 11859 O 1220.32 -1.05692 1.88834 0
M  V30 11860 C 1220.91 2.21542 2.56329 0
M  V30 11861 C 1219.47 2.14309 3.09433 0
M  V30 11862 C 1218.62 2.09012 1.82235 0
M  V30 11863 H 1221.57 1.45032 0.64431 0
M  V30 11864 H 1221.59 1.82332 3.33969 0
M  V30 11865 H 1221.1 3.22042 2.16589 0
M  V30 11866 H 1219.21 1.17113 3.53717 0
M  V30 11867 H 1219.32 3.04866 3.69586 0
M  V30 11868 H 1217.68 1.54492 2.02495 0
M  V30 11869 H 1218.47 3.11319 1.4469 0
M  V30 11870 N 1220.91 -1.05686 1.16912 0
M  V30 11871 C 1222.16 -1.78862 0.955839 0
M  V30 11872 C 1222.49 -1.87257 -0.514645 0
M  V30 11873 O 1221.76 -1.36869 -1.38193 0
M  V30 11874 C 1222.05 -3.23021 1.59152 0
M  V30 11875 C 1221.9 -3.22669 3.13376 0
M  V30 11876 C 1223.22 -4.2073 1.29128 0
M  V30 11877 H 1220.34 -0.64931 0.348663 0
M  V30 11878 H 1222.98 -1.23561 1.44335 0
M  V30 11879 H 1221.13 -3.70243 1.17697 0
M  V30 11880 H 1222.8 -2.83562 3.63855 0
M  V30 11881 H 1221.05 -2.61149 3.46386 0
M  V30 11882 H 1221.72 -4.24394 3.52979 0
M  V30 11883 H 1224.19 -3.8198 1.65017 0
M  V30 11884 H 1223.07 -5.19851 1.76198 0
M  V30 11885 H 1223.33 -4.41595 0.21119 0
M  V30 11886 N 1222.39 -0.968567 -1.24324 0
M  V30 11887 C 1223.8 -0.66964 -1.74278 0
M  V30 11888 C 1224.15 0.81461 -1.7849 0
M  V30 11889 O 1223.28 1.63736 -1.4149 0
M  V30 11890 C 1223.87 -1.20885 -3.165 0
M  V30 11891 C 1222.43 -0.959808 -3.63957 0
M  V30 11892 C 1221.58 -1.34365 -2.42573 0
M  V30 11893 H 1224.53 -1.14379 -1.10015 0
M  V30 11894 H 1224.55 -0.57555 -3.76122 0
M  V30 11895 H 1224.06 -2.28912 -3.13402 0
M  V30 11896 H 1222.16 0.104894 -3.72452 0
M  V30 11897 H 1222.27 -1.60606 -4.51378 0
M  V30 11898 H 1220.64 -0.762039 -2.43033 0
M  V30 11899 H 1221.42 -2.43343 -2.42155 0
M  V30 11900 N 1223.87 1.39211 -0.738786 0
M  V30 11901 C 1225.28 1.83237 -0.357916 0
M  V30 11902 C 1225.63 1.61698 1.11123 0
M  V30 11903 O 1224.75 1.11017 1.85753 0
M  V30 11904 C 1225.35 3.32645 -0.64285 0
M  V30 11905 C 1223.91 3.75076 -0.315432 0
M  V30 11906 C 1223.05 2.62166 -0.903556 0
M  V30 11907 H 1226.01 1.2815 -0.936127 0
M  V30 11908 H 1226.03 3.80407 0.0840812 0
M  V30 11909 H 1225.54 3.4829 -1.71218 0
M  V30 11910 H 1223.64 3.65017 0.747907 0
M  V30 11911 H 1223.75 4.72363 -0.800638 0
M  V30 11912 H 1222.12 2.52554 -0.329927 0
M  V30 11913 H 1222.9 2.80616 -1.97761 0
M  V30 11914 N 1225.34 0.486708 1.49896 0
M  V30 11915 C 1226.57 -0.0600816 2.06813 0
M  V30 11916 C 1226.99 -1.32112 1.34877 0
M  V30 11917 O 1226.34 -1.77537 0.422725 0
M  V30 11918 C 1226.4 -0.332266 3.5997 0
M  V30 11919 O 1226.12 0.878771 4.29196 0
M  V30 11920 C 1227.62 -0.924289 4.33557 0
M  V30 11921 H 1224.84 0.0140611 0.670853 0
M  V30 11922 H 1227.38 0.67997 1.92864 0
M  V30 11923 H 1225.54 -1.02227 3.73669 0
M  V30 11924 H 1225.95 0.632873 5.20668 0
M  V30 11925 H 1227.42 -1.06441 5.4164 0
M  V30 11926 H 1227.9 -1.91844 3.95085 0
M  V30 11927 H 1228.51 -0.272189 4.24428 0
M  V30 11928 N 1226.82 -1.56058 0.219941 0
M  V30 11929 C 1228.05 -2.031 -0.42014 0
M  V30 11930 C 1228.47 -1.09875 -1.52673 0
M  V30 11931 O 1227.83 -0.0866458 -1.81093 0
M  V30 11932 C 1227.88 -3.48389 -0.93047 0
M  V30 11933 O 1226.98 -3.583 -2.04192 0
M  V30 11934 H 1226.32 -0.657129 -0.0952772 0
M  V30 11935 H 1228.85 -2.01787 0.338105 0
M  V30 11936 H 1228.86 -3.88678 -1.2407 0
M  V30 11937 H 1227.54 -4.15725 -0.120539 0
M  V30 11938 H 1226.12 -3.29898 -1.73845 0
M  V30 11939 N 1228.3 0.053464 -1.57509 0
M  V30 11940 C 1229.23 1.08863 -2.01696 0
M  V30 11941 C 1230.25 1.33916 -0.925765 0
M  V30 11942 O 1231.44 1.31833 -1.20343 0
M  V30 11943 C 1228.54 2.43567 -2.35644 0
M  V30 11944 C 1227.71 2.38215 -3.66841 0
M  V30 11945 C 1226.77 3.55172 -3.88252 0
M  V30 11946 O 1225.79 3.35769 -4.59617 0
M  V30 11947 N 1227 4.76182 -3.3201 0
M  V30 11948 H 1229.76 0.712192 -2.91115 0
M  V30 11949 H 1227.32 0.241829 -1.60084 0
M  V30 11950 H 1229.31 3.20486 -2.47125 0
M  V30 11951 H 1227.88 2.73145 -1.52022 0
M  V30 11952 H 1227.1 1.46557 -3.65943 0
M  V30 11953 H 1228.39 2.31757 -4.52953 0
M  V30 11954 H 1227.79 4.94849 -2.74118 0
M  V30 11955 H 1226.35 5.5055 -3.4891 0
M  V30 11956 N 1229.78 1.54207 0.325255 0
M  V30 11957 C 1231.19 1.63587 0.899793 0
M  V30 11958 C 1231.54 0.528851 1.88938 0
M  V30 11959 O 1230.67 -0.33852 2.13736 0
M  V30 11960 C 1231.26 2.9653 1.63877 0
M  V30 11961 C 1229.82 3.08111 2.16205 0
M  V30 11962 C 1228.97 2.59144 0.986903 0
M  V30 11963 H 1231.92 1.58366 0.102883 0
M  V30 11964 H 1231.94 2.86595 2.50287 0
M  V30 11965 H 1231.45 3.7708 0.918279 0
M  V30 11966 H 1229.55 2.32232 2.91375 0
M  V30 11967 H 1229.67 4.13885 2.41322 0
M  V30 11968 H 1228.03 2.14997 1.36558 0
M  V30 11969 H 1228.81 3.4215 0.28076 0
M  V30 11970 N 1231.26 -0.58723 1.46251 0
M  V30 11971 C 1232.67 -0.910129 1.31106 0
M  V30 11972 C 1232.87 -1.99557 0.279141 0
M  V30 11973 O 1231.93 -2.50466 -0.319867 0
M  V30 11974 C 1233.24 -1.33177 2.69601 0
M  V30 11975 C 1234.79 -1.44486 2.77656 0
M  V30 11976 C 1235.27 -1.90018 4.16722 0
M  V30 11977 N 1236.76 -1.97219 4.19117 0
M  V30 11978 C 1237.49 -2.33714 5.23608 0
M  V30 11979 N 1236.99 -2.69034 6.3843 0
M  V30 11980 N 1238.78 -2.3423 5.10972 0
M  V30 11981 H 1230.93 0.12987 2.12003 0
M  V30 11982 H 1233.19 -0.00456718 0.947989 0
M  V30 11983 H 1232.9 -0.608243 3.464 0
M  V30 11984 H 1232.77 -2.29421 2.99409 0
M  V30 11985 H 1235.16 -2.15926 2.01147 0
M  V30 11986 H 1235.24 -0.465047 2.51537 0
M  V30 11987 H 1234.89 -1.19159 4.93724 0
M  V30 11988 H 1234.82 -2.88949 4.40245 0
M  V30 11989 H 1237.31 -1.72431 3.36268 0
M  V30 11990 H 1237.62 -2.95822 7.13939 0
M  V30 11991 H 1235.97 -2.66683 6.41798 0
M  V30 11992 H 1239.16 -2.06056 4.20308 0
M  V30 11993 H 1239.33 -2.62345 5.92519 0
M  V30 11994 N 1232.74 -1.33881 -0.831482 0
M  V30 11995 C 1233.98 -1.25755 -1.58719 0
M  V30 11996 C 1234.31 0.174746 -1.93713 0
M  V30 11997 O 1233.57 1.13384 -1.59507 0
M  V30 11998 C 1233.86 -2.08544 -2.90249 0
M  V30 11999 C 1233.53 -3.57651 -2.74585 0
M  V30 12000 C 1232.19 -3.983 -2.7002 0
M  V30 12001 C 1234.54 -4.52369 -2.58866 0
M  V30 12002 C 1231.87 -5.31872 -2.47647 0
M  V30 12003 C 1234.22 -5.86112 -2.38025 0
M  V30 12004 C 1232.89 -6.25934 -2.31867 0
M  V30 12005 H 1232.16 -0.460171 -0.580796 0
M  V30 12006 H 1234.81 -1.6554 -0.96274 0
M  V30 12007 H 1233.11 -1.6156 -3.56939 0
M  V30 12008 H 1234.81 -1.99609 -3.47789 0
M  V30 12009 H 1231.4 -3.2538 -2.78973 0
M  V30 12010 H 1235.58 -4.21868 -2.61421 0
M  V30 12011 H 1230.84 -5.61756 -2.41331 0
M  V30 12012 H 1235.01 -6.59103 -2.24847 0
M  V30 12013 H 1232.64 -7.29372 -2.14291 0
M  V30 12014 N 1234.21 1.05064 -1.1747 0
M  V30 12015 C 1235.44 1.82299 -0.98903 0
M  V30 12016 C 1235.86 1.82441 0.457907 0
M  V30 12017 O 1235.22 1.23433 1.32793 0
M  V30 12018 C 1235.27 3.26239 -1.53624 0
M  V30 12019 O 1234.37 4.05507 -0.750857 0
M  V30 12020 H 1233.71 0.563601 -0.35107 0
M  V30 12021 H 1236.24 1.32386 -1.55997 0
M  V30 12022 H 1236.25 3.77038 -1.55906 0
M  V30 12023 H 1234.93 3.25451 -2.58949 0
M  V30 12024 H 1233.51 3.64227 -0.799548 0
M  V30 12025 N 1235.69 0.975146 1.23809 0
M  V30 12026 C 1236.64 0.503396 2.27087 0
M  V30 12027 C 1237.63 -0.43689 1.63669 0
M  V30 12028 O 1238.84 -0.31136 1.77287 0
M  V30 12029 H 1235.21 0.144346 0.738017 0
M  V30 12030 H 1237.19 1.38627 2.64244 0
M  V30 12031 C 1235.93 -0.183682 3.47214 0
M  V30 12032 H 1235.26 0.530753 3.96261 0
M  V30 12033 H 1236.7 -0.477479 4.21303 0
M  V30 12034 C 1235.16 -1.41317 3.05829 0
M  V30 12035 O 1235.69 -2.50975 3.13647 0
M  V30 12036 N 1233.89 -1.28191 2.60798 0
M  V30 12037 H 1233.44 -0.38967 2.54636 0
M  V30 12038 H 1233.4 -2.10565 2.33473 0
M  V30 12039 N 1237.17 -1.38817 0.746158 0
M  V30 12040 C 1238.1 -2.33144 0.128836 0
M  V30 12041 C 1239.08 -1.54487 -0.711873 0
M  V30 12042 O 1240.27 -1.82836 -0.654577 0
M  V30 12043 C 1237.4 -3.38639 -0.770772 0
M  V30 12044 C 1236.35 -4.27987 -0.0333669 0
M  V30 12045 C 1235.68 -5.24274 -1.05073 0
M  V30 12046 C 1236.98 -5.09915 1.13066 0
M  V30 12047 H 1238.67 -2.85019 0.916778 0
M  V30 12048 H 1236.22 -1.37039 0.442306 0
M  V30 12049 H 1238.17 -4.03587 -1.21225 0
M  V30 12050 H 1236.89 -2.8523 -1.59095 0
M  V30 12051 H 1235.55 -3.64534 0.388612 0
M  V30 12052 H 1235.2 -4.67156 -1.86478 0
M  V30 12053 H 1234.9 -5.84906 -0.562037 0
M  V30 12054 H 1236.42 -5.92099 -1.49169 0
M  V30 12055 H 1237.84 -5.68145 0.767084 0
M  V30 12056 H 1236.23 -5.79744 1.54972 0
M  V30 12057 H 1237.3 -4.4409 1.94709 0
M  V30 12058 N 1238.65 -0.49465 -1.49636 0
M  V30 12059 C 1239.87 0.051305 -2.07337 0
M  V30 12060 C 1240.3 1.30637 -1.35335 0
M  V30 12061 O 1239.66 1.76647 -0.408126 0
M  V30 12062 C 1239.7 0.294425 -3.59396 0
M  V30 12063 O 1238.81 1.3704 -3.88965 0
M  V30 12064 H 1238.15 -0.023408 -0.663587 0
M  V30 12065 H 1240.68 -0.692451 -1.92526 0
M  V30 12066 H 1240.69 0.527854 -4.04571 0
M  V30 12067 H 1239.36 -0.622583 -4.11214 0
M  V30 12068 H 1237.94 1.12242 -3.55607 0
M  V30 12069 N 1240.13 1.55939 -0.228214 0
M  V30 12070 C 1241.06 2.16566 0.719321 0
M  V30 12071 C 1242.04 1.11204 1.18627 0
M  V30 12072 O 1243.22 1.39495 1.2678 0
M  V30 12073 C 1240.35 2.75132 1.97536 0
M  V30 12074 C 1239.39 3.93381 1.64783 0
M  V30 12075 S 1240.23 5.29982 0.76678 0
M  V30 12076 C 1241.38 5.91989 2.03223 0
M  V30 12077 H 1241.62 2.96599 0.204035 0
M  V30 12078 H 1239.15 1.54395 -0.0128406 0
M  V30 12079 H 1241.11 3.09512 2.69652 0
M  V30 12080 H 1239.77 1.95079 2.46176 0
M  V30 12081 H 1238.96 4.32884 2.58122 0
M  V30 12082 H 1238.56 3.60181 1.00724 0
M  V30 12083 H 1240.85 6.08368 2.98152 0
M  V30 12084 H 1241.8 6.87858 1.68099 0
M  V30 12085 H 1242.21 5.20883 2.1758 0
M  V30 12086 N 1241.6 -0.0451101 1.57535 0
M  V30 12087 C 1242.53 -1.05046 2.08537 0
M  V30 12088 C 1243.52 -1.3872 0.984418 0
M  V30 12089 O 1244.7 -1.47884 1.25873 0
M  V30 12090 C 1241.83 -2.3562 2.55148 0
M  V30 12091 C 1240.78 -2.16231 3.69362 0
M  V30 12092 C 1240.11 -3.52423 4.02122 0
M  V30 12093 C 1241.41 -1.56159 4.98409 0
M  V30 12094 H 1243.1 -0.625965 2.92783 0
M  V30 12095 H 1240.65 -0.299657 1.40848 0
M  V30 12096 H 1242.6 -3.06266 2.89446 0
M  V30 12097 H 1241.33 -2.80099 1.67964 0
M  V30 12098 H 1239.99 -1.4802 3.35389 0
M  V30 12099 H 1239.63 -3.94522 3.12028 0
M  V30 12100 H 1239.33 -3.4028 4.79044 0
M  V30 12101 H 1240.86 -4.24458 4.38939 0
M  V30 12102 H 1242.27 -2.16703 5.30766 0
M  V30 12103 H 1240.67 -1.54638 5.79834 0
M  V30 12104 H 1241.74 -0.525698 4.82042 0
M  V30 12105 N 1243.08 -1.54377 -0.317073 0
M  V30 12106 C 1244.33 -1.73149 -1.05581 0
M  V30 12107 C 1244.66 -0.507176 -1.8746 0
M  V30 12108 O 1243.94 0.495837 -1.88074 0
M  V30 12109 C 1244.22 -3.01098 -1.97515 0
M  V30 12110 C 1244.07 -4.33794 -1.18922 0
M  V30 12111 C 1245.39 -3.24831 -2.9694 0
M  V30 12112 H 1242.51 -0.630011 -0.382434 0
M  V30 12113 H 1245.15 -1.87079 -0.331873 0
M  V30 12114 H 1243.3 -2.89352 -2.59244 0
M  V30 12115 H 1244.97 -4.57433 -0.596039 0
M  V30 12116 H 1243.22 -4.31005 -0.491612 0
M  V30 12117 H 1243.89 -5.19554 -1.86462 0
M  V30 12118 H 1246.36 -3.3608 -2.45335 0
M  V30 12119 H 1245.24 -4.15702 -3.58445 0
M  V30 12120 H 1245.5 -2.42365 -3.69745 0
M  V30 12121 N 1244.56 0.579466 -1.4656 0
M  V30 12122 C 1245.49 1.69846 -1.60233 0
M  V30 12123 C 1246.47 1.6397 -0.452533 0
M  V30 12124 O 1247.66 1.81936 -0.679174 0
M  V30 12125 C 1244.79 3.08488 -1.59538 0
M  V30 12126 C 1243.74 3.29197 -2.7352 0
M  V30 12127 C 1243.07 4.684 -2.57887 0
M  V30 12128 C 1244.37 3.16718 -4.15315 0
M  V30 12129 H 1246.06 1.5866 -2.53904 0
M  V30 12130 H 1243.61 0.761873 -1.22194 0
M  V30 12131 H 1245.56 3.86595 -1.67696 0
M  V30 12132 H 1244.28 3.20581 -0.62413 0
M  V30 12133 H 1242.94 2.53491 -2.64836 0
M  V30 12134 H 1242.59 4.77262 -1.58839 0
M  V30 12135 H 1242.29 4.83208 -3.34341 0
M  V30 12136 H 1243.81 5.48671 -2.67942 0
M  V30 12137 H 1245.23 3.84666 -4.25094 0
M  V30 12138 H 1243.63 3.43047 -4.92381 0
M  V30 12139 H 1244.7 2.13755 -4.35244 0
M  V30 12140 N 1246.04 1.3432 0.824371 0
M  V30 12141 C 1246.97 1.21619 1.94271 0
M  V30 12142 C 1247.98 0.143628 1.62165 0
M  V30 12143 O 1249.17 0.395353 1.74067 0
M  V30 12144 C 1246.27 0.846128 3.28167 0
M  V30 12145 C 1245.45 2.01337 3.88307 0
M  V30 12146 C 1244.5 1.62194 5.00579 0
M  V30 12147 O 1243.53 2.33831 5.18953 0
M  V30 12148 N 1244.73 0.535262 5.78027 0
M  V30 12149 H 1247.5 2.17963 2.05699 0
M  V30 12150 H 1245.06 1.27256 1.00088 0
M  V30 12151 H 1247.05 0.566086 4.00721 0
M  V30 12152 H 1245.62 -0.0270764 3.12588 0
M  V30 12153 H 1244.84 2.45823 3.08164 0
M  V30 12154 H 1246.13 2.79404 4.25219 0
M  V30 12155 H 1245.53 -0.0603126 5.65668 0
M  V30 12156 H 1244.08 0.314946 6.51039 0
M  V30 12157 N 1247.52 -1.0444 1.18026 0
M  V30 12158 C 1248.76 -1.77972 0.984767 0
M  V30 12159 C 1249.12 -1.86294 -0.480861 0
M  V30 12160 O 1248.41 -1.35724 -1.35239 0
M  V30 12161 C 1248.6 -3.21134 1.56869 0
M  V30 12162 C 1248.43 -3.26765 3.08958 0
M  V30 12163 C 1247.2 -3.35612 3.77747 0
M  V30 12164 C 1249.4 -3.15083 4.06482 0
M  V30 12165 N 1247.38 -3.30454 5.17372 0
M  V30 12166 C 1248.75 -3.17382 5.32606 0
M  V30 12167 C 1250.81 -2.99099 3.98051 0
M  V30 12168 C 1249.51 -3.05338 6.51277 0
M  V30 12169 C 1251.54 -2.88399 5.16314 0
M  V30 12170 C 1250.9 -2.91338 6.41328 0
M  V30 12171 H 1247 -0.66322 0.414323 0
M  V30 12172 H 1249.58 -1.24444 1.49739 0
M  V30 12173 H 1247.75 -3.73016 1.0823 0
M  V30 12174 H 1249.49 -3.82943 1.30908 0
M  V30 12175 H 1246.24 -3.41189 3.28462 0
M  V30 12176 H 1246.67 -3.31324 5.90384 0
M  V30 12177 H 1251.31 -2.95659 3.02234 0
M  V30 12178 H 1249.03 -3.07531 7.47296 0
M  V30 12179 H 1252.61 -2.77091 5.11578 0
M  V30 12180 H 1251.49 -2.83141 7.31301 0
M  V30 12181 N 1248.99 -0.981699 -1.2329 0
M  V30 12182 C 1249.96 -0.527992 -2.23036 0
M  V30 12183 C 1250.96 0.383083 -1.5617 0
M  V30 12184 O 1252.15 0.176595 -1.73303 0
M  V30 12185 C 1249.28 0.233501 -3.40099 0
M  V30 12186 H 1250.47 -1.40995 -2.64689 0
M  V30 12187 H 1248.03 -0.767724 -1.36146 0
M  V30 12188 H 1248.76 1.13194 -3.03904 0
M  V30 12189 H 1248.55 -0.420505 -3.89839 0
M  V30 12190 H 1250.04 0.539485 -4.14101 0
M  V30 12191 N 1250.47 1.3842 -0.753509 0
M  V30 12192 C 1251.7 2.04929 -0.319174 0
M  V30 12193 C 1252.12 1.56457 1.04416 0
M  V30 12194 O 1251.48 0.716527 1.6654 0
M  V30 12195 C 1251.53 3.58887 -0.351054 0
M  V30 12196 O 1250.63 4.07166 0.654963 0
M  V30 12197 H 1249.97 0.648782 -0.141343 0
M  V30 12198 H 1252.5 1.77096 -1.02461 0
M  V30 12199 H 1252.51 4.075 -0.201907 0
M  V30 12200 H 1251.19 3.93525 -1.34576 0
M  V30 12201 H 1249.77 3.69921 0.470435 0
M  V30 12202 N 1251.95 0.502579 1.49372 0
M  V30 12203 C 1252.88 -0.264307 2.31999 0
M  V30 12204 C 1253.86 -0.96107 1.40348 0
M  V30 12205 O 1255.05 -0.952167 1.69255 0
M  V30 12206 C 1252.18 -1.32822 3.20898 0
M  V30 12207 C 1251.13 -0.751236 4.21355 0
M  V30 12208 C 1250.46 -1.91578 4.99201 0
M  V30 12209 C 1251.76 0.258764 5.21659 0
M  V30 12210 H 1253.45 0.425391 2.96363 0
M  V30 12211 H 1251 0.206022 1.42519 0
M  V30 12212 H 1252.95 -1.87245 3.77515 0
M  V30 12213 H 1251.67 -2.04712 2.54481 0
M  V30 12214 H 1250.33 -0.228743 3.65886 0
M  V30 12215 H 1249.98 -2.62241 4.2923 0
M  V30 12216 H 1249.68 -1.53578 5.67175 0
M  V30 12217 H 1251.2 -2.46432 5.58663 0
M  V30 12218 H 1252.62 -0.197385 5.7296 0
M  V30 12219 H 1251.02 0.554681 5.97531 0
M  V30 12220 H 1252.09 1.1741 4.70471 0
M  V30 12221 N 1253.43 -1.55816 0.23648 0
M  V30 12222 C 1254.39 -2.1967 -0.654041 0
M  V30 12223 C 1255.39 -1.1629 -1.11056 0
M  V30 12224 O 1256.58 -1.41435 -1.01695 0
M  V30 12225 C 1253.71 -2.83196 -1.89771 0
M  V30 12226 H 1254.91 -2.99743 -0.0970911 0
M  V30 12227 H 1252.46 -1.56295 -0.013098 0
M  V30 12228 H 1253.19 -2.07033 -2.49616 0
M  V30 12229 H 1252.98 -3.58915 -1.57868 0
M  V30 12230 H 1254.47 -3.32095 -2.53184 0
M  V30 12231 N 1254.91 0.036755 -1.57557 0
M  V30 12232 C 1256.15 0.730186 -1.89199 0
M  V30 12233 C 1256.49 1.75414 -0.833271 0
M  V30 12234 O 1255.76 1.93901 0.152579 0
M  V30 12235 C 1256.04 1.40669 -3.31488 0
M  V30 12236 C 1255.9 0.396764 -4.48047 0
M  V30 12237 C 1257.22 2.34268 -3.72567 0
M  V30 12238 H 1254.33 0.263983 -0.6881 0
M  V30 12239 H 1256.98 -0.0069847 -1.89999 0
M  V30 12240 H 1255.13 2.03502 -3.30937 0
M  V30 12241 H 1256.8 -0.229062 -4.60731 0
M  V30 12242 H 1255.04 -0.284698 -4.32865 0
M  V30 12243 H 1255.71 0.908436 -5.44474 0
M  V30 12244 H 1258.19 1.81485 -3.74436 0
M  V30 12245 H 1257.06 2.78587 -4.72949 0
M  V30 12246 H 1257.33 3.20611 -3.04403 0
M  V30 12247 N 1256.39 1.54543 0.308881 0
M  V30 12248 C 1257.32 1.87947 1.38557 0
M  V30 12249 C 1258.3 0.737622 1.53275 0
M  V30 12250 O 1259.48 0.992664 1.66913 0
M  V30 12251 C 1256.61 2.11982 2.75102 0
M  V30 12252 C 1255.57 3.2783 2.75158 0
M  V30 12253 C 1254.89 3.37266 4.14917 0
M  V30 12254 C 1256.19 4.65129 2.37598 0
M  V30 12255 H 1257.89 2.78123 1.1085 0
M  V30 12256 H 1255.43 1.3382 0.531808 0
M  V30 12257 H 1257.38 2.33935 3.50503 0
M  V30 12258 H 1256.11 1.18569 3.04317 0
M  V30 12259 H 1254.77 3.05787 2.02212 0
M  V30 12260 H 1254.42 2.41384 4.41296 0
M  V30 12261 H 1254.12 4.15135 4.15857 0
M  V30 12262 H 1255.64 3.61471 4.92109 0
M  V30 12263 H 1257.05 4.86865 3.02714 0
M  V30 12264 H 1255.45 5.45653 2.49765 0
M  V30 12265 H 1256.52 4.6638 1.32731 0
M  V30 12266 N 1257.86 -0.571685 1.46866 0
M  V30 12267 C 1259.09 -1.35524 1.56336 0
M  V30 12268 C 1259.51 -1.87647 0.208359 0
M  V30 12269 O 1258.86 -1.64219 -0.796136 0
M  V30 12270 C 1258.91 -2.53518 2.57703 0
M  V30 12271 O 1258.64 -2.03552 3.87941 0
M  V30 12272 C 1260.14 -3.45925 2.77219 0
M  V30 12273 H 1257.36 -0.41363 0.528348 0
M  V30 12274 H 1259.9 -0.693943 1.92366 0
M  V30 12275 H 1258.06 -3.15615 2.24647 0
M  V30 12276 H 1258.47 -2.80476 4.43208 0
M  V30 12277 H 1259.94 -4.2517 3.52043 0
M  V30 12278 H 1260.42 -3.98559 1.8452 0
M  V30 12279 H 1261.03 -2.89655 3.11416 0
M  V30 12280 N 1259.34 -1.34755 -0.817236 0
M  V30 12281 C 1260.27 -1.29452 -1.94331 0
M  V30 12282 C 1261.25 -0.170902 -1.69239 0
M  V30 12283 O 1262.44 -0.364173 -1.90755 0
M  V30 12284 C 1259.57 -1.05497 -3.30889 0
M  V30 12285 C 1258.52 -2.14386 -3.70436 0
M  V30 12286 C 1257.85 -1.75612 -5.05039 0
M  V30 12287 C 1259.15 -3.56265 -3.81933 0
M  V30 12288 H 1260.84 -2.23672 -1.99025 0
M  V30 12289 H 1258.39 -1.07674 -0.956159 0
M  V30 12290 H 1260.34 -1.0043 -4.09257 0
M  V30 12291 H 1259.06 -0.0772059 -3.26509 0
M  V30 12292 H 1257.72 -2.18532 -2.94345 0
M  V30 12293 H 1257.37 -0.764809 -4.97152 0
M  V30 12294 H 1257.07 -2.48495 -5.3247 0
M  V30 12295 H 1258.6 -1.72051 -5.85859 0
M  V30 12296 H 1260.01 -3.545 -4.50558 0
M  V30 12297 H 1258.41 -4.27818 -4.20822 0
M  V30 12298 H 1259.48 -3.93192 -2.83775 0
M  V30 12299 N 1260.82 1.03812 -1.18578 0
M  V30 12300 C 1261.75 2.13802 -0.938665 0
M  V30 12301 C 1262.73 1.69643 0.124575 0
M  V30 12302 O 1263.92 1.94179 -0.0285421 0
M  V30 12303 C 1261.05 3.44154 -0.466392 0
M  V30 12304 C 1260 4.01949 -1.47041 0
M  V30 12305 C 1259.33 5.27811 -0.855558 0
M  V30 12306 C 1260.63 4.37827 -2.84789 0
M  V30 12307 H 1262.32 2.34732 -1.85852 0
M  V30 12308 H 1259.87 1.12808 -0.895007 0
M  V30 12309 H 1261.82 4.20463 -0.280856 0
M  V30 12310 H 1260.54 3.22918 0.489041 0
M  V30 12311 H 1259.2 3.27725 -1.64293 0
M  V30 12312 H 1258.85 5.02886 0.107142 0
M  V30 12313 H 1258.55 5.67441 -1.52592 0
M  V30 12314 H 1260.07 6.06795 -0.680609 0
M  V30 12315 H 1261.49 5.05112 -2.71173 0
M  V30 12316 H 1259.88 4.88514 -3.48532 0
M  V30 12317 H 1260.95 3.47541 -3.38147 0
M  V30 12318 N 1262.3 0.988223 1.22768 0
M  V30 12319 C 1263.23 0.554478 2.26821 0
M  V30 12320 C 1264.21 -0.416293 1.64927 0
M  V30 12321 O 1265.39 -0.30795 1.91743 0
M  V30 12322 C 1262.52 -0.136266 3.47033 0
M  V30 12323 C 1261.48 0.752575 4.21332 0
M  V30 12324 C 1260.8 -0.0708236 5.34653 0
M  V30 12325 C 1262.1 2.04717 4.80508 0
M  V30 12326 H 1263.8 1.42423 2.63355 0
M  V30 12327 H 1261.34 0.686267 1.26595 0
M  V30 12328 H 1263.3 -0.451068 4.18979 0
M  V30 12329 H 1262.02 -1.04053 3.09581 0
M  V30 12330 H 1260.68 1.05095 3.51213 0
M  V30 12331 H 1260.33 -0.975859 4.93443 0
M  V30 12332 H 1260.03 0.520835 5.85287 0
M  V30 12333 H 1261.55 -0.379828 6.09417 0
M  V30 12334 H 1262.97 1.79663 5.44421 0
M  V30 12335 H 1261.36 2.58726 5.41462 0
M  V30 12336 H 1262.43 2.72896 4.00819 0
M  V30 12337 N 1263.78 -1.38018 0.760839 0
M  V30 12338 C 1264.71 -2.32995 0.153557 0
M  V30 12339 C 1265.69 -1.55234 -0.695448 0
M  V30 12340 O 1266.87 -1.8352 -0.635148 0
M  V30 12341 C 1264 -3.39437 -0.734811 0
M  V30 12342 C 1262.96 -4.27998 0.0120287 0
M  V30 12343 C 1262.28 -5.25359 -0.995067 0
M  V30 12344 C 1263.58 -5.08687 1.18468 0
M  V30 12345 H 1265.28 -2.8403 0.946956 0
M  V30 12346 H 1262.82 -1.36562 0.456816 0
M  V30 12347 H 1264.77 -4.0485 -1.16938 0
M  V30 12348 H 1263.5 -2.86901 -1.56061 0
M  V30 12349 H 1262.16 -3.64102 0.427254 0
M  V30 12350 H 1261.81 -4.69108 -1.81512 0
M  V30 12351 H 1261.51 -5.85469 -0.499969 0
M  V30 12352 H 1263.03 -5.93648 -1.4288 0
M  V30 12353 H 1264.44 -5.67299 0.8273 0
M  V30 12354 H 1262.84 -5.78068 1.61112 0
M  V30 12355 H 1263.91 -4.42 1.99409 0
M  V30 12356 N 1265.25 -0.510493 -1.49103 0
M  V30 12357 C 1266.18 0.251999 -2.32136 0
M  V30 12358 C 1267.16 0.953613 -1.40855 0
M  V30 12359 O 1268.35 0.943178 -1.69758 0
M  V30 12360 C 1265.48 1.31118 -3.21598 0
M  V30 12361 C 1264.43 0.72888 -4.21748 0
M  V30 12362 C 1263.76 1.88928 -5.0021 0
M  V30 12363 C 1265.06 -0.286425 -5.21514 0
M  V30 12364 H 1266.75 -0.441102 -2.96133 0
M  V30 12365 H 1264.3 -0.213577 -1.42407 0
M  V30 12366 H 1266.25 1.8524 -3.78503 0
M  V30 12367 H 1264.98 2.0336 -2.55563 0
M  V30 12368 H 1263.64 0.209336 -3.66002 0
M  V30 12369 H 1263.28 2.59961 -4.30615 0
M  V30 12370 H 1262.98 1.50568 -5.67981 0
M  V30 12371 H 1264.51 2.43465 -5.59962 0
M  V30 12372 H 1265.92 0.166997 -5.73057 0
M  V30 12373 H 1264.32 -0.586361 -5.97228 0
M  V30 12374 H 1265.39 -1.19904 -4.69842 0
M  V30 12375 N 1266.73 1.55688 -0.24474 0
M  V30 12376 C 1267.98 1.99186 0.381167 0
M  V30 12377 C 1268.31 1.13266 1.57748 0
M  V30 12378 O 1267.59 0.195568 1.93514 0
M  V30 12379 C 1267.87 3.51257 0.793142 0
M  V30 12380 C 1267.72 4.47942 -0.408409 0
M  V30 12381 C 1269.04 4.08365 1.64091 0
M  V30 12382 H 1266.16 0.724141 0.137073 0
M  V30 12383 H 1268.8 1.8683 -0.345619 0
M  V30 12384 H 1266.95 3.61917 1.4124 0
M  V30 12385 H 1268.62 4.49265 -1.04682 0
M  V30 12386 H 1266.87 4.20854 -1.05189 0
M  V30 12387 H 1267.54 5.51946 -0.0768531 0
M  V30 12388 H 1270.01 4.00794 1.1182 0
M  V30 12389 H 1268.89 5.1504 1.89802 0
M  V30 12390 H 1269.15 3.56687 2.61202 0
M  V30 12391 N 1268.21 -0.0283989 1.57574 0
M  V30 12392 C 1269.14 -1.06191 2.01987 0
M  V30 12393 C 1270.12 -1.35131 0.90434 0
M  V30 12394 O 1271.3 -1.47777 1.17023 0
M  V30 12395 C 1268.43 -2.39646 2.39348 0
M  V30 12396 C 1267.48 -2.26558 3.6135 0
M  V30 12397 S 1268.31 -1.61839 5.10459 0
M  V30 12398 C 1269.47 -2.96783 5.51063 0
M  V30 12399 H 1269.7 -0.683625 2.89333 0
M  V30 12400 H 1267.23 -0.238394 1.52548 0
M  V30 12401 H 1269.19 -3.16394 2.61544 0
M  V30 12402 H 1267.85 -2.74622 1.52452 0
M  V30 12403 H 1267.04 -3.25079 3.85149 0
M  V30 12404 H 1266.65 -1.57954 3.39008 0
M  V30 12405 H 1268.94 -3.93111 5.51788 0
M  V30 12406 H 1269.88 -2.77716 6.51367 0
M  V30 12407 H 1270.29 -2.99386 4.78569 0
M  V30 12408 N 1269.69 -1.54705 -0.300681 0
M  V30 12409 C 1270.65 -1.84934 -1.35395 0
M  V30 12410 C 1271.65 -0.72226 -1.43666 0
M  V30 12411 O 1272.84 -0.990543 -1.43296 0
M  V30 12412 C 1269.97 -2.02991 -2.73875 0
M  V30 12413 H 1271.17 -2.79063 -1.09835 0
M  V30 12414 H 1268.72 -1.46772 -0.537365 0
M  V30 12415 H 1269.45 -1.11151 -3.04657 0
M  V30 12416 H 1269.24 -2.85027 -2.69262 0
M  V30 12417 H 1270.73 -2.27747 -3.5003 0
M  V30 12418 N 1271.17 0.563888 -1.47167 0
M  V30 12419 C 1272.44 1.32454 -1.43928 0
M  V30 12420 C 1272.82 2.10683 -0.13267 0
M  V30 12421 O 1272.17 2.1063 0.885845 0
M  V30 12422 C 1272.38 2.2347 -2.68071 0
M  V30 12423 C 1273.73 2.84702 -3.15008 0
M  V30 12424 O 1274.75 2.33775 -2.68752 0
M  V30 12425 O 1273.61 3.77251 -3.95404 0
M  V30 12426 H 1270.71 0.596074 -0.573258 0
M  V30 12427 H 1273.25 0.583345 -1.59359 0
M  V30 12428 H 1272.02 1.6522 -3.54708 0
M  V30 12429 H 1271.65 3.04897 -2.55193 0
M  V30 12430 N 1272.64 1.35187 0.810078 0
M  V30 12431 C 1273.88 1.29626 1.58039 0
M  V30 12432 C 1274.25 -0.12865 1.91569 0
M  V30 12433 O 1275.45 -0.308587 2.67023 0
M  V30 12434 C 1273.72 2.17414 2.83665 0
M  V30 12435 S 1275.28 2.29334 3.741 0
M  V30 12436 H 1272.1 0.460722 0.541531 0
M  V30 12437 H 1274.7 1.7054 0.955839 0
M  V30 12438 H 1273.4 3.19927 2.57051 0
M  V30 12439 H 1272.93 1.77444 3.51108 0
M  V30 12440 H 1274.95 1.47559 4.73752 0
M  V30 12441 N 1274.12 -1.03182 1.19127 0
M  V30 12442 C 1275.09 -2.09559 0.928307 0
M  V30 12443 C 1276.09 -1.60548 -0.0899992 0
M  V30 12444 O 1277.28 -1.736 0.144422 0
M  V30 12445 C 1274.41 -3.38609 0.394561 0
M  V30 12446 H 1275.6 -2.34321 1.87173 0
M  V30 12447 H 1273.15 -1.19746 1.00452 0
M  V30 12448 H 1273.89 -3.19515 -0.555046 0
M  V30 12449 H 1273.67 -3.75502 1.12873 0
M  V30 12450 H 1275.16 -4.16969 0.229569 0
M  V30 12451 N 1275.6 -0.99472 -1.22242 0
M  V30 12452 C 1276.85 -0.671602 -1.91039 0
M  V30 12453 C 1277.18 0.796543 -1.77441 0
M  V30 12454 O 1276.43 1.59179 -1.13845 0
M  V30 12455 C 1276.73 -1.02561 -3.42368 0
M  V30 12456 C 1276.4 -2.48632 -3.76155 0
M  V30 12457 C 1275.06 -2.88549 -3.85088 0
M  V30 12458 C 1277.41 -3.43302 -3.92165 0
M  V30 12459 C 1274.74 -4.22121 -4.07469 0
M  V30 12460 C 1277.09 -4.76534 -4.1605 0
M  V30 12461 C 1275.75 -5.1619 -4.23207 0
M  V30 12462 H 1275.02 -0.245756 -0.69906 0
M  V30 12463 H 1277.67 -1.25125 -1.44969 0
M  V30 12464 H 1275.98 -0.364073 -3.90105 0
M  V30 12465 H 1277.67 -0.753612 -3.93855 0
M  V30 12466 H 1274.26 -2.16693 -3.69787 0
M  V30 12467 H 1278.45 -3.13633 -3.8464 0
M  V30 12468 H 1273.7 -4.52431 -4.11238 0
M  V30 12469 H 1277.88 -5.49835 -4.27381 0
M  V30 12470 H 1275.5 -6.19708 -4.40303 0
M  V30 12471 N 1277.08 1.37613 -0.768148 0
M  V30 12472 C 1278.49 1.53202 -0.44737 0
M  V30 12473 C 1278.69 1.72736 1.03752 0
M  V30 12474 O 1277.75 1.74667 1.8234 0
M  V30 12475 C 1279.06 2.7306 -1.25931 0
M  V30 12476 C 1280.61 2.8692 -1.25084 0
M  V30 12477 C 1281.09 4.09757 -2.04605 0
M  V30 12478 N 1282.58 4.16862 -2.0194 0
M  V30 12479 C 1283.31 5.10936 -2.60254 0
M  V30 12480 N 1282.81 6.1059 -3.27341 0
M  V30 12481 N 1284.6 5.03393 -2.50104 0
M  V30 12482 H 1276.75 1.23184 -1.7303 0
M  V30 12483 H 1279.02 0.599541 -0.73434 0
M  V30 12484 H 1278.72 2.65078 -2.31141 0
M  V30 12485 H 1278.6 3.66646 -0.886036 0
M  V30 12486 H 1280.98 2.94375 -0.206736 0
M  V30 12487 H 1281.06 1.94303 -1.66373 0
M  V30 12488 H 1280.71 4.03063 -3.09035 0
M  V30 12489 H 1280.64 5.01481 -1.60701 0
M  V30 12490 H 1283.13 3.455 -1.53096 0
M  V30 12491 H 1283.44 6.78893 -3.6922 0
M  V30 12492 H 1281.79 6.10879 -3.31439 0
M  V30 12493 H 1284.98 4.24483 -1.9731 0
M  V30 12494 H 1285.15 5.76524 -2.95844 0
M  V30 12495 N 1278.56 0.518393 1.4883 0
M  V30 12496 C 1279.97 0.175476 1.58632 0
M  V30 12497 C 1280.17 -1.32081 1.52174 0
M  V30 12498 O 1279.23 -2.09817 1.40474 0
M  V30 12499 C 1280.54 0.767722 2.90734 0
M  V30 12500 C 1282.09 0.735402 3.04238 0
M  V30 12501 C 1282.56 1.30602 4.38984 0
M  V30 12502 N 1284.06 1.26748 4.45521 0
M  V30 12503 C 1284.79 1.679 5.48267 0
M  V30 12504 N 1284.29 2.16728 6.58028 0
M  V30 12505 N 1286.08 1.59209 5.39082 0
M  V30 12506 H 1278.23 1.491 1.51271 0
M  V30 12507 H 1280.49 0.619497 0.717584 0
M  V30 12508 H 1280.2 1.81777 3.01081 0
M  V30 12509 H 1280.07 0.238119 3.76448 0
M  V30 12510 H 1282.46 -0.305852 2.93511 0
M  V30 12511 H 1282.54 1.30235 2.20165 0
M  V30 12512 H 1282.19 2.34614 4.50465 0
M  V30 12513 H 1282.12 0.714858 5.21725 0
M  V30 12514 H 1284.61 0.90991 3.66782 0
M  V30 12515 H 1284.92 2.46154 7.32549 0
M  V30 12516 H 1283.26 2.20714 6.59022 0
M  V30 12517 H 1286.46 1.20869 4.52226 0
M  V30 12518 H 1286.63 1.91602 6.19025 0
M  V30 12519 N 1280.03 -1.55556 0.252993 0
M  V30 12520 C 1280.98 -2.23035 -0.660161 0
M  V30 12521 C 1281.98 -1.21994 -1.17532 0
M  V30 12522 O 1283.18 -1.39989 -1.13151 0
M  V30 12523 H 1279.56 -0.715516 -0.23139 0
M  V30 12524 H 1281.53 -2.98323 -0.0679506 0
M  V30 12525 C 1280.28 -2.94817 -1.84332 0
M  V30 12526 H 1279.6 -3.72342 -1.45607 0
M  V30 12527 H 1281.04 -3.45386 -2.45936 0
M  V30 12528 C 1279.5 -1.99033 -2.71822 0
M  V30 12529 O 1280.03 -1.5273 -3.71533 0
M  V30 12530 N 1278.24 -1.66004 -2.38518 0
M  V30 12531 H 1277.78 -2.03853 -1.57485 0
M  V30 12532 H 1277.74 -1.02183 -2.97331 0
M  V30 12533 N 1281.51 0.0200419 -1.57587 0
M  V30 12534 C 1282.44 1.01715 -2.10181 0
M  V30 12535 C 1283.42 1.37136 -1.00636 0
M  V30 12536 O 1284.61 1.45862 -1.2821 0
M  V30 12537 C 1281.74 2.31531 -2.58865 0
M  V30 12538 C 1280.69 2.10327 -3.72755 0
M  V30 12539 C 1280.02 3.45981 -4.07678 0
M  V30 12540 C 1281.32 1.4821 -5.0083 0
M  V30 12541 H 1283.01 0.579307 -2.93742 0
M  V30 12542 H 1280.56 0.277211 -1.41307 0
M  V30 12543 H 1282.51 3.01623 -2.94281 0
M  V30 12544 H 1281.24 2.77392 -1.72399 0
M  V30 12545 H 1279.89 1.42665 -3.37701 0
M  V30 12546 H 1279.54 3.89508 -3.18265 0
M  V30 12547 H 1279.24 3.32616 -4.84397 0
M  V30 12548 H 1280.77 4.17421 -4.45637 0
M  V30 12549 H 1282.18 2.08232 -5.34146 0
M  V30 12550 H 1280.58 1.45393 -5.82221 0
M  V30 12551 H 1281.65 0.448942 -4.82817 0
M  V30 12552 N 1282.99 1.54862 0.292472 0
M  V30 12553 C 1284.22 1.78877 1.04966 0
M  V30 12554 C 1284.64 0.550724 1.79857 0
M  V30 12555 O 1284 -0.499054 1.74296 0
M  V30 12556 C 1284.05 3.00106 1.99922 0
M  V30 12557 O 1283.15 2.73827 3.0837 0
M  V30 12558 H 1282.49 0.591802 0.301108 0
M  V30 12559 H 1285.02 2.01965 0.3273 0
M  V30 12560 H 1285.03 3.28309 2.42233 0
M  V30 12561 H 1283.71 3.89872 1.44821 0
M  V30 12562 H 1282.28 2.56665 2.70513 0
M  V30 12563 N 1284.47 -0.556076 1.47464 0
M  V30 12564 C 1285.7 -1.33858 1.57764 0
M  V30 12565 C 1286.11 -1.87415 0.22825 0
M  V30 12566 O 1285.47 -1.65054 -0.778674 0
M  V30 12567 C 1285.52 -2.5077 2.60378 0
M  V30 12568 O 1285.24 -1.99426 3.90078 0
M  V30 12569 C 1286.74 -3.42965 2.80873 0
M  V30 12570 H 1283.96 -0.408003 0.532705 0
M  V30 12571 H 1286.51 -0.673501 1.93091 0
M  V30 12572 H 1284.66 -3.13214 2.27982 0
M  V30 12573 H 1285.07 -2.75759 4.46158 0
M  V30 12574 H 1286.55 -4.21412 3.56533 0
M  V30 12575 H 1287.03 -3.96579 1.88737 0
M  V30 12576 H 1287.63 -2.86336 3.14471 0
M  V30 12577 N 1285.95 -1.35615 -0.802897 0
M  V30 12578 C 1287.17 -1.32377 -1.59659 0
M  V30 12579 C 1287.6 0.0954235 -1.87858 0
M  V30 12580 O 1286.96 1.06336 -1.46842 0
M  V30 12581 C 1287 -2.13972 -2.90256 0
M  V30 12582 O 1286.11 -1.52296 -3.83249 0
M  V30 12583 H 1285.45 -0.453699 -0.484823 0
M  V30 12584 H 1287.98 -1.78708 -0.996217 0
M  V30 12585 H 1287.99 -2.26061 -3.39647 0
M  V30 12586 H 1286.66 -3.17145 -2.69057 0
M  V30 12587 H 1285.24 -1.49068 -3.41809 0
M  V30 12588 N 1287.43 1.02549 -1.19673 0
M  V30 12589 C 1288.38 2.09257 -0.905282 0
M  V30 12590 C 1289.36 1.60363 0.131302 0
M  V30 12591 O 1290.55 1.76842 -0.0748563 0
M  V30 12592 C 1287.68 3.40345 -0.449474 0
M  V30 12593 C 1286.77 3.95964 -1.51899 0
M  V30 12594 N 1287.16 4.25203 -2.73926 0
M  V30 12595 C 1285.46 4.24013 -1.38307 0
M  V30 12596 C 1286.16 4.69925 -3.42849 0
M  V30 12597 N 1285.13 4.71664 -2.70248 0
M  V30 12598 H 1288.93 2.29761 -1.83268 0
M  V30 12599 H 1286.45 1.2044 -1.0894 0
M  V30 12600 H 1288.45 4.16308 -0.222121 0
M  V30 12601 H 1287.11 3.2126 0.471402 0
M  V30 12602 H 1288.12 4.14381 -3.10658 0
M  V30 12603 H 1284.79 4.14174 -0.52592 0
M  V30 12604 H 1286.18 5.01442 -4.4722 0
M  V30 12605 N 1288.9 1.00119 1.21713 0
M  V30 12606 C 1290.13 0.700431 1.94683 0
M  V30 12607 C 1290.55 -0.736333 1.73849 0
M  V30 12608 O 1289.9 -1.49778 1.04272 0
M  V30 12609 C 1289.95 1.00722 3.47185 0
M  V30 12610 O 1289.68 2.38754 3.67326 0
M  V30 12611 C 1291.18 0.725335 4.37326 0
M  V30 12612 H 1288.4 0.25843 0.619238 0
M  V30 12613 H 1290.94 1.3382 1.54636 0
M  V30 12614 H 1289.1 0.415117 3.85169 0
M  V30 12615 H 1289.51 2.49321 4.61454 0
M  V30 12616 H 1290.98 0.990202 5.43046 0
M  V30 12617 H 1291.46 -0.340649 4.37877 0
M  V30 12618 H 1292.07 1.29888 4.04981 0
M  V30 12619 N 1290.38 -1.37203 0.775435 0
M  V30 12620 C 1291.61 -2.03572 0.352416 0
M  V30 12621 C 1292.02 -1.58612 -1.03145 0
M  V30 12622 O 1291.36 -0.764478 -1.67037 0
M  V30 12623 C 1291.42 -3.58064 0.321026 0
M  V30 12624 C 1291.09 -4.2617 1.6501 0
M  V30 12625 C 1292.09 -4.50034 2.60318 0
M  V30 12626 C 1289.77 -4.63927 1.92555 0
M  V30 12627 C 1291.76 -5.10716 3.81376 0
M  V30 12628 C 1289.45 -5.24329 3.13883 0
M  V30 12629 C 1290.45 -5.47661 4.08113 0
M  V30 12630 O 1290.14 -6.068 5.27304 0
M  V30 12631 H 1289.87 -0.660231 0.145159 0
M  V30 12632 H 1292.42 -1.76446 1.05148 0
M  V30 12633 H 1290.65 -3.84252 -0.434439 0
M  V30 12634 H 1292.34 -4.0583 -0.0754241 0
M  V30 12635 H 1293.11 -4.21273 2.4032 0
M  V30 12636 H 1288.99 -4.45098 1.20036 0
M  V30 12637 H 1292.53 -5.28844 4.5494 0
M  V30 12638 H 1288.43 -5.52514 3.33765 0
M  V30 12639 H 1289.2 -6.25276 5.28179 0
M  V30 12640 N 1291.86 -0.526279 -1.48553 0
M  V30 12641 C 1293.09 0.0052277 -2.06899 0
M  V30 12642 C 1293.5 1.2849 -1.38332 0
M  V30 12643 O 1292.86 1.76354 -0.469648 0
M  V30 12644 C 1292.91 0.236709 -3.60724 0
M  V30 12645 O 1292.63 -0.992256 -4.26715 0
M  V30 12646 C 1294.13 0.809014 -4.35855 0
M  V30 12647 H 1291.35 -0.0318426 -0.670244 0
M  V30 12648 H 1293.9 -0.730865 -1.90994 0
M  V30 12649 H 1292.05 0.922842 -3.76248 0
M  V30 12650 H 1292.47 -0.770697 -5.18807 0
M  V30 12651 H 1293.94 0.920428 -5.44272 0
M  V30 12652 H 1294.42 1.81302 -4.00033 0
M  V30 12653 H 1295.02 0.159564 -4.25001 0
M  V30 12654 N 1293.34 1.5542 -0.261239 0
M  V30 12655 C 1294.57 2.03687 0.363225 0
M  V30 12656 C 1294.98 1.14007 1.50492 0
M  V30 12657 O 1294.34 0.157349 1.8182 0
M  V30 12658 C 1294.39 3.51184 0.857435 0
M  V30 12659 O 1294.11 4.37449 -0.238776 0
M  V30 12660 C 1295.61 4.15277 1.55113 0
M  V30 12661 H 1292.83 0.665641 0.0846356 0
M  V30 12662 H 1295.37 2.00761 -0.389288 0
M  V30 12663 H 1293.53 3.54599 1.56008 0
M  V30 12664 H 1293.94 5.24316 0.138821 0
M  V30 12665 H 1295.42 5.20129 1.8485 0
M  V30 12666 H 1295.89 3.62619 2.47799 0
M  V30 12667 H 1296.5 4.15826 0.892695 0
M  V30 12668 N 1294.82 -0.0116844 1.57596 0
M  V30 12669 C 1296.23 -0.55604 1.78228 0
M  V30 12670 C 1296.58 -1.74624 0.894474 0
M  V30 12671 O 1295.7 -2.16196 0.0938498 0
M  V30 12672 C 1296.3 -1.0155 3.23223 0
M  V30 12673 C 1294.86 -1.50525 3.44992 0
M  V30 12674 C 1294 -0.451133 2.73606 0
M  V30 12675 H 1296.95 0.214516 1.57243 0
M  V30 12676 H 1296.98 -1.88208 3.30693 0
M  V30 12677 H 1296.49 -0.149048 3.87814 0
M  V30 12678 H 1294.59 -2.39298 2.856 0
M  V30 12679 H 1294.7 -1.54076 4.53649 0
M  V30 12680 H 1293.07 -0.910135 2.37884 0
M  V30 12681 H 1293.85 0.406152 3.40889 0
M  V30 12682 N 1296.29 -1.55015 -0.284256 0
M  V30 12683 C 1297.7 -1.65915 -0.856104 0
M  V30 12684 C 1298.06 -0.578758 -1.8747 0
M  V30 12685 O 1297.18 0.281733 -2.14558 0
M  V30 12686 C 1297.78 -3.0077 -1.55957 0
M  V30 12687 C 1296.33 -3.13735 -2.0796 0
M  V30 12688 C 1295.48 -2.61669 -0.917849 0
M  V30 12689 H 1298.43 -1.58583 -0.0608587 0
M  V30 12690 H 1298.45 -2.9313 -2.42601 0
M  V30 12691 H 1297.97 -3.79382 -0.81798 0
M  V30 12692 H 1296.07 -2.39875 -2.85115 0
M  V30 12693 H 1296.18 -4.20138 -2.30263 0
M  V30 12694 H 1294.54 -2.18542 -1.3081 0
M  V30 12695 H 1295.33 -3.42774 -0.189946 0
M  V30 12696 N 1297.77 0.548248 -1.47757 0
M  V30 12697 C 1299 1.32827 -1.58242 0
M  V30 12698 C 1299.41 1.87736 -0.234936 0
M  V30 12699 O 1298.75 1.66163 0.78329 0
M  V30 12700 C 1298.81 2.52906 -2.55497 0
M  V30 12701 C 1298.48 2.19218 -4.00989 0
M  V30 12702 C 1299.48 1.75976 -4.89212 0
M  V30 12703 C 1297.16 2.30302 -4.46392 0
M  V30 12704 C 1299.15 1.44258 -6.20861 0
M  V30 12705 C 1296.84 1.98197 -5.78067 0
M  V30 12706 C 1297.84 1.55244 -6.65123 0
M  V30 12707 O 1297.53 1.23551 -7.94349 0
M  V30 12708 H 1297.26 0.41088 -0.536799 0
M  V30 12709 H 1299.81 0.670055 -1.94163 0
M  V30 12710 H 1298.04 3.21648 -2.14661 0
M  V30 12711 H 1299.73 3.14979 -2.56014 0
M  V30 12712 H 1300.5 1.66898 -4.55379 0
M  V30 12713 H 1296.38 2.62693 -3.78832 0
M  V30 12714 H 1299.92 1.10659 -6.88767 0
M  V30 12715 H 1295.82 2.0691 -6.1144 0
M  V30 12716 H 1296.59 1.37105 -8.06935 0
M  V30 12717 N 1299.25 1.36039 0.795694 0
M  V30 12718 C 1300.53 1.20474 1.54096 0
M  V30 12719 C 1300.91 -0.211691 2.10036 0
M  V30 12720 O 1300.25 -1.21656 1.93422 0
M  V30 12721 C 1300.46 2.28164 2.64087 0
M  V30 12722 C 1301.81 2.64519 3.32137 0
M  V30 12723 O 1302.84 2.2716 2.74366 0
M  V30 12724 O 1301.7 3.28796 4.36527 0
M  V30 12725 H 1298.79 0.468699 0.681359 0
M  V30 12726 H 1301.34 1.47752 0.834716 0
M  V30 12727 H 1300.11 3.23121 2.20701 0
M  V30 12728 H 1299.73 2.02217 3.42336 0
M  V30 12729 N 1300.73 -1.01913 1.20215 0
M  V30 12730 C 1302.01 -1.7262 0.919867 0
M  V30 12731 C 1302.39 -2.03203 -0.572001 0
M  V30 12732 O 1301.73 -1.69448 -1.53296 0
M  V30 12733 C 1301.94 -2.9959 1.79016 0
M  V30 12734 C 1303.29 -3.72905 2.03045 0
M  V30 12735 O 1304.32 -3.0954 1.76249 0
M  V30 12736 O 1303.17 -4.86844 2.48285 0
M  V30 12737 H 1300.27 -0.752194 0.343705 0
M  V30 12738 H 1302.81 -1.07783 1.31076 0
M  V30 12739 H 1301.59 -2.73292 2.80048 0
M  V30 12740 H 1301.21 -3.72168 1.39918 0
M  V30 12741 N 1302.21 -1.00763 -1.2118 0
M  V30 12742 C 1303.17 -0.575183 -2.21865 0
M  V30 12743 C 1304.17 0.349871 -1.56948 0
M  V30 12744 O 1305.36 0.139795 -1.73638 0
M  V30 12745 C 1302.49 0.161308 -3.40518 0
M  V30 12746 H 1303.68 -1.46578 -2.61639 0
M  V30 12747 H 1301.24 -0.79643 -1.34487 0
M  V30 12748 H 1301.97 1.06723 -3.06236 0
M  V30 12749 H 1301.76 -0.503101 -3.88859 0
M  V30 12750 H 1303.25 0.451527 -4.15152 0
M  V30 12751 N 1303.68 1.3679 -0.7827 0
M  V30 12752 C 1304.59 2.33928 -0.17747 0
M  V30 12753 C 1305.61 1.60716 0.666802 0
M  V30 12754 O 1306.79 1.92742 0.584162 0
M  V30 12755 C 1303.85 3.39907 0.68294 0
M  V30 12756 C 1302.91 4.28926 -0.179053 0
M  V30 12757 C 1302.15 5.29844 0.640386 0
M  V30 12758 O 1302.37 5.38639 1.87681 0
M  V30 12759 O 1301.3 6.01884 0.0438164 0
M  V30 12760 H 1305.13 2.87439 -0.980441 0
M  V30 12761 H 1302.71 1.39142 -0.54404 0
M  V30 12762 H 1304.6 4.04722 1.17379 0
M  V30 12763 H 1303.27 2.88706 1.46391 0
M  V30 12764 H 1302.18 3.67174 -0.716512 0
M  V30 12765 H 1303.51 4.83461 -0.923377 0
M  V30 12766 N 1305.16 0.53415 1.48272 0
M  V30 12767 C 1306.39 0.00574475 2.06899 0
M  V30 12768 C 1306.81 -1.27754 1.39012 0
M  V30 12769 O 1306.16 -1.76102 0.478993 0
M  V30 12770 C 1306.21 -0.217576 3.60845 0
M  V30 12771 O 1305.93 1.01487 4.26183 0
M  V30 12772 C 1307.44 -0.785888 4.36278 0
M  V30 12773 H 1304.66 0.0353967 0.670066 0
M  V30 12774 H 1307.2 0.740984 1.90603 0
M  V30 12775 H 1305.35 -0.902875 3.76732 0
M  V30 12776 H 1305.77 0.7982 5.18391 0
M  V30 12777 H 1307.24 -0.891551 5.44753 0
M  V30 12778 H 1307.72 -1.79178 4.00989 0
M  V30 12779 H 1308.33 -0.137022 4.25079 0
M  V30 12780 N 1306.64 -1.55279 0.269478 0
M  V30 12781 C 1307.87 -2.03581 -0.351907 0
M  V30 12782 C 1308.28 -1.14747 -1.50432 0
M  V30 12783 O 1307.62 -0.158939 -1.83011 0
M  V30 12784 C 1307.68 -3.48041 -0.900444 0
M  V30 12785 C 1307.35 -4.56835 0.122612 0
M  V30 12786 C 1308.34 -5.11329 0.940149 0
M  V30 12787 C 1306.03 -5.01651 0.255224 0
M  V30 12788 C 1308.02 -6.09151 1.87654 0
M  V30 12789 C 1305.71 -5.993 1.19509 0
M  V30 12790 C 1306.71 -6.52931 2.00426 0
M  V30 12791 O 1306.4 -7.48671 2.92825 0
M  V30 12792 H 1306.13 -0.670627 -0.0850629 0
M  V30 12793 H 1308.68 -2.01514 0.39766 0
M  V30 12794 H 1306.91 -3.47329 -1.69998 0
M  V30 12795 H 1308.6 -3.79713 -1.43431 0
M  V30 12796 H 1309.37 -4.77522 0.848402 0
M  V30 12797 H 1305.25 -4.59556 -0.364579 0
M  V30 12798 H 1308.79 -6.50937 2.50853 0
M  V30 12799 H 1304.69 -6.32526 1.28768 0
M  V30 12800 H 1305.46 -7.66368 2.87442 0
M  V30 12801 N 1308.12 0.00332656 -1.576 0
M  V30 12802 C 1309.36 0.68989 -1.90705 0
M  V30 12803 C 1309.7 1.73608 -0.870291 0
M  V30 12804 O 1308.97 1.94181 0.111416 0
M  V30 12805 C 1309.26 1.33605 -3.34397 0
M  V30 12806 C 1309.11 0.301638 -4.48787 0
M  V30 12807 C 1310.43 2.26313 -3.77453 0
M  V30 12808 H 1307.55 0.249328 -0.693545 0
M  V30 12809 H 1310.19 -0.0472847 -1.89941 0
M  V30 12810 H 1308.34 1.96437 -3.35179 0
M  V30 12811 H 1310.01 -0.326738 -4.60141 0
M  V30 12812 H 1308.25 -0.376451 -4.32163 0
M  V30 12813 H 1308.92 0.792741 -5.46278 0
M  V30 12814 H 1311.4 1.73502 -3.78201 0
M  V30 12815 H 1310.28 2.68492 -4.78752 0
M  V30 12816 H 1310.54 3.14082 -3.11135 0
M  V30 12817 O 1309.64 1.60842 0.14566 0
M  V30 12818 H 1310.33 1.77312 0.779763 0
M  V30 END ATOM
M  V30 BEGIN BOND
M  V30 END BOND
M  V30 END CTAB
M  END
$$$$
