drugbank_target|P68771 Peptide deformylase (DB04310)
 OpenBabel12092120423D

  0  0  0     0  0            999 V3000
M  V30 BEGIN CTAB
M  V30 COUNTS 3236 3265 0 0 0
M  V30 BEGIN ATOM
M  V30 1 H -0.908 1.98254 -0.117106 0
M  V30 2 N 0 1.576 0 0
M  V30 3 C 0.933 2.03868 1.02534 0
M  V30 4 C 1.911 0.928543 1.3348 0
M  V30 5 O 3.095 1.19667 1.45644 0
M  V30 6 C 0.222 2.43627 2.35294 0
M  V30 7 C -0.732 3.65373 2.2001 0
M  V30 8 S 0.101 5.13292 1.52614 0
M  V30 9 C 1.257 5.56322 2.86805 0
M  V30 10 H 1.49 2.90518 0.631377 0
M  V30 11 H -0.977 1.52953 0.210867 0
M  V30 12 H 0.981 2.67203 3.11629 0
M  V30 13 H -0.358 1.57376 2.7183 0
M  V30 14 H -1.165 3.90944 3.18086 0
M  V30 15 H -1.563 3.418 1.51819 0
M  V30 16 H 0.729 5.58782 3.83104 0
M  V30 17 H 1.672 6.56266 2.65933 0
M  V30 18 H 2.08 4.83886 2.90714 0
M  V30 19 N 1.4781 -0.272755 1.55222 0
M  V30 20 C 2.7031 -1.02683 1.80197 0
M  V30 21 C 3.1281 -1.79142 0.573551 0
M  V30 22 O 2.4861 -1.74917 -0.476849 0
M  V30 23 C 2.5341 -1.9609 3.02624 0
M  V30 24 O 1.6381 -3.04863 2.77727 0
M  V30 25 H 0.9791 -0.293557 0.595584 0
M  V30 26 H 3.5091 -0.30159 2.02365 0
M  V30 27 H 3.5191 -2.38039 3.31363 0
M  V30 28 H 2.1941 -1.39851 3.91682 0
M  V30 29 H 0.7711 -2.67228 2.60084 0
M  V30 30 N 2.9562 -1.48159 -0.537278 0
M  V30 31 C 3.9192 -1.61665 -1.62472 0
M  V30 32 C 4.9192 -0.490395 -1.5314 0
M  V30 33 O 6.1092 -0.755998 -1.5694 0
M  V30 34 C 3.2412 -1.57997 -3.02076 0
M  V30 35 H 4.4342 -2.58621 -1.51839 0
M  V30 36 H 1.9872 -1.36647 -0.758771 0
M  V30 37 H 2.7222 -0.624913 -3.18222 0
M  V30 38 H 2.5072 -2.39755 -3.10258 0
M  V30 39 H 3.9972 -1.70627 -3.81151 0
M  V30 40 N 4.4343 0.785586 -1.36625 0
M  V30 41 C 5.3663 1.90711 -1.2713 0
M  V30 42 C 6.3793 1.61688 -0.189986 0
M  V30 43 O 7.5683 1.72864 -0.445014 0
M  V30 44 C 4.6683 3.25611 -0.939713 0
M  V30 45 C 3.8413 3.82385 -2.12369 0
M  V30 46 C 2.9003 4.95732 -1.76456 0
M  V30 47 O 1.9263 5.12047 -2.48589 0
M  V30 48 N 3.1283 5.76258 -0.700492 0
M  V30 49 H 5.8933 1.99376 -2.23762 0
M  V30 50 H 3.4543 0.964041 -1.30069 0
M  V30 51 H 5.4463 3.98937 -0.680554 0
M  V30 52 H 4.0163 3.12538 -0.0624074 0
M  V30 53 H 3.2363 3.01001 -2.54543 0
M  V30 54 H 4.5243 4.17047 -2.9146 0
M  V30 55 H 3.9223 5.65609 -0.101624 0
M  V30 56 H 2.4793 6.4987 -0.501165 0
M  V30 57 N 5.9124 1.20967 1.01018 0
M  V30 58 C 7.1894 0.93264 1.71934 0
M  V30 59 C 7.5694 -0.55692 2.03621 0
M  V30 60 O 6.9174 -1.52035 1.7058 0
M  V30 61 C 7.1274 1.81233 2.98254 0
M  V30 62 C 8.4754 2.05804 3.71389 0
M  V30 63 O 9.4994 1.78539 3.08225 0
M  V30 64 O 8.3584 2.51888 4.84989 0
M  V30 65 H 5.4524 0.349272 0.749625 0
M  V30 66 H 7.9984 1.31871 1.06808 0
M  V30 67 H 6.7704 2.82067 2.71208 0
M  V30 68 H 6.3934 1.42674 3.7112 0
M  V30 69 N 7.3905 -1.2043 1.01659 0
M  V30 70 C 8.3375 -2.23215 0.586822 0
M  V30 71 C 9.3075 -1.61382 -0.393085 0
M  V30 72 O 10.4925 -1.88544 -0.292525 0
M  V30 73 C 7.6325 -3.45032 -0.0687464 0
M  V30 74 C 6.7455 -4.21296 0.955724 0
M  V30 75 C 5.8805 -5.30507 0.271208 0
M  V30 76 C 4.9195 -5.98515 1.28244 0
M  V30 77 N 4.0565 -6.99316 0.62459 0
M  V30 78 H 8.8965 -2.59336 1.46796 0
M  V30 79 H 6.4335 -1.27431 0.734836 0
M  V30 80 H 8.3915 -4.1459 -0.465965 0
M  V30 81 H 7.0215 -3.09604 -0.913529 0
M  V30 82 H 6.0735 -3.50803 1.4711 0
M  V30 83 H 7.3855 -4.6803 1.72479 0
M  V30 84 H 6.5395 -6.06428 -0.18151 0
M  V30 85 H 5.2785 -4.8481 -0.530163 0
M  V30 86 H 4.2835 -5.21355 1.74554 0
M  V30 87 H 5.5085 -6.46298 2.08509 0
M  V30 88 H 3.4545 -6.55812 -0.156914 0
M  V30 89 H 3.3715 -7.44178 1.33172 0
M  V30 90 H 4.6395 -7.79255 0.195462 0
M  V30 91 N 8.8686 -0.792821 -1.36206 0
M  V30 92 C 9.7986 -0.207853 -2.32573 0
M  V30 93 C 10.7796 0.659055 -1.56813 0
M  V30 94 O 11.9646 0.592176 -1.84951 0
M  V30 95 C 9.0946 0.655449 -3.41059 0
M  V30 96 C 8.0486 -0.111842 -4.27854 0
M  V30 97 C 7.3746 0.872274 -5.27537 0
M  V30 98 C 8.6746 -1.30299 -5.05786 0
M  V30 99 H 10.3686 -1.01294 -2.81744 0
M  V30 100 H 7.9146 -0.48854 -1.3546 0
M  V30 101 H 9.8676 1.07464 -4.07467 0
M  V30 102 H 8.5916 1.49328 -2.90463 0
M  V30 103 H 7.2506 -0.512053 -3.63006 0
M  V30 104 H 6.8986 1.70523 -4.73214 0
M  V30 105 H 6.5986 0.363291 -5.86476 0
M  V30 106 H 8.1226 1.28996 -5.96818 0
M  V30 107 H 9.5366 -0.959379 -5.65216 0
M  V30 108 H 7.9336 -1.7455 -5.74154 0
M  V30 109 H 9.0036 -2.09663 -4.37229 0
M  V30 110 N 10.3467 1.47872 -0.545128 0
M  V30 111 C 11.5957 2.01695 -0.0145033 0
M  V30 112 C 11.9087 1.42609 1.33873 0
M  V30 113 O 13.1147 1.88021 1.95858 0
M  V30 114 C 11.5707 3.59892 0.0245068 0
M  V30 115 C 11.1787 4.27966 -1.32475 0
M  V30 116 C 12.9227 4.21507 0.50316 0
M  V30 117 C 10.8297 5.78136 -1.2455 0
M  V30 118 H 9.7597 0.753998 -0.00165172 0
M  V30 119 H 12.4107 1.69985 -0.691175 0
M  V30 120 H 10.7927 3.88509 0.766575 0
M  V30 121 H 11.9667 4.11003 -2.08357 0
M  V30 122 H 10.2817 3.78286 -1.74036 0
M  V30 123 H 12.8787 5.31538 0.580656 0
M  V30 124 H 13.2217 3.87855 1.51243 0
M  V30 125 H 13.7547 3.97376 -0.183681 0
M  V30 126 H 10.4937 6.16388 -2.23039 0
M  V30 127 H 10.0137 5.97469 -0.528282 0
M  V30 128 H 11.6927 6.40099 -0.942488 0
M  V30 129 N 11.8248 0.280983 1.55075 0
M  V30 130 C 12.7718 -0.603937 2.22758 0
M  V30 131 C 13.7418 -1.1452 1.20309 0
M  V30 132 O 14.9268 -1.19343 1.48869 0
M  V30 133 C 12.0668 -1.77947 2.95684 0
M  V30 134 C 11.1798 -1.2715 4.12864 0
M  V30 135 C 10.3148 -2.4093 4.7342 0
M  V30 136 C 9.3538 -1.87165 5.82783 0
M  V30 137 N 8.4908 -2.94441 6.37377 0
M  V30 138 H 13.3308 -0.020124 2.97993 0
M  V30 139 H 10.8678 0.00183425 1.471 0
M  V30 140 H 12.8258 -2.47055 3.36184 0
M  V30 141 H 11.4558 -2.33522 2.22861 0
M  V30 142 H 10.5078 -0.473331 3.77444 0
M  V30 143 H 11.8198 -0.837751 4.91715 0
M  V30 144 H 10.9738 -3.18021 5.1667 0
M  V30 145 H 9.7128 -2.87623 3.93859 0
M  V30 146 H 8.7178 -1.08556 5.38976 0
M  V30 147 H 9.9428 -1.41401 6.64216 0
M  V30 148 H 7.8888 -3.40505 5.60707 0
M  V30 149 H 7.8058 -2.55501 7.11516 0
M  V30 150 H 9.0738 -3.71489 6.85285 0
M  V30 151 N 13.3029 -1.57598 0.00835791 0
M  V30 152 C 14.7139 -1.7892 -0.53333 0
M  V30 153 C 15.0649 -0.916609 -1.73473 0
M  V30 154 O 14.1899 -0.121336 -2.1606 0
M  V30 155 C 14.7849 -3.24488 -0.974313 0
M  V30 156 C 13.3439 -3.46878 -1.46125 0
M  V30 157 C 12.4909 -2.74157 -0.416302 0
M  V30 158 H 15.4419 -1.56958 0.234495 0
M  V30 159 H 15.4629 -3.3306 -1.83988 0
M  V30 160 H 14.9749 -3.87972 -0.099718 0
M  V30 161 H 13.0759 -2.8862 -2.35646 0
M  V30 162 H 13.1889 -4.55572 -1.48295 0
M  V30 163 H 11.5529 -2.39022 -0.87981 0
M  V30 164 H 12.3359 -3.40345 0.44947 0
M  V30 165 N 14.781 0.264519 -1.55364 0
M  V30 166 C 16.006 1.01726 -1.80739 0
M  V30 167 C 16.431 1.78836 -0.583044 0
M  V30 168 O 15.789 1.75167 0.467566 0
M  V30 169 C 15.837 1.94482 -3.03659 0
M  V30 170 O 14.941 3.03386 -2.7934 0
M  V30 171 H 14.282 0.290395 -0.597132 0
M  V30 172 H 16.812 0.290854 -2.02522 0
M  V30 173 H 16.822 2.36278 -3.32621 0
M  V30 174 H 15.497 1.37772 -3.92418 0
M  V30 175 H 14.074 2.65844 -2.61498 0
M  V30 176 N 16.2591 1.48442 0.529413 0
M  V30 177 C 17.2091 1.59407 1.63014 0
M  V30 178 C 18.1931 0.451166 1.54445 0
M  V30 179 O 19.3851 0.702635 1.62456 0
M  V30 180 C 16.5141 1.63746 3.01732 0
M  V30 181 C 15.6001 2.83518 3.15402 0
M  V30 182 N 15.9911 4.07929 2.99045 0
M  V30 183 C 14.2891 2.80862 3.46457 0
M  V30 184 C 14.9901 4.8829 3.16146 0
M  V30 185 N 13.9661 4.21117 3.43746 0
M  V30 186 H 17.7681 2.53343 1.48978 0
M  V30 187 H 15.2821 1.44821 0.734885 0
M  V30 188 H 17.2791 1.69695 3.80801 0
M  V30 189 H 15.9391 0.709264 3.16859 0
M  V30 190 H 16.9501 4.38357 2.75796 0
M  V30 191 H 13.6271 1.97301 3.67938 0
M  V30 192 H 15.0171 5.97028 3.08232 0
M  V30 193 N 17.7372 -0.778329 1.37039 0
M  V30 194 C 18.6672 -1.90546 1.34962 0
M  V30 195 C 19.6482 -1.68681 0.219274 0
M  V30 196 O 20.8332 -1.89634 0.418624 0
M  V30 197 C 17.9632 -3.27734 1.14925 0
M  V30 198 C 16.9172 -3.64147 2.24902 0
M  V30 199 C 16.2432 -4.99806 1.89996 0
M  V30 200 C 17.5432 -3.71579 3.67051 0
M  V30 201 H 19.2372 -1.92541 2.29277 0
M  V30 202 H 16.7832 -0.924948 1.10366 0
M  V30 203 H 18.7362 -4.06215 1.12104 0
M  V30 204 H 17.4602 -3.26154 0.170631 0
M  V30 205 H 16.1192 -2.8797 2.26868 0
M  V30 206 H 15.7672 -4.94759 0.906796 0
M  V30 207 H 15.4672 -5.25139 2.63634 0
M  V30 208 H 16.9912 -5.80694 1.88749 0
M  V30 209 H 18.4052 -4.40227 3.67251 0
M  V30 210 H 16.8022 -4.08405 4.39688 0
M  V30 211 H 17.8722 -2.72404 4.01154 0
M  V30 212 N 19.2153 -1.21501 -1.00376 0
M  V30 213 C 20.4643 -1.02718 -1.73586 0
M  V30 214 C 20.7773 0.439589 -1.90596 0
M  V30 215 O 21.9833 0.746848 -2.61026 0
M  V30 216 C 20.4393 -1.78929 -3.1227 0
M  V30 217 C 20.0473 -3.29783 -3.03228 0
M  V30 218 C 21.7913 -1.68557 -3.89601 0
M  V30 219 C 19.6983 -3.98479 -4.36999 0
M  V30 220 H 18.6283 -0.380733 -0.650814 0
M  V30 221 H 21.2793 -1.45248 -1.1214 0
M  V30 222 H 19.6613 -1.29192 -3.74333 0
M  V30 223 H 20.8353 -3.86832 -2.50395 0
M  V30 224 H 19.1503 -3.40711 -2.39385 0
M  V30 225 H 21.7473 -2.17211 -4.88593 0
M  V30 226 H 22.0903 -0.644021 -4.11288 0
M  V30 227 H 22.6233 -2.15778 -3.34193 0
M  V30 228 H 19.3623 -5.02841 -4.20513 0
M  V30 229 H 18.8823 -3.46219 -4.89788 0
M  V30 230 H 20.5613 -4.03462 -5.05794 0
M  V30 231 N 20.6934 1.19889 -1.02296 0
M  V30 232 C 21.9214 1.9339 -0.735399 0
M  V30 233 C 22.3364 1.75148 0.704887 0
M  V30 234 O 21.6934 1.06954 1.47875 0
M  V30 235 C 21.7444 3.45313 -1.06962 0
M  V30 236 O 21.4654 3.62964 -2.45334 0
M  V30 237 C 22.9664 4.35948 -0.804021 0
M  V30 238 H 20.1864 0.61448 -0.269546 0
M  V30 239 H 22.7304 1.522 -1.36585 0
M  V30 240 H 20.8854 3.84359 -0.484455 0
M  V30 241 H 21.2994 4.56886 -2.57595 0
M  V30 242 H 22.7734 5.41174 -1.0879 0
M  V30 243 H 23.2504 4.3842 0.261691 0
M  V30 244 H 23.8564 4.02574 -1.37164 0
M  V30 245 N 22.1715 0.800033 1.35784 0
M  V30 246 C 23.1045 0.151499 2.27697 0
M  V30 247 C 24.0825 -0.678663 1.4776 0
M  V30 248 O 25.2665 -0.647358 1.77035 0
M  V30 249 C 22.3935 -0.790492 3.29346 0
M  V30 250 C 21.4395 -0.0407832 4.26481 0
M  V30 251 S 22.2725 1.29077 5.19711 0
M  V30 252 C 23.4285 0.353055 6.24903 0
M  V30 253 H 23.6615 0.930796 2.82353 0
M  V30 254 H 21.1945 0.594767 1.42485 0
M  V30 255 H 23.1525 -1.3285 3.88409 0
M  V30 256 H 21.8135 -1.54312 2.73581 0
M  V30 257 H 21.0065 -0.755971 4.98298 0
M  V30 258 H 20.6085 0.427063 3.71554 0
M  V30 259 H 22.9005 -0.464147 6.75908 0
M  V30 260 H 23.8435 1.04023 7.00418 0
M  V30 261 H 24.2515 -0.0483344 5.64479 0
M  V30 262 N 23.6496 -1.47581 0.552962 0
M  V30 263 C 24.9266 -1.95563 -0.0381515 0
M  V30 264 C 25.3066 -1.49552 -1.48988 0
M  V30 265 O 24.6546 -0.732414 -2.16444 0
M  V30 266 C 24.8646 -3.48848 0.102919 0
M  V30 267 C 26.2126 -4.24577 -0.0446082 0
M  V30 268 O 27.2366 -3.56187 0.0302548 0
M  V30 269 O 26.0956 -5.46116 -0.204923 0
M  V30 270 H 23.1896 -0.824321 -0.0665067 0
M  V30 271 H 25.7356 -1.58001 0.619186 0
M  V30 272 H 24.5076 -3.75129 1.11328 0
M  V30 273 H 24.1306 -3.93165 -0.592224 0
M  V30 274 N 25.1277 -0.289203 -1.54924 0
M  V30 275 C 26.4047 0.376032 -1.91951 0
M  V30 276 C 26.7847 1.72622 -1.21511 0
M  V30 277 O 26.1327 2.25853 -0.346767 0
M  V30 278 C 26.3427 0.502378 -3.45365 0
M  V30 279 C 27.6907 0.778741 -4.17398 0
M  V30 280 O 28.7147 0.586647 -3.51336 0
M  V30 281 O 27.5737 1.14698 -5.34328 0
M  V30 282 H 24.6677 0.208167 -0.800372 0
M  V30 283 H 27.2137 -0.336394 -1.66332 0
M  V30 284 H 25.9857 -0.447255 -3.88736 0
M  V30 285 H 25.6087 1.26373 -3.76982 0
M  V30 286 N 26.6058 1.57591 -0.0167156 0
M  V30 287 C 27.8548 1.90461 0.663877 0
M  V30 288 C 28.1678 0.893515 1.73999 0
M  V30 289 O 29.3738 1.11302 2.47637 0
M  V30 290 C 27.8298 3.38155 1.23204 0
M  V30 291 C 27.4378 4.47597 0.189866 0
M  V30 292 C 29.1818 3.80111 1.88986 0
M  V30 293 C 27.0888 5.86379 0.768964 0
M  V30 294 H 26.0188 0.710738 0.251729 0
M  V30 295 H 28.6698 1.83326 -0.0799926 0
M  V30 296 H 27.0518 3.40182 2.02712 0
M  V30 297 H 28.2258 4.57112 -0.581846 0
M  V30 298 H 26.5408 4.14766 -0.368475 0
M  V30 299 H 29.1378 4.81145 2.33247 0
M  V30 300 H 29.4808 3.14511 2.72743 0
M  V30 301 H 30.0138 3.80454 1.16187 0
M  V30 302 H 26.7528 6.55493 -0.0301957 0
M  V30 303 H 26.2728 5.80496 1.50945 0
M  V30 304 H 27.9518 6.34563 1.26251 0
M  V30 305 N 28.0839 -0.256276 1.55502 0
M  V30 306 C 29.3329 -0.983486 1.76098 0
M  V30 307 C 29.6459 -1.86837 0.578896 0
M  V30 308 O 30.8519 -2.63163 0.667648 0
M  V30 309 C 29.3079 -1.79868 3.1173 0
M  V30 310 C 28.9159 -0.961648 4.37557 0
M  V30 311 C 30.6599 -2.51919 3.41668 0
M  V30 312 C 28.5669 -1.77219 5.64223 0
M  V30 313 H 27.4969 -0.370936 0.656447 0
M  V30 314 H 30.1479 -0.238492 1.81944 0
M  V30 315 H 28.5299 -2.58527 2.99966 0
M  V30 316 H 29.7039 -0.218048 4.60284 0
M  V30 317 H 28.0189 -0.354913 4.14885 0
M  V30 318 H 30.6159 -3.12998 4.33516 0
M  V30 319 H 30.9589 -3.23059 2.62562 0
M  V30 320 H 31.4919 -1.80278 3.54605 0
M  V30 321 H 28.2309 -1.10471 6.46124 0
M  V30 322 H 27.7509 -2.49132 5.45613 0
M  V30 323 H 29.4299 -2.34169 6.03137 0
M  V30 324 N 29.562 -1.4872 -0.521534 0
M  V30 325 C 30.978 -1.35028 -0.850855 0
M  V30 326 C 31.178 -0.367712 -1.98116 0
M  V30 327 O 30.234 0.208037 -2.51642 0
M  V30 328 C 31.547 -2.75263 -1.21041 0
M  V30 329 C 33.095 -2.83813 -1.31981 0
M  V30 330 C 33.57 -4.24769 -1.71276 0
M  V30 331 N 35.061 -4.27482 -1.78363 0
M  V30 332 C 35.796 -5.33494 -2.1017 0
M  V30 333 N 35.292 -6.49775 -2.40343 0
M  V30 334 N 37.085 -5.20894 -2.11248 0
M  V30 335 H 29.236 -2.11214 0.22413 0
M  V30 336 H 31.499 -0.947252 0.0376439 0
M  V30 337 H 31.205 -3.48765 -0.453415 0
M  V30 338 H 31.079 -3.09327 -2.15863 0
M  V30 339 H 33.466 -2.10561 -2.06756 0
M  V30 340 H 33.547 -2.53358 -0.352596 0
M  V30 341 H 33.191 -4.9854 -0.970588 0
M  V30 342 H 33.121 -4.52673 -2.69062 0
M  V30 343 H 35.612 -3.43611 -1.57288 0
M  V30 344 H 35.925 -7.26402 -2.63743 0
M  V30 345 H 34.27 -6.53035 -2.37844 0
M  V30 346 H 37.461 -4.29065 -1.87139 0
M  V30 347 H 37.634 -6.03612 -2.35704 0
M  V30 348 N 31.0401 0.771051 -1.3745 0
M  V30 349 C 31.9501 1.91538 -1.35464 0
M  V30 350 C 32.9661 1.72134 -0.254123 0
M  V30 351 O 34.1421 1.95358 -0.489626 0
M  V30 352 C 31.2071 3.26671 -1.16134 0
M  V30 353 C 30.2681 3.58723 -2.35831 0
M  V30 354 C 29.5011 4.87409 -2.17413 0
M  V30 355 O 29.7241 5.58506 -1.15876 0
M  V30 356 O 28.6581 5.18539 -3.05615 0
M  V30 357 H 32.4841 1.96165 -2.31847 0
M  V30 358 H 30.0691 0.9139 -1.18187 0
M  V30 359 H 31.9511 4.07499 -1.07345 0
M  V30 360 H 30.6261 3.22894 -0.228251 0
M  V30 361 H 29.5331 2.78127 -2.50192 0
M  V30 362 H 30.8661 3.67243 -3.27709 0
M  V30 363 N 32.5182 1.22032 0.997298 0
M  V30 364 C 33.7662 1.04016 1.73278 0
M  V30 365 C 34.0872 -0.426255 1.90284 0
M  V30 366 O 33.3572 -1.30694 1.45931 0
M  V30 367 H 31.9372 0.381897 0.642 0
M  V30 368 H 34.5992 1.5347 1.20137 0
M  V30 369 H 33.6952 1.51441 2.72896 0
M  V30 370 N 33.9963 -1.19345 1.0293 0
M  V30 371 C 34.9443 -2.24621 0.604001 0
M  V30 372 C 35.9383 -1.65452 -0.363587 0
M  V30 373 O 37.1443 -1.78497 -0.23212 0
M  V30 374 H 33.5193 -0.730858 0.177061 0
M  V30 375 H 35.4903 -2.5781 1.50255 0
M  V30 376 C 34.2393 -3.47688 -0.0289127 0
M  V30 377 H 33.5623 -3.93505 0.706651 0
M  V30 378 H 35.0023 -4.23011 -0.289432 0
M  V30 379 C 33.4613 -3.11817 -1.2756 0
M  V30 380 O 33.9913 -3.2451 -2.36762 0
M  V30 381 N 32.1973 -2.66246 -1.16453 0
M  V30 382 H 31.7443 -2.56118 -0.275914 0
M  V30 383 H 31.7023 -2.42617 -1.99961 0
M  V30 384 N 35.4744 -0.807222 -1.35358 0
M  V30 385 C 36.8854 -0.44876 -1.81226 0
M  V30 386 C 37.2364 1.02929 -1.67033 0
M  V30 387 O 36.3614 1.79991 -1.20133 0
M  V30 388 C 36.9564 -0.807774 -3.2903 0
M  V30 389 C 35.5154 -0.501901 -3.73039 0
M  V30 390 C 34.6624 -1.03304 -2.57339 0
M  V30 391 H 37.6134 -0.998808 -1.23327 0
M  V30 392 H 37.6344 -0.10554 -3.80354 0
M  V30 393 H 37.1464 -1.88357 -3.39328 0
M  V30 394 H 35.2474 0.565128 -3.68289 0
M  V30 395 H 35.3604 -1.03497 -4.67787 0
M  V30 396 H 33.7244 -0.455339 -2.50597 0
M  V30 397 H 34.5074 -2.11496 -2.70415 0
M  V30 398 N 36.9525 1.47285 -0.560781 0
M  V30 399 C 38.1805 2.06855 -0.0430262 0
M  V30 400 C 38.5955 1.41291 1.25229 0
M  V30 401 O 37.9525 0.510648 1.7521 0
M  V30 402 C 38.0035 3.61178 0.152518 0
M  V30 403 O 37.7245 4.24285 -1.0915 0
M  V30 404 C 39.2255 4.37624 0.707145 0
M  V30 405 H 36.4455 0.669319 -0.0474652 0
M  V30 406 H 38.9895 1.89237 -0.77521 0
M  V30 407 H 37.1445 3.78298 0.834843 0
M  V30 408 H 37.5585 5.16868 -0.891482 0
M  V30 409 H 39.0325 5.46271 0.793244 0
M  V30 410 H 39.5095 4.04152 1.71923 0
M  V30 411 H 40.1155 4.25257 0.0604027 0
M  V30 412 N 38.4306 0.297415 1.54768 0
M  V30 413 C 39.3606 -0.573494 2.26348 0
M  V30 414 C 40.3416 -1.14085 1.26169 0
M  V30 415 O 41.5266 -1.17086 1.54934 0
M  V30 416 C 38.6566 -1.74716 3.00153 0
M  V30 417 C 37.6106 -1.31032 4.07449 0
M  V30 418 C 36.9366 -2.56887 4.68949 0
M  V30 419 C 38.2366 -0.444183 5.20408 0
M  V30 420 H 39.9306 0.0235131 2.99391 0
M  V30 421 H 37.4766 0.0127488 1.43994 0
M  V30 422 H 39.4296 -2.3625 3.48947 0
M  V30 423 H 38.1536 -2.37035 2.24682 0
M  V30 424 H 36.8126 -0.718066 3.59499 0
M  V30 425 H 36.4606 -3.17512 3.90122 0
M  V30 426 H 36.1606 -2.2836 5.41411 0
M  V30 427 H 37.6846 -3.19229 5.20505 0
M  V30 428 H 39.0986 -0.9651 5.65118 0
M  V30 429 H 37.4956 -0.252846 5.99567 0
M  V30 430 H 38.5656 0.531609 4.81977 0
M  V30 431 N 39.9087 -1.5758 0.0250728 0
M  V30 432 C 41.3247 -1.56124 -0.331282 0
M  V30 433 C 41.5247 -1.03029 -1.73169 0
M  V30 434 O 40.5807 -0.675215 -2.43305 0
M  V30 435 C 41.8937 -3.00139 -0.183584 0
M  V30 436 C 43.4417 -3.11946 -0.256654 0
M  V30 437 C 43.9167 -4.57793 -0.137792 0
M  V30 438 N 45.4077 -4.6279 -0.194904 0
M  V30 439 C 46.1427 -5.7326 -0.126655 0
M  V30 440 N 45.6387 -6.928 -0.00755288 0
M  V30 441 N 47.4317 -5.61811 -0.180348 0
M  V30 442 H 39.5827 -1.90424 0.94087 0
M  V30 443 H 41.8457 -0.875761 0.362968 0
M  V30 444 H 41.5517 -3.4292 0.780927 0
M  V30 445 H 41.4257 -3.64899 -0.955448 0
M  V30 446 H 43.8127 -2.69079 -1.21162 0
M  V30 447 H 43.8937 -2.49915 0.545517 0
M  V30 448 H 43.5377 -5.01339 0.813739 0
M  V30 449 H 43.4677 -5.17798 -0.958775 0
M  V30 450 H 45.9587 -3.76807 -0.287267 0
M  V30 451 H 46.2717 -7.72791 0.0379428 0
M  V30 452 H 44.6167 -6.94995 0.0271731 0
M  V30 453 H 47.8077 -4.6731 -0.271767 0
M  V30 454 H 47.9807 -6.47882 -0.123697 0
M  V30 455 N 41.3868 0.248026 -1.55636 0
M  V30 456 C 42.3498 1.29044 -1.89421 0
M  V30 457 C 43.3498 1.41134 -0.770581 0
M  V30 458 O 44.5398 1.39854 -1.03858 0
M  V30 459 C 41.6718 2.66831 -2.12165 0
M  V30 460 H 42.8648 1.00305 -2.82629 0
M  V30 461 H 40.4178 0.487265 -1.48511 0
M  V30 462 H 41.1528 3.00711 -1.21422 0
M  V30 463 H 40.9378 2.59438 -2.93997 0
M  V30 464 H 42.4278 3.42103 -2.3949 0
M  V30 465 N 42.8649 1.48995 0.513639 0
M  V30 466 C 44.1109 1.58076 1.27042 0
M  V30 467 C 44.4439 0.261026 1.92438 0
M  V30 468 O 43.7189 -0.734393 1.80103 0
M  V30 469 C 44.0019 2.73091 2.34719 0
M  V30 470 C 43.8549 4.14821 1.73907 0
M  V30 471 C 45.1739 2.83796 3.36375 0
M  V30 472 H 42.2929 0.575391 0.460536 0
M  V30 473 H 44.9349 1.81232 0.570516 0
M  V30 474 H 43.0849 2.53479 2.94416 0
M  V30 475 H 44.7569 4.45917 1.18135 0
M  V30 476 H 42.9999 4.21058 1.0437 0
M  V30 477 H 43.6709 4.91147 2.51949 0
M  V30 478 H 46.1469 3.01611 2.86653 0
M  V30 479 H 45.0229 3.65971 4.09093 0
M  V30 480 H 45.2839 1.92624 3.9793 0
M  V30 481 N 44.343 -0.763751 1.37857 0
M  V30 482 C 45.306 -1.85889 1.34081 0
M  V30 483 C 46.306 -1.58949 0.243277 0
M  V30 484 O 47.496 -1.66882 0.499589 0
M  V30 485 C 44.628 -3.23176 1.08489 0
M  V30 486 H 45.821 -1.90648 2.31502 0
M  V30 487 H 43.374 -0.964367 1.23003 0
M  V30 488 H 44.109 -3.24091 0.116318 0
M  V30 489 H 43.894 -3.44124 1.8794 0
M  V30 490 H 45.384 -4.03254 1.08517 0
M  V30 491 N 45.8211 -1.22559 -0.990812 0
M  V30 492 C 46.7681 -0.997519 -2.0813 0
M  V30 493 C 47.7381 0.0814702 -1.659 0
M  V30 494 O 48.9231 -0.0685424 -1.90677 0
M  V30 495 C 46.0631 -0.583615 -3.40129 0
M  V30 496 C 45.1761 -1.7336 -3.9569 0
M  V30 497 C 44.3111 -1.26748 -5.15857 0
M  V30 498 C 43.3501 -2.38888 -5.63559 0
M  V30 499 N 42.4871 -1.93308 -6.74964 0
M  V30 500 H 47.3271 -1.93099 -2.26973 0
M  V30 501 H 44.8641 -0.962114 -1.11273 0
M  V30 502 H 46.8221 -0.324801 -4.15934 0
M  V30 503 H 45.4521 0.312845 -3.2128 0
M  V30 504 H 44.5041 -2.10669 -3.16738 0
M  V30 505 H 45.8161 -2.57704 -4.27071 0
M  V30 506 H 44.9701 -0.966173 -5.98957 0
M  V30 507 H 43.7091 -0.394272 -4.86104 0
M  V30 508 H 42.7141 -2.69805 -4.79046 0
M  V30 509 H 43.9391 -3.26728 -5.95336 0
M  V30 510 H 41.8851 -1.08352 -6.4699 0
M  V30 511 H 41.8021 -2.71217 -7.05675 0
M  V30 512 H 43.0701 -1.66252 -7.61564 0
M  V30 513 N 47.2992 1.18797 -1.03562 0
M  V30 514 C 48.2092 2.25913 -0.632505 0
M  V30 515 C 49.2252 1.70668 0.338882 0
M  V30 516 O 50.4012 2.00453 0.195076 0
M  V30 517 C 47.4662 3.467 0.00350942 0
M  V30 518 C 46.5272 4.17098 -1.01624 0
M  V30 519 C 45.7602 5.32119 -0.410478 0
M  V30 520 O 45.9832 5.64976 0.784725 0
M  V30 521 O 44.9172 5.9107 -1.13667 0
M  V30 522 H 48.7432 2.62648 -1.52478 0
M  V30 523 H 46.3282 1.25781 -0.806195 0
M  V30 524 H 48.2102 4.19878 0.35781 0
M  V30 525 H 46.8852 3.11798 0.869686 0
M  V30 526 H 45.7922 3.4601 -1.42224 0
M  V30 527 H 47.1252 4.55987 -1.85301 0
M  V30 528 N 48.7773 0.814389 1.34928 0
M  V30 529 C 50.0233 0.399013 1.98836 0
M  V30 530 C 50.3563 -1.03314 1.64438 0
M  V30 531 O 49.6313 -1.71811 0.911659 0
M  V30 532 C 49.9143 0.591629 3.55207 0
M  V30 533 C 49.7673 2.06928 3.99376 0
M  V30 534 C 51.0863 0.022199 4.40094 0
M  V30 535 H 48.2053 0.146451 0.722303 0
M  V30 536 H 50.8473 1.02537 1.59957 0
M  V30 537 H 48.9973 0.0584441 3.88456 0
M  V30 538 H 50.6693 2.66544 3.76499 0
M  V30 539 H 48.9123 2.56287 3.49999 0
M  V30 540 H 49.5833 2.1549 5.08201 0
M  V30 541 H 52.0593 0.477643 4.13349 0
M  V30 542 H 50.9353 0.186832 5.48582 0
M  V30 543 H 51.1963 -1.07215 4.28902 0
M  V30 544 N 50.2554 -1.46986 0.568584 0
M  V30 545 C 51.4804 -2.07335 0.0520528 0
M  V30 546 C 51.9054 -1.41675 -1.23733 0
M  V30 547 O 51.2634 -0.495623 -1.74394 0
M  V30 548 C 51.3114 -3.60417 -0.11501 0
M  V30 549 O 50.4154 -3.95309 -1.17492 0
M  V30 550 H 49.7564 -0.661597 0.0564385 0
M  V30 551 H 52.2864 -1.88837 0.787507 0
M  V30 552 H 52.2964 -4.06698 -0.325644 0
M  V30 553 H 50.9714 -4.07601 0.826675 0
M  V30 554 H 49.5484 -3.60757 -0.943869 0
M  V30 555 N 51.7335 -0.305618 -1.54608 0
M  V30 556 C 52.6635 0.561482 -2.26649 0
M  V30 557 C 53.6445 1.13415 -1.26772 0
M  V30 558 O 54.8295 1.16262 -1.55553 0
M  V30 559 C 51.9595 1.73122 -3.01075 0
M  V30 560 C 50.9135 1.2887 -4.08138 0
M  V30 561 C 50.2395 2.54396 -4.70305 0
M  V30 562 C 51.5395 0.416578 -5.20636 0
M  V30 563 H 53.2335 -0.0393902 -2.99374 0
M  V30 564 H 50.7795 -0.020385 -1.43986 0
M  V30 565 H 52.7325 2.34396 -3.50195 0
M  V30 566 H 51.4565 2.3584 -2.25936 0
M  V30 567 H 50.1155 0.698991 -3.59875 0
M  V30 568 H 49.7635 3.15439 -3.918 0
M  V30 569 H 49.4635 2.25486 -5.42614 0
M  V30 570 H 50.9875 3.16464 -5.2219 0
M  V30 571 H 52.4015 0.935116 -5.65622 0
M  V30 572 H 50.7985 0.221046 -5.99693 0
M  V30 573 H 51.8685 -0.557162 -4.81688 0
M  V30 574 N 53.2116 1.57565 -0.0334293 0
M  V30 575 C 54.6226 1.79746 0.504798 0
M  V30 576 C 54.9736 0.944091 1.71992 0
M  V30 577 O 54.0986 0.155694 2.15839 0
M  V30 578 C 54.6936 3.25997 0.922567 0
M  V30 579 C 53.2526 3.49159 1.40588 0
M  V30 580 C 52.3996 2.74785 0.372633 0
M  V30 581 H 55.3506 1.56565 -0.259436 0
M  V30 582 H 55.3716 3.35945 1.78666 0
M  V30 583 H 54.8836 3.88081 0.0379825 0
M  V30 584 H 52.9846 2.92332 2.31025 0
M  V30 585 H 53.0976 4.57873 1.41028 0
M  V30 586 H 51.4616 2.40391 0.841672 0
M  V30 587 H 52.2446 3.39587 -0.503559 0
M  V30 588 N 54.6897 -0.239769 1.55765 0
M  V30 589 C 55.6197 -1.30052 1.9393 0
M  V30 590 C 56.6007 -1.49839 0.805132 0
M  V30 591 O 57.7857 -1.62328 1.06599 0
M  V30 592 C 54.9157 -2.65391 2.2402 0
M  V30 593 C 53.8697 -2.60289 3.39755 0
M  V30 594 C 53.1957 -3.99489 3.55405 0
M  V30 595 C 54.4957 -2.16654 4.75246 0
M  V30 596 H 56.1897 -0.983573 2.82783 0
M  V30 597 H 53.7357 -0.471701 1.36055 0
M  V30 598 H 55.6887 -3.3974 2.49308 0
M  V30 599 H 54.4127 -2.98736 1.32 0
M  V30 600 H 53.0717 -1.88398 3.14487 0
M  V30 601 H 52.7197 -4.30112 2.60793 0
M  V30 602 H 52.4197 -3.96962 4.33238 0
M  V30 603 H 53.9437 -4.75528 3.83022 0
M  V30 604 H 55.3577 -2.80737 4.99859 0
M  V30 605 H 53.7547 -2.25223 5.56232 0
M  V30 606 H 54.8247 -1.11835 4.71827 0
M  V30 607 N 56.1678 -1.49265 -0.50573 0
M  V30 608 C 57.4078 -1.60128 -1.27038 0
M  V30 609 C 57.7718 -0.279557 -1.89954 0
M  V30 610 O 58.9728 -0.263329 -2.67507 0
M  V30 611 C 57.2438 -2.72507 -2.31246 0
M  V30 612 S 58.8028 -3.0329 -3.17113 0
M  V30 613 H 55.6208 -0.564863 -0.4318 0
M  V30 614 H 58.2228 -1.86902 -0.573397 0
M  V30 615 H 56.9268 -3.67068 -1.83546 0
M  V30 616 H 56.4578 -2.4771 -3.05619 0
M  V30 617 H 58.4728 -2.44448 -4.31809 0
M  V30 618 N 57.6459 0.756429 -1.3826 0
M  V30 619 C 58.9229 1.50584 -1.24835 0
M  V30 620 C 59.3029 2.10556 0.151485 0
M  V30 621 O 58.6509 1.96825 1.1607 0
M  V30 622 C 58.8609 2.57448 -2.3563 0
M  V30 623 C 60.2089 3.24429 -2.73917 0
M  V30 624 O 61.2329 2.67751 -2.34921 0
M  V30 625 O 60.0919 4.26937 -3.41156 0
M  V30 626 H 57.1859 0.667664 -0.48801 0
M  V30 627 H 59.7319 0.792083 -1.5008 0
M  V30 628 H 58.5039 2.11362 -3.29305 0
M  V30 629 H 58.1269 3.36408 -2.11933 0
M  V30 630 N 59.124 1.23083 0.984299 0
M  V30 631 C 60.034 1.02515 2.11016 0
M  V30 632 C 61.05 -0.0291702 1.73976 0
M  V30 633 O 62.226 0.165434 2.00719 0
M  V30 634 C 59.291 0.614673 3.41208 0
M  V30 635 C 58.352 1.74359 3.92297 0
M  V30 636 C 57.585 1.35261 5.16275 0
M  V30 637 O 57.808 0.235136 5.69915 0
M  V30 638 O 56.742 2.17227 5.61334 0
M  V30 639 H 60.568 1.96862 2.31255 0
M  V30 640 H 58.153 1.01753 1.09392 0
M  V30 641 H 60.035 0.396518 4.1953 0
M  V30 642 H 58.71 -0.299851 3.22308 0
M  V30 643 H 57.617 2.01635 3.1511 0
M  V30 644 H 58.95 2.63629 4.15645 0
M  V30 645 N 60.6021 -1.18246 1.0419 0
M  V30 646 C 61.8791 -1.84121 0.660208 0
M  V30 647 C 62.2591 -1.92778 -0.860221 0
M  V30 648 O 61.6071 -1.45464 -1.76217 0
M  V30 649 C 61.8171 -3.22355 1.33747 0
M  V30 650 C 63.1651 -3.98376 1.46906 0
M  V30 651 O 64.1891 -3.31799 1.29568 0
M  V30 652 O 63.0481 -5.17665 1.75171 0
M  V30 653 H 60.1421 -0.794036 0.231161 0
M  V30 654 H 62.6881 -1.25628 1.14087 0
M  V30 655 H 61.4601 -3.10964 2.37522 0
M  V30 656 H 61.0831 -3.88506 0.845515 0
M  V30 657 N 62.0802 -0.821533 -1.34494 0
M  V30 658 C 63.3292 -0.405355 -1.97585 0
M  V30 659 C 63.6422 1.03677 -1.65863 0
M  V30 660 O 64.8482 1.55679 -2.22433 0
M  V30 661 C 63.3042 -0.673861 -3.53535 0
M  V30 662 C 62.9122 -2.12951 -3.94152 0
M  V30 663 C 64.6562 -0.32378 -4.23263 0
M  V30 664 C 62.5632 -2.34298 -5.43009 0
M  V30 665 H 61.4932 -0.147836 -0.739365 0
M  V30 666 H 64.1442 -1.00769 -1.53355 0
M  V30 667 H 62.5262 -0.00137554 -3.96 0
M  V30 668 H 63.7002 -2.84104 -3.62797 0
M  V30 669 H 62.0152 -2.44089 -3.37356 0
M  V30 670 H 64.6122 -0.461126 -5.32708 0
M  V30 671 H 64.9552 0.731586 -4.09821 0
M  V30 672 H 65.4882 -0.950786 -3.8627 0
M  V30 673 H 62.2272 -3.38335 -5.61435 0
M  V30 674 H 61.7472 -1.67687 -5.75883 0
M  V30 675 H 63.4262 -2.16588 -6.09671 0
M  V30 676 N 63.5583 1.46682 -0.576371 0
M  V30 677 C 64.4883 2.33028 0.148397 0
M  V30 678 C 65.4693 1.44961 0.889956 0
M  V30 679 O 66.6543 1.73789 0.866662 0
M  V30 680 C 63.7843 3.27117 1.1667 0
M  V30 681 C 62.7383 4.24575 0.540386 0
M  V30 682 C 62.0643 5.08126 1.6647 0
M  V30 683 C 63.3643 5.19722 -0.518331 0
M  V30 684 H 65.0583 2.93875 -0.572509 0
M  V30 685 H 62.6043 1.41315 -0.276768 0
M  V30 686 H 64.5573 3.86374 1.68204 0
M  V30 687 H 63.2813 2.64364 1.9178 0
M  V30 688 H 61.9403 3.66571 0.0461769 0
M  V30 689 H 61.5883 4.41762 2.40531 0
M  V30 690 H 61.2883 5.74122 1.25131 0
M  V30 691 H 62.8123 5.70246 2.18293 0
M  V30 692 H 64.2263 5.73232 -0.0883058 0
M  V30 693 H 62.6233 5.94026 -0.851679 0
M  V30 694 H 63.6933 4.64037 -1.40703 0
M  V30 695 N 65.0364 0.313813 1.54444 0
M  V30 696 C 65.9664 -0.549454 2.26943 0
M  V30 697 C 66.9474 -1.12741 1.27372 0
M  V30 698 O 68.1324 -1.15436 1.56167 0
M  V30 699 C 65.2624 -1.71523 3.01989 0
M  V30 700 C 64.2164 -1.26703 4.08816 0
M  V30 701 C 63.5424 -2.51898 4.71647 0
M  V30 702 C 64.8424 -0.388962 5.2085 0
M  V30 703 H 66.5364 0.0552661 2.99349 0
M  V30 704 H 64.0824 0.0280207 1.43973 0
M  V30 705 H 66.0354 -2.32535 3.51433 0
M  V30 706 H 64.7594 -2.34639 2.27183 0
M  V30 707 H 63.4184 -0.679896 3.6024 0
M  V30 708 H 63.0664 -3.13356 3.93468 0
M  V30 709 H 62.7664 -2.22605 5.43802 0
M  V30 710 H 64.2904 -3.1369 5.23861 0
M  V30 711 H 65.7044 -0.905107 5.6611 0
M  V30 712 H 64.1014 -0.18924 5.99802 0
M  V30 713 H 65.1714 0.582699 4.81386 0
M  V30 714 N 66.5145 -1.57545 0.0417849 0
M  V30 715 C 67.7625 -1.91937 -0.632829 0
M  V30 716 C 68.0835 -0.919978 -1.71934 0
M  V30 717 O 67.3535 0.0366064 -1.95866 0
M  V30 718 H 65.9335 -0.708493 -0.236742 0
M  V30 719 H 68.5955 -1.9468 0.0925745 0
M  V30 720 H 67.6915 -2.92912 -1.07746 0
M  V30 721 N 67.9926 0.231505 -1.5589 0
M  V30 722 C 68.9026 1.308 -1.94752 0
M  V30 723 C 69.9186 1.51826 -0.849989 0
M  V30 724 O 71.0946 1.6515 -1.15271 0
M  V30 725 C 68.1596 2.63968 -2.24771 0
M  V30 726 C 67.2206 2.51331 -3.48039 0
M  V30 727 C 66.4536 3.78148 -3.76616 0
M  V30 728 O 66.6766 4.80722 -3.07022 0
M  V30 729 O 65.6106 3.75857 -4.70123 0
M  V30 730 H 69.4366 1.0083 -2.86474 0
M  V30 731 H 67.0216 0.433547 -1.42971 0
M  V30 732 H 68.9036 3.42633 -2.45318 0
M  V30 733 H 67.5786 2.9364 -1.36225 0
M  V30 734 H 66.4856 1.709 -3.32782 0
M  V30 735 H 67.8186 2.26601 -4.36936 0
M  V30 736 N 69.4707 1.49531 0.497807 0
M  V30 737 C 70.4177 1.66436 1.59899 0
M  V30 738 C 71.3877 0.505793 1.58212 0
M  V30 739 O 72.5727 0.733202 1.7615 0
M  V30 740 C 69.7127 1.7399 2.98029 0
M  V30 741 C 68.8257 3.01172 3.09708 0
M  V30 742 C 67.9607 2.99686 4.38591 0
M  V30 743 C 66.9997 4.21434 4.43914 0
M  V30 744 N 66.1367 4.1784 5.64229 0
M  V30 745 H 70.9767 2.60459 1.44793 0
M  V30 746 H 68.5137 1.29137 0.704423 0
M  V30 747 H 70.4717 1.76352 3.78095 0
M  V30 748 H 69.1017 0.834301 3.11832 0
M  V30 749 H 68.1537 3.08408 2.22685 0
M  V30 750 H 69.4657 3.91165 3.09502 0
M  V30 751 H 68.6197 3.00628 5.2698 0
M  V30 752 H 67.3587 2.07477 4.41367 0
M  V30 753 H 66.3637 4.20733 3.53926 0
M  V30 754 H 67.5887 5.14839 4.42851 0
M  V30 755 H 65.5347 3.28469 5.67841 0
M  V30 756 H 65.4517 5.01571 5.65652 0
M  V30 757 H 66.7197 4.22889 6.54817 0
M  V30 758 N 70.9488 -0.749086 1.3866 0
M  V30 759 C 71.8818 -1.87111 1.30631 0
M  V30 760 C 72.8598 -1.61572 0.18251 0
M  V30 761 O 74.0438 -1.85019 0.360592 0
M  V30 762 C 71.1708 -3.22815 1.02511 0
M  V30 763 C 70.2168 -3.67234 2.1689 0
M  V30 764 S 71.0498 -3.78245 3.79066 0
M  V30 765 C 72.2058 -5.16761 3.53142 0
M  V30 766 H 72.4388 -1.93636 2.25594 0
M  V30 767 H 69.9718 -0.912525 1.24549 0
M  V30 768 H 71.9298 -4.01181 0.869701 0
M  V30 769 H 70.5908 -3.13964 0.0925884 0
M  V30 770 H 69.7838 -4.65677 1.92771 0
M  V30 771 H 69.3858 -2.96034 2.28561 0
M  V30 772 H 71.6778 -6.02656 3.09534 0
M  V30 773 H 72.6208 -5.45902 4.50995 0
M  V30 774 H 73.0288 -4.85771 2.87554 0
M  V30 775 N 72.4269 -1.23603 -0.977757 0
M  V30 776 C 73.3599 -0.962772 -2.06896 0
M  V30 777 C 74.3379 0.0998743 -1.62293 0
M  V30 778 O 75.5219 -0.0349421 -1.88468 0
M  V30 779 C 72.6489 -0.45095 -3.35685 0
M  V30 780 C 71.6949 -1.50061 -3.99229 0
M  V30 781 S 72.5279 -3.07884 -4.38142 0
M  V30 782 C 73.6839 -2.58378 -5.7008 0
M  V30 783 H 73.9169 -1.88677 -2.29757 0
M  V30 784 H 71.4499 -1.06876 -1.11431 0
M  V30 785 H 73.4079 -0.162261 -4.10179 0
M  V30 786 H 72.0689 0.452179 -3.10828 0
M  V30 787 H 71.2619 -1.09269 -4.92013 0
M  V30 788 H 70.8639 -1.73878 -3.31123 0
M  V30 789 H 73.1559 -2.00563 -6.47133 0
M  V30 790 H 74.0989 -3.49711 -6.15717 0
M  V30 791 H 74.5069 -1.99143 -5.28207 0
M  V30 792 N 73.905 1.17692 -1.04816 0
M  V30 793 C 74.837 2.21103 -0.603822 0
M  V30 794 C 75.85 1.59411 0.33046 0
M  V30 795 O 77.039 1.7807 0.12379 0
M  V30 796 C 74.139 3.38623 0.136898 0
M  V30 797 C 73.312 4.29888 -0.807137 0
M  V30 798 C 72.371 5.26088 -0.10836 0
M  V30 799 O 71.397 5.64353 -0.741232 0
M  V30 800 N 72.599 5.68882 1.15558 0
M  V30 801 H 75.364 2.59848 -1.49329 0
M  V30 802 H 72.925 1.32553 -0.929587 0
M  V30 803 H 74.917 4.00009 0.614401 0
M  V30 804 H 73.487 2.98508 0.927993 0
M  V30 805 H 72.707 3.65993 -1.46434 0
M  V30 806 H 73.995 4.87759 -1.44807 0
M  V30 807 H 73.393 5.39861 1.69015 0
M  V30 808 H 71.95 6.32429 1.57722 0
M  V30 809 N 75.3831 0.828654 1.34056 0
M  V30 810 C 76.6301 0.419458 1.98108 0
M  V30 811 C 76.9581 -1.01886 1.65679 0
M  V30 812 O 76.2131 -1.72539 0.923512 0
M  V30 813 C 76.5121 0.575226 3.52741 0
M  V30 814 C 76.1781 1.98012 4.05095 0
M  V30 815 C 74.8401 2.36442 4.19104 0
M  V30 816 C 77.1921 2.89824 4.33188 0
M  V30 817 C 74.5201 3.66009 4.58535 0
M  V30 818 C 76.8721 4.1886 4.74066 0
M  V30 819 C 75.5361 4.5726 4.86281 0
M  V30 820 H 74.8061 0.153491 0.724929 0
M  V30 821 H 77.4531 1.05371 1.59904 0
M  V30 822 H 75.7581 -0.142385 3.91541 0
M  V30 823 H 77.4551 0.239057 4.00287 0
M  V30 824 H 74.0451 1.67162 3.94658 0
M  V30 825 H 78.2291 2.61375 4.21897 0
M  V30 826 H 73.4851 3.95579 4.66184 0
M  V30 827 H 77.6591 4.90086 4.94761 0
M  V30 828 H 75.2861 5.57707 5.16592 0
M  V30 829 N 76.8612 -1.46375 0.584142 0
M  V30 830 C 77.7912 -2.33103 -0.136037 0
M  V30 831 C 78.7722 -1.45431 -0.882255 0
M  V30 832 O 79.9572 -1.74246 -0.857434 0
M  V30 833 C 77.0872 -3.27731 -1.14933 0
M  V30 834 C 76.0412 -4.24855 -0.517862 0
M  V30 835 C 75.3672 -5.09001 -1.63773 0
M  V30 836 C 76.6672 -5.19439 0.545886 0
M  V30 837 H 78.3612 -2.93568 0.588086 0
M  V30 838 H 75.9072 -1.41166 0.284259 0
M  V30 839 H 77.8602 -3.87261 -1.66153 0
M  V30 840 H 76.5842 -2.65377 -1.90375 0
M  V30 841 H 75.2432 -3.6659 -0.0267361 0
M  V30 842 H 74.8912 -4.43031 -2.38185 0
M  V30 843 H 74.5912 -5.74777 -1.22085 0
M  V30 844 H 76.1152 -5.71396 -2.15266 0
M  V30 845 H 77.5292 -5.73177 0.118704 0
M  V30 846 H 75.9262 -5.93566 0.88317 0
M  V30 847 H 76.9962 -4.63285 1.43162 0
M  V30 848 N 78.3393 -0.321999 -1.54275 0
M  V30 849 C 79.2863 0.544664 -2.24281 0
M  V30 850 C 80.2563 1.1129 -1.23303 0
M  V30 851 O 81.4413 1.15354 -1.51981 0
M  V30 852 C 78.5813 1.70045 -3.00298 0
M  V30 853 C 77.6943 1.16159 -4.1609 0
M  V30 854 C 76.8293 2.28293 -4.79641 0
M  V30 855 C 75.8683 1.71648 -5.8754 0
M  V30 856 N 75.0053 2.77438 -6.44959 0
M  V30 857 H 79.8453 -0.0588907 -2.97942 0
M  V30 858 H 77.3823 -0.0408345 -1.47043 0
M  V30 859 H 79.3403 2.38054 -3.42616 0
M  V30 860 H 77.9703 2.27531 -2.28975 0
M  V30 861 H 77.0223 0.373092 -3.78566 0
M  V30 862 H 78.3343 0.707087 -4.93763 0
M  V30 863 H 77.4883 3.0421 -5.2492 0
M  V30 864 H 76.2273 2.77079 -4.01346 0
M  V30 865 H 75.2323 0.942282 -5.41665 0
M  V30 866 H 76.4573 1.23741 -6.67731 0
M  V30 867 H 74.4033 3.25519 -5.69538 0
M  V30 868 H 74.3203 2.36547 -7.1804 0
M  V30 869 H 75.5883 3.53189 -6.94894 0
M  V30 870 N 79.8174 1.5752 -0.0501392 0
M  V30 871 C 80.7674 2.07981 0.934231 0
M  V30 872 C 81.7514 0.984745 1.27246 0
M  V30 873 O 82.9434 1.24809 1.25506 0
M  V30 874 C 80.0724 2.62751 2.20945 0
M  V30 875 C 79.1584 3.79225 1.89865 0
M  V30 876 N 79.5494 4.89036 1.29142 0
M  V30 877 C 77.8474 3.88111 2.19741 0
M  V30 878 C 78.5484 5.70084 1.15669 0
M  V30 879 N 77.5244 5.17659 1.65923 0
M  V30 880 H 81.3264 2.90277 0.460053 0
M  V30 881 H 78.8404 1.61665 0.15434 0
M  V30 882 H 80.8374 2.97205 2.9236 0
M  V30 883 H 79.4974 1.81894 2.6897 0
M  V30 884 H 80.5084 5.08854 0.963756 0
M  V30 885 H 77.1854 3.18194 2.70293 0
M  V30 886 H 78.5754 6.68395 0.685356 0
M  V30 887 N 81.2955 -0.223234 1.56011 0
M  V30 888 C 82.5205 -0.968978 1.83373 0
M  V30 889 C 82.9455 -1.77227 0.630254 0
M  V30 890 O 82.3035 -1.76345 -0.420959 0
M  V30 891 C 82.3515 -1.86363 3.08709 0
M  V30 892 O 81.4555 -2.95873 2.87285 0
M  V30 893 H 80.7965 -0.274461 0.604622 0
M  V30 894 H 83.3265 -0.237056 2.03222 0
M  V30 895 H 83.3365 -2.27376 3.38768 0
M  V30 896 H 82.0115 -1.27319 3.95933 0
M  V30 897 H 80.5885 -2.58818 2.68454 0
M  V30 898 N 82.7736 -1.49793 -0.48987 0
M  V30 899 C 83.7056 -1.63413 -1.60713 0
M  V30 900 C 84.7186 -0.516329 -1.54395 0
M  V30 901 O 85.9076 -0.788812 -1.60125 0
M  V30 902 C 83.0076 -1.58516 -2.99543 0
M  V30 903 C 82.1806 -2.86016 -3.30928 0
M  V30 904 C 81.2396 -2.74018 -4.49222 0
M  V30 905 O 80.2656 -3.47964 -4.50455 0
M  V30 906 N 81.4676 -1.86309 -5.4979 0
M  V30 907 H 84.2326 -2.59777 -1.49452 0
M  V30 908 H 81.7936 -1.47022 -0.677955 0
M  V30 909 H 83.7856 -1.48128 -3.76617 0
M  V30 910 H 82.3556 -0.69965 -3.0467 0
M  V30 911 H 81.5756 -3.10672 -2.42645 0
M  V30 912 H 82.8636 -3.70521 -3.487 0
M  V30 913 H 82.2616 -1.2551 -5.51601 0
M  V30 914 H 80.8186 -1.81837 -6.25922 0
M  V30 915 N 84.2517 0.741722 -1.39055 0
M  V30 916 C 85.5287 1.49252 -1.26425 0
M  V30 917 C 85.9087 2.10705 0.129144 0
M  V30 918 O 85.2567 1.98045 1.13976 0
M  V30 919 C 85.4667 2.54934 -2.38347 0
M  V30 920 C 86.8147 3.21506 -2.77343 0
M  V30 921 O 87.8387 2.65245 -2.37747 0
M  V30 922 O 86.6977 4.23294 -3.45665 0
M  V30 923 H 83.7917 0.662451 -0.495064 0
M  V30 924 H 86.3377 0.776121 -1.50912 0
M  V30 925 H 85.1097 2.07857 -3.31529 0
M  V30 926 H 84.7327 3.34141 -2.15489 0
M  V30 927 N 85.7298 1.2412 0.971189 0
M  V30 928 C 87.1408 1.07236 1.52831 0
M  V30 929 C 87.4918 -0.357352 1.92918 0
M  V30 930 O 86.6168 -1.24528 1.76979 0
M  V30 931 C 87.2118 1.94043 2.77728 0
M  V30 932 C 85.7708 1.81394 3.29808 0
M  V30 933 C 84.9178 1.89189 2.02738 0
M  V30 934 H 87.8688 1.37648 0.789864 0
M  V30 935 H 87.8898 1.47066 3.5093 0
M  V30 936 H 87.4018 2.98093 2.4852 0
M  V30 937 H 85.5028 0.801634 3.63874 0
M  V30 938 H 85.6158 2.65294 3.98944 0
M  V30 939 H 83.9798 1.32877 2.17292 0
M  V30 940 H 84.7628 2.94812 1.759 0
M  V30 941 N 87.2079 -1.17134 1.05439 0
M  V30 942 C 88.4539 -1.87733 0.767077 0
M  V30 943 C 88.7869 -1.8098 -0.704253 0
M  V30 944 O 88.0619 -1.21951 -1.5152 0
M  V30 945 C 88.3449 -3.37659 1.25133 0
M  V30 946 C 88.1979 -3.53149 2.78578 0
M  V30 947 C 89.5169 -4.31768 0.852324 0
M  V30 948 H 86.6359 -0.681687 0.280129 0
M  V30 949 H 89.2779 -1.37732 1.30881 0
M  V30 950 H 87.4279 -3.80373 0.790469 0
M  V30 951 H 89.0999 -3.19434 3.32806 0
M  V30 952 H 87.3429 -2.95345 3.17732 0
M  V30 953 H 88.0139 -4.58403 3.07523 0
M  V30 954 H 90.4899 -3.96909 1.24911 0
M  V30 955 H 89.3659 -5.35199 1.21873 0
M  V30 956 H 89.6269 -4.41429 -0.243485 0
M  V30 957 N 88.686 -0.835752 -1.33615 0
M  V30 958 C 89.619 -0.211815 -2.27215 0
M  V30 959 C 90.597 0.639249 -1.49507 0
M  V30 960 O 91.781 0.600193 -1.78689 0
M  V30 961 C 88.908 0.702893 -3.31326 0
M  V30 962 C 87.954 -0.0723049 -4.26439 0
M  V30 963 S 88.787 -1.42811 -5.16106 0
M  V30 964 C 89.943 -0.518613 -6.23748 0
M  V30 965 H 90.176 -1.00533 -2.79786 0
M  V30 966 H 87.709 -0.632336 -1.40858 0
M  V30 967 H 89.667 1.22505 -3.91794 0
M  V30 968 H 88.328 1.47004 -2.77576 0
M  V30 969 H 87.521 0.62359 -5.00127 0
M  V30 970 H 87.123 -0.525424 -3.70291 0
M  V30 971 H 89.415 0.284778 -6.76901 0
M  V30 972 H 90.358 -1.22556 -6.97413 0
M  V30 973 H 90.766 -0.101344 -5.64409 0
M  V30 974 N 90.1641 1.46063 -0.591896 0
M  V30 975 C 91.1271 2.28854 0.125973 0
M  V30 976 C 92.1271 1.38903 0.810107 0
M  V30 977 O 93.3171 1.61186 0.66066 0
M  V30 978 C 90.4491 3.19526 1.1881 0
M  V30 979 H 91.6421 2.93802 -0.601717 0
M  V30 980 H 89.1951 1.52325 -0.350254 0
M  V30 981 H 89.9301 2.59345 1.94707 0
M  V30 982 H 89.7151 3.85766 0.701936 0
M  V30 983 H 91.2051 3.81817 1.69132 0
M  V30 984 N 91.6422 0.330177 1.54103 0
M  V30 985 C 92.5522 -0.541534 2.28264 0
M  V30 986 C 93.5682 -1.12351 1.32866 0
M  V30 987 O 94.7442 -1.14206 1.65888 0
M  V30 988 C 91.8092 -1.68322 3.03098 0
M  V30 989 C 90.8702 -1.13238 4.14096 0
M  V30 990 C 90.1032 -2.21966 4.85352 0
M  V30 991 O 90.3262 -3.42437 4.56172 0
M  V30 992 O 89.2602 -1.87013 5.7211 0
M  V30 993 H 93.0862 0.060938 3.03639 0
M  V30 994 H 90.6712 0.09565 1.49093 0
M  V30 995 H 92.5532 -2.34777 3.49939 0
M  V30 996 H 91.2282 -2.27176 2.30593 0
M  V30 997 H 90.1352 -0.432736 3.71589 0
M  V30 998 H 91.4682 -0.588898 4.88664 0
M  V30 999 N 93.1203 -1.57491 0.0584922 0
M  V30 1000 C 94.0673 -2.11958 -0.913376 0
M  V30 1001 C 95.0373 -1.02875 -1.30407 0
M  V30 1002 O 96.2223 -1.30464 -1.39226 0
M  V30 1003 C 93.3623 -2.67497 -2.18035 0
M  V30 1004 C 92.4753 -3.90691 -1.84349 0
M  V30 1005 C 91.6103 -4.3452 -3.05559 0
M  V30 1006 C 90.6493 -5.50395 -2.67827 0
M  V30 1007 N 89.7863 -5.89244 -3.81754 0
M  V30 1008 H 94.6263 -2.94704 -0.442017 0
M  V30 1009 H 92.1633 -1.45643 -0.206545 0
M  V30 1010 H 94.1213 -2.978 -2.92183 0
M  V30 1011 H 92.7513 -1.87537 -2.62735 0
M  V30 1012 H 91.8033 -3.66934 -1.00319 0
M  V30 1013 H 93.1153 -4.7489 -1.5258 0
M  V30 1014 H 92.2693 -4.66414 -3.87998 0
M  V30 1015 H 91.0083 -3.49147 -3.40511 0
M  V30 1016 H 90.0133 -5.18165 -1.83806 0
M  V30 1017 H 91.2383 -6.3749 -2.34059 0
M  V30 1018 H 89.1843 -5.06823 -4.16493 0
M  V30 1019 H 89.1013 -6.68151 -3.53708 0
M  V30 1020 H 90.3693 -6.25756 -4.64811 0
M  V30 1021 N 94.5984 0.214957 -1.56127 0
M  V30 1022 C 95.5284 1.2695 -1.95974 0
M  V30 1023 C 96.5094 1.48539 -0.828868 0
M  V30 1024 O 97.6944 1.60611 -1.09168 0
M  V30 1025 C 94.8244 2.61794 -2.28214 0
M  V30 1026 C 93.7784 2.54851 -3.43853 0
M  V30 1027 C 93.1044 3.93785 -3.61715 0
M  V30 1028 C 94.4044 2.09065 -4.78632 0
M  V30 1029 H 96.0984 0.93846 -2.84312 0
M  V30 1030 H 93.6444 0.449996 -1.36788 0
M  V30 1031 H 95.5974 3.35731 -2.54682 0
M  V30 1032 H 94.3214 2.96599 -1.36736 0
M  V30 1033 H 92.9804 1.8337 -3.17444 0
M  V30 1034 H 92.6284 4.25908 -2.67602 0
M  V30 1035 H 92.3284 3.90019 -4.39498 0
M  V30 1036 H 93.8524 4.69374 -3.90539 0
M  V30 1037 H 95.2664 2.7275 -5.04262 0
M  V30 1038 H 93.6634 2.16346 -5.59745 0
M  V30 1039 H 94.7334 1.04315 -4.73547 0
M  V30 1040 N 96.0765 1.50051 0.48192 0
M  V30 1041 C 97.3245 1.60181 1.23234 0
M  V30 1042 C 97.6455 0.299176 1.92691 0
M  V30 1043 O 96.9155 -0.682708 1.83619 0
M  V30 1044 H 95.4955 0.590232 0.457859 0
M  V30 1045 H 98.1575 1.86775 0.556881 0
M  V30 1046 H 97.2535 2.40753 1.98607 0
M  V30 1047 N 97.5546 -0.734337 1.39446 0
M  V30 1048 C 98.4846 -1.86155 1.40955 0
M  V30 1049 C 99.4656 -1.67898 0.272827 0
M  V30 1050 O 100.651 -1.88207 0.478743 0
M  V30 1051 C 97.7806 -3.23912 1.25294 0
M  V30 1052 C 96.7346 -3.56808 2.36373 0
M  V30 1053 C 96.0606 -4.93508 2.058 0
M  V30 1054 C 97.3606 -3.59713 3.78687 0
M  V30 1055 H 99.0546 -1.8515 2.35287 0
M  V30 1056 H 96.6006 -0.889367 1.13253 0
M  V30 1057 H 98.5536 -4.02443 1.2497 0
M  V30 1058 H 97.2776 -3.25446 0.274308 0
M  V30 1059 H 95.9366 -2.80606 2.35914 0
M  V30 1060 H 95.5846 -4.91623 1.06374 0
M  V30 1061 H 95.2846 -5.16486 2.80208 0
M  V30 1062 H 96.8086 -5.74396 2.07128 0
M  V30 1063 H 98.2226 -4.2832 3.81071 0
M  V30 1064 H 96.6196 -3.94209 4.52459 0
M  V30 1065 H 97.6896 -2.59504 4.09617 0
M  V30 1066 N 99.0327 -1.24633 -0.964593 0
M  V30 1067 C 100.449 -1.01239 -1.2338 0
M  V30 1068 C 100.649 0.2769 -1.99588 0
M  V30 1069 O 99.7047 0.992241 -2.32187 0
M  V30 1070 C 101.018 -2.22937 -2.01791 0
M  V30 1071 C 102.566 -2.27594 -2.14872 0
M  V30 1072 C 103.041 -3.48921 -2.96678 0
M  V30 1073 N 104.532 -3.49257 -3.04259 0
M  V30 1074 C 105.267 -4.39795 -3.67924 0
M  V30 1075 N 104.763 -5.40591 -4.33281 0
M  V30 1076 N 106.556 -4.275 -3.64966 0
M  V30 1077 H 98.7067 -2.0748 -0.454502 0
M  V30 1078 H 100.97 -0.910647 -0.26349 0
M  V30 1079 H 100.676 -3.16587 -1.53184 0
M  V30 1080 H 100.55 -2.25306 -3.02518 0
M  V30 1081 H 102.937 -1.34473 -2.6268 0
M  V30 1082 H 103.018 -2.2925 -1.13482 0
M  V30 1083 H 102.662 -4.42359 -2.49562 0
M  V30 1084 H 102.592 -3.4451 -3.98272 0
M  V30 1085 H 105.083 -2.76337 -2.57771 0
M  V30 1086 H 105.396 -6.05904 -4.79687 0
M  V30 1087 H 103.741 -5.44475 -4.3194 0
M  V30 1088 H 106.932 -3.47987 -3.13086 0
M  V30 1089 H 107.105 -4.98258 -4.14298 0
M  V30 1090 N 100.511 1.16574 -1.06058 0
M  V30 1091 C 101.474 2.19085 -0.673392 0
M  V30 1092 C 102.474 1.5835 0.279648 0
M  V30 1093 O 103.664 1.74088 0.0623488 0
M  V30 1094 C 100.796 3.40899 0.00954234 0
M  V30 1095 H 101.989 2.54853 -1.58081 0
M  V30 1096 H 99.5418 1.30808 -0.855516 0
M  V30 1097 H 100.277 3.10684 0.929826 0
M  V30 1098 H 100.062 3.86233 -0.67573 0
M  V30 1099 H 101.552 4.1675 0.266245 0
M  V30 1100 N 101.989 0.842826 1.3317 0
M  V30 1101 C 103.237 0.439577 1.97262 0
M  V30 1102 C 103.558 -1.00548 1.67078 0
M  V30 1103 O 102.828 -1.70098 0.971779 0
M  V30 1104 H 101.408 0.159558 0.72976 0
M  V30 1105 H 104.07 1.07665 1.62463 0
M  V30 1106 H 103.166 0.574886 3.0676 0
M  V30 1107 N 103.467 -1.45747 0.599634 0
M  V30 1108 C 104.713 -2.02592 0.0918643 0
M  V30 1109 C 105.046 -1.46806 -1.27128 0
M  V30 1110 O 104.321 -0.639658 -1.83681 0
M  V30 1111 C 104.604 -3.60073 0.0443398 0
M  V30 1112 C 104.457 -4.26208 1.43759 0
M  V30 1113 C 105.776 -4.35309 -0.647608 0
M  V30 1114 H 102.895 -0.736175 0.034857 0
M  V30 1115 H 105.537 -1.73694 0.770081 0
M  V30 1116 H 103.687 -3.84823 -0.533224 0
M  V30 1117 H 105.359 -4.12668 2.06162 0
M  V30 1118 H 103.602 -3.84916 2.00056 0
M  V30 1119 H 104.273 -5.35069 1.35665 0
M  V30 1120 H 106.749 -4.15805 -0.156776 0
M  V30 1121 H 105.625 -5.45038 -0.649942 0
M  V30 1122 H 105.886 -4.07598 -1.71219 0
M  V30 1123 N 104.945 -0.338344 -1.53925 0
M  V30 1124 C 106.193 0.259245 -2.0043 0
M  V30 1125 C 106.514 1.51484 -1.22791 0
M  V30 1126 O 105.784 1.93037 -0.33368 0
M  V30 1127 H 104.364 0.0987845 -0.740439 0
M  V30 1128 H 107.026 -0.458302 -1.89435 0
M  V30 1129 H 106.122 0.505334 -3.07982 0
M  V30 1130 N 106.423 1.57458 -0.0668435 0
M  V30 1131 C 107.353 2.15468 0.899764 0
M  V30 1132 C 108.334 1.08042 1.31381 0
M  V30 1133 O 109.519 1.36054 1.38574 0
M  V30 1134 C 106.649 2.71232 2.16911 0
M  V30 1135 C 105.603 3.83781 1.89463 0
M  V30 1136 C 104.929 4.26127 3.22986 0
M  V30 1137 C 106.229 5.08238 1.20381 0
M  V30 1138 H 107.923 2.96488 0.416529 0
M  V30 1139 H 105.469 1.4262 0.198908 0
M  V30 1140 H 107.422 3.10458 2.84945 0
M  V30 1141 H 106.146 1.87426 2.67468 0
M  V30 1142 H 104.805 3.45051 1.23836 0
M  V30 1143 H 104.453 3.39249 3.71374 0
M  V30 1144 H 104.153 5.01993 3.05413 0
M  V30 1145 H 105.677 4.67966 3.92225 0
M  V30 1146 H 107.091 5.44811 1.78475 0
M  V30 1147 H 105.488 5.89349 1.13083 0
M  V30 1148 H 106.558 4.84558 0.182153 0
M  V30 1149 N 107.901 -0.206675 1.56239 0
M  V30 1150 C 108.864 -1.23976 1.92776 0
M  V30 1151 C 109.864 -1.39041 0.807729 0
M  V30 1152 O 111.054 -1.37051 1.0753 0
M  V30 1153 C 108.186 -2.61112 2.19165 0
M  V30 1154 H 109.379 -0.927764 2.85189 0
M  V30 1155 H 106.932 -0.447718 1.4975 0
M  V30 1156 H 107.667 -2.97386 1.29352 0
M  V30 1157 H 107.452 -2.51552 3.00772 0
M  V30 1158 H 108.942 -3.35633 2.48476 0
M  V30 1159 N 109.379 -1.50304 -0.473955 0
M  V30 1160 C 110.342 -1.6841 -1.55469 0
M  V30 1161 C 111.342 -0.554905 -1.50922 0
M  V30 1162 O 112.532 -0.821882 -1.53593 0
M  V30 1163 C 109.664 -1.70667 -2.95102 0
M  V30 1164 H 110.857 -2.64828 -1.40733 0
M  V30 1165 H 108.41 -1.39742 -0.700132 0
M  V30 1166 H 109.145 -0.75932 -3.15285 0
M  V30 1167 H 108.93 -2.52698 -2.9981 0
M  V30 1168 H 110.42 -1.8664 -3.73571 0
M  V30 1169 N 110.857 0.726932 -1.39834 0
M  V30 1170 C 112.268 1.30558 -1.3346 0
M  V30 1171 C 112.619 1.962 -0.00273003 0
M  V30 1172 O 111.744 1.96826 0.899371 0
M  V30 1173 C 112.339 2.37404 -2.41713 0
M  V30 1174 C 110.898 2.90921 -2.38835 0
M  V30 1175 C 110.045 1.64578 -2.2318 0
M  V30 1176 H 112.996 0.523862 -1.49804 0
M  V30 1177 H 113.017 3.17984 -2.08966 0
M  V30 1178 H 112.529 1.89599 -3.38635 0
M  V30 1179 H 110.63 3.42985 -1.45575 0
M  V30 1180 H 110.743 3.43487 -3.33997 0
M  V30 1181 H 109.107 1.89219 -1.70494 0
M  V30 1182 H 109.89 1.18814 -3.22084 0
M  V30 1183 N 112.336 1.25143 0.95797 0
M  V30 1184 C 113.268 1.01023 2.05735 0
M  V30 1185 C 114.281 -0.0236902 1.62783 0
M  V30 1186 O 115.47 0.21448 1.77207 0
M  V30 1187 C 112.57 0.504595 3.35122 0
M  V30 1188 C 111.743 1.6039 4.06932 0
M  V30 1189 C 110.802 1.09922 5.14591 0
M  V30 1190 O 109.828 1.79293 5.40225 0
M  V30 1191 N 111.03 -0.0612545 5.80468 0
M  V30 1192 H 113.795 1.95683 2.26998 0
M  V30 1193 H 111.356 1.16303 1.12629 0
M  V30 1194 H 113.348 0.151516 4.04416 0
M  V30 1195 H 111.918 -0.347989 3.10657 0
M  V30 1196 H 111.138 2.12872 3.31782 0
M  V30 1197 H 112.426 2.34252 4.51667 0
M  V30 1198 H 111.824 -0.640985 5.62057 0
M  V30 1199 H 110.381 -0.355395 6.5083 0
M  V30 1200 N 113.814 -1.1601 1.06675 0
M  V30 1201 C 115.063 -1.85973 0.780818 0
M  V30 1202 C 115.376 -1.82819 -0.695444 0
M  V30 1203 O 116.582 -2.484 -1.09589 0
M  V30 1204 C 115.038 -3.33757 1.34665 0
M  V30 1205 C 114.646 -3.45374 2.85343 0
M  V30 1206 C 116.39 -4.0895 1.13843 0
M  V30 1207 C 114.297 -4.87266 3.35151 0
M  V30 1208 H 113.227 -0.696661 0.288407 0
M  V30 1209 H 115.878 -1.30903 1.28595 0
M  V30 1210 H 114.26 -3.88456 0.769274 0
M  V30 1211 H 115.434 -3.00816 3.49065 0
M  V30 1212 H 113.749 -2.83619 3.04876 0
M  V30 1213 H 116.346 -5.13654 1.4854 0
M  V30 1214 H 116.689 -4.16229 0.0770282 0
M  V30 1215 H 117.222 -3.605 1.68179 0
M  V30 1216 H 113.961 -4.85168 4.40786 0
M  V30 1217 H 113.481 -5.32433 2.76179 0
M  V30 1218 H 115.16 -5.56097 3.30704 0
M  V30 1219 N 115.292 -0.849877 -1.32721 0
M  V30 1220 C 116.569 -0.372405 -1.92022 0
M  V30 1221 C 116.949 1.1435 -1.77447 0
M  V30 1222 O 116.297 1.96296 -1.16962 0
M  V30 1223 C 116.507 -0.831482 -3.3895 0
M  V30 1224 C 117.855 -0.845882 -4.16089 0
M  V30 1225 O 118.879 -0.775806 -3.47649 0
M  V30 1226 O 117.738 -0.943753 -5.38289 0
M  V30 1227 H 114.832 -0.107667 -0.819961 0
M  V30 1228 H 117.378 -0.93646 -1.41522 0
M  V30 1229 H 116.15 -1.87448 -3.4348 0
M  V30 1230 H 115.773 -0.24461 -3.96847 0
M  V30 1231 N 116.77 1.45427 -0.607355 0
M  V30 1232 C 118.016 2.0254 -0.102607 0
M  V30 1233 C 118.349 1.47478 1.26348 0
M  V30 1234 O 117.624 0.64939 1.83339 0
M  V30 1235 C 117.907 3.60044 -0.0634347 0
M  V30 1236 C 117.76 4.2544 -1.46017 0
M  V30 1237 C 119.079 4.35646 0.624514 0
M  V30 1238 H 116.198 0.73598 -0.0387607 0
M  V30 1239 H 118.84 1.73284 -0.779282 0
M  V30 1240 H 116.99 3.85101 0.512808 0
M  V30 1241 H 118.662 4.11569 -2.08347 0
M  V30 1242 H 116.905 3.83849 -2.02094 0
M  V30 1243 H 117.576 5.34342 -1.385 0
M  V30 1244 H 120.052 4.15882 0.134723 0
M  V30 1245 H 118.928 5.45376 0.621028 0
M  V30 1246 H 119.189 4.08501 1.69055 0
M  V30 1247 N 118.248 0.346503 1.53744 0
M  V30 1248 C 119.473 -0.253074 2.0585 0
M  V30 1249 C 119.898 -1.43202 1.21962 0
M  V30 1250 O 119.256 -1.79783 0.234073 0
M  V30 1251 C 119.304 -0.643193 3.54817 0
M  V30 1252 O 118.408 -1.74286 3.73762 0
M  V30 1253 H 117.749 -0.0413583 0.662711 0
M  V30 1254 H 120.279 0.501574 1.98357 0
M  V30 1255 H 120.289 -0.919526 3.97503 0
M  V30 1256 H 118.964 0.218966 4.15323 0
M  V30 1257 H 117.541 -1.46356 3.42979 0
M  V30 1258 N 119.726 -1.57421 0.075193 0
M  V30 1259 C 120.673 -2.12915 -0.890843 0
M  V30 1260 C 121.643 -1.04252 -1.29309 0
M  V30 1261 O 122.828 -1.31933 -1.37834 0
M  V30 1262 C 119.968 -2.69795 -2.15186 0
M  V30 1263 C 119.081 -3.92624 -1.80194 0
M  V30 1264 C 118.216 -4.37736 -3.00933 0
M  V30 1265 C 117.255 -5.53205 -2.61974 0
M  V30 1266 N 116.392 -5.9326 -3.75483 0
M  V30 1267 H 121.232 -2.95156 -0.410735 0
M  V30 1268 H 118.769 -1.45854 -0.191086 0
M  V30 1269 H 120.727 -3.00883 -2.89008 0
M  V30 1270 H 119.357 -1.90313 -2.60731 0
M  V30 1271 H 118.409 -3.67977 -0.964218 0
M  V30 1272 H 119.721 -4.76482 -1.47534 0
M  V30 1273 H 118.875 -4.70503 -3.8303 0
M  V30 1274 H 117.614 -3.52739 -3.36789 0
M  V30 1275 H 116.619 -5.20086 -1.783 0
M  V30 1276 H 117.844 -6.39936 -2.27284 0
M  V30 1277 H 115.79 -5.11212 -4.11094 0
M  V30 1278 H 115.707 -6.71865 -3.46602 0
M  V30 1279 H 116.975 -6.30651 -4.58148 0
M  V30 1280 N 121.204 0.198386 -1.56346 0
M  V30 1281 C 122.62 0.549085 -1.49857 0
M  V30 1282 C 122.82 1.86016 -0.774611 0
M  V30 1283 O 121.876 2.50416 -0.323776 0
M  V30 1284 C 123.189 0.606868 -2.94512 0
M  V30 1285 C 124.737 0.695925 -3.05165 0
M  V30 1286 C 125.212 0.784848 -4.51225 0
M  V30 1287 N 126.703 0.848463 -4.55363 0
M  V30 1288 C 127.438 0.937378 -5.65686 0
M  V30 1289 N 126.934 0.9888 -6.85707 0
M  V30 1290 N 128.727 0.974312 -5.53592 0
M  V30 1291 H 120.878 -0.661655 -2.01831 0
M  V30 1292 H 123.141 -0.235261 -0.918344 0
M  V30 1293 H 122.847 -0.28732 -3.50524 0
M  V30 1294 H 122.721 1.46268 -3.47686 0
M  V30 1295 H 125.108 1.58055 -2.49204 0
M  V30 1296 H 125.189 -0.186022 -2.55123 0
M  V30 1297 H 124.833 -0.0954072 -5.0781 0
M  V30 1298 H 124.763 1.68255 -4.98997 0
M  V30 1299 H 127.254 0.818103 -3.68938 0
M  V30 1300 H 127.567 1.05707 -7.65536 0
M  V30 1301 H 125.912 0.957534 -6.88372 0
M  V30 1302 H 129.103 0.930954 -4.58749 0
M  V30 1303 H 129.276 1.04015 -6.39597 0
M  V30 1304 N 122.682 1.50554 0.465978 0
M  V30 1305 C 123.931 1.61038 1.21448 0
M  V30 1306 C 124.244 0.31865 1.92987 0
M  V30 1307 O 125.45 0.302469 2.6981 0
M  V30 1308 C 123.906 2.84283 2.20706 0
M  V30 1309 C 123.514 4.20352 1.54946 0
M  V30 1310 C 125.258 3.04115 2.96166 0
M  V30 1311 C 123.165 5.34778 2.5252 0
M  V30 1312 H 122.095 0.599718 0.457005 0
M  V30 1313 H 124.746 1.7699 0.484424 0
M  V30 1314 H 123.128 2.61901 2.97025 0
M  V30 1315 H 124.302 4.53008 0.843811 0
M  V30 1316 H 122.617 4.06167 0.917475 0
M  V30 1317 H 125.214 3.86774 3.69202 0
M  V30 1318 H 125.557 2.16045 3.55852 0
M  V30 1319 H 126.09 3.26702 2.26959 0
M  V30 1320 H 122.829 6.25018 1.97566 0
M  V30 1321 H 122.349 5.06534 3.21222 0
M  V30 1322 H 124.028 5.65561 3.14245 0
M  V30 1323 N 124.16 -0.719506 1.40217 0
M  V30 1324 C 125.409 -1.47486 1.37589 0
M  V30 1325 C 125.722 -1.9559 -0.0201568 0
M  V30 1326 O 126.928 -2.70973 -0.169049 0
M  V30 1327 C 125.384 -2.66575 2.41796 0
M  V30 1328 C 124.992 -2.25358 3.87192 0
M  V30 1329 C 126.736 -3.4433 2.48269 0
M  V30 1330 C 124.643 -3.41262 4.83005 0
M  V30 1331 H 123.573 -0.553901 0.511576 0
M  V30 1332 H 126.224 -0.783427 1.65936 0
M  V30 1333 H 124.606 -3.3787 2.06543 0
M  V30 1334 H 125.78 -1.61509 4.31569 0
M  V30 1335 H 124.095 -1.60657 3.84159 0
M  V30 1336 H 126.692 -4.30569 3.17041 0
M  V30 1337 H 127.035 -3.87872 1.51198 0
M  V30 1338 H 127.568 -2.80076 2.82493 0
M  V30 1339 H 124.307 -3.02755 5.81394 0
M  V30 1340 H 123.827 -4.0404 4.43297 0
M  V30 1341 H 125.506 -4.07383 5.02641 0
M  V30 1342 N 125.638 -1.25649 -0.95132 0
M  V30 1343 C 126.601 -1.06399 -2.03007 0
M  V30 1344 C 127.601 -0.0156794 -1.60792 0
M  V30 1345 O 128.791 -0.25817 -1.72276 0
M  V30 1346 C 125.923 -0.616184 -3.35285 0
M  V30 1347 H 127.116 -2.02164 -2.21517 0
M  V30 1348 H 124.669 -1.08103 -1.12887 0
M  V30 1349 H 125.404 0.343917 -3.22471 0
M  V30 1350 H 125.189 -1.37301 -3.67275 0
M  V30 1351 H 126.679 -0.503032 -4.14559 0
M  V30 1352 N 127.117 1.15442 -1.07289 0
M  V30 1353 C 128.363 1.86489 -0.796846 0
M  V30 1354 C 128.696 1.82078 0.675371 0
M  V30 1355 O 127.971 1.24346 1.4956 0
M  V30 1356 C 128.254 3.35626 -1.30489 0
M  V30 1357 C 128.107 3.48673 -2.84161 0
M  V30 1358 C 129.426 4.30357 -0.920907 0
M  V30 1359 H 126.545 0.677144 -0.290939 0
M  V30 1360 H 129.187 1.35633 -1.33056 0
M  V30 1361 H 127.337 3.79068 -0.850883 0
M  V30 1362 H 129.009 3.14099 -3.37846 0
M  V30 1363 H 127.252 2.90253 -3.22391 0
M  V30 1364 H 127.923 4.53453 -3.14777 0
M  V30 1365 H 130.399 3.94871 -1.3121 0
M  V30 1366 H 129.275 5.33193 -1.30372 0
M  V30 1367 H 129.536 4.4176 0.173226 0
M  V30 1368 N 128.595 0.856903 1.32268 0
M  V30 1369 C 129.525 0.31858 2.31316 0
M  V30 1370 C 130.506 -0.583487 1.59779 0
M  V30 1371 O 131.691 -0.503259 1.87566 0
M  V30 1372 C 128.821 -0.491979 3.43798 0
M  V30 1373 C 127.775 0.315849 4.26833 0
M  V30 1374 C 127.101 -0.619586 5.31098 0
M  V30 1375 C 128.401 1.54282 4.98993 0
M  V30 1376 H 130.095 1.14621 2.76591 0
M  V30 1377 H 127.641 0.552613 1.32974 0
M  V30 1378 H 129.594 -0.879012 4.1213 0
M  V30 1379 H 128.318 -1.35299 2.97257 0
M  V30 1380 H 126.977 0.684664 3.6015 0
M  V30 1381 H 126.625 -1.47751 4.8081 0
M  V30 1382 H 126.325 -0.0830621 5.87541 0
M  V30 1383 H 127.849 -1.00375 6.02293 0
M  V30 1384 H 129.263 1.22796 5.59995 0
M  V30 1385 H 127.66 2.01745 5.65172 0
M  V30 1386 H 128.73 2.30285 4.26728 0
M  V30 1387 N 130.073 -1.45103 0.615059 0
M  V30 1388 C 131.319 -2.02483 0.113347 0
M  V30 1389 C 131.652 -1.48146 -1.25564 0
M  V30 1390 O 130.927 -0.659104 -1.82992 0
M  V30 1391 C 131.21 -3.60005 0.0825278 0
M  V30 1392 C 131.063 -4.2466 1.48271 0
M  V30 1393 C 132.382 -4.35972 -0.601401 0
M  V30 1394 H 129.501 -0.735764 0.0426632 0
M  V30 1395 H 132.143 -1.72868 0.788461 0
M  V30 1396 H 130.293 -3.85367 -0.492378 0
M  V30 1397 H 131.965 -4.10458 2.10527 0
M  V30 1398 H 130.208 -3.82772 2.04127 0
M  V30 1399 H 130.879 -5.336 1.41332 0
M  V30 1400 H 133.355 -4.15947 -0.112666 0
M  V30 1401 H 132.231 -5.45697 -0.592097 0
M  V30 1402 H 132.492 -4.09391 -1.66887 0
M  V30 1403 N 131.551 -0.354651 -1.53558 0
M  V30 1404 C 132.962 0.126902 -1.86268 0
M  V30 1405 C 133.313 1.49075 -1.27558 0
M  V30 1406 O 132.438 2.08105 -0.5934 0
M  V30 1407 C 133.033 0.237046 -3.3797 0
M  V30 1408 C 131.592 0.662842 -3.70518 0
M  V30 1409 C 130.739 -0.196652 -2.76602 0
M  V30 1410 H 133.69 -0.573849 -1.47962 0
M  V30 1411 H 133.711 1.06259 -3.65362 0
M  V30 1412 H 133.223 -0.755725 -3.80671 0
M  V30 1413 H 131.324 1.66424 -3.33367 0
M  V30 1414 H 131.437 0.445034 -4.77029 0
M  V30 1415 H 129.801 0.332763 -2.52517 0
M  V30 1416 H 130.584 -1.18676 -3.22135 0
M  V30 1417 N 133.029 1.57378 -0.0835403 0
M  V30 1418 C 133.977 2.14602 0.89714 0
M  V30 1419 C 134.971 1.08589 1.30018 0
M  V30 1420 O 136.177 1.26952 1.27606 0
M  V30 1421 H 132.552 0.686346 0.3073 0
M  V30 1422 H 134.523 2.95845 0.38969 0
M  V30 1423 C 133.272 2.73188 2.15089 0
M  V30 1424 H 132.595 3.54442 1.84962 0
M  V30 1425 H 134.035 3.1681 2.81793 0
M  V30 1426 C 132.494 1.68517 2.91725 0
M  V30 1427 O 133.024 1.11718 3.85852 0
M  V30 1428 N 131.23 1.39277 2.55049 0
M  V30 1429 H 130.777 1.85655 1.78577 0
M  V30 1430 H 130.735 0.694791 3.06627 0
M  V30 1431 N 134.507 -0.190092 1.56449 0
M  V30 1432 C 135.437 -1.23816 1.97969 0
M  V30 1433 C 136.418 -1.47201 0.852395 0
M  V30 1434 O 137.603 -1.58854 1.1171 0
M  V30 1435 C 134.733 -2.5813 2.3235 0
M  V30 1436 C 133.687 -2.49348 3.47864 0
M  V30 1437 C 133.013 -3.8798 3.67934 0
M  V30 1438 C 134.313 -2.01424 4.81898 0
M  V30 1439 H 136.007 -0.89311 2.85769 0
M  V30 1440 H 133.553 -0.428177 1.37487 0
M  V30 1441 H 135.506 -3.31637 2.59991 0
M  V30 1442 H 134.23 -2.94386 1.41438 0
M  V30 1443 H 132.889 -1.78297 3.20321 0
M  V30 1444 H 132.537 -4.21597 2.74344 0
M  V30 1445 H 132.237 -3.82978 4.45648 0
M  V30 1446 H 133.761 -4.63101 3.97957 0
M  V30 1447 H 135.175 -2.64693 5.08538 0
M  V30 1448 H 133.572 -2.07413 5.63116 0
M  V30 1449 H 134.642 -0.967677 4.75146 0
M  V30 1450 N 135.985 -1.50799 -0.457987 0
M  V30 1451 C 137.396 -1.55152 -1.0385 0
M  V30 1452 C 137.747 -0.362719 -1.92818 0
M  V30 1453 O 136.872 0.522915 -2.09987 0
M  V30 1454 C 137.467 -2.81173 -1.89017 0
M  V30 1455 C 136.026 -2.88164 -2.42154 0
M  V30 1456 C 135.173 -2.49591 -1.20829 0
M  V30 1457 H 138.124 -1.56874 -0.240068 0
M  V30 1458 H 138.145 -2.63769 -2.74238 0
M  V30 1459 H 137.657 -3.67677 -1.24238 0
M  V30 1460 H 135.758 -2.06042 -3.10447 0
M  V30 1461 H 135.871 -3.91356 -2.76364 0
M  V30 1462 H 134.235 -2.02322 -1.54719 0
M  V30 1463 H 135.018 -3.38418 -0.576927 0
M  V30 1464 N 137.463 0.71206 -1.40597 0
M  V30 1465 C 138.74 1.46536 -1.29563 0
M  V30 1466 C 139.12 2.10931 0.0844217 0
M  V30 1467 O 138.468 2.00418 1.0975 0
M  V30 1468 C 138.678 2.49821 -2.43701 0
M  V30 1469 C 140.026 3.15551 -2.841 0
M  V30 1470 O 141.05 2.60142 -2.4332 0
M  V30 1471 O 139.909 4.15867 -3.54566 0
M  V30 1472 H 137.003 0.651801 -0.509004 0
M  V30 1473 H 139.549 0.743935 -1.52524 0
M  V30 1474 H 138.321 2.00778 -3.35863 0
M  V30 1475 H 137.944 3.29495 -2.22528 0
M  V30 1476 N 138.941 1.26152 0.944643 0
M  V30 1477 C 139.888 1.07408 2.04285 0
M  V30 1478 C 140.858 -0.0198413 1.66088 0
M  V30 1479 O 142.043 0.139264 1.90291 0
M  V30 1480 C 139.183 0.70945 3.37729 0
M  V30 1481 C 138.296 1.87926 3.88983 0
M  V30 1482 C 137.431 1.45807 5.10797 0
M  V30 1483 C 136.47 2.5964 5.54305 0
M  V30 1484 N 135.607 2.18226 6.67324 0
M  V30 1485 H 140.447 2.01389 2.1965 0
M  V30 1486 H 137.984 1.00275 1.07626 0
M  V30 1487 H 139.942 0.478948 4.14442 0
M  V30 1488 H 138.572 -0.193389 3.2222 0
M  V30 1489 H 137.624 2.22279 3.08701 0
M  V30 1490 H 138.936 2.73377 4.17213 0
M  V30 1491 H 138.09 1.18781 5.94959 0
M  V30 1492 H 136.829 0.574414 4.84305 0
M  V30 1493 H 135.834 2.87399 4.68702 0
M  V30 1494 H 137.059 3.48599 5.828 0
M  V30 1495 H 135.005 1.3229 6.42523 0
M  V30 1496 H 134.922 2.97221 6.95123 0
M  V30 1497 H 136.19 1.94403 7.54869 0
M  V30 1498 N 140.419 -1.14872 1.07899 0
M  V30 1499 C 141.329 -2.2341 0.715915 0
M  V30 1500 C 142.345 -1.71808 -0.275306 0
M  V30 1501 O 143.521 -2.01039 -0.120545 0
M  V30 1502 C 140.586 -3.46474 0.125168 0
M  V30 1503 C 139.647 -4.13039 1.17034 0
M  V30 1504 C 138.88 -5.30229 0.607688 0
M  V30 1505 O 139.103 -5.675 -0.574497 0
M  V30 1506 O 138.037 -5.86444 1.35526 0
M  V30 1507 H 141.863 -2.56808 1.62121 0
M  V30 1508 H 139.448 -1.22702 0.852322 0
M  V30 1509 H 141.33 -4.20917 -0.201729 0
M  V30 1510 H 140.005 -3.14811 -0.753364 0
M  V30 1511 H 138.912 -3.40493 1.54968 0
M  V30 1512 H 140.245 -4.48796 2.02097 0
M  V30 1513 N 141.898 -0.863906 -1.31812 0
M  V30 1514 C 143.146 -0.470904 -1.96537 0
M  V30 1515 C 143.467 0.978771 -1.68657 0
M  V30 1516 O 142.737 1.6853 -0.998717 0
M  V30 1517 H 141.317 -0.171148 -0.72713 0
M  V30 1518 H 143.979 -1.10236 -1.60729 0
M  V30 1519 H 143.075 -0.623616 -3.05806 0
M  V30 1520 N 143.376 1.44774 -0.622745 0
M  V30 1521 C 144.324 2.32387 0.0994683 0
M  V30 1522 C 145.318 1.46859 0.844326 0
M  V30 1523 O 146.524 1.63254 0.758174 0
M  V30 1524 H 142.899 0.750273 0.0509291 0
M  V30 1525 H 144.87 2.91062 -0.65767 0
M  V30 1526 C 143.619 3.30723 1.07319 0
M  V30 1527 H 142.942 3.96541 0.509462 0
M  V30 1528 H 144.382 3.94725 1.54817 0
M  V30 1529 C 142.841 2.59021 2.15429 0
M  V30 1530 O 143.371 2.38286 3.23393 0
M  V30 1531 N 141.577 2.189 1.91131 0
M  V30 1532 H 141.124 2.35964 1.03337 0
M  V30 1533 H 141.082 1.71251 2.63668 0
M  V30 1534 N 144.854 0.36279 1.53368 0
M  V30 1535 C 146.265 -0.117022 1.86333 0
M  V30 1536 C 146.616 -1.48397 1.28347 0
M  V30 1537 O 145.741 -2.07787 0.604428 0
M  V30 1538 C 146.336 -0.21912 3.38091 0
M  V30 1539 C 144.895 -0.643184 3.70864 0
M  V30 1540 C 144.042 0.211318 2.76494 0
M  V30 1541 H 146.993 0.581687 1.47655 0
M  V30 1542 H 147.014 -1.04319 3.6592 0
M  V30 1543 H 146.526 0.775902 3.80265 0
M  V30 1544 H 144.627 -1.64654 3.34245 0
M  V30 1545 H 144.74 -0.41973 4.77258 0
M  V30 1546 H 143.104 -0.319367 2.5269 0
M  V30 1547 H 143.887 1.20383 3.21501 0
M  V30 1548 N 146.332 -1.57332 0.0918853 0
M  V30 1549 C 147.743 -1.81496 -0.437739 0
M  V30 1550 C 148.094 -1.00727 -1.6837 0
M  V30 1551 O 147.219 -0.235694 -2.15113 0
M  V30 1552 C 147.814 -3.29197 -0.800939 0
M  V30 1553 C 146.373 -3.54136 -1.27532 0
M  V30 1554 C 145.52 -2.75979 -0.270392 0
M  V30 1555 H 148.471 -1.55494 0.317366 0
M  V30 1556 H 148.492 -3.42344 -1.66074 0
M  V30 1557 H 148.004 -3.87955 0.106078 0
M  V30 1558 H 146.105 -3.00705 -2.20016 0
M  V30 1559 H 146.218 -4.62792 -1.23938 0
M  V30 1560 H 144.582 -2.43349 -0.751872 0
M  V30 1561 H 145.365 -3.37484 0.629248 0
M  V30 1562 N 147.81 0.181792 -1.56548 0
M  V30 1563 C 148.757 1.22521 -1.95595 0
M  V30 1564 C 149.727 1.4454 -0.818373 0
M  V30 1565 O 150.912 1.57454 -1.07763 0
M  V30 1566 C 148.052 2.56193 -2.31212 0
M  V30 1567 C 147.165 2.41641 -3.58097 0
M  V30 1568 C 146.3 3.68108 -3.82975 0
M  V30 1569 C 145.339 3.48445 -5.03242 0
M  V30 1570 N 144.476 4.66956 -5.24306 0
M  V30 1571 H 149.316 0.885226 -2.84548 0
M  V30 1572 H 146.853 0.425718 -1.40805 0
M  V30 1573 H 148.811 3.34088 -2.49882 0
M  V30 1574 H 147.441 2.88208 -1.45382 0
M  V30 1575 H 146.493 1.54976 -3.474 0
M  V30 1576 H 147.805 2.23052 -4.46149 0
M  V30 1577 H 146.959 4.54441 -4.01956 0
M  V30 1578 H 145.698 3.89666 -2.93278 0
M  V30 1579 H 144.703 2.60499 -4.8417 0
M  V30 1580 H 145.928 3.2832 -5.9446 0
M  V30 1581 H 143.874 4.88752 -4.37559 0
M  V30 1582 H 143.791 4.51242 -6.06561 0
M  V30 1583 H 145.059 5.54602 -5.47756 0
M  V30 1584 N 149.288 1.51039 0.449983 0
M  V30 1585 C 150.198 1.74261 1.57067 0
M  V30 1586 C 151.214 0.626363 1.62335 0
M  V30 1587 O 152.39 0.907162 1.79812 0
M  V30 1588 C 149.455 1.85114 2.93144 0
M  V30 1589 C 148.516 3.0893 2.98095 0
M  V30 1590 C 147.749 3.19256 4.27681 0
M  V30 1591 O 147.972 2.35835 5.19363 0
M  V30 1592 O 146.906 4.12144 4.38658 0
M  V30 1593 H 150.732 2.69303 1.40391 0
M  V30 1594 H 148.317 1.35389 0.631688 0
M  V30 1595 H 150.199 1.94311 3.73926 0
M  V30 1596 H 148.874 0.932588 3.09975 0
M  V30 1597 H 147.781 3.0522 2.16314 0
M  V30 1598 H 149.114 4.00433 2.86206 0
M  V30 1599 N 150.766 -0.704594 1.40972 0
M  V30 1600 C 151.729 -1.80035 1.41845 0
M  V30 1601 C 152.729 -1.57774 0.310474 0
M  V30 1602 O 153.919 -1.64613 0.56992 0
M  V30 1603 C 151.051 -3.18284 1.22098 0
M  V30 1604 H 152.244 -1.80658 2.3938 0
M  V30 1605 H 149.797 -0.911329 1.26982 0
M  V30 1606 H 150.532 -3.23306 0.253672 0
M  V30 1607 H 150.317 -3.35843 2.02366 0
M  V30 1608 H 151.807 -3.98289 1.25522 0
M  V30 1609 N 152.244 -1.26651 -0.937939 0
M  V30 1610 C 153.474 -1.15006 -1.71631 0
M  V30 1611 C 153.882 0.297026 -1.86854 0
M  V30 1612 O 153.225 1.21493 -1.37786 0
M  V30 1613 C 153.287 -1.74984 -3.14039 0
M  V30 1614 C 152.951 -3.24103 -3.2219 0
M  V30 1615 C 153.948 -4.20877 -3.05219 0
M  V30 1616 C 151.633 -3.64625 -3.45476 0
M  V30 1617 C 153.627 -5.56151 -3.11408 0
M  V30 1618 C 151.314 -5.00032 -3.513 0
M  V30 1619 C 152.312 -5.95604 -3.34282 0
M  V30 1620 O 152 -7.28545 -3.3982 0
M  V30 1621 H 151.732 -0.401183 -0.544085 0
M  V30 1622 H 154.286 -1.67832 -1.18413 0
M  V30 1623 H 152.516 -1.16624 -3.68695 0
M  V30 1624 H 154.205 -1.58199 -3.73802 0
M  V30 1625 H 154.971 -3.90908 -2.87081 0
M  V30 1626 H 150.85 -2.90718 -3.57777 0
M  V30 1627 H 154.394 -6.30727 -2.98043 0
M  V30 1628 H 150.291 -5.29659 -3.68959 0
M  V30 1629 H 151.059 -7.3686 -3.56343 0
M  V30 1630 N 153.722 1.14298 -1.08507 0
M  V30 1631 C 154.947 1.8976 -0.837001 0
M  V30 1632 C 155.372 1.78097 0.605228 0
M  V30 1633 O 154.73 1.12188 1.4242 0
M  V30 1634 C 154.778 3.37685 -1.26495 0
M  V30 1635 O 153.882 4.10281 -0.417514 0
M  V30 1636 H 153.223 0.590365 -0.303917 0
M  V30 1637 H 155.753 1.44672 -1.44676 0
M  V30 1638 H 155.763 3.88501 -1.24625 0
M  V30 1639 H 154.438 3.45492 -2.31534 0
M  V30 1640 H 153.015 3.69536 -0.499722 0
M  V30 1641 N 155.201 0.870884 1.31352 0
M  V30 1642 C 156.447 0.492314 1.97352 0
M  V30 1643 C 156.802 -0.945174 1.67583 0
M  V30 1644 O 156.095 -1.65674 0.962423 0
M  V30 1645 C 156.289 0.687157 3.50732 0
M  V30 1646 C 156.118 2.14203 3.95407 0
M  V30 1647 C 154.888 2.78382 4.21701 0
M  V30 1648 C 157.086 3.1144 4.09279 0
M  V30 1649 N 155.068 4.14611 4.52737 0
M  V30 1650 C 156.439 4.32702 4.44037 0
M  V30 1651 C 158.494 3.07418 3.91661 0
M  V30 1652 C 157.197 5.50463 4.63015 0
M  V30 1653 C 159.223 4.24438 4.11833 0
M  V30 1654 C 158.585 5.44463 4.46923 0
M  V30 1655 H 154.684 0.229206 0.747655 0
M  V30 1656 H 157.268 1.12568 1.5886 0
M  V30 1657 H 155.439 0.083384 3.8831 0
M  V30 1658 H 157.171 0.276883 4.03752 0
M  V30 1659 H 153.926 2.29326 4.14375 0
M  V30 1660 H 154.35 4.84928 4.72413 0
M  V30 1661 H 158.992 2.15732 3.6362 0
M  V30 1662 H 156.71 6.42666 4.89904 0
M  V30 1663 H 160.296 4.2278 3.99685 0
M  V30 1664 H 159.176 6.33504 4.62214 0
M  V30 1665 N 156.679 -1.44442 0.630414 0
M  V30 1666 C 157.611 -2.2892 -0.113347 0
M  V30 1667 C 158.624 -1.41243 -0.80959 0
M  V30 1668 O 159.813 -1.65402 -0.671156 0
M  V30 1669 C 156.913 -3.17594 -1.18266 0
M  V30 1670 C 156.086 -4.33682 -0.569073 0
M  V30 1671 C 155.145 -5.03397 -1.53226 0
M  V30 1672 O 154.171 -5.59438 -1.04967 0
M  V30 1673 N 155.373 -5.04783 -2.86661 0
M  V30 1674 H 158.138 -2.93392 0.611636 0
M  V30 1675 H 155.699 -1.54881 0.471523 0
M  V30 1676 H 157.691 -3.61097 -1.82732 0
M  V30 1677 H 156.261 -2.54876 -1.80988 0
M  V30 1678 H 155.481 -3.9338 0.254187 0
M  V30 1679 H 156.769 -5.08608 -0.139767 0
M  V30 1680 H 156.167 -4.60584 -3.28449 0
M  V30 1681 H 154.724 -5.52077 -3.46489 0
M  V30 1682 N 158.157 -0.370918 -1.53173 0
M  V30 1683 C 159.067 0.480823 -2.2962 0
M  V30 1684 C 160.083 1.08789 -1.35798 0
M  V30 1685 O 161.259 1.09768 -1.68858 0
M  V30 1686 C 158.324 1.60227 -3.07454 0
M  V30 1687 C 157.385 1.0222 -4.16953 0
M  V30 1688 C 156.618 2.0902 -4.91066 0
M  V30 1689 O 156.841 3.30222 -4.65091 0
M  V30 1690 O 155.775 1.71778 -5.76867 0
M  V30 1691 H 159.601 -0.141421 -3.03371 0
M  V30 1692 H 157.186 -0.135146 -1.48787 0
M  V30 1693 H 159.068 2.25417 -3.56041 0
M  V30 1694 H 157.743 2.20982 -2.36535 0
M  V30 1695 H 156.65 0.334064 -3.72605 0
M  V30 1696 H 157.983 0.459131 -4.90054 0
M  V30 1697 N 159.635 1.57281 -0.100228 0
M  V30 1698 C 160.881 1.94826 0.563101 0
M  V30 1699 C 161.214 0.982475 1.67514 0
M  V30 1700 O 160.489 0.0164069 1.94493 0
M  V30 1701 C 160.772 3.42453 1.11346 0
M  V30 1702 C 160.625 4.498 0.00612081 0
M  V30 1703 C 161.944 3.91506 2.01024 0
M  V30 1704 H 159.063 0.708428 0.203221 0
M  V30 1705 H 161.705 1.8922 -0.171979 0
M  V30 1706 H 159.855 3.47361 1.7399 0
M  V30 1707 H 161.527 4.57 -0.628357 0
M  V30 1708 H 159.77 4.28756 -0.659581 0
M  V30 1709 H 160.441 5.50306 0.432109 0
M  V30 1710 H 162.917 3.88784 1.48278 0
M  V30 1711 H 161.793 4.95358 2.36457 0
M  V30 1712 H 162.054 3.31099 2.92961 0
M  V30 1713 N 161.113 -0.173488 1.56642 0
M  V30 1714 C 162.043 -1.2171 1.99271 0
M  V30 1715 C 163.024 -1.46289 0.867959 0
M  V30 1716 O 164.209 -1.5766 1.13388 0
M  V30 1717 C 161.339 -2.55651 2.35074 0
M  V30 1718 C 160.293 -2.45645 3.50489 0
M  V30 1719 C 159.619 -3.84056 3.72028 0
M  V30 1720 C 160.919 -1.96302 4.84007 0
M  V30 1721 H 162.613 -0.86275 2.867 0
M  V30 1722 H 160.159 -0.413571 1.37933 0
M  V30 1723 H 162.112 -3.2886 2.63494 0
M  V30 1724 H 160.836 -2.92869 1.44552 0
M  V30 1725 H 159.495 -1.7489 3.22194 0
M  V30 1726 H 159.143 -4.18664 2.788 0
M  V30 1727 H 158.843 -3.7823 4.49684 0
M  V30 1728 H 160.367 -4.58854 4.02846 0
M  V30 1729 H 161.781 -2.59284 5.11317 0
M  V30 1730 H 160.178 -2.01429 5.65284 0
M  V30 1731 H 161.248 -0.917226 4.76146 0
M  V30 1732 N 162.591 -1.51276 -0.441967 0
M  V30 1733 C 163.821 -1.67273 -1.21257 0
M  V30 1734 C 164.229 -0.367624 -1.85594 0
M  V30 1735 O 163.572 0.663349 -1.71305 0
M  V30 1736 C 163.634 -2.72807 -2.34129 0
M  V30 1737 C 163.298 -4.1554 -1.90198 0
M  V30 1738 C 164.295 -5.00471 -1.40801 0
M  V30 1739 C 161.98 -4.61616 -1.9803 0
M  V30 1740 C 163.974 -6.29536 -0.998174 0
M  V30 1741 C 161.661 -5.90679 -1.56658 0
M  V30 1742 C 162.659 -6.74466 -1.07633 0
M  V30 1743 O 162.347 -8.01116 -0.668459 0
M  V30 1744 H 162.079 -0.564614 -0.371734 0
M  V30 1745 H 164.633 -1.9843 -0.530521 0
M  V30 1746 H 162.863 -2.36954 -3.05597 0
M  V30 1747 H 164.552 -2.77729 -2.96009 0
M  V30 1748 H 165.318 -4.66079 -1.34148 0
M  V30 1749 H 161.197 -3.96526 -2.35135 0
M  V30 1750 H 164.741 -6.94885 -0.61482 0
M  V30 1751 H 160.638 -6.24586 -1.62979 0
M  V30 1752 H 161.406 -8.14633 -0.794722 0
M  V30 1753 N 164.069 0.697108 -1.41344 0
M  V30 1754 C 165.017 1.83237 -1.43272 0
M  V30 1755 C 166.011 1.66522 -0.310947 0
M  V30 1756 O 167.217 1.73402 -0.482899 0
M  V30 1757 H 163.592 0.603802 -0.448249 0
M  V30 1758 H 165.563 1.78727 -2.38954 0
M  V30 1759 C 164.312 3.21245 -1.33029 0
M  V30 1760 H 163.635 3.34723 -2.18633 0
M  V30 1761 H 165.075 4.00763 -1.38439 0
M  V30 1762 C 163.534 3.36873 -0.0424635 0
M  V30 1763 O 164.064 3.91177 0.913421 0
M  V30 1764 N 162.27 2.90581 0.0331145 0
M  V30 1765 H 161.817 2.46577 -0.745506 0
M  V30 1766 H 161.775 3.01416 0.894199 0
M  V30 1767 N 165.547 1.27147 0.931209 0
M  V30 1768 C 166.958 1.12044 1.49342 0
M  V30 1769 C 167.309 -0.295795 1.93957 0
M  V30 1770 O 166.434 -1.18835 1.80852 0
M  V30 1771 C 167.029 2.02781 2.71414 0
M  V30 1772 C 165.588 1.91794 3.2387 0
M  V30 1773 C 164.735 1.95543 1.96617 0
M  V30 1774 H 167.686 1.40091 0.745672 0
M  V30 1775 H 167.707 1.58156 3.46074 0
M  V30 1776 H 167.219 3.05848 2.38911 0
M  V30 1777 H 165.32 0.916992 3.6114 0
M  V30 1778 H 165.433 2.77852 3.90302 0
M  V30 1779 H 163.797 1.39722 2.12955 0
M  V30 1780 H 164.58 3.00259 1.66432 0
M  V30 1781 N 167.025 -1.13721 1.09112 0
M  V30 1782 C 167.972 -2.19031 0.727591 0
M  V30 1783 C 168.942 -1.63555 -0.289656 0
M  V30 1784 O 170.127 -1.90023 -0.172026 0
M  V30 1785 C 167.267 -3.4477 0.15082 0
M  V30 1786 C 166.38 -4.14365 1.22172 0
M  V30 1787 C 165.515 -5.27709 0.608042 0
M  V30 1788 C 164.554 -5.89147 1.66047 0
M  V30 1789 N 163.691 -6.93929 1.06806 0
M  V30 1790 H 168.531 -2.49475 1.62991 0
M  V30 1791 H 166.068 -1.22499 0.81439 0
M  V30 1792 H 168.026 -4.16714 -0.201358 0
M  V30 1793 H 166.656 -3.14787 -0.714783 0
M  V30 1794 H 165.708 -3.40737 1.69122 0
M  V30 1795 H 167.02 -4.56114 2.01895 0
M  V30 1796 H 166.174 -6.06355 0.204523 0
M  V30 1797 H 164.913 -4.872 -0.220769 0
M  V30 1798 H 163.918 -5.09198 2.07357 0
M  V30 1799 H 165.143 -6.31729 2.49189 0
M  V30 1800 H 163.089 -6.55483 0.260476 0
M  V30 1801 H 163.006 -7.34202 1.8023 0
M  V30 1802 H 164.274 -7.76434 0.690644 0
M  V30 1803 N 168.503 -0.877838 -1.30888 0
M  V30 1804 C 169.752 -0.488793 -1.95688 0
M  V30 1805 C 170.065 0.965485 -1.70111 0
M  V30 1806 O 171.271 1.46104 -2.28836 0
M  V30 1807 C 169.727 -0.823201 -3.50359 0
M  V30 1808 C 169.335 -2.29477 -3.84765 0
M  V30 1809 C 171.079 -0.503009 -4.21509 0
M  V30 1810 C 168.986 -2.57118 -5.32583 0
M  V30 1811 H 167.916 -0.179062 -0.732429 0
M  V30 1812 H 170.567 -1.07183 -1.48943 0
M  V30 1813 H 168.949 -0.169331 -3.95638 0
M  V30 1814 H 170.123 -2.99236 -3.5042 0
M  V30 1815 H 168.438 -2.58178 -3.267 0
M  V30 1816 H 171.035 -0.68665 -5.30273 0
M  V30 1817 H 171.378 0.557109 -4.12555 0
M  V30 1818 H 171.911 -1.11376 -3.8189 0
M  V30 1819 H 168.65 -3.61843 -5.4658 0
M  V30 1820 H 168.17 -1.91961 -5.68253 0
M  V30 1821 H 169.849 -2.42251 -5.99936 0
M  V30 1822 N 169.982 1.44106 -0.638065 0
M  V30 1823 C 171.228 2.02277 -0.145546 0
M  V30 1824 C 171.561 1.50125 1.23191 0
M  V30 1825 O 170.836 0.688133 1.8192 0
M  V30 1826 C 171.119 3.59829 -0.139791 0
M  V30 1827 C 170.972 4.22247 -1.55008 0
M  V30 1828 C 172.291 4.36873 0.531966 0
M  V30 1829 H 169.41 0.734992 -0.0543632 0
M  V30 1830 H 172.052 1.71592 -0.815863 0
M  V30 1831 H 170.202 3.86102 0.431007 0
M  V30 1832 H 171.874 4.07057 -2.1703 0
M  V30 1833 H 170.117 3.79476 -2.10191 0
M  V30 1834 H 170.788 5.31284 -1.49804 0
M  V30 1835 H 173.264 4.16074 0.0464781 0
M  V30 1836 H 172.14 5.4657 0.505206 0
M  V30 1837 H 172.401 4.11995 1.60352 0
M  V30 1838 N 171.46 0.379036 1.52974 0
M  V30 1839 C 172.685 -0.209353 2.06341 0
M  V30 1840 C 173.11 -1.40583 1.24972 0
M  V30 1841 O 172.468 -1.79246 0.272155 0
M  V30 1842 C 172.516 -0.567786 3.56102 0
M  V30 1843 O 171.62 -1.66318 3.77375 0
M  V30 1844 H 170.961 -0.0272919 0.663439 0
M  V30 1845 H 173.491 0.543536 1.97248 0
M  V30 1846 H 173.501 -0.835003 3.99364 0
M  V30 1847 H 172.176 0.307013 4.14765 0
M  V30 1848 H 170.753 -1.39048 3.46006 0
M  V30 1849 N 172.938 -1.57226 0.108567 0
M  V30 1850 C 173.888 -2.11305 -0.856396 0
M  V30 1851 C 174.872 -1.03129 -1.23504 0
M  V30 1852 O 176.064 -1.29381 -1.20787 0
M  V30 1853 C 173.193 -2.70771 -2.11041 0
M  V30 1854 C 172.279 -3.86011 -1.7566 0
M  V30 1855 N 172.67 -4.93492 -1.10902 0
M  V30 1856 C 170.968 -3.95999 -2.05185 0
M  V30 1857 C 171.669 -5.73984 -0.944308 0
M  V30 1858 N 170.645 -5.2346 -1.46596 0
M  V30 1859 H 174.447 -2.91784 -0.352002 0
M  V30 1860 H 171.961 -1.62126 -0.0942324 0
M  V30 1861 H 173.958 -3.07851 -2.81128 0
M  V30 1862 H 172.618 -1.91751 -2.62034 0
M  V30 1863 H 173.629 -5.1208 -0.774235 0
M  V30 1864 H 170.306 -3.28007 -2.58298 0
M  V30 1865 H 171.696 -6.70479 -0.436813 0
M  V30 1866 N 174.416 0.165178 -1.56732 0
M  V30 1867 C 175.641 0.900253 -1.86843 0
M  V30 1868 C 176.066 1.74766 -0.695596 0
M  V30 1869 O 175.424 1.77786 0.35522 0
M  V30 1870 C 175.472 1.74777 -3.15413 0
M  V30 1871 O 174.576 2.85007 -2.98068 0
M  V30 1872 H 173.917 0.251832 -0.614391 0
M  V30 1873 H 176.447 0.161468 -2.03962 0
M  V30 1874 H 176.457 2.14646 -3.46974 0
M  V30 1875 H 175.132 1.12537 -4.00385 0
M  V30 1876 H 173.709 2.48676 -2.77875 0
M  V30 1877 N 175.894 1.51508 0.433938 0
M  V30 1878 C 177.14 1.64588 1.18484 0
M  V30 1879 C 177.473 0.362666 1.90784 0
M  V30 1880 O 176.748 -0.637892 1.83742 0
M  V30 1881 C 177.031 2.85149 2.19913 0
M  V30 1882 C 176.884 4.23456 1.51674 0
M  V30 1883 C 178.203 3.01227 3.20858 0
M  V30 1884 H 175.322 0.598994 0.429389 0
M  V30 1885 H 177.964 1.84002 0.473647 0
M  V30 1886 H 176.114 2.68729 2.80566 0
M  V30 1887 H 177.786 4.51552 0.943322 0
M  V30 1888 H 176.029 4.25998 0.819035 0
M  V30 1889 H 176.7 5.03812 2.2556 0
M  V30 1890 H 179.176 3.16382 2.70263 0
M  V30 1891 H 178.052 3.87141 3.89118 0
M  V30 1892 H 178.313 2.13447 3.8716 0
M  V30 1893 N 177.372 -0.689602 1.41712 0
M  V30 1894 C 178.304 -1.815 1.39966 0
M  V30 1895 C 179.317 -1.59995 0.300917 0
M  V30 1896 O 180.506 -1.69387 0.563039 0
M  V30 1897 C 177.606 -3.18364 1.16179 0
M  V30 1898 C 176.779 -3.66847 2.38206 0
M  V30 1899 C 175.838 -4.82398 2.10186 0
M  V30 1900 O 174.864 -4.93706 2.83272 0
M  V30 1901 N 176.066 -5.70064 1.0958 0
M  V30 1902 H 178.831 -1.83488 2.36965 0
M  V30 1903 H 176.392 -0.872149 1.36401 0
M  V30 1904 H 178.384 -3.93301 0.953756 0
M  V30 1905 H 176.954 -3.11365 0.27756 0
M  V30 1906 H 176.174 -2.82751 2.74673 0
M  V30 1907 H 177.462 -3.95978 3.19498 0
M  V30 1908 H 176.86 -5.63565 0.491019 0
M  V30 1909 H 175.417 -6.44874 0.947656 0
M  V30 1910 N 178.85 -1.27639 -0.924453 0
M  V30 1911 C 180.127 -1.04887 -1.651 0
M  V30 1912 C 180.507 0.415327 -2.06974 0
M  V30 1913 O 179.855 1.39923 -1.80648 0
M  V30 1914 C 180.065 -2.01348 -2.85061 0
M  V30 1915 C 181.413 -2.30899 -3.56329 0
M  V30 1916 O 182.437 -1.99348 -2.95193 0
M  V30 1917 O 181.296 -2.84699 -4.66485 0
M  V30 1918 H 178.39 -0.400083 -0.723784 0
M  V30 1919 H 180.936 -1.38916 -0.974703 0
M  V30 1920 H 179.708 -3.0008 -2.51133 0
M  V30 1921 H 179.331 -1.679 -3.6041 0
M  V30 1922 N 180.328 1.1314 -1.09713 0
M  V30 1923 C 181.291 2.16831 -0.742751 0
M  V30 1924 C 182.291 1.59159 0.229129 0
M  V30 1925 O 183.481 1.74199 0.00693237 0
M  V30 1926 C 180.613 3.40756 -0.0989168 0
M  V30 1927 H 181.806 2.49695 -1.66109 0
M  V30 1928 H 179.359 1.2802 -0.896699 0
M  V30 1929 H 180.094 3.13485 0.830514 0
M  V30 1930 H 179.879 3.83888 -0.798265 0
M  V30 1931 H 181.369 4.17386 0.133524 0
M  V30 1932 N 181.806 0.884767 1.30421 0
M  V30 1933 C 182.769 0.356277 2.26414 0
M  V30 1934 C 183.769 -0.501124 1.52792 0
M  V30 1935 O 184.959 -0.30831 1.7145 0
M  V30 1936 C 182.091 -0.492316 3.37326 0
M  V30 1937 H 183.284 1.20389 2.74675 0
M  V30 1938 H 180.837 0.661607 1.41607 0
M  V30 1939 H 181.572 -1.36052 2.94381 0
M  V30 1940 H 181.357 0.121832 3.91911 0
M  V30 1941 H 182.847 -0.853871 4.08777 0
M  V30 1942 N 183.284 -1.43765 0.645699 0
M  V30 1943 C 184.214 -2.33471 -0.0370477 0
M  V30 1944 C 185.195 -1.49042 -0.819779 0
M  V30 1945 O 186.38 -1.77726 -0.782758 0
M  V30 1946 C 183.51 -3.32311 -1.0093 0
M  V30 1947 C 182.464 -4.2667 -0.337201 0
M  V30 1948 C 181.79 -5.1549 -1.42037 0
M  V30 1949 C 183.09 -5.16657 0.765706 0
M  V30 1950 H 184.784 -2.90809 0.712069 0
M  V30 1951 H 182.33 -1.39834 0.343876 0
M  V30 1952 H 184.283 -3.9396 -1.49578 0
M  V30 1953 H 183.007 -2.73213 -1.78948 0
M  V30 1954 H 181.666 -3.66374 0.128771 0
M  V30 1955 H 181.314 -4.52735 -2.1918 0
M  V30 1956 H 181.014 -5.79438 -0.975966 0
M  V30 1957 H 182.538 -5.80012 -1.90838 0
M  V30 1958 H 183.952 -5.72158 0.361702 0
M  V30 1959 H 182.349 -5.89286 1.13413 0
M  V30 1960 H 183.419 -4.56796 1.62683 0
M  V30 1961 N 184.763 -0.387143 -1.52771 0
M  V30 1962 C 185.988 0.198407 -2.06449 0
M  V30 1963 C 186.413 1.39918 -1.25716 0
M  V30 1964 O 185.771 1.79099 -0.281657 0
M  V30 1965 C 185.819 0.548893 -3.56398 0
M  V30 1966 O 184.923 1.64315 -3.78252 0
M  V30 1967 H 184.264 0.0237731 -0.663574 0
M  V30 1968 H 186.794 -0.553989 -1.96957 0
M  V30 1969 H 186.804 0.813812 -3.99801 0
M  V30 1970 H 185.479 -0.329005 -4.14597 0
M  V30 1971 H 184.056 1.37211 -3.46738 0
M  V30 1972 N 186.241 1.57166 -0.116904 0
M  V30 1973 C 187.518 1.86645 0.585049 0
M  V30 1974 C 187.898 1.0177 1.84949 0
M  V30 1975 O 187.246 0.0960379 2.28298 0
M  V30 1976 C 187.456 3.37736 0.879507 0
M  V30 1977 C 188.804 4.06289 1.23348 0
M  V30 1978 O 189.828 3.42743 0.969836 0
M  V30 1979 O 188.687 5.18455 1.7282 0
M  V30 1980 H 185.781 0.772593 0.295007 0
M  V30 1981 H 188.327 1.69025 -0.151249 0
M  V30 1982 H 187.099 3.91296 -0.0166136 0
M  V30 1983 H 186.722 3.6078 1.67103 0
M  V30 1984 N 187.719 -0.156864 1.56817 0
M  V30 1985 C 188.967 -0.869404 1.82444 0
M  V30 1986 C 189.288 -1.82147 0.69623 0
M  V30 1987 O 188.558 -1.93847 -0.28287 0
M  V30 1988 H 187.138 -0.324043 0.673056 0
M  V30 1989 H 189.8 -0.153224 1.94297 0
M  V30 1990 H 188.896 -1.43761 2.77019 0
M  V30 1991 N 189.197 -1.51736 -0.425897 0
M  V30 1992 C 190.107 -1.76738 -1.54275 0
M  V30 1993 C 191.123 -0.65211 -1.61318 0
M  V30 1994 O 192.299 -0.935654 -1.78346 0
M  V30 1995 C 189.364 -1.89755 -2.90162 0
M  V30 1996 C 188.425 -3.13633 -2.93143 0
M  V30 1997 C 187.658 -3.2602 -4.22548 0
M  V30 1998 O 187.881 -2.44067 -5.15546 0
M  V30 1999 O 186.815 -4.19071 -4.32046 0
M  V30 2000 H 190.641 -2.71502 -1.36089 0
M  V30 2001 H 188.226 -1.36376 -0.610069 0
M  V30 2002 H 190.108 -2.00236 -3.70788 0
M  V30 2003 H 188.783 -0.981785 -3.08452 0
M  V30 2004 H 187.69 -3.08622 -2.11431 0
M  V30 2005 H 189.023 -4.04936 -2.798 0
M  V30 2006 N 190.675 0.682077 -1.42076 0
M  V30 2007 C 191.923 1.4393 -1.41876 0
M  V30 2008 C 192.244 1.94971 -0.0335599 0
M  V30 2009 O 191.514 1.72591 0.926773 0
M  V30 2010 H 190.094 0.534085 -0.522267 0
M  V30 2011 H 192.756 0.806427 -1.77434 0
M  V30 2012 H 191.852 2.29588 -2.11414 0
M  V30 2013 N 192.153 1.28127 0.917671 0
M  V30 2014 C 193.393 1.163 1.68088 0
M  V30 2015 C 193.757 -0.284515 1.8988 0
M  V30 2016 O 194.958 -0.525413 2.63615 0
M  V30 2017 C 193.229 1.93546 3.00457 0
M  V30 2018 S 194.788 1.98048 3.91564 0
M  V30 2019 H 191.606 0.415005 0.577315 0
M  V30 2020 H 194.208 1.62173 1.09179 0
M  V30 2021 H 192.912 2.97888 2.82295 0
M  V30 2022 H 192.443 1.48207 3.64415 0
M  V30 2023 H 194.458 1.08415 4.84211 0
M  V30 2024 N 193.631 -1.12557 1.10312 0
M  V30 2025 C 194.561 -2.20341 0.772798 0
M  V30 2026 C 195.542 -1.68198 -0.25365 0
M  V30 2027 O 196.727 -1.93831 -0.119699 0
M  V30 2028 C 193.857 -3.46709 0.202443 0
M  V30 2029 C 192.811 -4.11996 1.15943 0
M  V30 2030 C 192.137 -5.328 0.450345 0
M  V30 2031 C 193.437 -4.5828 2.50552 0
M  V30 2032 H 195.131 -2.48229 1.674 0
M  V30 2033 H 192.677 -1.19308 0.806326 0
M  V30 2034 H 194.63 -4.2138 -0.0407752 0
M  V30 2035 H 193.354 -3.18245 -0.734001 0
M  V30 2036 H 192.013 -3.39305 1.38808 0
M  V30 2037 H 191.661 -5.00602 -0.490531 0
M  V30 2038 H 191.361 -5.7743 1.08851 0
M  V30 2039 H 192.885 -6.10219 0.215642 0
M  V30 2040 H 194.299 -5.2433 2.31843 0
M  V30 2041 H 192.696 -5.13683 3.10242 0
M  V30 2042 H 193.766 -3.72329 3.10643 0
M  V30 2043 N 195.109 -0.891671 -1.2995 0
M  V30 2044 C 196.334 -0.527932 -2.00568 0
M  V30 2045 C 196.759 0.877969 -1.66353 0
M  V30 2046 O 196.117 1.58301 -0.883762 0
M  V30 2047 C 196.165 -0.717745 -3.53385 0
M  V30 2048 O 195.269 0.233376 -4.11739 0
M  V30 2049 H 194.61 -0.20722 -0.630837 0
M  V30 2050 H 197.14 -1.20105 -1.65638 0
M  V30 2051 H 197.15 -0.619307 -4.03272 0
M  V30 2052 H 195.825 -1.74276 -3.77625 0
M  V30 2053 H 194.402 0.0880706 -3.72796 0
M  V30 2054 N 196.587 1.43421 -0.653314 0
M  V30 2055 C 197.833 2.02111 -0.166992 0
M  V30 2056 C 198.166 1.51423 1.21592 0
M  V30 2057 O 197.441 0.707389 1.8118 0
M  V30 2058 C 197.724 3.5966 -0.177948 0
M  V30 2059 C 197.577 4.20579 -1.59478 0
M  V30 2060 C 198.896 4.37413 0.4856 0
M  V30 2061 H 196.015 0.734374 -0.0621557 0
M  V30 2062 H 198.657 1.70717 -0.834016 0
M  V30 2063 H 196.807 3.86537 0.390032 0
M  V30 2064 H 198.479 4.04732 -2.21336 0
M  V30 2065 H 196.722 3.77226 -2.14204 0
M  V30 2066 H 197.393 5.29665 -1.5543 0
M  V30 2067 H 199.869 4.161 0.00234528 0
M  V30 2068 H 198.745 5.47075 0.447207 0
M  V30 2069 H 199.006 4.13672 1.55974 0
M  V30 2070 N 198.065 0.39524 1.52563 0
M  V30 2071 C 199.342 -0.242908 1.94086 0
M  V30 2072 C 199.722 -1.63841 1.33114 0
M  V30 2073 O 199.07 -2.22928 0.501529 0
M  V30 2074 C 199.28 -0.26327 3.48006 0
M  V30 2075 C 200.628 -0.489354 4.21771 0
M  V30 2076 O 201.652 -0.343226 3.54543 0
M  V30 2077 O 200.511 -0.776169 5.4096 0
M  V30 2078 H 197.605 -0.152536 0.812811 0
M  V30 2079 H 200.151 0.450178 1.6362 0
M  V30 2080 H 198.923 0.713985 3.84731 0
M  V30 2081 H 198.546 -1.00103 3.84792 0
M  V30 2082 N 199.544 -1.57102 0.125237 0
M  V30 2083 C 200.96 -1.57915 -0.231322 0
M  V30 2084 C 201.16 -1.13833 -1.66266 0
M  V30 2085 O 200.216 -0.828581 -2.38518 0
M  V30 2086 C 201.529 -3.00699 0.00766489 0
M  V30 2087 C 203.077 -3.12947 -0.0577483 0
M  V30 2088 C 203.552 -4.57742 0.153626 0
M  V30 2089 N 205.043 -4.63092 0.0998073 0
M  V30 2090 C 205.778 -5.72905 0.238174 0
M  V30 2091 N 205.274 -6.91445 0.433057 0
M  V30 2092 N 207.067 -5.6182 0.177308 0
M  V30 2093 H 199.218 -1.84055 1.06007 0
M  V30 2094 H 201.481 -0.850905 0.417929 0
M  V30 2095 H 201.187 -3.3726 0.997431 0
M  V30 2096 H 201.061 -3.70236 -0.721452 0
M  V30 2097 H 203.448 -2.7624 -1.03804 0
M  V30 2098 H 203.529 -2.4594 0.70335 0
M  V30 2099 H 203.173 -4.95149 1.13092 0
M  V30 2100 H 203.103 -5.22848 -0.627534 0
M  V30 2101 H 205.594 -3.77871 -0.047051 0
M  V30 2102 H 205.907 -7.70985 0.529332 0
M  V30 2103 H 204.252 -6.93415 0.469109 0
M  V30 2104 H 207.443 -4.68093 0.0259748 0
M  V30 2105 H 207.616 -6.47357 0.288582 0
M  V30 2106 N 201.022 0.148545 -1.56898 0
M  V30 2107 C 202.268 0.862694 -1.83536 0
M  V30 2108 C 202.601 1.80889 -0.706604 0
M  V30 2109 O 201.876 1.92328 0.289885 0
M  V30 2110 C 202.159 1.63853 -3.20662 0
M  V30 2111 C 202.012 0.713925 -4.44098 0
M  V30 2112 C 203.331 2.60133 -3.54991 0
M  V30 2113 H 200.45 0.312179 -0.667618 0
M  V30 2114 H 203.092 0.127953 -1.89569 0
M  V30 2115 H 201.242 2.26489 -3.1565 0
M  V30 2116 H 202.914 0.098686 -4.61194 0
M  V30 2117 H 201.157 0.0234019 -4.33794 0
M  V30 2118 H 201.828 1.29278 -5.36648 0
M  V30 2119 H 204.304 2.07616 -3.60603 0
M  V30 2120 H 203.18 3.11468 -4.51972 0
M  V30 2121 H 203.441 3.41417 -2.80868 0
M  V30 2122 N 202.5 1.5196 0.417844 0
M  V30 2123 C 203.746 1.65836 1.16732 0
M  V30 2124 C 204.079 0.382881 1.90388 0
M  V30 2125 O 203.354 -0.618368 1.84408 0
M  V30 2126 C 203.637 2.87466 2.16876 0
M  V30 2127 C 203.49 4.25041 1.47174 0
M  V30 2128 C 204.809 3.04613 3.17646 0
M  V30 2129 H 201.928 0.603515 0.423011 0
M  V30 2130 H 204.57 1.84494 0.454105 0
M  V30 2131 H 202.72 2.71689 2.777 0
M  V30 2132 H 204.392 4.52527 0.895376 0
M  V30 2133 H 202.635 4.26843 0.773806 0
M  V30 2134 H 203.306 5.06176 2.20204 0
M  V30 2135 H 205.782 3.1923 2.66892 0
M  V30 2136 H 204.658 3.91247 3.8499 0
M  V30 2137 H 204.919 2.17541 3.84874 0
M  V30 2138 N 203.978 -0.674533 1.42435 0
M  V30 2139 C 204.888 -1.81751 1.48337 0
M  V30 2140 C 205.904 -1.69975 0.372099 0
M  V30 2141 O 207.08 -1.91521 0.62304 0
M  V30 2142 C 204.145 -3.17895 1.38361 0
M  V30 2143 C 203.206 -3.41625 2.59982 0
M  V30 2144 C 202.439 -4.71274 2.50473 0
M  V30 2145 O 202.662 -5.49197 1.54075 0
M  V30 2146 O 201.596 -4.96254 3.4061 0
M  V30 2147 H 205.422 -1.79728 2.44809 0
M  V30 2148 H 203.007 -0.830312 1.24202 0
M  V30 2149 H 204.889 -3.99136 1.35161 0
M  V30 2150 H 203.564 -3.20555 0.450144 0
M  V30 2151 H 202.471 -2.60231 2.68757 0
M  V30 2152 H 203.804 -3.43796 3.52229 0
M  V30 2153 N 205.456 -1.28612 -0.910864 0
M  V30 2154 C 206.704 -1.15705 -1.65701 0
M  V30 2155 C 207.025 0.29416 -1.92769 0
M  V30 2156 O 206.295 1.20331 -1.54588 0
M  V30 2157 H 204.875 -0.425216 -0.614167 0
M  V30 2158 H 207.537 -1.61381 -1.0928 0
M  V30 2159 H 206.633 -1.6988 -2.61815 0
M  V30 2160 N 206.934 1.1197 -1.10907 0
M  V30 2161 C 208.164 1.8713 -0.875553 0
M  V30 2162 C 208.572 1.8016 0.577843 0
M  V30 2163 O 207.915 1.17699 1.41042 0
M  V30 2164 C 207.977 3.37005 -1.2517 0
M  V30 2165 C 207.641 3.67748 -2.71313 0
M  V30 2166 C 208.638 3.65698 -3.69542 0
M  V30 2167 C 206.323 3.96928 -3.07821 0
M  V30 2168 C 208.317 3.92395 -5.023 0
M  V30 2169 C 206.004 4.23284 -4.40765 0
M  V30 2170 C 207.002 4.21005 -5.37814 0
M  V30 2171 O 206.69 4.46704 -6.68364 0
M  V30 2172 H 206.422 0.598786 -0.313737 0
M  V30 2173 H 208.976 1.42568 -1.47863 0
M  V30 2174 H 207.206 3.82146 -0.591741 0
M  V30 2175 H 208.895 3.93519 -0.994877 0
M  V30 2176 H 209.661 3.43211 -3.42682 0
M  V30 2177 H 205.54 3.97841 -2.32902 0
M  V30 2178 H 209.084 3.90531 -5.78041 0
M  V30 2179 H 204.981 4.45246 -4.67361 0
M  V30 2180 H 205.749 4.64299 -6.74069 0
M  V30 2181 N 208.412 0.89855 1.29475 0
M  V30 2182 C 209.658 0.524658 1.95896 0
M  V30 2183 C 209.991 -0.926468 1.70676 0
M  V30 2184 O 209.266 -1.65665 1.01908 0
M  V30 2185 C 209.549 0.81633 3.50725 0
M  V30 2186 C 209.402 2.31907 3.85408 0
M  V30 2187 C 210.721 0.302038 4.39062 0
M  V30 2188 H 207.84 0.19209 0.711527 0
M  V30 2189 H 210.482 1.12502 1.53112 0
M  V30 2190 H 208.632 0.305369 3.87298 0
M  V30 2191 H 210.304 2.89949 3.58786 0
M  V30 2192 H 208.547 2.78027 3.32992 0
M  V30 2193 H 209.218 2.47373 4.93468 0
M  V30 2194 H 211.694 0.739551 4.09475 0
M  V30 2195 H 210.57 0.535331 5.46283 0
M  V30 2196 H 210.831 -0.797216 4.34853 0
M  V30 2197 N 209.89 -1.43072 0.660911 0
M  V30 2198 C 211.136 -2.0202 0.177708 0
M  V30 2199 C 211.469 -1.52066 -1.20787 0
M  V30 2200 O 210.744 -0.716987 -1.80802 0
M  V30 2201 C 211.027 -3.59561 0.197019 0
M  V30 2202 C 210.88 -4.19727 1.61706 0
M  V30 2203 C 212.199 -4.37664 -0.462396 0
M  V30 2204 H 209.318 -0.734034 0.0660494 0
M  V30 2205 H 211.96 -1.70272 0.843058 0
M  V30 2206 H 210.11 -3.86739 -0.369527 0
M  V30 2207 H 211.782 -4.03553 2.23479 0
M  V30 2208 H 210.025 -3.76084 2.16201 0
M  V30 2209 H 210.696 -5.28834 1.58237 0
M  V30 2210 H 213.172 -4.16095 0.0197215 0
M  V30 2211 H 212.048 -5.47305 -0.418188 0
M  V30 2212 H 212.309 -4.14493 -1.53778 0
M  V30 2213 N 211.368 -0.403325 -1.52352 0
M  V30 2214 C 212.784 -0.0539281 -1.59509 0
M  V30 2215 C 212.984 1.43307 -1.41652 0
M  V30 2216 O 212.04 2.19924 -1.24056 0
M  V30 2217 C 213.353 -0.543654 -2.95745 0
M  V30 2218 C 214.901 -0.501125 -3.08962 0
M  V30 2219 C 215.376 -0.967267 -4.47669 0
M  V30 2220 N 216.867 -0.923849 -4.53893 0
M  V30 2221 C 217.602 -1.25578 -5.5948 0
M  V30 2222 N 217.098 -1.65889 -6.72646 0
M  V30 2223 N 218.891 -1.17613 -5.49658 0
M  V30 2224 H 211.042 -1.37123 -1.62206 0
M  V30 2225 H 213.305 -0.56294 -0.76276 0
M  V30 2226 H 213.011 -1.58275 -3.14073 0
M  V30 2227 H 212.885 0.0498042 -3.77167 0
M  V30 2228 H 215.272 0.528909 -2.90321 0
M  V30 2229 H 215.353 -1.13056 -2.2946 0
M  V30 2230 H 214.997 -1.9956 -4.67053 0
M  V30 2231 H 214.927 -0.314698 -5.25659 0
M  V30 2232 H 217.418 -0.627403 -3.72655 0
M  V30 2233 H 217.731 -1.89543 -7.49195 0
M  V30 2234 H 216.076 -1.69787 -6.73942 0
M  V30 2235 H 219.267 -0.860115 -4.6013 0
M  V30 2236 H 219.44 -1.43812 -6.3184 0
M  V30 2237 N 212.846 1.57033 -0.133567 0
M  V30 2238 C 213.796 2.12641 0.822671 0
M  V30 2239 C 214.78 1.05081 1.21847 0
M  V30 2240 O 215.972 1.31287 1.18713 0
M  V30 2241 C 213.101 2.74094 2.06706 0
M  V30 2242 C 212.187 3.88757 1.69497 0
M  V30 2243 N 212.578 4.95194 1.03037 0
M  V30 2244 C 210.876 3.99213 1.98859 0
M  V30 2245 C 211.577 5.75414 0.852873 0
M  V30 2246 N 210.553 5.25726 1.3825 0
M  V30 2247 H 214.355 2.92308 0.305537 0
M  V30 2248 H 211.869 1.62256 0.0684276 0
M  V30 2249 H 213.866 3.12285 2.76195 0
M  V30 2250 H 212.526 1.95896 2.5895 0
M  V30 2251 H 213.537 5.13247 0.692669 0
M  V30 2252 H 210.214 3.32075 2.53047 0
M  V30 2253 H 211.604 6.71089 0.330091 0
M  V30 2254 N 214.325 -0.140222 1.56975 0
M  V30 2255 C 215.288 -1.15689 1.97861 0
M  V30 2256 C 216.288 -1.3549 0.865974 0
M  V30 2257 O 217.478 -1.32367 1.13246 0
M  V30 2258 C 214.61 -2.51582 2.30042 0
M  V30 2259 H 215.803 -0.805971 2.88867 0
M  V30 2260 H 213.356 -0.383801 1.51515 0
M  V30 2261 H 214.091 -2.91632 1.41849 0
M  V30 2262 H 213.876 -2.38569 3.11171 0
M  V30 2263 H 215.366 -3.24792 2.62488 0
M  V30 2264 N 215.803 -1.52179 -0.40978 0
M  V30 2265 C 217.219 -1.40968 -0.74835 0
M  V30 2266 C 217.419 -0.513657 -1.94843 0
M  V30 2267 O 216.475 0.0208026 -2.52491 0
M  V30 2268 C 217.788 -2.83483 -1.0029 0
M  V30 2269 C 219.336 -2.92821 -1.10565 0
M  V30 2270 C 219.811 -4.36303 -1.39296 0
M  V30 2271 N 221.302 -4.39535 -1.46162 0
M  V30 2272 C 222.037 -5.47614 -1.70018 0
M  V30 2273 N 221.533 -6.65812 -1.91483 0
M  V30 2274 N 223.326 -5.35129 -1.72027 0
M  V30 2275 H 215.477 -2.0897 0.380186 0
M  V30 2276 H 217.74 -0.94185 0.107805 0
M  V30 2277 H 217.446 -3.51168 -0.193461 0
M  V30 2278 H 217.32 -3.24487 -1.92323 0
M  V30 2279 H 219.707 -2.25318 -1.90568 0
M  V30 2280 H 219.788 -2.55276 -0.16369 0
M  V30 2281 H 219.432 -5.04366 -0.598109 0
M  V30 2282 H 219.362 -4.71385 -2.34743 0
M  V30 2283 H 221.853 -3.54332 -1.31367 0
M  V30 2284 H 222.166 -7.43964 -2.09134 0
M  V30 2285 H 220.511 -6.68879 -1.88749 0
M  V30 2286 H 223.702 -4.41764 -1.54796 0
M  V30 2287 H 223.875 -6.19433 -1.9028 0
M  V30 2288 N 217.281 0.66697 -1.42791 0
M  V30 2289 C 218.527 1.4291 -1.43891 0
M  V30 2290 C 218.86 1.94114 -0.0578972 0
M  V30 2291 O 218.135 1.71414 0.91911 0
M  V30 2292 C 218.418 2.62049 -2.46987 0
M  V30 2293 C 218.271 2.16426 -3.94309 0
M  V30 2294 C 219.59 3.64266 -2.46978 0
M  V30 2295 H 216.709 0.518306 -0.523954 0
M  V30 2296 H 219.351 0.757321 -1.74255 0
M  V30 2297 H 217.501 3.19361 -2.21225 0
M  V30 2298 H 219.173 1.64221 -4.31079 0
M  V30 2299 H 217.416 1.47925 -4.078 0
M  V30 2300 H 218.087 3.02038 -4.62036 0
M  V30 2301 H 220.563 3.16686 -2.69906 0
M  V30 2302 H 219.439 4.45196 -3.21079 0
M  V30 2303 H 219.7 4.15927 -1.49857 0
M  V30 2304 N 218.759 1.29093 0.90403 0
M  V30 2305 C 219.987 1.19689 1.68766 0
M  V30 2306 C 220.402 -0.243113 1.87228 0
M  V30 2307 O 219.759 -1.16326 1.40621 0
M  V30 2308 C 219.81 1.90144 3.07453 0
M  V30 2309 O 219.531 3.2852 2.89838 0
M  V30 2310 C 221.032 1.87162 4.01852 0
M  V30 2311 H 218.252 0.415035 0.527244 0
M  V30 2312 H 220.796 1.7039 1.13082 0
M  V30 2313 H 218.951 1.43289 3.59926 0
M  V30 2314 H 219.365 3.63944 3.77684 0
M  V30 2315 H 220.839 2.41032 4.96596 0
M  V30 2316 H 221.316 0.84617 4.30972 0
M  V30 2317 H 221.922 2.33741 3.5531 0
M  V30 2318 N 220.237 -1.11381 1.11499 0
M  V30 2319 C 221.483 -1.83403 0.865512 0
M  V30 2320 C 221.816 -1.84459 -0.607329 0
M  V30 2321 O 221.091 -1.29811 -1.44842 0
M  V30 2322 C 221.374 -3.30552 1.42855 0
M  V30 2323 C 221.227 -3.37886 2.96906 0
M  V30 2324 C 222.546 -4.26643 1.08 0
M  V30 2325 H 219.665 -0.665879 0.31587 0
M  V30 2326 H 222.307 -1.30601 1.37998 0
M  V30 2327 H 220.457 -3.75648 0.990985 0
M  V30 2328 H 222.129 -3.01343 3.49271 0
M  V30 2329 H 220.372 -2.78088 3.32941 0
M  V30 2330 H 221.043 -4.41458 3.31389 0
M  V30 2331 H 223.519 -3.89729 1.45775 0
M  V30 2332 H 222.395 -5.27986 1.50072 0
M  V30 2333 H 222.656 -4.42099 -0.00915037 0
M  V30 2334 N 221.715 -0.905404 -1.28997 0
M  V30 2335 C 222.992 -0.453513 -1.9027 0
M  V30 2336 C 223.372 1.06721 -1.82137 0
M  V30 2337 O 222.72 1.91159 -1.25182 0
M  V30 2338 C 222.93 -0.974494 -3.35119 0
M  V30 2339 C 224.278 -1.0216 -4.12127 0
M  V30 2340 O 225.302 -0.922557 -3.44046 0
M  V30 2341 O 224.161 -1.17121 -5.33802 0
M  V30 2342 H 221.255 -0.142347 -0.814657 0
M  V30 2343 H 223.801 -0.995642 -1.37423 0
M  V30 2344 H 222.573 -2.01848 -3.35221 0
M  V30 2345 H 222.196 -0.412706 -3.95452 0
M  V30 2346 N 223.193 1.4272 -0.668489 0
M  V30 2347 C 224.423 2.05668 -0.196063 0
M  V30 2348 C 224.831 1.5028 1.14946 0
M  V30 2349 O 224.174 0.6348 1.72383 0
M  V30 2350 C 224.236 3.59469 -0.0468879 0
M  V30 2351 C 223.9 4.37518 -1.32012 0
M  V30 2352 C 224.897 4.68584 -2.25222 0
M  V30 2353 C 222.582 4.77266 -1.56596 0
M  V30 2354 C 224.576 5.38326 -3.41297 0
M  V30 2355 C 222.263 5.4675 -2.72962 0
M  V30 2356 C 223.261 5.77204 -3.65137 0
M  V30 2357 O 222.949 6.45264 -4.79468 0
M  V30 2358 H 222.681 0.669382 -0.0943599 0
M  V30 2359 H 225.235 1.83954 -0.913788 0
M  V30 2360 H 223.465 3.79817 0.726357 0
M  V30 2361 H 225.154 4.04071 0.384852 0
M  V30 2362 H 225.92 4.38382 -2.07477 0
M  V30 2363 H 221.799 4.52959 -0.857249 0
M  V30 2364 H 225.343 5.62014 -4.13263 0
M  V30 2365 H 221.24 5.76369 -2.90635 0
M  V30 2366 H 222.008 6.63753 -4.78931 0
M  V30 2367 N 224.671 0.411399 1.52136 0
M  V30 2368 C 225.901 -0.16284 2.05957 0
M  V30 2369 C 226.309 -1.3922 1.28119 0
M  V30 2370 O 225.652 -1.80768 0.326881 0
M  V30 2371 C 225.714 -0.575946 3.54856 0
M  V30 2372 C 225.378 0.542998 4.53763 0
M  V30 2373 C 226.375 1.40726 5.00492 0
M  V30 2374 C 224.06 0.716337 4.97166 0
M  V30 2375 C 226.054 2.4298 5.8927 0
M  V30 2376 C 223.741 1.74218 5.8574 0
M  V30 2377 C 224.739 2.59731 6.31687 0
M  V30 2378 O 224.427 3.60558 7.18507 0
M  V30 2379 H 224.159 -0.0229125 0.675612 0
M  V30 2380 H 226.713 0.581634 1.96993 0
M  V30 2381 H 224.943 -1.37274 3.61515 0
M  V30 2382 H 226.632 -1.07836 3.91313 0
M  V30 2383 H 227.398 1.28476 4.67674 0
M  V30 2384 H 223.277 0.0603857 4.6096 0
M  V30 2385 H 226.821 3.0976 6.25055 0
M  V30 2386 H 222.718 1.86498 6.17971 0
M  V30 2387 H 223.486 3.56829 7.36624 0
M  V30 2388 N 226.149 -1.5696 0.141893 0
M  V30 2389 C 227.426 -1.87553 -0.555281 0
M  V30 2390 C 227.806 -1.04699 -1.83306 0
M  V30 2391 O 227.154 -0.132346 -2.28116 0
M  V30 2392 C 227.364 -3.39093 -0.825664 0
M  V30 2393 C 228.712 -4.08199 -1.16869 0
M  V30 2394 O 229.736 -3.44242 -0.915185 0
M  V30 2395 O 228.595 -5.21139 -1.6455 0
M  V30 2396 H 225.689 -0.777188 -0.282679 0
M  V30 2397 H 228.235 -1.68763 0.17812 0
M  V30 2398 H 227.007 -3.91221 0.0788633 0
M  V30 2399 H 226.63 -3.63393 -1.61343 0
M  V30 2400 N 227.627 0.131896 -1.57047 0
M  V30 2401 C 228.574 1.16236 -1.99393 0
M  V30 2402 C 229.544 1.41863 -0.863943 0
M  V30 2403 O 230.729 1.53946 -1.12718 0
M  V30 2404 C 227.869 2.48708 -2.39245 0
M  V30 2405 C 226.982 2.30127 -3.65603 0
M  V30 2406 C 226.117 3.55738 -3.94492 0
M  V30 2407 C 225.156 3.32259 -5.14073 0
M  V30 2408 N 224.293 4.50039 -5.38896 0
M  V30 2409 H 229.133 0.794251 -2.87221 0
M  V30 2410 H 226.67 0.380707 -1.42088 0
M  V30 2411 H 228.628 3.25969 -2.60384 0
M  V30 2412 H 227.258 2.83437 -1.54478 0
M  V30 2413 H 226.31 1.43845 -3.52154 0
M  V30 2414 H 227.622 2.08746 -4.5302 0
M  V30 2415 H 226.776 4.41423 -4.1621 0
M  V30 2416 H 225.515 3.80138 -3.05526 0
M  V30 2417 H 224.52 2.44963 -4.92212 0
M  V30 2418 H 225.745 3.09242 -6.04604 0
M  V30 2419 H 223.691 4.74584 -4.52886 0
M  V30 2420 H 223.608 4.31716 -6.2061 0
M  V30 2421 H 224.876 5.36895 -5.65123 0
M  V30 2422 N 229.106 1.52395 0.401703 0
M  V30 2423 C 230.016 1.7917 1.51444 0
M  V30 2424 C 231.032 0.677691 1.6026 0
M  V30 2425 O 232.208 0.963909 1.76835 0
M  V30 2426 C 229.273 1.94347 2.87107 0
M  V30 2427 C 228.334 3.18257 2.88116 0
M  V30 2428 C 227.567 3.32701 4.17308 0
M  V30 2429 O 227.79 2.52238 5.11598 0
M  V30 2430 O 226.724 4.25891 4.25324 0
M  V30 2431 H 230.55 2.73633 1.31752 0
M  V30 2432 H 228.135 1.3733 0.588296 0
M  V30 2433 H 230.017 2.06109 3.67555 0
M  V30 2434 H 228.692 1.03073 3.06851 0
M  V30 2435 H 227.599 3.11947 2.06494 0
M  V30 2436 H 228.932 4.09336 2.73322 0
M  V30 2437 N 230.584 -0.659388 1.43143 0
M  V30 2438 C 231.832 -1.41654 1.44147 0
M  V30 2439 C 232.153 -1.94893 0.0645739 0
M  V30 2440 O 231.423 -1.74044 -0.899198 0
M  V30 2441 H 230.003 -0.525708 0.530697 0
M  V30 2442 H 232.665 -0.778097 1.78694 0
M  V30 2443 H 231.761 -2.26195 2.1504 0
M  V30 2444 N 232.062 -1.29571 -0.897171 0
M  V30 2445 C 232.994 -1.10724 -2.00681 0
M  V30 2446 C 234.007 -0.0540026 -1.6271 0
M  V30 2447 O 235.196 -0.298783 -1.75982 0
M  V30 2448 C 232.296 -0.663912 -3.32333 0
M  V30 2449 C 231.469 -1.79622 -3.98816 0
M  V30 2450 C 230.528 -1.34349 -5.0876 0
M  V30 2451 O 229.554 -2.04864 -5.31055 0
M  V30 2452 N 230.756 -0.215764 -5.80099 0
M  V30 2453 H 233.521 -2.06291 -2.17403 0
M  V30 2454 H 231.082 -1.21544 -1.06951 0
M  V30 2455 H 233.074 -0.344295 -4.03233 0
M  V30 2456 H 231.644 0.199375 -3.11964 0
M  V30 2457 H 230.864 -2.28459 -3.21248 0
M  V30 2458 H 232.152 -2.55535 -4.39976 0
M  V30 2459 H 231.55 0.372091 -5.64475 0
M  V30 2460 H 230.107 0.0444707 -6.51785 0
M  V30 2461 N 233.54 1.10788 -1.12088 0
M  V30 2462 C 234.472 2.16816 -0.743213 0
M  V30 2463 C 235.485 1.6119 0.228412 0
M  V30 2464 O 236.674 1.78497 0.0102931 0
M  V30 2465 C 233.774 3.38809 -0.0787313 0
M  V30 2466 C 232.947 4.23885 -1.0789 0
M  V30 2467 C 232.006 5.24334 -0.442713 0
M  V30 2468 O 231.032 5.58497 -1.09864 0
M  V30 2469 N 232.234 5.75079 0.791457 0
M  V30 2470 H 234.999 2.49825 -1.65552 0
M  V30 2471 H 232.56 1.26373 -1.012 0
M  V30 2472 H 234.552 4.03107 0.358766 0
M  V30 2473 H 233.122 3.03805 0.736275 0
M  V30 2474 H 232.342 3.55939 -1.69414 0
M  V30 2475 H 233.63 4.77562 -1.75533 0
M  V30 2476 H 233.028 5.49517 1.3434 0
M  V30 2477 H 231.585 6.4118 1.17183 0
M  V30 2478 N 235.018 0.912232 1.28515 0
M  V30 2479 C 235.968 0.370649 2.24967 0
M  V30 2480 C 236.952 -0.516375 1.52389 0
M  V30 2481 O 238.144 -0.356345 1.73376 0
M  V30 2482 C 235.273 -0.389526 3.41083 0
M  V30 2483 C 234.359 0.51313 4.20984 0
M  V30 2484 N 234.75 1.62604 4.78951 0
M  V30 2485 C 233.048 0.313235 4.44899 0
M  V30 2486 C 233.749 2.18619 5.39055 0
M  V30 2487 N 232.725 1.47765 5.23132 0
M  V30 2488 H 236.527 1.22061 2.67354 0
M  V30 2489 H 234.041 0.764712 1.43269 0
M  V30 2490 H 236.038 -0.794353 4.09262 0
M  V30 2491 H 234.698 -1.2366 3.0023 0
M  V30 2492 H 235.709 2.00864 4.77362 0
M  V30 2493 H 232.386 -0.494452 4.14562 0
M  V30 2494 H 233.776 3.12228 5.94948 0
M  V30 2495 N 236.496 -1.42363 0.676048 0
M  V30 2496 C 237.912 -1.55811 0.345718 0
M  V30 2497 C 238.112 -1.65544 -1.14879 0
M  V30 2498 O 237.168 -1.62306 -1.93424 0
M  V30 2499 C 238.481 -2.80746 1.07713 0
M  V30 2500 C 240.029 -2.9452 1.05958 0
M  V30 2501 C 240.504 -4.22318 1.77233 0
M  V30 2502 N 241.995 -4.29233 1.74108 0
M  V30 2503 C 242.73 -5.26935 2.26113 0
M  V30 2504 N 242.226 -6.30783 2.86505 0
M  V30 2505 N 244.019 -5.18741 2.1648 0
M  V30 2506 H 236.17 -1.34289 1.6456 0
M  V30 2507 H 238.433 -0.646506 0.69335 0
M  V30 2508 H 238.139 -2.79696 2.13221 0
M  V30 2509 H 238.013 -3.71676 0.64316 0
M  V30 2510 H 240.4 -2.95097 0.0128255 0
M  V30 2511 H 240.481 -2.04817 1.53244 0
M  V30 2512 H 240.125 -4.22502 2.81877 0
M  V30 2513 H 240.055 -5.10958 1.27396 0
M  V30 2514 H 242.546 -3.54814 1.30059 0
M  V30 2515 H 242.859 -7.01691 3.23805 0
M  V30 2516 H 241.204 -6.31341 2.90575 0
M  V30 2517 H 244.395 -4.36533 1.68987 0
M  V30 2518 H 244.568 -5.94721 2.57316 0
M  V30 2519 N 237.974 -0.419461 -1.51915 0
M  V30 2520 C 239.223 0.154346 -2.01109 0
M  V30 2521 C 239.536 1.45338 -1.30905 0
M  V30 2522 O 240.742 2.10906 -1.7097 0
M  V30 2523 C 239.198 0.325615 -3.58424 0
M  V30 2524 C 238.806 -0.961934 -4.37551 0
M  V30 2525 C 240.55 0.854155 -4.15818 0
M  V30 2526 C 238.457 -0.757287 -5.86531 0
M  V30 2527 H 237.387 0.0614563 -0.751491 0
M  V30 2528 H 240.038 -0.54649 -1.75173 0
M  V30 2529 H 238.42 1.08903 -3.80731 0
M  V30 2530 H 239.594 -1.7323 -4.26999 0
M  V30 2531 H 237.909 -1.41766 -3.91524 0
M  V30 2532 H 240.506 1.02346 -5.24814 0
M  V30 2533 H 240.849 1.83172 -3.73837 0
M  V30 2534 H 241.382 0.149528 -3.97519 0
M  V30 2535 H 238.121 -1.70671 -6.32892 0
M  V30 2536 H 237.641 -0.0264061 -5.99794 0
M  V30 2537 H 239.32 -0.403482 -6.45741 0
M  V30 2538 N 239.452 1.56882 -0.150215 0
M  V30 2539 C 240.399 2.16922 0.788244 0
M  V30 2540 C 241.369 1.10303 1.24187 0
M  V30 2541 O 242.554 1.38359 1.31383 0
M  V30 2542 C 239.694 2.79754 2.02068 0
M  V30 2543 C 238.807 4.00775 1.61257 0
M  V30 2544 C 237.942 4.51595 2.79705 0
M  V30 2545 C 236.981 5.65074 2.35282 0
M  V30 2546 N 236.118 6.10499 3.4675 0
M  V30 2547 H 240.958 2.96779 0.269444 0
M  V30 2548 H 238.495 1.46599 0.12128 0
M  V30 2549 H 240.453 3.14329 2.74323 0
M  V30 2550 H 239.083 2.02536 2.51354 0
M  V30 2551 H 238.135 3.72158 0.787553 0
M  V30 2552 H 239.447 4.82978 1.24633 0
M  V30 2553 H 238.601 4.88242 3.60145 0
M  V30 2554 H 237.34 3.68406 3.19576 0
M  V30 2555 H 236.345 5.28 1.53283 0
M  V30 2556 H 237.57 6.50052 1.96493 0
M  V30 2557 H 235.516 5.30243 3.86236 0
M  V30 2558 H 235.433 6.87637 3.14152 0
M  V30 2559 H 236.701 6.51791 4.27537 0
M  V30 2560 N 240.93 -0.123565 1.57115 0
M  V30 2561 C 241.86 -1.15309 2.03042 0
M  V30 2562 C 242.841 -1.43454 0.914061 0
M  V30 2563 O 244.026 -1.53973 1.18347 0
M  V30 2564 C 241.156 -2.48043 2.43089 0
M  V30 2565 C 240.11 -2.3437 3.58127 0
M  V30 2566 C 239.436 -3.72026 3.84059 0
M  V30 2567 C 240.736 -1.80804 4.90007 0
M  V30 2568 H 242.43 -0.771102 2.893 0
M  V30 2569 H 239.976 -0.369479 1.39179 0
M  V30 2570 H 241.929 -3.20311 2.73823 0
M  V30 2571 H 240.653 -2.88122 1.53796 0
M  V30 2572 H 239.312 -1.64551 3.27595 0
M  V30 2573 H 238.96 -4.09582 2.91979 0
M  V30 2574 H 238.66 -3.63732 4.6149 0
M  V30 2575 H 240.184 -4.45806 4.1724 0
M  V30 2576 H 241.598 -2.42886 5.19307 0
M  V30 2577 H 239.995 -1.83343 5.71407 0
M  V30 2578 H 241.065 -0.76528 4.78823 0
M  V30 2579 N 242.408 -1.52605 -0.393616 0
M  V30 2580 C 243.355 -1.77055 -1.48054 0
M  V30 2581 C 244.325 -0.61358 -1.54352 0
M  V30 2582 O 245.51 -0.852806 -1.70681 0
M  V30 2583 C 242.65 -1.94108 -2.85335 0
M  V30 2584 C 241.763 -3.21792 -2.88226 0
M  V30 2585 C 240.898 -3.29188 -4.16904 0
M  V30 2586 C 239.937 -4.51013 -4.13828 0
M  V30 2587 N 239.074 -4.55716 -5.34105 0
M  V30 2588 H 243.914 -2.69815 -1.26506 0
M  V30 2589 H 241.451 -1.33683 -0.61379 0
M  V30 2590 H 243.409 -2.01979 -3.65049 0
M  V30 2591 H 242.039 -1.04713 -3.05344 0
M  V30 2592 H 241.091 -3.23015 -2.00911 0
M  V30 2593 H 242.403 -4.11557 -2.8182 0
M  V30 2594 H 241.557 -3.36216 -5.05018 0
M  V30 2595 H 240.296 -2.37389 -4.26026 0
M  V30 2596 H 239.301 -4.44115 -3.24102 0
M  V30 2597 H 240.526 -5.44123 -4.06333 0
M  V30 2598 H 238.472 -3.66807 -5.43865 0
M  V30 2599 H 238.389 -5.39346 -5.29756 0
M  V30 2600 H 239.657 -4.66993 -6.2413 0
M  V30 2601 N 243.887 0.651787 -1.4349 0
M  V30 2602 C 245.135 1.40888 -1.44897 0
M  V30 2603 C 245.456 1.94856 -0.0749086 0
M  V30 2604 O 244.726 1.74518 0.889956 0
M  V30 2605 H 243.306 0.522887 -0.533478 0
M  V30 2606 H 245.968 0.768609 -1.79104 0
M  V30 2607 H 245.064 2.25052 -2.16236 0
M  V30 2608 N 245.365 1.30045 0.890287 0
M  V30 2609 C 246.595 1.21296 1.67245 0
M  V30 2610 C 247.003 -0.227471 1.87828 0
M  V30 2611 O 246.346 -1.16296 1.422 0
M  V30 2612 C 246.408 1.86519 3.07329 0
M  V30 2613 C 246.072 3.35837 3.09939 0
M  V30 2614 C 247.069 4.31915 2.89389 0
M  V30 2615 C 244.754 3.77196 3.31706 0
M  V30 2616 C 246.748 5.67325 2.90552 0
M  V30 2617 C 244.435 5.12725 3.32499 0
M  V30 2618 C 245.433 6.076 3.11947 0
M  V30 2619 O 245.121 7.40655 3.12547 0
M  V30 2620 H 244.853 0.4211 0.528821 0
M  V30 2621 H 247.407 1.72111 1.12103 0
M  V30 2622 H 245.637 1.30228 3.64112 0
M  V30 2623 H 247.326 1.71963 3.67673 0
M  V30 2624 H 248.092 4.01294 2.72375 0
M  V30 2625 H 243.971 3.03796 3.4674 0
M  V30 2626 H 247.515 6.41354 2.74429 0
M  V30 2627 H 243.412 5.42988 3.49047 0
M  V30 2628 H 244.18 7.49577 3.28749 0
M  V30 2629 N 246.843 -1.10192 1.12674 0
M  V30 2630 C 247.791 -2.18694 0.792196 0
M  V30 2631 C 248.785 -1.67938 -0.222058 0
M  V30 2632 O 249.991 -1.79822 -0.0800074 0
M  V30 2633 H 246.366 -0.713223 0.238364 0
M  V30 2634 H 248.337 -2.44149 1.71564 0
M  V30 2635 C 247.086 -3.46682 0.265859 0
M  V30 2636 H 246.409 -3.86101 1.03761 0
M  V30 2637 H 247.849 -4.23942 0.0701128 0
M  V30 2638 C 246.308 -3.21506 -1.00675 0
M  V30 2639 O 246.838 -3.43408 -2.08408 0
M  V30 2640 N 245.044 -2.75158 -0.934692 0
M  V30 2641 H 244.591 -2.57535 -0.0578604 0
M  V30 2642 H 244.549 -2.58691 -1.7868 0
M  V30 2643 N 248.321 -0.919034 -1.28029 0
M  V30 2644 C 249.284 -0.416182 -2.2539 0
M  V30 2645 C 250.284 0.460438 -1.54067 0
M  V30 2646 O 251.474 0.262744 -1.72207 0
M  V30 2647 C 248.606 0.402707 -3.38513 0
M  V30 2648 H 249.799 -1.27629 -2.71387 0
M  V30 2649 H 247.352 -0.698919 -1.39803 0
M  V30 2650 H 248.087 1.282 -2.97885 0
M  V30 2651 H 247.872 -0.225698 -3.9145 0
M  V30 2652 H 249.362 0.745191 -4.10897 0
M  V30 2653 N 249.799 1.42003 -0.683588 0
M  V30 2654 C 251.048 2.00638 -0.206681 0
M  V30 2655 C 251.361 1.5472 1.19671 0
M  V30 2656 O 252.567 2.05833 1.77045 0
M  V30 2657 C 251.023 3.58487 -0.318632 0
M  V30 2658 C 250.631 4.1339 -1.72663 0
M  V30 2659 C 252.375 4.24384 0.0991141 0
M  V30 2660 C 250.282 5.63633 -1.79087 0
M  V30 2661 H 249.212 0.750408 -0.0735107 0
M  V30 2662 H 251.863 1.62624 -0.850048 0
M  V30 2663 H 250.245 3.94047 0.392781 0
M  V30 2664 H 251.419 3.89273 -2.46583 0
M  V30 2665 H 249.734 3.59976 -2.09299 0
M  V30 2666 H 252.331 5.34652 0.0713833 0
M  V30 2667 H 252.674 4.00505 1.13586 0
M  V30 2668 H 253.207 3.93816 -0.561599 0
M  V30 2669 H 249.946 5.92323 -2.80774 0
M  V30 2670 H 249.466 5.89714 -1.09535 0
M  V30 2671 H 251.145 6.28201 -1.5483 0
M  V30 2672 N 251.277 0.427512 1.51691 0
M  V30 2673 C 252.523 -0.142439 2.02299 0
M  V30 2674 C 252.856 -1.43214 1.31162 0
M  V30 2675 O 252.131 -1.89833 0.423511 0
M  V30 2676 C 252.414 -0.371301 3.58181 0
M  V30 2677 C 252.267 0.936358 4.39946 0
M  V30 2678 C 253.586 -1.14542 4.24933 0
M  V30 2679 H 250.705 -0.0502937 0.735282 0
M  V30 2680 H 253.347 0.564584 1.81418 0
M  V30 2681 H 251.497 -0.973559 3.76104 0
M  V30 2682 H 253.169 1.57184 4.33694 0
M  V30 2683 H 251.412 1.5432 4.05423 0
M  V30 2684 H 252.083 0.730388 5.47147 0
M  V30 2685 H 254.559 -0.635362 4.11221 0
M  V30 2686 H 253.435 -1.27431 5.33903 0
M  V30 2687 H 253.696 -2.17093 3.85127 0
M  V30 2688 N 252.755 -1.56801 0.158532 0
M  V30 2689 C 254.001 -1.96781 -0.490405 0
M  V30 2690 C 254.334 -1.04397 -1.63753 0
M  V30 2691 O 253.609 -0.0885805 -1.94298 0
M  V30 2692 C 253.892 -3.4635 -0.985594 0
M  V30 2693 C 253.745 -4.49512 0.160824 0
M  V30 2694 C 255.064 -3.98697 -1.86355 0
M  V30 2695 H 252.183 -0.715482 -0.176788 0
M  V30 2696 H 254.825 -1.88451 0.242088 0
M  V30 2697 H 252.975 -3.53579 -1.60978 0
M  V30 2698 H 254.647 -4.54353 0.797537 0
M  V30 2699 H 252.89 -4.26013 0.818256 0
M  V30 2700 H 253.561 -5.51531 -0.227569 0
M  V30 2701 H 256.037 -3.94019 -1.33746 0
M  V30 2702 H 254.913 -5.03792 -2.17909 0
M  V30 2703 H 255.174 -3.41744 -2.8047 0
M  V30 2704 N 254.233 0.115231 -1.57178 0
M  V30 2705 C 255.165 1.16694 -1.97269 0
M  V30 2706 C 256.178 1.37445 -0.872502 0
M  V30 2707 O 257.367 1.36454 -1.15077 0
M  V30 2708 C 254.467 2.52627 -2.25905 0
M  V30 2709 C 253.64 2.52427 -3.57211 0
M  V30 2710 C 252.699 3.70134 -3.74016 0
M  V30 2711 O 251.725 3.53546 -4.46087 0
M  V30 2712 N 252.927 4.88844 -3.13068 0
M  V30 2713 H 255.692 0.82588 -2.88096 0
M  V30 2714 H 253.253 0.304461 -1.59011 0
M  V30 2715 H 255.245 3.29937 -2.34359 0
M  V30 2716 H 253.815 2.789 -1.41186 0
M  V30 2717 H 253.035 1.60805 -3.5991 0
M  V30 2718 H 254.323 2.49353 -4.43509 0
M  V30 2719 H 253.721 5.05225 -2.54489 0
M  V30 2720 H 252.278 5.63817 -3.27037 0
M  V30 2721 N 255.711 1.52812 0.385517 0
M  V30 2722 C 256.661 1.74219 1.47078 0
M  V30 2723 C 257.645 0.59632 1.49442 0
M  V30 2724 O 258.837 0.85428 1.5502 0
M  V30 2725 C 255.966 1.9176 2.84751 0
M  V30 2726 C 255.052 3.12289 2.86943 0
M  V30 2727 N 255.443 4.34575 2.58802 0
M  V30 2728 C 253.741 3.12605 3.1811 0
M  V30 2729 C 254.442 5.162 2.68166 0
M  V30 2730 N 253.418 4.51964 3.02043 0
M  V30 2731 H 257.22 2.6639 1.24152 0
M  V30 2732 H 254.734 1.51166 0.593504 0
M  V30 2733 H 256.731 2.05218 3.62893 0
M  V30 2734 H 255.391 1.00805 3.08656 0
M  V30 2735 H 256.402 4.62649 2.32759 0
M  V30 2736 H 253.079 2.31472 3.47458 0
M  V30 2737 H 254.469 6.23689 2.49923 0
M  V30 2738 N 257.189 -0.644168 1.43834 0
M  V30 2739 C 258.099 -1.78563 1.52159 0
M  V30 2740 C 259.115 -1.69147 0.408069 0
M  V30 2741 O 260.291 -1.90156 0.663524 0
M  V30 2742 C 257.356 -3.14888 1.45073 0
M  V30 2743 C 256.417 -3.36034 2.6717 0
M  V30 2744 C 255.65 -4.65855 2.60413 0
M  V30 2745 O 255.873 -5.45805 1.65689 0
M  V30 2746 O 254.807 -4.88918 3.5106 0
M  V30 2747 H 258.633 -1.74494 2.48567 0
M  V30 2748 H 256.218 -0.80378 1.25935 0
M  V30 2749 H 258.1 -3.96179 1.43597 0
M  V30 2750 H 256.775 -3.19528 0.518037 0
M  V30 2751 H 255.682 -2.54472 2.74217 0
M  V30 2752 H 257.015 -3.36247 3.59442 0
M  V30 2753 N 258.668 -1.30515 -0.883378 0
M  V30 2754 C 259.917 -1.18795 -1.63005 0
M  V30 2755 C 260.23 0.255923 -1.93919 0
M  V30 2756 O 261.436 0.494654 -2.66956 0
M  V30 2757 C 259.892 -2.07878 -2.93794 0
M  V30 2758 C 259.5 -3.57184 -2.70414 0
M  V30 2759 C 261.244 -2.04924 -3.71761 0
M  V30 2760 C 259.151 -4.38317 -3.97029 0
M  V30 2761 H 258.081 -0.441031 -0.611562 0
M  V30 2762 H 260.732 -1.55275 -0.977854 0
M  V30 2763 H 259.114 -1.64283 -3.60315 0
M  V30 2764 H 260.288 -4.08937 -2.12384 0
M  V30 2765 H 258.603 -3.61976 -2.0582 0
M  V30 2766 H 261.2 -2.62792 -4.65665 0
M  V30 2767 H 261.543 -1.0331 -4.03277 0
M  V30 2768 H 262.076 -2.46649 -3.12104 0
M  V30 2769 H 258.815 -5.40632 -3.70671 0
M  V30 2770 H 258.335 -3.91326 -4.54559 0
M  V30 2771 H 260.014 -4.49834 -4.65036 0
M  V30 2772 N 260.146 1.09593 -1.13257 0
M  V30 2773 C 261.423 1.78293 -0.804432 0
M  V30 2774 C 261.803 1.99004 0.70431 0
M  V30 2775 O 261.151 1.59007 1.641 0
M  V30 2776 C 261.361 3.10707 -1.5894 0
M  V30 2777 C 262.709 3.85443 -1.78099 0
M  V30 2778 O 263.733 3.20454 -1.55525 0
M  V30 2779 O 262.592 5.02108 -2.15753 0
M  V30 2780 H 259.686 0.773156 -0.293528 0
M  V30 2781 H 262.232 1.16164 -1.23709 0
M  V30 2782 H 261.004 2.91106 -2.61482 0
M  V30 2783 H 260.627 3.80558 -1.15157 0
M  V30 2784 N 261.624 0.925811 1.2754 0
M  V30 2785 C 262.574 0.394488 2.24561 0
M  V30 2786 C 263.558 -0.500183 1.52928 0
M  V30 2787 O 264.75 -0.337936 1.73744 0
M  V30 2788 C 261.879 -0.353328 3.41477 0
M  V30 2789 C 260.965 0.557752 4.20416 0
M  V30 2790 N 261.356 1.67674 4.77199 0
M  V30 2791 C 259.654 0.360404 4.44541 0
M  V30 2792 C 260.355 2.24324 5.36706 0
M  V30 2793 N 259.331 1.53305 5.21535 0
M  V30 2794 H 263.133 1.2489 2.66045 0
M  V30 2795 H 260.647 0.779864 1.4245 0
M  V30 2796 H 262.644 -0.7509 4.10082 0
M  V30 2797 H 261.304 -1.20469 3.01525 0
M  V30 2798 H 262.315 2.05915 4.75204 0
M  V30 2799 H 258.992 -0.450454 4.15063 0
M  V30 2800 H 260.382 3.18521 5.91603 0
M  V30 2801 N 263.102 -1.41638 0.69111 0
M  V30 2802 C 264.351 -2.00526 0.217318 0
M  V30 2803 C 264.664 -1.55353 -1.18848 0
M  V30 2804 O 265.87 -2.06769 -1.75951 0
M  V30 2805 C 264.326 -3.58313 0.337639 0
M  V30 2806 C 263.934 -4.12469 1.74852 0
M  V30 2807 C 265.678 -4.24431 -0.0766066 0
M  V30 2808 C 263.585 -5.62675 1.82074 0
M  V30 2809 H 262.515 -0.750008 0.0774893 0
M  V30 2810 H 265.166 -1.6217 0.858661 0
M  V30 2811 H 263.548 -3.9425 -0.371879 0
M  V30 2812 H 264.722 -3.8796 2.48644 0
M  V30 2813 H 263.037 -3.58861 2.11205 0
M  V30 2814 H 265.634 -5.34683 -0.0430284 0
M  V30 2815 H 265.977 -4.01101 -1.1146 0
M  V30 2816 H 266.51 -3.93512 0.582476 0
M  V30 2817 H 263.249 -5.90826 2.83911 0
M  V30 2818 H 262.769 -5.89124 1.12661 0
M  V30 2819 H 264.448 -6.27371 1.58159 0
M  V30 2820 N 264.58 -0.43555 -1.51462 0
M  V30 2821 C 265.528 0.391205 -2.29287 0
M  V30 2822 C 266.522 1.02247 -1.35062 0
M  V30 2823 O 267.728 0.957646 -1.52411 0
M  V30 2824 H 264.103 0.144968 -0.737895 0
M  V30 2825 H 266.074 -0.286051 -2.97026 0
M  V30 2826 C 264.823 1.48096 -3.14583 0
M  V30 2827 H 264.146 1.00457 -3.86973 0
M  V30 2828 H 265.586 2.03273 -3.72097 0
M  V30 2829 C 264.045 2.46321 -2.29843 0
M  V30 2830 O 264.575 3.50815 -1.95682 0
M  V30 2831 N 262.781 2.17166 -1.931 0
M  V30 2832 H 262.328 1.32218 -2.21079 0
M  V30 2833 H 262.286 2.83127 -1.36698 0
M  V30 2834 N 266.058 1.56714 -0.166846 0
M  V30 2835 C 267.306 1.96358 0.478305 0
M  V30 2836 C 267.627 1.0537 1.6408 0
M  V30 2837 O 266.897 0.119154 1.95537 0
M  V30 2838 H 265.477 0.725065 0.179692 0
M  V30 2839 H 268.139 1.93329 -0.246985 0
M  V30 2840 H 267.235 3.00547 0.841292 0
M  V30 2841 N 267.536 -0.106894 1.57237 0
M  V30 2842 C 268.782 -0.81373 1.85759 0
M  V30 2843 C 269.115 -1.78952 0.754315 0
M  V30 2844 O 268.39 -1.93029 -0.23879 0
M  V30 2845 C 268.673 -1.55293 3.24894 0
M  V30 2846 C 268.526 -0.595929 4.45835 0
M  V30 2847 C 269.845 -2.5063 3.61763 0
M  V30 2848 H 266.964 -0.294369 0.67566 0
M  V30 2849 H 269.606 -0.0776472 1.89841 0
M  V30 2850 H 267.756 -2.1804 3.21544 0
M  V30 2851 H 269.428 0.0236262 4.61294 0
M  V30 2852 H 267.671 0.0916191 4.33703 0
M  V30 2853 H 268.342 -1.15004 5.39887 0
M  V30 2854 H 270.818 -1.97982 3.65981 0
M  V30 2855 H 269.694 -2.99376 4.60071 0
M  V30 2856 H 269.955 -3.3385 2.89821 0
M  V30 2857 N 269.014 -1.53014 -0.377408 0
M  V30 2858 C 269.944 -1.81589 -1.46791 0
M  V30 2859 C 270.925 -0.668622 -1.56408 0
M  V30 2860 O 272.11 -0.917337 -1.71168 0
M  V30 2861 C 269.24 -1.99519 -2.8427 0
M  V30 2862 C 268.194 -3.15249 -2.89486 0
M  V30 2863 C 267.52 -3.18451 -4.29527 0
M  V30 2864 C 268.82 -4.54084 -2.58079 0
M  V30 2865 H 270.514 -2.7291 -1.23127 0
M  V30 2866 H 268.06 -1.31319 -0.590883 0
M  V30 2867 H 270.013 -2.18092 -3.60575 0
M  V30 2868 H 268.737 -1.04897 -3.09296 0
M  V30 2869 H 267.396 -2.96477 -2.15631 0
M  V30 2870 H 267.044 -2.2149 -4.5161 0
M  V30 2871 H 266.744 -3.962 -4.33934 0
M  V30 2872 H 268.268 -3.39193 -5.07721 0
M  V30 2873 H 269.682 -4.72899 -3.24098 0
M  V30 2874 H 268.079 -5.33987 -2.7382 0
M  V30 2875 H 269.149 -4.60006 -1.53372 0
M  V30 2876 N 270.492 0.636531 -1.44174 0
M  V30 2877 C 271.739 1.39619 -1.46672 0
M  V30 2878 C 272.067 1.94257 -0.0972691 0
M  V30 2879 O 271.322 1.73768 0.900175 0
M  V30 2880 C 271.621 2.58309 -2.47005 0
M  V30 2881 C 271.287 2.21992 -3.92467 0
M  V30 2882 C 269.949 2.118 -4.32081 0
M  V30 2883 C 272.301 1.9321 -4.84065 0
M  V30 2884 C 269.629 1.71007 -5.61225 0
M  V30 2885 C 271.981 1.53911 -6.13591 0
M  V30 2886 C 270.645 1.42257 -6.52165 0
M  V30 2887 H 269.915 0.510902 -0.536712 0
M  V30 2888 H 272.562 0.722328 -1.77355 0
M  V30 2889 H 270.867 3.30903 -2.09786 0
M  V30 2890 H 272.564 3.16533 -2.46186 0
M  V30 2891 H 269.154 2.30841 -3.61124 0
M  V30 2892 H 273.338 1.99997 -4.54219 0
M  V30 2893 H 268.594 1.60583 -5.89935 0
M  V30 2894 H 272.768 1.30677 -6.8403 0
M  V30 2895 H 270.395 1.10419 -7.52138 0
M  V30 2896 N 271.97 1.30982 0.876444 0
M  V30 2897 C 273.2 1.23063 1.65949 0
M  V30 2898 C 273.608 -0.207537 1.88058 0
M  V30 2899 O 272.951 -1.14781 1.43426 0
M  V30 2900 C 273.013 1.89768 3.05333 0
M  V30 2901 C 272.677 3.39106 3.0636 0
M  V30 2902 C 273.674 4.3496 2.84791 0
M  V30 2903 C 271.359 3.80693 3.27686 0
M  V30 2904 C 273.353 5.70375 2.84519 0
M  V30 2905 C 271.04 5.16223 3.27043 0
M  V30 2906 C 272.038 6.10875 3.05485 0
M  V30 2907 O 271.726 7.43928 3.04674 0
M  V30 2908 H 271.458 0.426685 0.524324 0
M  V30 2909 H 274.012 1.7329 1.10271 0
M  V30 2910 H 272.242 1.34082 3.6271 0
M  V30 2911 H 273.931 1.75853 3.65829 0
M  V30 2912 H 274.697 4.0416 2.68103 0
M  V30 2913 H 270.576 3.07457 3.43499 0
M  V30 2914 H 274.12 6.44228 2.67611 0
M  V30 2915 H 270.017 5.4666 3.43269 0
M  V30 2916 H 270.785 7.53022 3.2078 0
M  V30 2917 N 273.449 -1.08991 1.13837 0
M  V30 2918 C 274.726 -1.77863 0.813876 0
M  V30 2919 C 275.106 -1.99375 -0.693746 0
M  V30 2920 O 274.454 -1.59875 -1.63255 0
M  V30 2921 C 274.664 -3.0986 1.60586 0
M  V30 2922 C 276.012 -3.84493 1.8014 0
M  V30 2923 O 277.036 -3.19624 1.57222 0
M  V30 2924 O 275.895 -5.00957 2.18413 0
M  V30 2925 H 272.989 -0.771589 0.297624 0
M  V30 2926 H 275.535 -1.15507 1.24323 0
M  V30 2927 H 274.307 -2.89715 2.63022 0
M  V30 2928 H 273.93 -3.79942 1.17173 0
M  V30 2929 N 274.927 -0.932562 -1.27047 0
M  V30 2930 C 276.343 -0.633544 -1.46487 0
M  V30 2931 C 276.543 0.815746 -1.84249 0
M  V30 2932 O 275.599 1.59319 -1.95892 0
M  V30 2933 C 276.912 -1.58758 -2.55375 0
M  V30 2934 C 278.46 -1.59634 -2.69232 0
M  V30 2935 C 278.935 -2.53747 -3.81283 0
M  V30 2936 N 280.426 -2.51982 -3.88664 0
M  V30 2937 C 281.161 -3.21491 -4.74796 0
M  V30 2938 N 280.657 -4.00395 -5.65381 0
M  V30 2939 N 282.45 -3.10485 -4.68568 0
M  V30 2940 H 274.601 -1.86946 -1.00821 0
M  V30 2941 H 276.864 -0.802897 -0.504044 0
M  V30 2942 H 276.57 -2.62172 -2.34432 0
M  V30 2943 H 276.444 -1.33301 -3.52861 0
M  V30 2944 H 278.831 -0.569488 -2.89553 0
M  V30 2945 H 278.912 -1.89142 -1.72218 0
M  V30 2946 H 278.556 -3.56545 -3.61715 0
M  V30 2947 H 278.486 -2.21532 -4.77735 0
M  V30 2948 H 280.977 -1.94681 -3.23895 0
M  V30 2949 H 281.29 -4.50406 -6.27976 0
M  V30 2950 H 279.635 -4.04498 -5.65161 0
M  V30 2951 H 282.826 -2.48331 -3.96799 0
M  V30 2952 H 282.999 -3.64925 -5.35475 0
M  V30 2953 N 276.405 1.4127 -0.698611 0
M  V30 2954 C 277.654 2.00408 -0.227949 0
M  V30 2955 C 277.967 1.55981 1.18023 0
M  V30 2956 O 279.173 2.07699 1.74852 0
M  V30 2957 C 277.629 3.58129 -0.356636 0
M  V30 2958 C 277.237 4.11536 -1.77037 0
M  V30 2959 C 278.981 4.24466 0.0540969 0
M  V30 2960 C 276.888 5.61701 -1.85055 0
M  V30 2961 H 275.818 0.749586 -0.0814657 0
M  V30 2962 H 278.469 1.61713 -0.867249 0
M  V30 2963 H 276.851 3.94442 0.350965 0
M  V30 2964 H 278.025 3.86636 -2.50698 0
M  V30 2965 H 276.34 3.57736 -2.13105 0
M  V30 2966 H 278.937 5.34698 0.0146723 0
M  V30 2967 H 279.28 4.01687 1.09332 0
M  V30 2968 H 279.813 3.93198 -0.603337 0
M  V30 2969 H 276.552 5.89312 -2.8704 0
M  V30 2970 H 276.072 5.88519 -1.15783 0
M  V30 2971 H 277.751 6.26524 -1.61484 0
M  V30 2972 N 277.883 0.443576 1.51229 0
M  V30 2973 C 278.831 -0.37904 2.29491 0
M  V30 2974 C 279.825 -1.0153 1.35603 0
M  V30 2975 O 281.031 -0.94955 1.52917 0
M  V30 2976 H 277.406 -0.141053 0.738653 0
M  V30 2977 H 279.377 0.301799 2.9687 0
M  V30 2978 C 278.126 -1.46426 3.15364 0
M  V30 2979 H 277.449 -0.984037 3.87501 0
M  V30 2980 H 278.889 -2.01297 3.7317 0
M  V30 2981 C 277.348 -2.45099 2.31146 0
M  V30 2982 O 277.878 -3.49773 1.9754 0
M  V30 2983 N 276.084 -2.16139 1.94249 0
M  V30 2984 H 275.631 -1.31044 2.21777 0
M  V30 2985 H 275.589 -2.82398 1.38198 0
M  V30 2986 N 279.361 -1.56624 0.175154 0
M  V30 2987 C 280.324 -2.16934 -0.739738 0
M  V30 2988 C 281.324 -1.11842 -1.15533 0
M  V30 2989 O 282.514 -1.37335 -1.07167 0
M  V30 2990 C 279.646 -2.75531 -2.00738 0
M  V30 2991 H 280.839 -2.99131 -0.214639 0
M  V30 2992 H 278.392 -1.56123 -0.0744197 0
M  V30 2993 H 279.127 -1.97078 -2.57548 0
M  V30 2994 H 278.912 -3.52444 -1.71831 0
M  V30 2995 H 280.402 -3.21904 -2.66021 0
M  V30 2996 N 280.839 0.0985539 -1.57292 0
M  V30 2997 C 281.786 1.11981 -2.01814 0
M  V30 2998 C 282.756 1.39999 -0.89384 0
M  V30 2999 O 283.941 1.5152 -1.15958 0
M  V30 3000 C 281.081 2.43577 -2.44467 0
M  V30 3001 C 280.194 2.2232 -3.70402 0
M  V30 3002 C 279.329 3.4729 -4.01949 0
M  V30 3003 C 278.368 3.2128 -5.21005 0
M  V30 3004 N 277.505 4.38507 -5.48321 0
M  V30 3005 H 282.345 0.733149 -2.88841 0
M  V30 3006 H 279.882 0.350482 -1.42864 0
M  V30 3007 H 281.84 3.20373 -2.6724 0
M  V30 3008 H 280.47 2.80097 -1.60455 0
M  V30 3009 H 279.522 1.36343 -3.55126 0
M  V30 3010 H 280.834 1.99089 -4.57345 0
M  V30 3011 H 279.988 4.32495 -4.25479 0
M  V30 3012 H 278.727 3.73572 -3.13521 0
M  V30 3013 H 277.732 2.34468 -4.97298 0
M  V30 3014 H 278.957 2.96348 -6.11028 0
M  V30 3015 H 276.903 4.64871 -4.62851 0
M  V30 3016 H 276.82 4.18455 -6.29628 0
M  V30 3017 H 278.088 5.24787 -5.76385 0
M  V30 3018 N 282.317 1.53212 0.369288 0
M  V30 3019 C 283.265 1.80054 1.47253 0
M  V30 3020 C 284.259 0.669456 1.55611 0
M  V30 3021 O 285.465 0.852328 1.58541 0
M  V30 3022 H 281.84 0.570034 0.490475 0
M  V30 3023 H 283.811 2.72403 1.21817 0
M  V30 3024 C 282.56 2.00403 2.84137 0
M  V30 3025 H 281.883 2.86876 2.78464 0
M  V30 3026 H 283.323 2.23164 3.60519 0
M  V30 3027 C 281.782 0.782081 3.27697 0
M  V30 3028 O 282.312 -0.0310205 4.01688 0
M  V30 3029 N 280.518 0.606573 2.84199 0
M  V30 3030 H 280.065 1.26939 2.24152 0
M  V30 3031 H 280.023 -0.20962 3.137 0
M  V30 3032 N 283.795 -0.628877 1.44509 0
M  V30 3033 C 285.206 -1.21054 1.42137 0
M  V30 3034 C 285.557 -1.95715 0.137881 0
M  V30 3035 O 284.682 -2.02554 -0.761645 0
M  V30 3036 C 285.277 -2.20189 2.57493 0
M  V30 3037 C 283.836 -2.73777 2.58308 0
M  V30 3038 C 282.983 -1.48813 2.33987 0
M  V30 3039 H 285.934 -0.41942 1.53057 0
M  V30 3040 H 285.955 -3.02833 2.30375 0
M  V30 3041 H 285.467 -1.6582 3.50892 0
M  V30 3042 H 283.568 -3.32142 1.68856 0
M  V30 3043 H 283.681 -3.19662 3.56865 0
M  V30 3044 H 282.045 -1.77024 1.83124 0
M  V30 3045 H 282.828 -0.963442 3.29504 0
M  V30 3046 N 285.273 -1.31445 -0.869486 0
M  V30 3047 C 286.52 -1.21158 -1.62256 0
M  V30 3048 C 286.848 0.230155 -1.93133 0
M  V30 3049 O 286.103 1.17906 -1.56194 0
M  V30 3050 C 286.402 -2.00145 -2.96102 0
M  V30 3051 C 286.068 -3.4964 -2.84715 0
M  V30 3052 C 284.73 -3.90403 -2.81317 0
M  V30 3053 C 287.082 -4.44769 -2.71716 0
M  V30 3054 C 284.41 -5.24561 -2.62778 0
M  V30 3055 C 286.762 -5.79054 -2.54714 0
M  V30 3056 C 285.426 -6.19037 -2.49699 0
M  V30 3057 H 284.696 -0.443348 -0.593737 0
M  V30 3058 H 287.343 -1.62715 -1.00976 0
M  V30 3059 H 285.648 -1.5127 -3.6142 0
M  V30 3060 H 287.345 -1.89566 -3.53363 0
M  V30 3061 H 283.935 -3.17256 -2.88178 0
M  V30 3062 H 288.119 -4.14208 -2.73397 0
M  V30 3063 H 283.375 -5.54613 -2.57321 0
M  V30 3064 H 287.549 -6.52393 -2.43632 0
M  V30 3065 H 285.176 -7.22935 -2.35093 0
M  V30 3066 N 286.751 1.08385 -1.14413 0
M  V30 3067 C 287.661 2.18856 -0.844951 0
M  V30 3068 C 288.677 1.73121 0.174668 0
M  V30 3069 O 289.853 2.014 0.00312857 0
M  V30 3070 C 286.918 3.45155 -0.32696 0
M  V30 3071 C 285.979 4.05513 -1.40916 0
M  V30 3072 C 285.212 5.25784 -0.915793 0
M  V30 3073 O 285.435 5.69884 0.242651 0
M  V30 3074 O 284.369 5.77545 -1.69487 0
M  V30 3075 H 288.195 2.46919 -1.76818 0
M  V30 3076 H 285.78 1.17524 -0.922411 0
M  V30 3077 H 287.662 4.21377 -0.0440211 0
M  V30 3078 H 286.337 3.18668 0.568539 0
M  V30 3079 H 285.244 3.30879 -1.74556 0
M  V30 3080 H 286.577 4.3625 -2.27919 0
M  V30 3081 N 288.23 0.939286 1.26551 0
M  V30 3082 C 289.458 0.602536 1.97932 0
M  V30 3083 C 289.873 -0.82206 1.69964 0
M  V30 3084 O 289.23 -1.54789 0.966784 0
M  V30 3085 C 289.281 0.832946 3.51773 0
M  V30 3086 O 289.002 2.20151 3.78768 0
M  V30 3087 C 290.503 0.506483 4.40397 0
M  V30 3088 H 287.723 0.227248 0.631347 0
M  V30 3089 H 290.267 1.25948 1.61113 0
M  V30 3090 H 288.422 0.222644 3.8676 0
M  V30 3091 H 288.836 2.26013 4.73306 0
M  V30 3092 H 290.31 0.718333 5.47306 0
M  V30 3093 H 290.787 -0.558451 4.35635 0
M  V30 3094 H 291.393 1.09543 4.10951 0
M  V30 3095 N 289.708 -1.40897 0.706093 0
M  V30 3096 C 290.655 -2.30751 0.0474474 0
M  V30 3097 C 291.625 -1.47678 -0.76029 0
M  V30 3098 O 292.81 -1.76441 -0.726177 0
M  V30 3099 C 289.95 -3.33815 -0.875309 0
M  V30 3100 C 289.063 -4.31961 -0.0580623 0
M  V30 3101 C 288.198 -5.22093 -0.979425 0
M  V30 3102 C 287.237 -6.11902 -0.155706 0
M  V30 3103 N 286.374 -6.94482 -1.03144 0
M  V30 3104 H 291.214 -2.86513 0.819413 0
M  V30 3105 H 288.751 -1.41102 0.415783 0
M  V30 3106 H 290.709 -3.92129 -1.42446 0
M  V30 3107 H 289.339 -2.79579 -1.61356 0
M  V30 3108 H 288.391 -3.75507 0.608147 0
M  V30 3109 H 289.703 -4.95415 0.580082 0
M  V30 3110 H 288.857 -5.85292 -1.59744 0
M  V30 3111 H 287.596 -4.5889 -1.65141 0
M  V30 3112 H 286.601 -5.47742 0.475309 0
M  V30 3113 H 287.826 -6.77162 0.512635 0
M  V30 3114 H 285.772 -6.33877 -1.68924 0
M  V30 3115 H 285.689 -7.54665 -0.449108 0
M  V30 3116 H 286.957 -7.6214 -1.63593 0
M  V30 3117 N 291.186 -0.45159 -1.50991 0
M  V30 3118 C 292.096 0.358431 -2.31846 0
M  V30 3119 C 293.112 1.01438 -1.41373 0
M  V30 3120 O 294.288 1.00663 -1.74439 0
M  V30 3121 C 291.353 1.43704 -3.15515 0
M  V30 3122 C 290.414 0.799742 -4.21785 0
M  V30 3123 C 289.647 1.82696 -5.01456 0
M  V30 3124 O 289.87 3.05105 -4.81941 0
M  V30 3125 O 288.804 1.40958 -5.85162 0
M  V30 3126 H 292.63 -0.302032 -3.02194 0
M  V30 3127 H 290.215 -0.213825 -1.47862 0
M  V30 3128 H 292.097 2.06227 -3.67489 0
M  V30 3129 H 290.772 2.08133 -2.47916 0
M  V30 3130 H 289.679 0.136084 -3.73852 0
M  V30 3131 H 291.012 0.198718 -4.91799 0
M  V30 3132 N 292.664 1.56529 -0.183458 0
M  V30 3133 C 293.574 2.22144 0.754272 0
M  V30 3134 C 294.59 1.21684 1.24374 0
M  V30 3135 O 295.766 1.54385 1.29333 0
M  V30 3136 C 292.831 2.85884 1.96141 0
M  V30 3137 C 291.892 4.01579 1.51765 0
M  V30 3138 C 291.125 4.6227 2.66725 0
M  V30 3139 O 291.348 4.21865 3.83909 0
M  V30 3140 O 290.282 5.51936 2.40104 0
M  V30 3141 H 294.108 3.02861 0.225527 0
M  V30 3142 H 291.693 1.49331 0.0453032 0
M  V30 3143 H 293.575 3.26253 2.66715 0
M  V30 3144 H 292.25 2.08154 2.47899 0
M  V30 3145 H 291.157 3.65856 0.781049 0
M  V30 3146 H 292.49 4.80938 1.04686 0
M  V30 3147 N 294.142 -0.090211 1.57342 0
M  V30 3148 C 295.072 -1.10976 2.05443 0
M  V30 3149 C 296.053 -1.41482 0.944284 0
M  V30 3150 O 297.238 -1.51428 1.21586 0
M  V30 3151 C 294.368 -2.42831 2.48295 0
M  V30 3152 C 293.322 -2.26721 3.63018 0
M  V30 3153 C 292.648 -3.63796 3.91863 0
M  V30 3154 C 293.948 -1.7037 4.93732 0
M  V30 3155 H 295.642 -0.709564 2.9087 0
M  V30 3156 H 293.188 -0.339874 1.39932 0
M  V30 3157 H 295.141 -3.14431 2.80555 0
M  V30 3158 H 293.865 -2.84795 1.59873 0
M  V30 3159 H 292.524 -1.57565 3.31012 0
M  V30 3160 H 292.172 -4.03297 3.00601 0
M  V30 3161 H 291.872 -3.53861 4.69101 0
M  V30 3162 H 293.396 -4.36855 4.26603 0
M  V30 3163 H 294.81 -2.31816 5.24342 0
M  V30 3164 H 293.207 -1.71181 5.75167 0
M  V30 3165 H 294.277 -0.663542 4.80339 0
M  V30 3166 N 295.62 -1.53406 -0.361157 0
M  V30 3167 C 296.55 -1.83136 -1.44857 0
M  V30 3168 C 297.531 -0.685174 -1.5569 0
M  V30 3169 O 298.716 -0.93544 -1.70186 0
M  V30 3170 C 295.846 -2.02522 -2.82138 0
M  V30 3171 C 294.8 -3.18302 -2.86126 0
M  V30 3172 C 294.126 -3.22989 -4.26125 0
M  V30 3173 C 295.426 -4.56796 -2.53248 0
M  V30 3174 H 297.12 -2.74201 -1.20226 0
M  V30 3175 H 294.666 -1.31938 -0.576922 0
M  V30 3176 H 296.619 -2.21904 -3.58241 0
M  V30 3177 H 295.343 -1.08172 -3.08166 0
M  V30 3178 H 294.002 -2.98747 -2.12475 0
M  V30 3179 H 293.65 -2.26267 -4.49235 0
M  V30 3180 H 293.35 -4.00781 -4.29708 0
M  V30 3181 H 294.874 -3.44559 -5.04094 0
M  V30 3182 H 296.288 -4.7631 -3.19064 0
M  V30 3183 H 294.685 -5.36862 -2.68141 0
M  V30 3184 H 295.755 -4.61606 -1.48484 0
M  V30 3185 N 297.098 0.621204 -1.44841 0
M  V30 3186 C 298.347 1.37658 -1.47422 0
M  V30 3187 C 298.66 1.95264 -0.114629 0
M  V30 3188 O 299.866 2.71494 -0.0180199 0
M  V30 3189 C 298.322 2.49285 -2.59586 0
M  V30 3190 C 297.93 1.98149 -4.01797 0
M  V30 3191 C 299.674 3.26409 -2.71399 0
M  V30 3192 C 297.581 3.07178 -5.05367 0
M  V30 3193 H 296.511 0.517344 -0.548517 0
M  V30 3194 H 299.162 0.667257 -1.70938 0
M  V30 3195 H 297.544 3.22839 -2.29328 0
M  V30 3196 H 298.718 1.31395 -4.41669 0
M  V30 3197 H 297.033 1.33812 -3.94314 0
M  V30 3198 H 299.63 4.07706 -3.45948 0
M  V30 3199 H 299.973 3.76535 -1.77559 0
M  V30 3200 H 300.506 2.5995 -3.01116 0
M  V30 3201 H 297.245 2.61985 -6.00869 0
M  V30 3202 H 296.765 3.72542 -4.70077 0
M  V30 3203 H 298.444 3.71789 -5.29511 0
M  V30 3204 N 298.576 1.31904 0.862503 0
M  V30 3205 C 299.506 1.22782 1.98612 0
M  V30 3206 C 300.487 0.113362 1.69722 0
M  V30 3207 O 301.672 0.299218 1.91881 0
M  V30 3208 C 298.802 0.942058 3.34279 0
M  V30 3209 C 297.756 2.0169 3.77499 0
M  V30 3210 C 297.082 1.58369 5.10709 0
M  V30 3211 C 298.382 3.43096 3.93805 0
M  V30 3212 H 300.076 2.16788 2.06502 0
M  V30 3213 H 297.622 1.04366 0.992154 0
M  V30 3214 H 299.575 0.864818 4.1243 0
M  V30 3215 H 298.299 -0.0336603 3.26583 0
M  V30 3216 H 296.958 2.08416 3.01593 0
M  V30 3217 H 296.606 0.595628 4.99461 0
M  V30 3218 H 296.306 2.30279 5.40597 0
M  V30 3219 H 297.83 1.52067 5.91361 0
M  V30 3220 H 299.244 3.39003 4.62331 0
M  V30 3221 H 297.641 4.13288 4.35101 0
M  V30 3222 H 298.711 3.83334 2.96957 0
M  V30 3223 N 300.054 -1.07777 1.14986 0
M  V30 3224 C 301.331 -1.7699 0.832695 0
M  V30 3225 C 301.711 -2.001 -0.672561 0
M  V30 3226 O 301.059 -1.61598 -1.6155 0
M  V30 3227 C 301.269 -3.08139 1.63863 0
M  V30 3228 C 302.617 -3.8256 1.84208 0
M  V30 3229 O 303.641 -3.17939 1.60603 0
M  V30 3230 O 302.5 -4.98612 2.23714 0
M  V30 3231 H 299.594 -0.768389 0.305791 0
M  V30 3232 H 302.14 -1.14182 1.25541 0
M  V30 3233 H 300.912 -2.86909 2.6608 0
M  V30 3234 H 300.535 -3.78678 1.21197 0
M  V30 3235 O 301.571 -1.07645 -1.20395 0
M  V30 3236 H 302.262 -0.764187 -1.77988 0
M  V30 END ATOM
M  V30 BEGIN BOND
M  V30 END BOND
M  V30 END CTAB
M  END
$$$$
