drugbank_target|P69054 Succinate dehydrogenase cytochrome b556 subunit (DB04631; DB07671; DB08690)
 OpenBabel12092120423D

  0  0  0     0  0            999 V3000
M  V30 BEGIN CTAB
M  V30 COUNTS 2074 2096 0 0 0
M  V30 BEGIN ATOM
M  V30 1 H -0.908 1.98254 -0.117106 0
M  V30 2 N 0 1.576 0 0
M  V30 3 C 0.933 2.03868 1.02534 0
M  V30 4 C 1.911 0.928543 1.3348 0
M  V30 5 O 3.095 1.19667 1.45644 0
M  V30 6 C 0.222 2.43627 2.35294 0
M  V30 7 C -0.732 3.65373 2.2001 0
M  V30 8 S 0.101 5.13292 1.52614 0
M  V30 9 C 1.257 5.56322 2.86805 0
M  V30 10 H 1.49 2.90518 0.631377 0
M  V30 11 H -0.977 1.52953 0.210867 0
M  V30 12 H 0.981 2.67203 3.11629 0
M  V30 13 H -0.358 1.57376 2.7183 0
M  V30 14 H -1.165 3.90944 3.18086 0
M  V30 15 H -1.563 3.418 1.51819 0
M  V30 16 H 0.729 5.58782 3.83104 0
M  V30 17 H 1.672 6.56266 2.65933 0
M  V30 18 H 2.08 4.83886 2.90714 0
M  V30 19 N 1.4781 -0.272755 1.55222 0
M  V30 20 C 2.7271 -1.00211 1.75045 0
M  V30 21 C 3.0401 -1.87441 0.559046 0
M  V30 22 O 4.2461 -2.63856 0.639698 0
M  V30 23 C 2.7021 -1.83165 3.09804 0
M  V30 24 C 2.3101 -1.008 4.36513 0
M  V30 25 C 4.0541 -2.55529 3.38977 0
M  V30 26 C 1.9611 -1.83194 5.62311 0
M  V30 27 H 0.8911 -0.377878 0.652476 0
M  V30 28 H 3.5421 -0.257776 1.8168 0
M  V30 29 H 1.9241 -2.61694 2.97207 0
M  V30 30 H 3.0981 -0.266855 4.60027 0
M  V30 31 H 1.4131 -0.398897 4.14485 0
M  V30 32 H 4.0101 -3.17578 4.30172 0
M  V30 33 H 4.3531 -3.25825 2.59121 0
M  V30 34 H 4.8861 -1.84029 3.52673 0
M  V30 35 H 1.6251 -1.17318 6.44916 0
M  V30 36 H 1.1451 -2.54905 5.4294 0
M  V30 37 H 2.8241 -2.40552 6.00619 0
M  V30 38 N 2.9562 -1.48159 -0.537278 0
M  V30 39 C 4.3722 -1.34118 -0.865129 0
M  V30 40 C 4.5722 -0.346678 -1.98495 0
M  V30 41 O 3.6282 0.234715 -2.51407 0
M  V30 42 C 4.9412 -2.73963 -1.23954 0
M  V30 43 C 6.4892 -2.82397 -1.34984 0
M  V30 44 C 6.9642 -4.22928 -1.75772 0
M  V30 45 N 8.4552 -4.25566 -1.82887 0
M  V30 46 C 9.1902 -5.31235 -2.15817 0
M  V30 47 N 8.6862 -6.47189 -2.47222 0
M  V30 48 N 10.4792 -5.18624 -2.16761 0
M  V30 49 H 2.6302 -2.1144 0.201715 0
M  V30 50 H 4.8932 -0.947598 0.0275949 0
M  V30 51 H 4.5992 -3.48264 -0.490381 0
M  V30 52 H 4.4732 -3.0702 -2.19132 0
M  V30 53 H 6.8602 -2.08356 -2.08978 0
M  V30 54 H 6.9412 -2.5297 -0.379448 0
M  V30 55 H 6.5852 -4.97482 -1.02341 0
M  V30 56 H 6.5152 -4.49794 -2.73848 0
M  V30 57 H 9.0062 -3.41924 -1.60924 0
M  V30 58 H 9.3192 -7.23564 -2.71433 0
M  V30 59 H 7.6642 -6.50476 -2.44757 0
M  V30 60 H 10.8552 -4.27056 -1.91679 0
M  V30 61 H 11.0282 -6.01078 -2.42093 0
M  V30 62 N 4.4343 0.785586 -1.36625 0
M  V30 63 C 5.3823 1.91978 -1.31329 0
M  V30 64 C 6.3763 1.68162 -0.204416 0
M  V30 65 O 7.5823 1.76122 -0.371645 0
M  V30 66 H 3.9573 0.631087 -0.408942 0
M  V30 67 H 5.9283 1.93562 -2.27104 0
M  V30 68 C 4.6773 3.29055 -1.12329 0
M  V30 69 H 4.0003 3.4795 -1.96903 0
M  V30 70 H 5.4403 4.08756 -1.12671 0
M  V30 71 C 3.8993 3.36461 0.171861 0
M  V30 72 O 4.4293 3.84576 1.16035 0
M  V30 73 N 2.6353 2.89782 0.217846 0
M  V30 74 H 2.1823 2.50819 -0.587183 0
M  V30 75 H 2.1403 2.95119 1.08408 0
M  V30 76 N 5.9124 1.20967 1.01018 0
M  V30 77 C 7.1584 1.02526 1.74975 0
M  V30 78 C 7.4914 -0.4408 1.89131 0
M  V30 79 O 6.7664 -1.32718 1.42184 0
M  V30 80 C 7.0494 1.71699 3.1653 0
M  V30 81 C 6.9024 3.25791 3.10129 0
M  V30 82 C 8.2214 1.45531 4.15342 0
M  V30 83 H 5.3404 0.373863 0.635134 0
M  V30 84 H 7.9824 1.49071 1.17805 0
M  V30 85 H 6.1324 1.32128 3.65341 0
M  V30 86 H 7.8044 3.74697 2.69072 0
M  V30 87 H 6.0474 3.56363 2.47362 0
M  V30 88 H 6.7184 3.69353 4.10222 0
M  V30 89 H 9.1944 1.79872 3.75213 0
M  V30 90 H 8.0704 1.96453 5.1254 0
M  V30 91 H 8.3314 0.384237 4.40427 0
M  V30 92 N 7.3905 -1.2043 1.01659 0
M  V30 93 C 8.3375 -2.23215 0.586822 0
M  V30 94 C 9.3075 -1.61382 -0.393085 0
M  V30 95 O 10.4925 -1.88544 -0.292525 0
M  V30 96 C 7.6325 -3.45032 -0.0687464 0
M  V30 97 C 6.7455 -4.21296 0.955724 0
M  V30 98 C 5.8805 -5.30507 0.271208 0
M  V30 99 C 4.9195 -5.98515 1.28244 0
M  V30 100 N 4.0565 -6.99316 0.62459 0
M  V30 101 H 8.8965 -2.59336 1.46796 0
M  V30 102 H 6.4335 -1.27431 0.734836 0
M  V30 103 H 8.3915 -4.1459 -0.465965 0
M  V30 104 H 7.0215 -3.09604 -0.913529 0
M  V30 105 H 6.0735 -3.50803 1.4711 0
M  V30 106 H 7.3855 -4.6803 1.72479 0
M  V30 107 H 6.5395 -6.06428 -0.18151 0
M  V30 108 H 5.2785 -4.8481 -0.530163 0
M  V30 109 H 4.2835 -5.21355 1.74554 0
M  V30 110 H 5.5085 -6.46298 2.08509 0
M  V30 111 H 3.4545 -6.55812 -0.156914 0
M  V30 112 H 3.3715 -7.44178 1.33172 0
M  V30 113 H 4.6395 -7.79255 0.195462 0
M  V30 114 N 8.8686 -0.792821 -1.36206 0
M  V30 115 C 9.8156 -0.191653 -2.30003 0
M  V30 116 C 10.7856 0.666453 -1.52143 0
M  V30 117 O 11.9706 0.61442 -1.80636 0
M  V30 118 C 9.1106 0.664848 -3.38635 0
M  V30 119 C 8.2236 -0.212175 -4.31479 0
M  V30 120 C 7.3586 0.651022 -5.27196 0
M  V30 121 C 6.3976 -0.227247 -6.11678 0
M  V30 122 N 5.5346 0.595127 -6.99573 0
M  V30 123 H 10.3746 -0.996978 -2.80828 0
M  V30 124 H 7.9116 -0.503206 -1.38225 0
M  V30 125 H 9.8696 1.17645 -4.00269 0
M  V30 126 H 8.4996 1.43557 -2.89122 0
M  V30 127 H 7.5516 -0.841777 -3.70969 0
M  V30 128 H 8.8636 -0.888751 -4.90818 0
M  V30 129 H 8.0176 1.2283 -5.94136 0
M  V30 130 H 6.7566 1.36121 -4.68319 0
M  V30 131 H 5.7616 -0.816904 -5.43697 0
M  V30 132 H 6.9866 -0.93509 -6.72631 0
M  V30 133 H 4.9326 1.28955 -6.432 0
M  V30 134 H 4.8496 -0.0236952 -7.55996 0
M  V30 135 H 6.1176 1.15613 -7.70879 0
M  V30 136 N 10.3467 1.47872 -0.545128 0
M  V30 137 C 11.2787 2.27869 0.246621 0
M  V30 138 C 12.2917 1.36282 0.890561 0
M  V30 139 O 13.4807 1.61207 0.766449 0
M  V30 140 C 10.5807 3.10159 1.36582 0
M  V30 141 C 9.7537 4.29627 0.820954 0
M  V30 142 C 8.8127 4.93607 1.82314 0
M  V30 143 O 7.8387 5.52366 1.37406 0
M  V30 144 N 9.0407 4.87211 3.15603 0
M  V30 145 H 11.8057 2.96459 -0.439539 0
M  V30 146 H 9.3667 1.57367 -0.380421 0
M  V30 147 H 11.3587 3.49829 2.03474 0
M  V30 148 H 9.9287 2.43891 1.9554 0
M  V30 149 H 9.1487 3.94192 -0.0244032 0
M  V30 150 H 10.4367 5.06928 0.436063 0
M  V30 151 H 9.8347 4.40651 3.54744 0
M  V30 152 H 8.3917 5.30937 3.78087 0
M  V30 153 N 11.8248 0.280983 1.55075 0
M  V30 154 C 13.2408 -0.0729964 1.59433 0
M  V30 155 C 13.4408 -1.5411 1.29817 0
M  V30 156 O 12.4968 -2.29086 1.06187 0
M  V30 157 C 13.8098 0.306921 2.9913 0
M  V30 158 C 15.3578 0.254023 3.11968 0
M  V30 159 C 15.8328 0.608467 4.5394 0
M  V30 160 N 17.3238 0.560241 4.59799 0
M  V30 161 C 18.0588 0.80722 5.6769 0
M  V30 162 N 17.5548 1.11912 6.83701 0
M  V30 163 N 19.3478 0.735623 5.57266 0
M  V30 164 H 11.4988 1.238 1.7259 0
M  V30 165 H 13.7618 0.500547 0.805082 0
M  V30 166 H 13.4678 1.32816 3.25657 0
M  V30 167 H 13.3418 -0.349363 3.75579 0
M  V30 168 H 15.7288 -0.75794 2.852 0
M  V30 169 H 15.8098 0.944649 2.37718 0
M  V30 170 H 15.4538 1.61814 4.81434 0
M  V30 171 H 15.3838 -0.104013 5.26497 0
M  V30 172 H 17.8748 0.329288 3.76463 0
M  V30 173 H 18.1878 1.29409 7.61888 0
M  V30 174 H 16.5328 1.15695 6.85303 0
M  V30 175 H 19.7238 0.491752 4.6551 0
M  V30 176 H 19.8968 0.931482 6.4127 0
M  V30 177 N 13.3029 -1.57598 0.00835791 0
M  V30 178 C 14.7139 -1.7892 -0.53333 0
M  V30 179 C 15.0649 -0.916609 -1.73473 0
M  V30 180 O 14.1899 -0.121336 -2.1606 0
M  V30 181 C 14.7849 -3.24488 -0.974313 0
M  V30 182 C 13.3439 -3.46878 -1.46125 0
M  V30 183 C 12.4909 -2.74157 -0.416302 0
M  V30 184 H 15.4419 -1.56958 0.234495 0
M  V30 185 H 15.4629 -3.3306 -1.83988 0
M  V30 186 H 14.9749 -3.87972 -0.099718 0
M  V30 187 H 13.0759 -2.8862 -2.35646 0
M  V30 188 H 13.1889 -4.55572 -1.48295 0
M  V30 189 H 11.5529 -2.39022 -0.87981 0
M  V30 190 H 12.3359 -3.40345 0.44947 0
M  V30 191 N 14.781 0.264519 -1.55364 0
M  V30 192 C 16.027 0.99646 -1.76631 0
M  V30 193 C 16.36 1.85632 -0.570478 0
M  V30 194 O 15.635 1.89647 0.43175 0
M  V30 195 C 15.918 1.87187 -3.07625 0
M  V30 196 C 15.771 1.04138 -4.37579 0
M  V30 197 C 17.09 2.85749 -3.34717 0
M  V30 198 H 14.209 0.360841 -0.642622 0
M  V30 199 H 16.851 0.268218 -1.88097 0
M  V30 200 H 15.001 2.49279 -2.9798 0
M  V30 201 H 16.673 0.440517 -4.59192 0
M  V30 202 H 14.916 0.345115 -4.32425 0
M  V30 203 H 15.587 1.68729 -5.2558 0
M  V30 204 H 18.063 2.33793 -3.4421 0
M  V30 205 H 16.939 3.44136 -4.27623 0
M  V30 206 H 17.2 3.61311 -2.54768 0
M  V30 207 N 16.2591 1.48442 0.529413 0
M  V30 208 C 17.2071 1.63452 1.65487 0
M  V30 209 C 18.2011 0.500955 1.61823 0
M  V30 210 O 19.4071 0.679695 1.66674 0
M  V30 211 H 15.7821 0.514905 0.548066 0
M  V30 212 H 17.7531 2.57975 1.49971 0
M  V30 213 C 16.5021 1.69196 3.03756 0
M  V30 214 H 15.8251 2.55784 3.07269 0
M  V30 215 H 17.2651 1.83743 3.82119 0
M  V30 216 C 15.7241 0.430765 3.34135 0
M  V30 217 O 16.2541 -0.4561 3.99102 0
M  V30 218 N 14.4601 0.302293 2.89023 0
M  V30 219 H 14.0071 1.02496 2.36331 0
M  V30 220 H 13.9651 -0.540546 3.09718 0
M  V30 221 N 17.7372 -0.778329 1.37039 0
M  V30 222 C 18.6672 -1.90546 1.34962 0
M  V30 223 C 19.6482 -1.68681 0.219274 0
M  V30 224 O 20.8332 -1.89634 0.418624 0
M  V30 225 C 17.9632 -3.27734 1.14925 0
M  V30 226 C 16.9172 -3.64147 2.24902 0
M  V30 227 C 16.2432 -4.99806 1.89996 0
M  V30 228 C 17.5432 -3.71579 3.67051 0
M  V30 229 H 19.2372 -1.92541 2.29277 0
M  V30 230 H 16.7832 -0.924948 1.10366 0
M  V30 231 H 18.7362 -4.06215 1.12104 0
M  V30 232 H 17.4602 -3.26154 0.170631 0
M  V30 233 H 16.1192 -2.8797 2.26868 0
M  V30 234 H 15.7672 -4.94759 0.906796 0
M  V30 235 H 15.4672 -5.25139 2.63634 0
M  V30 236 H 16.9912 -5.80694 1.88749 0
M  V30 237 H 18.4052 -4.40227 3.67251 0
M  V30 238 H 16.8022 -4.08405 4.39688 0
M  V30 239 H 17.8722 -2.72404 4.01154 0
M  V30 240 N 19.2153 -1.21501 -1.00376 0
M  V30 241 C 20.4923 -0.941745 -1.71437 0
M  V30 242 C 20.8723 0.546114 -2.03914 0
M  V30 243 O 20.2203 1.51128 -1.71384 0
M  V30 244 C 20.4303 -1.82812 -2.97289 0
M  V30 245 C 21.7783 -2.07771 -3.70292 0
M  V30 246 O 22.8023 -1.80171 -3.07273 0
M  V30 247 O 21.6613 -2.54456 -4.83647 0
M  V30 248 H 18.7553 -0.353243 -0.747762 0
M  V30 249 H 21.3013 -1.32436 -1.06108 0
M  V30 250 H 20.0733 -2.83501 -2.69709 0
M  V30 251 H 19.6963 -1.4464 -3.70358 0
M  V30 252 N 20.6934 1.19889 -1.02296 0
M  V30 253 C 21.6234 2.25141 -0.619174 0
M  V30 254 C 22.6044 1.66051 0.368915 0
M  V30 255 O 23.7894 1.92546 0.252941 0
M  V30 256 C 20.9194 3.4728 0.0368783 0
M  V30 257 C 19.8734 4.19005 -0.872865 0
M  V30 258 C 19.1994 5.34637 -0.0822402 0
M  V30 259 C 20.4994 4.74452 -2.18387 0
M  V30 260 H 22.1934 2.59171 -1.49903 0
M  V30 261 H 19.7394 1.24579 -0.722222 0
M  V30 262 H 21.6924 4.20098 0.330958 0
M  V30 263 H 20.4164 3.12433 0.95149 0
M  V30 264 H 19.0754 3.48061 -1.15105 0
M  V30 265 H 18.7234 4.96034 0.83422 0
M  V30 266 H 18.4234 5.83557 -0.688149 0
M  V30 267 H 19.9474 6.10255 0.205238 0
M  V30 268 H 21.3614 5.39055 -1.95172 0
M  V30 269 H 19.7584 5.33834 -2.74119 0
M  V30 270 H 20.8284 3.92844 -2.84257 0
M  V30 271 N 22.1715 0.800033 1.35784 0
M  V30 272 C 23.1035 0.163596 2.28615 0
M  V30 273 C 24.1165 -0.633317 1.49976 0
M  V30 274 O 25.3055 -0.466754 1.72289 0
M  V30 275 C 22.4055 -0.790958 3.29541 0
M  V30 276 C 21.5785 -0.0418255 4.3738 0
M  V30 277 C 20.6375 -0.91389 5.18203 0
M  V30 278 O 19.6635 -0.367234 5.68014 0
M  V30 279 N 20.8655 -2.23682 5.35674 0
M  V30 280 H 23.6305 0.96105 2.83873 0
M  V30 281 H 21.1915 0.654894 1.48063 0
M  V30 282 H 23.1835 -1.37844 3.80501 0
M  V30 283 H 21.7535 -1.48925 2.74846 0
M  V30 284 H 20.9735 0.726813 3.87442 0
M  V30 285 H 22.2615 0.474719 5.06581 0
M  V30 286 H 21.6595 -2.70497 4.96838 0
M  V30 287 H 20.2165 -2.77369 5.89839 0
M  V30 288 N 23.6496 -1.47581 0.552962 0
M  V30 289 C 24.8776 -2.06875 0.0320556 0
M  V30 290 C 25.2926 -1.40625 -1.25976 0
M  V30 291 O 24.6496 -0.501349 -1.75479 0
M  V30 292 C 24.7006 -3.61092 -0.17167 0
M  V30 293 O 24.4216 -4.24858 1.06899 0
M  V30 294 C 25.9226 -4.37242 -0.730344 0
M  V30 295 H 23.1426 -0.669561 0.043915 0
M  V30 296 H 25.6866 -1.89646 0.765163 0
M  V30 297 H 23.8416 -3.7785 -0.854894 0
M  V30 298 H 24.2556 -5.17334 0.864059 0
M  V30 299 H 25.7296 -5.45842 -0.822203 0
M  V30 300 H 26.2066 -4.03235 -1.74064 0
M  V30 301 H 26.8126 -4.25219 -0.0829543 0
M  V30 302 N 25.1277 -0.289203 -1.54924 0
M  V30 303 C 26.3767 0.324231 -1.99077 0
M  V30 304 C 26.6897 1.5591 -1.18117 0
M  V30 305 O 27.8957 2.24637 -1.52481 0
M  V30 306 C 26.3517 0.628209 -3.54375 0
M  V30 307 C 25.9597 -0.587647 -4.44129 0
M  V30 308 C 27.7037 1.20349 -4.07083 0
M  V30 309 C 25.6107 -0.257475 -5.90839 0
M  V30 310 H 24.5407 0.124924 -0.743579 0
M  V30 311 H 27.1917 -0.396063 -1.79175 0
M  V30 312 H 25.5737 1.40778 -3.70132 0
M  V30 313 H 26.7477 -1.36418 -4.40144 0
M  V30 314 H 25.0627 -1.08074 -4.0213 0
M  V30 315 H 27.6597 1.46456 -5.14252 0
M  V30 316 H 28.0027 2.14195 -3.56968 0
M  V30 317 H 28.5357 0.485889 -3.94821 0
M  V30 318 H 25.2747 -1.16419 -6.45079 0
M  V30 319 H 24.7947 0.482018 -5.9786 0
M  V30 320 H 26.4737 0.145238 -6.46837 0
M  V30 321 N 26.6058 1.57591 -0.0167156 0
M  V30 322 C 28.0218 1.55946 0.339557 0
M  V30 323 C 28.2218 1.02109 1.73713 0
M  V30 324 O 27.2778 0.662303 2.43659 0
M  V30 325 C 28.5908 3.00037 0.199499 0
M  V30 326 C 30.1388 3.11805 0.273193 0
M  V30 327 C 30.6138 4.57713 0.162068 0
M  V30 328 N 32.1048 4.6268 0.219444 0
M  V30 329 C 32.8398 5.73185 0.157054 0
M  V30 330 N 32.3358 6.92786 0.0442936 0
M  V30 331 N 34.1288 5.61707 0.21014 0
M  V30 332 H 26.2798 1.90921 -0.930758 0
M  V30 333 H 28.5428 0.877674 -0.358319 0
M  V30 334 H 28.2488 3.4333 -0.76273 0
M  V30 335 H 28.1228 3.64387 0.974786 0
M  V30 336 H 30.5098 2.68433 1.22587 0
M  V30 337 H 30.5908 2.50201 -0.532256 0
M  V30 338 H 30.2348 5.01763 -0.78714 0
M  V30 339 H 30.1648 5.17283 0.986222 0
M  V30 340 H 32.6558 3.76649 0.307246 0
M  V30 341 H 32.9688 7.728 0.00304069 0
M  V30 342 H 31.3138 6.94999 0.00968457 0
M  V30 343 H 34.5048 4.6716 0.296546 0
M  V30 344 H 34.6778 6.47807 0.158054 0
M  V30 345 N 28.0839 -0.256276 1.55502 0
M  V30 346 C 29.3309 -0.985619 1.76895 0
M  V30 347 C 29.6589 -1.85671 0.579355 0
M  V30 348 O 28.9139 -1.90744 -0.437651 0
M  V30 349 C 29.2129 -1.88432 3.03691 0
M  V30 350 C 28.8789 -1.16936 4.35473 0
M  V30 351 C 27.5409 -0.97173 4.71286 0
M  V30 352 C 29.8929 -0.661889 5.1698 0
M  V30 353 C 27.2209 -0.254179 5.86149 0
M  V30 354 C 29.5729 0.042149 6.32586 0
M  V30 355 C 28.2369 0.25134 6.67027 0
M  V30 356 H 27.5069 -0.360663 0.647304 0
M  V30 357 H 30.1539 -0.256483 1.89775 0
M  V30 358 H 28.4589 -2.68021 2.85783 0
M  V30 359 H 30.1559 -2.45015 3.1744 0
M  V30 360 H 26.7459 -1.33332 4.07333 0
M  V30 361 H 30.9299 -0.802145 4.89775 0
M  V30 362 H 26.1859 -0.0815408 6.11346 0
M  V30 363 H 30.3599 0.443049 6.94989 0
M  V30 364 H 27.9869 0.809314 7.5588 0
M  V30 365 N 29.562 -1.4872 -0.521534 0
M  V30 366 C 30.973 -1.50607 -1.10337 0
M  V30 367 C 31.324 -0.280612 -1.94183 0
M  V30 368 O 30.449 0.611507 -2.0758 0
M  V30 369 C 31.044 -2.72903 -2.00772 0
M  V30 370 C 29.603 -2.77634 -2.54158 0
M  V30 371 C 28.75 -2.44241 -1.31307 0
M  V30 372 H 31.701 -1.55714 -0.306388 0
M  V30 373 H 31.722 -2.519 -2.85178 0
M  V30 374 H 31.234 -3.62077 -1.39721 0
M  V30 375 H 29.335 -1.92689 -3.18907 0
M  V30 376 H 29.448 -3.79283 -2.92714 0
M  V30 377 H 27.812 -1.95577 -1.63161 0
M  V30 378 H 28.595 -3.35666 -0.719943 0
M  V30 379 N 31.0401 0.771051 -1.3745 0
M  V30 380 C 32.2891 1.52491 -1.3202 0
M  V30 381 C 32.6021 1.9538 0.0927347 0
M  V30 382 O 33.8081 2.70159 0.269503 0
M  V30 383 C 32.2641 2.75366 -2.31736 0
M  V30 384 C 31.8721 2.39573 -3.78562 0
M  V30 385 C 33.6161 3.53307 -2.35318 0
M  V30 386 C 31.5231 3.58954 -4.70007 0
M  V30 387 H 30.4531 0.572506 -0.490666 0
M  V30 388 H 33.1041 0.844474 -1.62914 0
M  V30 389 H 31.4861 3.45303 -1.93861 0
M  V30 390 H 32.6601 1.77415 -4.25277 0
M  V30 391 H 30.9751 1.74805 -3.77932 0
M  V30 392 H 33.5721 4.42039 -3.00842 0
M  V30 393 H 33.9151 3.93217 -1.36698 0
M  V30 394 H 34.4481 2.90367 -2.71904 0
M  V30 395 H 31.1871 3.24125 -5.69757 0
M  V30 396 H 30.7071 4.20214 -4.27996 0
M  V30 397 H 32.3861 4.25758 -4.87175 0
M  V30 398 N 32.5182 1.22032 0.997298 0
M  V30 399 C 33.7462 1.06841 1.7718 0
M  V30 400 C 34.1612 -0.381325 1.84909 0
M  V30 401 O 33.5182 -1.26437 1.31605 0
M  V30 402 C 33.5692 1.66814 3.20711 0
M  V30 403 O 33.2902 3.06116 3.13408 0
M  V30 404 C 34.7912 1.56838 4.14628 0
M  V30 405 H 32.0112 0.374782 0.556578 0
M  V30 406 H 34.5552 1.61532 1.2541 0
M  V30 407 H 32.7102 1.16196 3.69564 0
M  V30 408 H 33.1242 3.34926 4.0364 0
M  V30 409 H 34.5982 2.03532 5.13107 0
M  V30 410 H 35.0752 0.524155 4.36061 0
M  V30 411 H 35.6812 2.06741 3.7167 0
M  V30 412 N 33.9963 -1.19345 1.0293 0
M  V30 413 C 34.9593 -2.20793 0.615069 0
M  V30 414 C 35.9593 -1.57553 -0.321533 0
M  V30 415 O 37.1493 -1.73862 -0.108483 0
M  V30 416 C 34.2813 -3.40754 -0.0999222 0
M  V30 417 H 35.4743 -2.58955 1.51269 0
M  V30 418 H 33.0273 -1.3303 0.820534 0
M  V30 419 H 33.7623 -3.0811 -1.01187 0
M  V30 420 H 33.5473 -3.87889 0.57309 0
M  V30 421 H 35.0373 -4.15898 -0.376645 0
M  V30 422 N 35.4744 -0.807222 -1.35358 0
M  V30 423 C 36.7234 -0.384376 -1.98004 0
M  V30 424 C 37.0364 1.0543 -1.64754 0
M  V30 425 O 38.2424 1.58029 -2.20769 0
M  V30 426 C 36.6984 -0.636326 -3.5423 0
M  V30 427 C 36.3064 -2.08759 -3.96388 0
M  V30 428 C 38.0504 -0.278869 -4.23583 0
M  V30 429 C 35.9574 -2.28525 -5.45463 0
M  V30 430 H 34.8874 -0.139986 -0.740891 0
M  V30 431 H 37.5384 -0.991369 -1.54415 0
M  V30 432 H 35.9204 0.0406256 -3.95979 0
M  V30 433 H 37.0944 -2.8024 -3.6579 0
M  V30 434 H 35.4094 -2.40497 -3.39926 0
M  V30 435 H 38.0064 -0.404599 -5.33167 0
M  V30 436 H 38.3494 0.775012 -4.09022 0
M  V30 437 H 38.8824 -0.909764 -3.87257 0
M  V30 438 H 35.6214 -3.32361 -5.64992 0
M  V30 439 H 35.1414 -1.61569 -5.77629 0
M  V30 440 H 36.8204 -2.10109 -6.11934 0
M  V30 441 N 36.9525 1.47285 -0.560781 0
M  V30 442 C 37.9155 2.28535 0.174488 0
M  V30 443 C 38.9155 1.37153 0.839388 0
M  V30 444 O 40.1055 1.59748 0.694702 0
M  V30 445 C 37.2375 3.16934 1.25561 0
M  V30 446 H 38.4305 2.95012 -0.539262 0
M  V30 447 H 35.9835 1.53034 -0.317865 0
M  V30 448 H 36.7185 2.55157 2.00164 0
M  V30 449 H 36.5035 3.8419 0.783604 0
M  V30 450 H 37.9935 3.78143 1.77193 0
M  V30 451 N 38.4306 0.297415 1.54768 0
M  V30 452 C 39.6556 -0.318435 2.04941 0
M  V30 453 C 40.0806 -1.4701 1.17345 0
M  V30 454 O 39.4386 -1.80436 0.176758 0
M  V30 455 C 39.4866 -0.755749 3.52592 0
M  V30 456 O 38.5906 -1.86088 3.68028 0
M  V30 457 H 37.9316 -0.062421 0.661059 0
M  V30 458 H 40.4616 0.438215 1.99852 0
M  V30 459 H 40.4716 -1.04552 3.94376 0
M  V30 460 H 39.1466 0.0867233 4.1581 0
M  V30 461 H 37.7236 -1.57193 3.38149 0
M  V30 462 N 39.9087 -1.5758 0.0250728 0
M  V30 463 C 41.1577 -1.90811 -0.653767 0
M  V30 464 C 41.4707 -0.90273 -1.73523 0
M  V30 465 O 42.6767 -1.12614 -2.47043 0
M  V30 466 C 41.1327 -3.38804 -1.21409 0
M  V30 467 C 40.7407 -4.47692 -0.166126 0
M  V30 468 C 42.4847 -3.81108 -1.86967 0
M  V30 469 C 40.3917 -5.86779 -0.737856 0
M  V30 470 H 39.3217 -0.712063 -0.247956 0
M  V30 471 H 41.9727 -1.83281 0.0897137 0
M  V30 472 H 40.3547 -3.41252 -2.00905 0
M  V30 473 H 41.5287 -4.56797 0.606079 0
M  V30 474 H 39.8437 -4.14565 0.390466 0
M  V30 475 H 42.4407 -4.82375 -2.30692 0
M  V30 476 H 42.7837 -3.15953 -2.71071 0
M  V30 477 H 43.3167 -3.81065 -1.14167 0
M  V30 478 H 40.0557 -6.55468 0.0649577 0
M  V30 479 H 39.5757 -5.81288 -1.47864 0
M  V30 480 H 41.2547 -6.35223 -1.22884 0
M  V30 481 N 41.3868 0.248026 -1.55636 0
M  V30 482 C 42.3168 1.31079 -1.93237 0
M  V30 483 C 43.2978 1.50264 -0.797174 0
M  V30 484 O 44.4828 1.62891 -1.05737 0
M  V30 485 C 41.6128 2.66575 -2.22609 0
M  V30 486 C 40.5668 2.62087 -3.3837 0
M  V30 487 C 39.8928 4.01369 -3.53281 0
M  V30 488 C 41.1928 2.19171 -4.7409 0
M  V30 489 H 42.8868 0.998556 -2.82257 0
M  V30 490 H 40.4328 0.47891 -1.35803 0
M  V30 491 H 42.3858 3.41057 -2.47503 0
M  V30 492 H 41.1098 2.99432 -1.30414 0
M  V30 493 H 39.7688 1.90063 -3.13483 0
M  V30 494 H 39.4168 4.31489 -2.58508 0
M  V30 495 H 39.1168 3.99254 -4.31127 0
M  V30 496 H 40.6408 4.77552 -3.80495 0
M  V30 497 H 42.0548 2.83384 -4.98363 0
M  V30 498 H 40.4518 2.2817 -5.5503 0
M  V30 499 H 41.5218 1.14336 -4.71227 0
M  V30 500 N 42.8649 1.48995 0.513639 0
M  V30 501 C 43.8149 1.61127 1.61314 0
M  V30 502 C 44.7989 0.467521 1.53958 0
M  V30 503 O 45.9909 0.719826 1.61702 0
M  V30 504 C 43.1199 1.66937 2.99978 0
M  V30 505 C 42.2059 2.86847 3.12377 0
M  V30 506 N 42.5969 4.11078 2.94701 0
M  V30 507 C 40.8949 2.84521 3.43459 0
M  V30 508 C 41.5959 4.91615 3.10949 0
M  V30 509 N 40.5719 4.24739 3.3926 0
M  V30 510 H 44.3739 2.54909 1.46282 0
M  V30 511 H 41.8879 1.45593 0.719483 0
M  V30 512 H 43.8849 1.73725 3.78979 0
M  V30 513 H 42.5449 0.742831 3.16089 0
M  V30 514 H 43.5559 4.41258 2.71131 0
M  V30 515 H 40.2329 2.01192 3.65825 0
M  V30 516 H 41.6229 6.00264 3.01882 0
M  V30 517 N 44.343 -0.763751 1.37857 0
M  V30 518 C 45.759 -1.06542 1.18832 0
M  V30 519 C 45.959 -2.01478 0.0299722 0
M  V30 520 O 45.015 -2.4458 -0.627447 0
M  V30 521 C 46.328 -1.65525 2.51042 0
M  V30 522 C 47.876 -1.77745 2.57635 0
M  V30 523 C 48.351 -2.4014 3.89996 0
M  V30 524 N 49.842 -2.47582 3.91481 0
M  V30 525 C 50.577 -2.96732 4.9065 0
M  V30 526 N 50.073 -3.45993 6.00217 0
M  V30 527 N 51.866 -2.95679 4.78048 0
M  V30 528 H 44.017 -0.133556 2.1198 0
M  V30 529 H 46.28 -0.121879 0.940133 0
M  V30 530 H 45.986 -1.03236 3.36207 0
M  V30 531 H 45.86 -2.64719 2.68707 0
M  V30 532 H 48.247 -2.39164 1.72872 0
M  V30 533 H 48.328 -0.772836 2.43846 0
M  V30 534 H 47.972 -1.79358 4.75177 0
M  V30 535 H 47.902 -3.41223 4.01092 0
M  V30 536 H 50.393 -2.1273 3.12337 0
M  V30 537 H 50.706 -3.81922 6.7183 0
M  V30 538 H 49.051 -3.44077 6.03851 0
M  V30 539 H 52.242 -2.56499 3.91568 0
M  V30 540 H 52.415 -3.33672 5.55488 0
M  V30 541 N 45.8211 -1.22559 -0.990812 0
M  V30 542 C 47.0671 -1.05297 -1.73322 0
M  V30 543 C 47.4001 0.410655 -1.89808 0
M  V30 544 O 46.6751 1.30439 -1.44277 0
M  V30 545 C 46.9581 -1.76713 -3.13759 0
M  V30 546 C 46.8111 -3.30684 -3.04907 0
M  V30 547 C 48.1301 -1.52121 -4.12974 0
M  V30 548 H 45.2491 -0.38392 -0.629106 0
M  V30 549 H 47.8911 -1.50926 -1.15418 0
M  V30 550 H 46.0411 -1.37924 -3.63193 0
M  V30 551 H 47.7131 -3.7893 -2.63077 0
M  V30 552 H 45.9561 -3.60253 -2.41661 0
M  V30 553 H 46.6271 -3.75833 -4.04294 0
M  V30 554 H 49.1031 -1.85819 -3.72304 0
M  V30 555 H 47.9791 -2.04582 -5.0935 0
M  V30 556 H 48.2401 -0.454257 -4.3976 0
M  V30 557 N 47.2992 1.18797 -1.03562 0
M  V30 558 C 48.5242 1.9314 -0.755764 0
M  V30 559 C 48.9492 1.7537 0.68022 0
M  V30 560 O 48.3072 1.06046 1.47051 0
M  V30 561 C 48.3552 3.42747 -1.12058 0
M  V30 562 O 47.4592 4.11683 -0.243124 0
M  V30 563 H 46.8002 0.602724 -0.278604 0
M  V30 564 H 49.3302 1.50678 -1.3841 0
M  V30 565 H 49.3402 3.93437 -1.08035 0
M  V30 566 H 48.0152 3.55002 -2.16672 0
M  V30 567 H 46.5922 3.71323 -0.342539 0
M  V30 568 N 48.7773 0.814389 1.34928 0
M  V30 569 C 50.0253 0.397636 1.9815 0
M  V30 570 C 50.3463 -1.04069 1.64908 0
M  V30 571 O 49.6163 -1.72121 0.93548 0
M  V30 572 H 48.1963 0.144043 0.732981 0
M  V30 573 H 50.8583 1.04195 1.6471 0
M  V30 574 H 49.9543 0.509688 3.0791 0
M  V30 575 N 50.2554 -1.46986 0.568584 0
M  V30 576 C 51.5014 -2.02741 0.0488709 0
M  V30 577 C 51.8344 -1.44077 -1.30214 0
M  V30 578 O 51.1094 -0.600552 -1.84996 0
M  V30 579 C 51.3924 -3.60086 -0.032047 0
M  V30 580 C 51.2454 -4.29162 1.34686 0
M  V30 581 C 52.5644 -4.33838 -0.739798 0
M  V30 582 H 49.6834 -0.736749 0.0192338 0
M  V30 583 H 52.3254 -1.75289 0.733065 0
M  V30 584 H 50.4754 -3.83606 -0.61473 0
M  V30 585 H 52.1474 -4.16948 1.97362 0
M  V30 586 H 50.3904 -3.89073 1.91846 0
M  V30 587 H 51.0614 -5.37826 1.24285 0
M  V30 588 H 53.5374 -4.15378 -0.244939 0
M  V30 589 H 52.4134 -5.43537 -0.765406 0
M  V30 590 H 52.6744 -4.03875 -1.79827 0
M  V30 591 N 51.7335 -0.305618 -1.54608 0
M  V30 592 C 52.9825 0.303098 -1.9941 0
M  V30 593 C 53.2955 1.54648 -1.19764 0
M  V30 594 O 54.5015 2.23007 -1.54855 0
M  V30 595 C 52.9575 0.590588 -3.55021 0
M  V30 596 C 52.5655 -0.634719 -4.43481 0
M  V30 597 C 54.3095 1.16025 -4.08336 0
M  V30 598 C 52.2165 -0.320126 -5.90533 0
M  V30 599 H 51.1465 0.117031 -0.744862 0
M  V30 600 H 53.7975 -0.415045 -1.78745 0
M  V30 601 H 52.1795 1.36845 -3.71604 0
M  V30 602 H 53.3535 -1.41079 -4.38672 0
M  V30 603 H 51.6685 -1.12333 -4.00962 0
M  V30 604 H 54.2655 1.40994 -5.15776 0
M  V30 605 H 54.6085 2.10397 -3.5922 0
M  V30 606 H 55.1415 0.443985 -3.95315 0
M  V30 607 H 51.8805 -1.23254 -6.43808 0
M  V30 608 H 51.4005 0.418579 -5.98338 0
M  V30 609 H 53.0795 0.0766241 -6.46955 0
M  V30 610 N 53.2116 1.57565 -0.0334293 0
M  V30 611 C 54.4396 1.9628 0.654347 0
M  V30 612 C 54.8546 0.910138 1.65414 0
M  V30 613 O 54.2116 -0.107595 1.82183 0
M  V30 614 C 54.2626 3.35067 1.35693 0
M  V30 615 O 53.9836 4.36296 0.397191 0
M  V30 616 C 55.4846 3.88439 2.13613 0
M  V30 617 H 52.7046 0.646369 0.180132 0
M  V30 618 H 55.2486 2.04282 -0.0944721 0
M  V30 619 H 53.4036 3.2827 2.05712 0
M  V30 620 H 53.8176 5.1678 0.896597 0
M  V30 621 H 55.2916 4.8788 2.58219 0
M  V30 622 H 55.7686 3.22914 2.97696 0
M  V30 623 H 56.3746 3.98516 1.48543 0
M  V30 624 N 54.6897 -0.239769 1.55765 0
M  V30 625 C 55.9367 -0.966801 1.7793 0
M  V30 626 C 56.2647 -1.85046 0.599015 0
M  V30 627 O 55.5197 -1.91197 -0.417395 0
M  V30 628 C 55.8187 -1.852 3.05672 0
M  V30 629 C 55.4847 -1.1231 4.36689 0
M  V30 630 C 54.1467 -0.921689 4.72291 0
M  V30 631 C 56.4987 -0.607019 5.17653 0
M  V30 632 C 53.8267 -0.191996 5.86386 0
M  V30 633 C 56.1787 0.109241 6.32506 0
M  V30 634 C 54.8427 0.322073 6.66723 0
M  V30 635 H 54.1127 -0.353778 0.651093 0
M  V30 636 H 56.7597 -0.23634 1.90036 0
M  V30 637 H 55.0647 -2.64975 2.8861 0
M  V30 638 H 56.7617 -2.41635 3.20021 0
M  V30 639 H 53.3517 -1.29004 4.08725 0
M  V30 640 H 57.5357 -0.750153 4.90598 0
M  V30 641 H 52.7917 -0.0166949 6.11398 0
M  V30 642 H 56.9657 0.516737 6.9448 0
M  V30 643 H 54.5927 0.88944 7.54979 0
M  V30 644 N 56.1678 -1.49265 -0.50573 0
M  V30 645 C 57.4138 -1.58748 -1.26202 0
M  V30 646 C 57.7468 -0.271227 -1.92297 0
M  V30 647 O 57.0218 0.724831 -1.80489 0
M  V30 648 C 57.3048 -2.74332 -2.33268 0
M  V30 649 C 57.1578 -4.15737 -1.71705 0
M  V30 650 C 58.4768 -2.85576 -3.34865 0
M  V30 651 H 55.5958 -0.577826 -0.457478 0
M  V30 652 H 58.2378 -1.81532 -0.560897 0
M  V30 653 H 56.3878 -2.55036 -2.93068 0
M  V30 654 H 58.0598 -4.46537 -1.15769 0
M  V30 655 H 56.3028 -4.21605 -1.02135 0
M  V30 656 H 56.9738 -4.92477 -2.49341 0
M  V30 657 H 59.4498 -3.03127 -2.8505 0
M  V30 658 H 58.3258 -3.68135 -4.07146 0
M  V30 659 H 58.5868 -1.94732 -3.96903 0
M  V30 660 N 57.6459 0.756429 -1.3826 0
M  V30 661 C 58.6089 1.85176 -1.35065 0
M  V30 662 C 59.6089 1.58818 -0.251703 0
M  V30 663 O 60.7989 1.66615 -0.508433 0
M  V30 664 C 57.9309 3.22596 -1.10201 0
M  V30 665 H 59.1239 1.89417 -2.3251 0
M  V30 666 H 56.6769 0.95783 -1.23512 0
M  V30 667 H 57.4119 3.24025 -0.133504 0
M  V30 668 H 57.1969 3.43122 -1.89762 0
M  V30 669 H 58.6869 4.02673 -1.10654 0
M  V30 670 N 59.124 1.23083 0.984299 0
M  V30 671 C 60.37 1.06214 1.72761 0
M  V30 672 C 60.703 -0.400584 1.90024 0
M  V30 673 O 59.978 -1.29672 1.44967 0
M  V30 674 C 60.261 1.78375 3.12817 0
M  V30 675 C 60.114 3.32296 3.03149 0
M  V30 676 C 61.433 1.54309 4.12161 0
M  V30 677 H 58.552 0.387251 0.627061 0
M  V30 678 H 61.194 1.51536 1.14616 0
M  V30 679 H 59.344 1.39848 3.62457 0
M  V30 680 H 61.016 3.8032 2.61064 0
M  V30 681 H 59.259 3.6153 2.39747 0
M  V30 682 H 59.93 3.77972 4.02295 0
M  V30 683 H 62.406 1.87791 3.71314 0
M  V30 684 H 61.282 2.07281 5.08258 0
M  V30 685 H 61.543 0.477572 4.39513 0
M  V30 686 N 60.6021 -1.18246 1.0419 0
M  V30 687 C 61.8501 -1.87886 0.744543 0
M  V30 688 C 62.1711 -1.8082 -0.730006 0
M  V30 689 O 61.4411 -1.22736 -1.52685 0
M  V30 690 H 60.0211 -0.695556 0.272417 0
M  V30 691 H 62.6831 -1.43494 1.31892 0
M  V30 692 H 61.7791 -2.9389 1.05049 0
M  V30 693 N 62.0802 -0.821533 -1.34494 0
M  V30 694 C 63.3292 -0.405355 -1.97585 0
M  V30 695 C 63.6422 1.03677 -1.65863 0
M  V30 696 O 64.8482 1.55679 -2.22433 0
M  V30 697 C 63.3042 -0.673861 -3.53535 0
M  V30 698 C 62.9122 -2.12951 -3.94152 0
M  V30 699 C 64.6562 -0.32378 -4.23263 0
M  V30 700 C 62.5632 -2.34298 -5.43009 0
M  V30 701 H 61.4932 -0.147836 -0.739365 0
M  V30 702 H 64.1442 -1.00769 -1.53355 0
M  V30 703 H 62.5262 -0.00137554 -3.96 0
M  V30 704 H 63.7002 -2.84104 -3.62797 0
M  V30 705 H 62.0152 -2.44089 -3.37356 0
M  V30 706 H 64.6122 -0.461126 -5.32708 0
M  V30 707 H 64.9552 0.731586 -4.09821 0
M  V30 708 H 65.4882 -0.950786 -3.8627 0
M  V30 709 H 62.2272 -3.38335 -5.61435 0
M  V30 710 H 61.7472 -1.67687 -5.75883 0
M  V30 711 H 63.4262 -2.16588 -6.09671 0
M  V30 712 N 63.5583 1.46682 -0.576371 0
M  V30 713 C 64.4883 2.33028 0.148397 0
M  V30 714 C 65.4693 1.44961 0.889956 0
M  V30 715 O 66.6543 1.73789 0.866662 0
M  V30 716 C 63.7843 3.27117 1.1667 0
M  V30 717 C 62.7383 4.24575 0.540386 0
M  V30 718 C 62.0643 5.08126 1.6647 0
M  V30 719 C 63.3643 5.19722 -0.518331 0
M  V30 720 H 65.0583 2.93875 -0.572509 0
M  V30 721 H 62.6043 1.41315 -0.276768 0
M  V30 722 H 64.5573 3.86374 1.68204 0
M  V30 723 H 63.2813 2.64364 1.9178 0
M  V30 724 H 61.9403 3.66571 0.0461769 0
M  V30 725 H 61.5883 4.41762 2.40531 0
M  V30 726 H 61.2883 5.74122 1.25131 0
M  V30 727 H 62.8123 5.70246 2.18293 0
M  V30 728 H 64.2263 5.73232 -0.0883058 0
M  V30 729 H 62.6233 5.94026 -0.851679 0
M  V30 730 H 63.6933 4.64037 -1.40703 0
M  V30 731 N 65.0364 0.313813 1.54444 0
M  V30 732 C 65.9664 -0.549454 2.26943 0
M  V30 733 C 66.9474 -1.12741 1.27372 0
M  V30 734 O 68.1324 -1.15436 1.56167 0
M  V30 735 C 65.2624 -1.71523 3.01989 0
M  V30 736 C 64.2164 -1.26703 4.08816 0
M  V30 737 C 63.5424 -2.51898 4.71647 0
M  V30 738 C 64.8424 -0.388962 5.2085 0
M  V30 739 H 66.5364 0.0552661 2.99349 0
M  V30 740 H 64.0824 0.0280207 1.43973 0
M  V30 741 H 66.0354 -2.32535 3.51433 0
M  V30 742 H 64.7594 -2.34639 2.27183 0
M  V30 743 H 63.4184 -0.679896 3.6024 0
M  V30 744 H 63.0664 -3.13356 3.93468 0
M  V30 745 H 62.7664 -2.22605 5.43802 0
M  V30 746 H 64.2904 -3.1369 5.23861 0
M  V30 747 H 65.7044 -0.905107 5.6611 0
M  V30 748 H 64.1014 -0.18924 5.99802 0
M  V30 749 H 65.1714 0.582699 4.81386 0
M  V30 750 N 66.5145 -1.57545 0.0417849 0
M  V30 751 C 67.7605 -1.93424 -0.629168 0
M  V30 752 C 68.1155 -0.919564 -1.69002 0
M  V30 753 O 67.4085 0.0626178 -1.91498 0
M  V30 754 C 67.6025 -3.33794 -1.27735 0
M  V30 755 C 67.4315 -4.48822 -0.280806 0
M  V30 756 C 66.2015 -5.05148 0.123869 0
M  V30 757 C 68.3995 -5.12148 0.470012 0
M  V30 758 N 66.3815 -6.03703 1.11426 0
M  V30 759 C 67.7525 -6.05921 1.31377 0
M  V30 760 C 69.8075 -4.95078 0.529343 0
M  V30 761 C 68.5105 -6.84459 2.21152 0
M  V30 762 C 70.5365 -5.74235 1.41448 0
M  V30 763 C 69.8985 -6.67634 2.24598 0
M  V30 764 H 65.9975 -0.755418 -0.202158 0
M  V30 765 H 68.5815 -1.94378 0.111923 0
M  V30 766 H 66.7525 -3.33635 -1.98852 0
M  V30 767 H 68.4845 -3.56988 -1.90635 0
M  V30 768 H 65.2395 -4.72923 -0.253178 0
M  V30 769 H 65.6635 -6.57674 1.60607 0
M  V30 770 H 70.3055 -4.22683 -0.0992798 0
M  V30 771 H 68.0235 -7.56151 2.85063 0
M  V30 772 H 71.6095 -5.63057 1.46484 0
M  V30 773 H 70.4895 -7.27817 2.9198 0
M  V30 774 N 67.9926 0.231505 -1.5589 0
M  V30 775 C 68.9226 1.29022 -1.94617 0
M  V30 776 C 69.9036 1.4941 -0.813067 0
M  V30 777 O 71.0886 1.6176 -1.07459 0
M  V30 778 C 68.2186 2.64199 -2.25424 0
M  V30 779 C 67.1726 2.58484 -3.41131 0
M  V30 780 C 66.4986 3.97599 -3.57518 0
M  V30 781 C 67.7986 2.1413 -4.76388 0
M  V30 782 H 69.4926 0.968563 -2.83301 0
M  V30 783 H 67.0386 0.464479 -1.36303 0
M  V30 784 H 68.9916 3.38413 -2.51107 0
M  V30 785 H 67.7156 2.98032 -1.33583 0
M  V30 786 H 66.3746 1.86727 -3.15481 0
M  V30 787 H 66.0226 4.28723 -2.6307 0
M  V30 788 H 65.7226 3.94659 -4.35337 0
M  V30 789 H 67.2466 4.7349 -3.85538 0
M  V30 790 H 68.6606 2.78083 -5.01341 0
M  V30 791 H 67.0576 2.2227 -5.57419 0
M  V30 792 H 68.1276 1.09331 -4.72414 0
M  V30 793 N 69.4707 1.49531 0.497807 0
M  V30 794 C 70.4007 1.6935 1.60757 0
M  V30 795 C 71.3817 0.542218 1.61227 0
M  V30 796 O 72.5667 0.778417 1.77917 0
M  V30 797 C 69.6967 1.76298 2.99226 0
M  V30 798 C 68.6507 2.91248 3.13622 0
M  V30 799 C 67.9767 2.83312 4.53474 0
M  V30 800 C 69.2767 4.3214 2.93346 0
M  V30 801 H 70.9707 2.62263 1.44425 0
M  V30 802 H 68.5167 1.26208 0.693367 0
M  V30 803 H 70.4697 1.88749 3.76765 0
M  V30 804 H 69.1937 0.799871 3.16654 0
M  V30 805 H 67.8527 2.78404 2.38509 0
M  V30 806 H 67.5007 1.84902 4.67782 0
M  V30 807 H 67.2007 3.60465 4.64046 0
M  V30 808 H 68.7247 2.97775 5.33069 0
M  V30 809 H 70.1387 4.45649 3.60652 0
M  V30 810 H 68.5357 5.1054 3.15387 0
M  V30 811 H 69.6057 4.46363 1.89441 0
M  V30 812 N 70.9488 -0.749086 1.3866 0
M  V30 813 C 72.1968 -1.50535 1.34847 0
M  V30 814 C 72.5178 -1.94909 -0.0595016 0
M  V30 815 O 71.7878 -1.67973 -1.00806 0
M  V30 816 H 70.3678 -0.558395 0.49619 0
M  V30 817 H 73.0298 -0.890165 1.73384 0
M  V30 818 H 72.1258 -2.39413 2.00219 0
M  V30 819 N 72.4269 -1.23603 -0.977757 0
M  V30 820 C 73.6549 -1.09646 -1.75458 0
M  V30 821 C 74.0699 0.351859 -1.85492 0
M  V30 822 O 73.4269 1.24327 -1.336 0
M  V30 823 C 73.4779 -1.71895 -3.18016 0
M  V30 824 O 73.1989 -3.11063 -3.08498 0
M  V30 825 C 74.6999 -1.63415 -4.12081 0
M  V30 826 H 71.9199 -0.38359 -0.550545 0
M  V30 827 H 74.4639 -1.63507 -1.22824 0
M  V30 828 H 72.6189 -1.22061 -3.67668 0
M  V30 829 H 73.0329 -3.41305 -3.9826 0
M  V30 830 H 74.5069 -2.11669 -5.09804 0
M  V30 831 H 74.9839 -0.593462 -4.35172 0
M  V30 832 H 75.5899 -2.12628 -3.68334 0
M  V30 833 N 73.905 1.17692 -1.04816 0
M  V30 834 C 75.13 1.92327 -0.776207 0
M  V30 835 C 75.555 1.76082 0.661581 0
M  V30 836 O 74.913 1.076 1.45917 0
M  V30 837 C 74.961 3.41539 -1.15687 0
M  V30 838 O 74.065 4.11402 -0.286775 0
M  V30 839 H 73.406 0.599735 -0.284981 0
M  V30 840 H 75.936 1.49201 -1.4 0
M  V30 841 H 75.946 3.92269 -1.12202 0
M  V30 842 H 74.621 3.52684 -2.20425 0
M  V30 843 H 73.198 3.70939 -0.381903 0
M  V30 844 N 75.3831 0.828654 1.34056 0
M  V30 845 C 76.3131 0.269443 2.3194 0
M  V30 846 C 77.2941 -0.617247 1.58506 0
M  V30 847 O 78.4791 -0.542931 1.86456 0
M  V30 848 C 75.6091 -0.564793 3.42677 0
M  V30 849 C 74.5631 0.225241 4.27407 0
M  V30 850 C 73.8891 -0.7321 5.29664 0
M  V30 851 C 75.1891 1.43663 5.02154 0
M  V30 852 H 76.8831 1.08728 2.7896 0
M  V30 853 H 74.4291 0.524283 1.34117 0
M  V30 854 H 76.3821 -0.966233 4.10173 0
M  V30 855 H 75.1061 -1.41574 2.9432 0
M  V30 856 H 73.7651 0.608117 3.61521 0
M  V30 857 H 73.4131 -1.57916 4.77568 0
M  V30 858 H 73.1131 -0.20767 5.87233 0
M  V30 859 H 74.6371 -1.13128 6.00029 0
M  V30 860 H 76.0511 1.1089 5.62473 0
M  V30 861 H 74.4481 1.89711 5.69324 0
M  V30 862 H 75.5181 2.21181 4.31517 0
M  V30 863 N 76.8612 -1.46375 0.584142 0
M  V30 864 C 78.0862 -2.07268 0.0740405 0
M  V30 865 C 78.5112 -1.42979 -1.22223 0
M  V30 866 O 77.8692 -0.514092 -1.73859 0
M  V30 867 C 77.9172 -3.60518 -0.0767769 0
M  V30 868 O 77.0212 -3.96533 -1.13292 0
M  V30 869 H 76.3622 -0.660961 0.0634524 0
M  V30 870 H 78.8922 -1.87991 0.807492 0
M  V30 871 H 78.9022 -4.07021 -0.282489 0
M  V30 872 H 77.5772 -4.06702 0.86986 0
M  V30 873 H 76.1542 -3.61738 -0.905553 0
M  V30 874 N 78.3393 -0.321999 -1.54275 0
M  V30 875 C 79.5643 0.285791 -2.05422 0
M  V30 876 C 79.9893 1.45124 -1.19669 0
M  V30 877 O 79.3473 1.80132 -0.205441 0
M  V30 878 C 79.3953 0.69956 -3.53749 0
M  V30 879 O 78.4993 1.8021 -3.70942 0
M  V30 880 H 77.8403 0.0518962 -0.661969 0
M  V30 881 H 80.3703 -0.469954 -1.9913 0
M  V30 882 H 80.3803 0.982649 -3.9599 0
M  V30 883 H 79.0553 -0.152864 -4.15619 0
M  V30 884 H 77.6323 1.51794 -3.40607 0
M  V30 885 N 79.8174 1.5752 -0.0501392 0
M  V30 886 C 81.2284 1.80271 0.485705 0
M  V30 887 C 81.5794 0.96228 1.70981 0
M  V30 888 O 80.7044 0.178578 2.15662 0
M  V30 889 C 81.2994 3.26957 0.887938 0
M  V30 890 C 79.8584 3.5063 1.36877 0
M  V30 891 C 79.0054 2.75165 0.343468 0
M  V30 892 H 81.9564 1.56281 -0.276028 0
M  V30 893 H 81.9774 3.37821 1.75093 0
M  V30 894 H 81.4894 3.881 -0.0031809 0
M  V30 895 H 79.5904 2.94766 2.27911 0
M  V30 896 H 79.7034 4.59343 1.36164 0
M  V30 897 H 78.0674 2.4127 0.816128 0
M  V30 898 H 78.8504 3.39034 -0.539548 0
M  V30 899 N 81.2955 -0.223234 1.56011 0
M  V30 900 C 82.2055 -1.29766 1.95443 0
M  V30 901 C 83.2215 -1.51373 0.858028 0
M  V30 902 O 84.3975 -1.64536 1.16146 0
M  V30 903 C 81.4625 -2.62772 2.26167 0
M  V30 904 C 80.5235 -2.49482 3.49367 0
M  V30 905 C 79.7565 -3.76145 3.78616 0
M  V30 906 O 79.9795 -4.79087 3.09568 0
M  V30 907 O 78.9135 -3.73358 4.72109 0
M  V30 908 H 82.7395 -0.99309 2.87004 0
M  V30 909 H 80.3245 -0.425958 1.43199 0
M  V30 910 H 82.2065 -3.41327 2.47131 0
M  V30 911 H 80.8815 -2.92913 1.37781 0
M  V30 912 H 79.7885 -1.69133 3.33684 0
M  V30 913 H 81.1215 -2.2428 4.38131 0
M  V30 914 N 82.7736 -1.49793 -0.48987 0
M  V30 915 C 84.0216 -1.59525 -1.24081 0
M  V30 916 C 84.3426 -0.288953 -1.92847 0
M  V30 917 O 83.6126 0.692436 -1.83254 0
M  V30 918 H 82.1926 -0.587796 -0.460983 0
M  V30 919 H 84.8546 -1.86477 -0.566778 0
M  V30 920 H 83.9506 -2.39696 -1.99881 0
M  V30 921 N 84.2517 0.741722 -1.39055 0
M  V30 922 C 85.4987 1.50114 -1.35912 0
M  V30 923 C 85.8267 1.94443 0.0470937 0
M  V30 924 O 85.0817 1.66612 1.02659 0
M  V30 925 C 85.3807 2.7592 -2.27163 0
M  V30 926 C 85.0467 2.50493 -3.74919 0
M  V30 927 C 83.7087 2.43267 -4.1518 0
M  V30 928 C 86.0607 2.28585 -4.684 0
M  V30 929 C 83.3887 2.12166 -5.46994 0
M  V30 930 C 85.7407 1.99002 -6.00484 0
M  V30 931 C 84.4047 1.90241 -6.39816 0
M  V30 932 H 83.6747 0.549306 -0.497336 0
M  V30 933 H 86.3217 0.851896 -1.71508 0
M  V30 934 H 84.6267 3.45553 -1.84663 0
M  V30 935 H 86.3237 3.33923 -2.22028 0
M  V30 936 H 82.9137 2.56992 -3.43006 0
M  V30 937 H 87.0977 2.33139 -4.38132 0
M  V30 938 H 82.3537 2.03901 -5.76398 0
M  V30 939 H 86.5277 1.81057 -6.72452 0
M  V30 940 H 84.1547 1.65907 -7.41875 0
M  V30 941 N 85.7298 1.2412 0.971189 0
M  V30 942 C 86.6398 1.04747 2.09917 0
M  V30 943 C 87.6558 -0.0107162 1.73997 0
M  V30 944 O 88.8318 0.186714 2.00533 0
M  V30 945 C 85.8968 0.650828 3.40537 0
M  V30 946 C 84.9578 1.7851 3.90426 0
M  V30 947 C 84.1908 1.40729 5.14812 0
M  V30 948 O 84.4138 0.29557 5.69634 0
M  V30 949 O 83.3478 2.23168 5.58999 0
M  V30 950 H 87.1738 1.99304 2.29154 0
M  V30 951 H 84.7588 1.02908 1.08307 0
M  V30 952 H 86.6408 0.440992 4.19086 0
M  V30 953 H 85.3158 -0.265649 3.22608 0
M  V30 954 H 84.2228 2.04966 3.12953 0
M  V30 955 H 85.5558 2.68023 4.12825 0
M  V30 956 N 87.2079 -1.17134 1.05439 0
M  V30 957 C 88.1399 -2.2078 0.615539 0
M  V30 958 C 89.1529 -1.59584 -0.322001 0
M  V30 959 O 90.3419 -1.78133 -0.114344 0
M  V30 960 C 87.4419 -3.38691 -0.118938 0
M  V30 961 C 86.6149 -4.29454 0.829924 0
M  V30 962 C 85.6739 -5.26024 0.136258 0
M  V30 963 O 84.6999 -5.63952 0.77115 0
M  V30 964 N 85.9019 -5.69487 -1.1254 0
M  V30 965 H 88.6669 -2.59052 1.50705 0
M  V30 966 H 86.2279 -1.32058 0.936603 0
M  V30 967 H 88.2199 -4.00329 -0.593179 0
M  V30 968 H 86.7899 -2.98996 -0.91215 0
M  V30 969 H 86.0099 -3.65211 1.48373 0
M  V30 970 H 87.2979 -4.86984 1.47392 0
M  V30 971 H 86.6959 -5.4075 -1.6615 0
M  V30 972 H 85.2529 -6.33257 -1.54366 0
M  V30 973 N 88.686 -0.835752 -1.33615 0
M  V30 974 C 89.649 -0.272 -2.2758 0
M  V30 975 C 90.649 0.557487 -1.50827 0
M  V30 976 O 91.839 0.37173 -1.70188 0
M  V30 977 C 88.971 0.617173 -3.35267 0
M  V30 978 H 90.164 -1.10111 -2.78954 0
M  V30 979 H 87.717 -0.608594 -1.43965 0
M  V30 980 H 88.452 1.46884 -2.89129 0
M  V30 981 H 88.237 0.0237066 -3.92093 0
M  V30 982 H 89.727 1.005 -4.05326 0
M  V30 983 N 90.1641 1.46063 -0.591896 0
M  V30 984 C 91.3891 2.07226 -0.0850314 0
M  V30 985 C 91.8141 1.43625 1.21463 0
M  V30 986 O 91.1721 0.523305 1.73583 0
M  V30 987 C 91.2201 3.60554 0.0576567 0
M  V30 988 O 90.3241 3.97128 1.11188 0
M  V30 989 H 89.6651 0.660615 -0.0669568 0
M  V30 990 H 92.1951 1.8756 -0.81745 0
M  V30 991 H 92.2051 4.07165 0.2609 0
M  V30 992 H 90.8801 4.06235 -0.891416 0
M  V30 993 H 89.4571 3.62213 0.886356 0
M  V30 994 N 91.6422 0.330177 1.54103 0
M  V30 995 C 92.6052 -0.520144 2.2322 0
M  V30 996 C 93.6052 -1.03828 1.22786 0
M  V30 997 O 94.7952 -0.929652 1.4732 0
M  V30 998 C 91.9272 -1.72317 2.94142 0
M  V30 999 H 93.1202 0.0841605 2.99782 0
M  V30 1000 H 90.6732 0.0813433 1.56088 0
M  V30 1001 H 91.4082 -2.36653 2.21734 0
M  V30 1002 H 91.1932 -1.35898 3.67796 0
M  V30 1003 H 92.6832 -2.3266 3.46784 0
M  V30 1004 N 93.1203 -1.57491 0.0584922 0
M  V30 1005 C 94.3693 -1.92155 -0.613146 0
M  V30 1006 C 94.6823 -0.939334 -1.71569 0
M  V30 1007 O 95.8883 -1.17829 -2.44599 0
M  V30 1008 C 94.3443 -3.41303 -1.14195 0
M  V30 1009 C 93.9523 -4.47944 -0.0711265 0
M  V30 1010 C 95.6963 -3.84988 -1.78841 0
M  V30 1011 C 93.6033 -5.88212 -0.613225 0
M  V30 1012 H 92.5333 -0.717162 -0.232796 0
M  V30 1013 H 95.1843 -1.83049 0.12857 0
M  V30 1014 H 93.5663 -3.45437 -1.93621 0
M  V30 1015 H 94.7403 -4.55408 0.702836 0
M  V30 1016 H 93.0553 -4.13644 0.478313 0
M  V30 1017 H 95.6523 -4.87159 -2.20408 0
M  V30 1018 H 95.9953 -3.21632 -2.64308 0
M  V30 1019 H 96.5283 -3.83401 -1.06059 0
M  V30 1020 H 93.2673 -6.55183 0.203978 0
M  V30 1021 H 92.7873 -5.84294 -1.35501 0
M  V30 1022 H 94.4663 -6.37687 -1.09383 0
M  V30 1023 N 94.5984 0.214957 -1.56127 0
M  V30 1024 C 95.5314 1.29382 -1.87977 0
M  V30 1025 C 96.5094 1.44897 -0.737807 0
M  V30 1026 O 97.6934 1.60605 -0.986833 0
M  V30 1027 C 94.8204 2.66325 -2.09258 0
M  V30 1028 C 93.8664 2.67789 -3.31951 0
M  V30 1029 S 94.6994 2.21198 -4.8768 0
M  V30 1030 C 95.8554 3.60003 -5.12004 0
M  V30 1031 H 96.0884 1.02173 -2.79192 0
M  V30 1032 H 93.6214 0.417516 -1.48648 0
M  V30 1033 H 95.5794 3.45162 -2.22201 0
M  V30 1034 H 94.2404 2.90755 -1.18829 0
M  V30 1035 H 93.4334 3.68436 -3.43906 0
M  V30 1036 H 93.0354 1.9702 -3.17898 0
M  V30 1037 H 95.3274 4.55739 -5.01307 0
M  V30 1038 H 96.2704 3.52959 -6.13861 0
M  V30 1039 H 96.6784 3.53996 -4.39712 0
M  V30 1040 N 96.0765 1.50051 0.48192 0
M  V30 1041 C 97.3245 1.60181 1.23234 0
M  V30 1042 C 97.6455 0.299176 1.92691 0
M  V30 1043 O 96.9155 -0.682708 1.83619 0
M  V30 1044 H 95.4955 0.590232 0.457859 0
M  V30 1045 H 98.1575 1.86775 0.556881 0
M  V30 1046 H 97.2535 2.40753 1.98607 0
M  V30 1047 N 97.5546 -0.734337 1.39446 0
M  V30 1048 C 98.7796 -1.52866 1.40167 0
M  V30 1049 C 99.2046 -1.881 -0.00171513 0
M  V30 1050 O 98.5626 -1.51957 -0.988879 0
M  V30 1051 C 98.6106 -2.79235 2.28167 0
M  V30 1052 O 97.7146 -3.75185 1.71201 0
M  V30 1053 H 97.0556 -0.461618 0.477289 0
M  V30 1054 H 99.5856 -0.905949 1.8345 0
M  V30 1055 H 99.5956 -3.27963 2.42702 0
M  V30 1056 H 98.2706 -2.52923 3.30156 0
M  V30 1057 H 96.8476 -3.33958 1.65912 0
M  V30 1058 N 99.0327 -1.24633 -0.964593 0
M  V30 1059 C 100.28 -1.08788 -1.70796 0
M  V30 1060 C 100.608 0.372783 -1.90894 0
M  V30 1061 O 99.8627 1.29167 -1.47018 0
M  V30 1062 C 100.162 -1.7763 -3.10133 0
M  V30 1063 C 99.8277 -3.27557 -3.09866 0
M  V30 1064 C 98.4897 -3.6846 -3.09501 0
M  V30 1065 C 100.842 -4.23389 -3.03959 0
M  V30 1066 C 98.1697 -5.03624 -3.00965 0
M  V30 1067 C 100.522 -5.58565 -2.96965 0
M  V30 1068 C 99.1857 -5.98809 -2.9493 0
M  V30 1069 H 98.4557 -0.398084 -0.624988 0
M  V30 1070 H 101.103 -1.54777 -1.12767 0
M  V30 1071 H 99.4077 -1.24044 -3.71645 0
M  V30 1072 H 101.105 -1.62832 -3.66451 0
M  V30 1073 H 97.6947 -2.95006 -3.10917 0
M  V30 1074 H 101.879 -3.92787 -3.03368 0
M  V30 1075 H 97.1347 -5.33998 -2.97752 0
M  V30 1076 H 101.309 -6.32523 -2.91354 0
M  V30 1077 H 98.9357 -7.03505 -2.88071 0
M  V30 1078 N 100.511 1.16574 -1.06058 0
M  V30 1079 C 101.758 1.87047 -0.775873 0
M  V30 1080 C 102.086 1.81562 0.697534 0
M  V30 1081 O 101.341 1.22445 1.52662 0
M  V30 1082 C 101.64 3.36195 -1.21275 0
M  V30 1083 C 101.306 3.6188 -2.68986 0
M  V30 1084 C 99.9678 3.68599 -3.09335 0
M  V30 1085 C 102.32 3.72648 -3.64394 0
M  V30 1086 C 99.6478 3.83584 -4.43937 0
M  V30 1087 C 102 3.89154 -4.98741 0
M  V30 1088 C 100.664 3.94114 -5.3873 0
M  V30 1089 H 99.9338 0.684452 -0.283912 0
M  V30 1090 H 102.581 1.37853 -1.32925 0
M  V30 1091 H 100.886 3.87505 -0.578528 0
M  V30 1092 H 102.583 3.89103 -0.969542 0
M  V30 1093 H 99.1728 3.57281 -2.36744 0
M  V30 1094 H 103.357 3.66769 -3.34356 0
M  V30 1095 H 98.6128 3.85677 -4.74409 0
M  V30 1096 H 102.787 3.96427 -5.72554 0
M  V30 1097 H 100.414 4.05478 -6.43033 0
M  V30 1098 N 101.989 0.842826 1.3317 0
M  V30 1099 C 103.235 0.441099 1.97945 0
M  V30 1100 C 103.568 -0.998024 1.66593 0
M  V30 1101 O 102.843 -1.69839 0.947898 0
M  V30 1102 C 103.126 0.666841 3.53872 0
M  V30 1103 C 102.979 2.15352 3.94897 0
M  V30 1104 C 104.298 0.115544 4.39948 0
M  V30 1105 H 101.417 0.161739 0.719034 0
M  V30 1106 H 104.059 1.05907 1.57746 0
M  V30 1107 H 102.209 0.140828 3.88245 0
M  V30 1108 H 103.881 2.7447 3.70761 0
M  V30 1109 H 102.124 2.63653 3.44484 0
M  V30 1110 H 102.795 2.26221 5.03516 0
M  V30 1111 H 105.271 0.565213 4.12243 0
M  V30 1112 H 104.147 0.303152 5.48062 0
M  V30 1113 H 104.408 -0.980935 4.3108 0
M  V30 1114 N 103.467 -1.45747 0.599634 0
M  V30 1115 C 104.414 -2.30467 -0.123849 0
M  V30 1116 C 105.384 -1.41632 -0.86774 0
M  V30 1117 O 106.569 -1.70568 -0.855056 0
M  V30 1118 C 103.709 -3.26402 -1.12051 0
M  V30 1119 C 102.822 -4.3034 -0.37832 0
M  V30 1120 C 101.957 -5.13389 -1.364 0
M  V30 1121 C 100.996 -6.09061 -0.609171 0
M  V30 1122 N 100.133 -6.84918 -1.54374 0
M  V30 1123 H 104.973 -2.91802 0.604627 0
M  V30 1124 H 102.51 -1.43797 0.309972 0
M  V30 1125 H 104.468 -3.80482 -1.7114 0
M  V30 1126 H 103.098 -2.66839 -1.8165 0
M  V30 1127 H 102.15 -3.78984 0.327929 0
M  V30 1128 H 103.462 -4.98354 0.210997 0
M  V30 1129 H 102.616 -5.7183 -2.02719 0
M  V30 1130 H 101.355 -4.45376 -1.98725 0
M  V30 1131 H 100.36 -5.49758 0.0676979 0
M  V30 1132 H 101.585 -6.79099 0.00891991 0
M  V30 1133 H 99.531 -6.19601 -2.15478 0
M  V30 1134 H 99.448 -7.49254 -1.00766 0
M  V30 1135 H 100.716 -7.47906 -2.19676 0
M  V30 1136 N 104.945 -0.338344 -1.53925 0
M  V30 1137 C 106.192 0.259758 -2.00827 0
M  V30 1138 C 106.52 1.50973 -1.22628 0
M  V30 1139 O 105.775 1.93379 -0.300509 0
M  V30 1140 C 106.074 0.62448 -3.51902 0
M  V30 1141 C 105.74 -0.528006 -4.47798 0
M  V30 1142 C 104.402 -0.844298 -4.73735 0
M  V30 1143 C 106.754 -1.30143 -5.0469 0
M  V30 1144 C 104.082 -1.93648 -5.53821 0
M  V30 1145 C 106.434 -2.38382 -5.85967 0
M  V30 1146 C 105.098 -2.70576 -6.10201 0
M  V30 1147 H 104.368 0.0950523 -0.734878 0
M  V30 1148 H 107.015 -0.465182 -1.85764 0
M  V30 1149 H 105.32 1.43006 -3.64769 0
M  V30 1150 H 107.017 1.09905 -3.85645 0
M  V30 1151 H 103.607 -0.271421 -4.2774 0
M  V30 1152 H 107.791 -1.07033 -4.84621 0
M  V30 1153 H 103.047 -2.19021 -5.70824 0
M  V30 1154 H 107.221 -2.98746 -6.29066 0
M  V30 1155 H 104.848 -3.55333 -6.72044 0
M  V30 1156 N 106.423 1.57458 -0.0668435 0
M  V30 1157 C 107.672 1.92477 0.602947 0
M  V30 1158 C 107.985 0.948419 1.71068 0
M  V30 1159 O 109.191 1.19124 2.43971 0
M  V30 1160 C 107.647 3.41903 1.12383 0
M  V30 1161 C 107.255 4.47975 0.04737 0
M  V30 1162 C 108.999 3.85931 1.76797 0
M  V30 1163 C 106.906 5.88529 0.582022 0
M  V30 1164 H 105.836 0.718387 0.22899 0
M  V30 1165 H 108.487 1.82978 -0.138276 0
M  V30 1166 H 106.869 3.46459 1.91787 0
M  V30 1167 H 108.043 4.55029 -0.726978 0
M  V30 1168 H 106.358 4.13384 -0.500243 0
M  V30 1169 H 108.955 4.88322 2.17821 0
M  V30 1170 H 109.298 3.23029 2.62599 0
M  V30 1171 H 109.831 3.83958 1.04024 0
M  V30 1172 H 106.57 6.55065 -0.238721 0
M  V30 1173 H 106.09 5.85004 1.324 0
M  V30 1174 H 107.769 6.38258 1.05999 0
M  V30 1175 N 107.901 -0.206675 1.56239 0
M  V30 1176 C 108.834 -1.28383 1.88661 0
M  V30 1177 C 109.812 -1.44504 0.745481 0
M  V30 1178 O 110.996 -1.60079 0.995336 0
M  V30 1179 C 108.123 -2.65211 2.10667 0
M  V30 1180 C 107.169 -2.66025 3.33366 0
M  V30 1181 S 108.002 -2.18609 4.88846 0
M  V30 1182 C 109.158 -3.57283 5.13906 0
M  V30 1183 H 109.391 -1.00691 2.7973 0
M  V30 1184 H 106.924 -0.409627 1.48867 0
M  V30 1185 H 108.882 -3.43979 2.24029 0
M  V30 1186 H 107.543 -2.90121 1.20369 0
M  V30 1187 H 106.736 -3.66607 3.45855 0
M  V30 1188 H 106.338 -1.95331 3.18938 0
M  V30 1189 H 108.63 -4.53074 5.03717 0
M  V30 1190 H 109.573 -3.49699 6.15724 0
M  V30 1191 H 109.981 -3.51659 4.41583 0
M  V30 1192 N 109.379 -1.50304 -0.473955 0
M  V30 1193 C 110.625 -1.62358 -1.22521 0
M  V30 1194 C 110.98 -0.318555 -1.89745 0
M  V30 1195 O 110.273 0.683315 -1.79001 0
M  V30 1196 C 110.467 -2.73938 -2.29549 0
M  V30 1197 C 110.296 -4.15165 -1.72825 0
M  V30 1198 C 109.066 -4.81604 -1.52924 0
M  V30 1199 C 111.264 -4.99503 -1.22481 0
M  V30 1200 N 109.246 -6.07056 -0.91413 0
M  V30 1201 C 110.617 -6.15655 -0.732743 0
M  V30 1202 C 112.672 -4.85299 -1.11308 0
M  V30 1203 C 111.375 -7.19164 -0.139976 0
M  V30 1204 C 113.401 -5.88982 -0.534258 0
M  V30 1205 C 112.763 -7.0438 -0.0525562 0
M  V30 1206 H 108.862 -0.648286 -0.437321 0
M  V30 1207 H 111.446 -1.87413 -0.527692 0
M  V30 1208 H 109.617 -2.50611 -2.9673 0
M  V30 1209 H 111.349 -2.75366 -2.96573 0
M  V30 1210 H 108.104 -4.3885 -1.78067 0
M  V30 1211 H 108.528 -6.74108 -0.625071 0
M  V30 1212 H 113.17 -3.96369 -1.47144 0
M  V30 1213 H 110.888 -8.07771 0.230591 0
M  V30 1214 H 114.474 -5.80055 -0.450219 0
M  V30 1215 H 113.354 -7.83238 0.388324 0
M  V30 1216 N 110.857 0.726932 -1.39834 0
M  V30 1217 C 112.105 1.4837 -1.37225 0
M  V30 1218 C 112.426 1.94979 0.0284857 0
M  V30 1219 O 111.696 1.69555 0.981213 0
M  V30 1220 H 110.276 0.55043 -0.505011 0
M  V30 1221 H 112.938 0.862468 -1.74778 0
M  V30 1222 H 112.034 2.36198 -2.04003 0
M  V30 1223 N 112.336 1.25143 0.95797 0
M  V30 1224 C 113.585 1.0909 1.69654 0
M  V30 1225 C 113.898 -0.368548 1.92097 0
M  V30 1226 O 115.104 -0.649455 2.63618 0
M  V30 1227 C 113.56 1.90395 3.05414 0
M  V30 1228 C 113.168 3.4081 2.90779 0
M  V30 1229 C 114.912 1.82901 3.83076 0
M  V30 1230 C 112.819 4.14423 4.21909 0
M  V30 1231 H 111.749 0.404625 0.636235 0
M  V30 1232 H 114.4 1.4931 1.06672 0
M  V30 1233 H 112.782 1.42996 3.69281 0
M  V30 1234 H 113.956 3.95859 2.35865 0
M  V30 1235 H 112.271 3.49361 2.26575 0
M  V30 1236 H 114.868 2.35196 4.80195 0
M  V30 1237 H 115.211 0.796224 4.08615 0
M  V30 1238 H 115.744 2.28033 3.25954 0
M  V30 1239 H 112.483 5.18102 4.01561 0
M  V30 1240 H 112.003 3.64159 4.76601 0
M  V30 1241 H 113.682 4.21956 4.90471 0
M  V30 1242 N 113.814 -1.1601 1.06675 0
M  V30 1243 C 114.744 -2.22688 0.702307 0
M  V30 1244 C 115.725 -1.67306 -0.307032 0
M  V30 1245 O 116.91 -1.93352 -0.181305 0
M  V30 1246 C 114.04 -3.47178 0.092038 0
M  V30 1247 C 112.994 -4.15477 1.02777 0
M  V30 1248 C 112.32 -5.33963 0.28061 0
M  V30 1249 C 113.62 -4.66019 2.35846 0
M  V30 1250 H 115.314 -2.53429 1.59419 0
M  V30 1251 H 112.86 -1.21813 0.767961 0
M  V30 1252 H 114.813 -4.21037 -0.174814 0
M  V30 1253 H 113.537 -3.15749 -0.834877 0
M  V30 1254 H 112.196 -3.43549 1.27944 0
M  V30 1255 H 111.844 -4.98788 -0.649545 0
M  V30 1256 H 111.544 -5.806 0.904258 0
M  V30 1257 H 113.068 -6.10596 0.021396 0
M  V30 1258 H 114.482 -5.3144 2.15045 0
M  V30 1259 H 112.879 -5.23293 2.93743 0
M  V30 1260 H 113.949 -3.82023 2.98641 0
M  V30 1261 N 115.292 -0.849877 -1.32721 0
M  V30 1262 C 116.52 -0.464754 -2.01613 0
M  V30 1263 C 116.935 0.937191 -1.63897 0
M  V30 1264 O 116.292 1.61081 -0.857856 0
M  V30 1265 C 116.343 -0.588638 -3.56675 0
M  V30 1266 O 116.064 -1.93535 -3.93034 0
M  V30 1267 C 117.565 -0.2019 -4.4284 0
M  V30 1268 H 114.785 -0.183215 -0.645502 0
M  V30 1269 H 117.329 -1.1455 -1.69407 0
M  V30 1270 H 115.484 0.0443159 -3.87375 0
M  V30 1271 H 115.898 -1.92871 -4.87751 0
M  V30 1272 H 117.372 -0.339599 -5.50954 0
M  V30 1273 H 117.849 0.857224 -4.30753 0
M  V30 1274 H 118.455 -0.809733 -4.17521 0
M  V30 1275 N 116.77 1.45427 -0.607355 0
M  V30 1276 C 117.733 2.28974 0.101693 0
M  V30 1277 C 118.733 1.39754 0.795329 0
M  V30 1278 O 119.923 1.61878 0.643527 0
M  V30 1279 C 117.055 3.20768 1.15414 0
M  V30 1280 H 118.248 2.93147 -0.632844 0
M  V30 1281 H 115.801 1.51945 -0.366391 0
M  V30 1282 H 116.536 2.61395 1.91945 0
M  V30 1283 H 116.321 3.86489 0.66098 0
M  V30 1284 H 117.811 3.83589 1.65073 0
M  V30 1285 N 118.248 0.346503 1.53744 0
M  V30 1286 C 119.178 -0.501193 2.28058 0
M  V30 1287 C 120.159 -1.10014 1.29734 0
M  V30 1288 O 121.344 -1.12097 1.58581 0
M  V30 1289 C 118.474 -1.65078 3.05559 0
M  V30 1290 C 117.428 -1.18003 4.11411 0
M  V30 1291 C 116.754 -2.41837 4.76884 0
M  V30 1292 C 118.054 -0.278394 5.21558 0
M  V30 1293 H 119.748 0.11875 2.99164 0
M  V30 1294 H 117.294 0.0585531 1.43881 0
M  V30 1295 H 119.247 -2.25028 3.56287 0
M  V30 1296 H 117.971 -2.29767 2.32109 0
M  V30 1297 H 116.63 -0.603331 3.61601 0
M  V30 1298 H 116.278 -3.0494 4.00026 0
M  V30 1299 H 115.978 -2.1102 5.48402 0
M  V30 1300 H 117.502 -3.02508 5.30397 0
M  V30 1301 H 118.916 -0.784823 5.67903 0
M  V30 1302 H 117.313 -0.0619707 6.00068 0
M  V30 1303 H 118.383 0.684677 4.80042 0
M  V30 1304 N 119.726 -1.57421 0.075193 0
M  V30 1305 C 120.689 -2.11791 -0.876203 0
M  V30 1306 C 121.689 -1.04268 -1.22412 0
M  V30 1307 O 122.879 -1.30242 -1.15684 0
M  V30 1308 C 120.011 -2.62207 -2.17854 0
M  V30 1309 H 121.204 -2.9716 -0.40444 0
M  V30 1310 H 118.757 -1.55333 -0.173557 0
M  V30 1311 H 119.492 -1.803 -2.6956 0
M  V30 1312 H 119.277 -3.40802 -1.93897 0
M  V30 1313 H 120.767 -3.04335 -2.85955 0
M  V30 1314 N 121.204 0.198386 -1.56346 0
M  V30 1315 C 122.434 0.934215 -1.84271 0
M  V30 1316 C 122.842 1.77496 -0.655125 0
M  V30 1317 O 122.185 1.7961 0.385488 0
M  V30 1318 C 122.247 1.88278 -3.06254 0
M  V30 1319 C 121.911 1.22431 -4.40295 0
M  V30 1320 C 122.908 0.602839 -5.16393 0
M  V30 1321 C 120.593 1.22915 -4.87029 0
M  V30 1322 C 122.587 -0.0050083 -6.374 0
M  V30 1323 C 120.274 0.617465 -6.07973 0
M  V30 1324 C 121.272 0.00146341 -6.83 0
M  V30 1325 O 120.96 -0.600642 -8.01653 0
M  V30 1326 H 120.692 0.278245 -0.616081 0
M  V30 1327 H 123.246 0.211626 -2.04307 0
M  V30 1328 H 121.476 2.64498 -2.82095 0
M  V30 1329 H 123.165 2.48612 -3.20853 0
M  V30 1330 H 123.931 0.591265 -4.81382 0
M  V30 1331 H 119.81 1.69801 -4.28589 0
M  V30 1332 H 123.354 -0.48643 -6.95902 0
M  V30 1333 H 119.251 0.62653 -6.42452 0
M  V30 1334 H 120.019 -0.497225 -8.16988 0
M  V30 1335 N 122.682 1.50554 0.465978 0
M  V30 1336 C 123.632 1.66177 1.56106 0
M  V30 1337 C 124.616 0.516265 1.52393 0
M  V30 1338 O 125.808 0.770906 1.5933 0
M  V30 1339 C 122.937 1.76396 2.94515 0
M  V30 1340 C 122.023 2.9664 3.03093 0
M  V30 1341 N 122.414 4.20245 2.81474 0
M  V30 1342 C 120.712 2.95304 3.34233 0
M  V30 1343 C 121.413 5.01259 2.95151 0
M  V30 1344 N 120.389 4.35318 3.25576 0
M  V30 1345 H 124.191 2.59434 1.38099 0
M  V30 1346 H 121.705 1.47808 0.6728 0
M  V30 1347 H 123.702 1.85694 3.73261 0
M  V30 1348 H 122.362 0.843017 3.13565 0
M  V30 1349 H 123.373 4.4966 2.56956 0
M  V30 1350 H 120.05 2.12729 3.59239 0
M  V30 1351 H 121.44 6.09564 2.82632 0
M  V30 1352 N 124.16 -0.719506 1.40217 0
M  V30 1353 C 125.406 -1.48152 1.38488 0
M  V30 1354 C 125.739 -1.94195 -0.0141867 0
M  V30 1355 O 125.014 -1.67884 -0.982096 0
M  V30 1356 C 125.297 -2.71035 2.37091 0
M  V30 1357 C 125.15 -2.30912 3.86005 0
M  V30 1358 C 126.469 -3.73182 2.33288 0
M  V30 1359 H 123.588 -0.537395 0.504357 0
M  V30 1360 H 126.23 -0.821472 1.71324 0
M  V30 1361 H 124.38 -3.27352 2.0922 0
M  V30 1362 H 126.052 -1.80107 4.24687 0
M  V30 1363 H 124.295 -1.62958 4.02029 0
M  V30 1364 H 124.966 -3.18978 4.50508 0
M  V30 1365 H 127.442 -3.26485 2.57966 0
M  V30 1366 H 126.318 -4.56806 3.04334 0
M  V30 1367 H 126.579 -4.21202 1.34317 0
M  V30 1368 N 125.638 -1.25649 -0.95132 0
M  V30 1369 C 126.884 -1.10757 -1.69884 0
M  V30 1370 C 127.217 0.350061 -1.91019 0
M  V30 1371 O 126.492 1.25783 -1.48354 0
M  V30 1372 C 126.775 -1.86606 -3.07978 0
M  V30 1373 C 126.628 -3.40217 -2.94232 0
M  V30 1374 C 127.947 -1.65182 -4.07925 0
M  V30 1375 H 125.066 -0.40374 -0.616574 0
M  V30 1376 H 127.708 -1.54521 -1.10558 0
M  V30 1377 H 125.858 -1.49409 -3.58621 0
M  V30 1378 H 127.53 -3.87108 -2.50889 0
M  V30 1379 H 125.773 -3.67759 -2.30078 0
M  V30 1380 H 126.444 -3.88505 -3.92133 0
M  V30 1381 H 128.92 -1.9757 -3.66204 0
M  V30 1382 H 127.796 -2.20683 -5.02583 0
M  V30 1383 H 128.057 -0.593933 -4.38092 0
M  V30 1384 N 127.117 1.15442 -1.07289 0
M  V30 1385 C 128.363 1.86489 -0.796846 0
M  V30 1386 C 128.696 1.82078 0.675371 0
M  V30 1387 O 127.971 1.24346 1.4956 0
M  V30 1388 C 128.254 3.35626 -1.30489 0
M  V30 1389 C 128.107 3.48673 -2.84161 0
M  V30 1390 C 129.426 4.30357 -0.920907 0
M  V30 1391 H 126.545 0.677144 -0.290939 0
M  V30 1392 H 129.187 1.35633 -1.33056 0
M  V30 1393 H 127.337 3.79068 -0.850883 0
M  V30 1394 H 129.009 3.14099 -3.37846 0
M  V30 1395 H 127.252 2.90253 -3.22391 0
M  V30 1396 H 127.923 4.53453 -3.14777 0
M  V30 1397 H 130.399 3.94871 -1.3121 0
M  V30 1398 H 129.275 5.33193 -1.30372 0
M  V30 1399 H 129.536 4.4176 0.173226 0
M  V30 1400 N 128.595 0.856903 1.32268 0
M  V30 1401 C 129.843 0.460474 1.96784 0
M  V30 1402 C 130.164 -0.987701 1.68135 0
M  V30 1403 O 129.434 -1.69058 0.989765 0
M  V30 1404 H 128.014 0.167289 0.728027 0
M  V30 1405 H 130.676 1.09383 1.61312 0
M  V30 1406 H 129.772 0.60739 3.06133 0
M  V30 1407 N 130.073 -1.45103 0.615059 0
M  V30 1408 C 131.322 -2.01396 0.110718 0
M  V30 1409 C 131.635 -1.48834 -1.26916 0
M  V30 1410 O 132.841 -1.97152 -1.86664 0
M  V30 1411 C 131.297 -3.59599 0.14723 0
M  V30 1412 C 130.905 -4.21158 1.52743 0
M  V30 1413 C 132.649 -4.23428 -0.30148 0
M  V30 1414 C 130.556 -5.71535 1.51992 0
M  V30 1415 H 129.486 -0.753061 0.0376241 0
M  V30 1416 H 132.137 -1.66494 0.77149 0
M  V30 1417 H 130.519 -3.91724 -0.580339 0
M  V30 1418 H 131.693 -4.00594 2.2773 0
M  V30 1419 H 130.008 -3.69552 1.91886 0
M  V30 1420 H 132.605 -5.33703 -0.326392 0
M  V30 1421 H 132.948 -3.94629 -1.32565 0
M  V30 1422 H 133.481 -3.96047 0.373065 0
M  V30 1423 H 130.22 -6.05044 2.52193 0
M  V30 1424 H 129.74 -5.94268 0.81274 0
M  V30 1425 H 131.419 -6.34873 1.24681 0
M  V30 1426 N 131.551 -0.354651 -1.53558 0
M  V30 1427 C 132.967 -0.00315426 -1.596 0
M  V30 1428 C 133.167 1.47741 -1.37021 0
M  V30 1429 O 132.223 2.23759 -1.16996 0
M  V30 1430 C 133.536 -0.44929 -2.97325 0
M  V30 1431 C 135.084 -0.402578 -3.104 0
M  V30 1432 C 135.559 -0.824355 -4.5052 0
M  V30 1433 N 137.05 -0.778979 -4.56603 0
M  V30 1434 C 137.785 -1.07715 -5.63192 0
M  V30 1435 N 137.281 -1.44405 -6.77583 0
M  V30 1436 N 139.074 -1.00066 -5.53121 0
M  V30 1437 H 131.225 -1.31893 -1.66487 0
M  V30 1438 H 133.488 -0.538388 -0.780284 0
M  V30 1439 H 133.194 -1.48202 -3.1895 0
M  V30 1440 H 133.068 0.169772 -3.76818 0
M  V30 1441 H 135.455 0.621004 -2.88492 0
M  V30 1442 H 135.536 -1.05699 -2.32941 0
M  V30 1443 H 135.18 -1.846 -4.73165 0
M  V30 1444 H 135.11 -0.147304 -5.26394 0
M  V30 1445 H 137.601 -0.508528 -3.74463 0
M  V30 1446 H 137.914 -1.65612 -7.54846 0
M  V30 1447 H 136.259 -1.4826 -6.79002 0
M  V30 1448 H 139.45 -0.713293 -4.62633 0
M  V30 1449 H 139.623 -1.23638 -6.36096 0
M  V30 1450 N 133.029 1.57378 -0.0835403 0
M  V30 1451 C 133.979 2.09916 0.889905 0
M  V30 1452 C 134.963 1.01151 1.25129 0
M  V30 1453 O 136.155 1.27443 1.2283 0
M  V30 1454 C 133.284 2.67379 2.15322 0
M  V30 1455 C 132.37 3.83167 1.81779 0
M  V30 1456 N 132.761 4.91665 1.18739 0
M  V30 1457 C 131.059 3.92685 2.11459 0
M  V30 1458 C 131.76 5.72409 1.0355 0
M  V30 1459 N 130.736 5.21062 1.54906 0
M  V30 1460 H 134.538 2.91188 0.398378 0
M  V30 1461 H 132.052 1.61956 0.120013 0
M  V30 1462 H 134.049 3.0334 2.8599 0
M  V30 1463 H 132.709 1.87558 2.65051 0
M  V30 1464 H 133.72 5.10784 0.855604 0
M  V30 1465 H 130.397 3.23856 2.63483 0
M  V30 1466 H 131.787 6.69699 0.543425 0
M  V30 1467 N 134.507 -0.190092 1.56449 0
M  V30 1468 C 135.44 -1.26375 1.90012 0
M  V30 1469 C 136.418 -1.43705 0.760765 0
M  V30 1470 O 137.602 -1.59014 1.01226 0
M  V30 1471 C 134.729 -2.62962 2.13468 0
M  V30 1472 C 133.775 -2.62474 3.36169 0
M  V30 1473 S 134.608 -2.13412 4.91137 0
M  V30 1474 C 135.764 -3.51812 5.17667 0
M  V30 1475 H 135.997 -0.977181 2.80782 0
M  V30 1476 H 133.53 -0.393814 1.49293 0
M  V30 1477 H 135.488 -3.41583 2.27664 0
M  V30 1478 H 134.149 -2.88828 1.23439 0
M  V30 1479 H 133.342 -3.62918 3.49723 0
M  V30 1480 H 132.944 -1.91937 3.20992 0
M  V30 1481 H 135.236 -4.47706 5.08494 0
M  V30 1482 H 136.179 -3.43148 6.19399 0
M  V30 1483 H 136.587 -3.46956 4.45288 0
M  V30 1484 N 135.985 -1.50799 -0.457987 0
M  V30 1485 C 136.918 -1.65273 -1.57353 0
M  V30 1486 C 137.896 -0.500578 -1.54703 0
M  V30 1487 O 139.08 -0.721781 -1.74134 0
M  V30 1488 C 136.207 -1.64737 -2.95938 0
M  V30 1489 C 135.253 -2.8567 -3.16693 0
M  V30 1490 S 136.086 -4.46791 -2.95191 0
M  V30 1491 C 137.242 -4.48968 -4.36095 0
M  V30 1492 H 137.475 -2.59633 -1.44838 0
M  V30 1493 H 135.008 -1.40225 -0.64625 0
M  V30 1494 H 136.966 -1.65112 -3.7583 0
M  V30 1495 H 135.627 -0.715899 -3.05833 0
M  V30 1496 H 134.82 -2.81637 -4.17967 0
M  V30 1497 H 134.422 -2.8293 -2.44594 0
M  V30 1498 H 136.714 -4.23337 -5.28954 0
M  V30 1499 H 137.657 -5.50664 -4.45168 0
M  V30 1500 H 138.065 -3.78522 -4.18786 0
M  V30 1501 N 137.463 0.71206 -1.40597 0
M  V30 1502 C 138.396 1.83582 -1.35546 0
M  V30 1503 C 139.374 1.61032 -0.225284 0
M  V30 1504 O 140.558 1.83998 -0.409519 0
M  V30 1505 C 137.685 3.19983 -1.11034 0
M  V30 1506 C 136.731 3.61355 -2.2655 0
M  V30 1507 S 137.564 3.68062 -3.88961 0
M  V30 1508 C 138.72 5.07216 -3.66719 0
M  V30 1509 H 138.953 1.87586 -2.30648 0
M  V30 1510 H 136.486 0.879182 -1.26924 0
M  V30 1511 H 138.444 3.98734 -0.975761 0
M  V30 1512 H 137.105 3.13608 -0.175798 0
M  V30 1513 H 136.298 4.60403 -2.0505 0
M  V30 1514 H 135.9 2.8987 -2.36329 0
M  V30 1515 H 138.192 5.94238 -3.25404 0
M  V30 1516 H 139.135 5.33753 -4.6531 0
M  V30 1517 H 139.543 4.77976 -3.00332 0
M  V30 1518 N 138.941 1.26152 0.944643 0
M  V30 1519 C 140.218 1.02247 1.66748 0
M  V30 1520 C 140.598 -0.448202 2.06287 0
M  V30 1521 O 139.946 -1.42779 1.78399 0
M  V30 1522 C 140.156 1.96788 2.88228 0
M  V30 1523 C 141.504 2.25201 3.59958 0
M  V30 1524 O 142.528 1.94626 2.98327 0
M  V30 1525 O 141.387 2.77242 4.70956 0
M  V30 1526 H 138.481 0.388517 0.730057 0
M  V30 1527 H 141.027 1.37348 0.99668 0
M  V30 1528 H 139.799 2.96047 2.55875 0
M  V30 1529 H 139.422 1.62145 3.63035 0
M  V30 1530 N 140.419 -1.14872 1.07899 0
M  V30 1531 C 141.666 -1.85789 0.805532 0
M  V30 1532 C 141.994 -1.82649 -0.668561 0
M  V30 1533 O 141.249 -1.24858 -1.50695 0
M  V30 1534 C 141.548 -3.34223 1.26609 0
M  V30 1535 C 141.214 -3.57555 2.74709 0
M  V30 1536 C 139.876 -3.63631 3.1516 0
M  V30 1537 C 142.228 -3.66803 3.70277 0
M  V30 1538 C 139.556 -3.76473 4.49983 0
M  V30 1539 C 141.908 -3.8117 5.04869 0
M  V30 1540 C 140.572 -3.85494 5.44932 0
M  V30 1541 H 139.842 -0.679849 0.294765 0
M  V30 1542 H 142.489 -1.3572 1.35101 0
M  V30 1543 H 140.794 -3.86536 0.640103 0
M  V30 1544 H 142.491 -3.87511 1.03132 0
M  V30 1545 H 139.081 -3.5347 2.42398 0
M  V30 1546 H 143.265 -3.61404 3.40149 0
M  V30 1547 H 138.521 -3.7808 4.80484 0
M  V30 1548 H 142.695 -3.87268 5.78789 0
M  V30 1549 H 140.322 -3.95197 6.49403 0
M  V30 1550 N 141.898 -0.863906 -1.31812 0
M  V30 1551 C 143.146 -0.470904 -1.96537 0
M  V30 1552 C 143.467 0.978771 -1.68657 0
M  V30 1553 O 142.737 1.6853 -0.998717 0
M  V30 1554 H 141.317 -0.171148 -0.72713 0
M  V30 1555 H 143.979 -1.10236 -1.60729 0
M  V30 1556 H 143.075 -0.623616 -3.05806 0
M  V30 1557 N 143.376 1.44774 -0.622745 0
M  V30 1558 C 144.606 2.06187 -0.130532 0
M  V30 1559 C 145.014 1.46547 1.19669 0
M  V30 1560 O 144.357 0.579636 1.74316 0
M  V30 1561 C 144.419 3.59437 0.0674983 0
M  V30 1562 C 144.083 4.41496 -1.18026 0
M  V30 1563 C 145.08 4.75512 -2.102 0
M  V30 1564 C 142.765 4.82007 -1.41333 0
M  V30 1565 C 144.759 5.48912 -3.23998 0
M  V30 1566 C 142.446 5.55157 -2.55429 0
M  V30 1567 C 143.444 5.88528 -3.46589 0
M  V30 1568 O 143.132 6.60191 -4.58697 0
M  V30 1569 H 142.864 0.672045 -0.0730162 0
M  V30 1570 H 145.418 1.86768 -0.854802 0
M  V30 1571 H 143.648 3.77314 0.846825 0
M  V30 1572 H 145.337 4.02642 0.513209 0
M  V30 1573 H 146.103 4.4476 -1.93425 0
M  V30 1574 H 141.982 4.55457 -0.712709 0
M  V30 1575 H 145.526 5.74877 -3.95174 0
M  V30 1576 H 141.423 5.85324 -2.72151 0
M  V30 1577 H 142.191 6.78654 -4.57571 0
M  V30 1578 N 144.854 0.36279 1.53368 0
M  V30 1579 C 145.784 -0.476976 2.28576 0
M  V30 1580 C 146.765 -1.08631 1.30894 0
M  V30 1581 O 147.95 -1.10409 1.59761 0
M  V30 1582 C 145.08 -1.61828 3.07293 0
M  V30 1583 C 144.034 -1.13633 4.1264 0
M  V30 1584 C 143.36 -2.36766 4.79423 0
M  V30 1585 C 144.66 -0.223061 5.21823 0
M  V30 1586 H 146.354 0.150474 2.99022 0
M  V30 1587 H 143.9 0.0738103 1.43811 0
M  V30 1588 H 145.853 -2.21237 3.58653 0
M  V30 1589 H 144.577 -2.27292 2.34533 0
M  V30 1590 H 143.236 -0.564945 3.62221 0
M  V30 1591 H 142.884 -3.0068 4.03238 0
M  V30 1592 H 142.584 -2.05192 5.50609 0
M  V30 1593 H 144.108 -2.96865 5.33576 0
M  V30 1594 H 145.522 -0.724545 5.68703 0
M  V30 1595 H 143.919 0.001678 6.001 0
M  V30 1596 H 144.989 0.735553 4.79289 0
M  V30 1597 N 146.332 -1.57332 0.0918853 0
M  V30 1598 C 147.242 -2.17368 -0.882505 0
M  V30 1599 C 148.258 -1.14226 -1.31257 0
M  V30 1600 O 149.434 -1.46582 -1.38115 0
M  V30 1601 C 146.499 -2.73962 -2.12476 0
M  V30 1602 C 145.56 -3.92048 -1.7492 0
M  V30 1603 C 144.793 -4.45933 -2.93223 0
M  V30 1604 O 145.016 -3.98764 -4.07852 0
M  V30 1605 O 143.95 -5.36999 -2.71875 0
M  V30 1606 H 147.776 -3.01031 -0.40172 0
M  V30 1607 H 145.361 -1.48813 -0.132291 0
M  V30 1608 H 147.243 -3.10147 -2.85283 0
M  V30 1609 H 145.918 -1.93347 -2.59613 0
M  V30 1610 H 144.825 -3.6068 -0.993025 0
M  V30 1611 H 146.158 -4.74017 -1.32548 0
M  V30 1612 N 147.81 0.181792 -1.56548 0
M  V30 1613 C 148.72 1.24538 -1.98815 0
M  V30 1614 C 149.736 1.49045 -0.897861 0
M  V30 1615 O 150.912 1.61399 -1.20467 0
M  V30 1616 C 147.977 2.56683 -2.33055 0
M  V30 1617 C 147.038 2.40131 -3.55859 0
M  V30 1618 C 146.271 3.65975 -3.88456 0
M  V30 1619 O 146.494 4.70711 -3.22161 0
M  V30 1620 O 145.428 3.6071 -4.81842 0
M  V30 1621 H 149.254 0.916647 -2.89536 0
M  V30 1622 H 146.839 0.387842 -1.44278 0
M  V30 1623 H 148.721 3.34655 -2.56094 0
M  V30 1624 H 147.396 2.89157 -1.45498 0
M  V30 1625 H 146.303 1.60226 -3.38051 0
M  V30 1626 H 147.636 2.12585 -4.43924 0
M  V30 1627 N 149.288 1.51039 0.449983 0
M  V30 1628 C 150.516 1.66869 1.2232 0
M  V30 1629 C 150.931 0.360727 1.85322 0
M  V30 1630 O 150.288 -0.659531 1.70166 0
M  V30 1631 C 150.339 2.77524 2.31652 0
M  V30 1632 O 150.06 4.03252 1.7123 0
M  V30 1633 C 151.561 3.04512 3.2216 0
M  V30 1634 H 148.781 0.560326 0.369155 0
M  V30 1635 H 151.325 1.97385 0.534719 0
M  V30 1636 H 149.48 2.49642 2.96239 0
M  V30 1637 H 149.894 4.64609 2.43389 0
M  V30 1638 H 151.368 3.85551 3.95038 0
M  V30 1639 H 151.845 2.16415 3.8218 0
M  V30 1640 H 152.451 3.34005 2.63288 0
M  V30 1641 N 150.766 -0.704594 1.40972 0
M  V30 1642 C 152.013 -1.46458 1.39844 0
M  V30 1643 C 152.341 -1.94499 0.00447594 0
M  V30 1644 O 151.596 -1.69275 -0.982057 0
M  V30 1645 C 151.895 -2.698 2.34399 0
M  V30 1646 C 151.561 -2.40464 3.81429 0
M  V30 1647 C 150.223 -2.32174 4.21484 0
M  V30 1648 C 152.575 -2.16086 4.74296 0
M  V30 1649 C 149.903 -1.97589 5.52427 0
M  V30 1650 C 152.255 -1.83011 6.05549 0
M  V30 1651 C 150.919 -1.7321 6.44635 0
M  V30 1652 H 150.189 -0.535927 0.511725 0
M  V30 1653 H 152.836 -0.806124 1.73706 0
M  V30 1654 H 151.141 -3.40536 1.93759 0
M  V30 1655 H 152.838 -3.27919 2.30804 0
M  V30 1656 H 149.428 -2.47808 3.49699 0
M  V30 1657 H 153.612 -2.2144 4.4416 0
M  V30 1658 H 148.868 -1.88547 5.81601 0
M  V30 1659 H 153.042 -1.63164 6.77016 0
M  V30 1660 H 150.669 -1.46179 7.46013 0
M  V30 1661 N 152.244 -1.26651 -0.937939 0
M  V30 1662 C 153.154 -1.10276 -2.07066 0
M  V30 1663 C 154.17 -0.0354197 -1.73964 0
M  V30 1664 O 155.346 -0.239816 -1.99967 0
M  V30 1665 C 152.411 -0.740887 -3.38691 0
M  V30 1666 C 151.472 -1.88799 -3.85556 0
M  V30 1667 C 150.705 -1.54329 -5.10899 0
M  V30 1668 O 150.928 -0.446494 -5.6865 0
M  V30 1669 O 149.862 -2.37911 -5.52885 0
M  V30 1670 H 153.688 -2.05309 -2.23789 0
M  V30 1671 H 151.273 -1.05743 -1.0554 0
M  V30 1672 H 153.155 -0.55195 -4.1777 0
M  V30 1673 H 151.83 0.180022 -3.23199 0
M  V30 1674 H 150.737 -2.13191 -3.07409 0
M  V30 1675 H 152.07 -2.78874 -4.05574 0
M  V30 1676 N 153.722 1.14298 -1.08507 0
M  V30 1677 C 154.685 2.17607 -0.719711 0
M  V30 1678 C 155.685 1.58907 0.245997 0
M  V30 1679 O 156.875 1.74181 0.0254081 0
M  V30 1680 C 154.007 3.40842 -0.0627695 0
M  V30 1681 H 155.2 2.51443 -1.63452 0
M  V30 1682 H 152.753 1.28963 -0.88307 0
M  V30 1683 H 153.488 3.12587 0.863716 0
M  V30 1684 H 153.273 3.84713 -0.757504 0
M  V30 1685 H 154.763 4.17221 0.177786 0
M  V30 1686 N 155.201 0.870884 1.31352 0
M  V30 1687 C 156.449 0.48132 1.96285 0
M  V30 1688 C 156.77 -0.969813 1.69173 0
M  V30 1689 O 156.04 -1.67998 1.00764 0
M  V30 1690 H 154.62 0.175002 0.726212 0
M  V30 1691 H 157.282 1.11087 1.60143 0
M  V30 1692 H 156.378 0.639825 3.05471 0
M  V30 1693 N 156.679 -1.44442 0.630414 0
M  V30 1694 C 157.626 -2.30678 -0.0749355 0
M  V30 1695 C 158.596 -1.4344 -0.837502 0
M  V30 1696 O 159.781 -1.72343 -0.818684 0
M  V30 1697 C 156.921 -3.28706 -1.05103 0
M  V30 1698 C 156.034 -4.31046 -0.286954 0
M  V30 1699 C 155.169 -5.16167 -1.2548 0
M  V30 1700 C 154.208 -6.10216 -0.479843 0
M  V30 1701 N 153.345 -6.88039 -1.39811 0
M  V30 1702 H 158.185 -2.90454 0.666386 0
M  V30 1703 H 155.722 -1.43107 0.340404 0
M  V30 1704 H 157.68 -3.84027 -1.63031 0
M  V30 1705 H 156.31 -2.70632 -1.75949 0
M  V30 1706 H 155.362 -3.78203 0.408243 0
M  V30 1707 H 156.674 -4.97794 0.316657 0
M  V30 1708 H 155.828 -5.76002 -1.90544 0
M  V30 1709 H 154.567 -4.49491 -1.89233 0
M  V30 1710 H 153.572 -5.49491 0.184295 0
M  V30 1711 H 154.797 -6.78928 0.152965 0
M  V30 1712 H 152.743 -6.24032 -2.02287 0
M  V30 1713 H 152.66 -7.51223 -0.848508 0
M  V30 1714 H 153.928 -7.52397 -2.03762 0
M  V30 1715 N 158.157 -0.370918 -1.53173 0
M  V30 1716 C 159.573 -0.0200818 -1.59587 0
M  V30 1717 C 159.773 1.46279 -1.38581 0
M  V30 1718 O 158.829 2.22506 -1.19363 0
M  V30 1719 C 160.142 -0.4808 -2.96831 0
M  V30 1720 C 161.69 -0.435477 -3.09956 0
M  V30 1721 C 162.165 -0.872092 -4.4962 0
M  V30 1722 N 163.656 -0.827364 -4.55751 0
M  V30 1723 C 164.391 -1.13683 -5.62018 0
M  V30 1724 N 163.887 -1.51584 -6.76014 0
M  V30 1725 N 165.68 -1.05927 -5.52029 0
M  V30 1726 H 157.831 -1.33652 -1.65079 0
M  V30 1727 H 160.094 -0.546634 -0.774529 0
M  V30 1728 H 159.8 -1.51577 -3.1736 0
M  V30 1729 H 159.674 0.129796 -3.76977 0
M  V30 1730 H 162.061 0.590371 -2.89134 0
M  V30 1731 H 162.142 -1.08164 -2.31806 0
M  V30 1732 H 161.786 -1.89608 -4.71181 0
M  V30 1733 H 161.716 -0.203127 -5.26208 0
M  V30 1734 H 164.207 -0.548216 -3.73902 0
M  V30 1735 H 164.52 -1.73609 -7.53047 0
M  V30 1736 H 162.865 -1.55454 -6.77391 0
M  V30 1737 H 166.056 -0.762321 -4.61851 0
M  V30 1738 H 166.229 -1.30378 -6.34749 0
M  V30 1739 N 159.635 1.57281 -0.100228 0
M  V30 1740 C 160.86 1.99302 0.573881 0
M  V30 1741 C 161.285 0.979059 1.60611 0
M  V30 1742 O 160.643 -0.0517803 1.81226 0
M  V30 1743 C 160.691 3.40274 1.19358 0
M  V30 1744 O 159.795 3.41676 2.30935 0
M  V30 1745 H 159.136 0.647944 0.145138 0
M  V30 1746 H 161.666 2.03779 -0.183156 0
M  V30 1747 H 161.676 3.78078 1.53365 0
M  V30 1748 H 160.351 4.13594 0.437385 0
M  V30 1749 H 158.928 3.15672 1.98509 0
M  V30 1750 N 161.113 -0.173488 1.56642 0
M  V30 1751 C 162.076 -1.19859 1.95362 0
M  V30 1752 C 163.076 -1.37296 0.83704 0
M  V30 1753 O 164.266 -1.34739 1.10413 0
M  V30 1754 C 161.398 -2.56405 2.24654 0
M  V30 1755 H 162.591 -0.867062 2.87092 0
M  V30 1756 H 160.144 -0.415853 1.50666 0
M  V30 1757 H 160.879 -2.94576 1.35631 0
M  V30 1758 H 160.664 -2.45115 3.06041 0
M  V30 1759 H 162.154 -3.30287 2.5554 0
M  V30 1760 N 162.591 -1.51276 -0.441967 0
M  V30 1761 C 163.538 -1.72256 -1.53612 0
M  V30 1762 C 164.508 -0.564164 -1.56225 0
M  V30 1763 O 165.693 -0.798074 -1.73307 0
M  V30 1764 C 162.833 -1.84932 -2.91366 0
M  V30 1765 C 161.946 -3.12459 -2.98317 0
M  V30 1766 C 161.081 -3.15758 -4.27166 0
M  V30 1767 C 160.12 -4.37619 -4.27967 0
M  V30 1768 N 159.257 -4.38493 -5.48333 0
M  V30 1769 H 164.097 -2.65654 -1.35026 0
M  V30 1770 H 161.634 -1.31662 -0.656009 0
M  V30 1771 H 163.592 -1.90263 -3.7129 0
M  V30 1772 H 162.222 -0.949461 -3.08521 0
M  V30 1773 H 161.274 -3.1646 -2.11086 0
M  V30 1774 H 162.586 -4.02382 -2.94771 0
M  V30 1775 H 161.74 -3.19979 -5.15459 0
M  V30 1776 H 160.479 -2.23715 -4.33362 0
M  V30 1777 H 159.484 -4.33579 -3.38067 0
M  V30 1778 H 160.709 -5.30921 -4.23438 0
M  V30 1779 H 158.655 -3.49318 -5.55259 0
M  V30 1780 H 158.572 -5.22219 -5.46647 0
M  V30 1781 H 159.84 -4.469 -6.38671 0
M  V30 1782 N 164.069 0.697108 -1.41344 0
M  V30 1783 C 165.318 1.45279 -1.39918 0
M  V30 1784 C 165.631 1.95597 -0.0109624 0
M  V30 1785 O 166.837 2.71208 0.125919 0
M  V30 1786 C 165.293 2.62695 -2.46007 0
M  V30 1787 C 164.901 2.19169 -3.90729 0
M  V30 1788 C 166.645 3.40336 -2.53715 0
M  V30 1789 C 164.552 3.33535 -4.88373 0
M  V30 1790 H 163.482 0.545692 -0.520323 0
M  V30 1791 H 166.133 0.756929 -1.67161 0
M  V30 1792 H 164.515 3.34541 -2.11892 0
M  V30 1793 H 165.689 1.54623 -4.34083 0
M  V30 1794 H 164.004 1.54525 -3.86666 0
M  V30 1795 H 166.601 4.2547 -3.2385 0
M  V30 1796 H 166.944 3.85418 -1.5735 0
M  V30 1797 H 167.477 2.75546 -2.86913 0
M  V30 1798 H 164.216 2.93468 -5.86137 0
M  V30 1799 H 163.736 3.96936 -4.49668 0
M  V30 1800 H 165.415 3.99335 -5.09059 0
M  V30 1801 N 165.547 1.27147 0.931209 0
M  V30 1802 C 166.772 1.16191 1.71797 0
M  V30 1803 C 167.197 -0.278004 1.86034 0
M  V30 1804 O 166.555 -1.20137 1.35782 0
M  V30 1805 C 166.603 1.84673 3.09723 0
M  V30 1806 O 165.707 1.14231 3.96264 0
M  V30 1807 H 165.048 0.404303 0.526721 0
M  V30 1808 H 167.578 1.68152 1.1656 0
M  V30 1809 H 167.588 1.91893 3.60057 0
M  V30 1810 H 166.263 2.89421 2.98677 0
M  V30 1811 H 164.84 1.15056 3.54706 0
M  V30 1812 N 167.025 -1.13721 1.09112 0
M  V30 1813 C 168.272 -1.84924 0.825192 0
M  V30 1814 C 168.6 -1.83347 -0.649151 0
M  V30 1815 O 167.855 -1.26449 -1.49362 0
M  V30 1816 C 168.154 -3.32861 1.30146 0
M  V30 1817 C 167.82 -3.54621 2.78486 0
M  V30 1818 C 166.482 -3.60268 3.18999 0
M  V30 1819 C 168.834 -3.62855 3.74146 0
M  V30 1820 C 166.162 -3.71679 4.53951 0
M  V30 1821 C 168.514 -3.75793 5.08883 0
M  V30 1822 C 167.178 -3.79692 5.4899 0
M  V30 1823 H 166.448 -0.676684 0.301959 0
M  V30 1824 H 169.095 -1.3428 1.36533 0
M  V30 1825 H 167.4 -3.85835 0.681064 0
M  V30 1826 H 169.097 -3.86395 1.07236 0
M  V30 1827 H 165.687 -3.50879 2.46134 0
M  V30 1828 H 169.871 -3.57775 3.43963 0
M  V30 1829 H 165.127 -3.72963 4.84467 0
M  V30 1830 H 169.301 -3.81107 5.82864 0
M  V30 1831 H 166.928 -3.88287 6.53558 0
M  V30 1832 N 168.503 -0.877838 -1.30888 0
M  V30 1833 C 169.749 -0.493426 -1.96706 0
M  V30 1834 C 170.082 0.953504 -1.6918 0
M  V30 1835 O 169.357 1.67266 -0.992594 0
M  V30 1836 C 169.64 -0.760429 -3.51979 0
M  V30 1837 C 169.493 -2.25747 -3.89048 0
M  V30 1838 C 170.812 -0.232148 -4.39487 0
M  V30 1839 H 167.931 -0.180746 -0.714493 0
M  V30 1840 H 170.573 -1.10052 -1.54882 0
M  V30 1841 H 168.723 -0.243715 -3.87735 0
M  V30 1842 H 170.395 -2.84204 -3.63354 0
M  V30 1843 H 168.638 -2.72694 -3.37373 0
M  V30 1844 H 169.309 -2.39491 -4.97341 0
M  V30 1845 H 171.785 -0.674314 -4.106 0
M  V30 1846 H 170.661 -0.448355 -5.47066 0
M  V30 1847 H 170.922 0.866297 -4.33529 0
M  V30 1848 N 169.982 1.44106 -0.638065 0
M  V30 1849 C 171.231 2.01194 -0.142744 0
M  V30 1850 C 171.544 1.50835 1.24532 0
M  V30 1851 O 172.75 2.00096 1.83504 0
M  V30 1852 C 171.206 3.59319 -0.20442 0
M  V30 1853 C 170.814 4.18674 -1.59423 0
M  V30 1854 C 172.558 4.23854 0.234079 0
M  V30 1855 C 170.465 5.69045 -1.61065 0
M  V30 1856 H 169.395 0.752367 -0.0495998 0
M  V30 1857 H 172.046 1.65246 -0.797881 0
M  V30 1858 H 170.428 3.92598 0.517946 0
M  V30 1859 H 171.602 3.96921 -2.34074 0
M  V30 1860 H 169.917 3.66453 -1.97741 0
M  V30 1861 H 172.514 5.34155 0.241443 0
M  V30 1862 H 172.857 3.96688 1.2627 0
M  V30 1863 H 173.39 3.95403 -0.436025 0
M  V30 1864 H 170.129 6.00956 -2.61787 0
M  V30 1865 H 169.649 5.929 -0.90718 0
M  V30 1866 H 171.328 6.32809 -1.34766 0
M  V30 1867 N 171.46 0.379036 1.52974 0
M  V30 1868 C 172.688 -0.20679 2.05864 0
M  V30 1869 C 173.103 -1.41356 1.25155 0
M  V30 1870 O 172.46 -1.8009 0.295588 0
M  V30 1871 C 172.511 -0.587045 3.56702 0
M  V30 1872 O 172.232 0.571776 4.34353 0
M  V30 1873 C 173.733 -1.22983 4.25899 0
M  V30 1874 H 170.953 -0.0336123 0.670158 0
M  V30 1875 H 173.497 0.541298 1.97206 0
M  V30 1876 H 171.652 -1.28504 3.65466 0
M  V30 1877 H 172.066 0.261544 5.23847 0
M  V30 1878 H 173.54 -1.44635 5.32715 0
M  V30 1879 H 174.017 -2.19416 3.80465 0
M  V30 1880 H 174.623 -0.572892 4.21424 0
M  V30 1881 N 172.938 -1.57226 0.108567 0
M  V30 1882 C 174.184 -1.95121 -0.552761 0
M  V30 1883 C 174.517 -0.991345 -1.66991 0
M  V30 1884 O 173.792 -0.0267211 -1.94482 0
M  V30 1885 C 174.075 -3.43039 -1.09528 0
M  V30 1886 C 173.928 -4.49797 0.0177332 0
M  V30 1887 C 175.247 -3.92567 -1.98945 0
M  V30 1888 H 172.366 -0.709496 -0.199461 0
M  V30 1889 H 175.008 -1.89126 0.182011 0
M  V30 1890 H 173.158 -3.48279 -1.72146 0
M  V30 1891 H 174.83 -4.56661 0.652584 0
M  V30 1892 H 173.073 -4.284 0.682309 0
M  V30 1893 H 173.744 -5.50528 -0.402919 0
M  V30 1894 H 176.22 -3.89565 -1.46214 0
M  V30 1895 H 175.096 -4.96605 -2.33827 0
M  V30 1896 H 175.357 -3.32648 -2.91201 0
M  V30 1897 N 174.416 0.165178 -1.56732 0
M  V30 1898 C 175.662 0.882112 -1.82611 0
M  V30 1899 C 175.995 1.81628 -0.687378 0
M  V30 1900 O 175.27 1.92009 0.310267 0
M  V30 1901 C 175.553 1.67245 -3.18906 0
M  V30 1902 C 175.406 0.760987 -4.43316 0
M  V30 1903 C 176.725 2.63884 -3.52212 0
M  V30 1904 H 173.844 0.319242 -0.664269 0
M  V30 1905 H 176.486 0.148052 -1.89422 0
M  V30 1906 H 174.636 2.29824 -3.1323 0
M  V30 1907 H 176.308 0.147596 -4.61064 0
M  V30 1908 H 174.551 0.0694102 -4.33744 0
M  V30 1909 H 175.222 1.34962 -5.35247 0
M  V30 1910 H 177.698 2.11429 -3.58381 0
M  V30 1911 H 176.574 3.16245 -4.48643 0
M  V30 1912 H 176.835 3.44377 -2.77231 0
M  V30 1913 N 175.894 1.51508 0.433938 0
M  V30 1914 C 176.824 1.76016 1.53429 0
M  V30 1915 C 177.805 0.610112 1.58782 0
M  V30 1916 O 178.99 0.853177 1.74455 0
M  V30 1917 C 176.12 1.88831 2.9148 0
M  V30 1918 C 175.074 3.04288 3.00987 0
M  V30 1919 C 174.4 3.0229 4.4105 0
M  V30 1920 C 175.7 4.44193 2.74754 0
M  V30 1921 H 177.394 2.68152 1.33171 0
M  V30 1922 H 174.94 1.29035 0.639214 0
M  V30 1923 H 176.893 2.04559 3.6842 0
M  V30 1924 H 175.617 0.933455 3.12976 0
M  V30 1925 H 174.276 2.8827 2.26486 0
M  V30 1926 H 173.924 2.04576 4.59519 0
M  V30 1927 H 173.624 3.79822 4.4834 0
M  V30 1928 H 175.148 3.20116 5.1996 0
M  V30 1929 H 176.562 4.60544 3.41426 0
M  V30 1930 H 174.959 5.23457 2.9345 0
M  V30 1931 H 176.029 4.53996 1.70339 0
M  V30 1932 N 177.372 -0.689602 1.41712 0
M  V30 1933 C 178.597 -1.48329 1.44959 0
M  V30 1934 C 179.022 -1.8801 0.0581283 0
M  V30 1935 O 178.38 -1.55026 -0.940035 0
M  V30 1936 C 178.428 -2.71835 2.36935 0
M  V30 1937 O 177.532 -3.69549 1.8305 0
M  V30 1938 H 176.873 -0.446199 0.491734 0
M  V30 1939 H 179.403 -0.847127 1.86239 0
M  V30 1940 H 179.413 -3.20076 2.53013 0
M  V30 1941 H 178.088 -2.42291 3.38035 0
M  V30 1942 H 176.665 -3.2851 1.76452 0
M  V30 1943 N 178.85 -1.27639 -0.924453 0
M  V30 1944 C 179.78 -1.13166 -2.04244 0
M  V30 1945 C 180.761 -0.032256 -1.70069 0
M  V30 1946 O 181.946 -0.207328 -1.9309 0
M  V30 1947 C 179.076 -0.781496 -3.38393 0
M  V30 1948 C 178.03 -1.83449 -3.86692 0
M  V30 1949 C 177.356 -1.33822 -5.17683 0
M  V30 1950 C 178.656 -3.23917 -4.09726 0
M  V30 1951 H 180.35 -2.06689 -2.1661 0
M  V30 1952 H 177.896 -0.995136 -1.04082 0
M  V30 1953 H 179.849 -0.667057 -4.16087 0
M  V30 1954 H 178.573 0.189439 -3.2605 0
M  V30 1955 H 177.232 -1.93789 -3.11193 0
M  V30 1956 H 176.88 -0.35665 -5.01734 0
M  V30 1957 H 176.58 -2.04224 -5.50968 0
M  V30 1958 H 178.104 -1.23679 -5.97943 0
M  V30 1959 H 179.518 -3.16559 -4.77978 0
M  V30 1960 H 177.915 -3.92059 -4.54324 0
M  V30 1961 H 178.985 -3.68729 -3.14908 0
M  V30 1962 N 180.328 1.1314 -1.09713 0
M  V30 1963 C 181.258 2.20748 -0.761102 0
M  V30 1964 C 182.239 1.68061 0.262566 0
M  V30 1965 O 183.424 1.93765 0.129977 0
M  V30 1966 C 180.554 3.46812 -0.184054 0
M  V30 1967 C 179.508 4.12606 -1.13757 0
M  V30 1968 C 178.834 5.33031 -0.422083 0
M  V30 1969 C 180.134 4.59603 -2.48118 0
M  V30 1970 H 181.828 2.49113 -1.66082 0
M  V30 1971 H 179.374 1.19734 -0.799987 0
M  V30 1972 H 181.327 4.21353 0.0631215 0
M  V30 1973 H 180.051 3.17851 0.750868 0
M  V30 1974 H 178.71 3.40036 -1.37007 0
M  V30 1975 H 178.358 5.00335 0.517072 0
M  V30 1976 H 178.058 5.77999 -1.05788 0
M  V30 1977 H 179.582 6.10325 -0.183277 0
M  V30 1978 H 180.996 5.25552 -2.29059 0
M  V30 1979 H 179.393 5.15321 -3.07514 0
M  V30 1980 H 180.463 3.73971 -3.08665 0
M  V30 1981 N 181.806 0.884767 1.30421 0
M  V30 1982 C 182.769 0.356277 2.26414 0
M  V30 1983 C 183.769 -0.501124 1.52792 0
M  V30 1984 O 184.959 -0.30831 1.7145 0
M  V30 1985 C 182.091 -0.492316 3.37326 0
M  V30 1986 H 183.284 1.20389 2.74675 0
M  V30 1987 H 180.837 0.661607 1.41607 0
M  V30 1988 H 181.572 -1.36052 2.94381 0
M  V30 1989 H 181.357 0.121832 3.91911 0
M  V30 1990 H 182.847 -0.853871 4.08777 0
M  V30 1991 N 183.284 -1.43765 0.645699 0
M  V30 1992 C 184.532 -2.01499 0.155731 0
M  V30 1993 C 184.853 -1.51151 -1.232 0
M  V30 1994 O 184.123 -0.721044 -1.82148 0
M  V30 1995 H 182.703 -0.745003 0.0545817 0
M  V30 1996 H 185.365 -1.76075 0.835677 0
M  V30 1997 H 184.461 -3.1181 0.134577 0
M  V30 1998 N 184.763 -0.387143 -1.52771 0
M  V30 1999 C 186.009 0.196025 -2.0185 0
M  V30 2000 C 186.342 1.46641 -1.27319 0
M  V30 2001 O 185.617 1.90889 -0.373032 0
M  V30 2002 C 185.9 0.466136 -3.5707 0
M  V30 2003 C 185.753 -0.819385 -4.42274 0
M  V30 2004 C 187.072 1.25768 -4.21747 0
M  V30 2005 H 184.191 0.0697708 -0.73369 0
M  V30 2006 H 186.833 -0.516286 -1.82851 0
M  V30 2007 H 184.983 1.07293 -3.7339 0
M  V30 2008 H 186.655 -1.4563 -4.37709 0
M  V30 2009 H 184.898 -1.43517 -4.09372 0
M  V30 2010 H 185.569 -0.585065 -5.48891 0
M  V30 2011 H 188.045 0.744167 -4.09391 0
M  V30 2012 H 186.921 1.41541 -5.30337 0
M  V30 2013 H 187.182 2.27228 -3.79236 0
M  V30 2014 N 186.241 1.57166 -0.116904 0
M  V30 2015 C 187.171 2.18222 0.830759 0
M  V30 2016 C 188.152 1.12167 1.27877 0
M  V30 2017 O 189.337 1.40394 1.34176 0
M  V30 2018 C 186.467 2.77996 2.08172 0
M  V30 2019 C 185.421 3.89614 1.77157 0
M  V30 2020 C 184.747 4.36187 3.09265 0
M  V30 2021 C 186.047 5.1181 1.04151 0
M  V30 2022 H 187.741 2.97664 0.321992 0
M  V30 2023 H 185.287 1.4318 0.153434 0
M  V30 2024 H 187.24 3.19366 2.74924 0
M  V30 2025 H 185.964 1.9584 2.6137 0
M  V30 2026 H 184.623 3.48816 1.12796 0
M  V30 2027 H 184.271 3.50893 3.60393 0
M  V30 2028 H 183.971 5.11455 2.89288 0
M  V30 2029 H 185.495 4.80207 3.77139 0
M  V30 2030 H 186.909 5.50214 1.61052 0
M  V30 2031 H 185.306 5.92648 0.942762 0
M  V30 2032 H 186.376 4.84892 0.0279022 0
M  V30 2033 N 187.719 -0.156864 1.56817 0
M  V30 2034 C 188.965 -0.872416 1.83076 0
M  V30 2035 C 189.298 -1.81261 0.697001 0
M  V30 2036 O 188.573 -1.92171 -0.30008 0
M  V30 2037 C 188.856 -1.65551 3.19789 0
M  V30 2038 C 188.709 -0.737467 4.43713 0
M  V30 2039 C 190.028 -2.62012 3.53606 0
M  V30 2040 H 187.147 -0.315715 0.665953 0
M  V30 2041 H 189.789 -0.138004 1.89498 0
M  V30 2042 H 187.939 -2.28159 3.14445 0
M  V30 2043 H 189.611 -0.123143 4.61136 0
M  V30 2044 H 187.854 -0.0464067 4.33775 0
M  V30 2045 H 188.525 -1.32122 5.35955 0
M  V30 2046 H 191.001 -2.09525 3.59497 0
M  V30 2047 H 189.877 -3.13861 4.50314 0
M  V30 2048 H 190.138 -3.42902 2.79053 0
M  V30 2049 N 189.197 -1.51736 -0.425897 0
M  V30 2050 C 190.443 -1.66174 -1.17294 0
M  V30 2051 C 190.798 -0.37876 -1.88635 0
M  V30 2052 O 190.091 0.626021 -1.81084 0
M  V30 2053 C 190.285 -2.81103 -2.20717 0
M  V30 2054 C 190.114 -4.20453 -1.59529 0
M  V30 2055 C 188.884 -4.86225 -1.37525 0
M  V30 2056 C 191.082 -5.03146 -1.06528 0
M  V30 2057 N 189.064 -6.09657 -0.720537 0
M  V30 2058 C 190.435 -6.17674 -0.536506 0
M  V30 2059 C 192.49 -4.88594 -0.958127 0
M  V30 2060 C 191.193 -7.19245 0.0888917 0
M  V30 2061 C 193.219 -5.90383 -0.346608 0
M  V30 2062 C 192.581 -7.04191 0.171564 0
M  V30 2063 H 188.68 -0.661871 -0.416475 0
M  V30 2064 H 191.264 -1.88997 -0.467801 0
M  V30 2065 H 189.435 -2.59924 -2.88607 0
M  V30 2066 H 191.167 -2.84662 -2.87663 0
M  V30 2067 H 187.922 -4.44293 -1.64015 0
M  V30 2068 H 188.346 -6.75756 -0.410292 0
M  V30 2069 H 192.988 -4.0085 -1.34459 0
M  V30 2070 H 190.706 -8.06628 0.48746 0
M  V30 2071 H 194.292 -5.81194 -0.265451 0
M  V30 2072 H 193.172 -7.81606 0.637309 0
M  V30 2073 O 190.714 0.571711 -1.51042 0
M  V30 2074 H 191.405 1.22676 -1.49901 0
M  V30 END ATOM
M  V30 BEGIN BOND
M  V30 END BOND
M  V30 END CTAB
M  END
$$$$
