drugbank_target|P69488 Divalent-cation tolerance protein CutA (DB03975)
 OpenBabel12092120033D

  0  0  0     0  0            999 V3000
M  V30 BEGIN CTAB
M  V30 COUNTS 1729 1746 0 0 0
M  V30 BEGIN ATOM
M  V30 1 H -0.908 1.98254 -0.117106 0
M  V30 2 N 0 1.576 0 0
M  V30 3 C 0.933 2.03868 1.02534 0
M  V30 4 C 1.911 0.928543 1.3348 0
M  V30 5 O 3.095 1.19667 1.45644 0
M  V30 6 C 0.222 2.43627 2.35294 0
M  V30 7 C -0.732 3.65373 2.2001 0
M  V30 8 S 0.101 5.13292 1.52614 0
M  V30 9 C 1.257 5.56322 2.86805 0
M  V30 10 H 1.49 2.90518 0.631377 0
M  V30 11 H -0.977 1.52953 0.210867 0
M  V30 12 H 0.981 2.67203 3.11629 0
M  V30 13 H -0.358 1.57376 2.7183 0
M  V30 14 H -1.165 3.90944 3.18086 0
M  V30 15 H -1.563 3.418 1.51819 0
M  V30 16 H 0.729 5.58782 3.83104 0
M  V30 17 H 1.672 6.56266 2.65933 0
M  V30 18 H 2.08 4.83886 2.90714 0
M  V30 19 N 1.4781 -0.272755 1.55222 0
M  V30 20 C 2.4081 -1.34136 1.91127 0
M  V30 21 C 3.3891 -1.51513 0.773168 0
M  V30 22 O 4.5741 -1.64552 1.03132 0
M  V30 23 C 1.7041 -2.70083 2.1834 0
M  V30 24 C 0.6581 -2.67437 3.34158 0
M  V30 25 C -0.0159 -4.06938 3.46851 0
M  V30 26 C 1.2841 -2.26686 4.70543 0
M  V30 27 H 2.9781 -1.04333 2.80633 0
M  V30 28 H 0.5241 -0.500454 1.35024 0
M  V30 29 H 2.4771 -3.44952 2.42046 0
M  V30 30 H 1.2011 -3.01469 1.25634 0
M  V30 31 H -0.1399 -1.95026 3.1042 0
M  V30 32 H -0.4919 -4.35547 2.51611 0
M  V30 33 H -0.7919 -4.06062 4.2472 0
M  V30 34 H 0.7321 -4.83545 3.72849 0
M  V30 35 H 2.1461 -2.91277 4.93792 0
M  V30 36 H 0.5431 -2.36971 5.5133 0
M  V30 37 H 1.6131 -1.21818 4.69349 0
M  V30 38 N 2.9562 -1.48159 -0.537278 0
M  V30 39 C 4.2332 -1.46291 -1.29839 0
M  V30 40 C 4.6132 -0.170613 -2.10409 0
M  V30 41 O 3.9612 0.847746 -2.12192 0
M  V30 42 C 4.1712 -2.72055 -2.18603 0
M  V30 43 C 5.5192 -3.20087 -2.7898 0
M  V30 44 O 6.5432 -2.72921 -2.28894 0
M  V30 45 O 5.4022 -4.02138 -3.70064 0
M  V30 46 H 2.4962 -0.583906 -0.585647 0
M  V30 47 H 5.0422 -1.60384 -0.554534 0
M  V30 48 H 3.8142 -3.57628 -1.58801 0
M  V30 49 H 3.4372 -2.60646 -3.00249 0
M  V30 50 N 4.4343 0.785586 -1.36625 0
M  V30 51 C 5.3443 1.92964 -1.33425 0
M  V30 52 C 6.3603 1.72394 -0.235851 0
M  V30 53 O 7.5363 1.95866 -0.468878 0
M  V30 54 C 4.6013 3.27884 -1.12662 0
M  V30 55 C 3.6623 3.61204 -2.32013 0
M  V30 56 C 2.8953 4.89687 -2.12231 0
M  V30 57 O 3.1183 5.59704 -1.09945 0
M  V30 58 O 2.0523 5.21752 -3.00098 0
M  V30 59 H 5.8783 1.98613 -2.29753 0
M  V30 60 H 3.4633 0.926384 -1.17211 0
M  V30 61 H 5.3453 4.08614 -1.03016 0
M  V30 62 H 4.0203 3.23118 -0.193991 0
M  V30 63 H 2.9273 2.80765 -2.47228 0
M  V30 64 H 4.2603 3.70698 -3.23796 0
M  V30 65 N 5.9124 1.20967 1.01018 0
M  V30 66 C 6.8594 0.964281 2.09691 0
M  V30 67 C 7.8294 -0.107853 1.65749 0
M  V30 68 O 9.0144 0.0381987 1.90762 0
M  V30 69 C 6.1544 0.52943 3.41015 0
M  V30 70 C 5.2674 1.67043 3.98398 0
M  V30 71 C 4.4024 1.18525 5.17808 0
M  V30 72 C 3.4414 2.29892 5.67288 0
M  V30 73 N 2.5784 1.82546 6.77954 0
M  V30 74 H 7.4184 1.89463 2.30017 0
M  V30 75 H 4.9554 0.944289 1.1279 0
M  V30 76 H 6.9134 0.258588 4.16398 0
M  V30 77 H 5.5434 -0.363919 3.20742 0
M  V30 78 H 4.5954 2.05603 3.20049 0
M  V30 79 H 5.9074 2.50877 4.31117 0
M  V30 80 H 5.0614 0.870762 6.00419 0
M  V30 81 H 3.8004 0.316887 4.86669 0
M  V30 82 H 2.8054 2.6215 4.83278 0
M  V30 83 H 4.0304 3.17216 6.00459 0
M  V30 84 H 1.9764 0.980454 6.48632 0
M  V30 85 H 1.8934 2.59956 7.09901 0
M  V30 86 H 3.1614 1.54115 7.64113 0
M  V30 87 N 7.3905 -1.2043 1.01659 0
M  V30 88 C 8.6155 -1.94318 0.724942 0
M  V30 89 C 9.0405 -1.74266 -0.708034 0
M  V30 90 O 8.3985 -1.03694 -1.48719 0
M  V30 91 C 8.4465 -3.44486 1.06591 0
M  V30 92 O 7.5505 -4.12017 0.177599 0
M  V30 93 H 6.8915 -0.60708 0.26898 0
M  V30 94 H 9.4215 -1.52861 1.35995 0
M  V30 95 H 9.4315 -3.95106 1.01762 0
M  V30 96 H 8.1065 -3.58404 2.10997 0
M  V30 97 H 6.6835 -3.71821 0.283421 0
M  V30 98 N 8.8686 -0.792821 -1.36206 0
M  V30 99 C 10.0936 -0.377701 -2.03932 0
M  V30 100 C 10.5186 0.998947 -1.59382 0
M  V30 101 O 9.8766 1.64421 -0.763903 0
M  V30 102 C 9.9246 -0.453635 -3.57735 0
M  V30 103 O 9.0286 0.538151 -4.08874 0
M  V30 104 H 8.3696 -0.159855 -0.644471 0
M  V30 105 H 10.8996 -1.07488 -1.7409 0
M  V30 106 H 10.9096 -0.318464 -4.06755 0
M  V30 107 H 9.5846 -1.45784 -3.89512 0
M  V30 108 H 8.1616 0.364359 -3.71116 0
M  V30 109 N 10.3467 1.47872 -0.545128 0
M  V30 110 C 11.2947 2.31533 0.222512 0
M  V30 111 C 12.2887 1.42177 0.920985 0
M  V30 112 O 13.4947 1.59005 0.843645 0
M  V30 113 H 9.8697 0.746519 0.0906278 0
M  V30 114 H 11.8407 2.94139 -0.50246 0
M  V30 115 C 10.5897 3.2457 1.24699 0
M  V30 116 H 9.9127 3.93283 0.718944 0
M  V30 117 H 11.3527 3.85963 1.75523 0
M  V30 118 C 9.8117 2.47237 2.28856 0
M  V30 119 O 10.3417 2.20808 3.35569 0
M  V30 120 N 8.5477 2.08461 2.02466 0
M  V30 121 H 8.0947 2.30155 1.157 0
M  V30 122 H 8.0527 1.57033 2.72375 0
M  V30 123 N 11.8248 0.280983 1.55075 0
M  V30 124 C 13.0528 -0.337293 2.04132 0
M  V30 125 C 13.4678 -1.4903 1.15912 0
M  V30 126 O 12.8248 -1.81606 0.180459 0
M  V30 127 C 12.8758 -0.812706 3.52246 0
M  V30 128 O 12.5968 0.294387 4.3711 0
M  V30 129 C 14.0978 -1.4982 4.17216 0
M  V30 130 H 11.3178 -0.0761638 0.666663 0
M  V30 131 H 13.8618 0.414787 2.00249 0
M  V30 132 H 12.0168 -1.51486 3.56554 0
M  V30 133 H 12.4308 -0.0721325 5.2445 0
M  V30 134 H 13.9048 -1.7822 5.22438 0
M  V30 135 H 14.3818 -2.43168 3.65741 0
M  V30 136 H 14.9878 -0.839742 4.16927 0
M  V30 137 N 13.3029 -1.57598 0.00835791 0
M  V30 138 C 14.2659 -2.07884 -0.965242 0
M  V30 139 C 15.2659 -0.989825 -1.26725 0
M  V30 140 O 16.4559 -1.25218 -1.21104 0
M  V30 141 C 13.5879 -2.52731 -2.28779 0
M  V30 142 H 14.7809 -2.95178 -0.530112 0
M  V30 143 H 12.3339 -1.54458 -0.239283 0
M  V30 144 H 13.0689 -1.68705 -2.76964 0
M  V30 145 H 12.8539 -3.32272 -2.08177 0
M  V30 146 H 14.3439 -2.91933 -2.98605 0
M  V30 147 N 14.781 0.264519 -1.55364 0
M  V30 148 C 16.006 1.01726 -1.80739 0
M  V30 149 C 16.431 1.78836 -0.583044 0
M  V30 150 O 15.789 1.75167 0.467566 0
M  V30 151 C 15.837 1.94482 -3.03659 0
M  V30 152 O 14.941 3.03386 -2.7934 0
M  V30 153 H 14.282 0.290395 -0.597132 0
M  V30 154 H 16.812 0.290854 -2.02522 0
M  V30 155 H 16.822 2.36278 -3.32621 0
M  V30 156 H 15.497 1.37772 -3.92418 0
M  V30 157 H 14.074 2.65844 -2.61498 0
M  V30 158 N 16.2591 1.48442 0.529413 0
M  V30 159 C 17.5051 1.5672 1.28711 0
M  V30 160 C 17.8381 0.2406 1.92704 0
M  V30 161 O 17.1131 -0.753454 1.79313 0
M  V30 162 C 17.3961 2.70587 2.37603 0
M  V30 163 C 17.2491 4.12953 1.78297 0
M  V30 164 C 18.5681 2.80212 3.39366 0
M  V30 165 H 15.6871 0.570474 0.466613 0
M  V30 166 H 18.3291 1.80617 0.589706 0
M  V30 167 H 16.4791 2.50342 2.97088 0
M  V30 168 H 18.1511 4.44639 1.22858 0
M  V30 169 H 16.3941 4.19927 1.0883 0
M  V30 170 H 17.0651 4.88448 2.57144 0
M  V30 171 H 19.5411 2.98553 2.89836 0
M  V30 172 H 18.4171 3.61611 4.12951 0
M  V30 173 H 18.6781 1.88393 3.99951 0
M  V30 174 N 17.7372 -0.778329 1.37039 0
M  V30 175 C 18.9832 -1.53892 1.32079 0
M  V30 176 C 19.3162 -1.9396 -0.0965386 0
M  V30 177 O 18.5912 -1.63568 -1.05242 0
M  V30 178 C 18.8742 -2.80847 2.25382 0
M  V30 179 C 18.7272 -2.47076 3.75864 0
M  V30 180 C 20.0462 -3.82741 2.1725 0
M  V30 181 H 17.1652 -0.558303 0.48111 0
M  V30 182 H 19.8072 -0.893397 1.67685 0
M  V30 183 H 17.9572 -3.35931 1.95148 0
M  V30 184 H 19.6292 -1.97957 4.16666 0
M  V30 185 H 17.8722 -1.79863 3.94755 0
M  V30 186 H 18.5432 -3.37798 4.36574 0
M  V30 187 H 21.0192 -3.37133 2.43887 0
M  V30 188 H 19.8952 -4.69303 2.84686 0
M  V30 189 H 20.1562 -4.2652 1.16331 0
M  V30 190 N 19.2153 -1.21501 -1.00376 0
M  V30 191 C 20.4613 -1.03452 -1.74429 0
M  V30 192 C 20.7943 0.430764 -1.89362 0
M  V30 193 O 20.0693 1.31962 -1.42886 0
M  V30 194 C 20.3523 -1.73375 -3.15615 0
M  V30 195 C 20.2053 -3.27431 -3.08397 0
M  V30 196 C 21.5243 -1.47732 -4.14564 0
M  V30 197 H 18.6433 -0.377226 -0.633143 0
M  V30 198 H 21.2853 -1.49693 -1.17013 0
M  V30 199 H 19.4353 -1.34064 -3.64636 0
M  V30 200 H 21.1073 -3.76119 -2.67081 0
M  V30 201 H 19.3503 -3.5767 -2.45468 0
M  V30 202 H 20.0213 -3.71524 -4.08258 0
M  V30 203 H 22.4973 -1.8186 -3.74254 0
M  V30 204 H 21.3733 -1.99169 -5.11491 0
M  V30 205 H 21.6343 -0.407589 -4.40217 0
M  V30 206 N 20.6934 1.19889 -1.02296 0
M  V30 207 C 21.6234 2.25141 -0.619174 0
M  V30 208 C 22.6044 1.66051 0.368915 0
M  V30 209 O 23.7894 1.92546 0.252941 0
M  V30 210 C 20.9194 3.4728 0.0368783 0
M  V30 211 C 19.8734 4.19005 -0.872865 0
M  V30 212 C 19.1994 5.34637 -0.0822402 0
M  V30 213 C 20.4994 4.74452 -2.18387 0
M  V30 214 H 22.1934 2.59171 -1.49903 0
M  V30 215 H 19.7394 1.24579 -0.722222 0
M  V30 216 H 21.6924 4.20098 0.330958 0
M  V30 217 H 20.4164 3.12433 0.95149 0
M  V30 218 H 19.0754 3.48061 -1.15105 0
M  V30 219 H 18.7234 4.96034 0.83422 0
M  V30 220 H 18.4234 5.83557 -0.688149 0
M  V30 221 H 19.9474 6.10255 0.205238 0
M  V30 222 H 21.3614 5.39055 -1.95172 0
M  V30 223 H 19.7584 5.33834 -2.74119 0
M  V30 224 H 20.8284 3.92844 -2.84257 0
M  V30 225 N 22.1715 0.800033 1.35784 0
M  V30 226 C 23.4115 0.382891 2.00782 0
M  V30 227 C 23.7755 -1.02891 1.62103 0
M  V30 228 O 24.9765 -1.54771 2.19771 0
M  V30 229 C 23.2475 0.553299 3.53091 0
M  V30 230 S 24.8065 0.225608 4.3822 0
M  V30 231 H 21.6245 0.145737 0.695904 0
M  V30 232 H 24.2265 1.04085 1.65489 0
M  V30 233 H 22.9305 1.58091 3.78729 0
M  V30 234 H 22.4615 -0.120214 3.93216 0
M  V30 235 H 24.4765 -0.969074 4.86645 0
M  V30 236 N 23.6496 -1.47581 0.552962 0
M  V30 237 C 24.8776 -2.06875 0.0320556 0
M  V30 238 C 25.2926 -1.40625 -1.25976 0
M  V30 239 O 24.6496 -0.501349 -1.75479 0
M  V30 240 C 24.7006 -3.61092 -0.17167 0
M  V30 241 O 24.4216 -4.24858 1.06899 0
M  V30 242 C 25.9226 -4.37242 -0.730344 0
M  V30 243 H 23.1426 -0.669561 0.043915 0
M  V30 244 H 25.6866 -1.89646 0.765163 0
M  V30 245 H 23.8416 -3.7785 -0.854894 0
M  V30 246 H 24.2556 -5.17334 0.864059 0
M  V30 247 H 25.7296 -5.45842 -0.822203 0
M  V30 248 H 26.2066 -4.03235 -1.74064 0
M  V30 249 H 26.8126 -4.25219 -0.0829543 0
M  V30 250 N 25.1277 -0.289203 -1.54924 0
M  V30 251 C 26.0907 0.579144 -2.21762 0
M  V30 252 C 27.0907 1.07047 -1.1999 0
M  V30 253 O 28.2807 0.968384 -1.44803 0
M  V30 254 C 25.4127 1.80055 -2.8947 0
M  V30 255 H 26.6057 -0.00464908 -2.999 0
M  V30 256 H 24.1587 -0.0399306 -1.56249 0
M  V30 257 H 24.8937 2.42449 -2.15381 0
M  V30 258 H 24.6787 1.45602 -3.64064 0
M  V30 259 H 26.1687 2.41773 -3.40493 0
M  V30 260 N 26.6058 1.57591 -0.0167156 0
M  V30 261 C 28.0168 1.79201 0.523834 0
M  V30 262 C 28.3678 0.925796 1.72984 0
M  V30 263 O 27.4928 0.132792 2.15992 0
M  V30 264 C 28.0878 3.25 0.957091 0
M  V30 265 C 26.6468 3.47648 1.44283 0
M  V30 266 C 25.7938 2.74374 0.401757 0
M  V30 267 H 28.7448 1.56831 -0.242816 0
M  V30 268 H 28.7658 3.34031 1.82219 0
M  V30 269 H 28.2778 3.88019 0.0791415 0
M  V30 270 H 26.3788 2.89866 2.34113 0
M  V30 271 H 26.4918 4.56352 1.45877 0
M  V30 272 H 24.8558 2.39485 0.867121 0
M  V30 273 H 25.6388 3.40102 -0.467513 0
M  V30 274 N 28.0839 -0.256276 1.55502 0
M  V30 275 C 29.3609 -1.00789 1.67633 0
M  V30 276 C 29.7409 -2.03706 0.553826 0
M  V30 277 O 29.0889 -2.24145 -0.443969 0
M  V30 278 C 29.2989 -1.64968 3.07549 0
M  V30 279 C 30.6469 -2.15505 3.65845 0
M  V30 280 O 31.6709 -1.74925 3.1029 0
M  V30 281 O 30.5299 -2.89986 4.63217 0
M  V30 282 H 27.6239 -0.468553 0.681459 0
M  V30 283 H 30.1699 -0.250806 1.67836 0
M  V30 284 H 28.9419 -0.904785 3.80696 0
M  V30 285 H 28.5649 -2.47321 3.11317 0
M  V30 286 N 29.562 -1.4872 -0.521534 0
M  V30 287 C 30.472 -1.66569 -1.65203 0
M  V30 288 C 31.488 -0.548197 -1.65139 0
M  V30 289 O 32.664 -0.820339 -1.83936 0
M  V30 290 C 29.729 -1.70917 -3.01642 0
M  V30 291 C 28.79 -2.94356 -3.12495 0
M  V30 292 C 28.023 -2.98487 -4.42426 0
M  V30 293 O 28.246 -2.10786 -5.30024 0
M  V30 294 O 27.18 -3.90746 -4.57822 0
M  V30 295 H 31.006 -2.62298 -1.5308 0
M  V30 296 H 28.591 -1.3222 -0.695565 0
M  V30 297 H 30.473 -1.7625 -3.82771 0
M  V30 298 H 29.148 -0.783633 -3.14071 0
M  V30 299 H 28.055 -2.94552 -2.3063 0
M  V30 300 H 29.388 -3.86322 -3.04986 0
M  V30 301 N 31.0401 0.771051 -1.3745 0
M  V30 302 C 32.0031 1.86598 -1.33093 0
M  V30 303 C 33.0031 1.59076 -0.234845 0
M  V30 304 O 34.1931 1.67145 -0.490732 0
M  V30 305 C 31.3251 3.23747 -1.06773 0
M  V30 306 H 32.5181 1.91873 -2.30488 0
M  V30 307 H 30.0711 0.970876 -1.2249 0
M  V30 308 H 30.8061 3.24148 -0.099129 0
M  V30 309 H 30.5911 3.45115 -1.86112 0
M  V30 310 H 32.0811 4.03824 -1.06377 0
M  V30 311 N 32.5182 1.22032 0.997298 0
M  V30 312 C 33.7462 1.06841 1.7718 0
M  V30 313 C 34.1612 -0.381325 1.84909 0
M  V30 314 O 33.5182 -1.26437 1.31605 0
M  V30 315 C 33.5692 1.66814 3.20711 0
M  V30 316 O 33.2902 3.06116 3.13408 0
M  V30 317 C 34.7912 1.56838 4.14628 0
M  V30 318 H 32.0112 0.374782 0.556578 0
M  V30 319 H 34.5552 1.61532 1.2541 0
M  V30 320 H 32.7102 1.16196 3.69564 0
M  V30 321 H 33.1242 3.34926 4.0364 0
M  V30 322 H 34.5982 2.03532 5.13107 0
M  V30 323 H 35.0752 0.524155 4.36061 0
M  V30 324 H 35.6812 2.06741 3.7167 0
M  V30 325 N 33.9963 -1.19345 1.0293 0
M  V30 326 C 34.9593 -2.20793 0.615069 0
M  V30 327 C 35.9593 -1.57553 -0.321533 0
M  V30 328 O 37.1493 -1.73862 -0.108483 0
M  V30 329 C 34.2813 -3.40754 -0.0999222 0
M  V30 330 H 35.4743 -2.58955 1.51269 0
M  V30 331 H 33.0273 -1.3303 0.820534 0
M  V30 332 H 33.7623 -3.0811 -1.01187 0
M  V30 333 H 33.5473 -3.87889 0.57309 0
M  V30 334 H 35.0373 -4.15898 -0.376645 0
M  V30 335 N 35.4744 -0.807222 -1.35358 0
M  V30 336 C 36.4064 -0.175717 -2.28525 0
M  V30 337 C 37.4194 0.625354 -1.5031 0
M  V30 338 O 38.6084 0.457611 -1.72535 0
M  V30 339 C 35.7084 0.773471 -3.29956 0
M  V30 340 C 34.8814 0.0186296 -4.37396 0
M  V30 341 C 33.9404 0.886395 -5.18681 0
M  V30 342 O 32.9664 0.337106 -5.68201 0
M  V30 343 N 34.1684 2.20839 -5.36852 0
M  V30 344 H 36.9334 -0.976091 -2.83359 0
M  V30 345 H 34.4944 -0.662737 -1.47714 0
M  V30 346 H 36.4864 1.35824 -3.81227 0
M  V30 347 H 35.0564 1.47465 -2.75632 0
M  V30 348 H 34.2764 -0.747349 -3.87051 0
M  V30 349 H 35.5644 -0.501577 -5.06322 0
M  V30 350 H 34.9624 2.67858 -4.98265 0
M  V30 351 H 33.5194 2.74237 -5.91301 0
M  V30 352 N 36.9525 1.47285 -0.560781 0
M  V30 353 C 38.2295 1.9558 0.0277798 0
M  V30 354 C 38.6095 1.5034 1.48192 0
M  V30 355 O 37.9575 0.743882 2.16052 0
M  V30 356 C 38.1675 3.48789 -0.121418 0
M  V30 357 C 39.5155 4.24594 0.0220912 0
M  V30 358 O 40.5395 3.56166 -0.0491439 0
M  V30 359 O 39.3985 5.46217 0.175958 0
M  V30 360 H 36.4925 0.824663 0.0621342 0
M  V30 361 H 39.0385 1.5767 -0.627556 0
M  V30 362 H 37.8105 3.74533 -1.13316 0
M  V30 363 H 37.4335 3.93473 0.571366 0
M  V30 364 N 38.4306 0.297415 1.54768 0
M  V30 365 C 39.3606 -0.573494 2.26348 0
M  V30 366 C 40.3416 -1.14085 1.26169 0
M  V30 367 O 41.5266 -1.17086 1.54934 0
M  V30 368 C 38.6566 -1.74716 3.00153 0
M  V30 369 C 37.6106 -1.31032 4.07449 0
M  V30 370 C 36.9366 -2.56887 4.68949 0
M  V30 371 C 38.2366 -0.444183 5.20408 0
M  V30 372 H 39.9306 0.0235131 2.99391 0
M  V30 373 H 37.4766 0.0127488 1.43994 0
M  V30 374 H 39.4296 -2.3625 3.48947 0
M  V30 375 H 38.1536 -2.37035 2.24682 0
M  V30 376 H 36.8126 -0.718066 3.59499 0
M  V30 377 H 36.4606 -3.17512 3.90122 0
M  V30 378 H 36.1606 -2.2836 5.41411 0
M  V30 379 H 37.6846 -3.19229 5.20505 0
M  V30 380 H 39.0986 -0.9651 5.65118 0
M  V30 381 H 37.4956 -0.252846 5.99567 0
M  V30 382 H 38.5656 0.531609 4.81977 0
M  V30 383 N 39.9087 -1.5758 0.0250728 0
M  V30 384 C 40.8717 -2.08896 -0.943139 0
M  V30 385 C 41.8717 -1.00321 -1.25668 0
M  V30 386 O 43.0617 -1.26495 -1.19769 0
M  V30 387 C 40.1937 -2.55143 -2.26086 0
M  V30 388 H 41.3867 -2.95723 -0.498775 0
M  V30 389 H 38.9397 -1.54703 -0.222888 0
M  V30 390 H 39.6747 -1.71633 -2.75159 0
M  V30 391 H 39.4597 -3.34461 -2.04641 0
M  V30 392 H 40.9497 -2.95083 -2.95492 0
M  V30 393 N 41.3868 0.248026 -1.55636 0
M  V30 394 C 42.3498 1.29044 -1.89421 0
M  V30 395 C 43.3498 1.41134 -0.770581 0
M  V30 396 O 44.5398 1.39854 -1.03858 0
M  V30 397 C 41.6718 2.66831 -2.12165 0
M  V30 398 H 42.8648 1.00305 -2.82629 0
M  V30 399 H 40.4178 0.487265 -1.48511 0
M  V30 400 H 41.1528 3.00711 -1.21422 0
M  V30 401 H 40.9378 2.59438 -2.93997 0
M  V30 402 H 42.4278 3.42103 -2.3949 0
M  V30 403 N 42.8649 1.48995 0.513639 0
M  V30 404 C 43.8119 1.6473 1.61656 0
M  V30 405 C 44.7819 0.488984 1.58739 0
M  V30 406 O 45.9669 0.714478 1.76918 0
M  V30 407 C 43.1069 1.7082 2.99858 0
M  V30 408 C 42.2199 2.9787 3.12885 0
M  V30 409 C 41.3549 2.95017 4.41744 0
M  V30 410 C 40.3939 4.16702 4.48359 0
M  V30 411 N 39.5309 4.11832 5.68629 0
M  V30 412 H 44.3709 2.58909 1.47547 0
M  V30 413 H 41.9079 1.28382 0.71808 0
M  V30 414 H 43.8659 1.72331 3.79944 0
M  V30 415 H 42.4959 0.801181 3.12699 0
M  V30 416 H 41.5479 3.06029 2.25944 0
M  V30 417 H 42.8599 3.8786 3.13633 0
M  V30 418 H 42.0139 2.95021 5.30139 0
M  V30 419 H 40.7529 2.02784 4.43542 0
M  V30 420 H 39.7579 4.16955 3.58369 0
M  V30 421 H 40.9829 5.10113 4.48287 0
M  V30 422 H 38.9289 3.22428 5.71293 0
M  V30 423 H 38.8459 4.95543 5.7094 0
M  V30 424 H 40.1139 4.1592 6.59266 0
M  V30 425 N 44.343 -0.763751 1.37857 0
M  V30 426 C 45.589 -1.52483 1.33704 0
M  V30 427 C 45.922 -1.94051 -0.0759612 0
M  V30 428 O 45.197 -1.64675 -1.03501 0
M  V30 429 C 45.48 -2.78441 2.28348 0
M  V30 430 C 45.333 -2.43075 3.78463 0
M  V30 431 C 46.652 -3.80415 2.21298 0
M  V30 432 H 43.771 -0.553169 0.487005 0
M  V30 433 H 46.413 -0.875562 1.68624 0
M  V30 434 H 44.563 -3.33842 1.987 0
M  V30 435 H 46.235 -1.93527 4.18742 0
M  V30 436 H 44.478 -1.75666 3.96641 0
M  V30 437 H 45.149 -3.33149 4.40132 0
M  V30 438 H 47.625 -3.34527 2.47449 0
M  V30 439 H 46.501 -4.66257 2.89647 0
M  V30 440 H 46.762 -4.25262 1.20849 0
M  V30 441 N 45.8211 -1.22559 -0.990812 0
M  V30 442 C 46.7511 -1.0218 -2.09956 0
M  V30 443 C 47.7321 0.0579394 -1.70001 0
M  V30 444 O 48.9171 -0.104684 -1.93918 0
M  V30 445 C 46.0471 -0.601023 -3.4206 0
M  V30 446 C 45.0011 -1.62694 -3.95872 0
M  V30 447 C 44.3271 -1.06193 -5.24049 0
M  V30 448 C 45.6271 -3.01743 -4.2632 0
M  V30 449 H 47.3211 -1.94916 -2.27262 0
M  V30 450 H 44.8671 -0.938566 -1.09211 0
M  V30 451 H 46.8201 -0.445561 -4.19038 0
M  V30 452 H 45.5441 0.362005 -3.24588 0
M  V30 453 H 44.2031 -1.77021 -3.21028 0
M  V30 454 H 43.8511 -0.0901903 -5.02919 0
M  V30 455 H 43.5511 -1.74732 -5.61019 0
M  V30 456 H 45.0751 -0.918092 -6.03658 0
M  V30 457 H 46.4891 -2.90777 -4.94087 0
M  V30 458 H 44.8861 -3.67425 -4.74467 0
M  V30 459 H 45.9561 -3.51518 -3.34011 0
M  V30 460 N 47.2992 1.18797 -1.03562 0
M  V30 461 C 48.2622 2.20464 -0.626769 0
M  V30 462 C 49.2622 1.57721 0.313173 0
M  V30 463 O 50.4522 1.73917 0.0992615 0
M  V30 464 C 47.5842 3.40802 0.0818498 0
M  V30 465 H 48.7772 2.58149 -1.5264 0
M  V30 466 H 46.3302 1.32593 -0.827578 0
M  V30 467 H 47.0652 3.08642 0.995518 0
M  V30 468 H 46.8502 3.8758 -0.593652 0
M  V30 469 H 48.3402 4.16092 0.354584 0
M  V30 470 N 48.7773 0.814389 1.34928 0
M  V30 471 C 49.6873 0.231978 2.3345 0
M  V30 472 C 50.7033 -0.629139 1.62228 0
M  V30 473 O 51.8793 -0.539052 1.94052 0
M  V30 474 C 48.9443 -0.603482 3.41407 0
M  V30 475 C 48.0053 0.279037 4.28392 0
M  V30 476 C 47.2383 -0.516643 5.31193 0
M  V30 477 O 47.4613 -1.75068 5.4287 0
M  V30 478 O 46.3953 0.0965652 6.01823 0
M  V30 479 H 50.2213 1.04721 2.85074 0
M  V30 480 H 47.8063 0.576343 1.37836 0
M  V30 481 H 49.6883 -1.07908 4.0735 0
M  V30 482 H 48.3633 -1.39618 2.92042 0
M  V30 483 H 47.2703 0.801948 3.65403 0
M  V30 484 H 48.6033 1.03588 4.81176 0
M  V30 485 N 50.2554 -1.46986 0.568584 0
M  V30 486 C 51.2024 -2.30153 -0.172707 0
M  V30 487 C 52.1724 -1.39759 -0.897586 0
M  V30 488 O 53.3574 -1.68716 -0.891044 0
M  V30 489 C 50.4974 -3.23952 -1.1895 0
M  V30 490 C 49.6104 -4.29441 -0.469517 0
M  V30 491 C 48.7454 -5.1038 -1.47259 0
M  V30 492 C 47.7844 -6.07632 -0.738225 0
M  V30 493 N 46.9214 -6.8149 -1.68868 0
M  V30 494 H 51.7614 -2.93019 0.542596 0
M  V30 495 H 49.2984 -1.44422 0.279401 0
M  V30 496 H 51.2564 -3.76767 -1.79173 0
M  V30 497 H 49.8864 -2.62926 -1.87269 0
M  V30 498 H 48.9384 -3.79594 0.247467 0
M  V30 499 H 50.2504 -4.98689 0.105241 0
M  V30 500 H 49.4044 -5.67402 -2.14803 0
M  V30 501 H 48.1434 -4.4106 -2.08128 0
M  V30 502 H 47.1484 -5.49778 -0.0489293 0
M  V30 503 H 48.3734 -6.78966 -0.135129 0
M  V30 504 H 46.3194 -6.14891 -2.28573 0
M  V30 505 H 46.2364 -7.46948 -1.16636 0
M  V30 506 H 47.5044 -7.43078 -2.3549 0
M  V30 507 N 51.7335 -0.305618 -1.54608 0
M  V30 508 C 52.6635 0.561482 -2.26649 0
M  V30 509 C 53.6445 1.13415 -1.26772 0
M  V30 510 O 54.8295 1.16262 -1.55553 0
M  V30 511 C 51.9595 1.73122 -3.01075 0
M  V30 512 C 50.9135 1.2887 -4.08138 0
M  V30 513 C 50.2395 2.54396 -4.70305 0
M  V30 514 C 51.5395 0.416578 -5.20636 0
M  V30 515 H 53.2335 -0.0393902 -2.99374 0
M  V30 516 H 50.7795 -0.020385 -1.43986 0
M  V30 517 H 52.7325 2.34396 -3.50195 0
M  V30 518 H 51.4565 2.3584 -2.25936 0
M  V30 519 H 50.1155 0.698991 -3.59875 0
M  V30 520 H 49.7635 3.15439 -3.918 0
M  V30 521 H 49.4635 2.25486 -5.42614 0
M  V30 522 H 50.9875 3.16464 -5.2219 0
M  V30 523 H 52.4015 0.935116 -5.65622 0
M  V30 524 H 50.7985 0.221046 -5.99693 0
M  V30 525 H 51.8685 -0.557162 -4.81688 0
M  V30 526 N 53.2116 1.57565 -0.0334293 0
M  V30 527 C 54.1746 2.09393 0.932048 0
M  V30 528 C 55.1746 1.00986 1.25134 0
M  V30 529 O 56.3646 1.27129 1.19096 0
M  V30 530 C 53.4966 2.56338 2.2473 0
M  V30 531 H 54.6896 2.95984 0.483085 0
M  V30 532 H 52.2426 1.54819 0.21468 0
M  V30 533 H 52.9776 1.7309 2.74245 0
M  V30 534 H 52.7626 3.35542 2.02865 0
M  V30 535 H 54.2526 2.96646 2.93923 0
M  V30 536 N 54.6897 -0.239769 1.55765 0
M  V30 537 C 55.6527 -1.28038 1.90103 0
M  V30 538 C 56.6527 -1.40723 0.778055 0
M  V30 539 O 57.8427 -1.39301 1.04599 0
M  V30 540 C 54.9747 -2.65702 2.13577 0
M  V30 541 H 56.1677 -0.988048 2.83157 0
M  V30 542 H 53.7207 -0.479382 1.48767 0
M  V30 543 H 54.4557 -3.00063 1.23015 0
M  V30 544 H 54.2407 -2.57875 2.95369 0
M  V30 545 H 55.7307 -3.40828 2.41301 0
M  V30 546 N 56.1678 -1.49265 -0.50573 0
M  V30 547 C 57.4078 -1.60128 -1.27038 0
M  V30 548 C 57.7718 -0.279557 -1.89954 0
M  V30 549 O 58.9728 -0.263329 -2.67507 0
M  V30 550 C 57.2438 -2.72507 -2.31246 0
M  V30 551 S 58.8028 -3.0329 -3.17113 0
M  V30 552 H 55.6208 -0.564863 -0.4318 0
M  V30 553 H 58.2228 -1.86902 -0.573397 0
M  V30 554 H 56.9268 -3.67068 -1.83546 0
M  V30 555 H 56.4578 -2.4771 -3.05619 0
M  V30 556 H 58.4728 -2.44448 -4.31809 0
M  V30 557 N 57.6459 0.756429 -1.3826 0
M  V30 558 C 58.6089 1.85176 -1.35065 0
M  V30 559 C 59.6089 1.58818 -0.251703 0
M  V30 560 O 60.7989 1.66615 -0.508433 0
M  V30 561 C 57.9309 3.22596 -1.10201 0
M  V30 562 H 59.1239 1.89417 -2.3251 0
M  V30 563 H 56.6769 0.95783 -1.23512 0
M  V30 564 H 57.4119 3.24025 -0.133504 0
M  V30 565 H 57.1969 3.43122 -1.89762 0
M  V30 566 H 58.6869 4.02673 -1.10654 0
M  V30 567 N 59.124 1.23083 0.984299 0
M  V30 568 C 60.352 1.08714 1.76037 0
M  V30 569 C 60.767 -0.361691 1.85303 0
M  V30 570 O 60.124 -1.25034 1.32939 0
M  V30 571 C 60.175 1.70206 3.18923 0
M  V30 572 O 59.896 3.09423 3.10144 0
M  V30 573 C 61.397 1.61227 4.12941 0
M  V30 574 H 58.617 0.380664 0.552572 0
M  V30 575 H 61.161 1.62853 1.23689 0
M  V30 576 H 59.316 1.20109 3.6831 0
M  V30 577 H 59.73 3.39188 4.00065 0
M  V30 578 H 61.204 2.08962 5.10919 0
M  V30 579 H 61.681 0.570375 4.35481 0
M  V30 580 H 62.287 2.10671 3.69456 0
M  V30 581 N 60.6021 -1.18246 1.0419 0
M  V30 582 C 61.5321 -2.24127 0.654914 0
M  V30 583 C 62.5131 -1.66617 -0.342451 0
M  V30 584 O 63.6981 -1.92924 -0.222277 0
M  V30 585 C 60.8281 -3.47295 0.0183757 0
M  V30 586 C 59.7821 -4.17563 0.939414 0
M  V30 587 C 59.1081 -5.34438 0.167286 0
M  V30 588 C 60.4081 -4.70917 2.25908 0
M  V30 589 H 62.1021 -2.56753 1.54007 0
M  V30 590 H 59.6481 -1.23414 0.74195 0
M  V30 591 H 61.6011 -4.20572 -0.264082 0
M  V30 592 H 60.3251 -3.13907 -0.901664 0
M  V30 593 H 58.9841 -3.46186 1.20628 0
M  V30 594 H 58.6321 -4.97298 -0.7552 0
M  V30 595 H 58.3321 -5.82388 0.780901 0
M  V30 596 H 59.8561 -6.10504 -0.108125 0
M  V30 597 H 61.2701 -5.35882 2.03724 0
M  V30 598 H 59.6671 -5.29406 2.82577 0
M  V30 599 H 60.7371 -3.88272 2.9047 0
M  V30 600 N 62.0802 -0.821533 -1.34494 0
M  V30 601 C 63.3292 -0.405355 -1.97585 0
M  V30 602 C 63.6422 1.03677 -1.65863 0
M  V30 603 O 64.8482 1.55679 -2.22433 0
M  V30 604 C 63.3042 -0.673861 -3.53535 0
M  V30 605 C 62.9122 -2.12951 -3.94152 0
M  V30 606 C 64.6562 -0.32378 -4.23263 0
M  V30 607 C 62.5632 -2.34298 -5.43009 0
M  V30 608 H 61.4932 -0.147836 -0.739365 0
M  V30 609 H 64.1442 -1.00769 -1.53355 0
M  V30 610 H 62.5262 -0.00137554 -3.96 0
M  V30 611 H 63.7002 -2.84104 -3.62797 0
M  V30 612 H 62.0152 -2.44089 -3.37356 0
M  V30 613 H 64.6122 -0.461126 -5.32708 0
M  V30 614 H 64.9552 0.731586 -4.09821 0
M  V30 615 H 65.4882 -0.950786 -3.8627 0
M  V30 616 H 62.2272 -3.38335 -5.61435 0
M  V30 617 H 61.7472 -1.67687 -5.75883 0
M  V30 618 H 63.4262 -2.16588 -6.09671 0
M  V30 619 N 63.5583 1.46682 -0.576371 0
M  V30 620 C 64.9693 1.86112 -0.148091 0
M  V30 621 C 65.3203 1.48073 1.2872 0
M  V30 622 O 64.4453 0.892656 1.97131 0
M  V30 623 C 65.0403 3.37786 -0.261982 0
M  V30 624 C 63.5993 3.76235 0.111384 0
M  V30 625 C 62.7463 2.70713 -0.60083 0
M  V30 626 H 65.6973 1.37927 -0.78497 0
M  V30 627 H 65.7183 3.77007 0.514364 0
M  V30 628 H 65.2303 3.6544 -1.30671 0
M  V30 629 H 63.3313 3.54198 1.15649 0
M  V30 630 H 63.4443 4.78391 -0.26052 0
M  V30 631 H 61.8083 2.54666 -0.0417783 0
M  V30 632 H 62.5913 3.01208 -1.64708 0
M  V30 633 N 65.0364 0.313813 1.54444 0
M  V30 634 C 66.2844 -0.291099 1.99993 0
M  V30 635 C 66.6054 -1.53418 1.20366 0
M  V30 636 O 65.8754 -1.93544 0.302927 0
M  V30 637 H 64.4554 -0.110552 0.738774 0
M  V30 638 H 67.1174 0.428106 1.9014 0
M  V30 639 H 66.2134 -0.554268 3.07139 0
M  V30 640 N 66.5145 -1.57545 0.0417849 0
M  V30 641 C 67.4775 -2.09885 -0.92093 0
M  V30 642 C 68.4775 -1.01648 -1.24596 0
M  V30 643 O 69.6675 -1.27759 -1.1842 0
M  V30 644 C 66.7995 -2.57527 -2.23367 0
M  V30 645 H 67.9925 -2.96236 -0.467382 0
M  V30 646 H 65.5455 -1.5493 -0.206467 0
M  V30 647 H 66.2805 -1.74542 -2.73323 0
M  V30 648 H 66.0655 -3.36613 -2.01083 0
M  V30 649 H 67.5555 -2.98201 -2.92346 0
M  V30 650 N 67.9926 0.231505 -1.5589 0
M  V30 651 C 69.2206 0.974505 -1.82513 0
M  V30 652 C 69.6356 1.78344 -0.619591 0
M  V30 653 O 68.9926 1.77792 0.411848 0
M  V30 654 C 69.0436 1.90007 -3.07538 0
M  V30 655 O 68.7646 1.12385 -4.2344 0
M  V30 656 C 70.2656 2.75779 -3.47075 0
M  V30 657 H 67.4856 0.286065 -0.606966 0
M  V30 658 H 70.0296 0.249739 -2.02969 0
M  V30 659 H 68.1846 2.57891 -2.89086 0
M  V30 660 H 68.5986 1.75125 -4.944 0
M  V30 661 H 70.0726 3.36443 -4.37619 0
M  V30 662 H 70.5496 3.47672 -2.68367 0
M  V30 663 H 71.1556 2.13323 -3.67931 0
M  V30 664 N 69.4707 1.49531 0.497807 0
M  V30 665 C 70.6957 1.63159 1.28039 0
M  V30 666 C 71.1207 0.30418 1.85624 0
M  V30 667 O 70.4787 -0.728618 1.66015 0
M  V30 668 C 70.5267 2.70537 2.38416 0
M  V30 669 O 69.6307 2.29931 3.42353 0
M  V30 670 H 68.9717 0.546001 0.377861 0
M  V30 671 H 71.5017 1.9574 0.59558 0
M  V30 672 H 71.5117 2.92802 2.84132 0
M  V30 673 H 70.1867 3.6689 1.95869 0
M  V30 674 H 68.7637 2.18009 3.02533 0
M  V30 675 N 70.9488 -0.749086 1.3866 0
M  V30 676 C 71.8788 -1.8764 1.38973 0
M  V30 677 C 72.8598 -1.68178 0.255004 0
M  V30 678 O 74.0448 -1.88704 0.458754 0
M  V30 679 C 71.1748 -3.25222 1.21851 0
M  V30 680 C 70.1288 -3.59295 2.32575 0
M  V30 681 C 69.4548 -4.95663 2.00555 0
M  V30 682 C 70.7548 -3.63709 3.7485 0
M  V30 683 H 72.4488 -1.87635 2.3331 0
M  V30 684 H 69.9948 -0.901329 1.12303 0
M  V30 685 H 71.9478 -4.03746 1.20695 0
M  V30 686 H 70.6718 -3.25719 0.239775 0
M  V30 687 H 69.3308 -2.83093 2.32925 0
M  V30 688 H 68.9788 -4.92724 1.01154 0
M  V30 689 H 68.6788 -5.19429 2.74714 0
M  V30 690 H 70.2028 -5.7656 2.01024 0
M  V30 691 H 71.6168 -4.32338 3.76506 0
M  V30 692 H 70.0138 -3.98986 4.48252 0
M  V30 693 H 71.0838 -2.63834 4.06841 0
M  V30 694 N 72.4269 -1.23603 -0.977757 0
M  V30 695 C 73.6569 -1.09487 -1.75203 0
M  V30 696 C 74.0649 0.356321 -1.85814 0
M  V30 697 O 73.4079 1.25816 -1.33851 0
M  V30 698 C 73.4699 -1.64905 -3.19447 0
M  V30 699 C 73.1339 -3.13688 -3.32338 0
M  V30 700 C 74.1309 -4.10953 -3.18455 0
M  V30 701 C 71.8159 -3.53449 -3.56902 0
M  V30 702 C 73.8099 -5.45962 -3.28944 0
M  V30 703 C 71.4969 -4.88602 -3.6703 0
M  V30 704 C 72.4949 -5.84668 -3.53062 0
M  V30 705 O 72.1829 -7.17365 -3.62826 0
M  V30 706 H 71.9149 -0.38367 -0.556573 0
M  V30 707 H 74.4689 -1.6398 -1.23693 0
M  V30 708 H 72.6989 -1.04835 -3.72218 0
M  V30 709 H 74.3879 -1.46226 -3.78646 0
M  V30 710 H 75.1539 -3.81577 -2.99372 0
M  V30 711 H 71.0329 -2.79188 -3.66844 0
M  V30 712 H 74.5769 -6.20925 -3.17958 0
M  V30 713 H 70.4739 -5.17653 -3.85623 0
M  V30 714 H 71.2419 -7.2515 -3.79605 0
M  V30 715 N 73.905 1.17692 -1.04816 0
M  V30 716 C 75.135 1.91508 -0.775128 0
M  V30 717 C 75.543 1.76844 0.67253 0
M  V30 718 O 74.886 1.10057 1.47082 0
M  V30 719 C 74.948 3.43167 -1.0713 0
M  V30 720 C 74.612 3.81612 -2.51438 0
M  V30 721 C 75.609 3.84772 -3.49638 0
M  V30 722 C 73.294 4.12687 -2.86348 0
M  V30 723 C 75.288 4.18469 -4.80794 0
M  V30 724 C 72.975 4.46053 -4.17708 0
M  V30 725 C 73.973 4.48921 -5.14741 0
M  V30 726 O 73.661 4.81504 -6.43746 0
M  V30 727 H 73.393 0.614575 -0.281555 0
M  V30 728 H 75.947 1.50206 -1.40098 0
M  V30 729 H 74.177 3.84745 -0.388342 0
M  V30 730 H 75.866 3.98239 -0.784883 0
M  V30 731 H 76.632 3.60893 -3.24008 0
M  V30 732 H 72.511 4.09627 -2.11486 0
M  V30 733 H 76.055 4.20623 -5.56527 0
M  V30 734 H 71.952 4.69393 -4.43103 0
M  V30 735 H 72.72 4.99377 -6.4851 0
M  V30 736 N 75.3831 0.828654 1.34056 0
M  V30 737 C 76.6291 0.429279 1.98818 0
M  V30 738 C 76.9841 -0.998011 1.64492 0
M  V30 739 O 76.2771 -1.68652 0.909228 0
M  V30 740 C 76.4711 0.575226 3.52741 0
M  V30 741 C 76.3001 2.01515 4.02022 0
M  V30 742 C 75.0701 2.64825 4.30344 0
M  V30 743 C 77.2681 2.98261 4.18981 0
M  V30 744 N 75.2501 3.99998 4.65698 0
M  V30 745 C 76.6211 4.18356 4.57578 0
M  V30 746 C 78.6761 2.94802 4.01243 0
M  V30 747 C 77.3791 5.35454 4.80293 0
M  V30 748 C 79.4051 4.11121 4.25128 0
M  V30 749 C 78.7671 5.29969 4.64018 0
M  V30 750 H 74.8661 0.205304 0.754569 0
M  V30 751 H 77.4501 1.07457 1.62361 0
M  V30 752 H 75.6211 -0.0401962 3.88379 0
M  V30 753 H 77.3531 0.148292 4.04428 0
M  V30 754 H 74.1081 2.16027 4.21461 0
M  V30 755 H 74.5321 4.69653 4.87601 0
M  V30 756 H 79.1741 2.04054 3.70299 0
M  V30 757 H 76.8921 6.26755 5.10102 0
M  V30 758 H 80.4781 4.0985 4.12934 0
M  V30 759 H 79.3581 6.18479 4.82134 0
M  V30 760 N 76.8612 -1.46375 0.584142 0
M  V30 761 C 77.7712 -2.34115 -0.150728 0
M  V30 762 C 78.7872 -1.49838 -0.884567 0
M  V30 763 O 79.9632 -1.82704 -0.847429 0
M  V30 764 C 77.0282 -3.2705 -1.15062 0
M  V30 765 C 76.0892 -4.27228 -0.421293 0
M  V30 766 C 75.3222 -5.15722 -1.37355 0
M  V30 767 O 75.5452 -5.07176 -2.61014 0
M  V30 768 O 74.4792 -5.95383 -0.883355 0
M  V30 769 H 78.3052 -2.98309 0.569708 0
M  V30 770 H 75.8902 -1.45373 0.344535 0
M  V30 771 H 77.7722 -3.84381 -1.72712 0
M  V30 772 H 76.4472 -2.65451 -1.8525 0
M  V30 773 H 75.3542 -3.7358 0.197085 0
M  V30 774 H 76.6872 -4.91616 0.239641 0
M  V30 775 N 78.3393 -0.321999 -1.54275 0
M  V30 776 C 79.5873 0.280489 -2.00144 0
M  V30 777 C 79.9083 1.52777 -1.21178 0
M  V30 778 O 79.1783 1.9338 -0.313187 0
M  V30 779 H 77.7583 0.106632 -0.73935 0
M  V30 780 H 80.4203 -0.438184 -1.8991 0
M  V30 781 H 79.5163 0.537972 -3.07428 0
M  V30 782 N 79.8174 1.5752 -0.0501392 0
M  V30 783 C 80.7644 2.1147 0.924603 0
M  V30 784 C 81.7344 1.02182 1.30951 0
M  V30 785 O 82.9194 1.29723 1.39916 0
M  V30 786 C 80.0594 2.66337 2.19451 0
M  V30 787 C 79.1724 3.89708 1.86418 0
M  V30 788 C 78.3074 4.32893 3.07859 0
M  V30 789 C 77.3464 5.48967 2.70742 0
M  V30 790 N 76.4834 5.87211 3.84874 0
M  V30 791 H 81.3234 2.94465 0.457639 0
M  V30 792 H 78.8604 1.45531 0.214266 0
M  V30 793 H 80.8184 2.96247 2.93758 0
M  V30 794 H 79.4484 1.86141 2.63726 0
M  V30 795 H 78.5004 3.66396 1.02264 0
M  V30 796 H 79.8124 4.74074 1.55096 0
M  V30 797 H 78.9664 4.6435 3.90466 0
M  V30 798 H 77.7054 3.47336 3.42358 0
M  V30 799 H 76.7104 5.17183 1.86551 0
M  V30 800 H 77.9354 6.3624 2.37436 0
M  V30 801 H 75.8814 5.04607 4.19175 0
M  V30 802 H 75.7984 6.66266 3.57247 0
M  V30 803 H 77.0664 6.23282 4.68123 0
M  V30 804 N 81.2955 -0.223234 1.56011 0
M  V30 805 C 82.2255 -1.27988 1.95298 0
M  V30 806 C 83.2065 -1.48976 0.820979 0
M  V30 807 O 84.3915 -1.61188 1.08315 0
M  V30 808 C 81.5215 -2.63 2.26822 0
M  V30 809 C 80.4755 -2.56671 3.42497 0
M  V30 810 C 79.8015 -3.95697 3.59622 0
M  V30 811 C 81.1015 -2.11601 4.77517 0
M  V30 812 H 82.7955 -0.953525 2.8381 0
M  V30 813 H 80.3415 -0.457244 1.36548 0
M  V30 814 H 82.2945 -3.37077 2.52898 0
M  V30 815 H 81.0185 -2.9732 1.35161 0
M  V30 816 H 79.6775 -1.85051 3.16467 0
M  V30 817 H 79.3255 -4.27322 2.6534 0
M  V30 818 H 79.0255 -3.92345 4.37424 0
M  V30 819 H 80.5495 -4.71438 3.88044 0
M  V30 820 H 81.9635 -2.7542 5.02809 0
M  V30 821 H 80.3605 -2.19311 5.5859 0
M  V30 822 H 81.4305 -1.06824 4.72987 0
M  V30 823 N 82.7736 -1.49793 -0.48987 0
M  V30 824 C 83.6836 -1.70036 -1.61632 0
M  V30 825 C 84.6996 -0.583102 -1.63939 0
M  V30 826 O 85.8756 -0.859169 -1.82154 0
M  V30 827 C 82.9406 -1.77277 -2.97949 0
M  V30 828 C 82.0016 -3.00918 -3.06181 0
M  V30 829 C 81.2346 -3.07804 -4.35996 0
M  V30 830 O 81.4576 -2.21982 -5.25433 0
M  V30 831 O 80.3916 -4.00369 -4.49431 0
M  V30 832 H 84.2176 -2.65486 -1.47482 0
M  V30 833 H 81.8026 -1.33666 -0.667362 0
M  V30 834 H 83.6846 -1.84329 -3.78947 0
M  V30 835 H 82.3596 -0.850076 -3.12339 0
M  V30 836 H 81.2666 -2.99377 -2.2433 0
M  V30 837 H 82.5996 -3.92704 -2.96723 0
M  V30 838 N 84.2517 0.741722 -1.39055 0
M  V30 839 C 85.1837 1.8657 -1.33133 0
M  V30 840 C 86.1967 1.61001 -0.241329 0
M  V30 841 O 87.3857 1.7136 -0.499784 0
M  V30 842 C 84.4857 3.22457 -1.04283 0
M  V30 843 C 83.6587 3.75435 -2.24427 0
M  V30 844 C 82.7177 4.89867 -1.92138 0
M  V30 845 O 81.7437 5.03879 -2.64754 0
M  V30 846 N 82.9457 5.73738 -0.88347 0
M  V30 847 H 85.7107 1.92156 -2.29991 0
M  V30 848 H 83.2717 0.922172 -1.3307 0
M  V30 849 H 85.2637 3.9657 -0.807128 0
M  V30 850 H 83.8337 3.12181 -0.161807 0
M  V30 851 H 83.0537 2.92751 -2.6399 0
M  V30 852 H 84.3417 4.07563 -3.04581 0
M  V30 853 H 83.7397 5.64999 -0.281517 0
M  V30 854 H 82.2967 6.47947 -0.707662 0
M  V30 855 N 85.7298 1.2412 0.971189 0
M  V30 856 C 86.6398 1.04747 2.09917 0
M  V30 857 C 87.6558 -0.0107162 1.73997 0
M  V30 858 O 88.8318 0.186714 2.00533 0
M  V30 859 C 85.8968 0.650828 3.40537 0
M  V30 860 C 84.9578 1.7851 3.90426 0
M  V30 861 C 84.1908 1.40729 5.14812 0
M  V30 862 O 84.4138 0.29557 5.69634 0
M  V30 863 O 83.3478 2.23168 5.58999 0
M  V30 864 H 87.1738 1.99304 2.29154 0
M  V30 865 H 84.7588 1.02908 1.08307 0
M  V30 866 H 86.6408 0.440992 4.19086 0
M  V30 867 H 85.3158 -0.265649 3.22608 0
M  V30 868 H 84.2228 2.04966 3.12953 0
M  V30 869 H 85.5558 2.68023 4.12825 0
M  V30 870 N 87.2079 -1.17134 1.05439 0
M  V30 871 C 88.4379 -1.91094 0.785274 0
M  V30 872 C 88.8459 -1.77198 -0.663142 0
M  V30 873 O 88.1889 -1.10835 -1.46497 0
M  V30 874 C 88.2509 -3.42594 1.08949 0
M  V30 875 C 87.9149 -3.80274 2.53458 0
M  V30 876 C 88.9119 -3.82912 3.51673 0
M  V30 877 C 86.5969 -4.11162 2.88532 0
M  V30 878 C 88.5909 -4.15913 4.83006 0
M  V30 879 C 86.2779 -4.43831 4.20068 0
M  V30 880 C 87.2759 -4.46185 5.17115 0
M  V30 881 O 86.9639 -4.78083 6.46291 0
M  V30 882 H 86.6959 -0.613073 0.284811 0
M  V30 883 H 89.2499 -1.49461 1.40893 0
M  V30 884 H 87.4799 -3.84534 0.408741 0
M  V30 885 H 89.1689 -3.97817 0.805991 0
M  V30 886 H 89.9349 -3.5917 3.25917 0
M  V30 887 H 85.8139 -4.085 2.13656 0
M  V30 888 H 89.3579 -4.17665 5.5875 0
M  V30 889 H 85.2549 -4.67037 4.45586 0
M  V30 890 H 86.0229 -4.9593 6.51149 0
M  V30 891 N 88.686 -0.835752 -1.33615 0
M  V30 892 C 89.596 -0.269088 -2.33052 0
M  V30 893 C 90.612 0.603251 -1.63208 0
M  V30 894 O 91.788 0.508112 -1.94885 0
M  V30 895 C 88.853 0.549091 -3.42324 0
M  V30 896 C 87.914 -0.347156 -4.27894 0
M  V30 897 C 87.147 0.43207 -5.31948 0
M  V30 898 O 87.37 1.66409 -5.45586 0
M  V30 899 O 86.304 -0.192298 -6.01593 0
M  V30 900 H 90.13 -1.09243 -2.83372 0
M  V30 901 H 87.715 -0.598198 -1.36901 0
M  V30 902 H 89.597 1.01414 -4.09015 0
M  V30 903 H 88.272 1.34955 -2.94226 0
M  V30 904 H 87.179 -0.859979 -3.64081 0
M  V30 905 H 88.512 -1.1123 -4.79467 0
M  V30 906 N 90.1641 1.46063 -0.591896 0
M  V30 907 C 91.4101 2.02638 -0.0811191 0
M  V30 908 C 91.7431 1.4613 1.27905 0
M  V30 909 O 91.0181 0.629908 1.84017 0
M  V30 910 C 91.3011 3.60091 -0.0252436 0
M  V30 911 C 91.1541 4.26965 -1.41496 0
M  V30 912 C 92.4731 4.3496 0.670685 0
M  V30 913 H 89.5921 0.73635 -0.0309524 0
M  V30 914 H 92.2341 1.741 -0.760859 0
M  V30 915 H 90.3841 3.84535 0.553624 0
M  V30 916 H 92.0561 4.13756 -2.0397 0
M  V30 917 H 90.2991 3.85971 -1.98011 0
M  V30 918 H 90.9701 5.35781 -1.32825 0
M  V30 919 H 93.4461 4.15716 0.178825 0
M  V30 920 H 92.3221 5.44686 0.678837 0
M  V30 921 H 92.5831 4.06685 1.73379 0
M  V30 922 N 91.6422 0.330177 1.54103 0
M  V30 923 C 92.5742 -0.566902 2.22079 0
M  V30 924 C 93.5872 -1.07462 1.22294 0
M  V30 925 O 94.7762 -0.987065 1.48726 0
M  V30 926 C 91.8762 -1.79138 2.87685 0
M  V30 927 C 91.0492 -1.42123 4.13666 0
M  V30 928 C 90.1082 -2.50394 4.62806 0
M  V30 929 O 89.1342 -2.14261 5.27334 0
M  V30 930 N 90.3362 -3.81433 4.37595 0
M  V30 931 H 93.1012 0.0151844 2.99696 0
M  V30 932 H 90.6622 0.153681 1.61169 0
M  V30 933 H 92.6542 -2.50975 3.1748 0
M  V30 934 H 91.2242 -2.28115 2.13734 0
M  V30 935 H 90.4442 -0.534201 3.90564 0
M  V30 936 H 91.7322 -1.14971 4.9564 0
M  V30 937 H 91.1302 -4.13584 3.8596 0
M  V30 938 H 89.6872 -4.4948 4.72029 0
M  V30 939 N 93.1203 -1.57491 0.0584922 0
M  V30 940 C 94.0533 -2.07533 -0.948969 0
M  V30 941 C 95.0313 -0.977444 -1.29942 0
M  V30 942 O 96.2153 -1.2499 -1.41102 0
M  V30 943 C 93.3423 -2.52192 -2.2609 0
M  V30 944 C 92.3883 -3.73287 -2.06298 0
M  V30 945 S 93.2213 -5.18603 -1.33459 0
M  V30 946 C 94.3773 -5.66583 -2.65959 0
M  V30 947 H 94.6103 -2.92662 -0.523118 0
M  V30 948 H 92.1433 -1.53631 -0.153954 0
M  V30 949 H 94.1013 -2.78585 -3.01498 0
M  V30 950 H 92.7623 -1.67356 -2.65802 0
M  V30 951 H 91.9553 -4.0248 -3.03357 0
M  V30 952 H 91.5573 -3.47199 -1.39029 0
M  V30 953 H 93.8493 -5.72616 -3.62101 0
M  V30 954 H 94.7923 -6.65684 -2.41393 0
M  V30 955 H 95.2003 -4.94342 -2.72554 0
M  V30 956 N 94.5984 0.214957 -1.56127 0
M  V30 957 C 95.8474 0.936451 -1.78643 0
M  V30 958 C 96.1604 1.85237 -0.628229 0
M  V30 959 O 97.3664 2.613 -0.737186 0
M  V30 960 C 95.8224 1.7154 -3.16389 0
M  V30 961 C 95.4304 0.845299 -4.39953 0
M  V30 962 C 97.1744 2.42772 -3.48227 0
M  V30 963 C 95.0814 1.62198 -5.68723 0
M  V30 964 H 94.0114 0.353401 -0.666051 0
M  V30 965 H 96.6624 0.190169 -1.82512 0
M  V30 966 H 95.0444 2.50484 -3.06715 0
M  V30 967 H 96.2184 0.0959353 -4.607 0
M  V30 968 H 94.5334 0.244789 -4.1568 0
M  V30 969 H 97.1304 3.01394 -4.41663 0
M  V30 970 H 97.4734 3.15984 -2.71035 0
M  V30 971 H 98.0064 1.70813 -3.5926 0
M  V30 972 H 94.7454 0.933011 -6.48826 0
M  V30 973 H 94.2654 2.34579 -5.52026 0
M  V30 974 H 95.9444 2.18095 -6.09133 0
M  V30 975 N 96.0765 1.50051 0.48192 0
M  V30 976 C 97.0065 1.71046 1.58951 0
M  V30 977 C 97.9875 0.559288 1.60642 0
M  V30 978 O 99.1725 0.797243 1.77081 0
M  V30 979 C 96.3025 1.79462 2.97339 0
M  V30 980 C 95.2565 2.94558 3.10515 0
M  V30 981 C 94.5825 2.88105 4.50444 0
M  V30 982 C 95.8825 4.35227 2.88747 0
M  V30 983 H 97.5765 2.6378 1.41635 0
M  V30 984 H 95.1225 1.26936 0.679942 0
M  V30 985 H 97.0755 1.92734 3.74742 0
M  V30 986 H 95.7995 0.833412 3.15788 0
M  V30 987 H 94.4585 2.80918 2.35543 0
M  V30 988 H 94.1065 1.89853 4.65795 0
M  V30 989 H 93.8065 3.65366 4.60197 0
M  V30 990 H 95.3305 3.03412 5.29881 0
M  V30 991 H 96.7445 4.49449 3.55905 0
M  V30 992 H 95.1415 5.13856 3.09955 0
M  V30 993 H 96.2115 4.48347 1.84696 0
M  V30 994 N 97.5546 -0.734337 1.39446 0
M  V30 995 C 98.5016 -1.84835 1.38219 0
M  V30 996 C 99.4716 -1.64331 0.24179 0
M  V30 997 O 100.657 -1.85728 0.437002 0
M  V30 998 C 97.7966 -3.22355 1.23212 0
M  V30 999 C 96.9096 -3.5456 2.46801 0
M  V30 1000 C 96.0446 -4.81485 2.24377 0
M  V30 1001 C 95.0836 -5.06536 3.43639 0
M  V30 1002 N 94.2206 -6.24665 3.20528 0
M  V30 1003 H 99.0606 -1.85219 2.33448 0
M  V30 1004 H 96.5976 -0.905039 1.15963 0
M  V30 1005 H 98.5556 -4.0174 1.12522 0
M  V30 1006 H 97.1856 -3.21248 0.316121 0
M  V30 1007 H 96.2376 -2.69872 2.68092 0
M  V30 1008 H 97.5496 -3.6899 3.3563 0
M  V30 1009 H 96.7036 -5.68852 2.10933 0
M  V30 1010 H 95.4426 -4.6923 1.32944 0
M  V30 1011 H 94.4476 -4.17632 3.5758 0
M  V30 1012 H 95.6726 -5.20676 4.35974 0
M  V30 1013 H 93.6186 -6.13696 2.3176 0
M  V30 1014 H 93.5356 -6.39685 4.02913 0
M  V30 1015 H 94.8036 -7.14868 3.10779 0
M  V30 1016 N 99.0327 -1.24633 -0.964593 0
M  V30 1017 C 100.261 -1.11501 -1.74285 0
M  V30 1018 C 100.676 0.332165 -1.85855 0
M  V30 1019 O 100.033 1.22903 -1.34911 0
M  V30 1020 C 100.084 -1.75258 -3.16175 0
M  V30 1021 O 99.8047 -3.14318 -3.05182 0
M  V30 1022 C 101.306 -1.67776 -4.10324 0
M  V30 1023 H 98.5257 -0.389407 -0.546446 0
M  V30 1024 H 101.07 -1.64801 -1.21083 0
M  V30 1025 H 99.2247 -1.25954 -3.66353 0
M  V30 1026 H 99.6387 -3.4551 -3.94618 0
M  V30 1027 H 101.113 -2.17064 -5.0753 0
M  V30 1028 H 101.59 -0.639584 -4.34518 0
M  V30 1029 H 102.196 -2.16522 -3.66058 0
M  V30 1030 N 100.511 1.16574 -1.06058 0
M  V30 1031 C 101.739 1.90952 -0.796552 0
M  V30 1032 C 102.154 1.77302 0.648808 0
M  V30 1033 O 101.511 1.11605 1.44397 0
M  V30 1034 C 101.562 3.41736 -1.17894 0
M  V30 1035 O 101.283 3.54975 -2.56758 0
M  V30 1036 C 102.784 4.33169 -0.942308 0
M  V30 1037 H 100.004 0.605594 -0.288959 0
M  V30 1038 H 102.548 1.47777 -1.41358 0
M  V30 1039 H 100.703 3.82623 -0.606491 0
M  V30 1040 H 101.117 4.4846 -2.72 0
M  V30 1041 H 102.591 5.37439 -1.25952 0
M  V30 1042 H 103.068 4.3903 0.122078 0
M  V30 1043 H 103.674 3.98007 -1.49902 0
M  V30 1044 N 101.989 0.842826 1.3317 0
M  V30 1045 C 103.235 0.441099 1.97945 0
M  V30 1046 C 103.568 -0.998024 1.66593 0
M  V30 1047 O 102.843 -1.69839 0.947898 0
M  V30 1048 C 103.126 0.666841 3.53872 0
M  V30 1049 C 102.979 2.15352 3.94897 0
M  V30 1050 C 104.298 0.115544 4.39948 0
M  V30 1051 H 101.417 0.161739 0.719034 0
M  V30 1052 H 104.059 1.05907 1.57746 0
M  V30 1053 H 102.209 0.140828 3.88245 0
M  V30 1054 H 103.881 2.7447 3.70761 0
M  V30 1055 H 102.124 2.63653 3.44484 0
M  V30 1056 H 102.795 2.26221 5.03516 0
M  V30 1057 H 105.271 0.565213 4.12243 0
M  V30 1058 H 104.147 0.303152 5.48062 0
M  V30 1059 H 104.408 -0.980935 4.3108 0
M  V30 1060 N 103.467 -1.45747 0.599634 0
M  V30 1061 C 104.692 -2.07178 0.0960198 0
M  V30 1062 C 105.117 -1.44268 -1.207 0
M  V30 1063 O 104.475 -0.532503 -1.73303 0
M  V30 1064 C 104.523 -3.60579 -0.0385348 0
M  V30 1065 O 103.627 -3.97713 -1.0908 0
M  V30 1066 H 102.968 -0.660251 0.0704593 0
M  V30 1067 H 105.498 -1.87124 0.827385 0
M  V30 1068 H 105.508 -4.07298 -0.239304 0
M  V30 1069 H 104.183 -4.05756 0.912947 0
M  V30 1070 H 102.76 -3.62678 -0.867135 0
M  V30 1071 N 104.945 -0.338344 -1.53925 0
M  V30 1072 C 105.895 0.536712 -2.21593 0
M  V30 1073 C 106.879 1.07015 -1.20153 0
M  V30 1074 O 108.071 1.00471 -1.45721 0
M  V30 1075 C 105.2 1.68977 -2.98834 0
M  V30 1076 C 104.286 1.17052 -4.07627 0
M  V30 1077 N 104.677 0.372085 -5.0443 0
M  V30 1078 C 102.975 1.44789 -4.21844 0
M  V30 1079 C 103.676 0.0909171 -5.81629 0
M  V30 1080 N 102.652 0.681131 -5.39316 0
M  V30 1081 H 106.454 -0.0804298 -2.9379 0
M  V30 1082 H 103.968 -0.144943 -1.61752 0
M  V30 1083 H 105.965 2.32857 -3.45808 0
M  V30 1084 H 104.625 2.31024 -2.28162 0
M  V30 1085 H 105.636 0.0136217 -5.17898 0
M  V30 1086 H 102.313 2.07313 -3.62391 0
M  V30 1087 H 103.703 -0.552817 -6.69622 0
M  V30 1088 N 106.423 1.57458 -0.0668435 0
M  V30 1089 C 107.355 2.09413 0.931601 0
M  V30 1090 C 108.368 1.02522 1.26464 0
M  V30 1091 O 109.557 1.30049 1.22269 0
M  V30 1092 C 106.657 2.53537 2.24882 0
M  V30 1093 C 105.83 3.83944 2.09537 0
M  V30 1094 C 104.889 4.14214 3.2452 0
M  V30 1095 O 103.915 4.83891 2.9973 0
M  V30 1096 N 105.117 3.67367 4.49469 0
M  V30 1097 H 107.882 2.95699 0.488048 0
M  V30 1098 H 105.443 1.61462 0.119009 0
M  V30 1099 H 107.435 2.70853 3.00701 0
M  V30 1100 H 106.005 1.72415 2.60753 0
M  V30 1101 H 105.225 3.76057 1.18215 0
M  V30 1102 H 106.513 4.69312 1.96529 0
M  V30 1103 H 105.911 3.11068 4.72497 0
M  V30 1104 H 104.468 3.89891 5.2233 0
M  V30 1105 N 107.901 -0.206675 1.56239 0
M  V30 1106 C 108.833 -1.27997 1.9013 0
M  V30 1107 C 109.846 -1.42299 0.790883 0
M  V30 1108 O 111.035 -1.42931 1.06925 0
M  V30 1109 C 108.135 -2.65368 2.10792 0
M  V30 1110 C 107.308 -2.72824 3.41886 0
M  V30 1111 C 106.367 -3.9131 3.51799 0
M  V30 1112 O 105.393 -3.78953 4.24716 0
M  V30 1113 N 106.595 -5.06265 2.84035 0
M  V30 1114 H 109.36 -0.992444 2.82791 0
M  V30 1115 H 106.921 -0.396652 1.56966 0
M  V30 1116 H 108.913 -3.43039 2.14724 0
M  V30 1117 H 107.483 -2.86657 1.24685 0
M  V30 1118 H 106.703 -1.81515 3.49923 0
M  V30 1119 H 107.991 -2.74786 4.28217 0
M  V30 1120 H 107.389 -5.19203 2.246 0
M  V30 1121 H 105.946 -5.81925 2.93609 0
M  V30 1122 N 109.379 -1.50304 -0.473955 0
M  V30 1123 C 110.342 -1.6841 -1.55469 0
M  V30 1124 C 111.342 -0.554905 -1.50922 0
M  V30 1125 O 112.532 -0.821882 -1.53593 0
M  V30 1126 C 109.664 -1.70667 -2.95102 0
M  V30 1127 H 110.857 -2.64828 -1.40733 0
M  V30 1128 H 108.41 -1.39742 -0.700132 0
M  V30 1129 H 109.145 -0.75932 -3.15285 0
M  V30 1130 H 108.93 -2.52698 -2.9981 0
M  V30 1131 H 110.42 -1.8664 -3.73571 0
M  V30 1132 N 110.857 0.726932 -1.39834 0
M  V30 1133 C 111.787 1.85405 -1.41941 0
M  V30 1134 C 112.768 1.67751 -0.281728 0
M  V30 1135 O 113.953 1.8795 -0.488717 0
M  V30 1136 C 111.083 3.23243 -1.2701 0
M  V30 1137 C 110.037 3.55549 -2.38262 0
M  V30 1138 C 109.363 4.9241 -2.08415 0
M  V30 1139 C 110.663 3.577 -3.80589 0
M  V30 1140 H 112.357 1.83899 -2.36266 0
M  V30 1141 H 109.903 0.883349 -1.13723 0
M  V30 1142 H 111.856 4.01775 -1.27103 0
M  V30 1143 H 110.58 3.25296 -0.291564 0
M  V30 1144 H 109.239 2.79351 -2.37399 0
M  V30 1145 H 108.887 4.91052 -1.0898 0
M  V30 1146 H 108.587 5.14992 -2.82943 0
M  V30 1147 H 110.111 5.73289 -2.10171 0
M  V30 1148 H 111.525 4.26293 -3.83337 0
M  V30 1149 H 109.922 3.91804 -4.54543 0
M  V30 1150 H 110.992 2.57328 -4.10987 0
M  V30 1151 N 112.336 1.25143 0.95797 0
M  V30 1152 C 113.266 1.07711 2.07173 0
M  V30 1153 C 114.247 -0.0128462 1.70095 0
M  V30 1154 O 115.432 0.156061 1.93572 0
M  V30 1155 C 112.562 0.691503 3.40346 0
M  V30 1156 C 111.516 1.73132 3.9142 0
M  V30 1157 C 110.842 1.20049 5.21049 0
M  V30 1158 C 112.142 3.1294 4.1817 0
M  V30 1159 H 113.836 2.00873 2.22014 0
M  V30 1160 H 111.382 0.967191 1.06684 0
M  V30 1161 H 113.335 0.556505 4.17709 0
M  V30 1162 H 112.059 -0.275819 3.25433 0
M  V30 1163 H 110.718 1.8547 3.16222 0
M  V30 1164 H 110.366 0.223499 5.02503 0
M  V30 1165 H 110.066 1.89545 5.56189 0
M  V30 1166 H 111.59 1.07782 6.01012 0
M  V30 1167 H 113.004 3.03775 4.86203 0
M  V30 1168 H 111.401 3.79875 4.64559 0
M  V30 1169 H 112.471 3.6025 3.24573 0
M  V30 1170 N 113.814 -1.1601 1.06675 0
M  V30 1171 C 114.724 -2.24156 0.692179 0
M  V30 1172 C 115.74 -1.71507 -0.293513 0
M  V30 1173 O 116.916 -2.009 -0.141861 0
M  V30 1174 C 113.981 -3.46587 0.0884131 0
M  V30 1175 C 113.042 -4.14257 1.12646 0
M  V30 1176 C 112.275 -5.30844 0.551416 0
M  V30 1177 O 112.498 -5.66858 -0.634656 0
M  V30 1178 O 111.432 -5.87848 1.29298 0
M  V30 1179 H 115.258 -2.58513 1.59388 0
M  V30 1180 H 112.843 -1.23599 0.83926 0
M  V30 1181 H 114.725 -4.20679 -0.246361 0
M  V30 1182 H 113.4 -3.13994 -0.786712 0
M  V30 1183 H 112.307 -3.42118 1.51348 0
M  V30 1184 H 113.64 -4.50914 1.97325 0
M  V30 1185 N 115.292 -0.849877 -1.32721 0
M  V30 1186 C 116.532 -0.457146 -1.99222 0
M  V30 1187 C 116.896 0.968038 -1.6581 0
M  V30 1188 O 118.097 1.46507 -2.25364 0
M  V30 1189 C 116.368 -0.683966 -3.50794 0
M  V30 1190 S 117.927 -0.388095 -4.3708 0
M  V30 1191 H 114.745 -0.171464 -0.690015 0
M  V30 1192 H 117.347 -1.10155 -1.61512 0
M  V30 1193 H 116.051 -1.72038 -3.726 0
M  V30 1194 H 115.582 -0.0258086 -3.93392 0
M  V30 1195 H 117.597 0.787791 -4.89906 0
M  V30 1196 N 116.77 1.45427 -0.607355 0
M  V30 1197 C 117.7 2.3329 0.0989352 0
M  V30 1198 C 118.681 1.46816 0.859007 0
M  V30 1199 O 119.866 1.75588 0.829604 0
M  V30 1200 C 116.996 3.29518 1.09705 0
M  V30 1201 C 115.95 4.25626 0.450206 0
M  V30 1202 C 115.276 5.11542 1.55655 0
M  V30 1203 C 116.576 5.18505 -0.628455 0
M  V30 1204 H 118.27 2.92595 -0.634716 0
M  V30 1205 H 115.816 1.40696 -0.306681 0
M  V30 1206 H 117.769 3.89855 1.59971 0
M  V30 1207 H 116.493 2.68372 1.86129 0
M  V30 1208 H 115.152 3.66586 -0.0315886 0
M  V30 1209 H 114.8 4.46765 2.31107 0
M  V30 1210 H 114.5 5.76647 1.12925 0
M  V30 1211 H 116.024 5.74748 2.06148 0
M  V30 1212 H 117.438 5.72916 -0.209877 0
M  V30 1213 H 115.835 5.92085 -0.977489 0
M  V30 1214 H 116.905 4.60948 -1.50514 0
M  V30 1215 N 118.248 0.346503 1.53744 0
M  V30 1216 C 119.195 -0.508914 2.25119 0
M  V30 1217 C 120.165 -1.09315 1.25058 0
M  V30 1218 O 121.35 -1.12921 1.53797 0
M  V30 1219 C 118.49 -1.65246 3.02965 0
M  V30 1220 C 117.603 -1.09525 4.17886 0
M  V30 1221 C 116.738 -2.20634 4.83212 0
M  V30 1222 C 115.777 -1.62279 5.90196 0
M  V30 1223 N 114.914 -2.67143 6.49291 0
M  V30 1224 H 119.754 0.106283 2.9781 0
M  V30 1225 H 117.291 0.0642227 1.4696 0
M  V30 1226 H 119.249 -2.32574 3.4636 0
M  V30 1227 H 117.879 -2.2386 2.32565 0
M  V30 1228 H 116.931 -0.312818 3.79112 0
M  V30 1229 H 118.243 -0.628444 4.94825 0
M  V30 1230 H 117.397 -2.95821 5.29693 0
M  V30 1231 H 116.136 -2.70659 4.05703 0
M  V30 1232 H 115.141 -0.855989 5.43096 0
M  V30 1233 H 116.366 -1.13102 6.69615 0
M  V30 1234 H 114.312 -3.16417 5.74645 0
M  V30 1235 H 114.229 -2.25093 7.21713 0
M  V30 1236 H 115.497 -3.4209 7.00425 0
M  V30 1237 N 119.726 -1.57421 0.075193 0
M  V30 1238 C 120.951 -1.98364 -0.605515 0
M  V30 1239 C 121.376 -0.953383 -1.62149 0
M  V30 1240 O 120.734 0.0806053 -1.81121 0
M  V30 1241 C 120.782 -3.38332 -1.24756 0
M  V30 1242 O 119.886 -3.37959 -2.36342 0
M  V30 1243 H 119.227 -0.645553 -0.155428 0
M  V30 1244 H 121.757 -2.04044 0.150714 0
M  V30 1245 H 121.767 -3.75591 -1.5936 0
M  V30 1246 H 120.442 -4.12846 -0.503129 0
M  V30 1247 H 119.019 -3.12474 -2.03506 0
M  V30 1248 N 121.204 0.198386 -1.56346 0
M  V30 1249 C 122.154 1.2499 -1.90687 0
M  V30 1250 C 123.138 1.41158 -0.772217 0
M  V30 1251 O 124.33 1.43584 -1.03502 0
M  V30 1252 C 121.459 2.59542 -2.24706 0
M  V30 1253 C 120.545 2.47181 -3.44619 0
M  V30 1254 N 120.936 2.04495 -4.62618 0
M  V30 1255 C 119.234 2.78082 -3.48692 0
M  V30 1256 C 119.935 2.03945 -5.44776 0
M  V30 1257 N 118.911 2.45323 -4.85095 0
M  V30 1258 H 122.713 0.911149 -2.7942 0
M  V30 1259 H 120.227 0.40684 -1.57221 0
M  V30 1260 H 122.224 3.3549 -2.47491 0
M  V30 1261 H 120.884 2.94244 -1.37298 0
M  V30 1262 H 121.895 1.75256 -4.87345 0
M  V30 1263 H 118.572 3.17002 -2.71691 0
M  V30 1264 H 119.962 1.72872 -6.4928 0
M  V30 1265 N 122.682 1.50554 0.465978 0
M  V30 1266 C 123.632 1.66177 1.56106 0
M  V30 1267 C 124.616 0.516265 1.52393 0
M  V30 1268 O 125.808 0.770906 1.5933 0
M  V30 1269 C 122.937 1.76396 2.94515 0
M  V30 1270 C 122.023 2.9664 3.03093 0
M  V30 1271 N 122.414 4.20245 2.81474 0
M  V30 1272 C 120.712 2.95304 3.34233 0
M  V30 1273 C 121.413 5.01259 2.95151 0
M  V30 1274 N 120.389 4.35318 3.25576 0
M  V30 1275 H 124.191 2.59434 1.38099 0
M  V30 1276 H 121.705 1.47808 0.6728 0
M  V30 1277 H 123.702 1.85694 3.73261 0
M  V30 1278 H 122.362 0.843017 3.13565 0
M  V30 1279 H 123.373 4.4966 2.56956 0
M  V30 1280 H 120.05 2.12729 3.59239 0
M  V30 1281 H 121.44 6.09564 2.82632 0
M  V30 1282 N 124.16 -0.719506 1.40217 0
M  V30 1283 C 125.571 -1.29848 1.34151 0
M  V30 1284 C 125.922 -1.96196 0.0131349 0
M  V30 1285 O 125.047 -1.973 -0.88892 0
M  V30 1286 C 125.642 -2.36118 2.42968 0
M  V30 1287 C 124.201 -2.8965 2.40374 0
M  V30 1288 C 123.348 -1.63393 2.24049 0
M  V30 1289 H 126.299 -0.51591 1.5008 0
M  V30 1290 H 126.32 -3.16871 2.10649 0
M  V30 1291 H 125.832 -1.878 3.39636 0
M  V30 1292 H 123.933 -3.42208 1.47392 0
M  V30 1293 H 124.046 -3.4171 3.35814 0
M  V30 1294 H 122.41 -1.88312 1.71495 0
M  V30 1295 H 123.193 -1.17104 3.2271 0
M  V30 1296 N 125.638 -1.25649 -0.95132 0
M  V30 1297 C 126.868 -1.13179 -1.72841 0
M  V30 1298 C 127.276 0.316827 -1.86528 0
M  V30 1299 O 126.619 1.22948 -1.3649 0
M  V30 1300 C 126.681 -1.71644 -3.15878 0
M  V30 1301 C 126.345 -3.20667 -3.25609 0
M  V30 1302 C 127.342 -4.17616 -3.09666 0
M  V30 1303 C 125.027 -3.6094 -3.49324 0
M  V30 1304 C 127.021 -5.52817 -3.17289 0
M  V30 1305 C 124.708 -4.96278 -3.56584 0
M  V30 1306 C 125.706 -5.92025 -3.40581 0
M  V30 1307 O 125.394 -7.24899 -3.47528 0
M  V30 1308 H 125.126 -0.395389 -0.54831 0
M  V30 1309 H 127.68 -1.66566 -1.20187 0
M  V30 1310 H 125.91 -1.12707 -3.69911 0
M  V30 1311 H 127.599 -1.54225 -3.75459 0
M  V30 1312 H 128.365 -3.87842 -2.91211 0
M  V30 1313 H 124.244 -2.86907 -3.6084 0
M  V30 1314 H 127.788 -6.2753 -3.04716 0
M  V30 1315 H 123.685 -5.25716 -3.74556 0
M  V30 1316 H 124.453 -7.33039 -3.64138 0
M  V30 1317 N 127.117 1.15442 -1.07289 0
M  V30 1318 C 128.049 2.19773 -0.650585 0
M  V30 1319 C 129.062 1.60076 0.296572 0
M  V30 1320 O 130.251 1.78293 0.0859905 0
M  V30 1321 C 127.351 3.38838 0.0650398 0
M  V30 1322 C 126.524 4.2808 -0.898141 0
M  V30 1323 C 125.583 5.2574 -0.219926 0
M  V30 1324 O 124.609 5.62654 -0.860773 0
M  V30 1325 N 125.811 5.71205 1.03466 0
M  V30 1326 H 128.576 2.56622 -1.54808 0
M  V30 1327 H 126.137 1.30551 -0.957494 0
M  V30 1328 H 128.129 4.01222 0.529415 0
M  V30 1329 H 126.699 3.00409 0.864466 0
M  V30 1330 H 125.919 3.62804 -1.54165 0
M  V30 1331 H 127.207 4.84577 -1.5512 0
M  V30 1332 H 126.605 5.43325 1.57526 0
M  V30 1333 H 125.162 6.35633 1.44272 0
M  V30 1334 N 128.595 0.856903 1.32268 0
M  V30 1335 C 129.823 0.475439 2.01363 0
M  V30 1336 C 130.238 -0.928486 1.64392 0
M  V30 1337 O 129.595 -1.60624 0.866387 0
M  V30 1338 C 129.646 0.607545 3.56358 0
M  V30 1339 O 129.367 1.95617 3.92002 0
M  V30 1340 C 130.868 0.225382 4.42727 0
M  V30 1341 H 128.088 0.186636 0.644521 0
M  V30 1342 H 130.632 1.15446 1.68797 0
M  V30 1343 H 128.787 -0.0237719 3.87393 0
M  V30 1344 H 129.201 1.95455 4.86721 0
M  V30 1345 H 130.675 0.368813 5.50767 0
M  V30 1346 H 131.152 -0.834369 4.31202 0
M  V30 1347 H 131.758 0.831864 4.17085 0
M  V30 1348 N 130.073 -1.45103 0.615059 0
M  V30 1349 C 131.484 -1.85654 0.197383 0
M  V30 1350 C 131.835 -1.51433 -1.24749 0
M  V30 1351 O 130.96 -0.944608 -1.94695 0
M  V30 1352 C 131.555 -3.36972 0.351448 0
M  V30 1353 C 130.114 -3.76398 -0.011593 0
M  V30 1354 C 129.261 -2.69024 0.672394 0
M  V30 1355 H 132.212 -1.35797 0.821263 0
M  V30 1356 H 132.233 -3.78239 -0.414227 0
M  V30 1357 H 131.745 -3.61847 1.40314 0
M  V30 1358 H 129.846 -3.5714 -1.06217 0
M  V30 1359 H 129.959 -4.77532 0.387265 0
M  V30 1360 H 128.323 -2.54465 0.109284 0
M  V30 1361 H 129.106 -2.96735 1.72636 0
M  V30 1362 N 131.551 -0.354651 -1.53558 0
M  V30 1363 C 132.461 0.50515 -2.29097 0
M  V30 1364 C 133.477 1.10223 -1.34636 0
M  V30 1365 O 134.653 1.11553 -1.67684 0
M  V30 1366 C 131.718 1.63479 -3.05738 0
M  V30 1367 C 130.779 1.06636 -4.15845 0
M  V30 1368 C 130.012 2.14217 -4.88822 0
M  V30 1369 O 130.235 3.35137 -4.61562 0
M  V30 1370 O 129.169 1.77887 -5.75013 0
M  V30 1371 H 132.995 -0.109237 -3.03503 0
M  V30 1372 H 130.58 -0.119357 -1.48922 0
M  V30 1373 H 132.462 2.2918 -3.5363 0
M  V30 1374 H 131.137 2.23478 -2.34178 0
M  V30 1375 H 130.044 0.373565 -3.7223 0
M  V30 1376 H 131.377 0.511081 -4.89539 0
M  V30 1377 N 133.029 1.57378 -0.0835403 0
M  V30 1378 C 133.959 2.1641 0.87686 0
M  V30 1379 C 134.94 1.09429 1.30228 0
M  V30 1380 O 136.125 1.37516 1.37124 0
M  V30 1381 C 133.255 2.73517 2.14022 0
M  V30 1382 C 132.209 3.85769 1.85381 0
M  V30 1383 C 131.535 4.29529 3.18448 0
M  V30 1384 C 132.835 5.09486 1.14984 0
M  V30 1385 H 134.529 2.96914 0.385059 0
M  V30 1386 H 132.075 1.42823 0.18377 0
M  V30 1387 H 134.028 3.13463 2.81636 0
M  V30 1388 H 132.752 1.90252 2.65465 0
M  V30 1389 H 131.411 3.46345 1.20169 0
M  V30 1390 H 131.059 3.43169 3.67755 0
M  V30 1391 H 130.759 5.05204 3.00071 0
M  V30 1392 H 132.283 4.72099 3.8724 0
M  V30 1393 H 133.697 5.46674 1.72687 0
M  V30 1394 H 132.094 5.90515 1.06826 0
M  V30 1395 H 133.164 4.84724 0.130749 0
M  V30 1396 N 134.507 -0.190092 1.56449 0
M  V30 1397 C 135.437 -1.23816 1.97969 0
M  V30 1398 C 136.418 -1.47201 0.852395 0
M  V30 1399 O 137.603 -1.58854 1.1171 0
M  V30 1400 C 134.733 -2.5813 2.3235 0
M  V30 1401 C 133.687 -2.49348 3.47864 0
M  V30 1402 C 133.013 -3.8798 3.67934 0
M  V30 1403 C 134.313 -2.01424 4.81898 0
M  V30 1404 H 136.007 -0.89311 2.85769 0
M  V30 1405 H 133.553 -0.428177 1.37487 0
M  V30 1406 H 135.506 -3.31637 2.59991 0
M  V30 1407 H 134.23 -2.94386 1.41438 0
M  V30 1408 H 132.889 -1.78297 3.20321 0
M  V30 1409 H 132.537 -4.21597 2.74344 0
M  V30 1410 H 132.237 -3.82978 4.45648 0
M  V30 1411 H 133.761 -4.63101 3.97957 0
M  V30 1412 H 135.175 -2.64693 5.08538 0
M  V30 1413 H 133.572 -2.07413 5.63116 0
M  V30 1414 H 134.642 -0.967677 4.75146 0
M  V30 1415 N 135.985 -1.50799 -0.457987 0
M  V30 1416 C 137.231 -1.62683 -1.21088 0
M  V30 1417 C 137.564 -0.332268 -1.91336 0
M  V30 1418 O 136.839 0.667043 -1.82704 0
M  V30 1419 C 137.122 -2.81615 -2.24422 0
M  V30 1420 C 136.975 -4.20989 -1.58392 0
M  V30 1421 C 138.294 -2.96085 -3.2561 0
M  V30 1422 H 135.413 -0.592087 -0.438864 0
M  V30 1423 H 138.055 -1.83225 -0.50286 0
M  V30 1424 H 136.205 -2.64231 -2.84806 0
M  V30 1425 H 137.877 -4.49994 -1.01504 0
M  V30 1426 H 136.12 -4.24641 -0.886704 0
M  V30 1427 H 136.791 -5.0016 -2.33547 0
M  V30 1428 H 139.267 -3.12042 -2.75262 0
M  V30 1429 H 138.143 -3.80902 -3.95228 0
M  V30 1430 H 138.404 -2.0726 -3.90507 0
M  V30 1431 N 137.463 0.71206 -1.40597 0
M  V30 1432 C 138.393 1.83889 -1.43899 0
M  V30 1433 C 139.374 1.67442 -0.299504 0
M  V30 1434 O 140.559 1.87421 -0.508624 0
M  V30 1435 C 137.689 3.21877 -1.30431 0
M  V30 1436 C 136.643 3.53002 -2.42019 0
M  V30 1437 C 135.969 4.90172 -2.13626 0
M  V30 1438 C 137.269 3.53643 -3.84362 0
M  V30 1439 H 138.963 1.81383 -2.38203 0
M  V30 1440 H 136.509 0.871237 -1.14654 0
M  V30 1441 H 138.462 4.00404 -1.31357 0
M  V30 1442 H 137.186 3.24968 -0.326049 0
M  V30 1443 H 135.845 2.76818 -2.40349 0
M  V30 1444 H 135.493 4.89869 -1.14182 0
M  V30 1445 H 135.193 5.11962 -2.88389 0
M  V30 1446 H 136.717 5.71028 -2.1624 0
M  V30 1447 H 138.131 4.22203 -3.87837 0
M  V30 1448 H 136.528 3.86961 -4.58673 0
M  V30 1449 H 137.598 2.52954 -4.13693 0
M  V30 1450 N 138.941 1.26152 0.944643 0
M  V30 1451 C 140.352 1.10454 1.50522 0
M  V30 1452 C 140.703 -0.31635 1.93633 0
M  V30 1453 O 139.828 -1.20746 1.79581 0
M  V30 1454 C 140.423 1.99891 2.73549 0
M  V30 1455 C 138.982 1.88348 3.25886 0
M  V30 1456 C 138.129 1.93447 1.9868 0
M  V30 1457 H 141.08 1.39292 0.760489 0
M  V30 1458 H 141.101 1.54477 3.47732 0
M  V30 1459 H 140.613 3.03297 2.42141 0
M  V30 1460 H 138.714 0.878636 3.62092 0
M  V30 1461 H 138.827 2.73696 3.93227 0
M  V30 1462 H 137.191 1.37456 2.14425 0
M  V30 1463 H 137.974 2.98476 1.69607 0
M  V30 1464 N 140.419 -1.14872 1.07899 0
M  V30 1465 C 141.665 -1.86064 0.806725 0
M  V30 1466 C 141.998 -1.82434 -0.665706 0
M  V30 1467 O 141.273 -1.25138 -1.48899 0
M  V30 1468 C 141.556 -3.34929 1.32267 0
M  V30 1469 C 141.409 -3.47161 2.86006 0
M  V30 1470 C 142.728 -4.29863 0.943717 0
M  V30 1471 H 139.847 -0.675591 0.294526 0
M  V30 1472 H 142.489 -1.34925 1.33773 0
M  V30 1473 H 140.639 -3.78611 0.870974 0
M  V30 1474 H 142.311 -3.12302 3.39507 0
M  V30 1475 H 140.554 -2.88539 3.23925 0
M  V30 1476 H 141.225 -4.51777 3.17177 0
M  V30 1477 H 143.701 -3.9417 1.33302 0
M  V30 1478 H 142.577 -5.32494 1.33198 0
M  V30 1479 H 142.838 -4.41846 -0.149796 0
M  V30 1480 N 141.898 -0.863906 -1.31812 0
M  V30 1481 C 143.126 -0.486111 -2.01108 0
M  V30 1482 C 143.541 0.919755 -1.64882 0
M  V30 1483 O 142.898 1.60162 -0.874893 0
M  V30 1484 C 142.949 -0.626435 -3.56031 0
M  V30 1485 O 142.67 -1.97693 -3.90959 0
M  V30 1486 C 144.171 -0.248857 -4.42601 0
M  V30 1487 H 141.391 -0.190052 -0.643523 0
M  V30 1488 H 143.935 -1.1634 -1.68182 0
M  V30 1489 H 142.09 0.00322717 -3.874 0
M  V30 1490 H 142.504 -1.98034 -4.85678 0
M  V30 1491 H 143.978 -0.398016 -5.50563 0
M  V30 1492 H 144.455 0.811489 -4.31638 0
M  V30 1493 H 145.061 -0.853971 -4.16638 0
M  V30 1494 N 143.376 1.44774 -0.622745 0
M  V30 1495 C 144.326 2.2774 0.108889 0
M  V30 1496 C 145.31 1.38189 0.824175 0
M  V30 1497 O 146.502 1.62063 0.711664 0
M  V30 1498 C 143.631 3.25353 1.09546 0
M  V30 1499 C 142.717 4.22392 0.380232 0
M  V30 1500 N 143.108 5.02388 -0.586535 0
M  V30 1501 C 141.406 4.41588 0.625792 0
M  V30 1502 C 142.107 5.72894 -1.00834 0
M  V30 1503 N 141.083 5.42479 -0.348878 0
M  V30 1504 H 144.885 2.86993 -0.63341 0
M  V30 1505 H 142.399 1.5611 -0.447589 0
M  V30 1506 H 144.396 3.83538 1.63414 0
M  V30 1507 H 143.056 2.6766 1.83815 0
M  V30 1508 H 144.067 5.0885 -0.963975 0
M  V30 1509 H 140.744 3.95003 1.352 0
M  V30 1510 H 142.134 6.47158 -1.80656 0
M  V30 1511 N 144.854 0.36279 1.53368 0
M  V30 1512 C 146.102 -0.227326 2.00817 0
M  V30 1513 C 146.423 -1.49511 1.25186 0
M  V30 1514 O 145.693 -1.92482 0.364348 0
M  V30 1515 H 144.273 -0.0869923 0.741917 0
M  V30 1516 H 146.935 0.488381 1.88682 0
M  V30 1517 H 146.031 -0.456273 3.08747 0
M  V30 1518 N 146.332 -1.57332 0.0918853 0
M  V30 1519 C 147.609 -1.85691 -0.614668 0
M  V30 1520 C 147.989 -0.988146 -1.86545 0
M  V30 1521 O 147.337 -0.0597055 -2.28422 0
M  V30 1522 C 147.547 -3.36294 -0.933126 0
M  V30 1523 C 148.895 -4.04275 -1.29796 0
M  V30 1524 O 149.919 -3.41157 -1.02424 0
M  V30 1525 O 148.778 -5.1564 -1.81047 0
M  V30 1526 H 145.872 -0.767802 -0.307261 0
M  V30 1527 H 148.418 -1.69244 0.12434 0
M  V30 1528 H 147.19 -3.91273 -0.0456404 0
M  V30 1529 H 146.813 -3.58076 -1.72822 0
M  V30 1530 N 147.81 0.181792 -1.56548 0
M  V30 1531 C 149.038 0.915947 -1.85521 0
M  V30 1532 C 149.453 1.76282 -0.676016 0
M  V30 1533 O 148.81 1.79012 0.355077 0
M  V30 1534 C 148.861 1.80126 -3.13427 0
M  V30 1535 O 148.582 0.988562 -4.26801 0
M  V30 1536 C 150.083 2.64597 -3.55673 0
M  V30 1537 H 147.303 0.26661 -0.61576 0
M  V30 1538 H 149.847 0.185039 -2.03661 0
M  V30 1539 H 148.002 2.48563 -2.97145 0
M  V30 1540 H 148.416 1.59308 -4.99721 0
M  V30 1541 H 149.89 3.2235 -4.48101 0
M  V30 1542 H 150.367 3.38958 -2.79292 0
M  V30 1543 H 150.973 2.0151 -3.74532 0
M  V30 1544 N 149.288 1.51039 0.449983 0
M  V30 1545 C 150.565 1.53612 1.21089 0
M  V30 1546 C 150.945 0.292997 2.09057 0
M  V30 1547 O 150.293 -0.72259 2.16774 0
M  V30 1548 C 150.503 2.84337 2.0237 0
M  V30 1549 C 151.851 3.35807 2.59843 0
M  V30 1550 O 152.875 2.85802 2.12593 0
M  V30 1551 O 151.734 4.23029 3.45989 0
M  V30 1552 H 148.828 0.617057 0.550608 0
M  V30 1553 H 151.374 1.63344 0.460082 0
M  V30 1554 H 150.146 3.66278 1.37681 0
M  V30 1555 H 149.769 2.77708 2.84542 0
M  V30 1556 N 150.766 -0.704594 1.40972 0
M  V30 1557 C 151.996 -1.49138 1.42974 0
M  V30 1558 C 152.404 -1.89175 0.0308406 0
M  V30 1559 O 151.747 -1.56734 -0.958138 0
M  V30 1560 C 151.809 -2.79016 2.26694 0
M  V30 1561 C 151.473 -2.61236 3.74973 0
M  V30 1562 C 152.47 -2.27773 4.67349 0
M  V30 1563 C 150.155 -2.77158 4.18914 0
M  V30 1564 C 152.149 -2.10457 6.01653 0
M  V30 1565 C 149.836 -2.59459 5.53285 0
M  V30 1566 C 150.834 -2.26158 6.4447 0
M  V30 1567 O 150.522 -2.08605 7.76363 0
M  V30 1568 H 150.254 -0.466443 0.489292 0
M  V30 1569 H 152.808 -0.8758 1.85793 0
M  V30 1570 H 151.038 -3.42947 1.78673 0
M  V30 1571 H 152.727 -3.40782 2.20504 0
M  V30 1572 H 153.493 -2.15095 4.34694 0
M  V30 1573 H 149.372 -3.02064 3.48251 0
M  V30 1574 H 152.916 -1.84387 6.72791 0
M  V30 1575 H 148.813 -2.71725 5.85522 0
M  V30 1576 H 149.581 -2.23439 7.87412 0
M  V30 1577 N 152.244 -1.26651 -0.937939 0
M  V30 1578 C 153.174 -1.10993 -2.05433 0
M  V30 1579 C 154.155 -0.0142161 -1.70094 0
M  V30 1580 O 155.34 -0.186837 -1.93299 0
M  V30 1581 C 152.47 -0.745561 -3.39203 0
M  V30 1582 C 151.424 -1.79337 -3.88616 0
M  V30 1583 C 150.75 -1.28324 -5.19073 0
M  V30 1584 C 152.05 -3.19553 -4.13138 0
M  V30 1585 H 153.744 -2.0438 -2.1879 0
M  V30 1586 H 151.29 -0.984041 -1.05131 0
M  V30 1587 H 153.243 -0.622888 -4.16771 0
M  V30 1588 H 151.967 0.22401 -3.25831 0
M  V30 1589 H 150.626 -1.90477 -3.13231 0
M  V30 1590 H 150.274 -0.303414 -5.02084 0
M  V30 1591 H 149.974 -1.98369 -5.53103 0
M  V30 1592 H 151.498 -1.1733 -5.99221 0
M  V30 1593 H 152.912 -3.11471 -4.81309 0
M  V30 1594 H 151.309 -3.87218 -4.58457 0
M  V30 1595 H 152.379 -3.65368 -3.18801 0
M  V30 1596 N 153.722 1.14298 -1.08507 0
M  V30 1597 C 154.947 1.8976 -0.837001 0
M  V30 1598 C 155.372 1.78097 0.605228 0
M  V30 1599 O 154.73 1.12188 1.4242 0
M  V30 1600 C 154.778 3.37685 -1.26495 0
M  V30 1601 O 153.882 4.10281 -0.417514 0
M  V30 1602 H 153.223 0.590365 -0.303917 0
M  V30 1603 H 155.753 1.44672 -1.44676 0
M  V30 1604 H 155.763 3.88501 -1.24625 0
M  V30 1605 H 154.438 3.45492 -2.31534 0
M  V30 1606 H 153.015 3.69536 -0.499722 0
M  V30 1607 N 155.201 0.870884 1.31352 0
M  V30 1608 C 156.447 0.492314 1.97352 0
M  V30 1609 C 156.802 -0.945174 1.67583 0
M  V30 1610 O 156.095 -1.65674 0.962423 0
M  V30 1611 C 156.289 0.687157 3.50732 0
M  V30 1612 C 156.118 2.14203 3.95407 0
M  V30 1613 C 154.888 2.78382 4.21701 0
M  V30 1614 C 157.086 3.1144 4.09279 0
M  V30 1615 N 155.068 4.14611 4.52737 0
M  V30 1616 C 156.439 4.32702 4.44037 0
M  V30 1617 C 158.494 3.07418 3.91661 0
M  V30 1618 C 157.197 5.50463 4.63015 0
M  V30 1619 C 159.223 4.24438 4.11833 0
M  V30 1620 C 158.585 5.44463 4.46923 0
M  V30 1621 H 154.684 0.229206 0.747655 0
M  V30 1622 H 157.268 1.12568 1.5886 0
M  V30 1623 H 155.439 0.083384 3.8831 0
M  V30 1624 H 157.171 0.276883 4.03752 0
M  V30 1625 H 153.926 2.29326 4.14375 0
M  V30 1626 H 154.35 4.84928 4.72413 0
M  V30 1627 H 158.992 2.15732 3.6362 0
M  V30 1628 H 156.71 6.42666 4.89904 0
M  V30 1629 H 160.296 4.2278 3.99685 0
M  V30 1630 H 159.176 6.33504 4.62214 0
M  V30 1631 N 156.679 -1.44442 0.630414 0
M  V30 1632 C 157.609 -2.33418 -0.0618083 0
M  V30 1633 C 158.59 -1.48165 -0.835541 0
M  V30 1634 O 159.775 -1.76886 -0.801564 0
M  V30 1635 C 156.905 -3.31222 -1.04449 0
M  V30 1636 C 155.859 -4.26288 -0.382436 0
M  V30 1637 C 155.185 -5.13954 -1.47497 0
M  V30 1638 C 156.485 -5.1744 0.710865 0
M  V30 1639 H 158.179 -2.91548 0.681184 0
M  V30 1640 H 155.725 -1.40191 0.329026 0
M  V30 1641 H 157.678 -3.92351 -1.53748 0
M  V30 1642 H 156.402 -2.71299 -1.81836 0
M  V30 1643 H 155.061 -3.6649 0.0899054 0
M  V30 1644 H 154.709 -4.50385 -2.2397 0
M  V30 1645 H 154.409 -5.7837 -1.03737 0
M  V30 1646 H 155.933 -5.77955 -1.96979 0
M  V30 1647 H 157.347 -5.72509 0.300996 0
M  V30 1648 H 155.744 -5.90455 1.07156 0
M  V30 1649 H 156.814 -4.58496 1.57829 0
M  V30 1650 N 158.157 -0.370918 -1.53173 0
M  V30 1651 C 159.105 0.488101 -2.27421 0
M  V30 1652 C 160.099 1.07884 -1.30604 0
M  V30 1653 O 161.305 1.02143 -1.48212 0
M  V30 1654 H 157.68 0.176134 -0.731082 0
M  V30 1655 H 159.651 -0.159815 -2.97972 0
M  V30 1656 C 158.4 1.61306 -3.08019 0
M  V30 1657 H 157.723 1.1678 -3.82364 0
M  V30 1658 H 159.163 2.18872 -3.63141 0
M  V30 1659 C 157.622 2.55848 -2.19188 0
M  V30 1660 O 158.152 3.58799 -1.80626 0
M  V30 1661 N 156.358 2.2516 -1.83715 0
M  V30 1662 H 155.905 1.41476 -2.15273 0
M  V30 1663 H 155.863 2.8867 -1.24567 0
M  V30 1664 N 159.635 1.57281 -0.100228 0
M  V30 1665 C 160.598 2.13158 0.842398 0
M  V30 1666 C 161.598 1.06202 1.20738 0
M  V30 1667 O 162.788 1.32066 1.13597 0
M  V30 1668 C 159.92 2.65639 2.13655 0
M  V30 1669 H 161.113 2.97766 0.357114 0
M  V30 1670 H 158.666 1.5559 0.148823 0
M  V30 1671 H 159.401 1.84566 2.66657 0
M  V30 1672 H 159.186 3.43844 1.88451 0
M  V30 1673 H 160.676 3.08846 2.81077 0
M  V30 1674 N 161.113 -0.173488 1.56642 0
M  V30 1675 C 162.338 -0.910149 1.86363 0
M  V30 1676 C 162.763 -1.75132 0.686318 0
M  V30 1677 O 162.121 -1.77595 -0.364643 0
M  V30 1678 C 162.169 -1.76447 3.14482 0
M  V30 1679 O 161.273 -2.86584 2.96553 0
M  V30 1680 H 160.614 -0.255086 0.613047 0
M  V30 1681 H 163.144 -0.172283 2.03873 0
M  V30 1682 H 163.154 -2.16483 3.45831 0
M  V30 1683 H 161.829 -1.14658 3.99783 0
M  V30 1684 H 160.406 -2.50146 2.76553 0
M  V30 1685 N 162.591 -1.51276 -0.441967 0
M  V30 1686 C 163.521 -1.752 -1.54361 0
M  V30 1687 C 164.502 -0.601682 -1.59103 0
M  V30 1688 O 165.687 -0.843913 -1.74905 0
M  V30 1689 C 162.817 -1.87282 -2.92477 0
M  V30 1690 C 161.771 -3.02687 -3.02596 0
M  V30 1691 C 161.097 -2.99947 -4.42647 0
M  V30 1692 C 162.397 -4.4273 -2.77106 0
M  V30 1693 H 164.091 -2.67442 -1.34592 0
M  V30 1694 H 161.637 -1.28694 -0.646048 0
M  V30 1695 H 163.59 -2.02602 -3.695 0
M  V30 1696 H 162.314 -0.916844 -3.13467 0
M  V30 1697 H 160.973 -2.87065 -2.28012 0
M  V30 1698 H 160.621 -2.02136 -4.60597 0
M  V30 1699 H 160.321 -3.77439 -4.50348 0
M  V30 1700 H 161.845 -3.17354 -5.2165 0
M  V30 1701 H 163.259 -4.58727 -3.43864 0
M  V30 1702 H 161.656 -5.21893 -2.96222 0
M  V30 1703 H 162.726 -4.53087 -1.72744 0
M  V30 1704 N 164.069 0.697108 -1.41344 0
M  V30 1705 C 165.485 1.00751 -1.2378 0
M  V30 1706 C 165.685 2.01105 -0.126066 0
M  V30 1707 O 164.741 2.47295 0.51004 0
M  V30 1708 C 166.054 1.53359 -2.58653 0
M  V30 1709 C 167.602 1.6525 -2.65822 0
M  V30 1710 C 168.077 2.2126 -4.01009 0
M  V30 1711 N 169.568 2.28622 -4.02847 0
M  V30 1712 C 170.303 2.72984 -5.04249 0
M  V30 1713 N 169.799 3.16962 -6.16041 0
M  V30 1714 N 171.592 2.72534 -4.91611 0
M  V30 1715 H 163.743 0.0322662 -2.12375 0
M  V30 1716 H 166.006 0.0768853 -0.944877 0
M  V30 1717 H 165.712 0.870773 -3.4075 0
M  V30 1718 H 165.586 2.51597 -2.81032 0
M  V30 1719 H 167.973 2.30644 -1.84086 0
M  V30 1720 H 168.054 0.655614 -2.47256 0
M  V30 1721 H 167.698 1.56482 -4.83193 0
M  V30 1722 H 167.628 3.21698 -4.16915 0
M  V30 1723 H 170.119 1.97585 -3.22131 0
M  V30 1724 H 170.432 3.49434 -6.89287 0
M  V30 1725 H 168.777 3.14875 -6.1958 0
M  V30 1726 H 171.968 2.37525 -4.0336 0
M  V30 1727 H 172.141 3.06789 -5.70775 0
M  V30 1728 O 165.586 1.37986 0.839172 0
M  V30 1729 H 166.277 1.24844 1.481 0
M  V30 END ATOM
M  V30 BEGIN BOND
M  V30 END BOND
M  V30 END CTAB
M  END
$$$$
