drugbank_target|P69441 Adenylate kinase (DB01717)
 OpenBabel12092119503D

  0  0  0     0  0            999 V3000
M  V30 BEGIN CTAB
M  V30 COUNTS 3341 3365 0 0 0
M  V30 BEGIN ATOM
M  V30 1 H -0.908 1.98254 -0.117106 0
M  V30 2 N 0 1.576 0 0
M  V30 3 C 0.933 2.03868 1.02534 0
M  V30 4 C 1.911 0.928543 1.3348 0
M  V30 5 O 3.095 1.19667 1.45644 0
M  V30 6 C 0.222 2.43627 2.35294 0
M  V30 7 C -0.732 3.65373 2.2001 0
M  V30 8 S 0.101 5.13292 1.52614 0
M  V30 9 C 1.257 5.56322 2.86805 0
M  V30 10 H 1.49 2.90518 0.631377 0
M  V30 11 H -0.977 1.52953 0.210867 0
M  V30 12 H 0.981 2.67203 3.11629 0
M  V30 13 H -0.358 1.57376 2.7183 0
M  V30 14 H -1.165 3.90944 3.18086 0
M  V30 15 H -1.563 3.418 1.51819 0
M  V30 16 H 0.729 5.58782 3.83104 0
M  V30 17 H 1.672 6.56266 2.65933 0
M  V30 18 H 2.08 4.83886 2.90714 0
M  V30 19 N 1.4781 -0.272755 1.55222 0
M  V30 20 C 2.8941 -0.619959 1.47067 0
M  V30 21 C 3.0941 -1.895 0.684978 0
M  V30 22 O 2.1501 -2.51675 0.203931 0
M  V30 23 C 3.4631 -0.746693 2.91282 0
M  V30 24 C 5.0111 -0.840731 3.01497 0
M  V30 25 C 5.4861 -0.99924 4.46967 0
M  V30 26 N 6.9771 -1.06476 4.50796 0
M  V30 27 C 7.7121 -1.20621 5.6057 0
M  V30 28 N 7.2081 -1.31483 6.80209 0
M  V30 29 N 9.0011 -1.23733 5.48312 0
M  V30 30 H 1.1521 0.564606 2.04758 0
M  V30 31 H 3.4151 0.191177 0.928523 0
M  V30 32 H 3.1211 0.119753 3.51496 0
M  V30 33 H 2.9951 -1.6269 3.40311 0
M  V30 34 H 5.3821 -1.69764 2.41379 0
M  V30 35 H 5.4631 0.0640874 2.5572 0
M  V30 36 H 5.1071 -0.146984 5.07687 0
M  V30 37 H 5.0371 -1.91871 4.90401 0
M  V30 38 H 7.5281 -0.993196 3.64615 0
M  V30 39 H 7.8411 -1.42111 7.59621 0
M  V30 40 H 6.1861 -1.28487 6.8302 0
M  V30 41 H 9.3771 -1.14877 4.53785 0
M  V30 42 H 9.5501 -1.34412 6.33906 0
M  V30 43 N 2.9562 -1.48159 -0.537278 0
M  V30 44 C 4.2052 -1.5506 -1.28993 0
M  V30 45 C 4.5182 -0.226211 -1.94288 0
M  V30 46 O 5.7242 -0.173395 -2.70946 0
M  V30 47 C 4.1802 -2.73429 -2.34018 0
M  V30 48 C 3.7882 -4.1248 -1.74825 0
M  V30 49 C 5.5322 -2.89638 -3.10339 0
M  V30 50 C 3.4392 -5.22121 -2.77747 0
M  V30 51 H 2.3692 -0.577231 -0.485098 0
M  V30 52 H 5.0202 -1.74478 -0.568317 0
M  V30 53 H 3.4022 -2.47431 -3.09182 0
M  V30 54 H 4.5762 -4.48466 -1.05899 0
M  V30 55 H 2.8912 -4.01327 -1.11022 0
M  V30 56 H 5.4882 -3.68718 -3.87235 0
M  V30 57 H 5.8312 -1.9882 -3.65754 0
M  V30 58 H 6.3642 -3.15502 -2.42288 0
M  V30 59 H 3.1032 -6.1488 -2.27161 0
M  V30 60 H 2.6232 -4.90631 -3.45024 0
M  V30 61 H 4.3022 -5.49924 -3.4087 0
M  V30 62 N 4.4343 0.785586 -1.36625 0
M  V30 63 C 5.6833 1.53883 -1.30396 0
M  V30 64 C 5.9963 1.95271 0.113452 0
M  V30 65 O 7.2023 2.69858 0.298142 0
M  V30 66 C 5.6583 2.77808 -2.28802 0
M  V30 67 C 5.2663 2.43574 -3.75999 0
M  V30 68 C 7.0103 3.55783 -2.31558 0
M  V30 69 C 4.9173 3.63919 -4.66173 0
M  V30 70 H 3.8473 0.577678 -0.484566 0
M  V30 71 H 6.4983 0.861705 -1.62009 0
M  V30 72 H 4.8803 3.47339 -1.90188 0
M  V30 73 H 6.0543 1.81916 -4.23371 0
M  V30 74 H 4.3693 1.78803 -3.76056 0
M  V30 75 H 6.9663 4.45205 -2.96137 0
M  V30 76 H 7.3093 3.94644 -1.3252 0
M  V30 77 H 7.8423 2.93235 -2.68809 0
M  V30 78 H 4.5813 3.3015 -5.66287 0
M  V30 79 H 4.1013 4.2473 -4.23515 0
M  V30 80 H 5.7803 4.30901 -4.82632 0
M  V30 81 N 5.9124 1.20967 1.01018 0
M  V30 82 C 6.8424 0.988272 2.11555 0
M  V30 83 C 7.8234 -0.0849778 1.69888 0
M  V30 84 O 9.0084 0.0738202 1.9406 0
M  V30 85 C 6.1384 0.546528 3.42973 0
M  V30 86 C 5.0924 1.56375 3.9841 0
M  V30 87 C 4.4184 0.97842 5.25672 0
M  V30 88 C 5.7184 2.94922 4.31066 0
M  V30 89 H 7.4124 1.91276 2.30334 0
M  V30 90 H 4.9584 0.921073 1.1069 0
M  V30 91 H 6.9114 0.378839 4.19694 0
M  V30 92 H 5.6354 -0.413598 3.23971 0
M  V30 93 H 4.2944 1.71891 3.23804 0
M  V30 94 H 3.9424 0.0101688 5.02999 0
M  V30 95 H 3.6424 1.65784 5.63728 0
M  V30 96 H 5.1664 0.821939 6.05043 0
M  V30 97 H 6.5804 2.8288 4.9865 0
M  V30 98 H 4.9774 3.5983 4.80253 0
M  V30 99 H 6.0474 3.4616 3.39561 0
M  V30 100 N 7.3905 -1.2043 1.01659 0
M  V30 101 C 8.3205 -2.25466 0.607226 0
M  V30 102 C 9.3015 -1.65853 -0.377716 0
M  V30 103 O 10.4865 -1.92409 -0.263149 0
M  V30 104 C 7.6165 -3.47256 -0.0552949 0
M  V30 105 C 6.5705 -4.19462 0.850632 0
M  V30 106 C 5.8965 -5.34673 0.0538859 0
M  V30 107 C 7.1965 -4.75603 2.15868 0
M  V30 108 H 8.8905 -2.59962 1.48526 0
M  V30 109 H 6.4365 -1.2496 0.715605 0
M  V30 110 H 8.3895 -4.19917 -0.353233 0
M  V30 111 H 7.1135 -3.11924 -0.968045 0
M  V30 112 H 5.7725 -3.48667 1.13257 0
M  V30 113 H 5.4205 -4.95585 -0.860514 0
M  V30 114 H 5.1205 -5.83913 0.657192 0
M  V30 115 H 6.6445 -6.10138 -0.237598 0
M  V30 116 H 8.0585 -5.40083 1.92311 0
M  V30 117 H 6.4555 -5.3528 2.71284 0
M  V30 118 H 7.5255 -3.94346 2.82169 0
M  V30 119 N 8.8686 -0.792821 -1.36206 0
M  V30 120 C 10.1166 -0.366062 -1.98757 0
M  V30 121 C 10.4376 1.0668 -1.63231 0
M  V30 122 O 9.7076 1.73587 -0.907978 0
M  V30 123 H 8.2876 -0.132364 -0.735179 0
M  V30 124 H 10.9496 -1.01562 -1.66347 0
M  V30 125 H 10.0456 -0.460638 -3.08682 0
M  V30 126 N 10.3467 1.47872 -0.545128 0
M  V30 127 C 11.3097 2.28337 0.198717 0
M  V30 128 C 12.3097 1.36255 0.853888 0
M  V30 129 O 13.4997 1.59003 0.711606 0
M  V30 130 C 10.6317 3.15585 1.28915 0
M  V30 131 H 11.8247 2.95567 -0.507941 0
M  V30 132 H 9.3777 1.53362 -0.301616 0
M  V30 133 H 10.1127 2.53019 2.02859 0
M  V30 134 H 9.8977 3.83337 0.824309 0
M  V30 135 H 11.3877 3.76243 1.81194 0
M  V30 136 N 11.8248 0.280983 1.55075 0
M  V30 137 C 13.2358 -0.215629 1.85451 0
M  V30 138 C 13.5868 -1.54991 1.203 0
M  V30 139 O 12.7118 -2.10699 0.493435 0
M  V30 140 C 13.3068 -0.398026 3.36454 0
M  V30 141 C 11.8658 -0.838866 3.66933 0
M  V30 142 C 11.0128 0.064458 2.77225 0
M  V30 143 H 13.9638 0.502601 1.50531 0
M  V30 144 H 13.9848 -1.23569 3.59876 0
M  V30 145 H 13.4968 0.573241 3.83843 0
M  V30 146 H 11.5978 -1.8214 3.25048 0
M  V30 147 H 11.7108 -0.672123 4.74362 0
M  V30 148 H 10.0748 -0.452863 2.50642 0
M  V30 149 H 10.8578 1.03172 3.2743 0
M  V30 150 N 13.3029 -1.57598 0.00835791 0
M  V30 151 C 14.5509 -1.90551 -0.6734 0
M  V30 152 C 14.8719 -0.883301 -1.73847 0
M  V30 153 O 14.1419 0.0781442 -1.95744 0
M  V30 154 H 12.7219 -0.703312 -0.251717 0
M  V30 155 H 15.3839 -1.94833 0.0512592 0
M  V30 156 H 14.4799 -2.9056 -1.13935 0
M  V30 157 N 14.781 0.264519 -1.55364 0
M  V30 158 C 15.744 1.31046 -1.88042 0
M  V30 159 C 16.744 1.41943 -0.755569 0
M  V30 160 O 17.934 1.40947 -1.02369 0
M  V30 161 C 15.066 2.69067 -2.09323 0
M  V30 162 H 16.259 1.03297 -2.81549 0
M  V30 163 H 13.812 0.502989 -1.47986 0
M  V30 164 H 14.547 3.01982 -1.18226 0
M  V30 165 H 14.332 2.62542 -2.91229 0
M  V30 166 H 15.822 3.44623 -2.35848 0
M  V30 167 N 16.2591 1.48442 0.529413 0
M  V30 168 C 17.5071 1.56179 1.28267 0
M  V30 169 C 17.8281 0.237721 1.93546 0
M  V30 170 O 17.0981 -0.740779 1.81354 0
M  V30 171 H 15.6781 0.575367 0.476405 0
M  V30 172 H 18.3401 1.84909 0.61602 0
M  V30 173 H 17.4361 2.34312 2.06165 0
M  V30 174 N 17.7372 -0.778329 1.37039 0
M  V30 175 C 18.6842 -1.89139 1.32269 0
M  V30 176 C 19.6542 -1.65017 0.189387 0
M  V30 177 O 20.8392 -1.87024 0.377693 0
M  V30 178 C 17.9792 -3.26112 1.12894 0
M  V30 179 C 17.0922 -3.62233 2.35396 0
M  V30 180 C 16.2272 -4.8838 2.08946 0
M  V30 181 C 15.2662 -5.17212 3.2735 0
M  V30 182 N 14.4032 -6.34546 3.00492 0
M  V30 183 H 19.2432 -1.92552 2.27437 0
M  V30 184 H 16.7802 -0.941473 1.13025 0
M  V30 185 H 18.7382 -4.05116 0.996835 0
M  V30 186 H 17.3682 -3.22091 0.213758 0
M  V30 187 H 16.4202 -2.78265 2.5937 0
M  V30 188 H 17.7322 -3.79481 3.23721 0
M  V30 189 H 16.8862 -5.75274 1.92729 0
M  V30 190 H 15.6252 -4.73222 1.17949 0
M  V30 191 H 14.6302 -4.28796 3.44113 0
M  V30 192 H 15.8552 -5.34283 4.19188 0
M  V30 193 H 13.8012 -6.20759 2.12118 0
M  V30 194 H 13.7182 -6.52179 3.82358 0
M  V30 195 H 14.9862 -7.24394 2.87879 0
M  V30 196 N 19.2153 -1.21501 -1.00376 0
M  V30 197 C 20.4633 -1.03095 -1.73827 0
M  V30 198 C 20.7843 0.436341 -1.90055 0
M  V30 199 O 20.0543 1.31466 -1.45236 0
M  V30 200 H 18.6343 -0.378487 -0.644016 0
M  V30 201 H 21.2963 -1.52831 -1.20949 0
M  V30 202 H 20.3923 -1.49991 -2.73695 0
M  V30 203 N 20.6934 1.19889 -1.02296 0
M  V30 204 C 21.9214 1.9339 -0.735399 0
M  V30 205 C 22.3364 1.75148 0.704887 0
M  V30 206 O 21.6934 1.06954 1.47875 0
M  V30 207 C 21.7444 3.45313 -1.06962 0
M  V30 208 O 21.4654 3.62964 -2.45334 0
M  V30 209 C 22.9664 4.35948 -0.804021 0
M  V30 210 H 20.1864 0.61448 -0.269546 0
M  V30 211 H 22.7304 1.522 -1.36585 0
M  V30 212 H 20.8854 3.84359 -0.484455 0
M  V30 213 H 21.2994 4.56886 -2.57595 0
M  V30 214 H 22.7734 5.41174 -1.0879 0
M  V30 215 H 23.2504 4.3842 0.261691 0
M  V30 216 H 23.8564 4.02574 -1.37164 0
M  V30 217 N 22.1715 0.800033 1.35784 0
M  V30 218 C 23.1035 0.163596 2.28615 0
M  V30 219 C 24.1165 -0.633317 1.49976 0
M  V30 220 O 25.3055 -0.466754 1.72289 0
M  V30 221 C 22.4055 -0.790958 3.29541 0
M  V30 222 C 21.5785 -0.0418255 4.3738 0
M  V30 223 C 20.6375 -0.91389 5.18203 0
M  V30 224 O 19.6635 -0.367234 5.68014 0
M  V30 225 N 20.8655 -2.23682 5.35674 0
M  V30 226 H 23.6305 0.96105 2.83873 0
M  V30 227 H 21.1915 0.654894 1.48063 0
M  V30 228 H 23.1835 -1.37844 3.80501 0
M  V30 229 H 21.7535 -1.48925 2.74846 0
M  V30 230 H 20.9735 0.726813 3.87442 0
M  V30 231 H 22.2615 0.474719 5.06581 0
M  V30 232 H 21.6595 -2.70497 4.96838 0
M  V30 233 H 20.2165 -2.77369 5.89839 0
M  V30 234 N 23.6496 -1.47581 0.552962 0
M  V30 235 C 24.6126 -2.28439 -0.186605 0
M  V30 236 C 25.6126 -1.36706 -0.84665 0
M  V30 237 O 26.8026 -1.59378 -0.703164 0
M  V30 238 C 23.9346 -3.16264 -1.2724 0
M  V30 239 H 25.1276 -2.95294 0.523609 0
M  V30 240 H 22.6806 -1.532 0.309745 0
M  V30 241 H 23.4156 -2.54091 -2.01514 0
M  V30 242 H 23.2006 -3.83769 -0.803968 0
M  V30 243 H 24.6906 -3.77198 -1.79196 0
M  V30 244 N 25.1277 -0.289203 -1.54924 0
M  V30 245 C 26.0597 0.625583 -2.20497 0
M  V30 246 C 27.0727 1.10667 -1.19402 0
M  V30 247 O 28.2617 1.02615 -1.46056 0
M  V30 248 C 25.3617 1.86702 -2.82835 0
M  V30 249 C 24.5347 1.5304 -4.09753 0
M  V30 250 C 23.5937 2.62576 -4.56005 0
M  V30 251 O 22.6197 2.28167 -5.21468 0
M  V30 252 N 23.8217 3.92901 -4.27328 0
M  V30 253 H 26.5867 0.0642801 -2.99631 0
M  V30 254 H 24.1477 -0.110896 -1.6152 0
M  V30 255 H 26.1397 2.59304 -3.10715 0
M  V30 256 H 24.7097 2.33702 -2.07611 0
M  V30 257 H 23.9297 0.637564 -3.8901 0
M  V30 258 H 25.2177 1.28072 -4.92418 0
M  V30 259 H 24.6157 4.23671 -3.74859 0
M  V30 260 H 23.1727 4.61837 -4.59946 0
M  V30 261 N 26.6058 1.57591 -0.0167156 0
M  V30 262 C 27.8528 1.91283 0.664597 0
M  V30 263 C 28.1808 0.891949 1.72842 0
M  V30 264 O 27.4358 -0.100931 1.9544 0
M  V30 265 C 27.7348 3.3172 1.33029 0
M  V30 266 C 27.4008 4.4914 0.398047 0
M  V30 267 C 26.0628 4.80992 0.141421 0
M  V30 268 C 28.4148 5.20634 -0.242825 0
M  V30 269 C 25.7428 5.81703 -0.764092 0
M  V30 270 C 28.0948 6.22311 -1.13632 0
M  V30 271 C 26.7588 6.52611 -1.40196 0
M  V30 272 H 26.0288 0.699956 0.243193 0
M  V30 273 H 28.6758 1.9135 -0.0758267 0
M  V30 274 H 26.9808 3.27856 2.14517 0
M  V30 275 H 28.6778 3.55055 1.86379 0
M  V30 276 H 25.2678 4.24262 0.608238 0
M  V30 277 H 29.4518 4.96267 -0.0576019 0
M  V30 278 H 24.7078 6.03532 -0.977732 0
M  V30 279 H 28.8818 6.76834 -1.63917 0
M  V30 280 H 26.5088 7.30467 -2.10529 0
M  V30 281 N 28.0839 -0.256276 1.55502 0
M  V30 282 C 29.3329 -0.983486 1.76098 0
M  V30 283 C 29.6459 -1.86837 0.578896 0
M  V30 284 O 30.8519 -2.63163 0.667648 0
M  V30 285 C 29.3079 -1.79868 3.1173 0
M  V30 286 C 28.9159 -0.961648 4.37557 0
M  V30 287 C 30.6599 -2.51919 3.41668 0
M  V30 288 C 28.5669 -1.77219 5.64223 0
M  V30 289 H 27.4969 -0.370936 0.656447 0
M  V30 290 H 30.1479 -0.238492 1.81944 0
M  V30 291 H 28.5299 -2.58527 2.99966 0
M  V30 292 H 29.7039 -0.218048 4.60284 0
M  V30 293 H 28.0189 -0.354913 4.14885 0
M  V30 294 H 30.6159 -3.12998 4.33516 0
M  V30 295 H 30.9589 -3.23059 2.62562 0
M  V30 296 H 31.4919 -1.80278 3.54605 0
M  V30 297 H 28.2309 -1.10471 6.46124 0
M  V30 298 H 27.7509 -2.49132 5.45613 0
M  V30 299 H 29.4299 -2.34169 6.03137 0
M  V30 300 N 29.562 -1.4872 -0.521534 0
M  V30 301 C 30.495 -1.58451 -1.64221 0
M  V30 302 C 31.473 -0.434513 -1.56687 0
M  V30 303 O 32.657 -0.647275 -1.77038 0
M  V30 304 C 29.784 -1.52037 -3.02659 0
M  V30 305 C 28.83 -2.71981 -3.28525 0
M  V30 306 S 29.663 -4.33869 -3.13876 0
M  V30 307 C 30.819 -4.30067 -4.54745 0
M  V30 308 H 31.052 -2.53256 -1.55719 0
M  V30 309 H 28.585 -1.37358 -0.705143 0
M  V30 310 H 30.543 -1.49023 -3.82495 0
M  V30 311 H 29.204 -0.585541 -3.08594 0
M  V30 312 H 28.397 -2.63656 -4.29536 0
M  V30 313 H 27.999 -2.72302 -2.56374 0
M  V30 314 H 30.291 -4.00521 -5.46433 0
M  V30 315 H 31.234 -5.31287 -4.68123 0
M  V30 316 H 31.642 -3.60419 -4.34463 0
M  V30 317 N 31.0401 0.771051 -1.3745 0
M  V30 318 C 31.9501 1.91538 -1.35464 0
M  V30 319 C 32.9661 1.72134 -0.254123 0
M  V30 320 O 34.1421 1.95358 -0.489626 0
M  V30 321 C 31.2071 3.26671 -1.16134 0
M  V30 322 C 30.2681 3.58723 -2.35831 0
M  V30 323 C 29.5011 4.87409 -2.17413 0
M  V30 324 O 29.7241 5.58506 -1.15876 0
M  V30 325 O 28.6581 5.18539 -3.05615 0
M  V30 326 H 32.4841 1.96165 -2.31847 0
M  V30 327 H 30.0691 0.9139 -1.18187 0
M  V30 328 H 31.9511 4.07499 -1.07345 0
M  V30 329 H 30.6261 3.22894 -0.228251 0
M  V30 330 H 29.5331 2.78127 -2.50192 0
M  V30 331 H 30.8661 3.67243 -3.27709 0
M  V30 332 N 32.5182 1.22032 0.997298 0
M  V30 333 C 33.4652 0.986467 2.08656 0
M  V30 334 C 34.4352 -0.0902671 1.65855 0
M  V30 335 O 35.6202 0.0584294 1.90711 0
M  V30 336 C 32.7602 0.565569 3.40434 0
M  V30 337 C 31.8732 1.71259 3.96604 0
M  V30 338 C 31.0082 1.24011 5.16522 0
M  V30 339 C 30.0472 2.35896 5.64818 0
M  V30 340 N 29.1842 1.89726 6.7598 0
M  V30 341 H 34.0242 1.91892 2.27994 0
M  V30 342 H 31.5612 0.956199 1.11782 0
M  V30 343 H 33.5192 0.302738 4.161 0
M  V30 344 H 32.1492 -0.329879 3.2111 0
M  V30 345 H 31.2012 2.08986 3.17851 0
M  V30 346 H 32.5132 2.55436 4.28432 0
M  V30 347 H 31.6672 0.934395 5.99461 0
M  V30 348 H 30.4062 0.368487 4.86306 0
M  V30 349 H 29.4112 2.67261 4.8047 0
M  V30 350 H 30.6362 3.23567 5.97061 0
M  V30 351 H 28.5822 1.0492 6.47555 0
M  V30 352 H 28.4992 2.67471 7.07103 0
M  V30 353 H 29.7672 1.62211 7.62435 0
M  V30 354 N 33.9963 -1.19345 1.0293 0
M  V30 355 C 35.2263 -1.92717 0.744563 0
M  V30 356 C 35.6343 -1.75751 -0.700579 0
M  V30 357 O 34.9773 -1.07703 -1.48815 0
M  V30 358 C 35.0393 -3.44828 1.01657 0
M  V30 359 C 34.7033 -3.85564 2.45335 0
M  V30 360 C 35.7003 -3.90286 3.43472 0
M  V30 361 C 33.3853 -4.1719 2.79746 0
M  V30 362 C 35.3793 -4.26065 4.74075 0
M  V30 363 C 33.0663 -4.52642 4.10559 0
M  V30 364 C 34.0643 -4.57054 5.07534 0
M  V30 365 O 33.7523 -4.91685 6.36004 0
M  V30 366 H 33.4843 -0.618977 0.271742 0
M  V30 367 H 36.0383 -1.52415 1.37691 0
M  V30 368 H 34.2683 -3.85314 0.327084 0
M  V30 369 H 35.9573 -3.99437 0.721427 0
M  V30 370 H 36.7233 -3.66002 3.18225 0
M  V30 371 H 32.6023 -4.1294 2.04943 0
M  V30 372 H 36.1463 -4.29423 5.49765 0
M  V30 373 H 32.0433 -4.76383 4.35579 0
M  V30 374 H 32.8113 -5.09631 6.40483 0
M  V30 375 N 35.4744 -0.807222 -1.35358 0
M  V30 376 C 36.7224 -0.387122 -1.98358 0
M  V30 377 C 37.0434 1.04942 -1.64354 0
M  V30 378 O 36.3134 1.72615 -0.926339 0
M  V30 379 H 34.8934 -0.140154 -0.733734 0
M  V30 380 H 37.5554 -1.0332 -1.6526 0
M  V30 381 H 36.6514 -0.493352 -3.08176 0
M  V30 382 N 36.9525 1.47285 -0.560781 0
M  V30 383 C 38.2015 2.01668 -0.035895 0
M  V30 384 C 38.5145 1.44021 1.32353 0
M  V30 385 O 39.7205 1.90088 1.93853 0
M  V30 386 C 38.1765 3.59897 -0.0136659 0
M  V30 387 C 37.7845 4.26536 -1.37006 0
M  V30 388 C 39.5285 4.22017 0.458425 0
M  V30 389 C 37.4355 5.76782 -1.30675 0
M  V30 390 H 36.3655 0.753938 -0.00964879 0
M  V30 391 H 39.0165 1.69243 -0.709166 0
M  V30 392 H 37.3985 3.89301 0.725325 0
M  V30 393 H 38.5725 4.0877 -2.12705 0
M  V30 394 H 36.8875 3.76419 -1.78038 0
M  V30 395 H 39.4845 5.32124 0.524247 0
M  V30 396 H 39.8275 3.89437 1.4712 0
M  V30 397 H 40.3605 3.97159 -0.225818 0
M  V30 398 H 37.0995 6.13988 -2.29564 0
M  V30 399 H 36.6195 5.96875 -0.591622 0
M  V30 400 H 38.2985 6.39063 -1.01033 0
M  V30 401 N 38.4306 0.297415 1.54768 0
M  V30 402 C 39.8416 -0.195947 1.85669 0
M  V30 403 C 40.1926 -1.53707 1.21937 0
M  V30 404 O 39.3176 -2.10164 0.515754 0
M  V30 405 C 39.9126 -0.362318 3.36857 0
M  V30 406 C 38.4716 -0.799901 3.67802 0
M  V30 407 C 37.6186 0.0938578 2.77141 0
M  V30 408 H 40.5696 0.518538 1.4999 0
M  V30 409 H 40.5906 -1.19745 3.61167 0
M  V30 410 H 40.1026 0.613921 3.83214 0
M  V30 411 H 38.2036 -1.78682 3.26961 0
M  V30 412 H 38.3166 -0.621773 4.75048 0
M  V30 413 H 36.6806 -0.426254 2.51108 0
M  V30 414 H 37.4636 1.06639 3.26318 0
M  V30 415 N 39.9087 -1.5758 0.0250728 0
M  V30 416 C 40.8407 -2.06869 -0.986796 0
M  V30 417 C 41.8537 -0.991332 -1.29137 0
M  V30 418 O 43.0427 -1.26761 -1.25674 0
M  V30 419 C 40.1427 -2.47486 -2.31525 0
M  V30 420 C 39.3157 -3.78253 -2.19643 0
M  V30 421 C 38.3747 -4.05464 -3.35388 0
M  V30 422 O 37.4007 -4.75774 -3.12454 0
M  V30 423 N 38.6027 -3.55321 -4.59051 0
M  V30 424 H 41.3677 -2.94302 -0.566276 0
M  V30 425 H 38.9287 -1.6109 -0.161776 0
M  V30 426 H 40.9207 -2.62785 -3.07776 0
M  V30 427 H 39.4907 -1.65441 -2.65232 0
M  V30 428 H 38.7107 -3.7279 -1.28144 0
M  V30 429 H 39.9987 -4.63936 -2.08903 0
M  V30 430 H 39.3967 -2.98431 -4.80578 0
M  V30 431 H 37.9537 -3.75905 -5.32483 0
M  V30 432 N 41.3868 0.248026 -1.55636 0
M  V30 433 C 42.6358 0.974134 -1.76617 0
M  V30 434 C 42.9488 1.86528 -0.588796 0
M  V30 435 O 44.1548 2.62805 -0.681594 0
M  V30 436 C 42.6108 1.78213 -3.12679 0
M  V30 437 C 42.2188 0.93843 -4.38061 0
M  V30 438 C 43.9628 2.50104 -3.42999 0
M  V30 439 C 41.8698 1.74225 -5.65155 0
M  V30 440 H 40.7998 0.36745 -0.658405 0
M  V30 441 H 43.4508 0.22884 -1.82067 0
M  V30 442 H 41.8328 2.56933 -3.01333 0
M  V30 443 H 43.0068 0.193635 -4.60393 0
M  V30 444 H 41.3218 0.332905 -4.15067 0
M  V30 445 H 43.9188 3.10694 -4.3517 0
M  V30 446 H 44.2618 3.21662 -2.64271 0
M  V30 447 H 44.7948 1.78395 -3.55556 0
M  V30 448 H 41.5338 1.07043 -6.46701 0
M  V30 449 H 41.0538 2.46235 -5.46926 0
M  V30 450 H 42.7328 2.30967 -6.0437 0
M  V30 451 N 42.8649 1.48995 0.513639 0
M  V30 452 C 44.0899 1.61792 1.29762 0
M  V30 453 C 44.5149 0.284475 1.85936 0
M  V30 454 O 43.8729 -0.746185 1.65232 0
M  V30 455 C 43.9209 2.67993 2.41272 0
M  V30 456 O 43.0249 2.26287 3.44772 0
M  V30 457 H 42.3659 0.541963 0.38363 0
M  V30 458 H 44.8959 1.95097 0.616307 0
M  V30 459 H 44.9059 2.89772 2.87221 0
M  V30 460 H 43.5809 3.64791 1.9975 0
M  V30 461 H 42.1579 2.14788 3.04829 0
M  V30 462 N 44.343 -0.763751 1.37857 0
M  V30 463 C 45.571 -1.55293 1.36718 0
M  V30 464 C 45.986 -1.88745 -0.0455434 0
M  V30 465 O 45.343 -1.52039 -1.00947 0
M  V30 466 C 45.394 -2.85831 2.2132 0
M  V30 467 O 45.115 -2.5381 3.57089 0
M  V30 468 C 46.616 -3.80023 2.28249 0
M  V30 469 H 43.836 -0.480841 0.468009 0
M  V30 470 H 46.38 -0.946009 1.81303 0
M  V30 471 H 44.535 -3.42926 1.80223 0
M  V30 472 H 44.949 -3.37459 4.01524 0
M  V30 473 H 46.423 -4.68599 2.91752 0
M  V30 474 H 46.9 -4.1973 1.2932 0
M  V30 475 H 47.506 -3.28855 2.69693 0
M  V30 476 N 45.8211 -1.22559 -0.990812 0
M  V30 477 C 47.0691 -1.04933 -1.72724 0
M  V30 478 C 47.3901 0.416158 -1.90508 0
M  V30 479 O 46.6601 1.29918 -1.46622 0
M  V30 480 H 45.2401 -0.385296 -0.639965 0
M  V30 481 H 47.9021 -1.54105 -1.19322 0
M  V30 482 H 46.9981 -1.52886 -2.72089 0
M  V30 483 N 47.2992 1.18797 -1.03562 0
M  V30 484 C 48.5762 1.84469 -0.650434 0
M  V30 485 C 48.9562 1.92319 0.870433 0
M  V30 486 O 48.3042 1.44528 1.76986 0
M  V30 487 C 48.5142 3.2306 -1.32036 0
M  V30 488 C 49.8622 3.9915 -1.44792 0
M  V30 489 O 50.8862 3.32481 -1.27806 0
M  V30 490 O 49.7452 5.18587 -1.72423 0
M  V30 491 H 46.8392 0.795251 -0.226946 0
M  V30 492 H 49.3852 1.26231 -1.13419 0
M  V30 493 H 48.1572 3.1222 -2.3587 0
M  V30 494 H 47.7802 3.88949 -0.8249 0
M  V30 495 N 48.7773 0.814389 1.34928 0
M  V30 496 C 49.7103 0.175641 2.27523 0
M  V30 497 C 50.6883 -0.662953 1.48471 0
M  V30 498 O 51.8723 -0.628545 1.77712 0
M  V30 499 C 48.9993 -0.755516 3.30166 0
M  V30 500 C 48.0453 0.00445305 4.265 0
M  V30 501 S 48.8783 1.34582 5.18313 0
M  V30 502 C 50.0343 0.419315 6.24494 0
M  V30 503 H 50.2673 0.960691 2.8135 0
M  V30 504 H 47.8003 0.609846 1.41846 0
M  V30 505 H 49.7583 -1.28723 3.89796 0
M  V30 506 H 48.4193 -1.51402 2.75202 0
M  V30 507 H 47.6123 -0.703077 4.99072 0
M  V30 508 H 47.2143 0.466447 3.7108 0
M  V30 509 H 49.5063 -0.392432 6.76362 0
M  V30 510 H 50.4493 1.11446 6.99275 0
M  V30 511 H 50.8573 0.0115389 5.64499 0
M  V30 512 N 50.2554 -1.46986 0.568584 0
M  V30 513 C 51.1854 -2.32946 -0.160753 0
M  V30 514 C 52.1664 -1.44487 -0.897631 0
M  V30 515 O 53.3514 -1.73327 -0.875867 0
M  V30 516 C 50.4814 -3.26494 -1.18403 0
M  V30 517 C 49.4354 -4.24282 -0.562895 0
M  V30 518 C 48.7614 -5.07236 -1.69163 0
M  V30 519 C 50.0614 -5.19989 0.490761 0
M  V30 520 H 51.7554 -2.94175 0.556916 0
M  V30 521 H 49.3014 -1.4146 0.26927 0
M  V30 522 H 51.2544 -3.85477 -1.70251 0
M  V30 523 H 49.9784 -2.63343 -1.93179 0
M  V30 524 H 48.6374 -3.66541 -0.0656164 0
M  V30 525 H 48.2854 -4.4048 -2.42871 0
M  V30 526 H 47.9854 -5.7345 -1.28174 0
M  V30 527 H 49.5094 -5.6908 -2.21314 0
M  V30 528 H 50.9234 -5.73271 0.0579047 0
M  V30 529 H 49.3204 -5.94469 0.820165 0
M  V30 530 H 50.3904 -4.64777 1.3824 0
M  V30 531 N 51.7335 -0.305618 -1.54608 0
M  V30 532 C 53.1495 0.0476228 -1.59529 0
M  V30 533 C 53.3495 1.52025 -1.32252 0
M  V30 534 O 52.4055 2.27368 -1.09818 0
M  V30 535 C 53.7185 -0.354471 -2.98603 0
M  V30 536 C 55.2665 -0.303622 -3.11524 0
M  V30 537 C 55.7415 -0.680608 -4.52915 0
M  V30 538 N 57.2325 -0.63332 -4.5885 0
M  V30 539 C 57.9675 -0.897432 -5.66334 0
M  V30 540 N 57.4635 -1.22775 -6.81834 0
M  V30 541 N 59.2565 -0.824186 -5.56025 0
M  V30 542 H 51.4075 -1.2653 -1.70599 0
M  V30 543 H 53.6705 -0.513291 -0.797017 0
M  V30 544 H 53.3765 -1.3798 -3.23503 0
M  V30 545 H 53.2505 0.289568 -3.76087 0
M  V30 546 H 55.6375 0.712472 -2.8637 0
M  V30 547 H 55.7185 -0.982348 -2.36185 0
M  V30 548 H 55.3625 -1.69453 -4.78799 0
M  V30 549 H 55.2925 0.0202385 -5.26596 0
M  V30 550 H 57.7835 -0.389138 -3.75891 0
M  V30 551 H 58.0965 -1.41513 -7.59733 0
M  V30 552 H 56.4415 -1.26583 -6.83375 0
M  V30 553 H 59.6325 -0.565748 -4.64669 0
M  V30 554 H 59.8055 -1.03338 -6.39707 0
M  V30 555 N 53.2116 1.57565 -0.0334293 0
M  V30 556 C 54.1746 2.09393 0.932048 0
M  V30 557 C 55.1746 1.00986 1.25134 0
M  V30 558 O 56.3646 1.27129 1.19096 0
M  V30 559 C 53.4966 2.56338 2.2473 0
M  V30 560 H 54.6896 2.95984 0.483085 0
M  V30 561 H 52.2426 1.54819 0.21468 0
M  V30 562 H 52.9776 1.7309 2.74245 0
M  V30 563 H 52.7626 3.35542 2.02865 0
M  V30 564 H 54.2526 2.96646 2.93923 0
M  V30 565 N 54.6897 -0.239769 1.55765 0
M  V30 566 C 55.6527 -1.28038 1.90103 0
M  V30 567 C 56.6527 -1.40723 0.778055 0
M  V30 568 O 57.8427 -1.39301 1.04599 0
M  V30 569 C 54.9747 -2.65702 2.13577 0
M  V30 570 H 56.1677 -0.988048 2.83157 0
M  V30 571 H 53.7207 -0.479382 1.48767 0
M  V30 572 H 54.4557 -3.00063 1.23015 0
M  V30 573 H 54.2407 -2.57875 2.95369 0
M  V30 574 H 55.7307 -3.40828 2.41301 0
M  V30 575 N 56.1678 -1.49265 -0.50573 0
M  V30 576 C 57.4138 -1.58748 -1.26202 0
M  V30 577 C 57.7468 -0.271227 -1.92297 0
M  V30 578 O 57.0218 0.724831 -1.80489 0
M  V30 579 C 57.3048 -2.74332 -2.33268 0
M  V30 580 C 57.1578 -4.15737 -1.71705 0
M  V30 581 C 58.4768 -2.85576 -3.34865 0
M  V30 582 H 55.5958 -0.577826 -0.457478 0
M  V30 583 H 58.2378 -1.81532 -0.560897 0
M  V30 584 H 56.3878 -2.55036 -2.93068 0
M  V30 585 H 58.0598 -4.46537 -1.15769 0
M  V30 586 H 56.3028 -4.21605 -1.02135 0
M  V30 587 H 56.9738 -4.92477 -2.49341 0
M  V30 588 H 59.4498 -3.03127 -2.8505 0
M  V30 589 H 58.3258 -3.68135 -4.07146 0
M  V30 590 H 58.5868 -1.94732 -3.96903 0
M  V30 591 N 57.6459 0.756429 -1.3826 0
M  V30 592 C 58.5929 1.87011 -1.35261 0
M  V30 593 C 59.5629 1.64695 -0.215616 0
M  V30 594 O 60.7479 1.864 -0.407399 0
M  V30 595 C 57.8879 3.24275 -1.18068 0
M  V30 596 C 57.0009 3.58442 -2.41129 0
M  V30 597 C 56.1359 4.84994 -2.16689 0
M  V30 598 C 55.1749 5.11939 -3.35537 0
M  V30 599 N 54.3119 6.29685 -3.10549 0
M  V30 600 H 59.1519 1.8891 -2.30472 0
M  V30 601 H 56.6889 0.923373 -1.14509 0
M  V30 602 H 58.6469 4.03479 -1.06116 0
M  V30 603 H 57.2769 3.21711 -0.264973 0
M  V30 604 H 56.3289 2.74103 -2.63764 0
M  V30 605 H 57.6409 3.74283 -3.29717 0
M  V30 606 H 56.7949 5.72135 -2.01857 0
M  V30 607 H 55.5339 4.71286 -1.25462 0
M  V30 608 H 54.5389 4.23268 -3.50891 0
M  V30 609 H 55.7639 5.27546 -4.27635 0
M  V30 610 H 53.7099 6.17306 -2.21967 0
M  V30 611 H 53.6269 6.46014 -3.92686 0
M  V30 612 H 54.8949 7.19722 -2.99367 0
M  V30 613 N 59.124 1.23083 0.984299 0
M  V30 614 C 60.349 1.088 1.76571 0
M  V30 615 C 60.774 -0.356657 1.84688 0
M  V30 616 O 60.132 -1.25788 1.30565 0
M  V30 617 C 60.18 1.71371 3.17277 0
M  V30 618 O 59.284 0.973213 4.00752 0
M  V30 619 H 58.625 0.381599 0.543395 0
M  V30 620 H 61.155 1.63057 1.23587 0
M  V30 621 H 61.165 1.76449 3.67872 0
M  V30 622 H 59.84 2.76493 3.10684 0
M  V30 623 H 58.417 0.999078 3.59267 0
M  V30 624 N 60.6021 -1.18246 1.0419 0
M  V30 625 C 61.8501 -1.87886 0.744543 0
M  V30 626 C 62.1711 -1.8082 -0.730006 0
M  V30 627 O 61.4411 -1.22736 -1.52685 0
M  V30 628 H 60.0211 -0.695556 0.272417 0
M  V30 629 H 62.6831 -1.43494 1.31892 0
M  V30 630 H 61.7791 -2.9389 1.05049 0
M  V30 631 N 62.0802 -0.821533 -1.34494 0
M  V30 632 C 63.3052 -0.420873 -2.03085 0
M  V30 633 C 63.7302 0.964915 -1.61465 0
M  V30 634 O 63.0882 1.62763 -0.798607 0
M  V30 635 C 63.1362 -0.529414 -3.56693 0
M  V30 636 O 62.2402 0.451302 -4.09923 0
M  V30 637 H 61.5812 -0.173489 -0.640935 0
M  V30 638 H 64.1112 -1.11157 -1.71771 0
M  V30 639 H 64.1212 -0.404671 -4.05988 0
M  V30 640 H 62.7962 -1.54014 -3.86332 0
M  V30 641 H 61.3732 0.285558 -3.71805 0
M  V30 642 N 63.5583 1.46682 -0.576371 0
M  V30 643 C 64.4683 2.34032 0.163141 0
M  V30 644 C 65.4843 1.49367 0.892501 0
M  V30 645 O 66.6603 1.82252 0.857106 0
M  V30 646 C 63.7253 3.26435 1.16795 0
M  V30 647 C 62.7863 4.26998 0.443944 0
M  V30 648 C 62.0193 5.14986 1.40088 0
M  V30 649 O 62.2423 5.05785 2.637 0
M  V30 650 O 61.1763 5.94906 0.914917 0
M  V30 651 H 65.0023 2.98607 -0.55388 0
M  V30 652 H 62.5873 1.45554 -0.336821 0
M  V30 653 H 64.4693 3.83459 1.74748 0
M  V30 654 H 63.1443 2.64465 1.86655 0
M  V30 655 H 62.0513 3.7368 -0.177271 0
M  V30 656 H 63.3843 4.91736 -0.213566 0
M  V30 657 N 65.0364 0.313813 1.54444 0
M  V30 658 C 65.9664 -0.549454 2.26943 0
M  V30 659 C 66.9474 -1.12741 1.27372 0
M  V30 660 O 68.1324 -1.15436 1.56167 0
M  V30 661 C 65.2624 -1.71523 3.01989 0
M  V30 662 C 64.2164 -1.26703 4.08816 0
M  V30 663 C 63.5424 -2.51898 4.71647 0
M  V30 664 C 64.8424 -0.388962 5.2085 0
M  V30 665 H 66.5364 0.0552661 2.99349 0
M  V30 666 H 64.0824 0.0280207 1.43973 0
M  V30 667 H 66.0354 -2.32535 3.51433 0
M  V30 668 H 64.7594 -2.34639 2.27183 0
M  V30 669 H 63.4184 -0.679896 3.6024 0
M  V30 670 H 63.0664 -3.13356 3.93468 0
M  V30 671 H 62.7664 -2.22605 5.43802 0
M  V30 672 H 64.2904 -3.1369 5.23861 0
M  V30 673 H 65.7044 -0.905107 5.6611 0
M  V30 674 H 64.1014 -0.18924 5.99802 0
M  V30 675 H 65.1714 0.582699 4.81386 0
M  V30 676 N 66.5145 -1.57545 0.0417849 0
M  V30 677 C 67.7625 -1.91937 -0.632829 0
M  V30 678 C 68.0835 -0.919978 -1.71934 0
M  V30 679 O 67.3535 0.0366064 -1.95866 0
M  V30 680 H 65.9335 -0.708493 -0.236742 0
M  V30 681 H 68.5955 -1.9468 0.0925745 0
M  V30 682 H 67.6915 -2.92912 -1.07746 0
M  V30 683 N 67.9926 0.231505 -1.5589 0
M  V30 684 C 68.9396 1.28682 -1.91598 0
M  V30 685 C 69.9096 1.47071 -0.771974 0
M  V30 686 O 71.0946 1.60802 -1.027 0
M  V30 687 C 68.2346 2.6342 -2.22944 0
M  V30 688 C 67.3476 2.52912 -3.50228 0
M  V30 689 C 66.4826 3.80106 -3.7107 0
M  V30 690 C 65.5216 3.64279 -4.91902 0
M  V30 691 N 64.6586 4.834 -5.09184 0
M  V30 692 H 69.4986 0.975305 -2.81588 0
M  V30 693 H 67.0356 0.470299 -1.39379 0
M  V30 694 H 68.9936 3.41869 -2.39126 0
M  V30 695 H 67.6236 2.92687 -1.36139 0
M  V30 696 H 66.6756 1.6595 -3.42294 0
M  V30 697 H 67.9876 2.37133 -4.38827 0
M  V30 698 H 67.1416 4.66999 -3.87295 0
M  V30 699 H 65.8806 3.98799 -2.80733 0
M  V30 700 H 64.8856 2.7577 -4.75637 0
M  V30 701 H 66.1106 3.47067 -5.83714 0
M  V30 702 H 64.0566 5.02425 -4.21788 0
M  V30 703 H 63.9736 4.70311 -5.91898 0
M  V30 704 H 65.2416 5.71747 -5.29835 0
M  V30 705 N 69.4707 1.49531 0.497807 0
M  V30 706 C 70.4027 1.62559 1.61578 0
M  V30 707 C 71.4157 0.508134 1.54667 0
M  V30 708 O 72.6047 0.780309 1.60541 0
M  V30 709 C 69.7047 1.56925 3.00379 0
M  V30 710 C 68.8777 2.84257 3.3244 0
M  V30 711 C 67.9367 2.71632 4.50669 0
M  V30 712 O 66.9627 3.4557 4.52294 0
M  V30 713 N 68.1647 1.83391 5.5077 0
M  V30 714 H 70.9297 2.58981 1.50828 0
M  V30 715 H 68.4907 1.4666 0.685743 0
M  V30 716 H 70.4827 1.46129 3.77397 0
M  V30 717 H 69.0527 0.683483 3.05037 0
M  V30 718 H 68.2727 3.09381 2.44289 0
M  V30 719 H 69.5607 3.68666 3.5066 0
M  V30 720 H 68.9587 1.22583 5.52259 0
M  V30 721 H 67.5157 1.78515 6.26878 0
M  V30 722 N 70.9488 -0.749086 1.3866 0
M  V30 723 C 71.9118 -1.84457 1.36045 0
M  V30 724 C 72.9118 -1.58682 0.260122 0
M  V30 725 O 74.1018 -1.66343 0.517261 0
M  V30 726 C 71.2338 -3.22008 1.11911 0
M  V30 727 H 72.4268 -1.88182 2.33512 0
M  V30 728 H 69.9798 -0.951266 1.24019 0
M  V30 729 H 70.7148 -3.2395 0.150686 0
M  V30 730 H 70.4998 -3.42111 1.91579 0
M  V30 731 H 71.9898 -4.0208 1.12788 0
M  V30 732 N 72.4269 -1.23603 -0.977757 0
M  V30 733 C 73.3739 -1.01954 -2.07061 0
M  V30 734 C 74.3439 0.0638697 -1.65977 0
M  V30 735 O 75.5289 -0.0887624 -1.90593 0
M  V30 736 C 72.6689 -0.619658 -3.39491 0
M  V30 737 C 71.7819 -1.77547 -3.93829 0
M  V30 738 C 70.9169 -1.32212 -5.14484 0
M  V30 739 C 69.9559 -2.44852 -5.60994 0
M  V30 740 N 69.0929 -2.00456 -6.72876 0
M  V30 741 H 73.9329 -1.95495 -2.24913 0
M  V30 742 H 71.4699 -0.973861 -1.10247 0
M  V30 743 H 73.4279 -0.368898 -4.15566 0
M  V30 744 H 72.0579 0.278752 -3.21594 0
M  V30 745 H 71.1099 -2.14016 -3.14486 0
M  V30 746 H 72.4219 -2.62219 -4.24314 0
M  V30 747 H 71.5759 -1.02965 -5.97899 0
M  V30 748 H 70.3149 -0.445808 -4.85658 0
M  V30 749 H 69.3199 -2.74871 -4.76157 0
M  V30 750 H 70.5449 -3.33024 -5.91837 0
M  V30 751 H 68.4909 -1.15208 -6.45804 0
M  V30 752 H 68.4079 -2.78687 -7.02759 0
M  V30 753 H 69.6759 -1.7432 -7.59758 0
M  V30 754 N 73.905 1.17692 -1.04816 0
M  V30 755 C 75.182 1.83768 -0.669963 0
M  V30 756 C 75.562 1.93232 0.849986 0
M  V30 757 O 74.91 1.46397 1.75443 0
M  V30 758 C 75.12 3.21641 -1.35455 0
M  V30 759 C 76.468 3.97592 -1.49017 0
M  V30 760 O 77.492 3.31107 -1.31326 0
M  V30 761 O 76.351 5.16729 -1.77914 0
M  V30 762 H 73.445 0.792799 -0.235368 0
M  V30 763 H 75.991 1.25021 -1.14751 0
M  V30 764 H 74.763 3.097 -2.39168 0
M  V30 765 H 74.386 3.88052 -0.866107 0
M  V30 766 N 75.3831 0.828654 1.34056 0
M  V30 767 C 76.6321 0.415828 1.97367 0
M  V30 768 C 76.9451 -1.02796 1.6641 0
M  V30 769 O 78.1511 -1.54497 2.23255 0
M  V30 770 C 76.6071 0.692601 3.53173 0
M  V30 771 C 76.2151 2.15038 3.93017 0
M  V30 772 C 77.9591 0.346222 4.23086 0
M  V30 773 C 75.8661 2.37174 5.41758 0
M  V30 774 H 74.7961 0.151755 0.738571 0
M  V30 775 H 77.4471 1.01581 1.52819 0
M  V30 776 H 75.8291 0.0223764 3.95994 0
M  V30 777 H 77.0031 2.86024 3.61285 0
M  V30 778 H 75.3181 2.45875 3.36057 0
M  V30 779 H 77.9151 0.48937 5.32456 0
M  V30 780 H 78.2581 -0.709842 4.10204 0
M  V30 781 H 78.7911 0.971258 3.85761 0
M  V30 782 H 75.5301 3.41308 5.59633 0
M  V30 783 H 75.0501 1.70738 5.74986 0
M  V30 784 H 76.7291 2.19818 6.08514 0
M  V30 785 N 76.8612 -1.46375 0.584142 0
M  V30 786 C 77.7942 -2.27351 -0.196676 0
M  V30 787 C 78.7722 -1.35715 -0.895561 0
M  V30 788 O 79.9562 -1.65126 -0.90916 0
M  V30 789 C 77.0832 -3.13486 -1.28235 0
M  V30 790 C 76.1292 -4.20896 -0.689145 0
M  V30 791 S 76.9622 -5.33299 0.48507 0
M  V30 792 C 78.1182 -6.23 -0.601767 0
M  V30 793 H 78.3512 -2.93228 0.490395 0
M  V30 794 H 75.8842 -1.49875 0.371071 0
M  V30 795 H 77.8422 -3.63676 -1.90395 0
M  V30 796 H 76.5032 -2.4692 -1.94138 0
M  V30 797 H 75.6962 -4.80997 -1.50527 0
M  V30 798 H 75.2982 -3.73726 -0.143181 0
M  V30 799 H 77.5902 -6.60979 -1.48705 0
M  V30 800 H 78.5332 -7.0809 -0.0374799 0
M  V30 801 H 78.9412 -5.57173 -0.906557 0
M  V30 802 N 78.3393 -0.321999 -1.54275 0
M  V30 803 C 79.6163 0.335232 -1.92706 0
M  V30 804 C 79.9963 1.70006 -1.25145 0
M  V30 805 O 79.3443 2.25067 -0.394596 0
M  V30 806 C 79.5543 0.429008 -3.46353 0
M  V30 807 C 80.9023 0.690029 -4.18956 0
M  V30 808 O 81.9263 0.511992 -3.52501 0
M  V30 809 O 80.7853 1.03338 -5.36641 0
M  V30 810 H 77.8793 0.191143 -0.804608 0
M  V30 811 H 80.4253 -0.3716 -1.65581 0
M  V30 812 H 79.1973 -0.529611 -3.87699 0
M  V30 813 H 78.8203 1.18348 -3.79578 0
M  V30 814 N 79.8174 1.5752 -0.0501392 0
M  V30 815 C 80.7804 2.1037 0.909786 0
M  V30 816 C 81.7804 1.02308 1.24056 0
M  V30 817 O 82.9704 1.28385 1.17741 0
M  V30 818 C 80.1024 2.58708 2.21998 0
M  V30 819 H 81.2954 2.96479 0.451665 0
M  V30 820 H 78.8484 1.55038 0.198248 0
M  V30 821 H 79.5834 1.75989 2.72394 0
M  V30 822 H 79.3684 3.37675 1.99295 0
M  V30 823 H 80.8584 2.99747 2.9076 0
M  V30 824 N 81.2955 -0.223234 1.56011 0
M  V30 825 C 82.5435 -0.946003 1.78592 0
M  V30 826 C 82.8645 -1.84936 0.618349 0
M  V30 827 O 82.1345 -1.92473 -0.364833 0
M  V30 828 H 80.7145 -0.352298 0.658707 0
M  V30 829 H 83.3765 -0.235494 1.93472 0
M  V30 830 H 82.4725 -1.55381 2.70672 0
M  V30 831 N 82.7736 -1.49793 -0.48987 0
M  V30 832 C 83.7206 -1.67281 -1.59014 0
M  V30 833 C 84.6906 -0.514177 -1.57941 0
M  V30 834 O 85.8756 -0.742533 -1.75759 0
M  V30 835 C 83.0156 -1.75569 -2.97102 0
M  V30 836 C 82.1286 -3.0281 -3.08107 0
M  V30 837 C 81.2636 -3.02008 -4.36995 0
M  V30 838 C 80.3026 -4.23782 -4.41673 0
M  V30 839 N 79.4396 -4.20826 -5.62005 0
M  V30 840 H 84.2796 -2.61224 -1.43409 0
M  V30 841 H 81.8166 -1.29508 -0.697565 0
M  V30 842 H 83.7746 -1.78354 -3.77155 0
M  V30 843 H 82.4046 -0.850827 -3.11385 0
M  V30 844 H 81.4566 -3.09584 -2.21047 0
M  V30 845 H 82.7686 -3.92801 -3.07423 0
M  V30 846 H 81.9226 -3.03418 -5.25378 0
M  V30 847 H 80.6616 -2.09815 -4.4026 0
M  V30 848 H 79.6666 -4.22604 -3.5169 0
M  V30 849 H 80.8916 -5.17181 -4.40115 0
M  V30 850 H 78.8376 -3.31476 -5.66091 0
M  V30 851 H 78.7546 -5.04564 -5.62984 0
M  V30 852 H 80.0226 -4.26355 -6.52565 0
M  V30 853 N 84.2517 0.741722 -1.39055 0
M  V30 854 C 85.1817 1.869 -1.39966 0
M  V30 855 C 86.1627 1.6804 -0.26392 0
M  V30 856 O 87.3477 1.88458 -0.468755 0
M  V30 857 C 84.4777 3.24572 -1.23574 0
M  V30 858 C 83.4317 3.58056 -2.34477 0
M  V30 859 C 82.7577 4.94593 -2.0318 0
M  V30 860 C 84.0577 3.61716 -3.76774 0
M  V30 861 H 85.7517 1.86395 -2.34302 0
M  V30 862 H 83.2977 0.895361 -1.1278 0
M  V30 863 H 85.2507 4.031 -1.22834 0
M  V30 864 H 83.9747 3.25587 -0.257045 0
M  V30 865 H 82.6337 2.81854 -2.34423 0
M  V30 866 H 82.2817 4.92181 -1.03765 0
M  V30 867 H 81.9817 5.17964 -2.77465 0
M  V30 868 H 83.5057 5.75486 -2.04079 0
M  V30 869 H 84.9197 4.30335 -3.78794 0
M  V30 870 H 83.3167 3.96603 -4.50362 0
M  V30 871 H 84.3867 2.61672 -4.08235 0
M  V30 872 N 85.7298 1.2412 0.971189 0
M  V30 873 C 86.9758 1.08041 1.71625 0
M  V30 874 C 87.3088 -0.380407 1.90438 0
M  V30 875 O 86.5838 -1.28127 1.46334 0
M  V30 876 C 86.8668 1.81682 3.10908 0
M  V30 877 C 86.7198 3.35493 2.99608 0
M  V30 878 C 88.0388 1.58671 4.10501 0
M  V30 879 H 85.1578 0.39388 0.622919 0
M  V30 880 H 87.7998 1.52743 1.13003 0
M  V30 881 H 85.9498 1.43684 3.60953 0
M  V30 882 H 87.6218 3.83068 2.57015 0
M  V30 883 H 85.8648 3.64052 2.35899 0
M  V30 884 H 86.5358 3.82217 3.98264 0
M  V30 885 H 89.0118 1.91719 3.69301 0
M  V30 886 H 87.8878 2.1266 5.06031 0
M  V30 887 H 88.1488 0.524161 4.38982 0
M  V30 888 N 87.2079 -1.17134 1.05439 0
M  V30 889 C 88.4359 -1.91372 0.786414 0
M  V30 890 C 88.8509 -1.76955 -0.658202 0
M  V30 891 O 88.2079 -1.10838 -1.44987 0
M  V30 892 C 88.2589 -3.42356 1.1608 0
M  V30 893 O 87.9799 -3.56332 2.54871 0
M  V30 894 C 89.4809 -4.33663 0.919322 0
M  V30 895 H 86.7009 -0.607118 0.285743 0
M  V30 896 H 89.2449 -1.48525 1.40572 0
M  V30 897 H 87.3999 -3.82939 0.586191 0
M  V30 898 H 87.8139 -4.49896 2.69618 0
M  V30 899 H 89.2879 -5.38099 1.231 0
M  V30 900 H 89.7649 -4.38959 -0.145359 0
M  V30 901 H 90.3709 -3.98796 1.47789 0
M  V30 902 N 88.686 -0.835752 -1.33615 0
M  V30 903 C 89.963 -0.352017 -1.92406 0
M  V30 904 C 90.343 1.16225 -1.76224 0
M  V30 905 O 89.691 1.97526 -1.14873 0
M  V30 906 C 89.901 -0.795485 -3.39813 0
M  V30 907 C 91.249 -0.801703 -4.16963 0
M  V30 908 O 92.273 -0.738889 -3.48452 0
M  V30 909 O 91.132 -0.886607 -5.3926 0
M  V30 910 H 88.226 -0.0989641 -0.821057 0
M  V30 911 H 90.772 -0.921397 -1.42507 0
M  V30 912 H 89.544 -1.83795 -3.45449 0
M  V30 913 H 89.167 -0.202505 -3.97084 0
M  V30 914 N 90.1641 1.46063 -0.591896 0
M  V30 915 C 91.0741 2.34192 0.13831 0
M  V30 916 C 92.0901 1.50305 0.876608 0
M  V30 917 O 93.2661 1.8315 0.837728 0
M  V30 918 C 90.3311 3.27656 1.13326 0
M  V30 919 C 89.3921 4.27445 0.39863 0
M  V30 920 C 88.6251 5.16443 1.34618 0
M  V30 921 O 88.8481 5.08553 2.58321 0
M  V30 922 O 87.7821 5.95843 0.851768 0
M  V30 923 H 91.6081 2.98002 -0.58552 0
M  V30 924 H 89.1931 1.45188 -0.352239 0
M  V30 925 H 91.0751 3.85291 1.70671 0
M  V30 926 H 89.7501 2.6643 1.83839 0
M  V30 927 H 88.6571 3.73471 -0.216895 0
M  V30 928 H 89.9901 4.91482 -0.265709 0
M  V30 929 N 91.6422 0.330177 1.54103 0
M  V30 930 C 92.5722 -0.525353 2.27513 0
M  V30 931 C 93.5532 -1.11383 1.2856 0
M  V30 932 O 94.7382 -1.13773 1.57383 0
M  V30 933 C 91.8682 -1.6831 3.03791 0
M  V30 934 C 90.8222 -1.2236 4.10137 0
M  V30 935 C 90.1482 -2.46882 4.74293 0
M  V30 936 C 91.4482 -0.333697 5.21233 0
M  V30 937 H 93.1422 0.087013 2.99274 0
M  V30 938 H 90.6882 0.0432893 1.43935 0
M  V30 939 H 92.6412 -2.28795 3.5388 0
M  V30 940 H 91.3652 -2.32216 2.29659 0
M  V30 941 H 90.0242 -0.64165 3.60941 0
M  V30 942 H 89.6722 -3.09165 3.96769 0
M  V30 943 H 89.3722 -2.16825 5.46133 0
M  V30 944 H 90.8962 -3.08117 5.27159 0
M  V30 945 H 92.3102 -0.845013 5.67038 0
M  V30 946 H 90.7072 -0.125612 5.99969 0
M  V30 947 H 91.7772 0.633724 4.80741 0
M  V30 948 N 93.1203 -1.57491 0.0584922 0
M  V30 949 C 94.3663 -1.93264 -0.614558 0
M  V30 950 C 94.6993 -0.937717 -1.7006 0
M  V30 951 O 93.9743 0.0351652 -1.94468 0
M  V30 952 C 94.2573 -3.3938 -1.20386 0
M  V30 953 C 94.1103 -4.49625 -0.125375 0
M  V30 954 C 95.4293 -3.86039 -2.11334 0
M  V30 955 H 92.5483 -0.702791 -0.221933 0
M  V30 956 H 95.1903 -1.8961 0.12175 0
M  V30 957 H 93.3403 -3.42626 -1.83139 0
M  V30 958 H 95.0123 -4.58506 0.506971 0
M  V30 959 H 93.2553 -4.30354 0.545672 0
M  V30 960 H 93.9263 -5.48967 -0.577861 0
M  V30 961 H 96.4023 -3.84716 -1.58534 0
M  V30 962 H 95.2783 -4.88914 -2.49507 0
M  V30 963 H 95.5393 -3.23215 -3.01636 0
M  V30 964 N 94.5984 0.214957 -1.56127 0
M  V30 965 C 95.8474 0.936451 -1.78643 0
M  V30 966 C 96.1604 1.85237 -0.628229 0
M  V30 967 O 97.3664 2.613 -0.737186 0
M  V30 968 C 95.8224 1.7154 -3.16389 0
M  V30 969 C 95.4304 0.845299 -4.39953 0
M  V30 970 C 97.1744 2.42772 -3.48227 0
M  V30 971 C 95.0814 1.62198 -5.68723 0
M  V30 972 H 94.0114 0.353401 -0.666051 0
M  V30 973 H 96.6624 0.190169 -1.82512 0
M  V30 974 H 95.0444 2.50484 -3.06715 0
M  V30 975 H 96.2184 0.0959353 -4.607 0
M  V30 976 H 94.5334 0.244789 -4.1568 0
M  V30 977 H 97.1304 3.01394 -4.41663 0
M  V30 978 H 97.4734 3.15984 -2.71035 0
M  V30 979 H 98.0064 1.70813 -3.5926 0
M  V30 980 H 94.7454 0.933011 -6.48826 0
M  V30 981 H 94.2654 2.34579 -5.52026 0
M  V30 982 H 95.9444 2.18095 -6.09133 0
M  V30 983 N 96.0765 1.50051 0.48192 0
M  V30 984 C 97.0395 1.67584 1.5636 0
M  V30 985 C 98.0395 0.546894 1.51214 0
M  V30 986 O 99.2295 0.813725 1.54026 0
M  V30 987 C 96.3615 1.691 2.96003 0
M  V30 988 H 97.5545 2.64078 1.42136 0
M  V30 989 H 95.1075 1.39369 0.707533 0
M  V30 990 H 95.8425 0.742589 3.15684 0
M  V30 991 H 95.6275 2.51105 3.01146 0
M  V30 992 H 97.1175 1.84656 3.74556 0
M  V30 993 N 97.5546 -0.734337 1.39446 0
M  V30 994 C 98.4846 -1.86155 1.40955 0
M  V30 995 C 99.4656 -1.67898 0.272827 0
M  V30 996 O 100.651 -1.88207 0.478743 0
M  V30 997 C 97.7806 -3.23912 1.25294 0
M  V30 998 C 96.7346 -3.56808 2.36373 0
M  V30 999 C 96.0606 -4.93508 2.058 0
M  V30 1000 C 97.3606 -3.59713 3.78687 0
M  V30 1001 H 99.0546 -1.8515 2.35287 0
M  V30 1002 H 96.6006 -0.889367 1.13253 0
M  V30 1003 H 98.5536 -4.02443 1.2497 0
M  V30 1004 H 97.2776 -3.25446 0.274308 0
M  V30 1005 H 95.9366 -2.80606 2.35914 0
M  V30 1006 H 95.5846 -4.91623 1.06374 0
M  V30 1007 H 95.2846 -5.16486 2.80208 0
M  V30 1008 H 96.8086 -5.74396 2.07128 0
M  V30 1009 H 98.2226 -4.2832 3.81071 0
M  V30 1010 H 96.6196 -3.94209 4.52459 0
M  V30 1011 H 97.6896 -2.59504 4.09617 0
M  V30 1012 N 99.0327 -1.24633 -0.964593 0
M  V30 1013 C 100.279 -1.08949 -1.71049 0
M  V30 1014 C 100.612 0.370302 -1.90637 0
M  V30 1015 O 99.8867 1.27349 -1.47011 0
M  V30 1016 C 100.17 -1.83329 -3.0994 0
M  V30 1017 C 100.023 -3.37077 -2.97824 0
M  V30 1018 C 101.342 -1.60846 -4.09654 0
M  V30 1019 H 98.4607 -0.397178 -0.620821 0
M  V30 1020 H 101.103 -1.5334 -1.12191 0
M  V30 1021 H 99.2527 -1.45597 -3.60186 0
M  V30 1022 H 100.925 -3.84425 -2.5498 0
M  V30 1023 H 99.1677 -3.65298 -2.33965 0
M  V30 1024 H 99.8387 -3.84324 -3.96231 0
M  V30 1025 H 102.315 -1.93674 -3.68279 0
M  V30 1026 H 101.191 -2.1534 -5.04896 0
M  V30 1027 H 101.452 -0.547434 -4.38698 0
M  V30 1028 N 100.511 1.16574 -1.06058 0
M  V30 1029 C 101.458 2.20883 -0.669263 0
M  V30 1030 C 102.428 1.62729 0.332918 0
M  V30 1031 O 103.613 1.895 0.222346 0
M  V30 1032 C 100.753 3.45049 -0.0593572 0
M  V30 1033 C 99.8658 4.17458 -1.11143 0
M  V30 1034 C 99.0008 5.29135 -0.467916 0
M  V30 1035 C 98.0398 5.93343 -1.50369 0
M  V30 1036 N 97.1768 6.96516 -0.883706 0
M  V30 1037 H 102.017 2.53709 -1.5632 0
M  V30 1038 H 99.5538 1.24616 -0.781625 0
M  V30 1039 H 101.512 4.16033 0.311771 0
M  V30 1040 H 100.142 3.12781 0.797992 0
M  V30 1041 H 99.1938 3.45101 -1.60029 0
M  V30 1042 H 100.506 4.61307 -1.89731 0
M  V30 1043 H 99.6598 6.06684 -0.0436871 0
M  V30 1044 H 98.3988 4.86443 0.349864 0
M  V30 1045 H 97.4038 5.14517 -1.93784 0
M  V30 1046 H 98.6288 6.38114 -2.32352 0
M  V30 1047 H 96.5748 6.55943 -0.086595 0
M  V30 1048 H 96.4918 7.38723 -1.607 0
M  V30 1049 H 97.7598 7.77993 -0.484543 0
M  V30 1050 N 101.989 0.842826 1.3317 0
M  V30 1051 C 102.899 0.281444 2.32906 0
M  V30 1052 C 103.915 -0.594587 1.63526 0
M  V30 1053 O 105.091 -0.49777 1.95152 0
M  V30 1054 C 102.156 -0.530929 3.42611 0
M  V30 1055 C 101.217 0.369843 4.27704 0
M  V30 1056 C 100.45 -0.403853 5.3217 0
M  V30 1057 O 100.673 -1.63513 5.46461 0
M  V30 1058 O 99.6069 0.224199 6.01482 0
M  V30 1059 H 103.433 1.10744 2.82789 0
M  V30 1060 H 101.018 0.60545 1.36582 0
M  V30 1061 H 102.9 -0.992437 4.09547 0
M  V30 1062 H 101.575 -1.33392 2.94938 0
M  V30 1063 H 100.482 0.879275 3.6362 0
M  V30 1064 H 101.815 1.13771 4.78871 0
M  V30 1065 N 103.467 -1.45747 0.599634 0
M  V30 1066 C 104.883 -1.57424 0.26264 0
M  V30 1067 C 105.083 -1.59222 -1.23493 0
M  V30 1068 O 104.139 -1.51825 -2.01756 0
M  V30 1069 C 105.452 -2.86061 0.926795 0
M  V30 1070 C 107 -2.99722 0.901967 0
M  V30 1071 C 107.475 -4.31119 1.54598 0
M  V30 1072 N 108.966 -4.37858 1.5111 0
M  V30 1073 C 109.701 -5.3818 1.97863 0
M  V30 1074 N 109.197 -6.45083 2.52666 0
M  V30 1075 N 110.99 -5.29487 1.88679 0
M  V30 1076 H 103.141 -1.42823 1.57211 0
M  V30 1077 H 105.404 -0.68235 0.658105 0
M  V30 1078 H 105.11 -2.90605 1.98095 0
M  V30 1079 H 104.984 -3.74563 0.445238 0
M  V30 1080 H 107.371 -2.9475 -0.143617 0
M  V30 1081 H 107.452 -2.12652 1.42171 0
M  V30 1082 H 107.096 -4.36849 2.59085 0
M  V30 1083 H 107.026 -5.16992 1.00132 0
M  V30 1084 H 109.517 -3.61209 1.11068 0
M  V30 1085 H 109.83 -7.17869 2.86155 0
M  V30 1086 H 108.175 -6.45856 2.56701 0
M  V30 1087 H 111.366 -4.44877 1.4561 0
M  V30 1088 H 111.539 -6.07524 2.25429 0
M  V30 1089 N 104.945 -0.338344 -1.53925 0
M  V30 1090 C 106.194 0.260732 -2.00008 0
M  V30 1091 C 106.507 1.52073 -1.23017 0
M  V30 1092 O 107.713 2.19672 -1.5955 0
M  V30 1093 C 106.169 0.51515 -3.56194 0
M  V30 1094 C 105.777 -0.728645 -4.42035 0
M  V30 1095 C 107.521 1.07337 -4.10706 0
M  V30 1096 C 105.428 -0.445315 -5.89721 0
M  V30 1097 H 104.358 0.101205 -0.747177 0
M  V30 1098 H 107.009 -0.452866 -1.77824 0
M  V30 1099 H 105.391 1.28932 -3.74423 0
M  V30 1100 H 106.565 -1.50352 -4.35581 0
M  V30 1101 H 104.88 -1.20813 -3.98489 0
M  V30 1102 H 107.477 1.30022 -5.18651 0
M  V30 1103 H 107.82 2.0273 -3.63602 0
M  V30 1104 H 108.353 0.360034 -3.96167 0
M  V30 1105 H 105.092 -1.36883 -6.41049 0
M  V30 1106 H 104.612 0.291569 -5.99091 0
M  V30 1107 H 106.291 -0.0606218 -6.46972 0
M  V30 1108 N 106.423 1.57458 -0.0668435 0
M  V30 1109 C 107.386 2.11323 0.887422 0
M  V30 1110 C 108.386 1.03618 1.22964 0
M  V30 1111 O 109.576 1.29626 1.16373 0
M  V30 1112 C 106.708 2.61048 2.19242 0
M  V30 1113 H 107.901 2.96942 0.420194 0
M  V30 1114 H 105.454 1.55239 0.181793 0
M  V30 1115 H 106.189 1.78868 2.70512 0
M  V30 1116 H 105.974 3.39769 1.95702 0
M  V30 1117 H 107.464 3.02814 2.87565 0
M  V30 1118 N 107.901 -0.206675 1.56239 0
M  V30 1119 C 108.833 -1.27997 1.9013 0
M  V30 1120 C 109.846 -1.42299 0.790883 0
M  V30 1121 O 111.035 -1.42931 1.06925 0
M  V30 1122 C 108.135 -2.65368 2.10792 0
M  V30 1123 C 107.308 -2.72824 3.41886 0
M  V30 1124 C 106.367 -3.9131 3.51799 0
M  V30 1125 O 105.393 -3.78953 4.24716 0
M  V30 1126 N 106.595 -5.06265 2.84035 0
M  V30 1127 H 109.36 -0.992444 2.82791 0
M  V30 1128 H 106.921 -0.396652 1.56966 0
M  V30 1129 H 108.913 -3.43039 2.14724 0
M  V30 1130 H 107.483 -2.86657 1.24685 0
M  V30 1131 H 106.703 -1.81515 3.49923 0
M  V30 1132 H 107.991 -2.74786 4.28217 0
M  V30 1133 H 107.389 -5.19203 2.246 0
M  V30 1134 H 105.946 -5.81925 2.93609 0
M  V30 1135 N 109.379 -1.50304 -0.473955 0
M  V30 1136 C 110.289 -1.7174 -1.5982 0
M  V30 1137 C 111.305 -0.600457 -1.63311 0
M  V30 1138 O 112.481 -0.878441 -1.81233 0
M  V30 1139 C 109.546 -1.80427 -2.96052 0
M  V30 1140 C 108.607 -3.04148 -3.02972 0
M  V30 1141 C 107.84 -3.12411 -4.32706 0
M  V30 1142 O 108.063 -2.27542 -5.23049 0
M  V30 1143 O 106.997 -4.05113 -4.45159 0
M  V30 1144 H 110.823 -2.67035 -1.44657 0
M  V30 1145 H 108.408 -1.34366 -0.653148 0
M  V30 1146 H 110.29 -1.88338 -3.7697 0
M  V30 1147 H 108.965 -0.883156 -3.11419 0
M  V30 1148 H 107.872 -3.0174 -2.21142 0
M  V30 1149 H 109.205 -3.95829 -2.92541 0
M  V30 1150 N 110.857 0.726932 -1.39834 0
M  V30 1151 C 112.134 1.47902 -1.28001 0
M  V30 1152 C 112.514 2.1083 0.106789 0
M  V30 1153 O 111.862 1.99242 1.11869 0
M  V30 1154 C 112.072 2.52392 -2.41038 0
M  V30 1155 C 113.42 3.18546 -2.80737 0
M  V30 1156 O 114.444 2.62708 -2.40547 0
M  V30 1157 O 113.303 4.19604 -3.50135 0
M  V30 1158 H 110.397 0.657163 -0.502062 0
M  V30 1159 H 112.943 0.760071 -1.51727 0
M  V30 1160 H 111.715 2.04329 -3.33715 0
M  V30 1161 H 111.338 3.31837 -2.19021 0
M  V30 1162 N 112.336 1.25143 0.95797 0
M  V30 1163 C 113.576 1.10893 1.71703 0
M  V30 1164 C 113.94 -0.34478 1.88879 0
M  V30 1165 O 115.141 -0.609014 2.6181 0
M  V30 1166 C 113.412 1.83889 3.06463 0
M  V30 1167 S 114.971 1.85491 3.97666 0
M  V30 1168 H 111.789 0.396428 0.590226 0
M  V30 1169 H 114.391 1.58618 1.14283 0
M  V30 1170 H 113.095 2.88756 2.9163 0
M  V30 1171 H 112.626 1.36538 3.68946 0
M  V30 1172 H 114.641 0.929553 4.87415 0
M  V30 1173 N 113.814 -1.1601 1.06675 0
M  V30 1174 C 115.23 -1.38622 0.790948 0
M  V30 1175 C 115.43 -1.92109 -0.607965 0
M  V30 1176 O 114.486 -2.12239 -1.36787 0
M  V30 1177 C 115.799 -2.36347 1.85905 0
M  V30 1178 C 117.347 -2.50023 1.88301 0
M  V30 1179 C 117.822 -3.51033 2.94176 0
M  V30 1180 N 119.313 -3.58563 2.93235 0
M  V30 1181 C 120.048 -4.36521 3.71803 0
M  V30 1182 N 119.544 -5.17869 4.602 0
M  V30 1183 N 121.337 -4.31541 3.60178 0
M  V30 1184 H 113.488 -0.796294 1.96908 0
M  V30 1185 H 115.751 -0.412597 0.853503 0
M  V30 1186 H 115.457 -2.04147 2.86386 0
M  V30 1187 H 115.331 -3.36042 1.71334 0
M  V30 1188 H 117.718 -2.81524 0.884769 0
M  V30 1189 H 117.799 -1.5035 2.06951 0
M  V30 1190 H 117.443 -3.20268 3.94196 0
M  V30 1191 H 117.373 -4.50445 2.72776 0
M  V30 1192 H 119.864 -3.00496 2.29152 0
M  V30 1193 H 120.177 -5.74578 5.16797 0
M  V30 1194 H 118.522 -5.17199 4.64253 0
M  V30 1195 H 121.713 -3.67051 2.90502 0
M  V30 1196 H 121.886 -4.9205 4.21653 0
M  V30 1197 N 115.292 -0.849877 -1.32721 0
M  V30 1198 C 116.24 -0.279745 -2.30912 0
M  V30 1199 C 117.234 0.594278 -1.58634 0
M  V30 1200 O 118.44 0.482613 -1.73409 0
M  V30 1201 H 114.815 -0.0717521 -0.748569 0
M  V30 1202 H 116.786 -1.12222 -2.76494 0
M  V30 1203 C 115.535 0.521108 -3.43773 0
M  V30 1204 H 114.858 -0.142141 -3.99547 0
M  V30 1205 H 116.298 0.885693 -4.14646 0
M  V30 1206 C 114.757 1.70442 -2.90605 0
M  V30 1207 O 115.287 2.8034 -2.87702 0
M  V30 1208 N 113.493 1.52991 -2.47067 0
M  V30 1209 H 113.04 0.635914 -2.49628 0
M  V30 1210 H 112.998 2.32311 -2.11847 0
M  V30 1211 N 116.77 1.45427 -0.607355 0
M  V30 1212 C 118.018 2.01841 -0.102253 0
M  V30 1213 C 118.339 1.47832 1.27164 0
M  V30 1214 O 117.609 0.672497 1.83995 0
M  V30 1215 H 116.189 0.746188 -0.0348101 0
M  V30 1216 H 118.851 1.78229 -0.7887 0
M  V30 1217 H 117.947 3.12057 -0.0518585 0
M  V30 1218 N 118.248 0.346503 1.53744 0
M  V30 1219 C 119.495 -0.249104 2.00962 0
M  V30 1220 C 119.823 -1.5032 1.23426 0
M  V30 1221 O 119.078 -1.93217 0.310761 0
M  V30 1222 C 119.377 -0.605809 3.52228 0
M  V30 1223 C 119.043 0.551747 4.47512 0
M  V30 1224 C 117.705 0.86941 4.73281 0
M  V30 1225 C 120.057 1.32818 5.03993 0
M  V30 1226 C 117.385 1.96582 5.52786 0
M  V30 1227 C 119.737 2.41486 5.84694 0
M  V30 1228 C 118.401 2.73808 6.08757 0
M  V30 1229 H 117.671 -0.0911538 0.735372 0
M  V30 1230 H 120.318 0.475027 1.85515 0
M  V30 1231 H 118.623 -1.4107 3.65522 0
M  V30 1232 H 120.32 -1.07858 3.86222 0
M  V30 1233 H 116.91 0.294102 4.2759 0
M  V30 1234 H 121.094 1.09602 4.84047 0
M  V30 1235 H 116.35 2.22045 5.69654 0
M  V30 1236 H 120.524 3.02078 6.27473 0
M  V30 1237 H 118.151 3.58892 6.7015 0
M  V30 1238 N 119.726 -1.57421 0.075193 0
M  V30 1239 C 120.656 -2.15942 -0.888324 0
M  V30 1240 C 121.637 -1.08737 -1.30806 0
M  V30 1241 O 122.822 -1.36787 -1.37851 0
M  V30 1242 C 119.952 -2.72379 -2.1547 0
M  V30 1243 C 118.906 -3.8478 -1.87425 0
M  V30 1244 C 118.232 -4.27834 -3.20721 0
M  V30 1245 C 119.532 -5.08869 -1.17684 0
M  V30 1246 H 121.226 -2.96705 -0.400799 0
M  V30 1247 H 118.772 -1.42723 -0.191342 0
M  V30 1248 H 120.725 -3.11965 -2.83295 0
M  V30 1249 H 119.449 -1.88841 -2.6647 0
M  V30 1250 H 118.108 -3.45703 -1.22004 0
M  V30 1251 H 117.756 -3.41214 -3.6957 0
M  V30 1252 H 117.456 -5.03605 -3.02746 0
M  V30 1253 H 118.98 -4.70039 -3.89738 0
M  V30 1254 H 120.394 -5.4575 -1.75584 0
M  V30 1255 H 118.791 -5.8994 -1.09956 0
M  V30 1256 H 119.861 -4.84648 -0.156453 0
M  V30 1257 N 121.204 0.198386 -1.56346 0
M  V30 1258 C 122.134 1.24865 -1.9731 0
M  V30 1259 C 123.115 1.47651 -0.844576 0
M  V30 1260 O 124.3 1.59444 -1.10866 0
M  V30 1261 C 121.43 2.59358 -2.30977 0
M  V30 1262 C 120.384 2.5119 -3.46537 0
M  V30 1263 C 119.71 3.89926 -3.65871 0
M  V30 1264 C 121.01 2.03977 -4.80823 0
M  V30 1265 H 122.704 0.908252 -2.85291 0
M  V30 1266 H 120.25 0.435462 -1.37258 0
M  V30 1267 H 122.203 3.33011 -2.58228 0
M  V30 1268 H 120.927 2.95132 -1.39874 0
M  V30 1269 H 119.586 1.79993 -3.19371 0
M  V30 1270 H 119.234 4.23046 -2.72105 0
M  V30 1271 H 118.934 3.85336 -4.4361 0
M  V30 1272 H 120.458 4.65205 -3.95495 0
M  V30 1273 H 121.872 2.67386 -5.07127 0
M  V30 1274 H 120.269 2.10397 -5.62008 0
M  V30 1275 H 121.339 0.992861 -4.74626 0
M  V30 1276 N 122.682 1.50554 0.465978 0
M  V30 1277 C 123.959 1.5232 1.22712 0
M  V30 1278 C 124.339 0.270807 2.09356 0
M  V30 1279 O 123.687 -0.745541 2.15995 0
M  V30 1280 C 123.897 2.82175 2.05374 0
M  V30 1281 C 125.245 3.33033 2.6339 0
M  V30 1282 O 126.269 2.83531 2.15612 0
M  V30 1283 O 125.128 4.19336 3.50456 0
M  V30 1284 H 122.222 0.611183 0.557122 0
M  V30 1285 H 124.768 1.62847 0.477381 0
M  V30 1286 H 123.54 3.64797 1.41558 0
M  V30 1287 H 123.163 2.74675 2.87471 0
M  V30 1288 N 124.16 -0.719506 1.40217 0
M  V30 1289 C 125.408 -1.47641 1.3801 0
M  V30 1290 C 125.729 -1.94992 -0.018145 0
M  V30 1291 O 124.999 -1.70073 -0.972207 0
M  V30 1292 H 123.579 -0.547744 0.507923 0
M  V30 1293 H 126.241 -0.853187 1.75233 0
M  V30 1294 H 125.337 -2.35112 2.05253 0
M  V30 1295 N 125.638 -1.25649 -0.95132 0
M  V30 1296 C 126.885 -1.10594 -1.69633 0
M  V30 1297 C 127.213 0.352515 -1.91279 0
M  V30 1298 O 126.468 1.27601 -1.4838 0
M  V30 1299 C 126.767 -1.80909 -3.08231 0
M  V30 1300 C 126.433 -3.30825 -3.06375 0
M  V30 1301 C 125.095 -3.71722 -3.05576 0
M  V30 1302 C 127.447 -4.26589 -2.99452 0
M  V30 1303 C 124.775 -5.06788 -2.95606 0
M  V30 1304 C 127.127 -5.61683 -2.91024 0
M  V30 1305 C 125.791 -6.01904 -2.88562 0
M  V30 1306 H 125.061 -0.404691 -0.620731 0
M  V30 1307 H 127.708 -1.55964 -1.11119 0
M  V30 1308 H 126.013 -1.27979 -3.70309 0
M  V30 1309 H 127.71 -1.6671 -3.64704 0
M  V30 1310 H 124.3 -2.98287 -3.07771 0
M  V30 1311 H 128.484 -3.95982 -2.99185 0
M  V30 1312 H 123.74 -5.37126 -2.92071 0
M  V30 1313 H 127.914 -6.35578 -2.84629 0
M  V30 1314 H 125.541 -7.06521 -2.80593 0
M  V30 1315 N 127.117 1.15442 -1.07289 0
M  V30 1316 C 128.528 1.67803 -0.818475 0
M  V30 1317 C 128.879 1.8489 0.656507 0
M  V30 1318 O 128.004 1.55176 1.50829 0
M  V30 1319 C 128.599 3.04805 -1.47917 0
M  V30 1320 C 127.158 3.54245 -1.27229 0
M  V30 1321 C 126.305 2.29986 -1.54925 0
M  V30 1322 H 129.256 0.996646 -1.23502 0
M  V30 1323 H 129.277 3.69702 -0.90005 0
M  V30 1324 H 128.789 2.92336 -2.55267 0
M  V30 1325 H 126.89 3.71956 -0.21899 0
M  V30 1326 H 127.003 4.35723 -1.99203 0
M  V30 1327 H 125.367 2.35496 -0.970242 0
M  V30 1328 H 126.15 2.20105 -2.63455 0
M  V30 1329 N 128.595 0.856903 1.32268 0
M  V30 1330 C 130.011 0.547061 1.49931 0
M  V30 1331 C 130.211 -0.921781 1.7918 0
M  V30 1332 O 129.267 -1.70469 1.8627 0
M  V30 1333 C 130.58 1.43599 2.64196 0
M  V30 1334 C 132.128 1.43665 2.78081 0
M  V30 1335 C 132.603 2.31085 3.95428 0
M  V30 1336 N 134.094 2.28893 4.02694 0
M  V30 1337 C 134.829 2.93262 4.92732 0
M  V30 1338 N 134.325 3.66751 5.87763 0
M  V30 1339 N 136.118 2.82638 4.85873 0
M  V30 1340 H 128.269 1.8075 1.11549 0
M  V30 1341 H 130.532 0.772144 0.549997 0
M  V30 1342 H 130.238 2.48058 2.49319 0
M  V30 1343 H 130.112 1.12502 3.60032 0
M  V30 1344 H 132.499 0.399701 2.92381 0
M  V30 1345 H 132.58 1.7878 1.82952 0
M  V30 1346 H 132.224 3.34849 3.81888 0
M  V30 1347 H 132.154 1.93302 4.89839 0
M  V30 1348 H 134.645 1.75466 3.34694 0
M  V30 1349 H 134.958 4.13027 6.53168 0
M  V30 1350 H 133.303 3.70859 5.87783 0
M  V30 1351 H 136.494 2.24774 4.10602 0
M  V30 1352 H 136.667 3.33084 5.55841 0
M  V30 1353 N 130.073 -1.45103 0.615059 0
M  V30 1354 C 131.301 -2.06553 0.11977 0
M  V30 1355 C 131.716 -1.45842 -1.19898 0
M  V30 1356 O 131.073 -0.575325 -1.73194 0
M  V30 1357 C 131.124 -3.61495 -0.018364 0
M  V30 1358 O 130.845 -4.19942 1.24822 0
M  V30 1359 C 132.346 -4.39947 -0.544237 0
M  V30 1360 H 129.566 -0.667096 0.0722739 0
M  V30 1361 H 132.11 -1.8623 0.84491 0
M  V30 1362 H 130.265 -3.81135 -0.693865 0
M  V30 1363 H 130.679 -5.13204 1.0827 0
M  V30 1364 H 132.153 -5.48838 -0.589953 0
M  V30 1365 H 132.63 -4.10255 -1.56805 0
M  V30 1366 H 133.236 -4.25188 0.0974703 0
M  V30 1367 N 131.551 -0.354651 -1.53558 0
M  V30 1368 C 132.8 0.239504 -2.00273 0
M  V30 1369 C 133.113 1.50759 -1.24623 0
M  V30 1370 O 134.319 2.17968 -1.61871 0
M  V30 1371 C 132.775 0.477341 -3.5672 0
M  V30 1372 C 132.383 -0.775488 -4.41237 0
M  V30 1373 C 134.127 1.02975 -4.11821 0
M  V30 1374 C 132.034 -0.507838 -5.89216 0
M  V30 1375 H 130.964 0.0932743 -0.748208 0
M  V30 1376 H 133.615 -0.471701 -1.77334 0
M  V30 1377 H 131.997 1.24953 -3.7577 0
M  V30 1378 H 133.171 -1.54963 -4.33962 0
M  V30 1379 H 131.486 -1.25033 -3.97185 0
M  V30 1380 H 134.083 1.24513 -5.2 0
M  V30 1381 H 134.426 1.98862 -3.65731 0
M  V30 1382 H 134.959 0.317994 -3.96527 0
M  V30 1383 H 131.698 -1.43674 -6.39561 0
M  V30 1384 H 131.218 0.228011 -5.99366 0
M  V30 1385 H 132.897 -0.129238 -6.46871 0
M  V30 1386 N 133.029 1.57378 -0.0835403 0
M  V30 1387 C 134.44 1.81261 0.447358 0
M  V30 1388 C 134.791 0.998331 1.68902 0
M  V30 1389 O 133.916 0.224282 2.15235 0
M  V30 1390 C 134.511 3.28767 0.818386 0
M  V30 1391 C 133.07 3.53455 1.29409 0
M  V30 1392 C 132.217 2.75831 0.285024 0
M  V30 1393 H 135.168 1.5566 -0.309115 0
M  V30 1394 H 135.189 3.41459 1.67887 0
M  V30 1395 H 134.701 3.88006 -0.0855019 0
M  V30 1396 H 132.802 2.99534 2.21608 0
M  V30 1397 H 132.915 4.62128 1.2639 0
M  V30 1398 H 131.279 2.42947 0.764767 0
M  V30 1399 H 132.062 3.37813 -0.611341 0
M  V30 1400 N 134.507 -0.190092 1.56449 0
M  V30 1401 C 135.439 -1.25973 1.91477 0
M  V30 1402 C 136.452 -1.41452 0.805931 0
M  V30 1403 O 137.641 -1.41789 1.08435 0
M  V30 1404 C 134.741 -2.63117 2.13594 0
M  V30 1405 C 133.914 -2.69182 3.4476 0
M  V30 1406 C 132.973 -3.87557 3.5593 0
M  V30 1407 O 131.999 -3.74427 4.28711 0
M  V30 1408 N 133.201 -5.03224 2.89388 0
M  V30 1409 H 135.966 -0.962394 2.83828 0
M  V30 1410 H 133.527 -0.379981 1.57378 0
M  V30 1411 H 135.519 -3.40742 2.1835 0
M  V30 1412 H 134.089 -2.85319 1.27719 0
M  V30 1413 H 133.309 -1.77793 3.51828 0
M  V30 1414 H 134.597 -2.70229 4.31107 0
M  V30 1415 H 133.995 -5.16791 2.30094 0
M  V30 1416 H 132.552 -5.78778 2.99764 0
M  V30 1417 N 135.985 -1.50799 -0.457987 0
M  V30 1418 C 136.948 -1.7005 -1.53674 0
M  V30 1419 C 137.948 -0.570881 -1.50325 0
M  V30 1420 O 139.138 -0.838126 -1.52712 0
M  V30 1421 C 136.27 -1.73788 -2.93276 0
M  V30 1422 H 137.463 -2.66306 -1.37917 0
M  V30 1423 H 135.016 -1.40477 -0.685271 0
M  V30 1424 H 135.751 -0.792717 -3.14462 0
M  V30 1425 H 135.536 -2.55864 -2.97113 0
M  V30 1426 H 137.026 -1.90591 -3.71571 0
M  V30 1427 N 137.463 0.71206 -1.40597 0
M  V30 1428 C 138.74 1.46536 -1.29563 0
M  V30 1429 C 139.12 2.10931 0.0844217 0
M  V30 1430 O 138.468 2.00418 1.0975 0
M  V30 1431 C 138.678 2.49821 -2.43701 0
M  V30 1432 C 140.026 3.15551 -2.841 0
M  V30 1433 O 141.05 2.60142 -2.4332 0
M  V30 1434 O 139.909 4.15867 -3.54566 0
M  V30 1435 H 137.003 0.651801 -0.509004 0
M  V30 1436 H 139.549 0.743935 -1.52524 0
M  V30 1437 H 138.321 2.00778 -3.35863 0
M  V30 1438 H 137.944 3.29495 -2.22528 0
M  V30 1439 N 138.941 1.26152 0.944643 0
M  V30 1440 C 139.904 1.07474 2.0244 0
M  V30 1441 C 140.904 0.0242064 1.60782 0
M  V30 1442 O 142.094 0.267302 1.72137 0
M  V30 1443 C 139.226 0.633956 3.34953 0
M  V30 1444 H 140.419 2.03336 2.20442 0
M  V30 1445 H 137.972 1.087 1.12312 0
M  V30 1446 H 138.707 -0.326811 3.22649 0
M  V30 1447 H 138.492 1.39247 3.66542 0
M  V30 1448 H 139.982 0.52501 4.14287 0
M  V30 1449 N 140.419 -1.14872 1.07899 0
M  V30 1450 C 141.352 -2.18794 0.64841 0
M  V30 1451 C 142.33 -1.59065 -0.337189 0
M  V30 1452 O 143.514 -1.86936 -0.242284 0
M  V30 1453 C 140.641 -3.38667 -0.0470417 0
M  V30 1454 C 139.687 -4.16942 0.897884 0
M  V30 1455 S 140.52 -4.78615 2.40183 0
M  V30 1456 C 141.676 -6.0185 1.71834 0
M  V30 1457 H 141.909 -2.5498 1.52881 0
M  V30 1458 H 139.442 -1.25922 0.893484 0
M  V30 1459 H 141.4 -4.08113 -0.442027 0
M  V30 1460 H 140.061 -3.00814 -0.903861 0
M  V30 1461 H 139.254 -5.02726 0.358096 0
M  V30 1462 H 138.856 -3.53073 1.23352 0
M  V30 1463 H 141.148 -6.69574 1.03328 0
M  V30 1464 H 142.091 -6.60408 2.55473 0
M  V30 1465 H 142.499 -5.5173 1.19392 0
M  V30 1466 N 141.898 -0.863906 -1.31812 0
M  V30 1467 C 142.845 -0.313303 -2.28664 0
M  V30 1468 C 143.815 0.584868 -1.55462 0
M  V30 1469 O 145 0.517805 -1.83639 0
M  V30 1470 C 142.14 0.48441 -3.41683 0
M  V30 1471 C 141.253 -0.440594 -4.29747 0
M  V30 1472 C 140.388 0.370652 -5.29905 0
M  V30 1473 C 139.427 -0.551164 -6.09613 0
M  V30 1474 N 138.564 0.223462 -7.01744 0
M  V30 1475 H 143.404 -1.14444 -2.75148 0
M  V30 1476 H 140.941 -0.575769 -1.35364 0
M  V30 1477 H 142.899 0.962627 -4.05943 0
M  V30 1478 H 141.529 1.28029 -2.96325 0
M  V30 1479 H 140.581 -1.03724 -3.65986 0
M  V30 1480 H 141.893 -1.14767 -4.85417 0
M  V30 1481 H 141.047 0.911638 -5.99812 0
M  V30 1482 H 139.786 1.11105 -4.74876 0
M  V30 1483 H 138.791 -1.10396 -5.38603 0
M  V30 1484 H 140.016 -1.29032 -6.66729 0
M  V30 1485 H 137.962 0.946787 -6.49132 0
M  V30 1486 H 137.879 -0.424399 -7.54808 0
M  V30 1487 H 139.147 0.745876 -7.75923 0
M  V30 1488 N 143.376 1.44774 -0.622745 0
M  V30 1489 C 144.286 2.34433 0.0886031 0
M  V30 1490 C 145.302 1.52131 0.844529 0
M  V30 1491 O 146.478 1.84886 0.798691 0
M  V30 1492 C 143.543 3.29986 1.0635 0
M  V30 1493 C 142.604 4.28195 0.307873 0
M  V30 1494 C 141.837 5.19183 1.23633 0
M  V30 1495 O 142.06 5.13918 2.47476 0
M  V30 1496 O 140.994 5.97515 0.725189 0
M  V30 1497 H 144.82 2.96693 -0.648599 0
M  V30 1498 H 142.405 1.44408 -0.382957 0
M  V30 1499 H 144.287 3.88825 1.6246 0
M  V30 1500 H 142.962 2.70269 1.78146 0
M  V30 1501 H 141.869 3.72927 -0.296064 0
M  V30 1502 H 143.202 4.90808 -0.3699 0
M  V30 1503 N 144.854 0.36279 1.53368 0
M  V30 1504 C 145.817 -0.472679 2.24273 0
M  V30 1505 C 146.817 -1.012 1.24961 0
M  V30 1506 O 148.007 -0.898194 1.49259 0
M  V30 1507 C 145.139 -1.66039 2.97731 0
M  V30 1508 H 146.332 0.14773 2.99536 0
M  V30 1509 H 143.885 0.114434 1.55881 0
M  V30 1510 H 144.62 -2.31896 2.26704 0
M  V30 1511 H 144.405 -1.28066 3.70596 0
M  V30 1512 H 145.895 -2.25252 3.51641 0
M  V30 1513 N 146.332 -1.57332 0.0918853 0
M  V30 1514 C 147.58 -1.93853 -0.571446 0
M  V30 1515 C 147.901 -0.974212 -1.6892 0
M  V30 1516 O 147.171 -0.0257254 -1.95883 0
M  V30 1517 H 145.751 -0.715666 -0.214082 0
M  V30 1518 H 148.413 -1.94287 0.154464 0
M  V30 1519 H 147.509 -2.96191 -0.983729 0
M  V30 1520 N 147.81 0.181792 -1.56548 0
M  V30 1521 C 149.059 0.898348 -1.8059 0
M  V30 1522 C 149.372 1.83862 -0.667379 0
M  V30 1523 O 150.578 2.59678 -0.792446 0
M  V30 1524 C 149.034 1.64791 -3.19956 0
M  V30 1525 C 148.642 0.751789 -4.41647 0
M  V30 1526 C 150.386 2.35331 -3.53298 0
M  V30 1527 C 148.293 1.50098 -5.72035 0
M  V30 1528 H 147.223 0.339194 -0.673397 0
M  V30 1529 H 149.874 0.151413 -1.82874 0
M  V30 1530 H 148.256 2.43921 -3.11959 0
M  V30 1531 H 149.43 -0.0018076 -4.608 0
M  V30 1532 H 147.745 0.156562 -4.16106 0
M  V30 1533 H 150.342 2.91958 -4.47956 0
M  V30 1534 H 150.685 3.10164 -2.77676 0
M  V30 1535 H 151.218 1.63154 -3.62803 0
M  V30 1536 H 147.957 0.795175 -6.50659 0
M  V30 1537 H 147.477 2.22817 -5.56878 0
M  V30 1538 H 149.156 2.05125 -6.13622 0
M  V30 1539 N 149.288 1.51039 0.449983 0
M  V30 1540 C 150.236 1.71995 1.5659 0
M  V30 1541 C 151.23 0.586029 1.5894 0
M  V30 1542 O 152.436 0.76709 1.62837 0
M  V30 1543 H 148.811 0.543233 0.520001 0
M  V30 1544 H 150.782 2.65562 1.36085 0
M  V30 1545 C 149.531 1.8506 2.9436 0
M  V30 1546 H 148.854 2.71712 2.93279 0
M  V30 1547 H 150.294 2.0374 3.71842 0
M  V30 1548 C 148.753 0.607277 3.31382 0
M  V30 1549 O 149.283 -0.243903 4.00959 0
M  V30 1550 N 147.489 0.455073 2.87015 0
M  V30 1551 H 147.036 1.14879 2.30566 0
M  V30 1552 H 146.994 -0.375611 3.12148 0
M  V30 1553 N 150.766 -0.704594 1.40972 0
M  V30 1554 C 152.012 -1.46675 1.40051 0
M  V30 1555 C 152.345 -1.94199 0.00641102 0
M  V30 1556 O 151.62 -1.68916 -0.964235 0
M  V30 1557 C 151.903 -2.68505 2.39952 0
M  V30 1558 C 151.756 -2.26805 3.88432 0
M  V30 1559 C 153.075 -3.70686 2.37233 0
M  V30 1560 H 150.194 -0.532015 0.510028 0
M  V30 1561 H 152.836 -0.803255 1.72185 0
M  V30 1562 H 150.986 -3.25114 2.1268 0
M  V30 1563 H 152.658 -1.75592 4.26574 0
M  V30 1564 H 150.901 -1.58685 4.03734 0
M  V30 1565 H 151.572 -3.14181 4.53866 0
M  V30 1566 H 154.048 -3.23731 2.61415 0
M  V30 1567 H 152.924 -4.53553 3.09162 0
M  V30 1568 H 153.185 -4.19754 1.38777 0
M  V30 1569 N 152.244 -1.26651 -0.937939 0
M  V30 1570 C 153.521 -1.0313 -1.66204 0
M  V30 1571 C 153.901 0.437256 -2.06522 0
M  V30 1572 O 153.249 1.41831 -1.79154 0
M  V30 1573 C 153.459 -1.98314 -2.87181 0
M  V30 1574 C 154.807 -2.27107 -3.58758 0
M  V30 1575 O 155.831 -1.96205 -2.97291 0
M  V30 1576 O 154.69 -2.79736 -4.69479 0
M  V30 1577 H 151.784 -0.392384 -0.727986 0
M  V30 1578 H 154.33 -1.37874 -0.989382 0
M  V30 1579 H 153.102 -2.97399 -2.54302 0
M  V30 1580 H 152.725 -1.64068 -3.6217 0
M  V30 1581 N 153.722 1.14298 -1.08507 0
M  V30 1582 C 154.952 1.88945 -0.835663 0
M  V30 1583 C 155.36 1.78894 0.615928 0
M  V30 1584 O 154.703 1.1468 1.43506 0
M  V30 1585 C 154.765 3.39585 -1.17994 0
M  V30 1586 C 154.429 3.7342 -2.63451 0
M  V30 1587 C 155.426 3.73454 -3.61702 0
M  V30 1588 C 153.111 4.03368 -2.99332 0
M  V30 1589 C 155.105 4.02961 -4.93864 0
M  V30 1590 C 152.792 4.32538 -4.31687 0
M  V30 1591 C 153.79 4.32318 -5.28763 0
M  V30 1592 O 153.478 4.6078 -6.58739 0
M  V30 1593 H 153.21 0.605307 -0.300965 0
M  V30 1594 H 155.764 1.45673 -1.44806 0
M  V30 1595 H 153.994 3.83315 -0.51055 0
M  V30 1596 H 155.683 3.9554 -0.911182 0
M  V30 1597 H 156.449 3.50403 -3.35325 0
M  V30 1598 H 152.328 4.02692 -2.24411 0
M  V30 1599 H 155.872 4.02704 -5.69627 0
M  V30 1600 H 151.769 4.55059 -4.57812 0
M  V30 1601 H 152.537 4.78492 -6.64069 0
M  V30 1602 N 155.201 0.870884 1.31352 0
M  V30 1603 C 156.447 0.482987 1.96965 0
M  V30 1604 C 156.78 -0.962462 1.68672 0
M  V30 1605 O 156.055 -1.6779 0.98371 0
M  V30 1606 C 156.338 0.741752 3.52378 0
M  V30 1607 C 156.191 2.2368 3.9024 0
M  V30 1608 C 157.51 0.208838 4.39604 0
M  V30 1609 H 154.629 0.176955 0.715441 0
M  V30 1610 H 157.271 1.09229 1.55464 0
M  V30 1611 H 155.421 0.223149 3.87859 0
M  V30 1612 H 157.093 2.82273 3.64856 0
M  V30 1613 H 155.336 2.70901 3.38814 0
M  V30 1614 H 156.007 2.3685 4.98604 0
M  V30 1615 H 158.483 0.652529 4.10952 0
M  V30 1616 H 157.359 0.419336 5.47296 0
M  V30 1617 H 157.62 -0.889275 4.33064 0
M  V30 1618 N 156.679 -1.44442 0.630414 0
M  V30 1619 C 157.609 -2.33418 -0.0618083 0
M  V30 1620 C 158.59 -1.48165 -0.835541 0
M  V30 1621 O 159.775 -1.76886 -0.801564 0
M  V30 1622 C 156.905 -3.31222 -1.04449 0
M  V30 1623 C 155.859 -4.26288 -0.382436 0
M  V30 1624 C 155.185 -5.13954 -1.47497 0
M  V30 1625 C 156.485 -5.1744 0.710865 0
M  V30 1626 H 158.179 -2.91548 0.681184 0
M  V30 1627 H 155.725 -1.40191 0.329026 0
M  V30 1628 H 157.678 -3.92351 -1.53748 0
M  V30 1629 H 156.402 -2.71299 -1.81836 0
M  V30 1630 H 155.061 -3.6649 0.0899054 0
M  V30 1631 H 154.709 -4.50385 -2.2397 0
M  V30 1632 H 154.409 -5.7837 -1.03737 0
M  V30 1633 H 155.933 -5.77955 -1.96979 0
M  V30 1634 H 157.347 -5.72509 0.300996 0
M  V30 1635 H 155.744 -5.90455 1.07156 0
M  V30 1636 H 156.814 -4.58496 1.57829 0
M  V30 1637 N 158.157 -0.370918 -1.53173 0
M  V30 1638 C 159.067 0.480823 -2.2962 0
M  V30 1639 C 160.083 1.08789 -1.35798 0
M  V30 1640 O 161.259 1.09768 -1.68858 0
M  V30 1641 C 158.324 1.60227 -3.07454 0
M  V30 1642 C 157.385 1.0222 -4.16953 0
M  V30 1643 C 156.618 2.0902 -4.91066 0
M  V30 1644 O 156.841 3.30222 -4.65091 0
M  V30 1645 O 155.775 1.71778 -5.76867 0
M  V30 1646 H 159.601 -0.141421 -3.03371 0
M  V30 1647 H 157.186 -0.135146 -1.48787 0
M  V30 1648 H 159.068 2.25417 -3.56041 0
M  V30 1649 H 157.743 2.20982 -2.36535 0
M  V30 1650 H 156.65 0.334064 -3.72605 0
M  V30 1651 H 157.983 0.459131 -4.90054 0
M  V30 1652 N 159.635 1.57281 -0.100228 0
M  V30 1653 C 160.882 1.94537 0.562268 0
M  V30 1654 C 161.21 0.982315 1.67871 0
M  V30 1655 O 160.465 0.00280936 1.957 0
M  V30 1656 C 160.764 3.38305 1.15259 0
M  V30 1657 C 160.43 4.50618 0.159409 0
M  V30 1658 C 159.092 4.81066 -0.113741 0
M  V30 1659 C 161.444 5.18615 -0.518461 0
M  V30 1660 C 158.772 5.76835 -1.07137 0
M  V30 1661 C 161.124 6.15412 -1.46459 0
M  V30 1662 C 159.788 6.44262 -1.74592 0
M  V30 1663 H 159.058 0.711863 0.205748 0
M  V30 1664 H 161.705 1.90679 -0.17715 0
M  V30 1665 H 160.01 3.38766 1.96836 0
M  V30 1666 H 161.707 3.64435 1.67297 0
M  V30 1667 H 158.297 4.2689 0.382491 0
M  V30 1668 H 162.481 4.95264 -0.320581 0
M  V30 1669 H 157.737 5.975 -1.29628 0
M  V30 1670 H 161.911 6.67194 -1.99564 0
M  V30 1671 H 159.538 7.1828 -2.48953 0
M  V30 1672 N 161.113 -0.173488 1.56642 0
M  V30 1673 C 162.39 -0.917617 1.7274 0
M  V30 1674 C 162.77 -2.00484 0.661027 0
M  V30 1675 O 162.118 -2.26184 -0.32453 0
M  V30 1676 C 162.328 -1.48433 3.15862 0
M  V30 1677 C 163.676 -1.95809 3.76754 0
M  V30 1678 O 164.7 -1.58231 3.19126 0
M  V30 1679 O 163.559 -2.65024 4.77938 0
M  V30 1680 H 160.653 -0.431772 0.705338 0
M  V30 1681 H 163.199 -0.161487 1.6893 0
M  V30 1682 H 161.971 -0.701715 3.84957 0
M  V30 1683 H 161.594 -2.30471 3.23989 0
M  V30 1684 N 162.591 -1.51276 -0.441967 0
M  V30 1685 C 163.837 -1.63958 -1.19355 0
M  V30 1686 C 164.17 -0.352543 -1.90973 0
M  V30 1687 O 163.445 0.647627 -1.83401 0
M  V30 1688 C 163.728 -2.83979 -2.21422 0
M  V30 1689 C 163.581 -4.22646 -1.53918 0
M  V30 1690 C 164.9 -2.99521 -3.22451 0
M  V30 1691 H 162.019 -0.596709 -0.432559 0
M  V30 1692 H 164.661 -1.83748 -0.483398 0
M  V30 1693 H 162.811 -2.67237 -2.81987 0
M  V30 1694 H 164.483 -4.51045 -0.967256 0
M  V30 1695 H 162.726 -4.25558 -0.841615 0
M  V30 1696 H 163.397 -5.02609 -2.28229 0
M  V30 1697 H 165.873 -3.14944 -2.71937 0
M  V30 1698 H 164.749 -3.85072 -3.91166 0
M  V30 1699 H 165.01 -2.11391 -3.88287 0
M  V30 1700 N 164.069 0.697108 -1.41344 0
M  V30 1701 C 165.48 1.27697 -1.36199 0
M  V30 1702 C 165.831 1.9615 -0.0443463 0
M  V30 1703 O 164.956 1.98689 0.857419 0
M  V30 1704 C 165.551 2.32223 -2.46694 0
M  V30 1705 C 164.11 2.8579 -2.44952 0
M  V30 1706 C 163.257 1.59807 -2.26621 0
M  V30 1707 H 166.208 0.491968 -1.50882 0
M  V30 1708 H 166.229 3.1348 -2.15664 0
M  V30 1709 H 165.741 1.82373 -3.42581 0
M  V30 1710 H 163.842 3.3982 -1.52817 0
M  V30 1711 H 163.955 3.36325 -3.41207 0
M  V30 1712 H 162.319 1.8556 -1.7447 0
M  V30 1713 H 163.102 1.11956 -3.24532 0
M  V30 1714 N 165.547 1.27147 0.931209 0
M  V30 1715 C 166.824 1.0401 1.65654 0
M  V30 1716 C 167.204 -0.426297 2.06751 0
M  V30 1717 O 166.552 -1.40879 1.79904 0
M  V30 1718 C 166.762 1.99834 2.86125 0
M  V30 1719 C 168.11 2.29007 3.57549 0
M  V30 1720 O 169.134 1.97779 2.96246 0
M  V30 1721 O 167.993 2.82222 4.67989 0
M  V30 1722 H 165.087 0.396239 0.725895 0
M  V30 1723 H 167.633 1.38397 0.982056 0
M  V30 1724 H 166.405 2.98744 2.52721 0
M  V30 1725 H 166.028 1.65987 3.61295 0
M  V30 1726 N 167.025 -1.13721 1.09112 0
M  V30 1727 C 167.935 -2.22638 0.73957 0
M  V30 1728 C 168.951 -1.72091 -0.257068 0
M  V30 1729 O 170.127 -2.01155 -0.0992154 0
M  V30 1730 C 167.192 -3.46322 0.16191 0
M  V30 1731 C 166.253 -4.11775 1.21408 0
M  V30 1732 C 165.486 -5.29555 0.663891 0
M  V30 1733 O 165.709 -5.68077 -0.514274 0
M  V30 1734 O 164.643 -5.84973 1.41738 0
M  V30 1735 H 168.469 -2.55074 1.64836 0
M  V30 1736 H 166.054 -1.21791 0.865289 0
M  V30 1737 H 167.936 -4.21107 -0.157073 0
M  V30 1738 H 166.611 -3.15593 -0.719932 0
M  V30 1739 H 165.518 -3.3883 1.58571 0
M  V30 1740 H 166.851 -4.46627 2.06845 0
M  V30 1741 N 168.503 -0.877838 -1.30888 0
M  V30 1742 C 169.433 -0.35534 -2.3078 0
M  V30 1743 C 170.414 0.557994 -1.60687 0
M  V30 1744 O 171.599 0.473355 -1.88343 0
M  V30 1745 C 168.729 0.437221 -3.44537 0
M  V30 1746 C 167.683 -0.383715 -4.26276 0
M  V30 1747 C 167.009 0.535014 -5.32017 0
M  V30 1748 C 168.309 -1.62201 -4.96476 0
M  V30 1749 H 170.003 -1.19007 -2.74732 0
M  V30 1750 H 167.549 -0.573698 -1.32078 0
M  V30 1751 H 169.502 0.813334 -4.13477 0
M  V30 1752 H 168.226 1.30553 -2.99372 0
M  V30 1753 H 166.885 -0.741874 -3.59015 0
M  V30 1754 H 166.533 1.40083 -4.831 0
M  V30 1755 H 166.233 -0.0104211 -5.87599 0
M  V30 1756 H 167.757 0.907799 -6.03814 0
M  V30 1757 H 169.171 -1.31689 -5.5797 0
M  V30 1758 H 167.568 -2.10711 -5.61891 0
M  V30 1759 H 168.638 -2.37044 -4.23011 0
M  V30 1760 N 169.982 1.44106 -0.638065 0
M  V30 1761 C 171.231 2.01194 -0.142744 0
M  V30 1762 C 171.544 1.50835 1.24532 0
M  V30 1763 O 172.75 2.00096 1.83504 0
M  V30 1764 C 171.206 3.59319 -0.20442 0
M  V30 1765 C 170.814 4.18674 -1.59423 0
M  V30 1766 C 172.558 4.23854 0.234079 0
M  V30 1767 C 170.465 5.69045 -1.61065 0
M  V30 1768 H 169.395 0.752367 -0.0495998 0
M  V30 1769 H 172.046 1.65246 -0.797881 0
M  V30 1770 H 170.428 3.92598 0.517946 0
M  V30 1771 H 171.602 3.96921 -2.34074 0
M  V30 1772 H 169.917 3.66453 -1.97741 0
M  V30 1773 H 172.514 5.34155 0.241443 0
M  V30 1774 H 172.857 3.96688 1.2627 0
M  V30 1775 H 173.39 3.95403 -0.436025 0
M  V30 1776 H 170.129 6.00956 -2.61787 0
M  V30 1777 H 169.649 5.929 -0.90718 0
M  V30 1778 H 171.328 6.32809 -1.34766 0
M  V30 1779 N 171.46 0.379036 1.52974 0
M  V30 1780 C 172.706 -0.206727 2.01744 0
M  V30 1781 C 173.039 -1.47314 1.26539 0
M  V30 1782 O 172.314 -1.91084 0.362903 0
M  V30 1783 C 172.597 -0.485066 3.56818 0
M  V30 1784 C 172.45 0.795919 4.42702 0
M  V30 1785 C 173.769 -1.28003 4.21074 0
M  V30 1786 H 170.888 -0.0736607 0.73331 0
M  V30 1787 H 173.53 0.506581 1.83122 0
M  V30 1788 H 171.68 -1.09272 3.72816 0
M  V30 1789 H 173.352 1.43307 4.38476 0
M  V30 1790 H 171.595 1.41344 4.10127 0
M  V30 1791 H 172.266 0.555947 5.49193 0
M  V30 1792 H 174.742 -0.765867 4.08991 0
M  V30 1793 H 173.618 -1.44352 5.29579 0
M  V30 1794 H 173.879 -2.29236 3.78026 0
M  V30 1795 N 172.938 -1.57226 0.108567 0
M  V30 1796 C 174.215 -1.86333 -0.594939 0
M  V30 1797 C 174.595 -1.00788 -1.85486 0
M  V30 1798 O 173.943 -0.0839293 -2.28346 0
M  V30 1799 C 174.153 -3.37265 -0.897405 0
M  V30 1800 C 175.501 -4.05629 -1.25501 0
M  V30 1801 O 176.525 -3.42224 -0.987998 0
M  V30 1802 O 175.384 -5.17531 -1.75567 0
M  V30 1803 H 172.478 -0.771018 -0.2991 0
M  V30 1804 H 175.024 -1.69102 0.142283 0
M  V30 1805 H 173.796 -3.913 -0.00413806 0
M  V30 1806 H 173.419 -3.59889 -1.69014 0
M  V30 1807 N 174.416 0.165178 -1.56732 0
M  V30 1808 C 175.832 0.517174 -1.50988 0
M  V30 1809 C 176.032 1.84331 -0.813894 0
M  V30 1810 O 175.088 2.49672 -0.37682 0
M  V30 1811 C 176.401 0.544261 -2.95733 0
M  V30 1812 C 177.949 0.631039 -3.06573 0
M  V30 1813 C 178.424 0.68896 -4.52788 0
M  V30 1814 N 179.915 0.751683 -4.5706 0
M  V30 1815 C 180.65 0.817177 -5.67547 0
M  V30 1816 N 180.146 0.843129 -6.8765 0
M  V30 1817 N 181.939 0.856668 -5.55534 0
M  V30 1818 H 174.09 -0.704318 -2.00382 0
M  V30 1819 H 176.353 -0.254687 -0.913148 0
M  V30 1820 H 176.059 -0.361607 -3.49836 0
M  V30 1821 H 175.933 1.3886 -3.5071 0
M  V30 1822 H 178.32 1.52733 -2.52501 0
M  V30 1823 H 178.401 -0.240095 -2.54671 0
M  V30 1824 H 178.045 -0.2031 -5.07494 0
M  V30 1825 H 177.975 1.57633 -5.02454 0
M  V30 1826 H 180.466 0.739661 -3.70591 0
M  V30 1827 H 180.779 0.894448 -7.67606 0
M  V30 1828 H 179.124 0.811304 -6.90248 0
M  V30 1829 H 182.315 0.833437 -4.60621 0
M  V30 1830 H 182.488 0.904247 -6.4166 0
M  V30 1831 N 175.894 1.51508 0.433938 0
M  V30 1832 C 177.143 1.63578 1.18005 0
M  V30 1833 C 177.456 0.359514 1.92268 0
M  V30 1834 O 178.662 0.359632 2.69108 0
M  V30 1835 C 177.118 2.88901 2.14626 0
M  V30 1836 C 176.726 4.23544 1.45995 0
M  V30 1837 C 178.47 3.10328 2.89649 0
M  V30 1838 C 176.377 5.40014 2.4112 0
M  V30 1839 H 175.307 0.609277 0.444182 0
M  V30 1840 H 177.958 1.77978 0.446773 0
M  V30 1841 H 176.34 2.68142 2.91403 0
M  V30 1842 H 177.514 4.54696 0.747532 0
M  V30 1843 H 175.829 4.08021 0.831115 0
M  V30 1844 H 178.426 3.94518 3.60915 0
M  V30 1845 H 178.769 2.23544 3.51189 0
M  V30 1846 H 179.302 3.31443 2.19978 0
M  V30 1847 H 176.041 6.29068 1.84264 0
M  V30 1848 H 175.561 5.13233 3.10406 0
M  V30 1849 H 177.24 5.72099 3.02177 0
M  V30 1850 N 177.372 -0.689602 1.41712 0
M  V30 1851 C 178.618 -1.45181 1.41599 0
M  V30 1852 C 178.951 -1.94181 0.0270081 0
M  V30 1853 O 178.226 -1.6993 -0.946265 0
M  V30 1854 C 178.509 -2.65945 2.42787 0
M  V30 1855 C 178.362 -2.22672 3.90816 0
M  V30 1856 C 179.681 -3.68149 2.41151 0
M  V30 1857 H 176.8 -0.526576 0.515642 0
M  V30 1858 H 179.442 -0.784947 1.73028 0
M  V30 1859 H 177.592 -3.2284 2.16116 0
M  V30 1860 H 179.264 -1.71058 4.28412 0
M  V30 1861 H 177.507 -1.54394 4.05395 0
M  V30 1862 H 178.178 -3.0935 4.57172 0
M  V30 1863 H 180.654 -3.2094 2.64834 0
M  V30 1864 H 179.53 -4.50248 3.13955 0
M  V30 1865 H 179.791 -4.18259 1.43221 0
M  V30 1866 N 178.85 -1.27639 -0.924453 0
M  V30 1867 C 180.098 -1.13941 -1.66918 0
M  V30 1868 C 180.419 0.314589 -1.92446 0
M  V30 1869 O 179.689 1.21964 -1.53303 0
M  V30 1870 H 178.269 -0.418678 -0.618642 0
M  V30 1871 H 180.931 -1.60213 -1.10985 0
M  V30 1872 H 180.027 -1.67094 -2.63602 0
M  V30 1873 N 180.328 1.1314 -1.09713 0
M  V30 1874 C 181.744 1.36477 -0.827423 0
M  V30 1875 C 181.944 1.93654 0.556817 0
M  V30 1876 O 181 2.15791 1.31112 0
M  V30 1877 C 182.313 2.31334 -1.92106 0
M  V30 1878 C 183.861 2.44943 -1.94864 0
M  V30 1879 C 184.336 3.4311 -3.0338 0
M  V30 1880 N 185.827 3.50662 -3.02639 0
M  V30 1881 C 186.562 4.2651 -3.83246 0
M  V30 1882 N 186.058 5.05485 -4.73768 0
M  V30 1883 N 187.851 4.2184 -3.71493 0
M  V30 1884 H 180.002 0.743807 -1.9895 0
M  V30 1885 H 182.265 0.389823 -0.864143 0
M  V30 1886 H 181.971 1.96483 -2.91698 0
M  V30 1887 H 181.845 3.31381 -1.80184 0
M  V30 1888 H 184.232 2.79079 -0.959099 0
M  V30 1889 H 184.313 1.4481 -2.10864 0
M  V30 1890 H 183.957 3.09704 -4.02549 0
M  V30 1891 H 183.887 4.43055 -2.84622 0
M  V30 1892 H 186.378 2.94315 -2.37039 0
M  V30 1893 H 186.691 5.60675 -5.3185 0
M  V30 1894 H 185.036 5.04708 -4.77802 0
M  V30 1895 H 188.227 3.5922 -3.00131 0
M  V30 1896 H 188.4 4.80697 -4.3455 0
M  V30 1897 N 181.806 0.884767 1.30421 0
M  V30 1898 C 183.222 0.57874 1.48737 0
M  V30 1899 C 183.422 -0.883567 1.81095 0
M  V30 1900 O 182.478 -1.6648 1.89844 0
M  V30 1901 C 183.791 1.49171 2.61091 0
M  V30 1902 C 185.339 1.49532 2.74971 0
M  V30 1903 C 185.814 2.39421 3.90438 0
M  V30 1904 N 187.305 2.37383 3.97748 0
M  V30 1905 C 188.04 3.03647 4.86401 0
M  V30 1906 N 187.536 3.79136 5.79852 0
M  V30 1907 N 189.329 2.9288 4.79768 0
M  V30 1908 H 181.48 1.83075 1.0769 0
M  V30 1909 H 183.743 0.783637 0.533495 0
M  V30 1910 H 183.449 2.53291 2.44001 0
M  V30 1911 H 183.323 1.20113 3.57565 0
M  V30 1912 H 185.71 0.46163 2.91467 0
M  V30 1913 H 185.791 1.8262 1.79119 0
M  V30 1914 H 185.435 3.42874 3.74699 0
M  V30 1915 H 185.365 2.03649 4.85628 0
M  V30 1916 H 187.856 1.82525 3.30897 0
M  V30 1917 H 188.169 4.26789 6.4426 0
M  V30 1918 H 186.514 3.83243 5.79784 0
M  V30 1919 H 189.705 2.33433 4.05742 0
M  V30 1920 H 189.878 3.448 5.4865 0
M  V30 1921 N 183.284 -1.43765 0.645699 0
M  V30 1922 C 184.53 -2.02197 0.156271 0
M  V30 1923 C 184.863 -1.50776 -1.22393 0
M  V30 1924 O 184.138 -0.697771 -1.81553 0
M  V30 1925 C 184.421 -3.59749 0.158872 0
M  V30 1926 C 184.274 -4.21419 1.57245 0
M  V30 1927 C 185.593 -4.37149 -0.50879 0
M  V30 1928 H 182.712 -0.734694 0.0582602 0
M  V30 1929 H 185.354 -1.71157 0.824951 0
M  V30 1930 H 183.504 -3.86325 -0.410525 0
M  V30 1931 H 185.176 -4.059 2.19186 0
M  V30 1932 H 183.419 -3.78356 2.122 0
M  V30 1933 H 184.09 -5.30482 1.52619 0
M  V30 1934 H 186.566 -4.16093 -0.024412 0
M  V30 1935 H 185.442 -5.4683 -0.476213 0
M  V30 1936 H 185.703 -4.12839 -1.58165 0
M  V30 1937 N 184.763 -0.387143 -1.52771 0
M  V30 1938 C 185.713 0.465942 -2.23188 0
M  V30 1939 C 186.697 1.03138 -1.23496 0
M  V30 1940 O 187.889 0.957845 -1.48843 0
M  V30 1941 C 185.018 1.59384 -3.04059 0
M  V30 1942 C 184.104 1.04024 -4.11144 0
M  V30 1943 N 184.495 0.211416 -5.05358 0
M  V30 1944 C 182.793 1.31295 -4.26237 0
M  V30 1945 C 183.494 -0.0941698 -5.81624 0
M  V30 1946 N 182.47 0.509207 -5.4121 0
M  V30 1947 H 186.272 -0.173856 -2.93385 0
M  V30 1948 H 183.786 -0.19633 -1.61209 0
M  V30 1949 H 185.783 2.21738 -3.53041 0
M  V30 1950 H 184.443 2.23648 -2.35397 0
M  V30 1951 H 185.454 -0.151151 -5.17679 0
M  V30 1952 H 182.131 1.95679 -3.68803 0
M  V30 1953 H 183.521 -0.765572 -6.67524 0
M  V30 1954 N 186.241 1.57166 -0.116904 0
M  V30 1955 C 187.204 2.14039 0.819742 0
M  V30 1956 C 188.204 1.07477 1.19605 0
M  V30 1957 O 189.394 1.33263 1.1219 0
M  V30 1958 C 186.526 2.67891 2.10826 0
M  V30 1959 H 187.719 2.98128 0.325511 0
M  V30 1960 H 185.272 1.55739 0.132312 0
M  V30 1961 H 186.007 1.87384 2.64685 0
M  V30 1962 H 185.792 3.45823 1.84793 0
M  V30 1963 H 187.282 3.11809 2.77785 0
M  V30 1964 N 187.719 -0.156864 1.56817 0
M  V30 1965 C 189.13 -0.717916 1.72345 0
M  V30 1966 C 189.481 -1.82124 0.729747 0
M  V30 1967 O 188.606 -2.16141 -0.105781 0
M  V30 1968 C 189.201 -1.30904 3.12489 0
M  V30 1969 C 187.76 -1.81676 3.29653 0
M  V30 1970 C 186.907 -0.701349 2.68284 0
M  V30 1971 H 189.858 0.0686989 1.58551 0
M  V30 1972 H 189.879 -2.17882 3.11942 0
M  V30 1973 H 189.391 -0.505796 3.8479 0
M  V30 1974 H 187.492 -2.64598 2.62333 0
M  V30 1975 H 187.605 -1.95226 4.3752 0
M  V30 1976 H 185.969 -1.12548 2.28484 0
M  V30 1977 H 186.752 0.0902846 3.43181 0
M  V30 1978 N 189.197 -1.51736 -0.425897 0
M  V30 1979 C 190.422 -1.69082 -1.20108 0
M  V30 1980 C 190.847 -0.392398 -1.83962 0
M  V30 1981 O 190.205 0.64858 -1.69302 0
M  V30 1982 C 190.253 -2.81604 -2.25237 0
M  V30 1983 O 189.357 -2.46004 -3.30992 0
M  V30 1984 H 188.698 -0.563408 -0.35138 0
M  V30 1985 H 191.228 -1.98358 -0.501512 0
M  V30 1986 H 191.238 -3.06025 -2.69838 0
M  V30 1987 H 189.913 -3.75817 -1.78142 0
M  V30 1988 H 188.49 -2.32195 -2.91787 0
M  V30 1989 N 190.675 0.682077 -1.42076 0
M  V30 1990 C 191.923 1.4393 -1.41876 0
M  V30 1991 C 192.244 1.94971 -0.0335599 0
M  V30 1992 O 191.514 1.72591 0.926773 0
M  V30 1993 H 190.094 0.534085 -0.522267 0
M  V30 1994 H 192.756 0.806427 -1.77434 0
M  V30 1995 H 191.852 2.29588 -2.11414 0
M  V30 1996 N 192.153 1.28127 0.917671 0
M  V30 1997 C 193.569 1.05749 1.19538 0
M  V30 1998 C 193.769 -0.202633 2.00479 0
M  V30 1999 O 192.825 -0.905382 2.3571 0
M  V30 2000 C 194.138 2.30273 1.93378 0
M  V30 2001 C 195.686 2.35412 2.06277 0
M  V30 2002 C 196.161 3.59692 2.83524 0
M  V30 2003 N 197.652 3.60309 2.91087 0
M  V30 2004 C 198.387 4.53147 3.51348 0
M  V30 2005 N 197.883 5.563 4.12919 0
M  V30 2006 N 199.676 4.40751 3.48849 0
M  V30 2007 H 191.827 2.09024 0.377184 0
M  V30 2008 H 194.09 0.919798 0.22951 0
M  V30 2009 H 193.796 3.22055 1.41328 0
M  V30 2010 H 193.67 2.36378 2.93947 0
M  V30 2011 H 196.057 1.4413 2.57508 0
M  V30 2012 H 196.138 2.33304 1.04895 0
M  V30 2013 H 195.782 4.51316 2.32973 0
M  V30 2014 H 195.712 3.59054 3.85211 0
M  V30 2015 H 198.203 2.85714 2.47338 0
M  V30 2016 H 198.516 6.2329 4.56869 0
M  V30 2017 H 196.861 5.60131 4.11435 0
M  V30 2018 H 200.052 3.59367 2.99955 0
M  V30 2019 H 200.225 5.13291 3.9552 0
M  V30 2020 N 193.631 -1.12557 1.10312 0
M  V30 2021 C 194.877 -1.84311 0.846011 0
M  V30 2022 C 195.21 -1.83805 -0.626859 0
M  V30 2023 O 194.485 -1.28268 -1.46211 0
M  V30 2024 C 194.768 -3.32048 1.39341 0
M  V30 2025 C 194.621 -3.41016 2.93305 0
M  V30 2026 C 195.94 -4.27764 1.03468 0
M  V30 2027 H 193.059 -0.669192 0.30879 0
M  V30 2028 H 195.701 -1.32057 1.36605 0
M  V30 2029 H 193.851 -3.76678 0.951087 0
M  V30 2030 H 195.523 -3.05031 3.46055 0
M  V30 2031 H 193.766 -2.81603 3.29973 0
M  V30 2032 H 194.437 -4.44948 3.26689 0
M  V30 2033 H 196.913 -3.91253 1.41633 0
M  V30 2034 H 195.789 -5.29549 1.44463 0
M  V30 2035 H 196.05 -4.42064 -0.0560404 0
M  V30 2036 N 195.109 -0.891671 -1.2995 0
M  V30 2037 C 196.339 -0.527893 -1.99742 0
M  V30 2038 C 196.747 0.88979 -1.66971 0
M  V30 2039 O 196.09 1.59766 -0.906667 0
M  V30 2040 C 196.152 -0.630804 -3.53922 0
M  V30 2041 C 195.816 -2.01401 -4.10228 0
M  V30 2042 C 196.813 -2.98422 -4.25724 0
M  V30 2043 C 194.498 -2.32121 -4.45449 0
M  V30 2044 C 196.492 -4.24293 -4.75662 0
M  V30 2045 C 194.179 -3.58237 -4.95086 0
M  V30 2046 C 195.177 -4.54137 -5.10146 0
M  V30 2047 O 194.865 -5.78014 -5.58708 0
M  V30 2048 H 194.597 -0.201953 -0.645129 0
M  V30 2049 H 197.151 -1.20076 -1.66646 0
M  V30 2050 H 195.381 0.0990616 -3.86573 0
M  V30 2051 H 197.07 -0.277338 -4.04951 0
M  V30 2052 H 197.836 -2.76001 -3.98809 0
M  V30 2053 H 193.715 -1.5824 -4.32991 0
M  V30 2054 H 197.259 -4.99153 -4.87332 0
M  V30 2055 H 193.156 -3.80491 -5.21437 0
M  V30 2056 H 193.924 -5.8049 -5.77039 0
M  V30 2057 N 196.587 1.43421 -0.653314 0
M  V30 2058 C 197.537 2.2792 0.060558 0
M  V30 2059 C 198.521 1.39906 0.794677 0
M  V30 2060 O 199.713 1.63536 0.677128 0
M  V30 2061 C 196.842 3.27603 1.0262 0
M  V30 2062 C 195.928 4.23104 0.290551 0
M  V30 2063 N 196.319 5.01031 -0.692967 0
M  V30 2064 C 194.617 4.42816 0.531984 0
M  V30 2065 C 195.318 5.70626 -1.12963 0
M  V30 2066 N 194.294 5.41617 -0.463867 0
M  V30 2067 H 198.096 2.85585 -0.694143 0
M  V30 2068 H 195.61 1.55126 -0.480602 0
M  V30 2069 H 197.607 3.86918 1.55242 0
M  V30 2070 H 196.267 2.71499 1.78096 0
M  V30 2071 H 197.278 5.0669 -1.07169 0
M  V30 2072 H 193.955 3.97782 1.26791 0
M  V30 2073 H 195.345 6.4318 -1.94343 0
M  V30 2074 N 198.065 0.39524 1.52563 0
M  V30 2075 C 199.311 -0.185318 2.01952 0
M  V30 2076 C 199.644 -1.45964 1.28095 0
M  V30 2077 O 198.919 -1.90689 0.38315 0
M  V30 2078 C 199.202 -0.447193 3.57312 0
M  V30 2079 C 199.055 0.842828 4.41833 0
M  V30 2080 C 200.374 -1.23529 4.22408 0
M  V30 2081 H 197.493 -0.0658788 0.73405 0
M  V30 2082 H 200.135 0.525975 1.82575 0
M  V30 2083 H 198.285 -1.05312 3.73954 0
M  V30 2084 H 199.957 1.4795 4.36931 0
M  V30 2085 H 198.2 1.45686 4.08605 0
M  V30 2086 H 198.871 0.614165 5.48573 0
M  V30 2087 H 201.347 -0.722445 4.0978 0
M  V30 2088 H 200.223 -1.38727 5.3108 0
M  V30 2089 H 200.484 -2.25213 3.80436 0
M  V30 2090 N 199.544 -1.57102 0.125237 0
M  V30 2091 C 200.491 -2.15641 -0.822655 0
M  V30 2092 C 201.461 -1.08313 -1.25927 0
M  V30 2093 O 202.646 -1.36251 -1.33567 0
M  V30 2094 C 199.786 -2.76504 -2.06494 0
M  V30 2095 C 198.899 -3.98158 -1.67612 0
M  V30 2096 C 198.034 -4.47088 -2.86854 0
M  V30 2097 C 197.073 -5.6126 -2.44242 0
M  V30 2098 N 196.21 -6.04905 -3.56419 0
M  V30 2099 H 201.05 -2.96313 -0.316625 0
M  V30 2100 H 198.587 -1.46388 -0.144588 0
M  V30 2101 H 200.545 -3.09925 -2.79289 0
M  V30 2102 H 199.175 -1.98512 -2.54545 0
M  V30 2103 H 198.227 -3.70858 -0.846661 0
M  V30 2104 H 199.539 -4.80934 -1.32301 0
M  V30 2105 H 198.693 -4.82451 -3.67867 0
M  V30 2106 H 197.432 -3.63275 -3.25396 0
M  V30 2107 H 196.437 -5.25495 -1.61663 0
M  V30 2108 H 197.662 -6.46843 -2.0681 0
M  V30 2109 H 195.608 -5.24032 -3.94623 0
M  V30 2110 H 195.525 -6.82552 -3.25051 0
M  V30 2111 H 196.793 -6.44907 -4.37853 0
M  V30 2112 N 201.022 0.148545 -1.56898 0
M  V30 2113 C 202.269 0.861418 -1.83264 0
M  V30 2114 C 202.597 1.81239 -0.705883 0
M  V30 2115 O 201.852 1.93305 0.305212 0
M  V30 2116 C 202.151 1.67064 -3.1595 0
M  V30 2117 C 201.817 0.866591 -4.42494 0
M  V30 2118 C 200.479 0.644762 -4.76861 0
M  V30 2119 C 202.831 0.30418 -5.20312 0
M  V30 2120 C 200.159 -0.15021 -5.86508 0
M  V30 2121 C 202.511 -0.477824 -6.30793 0
M  V30 2122 C 201.175 -0.710244 -6.63711 0
M  V30 2123 H 200.445 0.315215 -0.670612 0
M  V30 2124 H 203.092 0.125142 -1.91091 0
M  V30 2125 H 201.397 2.47698 -3.03567 0
M  V30 2126 H 203.094 2.22566 -3.33565 0
M  V30 2127 H 199.684 1.04955 -4.15551 0
M  V30 2128 H 203.868 0.462844 -4.94137 0
M  V30 2129 H 199.124 -0.339796 -6.10455 0
M  V30 2130 H 203.298 -0.92076 -6.90286 0
M  V30 2131 H 200.925 -1.3281 -7.48509 0
M  V30 2132 N 202.5 1.5196 0.417844 0
M  V30 2133 C 203.448 1.75278 1.52907 0
M  V30 2134 C 204.442 0.619611 1.57662 0
M  V30 2135 O 205.648 0.801457 1.61173 0
M  V30 2136 H 202.023 0.554141 0.508362 0
M  V30 2137 H 203.994 2.68389 1.30422 0
M  V30 2138 C 202.743 1.91262 2.90369 0
M  V30 2139 H 202.066 2.77872 2.8745 0
M  V30 2140 H 203.506 2.11581 3.67436 0
M  V30 2141 C 201.965 0.677431 3.30019 0
M  V30 2142 O 202.495 -0.158799 4.01386 0
M  V30 2143 N 200.701 0.515851 2.85985 0
M  V30 2144 H 200.248 1.19744 2.28077 0
M  V30 2145 H 200.206 -0.309315 3.12875 0
M  V30 2146 N 203.978 -0.674533 1.42435 0
M  V30 2147 C 205.389 -1.25514 1.38214 0
M  V30 2148 C 205.74 -1.96055 0.0755464 0
M  V30 2149 O 204.865 -2.00028 -0.8257 0
M  V30 2150 C 205.46 -2.28269 2.50357 0
M  V30 2151 C 204.019 -2.81856 2.49467 0
M  V30 2152 C 203.166 -1.56182 2.29134 0
M  V30 2153 H 206.117 -0.467902 1.51646 0
M  V30 2154 H 206.138 -3.10009 2.20624 0
M  V30 2155 H 205.65 -1.769 3.45439 0
M  V30 2156 H 203.751 -3.37346 1.58204 0
M  V30 2157 H 203.864 -3.30854 3.46515 0
M  V30 2158 H 202.228 -1.82761 1.774 0
M  V30 2159 H 203.011 -1.06778 3.26272 0
M  V30 2160 N 205.456 -1.28612 -0.910864 0
M  V30 2161 C 206.867 -1.14406 -1.47541 0
M  V30 2162 C 207.218 0.264901 -1.94403 0
M  V30 2163 O 206.343 1.15942 -1.82719 0
M  V30 2164 C 206.938 -2.07073 -2.68153 0
M  V30 2165 C 205.497 -1.96923 -3.20778 0
M  V30 2166 C 204.644 -1.98646 -1.93481 0
M  V30 2167 H 207.595 -1.41259 -0.723291 0
M  V30 2168 H 207.616 -1.63642 -3.43514 0
M  V30 2169 H 207.128 -3.09611 -2.34015 0
M  V30 2170 H 205.229 -0.97433 -3.59635 0
M  V30 2171 H 205.342 -2.84026 -3.85832 0
M  V30 2172 H 203.706 -1.43093 -2.10705 0
M  V30 2173 H 204.489 -3.02868 -1.61634 0
M  V30 2174 N 206.934 1.1197 -1.10907 0
M  V30 2175 C 207.881 2.17846 -0.762345 0
M  V30 2176 C 208.851 1.63995 0.263599 0
M  V30 2177 O 210.036 1.90273 0.141773 0
M  V30 2178 C 207.176 3.44487 -0.205651 0
M  V30 2179 C 206.289 4.12369 -1.28748 0
M  V30 2180 C 205.424 5.26674 -0.691919 0
M  V30 2181 C 204.463 5.86431 -1.75399 0
M  V30 2182 N 203.6 6.92142 -1.17833 0
M  V30 2183 H 208.44 2.46851 -1.6694 0
M  V30 2184 H 205.977 1.21188 -0.833776 0
M  V30 2185 H 207.935 4.16981 0.135037 0
M  V30 2186 H 206.565 3.15884 0.664613 0
M  V30 2187 H 205.617 3.38003 -1.74522 0
M  V30 2188 H 206.929 4.52844 -2.09125 0
M  V30 2189 H 206.083 6.05953 -0.300963 0
M  V30 2190 H 204.822 4.8749 0.143232 0
M  V30 2191 H 203.827 5.05835 -2.15432 0
M  V30 2192 H 205.052 6.27685 -2.59208 0
M  V30 2193 H 202.998 6.54985 -0.364725 0
M  V30 2194 H 202.915 7.31242 -1.91887 0
M  V30 2195 H 204.183 7.75237 -0.81408 0
M  V30 2196 N 208.412 0.89855 1.29475 0
M  V30 2197 C 209.658 0.524658 1.95896 0
M  V30 2198 C 209.991 -0.926468 1.70676 0
M  V30 2199 O 209.266 -1.65665 1.01908 0
M  V30 2200 C 209.549 0.81633 3.50725 0
M  V30 2201 C 209.402 2.31907 3.85408 0
M  V30 2202 C 210.721 0.302038 4.39062 0
M  V30 2203 H 207.84 0.19209 0.711527 0
M  V30 2204 H 210.482 1.12502 1.53112 0
M  V30 2205 H 208.632 0.305369 3.87298 0
M  V30 2206 H 210.304 2.89949 3.58786 0
M  V30 2207 H 208.547 2.78027 3.32992 0
M  V30 2208 H 209.218 2.47373 4.93468 0
M  V30 2209 H 211.694 0.739551 4.09475 0
M  V30 2210 H 210.57 0.535331 5.46283 0
M  V30 2211 H 210.831 -0.797216 4.34853 0
M  V30 2212 N 209.89 -1.43072 0.660911 0
M  V30 2213 C 210.8 -2.34585 -0.0264163 0
M  V30 2214 C 211.816 -1.54316 -0.803898 0
M  V30 2215 O 212.992 -1.86939 -0.749391 0
M  V30 2216 C 210.057 -3.32689 -0.975639 0
M  V30 2217 C 209.118 -4.2886 -0.194236 0
M  V30 2218 C 208.351 -5.22278 -1.09825 0
M  V30 2219 O 208.574 -5.20299 -2.33763 0
M  V30 2220 O 207.508 -5.99228 -0.566513 0
M  V30 2221 H 211.334 -2.94869 0.727034 0
M  V30 2222 H 208.919 -1.43342 0.42111 0
M  V30 2223 H 210.801 -3.92995 -1.52094 0
M  V30 2224 H 209.476 -2.74898 -1.70918 0
M  V30 2225 H 208.383 -3.72011 0.394835 0
M  V30 2226 H 209.716 -4.89655 0.499899 0
M  V30 2227 N 211.368 -0.403325 -1.52352 0
M  V30 2228 C 212.616 0.174003 -2.0135 0
M  V30 2229 C 212.937 1.46139 -1.29106 0
M  V30 2230 O 212.207 1.91448 -0.415253 0
M  V30 2231 H 210.787 0.0672911 -0.743963 0
M  V30 2232 H 213.449 -0.538235 -1.87321 0
M  V30 2233 H 212.545 0.374254 -3.09848 0
M  V30 2234 N 212.846 1.57033 -0.133567 0
M  V30 2235 C 213.793 2.16074 0.811208 0
M  V30 2236 C 214.763 1.08979 1.2535 0
M  V30 2237 O 215.948 1.36958 1.32843 0
M  V30 2238 C 213.088 2.77595 2.05024 0
M  V30 2239 C 212.201 3.99042 1.65498 0
M  V30 2240 C 211.336 4.48603 2.84479 0
M  V30 2241 C 210.375 5.62547 2.41262 0
M  V30 2242 N 209.512 6.06787 3.53206 0
M  V30 2243 H 214.352 2.96477 0.300906 0
M  V30 2244 H 211.889 1.46462 0.136822 0
M  V30 2245 H 213.847 3.11402 2.77642 0
M  V30 2246 H 212.477 1.99859 2.53488 0
M  V30 2247 H 211.529 3.71302 0.826981 0
M  V30 2248 H 212.841 4.81629 1.29748 0
M  V30 2249 H 211.995 4.84395 3.65303 0
M  V30 2250 H 210.734 3.64995 3.23465 0
M  V30 2251 H 209.739 5.26345 1.58874 0
M  V30 2252 H 210.964 6.47931 2.03377 0
M  V30 2253 H 208.91 5.26117 3.91838 0
M  V30 2254 H 208.827 6.84266 3.21427 0
M  V30 2255 H 210.095 6.4722 4.34427 0
M  V30 2256 N 214.325 -0.140222 1.56975 0
M  V30 2257 C 215.602 -0.880769 1.74648 0
M  V30 2258 C 215.982 -1.99036 0.703404 0
M  V30 2259 O 215.33 -2.26821 -0.27648 0
M  V30 2260 C 215.54 -1.417 3.18939 0
M  V30 2261 C 216.888 -1.87774 3.80823 0
M  V30 2262 O 217.912 -1.51427 3.2241 0
M  V30 2263 O 216.771 -2.54827 4.83452 0
M  V30 2264 H 213.865 -0.416713 0.714338 0
M  V30 2265 H 216.411 -0.125618 1.69234 0
M  V30 2266 H 215.183 -0.619902 3.86359 0
M  V30 2267 H 214.806 -2.23546 3.28805 0
M  V30 2268 N 215.803 -1.52179 -0.40978 0
M  V30 2269 C 217.08 -1.56769 -1.16974 0
M  V30 2270 C 217.46 -0.348322 -2.08206 0
M  V30 2271 O 216.808 0.664862 -2.18613 0
M  V30 2272 C 217.018 -2.89603 -1.9476 0
M  V30 2273 C 218.366 -3.42579 -2.50849 0
M  V30 2274 O 219.39 -2.91338 -2.04941 0
M  V30 2275 O 218.249 -4.32054 -3.34652 0
M  V30 2276 H 215.343 -0.631439 -0.534054 0
M  V30 2277 H 217.889 -1.64507 -0.416613 0
M  V30 2278 H 216.661 -3.698 -1.27921 0
M  V30 2279 H 216.284 -2.85155 -2.77079 0
M  V30 2280 N 217.281 0.66697 -1.42791 0
M  V30 2281 C 218.527 1.4291 -1.43891 0
M  V30 2282 C 218.86 1.94114 -0.0578972 0
M  V30 2283 O 218.135 1.71414 0.91911 0
M  V30 2284 C 218.418 2.62049 -2.46987 0
M  V30 2285 C 218.271 2.16426 -3.94309 0
M  V30 2286 C 219.59 3.64266 -2.46978 0
M  V30 2287 H 216.709 0.518306 -0.523954 0
M  V30 2288 H 219.351 0.757321 -1.74255 0
M  V30 2289 H 217.501 3.19361 -2.21225 0
M  V30 2290 H 219.173 1.64221 -4.31079 0
M  V30 2291 H 217.416 1.47925 -4.078 0
M  V30 2292 H 218.087 3.02038 -4.62036 0
M  V30 2293 H 220.563 3.16686 -2.69906 0
M  V30 2294 H 219.439 4.45196 -3.21079 0
M  V30 2295 H 219.7 4.15927 -1.49857 0
M  V30 2296 N 218.759 1.29093 0.90403 0
M  V30 2297 C 219.987 1.19689 1.68766 0
M  V30 2298 C 220.402 -0.243113 1.87228 0
M  V30 2299 O 219.759 -1.16326 1.40621 0
M  V30 2300 C 219.81 1.90144 3.07453 0
M  V30 2301 O 219.531 3.2852 2.89838 0
M  V30 2302 C 221.032 1.87162 4.01852 0
M  V30 2303 H 218.252 0.415035 0.527244 0
M  V30 2304 H 220.796 1.7039 1.13082 0
M  V30 2305 H 218.951 1.43289 3.59926 0
M  V30 2306 H 219.365 3.63944 3.77684 0
M  V30 2307 H 220.839 2.41032 4.96596 0
M  V30 2308 H 221.316 0.84617 4.30972 0
M  V30 2309 H 221.922 2.33741 3.5531 0
M  V30 2310 N 220.237 -1.11381 1.11499 0
M  V30 2311 C 221.485 -1.8277 0.862524 0
M  V30 2312 C 221.806 -1.85097 -0.613534 0
M  V30 2313 O 221.076 -1.32198 -1.4457 0
M  V30 2314 H 219.656 -0.676823 0.316101 0
M  V30 2315 H 222.318 -1.34816 1.4075 0
M  V30 2316 H 221.414 -2.86614 1.23527 0
M  V30 2317 N 221.715 -0.905404 -1.28997 0
M  V30 2318 C 222.625 -0.392246 -2.31298 0
M  V30 2319 C 223.641 0.515889 -1.66176 0
M  V30 2320 O 224.817 0.404093 -1.97304 0
M  V30 2321 C 221.882 0.36686 -3.44754 0
M  V30 2322 C 220.943 -0.573485 -4.25452 0
M  V30 2323 C 220.176 0.149488 -5.33491 0
M  V30 2324 O 220.399 1.37255 -5.5364 0
M  V30 2325 O 219.333 -0.510919 -5.99728 0
M  V30 2326 H 223.159 -1.2411 -2.77183 0
M  V30 2327 H 220.744 -0.669926 -1.33538 0
M  V30 2328 H 222.626 0.795907 -4.13816 0
M  V30 2329 H 221.301 1.19169 -3.00966 0
M  V30 2330 H 220.208 -1.05176 -3.59011 0
M  V30 2331 H 221.541 -1.36489 -4.72897 0
M  V30 2332 N 223.193 1.4272 -0.668489 0
M  V30 2333 C 224.103 2.34596 0.0139753 0
M  V30 2334 C 225.119 1.5474 0.795703 0
M  V30 2335 O 226.295 1.87334 0.739466 0
M  V30 2336 C 223.36 3.33202 0.957982 0
M  V30 2337 C 222.421 4.28957 0.17149 0
M  V30 2338 C 221.654 5.22853 1.07053 0
M  V30 2339 O 221.877 5.21531 2.31001 0
M  V30 2340 O 220.811 5.9952 0.534727 0
M  V30 2341 H 224.637 2.9448 -0.742661 0
M  V30 2342 H 222.222 1.43117 -0.428705 0
M  V30 2343 H 224.104 3.93796 1.50008 0
M  V30 2344 H 222.779 2.758 1.69458 0
M  V30 2345 H 221.686 3.71796 -0.414558 0
M  V30 2346 H 223.019 4.89383 -0.52586 0
M  V30 2347 N 224.671 0.411399 1.52136 0
M  V30 2348 C 225.601 -0.404015 2.29978 0
M  V30 2349 C 226.582 -1.04412 1.34284 0
M  V30 2350 O 227.767 -1.0527 1.63192 0
M  V30 2351 C 224.897 -1.5197 3.12286 0
M  V30 2352 C 223.851 -1.00448 4.16046 0
M  V30 2353 C 223.177 -2.21393 4.86712 0
M  V30 2354 C 224.477 -0.0569336 5.22269 0
M  V30 2355 H 226.171 0.245529 2.98392 0
M  V30 2356 H 223.717 0.119525 1.43503 0
M  V30 2357 H 225.67 -2.09715 3.6551 0
M  V30 2358 H 224.394 -2.19716 2.41646 0
M  V30 2359 H 223.053 -0.449421 3.63835 0
M  V30 2360 H 222.701 -2.87699 4.12599 0
M  V30 2361 H 222.401 -1.87571 5.56858 0
M  V30 2362 H 223.925 -2.7974 5.4275 0
M  V30 2363 H 225.339 -0.54325 5.7072 0
M  V30 2364 H 223.736 0.192594 5.99791 0
M  V30 2365 H 224.806 0.887663 4.76706 0
M  V30 2366 N 226.149 -1.5696 0.141893 0
M  V30 2367 C 227.377 -2.00322 -0.517579 0
M  V30 2368 C 227.792 -1.02193 -1.58752 0
M  V30 2369 O 227.149 -0.0181619 -1.82491 0
M  V30 2370 C 227.2 -3.43618 -1.12289 0
M  V30 2371 O 226.921 -4.37995 -0.0956929 0
M  V30 2372 C 228.422 -4.02231 -1.86347 0
M  V30 2373 H 225.642 -0.657243 -0.135177 0
M  V30 2374 H 228.186 -2.03146 0.234973 0
M  V30 2375 H 226.341 -3.41662 -1.82609 0
M  V30 2376 H 226.755 -5.21729 -0.538469 0
M  V30 2377 H 228.229 -5.04509 -2.23997 0
M  V30 2378 H 228.706 -3.42655 -2.74744 0
M  V30 2379 H 229.312 -4.07802 -1.20737 0
M  V30 2380 N 227.627 0.131896 -1.57047 0
M  V30 2381 C 228.855 0.856461 -1.88341 0
M  V30 2382 C 229.27 1.74042 -0.731757 0
M  V30 2383 O 228.627 1.80051 0.297945 0
M  V30 2384 C 228.678 1.70064 -3.18999 0
M  V30 2385 O 228.399 0.852278 -4.2973 0
M  V30 2386 C 229.9 2.53148 -3.63911 0
M  V30 2387 H 227.12 0.246885 -0.62393 0
M  V30 2388 H 229.664 0.120152 -2.04147 0
M  V30 2389 H 227.819 2.38984 -3.04902 0
M  V30 2390 H 228.233 1.43329 -5.04537 0
M  V30 2391 H 229.707 3.07931 -4.58129 0
M  V30 2392 H 230.184 3.29901 -2.89935 0
M  V30 2393 H 230.79 1.89492 -3.80753 0
M  V30 2394 N 229.106 1.52395 0.401703 0
M  V30 2395 C 230.522 1.41363 0.740864 0
M  V30 2396 C 230.722 0.523982 1.94568 0
M  V30 2397 O 229.778 -0.00741204 2.52499 0
M  V30 2398 C 231.091 2.84011 0.987847 0
M  V30 2399 C 232.639 2.93404 1.09011 0
M  V30 2400 C 233.114 4.37036 1.3698 0
M  V30 2401 N 234.605 4.40304 1.43829 0
M  V30 2402 C 235.34 5.48508 1.67112 0
M  V30 2403 N 234.836 6.66819 1.87949 0
M  V30 2404 N 236.629 5.36034 1.69187 0
M  V30 2405 H 228.78 2.08765 -0.391262 0
M  V30 2406 H 231.043 0.941265 -0.112798 0
M  V30 2407 H 230.749 3.51265 0.174835 0
M  V30 2408 H 230.623 3.25502 1.906 0
M  V30 2409 H 233.01 2.26325 1.8937 0
M  V30 2410 H 233.091 2.55359 0.15015 0
M  V30 2411 H 232.735 5.04676 0.571353 0
M  V30 2412 H 232.665 4.72623 2.3224 0
M  V30 2413 H 235.156 3.55024 1.29486 0
M  V30 2414 H 235.469 7.45063 2.05185 0
M  V30 2415 H 233.814 6.6987 1.85199 0
M  V30 2416 H 237.005 4.42579 1.52451 0
M  V30 2417 H 237.178 6.20434 1.86993 0
M  V30 2418 N 230.584 -0.659388 1.43143 0
M  V30 2419 C 231.531 -1.77249 1.47822 0
M  V30 2420 C 232.501 -1.62818 0.328558 0
M  V30 2421 O 233.686 -1.83151 0.534838 0
M  V30 2422 C 230.826 -3.15371 1.40126 0
M  V30 2423 C 229.939 -3.4098 2.65249 0
M  V30 2424 C 229.074 -4.68915 2.49584 0
M  V30 2425 C 228.113 -4.87608 3.70006 0
M  V30 2426 N 227.25 -6.06796 3.53189 0
M  V30 2427 H 232.09 -1.72584 2.42938 0
M  V30 2428 H 229.627 -0.842297 1.20598 0
M  V30 2429 H 231.585 -3.9521 1.33659 0
M  V30 2430 H 230.215 -3.19121 0.485964 0
M  V30 2431 H 229.267 -2.55282 2.8202 0
M  V30 2432 H 230.579 -3.50681 3.54717 0
M  V30 2433 H 229.733 -5.56871 2.4079 0
M  V30 2434 H 228.472 -4.61524 1.5763 0
M  V30 2435 H 227.477 -3.9809 3.79215 0
M  V30 2436 H 228.702 -4.96834 4.62961 0
M  V30 2437 H 226.648 -6.00549 2.63965 0
M  V30 2438 H 226.565 -6.17428 4.36255 0
M  V30 2439 H 227.833 -6.9739 3.48236 0
M  V30 2440 N 232.062 -1.29571 -0.897171 0
M  V30 2441 C 233.339 -1.08365 -1.62839 0
M  V30 2442 C 233.719 0.371331 -2.07808 0
M  V30 2443 O 233.067 1.3606 -1.83576 0
M  V30 2444 C 233.277 -2.0735 -2.80726 0
M  V30 2445 C 234.625 -2.38406 -3.51351 0
M  V30 2446 O 235.649 -2.05564 -2.90898 0
M  V30 2447 O 234.508 -2.9453 -4.60341 0
M  V30 2448 H 231.602 -0.415345 -0.715134 0
M  V30 2449 H 234.148 -1.40952 -0.945018 0
M  V30 2450 H 232.92 -3.05339 -2.44711 0
M  V30 2451 H 232.543 -1.75507 -3.56767 0
M  V30 2452 N 233.54 1.10788 -1.12088 0
M  V30 2453 C 234.817 1.79136 -0.785476 0
M  V30 2454 C 235.197 1.98246 0.725377 0
M  V30 2455 O 234.545 1.57258 1.65778 0
M  V30 2456 C 234.755 3.12375 -1.55636 0
M  V30 2457 C 236.103 3.8731 -1.74001 0
M  V30 2458 O 237.127 3.22085 -1.52117 0
M  V30 2459 O 235.986 5.04369 -2.10415 0
M  V30 2460 H 233.08 0.776226 -0.285311 0
M  V30 2461 H 235.626 1.1747 -1.2247 0
M  V30 2462 H 234.398 2.93863 -2.5838 0
M  V30 2463 H 234.021 3.81758 -1.11114 0
M  V30 2464 N 235.018 0.912232 1.28515 0
M  V30 2465 C 235.95 0.35676 2.26406 0
M  V30 2466 C 236.963 -0.503933 1.54804 0
M  V30 2467 O 238.152 -0.319059 1.75625 0
M  V30 2468 C 235.252 -0.508825 3.35058 0
M  V30 2469 C 234.425 0.329007 4.36161 0
M  V30 2470 C 233.484 -0.471422 5.24084 0
M  V30 2471 O 232.51 0.115482 5.69083 0
M  V30 2472 N 233.712 -1.77479 5.52704 0
M  V30 2473 H 236.477 1.19818 2.74707 0
M  V30 2474 H 234.038 0.778022 1.4198 0
M  V30 2475 H 236.03 -1.051 3.90815 0
M  V30 2476 H 234.6 -1.25095 2.86478 0
M  V30 2477 H 233.82 1.05256 3.79888 0
M  V30 2478 H 235.108 0.90234 5.00735 0
M  V30 2479 H 234.506 -2.27417 5.17975 0
M  V30 2480 H 233.063 -2.26382 6.11224 0
M  V30 2481 N 236.496 -1.42363 0.676048 0
M  V30 2482 C 237.406 -2.346 -0.00153389 0
M  V30 2483 C 238.422 -1.5516 -0.787485 0
M  V30 2484 O 239.598 -1.87723 -0.729521 0
M  V30 2485 C 236.663 -3.33705 -0.940298 0
M  V30 2486 C 235.724 -4.29042 -0.148739 0
M  V30 2487 C 234.957 -5.23413 -1.04279 0
M  V30 2488 O 235.18 -5.22749 -2.28232 0
M  V30 2489 O 234.114 -5.99795 -0.502925 0
M  V30 2490 H 237.94 -2.94082 0.758268 0
M  V30 2491 H 235.525 -1.42888 0.436289 0
M  V30 2492 H 237.407 -3.94586 -1.47917 0
M  V30 2493 H 236.082 -2.76695 -1.67993 0
M  V30 2494 H 234.989 -3.71571 0.43427 0
M  V30 2495 H 236.322 -4.89097 0.551805 0
M  V30 2496 N 237.974 -0.419461 -1.51915 0
M  V30 2497 C 238.884 0.407528 -2.31033 0
M  V30 2498 C 239.9 1.04413 -1.3919 0
M  V30 2499 O 241.076 1.0434 -1.72265 0
M  V30 2500 C 238.141 1.50365 -3.12396 0
M  V30 2501 C 237.202 0.889029 -4.19994 0
M  V30 2502 C 236.435 1.93291 -4.97468 0
M  V30 2503 O 236.658 3.15259 -4.75361 0
M  V30 2504 O 235.592 1.53339 -5.8204 0
M  V30 2505 H 239.418 -0.237865 -3.02767 0
M  V30 2506 H 237.003 -0.182413 -1.48282 0
M  V30 2507 H 238.885 2.13975 -3.63032 0
M  V30 2508 H 237.56 2.13345 -2.43445 0
M  V30 2509 H 236.467 0.215353 -3.7348 0
M  V30 2510 H 237.8 0.302991 -4.91267 0
M  V30 2511 N 239.452 1.56882 -0.150215 0
M  V30 2512 C 240.68 2.00593 0.506948 0
M  V30 2513 C 241.095 1.03033 1.58208 0
M  V30 2514 O 240.452 0.0278396 1.82479 0
M  V30 2515 C 240.503 3.44209 1.10465 0
M  V30 2516 O 240.224 4.3804 0.0724636 0
M  V30 2517 C 241.725 4.03214 1.84211 0
M  V30 2518 H 238.945 0.65795 0.13169 0
M  V30 2519 H 241.489 2.03018 -0.245743 0
M  V30 2520 H 239.644 3.42625 1.80795 0
M  V30 2521 H 240.058 5.22007 0.510793 0
M  V30 2522 H 241.532 5.0569 2.21318 0
M  V30 2523 H 242.009 3.44107 2.72923 0
M  V30 2524 H 242.615 4.08437 1.18572 0
M  V30 2525 N 240.93 -0.123565 1.57115 0
M  V30 2526 C 242.176 -0.833386 1.84885 0
M  V30 2527 C 242.509 -1.79742 0.735292 0
M  V30 2528 O 241.784 -1.92764 -0.25925 0
M  V30 2529 C 242.067 -1.5873 3.23228 0
M  V30 2530 C 241.92 -0.643183 4.45178 0
M  V30 2531 C 243.239 -2.54453 3.59085 0
M  V30 2532 H 240.358 -0.301518 0.6725 0
M  V30 2533 H 243 -0.097778 1.89748 0
M  V30 2534 H 241.15 -2.21438 3.19214 0
M  V30 2535 H 242.822 -0.0253015 4.61293 0
M  V30 2536 H 241.065 0.0456139 4.33776 0
M  V30 2537 H 241.736 -1.20724 5.38637 0
M  V30 2538 H 244.212 -2.01853 3.63861 0
M  V30 2539 H 243.088 -3.04238 4.5687 0
M  V30 2540 H 243.349 -3.36906 2.86264 0
M  V30 2541 N 242.408 -1.52605 -0.393616 0
M  V30 2542 C 243.824 -1.41753 -0.733357 0
M  V30 2543 C 244.024 -0.534293 -1.94287 0
M  V30 2544 O 243.08 -0.0059787 -2.52499 0
M  V30 2545 C 244.393 -2.84531 -0.972772 0
M  V30 2546 C 245.941 -2.93978 -1.07453 0
M  V30 2547 C 246.416 -4.37756 -1.3466 0
M  V30 2548 N 247.907 -4.4106 -1.41492 0
M  V30 2549 C 248.642 -5.49387 -1.642 0
M  V30 2550 N 248.138 -6.67806 -1.8441 0
M  V30 2551 N 249.931 -5.36923 -1.66342 0
M  V30 2552 H 242.082 -2.08555 0.402328 0
M  V30 2553 H 244.345 -0.940654 0.117789 0
M  V30 2554 H 244.051 -3.51353 -0.156204 0
M  V30 2555 H 243.925 -3.26508 -1.88871 0
M  V30 2556 H 246.312 -2.27326 -1.88167 0
M  V30 2557 H 246.393 -2.55435 -0.136605 0
M  V30 2558 H 246.037 -5.04972 -0.544581 0
M  V30 2559 H 245.967 -4.73848 -2.2973 0
M  V30 2560 H 248.458 -3.55705 -1.27601 0
M  V30 2561 H 248.771 -7.46141 -2.01231 0
M  V30 2562 H 247.116 -6.70843 -1.81644 0
M  V30 2563 H 250.307 -4.43381 -1.50102 0
M  V30 2564 H 250.48 -6.21416 -1.837 0
M  V30 2565 N 243.887 0.651787 -1.4349 0
M  V30 2566 C 244.834 1.76462 -1.4876 0
M  V30 2567 C 245.804 1.62641 -0.337189 0
M  V30 2568 O 246.989 1.82864 -0.544544 0
M  V30 2569 C 244.129 3.14623 -1.41796 0
M  V30 2570 C 243.242 3.39568 -2.67053 0
M  V30 2571 C 242.377 4.67585 -2.52068 0
M  V30 2572 C 241.416 4.85639 -3.72587 0
M  V30 2573 N 240.553 6.04915 -3.56402 0
M  V30 2574 H 245.393 1.71293 -2.43849 0
M  V30 2575 H 242.93 0.835889 -1.21043 0
M  V30 2576 H 244.888 3.94496 -1.35753 0
M  V30 2577 H 243.518 3.18859 -0.50288 0
M  V30 2578 H 242.57 2.53783 -2.8337 0
M  V30 2579 H 243.882 3.48795 -3.56572 0
M  V30 2580 H 243.036 5.55586 -2.4374 0
M  V30 2581 H 241.775 4.60681 -1.60075 0
M  V30 2582 H 240.78 3.96073 -3.81321 0
M  V30 2583 H 242.005 4.94372 -4.65589 0
M  V30 2584 H 239.951 5.9914 -2.67146 0
M  V30 2585 H 239.868 6.15106 -4.39524 0
M  V30 2586 H 241.136 6.95533 -3.51929 0
M  V30 2587 N 245.365 1.30045 0.890287 0
M  V30 2588 C 246.781 1.08261 1.17268 0
M  V30 2589 C 246.981 -0.160063 2.00863 0
M  V30 2590 O 246.037 -0.855181 2.37577 0
M  V30 2591 C 247.35 2.34323 1.8845 0
M  V30 2592 C 248.898 2.39735 2.01237 0
M  V30 2593 C 249.373 3.65625 2.7583 0
M  V30 2594 N 250.864 3.66402 2.83379 0
M  V30 2595 C 251.599 4.60498 3.41657 0
M  V30 2596 N 251.095 5.64933 4.01026 0
M  V30 2597 N 252.888 4.48051 3.39421 0
M  V30 2598 H 245.039 2.09777 0.332762 0
M  V30 2599 H 247.302 0.92446 0.209948 0
M  V30 2600 H 247.008 3.2498 1.34465 0
M  V30 2601 H 246.882 2.4256 2.88867 0
M  V30 2602 H 249.269 1.4956 2.54393 0
M  V30 2603 H 249.35 2.35476 0.999232 0
M  V30 2604 H 248.994 4.56156 2.23347 0
M  V30 2605 H 248.924 3.67144 3.77509 0
M  V30 2606 H 251.415 2.90896 2.41222 0
M  V30 2607 H 251.728 6.32841 4.43545 0
M  V30 2608 H 250.073 5.68732 3.99461 0
M  V30 2609 H 253.264 3.65649 2.92264 0
M  V30 2610 H 253.437 5.21565 3.84544 0
M  V30 2611 N 246.843 -1.10192 1.12674 0
M  V30 2612 C 247.773 -2.18652 0.819362 0
M  V30 2613 C 248.754 -1.68698 -0.217915 0
M  V30 2614 O 249.939 -1.94041 -0.0785581 0
M  V30 2615 C 247.069 -3.46202 0.27594 0
M  V30 2616 C 246.023 -4.09444 1.24656 0
M  V30 2617 C 245.349 -5.31725 0.563258 0
M  V30 2618 C 246.649 -4.52863 2.60217 0
M  V30 2619 H 248.343 -2.44622 1.72628 0
M  V30 2620 H 245.889 -1.17571 0.831451 0
M  V30 2621 H 247.842 -4.21372 0.0486149 0
M  V30 2622 H 246.566 -3.1973 -0.666331 0
M  V30 2623 H 245.225 -3.36284 1.45974 0
M  V30 2624 H 244.873 -5.0153 -0.384235 0
M  V30 2625 H 244.573 -5.74991 1.21075 0
M  V30 2626 H 246.097 -6.09624 0.34503 0
M  V30 2627 H 247.511 -5.19294 2.42913 0
M  V30 2628 H 245.908 -5.06986 3.21068 0
M  V30 2629 H 246.978 -3.65656 3.18471 0
M  V30 2630 N 248.321 -0.919034 -1.28029 0
M  V30 2631 C 249.567 -0.555757 -1.95036 0
M  V30 2632 C 249.9 0.899198 -1.72128 0
M  V30 2633 O 249.175 1.64023 -1.04531 0
M  V30 2634 C 249.458 -0.872024 -3.49382 0
M  V30 2635 C 249.311 -2.3801 -3.81669 0
M  V30 2636 C 250.63 -0.37185 -4.38526 0
M  V30 2637 H 247.749 -0.203386 -0.708381 0
M  V30 2638 H 250.391 -1.14924 -1.51303 0
M  V30 2639 H 248.541 -0.366946 -3.86763 0
M  V30 2640 H 250.213 -2.9562 -3.54128 0
M  V30 2641 H 248.456 -2.83289 -3.28526 0
M  V30 2642 H 249.127 -2.55192 -4.8947 0
M  V30 2643 H 251.603 -0.804602 -4.08247 0
M  V30 2644 H 250.479 -0.622173 -5.45362 0
M  V30 2645 H 250.74 0.727934 -4.36066 0
M  V30 2646 N 249.799 1.42003 -0.683588 0
M  V30 2647 C 250.709 2.34597 -0.0109075 0
M  V30 2648 C 251.725 1.55576 0.779245 0
M  V30 2649 O 252.901 1.88107 0.719555 0
M  V30 2650 C 249.966 3.34199 0.922588 0
M  V30 2651 C 249.027 4.29115 0.125984 0
M  V30 2652 C 248.26 5.23959 1.01502 0
M  V30 2653 O 248.483 5.23952 2.25456 0
M  V30 2654 O 247.417 6.00053 0.47111 0
M  V30 2655 H 251.243 2.93675 -0.773853 0
M  V30 2656 H 248.828 1.42654 -0.443861 0
M  V30 2657 H 250.71 3.95365 1.45823 0
M  V30 2658 H 249.385 2.77582 1.66523 0
M  V30 2659 H 248.292 3.71335 -0.453969 0
M  V30 2660 H 249.625 4.88798 -0.577736 0
M  V30 2661 N 251.277 0.427512 1.51691 0
M  V30 2662 C 252.507 -0.140986 2.06118 0
M  V30 2663 C 252.915 -1.37854 1.29588 0
M  V30 2664 O 252.258 -1.80411 0.346036 0
M  V30 2665 C 252.32 -0.538276 3.55447 0
M  V30 2666 C 251.984 0.591095 4.53161 0
M  V30 2667 C 252.981 1.46027 4.98971 0
M  V30 2668 C 250.666 0.769028 4.96378 0
M  V30 2669 C 252.66 2.49216 5.8666 0
M  V30 2670 C 250.347 1.80421 5.83859 0
M  V30 2671 C 251.345 2.66417 6.28897 0
M  V30 2672 O 251.033 3.68159 7.14643 0
M  V30 2673 H 250.765 -0.0157455 0.675817 0
M  V30 2674 H 253.319 0.602495 1.96365 0
M  V30 2675 H 251.549 -1.33432 3.6295 0
M  V30 2676 H 253.238 -1.0368 3.92435 0
M  V30 2677 H 254.004 1.33429 4.66285 0
M  V30 2678 H 249.883 0.109273 4.6087 0
M  V30 2679 H 253.427 3.16372 6.21735 0
M  V30 2680 H 249.324 1.93042 6.15959 0
M  V30 2681 H 250.092 3.64622 7.32798 0
M  V30 2682 N 252.755 -1.56801 0.158532 0
M  V30 2683 C 253.705 -2.13923 -0.788738 0
M  V30 2684 C 254.689 -1.07006 -1.2016 0
M  V30 2685 O 255.881 -1.33159 -1.1661 0
M  V30 2686 C 253.01 -2.77348 -2.02319 0
M  V30 2687 C 252.096 -3.91404 -1.6329 0
M  V30 2688 N 252.487 -4.9677 -0.951463 0
M  V30 2689 C 250.785 -4.02326 -1.92482 0
M  V30 2690 C 251.486 -5.76698 -0.761221 0
M  V30 2691 N 250.462 -5.27859 -1.29869 0
M  V30 2692 H 254.264 -2.92757 -0.258995 0
M  V30 2693 H 251.778 -1.62344 -0.0426055 0
M  V30 2694 H 253.775 -3.16639 -2.71192 0
M  V30 2695 H 252.435 -1.99991 -2.558 0
M  V30 2696 H 253.446 -5.14284 -0.610928 0
M  V30 2697 H 250.123 -3.36059 -2.47732 0
M  V30 2698 H 251.513 -6.71529 -0.223284 0
M  V30 2699 N 254.233 0.115231 -1.57178 0
M  V30 2700 C 255.165 1.16694 -1.97269 0
M  V30 2701 C 256.178 1.37445 -0.872502 0
M  V30 2702 O 257.367 1.36454 -1.15077 0
M  V30 2703 C 254.467 2.52627 -2.25905 0
M  V30 2704 C 253.64 2.52427 -3.57211 0
M  V30 2705 C 252.699 3.70134 -3.74016 0
M  V30 2706 O 251.725 3.53546 -4.46087 0
M  V30 2707 N 252.927 4.88844 -3.13068 0
M  V30 2708 H 255.692 0.82588 -2.88096 0
M  V30 2709 H 253.253 0.304461 -1.59011 0
M  V30 2710 H 255.245 3.29937 -2.34359 0
M  V30 2711 H 253.815 2.789 -1.41186 0
M  V30 2712 H 253.035 1.60805 -3.5991 0
M  V30 2713 H 254.323 2.49353 -4.43509 0
M  V30 2714 H 253.721 5.05225 -2.54489 0
M  V30 2715 H 252.278 5.63817 -3.27037 0
M  V30 2716 N 255.711 1.52812 0.385517 0
M  V30 2717 C 256.644 1.72592 1.49289 0
M  V30 2718 C 257.622 0.573819 1.52138 0
M  V30 2719 O 258.806 0.80404 1.70492 0
M  V30 2720 C 255.933 1.78669 2.87741 0
M  V30 2721 C 254.979 3.00455 3.02703 0
M  V30 2722 S 255.812 4.60366 2.73538 0
M  V30 2723 C 256.968 4.69263 4.14177 0
M  V30 2724 H 257.201 2.66248 1.32285 0
M  V30 2725 H 254.734 1.43148 0.578611 0
M  V30 2726 H 256.692 1.82855 3.67524 0
M  V30 2727 H 255.353 0.861 3.02069 0
M  V30 2728 H 254.546 3.01258 4.04054 0
M  V30 2729 H 254.148 2.94278 2.30817 0
M  V30 2730 H 256.44 4.48092 5.08153 0
M  V30 2731 H 257.383 5.71276 4.18388 0
M  V30 2732 H 257.791 3.98072 4.00249 0
M  V30 2733 N 257.189 -0.644168 1.43834 0
M  V30 2734 C 258.417 -1.43147 1.49387 0
M  V30 2735 C 258.832 -1.88452 0.114583 0
M  V30 2736 O 258.189 -1.60047 -0.876989 0
M  V30 2737 C 258.24 -2.66046 2.44748 0
M  V30 2738 O 257.961 -2.22633 3.77314 0
M  V30 2739 C 259.462 -3.59311 2.59635 0
M  V30 2740 H 256.682 -0.439447 0.507077 0
M  V30 2741 H 259.226 -0.78895 1.88669 0
M  V30 2742 H 257.381 -3.26418 2.08638 0
M  V30 2743 H 257.795 -3.02216 4.28679 0
M  V30 2744 H 259.269 -4.42187 3.30416 0
M  V30 2745 H 259.746 -4.07259 1.64427 0
M  V30 2746 H 260.352 -3.04816 2.96593 0
M  V30 2747 N 258.668 -1.30515 -0.883378 0
M  V30 2748 C 259.631 -1.1701 -1.97082 0
M  V30 2749 C 260.631 -0.10089 -1.60483 0
M  V30 2750 O 261.821 -0.349127 -1.70666 0
M  V30 2751 C 258.953 -0.793045 -3.31547 0
M  V30 2752 H 260.146 -2.13622 -2.10489 0
M  V30 2753 H 257.699 -1.13935 -1.06998 0
M  V30 2754 H 258.434 0.172499 -3.23841 0
M  V30 2755 H 258.219 -1.56576 -3.5948 0
M  V30 2756 H 259.709 -0.722073 -4.1131 0
M  V30 2757 N 260.146 1.09593 -1.13257 0
M  V30 2758 C 261.557 1.63229 -0.906274 0
M  V30 2759 C 261.908 1.8811 0.557578 0
M  V30 2760 O 261.033 1.62953 1.42391 0
M  V30 2761 C 261.628 2.96535 -1.63867 0
M  V30 2762 C 260.187 3.47003 -1.45828 0
M  V30 2763 C 259.334 2.2145 -1.66898 0
M  V30 2764 H 262.285 0.92978 -1.28611 0
M  V30 2765 H 262.306 3.64411 -1.09476 0
M  V30 2766 H 261.818 2.78394 -2.70404 0
M  V30 2767 H 259.919 3.70272 -0.415848 0
M  V30 2768 H 260.032 4.24551 -2.2202 0
M  V30 2769 H 258.396 2.30022 -1.09371 0
M  V30 2770 H 259.179 2.0583 -2.74752 0
M  V30 2771 N 261.624 0.925811 1.2754 0
M  V30 2772 C 262.554 0.440748 2.29303 0
M  V30 2773 C 263.535 -0.497971 1.62648 0
M  V30 2774 O 264.72 -0.403126 1.8997 0
M  V30 2775 C 261.85 -0.309048 3.45922 0
M  V30 2776 C 260.804 0.54166 4.24559 0
M  V30 2777 C 260.13 -0.337191 5.33636 0
M  V30 2778 C 261.43 1.80516 4.90114 0
M  V30 2779 H 263.124 1.29121 2.70126 0
M  V30 2780 H 260.67 0.622323 1.29858 0
M  V30 2781 H 262.623 -0.659315 4.1621 0
M  V30 2782 H 261.347 -1.19352 3.04011 0
M  V30 2783 H 260.006 0.874609 3.56014 0
M  V30 2784 H 259.654 -1.22056 4.87966 0
M  V30 2785 H 259.354 0.228497 5.87156 0
M  V30 2786 H 260.878 -0.683072 6.06767 0
M  V30 2787 H 262.292 1.52307 5.52698 0
M  V30 2788 H 260.689 2.3142 5.53683 0
M  V30 2789 H 261.759 2.52581 4.13921 0
M  V30 2790 N 263.102 -1.41638 0.69111 0
M  V30 2791 C 264.351 -2.00526 0.217318 0
M  V30 2792 C 264.664 -1.55353 -1.18848 0
M  V30 2793 O 265.87 -2.06769 -1.75951 0
M  V30 2794 C 264.326 -3.58313 0.337639 0
M  V30 2795 C 263.934 -4.12469 1.74852 0
M  V30 2796 C 265.678 -4.24431 -0.0766066 0
M  V30 2797 C 263.585 -5.62675 1.82074 0
M  V30 2798 H 262.515 -0.750008 0.0774893 0
M  V30 2799 H 265.166 -1.6217 0.858661 0
M  V30 2800 H 263.548 -3.9425 -0.371879 0
M  V30 2801 H 264.722 -3.8796 2.48644 0
M  V30 2802 H 263.037 -3.58861 2.11205 0
M  V30 2803 H 265.634 -5.34683 -0.0430284 0
M  V30 2804 H 265.977 -4.01101 -1.1146 0
M  V30 2805 H 266.51 -3.93512 0.582476 0
M  V30 2806 H 263.249 -5.90826 2.83911 0
M  V30 2807 H 262.769 -5.89124 1.12661 0
M  V30 2808 H 264.448 -6.27371 1.58159 0
M  V30 2809 N 264.58 -0.43555 -1.51462 0
M  V30 2810 C 265.828 0.131254 -2.01673 0
M  V30 2811 C 266.149 1.43368 -1.32177 0
M  V30 2812 O 265.419 1.90524 -0.455769 0
M  V30 2813 H 263.999 0.0514954 -0.745223 0
M  V30 2814 H 266.661 -0.577847 -1.86137 0
M  V30 2815 H 265.757 0.308446 -3.10572 0
M  V30 2816 N 266.058 1.56714 -0.166846 0
M  V30 2817 C 267.288 2.00828 0.48494 0
M  V30 2818 C 267.696 1.04612 1.57648 0
M  V30 2819 O 267.039 0.0383201 1.8366 0
M  V30 2820 C 267.101 3.4137 1.12723 0
M  V30 2821 C 266.765 4.56654 0.177886 0
M  V30 2822 C 267.762 5.16402 -0.60207 0
M  V30 2823 C 265.447 5.02244 0.0750139 0
M  V30 2824 C 267.441 6.20167 -1.47215 0
M  V30 2825 C 265.128 6.05859 -0.798649 0
M  V30 2826 C 266.126 6.64691 -1.57082 0
M  V30 2827 O 265.814 7.66297 -2.42989 0
M  V30 2828 H 265.546 0.663587 0.128953 0
M  V30 2829 H 268.1 2.03692 -0.264365 0
M  V30 2830 H 266.33 3.35406 1.92457 0
M  V30 2831 H 268.019 3.69466 1.68076 0
M  V30 2832 H 268.785 4.82065 -0.53274 0
M  V30 2833 H 264.664 4.56167 0.665812 0
M  V30 2834 H 268.208 6.66016 -2.07531 0
M  V30 2835 H 264.105 6.39621 -0.869199 0
M  V30 2836 H 264.873 7.83601 -2.36455 0
M  V30 2837 N 267.536 -0.106894 1.57237 0
M  V30 2838 C 268.766 -0.825191 1.89405 0
M  V30 2839 C 269.174 -1.73374 0.757496 0
M  V30 2840 O 268.517 -1.81552 -0.280115 0
M  V30 2841 C 268.579 -1.70102 3.1671 0
M  V30 2842 C 268.243 -0.965523 4.46684 0
M  V30 2843 C 269.24 -0.300741 5.19029 0
M  V30 2844 C 266.925 -0.943105 4.93367 0
M  V30 2845 C 268.919 0.376622 6.36286 0
M  V30 2846 C 266.606 -0.261949 6.10538 0
M  V30 2847 C 267.604 0.396748 6.81847 0
M  V30 2848 O 267.292 1.06701 7.96787 0
M  V30 2849 H 267.024 -0.241852 0.631255 0
M  V30 2850 H 269.578 -0.0921491 2.05193 0
M  V30 2851 H 267.808 -2.47601 2.97036 0
M  V30 2852 H 269.497 -2.29483 3.34802 0
M  V30 2853 H 270.263 -0.309599 4.84011 0
M  V30 2854 H 266.142 -1.44524 4.3776 0
M  V30 2855 H 269.686 0.891334 6.91882 0
M  V30 2856 H 265.583 -0.250896 6.45012 0
M  V30 2857 H 266.351 0.972707 8.127 0
M  V30 2858 N 269.014 -1.53014 -0.377408 0
M  V30 2859 C 270.239 -1.72818 -1.14668 0
M  V30 2860 C 270.664 -0.450725 -1.8262 0
M  V30 2861 O 270.022 0.59439 -1.7128 0
M  V30 2862 C 270.07 -2.88627 -2.16164 0
M  V30 2863 O 269.174 -2.56409 -3.22998 0
M  V30 2864 H 268.515 -0.574301 -0.333278 0
M  V30 2865 H 271.045 -1.99853 -0.438152 0
M  V30 2866 H 271.055 -3.14455 -2.59966 0
M  V30 2867 H 269.73 -3.81294 -1.66095 0
M  V30 2868 H 268.307 -2.4136 -2.84253 0
M  V30 2869 N 270.492 0.636531 -1.44174 0
M  V30 2870 C 271.439 1.74875 -1.50624 0
M  V30 2871 C 272.409 1.62275 -0.35442 0
M  V30 2872 O 273.594 1.82276 -0.563908 0
M  V30 2873 C 270.734 3.13102 -1.45125 0
M  V30 2874 C 269.847 3.36717 -2.7064 0
M  V30 2875 C 268.982 4.64885 -2.57013 0
M  V30 2876 C 268.021 4.8166 -3.77717 0
M  V30 2877 N 267.158 6.01101 -3.62798 0
M  V30 2878 H 271.998 1.68697 -2.45653 0
M  V30 2879 H 269.535 0.823004 -1.21922 0
M  V30 2880 H 271.493 3.93034 -1.39929 0
M  V30 2881 H 270.123 3.18308 -0.536671 0
M  V30 2882 H 269.175 2.50763 -2.86046 0
M  V30 2883 H 270.487 3.44993 -3.60252 0
M  V30 2884 H 269.641 5.52969 -2.49619 0
M  V30 2885 H 268.38 4.58957 -1.64953 0
M  V30 2886 H 267.385 3.92007 -3.85501 0
M  V30 2887 H 268.61 4.89406 -4.70807 0
M  V30 2888 H 266.556 5.96273 -2.73486 0
M  V30 2889 H 266.473 6.10409 -4.46023 0
M  V30 2890 H 267.741 6.91761 -3.59286 0
M  V30 2891 N 271.97 1.30982 0.876444 0
M  V30 2892 C 272.88 1.2003 2.01569 0
M  V30 2893 C 273.896 0.11838 1.73597 0
M  V30 2894 O 275.072 0.33495 1.98595 0
M  V30 2895 C 272.137 0.901637 3.34771 0
M  V30 2896 C 271.198 2.06979 3.76109 0
M  V30 2897 C 270.431 1.78529 5.02954 0
M  V30 2898 O 270.654 0.717296 5.65872 0
M  V30 2899 O 269.588 2.64019 5.40905 0
M  V30 2900 H 273.414 2.15753 2.13739 0
M  V30 2901 H 270.999 1.10658 1.00375 0
M  V30 2902 H 272.881 0.750645 4.1466 0
M  V30 2903 H 271.556 -0.0256141 3.2369 0
M  V30 2904 H 270.463 2.27616 2.96887 0
M  V30 2905 H 271.796 2.97907 3.91807 0
M  V30 2906 N 273.449 -1.08991 1.13837 0
M  V30 2907 C 274.412 -2.13925 0.822715 0
M  V30 2908 C 275.412 -1.599 -0.1699 0
M  V30 2909 O 276.602 -1.74104 0.0577251 0
M  V30 2910 C 273.734 -3.40155 0.225318 0
M  V30 2911 H 274.927 -2.43358 1.75262 0
M  V30 2912 H 272.48 -1.24603 0.943594 0
M  V30 2913 H 273.215 -3.16352 -0.713594 0
M  V30 2914 H 273 -3.80661 0.940193 0
M  V30 2915 H 274.49 -4.17594 0.0214784 0
M  V30 2916 N 274.927 -0.932562 -1.27047 0
M  V30 2917 C 275.837 -0.441219 -2.30414 0
M  V30 2918 C 276.853 0.480525 -1.67233 0
M  V30 2919 O 278.029 0.362151 -1.98117 0
M  V30 2920 C 275.094 0.293651 -3.45454 0
M  V30 2921 C 274.155 -0.663601 -4.2414 0
M  V30 2922 C 273.388 0.0362932 -5.33688 0
M  V30 2923 O 273.611 1.2548 -5.56427 0
M  V30 2924 O 272.545 -0.638015 -5.98509 0
M  V30 2925 H 276.371 -1.29962 -2.74488 0
M  V30 2926 H 273.956 -0.6981 -1.32087 0
M  V30 2927 H 275.838 0.707951 -4.15411 0
M  V30 2928 H 274.513 1.12758 -3.03426 0
M  V30 2929 H 273.42 -1.12768 -3.56699 0
M  V30 2930 H 274.753 -1.46489 -4.69896 0
M  V30 2931 N 276.405 1.4127 -0.698611 0
M  V30 2932 C 277.368 2.29158 -0.044132 0
M  V30 2933 C 278.368 1.44529 0.704841 0
M  V30 2934 O 279.558 1.65643 0.539276 0
M  V30 2935 C 276.69 3.27459 0.947809 0
M  V30 2936 H 277.883 2.88529 -0.817994 0
M  V30 2937 H 275.436 1.49307 -0.46228 0
M  V30 2938 H 276.171 2.73073 1.74933 0
M  V30 2939 H 275.956 3.8991 0.41385 0
M  V30 2940 H 277.446 3.93311 1.40344 0
M  V30 2941 N 277.883 0.443576 1.51229 0
M  V30 2942 C 279.131 -0.120557 2.0174 0
M  V30 2943 C 279.452 -1.42665 1.32935 0
M  V30 2944 O 278.722 -1.9028 0.465866 0
M  V30 2945 H 277.302 -0.0475426 0.745486 0
M  V30 2946 H 279.964 0.587711 1.85828 0
M  V30 2947 H 279.06 -0.291972 3.10731 0
M  V30 2948 N 279.361 -1.56624 0.175154 0
M  V30 2949 C 280.309 -2.19468 -0.770495 0
M  V30 2950 C 281.303 -1.15985 -1.23466 0
M  V30 2951 O 282.509 -1.34176 -1.19987 0
M  V30 2952 H 278.884 -0.703095 -0.266761 0
M  V30 2953 H 280.855 -2.97613 -0.216542 0
M  V30 2954 C 279.604 -2.85264 -1.98796 0
M  V30 2955 H 278.927 -3.64623 -1.63983 0
M  V30 2956 H 280.367 -3.327 -2.62843 0
M  V30 2957 C 278.826 -1.85239 -2.81404 0
M  V30 2958 O 279.356 -1.34024 -3.78682 0
M  V30 2959 N 277.562 -1.53911 -2.46495 0
M  V30 2960 H 277.109 -1.95751 -1.67449 0
M  V30 2961 H 277.067 -0.872382 -3.02054 0
M  V30 2962 N 280.839 0.0985539 -1.57292 0
M  V30 2963 C 282.067 0.816318 -1.90115 0
M  V30 2964 C 282.482 1.72451 -0.768509 0
M  V30 2965 O 281.839 1.80643 0.259687 0
M  V30 2966 C 281.89 1.63259 -3.22535 0
M  V30 2967 O 281.611 0.760934 -4.31441 0
M  V30 2968 C 283.112 2.45372 -3.69199 0
M  V30 2969 H 280.332 0.233595 -0.629027 0
M  V30 2970 H 282.876 0.0768229 -2.04356 0
M  V30 2971 H 281.031 2.32463 -3.09903 0
M  V30 2972 H 281.445 1.32595 -5.07463 0
M  V30 2973 H 282.919 2.98144 -4.64558 0
M  V30 2974 H 283.396 3.23677 -2.96867 0
M  V30 2975 H 284.002 1.81373 -3.84687 0
M  V30 2976 N 282.317 1.53212 0.369288 0
M  V30 2977 C 283.264 1.79388 1.45219 0
M  V30 2978 C 284.234 0.638059 1.53356 0
M  V30 2979 O 285.419 0.879852 1.69302 0
M  V30 2980 C 282.559 1.98623 2.82211 0
M  V30 2981 C 281.672 3.26337 2.8307 0
M  V30 2982 C 280.807 3.35779 4.11614 0
M  V30 2983 C 279.846 4.5754 4.06601 0
M  V30 2984 N 278.983 4.64155 5.26787 0
M  V30 2985 H 283.823 2.71794 1.22198 0
M  V30 2986 H 281.36 1.34642 0.592444 0
M  V30 2987 H 283.318 2.07761 3.61789 0
M  V30 2988 H 281.948 1.09558 3.03639 0
M  V30 2989 H 281 3.26171 1.95747 0
M  V30 2990 H 282.312 4.15988 2.75237 0
M  V30 2991 H 281.466 3.44208 4.99606 0
M  V30 2992 H 280.205 2.44137 4.22195 0
M  V30 2993 H 279.21 4.49215 3.16996 0
M  V30 2994 H 280.435 5.50519 3.97625 0
M  V30 2995 H 278.381 3.75413 5.3796 0
M  V30 2996 H 278.298 5.47706 5.21109 0
M  V30 2997 H 279.566 4.76863 6.16621 0
M  V30 2998 N 283.795 -0.628877 1.44509 0
M  V30 2999 C 285.025 -1.41349 1.50678 0
M  V30 3000 C 285.433 -1.88745 0.131075 0
M  V30 3001 O 284.776 -1.61592 -0.87371 0
M  V30 3002 C 284.838 -2.66608 2.41165 0
M  V30 3003 C 284.502 -2.40993 3.88293 0
M  V30 3004 C 285.499 -2.0268 4.78766 0
M  V30 3005 C 283.184 -2.54563 4.33016 0
M  V30 3006 C 285.178 -1.78269 6.11963 0
M  V30 3007 C 282.865 -2.29766 5.6626 0
M  V30 3008 C 283.863 -1.91678 6.55552 0
M  V30 3009 O 283.551 -1.67158 7.86329 0
M  V30 3010 H 283.283 -0.439851 0.51333 0
M  V30 3011 H 285.837 -0.776084 1.90174 0
M  V30 3012 H 284.067 -3.32994 1.96601 0
M  V30 3013 H 285.756 -3.28615 2.38259 0
M  V30 3014 H 286.522 -1.91751 4.45485 0
M  V30 3015 H 282.401 -2.83179 3.63773 0
M  V30 3016 H 285.945 -1.48465 6.81619 0
M  V30 3017 H 281.842 -2.40306 5.99102 0
M  V30 3018 H 282.61 -1.81386 7.98149 0
M  V30 3019 N 285.273 -1.31445 -0.869486 0
M  V30 3020 C 286.236 -1.19094 -1.9583 0
M  V30 3021 C 287.236 -0.117906 -1.60367 0
M  V30 3022 O 288.426 -0.367208 -1.70286 0
M  V30 3023 C 285.558 -0.828165 -3.30688 0
M  V30 3024 H 286.751 -2.15842 -2.08212 0
M  V30 3025 H 284.304 -1.15063 -1.05784 0
M  V30 3026 H 285.039 0.138142 -3.24006 0
M  V30 3027 H 284.824 -1.6038 -3.578 0
M  V30 3028 H 286.314 -0.765658 -4.10521 0
M  V30 3029 N 286.751 1.08385 -1.14413 0
M  V30 3030 C 287.698 2.15311 -0.831265 0
M  V30 3031 C 288.668 1.64751 0.211292 0
M  V30 3032 O 289.853 1.90627 0.0811674 0
M  V30 3033 C 286.993 3.43658 -0.315143 0
M  V30 3034 C 286.106 4.08064 -1.41802 0
M  V30 3035 C 285.241 5.24207 -0.859126 0
M  V30 3036 C 284.28 5.80554 -1.93967 0
M  V30 3037 N 283.417 6.88042 -1.39793 0
M  V30 3038 H 288.257 2.41415 -1.74708 0
M  V30 3039 H 285.794 1.18474 -0.871909 0
M  V30 3040 H 287.752 4.172 0.00230884 0
M  V30 3041 H 286.382 3.17839 0.56378 0
M  V30 3042 H 285.434 3.3228 -1.85187 0
M  V30 3043 H 286.746 4.45962 -2.23427 0
M  V30 3044 H 285.9 6.04689 -0.49359 0
M  V30 3045 H 284.639 4.87699 -0.011932 0
M  V30 3046 H 283.644 4.98725 -2.31415 0
M  V30 3047 H 284.869 6.19121 -2.79046 0
M  V30 3048 H 282.815 6.53493 -0.572919 0
M  V30 3049 H 282.732 7.24767 -2.15054 0
M  V30 3050 H 284 7.72255 -1.0603 0
M  V30 3051 N 288.23 0.939286 1.26551 0
M  V30 3052 C 289.476 0.586715 1.94128 0
M  V30 3053 C 289.809 -0.8717 1.73537 0
M  V30 3054 O 289.084 -1.62339 1.07127 0
M  V30 3055 C 289.367 0.927497 3.4795 0
M  V30 3056 C 289.22 2.44052 3.77834 0
M  V30 3057 C 290.539 0.441569 4.37879 0
M  V30 3058 H 287.658 0.21463 0.705055 0
M  V30 3059 H 290.3 1.17316 1.49455 0
M  V30 3060 H 288.45 0.428431 3.8613 0
M  V30 3061 H 290.122 3.01216 3.4938 0
M  V30 3062 H 288.365 2.8848 3.23978 0
M  V30 3063 H 289.036 2.62947 4.85348 0
M  V30 3064 H 291.512 0.869448 4.06915 0
M  V30 3065 H 290.388 0.708856 5.44304 0
M  V30 3066 H 290.649 -0.658467 4.37169 0
M  V30 3067 N 289.708 -1.40897 0.706093 0
M  V30 3068 C 290.985 -1.94868 0.169099 0
M  V30 3069 C 291.365 -1.64485 -1.32318 0
M  V30 3070 O 290.713 -0.95744 -2.07474 0
M  V30 3071 C 290.923 -3.45798 0.471654 0
M  V30 3072 C 292.271 -4.22663 0.405127 0
M  V30 3073 O 293.295 -3.53865 0.407168 0
M  V30 3074 O 292.154 -5.45216 0.374383 0
M  V30 3075 H 289.248 -0.82673 0.0211352 0
M  V30 3076 H 291.794 -1.50558 0.782976 0
M  V30 3077 H 290.566 -3.61235 1.50416 0
M  V30 3078 H 290.189 -3.97225 -0.172666 0
M  V30 3079 N 291.186 -0.45159 -1.50991 0
M  V30 3080 C 292.434 0.109857 -2.01801 0
M  V30 3081 C 292.755 1.41958 -1.3369 0
M  V30 3082 O 292.025 1.9003 -0.475951 0
M  V30 3083 H 290.605 0.0435884 -0.745727 0
M  V30 3084 H 293.267 -0.597557 -1.85514 0
M  V30 3085 H 292.363 0.275489 -3.10882 0
M  V30 3086 N 292.664 1.56529 -0.183458 0
M  V30 3087 C 293.892 2.01623 0.464285 0
M  V30 3088 C 294.307 1.06366 1.55986 0
M  V30 3089 O 293.664 0.0665398 1.82379 0
M  V30 3090 C 293.715 3.46475 1.03139 0
M  V30 3091 O 293.436 4.38095 -0.0204675 0
M  V30 3092 C 294.937 4.0703 1.75617 0
M  V30 3093 H 292.157 0.660596 0.117704 0
M  V30 3094 H 294.701 2.02451 -0.288751 0
M  V30 3095 H 292.856 3.46383 1.73486 0
M  V30 3096 H 293.27 5.22973 0.399952 0
M  V30 3097 H 294.744 5.10271 2.10542 0
M  V30 3098 H 295.221 3.49819 2.65563 0
M  V30 3099 H 295.827 4.1086 1.09882 0
M  V30 3100 N 294.142 -0.090211 1.57342 0
M  V30 3101 C 295.089 -1.10909 2.02405 0
M  V30 3102 C 296.059 -1.39523 0.901252 0
M  V30 3103 O 297.244 -1.50903 1.1676 0
M  V30 3104 C 294.384 -2.42277 2.45755 0
M  V30 3105 C 293.497 -2.20352 3.71576 0
M  V30 3106 C 292.632 -3.45154 4.03785 0
M  V30 3107 C 291.671 -3.18512 5.22701 0
M  V30 3108 N 290.808 -4.35593 5.50639 0
M  V30 3109 H 295.648 -0.71782 2.89225 0
M  V30 3110 H 293.185 -0.342901 1.43048 0
M  V30 3111 H 295.143 -3.18951 2.68935 0
M  V30 3112 H 293.773 -2.79242 1.61938 0
M  V30 3113 H 292.825 -1.34458 3.55844 0
M  V30 3114 H 294.137 -1.96661 4.58395 0
M  V30 3115 H 293.291 -4.30233 4.27767 0
M  V30 3116 H 292.03 -3.71904 3.15498 0
M  V30 3117 H 291.035 -2.31827 4.98534 0
M  V30 3118 H 292.26 -2.93103 6.12591 0
M  V30 3119 H 290.206 -4.6241 4.6531 0
M  V30 3120 H 290.123 -4.1511 6.31838 0
M  V30 3121 H 291.391 -5.21723 5.7916 0
M  V30 3122 N 295.62 -1.53406 -0.361157 0
M  V30 3123 C 297.031 -1.61442 -0.937728 0
M  V30 3124 C 297.382 -0.48461 -1.90121 0
M  V30 3125 O 296.507 0.388312 -2.12888 0
M  V30 3126 C 297.102 -2.92624 -1.70753 0
M  V30 3127 C 295.661 -3.02981 -2.23337 0
M  V30 3128 C 294.808 -2.5677 -1.04712 0
M  V30 3129 H 297.759 -1.58083 -0.139816 0
M  V30 3130 H 297.78 -2.80675 -2.56908 0
M  V30 3131 H 297.292 -3.74834 -1.00604 0
M  V30 3132 H 295.393 -2.25368 -2.96715 0
M  V30 3133 H 295.506 -4.0814 -2.50916 0
M  V30 3134 H 293.87 -2.11752 -1.41539 0
M  V30 3135 H 294.653 -3.41402 -0.360539 0
M  V30 3136 N 297.098 0.621204 -1.44841 0
M  V30 3137 C 298.344 1.3826 -1.48365 0
M  V30 3138 C 298.677 1.93831 -0.119624 0
M  V30 3139 O 297.952 1.74251 0.864111 0
M  V30 3140 C 298.235 2.54058 -2.55199 0
M  V30 3141 C 298.088 2.03772 -4.00995 0
M  V30 3142 C 299.407 3.56225 -2.58442 0
M  V30 3143 H 296.526 0.501374 -0.540179 0
M  V30 3144 H 299.168 0.7015 -1.76576 0
M  V30 3145 H 297.318 3.12162 -2.31274 0
M  V30 3146 H 298.99 1.50423 -4.36086 0
M  V30 3147 H 297.233 1.34876 -4.12299 0
M  V30 3148 H 297.904 2.87185 -4.71411 0
M  V30 3149 H 300.38 3.07939 -2.79844 0
M  V30 3150 H 299.256 4.34756 -3.3508 0
M  V30 3151 H 299.517 4.10949 -1.63013 0
M  V30 3152 N 298.576 1.31904 0.862503 0
M  V30 3153 C 299.539 1.20131 1.95195 0
M  V30 3154 C 300.539 0.126409 1.60302 0
M  V30 3155 O 301.729 0.376234 1.70089 0
M  V30 3156 C 298.861 0.845691 3.30244 0
M  V30 3157 H 300.054 2.16943 2.07064 0
M  V30 3158 H 297.607 1.15622 1.05172 0
M  V30 3159 H 298.342 -0.120957 3.24074 0
M  V30 3160 H 298.127 1.62276 3.56944 0
M  V30 3161 H 299.617 0.787418 4.10109 0
M  V30 3162 N 300.054 -1.07777 1.14986 0
M  V30 3163 C 300.964 -2.18404 0.856546 0
M  V30 3164 C 301.98 -1.73211 -0.165485 0
M  V30 3165 O 303.156 -2.01399 0.00755219 0
M  V30 3166 C 300.221 -3.44977 0.34526 0
M  V30 3167 C 299.282 -4.0476 1.43065 0
M  V30 3168 C 298.515 -5.25291 0.943663 0
M  V30 3169 O 298.738 -5.70004 -0.212426 0
M  V30 3170 O 297.672 -5.76638 1.72547 0
M  V30 3171 H 301.498 -2.45978 1.78125 0
M  V30 3172 H 299.083 -1.17033 0.928631 0
M  V30 3173 H 300.965 -4.21348 0.0663671 0
M  V30 3174 H 299.64 -3.18965 -0.551631 0
M  V30 3175 H 298.547 -3.29949 1.76309 0
M  V30 3176 H 299.88 -4.35035 2.30229 0
M  V30 3177 N 301.532 -0.945985 -1.26051 0
M  V30 3178 C 302.778 -0.597002 -1.93814 0
M  V30 3179 C 303.111 0.862484 -1.73997 0
M  V30 3180 O 302.386 1.61769 -1.07986 0
M  V30 3181 C 302.669 -0.945937 -3.47454 0
M  V30 3182 C 302.522 -2.46052 -3.76535 0
M  V30 3183 C 303.841 -0.464785 -4.37639 0
M  V30 3184 H 300.96 -0.218366 -0.703907 0
M  V30 3185 H 303.602 -1.18107 -1.48831 0
M  V30 3186 H 301.752 -0.448902 -3.85898 0
M  V30 3187 H 303.424 -3.03065 -3.47778 0
M  V30 3188 H 301.667 -2.90194 -3.22444 0
M  V30 3189 H 302.338 -2.65517 -4.83947 0
M  V30 3190 H 304.814 -0.891016 -4.06448 0
M  V30 3191 H 303.69 -0.737712 -5.4392 0
M  V30 3192 H 303.951 0.635274 -4.37512 0
M  V30 3193 N 303.011 1.40521 -0.713556 0
M  V30 3194 C 304.427 1.54839 -0.386907 0
M  V30 3195 C 304.627 1.68532 1.1045 0
M  V30 3196 O 303.683 1.67377 1.89053 0
M  V30 3197 C 304.996 2.77792 -1.15118 0
M  V30 3198 C 306.544 2.91607 -1.13729 0
M  V30 3199 C 307.019 4.1747 -1.88368 0
M  V30 3200 N 308.51 4.24466 -1.85427 0
M  V30 3201 C 309.245 5.20755 -2.40004 0
M  V30 3202 N 308.741 6.22965 -3.03129 0
M  V30 3203 N 310.534 5.1282 -2.30158 0
M  V30 3204 H 302.685 1.29879 -1.68063 0
M  V30 3205 H 304.948 0.627896 -0.710247 0
M  V30 3206 H 304.654 2.73944 -2.20561 0
M  V30 3207 H 304.528 3.6984 -0.741477 0
M  V30 3208 H 306.915 2.94959 -0.0910608 0
M  V30 3209 H 306.996 2.00682 -1.5862 0
M  V30 3210 H 306.64 4.1488 -2.9298 0
M  V30 3211 H 306.57 5.074 -1.40898 0
M  V30 3212 H 309.061 3.51241 -1.3942 0
M  V30 3213 H 309.374 6.92859 -3.42295 0
M  V30 3214 H 307.719 6.23415 -3.07212 0
M  V30 3215 H 310.91 4.31899 -1.80501 0
M  V30 3216 H 311.083 5.87689 -2.72993 0
M  V30 3217 N 304.489 0.459591 1.5075 0
M  V30 3218 C 305.452 -0.329093 2.26825 0
M  V30 3219 C 306.452 -0.930481 1.31144 0
M  V30 3220 O 307.642 -0.801453 1.54669 0
M  V30 3221 C 304.774 -1.46768 3.07688 0
M  V30 3222 H 305.967 0.337924 2.9799 0
M  V30 3223 H 303.52 0.213336 1.54837 0
M  V30 3224 H 304.255 -2.17009 2.40993 0
M  V30 3225 H 304.04 -1.04238 3.77991 0
M  V30 3226 H 305.53 -2.02433 3.65254 0
M  V30 3227 N 305.967 -1.56429 0.191757 0
M  V30 3228 C 307.244 -1.89224 -0.495332 0
M  V30 3229 C 307.624 -1.10478 -1.79883 0
M  V30 3230 O 306.972 -0.204852 -2.2758 0
M  V30 3231 C 307.182 -3.41548 -0.717367 0
M  V30 3232 C 308.53 -4.11711 -1.03823 0
M  V30 3233 O 309.554 -3.4698 -0.805204 0
M  V30 3234 O 308.413 -5.2611 -1.47887 0
M  V30 3235 H 305.507 -0.785788 -0.25781 0
M  V30 3236 H 308.053 -1.68111 0.231721 0
M  V30 3237 H 306.825 -3.90772 0.203287 0
M  V30 3238 H 306.448 -3.68342 -1.497 0
M  V30 3239 N 307.445 0.0818655 -1.57387 0
M  V30 3240 C 308.375 1.09885 -2.06028 0
M  V30 3241 C 309.356 1.4098 -0.951774 0
M  V30 3242 O 310.541 1.50781 -1.22387 0
M  V30 3243 C 307.671 2.4151 -2.4958 0
M  V30 3244 C 306.625 2.24792 -3.64215 0
M  V30 3245 C 305.951 3.61712 -3.93787 0
M  V30 3246 C 307.251 1.67749 -4.94629 0
M  V30 3247 H 308.945 0.694128 -2.91243 0
M  V30 3248 H 306.491 0.332448 -1.4011 0
M  V30 3249 H 308.444 3.12939 -2.82219 0
M  V30 3250 H 307.168 2.83943 -1.61381 0
M  V30 3251 H 305.827 1.55807 -3.31843 0
M  V30 3252 H 305.475 4.01697 -3.02735 0
M  V30 3253 H 305.175 3.51368 -4.70971 0
M  V30 3254 H 306.699 4.34587 -4.28913 0
M  V30 3255 H 308.113 2.29032 -5.25564 0
M  V30 3256 H 306.51 1.68128 -5.76067 0
M  V30 3257 H 307.58 0.638059 -4.80684 0
M  V30 3258 N 308.923 1.53595 0.353017 0
M  V30 3259 C 309.833 1.83897 1.45667 0
M  V30 3260 C 310.849 0.728334 1.58023 0
M  V30 3261 O 312.025 1.01968 1.73679 0
M  V30 3262 C 309.09 2.03383 2.80778 0
M  V30 3263 C 308.151 3.27262 2.77845 0
M  V30 3264 C 307.384 3.45809 4.06512 0
M  V30 3265 O 307.607 2.68387 5.03314 0
M  V30 3266 O 306.541 4.39207 4.11559 0
M  V30 3267 H 310.367 2.77686 1.2298 0
M  V30 3268 H 307.952 1.39132 0.544308 0
M  V30 3269 H 309.834 2.17698 3.60812 0
M  V30 3270 H 308.509 1.12783 3.03417 0
M  V30 3271 H 307.416 3.18359 1.96465 0
M  V30 3272 H 308.749 4.17824 2.60161 0
M  V30 3273 N 310.401 -0.613514 1.45168 0
M  V30 3274 C 311.348 -1.72456 1.53387 0
M  V30 3275 C 312.318 -1.6169 0.380191 0
M  V30 3276 O 313.503 -1.81356 0.592836 0
M  V30 3277 C 310.643 -3.10753 1.50088 0
M  V30 3278 C 309.756 -3.32368 2.75963 0
M  V30 3279 C 308.891 -4.60737 2.64376 0
M  V30 3280 C 307.93 -4.7559 3.85332 0
M  V30 3281 N 307.067 -5.95253 3.72315 0
M  V30 3282 H 311.907 -1.64768 2.48305 0
M  V30 3283 H 309.444 -0.803503 1.23216 0
M  V30 3284 H 311.402 -3.90758 1.46164 0
M  V30 3285 H 310.032 -3.17413 0.587243 0
M  V30 3286 H 309.084 -2.4618 2.89999 0
M  V30 3287 H 310.396 -3.39218 3.65695 0
M  V30 3288 H 309.55 -5.48928 2.58385 0
M  V30 3289 H 308.289 -4.56275 1.72233 0
M  V30 3290 H 307.294 -3.85824 3.91688 0
M  V30 3291 H 308.519 -4.81854 4.78533 0
M  V30 3292 H 306.465 -5.91847 2.82937 0
M  V30 3293 H 306.382 -6.03236 4.55677 0
M  V30 3294 H 307.65 -6.85958 3.70246 0
M  V30 3295 N 311.879 -1.3236 -0.855495 0
M  V30 3296 C 313.128 -1.22226 -1.60448 0
M  V30 3297 C 313.441 0.214733 -1.94418 0
M  V30 3298 O 314.647 0.437917 -2.67945 0
M  V30 3299 C 313.103 -2.14063 -2.89318 0
M  V30 3300 C 312.711 -3.62839 -2.62777 0
M  V30 3301 C 314.455 -2.12764 -3.67331 0
M  V30 3302 C 312.362 -4.4664 -3.87643 0
M  V30 3303 H 311.292 -0.453904 -0.602069 0
M  V30 3304 H 313.943 -1.57314 -0.944698 0
M  V30 3305 H 312.325 -1.71889 -3.5675 0
M  V30 3306 H 313.499 -4.1335 -2.03662 0
M  V30 3307 H 311.814 -3.66261 -1.98096 0
M  V30 3308 H 314.411 -2.72611 -4.59987 0
M  V30 3309 H 314.754 -1.11841 -4.00995 0
M  V30 3310 H 315.287 -2.53214 -3.06802 0
M  V30 3311 H 312.026 -5.48373 -3.5912 0
M  V30 3312 H 311.546 -4.0088 -4.46156 0
M  V30 3313 H 313.225 -4.59597 -4.55389 0
M  V30 3314 N 313.357 1.07166 -1.15556 0
M  V30 3315 C 314.287 2.16403 -0.877046 0
M  V30 3316 C 315.268 1.69217 0.173111 0
M  V30 3317 O 316.453 1.94181 0.027084 0
M  V30 3318 C 313.583 3.45349 -0.367632 0
M  V30 3319 C 312.537 4.05995 -1.35468 0
M  V30 3320 C 311.863 5.30045 -0.704038 0
M  V30 3321 C 313.163 4.45804 -2.72132 0
M  V30 3322 H 314.857 2.39959 -1.79053 0
M  V30 3323 H 312.403 1.15325 -0.862331 0
M  V30 3324 H 314.356 4.21095 -0.160317 0
M  V30 3325 H 313.08 3.21385 0.581326 0
M  V30 3326 H 311.739 3.32296 -1.54839 0
M  V30 3327 H 311.387 5.02373 0.251128 0
M  V30 3328 H 311.087 5.71579 -1.36277 0
M  V30 3329 H 312.611 6.08495 -0.50654 0
M  V30 3330 H 314.025 5.12671 -2.56595 0
M  V30 3331 H 312.422 4.98296 -3.34397 0
M  V30 3332 H 313.492 3.57083 -3.28054 0
M  V30 3333 N 314.835 0.952656 1.25548 0
M  V30 3334 C 316.083 0.605176 1.92826 0
M  V30 3335 C 316.404 -0.860261 1.74999 0
M  V30 3336 O 315.674 -1.6125 1.11244 0
M  V30 3337 H 314.254 0.220832 0.713612 0
M  V30 3338 H 316.916 1.21047 1.52754 0
M  V30 3339 H 316.012 0.832798 3.00784 0
M  V30 3340 O 316.352 -1.36754 0.859105 0
M  V30 3341 H 317.043 -1.8829 0.454606 0
M  V30 END ATOM
M  V30 BEGIN BOND
M  V30 END BOND
M  V30 END CTAB
M  END
$$$$
