drugbank_target|P69795 N,N'-diacetylchitobiose-specific phosphotransferase enzyme IIB component (DB03544)
 OpenBabel12092120003D

  0  0  0     0  0            999 V3000
M  V30 BEGIN CTAB
M  V30 COUNTS 1653 1665 0 0 0
M  V30 BEGIN ATOM
M  V30 1 H -0.908 1.98254 -0.117106 0
M  V30 2 N 0 1.576 0 0
M  V30 3 C 0.933 2.03868 1.02534 0
M  V30 4 C 1.911 0.928543 1.3348 0
M  V30 5 O 3.095 1.19667 1.45644 0
M  V30 6 C 0.222 2.43627 2.35294 0
M  V30 7 C -0.732 3.65373 2.2001 0
M  V30 8 S 0.101 5.13292 1.52614 0
M  V30 9 C 1.257 5.56322 2.86805 0
M  V30 10 H 1.49 2.90518 0.631377 0
M  V30 11 H -0.977 1.52953 0.210867 0
M  V30 12 H 0.981 2.67203 3.11629 0
M  V30 13 H -0.358 1.57376 2.7183 0
M  V30 14 H -1.165 3.90944 3.18086 0
M  V30 15 H -1.563 3.418 1.51819 0
M  V30 16 H 0.729 5.58782 3.83104 0
M  V30 17 H 1.672 6.56266 2.65933 0
M  V30 18 H 2.08 4.83886 2.90714 0
M  V30 19 N 1.4781 -0.272755 1.55222 0
M  V30 20 C 2.3881 -1.35918 1.91216 0
M  V30 21 C 3.4041 -1.54026 0.809436 0
M  V30 22 O 4.5801 -1.68148 1.10852 0
M  V30 23 C 1.6451 -2.69834 2.17693 0
M  V30 24 C 0.7061 -2.6047 3.41253 0
M  V30 25 C -0.0609 -3.88 3.66458 0
M  V30 26 O 0.1621 -4.88693 2.94169 0
M  V30 27 O -0.9039 -3.88189 4.59992 0
M  V30 28 H 2.9221 -1.0839 2.83699 0
M  V30 29 H 0.5071 -0.471301 1.41771 0
M  V30 30 H 2.3891 -3.49017 2.36147 0
M  V30 31 H 1.0641 -2.97148 1.28392 0
M  V30 32 H -0.0289 -1.79663 3.28134 0
M  V30 33 H 1.3041 -2.38106 4.30774 0
M  V30 34 N 2.9562 -1.48159 -0.537278 0
M  V30 35 C 3.9032 -1.62138 -1.64256 0
M  V30 36 C 4.8732 -0.463668 -1.59497 0
M  V30 37 O 6.0582 -0.686241 -1.78032 0
M  V30 38 C 3.1982 -1.66028 -3.02537 0
M  V30 39 C 2.3112 -2.92855 -3.17585 0
M  V30 40 C 1.4462 -2.87952 -4.46382 0
M  V30 41 C 0.4852 -4.09516 -4.54932 0
M  V30 42 N -0.3778 -4.02733 -5.75109 0
M  V30 43 H 4.4622 -2.56529 -1.51647 0
M  V30 44 H 1.9992 -1.27224 -0.738414 0
M  V30 45 H 3.9572 -1.66265 -3.82638 0
M  V30 46 H 2.5872 -0.751331 -3.13934 0
M  V30 47 H 1.6392 -3.02395 -2.30784 0
M  V30 48 H 2.9512 -3.82822 -3.19764 0
M  V30 49 H 2.1052 -2.8655 -5.34765 0
M  V30 50 H 0.8442 -1.95702 -4.46712 0
M  V30 51 H -0.1508 -4.11201 -3.64957 0
M  V30 52 H 1.0742 -5.02917 -4.56346 0
M  V30 53 H -0.9798 -3.13299 -5.76351 0
M  V30 54 H -1.0628 -4.86397 -5.78752 0
M  V30 55 H 0.2052 -4.05379 -6.65799 0
M  V30 56 N 4.4343 0.785586 -1.36625 0
M  V30 57 C 5.3813 1.89838 -1.31264 0
M  V30 58 C 6.3513 1.65115 -0.180633 0
M  V30 59 O 7.5363 1.87222 -0.36777 0
M  V30 60 C 4.6763 3.26706 -1.11163 0
M  V30 61 C 3.7893 3.63476 -2.33472 0
M  V30 62 C 2.9243 4.89481 -2.06353 0
M  V30 63 C 1.9633 5.18941 -3.24602 0
M  V30 64 N 1.1003 6.36131 -2.97123 0
M  V30 65 H 5.9403 1.93756 -2.26413 0
M  V30 66 H 3.4773 0.947454 -1.12524 0
M  V30 67 H 5.4353 4.05639 -0.975337 0
M  V30 68 H 4.0653 3.222 -0.196674 0
M  V30 69 H 3.1173 2.79636 -2.57891 0
M  V30 70 H 4.4293 3.81193 -3.21704 0
M  V30 71 H 3.5833 5.76288 -1.89675 0
M  V30 72 H 2.3223 4.73841 -1.15437 0
M  V30 73 H 1.3273 4.30615 -3.41834 0
M  V30 74 H 2.5523 5.36498 -4.16349 0
M  V30 75 H 0.4983 6.21875 -2.08823 0
M  V30 76 H 0.4153 6.54198 -3.78894 0
M  V30 77 H 1.6833 7.2591 -2.84033 0
M  V30 78 N 5.9124 1.20967 1.01018 0
M  V30 79 C 6.8624 0.93182 2.08089 0
M  V30 80 C 7.8464 -0.110898 1.60517 0
M  V30 81 O 9.0384 0.0973392 1.76732 0
M  V30 82 C 6.1674 0.492719 3.39746 0
M  V30 83 C 5.2534 1.56922 3.94 0
M  V30 84 N 5.6444 2.79312 4.21686 0
M  V30 85 C 3.9424 1.43688 4.2222 0
M  V30 86 C 4.6434 3.48797 4.65527 0
M  V30 87 N 3.6194 2.76224 4.68189 0
M  V30 88 H 7.4214 1.86175 2.27412 0
M  V30 89 H 4.9354 1.10463 1.19045 0
M  V30 90 H 6.9324 0.275044 4.15992 0
M  V30 91 H 5.5924 -0.430509 3.21833 0
M  V30 92 H 6.6034 3.15903 4.10397 0
M  V30 93 H 3.2804 0.578548 4.13472 0
M  V30 94 H 4.6704 4.53561 4.95714 0
M  V30 95 N 7.3905 -1.2043 1.01659 0
M  V30 96 C 8.6395 -1.89118 0.701237 0
M  V30 97 C 8.9525 -1.79705 -0.772358 0
M  V30 98 O 10.1585 -2.43528 -1.20026 0
M  V30 99 C 8.6145 -3.39168 1.20388 0
M  V30 100 C 8.2225 -3.57166 2.70438 0
M  V30 101 C 9.9665 -4.1341 0.963953 0
M  V30 102 C 7.8735 -5.01042 3.14183 0
M  V30 103 H 6.8035 -0.708267 0.2586 0
M  V30 104 H 9.4545 -1.36239 1.22927 0
M  V30 105 H 7.8365 -3.91369 0.603824 0
M  V30 106 H 9.0105 -3.15351 3.35992 0
M  V30 107 H 7.3255 -2.96294 2.92572 0
M  V30 108 H 9.9225 -5.19491 1.26621 0
M  V30 109 H 10.2655 -4.16181 -0.099578 0
M  V30 110 H 10.7985 -3.67309 1.52738 0
M  V30 111 H 7.5375 -5.03426 4.19812 0
M  V30 112 H 7.0575 -5.43668 2.53348 0
M  V30 113 H 8.7365 -5.69623 3.0682 0
M  V30 114 N 8.8686 -0.792821 -1.36206 0
M  V30 115 C 10.0986 -0.378275 -2.03107 0
M  V30 116 C 10.5066 1.01119 -1.59911 0
M  V30 117 O 9.8496 1.66052 -0.785658 0
M  V30 118 C 9.9116 -0.366535 -3.57627 0
M  V30 119 C 9.5756 -1.70416 -4.24037 0
M  V30 120 C 10.5726 -2.6602 -4.46687 0
M  V30 121 C 8.2576 -1.98439 -4.6144 0
M  V30 122 C 10.2516 -3.8784 -5.05825 0
M  V30 123 C 7.9386 -3.20525 -5.20295 0
M  V30 124 C 8.9366 -4.15044 -5.42427 0
M  V30 125 O 8.6246 -5.34978 -6.00045 0
M  V30 126 H 8.3566 -0.153543 -0.658332 0
M  V30 127 H 10.9106 -1.07383 -1.75094 0
M  V30 128 H 9.1406 0.385539 -3.84773 0
M  V30 129 H 10.8296 0.0238088 -4.05893 0
M  V30 130 H 11.5956 -2.45658 -4.18183 0
M  V30 131 H 7.4746 -1.25686 -4.43536 0
M  V30 132 H 11.0186 -4.61628 -5.23015 0
M  V30 133 H 6.9156 -3.40764 -5.48225 0
M  V30 134 H 7.6836 -5.36088 -6.18508 0
M  V30 135 N 10.3467 1.47872 -0.545128 0
M  V30 136 C 11.2767 2.32661 0.197793 0
M  V30 137 C 12.2577 1.43041 0.920504 0
M  V30 138 O 13.4427 1.71912 0.90333 0
M  V30 139 C 10.5727 3.24569 1.23582 0
M  V30 140 C 9.5267 4.23333 0.630323 0
M  V30 141 C 8.8527 5.0448 1.77211 0
M  V30 142 C 10.1527 5.20704 -0.407974 0
M  V30 143 H 11.8467 2.95024 -0.510045 0
M  V30 144 H 9.3927 1.4187 -0.246731 0
M  V30 145 H 11.3457 3.8272 1.76362 0
M  V30 146 H 10.0697 2.60236 1.97344 0
M  V30 147 H 8.7287 3.6639 0.123922 0
M  V30 148 H 8.3767 4.36561 2.49847 0
M  V30 149 H 8.0767 5.71339 1.37281 0
M  V30 150 H 9.6007 5.65487 2.3034 0
M  V30 151 H 11.0147 5.7329 0.033305 0
M  V30 152 H 9.4117 5.95699 -0.725486 0
M  V30 153 H 10.4817 4.66917 -1.30828 0
M  V30 154 N 11.8248 0.280983 1.55075 0
M  V30 155 C 13.0718 -0.334115 1.99725 0
M  V30 156 C 13.3998 -1.5542 1.1694 0
M  V30 157 O 12.6548 -1.94361 0.228531 0
M  V30 158 C 12.9538 -0.754656 3.49342 0
M  V30 159 C 12.6198 0.361445 4.49449 0
M  V30 160 C 11.2818 0.667893 4.76542 0
M  V30 161 C 13.6338 1.11322 5.09173 0
M  V30 162 C 10.9618 1.7296 5.60626 0
M  V30 163 C 13.3138 2.1647 5.9441 0
M  V30 164 C 11.9778 2.47742 6.19822 0
M  V30 165 H 11.2478 -0.122261 0.730844 0
M  V30 166 H 13.8948 0.395917 1.87363 0
M  V30 167 H 12.1998 -1.56446 3.5921 0
M  V30 168 H 13.8968 -1.24142 3.813 0
M  V30 169 H 10.4868 0.112481 4.28452 0
M  V30 170 H 14.6708 0.88973 4.8826 0
M  V30 171 H 9.9268 1.97684 5.78559 0
M  V30 172 H 14.1008 2.75193 6.3972 0
M  V30 173 H 11.7278 3.30145 6.84769 0
M  V30 174 N 13.3029 -1.57598 0.00835791 0
M  V30 175 C 14.5429 -1.92788 -0.679136 0
M  V30 176 C 14.9069 -0.883378 -1.70471 0
M  V30 177 O 16.1079 -1.12079 -2.44319 0
M  V30 178 C 14.3789 -3.32994 -1.29807 0
M  V30 179 S 15.9379 -3.90082 -2.00952 0
M  V30 180 H 12.7559 -0.67475 -0.224127 0
M  V30 181 H 15.3579 -1.95385 0.0670497 0
M  V30 182 H 14.0619 -4.06846 -0.538922 0
M  V30 183 H 13.5929 -3.33791 -2.082 0
M  V30 184 H 15.6079 -3.71834 -3.28563 0
M  V30 185 N 14.781 0.264519 -1.55364 0
M  V30 186 C 16.006 1.01726 -1.80739 0
M  V30 187 C 16.431 1.78836 -0.583044 0
M  V30 188 O 15.789 1.75167 0.467566 0
M  V30 189 C 15.837 1.94482 -3.03659 0
M  V30 190 O 14.941 3.03386 -2.7934 0
M  V30 191 H 14.282 0.290395 -0.597132 0
M  V30 192 H 16.812 0.290854 -2.02522 0
M  V30 193 H 16.822 2.36278 -3.32621 0
M  V30 194 H 15.497 1.37772 -3.92418 0
M  V30 195 H 14.074 2.65844 -2.61498 0
M  V30 196 N 16.2591 1.48442 0.529413 0
M  V30 197 C 17.2221 1.62524 1.61612 0
M  V30 198 C 18.2221 0.498509 1.52877 0
M  V30 199 O 19.4121 0.76431 1.56537 0
M  V30 200 C 16.5441 1.59597 3.01233 0
M  V30 201 H 17.7371 2.59423 1.50465 0
M  V30 202 H 15.2901 1.37047 0.751514 0
M  V30 203 H 16.0251 0.641781 3.17886 0
M  V30 204 H 15.8101 2.41397 3.08982 0
M  V30 205 H 17.3001 1.72646 3.80241 0
M  V30 206 N 17.7372 -0.778329 1.37039 0
M  V30 207 C 18.9852 -1.53361 1.31623 0
M  V30 208 C 19.3062 -1.94739 -0.100831 0
M  V30 209 O 18.5762 -1.65797 -1.04347 0
M  V30 210 H 17.1562 -0.568794 0.484234 0
M  V30 211 H 19.8182 -0.926742 1.71457 0
M  V30 212 H 18.9142 -2.43606 1.95096 0
M  V30 213 N 19.2153 -1.21501 -1.00376 0
M  V30 214 C 20.1483 -0.918669 -2.08892 0
M  V30 215 C 21.1263 0.134277 -1.62045 0
M  V30 216 O 22.3103 0.00504255 -1.88499 0
M  V30 217 C 19.4373 -0.379645 -3.36566 0
M  V30 218 C 18.4833 -1.41559 -4.02323 0
M  V30 219 S 19.3163 -2.98521 -4.44574 0
M  V30 220 C 20.4723 -2.46228 -5.75433 0
M  V30 221 H 20.7053 -1.83761 -2.33707 0
M  V30 222 H 18.2383 -1.04489 -1.13673 0
M  V30 223 H 20.1963 -0.0752195 -4.10431 0
M  V30 224 H 18.8573 0.518008 -3.09799 0
M  V30 225 H 18.0503 -0.988076 -4.9422 0
M  V30 226 H 17.6523 -1.66815 -3.34737 0
M  V30 227 H 19.9443 -1.86791 -6.51241 0
M  V30 228 H 20.8873 -3.36572 -6.22997 0
M  V30 229 H 21.2953 -1.87894 -5.32312 0
M  V30 230 N 20.6934 1.19889 -1.02296 0
M  V30 231 C 21.9184 1.9393 -0.735237 0
M  V30 232 C 22.3434 1.74639 0.698782 0
M  V30 233 O 21.7014 1.04481 1.48167 0
M  V30 234 C 21.7494 3.43916 -1.08417 0
M  V30 235 O 20.8534 4.11917 -0.199446 0
M  V30 236 H 20.1944 0.605645 -0.272196 0
M  V30 237 H 22.7244 1.52137 -1.36804 0
M  V30 238 H 22.7344 3.9456 -1.03856 0
M  V30 239 H 21.4094 3.5728 -2.12894 0
M  V30 240 H 19.9864 3.71666 -0.303136 0
M  V30 241 N 22.1715 0.800033 1.35784 0
M  V30 242 C 23.3995 0.389606 2.03199 0
M  V30 243 C 23.8145 -0.997375 1.60306 0
M  V30 244 O 23.1715 -1.64154 0.797481 0
M  V30 245 C 23.2225 0.455855 3.58614 0
M  V30 246 O 22.9435 1.78815 3.99946 0
M  V30 247 C 24.4445 0.0374032 4.43284 0
M  V30 248 H 21.6645 0.159132 0.651857 0
M  V30 249 H 24.2085 1.08183 1.73541 0
M  V30 250 H 22.3635 -0.188057 3.86943 0
M  V30 251 H 22.7775 1.74636 4.94573 0
M  V30 252 H 24.2515 0.134882 5.51835 0
M  V30 253 H 24.7285 -1.01651 4.27275 0
M  V30 254 H 25.3345 0.654215 4.20238 0
M  V30 255 N 23.6496 -1.47581 0.552962 0
M  V30 256 C 24.8746 -2.07378 0.0300593 0
M  V30 257 C 25.2996 -1.40355 -1.25229 0
M  V30 258 O 24.6576 -0.477099 -1.7491 0
M  V30 259 C 24.7056 -3.60274 -0.153231 0
M  V30 260 O 23.8096 -3.94041 -1.21678 0
M  V30 261 H 23.1506 -0.662158 0.0494182 0
M  V30 262 H 25.6806 -1.89662 0.767434 0
M  V30 263 H 25.6906 -4.0633 -0.368761 0
M  V30 264 H 24.3656 -4.08455 0.783397 0
M  V30 265 H 22.9426 -3.59735 -0.982079 0
M  V30 266 N 25.1277 -0.289203 -1.54924 0
M  V30 267 C 26.0577 0.58549 -2.2604 0
M  V30 268 C 27.0387 1.14753 -1.25562 0
M  V30 269 O 28.2237 1.17906 -1.54311 0
M  V30 270 C 25.3537 1.76305 -2.99222 0
M  V30 271 C 24.3077 1.33191 -4.06748 0
M  V30 272 C 23.6337 2.5937 -4.6758 0
M  V30 273 C 24.9337 0.471775 -5.20165 0
M  V30 274 H 26.6277 -0.00763532 -2.99399 0
M  V30 275 H 24.1737 -0.00511229 -1.43999 0
M  V30 276 H 26.1267 2.38097 -3.47689 0
M  V30 277 H 24.8507 2.38223 -2.23422 0
M  V30 278 H 23.5097 0.737121 -3.59113 0
M  V30 279 H 23.1577 3.19576 -3.88433 0
M  V30 280 H 22.8577 2.31228 -5.40192 0
M  V30 281 H 24.3817 3.21985 -5.18804 0
M  V30 282 H 25.7957 0.995056 -5.64599 0
M  V30 283 H 24.1927 0.284639 -5.99425 0
M  V30 284 H 25.2627 -0.506041 -4.82252 0
M  V30 285 N 26.6058 1.57591 -0.0167156 0
M  V30 286 C 27.5358 2.12496 0.967858 0
M  V30 287 C 28.5168 1.03807 1.34752 0
M  V30 288 O 29.7018 1.31577 1.42833 0
M  V30 289 C 26.8318 2.64194 2.25431 0
M  V30 290 C 25.7858 3.77559 2.01576 0
M  V30 291 C 25.1118 4.15636 3.36379 0
M  V30 292 C 26.4118 5.04151 1.36489 0
M  V30 293 H 28.1058 2.95013 0.510643 0
M  V30 294 H 25.6518 1.41915 0.244181 0
M  V30 295 H 27.6048 3.01236 2.94678 0
M  V30 296 H 26.3288 1.78821 2.73296 0
M  V30 297 H 24.9878 3.40937 1.34751 0
M  V30 298 H 24.6358 3.27263 3.81979 0
M  V30 299 H 24.3358 4.92022 3.21229 0
M  V30 300 H 25.8598 4.5525 4.06915 0
M  V30 301 H 27.2738 5.38857 1.95718 0
M  V30 302 H 25.6708 5.85453 1.31776 0
M  V30 303 H 26.7408 4.83733 0.336219 0
M  V30 304 N 28.0839 -0.256276 1.55502 0
M  V30 305 C 29.3299 -0.987079 1.77157 0
M  V30 306 C 29.6629 -1.85327 0.580315 0
M  V30 307 O 28.9379 -1.89874 -0.421686 0
M  V30 308 C 29.2209 -1.85553 3.08613 0
M  V30 309 C 29.0739 -1.01816 4.38125 0
M  V30 310 C 30.3929 -2.8397 3.36228 0
M  V30 311 H 27.5119 -0.357428 0.644526 0
M  V30 312 H 30.1539 -0.258239 1.88237 0
M  V30 313 H 28.3039 -2.47695 2.99298 0
M  V30 314 H 29.9759 -0.416159 4.59419 0
M  V30 315 H 28.2189 -0.322178 4.32602 0
M  V30 316 H 28.8899 -1.65939 5.26468 0
M  V30 317 H 31.3659 -2.31964 3.45445 0
M  V30 318 H 30.2419 -3.41864 4.29442 0
M  V30 319 H 30.5029 -3.59955 2.56681 0
M  V30 320 N 29.562 -1.4872 -0.521534 0
M  V30 321 C 30.787 -1.61101 -1.30618 0
M  V30 322 C 31.212 -0.274611 -1.86085 0
M  V30 323 O 30.57 0.754937 -1.64834 0
M  V30 324 C 30.618 -2.66709 -2.4269 0
M  V30 325 O 29.722 -2.24456 -3.45967 0
M  V30 326 H 29.063 -0.539921 -0.386499 0
M  V30 327 H 31.593 -1.94767 -0.626645 0
M  V30 328 H 31.603 -2.88245 -2.88754 0
M  V30 329 H 30.278 -3.63727 -2.01682 0
M  V30 330 H 28.855 -2.13168 -3.05964 0
M  V30 331 N 31.0401 0.771051 -1.3745 0
M  V30 332 C 31.9871 1.88435 -1.3327 0
M  V30 333 C 32.9571 1.64914 -0.198136 0
M  V30 334 O 34.1421 1.86821 -0.387606 0
M  V30 335 C 31.2821 3.25509 -1.14622 0
M  V30 336 C 30.3951 3.60979 -2.37314 0
M  V30 337 C 29.5301 4.87265 -2.11533 0
M  V30 338 C 28.5691 5.15469 -3.30088 0
M  V30 339 N 27.7061 6.32944 -3.03853 0
M  V30 340 H 32.5461 1.91344 -2.28455 0
M  V30 341 H 30.0831 0.935466 -1.13523 0
M  V30 342 H 32.0411 4.04582 -1.01831 0
M  V30 343 H 30.6711 3.21974 -0.230837 0
M  V30 344 H 29.7231 2.76885 -2.60842 0
M  V30 345 H 31.0351 3.77759 -3.25729 0
M  V30 346 H 30.1891 5.74244 -1.95777 0
M  V30 347 H 28.9281 4.7259 -1.20457 0
M  V30 348 H 27.9331 4.26966 -3.46382 0
M  V30 349 H 29.1581 5.32052 -4.22016 0
M  V30 350 H 27.1041 6.19625 -2.15407 0
M  V30 351 H 27.0211 6.50143 -3.85812 0
M  V30 352 H 28.2891 7.22857 -2.91716 0
M  V30 353 N 32.5182 1.22032 0.997298 0
M  V30 354 C 33.4512 0.929735 2.08401 0
M  V30 355 C 34.4292 -0.125681 1.62114 0
M  V30 356 O 35.6132 0.00495409 1.88499 0
M  V30 357 C 32.7402 0.397488 3.3636 0
M  V30 358 C 31.7862 1.4369 4.01566 0
M  V30 359 S 32.6192 3.00874 4.42984 0
M  V30 360 C 33.7752 2.49276 5.74119 0
M  V30 361 H 34.0082 1.84998 2.32729 0
M  V30 362 H 31.5412 1.0509 1.13117 0
M  V30 363 H 33.4992 0.0969846 4.10385 0
M  V30 364 H 32.1602 -0.501571 3.10069 0
M  V30 365 H 31.3532 1.01427 4.93689 0
M  V30 366 H 30.9552 1.68588 3.33847 0
M  V30 367 H 33.2472 1.90242 6.50242 0
M  V30 368 H 34.1902 3.39872 6.21203 0
M  V30 369 H 34.5982 1.90714 5.31308 0
M  V30 370 N 33.9963 -1.19345 1.0293 0
M  V30 371 C 35.4123 -1.41069 0.746446 0
M  V30 372 C 35.6123 -1.90078 -0.668776 0
M  V30 373 O 34.6683 -2.0778 -1.4347 0
M  V30 374 C 35.9813 -2.42141 1.78292 0
M  V30 375 C 37.5293 -2.55887 1.80252 0
M  V30 376 C 38.0043 -3.60214 2.8286 0
M  V30 377 N 39.4953 -3.67711 2.81679 0
M  V30 378 C 40.2303 -4.48128 3.57727 0
M  V30 379 N 39.7263 -5.32248 4.43491 0
M  V30 380 N 41.5193 -4.42782 3.46267 0
M  V30 381 H 33.6703 -0.858536 1.94275 0
M  V30 382 H 35.9333 -0.439541 0.839945 0
M  V30 383 H 35.6393 -2.13155 2.79746 0
M  V30 384 H 35.5133 -3.41323 1.60557 0
M  V30 385 H 37.9003 -2.84196 0.794757 0
M  V30 386 H 37.9813 -1.56858 2.02062 0
M  V30 387 H 37.6253 -3.32647 3.83807 0
M  V30 388 H 37.5553 -4.58895 2.58307 0
M  V30 389 H 40.0463 -3.07634 2.19476 0
M  V30 390 H 40.3593 -5.90729 4.98256 0
M  V30 391 H 38.7043 -5.31707 4.47564 0
M  V30 392 H 41.8953 -3.76107 2.78677 0
M  V30 393 H 42.0683 -5.05215 4.05785 0
M  V30 394 N 35.4744 -0.807222 -1.35358 0
M  V30 395 C 36.4374 -0.223665 -2.28106 0
M  V30 396 C 37.4374 0.589354 -1.4961 0
M  V30 397 O 38.6274 0.407745 -1.69361 0
M  V30 398 C 35.7594 0.688149 -3.33882 0
M  V30 399 H 36.9524 -1.04169 -2.81227 0
M  V30 400 H 34.5054 -0.577921 -1.45223 0
M  V30 401 H 35.2404 1.52984 -2.85948 0
M  V30 402 H 35.0254 0.10687 -3.91954 0
M  V30 403 H 36.5154 1.09075 -4.03104 0
M  V30 404 N 36.9525 1.47285 -0.560781 0
M  V30 405 C 37.8845 2.28118 0.222438 0
M  V30 406 C 38.8975 1.37219 0.876056 0
M  V30 407 O 40.0865 1.62011 0.749307 0
M  V30 408 C 37.1865 3.1159 1.33285 0
M  V30 409 C 36.3595 4.30473 0.77534 0
M  V30 410 C 35.4185 4.95513 1.77069 0
M  V30 411 O 34.4445 5.53792 1.31539 0
M  V30 412 N 35.6465 4.90531 3.10418 0
M  V30 413 H 38.4115 2.95976 -0.470958 0
M  V30 414 H 35.9725 1.56955 -0.39709 0
M  V30 415 H 37.9645 3.51967 1.99752 0
M  V30 416 H 36.5345 2.45951 1.92943 0
M  V30 417 H 35.7545 3.94144 -0.0662113 0
M  V30 418 H 37.0425 5.07362 0.382272 0
M  V30 419 H 36.4405 4.44389 3.5005 0
M  V30 420 H 34.9975 5.34917 3.72434 0
M  V30 421 N 38.4306 0.297415 1.54768 0
M  V30 422 C 39.3936 -0.567375 2.22066 0
M  V30 423 C 40.3936 -1.06409 1.20556 0
M  V30 424 O 41.5836 -0.960691 1.45315 0
M  V30 425 C 38.7156 -1.78517 2.90421 0
M  V30 426 H 39.9086 0.0205534 2.99893 0
M  V30 427 H 37.4616 0.0482163 1.56226 0
M  V30 428 H 38.1966 -2.41303 2.16664 0
M  V30 429 H 37.9816 -1.43669 3.64831 0
M  V30 430 H 39.4716 -2.39964 3.41771 0
M  V30 431 N 39.9087 -1.5758 0.0250728 0
M  V30 432 C 40.8187 -2.1343 -0.973905 0
M  V30 433 C 41.8347 -1.08556 -1.35984 0
M  V30 434 O 43.0107 -1.40592 -1.44207 0
M  V30 435 C 40.0757 -2.64703 -2.23904 0
M  V30 436 C 39.1367 -3.84276 -1.91391 0
M  V30 437 C 38.3697 -4.33095 -3.11873 0
M  V30 438 O 38.5927 -3.81107 -4.24398 0
M  V30 439 O 37.5267 -5.24984 -2.94406 0
M  V30 440 H 41.3527 -2.99057 -0.529036 0
M  V30 441 H 38.9377 -1.48118 -0.195288 0
M  V30 442 H 40.8197 -2.97769 -2.98181 0
M  V30 443 H 39.4947 -1.82161 -2.6758 0
M  V30 444 H 38.4017 -3.56143 -1.14511 0
M  V30 445 H 39.7347 -4.67968 -1.52534 0
M  V30 446 N 41.3868 0.248026 -1.55636 0
M  V30 447 C 42.3338 1.30707 -1.90222 0
M  V30 448 C 43.3038 1.47881 -0.756332 0
M  V30 449 O 44.4888 1.61883 -1.00988 0
M  V30 450 C 41.6288 2.65769 -2.20138 0
M  V30 451 C 40.7418 2.56612 -3.47526 0
M  V30 452 C 39.8768 3.8402 -3.67017 0
M  V30 453 C 38.9158 3.69476 -4.8801 0
M  V30 454 N 38.0528 4.88774 -5.04029 0
M  V30 455 H 42.8928 1.00512 -2.80538 0
M  V30 456 H 40.4298 0.485055 -1.38873 0
M  V30 457 H 42.3878 3.44386 -2.35487 0
M  V30 458 H 41.0178 2.94115 -1.33027 0
M  V30 459 H 40.0698 1.69571 -3.40514 0
M  V30 460 H 41.3818 2.41774 -4.36287 0
M  V30 461 H 40.5358 4.7108 -3.8232 0
M  V30 462 H 39.2748 4.01754 -2.76487 0
M  V30 463 H 38.2798 2.80799 -4.72686 0
M  V30 464 H 39.5048 3.53238 -5.8 0
M  V30 465 H 37.4508 5.0687 -4.16435 0
M  V30 466 H 37.3678 4.76562 -5.86877 0
M  V30 467 H 38.6358 5.77335 -5.23741 0
M  V30 468 N 42.8649 1.48995 0.513639 0
M  V30 469 C 44.0949 1.61297 1.291 0
M  V30 470 C 44.5029 0.278656 1.87137 0
M  V30 471 O 43.8459 -0.744325 1.67945 0
M  V30 472 C 43.9079 2.61326 2.46879 0
M  V30 473 C 43.5719 4.05993 2.09807 0
M  V30 474 C 44.5689 4.93183 1.64519 0
M  V30 475 C 42.2539 4.51642 2.19829 0
M  V30 476 C 44.2479 6.24056 1.2974 0
M  V30 477 C 41.9349 5.82532 1.84662 0
M  V30 478 C 42.9329 6.68562 1.3969 0
M  V30 479 O 42.6209 7.97014 1.04992 0
M  V30 480 H 42.3529 0.546236 0.39825 0
M  V30 481 H 44.9069 1.95673 0.62459 0
M  V30 482 H 43.1369 2.22104 3.16554 0
M  V30 483 H 44.8259 2.6329 3.08923 0
M  V30 484 H 45.5919 4.59147 1.56233 0
M  V30 485 H 41.4709 3.84855 2.53786 0
M  V30 486 H 45.0149 6.91161 0.945659 0
M  V30 487 H 40.9119 6.16099 1.92594 0
M  V30 488 H 41.6799 8.09913 1.18249 0
M  V30 489 N 44.343 -0.763751 1.37857 0
M  V30 490 C 45.253 -1.90817 1.36478 0
M  V30 491 C 46.269 -1.71997 0.263248 0
M  V30 492 O 47.445 -1.95095 0.499979 0
M  V30 493 C 44.51 -3.2605 1.17864 0
M  V30 494 C 43.571 -3.57467 2.3773 0
M  V30 495 C 42.804 -4.86249 2.19995 0
M  V30 496 O 43.027 -5.57884 1.18836 0
M  V30 497 O 41.961 -5.16911 3.08361 0
M  V30 498 H 45.787 -1.94933 2.32884 0
M  V30 499 H 43.372 -0.907619 1.1867 0
M  V30 500 H 45.254 -4.06924 1.09504 0
M  V30 501 H 43.929 -3.22769 0.245372 0
M  V30 502 H 42.836 -2.76796 2.51664 0
M  V30 503 H 44.169 -3.655 3.29652 0
M  V30 504 N 45.8211 -1.22559 -0.990812 0
M  V30 505 C 47.0671 -1.05297 -1.73322 0
M  V30 506 C 47.4001 0.410655 -1.89808 0
M  V30 507 O 46.6751 1.30439 -1.44277 0
M  V30 508 C 46.9581 -1.76713 -3.13759 0
M  V30 509 C 46.8111 -3.30684 -3.04907 0
M  V30 510 C 48.1301 -1.52121 -4.12974 0
M  V30 511 H 45.2491 -0.38392 -0.629106 0
M  V30 512 H 47.8911 -1.50926 -1.15418 0
M  V30 513 H 46.0411 -1.37924 -3.63193 0
M  V30 514 H 47.7131 -3.7893 -2.63077 0
M  V30 515 H 45.9561 -3.60253 -2.41661 0
M  V30 516 H 46.6271 -3.75833 -4.04294 0
M  V30 517 H 49.1031 -1.85819 -3.72304 0
M  V30 518 H 47.9791 -2.04582 -5.0935 0
M  V30 519 H 48.2401 -0.454257 -4.3976 0
M  V30 520 N 47.2992 1.18797 -1.03562 0
M  V30 521 C 48.7102 1.70322 -0.764676 0
M  V30 522 C 49.0612 1.82708 0.714996 0
M  V30 523 O 48.1862 1.50299 1.55689 0
M  V30 524 C 48.7812 3.09356 -1.38145 0
M  V30 525 C 47.3402 3.58114 -1.15895 0
M  V30 526 C 46.4872 2.34798 -1.4753 0
M  V30 527 H 49.4382 1.03543 -1.20268 0
M  V30 528 H 49.4592 3.72378 -0.781977 0
M  V30 529 H 48.9712 3.00309 -2.45837 0
M  V30 530 H 47.0722 3.72464 -0.100544 0
M  V30 531 H 47.1852 4.4184 -1.8524 0
M  V30 532 H 45.5492 2.38464 -0.894829 0
M  V30 533 H 46.3322 2.28375 -2.56319 0
M  V30 534 N 48.7773 0.814389 1.34928 0
M  V30 535 C 50.0233 0.399013 1.98836 0
M  V30 536 C 50.3563 -1.03314 1.64438 0
M  V30 537 O 49.6313 -1.71811 0.911659 0
M  V30 538 C 49.9143 0.591629 3.55207 0
M  V30 539 C 49.7673 2.06928 3.99376 0
M  V30 540 C 51.0863 0.022199 4.40094 0
M  V30 541 H 48.2053 0.146451 0.722303 0
M  V30 542 H 50.8473 1.02537 1.59957 0
M  V30 543 H 48.9973 0.0584441 3.88456 0
M  V30 544 H 50.6693 2.66544 3.76499 0
M  V30 545 H 48.9123 2.56287 3.49999 0
M  V30 546 H 49.5833 2.1549 5.08201 0
M  V30 547 H 52.0593 0.477643 4.13349 0
M  V30 548 H 50.9353 0.186832 5.48582 0
M  V30 549 H 51.1963 -1.07215 4.28902 0
M  V30 550 N 50.2554 -1.46986 0.568584 0
M  V30 551 C 51.5044 -2.01646 0.0465894 0
M  V30 552 C 51.8174 -1.44721 -1.31587 0
M  V30 553 O 53.0234 -1.91113 -1.92842 0
M  V30 554 C 51.4794 -3.59885 0.032752 0
M  V30 555 C 51.0874 -4.25804 1.39266 0
M  V30 556 C 52.8314 -4.22255 -0.436038 0
M  V30 557 C 50.7384 -5.76081 1.33732 0
M  V30 558 H 49.6684 -0.753876 0.013647 0
M  V30 559 H 52.3194 -1.68864 0.718131 0
M  V30 560 H 50.7014 -3.8968 -0.704669 0
M  V30 561 H 51.8754 -4.07637 2.1487 0
M  V30 562 H 50.1904 -3.7547 1.80032 0
M  V30 563 H 52.7874 -5.32394 -0.49602 0
M  V30 564 H 53.1304 -3.90212 -1.45053 0
M  V30 565 H 53.6634 -3.97033 0.246877 0
M  V30 566 H 50.4024 -6.12761 2.32817 0
M  V30 567 H 49.9224 -5.96553 0.623267 0
M  V30 568 H 51.6014 -6.38518 1.0442 0
M  V30 569 N 51.7335 -0.305618 -1.54608 0
M  V30 570 C 52.9825 0.303098 -1.9941 0
M  V30 571 C 53.2955 1.54648 -1.19764 0
M  V30 572 O 54.5015 2.23007 -1.54855 0
M  V30 573 C 52.9575 0.590588 -3.55021 0
M  V30 574 C 52.5655 -0.634719 -4.43481 0
M  V30 575 C 54.3095 1.16025 -4.08336 0
M  V30 576 C 52.2165 -0.320126 -5.90533 0
M  V30 577 H 51.1465 0.117031 -0.744862 0
M  V30 578 H 53.7975 -0.415045 -1.78745 0
M  V30 579 H 52.1795 1.36845 -3.71604 0
M  V30 580 H 53.3535 -1.41079 -4.38672 0
M  V30 581 H 51.6685 -1.12333 -4.00962 0
M  V30 582 H 54.2655 1.40994 -5.15776 0
M  V30 583 H 54.6085 2.10397 -3.5922 0
M  V30 584 H 55.1415 0.443985 -3.95315 0
M  V30 585 H 51.8805 -1.23254 -6.43808 0
M  V30 586 H 51.4005 0.418579 -5.98338 0
M  V30 587 H 53.0795 0.0766241 -6.46955 0
M  V30 588 N 53.2116 1.57565 -0.0334293 0
M  V30 589 C 54.1216 2.13943 0.962572 0
M  V30 590 C 55.1376 1.09276 1.35406 0
M  V30 591 O 56.3136 1.41355 1.4346 0
M  V30 592 C 53.3786 2.65887 2.22497 0
M  V30 593 C 52.4396 3.85286 1.8935 0
M  V30 594 C 51.6726 4.34743 3.09571 0
M  V30 595 O 51.8956 3.83352 4.22371 0
M  V30 596 O 50.8296 5.26538 2.91618 0
M  V30 597 H 54.6556 2.99333 0.513169 0
M  V30 598 H 52.2406 1.4822 0.18743 0
M  V30 599 H 54.1226 2.99346 2.96598 0
M  V30 600 H 52.7976 1.83578 2.6661 0
M  V30 601 H 51.7046 3.56746 1.1262 0
M  V30 602 H 53.0376 4.68771 1.5005 0
M  V30 603 N 54.6897 -0.239769 1.55765 0
M  V30 604 C 55.6527 -1.28038 1.90103 0
M  V30 605 C 56.6527 -1.40723 0.778055 0
M  V30 606 O 57.8427 -1.39301 1.04599 0
M  V30 607 C 54.9747 -2.65702 2.13577 0
M  V30 608 H 56.1677 -0.988048 2.83157 0
M  V30 609 H 53.7207 -0.479382 1.48767 0
M  V30 610 H 54.4557 -3.00063 1.23015 0
M  V30 611 H 54.2407 -2.57875 2.95369 0
M  V30 612 H 55.7307 -3.40828 2.41301 0
M  V30 613 N 56.1678 -1.49265 -0.50573 0
M  V30 614 C 57.4148 -1.58513 -1.26015 0
M  V30 615 C 57.7428 -0.26972 -1.92621 0
M  V30 616 O 56.9978 0.741997 -1.81088 0
M  V30 617 C 57.2968 -2.69008 -2.35308 0
M  V30 618 C 56.9628 -4.10662 -1.86192 0
M  V30 619 C 55.6248 -4.49212 -1.72516 0
M  V30 620 C 57.9768 -4.99336 -1.49375 0
M  V30 621 C 55.3048 -5.74214 -1.20394 0
M  V30 622 C 57.6568 -6.24852 -0.987072 0
M  V30 623 C 56.3208 -6.62236 -0.836669 0
M  V30 624 H 55.5908 -0.580041 -0.461122 0
M  V30 625 H 58.2378 -1.83078 -0.561665 0
M  V30 626 H 56.5428 -2.38396 -3.10926 0
M  V30 627 H 58.2398 -2.73373 -2.93374 0
M  V30 628 H 54.8298 -3.8023 -1.97795 0
M  V30 629 H 59.0138 -4.70212 -1.5879 0
M  V30 630 H 54.2698 -6.01883 -1.07458 0
M  V30 631 H 58.4438 -6.92944 -0.692983 0
M  V30 632 H 56.0708 -7.58979 -0.430607 0
M  V30 633 N 57.6459 0.756429 -1.3826 0
M  V30 634 C 59.0569 1.33359 -1.30661 0
M  V30 635 C 59.4079 1.96161 0.0388875 0
M  V30 636 O 58.5329 1.94874 0.940918 0
M  V30 637 C 59.1279 2.42477 -2.36622 0
M  V30 638 C 57.6869 2.95922 -2.3261 0
M  V30 639 C 56.8339 1.69275 -2.19639 0
M  V30 640 H 59.7849 0.55552 -1.4866 0
M  V30 641 H 59.8059 3.22345 -2.02174 0
M  V30 642 H 59.3179 1.96739 -3.34538 0
M  V30 643 H 57.4189 3.45996 -1.38267 0
M  V30 644 H 57.5319 3.50494 -3.26636 0
M  V30 645 H 55.8959 1.92793 -1.66442 0
M  V30 646 H 56.6789 1.25619 -3.19491 0
M  V30 647 N 59.124 1.23083 0.984299 0
M  V30 648 C 60.034 1.02515 2.11016 0
M  V30 649 C 61.05 -0.0291702 1.73976 0
M  V30 650 O 62.226 0.165434 2.00719 0
M  V30 651 C 59.291 0.614673 3.41208 0
M  V30 652 C 58.352 1.74359 3.92297 0
M  V30 653 C 57.585 1.35261 5.16275 0
M  V30 654 O 57.808 0.235136 5.69915 0
M  V30 655 O 56.742 2.17227 5.61334 0
M  V30 656 H 60.568 1.96862 2.31255 0
M  V30 657 H 58.153 1.01753 1.09392 0
M  V30 658 H 60.035 0.396518 4.1953 0
M  V30 659 H 58.71 -0.299851 3.22308 0
M  V30 660 H 57.617 2.01635 3.1511 0
M  V30 661 H 58.95 2.63629 4.15645 0
M  V30 662 N 60.6021 -1.18246 1.0419 0
M  V30 663 C 61.8301 -1.92195 0.766072 0
M  V30 664 C 62.2451 -1.76247 -0.676933 0
M  V30 665 O 61.6021 -1.09293 -1.46155 0
M  V30 666 C 61.6531 -3.43568 1.12442 0
M  V30 667 O 61.3741 -3.59015 2.51078 0
M  V30 668 C 62.8751 -4.34613 0.873275 0
M  V30 669 H 60.0951 -0.610114 0.279288 0
M  V30 670 H 62.6391 -1.50007 1.38989 0
M  V30 671 H 60.7941 -3.8354 0.545542 0
M  V30 672 H 61.2081 -4.5273 2.64831 0
M  V30 673 H 62.6821 -5.39374 1.17385 0
M  V30 674 H 63.1591 -4.38781 -0.191909 0
M  V30 675 H 63.7651 -4.00341 1.43551 0
M  V30 676 N 62.0802 -0.821533 -1.34494 0
M  V30 677 C 63.0102 -0.257138 -2.3208 0
M  V30 678 C 63.9912 0.625645 -1.58176 0
M  V30 679 O 65.1762 0.552811 -1.86166 0
M  V30 680 C 62.3062 0.582958 -3.42372 0
M  V30 681 C 61.2602 -0.202571 -4.2752 0
M  V30 682 C 60.5862 0.760179 -5.29269 0
M  V30 683 C 61.8862 -1.40998 -5.02908 0
M  V30 684 H 63.5802 -1.07247 -2.79532 0
M  V30 685 H 61.1262 -0.517163 -1.34393 0
M  V30 686 H 63.0792 0.987972 -4.09655 0
M  V30 687 H 61.8032 1.43133 -2.93565 0
M  V30 688 H 60.4622 -0.588936 -3.61838 0
M  V30 689 H 60.1102 1.60447 -4.76724 0
M  V30 690 H 59.8102 0.238809 -5.87115 0
M  V30 691 H 61.3342 1.16308 -5.9942 0
M  V30 692 H 62.7482 -1.07905 -5.63054 0
M  V30 693 H 61.1452 -1.86689 -5.70322 0
M  V30 694 H 62.2152 -2.1889 -4.32684 0
M  V30 695 N 63.5583 1.46682 -0.576371 0
M  V30 696 C 64.5213 2.28707 0.150239 0
M  V30 697 C 65.5213 1.38035 0.824794 0
M  V30 698 O 66.7113 1.60476 0.677719 0
M  V30 699 C 63.8433 3.18248 1.22192 0
M  V30 700 H 65.0363 2.94423 -0.570521 0
M  V30 701 H 62.5893 1.52688 -0.334078 0
M  V30 702 H 63.3243 2.57265 1.97447 0
M  V30 703 H 63.1093 3.85 0.742812 0
M  V30 704 H 64.5993 3.80001 1.73172 0
M  V30 705 N 65.0364 0.313813 1.54444 0
M  V30 706 C 66.2844 -0.291099 1.99993 0
M  V30 707 C 66.6054 -1.53418 1.20366 0
M  V30 708 O 65.8754 -1.93544 0.302927 0
M  V30 709 H 64.4554 -0.110552 0.738774 0
M  V30 710 H 67.1174 0.428106 1.9014 0
M  V30 711 H 66.2134 -0.554268 3.07139 0
M  V30 712 N 66.5145 -1.57545 0.0417849 0
M  V30 713 C 67.4245 -2.14451 -0.951213 0
M  V30 714 C 68.4405 -1.09992 -1.34825 0
M  V30 715 O 69.6165 -1.42114 -1.42708 0
M  V30 716 C 66.6815 -2.67063 -2.21084 0
M  V30 717 C 65.7425 -3.86284 -1.87304 0
M  V30 718 C 64.9755 -4.36378 -3.07261 0
M  V30 719 O 65.1985 -3.85587 -4.20332 0
M  V30 720 O 64.1325 -5.28077 -2.88822 0
M  V30 721 H 67.9585 -2.99601 -0.497287 0
M  V30 722 H 65.5435 -1.48317 -0.179567 0
M  V30 723 H 67.4255 -3.00914 -2.95006 0
M  V30 724 H 66.1005 -1.84989 -2.65633 0
M  V30 725 H 65.0075 -3.57338 -1.10727 0
M  V30 726 H 66.3405 -4.6956 -1.47562 0
M  V30 727 N 67.9926 0.231505 -1.5589 0
M  V30 728 C 68.9396 1.28682 -1.91598 0
M  V30 729 C 69.9096 1.47071 -0.771974 0
M  V30 730 O 71.0946 1.60802 -1.027 0
M  V30 731 C 68.2346 2.6342 -2.22944 0
M  V30 732 C 67.3476 2.52912 -3.50228 0
M  V30 733 C 66.4826 3.80106 -3.7107 0
M  V30 734 C 65.5216 3.64279 -4.91902 0
M  V30 735 N 64.6586 4.834 -5.09184 0
M  V30 736 H 69.4986 0.975305 -2.81588 0
M  V30 737 H 67.0356 0.470299 -1.39379 0
M  V30 738 H 68.9936 3.41869 -2.39126 0
M  V30 739 H 67.6236 2.92687 -1.36139 0
M  V30 740 H 66.6756 1.6595 -3.42294 0
M  V30 741 H 67.9876 2.37133 -4.38827 0
M  V30 742 H 67.1416 4.66999 -3.87295 0
M  V30 743 H 65.8806 3.98799 -2.80733 0
M  V30 744 H 64.8856 2.7577 -4.75637 0
M  V30 745 H 66.1106 3.47067 -5.83714 0
M  V30 746 H 64.0566 5.02425 -4.21788 0
M  V30 747 H 63.9736 4.70311 -5.91898 0
M  V30 748 H 65.2416 5.71747 -5.29835 0
M  V30 749 N 69.4707 1.49531 0.497807 0
M  V30 750 C 70.7187 1.58865 1.24926 0
M  V30 751 C 71.0397 0.278721 1.92998 0
M  V30 752 O 70.3097 -0.702144 1.82885 0
M  V30 753 H 68.8897 0.585343 0.464094 0
M  V30 754 H 71.5517 1.86174 0.57666 0
M  V30 755 H 70.6477 2.38633 2.01149 0
M  V30 756 N 70.9488 -0.749086 1.3866 0
M  V30 757 C 71.8808 -1.87273 1.32142 0
M  V30 758 C 72.8938 -1.61127 0.232787 0
M  V30 759 O 74.0828 -1.71623 0.49069 0
M  V30 760 C 71.1828 -3.23005 1.02571 0
M  V30 761 C 70.3558 -3.7662 2.22433 0
M  V30 762 C 69.4148 -4.90879 1.89537 0
M  V30 763 O 68.4408 -5.05276 2.62078 0
M  V30 764 N 69.6428 -5.74198 0.853031 0
M  V30 765 H 72.4078 -1.93373 2.28969 0
M  V30 766 H 69.9688 -0.929216 1.32579 0
M  V30 767 H 71.9608 -3.96992 0.786085 0
M  V30 768 H 70.5308 -3.12262 0.145249 0
M  V30 769 H 69.7508 -2.94147 2.62434 0
M  V30 770 H 71.0388 -4.09173 3.02415 0
M  V30 771 H 70.4368 -5.6514 0.25155 0
M  V30 772 H 68.9938 -6.48313 0.67329 0
M  V30 773 N 72.4269 -1.23603 -0.977757 0
M  V30 774 C 73.3749 -1.01704 -2.09187 0
M  V30 775 C 74.3689 0.0448214 -1.69341 0
M  V30 776 O 75.5749 -0.108902 -1.7967 0
M  V30 777 H 71.9499 -0.311803 -0.684312 0
M  V30 778 H 73.9209 -1.96207 -2.24823 0
M  V30 779 C 72.6699 -0.627746 -3.41986 0
M  V30 780 H 71.9929 -1.43656 -3.73099 0
M  V30 781 H 73.4329 -0.514053 -4.20872 0
M  V30 782 C 71.8919 0.664238 -3.30287 0
M  V30 783 O 72.4219 1.71268 -3.6336 0
M  V30 784 N 70.6279 0.641156 -2.83439 0
M  V30 785 H 70.1749 -0.212376 -2.56723 0
M  V30 786 H 70.1329 1.50583 -2.75993 0
M  V30 787 N 73.905 1.17692 -1.04816 0
M  V30 788 C 74.868 2.19787 -0.650117 0
M  V30 789 C 75.868 1.58044 0.296427 0
M  V30 790 O 77.058 1.74012 0.0808097 0
M  V30 791 C 74.19 3.40869 0.0456987 0
M  V30 792 H 75.383 2.56516 -1.5537 0
M  V30 793 H 72.936 1.31708 -0.841594 0
M  V30 794 H 73.671 3.09681 0.962726 0
M  V30 795 H 73.456 3.86928 -0.634727 0
M  V30 796 H 74.946 4.16445 0.310432 0
M  V30 797 N 75.3831 0.828654 1.34056 0
M  V30 798 C 76.6601 0.341809 1.9259 0
M  V30 799 C 77.0401 -1.17158 1.75605 0
M  V30 800 O 76.3881 -1.98132 1.13824 0
M  V30 801 C 76.5981 0.777453 3.4023 0
M  V30 802 C 77.9461 0.779579 4.17382 0
M  V30 803 O 78.9701 0.7204 3.48839 0
M  V30 804 O 77.8291 0.857996 5.39723 0
M  V30 805 H 74.9231 0.0946085 0.821571 0
M  V30 806 H 77.4691 0.913827 1.42994 0
M  V30 807 H 76.2411 1.8196 3.46419 0
M  V30 808 H 75.8641 0.181444 3.97186 0
M  V30 809 N 76.8612 -1.46375 0.584142 0
M  V30 810 C 78.1072 -2.02678 0.0703716 0
M  V30 811 C 78.4402 -1.4545 -1.28678 0
M  V30 812 O 77.7152 -0.62014 -1.84349 0
M  V30 813 C 77.9982 -3.60099 0.00614674 0
M  V30 814 C 77.8512 -4.27709 1.3923 0
M  V30 815 C 79.1702 -4.34598 -0.693742 0
M  V30 816 H 76.2892 -0.736504 0.027047 0
M  V30 817 H 78.9312 -1.74501 0.751615 0
M  V30 818 H 77.0812 -3.84236 -0.574009 0
M  V30 819 H 78.7532 -4.14832 2.01773 0
M  V30 820 H 76.9962 -3.87016 1.95962 0
M  V30 821 H 77.6672 -5.36478 1.29982 0
M  V30 822 H 80.1432 -4.15615 -0.200869 0
M  V30 823 H 79.0192 -5.44318 -0.707714 0
M  V30 824 H 79.2802 -4.05759 -1.75533 0
M  V30 825 N 78.3393 -0.321999 -1.54275 0
M  V30 826 C 79.5853 0.281461 -2.00837 0
M  V30 827 C 79.9183 1.51909 -1.20985 0
M  V30 828 O 79.1933 1.923 -0.291733 0
M  V30 829 C 79.4763 0.617162 -3.54772 0
M  V30 830 C 79.3293 -0.631064 -4.45351 0
M  V30 831 C 80.6483 1.43542 -4.16033 0
M  V30 832 H 77.7673 0.100826 -0.730071 0
M  V30 833 H 80.4093 -0.438268 -1.84876 0
M  V30 834 H 78.5593 1.23034 -3.68504 0
M  V30 835 H 80.2313 -1.26934 -4.43492 0
M  V30 836 H 78.4743 -1.26025 -4.15091 0
M  V30 837 H 79.1453 -0.351735 -5.50878 0
M  V30 838 H 81.6213 0.917134 -4.05867 0
M  V30 839 H 80.4973 1.63907 -5.23856 0
M  V30 840 H 80.7583 2.43108 -3.69257 0
M  V30 841 N 79.8174 1.5752 -0.0501392 0
M  V30 842 C 80.7474 2.14502 0.922566 0
M  V30 843 C 81.7284 1.06642 1.3252 0
M  V30 844 O 82.9134 1.34577 1.4001 0
M  V30 845 C 80.0434 2.68916 2.19776 0
M  V30 846 C 78.9974 3.8175 1.93523 0
M  V30 847 C 78.3234 4.22677 3.27487 0
M  V30 848 C 79.6234 5.06932 1.25765 0
M  V30 849 H 81.3174 2.9603 0.447952 0
M  V30 850 H 78.8634 1.42401 0.214024 0
M  V30 851 H 80.8164 3.07419 2.88222 0
M  V30 852 H 79.5404 1.84578 2.69441 0
M  V30 853 H 78.1994 3.43718 1.27489 0
M  V30 854 H 77.8474 3.35291 3.74952 0
M  V30 855 H 77.5474 4.98725 3.1072 0
M  V30 856 H 79.0714 4.63779 3.97166 0
M  V30 857 H 80.4854 5.42888 1.84244 0
M  V30 858 H 78.8824 5.88116 1.19328 0
M  V30 859 H 79.9524 4.84337 0.233536 0
M  V30 860 N 81.2955 -0.223234 1.56011 0
M  V30 861 C 82.2255 -1.27988 1.95298 0
M  V30 862 C 83.2065 -1.48976 0.820979 0
M  V30 863 O 84.3915 -1.61188 1.08315 0
M  V30 864 C 81.5215 -2.63 2.26822 0
M  V30 865 C 80.4755 -2.56671 3.42497 0
M  V30 866 C 79.8015 -3.95697 3.59622 0
M  V30 867 C 81.1015 -2.11601 4.77517 0
M  V30 868 H 82.7955 -0.953525 2.8381 0
M  V30 869 H 80.3415 -0.457244 1.36548 0
M  V30 870 H 82.2945 -3.37077 2.52898 0
M  V30 871 H 81.0185 -2.9732 1.35161 0
M  V30 872 H 79.6775 -1.85051 3.16467 0
M  V30 873 H 79.3255 -4.27322 2.6534 0
M  V30 874 H 79.0255 -3.92345 4.37424 0
M  V30 875 H 80.5495 -4.71438 3.88044 0
M  V30 876 H 81.9635 -2.7542 5.02809 0
M  V30 877 H 80.3605 -2.19311 5.5859 0
M  V30 878 H 81.4305 -1.06824 4.72987 0
M  V30 879 N 82.7736 -1.49793 -0.48987 0
M  V30 880 C 84.0216 -1.59525 -1.24081 0
M  V30 881 C 84.3426 -0.288953 -1.92847 0
M  V30 882 O 83.6126 0.692436 -1.83254 0
M  V30 883 H 82.1926 -0.587796 -0.460983 0
M  V30 884 H 84.8546 -1.86477 -0.566778 0
M  V30 885 H 83.9506 -2.39696 -1.99881 0
M  V30 886 N 84.2517 0.741722 -1.39055 0
M  V30 887 C 85.6627 1.31966 -1.32068 0
M  V30 888 C 86.0137 1.96192 0.0180797 0
M  V30 889 O 85.1387 1.95861 0.920196 0
M  V30 890 C 85.7337 2.39954 -2.39181 0
M  V30 891 C 84.2927 2.93438 -2.35735 0
M  V30 892 C 83.4397 1.66936 -2.21422 0
M  V30 893 H 86.3907 0.539721 -1.4924 0
M  V30 894 H 86.4117 3.20182 -2.05581 0
M  V30 895 H 85.9237 1.9318 -3.36605 0
M  V30 896 H 84.0247 3.4451 -1.41929 0
M  V30 897 H 84.1377 3.4701 -3.30335 0
M  V30 898 H 82.5017 1.91016 -1.68478 0
M  V30 899 H 83.2847 1.22224 -3.20806 0
M  V30 900 N 85.7298 1.2412 0.971189 0
M  V30 901 C 86.6618 0.988349 2.06795 0
M  V30 902 C 87.6748 -0.0409541 1.62748 0
M  V30 903 O 88.8638 0.195673 1.77424 0
M  V30 904 C 85.9638 0.469023 3.35639 0
M  V30 905 C 85.1368 1.56065 4.08611 0
M  V30 906 C 84.1958 1.04458 5.15728 0
M  V30 907 O 83.2218 1.73553 5.42096 0
M  V30 908 N 84.4238 -0.122817 5.8037 0
M  V30 909 H 87.1888 1.93265 2.29061 0
M  V30 910 H 84.7498 1.15102 1.13856 0
M  V30 911 H 86.7418 0.108613 4.04554 0
M  V30 912 H 85.3118 -0.380919 3.1027 0
M  V30 913 H 84.5318 2.09341 3.34021 0
M  V30 914 H 85.8198 2.29449 4.54126 0
M  V30 915 H 85.2178 -0.700563 5.61345 0
M  V30 916 H 83.7748 -0.424404 6.50417 0
M  V30 917 N 87.2079 -1.17134 1.05439 0
M  V30 918 C 88.4569 -1.86791 0.761049 0
M  V30 919 C 88.7699 -1.82072 -0.714795 0
M  V30 920 O 89.9759 -2.47223 -1.12218 0
M  V30 921 C 88.4319 -3.35166 1.31117 0
M  V30 922 C 88.0399 -3.48381 2.81664 0
M  V30 923 C 89.7839 -4.10134 1.09499 0
M  V30 924 C 87.6909 -4.90793 3.29964 0
M  V30 925 H 86.6209 -0.699681 0.281002 0
M  V30 926 H 89.2719 -1.3226 1.27199 0
M  V30 927 H 87.6539 -3.8925 0.72803 0
M  V30 928 H 88.8279 -3.04502 3.45855 0
M  V30 929 H 87.1429 -2.86836 3.01851 0
M  V30 930 H 89.7399 -5.152 1.43084 0
M  V30 931 H 90.0829 -4.16287 0.0328772 0
M  V30 932 H 90.6159 -3.62264 1.64346 0
M  V30 933 H 87.3549 -4.89816 4.35616 0
M  V30 934 H 86.8749 -5.35333 2.70516 0
M  V30 935 H 88.5539 -5.59573 3.24787 0
M  V30 936 N 88.686 -0.835752 -1.33615 0
M  V30 937 C 89.649 -0.272 -2.2758 0
M  V30 938 C 90.649 0.557487 -1.50827 0
M  V30 939 O 91.839 0.37173 -1.70188 0
M  V30 940 C 88.971 0.617173 -3.35267 0
M  V30 941 H 90.164 -1.10111 -2.78954 0
M  V30 942 H 87.717 -0.608594 -1.43965 0
M  V30 943 H 88.452 1.46884 -2.89129 0
M  V30 944 H 88.237 0.0237066 -3.92093 0
M  V30 945 H 89.727 1.005 -4.05326 0
M  V30 946 N 90.1641 1.46063 -0.591896 0
M  V30 947 C 91.3941 2.06418 -0.0867676 0
M  V30 948 C 91.8021 1.43975 1.22751 0
M  V30 949 O 91.1451 0.542531 1.75506 0
M  V30 950 C 91.2071 3.59213 0.143725 0
M  V30 951 C 90.8711 4.439 -1.08635 0
M  V30 952 C 91.8681 4.79864 -2.00067 0
M  V30 953 C 89.5531 4.84896 -1.31077 0
M  V30 954 C 91.5471 5.55661 -3.12282 0
M  V30 955 C 89.2341 5.6045 -2.43596 0
M  V30 956 C 90.2321 5.95747 -3.34027 0
M  V30 957 O 89.9201 6.69772 -4.4459 0
M  V30 958 H 89.6521 0.673443 -0.0587447 0
M  V30 959 H 92.2061 1.88539 -0.814994 0
M  V30 960 H 90.4361 3.75433 0.926668 0
M  V30 961 H 92.1251 4.01463 0.5985 0
M  V30 962 H 92.8911 4.48763 -1.83947 0
M  V30 963 H 88.7701 4.56867 -0.61594 0
M  V30 964 H 92.3141 5.8313 -3.82891 0
M  V30 965 H 88.2111 5.90965 -2.59674 0
M  V30 966 H 88.9791 6.88207 -4.43073 0
M  V30 967 N 91.6422 0.330177 1.54103 0
M  V30 968 C 92.5752 -0.575477 2.20825 0
M  V30 969 C 93.5532 -1.11064 1.18758 0
M  V30 970 O 94.7372 -1.17341 1.47524 0
M  V30 971 C 91.8642 -1.79032 2.87516 0
M  V30 972 C 90.9102 -1.38581 4.03358 0
M  V30 973 S 91.7432 -0.416911 5.33875 0
M  V30 974 C 92.8992 -1.63889 6.04062 0
M  V30 975 H 93.1322 -0.00872114 2.97299 0
M  V30 976 H 90.6652 0.114254 1.53977 0
M  V30 977 H 92.6232 -2.48734 3.2656 0
M  V30 978 H 91.2842 -2.32827 2.10832 0
M  V30 979 H 90.4772 -2.29123 4.48908 0
M  V30 980 H 90.0792 -0.768419 3.66021 0
M  V30 981 H 92.3712 -2.57536 6.26643 0
M  V30 982 H 93.3142 -1.22542 6.97416 0
M  V30 983 H 93.7222 -1.82887 5.34053 0
M  V30 984 N 93.1203 -1.57491 0.0584922 0
M  V30 985 C 94.0503 -2.14988 -0.911178 0
M  V30 986 C 95.0313 -1.07343 -1.31952 0
M  V30 987 O 96.2163 -1.35318 -1.39294 0
M  V30 988 C 93.3463 -2.70078 -2.18347 0
M  V30 989 C 92.3003 -3.82771 -1.91495 0
M  V30 990 C 91.6263 -4.24408 -3.25241 0
M  V30 991 C 92.9263 -5.07592 -1.23075 0
M  V30 992 H 94.6203 -2.96263 -0.432246 0
M  V30 993 H 92.1663 -1.42512 -0.206469 0
M  V30 994 H 94.1193 -3.08943 -2.86587 0
M  V30 995 H 92.8433 -1.86005 -2.68458 0
M  V30 996 H 91.5023 -3.44389 -1.25664 0
M  V30 997 H 91.1503 -3.37275 -3.73168 0
M  V30 998 H 90.8503 -5.00366 -3.08071 0
M  V30 999 H 92.3743 -4.65879 -3.94701 0
M  V30 1000 H 93.7883 -5.43857 -1.81362 0
M  V30 1001 H 92.1853 -5.88741 -1.16207 0
M  V30 1002 H 93.2553 -4.84454 -0.207847 0
M  V30 1003 N 94.5984 0.214957 -1.56127 0
M  V30 1004 C 96.0094 0.781386 -1.69562 0
M  V30 1005 C 96.3604 1.84707 -0.66165 0
M  V30 1006 O 95.4854 2.156 0.185927 0
M  V30 1007 C 96.0804 1.42411 -3.07416 0
M  V30 1008 C 94.6394 1.93786 -3.22683 0
M  V30 1009 C 93.7864 0.800438 -2.65496 0
M  V30 1010 H 96.7374 -0.00980633 -1.58697 0
M  V30 1011 H 96.7584 2.29309 -3.0364 0
M  V30 1012 H 96.2704 0.64826 -3.82648 0
M  V30 1013 H 94.3714 2.74152 -2.52332 0
M  V30 1014 H 94.4844 2.1133 -4.29973 0
M  V30 1015 H 92.8484 1.2095 -2.2415 0
M  V30 1016 H 93.6314 0.0371471 -3.4328 0
M  V30 1017 N 96.0765 1.50051 0.48192 0
M  V30 1018 C 96.9865 1.7089 1.60728 0
M  V30 1019 C 98.0025 0.591788 1.63627 0
M  V30 1020 O 99.1785 0.868817 1.81696 0
M  V30 1021 C 96.2435 1.78855 2.97005 0
M  V30 1022 C 95.3045 3.02537 3.04581 0
M  V30 1023 C 94.5375 3.10112 4.34357 0
M  V30 1024 O 94.7605 2.24765 5.24249 0
M  V30 1025 O 93.6945 4.02747 4.47301 0
M  V30 1026 H 97.5205 2.66264 1.46072 0
M  V30 1027 H 95.1055 1.34018 0.660264 0
M  V30 1028 H 96.9875 1.86336 3.77964 0
M  V30 1029 H 95.6625 0.866628 3.11883 0
M  V30 1030 H 94.5695 3.00563 2.22739 0
M  V30 1031 H 95.9025 3.94272 2.94636 0
M  V30 1032 N 97.5546 -0.734337 1.39446 0
M  V30 1033 C 98.8036 -1.48937 1.36017 0
M  V30 1034 C 99.1166 -1.95557 -0.0409005 0
M  V30 1035 O 100.323 -2.70779 -0.19778 0
M  V30 1036 C 98.7786 -2.69125 2.38955 0
M  V30 1037 C 98.3866 -2.29452 3.8478 0
M  V30 1038 C 100.131 -3.46944 2.44603 0
M  V30 1039 C 98.0376 -3.46366 4.79358 0
M  V30 1040 H 96.9676 -0.559296 0.505672 0
M  V30 1041 H 99.6186 -0.800983 1.65095 0
M  V30 1042 H 98.0006 -3.40041 2.02948 0
M  V30 1043 H 99.1746 -1.66077 4.29831 0
M  V30 1044 H 97.4896 -1.64723 3.82433 0
M  V30 1045 H 100.087 -4.33907 3.12456 0
M  V30 1046 H 100.43 -3.89454 1.47076 0
M  V30 1047 H 100.963 -2.83056 2.79507 0
M  V30 1048 H 97.7016 -3.08905 5.78151 0
M  V30 1049 H 97.2216 -4.08719 4.38986 0
M  V30 1050 H 98.9006 -4.12691 4.98292 0
M  V30 1051 N 99.0327 -1.24633 -0.964593 0
M  V30 1052 C 99.9647 -0.999302 -2.06268 0
M  V30 1053 C 100.978 0.0323226 -1.62768 0
M  V30 1054 O 102.167 -0.205079 -1.77318 0
M  V30 1055 C 99.2667 -0.486816 -3.35385 0
M  V30 1056 C 98.4397 -1.5823 -4.07777 0
M  V30 1057 C 97.4987 -1.07191 -5.15166 0
M  V30 1058 O 96.5247 -1.76426 -5.41168 0
M  V30 1059 N 97.7267 0.0920373 -5.80427 0
M  V30 1060 H 100.492 -1.94477 -2.28033 0
M  V30 1061 H 98.0527 -1.15704 -1.13244 0
M  V30 1062 H 100.045 -0.130066 -4.04491 0
M  V30 1063 H 98.6147 0.364459 -3.10468 0
M  V30 1064 H 97.8347 -2.11109 -3.32906 0
M  V30 1065 H 99.1227 -2.31854 -4.52903 0
M  V30 1066 H 98.5207 0.670784 -5.61709 0
M  V30 1067 H 97.0777 0.389905 -6.50633 0
M  V30 1068 N 100.511 1.16574 -1.06058 0
M  V30 1069 C 101.927 1.3904 -0.783585 0
M  V30 1070 C 102.127 1.91784 0.618145 0
M  V30 1071 O 101.183 2.11511 1.37911 0
M  V30 1072 C 102.496 2.37329 -1.84649 0
M  V30 1073 C 104.044 2.51018 -1.86973 0
M  V30 1074 C 104.519 3.52588 -2.92311 0
M  V30 1075 N 106.01 3.60113 -2.91329 0
M  V30 1076 C 106.745 4.38486 -3.69482 0
M  V30 1077 N 106.241 5.20302 -4.57447 0
M  V30 1078 N 108.034 4.33446 -3.57885 0
M  V30 1079 H 100.185 0.806725 -1.96483 0
M  V30 1080 H 102.448 0.417117 -0.851303 0
M  V30 1081 H 102.154 2.05663 -2.85299 0
M  V30 1082 H 102.028 3.36946 -1.6955 0
M  V30 1083 H 104.415 2.81989 -0.869827 0
M  V30 1084 H 104.496 1.51445 -2.0615 0
M  V30 1085 H 104.14 3.22354 -3.92492 0
M  V30 1086 H 104.07 4.51886 -2.70383 0
M  V30 1087 H 106.561 3.01707 -2.27555 0
M  V30 1088 H 106.874 5.77311 -5.13743 0
M  V30 1089 H 105.219 5.19653 -4.61503 0
M  V30 1090 H 108.41 3.68586 -2.88551 0
M  V30 1091 H 108.583 4.94279 -4.19037 0
M  V30 1092 N 101.989 0.842826 1.3317 0
M  V30 1093 C 102.919 0.294028 2.31641 0
M  V30 1094 C 103.9 -0.600401 1.59151 0
M  V30 1095 O 105.085 -0.523124 1.87022 0
M  V30 1096 C 102.215 -0.528416 3.43257 0
M  V30 1097 C 101.169 0.27056 4.27144 0
M  V30 1098 C 100.495 -0.675881 5.30411 0
M  V30 1099 C 101.795 1.48981 5.00602 0
M  V30 1100 H 103.489 1.11681 2.77791 0
M  V30 1101 H 101.035 0.538478 1.33553 0
M  V30 1102 H 102.988 -0.922674 4.11175 0
M  V30 1103 H 101.712 -1.38445 2.95805 0
M  V30 1104 H 100.371 0.646427 3.60856 0
M  V30 1105 H 100.019 -1.52842 4.79216 0
M  V30 1106 H 99.7189 -0.145374 5.8742 0
M  V30 1107 H 101.243 -1.06757 6.01195 0
M  V30 1108 H 102.657 1.16849 5.61266 0
M  V30 1109 H 101.054 1.95739 5.6728 0
M  V30 1110 H 102.124 2.25746 4.29147 0
M  V30 1111 N 103.467 -1.45747 0.599634 0
M  V30 1112 C 104.397 -2.33235 -0.111306 0
M  V30 1113 C 105.378 -1.46359 -0.866781 0
M  V30 1114 O 106.563 -1.75146 -0.838904 0
M  V30 1115 C 103.693 -3.28932 -1.11451 0
M  V30 1116 C 102.647 -4.25381 -0.472772 0
M  V30 1117 C 101.973 -5.1071 -1.58365 0
M  V30 1118 C 103.273 -5.18831 0.600948 0
M  V30 1119 H 104.967 -2.92927 0.61919 0
M  V30 1120 H 102.513 -1.40857 0.299215 0
M  V30 1121 H 104.466 -3.89002 -1.62036 0
M  V30 1122 H 103.19 -2.67381 -1.8755 0
M  V30 1123 H 101.849 -3.66598 0.0121472 0
M  V30 1124 H 101.497 -4.45533 -2.33473 0
M  V30 1125 H 101.197 -5.7604 -1.15982 0
M  V30 1126 H 102.721 -5.73647 -2.09194 0
M  V30 1127 H 104.135 -5.73019 0.179491 0
M  V30 1128 H 102.532 -5.92595 0.946076 0
M  V30 1129 H 103.602 -4.6174 1.48068 0
M  V30 1130 N 104.945 -0.338344 -1.53925 0
M  V30 1131 C 106.356 0.146651 -1.86123 0
M  V30 1132 C 106.707 1.5042 -1.2597 0
M  V30 1133 O 105.832 2.08723 -0.571294 0
M  V30 1134 C 106.427 0.272879 -3.37699 0
M  V30 1135 C 104.986 0.702103 -3.69794 0
M  V30 1136 C 104.133 -0.167304 -2.76795 0
M  V30 1137 H 107.084 -0.558123 -1.48562 0
M  V30 1138 H 107.105 1.10128 -3.64214 0
M  V30 1139 H 106.617 -0.715307 -3.81451 0
M  V30 1140 H 104.718 1.6995 -3.31584 0
M  V30 1141 H 104.831 0.495604 -4.7653 0
M  V30 1142 H 103.195 0.359527 -2.5215 0
M  V30 1143 H 103.978 -1.15253 -3.23375 0
M  V30 1144 N 106.423 1.57458 -0.0668435 0
M  V30 1145 C 107.371 2.13639 0.919851 0
M  V30 1146 C 108.365 1.07204 1.31163 0
M  V30 1147 O 109.571 1.25591 1.28945 0
M  V30 1148 H 105.946 0.683048 0.314562 0
M  V30 1149 H 107.917 2.95415 0.421047 0
M  V30 1150 C 106.666 2.70892 2.17975 0
M  V30 1151 H 105.989 3.5246 1.88711 0
M  V30 1152 H 107.429 3.13803 2.85138 0
M  V30 1153 C 105.888 1.65414 2.93496 0
M  V30 1154 O 106.418 1.07619 3.87015 0
M  V30 1155 N 104.624 1.36564 2.56512 0
M  V30 1156 H 104.171 1.83751 1.80536 0
M  V30 1157 H 104.129 0.66223 3.07347 0
M  V30 1158 N 107.901 -0.206675 1.56239 0
M  V30 1159 C 108.848 -1.25617 1.93621 0
M  V30 1160 C 109.818 -1.45824 0.795274 0
M  V30 1161 O 111.003 -1.59148 1.05245 0
M  V30 1162 C 108.143 -2.59839 2.27107 0
M  V30 1163 C 107.256 -2.47308 3.54207 0
M  V30 1164 C 106.391 -3.74155 3.7707 0
M  V30 1165 C 105.43 -3.56407 4.97635 0
M  V30 1166 N 104.567 -4.75238 5.1681 0
M  V30 1167 H 109.407 -0.930383 2.83104 0
M  V30 1168 H 106.944 -0.448065 1.4011 0
M  V30 1169 H 108.902 -3.38021 2.44535 0
M  V30 1170 H 107.532 -2.90485 1.40778 0
M  V30 1171 H 106.584 -1.60483 3.4489 0
M  V30 1172 H 107.896 -2.30122 4.42544 0
M  V30 1173 H 107.05 -4.60778 3.94675 0
M  V30 1174 H 105.789 -3.94282 2.87042 0
M  V30 1175 H 104.794 -2.68168 4.79964 0
M  V30 1176 H 106.019 -3.37736 5.89161 0
M  V30 1177 H 103.965 -4.95651 4.29728 0
M  V30 1178 H 103.882 -4.60835 5.99306 0
M  V30 1179 H 105.15 -5.63246 5.38864 0
M  V30 1180 N 109.379 -1.50304 -0.473955 0
M  V30 1181 C 110.79 -1.54042 -1.0549 0
M  V30 1182 C 111.141 -0.342248 -1.93192 0
M  V30 1183 O 110.266 0.545157 -2.09421 0
M  V30 1184 C 110.861 -2.79152 -1.91989 0
M  V30 1185 C 109.42 -2.8558 -2.45196 0
M  V30 1186 C 108.567 -2.48295 -1.2347 0
M  V30 1187 H 111.518 -1.5661 -0.256693 0
M  V30 1188 H 111.539 -2.60845 -2.7702 0
M  V30 1189 H 111.051 -3.66339 -1.28131 0
M  V30 1190 H 109.152 -2.02738 -3.12615 0
M  V30 1191 H 109.265 -3.88403 -2.80499 0
M  V30 1192 H 107.629 -2.00669 -1.56856 0
M  V30 1193 H 108.412 -3.37787 -0.612789 0
M  V30 1194 N 110.857 0.726932 -1.39834 0
M  V30 1195 C 112.103 1.48884 -1.377 0
M  V30 1196 C 112.436 1.94185 0.0244852 0
M  V30 1197 O 111.711 1.67361 0.990986 0
M  V30 1198 C 111.994 2.72288 -2.3565 0
M  V30 1199 C 111.847 2.32956 -3.84775 0
M  V30 1200 C 113.166 3.74414 -2.31306 0
M  V30 1201 H 110.285 0.540062 -0.5015 0
M  V30 1202 H 112.927 0.830547 -1.70886 0
M  V30 1203 H 111.077 3.28457 -2.07481 0
M  V30 1204 H 112.749 1.82356 -4.23726 0
M  V30 1205 H 110.992 1.65088 -4.01159 0
M  V30 1206 H 111.663 3.21362 -4.4881 0
M  V30 1207 H 114.139 3.27849 -2.56231 0
M  V30 1208 H 113.015 4.58414 -3.01907 0
M  V30 1209 H 113.276 4.21909 -1.32081 0
M  V30 1210 N 112.336 1.25143 0.95797 0
M  V30 1211 C 113.246 1.06968 2.08794 0
M  V30 1212 C 114.262 0.00773911 1.73998 0
M  V30 1213 O 115.438 0.207972 2.00323 0
M  V30 1214 C 112.503 0.68691 3.39827 0
M  V30 1215 C 111.564 1.82641 3.88511 0
M  V30 1216 C 110.797 1.46181 5.1329 0
M  V30 1217 O 111.02 0.355971 5.69288 0
M  V30 1218 O 109.954 2.29085 5.566 0
M  V30 1219 H 113.78 2.01723 2.27027 0
M  V30 1220 H 111.365 1.04051 1.07209 0
M  V30 1221 H 113.247 0.485417 4.18595 0
M  V30 1222 H 111.922 -0.231417 3.22872 0
M  V30 1223 H 110.829 2.08274 3.10762 0
M  V30 1224 H 112.162 2.72386 4.09959 0
M  V30 1225 N 113.814 -1.1601 1.06675 0
M  V30 1226 C 115.06 -1.86909 0.786945 0
M  V30 1227 C 115.393 -1.81717 -0.685018 0
M  V30 1228 O 114.668 -1.23551 -1.50218 0
M  V30 1229 C 114.951 -3.36313 1.28707 0
M  V30 1230 C 114.804 -3.50175 2.82308 0
M  V30 1231 C 116.123 -4.3084 0.898071 0
M  V30 1232 H 113.242 -0.678677 0.287343 0
M  V30 1233 H 115.884 -1.36336 1.32334 0
M  V30 1234 H 114.034 -3.79513 0.830768 0
M  V30 1235 H 115.706 -3.15886 3.36175 0
M  V30 1236 H 113.949 -2.91959 3.20847 0
M  V30 1237 H 114.62 -4.55116 3.12368 0
M  V30 1238 H 117.096 -3.95561 1.29114 0
M  V30 1239 H 115.972 -5.33876 1.27543 0
M  V30 1240 H 116.233 -4.41662 -0.196651 0
M  V30 1241 N 115.292 -0.849877 -1.32721 0
M  V30 1242 C 116.541 -0.447175 -1.96681 0
M  V30 1243 C 116.854 1.00135 -1.68025 0
M  V30 1244 O 118.06 1.50926 -2.25685 0
M  V30 1245 C 116.516 -0.7487 -3.52026 0
M  V30 1246 C 116.124 -2.21264 -3.89546 0
M  V30 1247 C 117.868 -0.413487 -4.22481 0
M  V30 1248 C 115.775 -2.45763 -5.37917 0
M  V30 1249 H 114.705 -0.163486 -0.736063 0
M  V30 1250 H 117.356 -1.03999 -1.51183 0
M  V30 1251 H 115.738 -0.0853727 -3.95908 0
M  V30 1252 H 116.912 -2.91736 -3.56689 0
M  V30 1253 H 115.227 -2.5119 -3.32103 0
M  V30 1254 H 117.824 -0.574017 -5.3161 0
M  V30 1255 H 118.167 0.644492 -4.11281 0
M  V30 1256 H 118.7 -1.03251 -3.84167 0
M  V30 1257 H 115.439 -3.50168 -5.54132 0
M  V30 1258 H 114.959 -1.79864 -5.72197 0
M  V30 1259 H 116.638 -2.29471 -6.0494 0
M  V30 1260 N 116.77 1.45427 -0.607355 0
M  V30 1261 C 118.047 1.9557 -0.0344566 0
M  V30 1262 C 118.427 1.54979 1.43334 0
M  V30 1263 O 117.775 0.812241 2.13576 0
M  V30 1264 C 117.985 3.48226 -0.232321 0
M  V30 1265 C 119.333 4.2445 -0.113001 0
M  V30 1266 O 120.357 3.55829 -0.162431 0
M  V30 1267 O 119.216 5.465 0.00209442 0
M  V30 1268 H 116.31 0.826222 0.0358667 0
M  V30 1269 H 118.856 1.55594 -0.6774 0
M  V30 1270 H 117.628 3.70739 -1.25174 0
M  V30 1271 H 117.251 3.95092 0.445896 0
M  V30 1272 N 118.248 0.346503 1.53744 0
M  V30 1273 C 119.473 -0.253074 2.0585 0
M  V30 1274 C 119.898 -1.43202 1.21962 0
M  V30 1275 O 119.256 -1.79783 0.234073 0
M  V30 1276 C 119.304 -0.643193 3.54817 0
M  V30 1277 O 118.408 -1.74286 3.73762 0
M  V30 1278 H 117.749 -0.0413583 0.662711 0
M  V30 1279 H 120.279 0.501574 1.98357 0
M  V30 1280 H 120.289 -0.919526 3.97503 0
M  V30 1281 H 118.964 0.218966 4.15323 0
M  V30 1282 H 117.541 -1.46356 3.42979 0
M  V30 1283 N 119.726 -1.57421 0.075193 0
M  V30 1284 C 120.656 -2.15942 -0.888324 0
M  V30 1285 C 121.637 -1.08737 -1.30806 0
M  V30 1286 O 122.822 -1.36787 -1.37851 0
M  V30 1287 C 119.952 -2.72379 -2.1547 0
M  V30 1288 C 118.906 -3.8478 -1.87425 0
M  V30 1289 C 118.232 -4.27834 -3.20721 0
M  V30 1290 C 119.532 -5.08869 -1.17684 0
M  V30 1291 H 121.226 -2.96705 -0.400799 0
M  V30 1292 H 118.772 -1.42723 -0.191342 0
M  V30 1293 H 120.725 -3.11965 -2.83295 0
M  V30 1294 H 119.449 -1.88841 -2.6647 0
M  V30 1295 H 118.108 -3.45703 -1.22004 0
M  V30 1296 H 117.756 -3.41214 -3.6957 0
M  V30 1297 H 117.456 -5.03605 -3.02746 0
M  V30 1298 H 118.98 -4.70039 -3.89738 0
M  V30 1299 H 120.394 -5.4575 -1.75584 0
M  V30 1300 H 118.791 -5.8994 -1.09956 0
M  V30 1301 H 119.861 -4.84648 -0.156453 0
M  V30 1302 N 121.204 0.198386 -1.56346 0
M  V30 1303 C 122.134 1.24865 -1.9731 0
M  V30 1304 C 123.115 1.47651 -0.844576 0
M  V30 1305 O 124.3 1.59444 -1.10866 0
M  V30 1306 C 121.43 2.59358 -2.30977 0
M  V30 1307 C 120.384 2.5119 -3.46537 0
M  V30 1308 C 119.71 3.89926 -3.65871 0
M  V30 1309 C 121.01 2.03977 -4.80823 0
M  V30 1310 H 122.704 0.908252 -2.85291 0
M  V30 1311 H 120.25 0.435462 -1.37258 0
M  V30 1312 H 122.203 3.33011 -2.58228 0
M  V30 1313 H 120.927 2.95132 -1.39874 0
M  V30 1314 H 119.586 1.79993 -3.19371 0
M  V30 1315 H 119.234 4.23046 -2.72105 0
M  V30 1316 H 118.934 3.85336 -4.4361 0
M  V30 1317 H 120.458 4.65205 -3.95495 0
M  V30 1318 H 121.872 2.67386 -5.07127 0
M  V30 1319 H 120.269 2.10397 -5.62008 0
M  V30 1320 H 121.339 0.992861 -4.74626 0
M  V30 1321 N 122.682 1.50554 0.465978 0
M  V30 1322 C 123.912 1.65323 1.23903 0
M  V30 1323 C 124.32 0.338051 1.86155 0
M  V30 1324 O 123.663 -0.690518 1.70228 0
M  V30 1325 C 123.725 2.69048 2.3844 0
M  V30 1326 C 123.389 4.12462 1.96784 0
M  V30 1327 C 124.386 4.98168 1.48745 0
M  V30 1328 C 122.071 4.58407 2.05349 0
M  V30 1329 C 124.065 6.27868 1.0982 0
M  V30 1330 C 121.752 5.88112 1.66035 0
M  V30 1331 C 122.75 6.72668 1.18349 0
M  V30 1332 O 122.438 7.99951 0.795825 0
M  V30 1333 H 122.17 0.558629 0.38067 0
M  V30 1334 H 124.724 1.97561 0.562022 0
M  V30 1335 H 122.954 2.32062 3.09328 0
M  V30 1336 H 124.643 2.72985 3.0039 0
M  V30 1337 H 125.409 4.63885 1.41546 0
M  V30 1338 H 121.288 3.92735 2.41414 0
M  V30 1339 H 124.832 6.93819 0.725293 0
M  V30 1340 H 120.729 6.21914 1.72895 0
M  V30 1341 H 121.497 8.13265 0.924222 0
M  V30 1342 N 124.16 -0.719506 1.40217 0
M  V30 1343 C 125.408 -1.47641 1.3801 0
M  V30 1344 C 125.729 -1.94992 -0.018145 0
M  V30 1345 O 124.999 -1.70073 -0.972207 0
M  V30 1346 H 123.579 -0.547744 0.507923 0
M  V30 1347 H 126.241 -0.853187 1.75233 0
M  V30 1348 H 125.337 -2.35112 2.05253 0
M  V30 1349 N 125.638 -1.25649 -0.95132 0
M  V30 1350 C 126.585 -1.06323 -2.04851 0
M  V30 1351 C 127.555 0.0286491 -1.66075 0
M  V30 1352 O 128.74 -0.12917 -1.90362 0
M  V30 1353 C 125.88 -0.691529 -3.381 0
M  V30 1354 C 124.993 -1.85861 -3.89974 0
M  V30 1355 C 124.128 -1.43096 -5.11563 0
M  V30 1356 C 123.167 -2.56696 -5.55674 0
M  V30 1357 N 122.304 -2.14684 -6.68472 0
M  V30 1358 H 127.144 -2.00222 -2.20715 0
M  V30 1359 H 124.681 -0.997027 -1.08156 0
M  V30 1360 H 126.639 -0.456963 -4.1469 0
M  V30 1361 H 125.269 0.210474 -3.22113 0
M  V30 1362 H 124.321 -2.20639 -3.09875 0
M  V30 1363 H 125.633 -2.71161 -4.18657 0
M  V30 1364 H 124.787 -1.15624 -5.9558 0
M  V30 1365 H 123.526 -0.548722 -4.84603 0
M  V30 1366 H 122.531 -2.84909 -4.7022 0
M  V30 1367 H 123.756 -3.45503 -5.8464 0
M  V30 1368 H 121.702 -1.28881 -6.43215 0
M  V30 1369 H 121.619 -2.9353 -6.96689 0
M  V30 1370 H 122.887 -1.90397 -7.5589 0
M  V30 1371 N 127.117 1.15442 -1.07289 0
M  V30 1372 C 128.363 1.86489 -0.796846 0
M  V30 1373 C 128.696 1.82078 0.675371 0
M  V30 1374 O 127.971 1.24346 1.4956 0
M  V30 1375 C 128.254 3.35626 -1.30489 0
M  V30 1376 C 128.107 3.48673 -2.84161 0
M  V30 1377 C 129.426 4.30357 -0.920907 0
M  V30 1378 H 126.545 0.677144 -0.290939 0
M  V30 1379 H 129.187 1.35633 -1.33056 0
M  V30 1380 H 127.337 3.79068 -0.850883 0
M  V30 1381 H 129.009 3.14099 -3.37846 0
M  V30 1382 H 127.252 2.90253 -3.22391 0
M  V30 1383 H 127.923 4.53453 -3.14777 0
M  V30 1384 H 130.399 3.94871 -1.3121 0
M  V30 1385 H 129.275 5.33193 -1.30372 0
M  V30 1386 H 129.536 4.4176 0.173226 0
M  V30 1387 N 128.595 0.856903 1.32268 0
M  V30 1388 C 129.872 0.382583 1.91822 0
M  V30 1389 C 130.252 -1.13407 1.78051 0
M  V30 1390 O 129.6 -1.95673 1.18001 0
M  V30 1391 C 129.81 0.849446 3.38505 0
M  V30 1392 C 131.158 0.867936 4.15634 0
M  V30 1393 O 132.182 0.794232 3.47232 0
M  V30 1394 O 131.041 0.972286 5.37781 0
M  V30 1395 H 128.135 0.112014 0.819379 0
M  V30 1396 H 130.681 0.943952 1.41024 0
M  V30 1397 H 129.453 1.89267 3.42482 0
M  V30 1398 H 129.076 0.265652 3.96712 0
M  V30 1399 N 130.073 -1.45103 0.615059 0
M  V30 1400 C 131.321 -2.01784 0.112955 0
M  V30 1401 C 131.642 -1.48504 -1.26378 0
M  V30 1402 O 130.912 -0.682245 -1.83636 0
M  V30 1403 H 129.492 -0.745993 0.0387668 0
M  V30 1404 H 132.154 -1.77808 0.798141 0
M  V30 1405 H 131.25 -3.12025 0.0684069 0
M  V30 1406 N 131.551 -0.354651 -1.53558 0
M  V30 1407 C 132.481 0.489091 -2.2832 0
M  V30 1408 C 133.462 1.09324 -1.30316 0
M  V30 1409 O 134.647 1.11255 -1.59173 0
M  V30 1410 C 131.777 1.63456 -3.0643 0
M  V30 1411 C 130.731 1.1582 -4.12031 0
M  V30 1412 C 130.057 2.39305 -4.7816 0
M  V30 1413 C 131.357 0.250731 -5.21698 0
M  V30 1414 H 133.051 -0.134614 -2.99097 0
M  V30 1415 H 130.597 -0.0661826 -1.43848 0
M  V30 1416 H 132.55 2.23136 -3.57475 0
M  V30 1417 H 131.274 2.28533 -2.33325 0
M  V30 1418 H 129.933 0.584146 -3.61916 0
M  V30 1419 H 129.581 3.02814 -4.01637 0
M  V30 1420 H 129.281 2.08109 -5.49513 0
M  V30 1421 H 130.805 2.99691 -5.31994 0
M  V30 1422 H 132.219 0.754695 -5.68311 0
M  V30 1423 H 130.616 0.0301468 -6.00092 0
M  V30 1424 H 131.686 -0.710125 -4.79672 0
M  V30 1425 N 133.029 1.57378 -0.0835403 0
M  V30 1426 C 134.277 1.93547 0.581718 0
M  V30 1427 C 134.598 0.96524 1.69435 0
M  V30 1428 O 133.868 0.0153369 1.95894 0
M  V30 1429 H 132.448 0.714521 0.217874 0
M  V30 1430 H 135.11 1.94366 -0.144158 0
M  V30 1431 H 134.206 2.95665 0.999423 0
M  V30 1432 N 134.507 -0.190092 1.56449 0
M  V30 1433 C 135.753 -0.911052 1.81184 0
M  V30 1434 C 136.086 -1.82699 0.658396 0
M  V30 1435 O 135.361 -1.91491 -0.340775 0
M  V30 1436 C 135.644 -1.72297 3.16205 0
M  V30 1437 C 135.497 -0.831419 4.42049 0
M  V30 1438 C 136.816 -2.69454 3.47969 0
M  V30 1439 H 133.935 -0.32977 0.659106 0
M  V30 1440 H 136.577 -0.178169 1.89163 0
M  V30 1441 H 134.727 -2.34778 3.09534 0
M  V30 1442 H 136.399 -0.220929 4.60771 0
M  V30 1443 H 134.642 -0.138406 4.33579 0
M  V30 1444 H 135.313 -1.43461 5.33032 0
M  V30 1445 H 137.789 -2.17104 3.54972 0
M  V30 1446 H 136.665 -3.23342 4.43555 0
M  V30 1447 H 136.926 -3.48744 2.71717 0
M  V30 1448 N 135.985 -1.50799 -0.457987 0
M  V30 1449 C 136.915 -1.73553 -1.5621 0
M  V30 1450 C 137.896 -0.584774 -1.59732 0
M  V30 1451 O 139.081 -0.825314 -1.7579 0
M  V30 1452 C 136.211 -1.84169 -2.94447 0
M  V30 1453 C 135.165 -2.99461 -3.0579 0
M  V30 1454 C 134.491 -2.95235 -4.45803 0
M  V30 1455 C 135.791 -4.39766 -2.81786 0
M  V30 1456 H 137.485 -2.66 -1.37421 0
M  V30 1457 H 135.031 -1.28002 -0.659662 0
M  V30 1458 H 136.984 -1.98672 -3.71628 0
M  V30 1459 H 135.708 -0.883545 -3.14422 0
M  V30 1460 H 134.367 -2.8463 -2.31044 0
M  V30 1461 H 134.015 -1.97239 -4.62715 0
M  V30 1462 H 133.715 -3.72642 -4.54326 0
M  V30 1463 H 135.239 -3.11803 -5.24987 0
M  V30 1464 H 136.653 -4.55054 -3.4871 0
M  V30 1465 H 135.05 -5.18722 -3.0174 0
M  V30 1466 H 136.12 -4.51229 -1.7754 0
M  V30 1467 N 137.463 0.71206 -1.40597 0
M  V30 1468 C 138.41 1.82613 -1.41142 0
M  V30 1469 C 139.38 1.63925 -0.267903 0
M  V30 1470 O 140.565 1.85009 -0.466495 0
M  V30 1471 C 137.705 3.20354 -1.28324 0
M  V30 1472 C 136.818 3.50589 -2.52411 0
M  V30 1473 C 135.953 4.77855 -2.32009 0
M  V30 1474 C 134.992 5.01005 -3.51654 0
M  V30 1475 N 134.129 6.19487 -3.30425 0
M  V30 1476 H 138.969 1.81482 -2.36365 0
M  V30 1477 H 136.506 0.886475 -1.17388 0
M  V30 1478 H 138.464 3.99899 -1.18899 0
M  V30 1479 H 137.094 3.20705 -0.367189 0
M  V30 1480 H 136.146 2.65573 -2.72351 0
M  V30 1481 H 137.458 3.63604 -3.41458 0
M  V30 1482 H 136.612 5.65424 -2.19956 0
M  V30 1483 H 135.351 4.67056 -1.40392 0
M  V30 1484 H 134.356 4.1189 -3.64179 0
M  V30 1485 H 135.581 5.13674 -4.44202 0
M  V30 1486 H 133.527 6.09932 -2.41494 0
M  V30 1487 H 133.444 6.33194 -4.13039 0
M  V30 1488 H 134.712 7.09834 -3.22113 0
M  V30 1489 N 138.941 1.26152 0.944643 0
M  V30 1490 C 139.904 1.07474 2.0244 0
M  V30 1491 C 140.904 0.0242064 1.60782 0
M  V30 1492 O 142.094 0.267302 1.72137 0
M  V30 1493 C 139.226 0.633956 3.34953 0
M  V30 1494 H 140.419 2.03336 2.20442 0
M  V30 1495 H 137.972 1.087 1.12312 0
M  V30 1496 H 138.707 -0.326811 3.22649 0
M  V30 1497 H 138.492 1.39247 3.66542 0
M  V30 1498 H 139.982 0.52501 4.14287 0
M  V30 1499 N 140.419 -1.14872 1.07899 0
M  V30 1500 C 141.382 -2.17986 0.708161 0
M  V30 1501 C 142.382 -1.58775 -0.25442 0
M  V30 1502 O 143.572 -1.74166 -0.034645 0
M  V30 1503 C 140.704 -3.40871 0.0446929 0
M  V30 1504 H 141.897 -2.52306 1.62116 0
M  V30 1505 H 139.45 -1.2943 0.876218 0
M  V30 1506 H 140.185 -3.12124 -0.880281 0
M  V30 1507 H 139.97 -3.8511 0.737091 0
M  V30 1508 H 141.46 -4.17121 -0.19991 0
M  V30 1509 N 141.898 -0.863906 -1.31812 0
M  V30 1510 C 143.144 -0.472535 -1.97218 0
M  V30 1511 C 143.477 0.971394 -1.68159 0
M  V30 1512 O 142.752 1.68309 -0.974798 0
M  V30 1513 C 143.035 -0.723054 -3.52766 0
M  V30 1514 C 142.888 -2.21608 -3.91421 0
M  V30 1515 C 144.207 -0.185522 -4.39709 0
M  V30 1516 H 141.326 -0.173158 -0.71637 0
M  V30 1517 H 143.968 -1.08403 -1.56041 0
M  V30 1518 H 142.118 -0.202577 -3.87971 0
M  V30 1519 H 143.79 -2.80334 -3.66347 0
M  V30 1520 H 142.033 -2.691 -3.40246 0
M  V30 1521 H 142.704 -2.34203 -4.99853 0
M  V30 1522 H 145.18 -0.630726 -4.11292 0
M  V30 1523 H 144.056 -0.390306 -5.47511 0
M  V30 1524 H 144.317 0.912229 -4.32586 0
M  V30 1525 N 143.376 1.44774 -0.622745 0
M  V30 1526 C 144.339 2.29069 0.0774015 0
M  V30 1527 C 145.339 1.4059 0.780461 0
M  V30 1528 O 146.529 1.62551 0.626322 0
M  V30 1529 C 143.661 3.21974 1.12006 0
M  V30 1530 H 144.854 2.92459 -0.663901 0
M  V30 1531 H 142.407 1.51548 -0.382486 0
M  V30 1532 H 143.142 2.63417 1.89162 0
M  V30 1533 H 142.927 3.87168 0.619951 0
M  V30 1534 H 144.417 3.85318 1.60995 0
M  V30 1535 N 144.854 0.36279 1.53368 0
M  V30 1536 C 145.817 -0.472679 2.24273 0
M  V30 1537 C 146.817 -1.012 1.24961 0
M  V30 1538 O 148.007 -0.898194 1.49259 0
M  V30 1539 C 145.139 -1.66039 2.97731 0
M  V30 1540 H 146.332 0.14773 2.99536 0
M  V30 1541 H 143.885 0.114434 1.55881 0
M  V30 1542 H 144.62 -2.31896 2.26704 0
M  V30 1543 H 144.405 -1.28066 3.70596 0
M  V30 1544 H 145.895 -2.25252 3.51641 0
M  V30 1545 N 146.332 -1.57332 0.0918853 0
M  V30 1546 C 147.581 -1.93412 -0.572249 0
M  V30 1547 C 147.894 -0.975515 -1.69538 0
M  V30 1548 O 149.1 -1.22991 -2.42045 0
M  V30 1549 C 147.556 -3.43648 -1.0693 0
M  V30 1550 C 147.164 -4.47994 0.0239049 0
M  V30 1551 C 148.908 -3.88695 -1.70635 0
M  V30 1552 C 146.815 -5.89381 -0.488319 0
M  V30 1553 H 145.745 -0.721939 -0.217532 0
M  V30 1554 H 148.396 -1.82735 0.167369 0
M  V30 1555 H 146.778 -3.49466 -1.8625 0
M  V30 1556 H 147.952 -4.53815 0.799277 0
M  V30 1557 H 146.267 -4.12536 0.565946 0
M  V30 1558 H 148.864 -4.91725 -2.10025 0
M  V30 1559 H 149.207 -3.27166 -2.57426 0
M  V30 1560 H 149.74 -3.85564 -0.979023 0
M  V30 1561 H 146.479 -6.54602 0.342906 0
M  V30 1562 H 145.999 -5.87037 -1.23077 0
M  V30 1563 H 147.678 -6.39863 -0.958317 0
M  V30 1564 N 147.81 0.181792 -1.56548 0
M  V30 1565 C 148.757 1.22521 -1.95595 0
M  V30 1566 C 149.727 1.4454 -0.818373 0
M  V30 1567 O 150.912 1.57454 -1.07763 0
M  V30 1568 C 148.052 2.56193 -2.31212 0
M  V30 1569 C 147.165 2.41641 -3.58097 0
M  V30 1570 C 146.3 3.68108 -3.82975 0
M  V30 1571 C 145.339 3.48445 -5.03242 0
M  V30 1572 N 144.476 4.66956 -5.24306 0
M  V30 1573 H 149.316 0.885226 -2.84548 0
M  V30 1574 H 146.853 0.425718 -1.40805 0
M  V30 1575 H 148.811 3.34088 -2.49882 0
M  V30 1576 H 147.441 2.88208 -1.45382 0
M  V30 1577 H 146.493 1.54976 -3.474 0
M  V30 1578 H 147.805 2.23052 -4.46149 0
M  V30 1579 H 146.959 4.54441 -4.01956 0
M  V30 1580 H 145.698 3.89666 -2.93278 0
M  V30 1581 H 144.703 2.60499 -4.8417 0
M  V30 1582 H 145.928 3.2832 -5.9446 0
M  V30 1583 H 143.874 4.88752 -4.37559 0
M  V30 1584 H 143.791 4.51242 -6.06561 0
M  V30 1585 H 145.059 5.54602 -5.47756 0
M  V30 1586 N 149.288 1.51039 0.449983 0
M  V30 1587 C 150.235 1.71439 1.54523 0
M  V30 1588 C 151.205 0.555871 1.56522 0
M  V30 1589 O 152.39 0.788871 1.73728 0
M  V30 1590 C 149.53 1.83384 2.92343 0
M  V30 1591 C 148.643 3.10873 2.9997 0
M  V30 1592 C 147.778 3.13488 4.28834 0
M  V30 1593 C 146.817 4.35343 4.30282 0
M  V30 1594 N 145.954 4.35579 5.5065 0
M  V30 1595 H 150.794 2.64934 1.36433 0
M  V30 1596 H 148.331 1.31312 0.662982 0
M  V30 1597 H 150.289 1.88291 3.72293 0
M  V30 1598 H 148.919 0.933086 3.0902 0
M  V30 1599 H 147.971 3.15336 2.12761 0
M  V30 1600 H 149.283 4.00814 2.96901 0
M  V30 1601 H 148.437 3.17241 5.17149 0
M  V30 1602 H 147.176 2.21414 4.34543 0
M  V30 1603 H 146.181 4.3178 3.40362 0
M  V30 1604 H 147.406 5.28668 4.26248 0
M  V30 1605 H 145.352 3.46369 5.57104 0
M  V30 1606 H 145.269 5.19313 5.49409 0
M  V30 1607 H 146.537 4.43507 6.41032 0
M  V30 1608 N 150.766 -0.704594 1.40972 0
M  V30 1609 C 151.729 -1.80035 1.41845 0
M  V30 1610 C 152.729 -1.57774 0.310474 0
M  V30 1611 O 153.919 -1.64613 0.56992 0
M  V30 1612 C 151.051 -3.18284 1.22098 0
M  V30 1613 H 152.244 -1.80658 2.3938 0
M  V30 1614 H 149.797 -0.911329 1.26982 0
M  V30 1615 H 150.532 -3.23306 0.253672 0
M  V30 1616 H 150.317 -3.35843 2.02366 0
M  V30 1617 H 151.807 -3.98289 1.25522 0
M  V30 1618 N 152.244 -1.26651 -0.937939 0
M  V30 1619 C 153.207 -1.08546 -2.01867 0
M  V30 1620 C 154.207 -0.0327327 -1.60767 0
M  V30 1621 O 155.397 -0.276427 -1.71993 0
M  V30 1622 C 152.529 -0.651711 -3.34613 0
M  V30 1623 H 153.722 -2.04502 -2.1936 0
M  V30 1624 H 151.275 -1.09294 -1.11734 0
M  V30 1625 H 152.01 0.309696 -3.22818 0
M  V30 1626 H 151.795 -1.41189 -3.65798 0
M  V30 1627 H 153.285 -0.546973 -4.14002 0
M  V30 1628 N 153.722 1.14298 -1.08507 0
M  V30 1629 C 154.685 2.17607 -0.719711 0
M  V30 1630 C 155.685 1.58907 0.245997 0
M  V30 1631 O 156.875 1.74181 0.0254081 0
M  V30 1632 C 154.007 3.40842 -0.0627695 0
M  V30 1633 H 155.2 2.51443 -1.63452 0
M  V30 1634 H 152.753 1.28963 -0.88307 0
M  V30 1635 H 153.488 3.12587 0.863716 0
M  V30 1636 H 153.273 3.84713 -0.757504 0
M  V30 1637 H 154.763 4.17221 0.177786 0
M  V30 1638 N 155.201 0.870884 1.31352 0
M  V30 1639 C 156.149 0.316445 2.30437 0
M  V30 1640 C 157.143 -0.568965 1.59559 0
M  V30 1641 O 158.349 -0.454964 1.74155 0
M  V30 1642 H 154.724 0.0836521 0.747333 0
M  V30 1643 H 156.695 1.16606 2.74673 0
M  V30 1644 C 155.444 -0.46635 3.44558 0
M  V30 1645 H 154.767 0.205687 3.99271 0
M  V30 1646 H 156.207 -0.819614 4.16003 0
M  V30 1647 C 154.666 -1.65797 2.9328 0
M  V30 1648 O 155.196 -2.75728 2.92125 0
M  V30 1649 N 153.402 -1.49041 2.4947 0
M  V30 1650 H 152.949 -0.59612 2.50608 0
M  V30 1651 H 152.907 -2.28911 2.15516 0
M  V30 1652 O 156.718 -1.41941 0.770395 0
M  V30 1653 H 157.409 -1.908 0.333941 0
M  V30 END ATOM
M  V30 BEGIN BOND
M  V30 END BOND
M  V30 END CTAB
M  END
$$$$
