drugbank_target|P69856 Probable N-acetylneuraminic acid outer membrane channel protein NanC (DB04147)
 OpenBabel12092120483D

  0  0  0     0  0            999 V3000
M  V30 BEGIN CTAB
M  V30 COUNTS 3840 3897 0 0 0
M  V30 BEGIN ATOM
M  V30 1 H -0.908 1.98254 -0.117106 0
M  V30 2 N 0 1.576 0 0
M  V30 3 C 0.933 2.03868 1.02534 0
M  V30 4 C 1.911 0.928543 1.3348 0
M  V30 5 O 3.095 1.19667 1.45644 0
M  V30 6 C 0.222 2.43627 2.35294 0
M  V30 7 C -0.732 3.65373 2.2001 0
M  V30 8 S 0.101 5.13292 1.52614 0
M  V30 9 C 1.257 5.56322 2.86805 0
M  V30 10 H 1.49 2.90518 0.631377 0
M  V30 11 H -0.977 1.52953 0.210867 0
M  V30 12 H 0.981 2.67203 3.11629 0
M  V30 13 H -0.358 1.57376 2.7183 0
M  V30 14 H -1.165 3.90944 3.18086 0
M  V30 15 H -1.563 3.418 1.51819 0
M  V30 16 H 0.729 5.58782 3.83104 0
M  V30 17 H 1.672 6.56266 2.65933 0
M  V30 18 H 2.08 4.83886 2.90714 0
M  V30 19 N 1.4781 -0.272755 1.55222 0
M  V30 20 C 2.4251 -1.33716 1.88119 0
M  V30 21 C 3.3951 -1.49066 0.73271 0
M  V30 22 O 4.5801 -1.63469 0.984002 0
M  V30 23 C 1.7201 -2.69238 2.15882 0
M  V30 24 C 0.8331 -2.62108 3.43399 0
M  V30 25 C -0.0319 -3.89811 3.60861 0
M  V30 26 C -0.9929 -3.77193 4.8207 0
M  V30 27 N -1.8559 -4.9673 4.96189 0
M  V30 28 H 2.9841 -1.04962 2.78903 0
M  V30 29 H 0.5211 -0.507088 1.38083 0
M  V30 30 H 2.4791 -3.48089 2.29978 0
M  V30 31 H 1.1091 -2.96194 1.28331 0
M  V30 32 H 0.1611 -1.74967 3.37773 0
M  V30 33 H 1.4731 -2.48685 4.32386 0
M  V30 34 H 0.6271 -4.77103 3.74777 0
M  V30 35 H -0.6339 -4.06102 2.7006 0
M  V30 36 H -1.6289 -2.88284 4.68159 0
M  V30 37 H -0.4039 -3.62421 5.74307 0
M  V30 38 H -2.4579 -5.13431 4.08319 0
M  V30 39 H -2.5409 -4.85839 5.79221 0
M  V30 40 H -1.2729 -5.85594 5.1449 0
M  V30 41 N 2.9562 -1.48159 -0.537278 0
M  V30 42 C 3.9032 -1.62138 -1.64256 0
M  V30 43 C 4.8732 -0.463668 -1.59497 0
M  V30 44 O 6.0582 -0.686241 -1.78032 0
M  V30 45 C 3.1982 -1.66028 -3.02537 0
M  V30 46 C 2.3112 -2.92855 -3.17585 0
M  V30 47 C 1.4462 -2.87952 -4.46382 0
M  V30 48 C 0.4852 -4.09516 -4.54932 0
M  V30 49 N -0.3778 -4.02733 -5.75109 0
M  V30 50 H 4.4622 -2.56529 -1.51647 0
M  V30 51 H 1.9992 -1.27224 -0.738414 0
M  V30 52 H 3.9572 -1.66265 -3.82638 0
M  V30 53 H 2.5872 -0.751331 -3.13934 0
M  V30 54 H 1.6392 -3.02395 -2.30784 0
M  V30 55 H 2.9512 -3.82822 -3.19764 0
M  V30 56 H 2.1052 -2.8655 -5.34765 0
M  V30 57 H 0.8442 -1.95702 -4.46712 0
M  V30 58 H -0.1508 -4.11201 -3.64957 0
M  V30 59 H 1.0742 -5.02917 -4.56346 0
M  V30 60 H -0.9798 -3.13299 -5.76351 0
M  V30 61 H -1.0628 -4.86397 -5.78752 0
M  V30 62 H 0.2052 -4.05379 -6.65799 0
M  V30 63 N 4.4343 0.785586 -1.36625 0
M  V30 64 C 5.3973 1.87999 -1.31107 0
M  V30 65 C 6.3973 1.59316 -0.217959 0
M  V30 66 O 7.5873 1.67656 -0.472977 0
M  V30 67 C 4.7193 3.24861 -1.03334 0
M  V30 68 H 5.9123 1.94307 -2.2844 0
M  V30 69 H 3.4653 0.983813 -1.21453 0
M  V30 70 H 4.2003 3.24235 -0.0647432 0
M  V30 71 H 3.9853 3.4707 -1.82441 0
M  V30 72 H 5.4753 4.04929 -1.02088 0
M  V30 73 N 5.9124 1.20967 1.01018 0
M  V30 74 C 6.8594 0.964281 2.09691 0
M  V30 75 C 7.8294 -0.107853 1.65749 0
M  V30 76 O 9.0144 0.0381987 1.90762 0
M  V30 77 C 6.1544 0.52943 3.41015 0
M  V30 78 C 5.2674 1.67043 3.98398 0
M  V30 79 C 4.4024 1.18525 5.17808 0
M  V30 80 C 3.4414 2.29892 5.67288 0
M  V30 81 N 2.5784 1.82546 6.77954 0
M  V30 82 H 7.4184 1.89463 2.30017 0
M  V30 83 H 4.9554 0.944289 1.1279 0
M  V30 84 H 6.9134 0.258588 4.16398 0
M  V30 85 H 5.5434 -0.363919 3.20742 0
M  V30 86 H 4.5954 2.05603 3.20049 0
M  V30 87 H 5.9074 2.50877 4.31117 0
M  V30 88 H 5.0614 0.870762 6.00419 0
M  V30 89 H 3.8004 0.316887 4.86669 0
M  V30 90 H 2.8054 2.6215 4.83278 0
M  V30 91 H 4.0304 3.17216 6.00459 0
M  V30 92 H 1.9764 0.980454 6.48632 0
M  V30 93 H 1.8934 2.59956 7.09901 0
M  V30 94 H 3.1614 1.54115 7.64113 0
M  V30 95 N 7.3905 -1.2043 1.01659 0
M  V30 96 C 8.6395 -1.89118 0.701237 0
M  V30 97 C 8.9525 -1.79705 -0.772358 0
M  V30 98 O 10.1585 -2.43528 -1.20026 0
M  V30 99 C 8.6145 -3.39168 1.20388 0
M  V30 100 C 8.2225 -3.57166 2.70438 0
M  V30 101 C 9.9665 -4.1341 0.963953 0
M  V30 102 C 7.8735 -5.01042 3.14183 0
M  V30 103 H 6.8035 -0.708267 0.2586 0
M  V30 104 H 9.4545 -1.36239 1.22927 0
M  V30 105 H 7.8365 -3.91369 0.603824 0
M  V30 106 H 9.0105 -3.15351 3.35992 0
M  V30 107 H 7.3255 -2.96294 2.92572 0
M  V30 108 H 9.9225 -5.19491 1.26621 0
M  V30 109 H 10.2655 -4.16181 -0.099578 0
M  V30 110 H 10.7985 -3.67309 1.52738 0
M  V30 111 H 7.5375 -5.03426 4.19812 0
M  V30 112 H 7.0575 -5.43668 2.53348 0
M  V30 113 H 8.7365 -5.69623 3.0682 0
M  V30 114 N 8.8686 -0.792821 -1.36206 0
M  V30 115 C 9.7986 -0.207853 -2.32573 0
M  V30 116 C 10.7796 0.659055 -1.56813 0
M  V30 117 O 11.9646 0.592176 -1.84951 0
M  V30 118 C 9.0946 0.655449 -3.41059 0
M  V30 119 C 8.0486 -0.111842 -4.27854 0
M  V30 120 C 7.3746 0.872274 -5.27537 0
M  V30 121 C 8.6746 -1.30299 -5.05786 0
M  V30 122 H 10.3686 -1.01294 -2.81744 0
M  V30 123 H 7.9146 -0.48854 -1.3546 0
M  V30 124 H 9.8676 1.07464 -4.07467 0
M  V30 125 H 8.5916 1.49328 -2.90463 0
M  V30 126 H 7.2506 -0.512053 -3.63006 0
M  V30 127 H 6.8986 1.70523 -4.73214 0
M  V30 128 H 6.5986 0.363291 -5.86476 0
M  V30 129 H 8.1226 1.28996 -5.96818 0
M  V30 130 H 9.5366 -0.959379 -5.65216 0
M  V30 131 H 7.9336 -1.7455 -5.74154 0
M  V30 132 H 9.0036 -2.09663 -4.37229 0
M  V30 133 N 10.3467 1.47872 -0.545128 0
M  V30 134 C 11.5717 2.07391 -0.0190611 0
M  V30 135 C 11.9967 1.39688 1.25971 0
M  V30 136 O 11.3547 0.467816 1.7516 0
M  V30 137 C 11.4027 3.60188 0.172335 0
M  V30 138 O 10.5067 3.9339 1.23766 0
M  V30 139 H 9.8477 0.662411 -0.0459059 0
M  V30 140 H 12.3777 1.90066 -0.757365 0
M  V30 141 H 12.3877 4.06129 0.390305 0
M  V30 142 H 11.0627 4.08865 -0.761725 0
M  V30 143 H 9.6397 3.5921 1.00114 0
M  V30 144 N 11.8248 0.280983 1.55075 0
M  V30 145 C 13.0728 -0.333455 1.9933 0
M  V30 146 C 13.3938 -1.55937 1.17085 0
M  V30 147 O 12.6638 -1.94143 0.261805 0
M  V30 148 H 11.2438 -0.126197 0.736263 0
M  V30 149 H 13.9058 0.387678 1.91005 0
M  V30 150 H 13.0018 -0.619292 3.05894 0
M  V30 151 N 13.3029 -1.57598 0.00835791 0
M  V30 152 C 14.5489 -1.91211 -0.675732 0
M  V30 153 C 14.8819 -0.883139 -1.72958 0
M  V30 154 O 14.1569 0.097016 -1.94258 0
M  V30 155 C 14.4399 -3.35379 -1.31123 0
M  V30 156 C 14.2929 -4.48999 -0.268356 0
M  V30 157 C 15.6119 -3.7912 -2.23508 0
M  V30 158 H 12.7309 -0.695374 -0.244179 0
M  V30 159 H 15.3729 -1.89901 0.0613655 0
M  V30 160 H 13.5229 -3.36626 -1.93946 0
M  V30 161 H 15.1949 -4.59887 0.360844 0
M  V30 162 H 13.4379 -4.31873 0.408482 0
M  V30 163 H 14.1089 -5.46851 -0.752218 0
M  V30 164 H 16.5849 -3.79477 -1.70693 0
M  V30 165 H 15.4609 -4.80729 -2.64936 0
M  V30 166 H 15.7219 -3.13455 -3.11766 0
M  V30 167 N 14.781 0.264519 -1.55364 0
M  V30 168 C 15.711 1.33121 -1.91836 0
M  V30 169 C 16.692 1.51101 -0.781192 0
M  V30 170 O 17.877 1.64003 -1.04003 0
M  V30 171 C 15.007 2.68921 -2.19769 0
M  V30 172 C 13.961 2.65661 -3.35571 0
M  V30 173 C 13.287 4.05093 -3.49004 0
M  V30 174 C 14.587 2.24187 -4.71739 0
M  V30 175 H 16.281 1.02844 -2.81182 0
M  V30 176 H 13.827 0.493286 -1.35287 0
M  V30 177 H 15.78 3.43663 -2.43872 0
M  V30 178 H 14.504 3.00799 -1.27231 0
M  V30 179 H 13.163 1.93377 -3.1145 0
M  V30 180 H 12.811 4.34206 -2.53917 0
M  V30 181 H 12.511 4.03804 -4.26868 0
M  V30 182 H 14.035 4.81561 -3.75408 0
M  V30 183 H 15.449 2.88654 -4.9533 0
M  V30 184 H 13.846 2.34044 -5.52579 0
M  V30 185 H 14.916 1.19327 -4.69988 0
M  V30 186 N 16.2591 1.48442 0.529413 0
M  V30 187 C 17.1891 1.65902 1.64313 0
M  V30 188 C 18.1701 0.507897 1.6234 0
M  V30 189 O 19.3551 0.740503 1.79528 0
M  V30 190 C 16.4851 1.69911 3.02898 0
M  V30 191 C 15.4391 2.8453 3.19729 0
M  V30 192 C 14.7651 2.73629 4.59381 0
M  V30 193 C 16.0651 4.25821 3.02447 0
M  V30 194 H 17.7591 2.5914 1.49955 0
M  V30 195 H 15.3051 1.24709 0.719982 0
M  V30 196 H 17.2581 1.80715 3.80684 0
M  V30 197 H 15.9821 0.732524 3.18279 0
M  V30 198 H 14.6411 2.73283 2.44361 0
M  V30 199 H 14.2891 1.74938 4.71599 0
M  V30 200 H 13.9891 3.50541 4.71588 0
M  V30 201 H 15.5131 2.86401 5.39265 0
M  V30 202 H 16.9271 4.37898 3.70024 0
M  V30 203 H 15.3241 5.03735 3.26146 0
M  V30 204 H 16.3941 4.42244 1.98867 0
M  V30 205 N 17.7372 -0.778329 1.37039 0
M  V30 206 C 18.6672 -1.90546 1.34962 0
M  V30 207 C 19.6482 -1.68681 0.219274 0
M  V30 208 O 20.8332 -1.89634 0.418624 0
M  V30 209 C 17.9632 -3.27734 1.14925 0
M  V30 210 C 16.9172 -3.64147 2.24902 0
M  V30 211 C 16.2432 -4.99806 1.89996 0
M  V30 212 C 17.5432 -3.71579 3.67051 0
M  V30 213 H 19.2372 -1.92541 2.29277 0
M  V30 214 H 16.7832 -0.924948 1.10366 0
M  V30 215 H 18.7362 -4.06215 1.12104 0
M  V30 216 H 17.4602 -3.26154 0.170631 0
M  V30 217 H 16.1192 -2.8797 2.26868 0
M  V30 218 H 15.7672 -4.94759 0.906796 0
M  V30 219 H 15.4672 -5.25139 2.63634 0
M  V30 220 H 16.9912 -5.80694 1.88749 0
M  V30 221 H 18.4052 -4.40227 3.67251 0
M  V30 222 H 16.8022 -4.08405 4.39688 0
M  V30 223 H 17.8722 -2.72404 4.01154 0
M  V30 224 N 19.2153 -1.21501 -1.00376 0
M  V30 225 C 20.4553 -1.04444 -1.75701 0
M  V30 226 C 20.8193 0.414644 -1.87469 0
M  V30 227 O 22.0203 0.705763 -2.59369 0
M  V30 228 C 20.2913 -1.72389 -3.13077 0
M  V30 229 S 21.8503 -1.70604 -4.04277 0
M  V30 230 H 18.6683 -0.374249 -0.604532 0
M  V30 231 H 21.2703 -1.54267 -1.20091 0
M  V30 232 H 19.9743 -2.77734 -3.02146 0
M  V30 233 H 19.5053 -1.22751 -3.73759 0
M  V30 234 H 21.5203 -0.748012 -4.9053 0
M  V30 235 N 20.6934 1.19889 -1.02296 0
M  V30 236 C 21.9404 1.8942 -0.715972 0
M  V30 237 C 22.2684 1.79251 0.754944 0
M  V30 238 O 21.5234 1.17526 1.56481 0
M  V30 239 C 21.8224 3.39883 -1.10518 0
M  V30 240 C 21.4884 3.70254 -2.57337 0
M  V30 241 C 20.1504 3.78254 -2.97452 0
M  V30 242 C 22.5024 3.84052 -3.52354 0
M  V30 243 C 19.8304 3.97514 -4.31509 0
M  V30 244 C 22.1824 4.04824 -4.86108 0
M  V30 245 C 20.8464 4.11054 -5.25919 0
M  V30 246 H 20.1164 0.693138 -0.261993 0
M  V30 247 H 22.7634 1.42012 -1.28472 0
M  V30 248 H 21.0684 3.8915 -0.454953 0
M  V30 249 H 22.7654 3.9199 -0.845261 0
M  V30 250 H 19.3554 3.64632 -2.25258 0
M  V30 251 H 23.5394 3.77221 -3.22518 0
M  V30 252 H 18.7954 4.00574 -4.61898 0
M  V30 253 H 22.9694 4.14442 -5.59653 0
M  V30 254 H 20.5964 4.2573 -6.29808 0
M  V30 255 N 22.1715 0.800033 1.35784 0
M  V30 256 C 23.3965 0.388511 2.03729 0
M  V30 257 C 23.8215 -0.990481 1.5991 0
M  V30 258 O 23.1795 -1.64013 0.772612 0
M  V30 259 C 23.2275 0.4726 3.5749 0
M  V30 260 O 22.3315 -0.51646 4.09153 0
M  V30 261 H 21.6725 0.163271 0.643614 0
M  V30 262 H 24.2025 1.0841 1.73518 0
M  V30 263 H 24.2125 0.34003 4.06581 0
M  V30 264 H 22.8875 1.47848 3.88734 0
M  V30 265 H 21.4645 -0.344673 3.71304 0
M  V30 266 N 23.6496 -1.47581 0.552962 0
M  V30 267 C 24.8746 -2.07378 0.0300593 0
M  V30 268 C 25.2996 -1.40355 -1.25229 0
M  V30 269 O 24.6576 -0.477099 -1.7491 0
M  V30 270 C 24.7056 -3.60274 -0.153231 0
M  V30 271 O 23.8096 -3.94041 -1.21678 0
M  V30 272 H 23.1506 -0.662158 0.0494182 0
M  V30 273 H 25.6806 -1.89662 0.767434 0
M  V30 274 H 25.6906 -4.0633 -0.368761 0
M  V30 275 H 24.3656 -4.08455 0.783397 0
M  V30 276 H 22.9426 -3.59735 -0.982079 0
M  V30 277 N 25.1277 -0.289203 -1.54924 0
M  V30 278 C 26.5387 0.205791 -1.85562 0
M  V30 279 C 26.8897 1.54351 -1.2112 0
M  V30 280 O 26.0147 2.10435 -0.504601 0
M  V30 281 C 26.6097 0.380177 -3.3666 0
M  V30 282 C 25.1687 0.819395 -3.67373 0
M  V30 283 C 24.3157 -0.079159 -2.77187 0
M  V30 284 H 27.2667 -0.510577 -1.50262 0
M  V30 285 H 27.2877 1.21659 -3.60526 0
M  V30 286 H 26.7997 -0.593589 -3.83534 0
M  V30 287 H 24.9007 1.80413 -3.26009 0
M  V30 288 H 25.0137 0.646957 -4.74712 0
M  V30 289 H 23.3777 0.439565 -2.50878 0
M  V30 290 H 24.1607 -1.04906 -3.26878 0
M  V30 291 N 26.6058 1.57591 -0.0167156 0
M  V30 292 C 27.5358 2.12496 0.967858 0
M  V30 293 C 28.5168 1.03807 1.34752 0
M  V30 294 O 29.7018 1.31577 1.42833 0
M  V30 295 C 26.8318 2.64194 2.25431 0
M  V30 296 C 25.7858 3.77559 2.01576 0
M  V30 297 C 25.1118 4.15636 3.36379 0
M  V30 298 C 26.4118 5.04151 1.36489 0
M  V30 299 H 28.1058 2.95013 0.510643 0
M  V30 300 H 25.6518 1.41915 0.244181 0
M  V30 301 H 27.6048 3.01236 2.94678 0
M  V30 302 H 26.3288 1.78821 2.73296 0
M  V30 303 H 24.9878 3.40937 1.34751 0
M  V30 304 H 24.6358 3.27263 3.81979 0
M  V30 305 H 24.3358 4.92022 3.21229 0
M  V30 306 H 25.8598 4.5525 4.06915 0
M  V30 307 H 27.2738 5.38857 1.95718 0
M  V30 308 H 25.6708 5.85453 1.31776 0
M  V30 309 H 26.7408 4.83733 0.336219 0
M  V30 310 N 28.0839 -0.256276 1.55502 0
M  V30 311 C 29.3329 -0.983486 1.76098 0
M  V30 312 C 29.6459 -1.86837 0.578896 0
M  V30 313 O 30.8519 -2.63163 0.667648 0
M  V30 314 C 29.3079 -1.79868 3.1173 0
M  V30 315 C 28.9159 -0.961648 4.37557 0
M  V30 316 C 30.6599 -2.51919 3.41668 0
M  V30 317 C 28.5669 -1.77219 5.64223 0
M  V30 318 H 27.4969 -0.370936 0.656447 0
M  V30 319 H 30.1479 -0.238492 1.81944 0
M  V30 320 H 28.5299 -2.58527 2.99966 0
M  V30 321 H 29.7039 -0.218048 4.60284 0
M  V30 322 H 28.0189 -0.354913 4.14885 0
M  V30 323 H 30.6159 -3.12998 4.33516 0
M  V30 324 H 30.9589 -3.23059 2.62562 0
M  V30 325 H 31.4919 -1.80278 3.54605 0
M  V30 326 H 28.2309 -1.10471 6.46124 0
M  V30 327 H 27.7509 -2.49132 5.45613 0
M  V30 328 H 29.4299 -2.34169 6.03137 0
M  V30 329 N 29.562 -1.4872 -0.521534 0
M  V30 330 C 30.787 -1.61101 -1.30618 0
M  V30 331 C 31.212 -0.274611 -1.86085 0
M  V30 332 O 30.57 0.754937 -1.64834 0
M  V30 333 C 30.618 -2.66709 -2.4269 0
M  V30 334 O 29.722 -2.24456 -3.45967 0
M  V30 335 H 29.063 -0.539921 -0.386499 0
M  V30 336 H 31.593 -1.94767 -0.626645 0
M  V30 337 H 31.603 -2.88245 -2.88754 0
M  V30 338 H 30.278 -3.63727 -2.01682 0
M  V30 339 H 28.855 -2.13168 -3.05964 0
M  V30 340 N 31.0401 0.771051 -1.3745 0
M  V30 341 C 31.9721 1.89352 -1.29146 0
M  V30 342 C 32.9851 1.61477 -0.207124 0
M  V30 343 O 34.1741 1.72382 -0.463324 0
M  V30 344 C 31.2741 3.24596 -0.974195 0
M  V30 345 C 30.4471 3.80111 -2.16413 0
M  V30 346 C 29.5061 4.93832 -1.81703 0
M  V30 347 O 28.5321 5.09382 -2.54006 0
M  V30 348 N 29.7341 5.75483 -0.761573 0
M  V30 349 H 32.4991 1.96991 -2.25864 0
M  V30 350 H 30.0601 0.950191 -1.31084 0
M  V30 351 H 32.0521 3.98193 -0.722828 0
M  V30 352 H 30.6221 3.12454 -0.0955527 0
M  V30 353 H 29.8421 2.98284 -2.57721 0
M  V30 354 H 31.1301 4.13932 -2.95867 0
M  V30 355 H 30.5281 5.65469 -0.161609 0
M  V30 356 H 29.0851 6.49302 -0.570064 0
M  V30 357 N 32.5182 1.22032 0.997298 0
M  V30 358 C 33.4812 0.987909 2.06816 0
M  V30 359 C 34.4812 -0.0440084 1.6074 0
M  V30 360 O 35.6712 0.194053 1.73116 0
M  V30 361 C 32.8032 0.49132 3.37341 0
M  V30 362 H 33.9962 1.93803 2.28868 0
M  V30 363 H 31.5492 1.03838 1.16822 0
M  V30 364 H 32.2842 -0.463364 3.20973 0
M  V30 365 H 32.0692 1.23575 3.72118 0
M  V30 366 H 33.5592 0.348824 4.16141 0
M  V30 367 N 33.9963 -1.19345 1.0293 0
M  V30 368 C 34.9593 -2.20793 0.615069 0
M  V30 369 C 35.9593 -1.57553 -0.321533 0
M  V30 370 O 37.1493 -1.73862 -0.108483 0
M  V30 371 C 34.2813 -3.40754 -0.0999222 0
M  V30 372 H 35.4743 -2.58955 1.51269 0
M  V30 373 H 33.0273 -1.3303 0.820534 0
M  V30 374 H 33.7623 -3.0811 -1.01187 0
M  V30 375 H 33.5473 -3.87889 0.57309 0
M  V30 376 H 35.0373 -4.15898 -0.376645 0
M  V30 377 N 35.4744 -0.807222 -1.35358 0
M  V30 378 C 36.7024 -0.400377 -2.02989 0
M  V30 379 C 37.1174 0.988859 -1.60832 0
M  V30 380 O 36.4744 1.63729 -0.806175 0
M  V30 381 C 36.5254 -0.474867 -3.58368 0
M  V30 382 O 36.2464 -1.80933 -3.98992 0
M  V30 383 C 37.7474 -0.0609112 -4.43258 0
M  V30 384 H 34.9674 -0.162587 -0.651004 0
M  V30 385 H 37.5114 -1.09102 -1.72965 0
M  V30 386 H 35.6664 0.167534 -3.87038 0
M  V30 387 H 36.0804 -1.77256 -4.9364 0
M  V30 388 H 37.5544 -0.164145 -5.51756 0
M  V30 389 H 38.0314 0.993831 -4.27808 0
M  V30 390 H 38.6374 -0.676492 -4.19885 0
M  V30 391 N 36.9525 1.47285 -0.560781 0
M  V30 392 C 37.8825 2.32857 0.173105 0
M  V30 393 C 38.8635 1.44009 0.905281 0
M  V30 394 O 40.0485 1.7286 0.885046 0
M  V30 395 C 37.1785 3.25861 1.20133 0
M  V30 396 C 36.1325 4.23978 0.585388 0
M  V30 397 C 35.4585 5.06332 1.7185 0
M  V30 398 C 36.7585 5.20242 -0.463178 0
M  V30 399 H 38.4525 2.94466 -0.541307 0
M  V30 400 H 35.9985 1.41601 -0.261764 0
M  V30 401 H 37.9515 3.84569 1.72293 0
M  V30 402 H 36.6755 2.62315 1.94573 0
M  V30 403 H 35.3345 3.66501 0.085054 0
M  V30 404 H 34.9825 4.39186 2.45203 0
M  V30 405 H 34.6825 5.72762 1.31213 0
M  V30 406 H 36.2065 5.67899 2.24329 0
M  V30 407 H 37.6205 5.73293 -0.027502 0
M  V30 408 H 36.0175 5.94896 -0.788627 0
M  V30 409 H 37.0875 4.65504 -1.35773 0
M  V30 410 N 38.4306 0.297415 1.54768 0
M  V30 411 C 39.7076 -0.365847 1.92148 0
M  V30 412 C 40.0876 -1.71975 1.22424 0
M  V30 413 O 39.4356 -2.25666 0.358739 0
M  V30 414 C 39.6456 -0.484056 3.45627 0
M  V30 415 C 40.9936 -0.756594 4.17805 0
M  V30 416 O 42.0176 -0.568007 3.51642 0
M  V30 417 O 40.8766 -1.11863 5.34929 0
M  V30 418 H 37.9706 -0.203919 0.801465 0
M  V30 419 H 40.5166 0.34521 1.66152 0
M  V30 420 H 39.2886 0.467865 3.88493 0
M  V30 421 H 38.9116 -1.24372 3.77647 0
M  V30 422 N 39.9087 -1.5758 0.0250728 0
M  V30 423 C 41.1547 -1.91917 -0.655413 0
M  V30 424 C 41.4877 -0.901433 -1.72011 0
M  V30 425 O 40.7627 0.0764069 -1.9435 0
M  V30 426 C 41.0457 -3.36751 -1.27558 0
M  V30 427 C 40.8987 -4.49258 -0.220719 0
M  V30 428 C 42.2177 -3.81469 -2.19475 0
M  V30 429 H 39.3367 -0.697925 -0.23679 0
M  V30 430 H 41.9787 -1.89825 0.0815036 0
M  V30 431 H 40.1287 -3.38664 -1.90365 0
M  V30 432 H 41.8007 -4.59478 0.409601 0
M  V30 433 H 40.0437 -4.31415 0.454264 0
M  V30 434 H 40.7147 -5.47618 -0.694175 0
M  V30 435 H 43.1907 -3.81266 -1.66659 0
M  V30 436 H 42.0667 -4.83512 -2.59822 0
M  V30 437 H 42.3277 -3.16744 -3.08424 0
M  V30 438 N 41.3868 0.248026 -1.55636 0
M  V30 439 C 42.8028 0.596483 -1.48035 0
M  V30 440 C 43.0028 1.88386 -0.715039 0
M  V30 441 O 42.0588 2.51319 -0.243944 0
M  V30 442 C 43.3718 0.700258 -2.92433 0
M  V30 443 C 44.9198 0.792659 -3.02797 0
M  V30 444 C 45.3948 0.928005 -4.485 0
M  V30 445 N 46.8858 0.992903 -4.52433 0
M  V30 446 C 47.6208 1.11687 -5.62418 0
M  V30 447 N 47.1168 1.20645 -6.82214 0
M  V30 448 N 48.9098 1.14994 -5.50212 0
M  V30 449 H 41.0608 -0.597109 -2.03834 0
M  V30 450 H 43.3238 -0.205925 -0.925364 0
M  V30 451 H 43.0298 -0.175658 -3.51261 0
M  V30 452 H 42.9038 1.57255 -3.42857 0
M  V30 453 H 45.2908 1.65903 -2.4405 0
M  V30 454 H 45.3718 -0.104762 -2.55585 0
M  V30 455 H 45.0158 0.0661971 -5.07857 0
M  V30 456 H 44.9458 1.84045 -4.93391 0
M  V30 457 H 47.4368 0.935064 -3.66149 0
M  V30 458 H 47.7498 1.30008 -7.61786 0
M  V30 459 H 46.0948 1.17605 -6.84977 0
M  V30 460 H 49.2858 1.07643 -4.55555 0
M  V30 461 H 49.4588 1.24311 -6.35965 0
M  V30 462 N 42.8649 1.48995 0.513639 0
M  V30 463 C 44.1129 1.57531 1.26604 0
M  V30 464 C 44.4339 0.258236 1.93283 0
M  V30 465 O 43.7039 -0.721502 1.8213 0
M  V30 466 H 42.2839 0.580387 0.470276 0
M  V30 467 H 44.9459 1.85552 0.596373 0
M  V30 468 H 44.0419 2.36486 2.03669 0
M  V30 469 N 44.343 -0.763751 1.37857 0
M  V30 470 C 45.591 -1.51957 1.33243 0
M  V30 471 C 45.912 -1.94835 -0.0801709 0
M  V30 472 O 45.182 -1.66894 -1.02582 0
M  V30 473 H 43.762 -0.563626 0.49024 0
M  V30 474 H 46.424 -0.908504 1.7243 0
M  V30 475 H 45.52 -2.41523 1.97669 0
M  V30 476 N 45.8211 -1.22559 -0.990812 0
M  V30 477 C 47.0511 -1.07623 -1.76355 0
M  V30 478 C 47.4591 0.37601 -1.85426 0
M  V30 479 O 46.8021 1.27228 -1.32509 0
M  V30 480 C 46.8641 -1.61507 -3.21179 0
M  V30 481 C 46.5281 -3.10146 -3.35646 0
M  V30 482 C 47.5251 -4.07553 -3.22796 0
M  V30 483 C 45.2101 -3.49644 -3.60631 0
M  V30 484 C 47.2041 -5.42442 -3.34716 0
M  V30 485 C 44.8911 -4.84682 -3.72192 0
M  V30 486 C 45.8891 -5.8089 -3.59243 0
M  V30 487 O 45.5771 -7.13476 -3.70415 0
M  V30 488 H 45.3091 -0.377745 -0.560611 0
M  V30 489 H 47.8631 -1.62658 -1.25425 0
M  V30 490 H 46.0931 -1.00881 -3.73309 0
M  V30 491 H 47.7821 -1.42202 -3.80175 0
M  V30 492 H 48.5481 -3.78381 -3.03403 0
M  V30 493 H 44.4271 -2.75282 -3.69785 0
M  V30 494 H 47.9711 -6.17518 -3.24526 0
M  V30 495 H 43.8681 -5.13534 -3.91092 0
M  V30 496 H 44.6361 -7.21083 -3.87275 0
M  V30 497 N 47.2992 1.18797 -1.03562 0
M  V30 498 C 48.7152 1.40671 -0.753917 0
M  V30 499 C 48.9152 1.9043 0.658686 0
M  V30 500 O 47.9712 2.08538 1.42366 0
M  V30 501 C 49.2842 2.41192 -1.79574 0
M  V30 502 C 50.8322 2.54928 -1.81606 0
M  V30 503 C 51.3072 3.58709 -2.84766 0
M  V30 504 N 52.7982 3.66212 -2.83625 0
M  V30 505 C 53.5332 4.46225 -3.60098 0
M  V30 506 N 53.0292 5.29888 -4.46308 0
M  V30 507 N 54.8222 4.40939 -3.4861 0
M  V30 508 H 46.9732 0.848221 -1.94728 0
M  V30 509 H 49.2362 0.435081 -0.842264 0
M  V30 510 H 48.9422 2.11669 -2.80872 0
M  V30 511 H 48.8162 3.40467 -1.62365 0
M  V30 512 H 51.2032 2.83771 -0.809817 0
M  V30 513 H 51.2842 1.55784 -2.02891 0
M  V30 514 H 50.9282 3.30607 -3.85566 0
M  V30 515 H 50.8582 4.57519 -2.60737 0
M  V30 516 H 53.3492 3.06466 -2.21105 0
M  V30 517 H 53.6622 5.88078 -5.01382 0
M  V30 518 H 52.0072 5.29326 -4.50377 0
M  V30 519 H 55.1982 3.74624 -2.80668 0
M  V30 520 H 55.3712 5.03056 -4.08459 0
M  V30 521 N 48.7773 0.814389 1.34928 0
M  V30 522 C 50.0023 0.410097 2.03305 0
M  V30 523 C 50.4273 -0.973464 1.60951 0
M  V30 524 O 49.7853 -1.63185 0.789964 0
M  V30 525 C 49.8333 0.51049 3.56968 0
M  V30 526 O 48.9373 -0.473035 4.09678 0
M  V30 527 H 48.2783 0.170088 0.641846 0
M  V30 528 H 50.8083 1.10244 1.72358 0
M  V30 529 H 50.8183 0.383135 4.06197 0
M  V30 530 H 49.4933 1.51963 3.87144 0
M  V30 531 H 48.0703 -0.305272 3.71648 0
M  V30 532 N 50.2554 -1.46986 0.568584 0
M  V30 533 C 51.5034 -2.02041 0.0487022 0
M  V30 534 C 51.8244 -1.44408 -1.31039 0
M  V30 535 O 51.0944 -0.623477 -1.85714 0
M  V30 536 H 49.6744 -0.746849 0.015014 0
M  V30 537 H 52.3364 -1.80257 0.741168 0
M  V30 538 H 51.4324 -3.12085 -0.0308961 0
M  V30 539 N 51.7335 -0.305618 -1.54608 0
M  V30 540 C 52.9585 0.307562 -2.05107 0
M  V30 541 C 53.3835 1.46385 -1.18123 0
M  V30 542 O 52.7415 1.8034 -0.186324 0
M  V30 543 C 52.7895 0.73704 -3.52987 0
M  V30 544 O 51.8935 1.84134 -3.6901 0
M  V30 545 H 51.2345 0.0589143 -0.661381 0
M  V30 546 H 53.7645 -0.448807 -1.99617 0
M  V30 547 H 53.7745 1.02459 -3.94925 0
M  V30 548 H 52.4495 -0.108773 -4.15758 0
M  V30 549 H 51.0265 1.55398 -3.38978 0
M  V30 550 N 53.2116 1.57565 -0.0334293 0
M  V30 551 C 54.1616 2.06978 0.956237 0
M  V30 552 C 55.1456 0.971193 1.28283 0
M  V30 553 O 56.3376 1.23471 1.26822 0
M  V30 554 C 53.4666 2.60393 2.23719 0
M  V30 555 C 52.5526 3.7719 1.93877 0
M  V30 556 N 52.9436 4.87639 1.34321 0
M  V30 557 C 51.2416 3.85758 2.23845 0
M  V30 558 C 51.9426 5.68825 1.21709 0
M  V30 559 N 50.9186 5.1587 1.71404 0
M  V30 560 H 54.7206 2.89773 0.490815 0
M  V30 561 H 52.2346 1.61492 0.171478 0
M  V30 562 H 54.2316 2.94088 2.95496 0
M  V30 563 H 52.8916 1.79031 2.70884 0
M  V30 564 H 53.9026 5.07803 1.01767 0
M  V30 565 H 50.5796 3.1531 2.73653 0
M  V30 566 H 51.9696 6.67631 0.75621 0
M  V30 567 N 54.6897 -0.239769 1.55765 0
M  V30 568 C 55.6527 -1.28038 1.90103 0
M  V30 569 C 56.6527 -1.40723 0.778055 0
M  V30 570 O 57.8427 -1.39301 1.04599 0
M  V30 571 C 54.9747 -2.65702 2.13577 0
M  V30 572 H 56.1677 -0.988048 2.83157 0
M  V30 573 H 53.7207 -0.479382 1.48767 0
M  V30 574 H 54.4557 -3.00063 1.23015 0
M  V30 575 H 54.2407 -2.57875 2.95369 0
M  V30 576 H 55.7307 -3.40828 2.41301 0
M  V30 577 N 56.1678 -1.49265 -0.50573 0
M  V30 578 C 57.3978 -1.61979 -1.28243 0
M  V30 579 C 57.8058 -0.288576 -1.86986 0
M  V30 580 O 57.1488 0.735408 -1.68337 0
M  V30 581 C 57.2108 -2.62632 -2.45489 0
M  V30 582 C 56.8748 -4.071 -2.07651 0
M  V30 583 C 57.8718 -4.94049 -1.61901 0
M  V30 584 C 55.5568 -4.52801 -2.17431 0
M  V30 585 C 57.5508 -6.24736 -1.26428 0
M  V30 586 C 55.2378 -5.83503 -1.8157 0
M  V30 587 C 56.2358 -6.69294 -1.36142 0
M  V30 588 O 55.9238 -7.9756 -1.00764 0
M  V30 589 H 55.6558 -0.54834 -0.395347 0
M  V30 590 H 58.2098 -1.96002 -0.614204 0
M  V30 591 H 56.4398 -2.2378 -3.15372 0
M  V30 592 H 58.1288 -2.64925 -3.07522 0
M  V30 593 H 58.8948 -4.5997 -1.53795 0
M  V30 594 H 54.7738 -3.86196 -2.51742 0
M  V30 595 H 58.3178 -6.91652 -0.908992 0
M  V30 596 H 54.2148 -6.17112 -1.89324 0
M  V30 597 H 54.9828 -8.10529 -1.13952 0
M  V30 598 N 57.6459 0.756429 -1.3826 0
M  V30 599 C 58.5559 1.9009 -1.37488 0
M  V30 600 C 59.5719 1.71855 -0.272366 0
M  V30 601 O 60.7479 1.94827 -0.510318 0
M  V30 602 C 57.8129 3.25421 -1.19592 0
M  V30 603 C 56.8739 3.56202 -2.39622 0
M  V30 604 C 56.1069 4.85075 -2.2257 0
M  V30 605 O 56.3299 5.57246 -1.21793 0
M  V30 606 O 55.2639 5.15269 -3.11098 0
M  V30 607 H 59.0899 1.93695 -2.33914 0
M  V30 608 H 56.6749 0.901313 -1.1915 0
M  V30 609 H 58.5569 4.06337 -1.11661 0
M  V30 610 H 57.2319 3.22634 -0.262486 0
M  V30 611 H 56.1389 2.75458 -2.53128 0
M  V30 612 H 57.4719 3.63747 -3.31586 0
M  V30 613 N 59.124 1.23083 0.984299 0
M  V30 614 C 60.352 1.08714 1.76037 0
M  V30 615 C 60.767 -0.361691 1.85303 0
M  V30 616 O 60.124 -1.25034 1.32939 0
M  V30 617 C 60.175 1.70206 3.18923 0
M  V30 618 O 59.896 3.09423 3.10144 0
M  V30 619 C 61.397 1.61227 4.12941 0
M  V30 620 H 58.617 0.380664 0.552572 0
M  V30 621 H 61.161 1.62853 1.23689 0
M  V30 622 H 59.316 1.20109 3.6831 0
M  V30 623 H 59.73 3.39188 4.00065 0
M  V30 624 H 61.204 2.08962 5.10919 0
M  V30 625 H 61.681 0.570375 4.35481 0
M  V30 626 H 62.287 2.10671 3.69456 0
M  V30 627 N 60.6021 -1.18246 1.0419 0
M  V30 628 C 62.0181 -1.40269 0.761366 0
M  V30 629 C 62.2181 -1.90777 -0.648578 0
M  V30 630 O 61.2741 -2.0929 -1.41258 0
M  V30 631 C 62.5871 -2.40237 1.8085 0
M  V30 632 C 64.1351 -2.53961 1.82955 0
M  V30 633 C 64.6101 -3.57194 2.86664 0
M  V30 634 N 66.1011 -3.64702 2.85563 0
M  V30 635 C 66.8361 -4.44309 3.6246 0
M  V30 636 N 66.3321 -5.27514 4.49111 0
M  V30 637 N 68.1251 -4.39084 3.50944 0
M  V30 638 H 60.2761 -0.837882 1.95175 0
M  V30 639 H 62.5391 -0.430608 0.84456 0
M  V30 640 H 62.2451 -2.10176 2.81991 0
M  V30 641 H 62.1191 -3.39601 1.64168 0
M  V30 642 H 64.5061 -2.83338 0.824855 0
M  V30 643 H 64.5871 -1.54706 2.03715 0
M  V30 644 H 64.2311 -3.28558 3.87314 0
M  V30 645 H 64.1611 -4.5613 2.6316 0
M  V30 646 H 66.6521 -3.05289 2.22727 0
M  V30 647 H 66.9651 -5.85411 5.04493 0
M  V30 648 H 65.3101 -5.2693 4.53178 0
M  V30 649 H 68.5011 -3.7313 2.82651 0
M  V30 650 H 68.6741 -5.00883 4.11121 0
M  V30 651 N 62.0802 -0.821533 -1.34494 0
M  V30 652 C 63.0102 -0.257138 -2.3208 0
M  V30 653 C 63.9912 0.625645 -1.58176 0
M  V30 654 O 65.1762 0.552811 -1.86166 0
M  V30 655 C 62.3062 0.582958 -3.42372 0
M  V30 656 C 61.2602 -0.202571 -4.2752 0
M  V30 657 C 60.5862 0.760179 -5.29269 0
M  V30 658 C 61.8862 -1.40998 -5.02908 0
M  V30 659 H 63.5802 -1.07247 -2.79532 0
M  V30 660 H 61.1262 -0.517163 -1.34393 0
M  V30 661 H 63.0792 0.987972 -4.09655 0
M  V30 662 H 61.8032 1.43133 -2.93565 0
M  V30 663 H 60.4622 -0.588936 -3.61838 0
M  V30 664 H 60.1102 1.60447 -4.76724 0
M  V30 665 H 59.8102 0.238809 -5.87115 0
M  V30 666 H 61.3342 1.16308 -5.9942 0
M  V30 667 H 62.7482 -1.07905 -5.63054 0
M  V30 668 H 61.1452 -1.86689 -5.70322 0
M  V30 669 H 62.2152 -2.1889 -4.32684 0
M  V30 670 N 63.5583 1.46682 -0.576371 0
M  V30 671 C 64.5053 2.30241 0.160499 0
M  V30 672 C 65.4753 1.40233 0.890162 0
M  V30 673 O 66.6603 1.69186 0.882084 0
M  V30 674 C 63.8003 3.24578 1.1723 0
M  V30 675 C 62.9133 4.29684 0.446736 0
M  V30 676 C 62.0483 5.11154 1.44551 0
M  V30 677 C 61.0873 6.08015 0.70599 0
M  V30 678 N 60.2243 6.82376 1.65251 0
M  V30 679 H 65.0643 2.92727 -0.558127 0
M  V30 680 H 62.6013 1.44272 -0.287056 0
M  V30 681 H 64.5593 3.77711 1.77172 0
M  V30 682 H 63.1893 2.63916 1.85872 0
M  V30 683 H 62.2413 3.79458 -0.267594 0
M  V30 684 H 63.5533 4.98626 -0.131686 0
M  V30 685 H 62.7073 5.68533 2.11791 0
M  V30 686 H 61.4463 4.42158 2.05786 0
M  V30 687 H 60.4513 5.49796 0.0197725 0
M  V30 688 H 61.6763 6.79028 0.09912 0
M  V30 689 H 59.6223 6.16094 2.25308 0
M  V30 690 H 59.5393 7.47556 1.12673 0
M  V30 691 H 60.8073 7.44316 2.31546 0
M  V30 692 N 65.0364 0.313813 1.54444 0
M  V30 693 C 66.2824 -0.292108 2.00685 0
M  V30 694 C 66.6154 -1.52548 1.20177 0
M  V30 695 O 65.8904 -1.92452 0.281531 0
M  V30 696 C 66.1734 -0.635968 3.5444 0
M  V30 697 C 66.0264 0.607437 4.4568 0
M  V30 698 C 67.3454 -1.45747 4.15266 0
M  V30 699 H 64.4644 -0.104697 0.729526 0
M  V30 700 H 67.1064 0.428457 1.85106 0
M  V30 701 H 65.2564 -1.24986 3.67846 0
M  V30 702 H 66.9284 1.24581 4.44159 0
M  V30 703 H 65.1714 1.23822 4.15753 0
M  V30 704 H 65.8424 0.322515 5.51057 0
M  V30 705 H 68.3184 -0.938645 4.05375 0
M  V30 706 H 67.1944 -1.66683 5.2298 0
M  V30 707 H 67.4554 -2.45063 3.67963 0
M  V30 708 N 66.5145 -1.57545 0.0417849 0
M  V30 709 C 67.7395 -1.97035 -0.647455 0
M  V30 710 C 68.1645 -0.918775 -1.64135 0
M  V30 711 O 67.5225 0.119006 -1.80909 0
M  V30 712 C 67.5705 -3.35609 -1.31905 0
M  V30 713 O 66.6745 -3.3287 -2.43457 0
M  V30 714 H 66.0155 -0.64211 -0.169086 0
M  V30 715 H 68.5455 -2.04318 0.107399 0
M  V30 716 H 68.5555 -3.72126 -1.67291 0
M  V30 717 H 67.2305 -4.11685 -0.590586 0
M  V30 718 H 65.8075 -3.08087 -2.10088 0
M  V30 719 N 67.9926 0.231505 -1.5589 0
M  V30 720 C 68.9026 1.308 -1.94752 0
M  V30 721 C 69.9186 1.51826 -0.849989 0
M  V30 722 O 71.0946 1.6515 -1.15271 0
M  V30 723 C 68.1596 2.63968 -2.24771 0
M  V30 724 C 67.2206 2.51331 -3.48039 0
M  V30 725 C 66.4536 3.78148 -3.76616 0
M  V30 726 O 66.6766 4.80722 -3.07022 0
M  V30 727 O 65.6106 3.75857 -4.70123 0
M  V30 728 H 69.4366 1.0083 -2.86474 0
M  V30 729 H 67.0216 0.433547 -1.42971 0
M  V30 730 H 68.9036 3.42633 -2.45318 0
M  V30 731 H 67.5786 2.9364 -1.36225 0
M  V30 732 H 66.4856 1.709 -3.32782 0
M  V30 733 H 67.8186 2.26601 -4.36936 0
M  V30 734 N 69.4707 1.49531 0.497807 0
M  V30 735 C 70.7187 1.58865 1.24926 0
M  V30 736 C 71.0397 0.278721 1.92998 0
M  V30 737 O 70.3097 -0.702144 1.82885 0
M  V30 738 H 68.8897 0.585343 0.464094 0
M  V30 739 H 71.5517 1.86174 0.57666 0
M  V30 740 H 70.6477 2.38633 2.01149 0
M  V30 741 N 70.9488 -0.749086 1.3866 0
M  V30 742 C 72.1948 -1.50959 1.36319 0
M  V30 743 C 72.5498 -1.92347 -0.0452451 0
M  V30 744 O 71.8428 -1.6289 -1.00884 0
M  V30 745 C 72.0368 -2.7712 2.25697 0
M  V30 746 C 71.8658 -2.48067 3.7509 0
M  V30 747 C 70.6358 -2.41062 4.44091 0
M  V30 748 C 72.8338 -2.14544 4.67414 0
M  V30 749 N 70.8158 -2.04331 5.78897 0
M  V30 750 C 72.1868 -1.88141 5.90765 0
M  V30 751 C 74.2418 -2.00892 4.55573 0
M  V30 752 C 72.9448 -1.49463 7.036 0
M  V30 753 C 74.9708 -1.63616 5.68317 0
M  V30 754 C 74.3328 -1.38088 6.90732 0
M  V30 755 H 70.4318 -0.551804 0.554108 0
M  V30 756 H 73.0158 -0.871886 1.74087 0
M  V30 757 H 71.1868 -3.38693 1.9011 0
M  V30 758 H 72.9188 -3.4321 2.1445 0
M  V30 759 H 69.6738 -2.57685 3.9736 0
M  V30 760 H 70.0978 -1.88598 6.502 0
M  V30 761 H 74.7398 -2.19301 3.61479 0
M  V30 762 H 72.4578 -1.29794 7.97608 0
M  V30 763 H 76.0438 -1.53678 5.61137 0
M  V30 764 H 74.9238 -1.09674 7.76493 0
M  V30 765 N 72.4269 -1.23603 -0.977757 0
M  V30 766 C 73.3589 -0.977369 -2.07317 0
M  V30 767 C 74.3719 0.0495845 -1.62724 0
M  V30 768 O 75.5609 -0.186261 -1.77526 0
M  V30 769 C 72.6609 -0.451216 -3.35883 0
M  V30 770 C 71.8339 -1.53896 -4.09432 0
M  V30 771 C 70.8929 -1.01721 -5.16274 0
M  V30 772 O 69.9189 -1.70676 -5.43009 0
M  V30 773 N 71.1209 0.153594 -5.80297 0
M  V30 774 H 73.8859 -1.92047 -2.30082 0
M  V30 775 H 71.4469 -1.14497 -1.14465 0
M  V30 776 H 73.4389 -0.0871574 -4.04606 0
M  V30 777 H 72.0089 0.397368 -3.10064 0
M  V30 778 H 71.2289 -2.07566 -3.35127 0
M  V30 779 H 72.5169 -2.27037 -4.55337 0
M  V30 780 H 71.9149 0.730323 -5.60966 0
M  V30 781 H 70.4719 0.458892 -6.50183 0
M  V30 782 N 73.905 1.17692 -1.04816 0
M  V30 783 C 74.853 2.23632 -0.63966 0
M  V30 784 C 75.847 1.6601 0.337219 0
M  V30 785 O 77.053 1.78844 0.203693 0
M  V30 786 H 73.428 0.727949 -0.188665 0
M  V30 787 H 75.399 2.55387 -1.54337 0
M  V30 788 C 74.148 3.4769 -0.0264051 0
M  V30 789 H 73.471 3.92331 -0.769164 0
M  V30 790 H 74.911 4.23418 0.222098 0
M  V30 791 C 73.37 3.13807 1.22584 0
M  V30 792 O 73.9 3.28236 2.31569 0
M  V30 793 N 72.106 2.68065 1.12202 0
M  V30 794 H 71.653 2.56525 0.235133 0
M  V30 795 H 71.611 2.45767 1.96076 0
M  V30 796 N 75.3831 0.828654 1.34056 0
M  V30 797 C 76.6311 0.41863 1.97717 0
M  V30 798 C 76.9521 -1.02314 1.66002 0
M  V30 799 O 76.2221 -1.71119 0.953683 0
M  V30 800 H 74.8021 0.151809 0.731412 0
M  V30 801 H 77.4641 1.05936 1.63596 0
M  V30 802 H 76.5601 0.542318 3.07352 0
M  V30 803 N 76.8612 -1.46375 0.584142 0
M  V30 804 C 78.1072 -2.03248 0.0787103 0
M  V30 805 C 78.4622 -1.44737 -1.26763 0
M  V30 806 O 77.7552 -0.603625 -1.81843 0
M  V30 807 C 77.9492 -3.57373 -0.0439342 0
M  V30 808 C 77.7782 -4.30831 1.28897 0
M  V30 809 C 76.5482 -4.69683 1.8635 0
M  V30 810 C 78.7462 -4.64278 2.21248 0
M  V30 811 N 76.7282 -5.27898 3.13365 0
M  V30 812 C 78.0992 -5.23078 3.32851 0
M  V30 813 C 80.1542 -4.46209 2.20911 0
M  V30 814 C 78.8572 -5.65715 4.44251 0
M  V30 815 C 80.8832 -4.89864 3.31341 0
M  V30 816 C 80.2452 -5.48736 4.41665 0
M  V30 817 H 76.3442 -0.778714 0.0716144 0
M  V30 818 H 78.9282 -1.78509 0.777355 0
M  V30 819 H 77.0992 -3.81823 -0.711749 0
M  V30 820 H 78.8312 -4.00892 -0.553881 0
M  V30 821 H 75.5862 -4.52488 1.39826 0
M  V30 822 H 76.0102 -5.61525 3.78178 0
M  V30 823 H 80.6522 -4.00027 1.36888 0
M  V30 824 H 78.3702 -6.10875 5.29015 0
M  V30 825 H 81.9562 -4.77634 3.322 0
M  V30 826 H 80.8362 -5.81898 5.25704 0
M  V30 827 N 78.3393 -0.321999 -1.54275 0
M  V30 828 C 79.5853 0.274234 -2.01543 0
M  V30 829 C 79.9403 1.499 -1.20614 0
M  V30 830 O 79.2333 1.89546 -0.279804 0
M  V30 831 C 79.4273 0.661769 -3.5122 0
M  V30 832 C 79.2563 -0.523892 -4.46638 0
M  V30 833 C 78.0263 -1.02251 -4.94846 0
M  V30 834 C 80.2243 -1.37558 -4.95563 0
M  V30 835 N 78.2063 -2.17274 -5.74165 0
M  V30 836 C 79.5773 -2.37301 -5.7279 0
M  V30 837 C 81.6323 -1.40353 -4.77709 0
M  V30 838 C 80.3353 -3.3964 -6.34064 0
M  V30 839 C 82.3613 -2.41562 -5.39817 0
M  V30 840 C 81.7233 -3.40031 -6.16894 0
M  V30 841 H 77.8223 0.0642367 -0.779357 0
M  V30 842 H 80.4063 -0.456683 -1.89268 0
M  V30 843 H 78.5773 1.36182 -3.63743 0
M  V30 844 H 80.3093 1.23934 -3.85256 0
M  V30 845 H 77.0643 -0.594046 -4.6986 0
M  V30 846 H 77.4883 -2.75289 -6.18502 0
M  V30 847 H 82.1303 -0.655907 -4.17681 0
M  V30 848 H 79.8483 -4.15309 -6.93213 0
M  V30 849 H 83.4343 -2.44524 -5.2792 0
M  V30 850 H 82.3143 -4.17063 -6.64099 0
M  V30 851 N 79.8174 1.5752 -0.0501392 0
M  V30 852 C 80.7804 2.1037 0.909786 0
M  V30 853 C 81.7804 1.02308 1.24056 0
M  V30 854 O 82.9704 1.28385 1.17741 0
M  V30 855 C 80.1024 2.58708 2.21998 0
M  V30 856 H 81.2954 2.96479 0.451665 0
M  V30 857 H 78.8484 1.55038 0.198248 0
M  V30 858 H 79.5834 1.75989 2.72394 0
M  V30 859 H 79.3684 3.37675 1.99295 0
M  V30 860 H 80.8584 2.99747 2.9076 0
M  V30 861 N 81.2955 -0.223234 1.56011 0
M  V30 862 C 82.5205 -0.968978 1.83373 0
M  V30 863 C 82.9455 -1.77227 0.630254 0
M  V30 864 O 82.3035 -1.76345 -0.420959 0
M  V30 865 C 82.3515 -1.86363 3.08709 0
M  V30 866 O 81.4555 -2.95873 2.87285 0
M  V30 867 H 80.7965 -0.274461 0.604622 0
M  V30 868 H 83.3265 -0.237056 2.03222 0
M  V30 869 H 83.3365 -2.27376 3.38768 0
M  V30 870 H 82.0115 -1.27319 3.95933 0
M  V30 871 H 80.5885 -2.58818 2.68454 0
M  V30 872 N 82.7736 -1.49793 -0.48987 0
M  V30 873 C 83.7066 -1.61898 -1.60823 0
M  V30 874 C 84.6846 -0.467651 -1.5573 0
M  V30 875 O 85.8686 -0.684682 -1.75626 0
M  V30 876 C 82.9956 -1.58422 -2.99366 0
M  V30 877 C 82.0416 -2.78889 -3.22682 0
M  V30 878 S 82.8746 -4.40429 -3.04602 0
M  V30 879 C 84.0306 -4.39617 -4.4552 0
M  V30 880 H 84.2636 -2.56502 -1.50312 0
M  V30 881 H 81.7966 -1.38822 -0.675849 0
M  V30 882 H 83.7546 -1.57103 -3.79248 0
M  V30 883 H 82.4156 -0.650866 -3.07283 0
M  V30 884 H 81.6086 -2.72708 -4.23847 0
M  V30 885 H 81.2106 -2.77678 -2.50541 0
M  V30 886 H 83.5026 -4.12022 -5.37814 0
M  V30 887 H 84.4456 -5.41097 -4.56749 0
M  V30 888 H 84.8536 -3.69554 -4.2672 0
M  V30 889 N 84.2517 0.741722 -1.39055 0
M  V30 890 C 85.1617 1.88621 -1.39496 0
M  V30 891 C 86.1777 1.71557 -0.290578 0
M  V30 892 O 87.3537 1.94275 -0.530954 0
M  V30 893 C 84.4187 3.24134 -1.23037 0
M  V30 894 C 83.4797 3.5364 -2.43387 0
M  V30 895 C 82.7127 4.82687 -2.27703 0
M  V30 896 O 82.9357 5.55922 -1.27696 0
M  V30 897 O 81.8697 5.1194 -3.16545 0
M  V30 898 H 85.6957 1.91203 -2.35956 0
M  V30 899 H 83.2807 0.888625 -1.20099 0
M  V30 900 H 85.1627 4.0513 -1.15964 0
M  V30 901 H 83.8377 3.22337 -0.296691 0
M  V30 902 H 82.7447 2.72758 -2.56035 0
M  V30 903 H 84.0777 3.60209 -3.35425 0
M  V30 904 N 85.7298 1.2412 0.971189 0
M  V30 905 C 86.9548 1.10667 1.75407 0
M  V30 906 C 87.3798 -0.337048 1.85056 0
M  V30 907 O 86.7378 -1.24396 1.31892 0
M  V30 908 C 86.7858 1.74726 3.15441 0
M  V30 909 O 85.8898 1.01566 3.99697 0
M  V30 910 H 85.2308 0.387341 0.539317 0
M  V30 911 H 87.7608 1.64358 1.2185 0
M  V30 912 H 87.7708 1.80341 3.6598 0
M  V30 913 H 86.4458 2.79773 3.07734 0
M  V30 914 H 85.0228 1.03713 3.58187 0
M  V30 915 N 87.2079 -1.17134 1.05439 0
M  V30 916 C 88.1559 -2.23289 0.651511 0
M  V30 917 C 89.1499 -1.66186 -0.328411 0
M  V30 918 O 90.3559 -1.78949 -0.194206 0
M  V30 919 H 86.7309 -0.726938 0.192523 0
M  V30 920 H 88.7019 -2.54565 1.55689 0
M  V30 921 C 87.4509 -3.47671 0.0448436 0
M  V30 922 H 86.7739 -3.91918 0.78996 0
M  V30 923 H 88.2139 -4.2353 -0.19964 0
M  V30 924 C 86.6729 -3.14453 -1.20918 0
M  V30 925 O 87.2029 -3.29459 -2.29825 0
M  V30 926 N 85.4089 -2.68657 -1.10779 0
M  V30 927 H 84.9559 -2.56646 -0.221526 0
M  V30 928 H 84.9139 -2.46804 -1.9477 0
M  V30 929 N 88.686 -0.835752 -1.33615 0
M  V30 930 C 89.914 -0.443344 -2.02094 0
M  V30 931 C 90.329 0.954522 -1.62894 0
M  V30 932 O 89.686 1.61982 -0.840723 0
M  V30 933 C 89.737 -0.550775 -3.5728 0
M  V30 934 O 89.458 -1.89356 -3.95065 0
M  V30 935 C 90.959 -0.154919 -4.43029 0
M  V30 936 H 88.179 -0.176359 -0.647409 0
M  V30 937 H 90.723 -1.12746 -1.70612 0
M  V30 938 H 88.878 0.0853997 -3.87306 0
M  V30 939 H 89.292 -1.87687 -4.89769 0
M  V30 940 H 90.766 -0.281144 -5.51284 0
M  V30 941 H 91.243 0.902863 -4.2982 0
M  V30 942 H 91.849 -0.765404 -4.18356 0
M  V30 943 N 90.1641 1.46063 -0.591896 0
M  V30 944 C 91.4101 2.03203 -0.0894879 0
M  V30 945 C 91.7651 1.45407 1.25994 0
M  V30 946 O 91.0581 0.61326 1.8152 0
M  V30 947 C 91.2521 3.57391 0.0249813 0
M  V30 948 C 91.0811 4.30142 -1.3118 0
M  V30 949 C 89.8511 4.68688 -1.88838 0
M  V30 950 C 92.0491 4.63098 -2.23708 0
M  V30 951 N 90.0311 5.26228 -3.1616 0
M  V30 952 C 91.4021 5.21305 -3.3562 0
M  V30 953 C 93.4571 4.45031 -2.23274 0
M  V30 954 C 92.1601 5.63351 -4.47245 0
M  V30 955 C 94.1861 4.881 -3.33935 0
M  V30 956 C 93.5481 5.46386 -4.44569 0
M  V30 957 H 89.6471 0.778323 -0.0757431 0
M  V30 958 H 92.2311 1.78094 -0.78681 0
M  V30 959 H 90.4021 3.82195 0.69149 0
M  V30 960 H 92.1341 4.0118 0.532613 0
M  V30 961 H 88.8891 4.5174 -1.42223 0
M  V30 962 H 89.3131 5.59512 -3.8115 0
M  V30 963 H 93.9551 3.99295 -1.39008 0
M  V30 964 H 91.6731 6.08061 -5.32247 0
M  V30 965 H 95.2591 4.75866 -3.34728 0
M  V30 966 H 94.1391 5.79102 -5.28782 0
M  V30 967 N 91.6422 0.330177 1.54103 0
M  V30 968 C 92.5902 -0.548226 2.26047 0
M  V30 969 C 93.5842 -1.11309 1.27698 0
M  V30 970 O 94.7902 -1.06036 1.45452 0
M  V30 971 H 91.1652 -0.195456 0.726155 0
M  V30 972 H 93.1362 0.0807567 2.98291 0
M  V30 973 C 91.8852 -1.69415 3.03634 0
M  V30 974 H 91.2082 -1.26876 3.79134 0
M  V30 975 H 92.6482 -2.28423 3.5721 0
M  V30 976 C 91.1072 -2.61569 2.12328 0
M  V30 977 O 91.6372 -3.63462 1.7105 0
M  V30 978 N 89.8432 -2.29952 1.77681 0
M  V30 979 H 89.3902 -1.47134 2.11446 0
M  V30 980 H 89.3482 -2.91871 1.16869 0
M  V30 981 N 93.1203 -1.57491 0.0584922 0
M  V30 982 C 94.3483 -1.97296 -0.623037 0
M  V30 983 C 94.7633 -0.936338 -1.63946 0
M  V30 984 O 94.1203 0.0785981 -1.82331 0
M  V30 985 C 94.1713 -3.37183 -1.30345 0
M  V30 986 O 93.8923 -4.36872 -0.32773 0
M  V30 987 C 95.3933 -3.91788 -2.07406 0
M  V30 988 H 92.6133 -0.649153 -0.169826 0
M  V30 989 H 95.1573 -2.04106 0.12696 0
M  V30 990 H 93.3123 -3.31502 -2.00463 0
M  V30 991 H 93.7263 -5.18141 -0.814269 0
M  V30 992 H 95.2003 -4.91926 -2.50425 0
M  V30 993 H 95.6773 -3.27609 -2.92521 0
M  V30 994 H 96.2833 -4.00829 -1.42184 0
M  V30 995 N 94.5984 0.214957 -1.56127 0
M  V30 996 C 95.8474 0.936451 -1.78643 0
M  V30 997 C 96.1604 1.85237 -0.628229 0
M  V30 998 O 97.3664 2.613 -0.737186 0
M  V30 999 C 95.8224 1.7154 -3.16389 0
M  V30 1000 C 95.4304 0.845299 -4.39953 0
M  V30 1001 C 97.1744 2.42772 -3.48227 0
M  V30 1002 C 95.0814 1.62198 -5.68723 0
M  V30 1003 H 94.0114 0.353401 -0.666051 0
M  V30 1004 H 96.6624 0.190169 -1.82512 0
M  V30 1005 H 95.0444 2.50484 -3.06715 0
M  V30 1006 H 96.2184 0.0959353 -4.607 0
M  V30 1007 H 94.5334 0.244789 -4.1568 0
M  V30 1008 H 97.1304 3.01394 -4.41663 0
M  V30 1009 H 97.4734 3.15984 -2.71035 0
M  V30 1010 H 98.0064 1.70813 -3.5926 0
M  V30 1011 H 94.7454 0.933011 -6.48826 0
M  V30 1012 H 94.2654 2.34579 -5.52026 0
M  V30 1013 H 95.9444 2.18095 -6.09133 0
M  V30 1014 N 96.0765 1.50051 0.48192 0
M  V30 1015 C 97.0265 1.64512 1.5786 0
M  V30 1016 C 98.0105 0.500073 1.52932 0
M  V30 1017 O 99.2025 0.753964 1.60139 0
M  V30 1018 C 96.3315 1.73263 2.9637 0
M  V30 1019 C 95.4175 2.93409 3.06222 0
M  V30 1020 N 95.8085 4.17236 2.85915 0
M  V30 1021 C 94.1065 2.91742 3.37346 0
M  V30 1022 C 94.8075 4.981 3.00451 0
M  V30 1023 N 93.7835 4.3184 3.30174 0
M  V30 1024 H 97.5855 2.57955 1.40842 0
M  V30 1025 H 95.0995 1.47086 0.688439 0
M  V30 1026 H 97.0965 1.81724 3.75209 0
M  V30 1027 H 95.7565 0.809711 3.14442 0
M  V30 1028 H 96.7675 4.46909 2.6171 0
M  V30 1029 H 93.4445 2.08907 3.61475 0
M  V30 1030 H 94.8345 6.06532 2.89082 0
M  V30 1031 N 97.5546 -0.734337 1.39446 0
M  V30 1032 C 98.8316 -1.48579 1.27215 0
M  V30 1033 C 99.2116 -2.1077 -0.117968 0
M  V30 1034 O 98.5596 -1.98646 -1.12924 0
M  V30 1035 C 98.7696 -2.53667 2.39696 0
M  V30 1036 C 100.118 -3.20031 2.79044 0
M  V30 1037 O 101.142 -2.6398 2.39151 0
M  V30 1038 O 100.001 -4.21455 3.47905 0
M  V30 1039 H 97.0946 -0.659816 0.49857 0
M  V30 1040 H 99.6406 -0.768106 1.51322 0
M  V30 1041 H 98.4126 -2.06096 3.32626 0
M  V30 1042 H 98.0356 -3.32994 2.17258 0
M  V30 1043 N 99.0327 -1.24633 -0.964593 0
M  V30 1044 C 99.9807 -1.03917 -2.08096 0
M  V30 1045 C 100.975 0.0268581 -1.69379 0
M  V30 1046 O 102.181 -0.127952 -1.79545 0
M  V30 1047 H 98.5557 -0.319044 -0.680966 0
M  V30 1048 H 100.527 -1.98581 -2.22729 0
M  V30 1049 C 99.2757 -0.663983 -3.41301 0
M  V30 1050 H 98.5987 -1.47605 -3.71555 0
M  V30 1051 H 100.039 -0.558663 -4.20303 0
M  V30 1052 C 98.4977 0.629169 -3.30973 0
M  V30 1053 O 99.0277 1.67404 -3.65156 0
M  V30 1054 N 97.2337 0.611057 -2.84103 0
M  V30 1055 H 96.7807 -0.239593 -2.56483 0
M  V30 1056 H 96.7387 1.47647 -2.77575 0
M  V30 1057 N 100.511 1.16574 -1.06058 0
M  V30 1058 C 101.458 2.20883 -0.669263 0
M  V30 1059 C 102.428 1.62729 0.332918 0
M  V30 1060 O 103.613 1.895 0.222346 0
M  V30 1061 C 100.753 3.45049 -0.0593572 0
M  V30 1062 C 99.8658 4.17458 -1.11143 0
M  V30 1063 C 99.0008 5.29135 -0.467916 0
M  V30 1064 C 98.0398 5.93343 -1.50369 0
M  V30 1065 N 97.1768 6.96516 -0.883706 0
M  V30 1066 H 102.017 2.53709 -1.5632 0
M  V30 1067 H 99.5538 1.24616 -0.781625 0
M  V30 1068 H 101.512 4.16033 0.311771 0
M  V30 1069 H 100.142 3.12781 0.797992 0
M  V30 1070 H 99.1938 3.45101 -1.60029 0
M  V30 1071 H 100.506 4.61307 -1.89731 0
M  V30 1072 H 99.6598 6.06684 -0.0436871 0
M  V30 1073 H 98.3988 4.86443 0.349864 0
M  V30 1074 H 97.4038 5.14517 -1.93784 0
M  V30 1075 H 98.6288 6.38114 -2.32352 0
M  V30 1076 H 96.5748 6.55943 -0.086595 0
M  V30 1077 H 96.4918 7.38723 -1.607 0
M  V30 1078 H 97.7598 7.77993 -0.484543 0
M  V30 1079 N 101.989 0.842826 1.3317 0
M  V30 1080 C 102.936 0.276885 2.29133 0
M  V30 1081 C 103.906 -0.609527 1.54512 0
M  V30 1082 O 105.091 -0.546955 1.82792 0
M  V30 1083 C 102.231 -0.538707 3.40869 0
M  V30 1084 C 101.344 0.372169 4.30394 0
M  V30 1085 C 100.479 -0.454908 5.29249 0
M  V30 1086 C 99.5179 0.45411 6.10413 0
M  V30 1087 N 98.6549 -0.335075 7.013 0
M  V30 1088 H 103.495 1.10052 2.76934 0
M  V30 1089 H 101.032 0.554161 1.36262 0
M  V30 1090 H 102.99 -1.02709 4.0436 0
M  V30 1091 H 101.62 -1.32727 2.9425 0
M  V30 1092 H 100.672 0.97888 3.6759 0
M  V30 1093 H 101.984 1.0703 4.87182 0
M  V30 1094 H 101.138 -1.00695 5.98285 0
M  V30 1095 H 99.8769 -1.18646 4.73048 0
M  V30 1096 H 98.8819 1.01813 5.40291 0
M  V30 1097 H 100.107 1.18409 6.68697 0
M  V30 1098 H 98.0529 -1.04994 6.47543 0
M  V30 1099 H 97.9699 0.304262 7.55387 0
M  V30 1100 H 99.2379 -0.869224 7.74638 0
M  V30 1101 N 103.467 -1.45747 0.599634 0
M  V30 1102 C 104.377 -2.34262 -0.125888 0
M  V30 1103 C 105.393 -1.50768 -0.868625 0
M  V30 1104 O 106.569 -1.83592 -0.828003 0
M  V30 1105 C 103.634 -3.28252 -1.11587 0
M  V30 1106 C 102.695 -4.27651 -0.375956 0
M  V30 1107 C 101.928 -5.1715 -1.31877 0
M  V30 1108 O 102.151 -5.09916 -2.55621 0
M  V30 1109 O 101.085 -5.96286 -0.820157 0
M  V30 1110 H 104.911 -2.97688 0.601315 0
M  V30 1111 H 102.496 -1.44999 0.359934 0
M  V30 1112 H 104.378 -3.86191 -1.68626 0
M  V30 1113 H 103.053 -2.67401 -1.82424 0
M  V30 1114 H 101.96 -3.7335 0.236698 0
M  V30 1115 H 103.293 -4.91334 0.29177 0
M  V30 1116 N 104.945 -0.338344 -1.53925 0
M  V30 1117 C 105.893 0.536231 -2.26335 0
M  V30 1118 C 106.887 1.1063 -1.28286 0
M  V30 1119 O 108.093 1.05264 -1.46012 0
M  V30 1120 H 104.468 0.191602 -0.727181 0
M  V30 1121 H 106.439 -0.0965747 -2.98244 0
M  V30 1122 C 105.188 1.67803 -3.04528 0
M  V30 1123 H 104.511 1.24864 -3.79801 0
M  V30 1124 H 105.951 2.26526 -3.58416 0
M  V30 1125 C 104.41 2.60439 -2.13712 0
M  V30 1126 O 104.94 3.6255 -1.72975 0
M  V30 1127 N 103.146 2.29006 -1.78898 0
M  V30 1128 H 102.693 1.46011 -2.12223 0
M  V30 1129 H 102.651 2.91248 -1.18416 0
M  V30 1130 N 106.423 1.57458 -0.0668435 0
M  V30 1131 C 107.386 2.11323 0.887422 0
M  V30 1132 C 108.386 1.03618 1.22964 0
M  V30 1133 O 109.576 1.29626 1.16373 0
M  V30 1134 C 106.708 2.61048 2.19242 0
M  V30 1135 H 107.901 2.96942 0.420194 0
M  V30 1136 H 105.454 1.55239 0.181793 0
M  V30 1137 H 106.189 1.78868 2.70512 0
M  V30 1138 H 105.974 3.39769 1.95702 0
M  V30 1139 H 107.464 3.02814 2.87565 0
M  V30 1140 N 107.901 -0.206675 1.56239 0
M  V30 1141 C 108.864 -1.23976 1.92776 0
M  V30 1142 C 109.864 -1.39041 0.807729 0
M  V30 1143 O 111.054 -1.37051 1.0753 0
M  V30 1144 C 108.186 -2.61112 2.19165 0
M  V30 1145 H 109.379 -0.927764 2.85189 0
M  V30 1146 H 106.932 -0.447718 1.4975 0
M  V30 1147 H 107.667 -2.97386 1.29352 0
M  V30 1148 H 107.452 -2.51552 3.00772 0
M  V30 1149 H 108.942 -3.35633 2.48476 0
M  V30 1150 N 109.379 -1.50304 -0.473955 0
M  V30 1151 C 110.309 -1.71886 -1.58042 0
M  V30 1152 C 111.29 -0.567799 -1.60344 0
M  V30 1153 O 112.475 -0.806623 -1.76656 0
M  V30 1154 C 109.605 -1.81036 -2.96384 0
M  V30 1155 C 108.559 -2.962 -3.08949 0
M  V30 1156 C 107.885 -2.9049 -4.48909 0
M  V30 1157 C 109.185 -4.36752 -2.86434 0
M  V30 1158 H 110.879 -2.64527 -1.40234 0
M  V30 1159 H 108.425 -1.27295 -0.673201 0
M  V30 1160 H 110.378 -1.94719 -3.73714 0
M  V30 1161 H 109.102 -0.850147 -3.15341 0
M  V30 1162 H 107.761 -2.82164 -2.3405 0
M  V30 1163 H 107.409 -1.92321 -4.64781 0
M  V30 1164 H 107.109 -3.67802 -4.58253 0
M  V30 1165 H 108.633 -3.06218 -5.28264 0
M  V30 1166 H 110.047 -4.5133 -3.53517 0
M  V30 1167 H 108.444 -5.15493 -3.07225 0
M  V30 1168 H 109.514 -4.49321 -1.82316 0
M  V30 1169 N 110.857 0.726932 -1.39834 0
M  V30 1170 C 111.805 1.86235 -1.39353 0
M  V30 1171 C 112.799 1.67144 -0.275555 0
M  V30 1172 O 114.005 1.74387 -0.44601 0
M  V30 1173 H 110.38 0.613174 -0.43534 0
M  V30 1174 H 112.351 1.83756 -2.35109 0
M  V30 1175 C 111.1 3.23995 -1.26185 0
M  V30 1176 H 110.423 3.39285 -2.11484 0
M  V30 1177 H 111.863 4.03609 -1.29907 0
M  V30 1178 C 110.322 3.36888 0.0290018 0
M  V30 1179 O 110.852 3.89152 0.99619 0
M  V30 1180 N 109.058 2.90446 0.0947437 0
M  V30 1181 H 108.605 2.48102 -0.693035 0
M  V30 1182 H 108.563 2.99451 0.957932 0
M  V30 1183 N 112.336 1.25143 0.95797 0
M  V30 1184 C 113.613 1.00472 1.67823 0
M  V30 1185 C 113.993 -0.470056 2.058 0
M  V30 1186 O 113.341 -1.44663 1.76875 0
M  V30 1187 C 113.551 1.9372 2.90299 0
M  V30 1188 C 114.899 2.21371 3.62326 0
M  V30 1189 O 115.923 1.91451 3.00375 0
M  V30 1190 O 114.782 2.72231 4.7387 0
M  V30 1191 H 111.876 0.380752 0.734137 0
M  V30 1192 H 114.422 1.36283 1.01119 0
M  V30 1193 H 113.194 2.93316 2.59001 0
M  V30 1194 H 112.817 1.58286 3.64735 0
M  V30 1195 N 113.814 -1.1601 1.06675 0
M  V30 1196 C 115.06 -1.86909 0.786945 0
M  V30 1197 C 115.393 -1.81717 -0.685018 0
M  V30 1198 O 114.668 -1.23551 -1.50218 0
M  V30 1199 C 114.951 -3.36313 1.28707 0
M  V30 1200 C 114.804 -3.50175 2.82308 0
M  V30 1201 C 116.123 -4.3084 0.898071 0
M  V30 1202 H 113.242 -0.678677 0.287343 0
M  V30 1203 H 115.884 -1.36336 1.32334 0
M  V30 1204 H 114.034 -3.79513 0.830768 0
M  V30 1205 H 115.706 -3.15886 3.36175 0
M  V30 1206 H 113.949 -2.91959 3.20847 0
M  V30 1207 H 114.62 -4.55116 3.12368 0
M  V30 1208 H 117.096 -3.95561 1.29114 0
M  V30 1209 H 115.972 -5.33876 1.27543 0
M  V30 1210 H 116.233 -4.41662 -0.196651 0
M  V30 1211 N 115.292 -0.849877 -1.32721 0
M  V30 1212 C 116.224 -0.248332 -2.27851 0
M  V30 1213 C 117.237 0.577218 -1.52224 0
M  V30 1214 O 118.426 0.402489 -1.73903 0
M  V30 1215 C 115.526 0.668107 -3.32249 0
M  V30 1216 C 114.699 -0.120534 -4.37234 0
M  V30 1217 C 113.758 0.720932 -5.21238 0
M  V30 1218 O 112.784 0.156166 -5.68986 0
M  V30 1219 N 113.986 2.03647 -5.43607 0
M  V30 1220 H 116.751 -1.06575 -2.80111 0
M  V30 1221 H 114.312 -0.709395 -1.45531 0
M  V30 1222 H 116.304 1.23627 -3.85355 0
M  V30 1223 H 114.874 1.38621 -2.80184 0
M  V30 1224 H 114.094 -0.870108 -3.84477 0
M  V30 1225 H 115.382 -0.662406 -5.0447 0
M  V30 1226 H 114.78 2.51871 -5.06535 0
M  V30 1227 H 113.337 2.55287 -5.99727 0
M  V30 1228 N 116.77 1.45427 -0.607355 0
M  V30 1229 C 118.016 2.0254 -0.102607 0
M  V30 1230 C 118.349 1.47478 1.26348 0
M  V30 1231 O 117.624 0.64939 1.83339 0
M  V30 1232 C 117.907 3.60044 -0.0634347 0
M  V30 1233 C 117.76 4.2544 -1.46017 0
M  V30 1234 C 119.079 4.35646 0.624514 0
M  V30 1235 H 116.198 0.73598 -0.0387607 0
M  V30 1236 H 118.84 1.73284 -0.779282 0
M  V30 1237 H 116.99 3.85101 0.512808 0
M  V30 1238 H 118.662 4.11569 -2.08347 0
M  V30 1239 H 116.905 3.83849 -2.02094 0
M  V30 1240 H 117.576 5.34342 -1.385 0
M  V30 1241 H 120.052 4.15882 0.134723 0
M  V30 1242 H 118.928 5.45376 0.621028 0
M  V30 1243 H 119.189 4.08501 1.69055 0
M  V30 1244 N 118.248 0.346503 1.53744 0
M  V30 1245 C 119.158 -0.517293 2.28826 0
M  V30 1246 C 120.174 -1.10935 1.3405 0
M  V30 1247 O 121.35 -1.1244 1.6709 0
M  V30 1248 C 118.415 -1.65098 3.04866 0
M  V30 1249 C 117.476 -1.0884 4.15274 0
M  V30 1250 C 116.709 -2.16806 4.87679 0
M  V30 1251 O 116.932 -3.3758 4.59778 0
M  V30 1252 O 115.866 -1.80934 5.74061 0
M  V30 1253 H 119.692 0.0931396 3.03557 0
M  V30 1254 H 117.277 0.111458 1.48984 0
M  V30 1255 H 119.159 -2.31053 3.5241 0
M  V30 1256 H 117.834 -2.24717 2.32989 0
M  V30 1257 H 116.741 -0.3933 3.72027 0
M  V30 1258 H 118.074 -0.537036 4.89261 0
M  V30 1259 N 119.726 -1.57421 0.075193 0
M  V30 1260 C 120.972 -1.93905 -0.594025 0
M  V30 1261 C 121.305 -0.955701 -1.69056 0
M  V30 1262 O 120.58 0.0145373 -1.94495 0
M  V30 1263 C 120.863 -3.40638 -1.1678 0
M  V30 1264 C 120.716 -4.49733 -0.0776792 0
M  V30 1265 C 122.035 -3.88259 -2.07228 0
M  V30 1266 H 119.154 -0.705105 -0.214466 0
M  V30 1267 H 121.796 -1.8947 0.141854 0
M  V30 1268 H 119.946 -3.44549 -1.79494 0
M  V30 1269 H 121.618 -4.57942 0.555573 0
M  V30 1270 H 119.861 -4.29751 0.591286 0
M  V30 1271 H 120.532 -5.49549 -0.519603 0
M  V30 1272 H 123.008 -3.86376 -1.54445 0
M  V30 1273 H 121.884 -4.91533 -2.44308 0
M  V30 1274 H 122.145 -3.26396 -2.98191 0
M  V30 1275 N 121.204 0.198386 -1.56346 0
M  V30 1276 C 122.152 1.26538 -1.95169 0
M  V30 1277 C 123.146 1.47295 -0.836685 0
M  V30 1278 O 124.352 1.48195 -1.02167 0
M  V30 1279 H 120.727 0.424744 -0.620561 0
M  V30 1280 H 122.698 0.910904 -2.84157 0
M  V30 1281 C 121.447 2.6035 -2.30463 0
M  V30 1282 H 120.77 2.45192 -3.15786 0
M  V30 1283 H 122.21 3.33762 -2.61494 0
M  V30 1284 C 120.669 3.17096 -1.13806 0
M  V30 1285 O 121.199 3.99588 -0.41135 0
M  V30 1286 N 119.405 2.75795 -0.915736 0
M  V30 1287 H 118.952 2.08816 -1.50843 0
M  V30 1288 H 118.91 3.14101 -0.136979 0
M  V30 1289 N 122.682 1.50554 0.465978 0
M  V30 1290 C 123.912 1.65323 1.23903 0
M  V30 1291 C 124.32 0.338051 1.86155 0
M  V30 1292 O 123.663 -0.690518 1.70228 0
M  V30 1293 C 123.725 2.69048 2.3844 0
M  V30 1294 C 123.389 4.12462 1.96784 0
M  V30 1295 C 124.386 4.98168 1.48745 0
M  V30 1296 C 122.071 4.58407 2.05349 0
M  V30 1297 C 124.065 6.27868 1.0982 0
M  V30 1298 C 121.752 5.88112 1.66035 0
M  V30 1299 C 122.75 6.72668 1.18349 0
M  V30 1300 O 122.438 7.99951 0.795825 0
M  V30 1301 H 122.17 0.558629 0.38067 0
M  V30 1302 H 124.724 1.97561 0.562022 0
M  V30 1303 H 122.954 2.32062 3.09328 0
M  V30 1304 H 124.643 2.72985 3.0039 0
M  V30 1305 H 125.409 4.63885 1.41546 0
M  V30 1306 H 121.288 3.92735 2.41414 0
M  V30 1307 H 124.832 6.93819 0.725293 0
M  V30 1308 H 120.729 6.21914 1.72895 0
M  V30 1309 H 121.497 8.13265 0.924222 0
M  V30 1310 N 124.16 -0.719506 1.40217 0
M  V30 1311 C 125.123 -1.8153 1.39927 0
M  V30 1312 C 126.123 -1.58095 0.293723 0
M  V30 1313 O 127.313 -1.65209 0.552429 0
M  V30 1314 C 124.445 -3.19561 1.18716 0
M  V30 1315 H 125.638 -1.83186 2.37451 0
M  V30 1316 H 123.191 -0.924746 1.26008 0
M  V30 1317 H 123.926 -3.23557 0.219366 0
M  V30 1318 H 123.711 -3.3797 1.98793 0
M  V30 1319 H 125.201 -3.99598 1.21291 0
M  V30 1320 N 125.638 -1.25649 -0.95132 0
M  V30 1321 C 126.887 -1.09988 -1.69073 0
M  V30 1322 C 127.2 0.358355 -1.92289 0
M  V30 1323 O 128.406 0.635466 -2.63958 0
M  V30 1324 C 126.862 -1.92012 -3.044 0
M  V30 1325 C 126.47 -3.42347 -2.88968 0
M  V30 1326 C 128.214 -1.8493 -3.82101 0
M  V30 1327 C 126.121 -4.16655 -4.19705 0
M  V30 1328 H 125.051 -0.407993 -0.63408 0
M  V30 1329 H 127.702 -1.49873 -1.05879 0
M  V30 1330 H 126.084 -1.44952 -3.68517 0
M  V30 1331 H 127.258 -3.97104 -2.33762 0
M  V30 1332 H 125.573 -3.50557 -2.24719 0
M  V30 1333 H 128.17 -2.37739 -4.78941 0
M  V30 1334 H 128.513 -0.817883 -4.08187 0
M  V30 1335 H 129.046 -2.29758 -3.2474 0
M  V30 1336 H 125.785 -5.20224 -3.98807 0
M  V30 1337 H 125.305 -3.66681 -4.74663 0
M  V30 1338 H 126.984 -4.24551 -4.88227 0
M  V30 1339 N 127.117 1.15442 -1.07289 0
M  V30 1340 C 128.064 2.20161 -0.692653 0
M  V30 1341 C 129.034 1.63073 0.31564 0
M  V30 1342 O 130.219 1.89725 0.202235 0
M  V30 1343 C 127.359 3.44967 -0.0959509 0
M  V30 1344 C 126.472 4.16256 -1.15564 0
M  V30 1345 C 125.607 5.28609 -0.524011 0
M  V30 1346 C 124.646 5.91715 -1.56653 0
M  V30 1347 N 123.783 6.9554 -0.957531 0
M  V30 1348 H 128.623 2.52037 -1.59002 0
M  V30 1349 H 126.16 1.2378 -0.794798 0
M  V30 1350 H 128.118 4.16341 0.267628 0
M  V30 1351 H 126.748 3.1361 0.764772 0
M  V30 1352 H 125.8 3.43385 -1.6368 0
M  V30 1353 H 127.112 4.59268 -1.94613 0
M  V30 1354 H 126.266 6.06604 -0.108032 0
M  V30 1355 H 125.005 4.86787 0.29825 0
M  V30 1356 H 124.01 5.12433 -1.9923 0
M  V30 1357 H 125.235 6.35614 -2.39107 0
M  V30 1358 H 123.181 6.55814 -0.156162 0
M  V30 1359 H 123.098 7.36977 -1.68526 0
M  V30 1360 H 124.366 7.77435 -0.567032 0
M  V30 1361 N 128.595 0.856903 1.32268 0
M  V30 1362 C 129.525 0.31858 2.31316 0
M  V30 1363 C 130.506 -0.583487 1.59779 0
M  V30 1364 O 131.691 -0.503259 1.87566 0
M  V30 1365 C 128.821 -0.491979 3.43798 0
M  V30 1366 C 127.775 0.315849 4.26833 0
M  V30 1367 C 127.101 -0.619586 5.31098 0
M  V30 1368 C 128.401 1.54282 4.98993 0
M  V30 1369 H 130.095 1.14621 2.76591 0
M  V30 1370 H 127.641 0.552613 1.32974 0
M  V30 1371 H 129.594 -0.879012 4.1213 0
M  V30 1372 H 128.318 -1.35299 2.97257 0
M  V30 1373 H 126.977 0.684664 3.6015 0
M  V30 1374 H 126.625 -1.47751 4.8081 0
M  V30 1375 H 126.325 -0.0830621 5.87541 0
M  V30 1376 H 127.849 -1.00375 6.02293 0
M  V30 1377 H 129.263 1.22796 5.59995 0
M  V30 1378 H 127.66 2.01745 5.65172 0
M  V30 1379 H 128.73 2.30285 4.26728 0
M  V30 1380 N 130.073 -1.45103 0.615059 0
M  V30 1381 C 131.35 -1.95549 0.0448276 0
M  V30 1382 C 131.73 -1.55737 -1.4251 0
M  V30 1383 O 131.078 -0.823556 -2.13143 0
M  V30 1384 C 131.288 -3.48098 0.250785 0
M  V30 1385 C 132.636 -4.24384 0.135509 0
M  V30 1386 O 133.66 -3.55738 0.181299 0
M  V30 1387 O 132.519 -5.46493 0.0268878 0
M  V30 1388 H 129.613 -0.8264 -0.0314845 0
M  V30 1389 H 132.159 -1.55232 0.685642 0
M  V30 1390 H 130.931 -3.7007 1.27139 0
M  V30 1391 H 130.554 -3.95323 -0.424937 0
M  V30 1392 N 131.551 -0.354651 -1.53558 0
M  V30 1393 C 132.828 0.294281 -1.93374 0
M  V30 1394 C 133.208 1.67313 -1.28723 0
M  V30 1395 O 132.556 2.24179 -0.442247 0
M  V30 1396 C 132.766 0.355445 -3.47185 0
M  V30 1397 C 134.114 0.601007 -4.20325 0
M  V30 1398 O 135.138 0.437106 -3.53508 0
M  V30 1399 O 133.997 0.919322 -5.38712 0
M  V30 1400 H 131.091 0.174033 -0.808481 0
M  V30 1401 H 133.637 -0.406638 -1.64756 0
M  V30 1402 H 132.409 -0.611729 -3.86489 0
M  V30 1403 H 132.032 1.1027 -3.82003 0
M  V30 1404 N 133.029 1.57378 -0.0835403 0
M  V30 1405 C 133.961 2.10389 0.909338 0
M  V30 1406 C 134.974 1.03858 1.25369 0
M  V30 1407 O 136.163 1.31338 1.20882 0
M  V30 1408 C 133.263 2.55908 2.2218 0
M  V30 1409 C 132.436 3.86145 2.05453 0
M  V30 1410 C 131.495 4.17633 3.20108 0
M  V30 1411 O 130.521 4.87043 2.94581 0
M  V30 1412 N 131.723 3.72113 4.45547 0
M  V30 1413 H 134.488 2.962 0.456657 0
M  V30 1414 H 132.049 1.61579 0.101877 0
M  V30 1415 H 134.041 2.74027 2.97811 0
M  V30 1416 H 132.611 1.75171 2.58909 0
M  V30 1417 H 131.831 3.7729 1.1422 0
M  V30 1418 H 133.119 4.7137 1.91541 0
M  V30 1419 H 132.517 3.16062 4.69171 0
M  V30 1420 H 131.074 3.95409 5.18165 0
M  V30 1421 N 134.507 -0.190092 1.56449 0
M  V30 1422 C 135.753 -0.906472 1.82084 0
M  V30 1423 C 136.108 -1.80677 0.661335 0
M  V30 1424 O 135.401 -1.88501 -0.343237 0
M  V30 1425 C 135.595 -1.75382 3.1141 0
M  V30 1426 C 135.424 -0.937053 4.39829 0
M  V30 1427 C 134.194 -0.619507 5.01488 0
M  V30 1428 C 136.392 -0.2874 5.13496 0
M  V30 1429 N 134.374 0.215367 6.13522 0
M  V30 1430 C 135.745 0.409454 6.18646 0
M  V30 1431 C 137.8 -0.203639 4.97483 0
M  V30 1432 C 136.503 1.1821 7.0952 0
M  V30 1433 C 138.529 0.555622 5.88784 0
M  V30 1434 C 137.891 1.24091 6.93384 0
M  V30 1435 H 133.99 -0.310931 0.717528 0
M  V30 1436 H 136.574 -0.174821 1.93914 0
M  V30 1437 H 134.745 -2.45703 3.00806 0
M  V30 1438 H 136.477 -2.41006 3.25112 0
M  V30 1439 H 133.232 -0.945126 4.64074 0
M  V30 1440 H 133.656 0.622562 6.74131 0
M  V30 1441 H 138.298 -0.719099 4.1664 0
M  V30 1442 H 136.016 1.70897 7.89823 0
M  V30 1443 H 139.602 0.621854 5.78467 0
M  V30 1444 H 138.482 1.81901 7.62812 0
M  V30 1445 N 135.985 -1.50799 -0.457987 0
M  V30 1446 C 137.213 -1.66218 -1.23203 0
M  V30 1447 C 137.628 -0.350894 -1.85511 0
M  V30 1448 O 136.985 0.668546 -1.69814 0
M  V30 1449 C 137.036 -2.76291 -2.33121 0
M  V30 1450 O 136.757 -4.02338 -1.73366 0
M  V30 1451 C 138.258 -3.028 -3.2377 0
M  V30 1452 H 135.478 -0.558361 -0.372121 0
M  V30 1453 H 138.022 -1.97099 -0.545179 0
M  V30 1454 H 136.177 -2.48068 -2.97558 0
M  V30 1455 H 136.591 -4.63312 -2.4585 0
M  V30 1456 H 138.065 -3.8345 -3.97077 0
M  V30 1457 H 138.542 -2.14385 -3.83322 0
M  V30 1458 H 139.148 -3.32604 -2.65056 0
M  V30 1459 N 137.463 0.71206 -1.40597 0
M  V30 1460 C 138.709 1.47416 -1.39271 0
M  V30 1461 C 139.042 1.942 0.00388791 0
M  V30 1462 O 138.317 1.68403 0.973179 0
M  V30 1463 C 138.6 2.69774 -2.38525 0
M  V30 1464 C 138.453 2.28861 -3.87224 0
M  V30 1465 C 139.772 3.71939 -2.35264 0
M  V30 1466 H 136.891 0.534713 -0.5072 0
M  V30 1467 H 139.533 0.812375 -1.71757 0
M  V30 1468 H 137.683 3.26238 -2.10953 0
M  V30 1469 H 139.355 1.77852 -4.25636 0
M  V30 1470 H 137.598 1.60824 -4.02887 0
M  V30 1471 H 138.269 3.16584 -4.52193 0
M  V30 1472 H 140.745 3.25113 -2.59694 0
M  V30 1473 H 139.621 4.55186 -3.06753 0
M  V30 1474 H 139.882 4.20484 -1.36549 0
M  V30 1475 N 138.941 1.26152 0.944643 0
M  V30 1476 C 140.357 1.03189 1.21754 0
M  V30 1477 C 140.557 -0.245112 2.00004 0
M  V30 1478 O 139.613 -0.955176 2.33736 0
M  V30 1479 C 140.926 2.26119 1.98219 0
M  V30 1480 C 142.474 2.30984 2.11224 0
M  V30 1481 C 142.949 3.53597 2.91089 0
M  V30 1482 N 144.44 3.54053 2.98664 0
M  V30 1483 C 145.175 4.45593 3.60881 0
M  V30 1484 N 144.671 5.47416 4.24626 0
M  V30 1485 N 146.464 4.33252 3.58119 0
M  V30 1486 H 138.615 2.08177 0.421437 0
M  V30 1487 H 140.878 0.914723 0.248969 0
M  V30 1488 H 140.584 3.18984 1.48128 0
M  V30 1489 H 140.458 2.3009 2.98895 0
M  V30 1490 H 142.845 1.38635 2.60508 0
M  V30 1491 H 142.926 2.31026 1.09821 0
M  V30 1492 H 142.57 4.46273 2.42493 0
M  V30 1493 H 142.5 3.50802 3.92741 0
M  V30 1494 H 144.991 2.80403 2.53343 0
M  V30 1495 H 145.304 6.13459 4.69987 0
M  V30 1496 H 143.649 5.51278 4.23223 0
M  V30 1497 H 146.84 3.52924 3.0751 0
M  V30 1498 H 147.013 5.04786 4.06319 0
M  V30 1499 N 140.419 -1.14872 1.07899 0
M  V30 1500 C 141.83 -1.67367 0.827363 0
M  V30 1501 C 142.181 -1.85236 -0.646693 0
M  V30 1502 O 141.306 -1.55974 -1.50004 0
M  V30 1503 C 141.901 -3.04016 1.49532 0
M  V30 1504 C 140.46 -3.53566 1.29106 0
M  V30 1505 C 139.607 -2.29161 1.56143 0
M  V30 1506 H 142.558 -0.990083 1.24028 0
M  V30 1507 H 142.579 -3.69219 0.919643 0
M  V30 1508 H 142.091 -2.90978 2.56814 0
M  V30 1509 H 140.192 -3.71835 0.238713 0
M  V30 1510 H 140.305 -4.34661 2.01511 0
M  V30 1511 H 138.669 -2.34978 0.982717 0
M  V30 1512 H 139.452 -2.18705 2.64619 0
M  V30 1513 N 141.898 -0.863906 -1.31812 0
M  V30 1514 C 143.146 -0.470904 -1.96537 0
M  V30 1515 C 143.467 0.978771 -1.68657 0
M  V30 1516 O 142.737 1.6853 -0.998717 0
M  V30 1517 H 141.317 -0.171148 -0.72713 0
M  V30 1518 H 143.979 -1.10236 -1.60729 0
M  V30 1519 H 143.075 -0.623616 -3.05806 0
M  V30 1520 N 143.376 1.44774 -0.622745 0
M  V30 1521 C 144.309 2.27792 0.136329 0
M  V30 1522 C 145.287 1.38041 0.859264 0
M  V30 1523 O 146.471 1.67478 0.86506 0
M  V30 1524 C 143.598 3.16776 1.19878 0
M  V30 1525 C 142.644 4.22575 0.57731 0
M  V30 1526 S 143.477 5.31825 -0.626294 0
M  V30 1527 C 144.633 6.24377 0.436378 0
M  V30 1528 H 144.866 2.91824 -0.567967 0
M  V30 1529 H 142.399 1.48838 -0.410677 0
M  V30 1530 H 144.357 3.68596 1.80686 0
M  V30 1531 H 143.018 2.5198 1.87523 0
M  V30 1532 H 142.211 4.84818 1.37721 0
M  V30 1533 H 141.813 3.73974 0.0440439 0
M  V30 1534 H 144.105 6.64689 1.31128 0
M  V30 1535 H 145.048 7.07941 -0.150271 0
M  V30 1536 H 145.456 5.59381 0.758513 0
M  V30 1537 N 144.854 0.36279 1.53368 0
M  V30 1538 C 145.784 -0.476976 2.28576 0
M  V30 1539 C 146.765 -1.08631 1.30894 0
M  V30 1540 O 147.95 -1.10409 1.59761 0
M  V30 1541 C 145.08 -1.61828 3.07293 0
M  V30 1542 C 144.034 -1.13633 4.1264 0
M  V30 1543 C 143.36 -2.36766 4.79423 0
M  V30 1544 C 144.66 -0.223061 5.21823 0
M  V30 1545 H 146.354 0.150474 2.99022 0
M  V30 1546 H 143.9 0.0738103 1.43811 0
M  V30 1547 H 145.853 -2.21237 3.58653 0
M  V30 1548 H 144.577 -2.27292 2.34533 0
M  V30 1549 H 143.236 -0.564945 3.62221 0
M  V30 1550 H 142.884 -3.0068 4.03238 0
M  V30 1551 H 142.584 -2.05192 5.50609 0
M  V30 1552 H 144.108 -2.96865 5.33576 0
M  V30 1553 H 145.522 -0.724545 5.68703 0
M  V30 1554 H 143.919 0.001678 6.001 0
M  V30 1555 H 144.989 0.735553 4.79289 0
M  V30 1556 N 146.332 -1.57332 0.0918853 0
M  V30 1557 C 147.56 -1.98574 -0.581048 0
M  V30 1558 C 147.975 -0.970903 -1.61923 0
M  V30 1559 O 147.332 0.0399054 -1.82456 0
M  V30 1560 C 147.383 -3.39872 -1.23164 0
M  V30 1561 O 147.104 -4.37469 -0.234989 0
M  V30 1562 C 148.605 -3.96099 -1.99049 0
M  V30 1563 H 145.825 -0.65261 -0.156018 0
M  V30 1564 H 148.369 -2.0379 0.170225 0
M  V30 1565 H 146.524 -3.35679 -1.93386 0
M  V30 1566 H 146.938 -5.19751 -0.70418 0
M  V30 1567 H 148.412 -4.97127 -2.39934 0
M  V30 1568 H 148.889 -3.3374 -2.85507 0
M  V30 1569 H 149.495 -4.03755 -1.3365 0
M  V30 1570 N 147.81 0.181792 -1.56548 0
M  V30 1571 C 148.76 1.22961 -1.92002 0
M  V30 1572 C 149.744 1.40331 -0.787146 0
M  V30 1573 O 150.936 1.42478 -1.05019 0
M  V30 1574 C 148.065 2.57144 -2.27446 0
M  V30 1575 C 147.151 2.43512 -3.47222 0
M  V30 1576 N 147.542 1.99577 -4.64761 0
M  V30 1577 C 145.84 2.74368 -3.51622 0
M  V30 1578 C 146.541 1.98156 -5.46909 0
M  V30 1579 N 145.517 2.40164 -4.8767 0
M  V30 1580 H 149.319 0.881462 -2.8037 0
M  V30 1581 H 146.833 0.390141 -1.57644 0
M  V30 1582 H 148.83 3.32847 -2.51035 0
M  V30 1583 H 147.49 2.92771 -1.40411 0
M  V30 1584 H 148.501 1.70078 -4.89177 0
M  V30 1585 H 145.178 3.14102 -2.75038 0
M  V30 1586 H 146.568 1.65975 -6.51077 0
M  V30 1587 N 149.288 1.51039 0.449983 0
M  V30 1588 C 150.535 1.63081 1.20045 0
M  V30 1589 C 150.863 0.341024 1.91487 0
M  V30 1590 O 150.118 -0.674276 1.83717 0
M  V30 1591 C 150.417 2.77556 2.25161 0
M  V30 1592 C 150.083 4.17289 1.70823 0
M  V30 1593 C 148.745 4.55305 1.55725 0
M  V30 1594 C 151.097 5.04536 1.3074 0
M  V30 1595 C 148.425 5.78287 0.989999 0
M  V30 1596 C 150.777 6.28085 0.754482 0
M  V30 1597 C 149.441 6.64885 0.590308 0
M  V30 1598 H 148.711 0.596755 0.439277 0
M  V30 1599 H 151.358 1.85037 0.49333 0
M  V30 1600 H 149.663 2.49771 3.01863 0
M  V30 1601 H 151.36 2.84073 2.83026 0
M  V30 1602 H 147.95 3.8731 1.83546 0
M  V30 1603 H 152.134 4.75782 1.41229 0
M  V30 1604 H 147.39 6.05456 0.850451 0
M  V30 1605 H 151.564 6.95038 0.435324 0
M  V30 1606 H 149.191 7.60055 0.14862 0
M  V30 1607 N 150.766 -0.704594 1.40972 0
M  V30 1608 C 151.991 -1.49858 1.43378 0
M  V30 1609 C 152.416 -1.88061 0.038184 0
M  V30 1610 O 151.774 -1.5402 -0.956425 0
M  V30 1611 C 151.822 -2.74333 2.34038 0
M  V30 1612 O 150.926 -3.7147 1.7912 0
M  V30 1613 H 150.267 -0.45139 0.486974 0
M  V30 1614 H 152.797 -0.866832 1.8533 0
M  V30 1615 H 152.807 -3.22741 2.49604 0
M  V30 1616 H 151.482 -2.45863 3.35446 0
M  V30 1617 H 150.059 -3.30363 1.72958 0
M  V30 1618 N 152.244 -1.26651 -0.937939 0
M  V30 1619 C 153.469 -1.15279 -1.72411 0
M  V30 1620 C 153.894 0.287866 -1.85884 0
M  V30 1621 O 153.252 1.20855 -1.35143 0
M  V30 1622 C 153.3 -1.83028 -3.10698 0
M  V30 1623 O 152.404 -1.12128 -3.96864 0
M  V30 1624 H 151.745 -0.401504 -0.528858 0
M  V30 1625 H 154.275 -1.67531 -1.1745 0
M  V30 1626 H 154.285 -1.89981 -3.6107 0
M  V30 1627 H 152.96 -2.87833 -3.00208 0
M  V30 1628 H 151.537 -1.13173 -3.55312 0
M  V30 1629 N 153.722 1.14298 -1.08507 0
M  V30 1630 C 154.67 2.21483 -0.710483 0
M  V30 1631 C 155.664 1.66998 0.284234 0
M  V30 1632 O 156.87 1.79401 0.146692 0
M  V30 1633 H 153.245 0.721578 -0.211729 0
M  V30 1634 H 155.216 2.50348 -1.62384 0
M  V30 1635 C 153.965 3.4743 -0.137007 0
M  V30 1636 H 153.288 3.89686 -0.893592 0
M  V30 1637 H 154.728 4.2391 0.0872789 0
M  V30 1638 C 153.187 3.17548 1.12538 0
M  V30 1639 O 153.717 3.35437 2.21009 0
M  V30 1640 N 151.923 2.71499 1.03617 0
M  V30 1641 H 151.47 2.57143 0.153403 0
M  V30 1642 H 151.428 2.51881 1.88158 0
M  V30 1643 N 155.201 0.870884 1.31352 0
M  V30 1644 C 156.449 0.48132 1.96285 0
M  V30 1645 C 156.77 -0.969813 1.69173 0
M  V30 1646 O 156.04 -1.67998 1.00764 0
M  V30 1647 H 154.62 0.175002 0.726212 0
M  V30 1648 H 157.282 1.11087 1.60143 0
M  V30 1649 H 156.378 0.639825 3.05471 0
M  V30 1650 N 156.679 -1.44442 0.630414 0
M  V30 1651 C 157.907 -2.06414 0.141671 0
M  V30 1652 C 158.322 -1.47105 -1.18345 0
M  V30 1653 O 157.679 -0.593662 -1.72574 0
M  V30 1654 C 157.73 -3.61494 0.0199784 0
M  V30 1655 O 157.451 -4.18594 1.29269 0
M  V30 1656 C 158.952 -4.40499 -0.497544 0
M  V30 1657 H 156.172 -0.666292 0.0793452 0
M  V30 1658 H 158.716 -1.85323 0.864614 0
M  V30 1659 H 156.871 -3.8185 -0.653402 0
M  V30 1660 H 157.285 -5.12026 1.13707 0
M  V30 1661 H 158.759 -5.49433 -0.531708 0
M  V30 1662 H 159.236 -4.11895 -1.52445 0
M  V30 1663 H 159.842 -4.25061 0.142562 0
M  V30 1664 N 158.157 -0.370918 -1.53173 0
M  V30 1665 C 159.573 -0.0200818 -1.59587 0
M  V30 1666 C 159.773 1.46279 -1.38581 0
M  V30 1667 O 158.829 2.22506 -1.19363 0
M  V30 1668 C 160.142 -0.4808 -2.96831 0
M  V30 1669 C 161.69 -0.435477 -3.09956 0
M  V30 1670 C 162.165 -0.872092 -4.4962 0
M  V30 1671 N 163.656 -0.827364 -4.55751 0
M  V30 1672 C 164.391 -1.13683 -5.62018 0
M  V30 1673 N 163.887 -1.51584 -6.76014 0
M  V30 1674 N 165.68 -1.05927 -5.52029 0
M  V30 1675 H 157.831 -1.33652 -1.65079 0
M  V30 1676 H 160.094 -0.546634 -0.774529 0
M  V30 1677 H 159.8 -1.51577 -3.1736 0
M  V30 1678 H 159.674 0.129796 -3.76977 0
M  V30 1679 H 162.061 0.590371 -2.89134 0
M  V30 1680 H 162.142 -1.08164 -2.31806 0
M  V30 1681 H 161.786 -1.89608 -4.71181 0
M  V30 1682 H 161.716 -0.203127 -5.26208 0
M  V30 1683 H 164.207 -0.548216 -3.73902 0
M  V30 1684 H 164.52 -1.73609 -7.53047 0
M  V30 1685 H 162.865 -1.55454 -6.77391 0
M  V30 1686 H 166.056 -0.762321 -4.61851 0
M  V30 1687 H 166.229 -1.30378 -6.34749 0
M  V30 1688 N 159.635 1.57281 -0.100228 0
M  V30 1689 C 160.865 1.98591 0.569681 0
M  V30 1690 C 161.273 0.978315 1.61943 0
M  V30 1691 O 160.616 -0.0396108 1.83657 0
M  V30 1692 C 160.678 3.36282 1.271 0
M  V30 1693 C 160.342 4.55488 0.371409 0
M  V30 1694 C 161.339 5.18491 -0.382504 0
M  V30 1695 C 159.024 5.01474 0.287965 0
M  V30 1696 C 161.018 6.25852 -1.20779 0
M  V30 1697 C 158.705 6.08701 -0.540965 0
M  V30 1698 C 159.703 6.70755 -1.28749 0
M  V30 1699 O 159.391 7.75914 -2.10269 0
M  V30 1700 H 159.123 0.65752 0.156982 0
M  V30 1701 H 161.677 2.0463 -0.177734 0
M  V30 1702 H 159.907 3.26941 2.0651 0
M  V30 1703 H 161.596 3.62005 1.83595 0
M  V30 1704 H 162.362 4.83891 -0.3278 0
M  V30 1705 H 158.241 4.52932 0.858689 0
M  V30 1706 H 161.785 6.74218 -1.79096 0
M  V30 1707 H 157.682 6.42732 -0.597131 0
M  V30 1708 H 158.45 7.92925 -2.03007 0
M  V30 1709 N 161.113 -0.173488 1.56642 0
M  V30 1710 C 162.361 -0.888706 1.81512 0
M  V30 1711 C 162.682 -1.82875 0.676872 0
M  V30 1712 O 161.952 -1.93536 -0.303414 0
M  V30 1713 H 160.532 -0.331164 0.669582 0
M  V30 1714 H 163.194 -0.173823 1.94123 0
M  V30 1715 H 162.29 -1.46691 2.75478 0
M  V30 1716 N 162.591 -1.51276 -0.441967 0
M  V30 1717 C 164.002 -1.56244 -1.02199 0
M  V30 1718 C 164.353 -0.383149 -1.92422 0
M  V30 1719 O 163.478 0.500613 -2.1053 0
M  V30 1720 C 164.073 -2.83162 -1.86024 0
M  V30 1721 C 162.632 -2.90716 -2.39084 0
M  V30 1722 C 161.779 -2.50858 -1.18175 0
M  V30 1723 H 164.73 -1.5712 -0.223416 0
M  V30 1724 H 164.751 -2.66663 -2.71425 0
M  V30 1725 H 164.263 -3.68974 -1.20331 0
M  V30 1726 H 162.364 -2.09323 -3.08244 0
M  V30 1727 H 162.477 -3.94266 -2.72198 0
M  V30 1728 H 160.841 -2.03951 -1.52565 0
M  V30 1729 H 161.624 -3.3901 -0.541001 0
M  V30 1730 N 164.069 0.697108 -1.41344 0
M  V30 1731 C 165.299 1.48377 -1.43763 0
M  V30 1732 C 165.707 1.89156 -0.0408726 0
M  V30 1733 O 165.05 1.57239 0.949812 0
M  V30 1734 C 165.112 2.7781 -2.2817 0
M  V30 1735 C 164.776 2.59244 -3.76353 0
M  V30 1736 C 165.773 2.25292 -4.68551 0
M  V30 1737 C 163.458 2.74933 -4.20378 0
M  V30 1738 C 165.452 2.07264 -6.02761 0
M  V30 1739 C 163.139 2.56521 -5.54653 0
M  V30 1740 C 164.137 2.22737 -6.4566 0
M  V30 1741 O 163.825 2.04485 -7.77458 0
M  V30 1742 H 163.557 0.463842 -0.491759 0
M  V30 1743 H 166.111 0.865934 -1.86255 0
M  V30 1744 H 164.341 3.41995 -1.8049 0
M  V30 1745 H 166.03 3.39608 -2.22309 0
M  V30 1746 H 166.796 2.12787 -4.35829 0
M  V30 1747 H 162.675 3.00213 -3.49848 0
M  V30 1748 H 166.219 1.80817 -6.73759 0
M  V30 1749 H 162.116 2.68616 -5.86955 0
M  V30 1750 H 162.884 2.1926 -7.88586 0
M  V30 1751 N 165.547 1.27147 0.931209 0
M  V30 1752 C 166.793 1.13446 1.68101 0
M  V30 1753 C 167.126 -0.319628 1.91552 0
M  V30 1754 O 166.401 -1.23407 1.50336 0
M  V30 1755 C 166.684 1.91482 3.0497 0
M  V30 1756 C 166.537 3.44855 2.88782 0
M  V30 1757 C 167.856 1.71651 4.05246 0
M  V30 1758 H 164.975 0.413498 0.610072 0
M  V30 1759 H 167.617 1.56261 1.08086 0
M  V30 1760 H 165.767 1.55095 3.56199 0
M  V30 1761 H 167.439 3.9105 2.44698 0
M  V30 1762 H 165.682 3.71373 2.24198 0
M  V30 1763 H 166.353 3.94694 3.85902 0
M  V30 1764 H 168.829 2.0337 3.63015 0
M  V30 1765 H 167.705 2.28651 4.99009 0
M  V30 1766 H 167.966 0.663555 4.37092 0
M  V30 1767 N 167.025 -1.13721 1.09112 0
M  V30 1768 C 167.972 -2.19031 0.727591 0
M  V30 1769 C 168.942 -1.63555 -0.289656 0
M  V30 1770 O 170.127 -1.90023 -0.172026 0
M  V30 1771 C 167.267 -3.4477 0.15082 0
M  V30 1772 C 166.38 -4.14365 1.22172 0
M  V30 1773 C 165.515 -5.27709 0.608042 0
M  V30 1774 C 164.554 -5.89147 1.66047 0
M  V30 1775 N 163.691 -6.93929 1.06806 0
M  V30 1776 H 168.531 -2.49475 1.62991 0
M  V30 1777 H 166.068 -1.22499 0.81439 0
M  V30 1778 H 168.026 -4.16714 -0.201358 0
M  V30 1779 H 166.656 -3.14787 -0.714783 0
M  V30 1780 H 165.708 -3.40737 1.69122 0
M  V30 1781 H 167.02 -4.56114 2.01895 0
M  V30 1782 H 166.174 -6.06355 0.204523 0
M  V30 1783 H 164.913 -4.872 -0.220769 0
M  V30 1784 H 163.918 -5.09198 2.07357 0
M  V30 1785 H 165.143 -6.31729 2.49189 0
M  V30 1786 H 163.089 -6.55483 0.260476 0
M  V30 1787 H 163.006 -7.34202 1.8023 0
M  V30 1788 H 164.274 -7.76434 0.690644 0
M  V30 1789 N 168.503 -0.877838 -1.30888 0
M  V30 1790 C 169.433 -0.35534 -2.3078 0
M  V30 1791 C 170.414 0.557994 -1.60687 0
M  V30 1792 O 171.599 0.473355 -1.88343 0
M  V30 1793 C 168.729 0.437221 -3.44537 0
M  V30 1794 C 167.683 -0.383715 -4.26276 0
M  V30 1795 C 167.009 0.535014 -5.32017 0
M  V30 1796 C 168.309 -1.62201 -4.96476 0
M  V30 1797 H 170.003 -1.19007 -2.74732 0
M  V30 1798 H 167.549 -0.573698 -1.32078 0
M  V30 1799 H 169.502 0.813334 -4.13477 0
M  V30 1800 H 168.226 1.30553 -2.99372 0
M  V30 1801 H 166.885 -0.741874 -3.59015 0
M  V30 1802 H 166.533 1.40083 -4.831 0
M  V30 1803 H 166.233 -0.0104211 -5.87599 0
M  V30 1804 H 167.757 0.907799 -6.03814 0
M  V30 1805 H 169.171 -1.31689 -5.5797 0
M  V30 1806 H 167.568 -2.10711 -5.61891 0
M  V30 1807 H 168.638 -2.37044 -4.23011 0
M  V30 1808 N 169.982 1.44106 -0.638065 0
M  V30 1809 C 171.207 2.0685 -0.150916 0
M  V30 1810 C 171.632 1.47417 1.16833 0
M  V30 1811 O 170.99 0.578264 1.71831 0
M  V30 1812 C 171.038 3.60555 -0.05708 0
M  V30 1813 O 170.142 4.00465 0.984972 0
M  V30 1814 H 169.483 0.658151 -0.0879399 0
M  V30 1815 H 172.013 1.84865 -0.876707 0
M  V30 1816 H 172.023 4.07789 0.131232 0
M  V30 1817 H 170.698 4.03193 -1.02021 0
M  V30 1818 H 169.275 3.64849 0.770672 0
M  V30 1819 N 171.46 0.379036 1.52974 0
M  V30 1820 C 172.706 -0.199244 2.02422 0
M  V30 1821 C 173.061 -1.4532 1.26095 0
M  V30 1822 O 172.354 -1.88377 0.34996 0
M  V30 1823 C 172.548 -0.53096 3.53434 0
M  V30 1824 C 172.377 0.689298 4.44386 0
M  V30 1825 C 171.147 1.20546 4.9071 0
M  V30 1826 C 173.345 1.55856 4.90116 0
M  V30 1827 N 171.327 2.38434 5.65705 0
M  V30 1828 C 172.698 2.58396 5.63588 0
M  V30 1829 C 174.753 1.57986 4.7217 0
M  V30 1830 C 173.456 3.62939 6.21022 0
M  V30 1831 C 175.482 2.6143 5.30479 0
M  V30 1832 C 174.844 3.62693 6.03849 0
M  V30 1833 H 170.943 -0.0352671 0.781204 0
M  V30 1834 H 173.527 0.526614 1.87443 0
M  V30 1835 H 171.698 -1.22588 3.68547 0
M  V30 1836 H 173.43 -1.0955 3.89591 0
M  V30 1837 H 170.185 0.768022 4.67331 0
M  V30 1838 H 170.609 2.98055 6.07859 0
M  V30 1839 H 175.251 0.810475 4.14959 0
M  V30 1840 H 172.969 4.40751 6.77321 0
M  V30 1841 H 176.555 2.63949 5.18481 0
M  V30 1842 H 175.435 4.41424 6.48163 0
M  V30 1843 N 172.938 -1.57226 0.108567 0
M  V30 1844 C 174.215 -1.86333 -0.594939 0
M  V30 1845 C 174.595 -1.00788 -1.85486 0
M  V30 1846 O 173.943 -0.0839293 -2.28346 0
M  V30 1847 C 174.153 -3.37265 -0.897405 0
M  V30 1848 C 175.501 -4.05629 -1.25501 0
M  V30 1849 O 176.525 -3.42224 -0.987998 0
M  V30 1850 O 175.384 -5.17531 -1.75567 0
M  V30 1851 H 172.478 -0.771018 -0.2991 0
M  V30 1852 H 175.024 -1.69102 0.142283 0
M  V30 1853 H 173.796 -3.913 -0.00413806 0
M  V30 1854 H 173.419 -3.59889 -1.69014 0
M  V30 1855 N 174.416 0.165178 -1.56732 0
M  V30 1856 C 175.379 1.18822 -1.95995 0
M  V30 1857 C 176.379 1.3685 -0.84431 0
M  V30 1858 O 177.569 1.34152 -1.11126 0
M  V30 1859 C 174.701 2.5521 -2.26011 0
M  V30 1860 H 175.894 0.851825 -2.87548 0
M  V30 1861 H 173.447 0.407857 -1.50885 0
M  V30 1862 H 174.182 2.93852 -1.37191 0
M  V30 1863 H 173.967 2.43489 -3.07336 0
M  V30 1864 H 175.457 3.28927 -2.57288 0
M  V30 1865 N 175.894 1.51508 0.433938 0
M  V30 1866 C 177.122 1.68157 1.20543 0
M  V30 1867 C 177.537 0.380362 1.84929 0
M  V30 1868 O 176.894 -0.641446 1.70856 0
M  V30 1869 C 176.945 2.79965 2.28696 0
M  V30 1870 O 176.666 4.05045 1.66943 0
M  V30 1871 C 178.167 3.07912 3.18912 0
M  V30 1872 H 175.387 0.56421 0.363191 0
M  V30 1873 H 177.931 1.97941 0.513754 0
M  V30 1874 H 176.086 2.5277 2.93574 0
M  V30 1875 H 176.5 4.67165 2.38448 0
M  V30 1876 H 177.974 3.89719 3.90926 0
M  V30 1877 H 178.451 2.20456 3.79863 0
M  V30 1878 H 179.057 3.36779 2.59731 0
M  V30 1879 N 177.372 -0.689602 1.41712 0
M  V30 1880 C 178.319 -1.80345 1.44029 0
M  V30 1881 C 179.289 -1.63478 0.293948 0
M  V30 1882 O 180.474 -1.84244 0.495869 0
M  V30 1883 C 177.614 -3.18272 1.33405 0
M  V30 1884 C 176.727 -3.46529 2.57956 0
M  V30 1885 C 175.862 -4.74103 2.39582 0
M  V30 1886 C 174.901 -4.95347 3.5958 0
M  V30 1887 N 174.038 -6.14151 3.40239 0
M  V30 1888 H 178.878 -1.77698 2.39222 0
M  V30 1889 H 176.415 -0.867688 1.18784 0
M  V30 1890 H 178.373 -3.97956 1.25246 0
M  V30 1891 H 177.003 -3.2008 0.418164 0
M  V30 1892 H 176.055 -2.61207 2.76542 0
M  V30 1893 H 177.367 -3.58126 3.47199 0
M  V30 1894 H 176.521 -5.61853 2.28924 0
M  V30 1895 H 175.26 -4.64763 1.47805 0
M  V30 1896 H 174.265 -4.06044 3.70686 0
M  V30 1897 H 175.49 -5.06542 4.52318 0
M  V30 1898 H 173.436 -6.06013 2.51167 0
M  V30 1899 H 173.353 -6.26543 4.23061 0
M  V30 1900 H 174.621 -7.04619 3.33365 0
M  V30 1901 N 178.85 -1.27639 -0.924453 0
M  V30 1902 C 180.127 -1.04887 -1.651 0
M  V30 1903 C 180.507 0.415327 -2.06974 0
M  V30 1904 O 179.855 1.39923 -1.80648 0
M  V30 1905 C 180.065 -2.01348 -2.85061 0
M  V30 1906 C 181.413 -2.30899 -3.56329 0
M  V30 1907 O 182.437 -1.99348 -2.95193 0
M  V30 1908 O 181.296 -2.84699 -4.66485 0
M  V30 1909 H 178.39 -0.400083 -0.723784 0
M  V30 1910 H 180.936 -1.38916 -0.974703 0
M  V30 1911 H 179.708 -3.0008 -2.51133 0
M  V30 1912 H 179.331 -1.679 -3.6041 0
M  V30 1913 N 180.328 1.1314 -1.09713 0
M  V30 1914 C 181.258 2.20748 -0.761102 0
M  V30 1915 C 182.239 1.68061 0.262566 0
M  V30 1916 O 183.424 1.93765 0.129977 0
M  V30 1917 C 180.554 3.46812 -0.184054 0
M  V30 1918 C 179.508 4.12606 -1.13757 0
M  V30 1919 C 178.834 5.33031 -0.422083 0
M  V30 1920 C 180.134 4.59603 -2.48118 0
M  V30 1921 H 181.828 2.49113 -1.66082 0
M  V30 1922 H 179.374 1.19734 -0.799987 0
M  V30 1923 H 181.327 4.21353 0.0631215 0
M  V30 1924 H 180.051 3.17851 0.750868 0
M  V30 1925 H 178.71 3.40036 -1.37007 0
M  V30 1926 H 178.358 5.00335 0.517072 0
M  V30 1927 H 178.058 5.77999 -1.05788 0
M  V30 1928 H 179.582 6.10325 -0.183277 0
M  V30 1929 H 180.996 5.25552 -2.29059 0
M  V30 1930 H 179.393 5.15321 -3.07514 0
M  V30 1931 H 180.463 3.73971 -3.08665 0
M  V30 1932 N 181.806 0.884767 1.30421 0
M  V30 1933 C 182.754 0.340869 2.30089 0
M  V30 1934 C 183.748 -0.55201 1.60154 0
M  V30 1935 O 184.954 -0.436467 1.74628 0
M  V30 1936 H 181.329 0.0915739 0.746404 0
M  V30 1937 H 183.3 1.19513 2.73421 0
M  V30 1938 C 182.049 -0.429779 3.45034 0
M  V30 1939 H 181.372 0.248024 3.9903 0
M  V30 1940 H 182.812 -0.775445 4.16849 0
M  V30 1941 C 181.271 -1.62677 2.95022 0
M  V30 1942 O 181.801 -2.72614 2.95033 0
M  V30 1943 N 180.007 -1.46387 2.51036 0
M  V30 1944 H 179.554 -0.569506 2.51226 0
M  V30 1945 H 179.512 -2.26612 2.17932 0
M  V30 1946 N 183.284 -1.43765 0.645699 0
M  V30 1947 C 184.531 -2.01898 0.15604 0
M  V30 1948 C 184.859 -1.50887 -1.22733 0
M  V30 1949 O 184.114 -0.689271 -1.8316 0
M  V30 1950 C 184.413 -3.57238 0.107679 0
M  V30 1951 C 184.079 -4.27564 1.43178 0
M  V30 1952 C 182.741 -4.46492 1.7944 0
M  V30 1953 C 185.093 -4.67454 2.30513 0
M  V30 1954 C 182.421 -5.02573 3.02716 0
M  V30 1955 C 184.773 -5.24901 3.53074 0
M  V30 1956 C 183.437 -5.42046 3.89541 0
M  V30 1957 H 182.707 -0.738797 0.057099 0
M  V30 1958 H 185.354 -1.72341 0.834912 0
M  V30 1959 H 183.659 -3.86293 -0.654618 0
M  V30 1960 H 185.356 -3.99965 -0.287938 0
M  V30 1961 H 181.946 -4.13171 1.13963 0
M  V30 1962 H 186.13 -4.5253 2.0379 0
M  V30 1963 H 181.386 -5.14033 3.31028 0
M  V30 1964 H 185.56 -5.54758 4.20971 0
M  V30 1965 H 183.187 -5.85268 4.85145 0
M  V30 1966 N 184.763 -0.387143 -1.52771 0
M  V30 1967 C 186.011 0.195349 -2.01154 0
M  V30 1968 C 186.332 1.475 -1.27549 0
M  V30 1969 O 185.602 1.91878 -0.394924 0
M  V30 1970 H 184.182 0.075178 -0.743207 0
M  V30 1971 H 186.844 -0.518337 -1.87881 0
M  V30 1972 H 185.94 0.407096 -3.09434 0
M  V30 1973 N 186.241 1.57166 -0.116904 0
M  V30 1974 C 187.49 1.94298 0.541407 0
M  V30 1975 C 187.803 1.00236 1.67964 0
M  V30 1976 O 189.009 1.26826 2.40057 0
M  V30 1977 C 187.465 3.45306 1.01449 0
M  V30 1978 C 187.073 4.47899 -0.0951738 0
M  V30 1979 C 188.817 3.91361 1.6443 0
M  V30 1980 C 186.724 5.90083 0.394491 0
M  V30 1981 H 185.654 0.725308 0.206019 0
M  V30 1982 H 188.305 1.82446 -0.196419 0
M  V30 1983 H 186.687 3.52385 1.80667 0
M  V30 1984 H 187.861 4.52486 -0.871374 0
M  V30 1985 H 186.176 4.11583 -0.631505 0
M  V30 1986 H 188.773 4.95004 2.02176 0
M  V30 1987 H 189.116 3.3122 2.52189 0
M  V30 1988 H 189.649 3.87073 0.917559 0
M  V30 1989 H 186.388 6.53974 -0.447004 0
M  V30 1990 H 185.908 5.88921 1.13722 0
M  V30 1991 H 187.587 6.41307 0.856399 0
M  V30 1992 N 187.719 -0.156864 1.56817 0
M  V30 1993 C 189.135 -0.50916 1.5126 0
M  V30 1994 C 189.335 -1.83897 0.823658 0
M  V30 1995 O 188.391 -2.49469 0.390055 0
M  V30 1996 C 189.704 -0.52857 2.96018 0
M  V30 1997 C 191.252 -0.614771 3.06903 0
M  V30 1998 C 191.727 -0.664938 4.53147 0
M  V30 1999 N 193.218 -0.727433 4.57452 0
M  V30 2000 C 193.953 -0.787067 5.67973 0
M  V30 2001 N 193.449 -0.806649 6.88088 0
M  V30 2002 N 195.242 -0.827195 5.5598 0
M  V30 2003 H 187.393 0.714935 2.00006 0
M  V30 2004 H 189.656 0.259526 0.911784 0
M  V30 2005 H 189.362 0.380154 3.49639 0
M  V30 2006 H 189.236 -1.36998 3.51442 0
M  V30 2007 H 191.623 -1.51392 2.53307 0
M  V30 2008 H 191.704 0.253597 2.5454 0
M  V30 2009 H 191.348 0.230011 5.07379 0
M  V30 2010 H 191.278 -1.54966 5.03282 0
M  V30 2011 H 193.769 -0.719998 3.70978 0
M  V30 2012 H 194.082 -0.853727 7.6807 0
M  V30 2013 H 192.427 -0.774687 6.90669 0
M  V30 2014 H 195.618 -0.808998 4.61056 0
M  V30 2015 H 195.791 -0.870206 6.4213 0
M  V30 2016 N 189.197 -1.51736 -0.425897 0
M  V30 2017 C 190.427 -1.68549 -1.19476 0
M  V30 2018 C 190.835 -0.387288 -1.85194 0
M  V30 2019 O 190.178 0.645142 -1.71999 0
M  V30 2020 C 190.24 -2.75275 -2.31223 0
M  V30 2021 C 189.904 -4.17534 -1.8578 0
M  V30 2022 C 190.901 -5.01936 -1.35485 0
M  V30 2023 C 188.586 -4.6369 -1.93123 0
M  V30 2024 C 190.58 -6.30559 -0.931347 0
M  V30 2025 C 188.267 -5.92307 -1.50384 0
M  V30 2026 C 189.265 -6.75569 -1.00473 0
M  V30 2027 O 188.953 -8.0178 -0.583452 0
M  V30 2028 H 188.685 -0.568525 -0.365725 0
M  V30 2029 H 191.239 -1.98982 -0.509444 0
M  V30 2030 H 189.469 -2.40182 -3.03067 0
M  V30 2031 H 191.158 -2.80853 -2.93047 0
M  V30 2032 H 191.924 -4.67475 -1.29197 0
M  V30 2033 H 187.803 -3.98997 -2.30916 0
M  V30 2034 H 191.347 -6.95498 -0.541084 0
M  V30 2035 H 187.244 -6.2628 -1.56346 0
M  V30 2036 H 188.012 -8.1543 -0.708275 0
M  V30 2037 N 190.675 0.682077 -1.42076 0
M  V30 2038 C 192.091 0.994324 -1.24841 0
M  V30 2039 C 192.291 2.0096 -0.147389 0
M  V30 2040 O 191.347 2.47822 0.483782 0
M  V30 2041 C 192.66 1.50607 -2.60265 0
M  V30 2042 C 194.208 1.62421 -2.6756 0
M  V30 2043 C 194.683 2.16994 -4.03333 0
M  V30 2044 N 196.174 2.24337 -4.0525 0
M  V30 2045 C 196.909 2.67621 -5.07116 0
M  V30 2046 N 196.405 3.1041 -6.19368 0
M  V30 2047 N 198.198 2.67305 -4.94474 0
M  V30 2048 H 190.349 0.00973908 -2.12398 0
M  V30 2049 H 192.612 0.0668593 -0.945639 0
M  V30 2050 H 192.318 0.834583 -3.41654 0
M  V30 2051 H 192.192 2.48602 -2.83684 0
M  V30 2052 H 194.579 2.28678 -1.86521 0
M  V30 2053 H 194.66 0.629352 -2.47937 0
M  V30 2054 H 194.304 1.51349 -4.84826 0
M  V30 2055 H 194.234 3.17258 -4.20304 0
M  V30 2056 H 196.725 1.94158 -3.24209 0
M  V30 2057 H 197.038 3.42103 -6.92954 0
M  V30 2058 H 195.383 3.08286 -6.22884 0
M  V30 2059 H 198.574 2.33233 -4.05857 0
M  V30 2060 H 198.747 3.00718 -5.73997 0
M  V30 2061 N 192.153 1.28127 0.917671 0
M  V30 2062 C 193.383 1.17722 1.6978 0
M  V30 2063 C 193.791 -0.267261 1.87303 0
M  V30 2064 O 193.134 -1.19286 1.39702 0
M  V30 2065 C 193.196 1.79958 3.11216 0
M  V30 2066 C 192.86 3.29187 3.16993 0
M  V30 2067 C 193.857 4.25679 2.98485 0
M  V30 2068 C 191.542 3.70075 3.39632 0
M  V30 2069 C 193.536 5.61035 3.02521 0
M  V30 2070 C 191.223 5.05557 3.433 0
M  V30 2071 C 192.221 6.00847 3.24764 0
M  V30 2072 O 191.909 7.33859 3.28187 0
M  V30 2073 H 191.641 0.409788 0.537634 0
M  V30 2074 H 194.195 1.69694 1.15728 0
M  V30 2075 H 192.425 1.22475 3.66793 0
M  V30 2076 H 194.114 1.64125 3.71238 0
M  V30 2077 H 194.88 3.95426 2.80826 0
M  V30 2078 H 190.759 2.96373 3.53106 0
M  V30 2079 H 194.303 6.35388 2.87971 0
M  V30 2080 H 190.2 5.35462 3.60486 0
M  V30 2081 H 190.968 7.42436 3.44575 0
M  V30 2082 N 193.631 -1.12557 1.10312 0
M  V30 2083 C 194.908 -1.80363 0.756878 0
M  V30 2084 C 195.288 -1.97067 -0.756824 0
M  V30 2085 O 194.636 -1.54601 -1.68259 0
M  V30 2086 C 194.846 -3.14812 1.50647 0
M  V30 2087 C 196.194 -3.90029 1.67817 0
M  V30 2088 O 197.218 -3.24464 1.46974 0
M  V30 2089 O 196.077 -5.07652 2.02365 0
M  V30 2090 H 193.171 -0.780667 0.272926 0
M  V30 2091 H 195.717 -1.19404 1.20586 0
M  V30 2092 H 194.489 -2.97936 2.53672 0
M  V30 2093 H 194.112 -3.83478 1.05026 0
M  V30 2094 N 195.109 -0.891671 -1.2995 0
M  V30 2095 C 196.355 -0.523649 -1.96544 0
M  V30 2096 C 196.71 0.918394 -1.69066 0
M  V30 2097 O 196.003 1.64122 -0.988659 0
M  V30 2098 C 196.197 -0.742868 -3.49594 0
M  V30 2099 C 196.026 -2.20467 -3.9195 0
M  V30 2100 C 194.796 -2.85055 -4.17219 0
M  V30 2101 C 196.994 -3.17912 -4.04273 0
M  V30 2102 N 194.976 -4.21762 -4.46083 0
M  V30 2103 C 196.347 -4.39712 -4.37097 0
M  V30 2104 C 198.402 -3.1361 -3.86721 0
M  V30 2105 C 197.105 -5.5776 -4.54199 0
M  V30 2106 C 199.131 -4.30936 -4.05028 0
M  V30 2107 C 198.493 -5.51504 -4.38204 0
M  V30 2108 H 194.592 -0.241072 -0.743914 0
M  V30 2109 H 197.176 -1.15081 -1.5705 0
M  V30 2110 H 195.347 -0.14515 -3.88129 0
M  V30 2111 H 197.079 -0.341081 -4.0326 0
M  V30 2112 H 193.834 -2.35889 -4.10674 0
M  V30 2113 H 194.258 -4.92382 -4.64638 0
M  V30 2114 H 198.9 -2.21489 -3.60142 0
M  V30 2115 H 196.618 -6.50379 -4.79618 0
M  V30 2116 H 200.204 -4.29085 -3.92909 0
M  V30 2117 H 199.084 -6.40778 -4.52077 0
M  V30 2118 N 196.587 1.43421 -0.653314 0
M  V30 2119 C 197.534 2.30768 0.0382271 0
M  V30 2120 C 198.504 1.44755 0.814576 0
M  V30 2121 O 199.689 1.73624 0.791162 0
M  V30 2122 C 196.829 3.30336 0.998599 0
M  V30 2123 C 195.942 4.31448 0.218342 0
M  V30 2124 C 195.077 5.18098 1.17252 0
M  V30 2125 C 194.116 6.10902 0.382702 0
M  V30 2126 N 193.253 6.90176 1.28848 0
M  V30 2127 H 198.093 2.89357 -0.712511 0
M  V30 2128 H 195.63 1.42548 -0.363128 0
M  V30 2129 H 197.588 3.86572 1.56901 0
M  V30 2130 H 196.218 2.73397 1.71621 0
M  V30 2131 H 195.27 3.77506 -0.46836 0
M  V30 2132 H 196.582 4.97227 -0.395812 0
M  V30 2133 H 195.736 5.7896 1.81356 0
M  V30 2134 H 194.475 4.52444 1.82058 0
M  V30 2135 H 193.48 5.49128 -0.27169 0
M  V30 2136 H 194.705 6.78598 -0.260957 0
M  V30 2137 H 192.651 6.27171 1.92334 0
M  V30 2138 H 192.568 7.52478 0.728887 0
M  V30 2139 H 193.836 7.55543 1.91766 0
M  V30 2140 N 198.065 0.39524 1.52563 0
M  V30 2141 C 199.028 -0.425001 2.25225 0
M  V30 2142 C 200.028 -0.985266 1.27079 0
M  V30 2143 O 201.218 -0.866332 1.5113 0
M  V30 2144 C 198.35 -1.59686 3.01186 0
M  V30 2145 H 199.543 0.211233 2.99155 0
M  V30 2146 H 197.096 0.147472 1.55603 0
M  V30 2147 H 197.831 -2.27035 2.31572 0
M  V30 2148 H 197.616 -1.20176 3.73229 0
M  V30 2149 H 199.106 -2.17743 3.5634 0
M  V30 2150 N 199.544 -1.57102 0.125237 0
M  V30 2151 C 200.774 -1.99472 -0.538015 0
M  V30 2152 C 201.182 -1.00395 -1.60366 0
M  V30 2153 O 200.525 0.0103875 -1.83697 0
M  V30 2154 C 200.587 -3.38262 -1.21734 0
M  V30 2155 C 200.251 -4.56021 -0.298897 0
M  V30 2156 C 201.248 -5.17817 0.464943 0
M  V30 2157 C 198.933 -5.01869 -0.208149 0
M  V30 2158 C 200.927 -6.23852 1.3072 0
M  V30 2159 C 198.614 -6.07763 0.637736 0
M  V30 2160 C 199.612 -6.68622 1.39403 0
M  V30 2161 O 199.3 -7.7247 2.22586 0
M  V30 2162 H 199.032 -0.659934 -0.146501 0
M  V30 2163 H 201.586 -2.04321 0.210267 0
M  V30 2164 H 199.816 -3.30185 -2.01282 0
M  V30 2165 H 201.505 -3.6488 -1.77813 0
M  V30 2166 H 202.271 -4.83308 0.404741 0
M  V30 2167 H 198.15 -4.54241 -0.786522 0
M  V30 2168 H 201.694 -6.71284 1.898 0
M  V30 2169 H 197.591 -6.41701 0.699309 0
M  V30 2170 H 198.359 -7.89595 2.15596 0
M  V30 2171 N 201.022 0.148545 -1.56898 0
M  V30 2172 C 202.438 0.501131 -1.51528 0
M  V30 2173 C 202.638 1.83458 -0.833399 0
M  V30 2174 O 201.694 2.49259 -0.40328 0
M  V30 2175 C 203.007 0.512864 -2.96294 0
M  V30 2176 C 204.555 0.598487 -3.07225 0
M  V30 2177 C 205.03 0.640897 -4.53494 0
M  V30 2178 N 206.521 0.703163 -4.57832 0
M  V30 2179 C 207.256 0.756935 -5.68382 0
M  V30 2180 N 206.752 0.770147 -6.88506 0
M  V30 2181 N 208.545 0.797698 -5.56411 0
M  V30 2182 H 200.696 -0.725532 -1.99624 0
M  V30 2183 H 202.959 -0.264358 -0.910395 0
M  V30 2184 H 202.665 -0.398691 -3.49433 0
M  V30 2185 H 202.539 1.35133 -3.52163 0
M  V30 2186 H 204.926 1.50046 -2.54106 0
M  V30 2187 H 205.007 -0.267093 -2.54402 0
M  V30 2188 H 204.651 -0.256915 -5.0725 0
M  V30 2189 H 204.581 1.52295 -5.04097 0
M  V30 2190 H 207.072 0.700314 -3.71354 0
M  V30 2191 H 207.385 0.812983 -7.68512 0
M  V30 2192 H 205.73 0.738049 -6.9107 0
M  V30 2193 H 208.921 0.784535 -4.61479 0
M  V30 2194 H 209.094 0.83614 -6.42583 0
M  V30 2195 N 202.5 1.5196 0.417844 0
M  V30 2196 C 203.432 1.70895 1.52733 0
M  V30 2197 C 204.445 0.589405 1.51756 0
M  V30 2198 O 205.634 0.864312 1.56179 0
M  V30 2199 C 202.734 1.72627 2.91639 0
M  V30 2200 C 201.907 3.01479 3.16905 0
M  V30 2201 C 200.966 2.95139 4.35637 0
M  V30 2202 O 199.992 3.69059 4.3334 0
M  V30 2203 N 201.194 2.12328 5.40275 0
M  V30 2204 H 203.959 2.66612 1.36888 0
M  V30 2205 H 201.52 1.50089 0.607037 0
M  V30 2206 H 203.512 1.65928 3.6912 0
M  V30 2207 H 202.082 0.844216 3.00985 0
M  V30 2208 H 201.302 3.21895 2.27546 0
M  V30 2209 H 202.59 3.86736 3.30625 0
M  V30 2210 H 201.988 1.51685 5.44985 0
M  V30 2211 H 200.545 2.11494 6.16534 0
M  V30 2212 N 203.978 -0.674533 1.42435 0
M  V30 2213 C 204.91 -1.80005 1.41883 0
M  V30 2214 C 205.923 -1.59667 0.31787 0
M  V30 2215 O 207.112 -1.68781 0.580973 0
M  V30 2216 C 204.212 -3.17114 1.19549 0
M  V30 2217 C 203.385 -3.64299 2.42084 0
M  V30 2218 C 202.444 -4.80142 2.15291 0
M  V30 2219 O 201.47 -4.90673 2.88493 0
M  V30 2220 N 202.672 -5.68869 1.1562 0
M  V30 2221 H 205.437 -1.80964 2.38898 0
M  V30 2222 H 202.998 -0.857633 1.37318 0
M  V30 2223 H 204.99 -3.92267 0.995417 0
M  V30 2224 H 203.56 -3.11053 0.310569 0
M  V30 2225 H 202.78 -2.79822 2.77657 0
M  V30 2226 H 204.068 -3.92567 3.23679 0
M  V30 2227 H 203.466 -5.63012 0.550765 0
M  V30 2228 H 202.023 -6.43833 1.016 0
M  V30 2229 N 205.456 -1.28612 -0.910864 0
M  V30 2230 C 206.733 -1.06632 -1.63979 0
M  V30 2231 C 207.113 0.393351 -2.07403 0
M  V30 2232 O 206.461 1.37999 -1.82122 0
M  V30 2233 C 206.671 -2.0436 -2.8291 0
M  V30 2234 C 208.019 -2.34666 -3.5386 0
M  V30 2235 O 209.043 -2.02467 -2.93062 0
M  V30 2236 O 207.902 -2.89631 -4.63439 0
M  V30 2237 H 204.996 -0.407737 -0.7195 0
M  V30 2238 H 207.542 -1.39942 -0.959914 0
M  V30 2239 H 206.314 -3.02727 -2.47936 0
M  V30 2240 H 205.937 -1.71714 -3.58609 0
M  V30 2241 N 206.934 1.1197 -1.10907 0
M  V30 2242 C 207.864 2.19928 -0.784473 0
M  V30 2243 C 208.845 1.6833 0.244726 0
M  V30 2244 O 210.03 1.93892 0.109418 0
M  V30 2245 C 207.16 3.46597 -0.220827 0
M  V30 2246 C 206.114 4.11376 -1.18127 0
M  V30 2247 C 205.44 5.32554 -0.478594 0
M  V30 2248 C 206.74 4.56945 -2.52979 0
M  V30 2249 H 208.434 2.47337 -1.68715 0
M  V30 2250 H 205.98 1.18879 -0.812642 0
M  V30 2251 H 207.933 4.21396 0.0184278 0
M  V30 2252 H 206.657 3.1863 0.717113 0
M  V30 2253 H 205.316 3.38564 -1.40606 0
M  V30 2254 H 204.964 5.00856 0.463976 0
M  V30 2255 H 204.664 5.76844 -1.11912 0
M  V30 2256 H 206.188 6.10096 -0.248 0
M  V30 2257 H 207.602 5.23093 -2.3462 0
M  V30 2258 H 205.999 5.1203 -3.12962 0
M  V30 2259 H 207.069 3.70676 -3.12614 0
M  V30 2260 N 208.412 0.89855 1.29475 0
M  V30 2261 C 209.637 0.538561 2.00285 0
M  V30 2262 C 210.062 -0.869135 1.66816 0
M  V30 2263 O 209.42 -1.57831 0.892145 0
M  V30 2264 C 209.468 0.736475 3.52999 0
M  V30 2265 O 208.572 -0.211537 4.11857 0
M  V30 2266 H 207.913 0.210563 0.62973 0
M  V30 2267 H 210.443 1.20982 1.64998 0
M  V30 2268 H 210.453 0.640685 4.02938 0
M  V30 2269 H 209.128 1.76276 3.76696 0
M  V30 2270 H 207.705 -0.0682991 3.72837 0
M  V30 2271 N 209.89 -1.43072 0.660911 0
M  V30 2272 C 211.138 -2.01323 0.177094 0
M  V30 2273 C 211.459 -1.5245 -1.2159 0
M  V30 2274 O 210.729 -0.740322 -1.81373 0
M  V30 2275 H 209.309 -0.744382 0.0624804 0
M  V30 2276 H 211.971 -1.75179 0.854305 0
M  V30 2277 H 211.067 -3.11649 0.167641 0
M  V30 2278 N 211.368 -0.403325 -1.52352 0
M  V30 2279 C 212.645 0.232611 -1.94212 0
M  V30 2280 C 213.025 1.63133 -1.33981 0
M  V30 2281 O 212.373 2.22659 -0.513344 0
M  V30 2282 C 212.583 0.244811 -3.4814 0
M  V30 2283 C 213.931 0.46698 -4.22024 0
M  V30 2284 O 214.955 0.324419 -3.5472 0
M  V30 2285 O 213.814 0.74747 -5.41364 0
M  V30 2286 H 210.908 0.148223 -0.813609 0
M  V30 2287 H 213.454 -0.458848 -1.63379 0
M  V30 2288 H 212.226 -0.734378 -3.84347 0
M  V30 2289 H 211.849 0.980611 -3.85318 0
M  V30 2290 N 212.846 1.57033 -0.133567 0
M  V30 2291 C 213.779 2.11824 0.848872 0
M  V30 2292 C 214.757 1.03833 1.2513 0
M  V30 2293 O 215.941 1.31579 1.34978 0
M  V30 2294 C 213.068 2.62692 2.138 0
M  V30 2295 C 212.114 3.82705 1.88253 0
M  V30 2296 S 212.947 5.2438 1.08563 0
M  V30 2297 C 214.103 5.78627 2.38624 0
M  V30 2298 H 214.336 2.94824 0.38289 0
M  V30 2299 H 211.869 1.5419 0.0804796 0
M  V30 2300 H 213.827 2.92652 2.87863 0
M  V30 2301 H 212.488 1.79847 2.57515 0
M  V30 2302 H 211.681 4.16496 2.83809 0
M  V30 2303 H 211.283 3.53437 1.22305 0
M  V30 2304 H 213.575 5.8924 3.34369 0
M  V30 2305 H 214.518 6.76443 2.09358 0
M  V30 2306 H 214.926 5.06783 2.48658 0
M  V30 2307 N 214.325 -0.140222 1.56975 0
M  V30 2308 C 215.55 -0.870414 1.88251 0
M  V30 2309 C 215.975 -1.73637 0.723312 0
M  V30 2310 O 215.333 -1.78329 -0.32689 0
M  V30 2311 C 215.381 -1.69737 3.18154 0
M  V30 2312 O 214.485 -2.80229 3.02565 0
M  V30 2313 H 213.826 -0.242025 0.61832 0
M  V30 2314 H 216.356 -0.128999 2.04193 0
M  V30 2315 H 216.366 -2.09099 3.50345 0
M  V30 2316 H 215.041 -1.06152 4.02125 0
M  V30 2317 H 213.618 -2.44224 2.81796 0
M  V30 2318 N 215.803 -1.52179 -0.40978 0
M  V30 2319 C 217.219 -1.40968 -0.74835 0
M  V30 2320 C 217.419 -0.513657 -1.94843 0
M  V30 2321 O 216.475 0.0208026 -2.52491 0
M  V30 2322 C 217.788 -2.83483 -1.0029 0
M  V30 2323 C 219.336 -2.92821 -1.10565 0
M  V30 2324 C 219.811 -4.36303 -1.39296 0
M  V30 2325 N 221.302 -4.39535 -1.46162 0
M  V30 2326 C 222.037 -5.47614 -1.70018 0
M  V30 2327 N 221.533 -6.65812 -1.91483 0
M  V30 2328 N 223.326 -5.35129 -1.72027 0
M  V30 2329 H 215.477 -2.0897 0.380186 0
M  V30 2330 H 217.74 -0.94185 0.107805 0
M  V30 2331 H 217.446 -3.51168 -0.193461 0
M  V30 2332 H 217.32 -3.24487 -1.92323 0
M  V30 2333 H 219.707 -2.25318 -1.90568 0
M  V30 2334 H 219.788 -2.55276 -0.16369 0
M  V30 2335 H 219.432 -5.04366 -0.598109 0
M  V30 2336 H 219.362 -4.71385 -2.34743 0
M  V30 2337 H 221.853 -3.54332 -1.31367 0
M  V30 2338 H 222.166 -7.43964 -2.09134 0
M  V30 2339 H 220.511 -6.68879 -1.88749 0
M  V30 2340 H 223.702 -4.41764 -1.54796 0
M  V30 2341 H 223.875 -6.19433 -1.9028 0
M  V30 2342 N 217.281 0.66697 -1.42791 0
M  V30 2343 C 218.558 1.4234 -1.34159 0
M  V30 2344 C 218.938 2.11093 0.0172729 0
M  V30 2345 O 218.286 2.03808 1.03318 0
M  V30 2346 C 218.496 2.41942 -2.51526 0
M  V30 2347 C 219.844 3.06353 -2.93995 0
M  V30 2348 O 220.868 2.52269 -2.51473 0
M  V30 2349 O 219.727 4.04376 -3.67617 0
M  V30 2350 H 216.821 0.635277 -0.529483 0
M  V30 2351 H 219.367 0.695034 -1.54814 0
M  V30 2352 H 218.139 1.89991 -3.42081 0
M  V30 2353 H 217.762 3.22249 -2.32898 0
M  V30 2354 N 218.759 1.29093 0.90403 0
M  V30 2355 C 219.707 1.13727 2.02901 0
M  V30 2356 C 220.701 0.0539853 1.69314 0
M  V30 2357 O 221.907 0.213469 1.7873 0
M  V30 2358 H 218.282 0.35117 0.664969 0
M  V30 2359 H 220.253 2.08982 2.13001 0
M  V30 2360 C 219.002 0.826066 3.37745 0
M  V30 2361 H 218.325 1.65164 3.64089 0
M  V30 2362 H 219.765 0.758559 4.17159 0
M  V30 2363 C 218.224 -0.470541 3.33598 0
M  V30 2364 O 218.754 -1.49792 3.72727 0
M  V30 2365 N 216.96 -0.474812 2.86695 0
M  V30 2366 H 216.507 0.361692 2.55048 0
M  V30 2367 H 216.465 -1.34236 2.84303 0
M  V30 2368 N 220.237 -1.11381 1.11499 0
M  V30 2369 C 221.483 -1.83403 0.865512 0
M  V30 2370 C 221.816 -1.84459 -0.607329 0
M  V30 2371 O 221.091 -1.29811 -1.44842 0
M  V30 2372 C 221.374 -3.30552 1.42855 0
M  V30 2373 C 221.227 -3.37886 2.96906 0
M  V30 2374 C 222.546 -4.26643 1.08 0
M  V30 2375 H 219.665 -0.665879 0.31587 0
M  V30 2376 H 222.307 -1.30601 1.37998 0
M  V30 2377 H 220.457 -3.75648 0.990985 0
M  V30 2378 H 222.129 -3.01343 3.49271 0
M  V30 2379 H 220.372 -2.78088 3.32941 0
M  V30 2380 H 221.043 -4.41458 3.31389 0
M  V30 2381 H 223.519 -3.89729 1.45775 0
M  V30 2382 H 222.395 -5.27986 1.50072 0
M  V30 2383 H 222.656 -4.42099 -0.00915037 0
M  V30 2384 N 221.715 -0.905404 -1.28997 0
M  V30 2385 C 222.665 -0.358713 -2.25161 0
M  V30 2386 C 223.649 0.524449 -1.52113 0
M  V30 2387 O 224.841 0.365534 -1.73184 0
M  V30 2388 C 221.97 0.407609 -3.40872 0
M  V30 2389 C 221.056 -0.490797 -4.21251 0
M  V30 2390 N 221.447 -1.60061 -4.79806 0
M  V30 2391 C 219.745 -0.289636 -4.45059 0
M  V30 2392 C 220.446 -2.15757 -5.40207 0
M  V30 2393 N 219.422 -1.44988 -5.23908 0
M  V30 2394 H 223.224 -1.20642 -2.67998 0
M  V30 2395 H 220.738 -0.757103 -1.43672 0
M  V30 2396 H 222.735 0.816046 -4.08835 0
M  V30 2397 H 221.395 1.25251 -2.9957 0
M  V30 2398 H 222.406 -1.98329 -4.7842 0
M  V30 2399 H 219.083 0.51643 -4.14294 0
M  V30 2400 H 220.473 -3.09069 -5.96595 0
M  V30 2401 N 223.193 1.4272 -0.668489 0
M  V30 2402 C 224.609 1.55992 -0.33745 0
M  V30 2403 C 224.809 1.64933 1.15756 0
M  V30 2404 O 223.865 1.61278 1.94282 0
M  V30 2405 C 225.178 2.81314 -1.06222 0
M  V30 2406 C 226.726 2.95078 -1.04394 0
M  V30 2407 C 227.201 4.23252 -1.74991 0
M  V30 2408 N 228.692 4.3015 -1.71829 0
M  V30 2409 C 229.427 5.28127 -2.23315 0
M  V30 2410 N 228.923 6.32293 -2.83156 0
M  V30 2411 N 230.716 5.19882 -2.13726 0
M  V30 2412 H 222.867 1.3516 -1.63846 0
M  V30 2413 H 225.13 0.650174 -0.689912 0
M  V30 2414 H 224.836 2.80823 -2.11734 0
M  V30 2415 H 224.71 3.72012 -0.62344 0
M  V30 2416 H 227.097 2.951 0.0028244 0
M  V30 2417 H 227.178 2.05627 -1.52155 0
M  V30 2418 H 226.822 4.2399 -2.79633 0
M  V30 2419 H 226.752 5.11626 -1.24685 0
M  V30 2420 H 229.243 3.55499 -1.28175 0
M  V30 2421 H 229.556 7.03398 -3.20079 0
M  V30 2422 H 227.901 6.32873 -2.87223 0
M  V30 2423 H 231.092 4.37423 -1.66669 0
M  V30 2424 H 231.265 5.96077 -2.54158 0
M  V30 2425 N 224.671 0.411399 1.52136 0
M  V30 2426 C 225.917 -0.156262 2.02799 0
M  V30 2427 C 226.272 -1.42613 1.29149 0
M  V30 2428 O 225.565 -1.87592 0.389839 0
M  V30 2429 C 225.759 -0.455872 3.54481 0
M  V30 2430 C 225.588 0.783404 4.42824 0
M  V30 2431 C 224.358 1.30928 4.88043 0
M  V30 2432 C 226.556 1.66217 4.86699 0
M  V30 2433 N 224.538 2.5038 5.6052 0
M  V30 2434 C 225.909 2.70292 5.5798 0
M  V30 2435 C 227.964 1.67966 4.68713 0
M  V30 2436 C 226.667 3.7603 6.13184 0
M  V30 2437 C 228.693 2.72624 5.24815 0
M  V30 2438 C 228.055 3.7542 5.9602 0
M  V30 2439 H 224.154 -0.0186886 0.781777 0
M  V30 2440 H 226.738 0.566255 1.86284 0
M  V30 2441 H 224.909 -1.14743 3.71064 0
M  V30 2442 H 226.641 -1.01261 3.91827 0
M  V30 2443 H 223.396 0.866977 4.65597 0
M  V30 2444 H 223.82 3.10881 6.014 0
M  V30 2445 H 228.462 0.898312 4.13147 0
M  V30 2446 H 226.18 4.55019 6.6782 0
M  V30 2447 H 229.766 2.74887 5.12765 0
M  V30 2448 H 228.646 4.55073 6.38654 0
M  V30 2449 N 226.149 -1.5696 0.141893 0
M  V30 2450 C 227.426 -1.87553 -0.555281 0
M  V30 2451 C 227.806 -1.04699 -1.83306 0
M  V30 2452 O 227.154 -0.132346 -2.28116 0
M  V30 2453 C 227.364 -3.39093 -0.825664 0
M  V30 2454 C 228.712 -4.08199 -1.16869 0
M  V30 2455 O 229.736 -3.44242 -0.915185 0
M  V30 2456 O 228.595 -5.21139 -1.6455 0
M  V30 2457 H 225.689 -0.777188 -0.282679 0
M  V30 2458 H 228.235 -1.68763 0.17812 0
M  V30 2459 H 227.007 -3.91221 0.0788633 0
M  V30 2460 H 226.63 -3.63393 -1.61343 0
M  V30 2461 N 227.627 0.131896 -1.57047 0
M  V30 2462 C 228.875 0.840269 -1.83804 0
M  V30 2463 C 229.196 1.81017 -0.72512 0
M  V30 2464 O 228.466 1.94272 0.251995 0
M  V30 2465 H 227.046 0.313294 -0.678127 0
M  V30 2466 H 229.708 0.122294 -1.94516 0
M  V30 2467 H 228.804 1.39335 -2.79271 0
M  V30 2468 N 229.106 1.52395 0.401703 0
M  V30 2469 C 230.336 1.70429 1.1678 0
M  V30 2470 C 230.744 0.416702 1.84554 0
M  V30 2471 O 230.087 -0.617697 1.73003 0
M  V30 2472 C 230.149 2.78919 2.26814 0
M  V30 2473 C 229.813 4.20437 1.79113 0
M  V30 2474 C 230.81 5.04028 1.27482 0
M  V30 2475 C 228.495 4.66704 1.85722 0
M  V30 2476 C 230.489 6.31961 0.830913 0
M  V30 2477 C 228.176 5.94625 1.40942 0
M  V30 2478 C 229.174 6.77082 0.897128 0
M  V30 2479 O 228.862 8.02607 0.455822 0
M  V30 2480 H 228.594 0.574272 0.356634 0
M  V30 2481 H 231.148 1.99767 0.477724 0
M  V30 2482 H 229.378 2.44973 2.99207 0
M  V30 2483 H 231.067 2.8548 2.88541 0
M  V30 2484 H 231.833 4.69471 1.21744 0
M  V30 2485 H 227.712 4.0262 2.24539 0
M  V30 2486 H 231.256 6.96271 0.430368 0
M  V30 2487 H 227.153 6.28688 1.46362 0
M  V30 2488 H 227.921 8.16453 0.578457 0
M  V30 2489 N 230.584 -0.659388 1.43143 0
M  V30 2490 C 231.83 -1.42145 1.44647 0
M  V30 2491 C 232.163 -1.9408 0.0681907 0
M  V30 2492 O 231.438 -1.71899 -0.910007 0
M  V30 2493 C 231.721 -2.60735 2.48373 0
M  V30 2494 C 231.574 -2.14332 3.95451 0
M  V30 2495 C 232.893 -3.62951 2.48906 0
M  V30 2496 H 230.012 -0.51552 0.526696 0
M  V30 2497 H 232.654 -0.748069 1.74654 0
M  V30 2498 H 230.804 -3.18184 2.22916 0
M  V30 2499 H 232.476 -1.61932 4.31944 0
M  V30 2500 H 230.719 -1.4576 4.08578 0
M  V30 2501 H 231.39 -2.99583 4.63631 0
M  V30 2502 H 233.866 -3.1525 2.71582 0
M  V30 2503 H 232.742 -4.43487 3.23435 0
M  V30 2504 H 233.003 -4.15126 1.52061 0
M  V30 2505 N 232.062 -1.29571 -0.897171 0
M  V30 2506 C 233.29 -1.20583 -1.68129 0
M  V30 2507 C 233.705 0.233181 -1.87354 0
M  V30 2508 O 233.062 1.15579 -1.41236 0
M  V30 2509 C 233.113 -1.91772 -3.06441 0
M  V30 2510 O 232.834 -3.30053 -2.88091 0
M  V30 2511 C 234.335 -1.89291 -4.00854 0
M  V30 2512 H 231.555 -0.417826 -0.525036 0
M  V30 2513 H 234.099 -1.70987 -1.12177 0
M  V30 2514 H 232.254 -1.45196 -3.59161 0
M  V30 2515 H 232.668 -3.65942 -3.75748 0
M  V30 2516 H 234.142 -2.43662 -4.95311 0
M  V30 2517 H 234.619 -0.869014 -4.30517 0
M  V30 2518 H 235.225 -2.35622 -3.54066 0
M  V30 2519 N 233.54 1.10788 -1.12088 0
M  V30 2520 C 234.77 1.86191 -0.895351 0
M  V30 2521 C 235.178 1.80763 0.558702 0
M  V30 2522 O 234.521 1.19188 1.39785 0
M  V30 2523 C 234.583 3.35659 -1.28737 0
M  V30 2524 C 234.247 3.64849 -2.75198 0
M  V30 2525 C 235.244 3.61757 -3.734 0
M  V30 2526 C 232.929 3.93641 -3.12013 0
M  V30 2527 C 234.923 3.87045 -5.06434 0
M  V30 2528 C 232.61 4.18585 -4.4523 0
M  V30 2529 C 233.608 4.15277 -5.42249 0
M  V30 2530 O 233.296 4.3959 -6.73065 0
M  V30 2531 H 233.028 0.595425 -0.32007 0
M  V30 2532 H 235.582 1.40992 -1.49367 0
M  V30 2533 H 233.812 3.81497 -0.63224 0
M  V30 2534 H 235.501 3.92441 -1.03656 0
M  V30 2535 H 236.267 3.39557 -3.46303 0
M  V30 2536 H 232.146 3.95348 -2.37109 0
M  V30 2537 H 235.69 3.84378 -5.82151 0
M  V30 2538 H 231.587 4.40264 -4.72057 0
M  V30 2539 H 232.355 4.57123 -6.78956 0
M  V30 2540 N 235.018 0.912232 1.28515 0
M  V30 2541 C 235.968 0.370649 2.24967 0
M  V30 2542 C 236.952 -0.516375 1.52389 0
M  V30 2543 O 238.144 -0.356345 1.73376 0
M  V30 2544 C 235.273 -0.389526 3.41083 0
M  V30 2545 C 234.359 0.51313 4.20984 0
M  V30 2546 N 234.75 1.62604 4.78951 0
M  V30 2547 C 233.048 0.313235 4.44899 0
M  V30 2548 C 233.749 2.18619 5.39055 0
M  V30 2549 N 232.725 1.47765 5.23132 0
M  V30 2550 H 236.527 1.22061 2.67354 0
M  V30 2551 H 234.041 0.764712 1.43269 0
M  V30 2552 H 236.038 -0.794353 4.09262 0
M  V30 2553 H 234.698 -1.2366 3.0023 0
M  V30 2554 H 235.709 2.00864 4.77362 0
M  V30 2555 H 232.386 -0.494452 4.14562 0
M  V30 2556 H 233.776 3.12228 5.94948 0
M  V30 2557 N 236.496 -1.42363 0.676048 0
M  V30 2558 C 237.745 -2.00745 0.196037 0
M  V30 2559 C 238.058 -1.54083 -1.20489 0
M  V30 2560 O 239.264 -2.04891 -1.78134 0
M  V30 2561 C 237.72 -3.58651 0.299616 0
M  V30 2562 C 237.328 -4.143 1.70468 0
M  V30 2563 C 239.072 -4.24326 -0.121619 0
M  V30 2564 C 236.979 -5.64574 1.76096 0
M  V30 2565 H 235.909 -0.750787 0.0695301 0
M  V30 2566 H 238.56 -1.63072 0.841412 0
M  V30 2567 H 236.942 -3.93833 -0.413673 0
M  V30 2568 H 238.116 -3.90575 2.44515 0
M  V30 2569 H 236.431 -3.61081 2.07387 0
M  V30 2570 H 239.028 -5.34607 -0.0997362 0
M  V30 2571 H 239.371 -3.99897 -1.15708 0
M  V30 2572 H 239.904 -3.94108 0.540706 0
M  V30 2573 H 236.643 -5.93804 2.77628 0
M  V30 2574 H 236.163 -5.90286 1.06406 0
M  V30 2575 H 237.842 -6.29013 1.51496 0
M  V30 2576 N 237.974 -0.419461 -1.51915 0
M  V30 2577 C 238.922 0.415502 -2.28859 0
M  V30 2578 C 239.916 1.03674 -1.3397 0
M  V30 2579 O 241.122 0.973757 -1.51387 0
M  V30 2580 H 237.497 0.152786 -0.736315 0
M  V30 2581 H 239.468 -0.254531 -2.97312 0
M  V30 2582 C 238.217 1.51425 -3.12995 0
M  V30 2583 H 237.54 1.04556 -3.85886 0
M  V30 2584 H 238.98 2.07208 -3.6992 0
M  V30 2585 C 237.439 2.48745 -2.27217 0
M  V30 2586 O 237.969 3.52871 -1.9195 0
M  V30 2587 N 236.175 2.19202 -1.90785 0
M  V30 2588 H 235.722 1.34556 -2.19664 0
M  V30 2589 H 235.68 2.84561 -1.33687 0
M  V30 2590 N 239.452 1.56882 -0.150215 0
M  V30 2591 C 240.677 2.01027 0.510184 0
M  V30 2592 C 241.102 1.02966 1.57415 0
M  V30 2593 O 240.46 0.00590158 1.81299 0
M  V30 2594 C 240.508 3.43899 1.08472 0
M  V30 2595 O 239.612 3.4885 2.19948 0
M  V30 2596 H 238.953 0.652233 0.124451 0
M  V30 2597 H 241.483 2.03093 -0.247894 0
M  V30 2598 H 241.493 3.82766 1.41259 0
M  V30 2599 H 240.168 4.14776 0.305582 0
M  V30 2600 H 238.745 3.21827 1.88366 0
M  V30 2601 N 240.93 -0.123565 1.57115 0
M  V30 2602 C 242.207 -0.862196 1.75572 0
M  V30 2603 C 242.587 -1.98279 0.724475 0
M  V30 2604 O 241.935 -2.27102 -0.252407 0
M  V30 2605 C 242.145 -1.38309 3.20424 0
M  V30 2606 C 243.493 -1.83724 3.82793 0
M  V30 2607 O 244.517 -1.47999 3.23998 0
M  V30 2608 O 243.376 -2.49685 4.86127 0
M  V30 2609 H 240.47 -0.409113 0.718718 0
M  V30 2610 H 243.016 -0.107661 1.69358 0
M  V30 2611 H 241.788 -0.578889 3.86994 0
M  V30 2612 H 241.411 -2.20046 3.31158 0
M  V30 2613 N 242.408 -1.52605 -0.393616 0
M  V30 2614 C 243.655 -1.67424 -1.1391 0
M  V30 2615 C 243.983 -0.411859 -1.90089 0
M  V30 2616 O 243.238 0.605626 -1.86093 0
M  V30 2617 C 243.537 -2.85721 -2.14705 0
M  V30 2618 C 243.203 -4.23342 -1.55218 0
M  V30 2619 C 241.865 -4.60771 -1.3872 0
M  V30 2620 C 244.217 -5.09041 -1.11924 0
M  V30 2621 C 241.545 -5.81563 -0.774689 0
M  V30 2622 C 243.897 -6.30452 -0.520853 0
M  V30 2623 C 242.561 -6.66617 -0.343134 0
M  V30 2624 H 241.831 -0.612648 -0.416826 0
M  V30 2625 H 244.478 -1.8674 -0.424315 0
M  V30 2626 H 242.783 -2.60803 -2.92385 0
M  V30 2627 H 244.48 -2.94382 -2.72288 0
M  V30 2628 H 241.07 -3.93855 -1.69045 0
M  V30 2629 H 245.254 -4.80695 -1.23473 0
M  V30 2630 H 240.51 -6.08196 -0.625154 0
M  V30 2631 H 244.684 -6.96175 -0.177065 0
M  V30 2632 H 242.311 -7.60083 0.133571 0
M  V30 2633 N 243.887 0.651787 -1.4349 0
M  V30 2634 C 245.115 1.43937 -1.48626 0
M  V30 2635 C 245.53 1.8851 -0.104587 0
M  V30 2636 O 244.887 1.5958 0.885464 0
M  V30 2637 C 244.938 2.6734 -2.43334 0
M  V30 2638 O 244.659 2.24631 -3.76128 0
M  V30 2639 C 246.16 3.60683 -2.57726 0
M  V30 2640 H 243.38 0.44213 -0.504739 0
M  V30 2641 H 245.924 0.798944 -1.88248 0
M  V30 2642 H 244.079 3.2752 -2.06904 0
M  V30 2643 H 244.493 3.04485 -4.2707 0
M  V30 2644 H 245.967 4.43933 -3.28067 0
M  V30 2645 H 246.444 4.08126 -1.62265 0
M  V30 2646 H 247.05 3.06384 -2.94973 0
M  V30 2647 N 245.365 1.30045 0.890287 0
M  V30 2648 C 246.612 1.18561 1.64163 0
M  V30 2649 C 246.94 -0.260852 1.92743 0
M  V30 2650 O 246.195 -1.20376 1.54299 0
M  V30 2651 C 246.494 1.95409 2.99249 0
M  V30 2652 C 246.16 3.45066 2.90242 0
M  V30 2653 C 244.822 3.85878 2.87492 0
M  V30 2654 C 247.174 4.4039 2.78758 0
M  V30 2655 C 244.502 5.20314 2.7109 0
M  V30 2656 C 246.854 5.74928 2.63894 0
M  V30 2657 C 245.518 6.14986 2.59516 0
M  V30 2658 H 244.788 0.433846 0.600715 0
M  V30 2659 H 247.435 1.61088 1.03552 0
M  V30 2660 H 245.74 1.45501 3.63781 0
M  V30 2661 H 247.437 1.8392 3.56334 0
M  V30 2662 H 244.027 3.12631 2.93189 0
M  V30 2663 H 248.211 4.09806 2.79952 0
M  V30 2664 H 243.467 5.50449 2.66112 0
M  V30 2665 H 247.641 6.48434 2.53981 0
M  V30 2666 H 245.268 7.19104 2.46565 0
M  V30 2667 N 246.843 -1.10192 1.12674 0
M  V30 2668 C 247.806 -2.14786 0.799979 0
M  V30 2669 C 248.806 -1.59711 -0.18685 0
M  V30 2670 O 249.996 -1.74156 0.0392558 0
M  V30 2671 C 247.128 -3.40374 0.189228 0
M  V30 2672 H 248.321 -2.45203 1.72671 0
M  V30 2673 H 245.874 -1.25597 0.930326 0
M  V30 2674 H 246.609 -3.15577 -0.747107 0
M  V30 2675 H 246.394 -3.81637 0.899766 0
M  V30 2676 H 247.884 -4.17594 -0.0228143 0
M  V30 2677 N 248.321 -0.919034 -1.28029 0
M  V30 2678 C 249.567 -0.565221 -1.95389 0
M  V30 2679 C 249.922 0.882325 -1.70976 0
M  V30 2680 O 249.215 1.61988 -1.02325 0
M  V30 2681 C 249.409 -0.816855 -3.4794 0
M  V30 2682 C 249.238 -2.28731 -3.87185 0
M  V30 2683 C 248.008 -2.93841 -4.11079 0
M  V30 2684 C 250.206 -3.26415 -3.97439 0
M  V30 2685 N 248.188 -4.31129 -4.37037 0
M  V30 2686 C 249.559 -4.48884 -4.27672 0
M  V30 2687 C 251.614 -3.21742 -3.79982 0
M  V30 2688 C 250.317 -5.67268 -4.42266 0
M  V30 2689 C 252.343 -4.39431 -3.95796 0
M  V30 2690 C 251.705 -5.60675 -4.26407 0
M  V30 2691 H 247.804 -0.256797 -0.738633 0
M  V30 2692 H 250.388 -1.18386 -1.54573 0
M  V30 2693 H 248.559 -0.227445 -3.87733 0
M  V30 2694 H 250.291 -0.426542 -4.02446 0
M  V30 2695 H 247.046 -2.44547 -4.05578 0
M  V30 2696 H 247.47 -5.02127 -4.5409 0
M  V30 2697 H 252.112 -2.29079 -3.55363 0
M  V30 2698 H 249.83 -6.60406 -4.65714 0
M  V30 2699 H 253.416 -4.37323 -3.83719 0
M  V30 2700 H 252.296 -6.50223 -4.38383 0
M  V30 2701 N 249.799 1.42003 -0.683588 0
M  V30 2702 C 250.731 2.29183 0.0283068 0
M  V30 2703 C 251.744 1.4415 0.756611 0
M  V30 2704 O 252.933 1.67779 0.609306 0
M  V30 2705 C 250.033 3.21765 1.06398 0
M  V30 2706 C 249.206 4.35496 0.407723 0
M  V30 2707 C 248.265 5.08737 1.34437 0
M  V30 2708 O 247.291 5.62948 0.841318 0
M  V30 2709 N 248.493 5.15075 2.67728 0
M  V30 2710 H 251.258 2.9092 -0.720105 0
M  V30 2711 H 248.819 1.53025 -0.528682 0
M  V30 2712 H 250.811 3.6763 1.69204 0
M  V30 2713 H 249.381 2.61418 1.71404 0
M  V30 2714 H 248.601 3.92165 -0.400012 0
M  V30 2715 H 249.889 5.08776 -0.0490956 0
M  V30 2716 H 249.287 4.72457 3.11129 0
M  V30 2717 H 247.844 5.64556 3.2576 0
M  V30 2718 N 251.277 0.427512 1.51691 0
M  V30 2719 C 252.505 -0.141191 2.06418 0
M  V30 2720 C 252.92 -1.37303 1.29589 0
M  V30 2721 O 252.277 -1.79059 0.352732 0
M  V30 2722 C 252.328 -0.473266 3.58389 0
M  V30 2723 O 252.049 0.709673 4.32314 0
M  V30 2724 C 253.55 -1.09371 4.29596 0
M  V30 2725 H 250.77 -0.0122747 0.670888 0
M  V30 2726 H 253.314 0.603764 1.95384 0
M  V30 2727 H 251.469 -1.16812 3.69369 0
M  V30 2728 H 251.883 0.42807 5.2275 0
M  V30 2729 H 253.357 -1.27613 5.37046 0
M  V30 2730 H 253.834 -2.072 3.87253 0
M  V30 2731 H 254.44 -0.43853 4.23033 0
M  V30 2732 N 252.755 -1.56801 0.158532 0
M  V30 2733 C 253.983 -2.00859 -0.496303 0
M  V30 2734 C 254.398 -1.03871 -1.57659 0
M  V30 2735 O 253.755 -0.0375165 -1.82461 0
M  V30 2736 C 253.806 -3.4479 -1.08638 0
M  V30 2737 O 253.527 -4.38072 -0.0492322 0
M  V30 2738 C 255.028 -4.04185 -1.8207 0
M  V30 2739 H 252.248 -0.65864 -0.128199 0
M  V30 2740 H 254.792 -2.02885 0.256506 0
M  V30 2741 H 252.947 -3.43579 -1.78975 0
M  V30 2742 H 253.361 -5.2227 -0.483102 0
M  V30 2743 H 254.835 -5.06857 -2.18633 0
M  V30 2744 H 255.312 -3.45549 -2.71095 0
M  V30 2745 H 255.918 -4.0906 -1.16405 0
M  V30 2746 N 254.233 0.115231 -1.57178 0
M  V30 2747 C 255.163 1.1423 -2.03651 0
M  V30 2748 C 256.144 1.42967 -0.921655 0
M  V30 2749 O 257.329 1.53343 -1.19162 0
M  V30 2750 C 254.459 2.4675 -2.44401 0
M  V30 2751 C 253.413 2.32467 -3.59365 0
M  V30 2752 C 252.739 3.69984 -3.86026 0
M  V30 2753 C 254.039 1.78203 -4.90959 0
M  V30 2754 H 255.733 0.755749 -2.89705 0
M  V30 2755 H 253.279 0.362093 -1.39373 0
M  V30 2756 H 255.232 3.18854 -2.75517 0
M  V30 2757 H 253.956 2.87302 -1.55322 0
M  V30 2758 H 252.615 1.62811 -3.28463 0
M  V30 2759 H 252.263 4.08028 -2.94147 0
M  V30 2760 H 251.963 3.61279 -4.63412 0
M  V30 2761 H 253.487 4.43587 -4.19599 0
M  V30 2762 H 254.901 2.40128 -5.20587 0
M  V30 2763 H 253.298 1.8031 -5.72371 0
M  V30 2764 H 254.368 0.739876 -4.79222 0
M  V30 2765 N 255.711 1.52812 0.385517 0
M  V30 2766 C 256.941 1.71658 1.14966 0
M  V30 2767 C 257.349 0.436253 1.84102 0
M  V30 2768 O 256.692 -0.599313 1.73649 0
M  V30 2769 C 256.754 2.81309 2.23843 0
M  V30 2770 C 256.418 4.22313 1.74644 0
M  V30 2771 C 257.415 5.05352 1.22129 0
M  V30 2772 C 255.1 4.68648 1.80761 0
M  V30 2773 C 257.094 6.32807 0.763838 0
M  V30 2774 C 254.781 5.96086 1.34627 0
M  V30 2775 C 255.779 6.77996 0.825264 0
M  V30 2776 O 255.467 8.03045 0.370669 0
M  V30 2777 H 255.199 0.578022 0.350523 0
M  V30 2778 H 257.753 2.00263 0.456509 0
M  V30 2779 H 255.983 2.48133 2.96592 0
M  V30 2780 H 257.672 2.88524 2.85497 0
M  V30 2781 H 258.438 4.70736 1.16758 0
M  V30 2782 H 254.317 4.04979 2.20256 0
M  V30 2783 H 257.861 6.96689 0.356494 0
M  V30 2784 H 253.758 6.30205 1.39686 0
M  V30 2785 H 254.526 8.17021 0.491829 0
M  V30 2786 N 257.189 -0.644168 1.43834 0
M  V30 2787 C 258.414 -1.43642 1.49605 0
M  V30 2788 C 258.839 -1.8773 0.117913 0
M  V30 2789 O 258.197 -1.57938 -0.890239 0
M  V30 2790 C 258.245 -2.6416 2.45463 0
M  V30 2791 O 257.349 -3.63538 1.94714 0
M  V30 2792 H 256.69 -0.430329 0.50568 0
M  V30 2793 H 259.22 -0.787448 1.8884 0
M  V30 2794 H 259.23 -3.11864 2.63068 0
M  V30 2795 H 257.905 -2.31414 3.45572 0
M  V30 2796 H 256.482 -3.2273 1.86814 0
M  V30 2797 N 258.668 -1.30515 -0.883378 0
M  V30 2798 C 259.615 -1.17032 -1.98927 0
M  V30 2799 C 260.585 -0.0594241 -1.65994 0
M  V30 2800 O 261.77 -0.229895 -1.8941 0
M  V30 2801 C 258.91 -0.869777 -3.33959 0
M  V30 2802 C 258.023 -2.06271 -3.79574 0
M  V30 2803 C 257.158 -1.70011 -5.03259 0
M  V30 2804 C 256.197 -2.8579 -5.41286 0
M  V30 2805 N 255.334 -2.49816 -6.56153 0
M  V30 2806 H 260.174 -2.1164 -2.09792 0
M  V30 2807 H 257.711 -1.05296 -1.02719 0
M  V30 2808 H 259.669 -0.676138 -4.11685 0
M  V30 2809 H 258.299 0.0394332 -3.22776 0
M  V30 2810 H 257.351 -2.36755 -2.97744 0
M  V30 2811 H 258.663 -2.92971 -4.03694 0
M  V30 2812 H 257.817 -1.47032 -5.88614 0
M  V30 2813 H 256.556 -0.804829 -4.81013 0
M  V30 2814 H 255.561 -3.09434 -4.54456 0
M  V30 2815 H 256.786 -3.76008 -5.65504 0
M  V30 2816 H 254.732 -1.62795 -6.35479 0
M  V30 2817 H 254.649 -3.30048 -6.8015 0
M  V30 2818 H 255.917 -2.30197 -7.44735 0
M  V30 2819 N 260.146 1.09593 -1.13257 0
M  V30 2820 C 261.078 2.16015 -0.766167 0
M  V30 2821 C 262.091 1.61423 0.211303 0
M  V30 2822 O 263.28 1.78498 -0.00863946 0
M  V30 2823 C 260.38 3.38706 -0.114662 0
M  V30 2824 C 259.553 4.22717 -1.12379 0
M  V30 2825 C 258.612 5.23835 -0.498301 0
M  V30 2826 O 257.638 5.573 -1.15781 0
M  V30 2827 N 258.84 5.75886 0.730417 0
M  V30 2828 H 261.605 2.48055 -1.68193 0
M  V30 2829 H 259.166 1.25292 -1.02535 0
M  V30 2830 H 261.158 4.03464 0.315991 0
M  V30 2831 H 259.728 3.04569 0.704011 0
M  V30 2832 H 258.948 3.54122 -1.73179 0
M  V30 2833 H 260.236 4.75673 -1.80589 0
M  V30 2834 H 259.634 5.50911 1.28504 0
M  V30 2835 H 258.191 6.42387 1.10376 0
M  V30 2836 N 261.624 0.925811 1.2754 0
M  V30 2837 C 262.572 0.413897 2.28888 0
M  V30 2838 C 263.566 -0.500779 1.61829 0
M  V30 2839 O 264.772 -0.38069 1.75928 0
M  V30 2840 H 261.147 0.115274 0.743112 0
M  V30 2841 H 263.118 1.28151 2.69481 0
M  V30 2842 C 261.867 -0.319792 3.46226 0
M  V30 2843 H 261.19 0.374846 3.98039 0
M  V30 2844 H 262.63 -0.642435 4.19105 0
M  V30 2845 C 261.089 -1.53209 3.00048 0
M  V30 2846 O 261.619 -2.6309 3.03557 0
M  V30 2847 N 259.825 -1.38326 2.55566 0
M  V30 2848 H 259.372 -0.489292 2.5291 0
M  V30 2849 H 259.33 -2.19564 2.25031 0
M  V30 2850 N 263.102 -1.41638 0.69111 0
M  V30 2851 C 264.379 -1.95036 0.148421 0
M  V30 2852 C 264.759 -1.63072 -1.34055 0
M  V30 2853 O 264.107 -0.93538 -2.08478 0
M  V30 2854 C 264.317 -3.46279 0.434951 0
M  V30 2855 C 265.665 -4.23069 0.360275 0
M  V30 2856 O 266.689 -3.54277 0.369613 0
M  V30 2857 O 265.548 -5.45583 0.316534 0
M  V30 2858 H 262.642 -0.826908 0.0123654 0
M  V30 2859 H 265.188 -1.5138 0.766963 0
M  V30 2860 H 263.96 -3.6281 1.46576 0
M  V30 2861 H 263.583 -3.97019 -0.214787 0
M  V30 2862 N 264.58 -0.43555 -1.51462 0
M  V30 2863 C 265.81 0.130053 -2.0619 0
M  V30 2864 C 266.218 1.37164 -1.30317 0
M  V30 2865 O 265.561 1.80225 -0.355598 0
M  V30 2866 C 265.623 0.519418 -3.55728 0
M  V30 2867 C 265.287 -0.615119 -4.52841 0
M  V30 2868 C 266.284 -1.48671 -4.9819 0
M  V30 2869 C 263.969 -0.795341 -4.95963 0
M  V30 2870 C 265.963 -2.52324 -5.8533 0
M  V30 2871 C 263.65 -1.83514 -5.82894 0
M  V30 2872 C 264.648 -2.69748 -6.27475 0
M  V30 2873 O 264.336 -3.71944 -7.1268 0
M  V30 2874 H 264.068 0.0121612 -0.675891 0
M  V30 2875 H 266.622 -0.6129 -1.96043 0
M  V30 2876 H 264.852 1.31505 -3.63653 0
M  V30 2877 H 266.541 1.01597 -3.92979 0
M  V30 2878 H 267.307 -1.359 -4.65571 0
M  V30 2879 H 263.186 -0.133713 -4.60806 0
M  V30 2880 H 266.73 -3.19665 -6.20048 0
M  V30 2881 H 262.627 -1.96306 -6.14926 0
M  V30 2882 H 263.395 -3.68503 -7.30854 0
M  V30 2883 N 266.058 1.56714 -0.166846 0
M  V30 2884 C 267.474 1.58473 0.189372 0
M  V30 2885 C 267.674 1.18201 1.63189 0
M  V30 2886 O 266.73 0.891528 2.36237 0
M  V30 2887 C 268.043 3.00573 -0.0873872 0
M  V30 2888 C 269.591 3.1299 -0.0252443 0
M  V30 2889 C 270.066 4.57174 -0.274934 0
M  V30 2890 N 271.557 4.62665 -0.222553 0
M  V30 2891 C 272.292 5.72072 -0.389985 0
M  V30 2892 N 271.788 6.90054 -0.616229 0
M  V30 2893 N 273.581 5.61153 -0.326202 0
M  V30 2894 H 265.732 1.8118 -1.10849 0
M  V30 2895 H 267.995 0.839525 -0.440342 0
M  V30 2896 H 267.701 3.34497 -1.0865 0
M  V30 2897 H 267.575 3.72019 0.623037 0
M  V30 2898 H 269.962 2.78895 0.96444 0
M  V30 2899 H 270.043 2.43989 -0.768309 0
M  V30 2900 H 269.687 4.91976 -1.26181 0
M  V30 2901 H 269.617 5.24328 0.48869 0
M  V30 2902 H 272.108 3.77863 -0.0531512 0
M  V30 2903 H 272.421 7.69311 -0.733559 0
M  V30 2904 H 270.766 6.91927 -0.652791 0
M  V30 2905 H 273.957 4.67859 -0.150072 0
M  V30 2906 H 274.13 6.46364 -0.460116 0
M  V30 2907 N 267.536 -0.106894 1.57237 0
M  V30 2908 C 268.766 -0.825191 1.89405 0
M  V30 2909 C 269.174 -1.73374 0.757496 0
M  V30 2910 O 268.517 -1.81552 -0.280115 0
M  V30 2911 C 268.579 -1.70102 3.1671 0
M  V30 2912 C 268.243 -0.965523 4.46684 0
M  V30 2913 C 269.24 -0.300741 5.19029 0
M  V30 2914 C 266.925 -0.943105 4.93367 0
M  V30 2915 C 268.919 0.376622 6.36286 0
M  V30 2916 C 266.606 -0.261949 6.10538 0
M  V30 2917 C 267.604 0.396748 6.81847 0
M  V30 2918 O 267.292 1.06701 7.96787 0
M  V30 2919 H 267.024 -0.241852 0.631255 0
M  V30 2920 H 269.578 -0.0921491 2.05193 0
M  V30 2921 H 267.808 -2.47601 2.97036 0
M  V30 2922 H 269.497 -2.29483 3.34802 0
M  V30 2923 H 270.263 -0.309599 4.84011 0
M  V30 2924 H 266.142 -1.44524 4.3776 0
M  V30 2925 H 269.686 0.891334 6.91882 0
M  V30 2926 H 265.583 -0.250896 6.45012 0
M  V30 2927 H 266.351 0.972707 8.127 0
M  V30 2928 N 269.014 -1.53014 -0.377408 0
M  V30 2929 C 269.977 -1.77957 -1.44444 0
M  V30 2930 C 270.977 -0.649763 -1.47087 0
M  V30 2931 O 272.167 -0.917897 -1.48055 0
M  V30 2932 C 269.299 -1.89089 -2.83651 0
M  V30 2933 H 270.492 -2.73243 -1.23606 0
M  V30 2934 H 268.045 -1.43912 -0.609844 0
M  V30 2935 H 268.78 -0.958293 -3.09818 0
M  V30 2936 H 268.565 -2.71254 -2.83132 0
M  V30 2937 H 270.055 -2.1002 -3.60945 0
M  V30 2938 N 270.492 0.636531 -1.44174 0
M  V30 2939 C 271.44 1.76995 -1.50915 0
M  V30 2940 C 272.434 1.65053 -0.381295 0
M  V30 2941 O 273.64 1.71197 -0.55601 0
M  V30 2942 H 270.015 0.584247 -0.473455 0
M  V30 2943 H 271.986 1.68432 -2.4632 0
M  V30 2944 C 270.735 3.15314 -1.46534 0
M  V30 2945 H 270.058 3.25149 -2.32633 0
M  V30 2946 H 271.498 3.9453 -1.55312 0
M  V30 2947 C 269.957 3.3639 -0.185305 0
M  V30 2948 O 270.487 3.94699 0.746688 0
M  V30 2949 N 268.693 2.9046 -0.0901606 0
M  V30 2950 H 268.24 2.43193 -0.849416 0
M  V30 2951 H 268.198 3.04937 0.765553 0
M  V30 2952 N 271.97 1.30982 0.876444 0
M  V30 2953 C 272.92 1.14688 1.97055 0
M  V30 2954 C 273.904 0.0596593 1.60789 0
M  V30 2955 O 275.096 0.283892 1.74708 0
M  V30 2956 C 272.225 0.849627 3.3262 0
M  V30 2957 C 271.311 1.97752 3.75173 0
M  V30 2958 N 271.702 3.22384 3.89746 0
M  V30 2959 C 270 1.8758 4.04635 0
M  V30 2960 C 270.701 3.96121 4.25985 0
M  V30 2961 N 269.677 3.24237 4.36315 0
M  V30 2962 H 273.479 2.09204 2.06424 0
M  V30 2963 H 270.993 1.22445 1.06682 0
M  V30 2964 H 272.99 0.713895 4.10742 0
M  V30 2965 H 271.65 -0.087376 3.24582 0
M  V30 2966 H 272.661 3.57575 3.74647 0
M  V30 2967 H 269.338 1.01303 4.05024 0
M  V30 2968 H 270.728 5.03491 4.44911 0
M  V30 2969 N 273.449 -1.08991 1.13837 0
M  V30 2970 C 274.396 -2.15748 0.819835 0
M  V30 2971 C 275.366 -1.64636 -0.220026 0
M  V30 2972 O 276.551 -1.90582 -0.0912757 0
M  V30 2973 C 273.691 -3.4382 0.296913 0
M  V30 2974 C 272.804 -4.0881 1.39636 0
M  V30 2975 C 271.939 -5.24655 0.831314 0
M  V30 2976 C 270.978 -5.81575 1.90886 0
M  V30 2977 N 270.115 -6.88774 1.36142 0
M  V30 2978 H 274.955 -2.42338 1.73426 0
M  V30 2979 H 272.492 -1.18935 0.865613 0
M  V30 2980 H 274.45 -4.17193 -0.0244339 0
M  V30 2981 H 273.08 -3.17535 -0.580628 0
M  V30 2982 H 272.132 -3.33258 1.83422 0
M  V30 2983 H 273.444 -4.47141 2.21058 0
M  V30 2984 H 272.598 -6.04942 0.461515 0
M  V30 2985 H 271.337 -4.87698 -0.013932 0
M  V30 2986 H 270.342 -4.99946 2.28767 0
M  V30 2987 H 271.567 -6.20592 2.75758 0
M  V30 2988 H 269.513 -6.53788 0.538254 0
M  V30 2989 H 269.43 -7.25898 2.11208 0
M  V30 2990 H 270.698 -7.72806 1.01933 0
M  V30 2991 N 274.927 -0.932562 -1.27047 0
M  V30 2992 C 275.874 -0.434072 -2.26681 0
M  V30 2993 C 276.844 0.501639 -1.58344 0
M  V30 2994 O 278.029 0.419734 -1.86126 0
M  V30 2995 C 275.169 0.30261 -3.43771 0
M  V30 2996 C 274.282 -0.667774 -4.26808 0
M  V30 2997 C 273.417 0.0892393 -5.31125 0
M  V30 2998 C 272.456 -0.873532 -6.05835 0
M  V30 2999 N 271.593 -0.148832 -7.01942 0
M  V30 3000 H 276.433 -1.28868 -2.68695 0
M  V30 3001 H 273.97 -0.646713 -1.32121 0
M  V30 3002 H 275.928 0.746092 -4.10474 0
M  V30 3003 H 274.558 1.12142 -3.02695 0
M  V30 3004 H 273.61 -1.22978 -3.59973 0
M  V30 3005 H 274.922 -1.40337 -4.78651 0
M  V30 3006 H 274.076 0.592409 -6.03801 0
M  V30 3007 H 272.815 0.85777 -4.80097 0
M  V30 3008 H 271.82 -1.38791 -5.31994 0
M  V30 3009 H 273.045 -1.64193 -6.58952 0
M  V30 3010 H 270.991 0.601365 -6.53238 0
M  V30 3011 H 270.908 -0.82391 -7.51497 0
M  V30 3012 H 272.176 0.333527 -7.78786 0
M  V30 3013 N 276.405 1.4127 -0.698611 0
M  V30 3014 C 277.651 2.01979 -0.239972 0
M  V30 3015 C 278.006 1.54353 1.14861 0
M  V30 3016 O 277.299 0.746218 1.76471 0
M  V30 3017 C 277.493 3.56592 -0.240192 0
M  V30 3018 C 277.322 4.19226 -1.62726 0
M  V30 3019 C 276.092 4.53389 -2.23084 0
M  V30 3020 C 278.29 4.45228 -2.57443 0
M  V30 3021 N 276.272 5.01327 -3.54323 0
M  V30 3022 C 277.643 4.94973 -3.73365 0
M  V30 3023 C 279.698 4.27243 -2.55671 0
M  V30 3024 C 278.401 5.28624 -4.878 0
M  V30 3025 C 280.427 4.61985 -3.69221 0
M  V30 3026 C 279.789 5.11904 -4.83873 0
M  V30 3027 H 275.888 0.770561 -0.133269 0
M  V30 3028 H 278.472 1.71767 -0.916748 0
M  V30 3029 H 276.643 3.86271 0.406082 0
M  V30 3030 H 278.375 4.04025 0.23356 0
M  V30 3031 H 275.13 4.39946 -1.75341 0
M  V30 3032 H 275.554 5.29697 -4.21604 0
M  V30 3033 H 280.196 3.87884 -1.68243 0
M  V30 3034 H 277.914 5.66905 -5.75885 0
M  V30 3035 H 281.5 4.49725 -3.69105 0
M  V30 3036 H 280.38 5.38282 -5.70282 0
M  V30 3037 N 277.883 0.443576 1.51229 0
M  V30 3038 C 278.846 -0.353132 2.26463 0
M  V30 3039 C 279.846 -0.944338 1.3015 0
M  V30 3040 O 281.036 -0.817813 1.5381 0
M  V30 3041 C 278.168 -1.50023 3.06114 0
M  V30 3042 H 279.361 0.3063 2.98332 0
M  V30 3043 H 276.914 0.196902 1.55055 0
M  V30 3044 H 277.649 -2.19553 2.38677 0
M  V30 3045 H 277.434 -1.08241 3.76864 0
M  V30 3046 H 278.924 -2.06296 3.63087 0
M  V30 3047 N 279.361 -1.56624 0.175154 0
M  V30 3048 C 280.589 -2.01374 -0.474971 0
M  V30 3049 C 281.004 -1.05537 -1.56548 0
M  V30 3050 O 280.361 -0.0568668 -1.82411 0
M  V30 3051 C 280.412 -3.45923 -1.04975 0
M  V30 3052 O 280.133 -4.381 -0.00276605 0
M  V30 3053 C 281.634 -4.06093 -1.77773 0
M  V30 3054 H 278.854 -0.659962 -0.121206 0
M  V30 3055 H 281.398 -2.02601 0.27801 0
M  V30 3056 H 279.553 -3.45458 -1.75321 0
M  V30 3057 H 279.967 -5.22753 -0.427681 0
M  V30 3058 H 281.441 -5.09147 -2.13245 0
M  V30 3059 H 281.918 -3.48405 -2.67414 0
M  V30 3060 H 282.524 -4.10272 -1.12059 0
M  V30 3061 N 280.839 0.0985539 -1.57292 0
M  V30 3062 C 281.749 1.13824 -2.05137 0
M  V30 3063 C 282.765 1.44076 -0.975604 0
M  V30 3064 O 283.941 1.54786 -1.28853 0
M  V30 3065 C 281.006 2.43969 -2.46333 0
M  V30 3066 C 280.067 2.2093 -3.68087 0
M  V30 3067 C 279.3 3.44869 -4.0731 0
M  V30 3068 O 279.523 4.52972 -3.46659 0
M  V30 3069 O 278.457 3.34661 -5.00285 0
M  V30 3070 H 282.283 0.761881 -2.93988 0
M  V30 3071 H 279.868 0.310818 -1.46131 0
M  V30 3072 H 281.75 3.20609 -2.73473 0
M  V30 3073 H 280.425 2.81038 -1.60621 0
M  V30 3074 H 279.332 1.42081 -3.46069 0
M  V30 3075 H 280.665 1.88755 -4.54568 0
M  V30 3076 N 282.317 1.53212 0.369288 0
M  V30 3077 C 283.265 1.80054 1.47253 0
M  V30 3078 C 284.259 0.669456 1.55611 0
M  V30 3079 O 285.465 0.852328 1.58541 0
M  V30 3080 H 281.84 0.570034 0.490475 0
M  V30 3081 H 283.811 2.72403 1.21817 0
M  V30 3082 C 282.56 2.00403 2.84137 0
M  V30 3083 H 281.883 2.86876 2.78464 0
M  V30 3084 H 283.323 2.23164 3.60519 0
M  V30 3085 C 281.782 0.782081 3.27697 0
M  V30 3086 O 282.312 -0.0310205 4.01688 0
M  V30 3087 N 280.518 0.606573 2.84199 0
M  V30 3088 H 280.065 1.26939 2.24152 0
M  V30 3089 H 280.023 -0.20962 3.137 0
M  V30 3090 N 283.795 -0.628877 1.44509 0
M  V30 3091 C 284.758 -1.72263 1.51188 0
M  V30 3092 C 285.758 -1.55907 0.39367 0
M  V30 3093 O 286.948 -1.61361 0.656377 0
M  V30 3094 C 284.08 -3.11365 1.38798 0
M  V30 3095 H 285.273 -1.67714 2.4862 0
M  V30 3096 H 282.826 -0.842737 1.31634 0
M  V30 3097 H 283.561 -3.21507 0.424693 0
M  V30 3098 H 283.346 -3.24644 2.19884 0
M  V30 3099 H 284.836 -3.91075 1.46458 0
M  V30 3100 N 285.273 -1.31445 -0.869486 0
M  V30 3101 C 286.52 -1.21158 -1.62256 0
M  V30 3102 C 286.848 0.230155 -1.93133 0
M  V30 3103 O 286.103 1.17906 -1.56194 0
M  V30 3104 C 286.402 -2.00145 -2.96102 0
M  V30 3105 C 286.068 -3.4964 -2.84715 0
M  V30 3106 C 284.73 -3.90403 -2.81317 0
M  V30 3107 C 287.082 -4.44769 -2.71716 0
M  V30 3108 C 284.41 -5.24561 -2.62778 0
M  V30 3109 C 286.762 -5.79054 -2.54714 0
M  V30 3110 C 285.426 -6.19037 -2.49699 0
M  V30 3111 H 284.696 -0.443348 -0.593737 0
M  V30 3112 H 287.343 -1.62715 -1.00976 0
M  V30 3113 H 285.648 -1.5127 -3.6142 0
M  V30 3114 H 287.345 -1.89566 -3.53363 0
M  V30 3115 H 283.935 -3.17256 -2.88178 0
M  V30 3116 H 288.119 -4.14208 -2.73397 0
M  V30 3117 H 283.375 -5.54613 -2.57321 0
M  V30 3118 H 287.549 -6.52393 -2.43632 0
M  V30 3119 H 285.176 -7.22935 -2.35093 0
M  V30 3120 N 286.751 1.08385 -1.14413 0
M  V30 3121 C 287.997 1.81044 -0.913834 0
M  V30 3122 C 288.33 1.86004 0.558209 0
M  V30 3123 O 287.605 1.33606 1.4135 0
M  V30 3124 C 287.888 3.26648 -1.51569 0
M  V30 3125 C 287.741 3.29895 -3.0576 0
M  V30 3126 C 289.06 4.23629 -1.19273 0
M  V30 3127 H 286.179 0.65727 -0.333414 0
M  V30 3128 H 288.821 1.26896 -1.41412 0
M  V30 3129 H 286.971 3.72889 -1.09023 0
M  V30 3130 H 288.643 2.91977 -3.57137 0
M  V30 3131 H 286.886 2.69163 -3.40197 0
M  V30 3132 H 287.557 4.32516 -3.42977 0
M  V30 3133 H 290.033 3.85727 -1.56057 0
M  V30 3134 H 288.909 5.23822 -1.64017 0
M  V30 3135 H 289.17 4.41968 -0.108068 0
M  V30 3136 N 288.23 0.939286 1.26551 0
M  V30 3137 C 289.16 0.465044 2.28822 0
M  V30 3138 C 290.141 -0.480692 1.63167 0
M  V30 3139 O 291.326 -0.382955 1.90387 0
M  V30 3140 C 288.456 -0.27234 3.46231 0
M  V30 3141 C 287.41 0.58666 4.2396 0
M  V30 3142 C 286.736 -0.280573 5.33963 0
M  V30 3143 C 288.036 1.85704 4.88171 0
M  V30 3144 H 289.73 1.31979 2.68741 0
M  V30 3145 H 287.276 0.636061 1.29191 0
M  V30 3146 H 289.229 -0.615133 4.16886 0
M  V30 3147 H 287.953 -1.16121 3.0526 0
M  V30 3148 H 286.612 0.91232 3.55067 0
M  V30 3149 H 286.26 -1.16874 4.89234 0
M  V30 3150 H 285.96 0.29076 5.8688 0
M  V30 3151 H 287.484 -0.618678 6.07458 0
M  V30 3152 H 288.898 1.58161 5.51052 0
M  V30 3153 H 287.295 2.37279 5.51197 0
M  V30 3154 H 288.365 2.56957 4.11219 0
M  V30 3155 N 289.708 -1.40897 0.706093 0
M  V30 3156 C 290.64 -2.29199 0.00815776 0
M  V30 3157 C 291.653 -1.45336 -0.733582 0
M  V30 3158 O 292.842 -1.68727 -0.582537 0
M  V30 3159 C 289.942 -3.23417 -1.01265 0
M  V30 3160 C 289.115 -4.36089 -0.338387 0
M  V30 3161 C 288.174 -5.10811 -1.26326 0
M  V30 3162 O 287.2 -5.64215 -0.751651 0
M  V30 3163 N 288.402 -5.19269 -2.595 0
M  V30 3164 H 291.167 -2.89738 0.766297 0
M  V30 3165 H 288.728 -1.52164 0.55296 0
M  V30 3166 H 290.72 -3.70276 -1.63334 0
M  V30 3167 H 289.29 -2.64112 -1.67223 0
M  V30 3168 H 288.51 -3.91479 0.462352 0
M  V30 3169 H 289.798 -5.08634 0.130031 0
M  V30 3170 H 289.196 -4.77347 -3.03573 0
M  V30 3171 H 287.753 -5.69667 -3.16737 0
M  V30 3172 N 291.186 -0.45159 -1.50991 0
M  V30 3173 C 292.416 0.108177 -2.06317 0
M  V30 3174 C 292.824 1.35774 -1.31765 0
M  V30 3175 O 292.167 1.79838 -0.374694 0
M  V30 3176 C 292.229 0.481659 -3.56259 0
M  V30 3177 C 291.893 -0.663114 -4.52163 0
M  V30 3178 C 292.89 -1.53947 -4.96585 0
M  V30 3179 C 290.575 -0.8479 -4.95092 0
M  V30 3180 C 292.569 -2.58518 -5.82621 0
M  V30 3181 C 290.256 -1.89686 -5.80915 0
M  V30 3182 C 291.254 -2.76388 -6.24579 0
M  V30 3183 O 290.942 -3.79482 -7.08695 0
M  V30 3184 H 290.674 0.00499183 -0.675982 0
M  V30 3185 H 293.228 -0.633659 -1.95381 0
M  V30 3186 H 291.458 1.27641 -3.65027 0
M  V30 3187 H 293.147 0.974233 -3.94035 0
M  V30 3188 H 293.913 -1.4083 -4.64103 0
M  V30 3189 H 289.792 -0.18258 -4.60638 0
M  V30 3190 H 293.336 -3.26224 -6.16623 0
M  V30 3191 H 289.233 -2.02817 -6.12809 0
M  V30 3192 H 290.001 -3.76234 -7.26905 0
M  V30 3193 N 292.664 1.56529 -0.183458 0
M  V30 3194 C 293.614 2.1515 0.754605 0
M  V30 3195 C 294.598 1.08904 1.18443 0
M  V30 3196 O 295.79 1.34997 1.14476 0
M  V30 3197 C 292.919 2.80531 1.97881 0
M  V30 3198 C 292.005 3.93952 1.57043 0
M  V30 3199 N 292.396 4.98221 0.87231 0
M  V30 3200 C 290.694 4.05338 1.86057 0
M  V30 3201 C 291.395 5.77836 0.669377 0
M  V30 3202 N 290.371 5.29858 1.21454 0
M  V30 3203 H 294.173 2.93132 0.212387 0
M  V30 3204 H 291.687 1.62391 0.0167725 0
M  V30 3205 H 293.684 3.20914 2.6612 0
M  V30 3206 H 292.344 2.04035 2.52586 0
M  V30 3207 H 293.355 5.15191 0.529033 0
M  V30 3208 H 290.032 3.39957 2.42354 0
M  V30 3209 H 291.422 6.71799 0.116422 0
M  V30 3210 N 294.142 -0.090211 1.57342 0
M  V30 3211 C 295.075 -1.14035 1.97664 0
M  V30 3212 C 296.053 -1.38576 0.850616 0
M  V30 3213 O 297.237 -1.52255 1.11134 0
M  V30 3214 C 294.364 -2.48854 2.2976 0
M  V30 3215 C 293.41 -2.40564 3.52181 0
M  V30 3216 S 294.243 -1.81745 5.03715 0
M  V30 3217 C 295.399 -3.18178 5.38993 0
M  V30 3218 H 295.632 -0.796636 2.86428 0
M  V30 3219 H 293.165 -0.298072 1.51496 0
M  V30 3220 H 295.123 -3.26413 2.48927 0
M  V30 3221 H 293.784 -2.80393 1.41558 0
M  V30 3222 H 292.977 -3.39942 3.72096 0
M  V30 3223 H 292.579 -1.71135 3.32549 0
M  V30 3224 H 294.871 -4.14461 5.35937 0
M  V30 3225 H 295.814 -3.03062 6.39968 0
M  V30 3226 H 296.222 -3.17935 4.66452 0
M  V30 3227 N 295.62 -1.53406 -0.361157 0
M  V30 3228 C 296.848 -1.73717 -1.12383 0
M  V30 3229 C 297.263 -0.468161 -1.82904 0
M  V30 3230 O 296.62 0.559198 -1.73722 0
M  V30 3231 C 296.671 -2.90558 -2.15078 0
M  V30 3232 O 296.392 -4.12549 -1.47428 0
M  V30 3233 C 297.893 -3.22777 -3.03858 0
M  V30 3234 H 295.113 -0.580896 -0.335858 0
M  V30 3235 H 297.657 -2.00167 -0.418728 0
M  V30 3236 H 295.812 -2.66489 -2.8118 0
M  V30 3237 H 296.226 -4.78009 -2.15887 0
M  V30 3238 H 297.7 -4.07927 -3.71887 0
M  V30 3239 H 298.177 -2.38329 -3.68912 0
M  V30 3240 H 298.783 -3.48787 -2.43367 0
M  V30 3241 N 297.098 0.621204 -1.44841 0
M  V30 3242 C 298.509 1.20298 -1.42777 0
M  V30 3243 C 298.86 1.95639 -0.148259 0
M  V30 3244 O 297.985 2.02955 0.750892 0
M  V30 3245 C 298.58 2.1882 -2.58657 0
M  V30 3246 C 297.139 2.72403 -2.59756 0
M  V30 3247 C 296.286 1.4757 -2.34773 0
M  V30 3248 H 299.237 0.411297 -1.53278 0
M  V30 3249 H 299.258 3.01607 -2.31977 0
M  V30 3250 H 298.77 1.63957 -3.51766 0
M  V30 3251 H 296.871 3.31242 -1.70615 0
M  V30 3252 H 296.984 3.17765 -3.58556 0
M  V30 3253 H 295.348 1.76051 -1.8406 0
M  V30 3254 H 296.131 0.945954 -3.3001 0
M  V30 3255 N 298.576 1.31904 0.862503 0
M  V30 3256 C 299.853 1.12644 1.59908 0
M  V30 3257 C 300.233 -0.316104 2.0872 0
M  V30 3258 O 299.581 -1.31145 1.87118 0
M  V30 3259 C 299.791 2.1472 2.7513 0
M  V30 3260 C 301.139 2.47637 3.44907 0
M  V30 3261 O 302.163 2.13205 2.85346 0
M  V30 3262 O 301.022 3.06632 4.52371 0
M  V30 3263 H 298.116 0.43416 0.703871 0
M  V30 3264 H 300.662 1.43408 0.907314 0
M  V30 3265 H 299.434 3.1172 2.3653 0
M  V30 3266 H 299.057 1.84905 3.51989 0
M  V30 3267 N 300.054 -1.07777 1.14986 0
M  V30 3268 C 301.303 -1.79669 0.916617 0
M  V30 3269 C 301.616 -1.87474 -0.557917 0
M  V30 3270 O 302.822 -2.55845 -0.908617 0
M  V30 3271 C 301.278 -3.22848 1.59051 0
M  V30 3272 C 300.886 -3.23257 3.10176 0
M  V30 3273 C 302.63 -3.99379 1.43864 0
M  V30 3274 C 300.537 -4.61063 3.70372 0
M  V30 3275 H 299.467 -0.673349 0.33929 0
M  V30 3276 H 302.118 -1.21003 1.37951 0
M  V30 3277 H 300.5 -3.8168 1.0553 0
M  V30 3278 H 301.674 -2.74095 3.70417 0
M  V30 3279 H 299.989 -2.60222 3.25074 0
M  V30 3280 H 302.586 -5.0122 1.86232 0
M  V30 3281 H 302.929 -4.14511 0.385564 0
M  V30 3282 H 303.462 -3.47032 1.94457 0
M  V30 3283 H 300.201 -4.51135 4.7556 0
M  V30 3284 H 299.721 -5.1048 3.14913 0
M  V30 3285 H 301.4 -5.30034 3.71043 0
M  V30 3286 N 301.532 -0.945985 -1.26051 0
M  V30 3287 C 302.76 -0.613025 -1.9761 0
M  V30 3288 C 303.175 0.813035 -1.70397 0
M  V30 3289 O 302.532 1.54274 -0.974979 0
M  V30 3290 C 302.583 -0.85159 -3.51326 0
M  V30 3291 O 302.304 -2.22157 -3.77595 0
M  V30 3292 C 303.805 -0.529831 -4.40122 0
M  V30 3293 H 301.025 -0.230593 -0.630133 0
M  V30 3294 H 303.569 -1.268 -1.60443 0
M  V30 3295 H 301.724 -0.243151 -3.86636 0
M  V30 3296 H 302.138 -2.2852 -4.721 0
M  V30 3297 H 303.612 -0.747348 -5.46917 0
M  V30 3298 H 304.089 0.535341 -4.35925 0
M  V30 3299 H 304.695 -1.11721 -4.10364 0
M  V30 3300 N 303.011 1.40521 -0.713556 0
M  V30 3301 C 304.422 1.83853 -0.324807 0
M  V30 3302 C 304.773 1.59667 1.14021 0
M  V30 3303 O 303.898 1.07649 1.87725 0
M  V30 3304 C 304.493 3.33751 -0.582746 0
M  V30 3305 C 303.052 3.75584 -0.247727 0
M  V30 3306 C 302.199 2.63753 -0.856121 0
M  V30 3307 H 305.15 1.29817 -0.91286 0
M  V30 3308 H 305.171 3.80194 0.152682 0
M  V30 3309 H 304.683 3.51322 -1.64908 0
M  V30 3310 H 302.784 3.63608 0.813624 0
M  V30 3311 H 302.897 4.7373 -0.715307 0
M  V30 3312 H 301.261 2.53108 -0.28432 0
M  V30 3313 H 302.044 2.84137 -1.92668 0
M  V30 3314 N 304.489 0.459591 1.5075 0
M  V30 3315 C 305.719 -0.0972338 2.06371 0
M  V30 3316 C 306.127 -1.35074 1.32483 0
M  V30 3317 O 305.47 -1.79637 0.384226 0
M  V30 3318 C 305.532 -0.462759 3.56509 0
M  V30 3319 C 305.196 0.687084 4.51805 0
M  V30 3320 C 306.193 1.56578 4.95761 0
M  V30 3321 C 303.878 0.874144 4.94635 0
M  V30 3322 C 305.872 2.61604 5.81242 0
M  V30 3323 C 303.559 1.92765 5.79901 0
M  V30 3324 C 304.557 2.79697 6.23104 0
M  V30 3325 O 304.245 3.83235 7.06673 0
M  V30 3326 H 303.977 -0.00140687 0.675999 0
M  V30 3327 H 306.531 0.644011 1.95043 0
M  V30 3328 H 304.761 -1.25703 3.65699 0
M  V30 3329 H 306.45 -0.953323 3.94546 0
M  V30 3330 H 307.216 1.4329 4.6335 0
M  V30 3331 H 303.095 0.207006 4.60535 0
M  V30 3332 H 306.639 3.29489 6.14884 0
M  V30 3333 H 302.536 2.06064 6.11725 0
M  V30 3334 H 303.304 3.80084 7.24899 0
M  V30 3335 N 305.967 -1.56429 0.191757 0
M  V30 3336 C 307.216 -1.9666 -0.448088 0
M  V30 3337 C 307.529 -1.08136 -1.62991 0
M  V30 3338 O 308.735 -1.38135 -2.33733 0
M  V30 3339 C 307.191 -3.49753 -0.848585 0
M  V30 3340 C 306.799 -4.46935 0.308764 0
M  V30 3341 C 308.543 -3.9876 -1.4557 0
M  V30 3342 C 306.45 -5.91293 -0.112506 0
M  V30 3343 H 305.38 -0.734312 -0.171179 0
M  V30 3344 H 308.031 -1.81301 0.283242 0
M  V30 3345 H 306.413 -3.60604 -1.63649 0
M  V30 3346 H 307.587 -4.47813 1.08627 0
M  V30 3347 H 305.902 -4.08102 0.827158 0
M  V30 3348 H 308.499 -5.04086 -1.78328 0
M  V30 3349 H 308.842 -3.42875 -2.36099 0
M  V30 3350 H 309.375 -3.9101 -0.731836 0
M  V30 3351 H 306.114 -6.51097 0.758514 0
M  V30 3352 H 305.634 -5.93676 -0.854941 0
M  V30 3353 H 307.313 -6.44663 -0.549448 0
M  V30 3354 N 307.445 0.0818655 -1.57387 0
M  V30 3355 C 308.355 1.11642 -2.06333 0
M  V30 3356 C 309.371 1.43033 -0.99083 0
M  V30 3357 O 310.547 1.53411 -1.30488 0
M  V30 3358 C 307.612 2.41342 -2.48907 0
M  V30 3359 C 306.673 2.17014 -3.7041 0
M  V30 3360 C 305.906 3.4053 -4.10944 0
M  V30 3361 O 306.129 4.4927 -3.51444 0
M  V30 3362 O 305.063 3.29336 -5.03807 0
M  V30 3363 H 308.889 0.730657 -2.9478 0
M  V30 3364 H 306.474 0.295301 -1.46452 0
M  V30 3365 H 308.356 3.17691 -2.76858 0
M  V30 3366 H 307.031 2.79319 -1.63593 0
M  V30 3367 H 305.938 1.38403 -3.47556 0
M  V30 3368 H 307.271 1.83923 -4.56545 0
M  V30 3369 N 308.923 1.53595 0.353017 0
M  V30 3370 C 310.153 1.74058 1.11299 0
M  V30 3371 C 310.561 0.475205 1.83135 0
M  V30 3372 O 309.904 -0.562344 1.74881 0
M  V30 3373 C 309.966 2.85994 2.17825 0
M  V30 3374 C 309.63 4.25923 1.65647 0
M  V30 3375 C 310.627 5.07829 1.11383 0
M  V30 3376 C 308.312 4.72377 1.7078 0
M  V30 3377 C 310.306 6.34285 0.629439 0
M  V30 3378 C 307.993 5.98808 1.21953 0
M  V30 3379 C 308.991 6.79594 0.681265 0
M  V30 3380 O 308.679 8.03651 0.200248 0
M  V30 3381 H 308.411 0.585327 0.338183 0
M  V30 3382 H 310.965 2.01186 0.413927 0
M  V30 3383 H 309.195 2.54368 2.91262 0
M  V30 3384 H 310.884 2.94515 2.79313 0
M  V30 3385 H 311.65 4.73107 1.06746 0
M  V30 3386 H 307.529 4.0956 2.11617 0
M  V30 3387 H 311.073 6.97288 0.208636 0
M  V30 3388 H 306.97 6.33026 1.26287 0
M  V30 3389 H 307.738 8.1788 0.318416 0
M  V30 3390 N 310.401 -0.613514 1.45168 0
M  V30 3391 C 311.678 -1.37263 1.39349 0
M  V30 3392 C 312.058 -2.11012 0.0610848 0
M  V30 3393 O 311.406 -2.07502 -0.956825 0
M  V30 3394 C 311.616 -2.3244 2.60332 0
M  V30 3395 C 312.964 -2.9523 3.05163 0
M  V30 3396 O 313.988 -2.42762 2.60663 0
M  V30 3397 O 312.847 -3.90454 3.82372 0
M  V30 3398 H 309.941 -0.615188 0.552696 0
M  V30 3399 H 312.487 -0.637097 1.57287 0
M  V30 3400 H 311.259 -1.77164 3.48896 0
M  V30 3401 H 310.882 -3.13383 2.44698 0
M  V30 3402 N 311.879 -1.3236 -0.855495 0
M  V30 3403 C 313.109 -1.25688 -1.6397 0
M  V30 3404 C 313.517 0.177592 -1.88365 0
M  V30 3405 O 312.86 1.12485 -1.45234 0
M  V30 3406 C 312.922 -1.94602 -3.02275 0
M  V30 3407 C 312.586 -3.43937 -3.00926 0
M  V30 3408 C 313.583 -4.39435 -2.77835 0
M  V30 3409 C 311.268 -3.85858 -3.21588 0
M  V30 3410 C 313.262 -5.74829 -2.75409 0
M  V30 3411 C 310.949 -5.21361 -3.18789 0
M  V30 3412 C 311.947 -6.15658 -2.95727 0
M  V30 3413 O 311.635 -7.48681 -2.928 0
M  V30 3414 H 311.367 -0.434972 -0.51747 0
M  V30 3415 H 313.921 -1.75023 -1.075 0
M  V30 3416 H 312.151 -1.39836 -3.60531 0
M  V30 3417 H 313.84 -1.81651 -3.62985 0
M  V30 3418 H 314.606 -4.08374 -2.6164 0
M  V30 3419 H 310.485 -3.12883 -3.38564 0
M  V30 3420 H 314.029 -6.48404 -2.57328 0
M  V30 3421 H 309.926 -5.52052 -3.34528 0
M  V30 3422 H 310.694 -7.5803 -3.0876 0
M  V30 3423 N 313.357 1.07166 -1.15556 0
M  V30 3424 C 314.287 2.16403 -0.877046 0
M  V30 3425 C 315.268 1.69217 0.173111 0
M  V30 3426 O 316.453 1.94181 0.027084 0
M  V30 3427 C 313.583 3.45349 -0.367632 0
M  V30 3428 C 312.537 4.05995 -1.35468 0
M  V30 3429 C 311.863 5.30045 -0.704038 0
M  V30 3430 C 313.163 4.45804 -2.72132 0
M  V30 3431 H 314.857 2.39959 -1.79053 0
M  V30 3432 H 312.403 1.15325 -0.862331 0
M  V30 3433 H 314.356 4.21095 -0.160317 0
M  V30 3434 H 313.08 3.21385 0.581326 0
M  V30 3435 H 311.739 3.32296 -1.54839 0
M  V30 3436 H 311.387 5.02373 0.251128 0
M  V30 3437 H 311.087 5.71579 -1.36277 0
M  V30 3438 H 312.611 6.08495 -0.50654 0
M  V30 3439 H 314.025 5.12671 -2.56595 0
M  V30 3440 H 312.422 4.98296 -3.34397 0
M  V30 3441 H 313.492 3.57083 -3.28054 0
M  V30 3442 N 314.835 0.952656 1.25548 0
M  V30 3443 C 316.112 0.523818 1.88456 0
M  V30 3444 C 316.492 -0.998871 1.85973 0
M  V30 3445 O 315.84 -1.86381 1.3219 0
M  V30 3446 C 316.05 1.0982 3.31271 0
M  V30 3447 C 317.398 1.17385 4.08051 0
M  V30 3448 O 318.422 1.04961 3.40384 0
M  V30 3449 O 317.281 1.36852 5.29088 0
M  V30 3450 H 314.375 0.172485 0.808813 0
M  V30 3451 H 316.921 1.04596 1.33633 0
M  V30 3452 H 315.693 2.1415 3.27499 0
M  V30 3453 H 315.316 0.559191 3.93648 0
M  V30 3454 N 316.313 -1.40141 0.720998 0
M  V30 3455 C 317.729 -1.54632 0.395113 0
M  V30 3456 C 317.929 -1.69115 -1.09555 0
M  V30 3457 O 316.985 -1.68377 -1.88163 0
M  V30 3458 C 318.298 -2.77177 1.1659 0
M  V30 3459 C 319.846 -2.91 1.15274 0
M  V30 3460 C 320.321 -4.16465 1.90579 0
M  V30 3461 N 321.812 -4.23476 1.87675 0
M  V30 3462 C 322.547 -5.19475 2.42762 0
M  V30 3463 N 322.043 -6.21348 3.06428 0
M  V30 3464 N 323.836 -5.11592 2.32874 0
M  V30 3465 H 315.987 -1.28986 1.68749 0
M  V30 3466 H 318.25 -0.62412 0.713567 0
M  V30 3467 H 317.956 -2.72771 2.22011 0
M  V30 3468 H 317.83 -3.69442 0.76108 0
M  V30 3469 H 320.217 -2.94907 0.106702 0
M  V30 3470 H 320.298 -1.99838 1.59682 0
M  V30 3471 H 319.942 -4.1332 2.95176 0
M  V30 3472 H 319.872 -5.06646 1.43587 0
M  V30 3473 H 322.363 -3.50497 1.41281 0
M  V30 3474 H 322.676 -6.91034 3.45965 0
M  V30 3475 H 321.021 -6.21777 3.10514 0
M  V30 3476 H 324.212 -4.30936 1.82789 0
M  V30 3477 H 324.385 -5.86233 2.76106 0
M  V30 3478 N 317.792 -0.46758 -1.50504 0
M  V30 3479 C 318.724 0.364655 -2.26281 0
M  V30 3480 C 319.737 0.960151 -1.31472 0
M  V30 3481 O 320.926 0.849153 -1.57008 0
M  V30 3482 C 318.026 1.52509 -3.02645 0
M  V30 3483 C 317.199 1.04302 -4.24782 0
M  V30 3484 C 316.258 2.07709 -4.8347 0
M  V30 3485 O 315.284 1.65913 -5.44483 0
M  V30 3486 N 316.486 3.40485 -4.70159 0
M  V30 3487 H 319.251 -0.28495 -2.98342 0
M  V30 3488 H 316.812 -0.298163 -1.59131 0
M  V30 3489 H 318.804 2.21371 -3.38787 0
M  V30 3490 H 317.374 2.07945 -2.33404 0
M  V30 3491 H 316.594 0.180393 -3.93787 0
M  V30 3492 H 317.882 0.698798 -5.03978 0
M  V30 3493 H 317.28 3.77155 -4.21629 0
M  V30 3494 H 315.837 4.05156 -5.1058 0
M  V30 3495 N 319.27 1.56325 -0.20005 0
M  V30 3496 C 320.518 1.97329 0.436547 0
M  V30 3497 C 320.839 1.08826 1.61808 0
M  V30 3498 O 320.109 0.160604 1.95241 0
M  V30 3499 H 318.689 0.728714 0.164272 0
M  V30 3500 H 321.351 1.92761 -0.287937 0
M  V30 3501 H 320.447 3.02264 0.777353 0
M  V30 3502 N 320.748 -0.0735177 1.57428 0
M  V30 3503 C 321.994 -0.774145 1.87443 0
M  V30 3504 C 322.327 -1.77311 0.792103 0
M  V30 3505 O 321.602 -1.93492 -0.197793 0
M  V30 3506 C 321.885 -1.48367 3.28115 0
M  V30 3507 C 321.738 -0.501227 4.46999 0
M  V30 3508 C 323.057 -2.429 3.66998 0
M  V30 3509 H 320.176 -0.279971 0.681752 0
M  V30 3510 H 322.818 -0.0373616 1.89963 0
M  V30 3511 H 320.968 -2.11171 3.26097 0
M  V30 3512 H 322.64 0.121468 4.6114 0
M  V30 3513 H 320.883 0.183593 4.33411 0
M  V30 3514 H 321.554 -1.03526 5.42205 0
M  V30 3515 H 324.03 -1.90175 3.70098 0
M  V30 3516 H 322.906 -2.89549 4.66318 0
M  V30 3517 H 323.167 -3.27628 2.96837 0
M  V30 3518 N 322.226 -1.5378 -0.344866 0
M  V30 3519 C 323.456 -1.74646 -1.10374 0
M  V30 3520 C 323.864 -0.48491 -1.8288 0
M  V30 3521 O 323.207 0.553062 -1.75177 0
M  V30 3522 C 323.269 -2.87145 -2.16306 0
M  V30 3523 C 322.933 -4.26795 -1.63386 0
M  V30 3524 C 323.93 -5.08412 -1.08688 0
M  V30 3525 C 321.615 -4.73276 -1.68272 0
M  V30 3526 C 323.609 -6.34609 -0.595792 0
M  V30 3527 C 321.296 -5.99446 -1.18776 0
M  V30 3528 C 322.294 -6.79946 -0.645215 0
M  V30 3529 O 321.982 -8.03745 -0.157626 0
M  V30 3530 H 321.714 -0.587112 -0.335075 0
M  V30 3531 H 324.268 -2.01403 -0.403252 0
M  V30 3532 H 322.498 -2.55909 -2.89909 0
M  V30 3533 H 324.187 -2.95992 -2.77747 0
M  V30 3534 H 324.953 -4.73666 -1.04236 0
M  V30 3535 H 320.832 -4.10677 -2.09442 0
M  V30 3536 H 324.376 -6.97389 -0.171654 0
M  V30 3537 H 320.273 -6.33687 -1.22928 0
M  V30 3538 H 321.041 -8.18038 -0.275037 0
M  V30 3539 N 323.704 0.605807 -1.45491 0
M  V30 3540 C 324.652 1.73754 -1.54636 0
M  V30 3541 C 325.646 1.64207 -0.416219 0
M  V30 3542 O 326.852 1.69979 -0.592199 0
M  V30 3543 H 323.227 0.574073 -0.485741 0
M  V30 3544 H 325.198 1.63169 -2.49837 0
M  V30 3545 C 323.947 3.12135 -1.53189 0
M  V30 3546 H 323.27 3.20141 -2.39478 0
M  V30 3547 H 324.71 3.91147 -1.63645 0
M  V30 3548 C 323.169 3.35921 -0.256616 0
M  V30 3549 O 323.699 3.96194 0.662798 0
M  V30 3550 N 321.905 2.90204 -0.151751 0
M  V30 3551 H 321.452 2.41336 -0.90081 0
M  V30 3552 H 321.41 3.06492 0.700699 0
M  V30 3553 N 325.182 1.32811 0.848464 0
M  V30 3554 C 326.43 1.23479 1.59991 0
M  V30 3555 C 326.751 -0.201853 1.93952 0
M  V30 3556 O 326.021 -1.12818 1.60153 0
M  V30 3557 H 324.601 0.454034 0.593179 0
M  V30 3558 H 327.263 1.66412 1.01455 0
M  V30 3559 H 326.359 1.82178 2.53412 0
M  V30 3560 N 326.66 -1.06551 1.16123 0
M  V30 3561 C 328.076 -1.3142 0.905585 0
M  V30 3562 C 328.276 -1.96571 -0.442964 0
M  V30 3563 O 327.332 -2.23068 -1.18308 0
M  V30 3564 C 328.645 -2.19741 2.05267 0
M  V30 3565 C 330.193 -2.33165 2.08813 0
M  V30 3566 C 330.668 -3.24838 3.22868 0
M  V30 3567 N 332.159 -3.32421 3.22568 0
M  V30 3568 C 332.894 -4.0344 4.0746 0
M  V30 3569 N 332.39 -4.77003 5.02434 0
M  V30 3570 N 334.183 -3.99464 3.95456 0
M  V30 3571 H 326.334 -0.626548 2.02949 0
M  V30 3572 H 328.597 -0.338777 0.8854 0
M  V30 3573 H 328.303 -1.79142 3.02657 0
M  V30 3574 H 328.177 -3.20313 1.99198 0
M  V30 3575 H 330.564 -2.73013 1.12018 0
M  V30 3576 H 330.645 -1.3227 2.18948 0
M  V30 3577 H 330.289 -2.85708 4.19921 0
M  V30 3578 H 330.219 -4.25707 3.0997 0
M  V30 3579 H 332.71 -2.79994 2.53795 0
M  V30 3580 H 333.023 -5.28712 5.63634 0
M  V30 3581 H 331.368 -4.75992 5.06415 0
M  V30 3582 H 334.559 -3.4111 3.20564 0
M  V30 3583 H 334.732 -4.54544 4.61837 0
M  V30 3584 N 328.138 -0.959301 -1.25041 0
M  V30 3585 C 329.415 -0.533805 -1.88175 0
M  V30 3586 C 329.795 0.988994 -1.865 0
M  V30 3587 O 329.143 1.85677 -1.33177 0
M  V30 3588 C 329.353 -1.11575 -3.30684 0
M  V30 3589 C 330.701 -1.19548 -4.07423 0
M  V30 3590 O 331.725 -1.06765 -3.39823 0
M  V30 3591 O 330.584 -1.39656 -5.28354 0
M  V30 3592 H 327.678 -0.176772 -0.807887 0
M  V30 3593 H 330.224 -1.05303 -1.33076 0
M  V30 3594 H 328.996 -2.15884 -3.26358 0
M  V30 3595 H 328.619 -0.580059 -3.93346 0
M  V30 3596 N 329.616 1.39756 -0.72842 0
M  V30 3597 C 330.564 2.32485 -0.0731849 0
M  V30 3598 C 331.558 1.52717 0.733063 0
M  V30 3599 O 332.764 1.68428 0.634988 0
M  V30 3600 H 329.139 0.751984 -0.00486469 0
M  V30 3601 H 331.11 2.85382 -0.871761 0
M  V30 3602 C 329.859 3.37773 0.824908 0
M  V30 3603 H 329.182 3.99227 0.213915 0
M  V30 3604 H 330.622 4.05121 1.25111 0
M  V30 3605 C 329.081 2.74287 1.95622 0
M  V30 3606 O 329.611 2.61618 3.04826 0
M  V30 3607 N 327.817 2.32475 1.74367 0
M  V30 3608 H 327.364 2.4298 0.855494 0
M  V30 3609 H 327.322 1.90337 2.50238 0
M  V30 3610 N 331.094 0.475555 1.50254 0
M  V30 3611 C 332.024 -0.30611 2.31485 0
M  V30 3612 C 333.005 -0.986228 1.38591 0
M  V30 3613 O 334.19 -0.982541 1.67511 0
M  V30 3614 C 331.32 -1.38588 3.1845 0
M  V30 3615 C 330.274 -0.827115 4.19932 0
M  V30 3616 C 329.6 -2.00551 4.95665 0
M  V30 3617 C 330.9 0.16463 5.2204 0
M  V30 3618 H 332.594 0.371866 2.97082 0
M  V30 3619 H 330.14 0.180282 1.42867 0
M  V30 3620 H 332.093 -1.94023 3.74076 0
M  V30 3621 H 330.817 -2.09269 2.50747 0
M  V30 3622 H 329.476 -0.294702 3.65414 0
M  V30 3623 H 329.124 -2.6994 4.2443 0
M  V30 3624 H 328.824 -1.63784 5.64313 0
M  V30 3625 H 330.348 -2.56468 5.54127 0
M  V30 3626 H 331.762 -0.300699 5.72511 0
M  V30 3627 H 330.159 0.446813 5.98434 0
M  V30 3628 H 331.229 1.08905 4.72512 0
M  V30 3629 N 332.573 -1.56217 0.208337 0
M  V30 3630 C 333.798 -2.02782 -0.435222 0
M  V30 3631 C 334.223 -1.08738 -1.53485 0
M  V30 3632 O 333.581 -0.0731855 -1.81152 0
M  V30 3633 C 333.629 -3.47687 -0.956335 0
M  V30 3634 O 332.733 -3.56773 -2.06849 0
M  V30 3635 H 332.074 -0.656403 -0.100158 0
M  V30 3636 H 334.604 -2.02033 0.3231 0
M  V30 3637 H 334.614 -3.87745 -1.26955 0
M  V30 3638 H 333.289 -4.15624 -0.15143 0
M  V30 3639 H 331.866 -3.28597 -1.76292 0
M  V30 3640 N 334.051 0.0651679 -1.57465 0
M  V30 3641 C 334.961 1.09448 -2.07505 0
M  V30 3642 C 335.977 1.41974 -1.00595 0
M  V30 3643 O 337.153 1.52018 -1.32107 0
M  V30 3644 C 334.218 2.38689 -2.51453 0
M  V30 3645 C 333.279 2.13073 -3.72691 0
M  V30 3646 C 332.512 3.36152 -4.14533 0
M  V30 3647 O 332.735 4.45517 -3.56189 0
M  V30 3648 O 331.669 3.23974 -5.07272 0
M  V30 3649 H 335.495 0.69935 -2.95538 0
M  V30 3650 H 333.08 0.279752 -1.46757 0
M  V30 3651 H 334.962 3.14736 -2.80212 0
M  V30 3652 H 333.637 2.77568 -1.66546 0
M  V30 3653 H 332.544 1.34709 -3.49005 0
M  V30 3654 H 333.877 1.79071 -4.5847 0
M  V30 3655 N 335.529 1.53961 0.336706 0
M  V30 3656 C 336.477 1.83136 1.43401 0
M  V30 3657 C 337.471 0.702313 1.54156 0
M  V30 3658 O 338.677 0.885765 1.56698 0
M  V30 3659 H 335.052 0.580309 0.478273 0
M  V30 3660 H 337.023 2.74925 1.16012 0
M  V30 3661 C 335.772 2.06385 2.79822 0
M  V30 3662 H 335.095 2.92718 2.72316 0
M  V30 3663 H 336.535 2.30761 3.55704 0
M  V30 3664 C 334.994 0.851414 3.25964 0
M  V30 3665 O 335.524 0.0541904 4.01663 0
M  V30 3666 N 333.73 0.66672 2.82848 0
M  V30 3667 H 333.277 1.31665 2.21409 0
M  V30 3668 H 333.235 -0.143032 3.14074 0
M  V30 3669 N 337.007 -0.598083 1.45811 0
M  V30 3670 C 338.232 -1.3881 1.54099 0
M  V30 3671 C 338.657 -1.8726 0.177578 0
M  V30 3672 O 338.015 -1.6069 -0.839541 0
M  V30 3673 C 338.063 -2.56217 2.53743 0
M  V30 3674 O 337.167 -3.5716 2.06182 0
M  V30 3675 H 336.508 -0.414024 0.519115 0
M  V30 3676 H 339.038 -0.726971 1.91249 0
M  V30 3677 H 339.048 -3.03337 2.72856 0
M  V30 3678 H 337.723 -2.20303 3.5276 0
M  V30 3679 H 336.3 -3.16624 1.96987 0
M  V30 3680 N 338.485 -1.33259 -0.841409 0
M  V30 3681 C 339.715 -1.2742 -1.62628 0
M  V30 3682 C 340.123 0.157604 -1.88542 0
M  V30 3683 O 339.466 1.10938 -1.46419 0
M  V30 3684 C 339.528 -1.97797 -3.00194 0
M  V30 3685 C 339.192 -3.47109 -2.97261 0
M  V30 3686 C 340.189 -4.42358 -2.73159 0
M  V30 3687 C 337.874 -3.89247 -3.17478 0
M  V30 3688 C 339.868 -5.77718 -2.69296 0
M  V30 3689 C 337.555 -5.24713 -3.13241 0
M  V30 3690 C 338.553 -6.1876 -2.89181 0
M  V30 3691 O 338.241 -7.51745 -2.84843 0
M  V30 3692 H 337.973 -0.440436 -0.512827 0
M  V30 3693 H 340.527 -1.76153 -1.05638 0
M  V30 3694 H 338.757 -1.43652 -3.59028 0
M  V30 3695 H 340.446 -1.8549 -3.61038 0
M  V30 3696 H 341.212 -4.11127 -2.57294 0
M  V30 3697 H 337.091 -3.16456 -3.35226 0
M  V30 3698 H 340.635 -6.51097 -2.50436 0
M  V30 3699 H 336.532 -5.55569 -3.28654 0
M  V30 3700 H 337.3 -7.61262 -3.00702 0
M  V30 3701 N 339.963 1.05934 -1.16686 0
M  V30 3702 C 341.379 1.30938 -0.912542 0
M  V30 3703 C 341.579 1.96803 0.432533 0
M  V30 3704 O 340.635 2.23693 1.17123 0
M  V30 3705 C 341.948 2.18649 -2.06429 0
M  V30 3706 C 343.496 2.32055 -2.10047 0
M  V30 3707 C 343.971 3.23122 -3.24586 0
M  V30 3708 N 345.462 3.30706 -3.24327 0
M  V30 3709 C 346.197 4.01273 -4.09594 0
M  V30 3710 N 345.693 4.74332 -5.04956 0
M  V30 3711 N 347.486 3.97361 -3.97569 0
M  V30 3712 H 339.637 0.615777 -2.03278 0
M  V30 3713 H 341.9 0.334077 -0.887185 0
M  V30 3714 H 341.606 1.77534 -3.03603 0
M  V30 3715 H 341.48 3.19252 -2.00894 0
M  V30 3716 H 343.867 2.72415 -1.13464 0
M  V30 3717 H 343.948 1.31107 -2.19647 0
M  V30 3718 H 343.592 2.83477 -4.2143 0
M  V30 3719 H 343.522 4.24057 -3.12223 0
M  V30 3720 H 346.013 2.78644 -2.55276 0
M  V30 3721 H 346.326 5.25716 -5.6643 0
M  V30 3722 H 344.671 4.733 -5.08933 0
M  V30 3723 H 347.862 3.39405 -3.22369 0
M  V30 3724 H 348.035 4.52089 -4.64241 0
M  V30 3725 N 341.441 0.965919 1.2453 0
M  V30 3726 C 342.69 0.622437 1.91856 0
M  V30 3727 C 343.003 -0.846006 1.76358 0
M  V30 3728 O 344.209 -1.29993 2.38357 0
M  V30 3729 C 342.665 1.0626 3.43856 0
M  V30 3730 C 342.273 2.55437 3.68043 0
M  V30 3731 C 344.017 0.792183 4.17043 0
M  V30 3732 C 341.924 2.93196 5.13605 0
M  V30 3733 H 340.854 0.229092 0.718354 0
M  V30 3734 H 343.505 1.17189 1.41206 0
M  V30 3735 H 341.887 0.441476 3.93531 0
M  V30 3736 H 343.061 3.22665 3.28974 0
M  V30 3737 H 341.376 2.8007 3.08139 0
M  V30 3738 H 343.973 1.05031 5.24283 0
M  V30 3739 H 344.316 -0.271584 4.15413 0
M  V30 3740 H 344.849 1.37419 3.73311 0
M  V30 3741 H 341.588 3.98636 5.20355 0
M  V30 3742 H 341.108 2.30651 5.53679 0
M  V30 3743 H 342.787 2.83004 5.81823 0
M  V30 3744 N 342.919 -1.39368 0.735821 0
M  V30 3745 C 344.167 -2.00101 0.283562 0
M  V30 3746 C 344.488 -1.5868 -1.13338 0
M  V30 3747 O 343.758 -0.835423 -1.77193 0
M  V30 3748 H 342.338 -0.740024 0.101851 0
M  V30 3749 H 345 -1.70404 0.945962 0
M  V30 3750 H 344.096 -3.10323 0.332604 0
M  V30 3751 N 344.397 -0.483516 -1.5 0
M  V30 3752 C 345.643 0.0672592 -2.02688 0
M  V30 3753 C 345.976 1.38247 -1.36387 0
M  V30 3754 O 345.251 1.88131 -0.493675 0
M  V30 3755 C 345.534 0.238109 -3.59312 0
M  V30 3756 C 345.387 -1.099 -4.36168 0
M  V30 3757 C 346.706 0.986916 -4.28892 0
M  V30 3758 H 343.825 0.0229696 -0.736642 0
M  V30 3759 H 346.467 -0.631527 -1.79197 0
M  V30 3760 H 344.617 0.8333 -3.79458 0
M  V30 3761 H 346.289 -1.73172 -4.27562 0
M  V30 3762 H 344.532 -1.69261 -3.99416 0
M  V30 3763 H 345.203 -0.932954 -5.44059 0
M  V30 3764 H 347.679 0.482302 -4.13295 0
M  V30 3765 H 346.555 1.07527 -5.38265 0
M  V30 3766 H 346.816 2.0265 -3.92919 0
M  V30 3767 N 345.875 1.56104 -0.216619 0
M  V30 3768 C 347.1 2.0301 0.424462 0
M  V30 3769 C 347.525 1.0955 1.52907 0
M  V30 3770 O 346.883 0.0827914 1.81111 0
M  V30 3771 C 346.931 3.4819 0.937883 0
M  V30 3772 O 346.035 3.57865 2.04955 0
M  V30 3773 H 345.376 0.656925 0.0966755 0
M  V30 3774 H 347.906 2.01859 -0.33381 0
M  V30 3775 H 347.916 3.88413 1.24897 0
M  V30 3776 H 346.591 4.15699 0.129387 0
M  V30 3777 H 345.168 3.29527 1.74546 0
M  V30 3778 N 347.353 -0.0568162 1.57498 0
M  V30 3779 C 348.6 -0.753104 1.87975 0
M  V30 3780 C 348.928 -1.76815 0.81035 0
M  V30 3781 O 348.183 -1.94756 -0.19199 0
M  V30 3782 C 348.482 -1.48359 3.25153 0
M  V30 3783 C 348.148 -0.60713 4.46794 0
M  V30 3784 C 346.81 -0.365642 4.79809 0
M  V30 3785 C 349.162 -0.000305978 5.212 0
M  V30 3786 C 346.49 0.491905 5.84634 0
M  V30 3787 C 348.842 0.844781 6.26934 0
M  V30 3788 C 347.506 1.096 6.58441 0
M  V30 3789 H 346.776 -0.27558 0.687849 0
M  V30 3790 H 349.423 -0.0135173 1.91495 0
M  V30 3791 H 347.728 -2.29577 3.17492 0
M  V30 3792 H 349.425 -2.02739 3.45974 0
M  V30 3793 H 346.015 -0.805487 4.20963 0
M  V30 3794 H 350.199 -0.173961 4.95995 0
M  V30 3795 H 345.455 0.695131 6.07436 0
M  V30 3796 H 349.629 1.32165 6.83744 0
M  V30 3797 H 347.256 1.76224 7.39492 0
M  V30 3798 N 348.832 -1.54138 -0.328536 0
M  V30 3799 C 349.779 -1.83176 -1.40411 0
M  V30 3800 C 350.749 -0.678494 -1.5161 0
M  V30 3801 O 351.934 -0.92443 -1.6691 0
M  V30 3802 C 349.074 -2.06035 -2.76846 0
M  V30 3803 C 348.187 -3.33727 -2.74318 0
M  V30 3804 C 347.322 -3.46574 -4.02567 0
M  V30 3805 C 346.361 -4.68159 -3.94327 0
M  V30 3806 N 345.498 -4.77959 -5.14296 0
M  V30 3807 H 350.338 -2.74938 -1.14948 0
M  V30 3808 H 347.875 -1.36166 -0.556538 0
M  V30 3809 H 349.833 -2.1728 -3.56153 0
M  V30 3810 H 348.463 -1.1757 -3.00628 0
M  V30 3811 H 347.515 -3.31246 -1.8703 0
M  V30 3812 H 348.827 -4.23139 -2.64111 0
M  V30 3813 H 347.981 -3.57333 -4.90304 0
M  V30 3814 H 346.72 -2.55245 -4.15574 0
M  V30 3815 H 345.725 -4.57461 -3.04974 0
M  V30 3816 H 346.95 -5.60868 -3.82889 0
M  V30 3817 H 344.896 -3.89544 -5.27818 0
M  V30 3818 H 344.813 -5.6133 -5.06404 0
M  V30 3819 H 346.081 -4.93044 -6.03761 0
M  V30 3820 N 350.31 0.590341 -1.46126 0
M  V30 3821 C 351.24 1.71032 -1.58966 0
M  V30 3822 C 352.221 1.64302 -0.440335 0
M  V30 3823 O 353.406 1.82436 -0.665634 0
M  V30 3824 C 350.536 3.09665 -1.57241 0
M  V30 3825 C 349.49 3.31221 -2.71066 0
M  V30 3826 C 348.816 4.70303 -2.54399 0
M  V30 3827 C 350.116 3.19796 -4.1295 0
M  V30 3828 H 351.81 1.60543 -2.52718 0
M  V30 3829 H 349.356 0.770933 -1.21625 0
M  V30 3830 H 351.309 3.87831 -1.64819 0
M  V30 3831 H 350.033 3.21036 -0.600289 0
M  V30 3832 H 348.692 2.55452 -2.62944 0
M  V30 3833 H 348.34 4.78429 -1.55288 0
M  V30 3834 H 348.04 4.85679 -3.30741 0
M  V30 3835 H 349.564 5.50647 -2.63857 0
M  V30 3836 H 350.978 3.87815 -4.22223 0
M  V30 3837 H 349.375 3.46696 -4.89818 0
M  V30 3838 H 350.445 2.16983 -4.33643 0
M  V30 3839 O 351.827 1.43831 0.734505 0
M  V30 3840 H 352.518 1.35486 1.38431 0
M  V30 END ATOM
M  V30 BEGIN BOND
M  V30 END BOND
M  V30 END CTAB
M  END
$$$$
