drugbank_target|P69923 L-fucose isomerase (DB03815)
 OpenBabel12092119593D

  0  0  0     0  0            999 V3000
M  V30 BEGIN CTAB
M  V30 COUNTS 8991 9091 0 0 0
M  V30 BEGIN ATOM
M  V30 1 H -0.908 1.98254 -0.117106 0
M  V30 2 N 0 1.576 0 0
M  V30 3 C 0.933 2.03868 1.02534 0
M  V30 4 C 1.911 0.928543 1.3348 0
M  V30 5 O 3.095 1.19667 1.45644 0
M  V30 6 C 0.222 2.43627 2.35294 0
M  V30 7 C -0.732 3.65373 2.2001 0
M  V30 8 S 0.101 5.13292 1.52614 0
M  V30 9 C 1.257 5.56322 2.86805 0
M  V30 10 H 1.49 2.90518 0.631377 0
M  V30 11 H -0.977 1.52953 0.210867 0
M  V30 12 H 0.981 2.67203 3.11629 0
M  V30 13 H -0.358 1.57376 2.7183 0
M  V30 14 H -1.165 3.90944 3.18086 0
M  V30 15 H -1.563 3.418 1.51819 0
M  V30 16 H 0.729 5.58782 3.83104 0
M  V30 17 H 1.672 6.56266 2.65933 0
M  V30 18 H 2.08 4.83886 2.90714 0
M  V30 19 N 1.4781 -0.272755 1.55222 0
M  V30 20 C 2.4251 -1.33716 1.88119 0
M  V30 21 C 3.3951 -1.49066 0.73271 0
M  V30 22 O 4.5801 -1.63469 0.984002 0
M  V30 23 C 1.7201 -2.69238 2.15882 0
M  V30 24 C 0.8331 -2.62108 3.43399 0
M  V30 25 C -0.0319 -3.89811 3.60861 0
M  V30 26 C -0.9929 -3.77193 4.8207 0
M  V30 27 N -1.8559 -4.9673 4.96189 0
M  V30 28 H 2.9841 -1.04962 2.78903 0
M  V30 29 H 0.5211 -0.507088 1.38083 0
M  V30 30 H 2.4791 -3.48089 2.29978 0
M  V30 31 H 1.1091 -2.96194 1.28331 0
M  V30 32 H 0.1611 -1.74967 3.37773 0
M  V30 33 H 1.4731 -2.48685 4.32386 0
M  V30 34 H 0.6271 -4.77103 3.74777 0
M  V30 35 H -0.6339 -4.06102 2.7006 0
M  V30 36 H -1.6289 -2.88284 4.68159 0
M  V30 37 H -0.4039 -3.62421 5.74307 0
M  V30 38 H -2.4579 -5.13431 4.08319 0
M  V30 39 H -2.5409 -4.85839 5.79221 0
M  V30 40 H -1.2729 -5.85594 5.1449 0
M  V30 41 N 2.9562 -1.48159 -0.537278 0
M  V30 42 C 3.9032 -1.62138 -1.64256 0
M  V30 43 C 4.8732 -0.463668 -1.59497 0
M  V30 44 O 6.0582 -0.686241 -1.78032 0
M  V30 45 C 3.1982 -1.66028 -3.02537 0
M  V30 46 C 2.3112 -2.92855 -3.17585 0
M  V30 47 C 1.4462 -2.87952 -4.46382 0
M  V30 48 C 0.4852 -4.09516 -4.54932 0
M  V30 49 N -0.3778 -4.02733 -5.75109 0
M  V30 50 H 4.4622 -2.56529 -1.51647 0
M  V30 51 H 1.9992 -1.27224 -0.738414 0
M  V30 52 H 3.9572 -1.66265 -3.82638 0
M  V30 53 H 2.5872 -0.751331 -3.13934 0
M  V30 54 H 1.6392 -3.02395 -2.30784 0
M  V30 55 H 2.9512 -3.82822 -3.19764 0
M  V30 56 H 2.1052 -2.8655 -5.34765 0
M  V30 57 H 0.8442 -1.95702 -4.46712 0
M  V30 58 H -0.1508 -4.11201 -3.64957 0
M  V30 59 H 1.0742 -5.02917 -4.56346 0
M  V30 60 H -0.9798 -3.13299 -5.76351 0
M  V30 61 H -1.0628 -4.86397 -5.78752 0
M  V30 62 H 0.2052 -4.05379 -6.65799 0
M  V30 63 N 4.4343 0.785586 -1.36625 0
M  V30 64 C 5.6833 1.53883 -1.30396 0
M  V30 65 C 5.9963 1.95271 0.113452 0
M  V30 66 O 7.2023 2.69858 0.298142 0
M  V30 67 C 5.6583 2.77808 -2.28802 0
M  V30 68 C 5.2663 2.43574 -3.75999 0
M  V30 69 C 7.0103 3.55783 -2.31558 0
M  V30 70 C 4.9173 3.63919 -4.66173 0
M  V30 71 H 3.8473 0.577678 -0.484566 0
M  V30 72 H 6.4983 0.861705 -1.62009 0
M  V30 73 H 4.8803 3.47339 -1.90188 0
M  V30 74 H 6.0543 1.81916 -4.23371 0
M  V30 75 H 4.3693 1.78803 -3.76056 0
M  V30 76 H 6.9663 4.45205 -2.96137 0
M  V30 77 H 7.3093 3.94644 -1.3252 0
M  V30 78 H 7.8423 2.93235 -2.68809 0
M  V30 79 H 4.5813 3.3015 -5.66287 0
M  V30 80 H 4.1013 4.2473 -4.23515 0
M  V30 81 H 5.7803 4.30901 -4.82632 0
M  V30 82 N 5.9124 1.20967 1.01018 0
M  V30 83 C 7.1374 1.0503 1.78839 0
M  V30 84 C 7.5624 -0.395752 1.8389 0
M  V30 85 O 6.9204 -1.28529 1.27867 0
M  V30 86 C 6.9684 1.64602 3.2084 0
M  V30 87 O 6.0724 0.887988 4.02726 0
M  V30 88 H 5.4134 0.369987 0.551367 0
M  V30 89 H 7.9434 1.60399 1.27018 0
M  V30 90 H 7.9534 1.68607 3.71532 0
M  V30 91 H 6.6284 2.69841 3.16479 0
M  V30 92 H 5.2054 0.922648 3.61305 0
M  V30 93 N 7.3905 -1.2043 1.01659 0
M  V30 94 C 8.3205 -2.25466 0.607226 0
M  V30 95 C 9.3015 -1.65853 -0.377716 0
M  V30 96 O 10.4865 -1.92409 -0.263149 0
M  V30 97 C 7.6165 -3.47256 -0.0552949 0
M  V30 98 C 6.5705 -4.19462 0.850632 0
M  V30 99 C 5.8965 -5.34673 0.0538859 0
M  V30 100 C 7.1965 -4.75603 2.15868 0
M  V30 101 H 8.8905 -2.59962 1.48526 0
M  V30 102 H 6.4365 -1.2496 0.715605 0
M  V30 103 H 8.3895 -4.19917 -0.353233 0
M  V30 104 H 7.1135 -3.11924 -0.968045 0
M  V30 105 H 5.7725 -3.48667 1.13257 0
M  V30 106 H 5.4205 -4.95585 -0.860514 0
M  V30 107 H 5.1205 -5.83913 0.657192 0
M  V30 108 H 6.6445 -6.10138 -0.237598 0
M  V30 109 H 8.0585 -5.40083 1.92311 0
M  V30 110 H 6.4555 -5.3528 2.71284 0
M  V30 111 H 7.5255 -3.94346 2.82169 0
M  V30 112 N 8.8686 -0.792821 -1.36206 0
M  V30 113 C 10.2796 -0.429513 -1.81692 0
M  V30 114 C 10.6306 1.04695 -1.65932 0
M  V30 115 O 9.7556 1.81256 -1.18218 0
M  V30 116 C 10.3506 -0.772831 -3.29868 0
M  V30 117 C 8.9096 -0.462307 -3.7355 0
M  V30 118 C 8.0566 -1.00569 -2.5842 0
M  V30 119 H 11.0076 -0.985672 -1.24379 0
M  V30 120 H 11.0286 -0.0651928 -3.80444 0
M  V30 121 H 10.5406 -1.84747 -3.41307 0
M  V30 122 H 8.6416 0.604158 -3.67669 0
M  V30 123 H 8.7546 -0.985299 -4.68859 0
M  V30 124 H 7.1186 -0.428734 -2.51066 0
M  V30 125 H 7.9016 -2.08616 -2.72643 0
M  V30 126 N 10.3467 1.47872 -0.545128 0
M  V30 127 C 11.2937 2.29849 0.2093 0
M  V30 128 C 12.2637 1.38313 0.919707 0
M  V30 129 O 13.4487 1.67277 0.917772 0
M  V30 130 C 10.5887 3.22019 1.24088 0
M  V30 131 C 9.7017 4.2864 0.537778 0
M  V30 132 C 8.8367 5.07973 1.5536 0
M  V30 133 C 7.8757 6.06381 0.8348 0
M  V30 134 N 7.0127 6.78717 1.79688 0
M  V30 135 H 11.8527 2.93845 -0.49591 0
M  V30 136 H 9.3897 1.44848 -0.256389 0
M  V30 137 H 11.3477 3.73868 1.85144 0
M  V30 138 H 9.9777 2.59914 1.91428 0
M  V30 139 H 9.0297 3.7994 -0.187046 0
M  V30 140 H 10.3417 4.98793 -0.0258907 0
M  V30 141 H 9.4957 5.63912 2.23803 0
M  V30 142 H 8.2347 4.37693 2.15118 0
M  V30 143 H 7.2397 5.49631 0.136388 0
M  V30 144 H 8.4647 6.78665 0.24313 0
M  V30 145 H 6.4107 6.11177 2.38326 0
M  V30 146 H 6.3277 7.44998 1.28505 0
M  V30 147 H 7.5957 7.39237 2.47282 0
M  V30 148 N 11.8248 0.280983 1.55075 0
M  V30 149 C 13.0738 -0.334784 1.98902 0
M  V30 150 C 13.3868 -1.56534 1.17288 0
M  V30 151 O 14.5928 -2.25443 1.51287 0
M  V30 152 C 13.0488 -0.646994 3.54037 0
M  V30 153 C 12.6568 0.564085 4.44435 0
M  V30 154 C 14.4008 -1.22506 4.06439 0
M  V30 155 C 12.3078 0.226137 5.90967 0
M  V30 156 H 11.2378 -0.128866 0.742906 0
M  V30 157 H 13.8888 0.386556 1.79382 0
M  V30 158 H 12.2708 -1.42739 3.6938 0
M  V30 159 H 13.4448 1.34082 4.40861 0
M  V30 160 H 11.7598 1.0594 4.02698 0
M  V30 161 H 14.3568 -1.49182 5.13468 0
M  V30 162 H 14.6998 -2.16085 3.55827 0
M  V30 163 H 15.2328 -0.50682 3.94558 0
M  V30 164 H 11.9718 1.12996 6.45687 0
M  V30 165 H 11.4918 -0.513717 5.97596 0
M  V30 166 H 13.1708 -0.179539 6.46751 0
M  V30 167 N 13.3029 -1.57598 0.00835791 0
M  V30 168 C 14.5509 -1.90551 -0.6734 0
M  V30 169 C 14.8719 -0.883301 -1.73847 0
M  V30 170 O 14.1419 0.0781442 -1.95744 0
M  V30 171 H 12.7219 -0.703312 -0.251717 0
M  V30 172 H 15.3839 -1.94833 0.0512592 0
M  V30 173 H 14.4799 -2.9056 -1.13935 0
M  V30 174 N 14.781 0.264519 -1.55364 0
M  V30 175 C 16.03 0.992812 -1.75574 0
M  V30 176 C 16.343 1.87142 -0.568979 0
M  V30 177 O 17.549 2.63513 -0.653682 0
M  V30 178 C 16.005 1.81519 -3.10771 0
M  V30 179 C 15.613 0.984839 -4.37041 0
M  V30 180 C 17.357 2.53727 -3.40327 0
M  V30 181 C 15.264 1.80209 -5.63275 0
M  V30 182 H 14.194 0.374412 -0.65447 0
M  V30 183 H 16.845 0.248138 -1.81815 0
M  V30 184 H 15.227 2.60115 -2.98591 0
M  V30 185 H 16.401 0.242455 -4.60162 0
M  V30 186 H 14.716 0.37691 -4.14691 0
M  V30 187 H 17.313 3.15292 -4.3185 0
M  V30 188 H 17.656 3.24447 -2.60845 0
M  V30 189 H 18.189 1.82156 -3.53644 0
M  V30 190 H 14.928 1.13896 -6.45529 0
M  V30 191 H 14.448 2.52022 -5.44284 0
M  V30 192 H 16.127 2.37364 -6.01887 0
M  V30 193 N 16.2591 1.48442 0.529413 0
M  V30 194 C 17.6751 1.34575 0.858004 0
M  V30 195 C 17.8751 0.3572 1.98309 0
M  V30 196 O 16.9311 -0.221379 2.51528 0
M  V30 197 C 18.2441 2.74617 1.22499 0
M  V30 198 C 19.7921 2.83109 1.33484 0
M  V30 199 C 20.2671 4.23854 1.73526 0
M  V30 200 N 21.7581 4.2653 1.80628 0
M  V30 201 C 22.4931 5.32372 2.12997 0
M  V30 202 N 21.9891 6.48491 2.43786 0
M  V30 203 N 23.7821 5.19766 2.14008 0
M  V30 204 H 15.9331 2.1133 -0.212925 0
M  V30 205 H 18.1961 0.947439 -0.0326199 0
M  V30 206 H 17.9021 3.4852 0.471905 0
M  V30 207 H 17.7761 3.08177 2.17501 0
M  V30 208 H 20.1631 2.09462 2.0787 0
M  V30 209 H 20.2441 2.53168 0.366027 0
M  V30 210 H 19.8881 4.98018 0.997013 0
M  V30 211 H 19.8181 4.5124 2.71459 0
M  V30 212 H 22.3091 3.42772 1.59108 0
M  V30 213 H 22.6221 7.24993 2.67592 0
M  V30 214 H 20.9671 6.51765 2.41304 0
M  V30 215 H 24.1581 4.28066 1.89412 0
M  V30 216 H 24.3311 6.02354 2.38902 0
M  V30 217 N 17.7372 -0.778329 1.37039 0
M  V30 218 C 19.1482 -1.35421 1.28523 0
M  V30 219 C 19.4992 -1.96075 -0.0700901 0
M  V30 220 O 18.6242 -1.93352 -0.971801 0
M  V30 221 C 19.2192 -2.46211 2.32735 0
M  V30 222 C 17.7782 -2.99585 2.27873 0
M  V30 223 C 16.9252 -1.72748 2.16918 0
M  V30 224 H 19.8762 -0.5791 1.47757 0
M  V30 225 H 19.8972 -3.2552 1.9702 0
M  V30 226 H 19.4092 -2.02036 3.31365 0
M  V30 227 H 17.5102 -3.48152 1.32745 0
M  V30 228 H 17.6232 -3.55646 3.21018 0
M  V30 229 H 15.9872 -1.95416 1.63354 0
M  V30 230 H 16.7702 -1.30686 3.17452 0
M  V30 231 N 19.2153 -1.21501 -1.00376 0
M  V30 232 C 20.4613 -1.03452 -1.74429 0
M  V30 233 C 20.7943 0.430764 -1.89362 0
M  V30 234 O 20.0693 1.31962 -1.42886 0
M  V30 235 C 20.3523 -1.73375 -3.15615 0
M  V30 236 C 20.2053 -3.27431 -3.08397 0
M  V30 237 C 21.5243 -1.47732 -4.14564 0
M  V30 238 H 18.6433 -0.377226 -0.633143 0
M  V30 239 H 21.2853 -1.49693 -1.17013 0
M  V30 240 H 19.4353 -1.34064 -3.64636 0
M  V30 241 H 21.1073 -3.76119 -2.67081 0
M  V30 242 H 19.3503 -3.5767 -2.45468 0
M  V30 243 H 20.0213 -3.71524 -4.08258 0
M  V30 244 H 22.4973 -1.8186 -3.74254 0
M  V30 245 H 21.3733 -1.99169 -5.11491 0
M  V30 246 H 21.6343 -0.407589 -4.40217 0
M  V30 247 N 20.6934 1.19889 -1.02296 0
M  V30 248 C 21.9424 1.88743 -0.711257 0
M  V30 249 C 22.2554 1.80112 0.762817 0
M  V30 250 O 23.4614 2.44161 1.18733 0
M  V30 251 C 21.9174 3.38525 -1.22185 0
M  V30 252 C 21.5254 3.55727 -2.72328 0
M  V30 253 C 23.2694 4.12893 -0.985864 0
M  V30 254 C 21.1764 4.99369 -3.16835 0
M  V30 255 H 20.1064 0.706885 -0.262353 0
M  V30 256 H 22.7574 1.35586 -1.23648 0
M  V30 257 H 21.1394 3.91044 -0.624571 0
M  V30 258 H 22.3134 3.13564 -3.3766 0
M  V30 259 H 20.6284 2.94739 -2.9414 0
M  V30 260 H 23.2254 5.18813 -1.29374 0
M  V30 261 H 23.5684 4.16228 0.0775055 0
M  V30 262 H 24.1014 3.66494 -1.54684 0
M  V30 263 H 20.8404 5.01193 -4.22476 0
M  V30 264 H 20.3604 5.42317 -2.56228 0
M  V30 265 H 22.0394 5.67988 -3.09837 0
M  V30 266 N 22.1715 0.800033 1.35784 0
M  V30 267 C 23.4485 0.30088 1.93272 0
M  V30 268 C 23.8285 -1.20857 1.73081 0
M  V30 269 O 23.1765 -2.00502 1.09596 0
M  V30 270 C 23.3865 0.70511 3.41803 0
M  V30 271 C 24.7345 0.690871 4.18942 0
M  V30 272 O 25.7585 0.646244 3.50289 0
M  V30 273 O 24.6175 0.74332 5.41421 0
M  V30 274 H 21.7115 0.0771605 0.823393 0
M  V30 275 H 24.2575 0.88329 1.449 0
M  V30 276 H 23.0295 1.74571 3.50201 0
M  V30 277 H 22.6525 0.0971541 3.97481 0
M  V30 278 N 23.6496 -1.47581 0.552962 0
M  V30 279 C 24.8976 -2.02082 0.0272703 0
M  V30 280 C 25.2186 -1.4301 -1.32563 0
M  V30 281 O 24.4886 -0.603745 -1.86365 0
M  V30 282 H 23.0686 -0.746966 0.00709182 0
M  V30 283 H 25.7306 -1.81033 0.722008 0
M  V30 284 H 24.8266 -3.12034 -0.0639951 0
M  V30 285 N 25.1277 -0.289203 -1.54924 0
M  V30 286 C 26.5437 0.0645403 -1.59469 0
M  V30 287 C 26.7437 1.53419 -1.30632 0
M  V30 288 O 25.7997 2.2852 -1.074 0
M  V30 289 C 27.1127 -0.32278 -2.98963 0
M  V30 290 C 28.6607 -0.270564 -3.11828 0
M  V30 291 C 29.1357 -0.632532 -4.53611 0
M  V30 292 N 30.6267 -0.584617 -4.59496 0
M  V30 293 C 31.3617 -0.837314 -5.67254 0
M  V30 294 N 30.8577 -1.15536 -6.83098 0
M  V30 295 N 32.6507 -0.765166 -5.56868 0
M  V30 296 H 24.8017 -1.24714 -1.71931 0
M  V30 297 H 27.0647 -0.504809 -0.802416 0
M  V30 298 H 26.7707 -1.34541 -3.24948 0
M  V30 299 H 26.6447 0.32944 -3.75759 0
M  V30 300 H 29.0317 0.742805 -2.85598 0
M  V30 301 H 29.1127 -0.957242 -2.37214 0
M  V30 302 H 28.7567 -1.64365 -4.80569 0
M  V30 303 H 28.6867 0.07609 -5.26545 0
M  V30 304 H 31.1777 -0.349248 -3.76283 0
M  V30 305 H 31.4907 -1.33447 -7.61191 0
M  V30 306 H 29.8357 -1.19328 -6.84679 0
M  V30 307 H 33.0267 -0.516432 -4.65243 0
M  V30 308 H 33.1997 -0.965477 -6.40767 0
M  V30 309 N 26.6058 1.57591 -0.0167156 0
M  V30 310 C 28.0218 1.55946 0.339557 0
M  V30 311 C 28.2218 1.02109 1.73713 0
M  V30 312 O 27.2778 0.662303 2.43659 0
M  V30 313 C 28.5908 3.00037 0.199499 0
M  V30 314 C 30.1388 3.11805 0.273193 0
M  V30 315 C 30.6138 4.57713 0.162068 0
M  V30 316 N 32.1048 4.6268 0.219444 0
M  V30 317 C 32.8398 5.73185 0.157054 0
M  V30 318 N 32.3358 6.92786 0.0442936 0
M  V30 319 N 34.1288 5.61707 0.21014 0
M  V30 320 H 26.2798 1.90921 -0.930758 0
M  V30 321 H 28.5428 0.877674 -0.358319 0
M  V30 322 H 28.2488 3.4333 -0.76273 0
M  V30 323 H 28.1228 3.64387 0.974786 0
M  V30 324 H 30.5098 2.68433 1.22587 0
M  V30 325 H 30.5908 2.50201 -0.532256 0
M  V30 326 H 30.2348 5.01763 -0.78714 0
M  V30 327 H 30.1648 5.17283 0.986222 0
M  V30 328 H 32.6558 3.76649 0.307246 0
M  V30 329 H 32.9688 7.728 0.00304069 0
M  V30 330 H 31.3138 6.94999 0.00968457 0
M  V30 331 H 34.5048 4.6716 0.296546 0
M  V30 332 H 34.6778 6.47807 0.158054 0
M  V30 333 N 28.0839 -0.256276 1.55502 0
M  V30 334 C 29.0169 -1.34321 1.84481 0
M  V30 335 C 29.9949 -1.46802 0.699131 0
M  V30 336 O 31.1789 -1.63165 0.943904 0
M  V30 337 C 28.3059 -2.71779 2.02123 0
M  V30 338 C 27.3519 -2.76496 3.24734 0
M  V30 339 S 28.1849 -2.3405 4.81644 0
M  V30 340 C 29.3409 -3.73452 5.02279 0
M  V30 341 H 29.5739 -1.09539 2.76385 0
M  V30 342 H 27.1069 -0.45678 1.47489 0
M  V30 343 H 29.0649 -3.50932 2.12972 0
M  V30 344 H 27.7259 -2.93803 1.11078 0
M  V30 345 H 26.9189 -3.77424 3.34016 0
M  V30 346 H 26.5209 -2.05379 3.12563 0
M  V30 347 H 28.8129 -4.6887 4.89047 0
M  V30 348 H 29.7559 -3.6911 6.04287 0
M  V30 349 H 30.1639 -3.6553 4.30172 0
M  V30 350 N 29.562 -1.4872 -0.521534 0
M  V30 351 C 30.81 -1.56857 -1.27437 0
M  V30 352 C 31.131 -0.247982 -1.93417 0
M  V30 353 O 30.401 0.731151 -1.81744 0
M  V30 354 H 28.981 -0.577885 -0.473347 0
M  V30 355 H 31.643 -1.85233 -0.606205 0
M  V30 356 H 30.739 -2.35402 -2.0492 0
M  V30 357 N 31.0401 0.771051 -1.3745 0
M  V30 358 C 32.2861 1.5319 -1.32894 0
M  V30 359 C 32.6191 1.94008 0.0862511 0
M  V30 360 O 31.8941 1.64124 1.04373 0
M  V30 361 C 32.1771 2.79648 -2.26868 0
M  V30 362 C 32.0301 2.45079 -3.77169 0
M  V30 363 C 33.3491 3.81583 -2.19277 0
M  V30 364 H 30.4681 0.555744 -0.484064 0
M  V30 365 H 33.1101 0.884492 -1.68157 0
M  V30 366 H 31.2601 3.34891 -1.96926 0
M  V30 367 H 32.9321 1.95745 -4.1771 0
M  V30 368 H 31.1751 1.77767 -3.95704 0
M  V30 369 H 31.8461 3.35478 -4.38359 0
M  V30 370 H 34.3221 3.35835 -2.45671 0
M  V30 371 H 33.1981 4.67787 -2.87171 0
M  V30 372 H 33.4591 4.25897 -1.18592 0
M  V30 373 N 32.5182 1.22032 0.997298 0
M  V30 374 C 33.9342 0.979326 1.26021 0
M  V30 375 C 34.1342 -0.32972 1.98784 0
M  V30 376 O 33.1902 -1.05345 2.29475 0
M  V30 377 C 34.5032 2.17509 2.07631 0
M  V30 378 C 36.0512 2.21817 2.2083 0
M  V30 379 C 36.5262 3.40933 3.05825 0
M  V30 380 N 38.0172 3.41067 3.13412 0
M  V30 381 C 38.7522 4.29885 3.79455 0
M  V30 382 N 38.2482 5.28914 4.47462 0
M  V30 383 N 40.0412 4.17673 3.76173 0
M  V30 384 H 32.1922 2.06202 0.509352 0
M  V30 385 H 34.4552 0.90334 0.287541 0
M  V30 386 H 34.1612 3.12415 1.61524 0
M  V30 387 H 34.0352 2.17206 3.08385 0
M  V30 388 H 36.4222 1.27462 2.66153 0
M  V30 389 H 36.5032 2.2616 1.1952 0
M  V30 390 H 36.1472 4.35586 2.61203 0
M  V30 391 H 36.0772 3.33829 4.07266 0
M  V30 392 H 38.5682 2.69406 2.65007 0
M  V30 393 H 38.8812 5.92973 4.95583 0
M  V30 394 H 37.2262 5.32831 4.46224 0
M  V30 395 H 40.4172 3.39564 3.22202 0
M  V30 396 H 40.5902 4.87098 4.27363 0
M  V30 397 N 33.9963 -1.19345 1.0293 0
M  V30 398 C 34.9063 -2.26245 0.620515 0
M  V30 399 C 35.9223 -1.70486 -0.347928 0
M  V30 400 O 37.0983 -2.00347 -0.205704 0
M  V30 401 C 34.1633 -3.46693 -0.0218957 0
M  V30 402 C 33.2243 -4.17632 0.994102 0
M  V30 403 C 32.4573 -5.32329 0.382253 0
M  V30 404 O 32.6803 -5.64552 -0.814676 0
M  V30 405 O 31.6143 -5.91664 1.10531 0
M  V30 406 H 35.4403 -2.63453 1.51083 0
M  V30 407 H 33.0253 -1.26207 0.799513 0
M  V30 408 H 34.9073 -4.19683 -0.380072 0
M  V30 409 H 33.5823 -3.11333 -0.886209 0
M  V30 410 H 32.4893 -3.4676 1.40387 0
M  V30 411 H 33.8223 -4.56964 1.8288 0
M  V30 412 N 35.4744 -0.807222 -1.35358 0
M  V30 413 C 36.6994 -0.399309 -2.0352 0
M  V30 414 C 37.1244 0.981986 -1.60433 0
M  V30 415 O 36.4824 1.63601 -0.781299 0
M  V30 416 C 36.5304 -0.491552 -3.57234 0
M  V30 417 O 35.6344 0.494754 -4.09421 0
M  V30 418 H 34.9754 -0.166682 -0.642739 0
M  V30 419 H 37.5054 -1.09328 -1.72941 0
M  V30 420 H 37.5154 -0.361588 -4.06395 0
M  V30 421 H 36.1904 -1.49907 -3.87944 0
M  V30 422 H 34.7674 0.324977 -3.71481 0
M  V30 423 N 36.9525 1.47285 -0.560781 0
M  V30 424 C 37.8825 2.32857 0.173105 0
M  V30 425 C 38.8635 1.44009 0.905281 0
M  V30 426 O 40.0485 1.7286 0.885046 0
M  V30 427 C 37.1785 3.25861 1.20133 0
M  V30 428 C 36.1325 4.23978 0.585388 0
M  V30 429 C 35.4585 5.06332 1.7185 0
M  V30 430 C 36.7585 5.20242 -0.463178 0
M  V30 431 H 38.4525 2.94466 -0.541307 0
M  V30 432 H 35.9985 1.41601 -0.261764 0
M  V30 433 H 37.9515 3.84569 1.72293 0
M  V30 434 H 36.6755 2.62315 1.94573 0
M  V30 435 H 35.3345 3.66501 0.085054 0
M  V30 436 H 34.9825 4.39186 2.45203 0
M  V30 437 H 34.6825 5.72762 1.31213 0
M  V30 438 H 36.2065 5.67899 2.24329 0
M  V30 439 H 37.6205 5.73293 -0.027502 0
M  V30 440 H 36.0175 5.94896 -0.788627 0
M  V30 441 H 37.0875 4.65504 -1.35773 0
M  V30 442 N 38.4306 0.297415 1.54768 0
M  V30 443 C 39.3406 -0.58983 2.27064 0
M  V30 444 C 40.3566 -1.15144 1.30453 0
M  V30 445 O 41.5326 -1.17699 1.63428 0
M  V30 446 C 38.5976 -1.74714 2.9946 0
M  V30 447 C 37.6586 -1.21997 4.11601 0
M  V30 448 C 36.8916 -2.32212 4.80535 0
M  V30 449 O 37.1146 -3.52036 4.48806 0
M  V30 450 O 36.0486 -1.99106 5.68014 0
M  V30 451 H 39.8746 -0.00348199 3.037 0
M  V30 452 H 37.4596 0.0640035 1.49263 0
M  V30 453 H 39.3416 -2.42147 3.44881 0
M  V30 454 H 38.0166 -2.32016 2.25722 0
M  V30 455 H 36.9236 -0.511458 3.70587 0
M  V30 456 H 38.2566 -0.692419 4.87305 0
M  V30 457 N 39.9087 -1.5758 0.0250728 0
M  V30 458 C 40.8187 -2.1343 -0.973905 0
M  V30 459 C 41.8347 -1.08556 -1.35984 0
M  V30 460 O 43.0107 -1.40592 -1.44207 0
M  V30 461 C 40.0757 -2.64703 -2.23904 0
M  V30 462 C 39.1367 -3.84276 -1.91391 0
M  V30 463 C 38.3697 -4.33095 -3.11873 0
M  V30 464 O 38.5927 -3.81107 -4.24398 0
M  V30 465 O 37.5267 -5.24984 -2.94406 0
M  V30 466 H 41.3527 -2.99057 -0.529036 0
M  V30 467 H 38.9377 -1.48118 -0.195288 0
M  V30 468 H 40.8197 -2.97769 -2.98181 0
M  V30 469 H 39.4947 -1.82161 -2.6758 0
M  V30 470 H 38.4017 -3.56143 -1.14511 0
M  V30 471 H 39.7347 -4.67968 -1.52534 0
M  V30 472 N 41.3868 0.248026 -1.55636 0
M  V30 473 C 42.3188 1.32993 -1.8667 0
M  V30 474 C 43.3318 1.44345 -0.752877 0
M  V30 475 O 44.5208 1.45715 -1.03098 0
M  V30 476 C 41.6208 2.70863 -2.03682 0
M  V30 477 C 40.7938 2.81792 -3.34532 0
M  V30 478 C 39.8528 4.005 -3.41301 0
M  V30 479 O 38.8788 3.9008 -4.14519 0
M  V30 480 N 40.0808 5.13618 -2.70512 0
M  V30 481 H 42.8458 1.06707 -2.8006 0
M  V30 482 H 40.4068 0.438129 -1.55859 0
M  V30 483 H 42.3988 3.48612 -2.05553 0
M  V30 484 H 40.9688 2.89862 -1.17041 0
M  V30 485 H 40.1888 1.90729 -3.44987 0
M  V30 486 H 41.4768 2.86043 -4.20781 0
M  V30 487 H 40.8748 5.24975 -2.10755 0
M  V30 488 H 39.4318 5.89505 -2.78077 0
M  V30 489 N 42.8649 1.48995 0.513639 0
M  V30 490 C 44.0929 1.61531 1.29288 0
M  V30 491 C 44.5079 0.281801 1.86685 0
M  V30 492 O 43.8649 -0.731111 1.67215 0
M  V30 493 C 43.9159 2.67449 2.43215 0
M  V30 494 O 43.6369 3.95626 1.88179 0
M  V30 495 C 45.1379 2.90575 3.34785 0
M  V30 496 H 42.3579 0.544165 0.392588 0
M  V30 497 H 44.9019 1.9494 0.617956 0
M  V30 498 H 43.0569 2.36853 3.0656 0
M  V30 499 H 43.4709 4.53868 2.62876 0
M  V30 500 H 44.9449 3.68449 4.11035 0
M  V30 501 H 45.4219 2.00011 3.91015 0
M  V30 502 H 46.0279 3.22538 2.77218 0
M  V30 503 N 44.343 -0.763751 1.37857 0
M  V30 504 C 45.276 -1.88486 1.28639 0
M  V30 505 C 46.254 -1.61757 0.165363 0
M  V30 506 O 47.438 -1.85391 0.340948 0
M  V30 507 C 44.565 -3.23884 0.990811 0
M  V30 508 C 43.611 -3.69514 2.12983 0
M  V30 509 S 44.444 -3.82244 3.75033 0
M  V30 510 C 45.6 -5.20477 3.47641 0
M  V30 511 H 45.833 -1.96017 2.23527 0
M  V30 512 H 43.366 -0.925684 1.23574 0
M  V30 513 H 45.324 -4.02081 0.827101 0
M  V30 514 H 43.985 -3.14044 0.0592832 0
M  V30 515 H 43.178 -4.67696 1.87821 0
M  V30 516 H 42.78 -2.98441 2.25408 0
M  V30 517 H 45.072 -6.05905 3.03125 0
M  V30 518 H 46.015 -5.50655 4.4518 0
M  V30 519 H 46.423 -4.88793 2.82385 0
M  V30 520 N 45.8211 -1.22559 -0.990812 0
M  V30 521 C 46.7691 -0.994798 -2.10253 0
M  V30 522 C 47.7631 0.0627798 -1.69284 0
M  V30 523 O 48.9691 -0.0898392 -1.79776 0
M  V30 524 H 45.3441 -0.304527 -0.687581 0
M  V30 525 H 47.3151 -1.93812 -2.26891 0
M  V30 526 C 46.0641 -0.591439 -3.42633 0
M  V30 527 H 45.3871 -1.3969 -3.74602 0
M  V30 528 H 46.8271 -0.469385 -4.21394 0
M  V30 529 C 45.2861 0.699232 -3.29564 0
M  V30 530 O 45.8161 1.75112 -3.61523 0
M  V30 531 N 44.0221 0.671182 -2.82743 0
M  V30 532 H 43.5691 -0.185136 -2.56934 0
M  V30 533 H 43.5271 1.53502 -2.7438 0
M  V30 534 N 47.2992 1.18797 -1.03562 0
M  V30 535 C 48.2322 2.2105 -0.56676 0
M  V30 536 C 49.2102 1.57704 0.395993 0
M  V30 537 O 50.3942 1.85908 0.311498 0
M  V30 538 C 47.5212 3.38259 0.172704 0
M  V30 539 C 46.5672 4.19987 -0.74252 0
M  V30 540 S 47.4002 4.87199 -2.22254 0
M  V30 541 C 48.5562 6.07813 -1.49379 0
M  V30 542 H 48.7892 2.60478 -1.43312 0
M  V30 543 H 46.3222 1.29151 -0.846133 0
M  V30 544 H 48.2802 4.06191 0.593191 0
M  V30 545 H 46.9412 2.97252 1.01488 0
M  V30 546 H 46.1342 5.03709 -0.171265 0
M  V30 547 H 45.7362 3.57408 -1.10163 0
M  V30 548 H 48.0282 6.72948 -0.784056 0
M  V30 549 H 48.9712 6.69435 -2.30786 0
M  V30 550 H 49.3792 5.55781 -0.988331 0
M  V30 551 N 48.7773 0.814389 1.34928 0
M  V30 552 C 49.7403 0.235759 2.27984 0
M  V30 553 C 50.7403 -0.581412 1.49921 0
M  V30 554 O 51.9303 -0.398758 1.69575 0
M  V30 555 C 49.0623 -0.670433 3.34242 0
M  V30 556 H 50.2553 1.05659 2.80671 0
M  V30 557 H 47.8083 0.585614 1.44915 0
M  V30 558 H 48.5433 -1.51466 2.86755 0
M  V30 559 H 48.3283 -0.0860822 3.92005 0
M  V30 560 H 49.8183 -1.06935 4.03676 0
M  V30 561 N 50.2554 -1.46986 0.568584 0
M  V30 562 C 51.2024 -2.30153 -0.172707 0
M  V30 563 C 52.1724 -1.39759 -0.897586 0
M  V30 564 O 53.3574 -1.68716 -0.891044 0
M  V30 565 C 50.4974 -3.23952 -1.1895 0
M  V30 566 C 49.6104 -4.29441 -0.469517 0
M  V30 567 C 48.7454 -5.1038 -1.47259 0
M  V30 568 C 47.7844 -6.07632 -0.738225 0
M  V30 569 N 46.9214 -6.8149 -1.68868 0
M  V30 570 H 51.7614 -2.93019 0.542596 0
M  V30 571 H 49.2984 -1.44422 0.279401 0
M  V30 572 H 51.2564 -3.76767 -1.79173 0
M  V30 573 H 49.8864 -2.62926 -1.87269 0
M  V30 574 H 48.9384 -3.79594 0.247467 0
M  V30 575 H 50.2504 -4.98689 0.105241 0
M  V30 576 H 49.4044 -5.67402 -2.14803 0
M  V30 577 H 48.1434 -4.4106 -2.08128 0
M  V30 578 H 47.1484 -5.49778 -0.0489293 0
M  V30 579 H 48.3734 -6.78966 -0.135129 0
M  V30 580 H 46.3194 -6.14891 -2.28573 0
M  V30 581 H 46.2364 -7.46948 -1.16636 0
M  V30 582 H 47.5044 -7.43078 -2.3549 0
M  V30 583 N 51.7335 -0.305618 -1.54608 0
M  V30 584 C 52.6965 0.555591 -2.22364 0
M  V30 585 C 53.6965 1.05768 -1.21119 0
M  V30 586 O 54.8865 0.952972 -1.45822 0
M  V30 587 C 52.0185 1.76974 -2.91364 0
M  V30 588 H 53.2115 -0.0364572 -2.99878 0
M  V30 589 H 50.7645 -0.0565007 -1.56198 0
M  V30 590 H 51.4995 2.40151 -2.17941 0
M  V30 591 H 51.2845 1.41732 -3.65588 0
M  V30 592 H 52.7745 2.38148 -3.43038 0
M  V30 593 N 53.2116 1.57565 -0.0334293 0
M  V30 594 C 54.4396 1.9628 0.654347 0
M  V30 595 C 54.8546 0.910138 1.65414 0
M  V30 596 O 54.2116 -0.107595 1.82183 0
M  V30 597 C 54.2626 3.35067 1.35693 0
M  V30 598 O 53.9836 4.36296 0.397191 0
M  V30 599 C 55.4846 3.88439 2.13613 0
M  V30 600 H 52.7046 0.646369 0.180132 0
M  V30 601 H 55.2486 2.04282 -0.0944721 0
M  V30 602 H 53.4036 3.2827 2.05712 0
M  V30 603 H 53.8176 5.1678 0.896597 0
M  V30 604 H 55.2916 4.8788 2.58219 0
M  V30 605 H 55.7686 3.22914 2.97696 0
M  V30 606 H 56.3746 3.98516 1.48543 0
M  V30 607 N 54.6897 -0.239769 1.55765 0
M  V30 608 C 55.6527 -1.28038 1.90103 0
M  V30 609 C 56.6527 -1.40723 0.778055 0
M  V30 610 O 57.8427 -1.39301 1.04599 0
M  V30 611 C 54.9747 -2.65702 2.13577 0
M  V30 612 H 56.1677 -0.988048 2.83157 0
M  V30 613 H 53.7207 -0.479382 1.48767 0
M  V30 614 H 54.4557 -3.00063 1.23015 0
M  V30 615 H 54.2407 -2.57875 2.95369 0
M  V30 616 H 55.7307 -3.40828 2.41301 0
M  V30 617 N 56.1678 -1.49265 -0.50573 0
M  V30 618 C 57.1308 -1.65075 -1.59006 0
M  V30 619 C 58.1308 -0.522768 -1.52065 0
M  V30 620 O 59.3208 -0.789117 -1.55302 0
M  V30 621 C 56.4528 -1.64369 -2.98656 0
M  V30 622 H 57.6458 -2.61784 -1.46319 0
M  V30 623 H 55.1988 -1.38226 -0.729616 0
M  V30 624 H 55.9338 -0.692272 -3.16825 0
M  V30 625 H 55.7188 -2.46282 -3.05103 0
M  V30 626 H 57.2088 -1.78674 -3.77446 0
M  V30 627 N 57.6459 0.756429 -1.3826 0
M  V30 628 C 58.5759 1.88374 -1.37976 0
M  V30 629 C 59.5569 1.68311 -0.246082 0
M  V30 630 O 60.7419 1.88944 -0.44874 0
M  V30 631 C 57.8719 3.25864 -1.20125 0
M  V30 632 C 56.8259 3.60523 -2.30666 0
M  V30 633 C 56.1519 4.9672 -1.97923 0
M  V30 634 C 57.4519 3.65692 -3.72916 0
M  V30 635 H 59.1459 1.88869 -2.32312 0
M  V30 636 H 56.6919 0.907272 -1.11824 0
M  V30 637 H 58.6449 4.0438 -1.18552 0
M  V30 638 H 57.3689 3.25841 -0.222498 0
M  V30 639 H 56.0279 2.84324 -2.3142 0
M  V30 640 H 55.6759 4.93253 -0.985393 0
M  V30 641 H 55.3759 5.20878 -2.71955 0
M  V30 642 H 56.8999 5.77618 -1.97964 0
M  V30 643 H 58.3139 4.34328 -3.74208 0
M  V30 644 H 56.7109 4.01358 -4.4613 0
M  V30 645 H 57.7809 2.65987 -4.05436 0
M  V30 646 N 59.124 1.23083 0.984299 0
M  V30 647 C 60.054 1.03292 2.09411 0
M  V30 648 C 61.035 -0.048923 1.7003 0
M  V30 649 O 62.22 0.114967 1.93859 0
M  V30 650 C 59.35 0.619155 3.41736 0
M  V30 651 C 58.304 1.64791 3.95004 0
M  V30 652 C 57.63 1.0897 5.23478 0
M  V30 653 C 58.93 3.03999 4.24714 0
M  V30 654 H 60.624 1.96119 2.26225 0
M  V30 655 H 58.17 0.944344 1.08711 0
M  V30 656 H 60.123 0.467777 4.18796 0
M  V30 657 H 58.847 -0.344786 3.24775 0
M  V30 658 H 57.506 1.78721 3.20085 0
M  V30 659 H 57.154 0.11686 5.02864 0
M  V30 660 H 56.854 1.77704 5.60085 0
M  V30 661 H 58.378 0.950093 6.03163 0
M  V30 662 H 59.792 2.93393 4.92538 0
M  V30 663 H 58.189 3.69936 4.72512 0
M  V30 664 H 59.259 3.53285 3.32142 0
M  V30 665 N 60.6021 -1.18246 1.0419 0
M  V30 666 C 61.8301 -1.92195 0.766072 0
M  V30 667 C 62.2451 -1.76247 -0.676933 0
M  V30 668 O 61.6021 -1.09293 -1.46155 0
M  V30 669 C 61.6531 -3.43568 1.12442 0
M  V30 670 O 61.3741 -3.59015 2.51078 0
M  V30 671 C 62.8751 -4.34613 0.873275 0
M  V30 672 H 60.0951 -0.610114 0.279288 0
M  V30 673 H 62.6391 -1.50007 1.38989 0
M  V30 674 H 60.7941 -3.8354 0.545542 0
M  V30 675 H 61.2081 -4.5273 2.64831 0
M  V30 676 H 62.6821 -5.39374 1.17385 0
M  V30 677 H 63.1591 -4.38781 -0.191909 0
M  V30 678 H 63.7651 -4.00341 1.43551 0
M  V30 679 N 62.0802 -0.821533 -1.34494 0
M  V30 680 C 62.9902 -0.244355 -2.33324 0
M  V30 681 C 64.0062 0.620527 -1.62559 0
M  V30 682 O 65.1822 0.528754 -1.94335 0
M  V30 683 C 62.2472 0.585368 -3.41723 0
M  V30 684 C 61.3082 -0.301752 -4.28238 0
M  V30 685 C 60.5412 0.488466 -5.3146 0
M  V30 686 O 60.7642 1.72186 -5.4379 0
M  V30 687 O 59.6982 -0.12848 -6.01763 0
M  V30 688 H 63.5242 -1.06231 -2.84515 0
M  V30 689 H 61.1092 -0.583645 -1.37528 0
M  V30 690 H 62.9912 1.05747 -4.07916 0
M  V30 691 H 61.6662 1.38068 -2.92778 0
M  V30 692 H 60.5732 -0.821315 -3.64973 0
M  V30 693 H 61.9062 -1.06138 -4.8062 0
M  V30 694 N 63.5583 1.46682 -0.576371 0
M  V30 695 C 64.5053 2.30241 0.160499 0
M  V30 696 C 65.4753 1.40233 0.890162 0
M  V30 697 O 66.6603 1.69186 0.882084 0
M  V30 698 C 63.8003 3.24578 1.1723 0
M  V30 699 C 62.9133 4.29684 0.446736 0
M  V30 700 C 62.0483 5.11154 1.44551 0
M  V30 701 C 61.0873 6.08015 0.70599 0
M  V30 702 N 60.2243 6.82376 1.65251 0
M  V30 703 H 65.0643 2.92727 -0.558127 0
M  V30 704 H 62.6013 1.44272 -0.287056 0
M  V30 705 H 64.5593 3.77711 1.77172 0
M  V30 706 H 63.1893 2.63916 1.85872 0
M  V30 707 H 62.2413 3.79458 -0.267594 0
M  V30 708 H 63.5533 4.98626 -0.131686 0
M  V30 709 H 62.7073 5.68533 2.11791 0
M  V30 710 H 61.4463 4.42158 2.05786 0
M  V30 711 H 60.4513 5.49796 0.0197725 0
M  V30 712 H 61.6763 6.79028 0.09912 0
M  V30 713 H 59.6223 6.16094 2.25308 0
M  V30 714 H 59.5393 7.47556 1.12673 0
M  V30 715 H 60.8073 7.44316 2.31546 0
M  V30 716 N 65.0364 0.313813 1.54444 0
M  V30 717 C 65.9664 -0.549454 2.26943 0
M  V30 718 C 66.9474 -1.12741 1.27372 0
M  V30 719 O 68.1324 -1.15436 1.56167 0
M  V30 720 C 65.2624 -1.71523 3.01989 0
M  V30 721 C 64.2164 -1.26703 4.08816 0
M  V30 722 C 63.5424 -2.51898 4.71647 0
M  V30 723 C 64.8424 -0.388962 5.2085 0
M  V30 724 H 66.5364 0.0552661 2.99349 0
M  V30 725 H 64.0824 0.0280207 1.43973 0
M  V30 726 H 66.0354 -2.32535 3.51433 0
M  V30 727 H 64.7594 -2.34639 2.27183 0
M  V30 728 H 63.4184 -0.679896 3.6024 0
M  V30 729 H 63.0664 -3.13356 3.93468 0
M  V30 730 H 62.7664 -2.22605 5.43802 0
M  V30 731 H 64.2904 -3.1369 5.23861 0
M  V30 732 H 65.7044 -0.905107 5.6611 0
M  V30 733 H 64.1014 -0.18924 5.99802 0
M  V30 734 H 65.1714 0.582699 4.81386 0
M  V30 735 N 66.5145 -1.57545 0.0417849 0
M  V30 736 C 67.9305 -1.56467 -0.314704 0
M  V30 737 C 68.1305 -1.04859 -1.72066 0
M  V30 738 O 67.1865 -0.700983 -2.42575 0
M  V30 739 C 68.4995 -3.00317 -0.15174 0
M  V30 740 C 70.0475 -3.12201 -0.223553 0
M  V30 741 C 70.5225 -4.57913 -0.0892295 0
M  V30 742 N 72.0135 -4.6297 -0.145808 0
M  V30 743 C 72.7485 -5.73362 -0.0658459 0
M  V30 744 N 72.2445 -6.92769 0.0659282 0
M  V30 745 N 74.0375 -5.6197 -0.12075 0
M  V30 746 H 66.1885 -1.89416 0.961014 0
M  V30 747 H 68.4515 -0.871862 0.372237 0
M  V30 748 H 68.1575 -3.42073 0.817254 0
M  V30 749 H 68.0315 -3.65892 -0.916692 0
M  V30 750 H 70.4185 -2.70349 -1.18301 0
M  V30 751 H 70.4995 -2.49323 0.571994 0
M  V30 752 H 70.1435 -5.00448 0.866867 0
M  V30 753 H 70.0735 -5.18786 -0.903802 0
M  V30 754 H 72.5645 -3.7709 -0.247286 0
M  V30 755 H 72.8775 -7.72707 0.119905 0
M  V30 756 H 71.2225 -6.94927 0.100885 0
M  V30 757 H 74.4135 -4.67572 -0.222187 0
M  V30 758 H 74.5865 -6.47977 -0.0549735 0
M  V30 759 N 67.9926 0.231505 -1.5589 0
M  V30 760 C 68.9426 1.29007 -1.87993 0
M  V30 761 C 69.9266 1.42764 -0.742102 0
M  V30 762 O 71.1186 1.45747 -1.00433 0
M  V30 763 C 68.2476 2.6425 -2.1915 0
M  V30 764 C 67.3336 2.54435 -3.39299 0
M  V30 765 N 67.7246 2.14262 -4.58176 0
M  V30 766 C 66.0226 2.85416 -3.42715 0
M  V30 767 C 66.7236 2.15455 -5.40328 0
M  V30 768 N 65.6996 2.55558 -4.79783 0
M  V30 769 H 69.5016 0.970213 -2.77424 0
M  V30 770 H 67.0156 0.440097 -1.56323 0
M  V30 771 H 69.0126 3.40665 -2.40319 0
M  V30 772 H 67.6726 2.9709 -1.31025 0
M  V30 773 H 68.6836 1.85554 -4.83518 0
M  V30 774 H 65.3606 3.22693 -2.64906 0
M  V30 775 H 66.7506 1.86605 -6.45467 0
M  V30 776 N 69.4707 1.49531 0.497807 0
M  V30 777 C 70.4337 1.65916 1.58128 0
M  V30 778 C 71.4337 0.530825 1.51786 0
M  V30 779 O 72.6237 0.797342 1.54881 0
M  V30 780 C 69.7557 1.65951 2.9778 0
M  V30 781 H 70.9487 2.62556 1.44929 0
M  V30 782 H 68.5017 1.38611 0.722275 0
M  V30 783 H 69.2367 0.709065 3.16453 0
M  V30 784 H 69.0217 2.47897 3.03792 0
M  V30 785 H 70.5117 1.80673 3.76493 0
M  V30 786 N 70.9488 -0.749086 1.3866 0
M  V30 787 C 72.1888 -1.52112 1.36534 0
M  V30 788 C 72.5528 -1.91951 -0.0432316 0
M  V30 789 O 73.7538 -2.68132 -0.189396 0
M  V30 790 C 72.0248 -2.73704 2.29828 0
M  V30 791 S 73.5838 -3.63519 2.45763 0
M  V30 792 H 70.4018 -0.520482 0.484375 0
M  V30 793 H 73.0038 -0.878963 1.74627 0
M  V30 794 H 71.7078 -2.42552 3.31054 0
M  V30 795 H 71.2388 -3.4286 1.929 0
M  V30 796 H 73.2538 -4.66712 1.68505 0
M  V30 797 N 72.4269 -1.23603 -0.977757 0
M  V30 798 C 73.6749 -1.06759 -1.71601 0
M  V30 799 C 73.9959 0.395929 -1.90938 0
M  V30 800 O 73.2659 1.28356 -1.47992 0
M  V30 801 H 71.8459 -0.392062 -0.635843 0
M  V30 802 H 74.5079 -1.55362 -1.1768 0
M  V30 803 H 73.6039 -1.55763 -2.70452 0
M  V30 804 N 73.905 1.17692 -1.04816 0
M  V30 805 C 74.868 2.19787 -0.650117 0
M  V30 806 C 75.868 1.58044 0.296427 0
M  V30 807 O 77.058 1.74012 0.0808097 0
M  V30 808 C 74.19 3.40869 0.0456987 0
M  V30 809 H 75.383 2.56516 -1.5537 0
M  V30 810 H 72.936 1.31708 -0.841594 0
M  V30 811 H 73.671 3.09681 0.962726 0
M  V30 812 H 73.456 3.86928 -0.634727 0
M  V30 813 H 74.946 4.16445 0.310432 0
M  V30 814 N 75.3831 0.828654 1.34056 0
M  V30 815 C 76.3461 0.259927 2.27721 0
M  V30 816 C 77.3461 -0.565478 1.50529 0
M  V30 817 O 78.5361 -0.38075 1.69988 0
M  V30 818 C 75.6681 -0.634944 3.34935 0
M  V30 819 H 76.8611 1.0863 2.79534 0
M  V30 820 H 74.4141 0.600951 1.44285 0
M  V30 821 H 75.1491 -1.48416 2.88346 0
M  V30 822 H 74.9341 -0.0444999 3.92075 0
M  V30 823 H 76.4241 -1.02648 4.04788 0
M  V30 824 N 76.8612 -1.46375 0.584142 0
M  V30 825 C 78.1072 -2.02678 0.0703716 0
M  V30 826 C 78.4402 -1.4545 -1.28678 0
M  V30 827 O 77.7152 -0.62014 -1.84349 0
M  V30 828 C 77.9982 -3.60099 0.00614674 0
M  V30 829 C 77.8512 -4.27709 1.3923 0
M  V30 830 C 79.1702 -4.34598 -0.693742 0
M  V30 831 H 76.2892 -0.736504 0.027047 0
M  V30 832 H 78.9312 -1.74501 0.751615 0
M  V30 833 H 77.0812 -3.84236 -0.574009 0
M  V30 834 H 78.7532 -4.14832 2.01773 0
M  V30 835 H 76.9962 -3.87016 1.95962 0
M  V30 836 H 77.6672 -5.36478 1.29982 0
M  V30 837 H 80.1432 -4.15615 -0.200869 0
M  V30 838 H 79.0192 -5.44318 -0.707714 0
M  V30 839 H 79.2802 -4.05759 -1.75533 0
M  V30 840 N 78.3393 -0.321999 -1.54275 0
M  V30 841 C 79.2493 0.553631 -2.27974 0
M  V30 842 C 80.2653 1.13054 -1.32268 0
M  V30 843 O 81.4413 1.15084 -1.6528 0
M  V30 844 C 78.5063 1.69927 -3.02201 0
M  V30 845 C 77.5673 1.15433 -4.1349 0
M  V30 846 C 76.8003 2.24537 -4.84168 0
M  V30 847 O 77.0233 3.44852 -4.5435 0
M  V30 848 O 75.9573 1.90044 -5.7111 0
M  V30 849 H 79.7833 -0.0448345 -3.03667 0
M  V30 850 H 77.3683 -0.0877418 -1.49142 0
M  V30 851 H 79.2503 2.3663 -3.48689 0
M  V30 852 H 77.9253 2.28395 -2.29385 0
M  V30 853 H 76.8323 0.452436 -3.71354 0
M  V30 854 H 78.1653 0.614805 -4.88345 0
M  V30 855 N 79.8174 1.5752 -0.0501392 0
M  V30 856 C 81.0574 1.94521 0.627783 0
M  V30 857 C 81.4214 0.928265 1.68069 0
M  V30 858 O 82.6224 1.18517 2.41261 0
M  V30 859 C 80.8934 3.36319 1.20932 0
M  V30 860 S 82.4524 3.95272 1.90539 0
M  V30 861 H 79.2704 0.680456 0.206158 0
M  V30 862 H 81.8724 1.95139 -0.118829 0
M  V30 863 H 80.5764 4.08132 0.430865 0
M  V30 864 H 80.1074 3.39193 1.99277 0
M  V30 865 H 82.1224 3.80415 3.18589 0
M  V30 866 N 81.2955 -0.223234 1.56011 0
M  V30 867 C 82.5415 -0.949279 1.79211 0
M  V30 868 C 82.8745 -1.84054 0.619494 0
M  V30 869 O 82.1495 -1.90726 -0.381317 0
M  V30 870 C 82.4325 -1.78965 3.12479 0
M  V30 871 C 82.2855 -0.924997 4.40186 0
M  V30 872 C 83.6045 -2.76774 3.42175 0
M  V30 873 H 80.7235 -0.343676 0.651963 0
M  V30 874 H 83.3655 -0.218253 1.88742 0
M  V30 875 H 81.5155 -2.41291 3.04485 0
M  V30 876 H 83.1875 -0.318615 4.60198 0
M  V30 877 H 81.4305 -0.230344 4.33188 0
M  V30 878 H 82.1015 -1.54735 5.29869 0
M  V30 879 H 84.5775 -2.24584 3.50287 0
M  V30 880 H 83.4535 -3.32678 4.36597 0
M  V30 881 H 83.7145 -3.54429 2.64258 0
M  V30 882 N 82.7736 -1.49793 -0.48987 0
M  V30 883 C 84.0226 -1.59085 -1.23995 0
M  V30 884 C 84.3356 -0.287907 -1.9347 0
M  V30 885 O 85.5416 -0.259506 -2.70257 0
M  V30 886 C 83.9976 -2.80736 -2.252 0
M  V30 887 C 83.6056 -4.17833 -1.61614 0
M  V30 888 C 85.3496 -2.99364 -3.00967 0
M  V30 889 C 83.2566 -5.30693 -2.60996 0
M  V30 890 H 82.1866 -0.592372 -0.466488 0
M  V30 891 H 84.8376 -1.76197 -0.51252 0
M  V30 892 H 83.2196 -2.57142 -3.01154 0
M  V30 893 H 84.3936 -4.51608 -0.915774 0
M  V30 894 H 82.7086 -4.04656 -0.981977 0
M  V30 895 H 85.3056 -3.80851 -3.75308 0
M  V30 896 H 85.6486 -2.10356 -3.59244 0
M  V30 897 H 86.1816 -3.2305 -2.32128 0
M  V30 898 H 82.9206 -6.21796 -2.07485 0
M  V30 899 H 82.4406 -5.01359 -3.2924 0
M  V30 900 H 84.1196 -5.6049 -3.23202 0
M  V30 901 N 84.2517 0.741722 -1.39055 0
M  V30 902 C 85.4767 1.53607 -1.39354 0
M  V30 903 C 85.9017 1.88096 0.0116905 0
M  V30 904 O 85.2597 1.5143 0.996924 0
M  V30 905 C 85.3077 2.80441 -2.26682 0
M  V30 906 O 84.4117 3.76088 -1.69208 0
M  V30 907 H 83.7527 0.464142 -0.474835 0
M  V30 908 H 86.2827 0.915665 -1.82967 0
M  V30 909 H 86.2927 3.29246 -2.40959 0
M  V30 910 H 84.9677 2.5467 -3.2881 0
M  V30 911 H 83.5447 3.34833 -1.64138 0
M  V30 912 N 85.7298 1.2412 0.971189 0
M  V30 913 C 87.0068 0.986867 1.6888 0
M  V30 914 C 87.3868 -0.491857 2.0529 0
M  V30 915 O 86.7348 -1.46531 1.75331 0
M  V30 916 C 86.9448 1.9063 2.92338 0
M  V30 917 C 88.2928 2.17515 3.64654 0
M  V30 918 O 89.3168 1.88254 3.02388 0
M  V30 919 O 88.1758 2.6719 4.7673 0
M  V30 920 H 85.2698 0.372944 0.738134 0
M  V30 921 H 87.8158 1.35203 1.02559 0
M  V30 922 H 86.5878 2.90552 2.62097 0
M  V30 923 H 86.2108 1.54408 3.66393 0
M  V30 924 N 87.2079 -1.17134 1.05439 0
M  V30 925 C 88.4359 -1.91372 0.786414 0
M  V30 926 C 88.8509 -1.76955 -0.658202 0
M  V30 927 O 88.2079 -1.10838 -1.44987 0
M  V30 928 C 88.2589 -3.42356 1.1608 0
M  V30 929 O 87.9799 -3.56332 2.54871 0
M  V30 930 C 89.4809 -4.33663 0.919322 0
M  V30 931 H 86.7009 -0.607118 0.285743 0
M  V30 932 H 89.2449 -1.48525 1.40572 0
M  V30 933 H 87.3999 -3.82939 0.586191 0
M  V30 934 H 87.8139 -4.49896 2.69618 0
M  V30 935 H 89.2879 -5.38099 1.231 0
M  V30 936 H 89.7649 -4.38959 -0.145359 0
M  V30 937 H 90.3709 -3.98796 1.47789 0
M  V30 938 N 88.686 -0.835752 -1.33615 0
M  V30 939 C 89.926 -0.43599 -1.99696 0
M  V30 940 C 90.29 0.98557 -1.64774 0
M  V30 941 O 91.491 1.48889 -2.23798 0
M  V30 942 C 89.762 -0.646721 -3.515 0
M  V30 943 S 91.321 -0.341715 -4.37467 0
M  V30 944 H 88.139 -0.164136 -0.691795 0
M  V30 945 H 90.741 -1.08436 -1.62671 0
M  V30 946 H 89.445 -1.68077 -3.74404 0
M  V30 947 H 88.976 0.0159173 -3.93397 0
M  V30 948 H 90.991 0.839708 -4.89043 0
M  V30 949 N 90.1641 1.46063 -0.591896 0
M  V30 950 C 91.4131 2.01547 -0.0786637 0
M  V30 951 C 91.7261 1.46796 1.29268 0
M  V30 952 O 92.9321 1.94157 1.89777 0
M  V30 953 C 91.3881 3.59787 -0.0900024 0
M  V30 954 C 90.9961 4.23534 -1.46023 0
M  V30 955 C 92.7401 4.22895 0.368806 0
M  V30 956 C 90.6471 5.73881 -1.4288 0
M  V30 957 H 89.5771 0.753564 -0.0256388 0
M  V30 958 H 92.2281 1.677 -0.744905 0
M  V30 959 H 90.6101 3.90752 0.642586 0
M  V30 960 H 91.7841 4.04167 -2.21328 0
M  V30 961 H 90.0991 3.72558 -1.85982 0
M  V30 962 H 92.6961 5.33116 0.411258 0
M  V30 963 H 93.0391 3.9247 1.38827 0
M  V30 964 H 93.5721 3.9659 -0.31001 0
M  V30 965 H 90.3111 6.0898 -2.42536 0
M  V30 966 H 89.8311 5.95486 -0.718095 0
M  V30 967 H 91.5101 6.36776 -1.14565 0
M  V30 968 N 91.6422 0.330177 1.54103 0
M  V30 969 C 92.6052 -0.520144 2.2322 0
M  V30 970 C 93.6052 -1.03828 1.22786 0
M  V30 971 O 94.7952 -0.929652 1.4732 0
M  V30 972 C 91.9272 -1.72317 2.94142 0
M  V30 973 H 93.1202 0.0841605 2.99782 0
M  V30 974 H 90.6732 0.0813433 1.56088 0
M  V30 975 H 91.4082 -2.36653 2.21734 0
M  V30 976 H 91.1932 -1.35898 3.67796 0
M  V30 977 H 92.6832 -2.3266 3.46784 0
M  V30 978 N 93.1203 -1.57491 0.0584922 0
M  V30 979 C 94.3683 -1.92597 -0.612436 0
M  V30 980 C 94.6893 -0.938162 -1.70949 0
M  V30 981 O 93.9593 0.0158301 -1.95894 0
M  V30 982 H 92.5393 -0.710964 -0.229214 0
M  V30 983 H 95.2013 -1.94571 0.113218 0
M  V30 984 H 94.2973 -2.94038 -1.04633 0
M  V30 985 N 94.5984 0.214957 -1.56127 0
M  V30 986 C 95.5314 1.29382 -1.87977 0
M  V30 987 C 96.5094 1.44897 -0.737807 0
M  V30 988 O 97.6934 1.60605 -0.986833 0
M  V30 989 C 94.8204 2.66325 -2.09258 0
M  V30 990 C 93.8664 2.67789 -3.31951 0
M  V30 991 S 94.6994 2.21198 -4.8768 0
M  V30 992 C 95.8554 3.60003 -5.12004 0
M  V30 993 H 96.0884 1.02173 -2.79192 0
M  V30 994 H 93.6214 0.417516 -1.48648 0
M  V30 995 H 95.5794 3.45162 -2.22201 0
M  V30 996 H 94.2404 2.90755 -1.18829 0
M  V30 997 H 93.4334 3.68436 -3.43906 0
M  V30 998 H 93.0354 1.9702 -3.17898 0
M  V30 999 H 95.3274 4.55739 -5.01307 0
M  V30 1000 H 96.2704 3.52959 -6.13861 0
M  V30 1001 H 96.6784 3.53996 -4.39712 0
M  V30 1002 N 96.0765 1.50051 0.48192 0
M  V30 1003 C 97.0395 1.67584 1.5636 0
M  V30 1004 C 98.0395 0.546894 1.51214 0
M  V30 1005 O 99.2295 0.813725 1.54026 0
M  V30 1006 C 96.3615 1.691 2.96003 0
M  V30 1007 H 97.5545 2.64078 1.42136 0
M  V30 1008 H 95.1075 1.39369 0.707533 0
M  V30 1009 H 95.8425 0.742589 3.15684 0
M  V30 1010 H 95.6275 2.51105 3.01146 0
M  V30 1011 H 97.1175 1.84656 3.74556 0
M  V30 1012 N 97.5546 -0.734337 1.39446 0
M  V30 1013 C 98.4646 -1.87879 1.40495 0
M  V30 1014 C 99.4806 -1.714 0.299672 0
M  V30 1015 O 100.657 -1.93991 0.541249 0
M  V30 1016 C 97.7216 -3.23477 1.24754 0
M  V30 1017 C 96.7826 -3.52344 2.45259 0
M  V30 1018 C 96.0156 -4.81473 2.30259 0
M  V30 1019 O 96.2386 -5.55237 1.30643 0
M  V30 1020 O 95.1726 -5.10254 3.19256 0
M  V30 1021 H 98.9986 -1.89949 2.36966 0
M  V30 1022 H 96.5836 -0.882243 1.20569 0
M  V30 1023 H 98.4656 -4.04509 1.18111 0
M  V30 1024 H 97.1406 -3.22176 0.313781 0
M  V30 1025 H 96.0476 -2.71396 2.57478 0
M  V30 1026 H 97.3806 -3.58426 3.37331 0
M  V30 1027 N 99.0327 -1.24633 -0.964593 0
M  V30 1028 C 99.9957 -1.0424 -2.04124 0
M  V30 1029 C 100.996 0.00137563 -1.608 0
M  V30 1030 O 102.186 -0.239883 -1.7254 0
M  V30 1031 C 99.3177 -0.580588 -3.3592 0
M  V30 1032 H 100.511 -1.99803 -2.23649 0
M  V30 1033 H 98.0637 -1.06899 -1.14027 0
M  V30 1034 H 98.7987 0.3781 -3.22088 0
M  V30 1035 H 98.5837 -1.33398 -3.6871 0
M  V30 1036 H 100.074 -0.459034 -4.15069 0
M  V30 1037 N 100.511 1.16574 -1.06058 0
M  V30 1038 C 101.474 2.19085 -0.673392 0
M  V30 1039 C 102.474 1.5835 0.279648 0
M  V30 1040 O 103.664 1.74088 0.0623488 0
M  V30 1041 C 100.796 3.40899 0.00954234 0
M  V30 1042 H 101.989 2.54853 -1.58081 0
M  V30 1043 H 99.5418 1.30808 -0.855516 0
M  V30 1044 H 100.277 3.10684 0.929826 0
M  V30 1045 H 100.062 3.86233 -0.67573 0
M  V30 1046 H 101.552 4.1675 0.266245 0
M  V30 1047 N 101.989 0.842826 1.3317 0
M  V30 1048 C 102.952 0.284065 2.27433 0
M  V30 1049 C 103.952 -0.54948 1.5112 0
M  V30 1050 O 105.142 -0.362699 1.70382 0
M  V30 1051 C 102.274 -0.599384 3.35589 0
M  V30 1052 H 103.467 1.11589 2.78366 0
M  V30 1053 H 101.02 0.616221 1.4364 0
M  V30 1054 H 101.755 -1.45349 2.89904 0
M  V30 1055 H 101.54 -0.00291266 3.921 0
M  V30 1056 H 103.03 -0.983488 4.05854 0
M  V30 1057 N 103.467 -1.45747 0.599634 0
M  V30 1058 C 104.707 -2.04181 0.0946309 0
M  V30 1059 C 105.071 -1.45895 -1.24815 0
M  V30 1060 O 106.272 -1.95633 -1.8434 0
M  V30 1061 C 104.543 -3.57368 0.047581 0
M  V30 1062 S 106.102 -4.36997 -0.397387 0
M  V30 1063 H 102.92 -0.70953 0.0456954 0
M  V30 1064 H 105.522 -1.78564 0.795946 0
M  V30 1065 H 104.226 -3.97303 1.02852 0
M  V30 1066 H 103.757 -3.87549 -0.675977 0
M  V30 1067 H 105.772 -4.68012 -1.64862 0
M  V30 1068 N 104.945 -0.338344 -1.53925 0
M  V30 1069 C 105.855 0.529421 -2.28548 0
M  V30 1070 C 106.871 1.11645 -1.3346 0
M  V30 1071 O 108.047 1.13325 -1.66492 0
M  V30 1072 C 105.112 1.66713 -3.03987 0
M  V30 1073 C 104.173 1.11041 -4.14691 0
M  V30 1074 C 103.406 2.19389 -4.86522 0
M  V30 1075 O 103.629 3.40013 -4.57982 0
M  V30 1076 O 102.563 1.83976 -5.73094 0
M  V30 1077 H 106.389 -0.0770399 -3.03602 0
M  V30 1078 H 103.974 -0.103555 -1.49041 0
M  V30 1079 H 105.856 2.32918 -3.5118 0
M  V30 1080 H 104.531 2.25949 -2.31794 0
M  V30 1081 H 103.438 0.413024 -3.71813 0
M  V30 1082 H 104.771 0.562975 -4.8897 0
M  V30 1083 N 106.423 1.57458 -0.0668435 0
M  V30 1084 C 107.333 2.15937 0.916975 0
M  V30 1085 C 108.349 1.12123 1.33058 0
M  V30 1086 O 109.525 1.44366 1.40429 0
M  V30 1087 C 106.59 2.70547 2.16807 0
M  V30 1088 C 105.651 3.89215 1.81135 0
M  V30 1089 C 104.884 4.41211 3.0028 0
M  V30 1090 O 105.107 3.92225 4.14144 0
M  V30 1091 O 104.041 5.32605 2.80384 0
M  V30 1092 H 107.867 3.00354 0.449561 0
M  V30 1093 H 105.452 1.48584 0.155949 0
M  V30 1094 H 107.334 3.0557 2.90181 0
M  V30 1095 H 106.009 1.89192 2.62656 0
M  V30 1096 H 104.916 3.59054 1.05028 0
M  V30 1097 H 106.249 4.71848 1.40073 0
M  V30 1098 N 107.901 -0.206675 1.56239 0
M  V30 1099 C 108.848 -1.25617 1.93621 0
M  V30 1100 C 109.818 -1.45824 0.795274 0
M  V30 1101 O 111.003 -1.59148 1.05245 0
M  V30 1102 C 108.143 -2.59839 2.27107 0
M  V30 1103 C 107.256 -2.47308 3.54207 0
M  V30 1104 C 106.391 -3.74155 3.7707 0
M  V30 1105 C 105.43 -3.56407 4.97635 0
M  V30 1106 N 104.567 -4.75238 5.1681 0
M  V30 1107 H 109.407 -0.930383 2.83104 0
M  V30 1108 H 106.944 -0.448065 1.4011 0
M  V30 1109 H 108.902 -3.38021 2.44535 0
M  V30 1110 H 107.532 -2.90485 1.40778 0
M  V30 1111 H 106.584 -1.60483 3.4489 0
M  V30 1112 H 107.896 -2.30122 4.42544 0
M  V30 1113 H 107.05 -4.60778 3.94675 0
M  V30 1114 H 105.789 -3.94282 2.87042 0
M  V30 1115 H 104.794 -2.68168 4.79964 0
M  V30 1116 H 106.019 -3.37736 5.89161 0
M  V30 1117 H 103.965 -4.95651 4.29728 0
M  V30 1118 H 103.882 -4.60835 5.99306 0
M  V30 1119 H 105.15 -5.63246 5.38864 0
M  V30 1120 N 109.379 -1.50304 -0.473955 0
M  V30 1121 C 110.626 -1.6115 -1.22625 0
M  V30 1122 C 110.954 -0.310517 -1.92005 0
M  V30 1123 O 110.209 0.703419 -1.82621 0
M  V30 1124 C 110.508 -2.73938 -2.29549 0
M  V30 1125 C 110.174 -4.14519 -1.7744 0
M  V30 1126 C 108.836 -4.5277 -1.62949 0
M  V30 1127 C 111.188 -5.02392 -1.3875 0
M  V30 1128 C 108.516 -5.76639 -1.08187 0
M  V30 1129 C 110.868 -6.26805 -0.854309 0
M  V30 1130 C 109.532 -6.63861 -0.696011 0
M  V30 1131 H 108.802 -0.589691 -0.448715 0
M  V30 1132 H 111.449 -1.84228 -0.522705 0
M  V30 1133 H 109.754 -2.44937 -3.05799 0
M  V30 1134 H 111.451 -2.79534 -2.87509 0
M  V30 1135 H 108.041 -3.8434 -1.89685 0
M  V30 1136 H 112.225 -4.73474 -1.4878 0
M  V30 1137 H 107.481 -6.04027 -0.946666 0
M  V30 1138 H 111.655 -6.94258 -0.545843 0
M  V30 1139 H 109.282 -7.59722 -0.26952 0
M  V30 1140 N 110.857 0.726932 -1.39834 0
M  V30 1141 C 112.082 1.52121 -1.40976 0
M  V30 1142 C 112.507 1.88098 -0.00826029 0
M  V30 1143 O 111.865 1.52479 0.980807 0
M  V30 1144 C 111.913 2.78021 -2.29644 0
M  V30 1145 O 111.017 3.74272 -1.73188 0
M  V30 1146 H 110.358 0.45908 -0.479731 0
M  V30 1147 H 112.888 0.896207 -1.83927 0
M  V30 1148 H 112.898 3.26671 -2.44438 0
M  V30 1149 H 111.573 2.51169 -3.31492 0
M  V30 1150 H 110.15 3.33073 -1.6768 0
M  V30 1151 N 112.336 1.25143 0.95797 0
M  V30 1152 C 113.561 1.12521 1.74223 0
M  V30 1153 C 113.986 -0.317402 1.85403 0
M  V30 1154 O 113.344 -1.2299 1.33204 0
M  V30 1155 C 113.392 1.78062 3.1357 0
M  V30 1156 O 112.496 1.058 3.98598 0
M  V30 1157 H 111.837 0.39304 0.535178 0
M  V30 1158 H 114.367 1.65641 1.201 0
M  V30 1159 H 114.377 1.84213 3.64046 0
M  V30 1160 H 113.052 2.83021 3.04749 0
M  V30 1161 H 111.629 1.07506 3.57067 0
M  V30 1162 N 113.814 -1.1601 1.06675 0
M  V30 1163 C 114.746 -2.20115 0.638921 0
M  V30 1164 C 115.759 -1.59916 -0.305057 0
M  V30 1165 O 116.948 -1.78245 -0.0954446 0
M  V30 1166 C 114.048 -3.38798 -0.0830083 0
M  V30 1167 C 113.221 -4.2855 0.875426 0
M  V30 1168 C 112.28 -5.25849 0.192042 0
M  V30 1169 O 111.306 -5.63102 0.830921 0
M  V30 1170 N 112.508 -5.70648 -1.06493 0
M  V30 1171 H 115.273 -2.57439 1.53444 0
M  V30 1172 H 112.834 -1.31057 0.950557 0
M  V30 1173 H 114.826 -4.00936 -0.550685 0
M  V30 1174 H 113.396 -2.99947 -0.880386 0
M  V30 1175 H 112.616 -3.63617 1.52238 0
M  V30 1176 H 113.904 -4.85393 1.52548 0
M  V30 1177 H 113.302 -5.42482 -1.60405 0
M  V30 1178 H 111.859 -6.34859 -1.47641 0
M  V30 1179 N 115.292 -0.849877 -1.32721 0
M  V30 1180 C 116.24 -0.279745 -2.30912 0
M  V30 1181 C 117.234 0.594278 -1.58634 0
M  V30 1182 O 118.44 0.482613 -1.73409 0
M  V30 1183 H 114.815 -0.0717521 -0.748569 0
M  V30 1184 H 116.786 -1.12222 -2.76494 0
M  V30 1185 C 115.535 0.521108 -3.43773 0
M  V30 1186 H 114.858 -0.142141 -3.99547 0
M  V30 1187 H 116.298 0.885693 -4.14646 0
M  V30 1188 C 114.757 1.70442 -2.90605 0
M  V30 1189 O 115.287 2.8034 -2.87702 0
M  V30 1190 N 113.493 1.52991 -2.47067 0
M  V30 1191 H 113.04 0.635914 -2.49628 0
M  V30 1192 H 112.998 2.32311 -2.11847 0
M  V30 1193 N 116.77 1.45427 -0.607355 0
M  V30 1194 C 118.016 2.0254 -0.102607 0
M  V30 1195 C 118.349 1.47478 1.26348 0
M  V30 1196 O 117.624 0.64939 1.83339 0
M  V30 1197 C 117.907 3.60044 -0.0634347 0
M  V30 1198 C 117.76 4.2544 -1.46017 0
M  V30 1199 C 119.079 4.35646 0.624514 0
M  V30 1200 H 116.198 0.73598 -0.0387607 0
M  V30 1201 H 118.84 1.73284 -0.779282 0
M  V30 1202 H 116.99 3.85101 0.512808 0
M  V30 1203 H 118.662 4.11569 -2.08347 0
M  V30 1204 H 116.905 3.83849 -2.02094 0
M  V30 1205 H 117.576 5.34342 -1.385 0
M  V30 1206 H 120.052 4.15882 0.134723 0
M  V30 1207 H 118.928 5.45376 0.621028 0
M  V30 1208 H 119.189 4.08501 1.69055 0
M  V30 1209 N 118.248 0.346503 1.53744 0
M  V30 1210 C 119.496 -0.248612 2.00565 0
M  V30 1211 C 119.817 -1.5083 1.23593 0
M  V30 1212 O 119.087 -1.92858 0.343912 0
M  V30 1213 H 117.667 -0.0948564 0.740953 0
M  V30 1214 H 120.329 0.468341 1.89189 0
M  V30 1215 H 119.425 -0.488994 3.08245 0
M  V30 1216 N 119.726 -1.57421 0.075193 0
M  V30 1217 C 120.656 -2.15942 -0.888324 0
M  V30 1218 C 121.637 -1.08737 -1.30806 0
M  V30 1219 O 122.822 -1.36787 -1.37851 0
M  V30 1220 C 119.952 -2.72379 -2.1547 0
M  V30 1221 C 118.906 -3.8478 -1.87425 0
M  V30 1222 C 118.232 -4.27834 -3.20721 0
M  V30 1223 C 119.532 -5.08869 -1.17684 0
M  V30 1224 H 121.226 -2.96705 -0.400799 0
M  V30 1225 H 118.772 -1.42723 -0.191342 0
M  V30 1226 H 120.725 -3.11965 -2.83295 0
M  V30 1227 H 119.449 -1.88841 -2.6647 0
M  V30 1228 H 118.108 -3.45703 -1.22004 0
M  V30 1229 H 117.756 -3.41214 -3.6957 0
M  V30 1230 H 117.456 -5.03605 -3.02746 0
M  V30 1231 H 118.98 -4.70039 -3.89738 0
M  V30 1232 H 120.394 -5.4575 -1.75584 0
M  V30 1233 H 118.791 -5.8994 -1.09956 0
M  V30 1234 H 119.861 -4.84648 -0.156453 0
M  V30 1235 N 121.204 0.198386 -1.56346 0
M  V30 1236 C 122.432 0.935572 -1.84539 0
M  V30 1237 C 122.847 1.76989 -0.657281 0
M  V30 1238 O 122.204 1.78626 0.374043 0
M  V30 1239 C 122.255 1.8344 -3.11499 0
M  V30 1240 O 121.976 1.03377 -4.25728 0
M  V30 1241 C 123.477 2.68355 -3.52846 0
M  V30 1242 H 120.697 0.273126 -0.612897 0
M  V30 1243 H 123.241 0.20663 -2.03453 0
M  V30 1244 H 121.396 2.51701 -2.94492 0
M  V30 1245 H 121.81 1.64599 -4.98003 0
M  V30 1246 H 123.284 3.27085 -4.44657 0
M  V30 1247 H 123.761 3.41901 -2.75681 0
M  V30 1248 H 124.367 2.05471 -3.72373 0
M  V30 1249 N 122.682 1.50554 0.465978 0
M  V30 1250 C 123.931 1.61038 1.21448 0
M  V30 1251 C 124.244 0.31865 1.92987 0
M  V30 1252 O 125.45 0.302469 2.6981 0
M  V30 1253 C 123.906 2.84283 2.20706 0
M  V30 1254 C 123.514 4.20352 1.54946 0
M  V30 1255 C 125.258 3.04115 2.96166 0
M  V30 1256 C 123.165 5.34778 2.5252 0
M  V30 1257 H 122.095 0.599718 0.457005 0
M  V30 1258 H 124.746 1.7699 0.484424 0
M  V30 1259 H 123.128 2.61901 2.97025 0
M  V30 1260 H 124.302 4.53008 0.843811 0
M  V30 1261 H 122.617 4.06167 0.917475 0
M  V30 1262 H 125.214 3.86774 3.69202 0
M  V30 1263 H 125.557 2.16045 3.55852 0
M  V30 1264 H 126.09 3.26702 2.26959 0
M  V30 1265 H 122.829 6.25018 1.97566 0
M  V30 1266 H 122.349 5.06534 3.21222 0
M  V30 1267 H 124.028 5.65561 3.14245 0
M  V30 1268 N 124.16 -0.719506 1.40217 0
M  V30 1269 C 125.388 -1.50864 1.41589 0
M  V30 1270 C 125.803 -1.88794 0.0145275 0
M  V30 1271 O 125.16 -1.55174 -0.960594 0
M  V30 1272 C 125.211 -2.78646 2.30302 0
M  V30 1273 O 124.932 -2.42321 3.64983 0
M  V30 1274 C 126.433 -3.72569 2.40224 0
M  V30 1275 H 123.653 -0.465709 0.48307 0
M  V30 1276 H 126.197 -0.88785 1.84221 0
M  V30 1277 H 124.352 -3.37019 1.91042 0
M  V30 1278 H 124.766 -3.24514 4.12057 0
M  V30 1279 H 126.24 -4.5908 3.06512 0
M  V30 1280 H 126.717 -4.15403 1.42608 0
M  V30 1281 H 127.323 -3.20109 2.80019 0
M  V30 1282 N 125.638 -1.25649 -0.95132 0
M  V30 1283 C 126.884 -1.10757 -1.69884 0
M  V30 1284 C 127.217 0.350061 -1.91019 0
M  V30 1285 O 126.492 1.25783 -1.48354 0
M  V30 1286 C 126.775 -1.86606 -3.07978 0
M  V30 1287 C 126.628 -3.40217 -2.94232 0
M  V30 1288 C 127.947 -1.65182 -4.07925 0
M  V30 1289 H 125.066 -0.40374 -0.616574 0
M  V30 1290 H 127.708 -1.54521 -1.10558 0
M  V30 1291 H 125.858 -1.49409 -3.58621 0
M  V30 1292 H 127.53 -3.87108 -2.50889 0
M  V30 1293 H 125.773 -3.67759 -2.30078 0
M  V30 1294 H 126.444 -3.88505 -3.92133 0
M  V30 1295 H 128.92 -1.9757 -3.66204 0
M  V30 1296 H 127.796 -2.20683 -5.02583 0
M  V30 1297 H 128.057 -0.593933 -4.38092 0
M  V30 1298 N 127.117 1.15442 -1.07289 0
M  V30 1299 C 128.345 1.90096 -0.81676 0
M  V30 1300 C 128.76 1.7798 0.629966 0
M  V30 1301 O 128.117 1.1313 1.43206 0
M  V30 1302 C 128.168 3.40466 -1.21512 0
M  V30 1303 O 127.889 3.52232 -2.60508 0
M  V30 1304 C 129.39 4.32145 -0.988198 0
M  V30 1305 H 126.61 0.602495 -0.295366 0
M  V30 1306 H 129.154 1.4627 -1.42918 0
M  V30 1307 H 127.309 3.81958 -0.647039 0
M  V30 1308 H 127.723 4.45549 -2.76742 0
M  V30 1309 H 129.197 5.36072 -1.31645 0
M  V30 1310 H 129.674 4.39135 0.0755063 0
M  V30 1311 H 130.28 3.96395 -1.54115 0
M  V30 1312 N 128.595 0.856903 1.32268 0
M  V30 1313 C 130.006 0.515711 1.79436 0
M  V30 1314 C 130.357 -0.966586 1.70738 0
M  V30 1315 O 129.482 -1.75409 1.26731 0
M  V30 1316 C 130.077 0.929335 3.25805 0
M  V30 1317 C 128.636 0.640006 3.70919 0
M  V30 1318 C 127.783 1.12784 2.53328 0
M  V30 1319 H 130.734 1.04389 1.19535 0
M  V30 1320 H 130.755 0.246633 3.797 0
M  V30 1321 H 130.267 2.00821 3.32103 0
M  V30 1322 H 128.368 -0.428051 3.70133 0
M  V30 1323 H 128.481 1.20788 4.63624 0
M  V30 1324 H 126.845 0.548033 2.48734 0
M  V30 1325 H 127.628 2.21387 2.62379 0
M  V30 1326 N 130.073 -1.45103 0.615059 0
M  V30 1327 C 131.313 -2.04069 0.116282 0
M  V30 1328 C 131.677 -1.4721 -1.2326 0
M  V30 1329 O 132.878 -1.97577 -1.82255 0
M  V30 1330 C 131.149 -3.57298 0.085482 0
M  V30 1331 S 132.708 -4.37394 -0.351015 0
M  V30 1332 H 129.526 -0.709006 0.0532183 0
M  V30 1333 H 132.128 -1.77709 0.81484 0
M  V30 1334 H 130.832 -3.9619 1.0706 0
M  V30 1335 H 130.363 -3.88244 -0.634835 0
M  V30 1336 H 132.378 -4.69734 -1.59889 0
M  V30 1337 N 131.551 -0.354651 -1.53558 0
M  V30 1338 C 132.797 0.231422 -2.02079 0
M  V30 1339 C 133.152 1.47308 -1.23767 0
M  V30 1340 O 132.445 1.8891 -0.319947 0
M  V30 1341 C 132.639 0.587121 -3.52545 0
M  V30 1342 C 132.468 -0.618513 -4.45426 0
M  V30 1343 C 131.238 -1.12724 -4.92566 0
M  V30 1344 C 133.436 -1.48039 -4.92533 0
M  V30 1345 N 131.418 -2.29404 -5.69427 0
M  V30 1346 C 132.789 -2.49397 -5.67628 0
M  V30 1347 C 134.844 -1.50454 -4.74624 0
M  V30 1348 C 133.547 -3.53013 -6.26717 0
M  V30 1349 C 135.573 -2.52958 -5.34571 0
M  V30 1350 C 134.935 -3.5304 -6.09543 0
M  V30 1351 H 131.034 0.0476909 -0.780544 0
M  V30 1352 H 133.618 -0.496727 -1.88257 0
M  V30 1353 H 131.789 1.28436 -3.6655 0
M  V30 1354 H 133.521 1.15734 -3.87799 0
M  V30 1355 H 130.276 -0.693577 -4.68494 0
M  V30 1356 H 130.7 -2.88347 -6.12524 0
M  V30 1357 H 135.342 -0.744356 -4.16196 0
M  V30 1358 H 133.06 -4.2992 -6.84247 0
M  V30 1359 H 136.646 -2.55667 -5.22614 0
M  V30 1360 H 135.526 -4.31056 -6.55103 0
M  V30 1361 N 133.029 1.57378 -0.0835403 0
M  V30 1362 C 134.269 1.95808 0.586381 0
M  V30 1363 C 134.633 0.963706 1.66062 0
M  V30 1364 O 135.834 1.23608 2.38693 0
M  V30 1365 C 134.105 3.38808 1.13771 0
M  V30 1366 S 135.664 3.99225 1.82112 0
M  V30 1367 H 132.482 0.684675 0.191679 0
M  V30 1368 H 135.084 1.94843 -0.160194 0
M  V30 1369 H 133.788 4.08954 0.344197 0
M  V30 1370 H 133.319 3.43344 1.92038 0
M  V30 1371 H 135.334 3.87087 3.10449 0
M  V30 1372 N 134.507 -0.190092 1.56449 0
M  V30 1373 C 135.737 -0.92443 1.84764 0
M  V30 1374 C 136.145 -1.77146 0.664529 0
M  V30 1375 O 135.488 -1.79812 -0.375957 0
M  V30 1376 C 135.55 -1.86651 3.07248 0
M  V30 1377 C 135.214 -1.20094 4.40938 0
M  V30 1378 C 136.211 -0.575445 5.16706 0
M  V30 1379 C 133.896 -1.2033 4.87674 0
M  V30 1380 C 135.89 0.0388111 6.37388 0
M  V30 1381 C 133.577 -0.585214 6.08291 0
M  V30 1382 C 134.575 0.0347578 6.82991 0
M  V30 1383 O 134.263 0.643147 8.01323 0
M  V30 1384 H 133.995 -0.274974 0.617548 0
M  V30 1385 H 136.549 -0.200788 2.04416 0
M  V30 1386 H 134.779 -2.62998 2.83494 0
M  V30 1387 H 136.468 -2.46907 3.22167 0
M  V30 1388 H 137.234 -0.565728 4.81689 0
M  V30 1389 H 133.113 -1.67526 4.29484 0
M  V30 1390 H 136.657 0.523329 6.95634 0
M  V30 1391 H 132.554 -0.592451 6.42775 0
M  V30 1392 H 133.322 0.540545 8.16713 0
M  V30 1393 N 135.985 -1.50799 -0.457987 0
M  V30 1394 C 137.233 -1.62121 -1.2067 0
M  V30 1395 C 137.554 -0.329793 -1.92191 0
M  V30 1396 O 136.824 0.653409 -1.84682 0
M  V30 1397 H 135.404 -0.597441 -0.448411 0
M  V30 1398 H 138.066 -1.87637 -0.527096 0
M  V30 1399 H 137.162 -2.43882 -1.94751 0
M  V30 1400 N 137.463 0.71206 -1.40597 0
M  V30 1401 C 138.688 1.50617 -1.42581 0
M  V30 1402 C 139.113 1.88079 -0.0282102 0
M  V30 1403 O 138.471 1.53511 0.964579 0
M  V30 1404 C 138.519 2.7557 -2.3258 0
M  V30 1405 O 137.623 3.72414 -1.77148 0
M  V30 1406 H 136.964 0.453966 -0.484573 0
M  V30 1407 H 139.494 0.876649 -1.84868 0
M  V30 1408 H 139.504 3.2406 -2.47889 0
M  V30 1409 H 138.179 2.47639 -3.34138 0
M  V30 1410 H 136.756 3.31276 -1.71204 0
M  V30 1411 N 138.941 1.26152 0.944643 0
M  V30 1412 C 139.851 1.09176 2.07648 0
M  V30 1413 C 140.867 0.0261935 1.7398 0
M  V30 1414 O 142.043 0.229208 2.00091 0
M  V30 1415 C 139.108 0.722915 3.39079 0
M  V30 1416 C 138.169 1.86752 3.86552 0
M  V30 1417 C 137.402 1.51617 5.11711 0
M  V30 1418 O 137.625 0.416331 5.68879 0
M  V30 1419 O 136.559 2.34975 5.54139 0
M  V30 1420 H 140.385 2.0412 2.24875 0
M  V30 1421 H 137.97 1.05182 1.061 0
M  V30 1422 H 139.852 0.529787 4.18056 0
M  V30 1423 H 138.527 -0.197159 3.23099 0
M  V30 1424 H 137.434 2.11558 3.08535 0
M  V30 1425 H 138.767 2.76719 4.07047 0
M  V30 1426 N 140.419 -1.14872 1.07899 0
M  V30 1427 C 141.647 -1.89661 0.82683 0
M  V30 1428 C 142.062 -1.78312 -0.620519 0
M  V30 1429 O 141.419 -1.13888 -1.42604 0
M  V30 1430 C 141.47 -3.39817 1.23316 0
M  V30 1431 O 141.191 -3.50845 2.62372 0
M  V30 1432 C 142.692 -4.31615 1.0111 0
M  V30 1433 H 139.912 -0.60092 0.298557 0
M  V30 1434 H 142.456 -1.4551 1.43691 0
M  V30 1435 H 140.611 -3.8161 0.667286 0
M  V30 1436 H 141.025 -4.44076 2.79101 0
M  V30 1437 H 142.499 -5.35367 1.34486 0
M  V30 1438 H 142.976 -4.39169 -0.0522168 0
M  V30 1439 H 143.582 -3.95572 1.56215 0
M  V30 1440 N 141.898 -0.863906 -1.31812 0
M  V30 1441 C 143.147 -0.46801 -1.96195 0
M  V30 1442 C 143.46 0.983474 -1.69077 0
M  V30 1443 O 144.666 1.48523 -2.27273 0
M  V30 1444 C 143.122 -0.785995 -3.51212 0
M  V30 1445 C 142.73 -2.25383 -3.87178 0
M  V30 1446 C 144.474 -0.458274 -4.22019 0
M  V30 1447 C 142.381 -2.51455 -5.3528 0
M  V30 1448 H 141.311 -0.171283 -0.734287 0
M  V30 1449 H 143.962 -1.05597 -1.50072 0
M  V30 1450 H 142.344 -0.127359 -3.95795 0
M  V30 1451 H 143.518 -2.95502 -3.53575 0
M  V30 1452 H 141.833 -2.54698 -3.2942 0
M  V30 1453 H 144.43 -0.630369 -5.30971 0
M  V30 1454 H 144.773 0.600834 -4.11941 0
M  V30 1455 H 145.306 -1.07319 -3.8305 0
M  V30 1456 H 142.045 -3.56025 -5.50387 0
M  V30 1457 H 141.565 -1.85923 -5.70257 0
M  V30 1458 H 143.244 -2.35874 -6.02472 0
M  V30 1459 N 143.376 1.44774 -0.622745 0
M  V30 1460 C 144.653 1.95522 -0.0551974 0
M  V30 1461 C 145.033 1.5649 1.41683 0
M  V30 1462 O 144.381 0.834848 2.12703 0
M  V30 1463 C 144.591 3.4796 -0.269242 0
M  V30 1464 C 145.939 4.24306 -0.158014 0
M  V30 1465 O 146.963 3.55637 -0.200162 0
M  V30 1466 O 145.822 5.46471 -0.0558693 0
M  V30 1467 H 142.916 0.826556 0.0271015 0
M  V30 1468 H 145.462 1.54866 -0.693864 0
M  V30 1469 H 144.234 3.6939 -1.29099 0
M  V30 1470 H 143.857 3.95543 0.403966 0
M  V30 1471 N 144.854 0.36279 1.53368 0
M  V30 1472 C 145.787 -0.528507 2.21996 0
M  V30 1473 C 146.765 -1.0852 1.21087 0
M  V30 1474 O 147.949 -1.14186 1.4998 0
M  V30 1475 C 145.076 -1.72893 2.91249 0
M  V30 1476 C 144.122 -1.29994 4.06207 0
M  V30 1477 S 144.955 -0.303575 5.34639 0
M  V30 1478 C 146.111 -1.51039 6.07403 0
M  V30 1479 H 146.344 0.0543423 2.9725 0
M  V30 1480 H 143.877 0.146889 1.537 0
M  V30 1481 H 145.835 -2.41751 3.31763 0
M  V30 1482 H 144.496 -2.28303 2.15724 0
M  V30 1483 H 143.689 -2.19549 4.53667 0
M  V30 1484 H 143.291 -0.690608 3.67569 0
M  V30 1485 H 145.583 -2.44186 6.31965 0
M  V30 1486 H 146.526 -1.07721 6.99858 0
M  V30 1487 H 146.934 -1.71518 5.37812 0
M  V30 1488 N 146.332 -1.57332 0.0918853 0
M  V30 1489 C 147.609 -1.85691 -0.614668 0
M  V30 1490 C 147.989 -0.988146 -1.86545 0
M  V30 1491 O 147.337 -0.0597055 -2.28422 0
M  V30 1492 C 147.547 -3.36294 -0.933126 0
M  V30 1493 C 148.895 -4.04275 -1.29796 0
M  V30 1494 O 149.919 -3.41157 -1.02424 0
M  V30 1495 O 148.778 -5.1564 -1.81047 0
M  V30 1496 H 145.872 -0.767802 -0.307261 0
M  V30 1497 H 148.418 -1.69244 0.12434 0
M  V30 1498 H 147.19 -3.91273 -0.0456404 0
M  V30 1499 H 146.813 -3.58076 -1.72822 0
M  V30 1500 N 147.81 0.181792 -1.56548 0
M  V30 1501 C 149.221 0.745244 -1.71181 0
M  V30 1502 C 149.572 1.83262 -0.70068 0
M  V30 1503 O 148.697 2.15946 0.140154 0
M  V30 1504 C 149.292 1.35859 -3.10367 0
M  V30 1505 C 147.851 1.86898 -3.2672 0
M  V30 1506 C 146.998 0.743942 -2.67134 0
M  V30 1507 H 149.949 -0.0434661 -1.5864 0
M  V30 1508 H 149.97 2.22817 -3.08436 0
M  V30 1509 H 149.482 0.566948 -3.83937 0
M  V30 1510 H 147.583 2.68738 -2.5809 0
M  V30 1511 H 147.696 2.02162 -4.34359 0
M  V30 1512 H 146.06 1.16169 -2.26665 0
M  V30 1513 H 146.843 -0.035676 -3.43281 0
M  V30 1514 N 149.288 1.51039 0.449983 0
M  V30 1515 C 150.516 1.66869 1.2232 0
M  V30 1516 C 150.931 0.360727 1.85322 0
M  V30 1517 O 150.288 -0.659531 1.70166 0
M  V30 1518 C 150.339 2.77524 2.31652 0
M  V30 1519 O 150.06 4.03252 1.7123 0
M  V30 1520 C 151.561 3.04512 3.2216 0
M  V30 1521 H 148.781 0.560326 0.369155 0
M  V30 1522 H 151.325 1.97385 0.534719 0
M  V30 1523 H 149.48 2.49642 2.96239 0
M  V30 1524 H 149.894 4.64609 2.43389 0
M  V30 1525 H 151.368 3.85551 3.95038 0
M  V30 1526 H 151.845 2.16415 3.8218 0
M  V30 1527 H 152.451 3.34005 2.63288 0
M  V30 1528 N 150.766 -0.704594 1.40972 0
M  V30 1529 C 152.182 -1.01406 1.23244 0
M  V30 1530 C 152.382 -2.01169 0.115399 0
M  V30 1531 O 151.438 -2.47021 -0.523147 0
M  V30 1532 C 152.751 -1.54728 2.57836 0
M  V30 1533 C 154.299 -1.66658 2.64942 0
M  V30 1534 C 154.774 -2.23383 3.9983 0
M  V30 1535 N 156.265 -2.30756 4.01629 0
M  V30 1536 C 157 -2.75655 5.02794 0
M  V30 1537 N 156.496 -3.20225 6.14352 0
M  V30 1538 N 158.289 -2.75138 4.90159 0
M  V30 1539 H 150.44 -0.0435285 2.12355 0
M  V30 1540 H 152.703 -0.0818951 0.944456 0
M  V30 1541 H 152.409 -0.888832 3.40283 0
M  V30 1542 H 152.283 -2.53084 2.79693 0
M  V30 1543 H 154.67 -2.31617 1.8286 0
M  V30 1544 H 154.751 -0.668717 2.46904 0
M  V30 1545 H 154.395 -1.59043 4.82357 0
M  V30 1546 H 154.325 -3.23904 4.15203 0
M  V30 1547 H 156.816 -1.99291 3.21079 0
M  V30 1548 H 157.129 -3.53084 6.87424 0
M  V30 1549 H 155.474 -3.18156 6.17901 0
M  V30 1550 H 158.665 -2.39661 4.02095 0
M  V30 1551 H 158.838 -3.09812 5.6914 0
M  V30 1552 N 152.244 -1.26651 -0.937939 0
M  V30 1553 C 153.655 -1.1125 -1.49934 0
M  V30 1554 C 154.006 0.306077 -1.93798 0
M  V30 1555 O 153.131 1.19792 -1.80219 0
M  V30 1556 C 153.726 -2.01339 -2.72485 0
M  V30 1557 C 152.285 -1.90074 -3.24883 0
M  V30 1558 C 151.432 -1.94498 -1.97651 0
M  V30 1559 H 154.383 -1.39693 -0.753091 0
M  V30 1560 H 154.404 -1.56319 -3.46907 0
M  V30 1561 H 153.916 -3.04577 -2.40529 0
M  V30 1562 H 152.017 -0.897827 -3.61621 0
M  V30 1563 H 152.13 -2.75778 -3.9177 0
M  V30 1564 H 150.494 -1.38591 -2.13693 0
M  V30 1565 H 151.277 -2.99372 -1.68022 0
M  V30 1566 N 153.722 1.14298 -1.08507 0
M  V30 1567 C 154.669 2.19414 -0.715965 0
M  V30 1568 C 155.639 1.63399 0.298326 0
M  V30 1569 O 156.824 1.89929 0.182101 0
M  V30 1570 C 153.964 3.44845 -0.132534 0
M  V30 1571 C 153.077 4.15007 -1.19973 0
M  V30 1572 C 152.212 5.28024 -0.580048 0
M  V30 1573 C 151.251 5.9002 -1.62921 0
M  V30 1574 N 150.388 6.94485 -1.03125 0
M  V30 1575 H 155.228 2.50336 -1.61666 0
M  V30 1576 H 152.765 1.2293 -0.807882 0
M  V30 1577 H 154.723 4.16601 0.223454 0
M  V30 1578 H 153.353 3.14403 0.731467 0
M  V30 1579 H 152.405 3.41629 -1.67313 0
M  V30 1580 H 153.717 4.57178 -1.99473 0
M  V30 1581 H 152.871 6.06455 -0.172364 0
M  V30 1582 H 151.61 4.87076 0.246603 0
M  V30 1583 H 150.615 5.10291 -2.04654 0
M  V30 1584 H 151.84 6.33042 -2.45835 0
M  V30 1585 H 149.786 6.55612 -0.225711 0
M  V30 1586 H 149.703 7.35148 -1.76334 0
M  V30 1587 H 150.971 7.7679 -0.649458 0
M  V30 1588 N 155.201 0.870884 1.31352 0
M  V30 1589 C 156.164 0.332243 2.26779 0
M  V30 1590 C 157.164 -0.517302 1.52252 0
M  V30 1591 O 158.354 -0.326477 1.71113 0
M  V30 1592 C 155.486 -0.528066 3.36785 0
M  V30 1593 H 156.679 1.17469 2.75937 0
M  V30 1594 H 154.232 0.64655 1.423 0
M  V30 1595 H 154.967 -1.39167 2.92922 0
M  V30 1596 H 154.752 0.0802582 3.92018 0
M  V30 1597 H 156.242 -0.897179 4.07849 0
M  V30 1598 N 156.679 -1.44442 0.630414 0
M  V30 1599 C 157.928 -2.01267 0.132073 0
M  V30 1600 C 158.241 -1.50172 -1.25331 0
M  V30 1601 O 159.447 -1.9912 -1.84562 0
M  V30 1602 C 157.903 -3.59422 0.185362 0
M  V30 1603 C 157.511 -4.19514 1.57201 0
M  V30 1604 C 159.255 -4.23724 -0.256553 0
M  V30 1605 C 157.162 -5.69891 1.58045 0
M  V30 1606 H 156.092 -0.752619 0.0456092 0
M  V30 1607 H 158.743 -1.65666 0.789106 0
M  V30 1608 H 157.125 -3.92318 -0.538759 0
M  V30 1609 H 158.299 -3.98156 2.31966 0
M  V30 1610 H 156.614 -3.67496 1.95795 0
M  V30 1611 H 159.211 -5.34019 -0.269767 0
M  V30 1612 H 159.554 -3.96013 -1.28372 0
M  V30 1613 H 160.087 -3.95629 0.41505 0
M  V30 1614 H 156.826 -6.02336 2.58597 0
M  V30 1615 H 156.346 -5.93373 0.875725 0
M  V30 1616 H 158.025 -6.33515 1.31408 0
M  V30 1617 N 158.157 -0.370918 -1.53173 0
M  V30 1618 C 159.403 0.209976 -2.02313 0
M  V30 1619 C 159.758 1.45987 -1.25322 0
M  V30 1620 O 159.051 1.8856 -0.339965 0
M  V30 1621 C 159.245 0.549696 -3.53147 0
M  V30 1622 C 159.074 -0.665721 -4.44745 0
M  V30 1623 C 157.844 -1.17942 -4.91343 0
M  V30 1624 C 160.042 -1.53255 -4.90935 0
M  V30 1625 N 158.024 -2.35431 -5.66962 0
M  V30 1626 C 159.395 -2.55403 -5.64951 0
M  V30 1627 C 161.45 -1.5548 -4.73002 0
M  V30 1628 C 160.153 -3.5964 -6.22938 0
M  V30 1629 C 162.179 -2.58613 -5.31858 0
M  V30 1630 C 161.541 -3.59485 -6.05764 0
M  V30 1631 H 157.64 0.0394095 -0.781006 0
M  V30 1632 H 160.224 -0.516666 -1.8772 0
M  V30 1633 H 158.395 1.24541 -3.67891 0
M  V30 1634 H 160.127 1.11614 -3.89004 0
M  V30 1635 H 156.882 -0.743228 -4.67732 0
M  V30 1636 H 157.306 -2.94827 -6.09431 0
M  V30 1637 H 161.948 -0.788457 -4.15383 0
M  V30 1638 H 159.666 -4.37153 -6.79649 0
M  V30 1639 H 163.252 -2.61195 -5.19873 0
M  V30 1640 H 162.132 -4.3798 -6.50495 0
M  V30 1641 N 159.635 1.57281 -0.100228 0
M  V30 1642 C 160.883 1.94153 0.561157 0
M  V30 1643 C 161.204 0.983157 1.68401 0
M  V30 1644 O 160.474 0.0361132 1.95867 0
M  V30 1645 H 159.054 0.716791 0.210283 0
M  V30 1646 H 161.716 1.94202 -0.164765 0
M  V30 1647 H 160.812 2.96709 0.968008 0
M  V30 1648 N 161.113 -0.173488 1.56642 0
M  V30 1649 C 162.36 -0.890465 1.81871 0
M  V30 1650 C 162.688 -1.82339 0.67696 0
M  V30 1651 O 161.943 -1.92795 -0.335926 0
M  V30 1652 C 162.242 -1.72069 3.13252 0
M  V30 1653 C 161.908 -0.936878 4.41059 0
M  V30 1654 C 160.57 -0.720545 4.75775 0
M  V30 1655 C 162.922 -0.386919 5.19762 0
M  V30 1656 C 160.25 0.0568829 5.86672 0
M  V30 1657 C 162.602 0.37741 6.31473 0
M  V30 1658 C 161.266 0.604563 6.64757 0
M  V30 1659 H 160.536 -0.325844 0.665512 0
M  V30 1660 H 163.183 -0.155527 1.90867 0
M  V30 1661 H 161.488 -2.52496 2.99588 0
M  V30 1662 H 163.185 -2.27844 3.29982 0
M  V30 1663 H 159.775 -1.11553 4.13828 0
M  V30 1664 H 163.959 -0.541398 4.93338 0
M  V30 1665 H 159.215 0.242635 6.10918 0
M  V30 1666 H 163.389 0.810825 6.91664 0
M  V30 1667 H 161.016 1.20885 7.50527 0
M  V30 1668 N 162.591 -1.51276 -0.441967 0
M  V30 1669 C 163.539 -1.72823 -1.55676 0
M  V30 1670 C 164.533 -0.59445 -1.58627 0
M  V30 1671 O 165.739 -0.775715 -1.62427 0
M  V30 1672 H 162.114 -0.545983 -0.517113 0
M  V30 1673 H 164.085 -2.6628 -1.34675 0
M  V30 1674 C 162.834 -1.86619 -2.93375 0
M  V30 1675 H 162.157 -2.73264 -2.91834 0
M  V30 1676 H 163.597 -2.05709 -3.70756 0
M  V30 1677 C 162.056 -0.624842 -3.31055 0
M  V30 1678 O 162.586 0.222636 -4.01083 0
M  V30 1679 N 160.792 -0.470288 -2.86769 0
M  V30 1680 H 160.339 -1.161 -2.29953 0
M  V30 1681 H 160.297 0.359051 -3.12343 0
M  V30 1682 N 164.069 0.697108 -1.41344 0
M  V30 1683 C 165.317 1.45426 -1.40341 0
M  V30 1684 C 165.638 1.94996 -0.0128787 0
M  V30 1685 O 164.908 1.71599 0.945027 0
M  V30 1686 H 163.488 0.539594 -0.516573 0
M  V30 1687 H 166.15 0.825201 -1.76569 0
M  V30 1688 H 165.246 2.31817 -2.08967 0
M  V30 1689 N 165.547 1.27147 0.931209 0
M  V30 1690 C 166.775 1.16082 1.71267 0
M  V30 1691 C 167.19 -0.282772 1.8667 0
M  V30 1692 O 166.547 -1.19283 1.38122 0
M  V30 1693 C 166.598 1.8358 3.11417 0
M  V30 1694 O 166.319 3.22299 2.96741 0
M  V30 1695 C 167.82 1.78597 4.05732 0
M  V30 1696 H 165.04 0.403758 0.535929 0
M  V30 1697 H 167.584 1.67953 1.16671 0
M  V30 1698 H 165.739 1.35623 3.62885 0
M  V30 1699 H 166.153 3.55851 3.85319 0
M  V30 1700 H 167.627 2.30444 5.01597 0
M  V30 1701 H 168.104 0.754564 4.3267 0
M  V30 1702 H 168.71 2.26152 3.60188 0
M  V30 1703 N 167.025 -1.13721 1.09112 0
M  V30 1704 C 167.935 -2.22638 0.73957 0
M  V30 1705 C 168.951 -1.72091 -0.257068 0
M  V30 1706 O 170.127 -2.01155 -0.0992154 0
M  V30 1707 C 167.192 -3.46322 0.16191 0
M  V30 1708 C 166.253 -4.11775 1.21408 0
M  V30 1709 C 165.486 -5.29555 0.663891 0
M  V30 1710 O 165.709 -5.68077 -0.514274 0
M  V30 1711 O 164.643 -5.84973 1.41738 0
M  V30 1712 H 168.469 -2.55074 1.64836 0
M  V30 1713 H 166.054 -1.21791 0.865289 0
M  V30 1714 H 167.936 -4.21107 -0.157073 0
M  V30 1715 H 166.611 -3.15593 -0.719932 0
M  V30 1716 H 165.518 -3.3883 1.58571 0
M  V30 1717 H 166.851 -4.46627 2.06845 0
M  V30 1718 N 168.503 -0.877838 -1.30888 0
M  V30 1719 C 169.919 -0.570844 -1.49042 0
M  V30 1720 C 170.119 0.893159 -1.80624 0
M  V30 1721 O 169.175 1.67485 -1.88958 0
M  V30 1722 C 170.488 -1.47784 -2.61878 0
M  V30 1723 C 172.036 -1.48071 -2.75761 0
M  V30 1724 C 172.511 -2.37347 -3.91702 0
M  V30 1725 N 174.002 -2.35271 -3.99001 0
M  V30 1726 C 174.737 -3.01063 -4.88004 0
M  V30 1727 N 174.233 -3.76055 -5.81854 0
M  V30 1728 N 176.026 -2.90332 -4.81315 0
M  V30 1729 H 168.177 -1.82502 -1.0866 0
M  V30 1730 H 170.44 -0.780797 -0.537644 0
M  V30 1731 H 170.146 -2.51993 -2.45341 0
M  V30 1732 H 170.02 -1.18215 -3.58197 0
M  V30 1733 H 172.407 -0.446166 -2.91708 0
M  V30 1734 H 172.488 -1.81668 -1.80085 0
M  V30 1735 H 172.132 -3.40883 -3.76512 0
M  V30 1736 H 172.062 -2.01071 -4.86701 0
M  V30 1737 H 174.553 -1.80768 -3.3186 0
M  V30 1738 H 174.866 -4.23366 -6.46514 0
M  V30 1739 H 173.211 -3.80163 -5.81808 0
M  V30 1740 H 176.402 -2.31278 -4.06974 0
M  V30 1741 H 176.575 -3.41885 -5.50471 0
M  V30 1742 N 169.982 1.44106 -0.638065 0
M  V30 1743 C 171.393 1.85316 -0.226894 0
M  V30 1744 C 171.744 1.53399 1.22324 0
M  V30 1745 O 170.869 0.975463 1.93167 0
M  V30 1746 C 171.464 3.3637 -0.405013 0
M  V30 1747 C 170.023 3.76369 -0.0482902 0
M  V30 1748 C 169.17 2.67921 -0.715108 0
M  V30 1749 H 172.121 1.34474 -0.842764 0
M  V30 1750 H 172.142 3.7885 0.354 0
M  V30 1751 H 171.654 3.59569 -1.46053 0
M  V30 1752 H 169.755 3.58784 1.00522 0
M  V30 1753 H 169.868 4.76856 -0.463187 0
M  V30 1754 H 168.232 2.54259 -0.149753 0
M  V30 1755 H 169.015 2.93951 -1.77335 0
M  V30 1756 N 171.46 0.379036 1.52974 0
M  V30 1757 C 172.708 -0.206014 2.01047 0
M  V30 1758 C 173.029 -1.48175 1.26765 0
M  V30 1759 O 172.299 -1.92085 0.384743 0
M  V30 1760 H 170.879 -0.0791184 0.742798 0
M  V30 1761 H 173.541 0.508366 1.88153 0
M  V30 1762 H 172.637 -0.423501 3.09213 0
M  V30 1763 N 172.938 -1.57226 0.108567 0
M  V30 1764 C 173.901 -2.13602 -0.831082 0
M  V30 1765 C 174.901 -1.06841 -1.20173 0
M  V30 1766 O 176.091 -1.32666 -1.12895 0
M  V30 1767 C 173.223 -2.66769 -2.12243 0
M  V30 1768 H 174.416 -2.97951 -0.341317 0
M  V30 1769 H 171.969 -1.55667 -0.14057 0
M  V30 1770 H 172.704 -1.85977 -2.65675 0
M  V30 1771 H 172.489 -3.44839 -1.86625 0
M  V30 1772 H 173.979 -3.10332 -2.79435 0
M  V30 1773 N 174.416 0.165178 -1.56732 0
M  V30 1774 C 175.662 0.882112 -1.82611 0
M  V30 1775 C 175.995 1.81628 -0.687378 0
M  V30 1776 O 175.27 1.92009 0.310267 0
M  V30 1777 C 175.553 1.67245 -3.18906 0
M  V30 1778 C 175.406 0.760987 -4.43316 0
M  V30 1779 C 176.725 2.63884 -3.52212 0
M  V30 1780 H 173.844 0.319242 -0.664269 0
M  V30 1781 H 176.486 0.148052 -1.89422 0
M  V30 1782 H 174.636 2.29824 -3.1323 0
M  V30 1783 H 176.308 0.147596 -4.61064 0
M  V30 1784 H 174.551 0.0694102 -4.33744 0
M  V30 1785 H 175.222 1.34962 -5.35247 0
M  V30 1786 H 177.698 2.11429 -3.58381 0
M  V30 1787 H 176.574 3.16245 -4.48643 0
M  V30 1788 H 176.835 3.44377 -2.77231 0
M  V30 1789 N 175.894 1.51508 0.433938 0
M  V30 1790 C 177.124 1.67914 1.20369 0
M  V30 1791 C 177.532 0.377461 1.85397 0
M  V30 1792 O 176.875 -0.654255 1.71654 0
M  V30 1793 C 176.937 2.74045 2.32679 0
M  V30 1794 C 176.601 4.16543 1.87991 0
M  V30 1795 C 177.598 5.01211 1.38145 0
M  V30 1796 C 175.283 4.6266 1.95579 0
M  V30 1797 C 177.277 6.30056 0.964774 0
M  V30 1798 C 174.964 5.91501 1.53523 0
M  V30 1799 C 175.962 6.75027 1.04055 0
M  V30 1800 O 175.65 8.01459 0.625964 0
M  V30 1801 H 175.382 0.566578 0.368735 0
M  V30 1802 H 177.936 1.98709 0.51999 0
M  V30 1803 H 176.166 2.38572 3.04336 0
M  V30 1804 H 177.855 2.79295 2.94532 0
M  V30 1805 H 178.621 4.66783 1.31675 0
M  V30 1806 H 174.5 3.97767 2.33029 0
M  V30 1807 H 178.044 6.95202 0.57796 0
M  V30 1808 H 173.941 6.25442 1.59665 0
M  V30 1809 H 174.709 8.15043 0.751509 0
M  V30 1810 N 177.372 -0.689602 1.41712 0
M  V30 1811 C 178.302 -1.81577 1.46806 0
M  V30 1812 C 179.283 -1.66945 0.326105 0
M  V30 1813 O 180.468 -1.86588 0.538377 0
M  V30 1814 C 177.598 -3.19762 1.35535 0
M  V30 1815 C 176.552 -3.49107 2.47605 0
M  V30 1816 C 175.878 -4.86711 2.21397 0
M  V30 1817 C 177.178 -3.47483 3.89939 0
M  V30 1818 H 178.872 -1.7757 2.41058 0
M  V30 1819 H 176.418 -0.852887 1.16025 0
M  V30 1820 H 178.371 -3.98263 1.3771 0
M  V30 1821 H 177.095 -3.24409 0.377708 0
M  V30 1822 H 175.754 -2.72959 2.44722 0
M  V30 1823 H 175.402 -4.8799 1.21961 0
M  V30 1824 H 175.102 -5.0731 2.96497 0
M  V30 1825 H 176.626 -5.67515 2.25297 0
M  V30 1826 H 178.04 -4.1598 3.94505 0
M  V30 1827 H 176.437 -3.79615 4.64771 0
M  V30 1828 H 177.507 -2.46341 4.17665 0
M  V30 1829 N 178.85 -1.27639 -0.924453 0
M  V30 1830 C 179.813 -1.10681 -2.00705 0
M  V30 1831 C 180.813 -0.0497823 -1.60723 0
M  V30 1832 O 182.003 -0.294654 -1.7169 0
M  V30 1833 C 179.135 -0.687164 -3.33902 0
M  V30 1834 H 180.328 -2.06817 -2.17179 0
M  V30 1835 H 177.881 -1.10473 -1.10569 0
M  V30 1836 H 178.616 0.275439 -3.23128 0
M  V30 1837 H 178.401 -1.45061 -3.6428 0
M  V30 1838 H 179.891 -0.590853 -4.13399 0
M  V30 1839 N 180.328 1.1314 -1.09713 0
M  V30 1840 C 181.291 2.16831 -0.742751 0
M  V30 1841 C 182.291 1.59159 0.229129 0
M  V30 1842 O 183.481 1.74199 0.00693237 0
M  V30 1843 C 180.613 3.40756 -0.0989168 0
M  V30 1844 H 181.806 2.49695 -1.66109 0
M  V30 1845 H 179.359 1.2802 -0.896699 0
M  V30 1846 H 180.094 3.13485 0.830514 0
M  V30 1847 H 179.879 3.83888 -0.798265 0
M  V30 1848 H 181.369 4.17386 0.133524 0
M  V30 1849 N 181.806 0.884767 1.30421 0
M  V30 1850 C 182.769 0.356277 2.26414 0
M  V30 1851 C 183.769 -0.501124 1.52792 0
M  V30 1852 O 184.959 -0.30831 1.7145 0
M  V30 1853 C 182.091 -0.492316 3.37326 0
M  V30 1854 H 183.284 1.20389 2.74675 0
M  V30 1855 H 180.837 0.661607 1.41607 0
M  V30 1856 H 181.572 -1.36052 2.94381 0
M  V30 1857 H 181.357 0.121832 3.91911 0
M  V30 1858 H 182.847 -0.853871 4.08777 0
M  V30 1859 N 183.284 -1.43765 0.645699 0
M  V30 1860 C 184.214 -2.33471 -0.0370477 0
M  V30 1861 C 185.195 -1.49042 -0.819779 0
M  V30 1862 O 186.38 -1.77726 -0.782758 0
M  V30 1863 C 183.51 -3.32311 -1.0093 0
M  V30 1864 C 182.464 -4.2667 -0.337201 0
M  V30 1865 C 181.79 -5.1549 -1.42037 0
M  V30 1866 C 183.09 -5.16657 0.765706 0
M  V30 1867 H 184.784 -2.90809 0.712069 0
M  V30 1868 H 182.33 -1.39834 0.343876 0
M  V30 1869 H 184.283 -3.9396 -1.49578 0
M  V30 1870 H 183.007 -2.73213 -1.78948 0
M  V30 1871 H 181.666 -3.66374 0.128771 0
M  V30 1872 H 181.314 -4.52735 -2.1918 0
M  V30 1873 H 181.014 -5.79438 -0.975966 0
M  V30 1874 H 182.538 -5.80012 -1.90838 0
M  V30 1875 H 183.952 -5.72158 0.361702 0
M  V30 1876 H 182.349 -5.89286 1.13413 0
M  V30 1877 H 183.419 -4.56796 1.62683 0
M  V30 1878 N 184.763 -0.387143 -1.52771 0
M  V30 1879 C 185.726 0.436939 -2.24997 0
M  V30 1880 C 186.726 0.991991 -1.26555 0
M  V30 1881 O 187.916 0.874335 -1.50669 0
M  V30 1882 C 185.048 1.61281 -3.00335 0
M  V30 1883 H 186.241 -0.195365 -2.99263 0
M  V30 1884 H 183.794 -0.139218 -1.55679 0
M  V30 1885 H 184.529 2.2826 -2.30364 0
M  V30 1886 H 184.314 1.22154 -3.72587 0
M  V30 1887 H 185.804 2.19629 -3.5518 0
M  V30 1888 N 186.241 1.57166 -0.116904 0
M  V30 1889 C 187.204 2.14039 0.819742 0
M  V30 1890 C 188.204 1.07477 1.19605 0
M  V30 1891 O 189.394 1.33263 1.1219 0
M  V30 1892 C 186.526 2.67891 2.10826 0
M  V30 1893 H 187.719 2.98128 0.325511 0
M  V30 1894 H 185.272 1.55739 0.132312 0
M  V30 1895 H 186.007 1.87384 2.64685 0
M  V30 1896 H 185.792 3.45823 1.84793 0
M  V30 1897 H 187.282 3.11809 2.77785 0
M  V30 1898 N 187.719 -0.156864 1.56817 0
M  V30 1899 C 188.669 -1.19891 1.93934 0
M  V30 1900 C 189.653 -1.39061 0.809372 0
M  V30 1901 O 190.845 -1.40789 1.07273 0
M  V30 1902 C 187.974 -2.53493 2.31508 0
M  V30 1903 C 187.06 -2.37957 3.51052 0
M  V30 1904 N 187.451 -1.92158 4.67877 0
M  V30 1905 C 185.749 -2.68739 3.55943 0
M  V30 1906 C 186.45 -1.8943 5.49992 0
M  V30 1907 N 185.426 -2.32375 4.91429 0
M  V30 1908 H 189.228 -0.836746 2.81737 0
M  V30 1909 H 186.742 -0.365012 1.58245 0
M  V30 1910 H 188.739 -3.28811 2.56299 0
M  V30 1911 H 187.399 -2.905 1.45051 0
M  V30 1912 H 188.41 -1.62274 4.91821 0
M  V30 1913 H 185.087 -3.09687 2.80001 0
M  V30 1914 H 186.477 -1.55596 6.53636 0
M  V30 1915 N 189.197 -1.51736 -0.425897 0
M  V30 1916 C 190.422 -1.69082 -1.20108 0
M  V30 1917 C 190.847 -0.392398 -1.83962 0
M  V30 1918 O 190.205 0.64858 -1.69302 0
M  V30 1919 C 190.253 -2.81604 -2.25237 0
M  V30 1920 O 189.357 -2.46004 -3.30992 0
M  V30 1921 H 188.698 -0.563408 -0.35138 0
M  V30 1922 H 191.228 -1.98358 -0.501512 0
M  V30 1923 H 191.238 -3.06025 -2.69838 0
M  V30 1924 H 189.913 -3.75817 -1.78142 0
M  V30 1925 H 188.49 -2.32195 -2.91787 0
M  V30 1926 N 190.675 0.682077 -1.42076 0
M  V30 1927 C 191.607 1.80755 -1.40926 0
M  V30 1928 C 192.62 1.59833 -0.309398 0
M  V30 1929 O 193.809 1.69087 -0.572014 0
M  V30 1930 C 190.909 3.17744 -1.17865 0
M  V30 1931 C 190.082 3.65578 -2.40149 0
M  V30 1932 C 189.141 4.81277 -2.12742 0
M  V30 1933 O 188.167 4.92197 -2.85887 0
M  V30 1934 N 189.369 5.69474 -1.12602 0
M  V30 1935 H 192.134 1.82229 -2.37935 0
M  V30 1936 H 189.695 0.864903 -1.36861 0
M  V30 1937 H 191.687 3.9279 -0.9746 0
M  V30 1938 H 190.257 3.11214 -0.294068 0
M  V30 1939 H 189.477 2.81291 -2.76169 0
M  V30 1940 H 190.765 3.94278 -3.21593 0
M  V30 1941 H 190.163 5.63297 -0.520899 0
M  V30 1942 H 188.72 6.44363 -0.981842 0
M  V30 1943 N 192.153 1.28127 0.917671 0
M  V30 1944 C 193.1 1.11717 2.0196 0
M  V30 1945 C 194.07 0.0153929 1.66093 0
M  V30 1946 O 195.255 0.179596 1.89953 0
M  V30 1947 C 192.395 0.780927 3.36148 0
M  V30 1948 C 191.508 1.96135 3.84909 0
M  V30 1949 C 190.643 1.56609 5.0759 0
M  V30 1950 C 189.682 2.71339 5.48673 0
M  V30 1951 N 188.819 2.32332 6.62545 0
M  V30 1952 H 193.659 2.06003 2.15329 0
M  V30 1953 H 191.196 1.02535 1.05475 0
M  V30 1954 H 193.154 0.56675 4.13333 0
M  V30 1955 H 191.784 -0.124998 3.22558 0
M  V30 1956 H 190.836 2.28777 3.03916 0
M  V30 1957 H 192.148 2.82165 4.1132 0
M  V30 1958 H 191.302 1.31374 5.92305 0
M  V30 1959 H 190.041 0.677014 4.82978 0
M  V30 1960 H 189.046 2.97276 4.62501 0
M  V30 1961 H 190.271 3.60882 5.75274 0
M  V30 1962 H 188.217 1.45889 6.39572 0
M  V30 1963 H 188.134 3.11899 6.88662 0
M  V30 1964 H 189.402 2.10371 7.50576 0
M  V30 1965 N 193.631 -1.12557 1.10312 0
M  V30 1966 C 194.879 -1.83675 0.843091 0
M  V30 1967 C 195.2 -1.84435 -0.633131 0
M  V30 1968 O 194.47 -1.30657 -1.45964 0
M  V30 1969 H 193.05 -0.680138 0.308904 0
M  V30 1970 H 195.712 -1.36301 1.39313 0
M  V30 1971 H 194.808 -2.87908 1.2048 0
M  V30 1972 N 195.109 -0.891671 -1.2995 0
M  V30 1973 C 196.358 -0.509521 -1.95158 0
M  V30 1974 C 196.671 0.947388 -1.71125 0
M  V30 1975 O 197.877 1.43669 -2.30372 0
M  V30 1976 C 196.333 -0.860315 -3.49466 0
M  V30 1977 C 195.941 -2.33545 -3.8231 0
M  V30 1978 C 197.685 -0.547687 -4.20952 0
M  V30 1979 C 195.592 -2.62752 -5.29826 0
M  V30 1980 H 194.522 -0.18682 -0.730489 0
M  V30 1981 H 197.173 -1.08756 -1.47798 0
M  V30 1982 H 195.555 -0.211285 -3.95436 0
M  V30 1983 H 196.729 -3.02936 -3.47227 0
M  V30 1984 H 195.044 -2.61629 -3.23944 0
M  V30 1985 H 197.641 -0.742854 -5.29515 0
M  V30 1986 H 197.984 0.51332 -4.13123 0
M  V30 1987 H 198.517 -1.1542 -3.80688 0
M  V30 1988 H 195.256 -3.6762 -5.42712 0
M  V30 1989 H 194.776 -1.97977 -5.66185 0
M  V30 1990 H 196.455 -2.48601 -5.97333 0
M  V30 1991 N 196.587 1.43421 -0.653314 0
M  V30 1992 C 197.998 1.85065 -0.246537 0
M  V30 1993 C 198.349 1.54688 1.2069 0
M  V30 1994 O 197.474 0.995896 1.92122 0
M  V30 1995 C 198.069 3.35922 -0.440666 0
M  V30 1996 C 196.628 3.76297 -0.0882064 0
M  V30 1997 C 195.775 2.67147 -0.743484 0
M  V30 1998 H 198.726 1.33572 -0.856979 0
M  V30 1999 H 198.747 3.79204 0.313798 0
M  V30 2000 H 198.259 3.58 -1.49858 0
M  V30 2001 H 196.36 3.5983 0.96711 0
M  V30 2002 H 196.473 4.76338 -0.513738 0
M  V30 2003 H 194.837 2.54086 -0.176712 0
M  V30 2004 H 195.62 2.92053 -1.80443 0
M  V30 2005 N 198.065 0.39524 1.52563 0
M  V30 2006 C 199.028 -0.425001 2.25225 0
M  V30 2007 C 200.028 -0.985266 1.27079 0
M  V30 2008 O 201.218 -0.866332 1.5113 0
M  V30 2009 C 198.35 -1.59686 3.01186 0
M  V30 2010 H 199.543 0.211233 2.99155 0
M  V30 2011 H 197.096 0.147472 1.55603 0
M  V30 2012 H 197.831 -2.27035 2.31572 0
M  V30 2013 H 197.616 -1.20176 3.73229 0
M  V30 2014 H 199.106 -2.17743 3.5634 0
M  V30 2015 N 199.544 -1.57102 0.125237 0
M  V30 2016 C 200.791 -1.95407 -0.531248 0
M  V30 2017 C 201.119 -1.0089 -1.66287 0
M  V30 2018 O 200.374 -0.0339431 -1.95671 0
M  V30 2019 C 200.673 -3.40096 -1.09862 0
M  V30 2020 C 200.339 -4.50815 -0.0876989 0
M  V30 2021 C 199.001 -4.80824 0.19026 0
M  V30 2022 C 201.353 -5.17724 0.600902 0
M  V30 2023 C 198.681 -5.75058 1.163 0
M  V30 2024 C 201.033 -6.13005 1.56231 0
M  V30 2025 C 199.697 -6.41403 1.8482 0
M  V30 2026 H 198.967 -0.715046 -0.194397 0
M  V30 2027 H 201.614 -1.90373 0.207463 0
M  V30 2028 H 199.919 -3.41855 -1.91422 0
M  V30 2029 H 201.616 -3.6705 -1.61478 0
M  V30 2030 H 198.206 -4.27444 -0.314528 0
M  V30 2031 H 202.39 -4.94691 0.399333 0
M  V30 2032 H 197.646 -5.95362 1.39117 0
M  V30 2033 H 201.82 -6.63934 2.10153 0
M  V30 2034 H 199.447 -7.14229 2.60349 0
M  V30 2035 N 201.022 0.148545 -1.56898 0
M  V30 2036 C 202.247 0.880385 -1.87787 0
M  V30 2037 C 202.672 1.74018 -0.714093 0
M  V30 2038 O 202.03 1.78153 0.336343 0
M  V30 2039 C 202.078 1.71422 -3.17249 0
M  V30 2040 O 201.182 2.8183 -3.01074 0
M  V30 2041 H 200.523 0.245301 -0.617028 0
M  V30 2042 H 203.053 0.139826 -2.04122 0
M  V30 2043 H 203.063 2.10954 -3.49231 0
M  V30 2044 H 201.738 1.08284 -4.01556 0
M  V30 2045 H 200.315 2.45715 -2.80497 0
M  V30 2046 N 202.5 1.5196 0.417844 0
M  V30 2047 C 203.749 1.6482 1.16264 0
M  V30 2048 C 204.062 0.379886 1.91876 0
M  V30 2049 O 205.268 0.388154 2.68711 0
M  V30 2050 C 203.724 2.91161 2.1155 0
M  V30 2051 C 203.332 4.25068 1.41495 0
M  V30 2052 C 205.076 3.13383 2.86341 0
M  V30 2053 C 202.983 5.42541 2.35379 0
M  V30 2054 H 201.913 0.613954 0.437694 0
M  V30 2055 H 204.564 1.78442 0.427871 0
M  V30 2056 H 202.946 2.71218 2.88543 0
M  V30 2057 H 204.12 4.55463 0.699263 0
M  V30 2058 H 202.435 4.0888 0.787792 0
M  V30 2059 H 205.032 3.98324 3.5671 0
M  V30 2060 H 205.375 2.27256 3.48798 0
M  V30 2061 H 205.908 3.33757 2.1645 0
M  V30 2062 H 202.647 6.30987 1.77582 0
M  V30 2063 H 202.167 5.16497 3.04945 0
M  V30 2064 H 203.846 5.75272 2.96093 0
M  V30 2065 N 203.978 -0.674533 1.42435 0
M  V30 2066 C 205.208 -1.46071 1.46105 0
M  V30 2067 C 205.616 -1.89067 0.0709605 0
M  V30 2068 O 204.959 -1.58731 -0.924677 0
M  V30 2069 C 205.021 -2.74145 2.32561 0
M  V30 2070 C 204.685 -2.53224 3.8043 0
M  V30 2071 C 205.682 -2.17809 4.72075 0
M  V30 2072 C 203.367 -2.6821 4.24698 0
M  V30 2073 C 205.361 -1.97648 6.05982 0
M  V30 2074 C 203.048 -2.47665 5.58664 0
M  V30 2075 C 204.046 -2.12437 6.49122 0
M  V30 2076 O 203.734 -1.9209 7.80613 0
M  V30 2077 H 203.466 -0.455959 0.499076 0
M  V30 2078 H 206.02 -0.836193 1.87609 0
M  V30 2079 H 204.25 -3.3908 1.85908 0
M  V30 2080 H 205.939 -3.36028 2.27683 0
M  V30 2081 H 206.705 -2.05826 4.39159 0
M  V30 2082 H 202.584 -2.94609 3.54579 0
M  V30 2083 H 206.128 -1.70075 6.7655 0
M  V30 2084 H 202.025 -2.59244 5.91154 0
M  V30 2085 H 202.793 -2.06686 7.91974 0
M  V30 2086 N 205.456 -1.28612 -0.910864 0
M  V30 2087 C 206.704 -1.15705 -1.65701 0
M  V30 2088 C 207.025 0.29416 -1.92769 0
M  V30 2089 O 206.295 1.20331 -1.54588 0
M  V30 2090 H 204.875 -0.425216 -0.614167 0
M  V30 2091 H 207.537 -1.61381 -1.0928 0
M  V30 2092 H 206.633 -1.6988 -2.61815 0
M  V30 2093 N 206.934 1.1197 -1.10907 0
M  V30 2094 C 207.884 2.15946 -0.731538 0
M  V30 2095 C 208.868 1.58758 0.261699 0
M  V30 2096 O 210.06 1.76863 0.0696722 0
M  V30 2097 C 207.189 3.42877 -0.170299 0
M  V30 2098 C 206.275 4.07037 -1.19087 0
M  V30 2099 N 206.666 4.46135 -2.38322 0
M  V30 2100 C 204.964 4.33884 -1.03252 0
M  V30 2101 C 205.665 4.96331 -3.03366 0
M  V30 2102 N 204.641 4.9214 -2.30865 0
M  V30 2103 H 208.443 2.43947 -1.63912 0
M  V30 2104 H 205.957 1.28927 -0.987505 0
M  V30 2105 H 207.954 4.16732 0.118271 0
M  V30 2106 H 206.614 3.16343 0.731935 0
M  V30 2107 H 207.625 4.38345 -2.75815 0
M  V30 2108 H 204.302 4.17084 -0.186256 0
M  V30 2109 H 205.692 5.36257 -4.04818 0
M  V30 2110 N 208.412 0.89855 1.29475 0
M  V30 2111 C 209.689 0.443416 1.90508 0
M  V30 2112 C 210.069 -1.07685 1.81569 0
M  V30 2113 O 209.417 -1.9182 1.24166 0
M  V30 2114 C 209.627 0.956708 3.35631 0
M  V30 2115 C 210.975 0.999728 4.12663 0
M  V30 2116 O 211.999 0.904299 3.4453 0
M  V30 2117 O 210.858 1.14289 5.34416 0
M  V30 2118 H 207.952 0.138025 0.815401 0
M  V30 2119 H 210.498 0.98834 1.37949 0
M  V30 2120 H 209.27 2.00067 3.36287 0
M  V30 2121 H 208.893 0.391728 3.95666 0
M  V30 2122 N 209.89 -1.43072 0.660911 0
M  V30 2123 C 211.136 -2.0202 0.177708 0
M  V30 2124 C 211.469 -1.52066 -1.20787 0
M  V30 2125 O 210.744 -0.716987 -1.80802 0
M  V30 2126 C 211.027 -3.59561 0.197019 0
M  V30 2127 C 210.88 -4.19727 1.61706 0
M  V30 2128 C 212.199 -4.37664 -0.462396 0
M  V30 2129 H 209.318 -0.734034 0.0660494 0
M  V30 2130 H 211.96 -1.70272 0.843058 0
M  V30 2131 H 210.11 -3.86739 -0.369527 0
M  V30 2132 H 211.782 -4.03553 2.23479 0
M  V30 2133 H 210.025 -3.76084 2.16201 0
M  V30 2134 H 210.696 -5.28834 1.58237 0
M  V30 2135 H 213.172 -4.16095 0.0197215 0
M  V30 2136 H 212.048 -5.47305 -0.418188 0
M  V30 2137 H 212.309 -4.14493 -1.53778 0
M  V30 2138 N 211.368 -0.403325 -1.52352 0
M  V30 2139 C 212.3 0.4603 -2.2453 0
M  V30 2140 C 213.313 1.01505 -1.27282 0
M  V30 2141 O 214.502 0.914982 -1.53266 0
M  V30 2142 C 211.602 1.65208 -2.95905 0
M  V30 2143 C 210.775 1.22224 -4.19976 0
M  V30 2144 C 209.834 2.28028 -4.74226 0
M  V30 2145 O 208.86 1.88857 -5.36956 0
M  V30 2146 N 210.062 3.6012 -4.55295 0
M  V30 2147 H 212.827 -0.158156 -2.99282 0
M  V30 2148 H 210.388 -0.230402 -1.60252 0
M  V30 2149 H 212.38 2.35541 -3.29093 0
M  V30 2150 H 210.95 2.17658 -2.24374 0
M  V30 2151 H 210.17 0.34725 -3.92668 0
M  V30 2152 H 211.458 0.911924 -5.00561 0
M  V30 2153 H 210.856 3.94698 -4.05253 0
M  V30 2154 H 209.413 4.26447 -4.92936 0
M  V30 2155 N 212.846 1.57033 -0.133567 0
M  V30 2156 C 214.123 1.87256 0.56522 0
M  V30 2157 C 214.503 1.03726 1.83859 0
M  V30 2158 O 213.851 0.120247 2.28183 0
M  V30 2159 C 214.061 3.3865 0.843636 0
M  V30 2160 C 215.409 4.07574 1.19032 0
M  V30 2161 O 216.433 3.43752 0.933429 0
M  V30 2162 O 215.292 5.20259 1.67312 0
M  V30 2163 H 212.386 0.775678 0.286796 0
M  V30 2164 H 214.932 1.68855 -0.169168 0
M  V30 2165 H 213.704 3.91257 -0.0581149 0
M  V30 2166 H 213.327 3.62532 1.63268 0
M  V30 2167 N 214.325 -0.140222 1.56975 0
M  V30 2168 C 215.288 -1.15689 1.97861 0
M  V30 2169 C 216.288 -1.3549 0.865974 0
M  V30 2170 O 217.478 -1.32367 1.13246 0
M  V30 2171 C 214.61 -2.51582 2.30042 0
M  V30 2172 H 215.803 -0.805971 2.88867 0
M  V30 2173 H 213.356 -0.383801 1.51515 0
M  V30 2174 H 214.091 -2.91632 1.41849 0
M  V30 2175 H 213.876 -2.38569 3.11171 0
M  V30 2176 H 215.366 -3.24792 2.62488 0
M  V30 2177 N 215.803 -1.52179 -0.40978 0
M  V30 2178 C 217.08 -1.56769 -1.16974 0
M  V30 2179 C 217.46 -0.348322 -2.08206 0
M  V30 2180 O 216.808 0.664862 -2.18613 0
M  V30 2181 C 217.018 -2.89603 -1.9476 0
M  V30 2182 C 218.366 -3.42579 -2.50849 0
M  V30 2183 O 219.39 -2.91338 -2.04941 0
M  V30 2184 O 218.249 -4.32054 -3.34652 0
M  V30 2185 H 215.343 -0.631439 -0.534054 0
M  V30 2186 H 217.889 -1.64507 -0.416613 0
M  V30 2187 H 216.661 -3.698 -1.27921 0
M  V30 2188 H 216.284 -2.85155 -2.77079 0
M  V30 2189 N 217.281 0.66697 -1.42791 0
M  V30 2190 C 218.558 1.4234 -1.34159 0
M  V30 2191 C 218.938 2.11093 0.0172729 0
M  V30 2192 O 218.286 2.03808 1.03318 0
M  V30 2193 C 218.496 2.41942 -2.51526 0
M  V30 2194 C 219.844 3.06353 -2.93995 0
M  V30 2195 O 220.868 2.52269 -2.51473 0
M  V30 2196 O 219.727 4.04376 -3.67617 0
M  V30 2197 H 216.821 0.635277 -0.529483 0
M  V30 2198 H 219.367 0.695034 -1.54814 0
M  V30 2199 H 218.139 1.89991 -3.42081 0
M  V30 2200 H 217.762 3.22249 -2.32898 0
M  V30 2201 N 218.759 1.29093 0.90403 0
M  V30 2202 C 219.987 1.19689 1.68766 0
M  V30 2203 C 220.402 -0.243113 1.87228 0
M  V30 2204 O 219.759 -1.16326 1.40621 0
M  V30 2205 C 219.81 1.90144 3.07453 0
M  V30 2206 O 219.531 3.2852 2.89838 0
M  V30 2207 C 221.032 1.87162 4.01852 0
M  V30 2208 H 218.252 0.415035 0.527244 0
M  V30 2209 H 220.796 1.7039 1.13082 0
M  V30 2210 H 218.951 1.43289 3.59926 0
M  V30 2211 H 219.365 3.63944 3.77684 0
M  V30 2212 H 220.839 2.41032 4.96596 0
M  V30 2213 H 221.316 0.84617 4.30972 0
M  V30 2214 H 221.922 2.33741 3.5531 0
M  V30 2215 N 220.237 -1.11381 1.11499 0
M  V30 2216 C 221.462 -1.87475 0.887019 0
M  V30 2217 C 221.887 -1.79639 -0.557796 0
M  V30 2218 O 221.245 -1.15924 -1.39396 0
M  V30 2219 C 221.293 -3.34213 1.35403 0
M  V30 2220 O 220.397 -4.0903 0.526146 0
M  V30 2221 H 219.738 -0.582099 0.319463 0
M  V30 2222 H 222.268 -1.40785 1.48461 0
M  V30 2223 H 222.278 -3.8506 1.34881 0
M  V30 2224 H 220.953 -3.39232 2.40612 0
M  V30 2225 H 219.53 -3.68082 0.597522 0
M  V30 2226 N 221.715 -0.905404 -1.28997 0
M  V30 2227 C 222.964 -0.530191 -1.94607 0
M  V30 2228 C 223.277 0.929185 -1.72121 0
M  V30 2229 O 224.483 1.41218 -2.31883 0
M  V30 2230 C 222.939 -0.897333 -3.48534 0
M  V30 2231 C 222.547 -2.37587 -3.79811 0
M  V30 2232 C 224.291 -0.592304 -4.20347 0
M  V30 2233 C 222.198 -2.68357 -5.27009 0
M  V30 2234 H 221.128 -0.194558 -0.728466 0
M  V30 2235 H 223.779 -1.10318 -1.46636 0
M  V30 2236 H 222.161 -0.253214 -3.9519 0
M  V30 2237 H 223.335 -3.06602 -3.43994 0
M  V30 2238 H 221.65 -2.6505 -3.2115 0
M  V30 2239 H 224.247 -0.798975 -5.28697 0
M  V30 2240 H 224.59 0.469474 -4.13644 0
M  V30 2241 H 225.123 -1.19452 -3.79442 0
M  V30 2242 H 221.862 -3.73355 -5.38782 0
M  V30 2243 H 221.382 -2.03971 -5.64053 0
M  V30 2244 H 223.061 -2.54922 -5.94663 0
M  V30 2245 N 223.193 1.4272 -0.668489 0
M  V30 2246 C 224.604 1.84793 -0.266151 0
M  V30 2247 C 224.955 1.55959 1.19043 0
M  V30 2248 O 224.08 1.01622 1.91055 0
M  V30 2249 C 224.675 3.35436 -0.476271 0
M  V30 2250 C 223.234 3.76182 -0.128113 0
M  V30 2251 C 222.381 2.66344 -0.771777 0
M  V30 2252 H 225.332 1.32656 -0.871098 0
M  V30 2253 H 225.353 3.79515 0.273561 0
M  V30 2254 H 224.865 3.5639 -1.53647 0
M  V30 2255 H 222.966 3.60836 0.928891 0
M  V30 2256 H 223.079 4.75766 -0.564231 0
M  V30 2257 H 221.443 2.53885 -0.203652 0
M  V30 2258 H 222.226 2.90123 -1.83531 0
M  V30 2259 N 224.671 0.411399 1.52136 0
M  V30 2260 C 225.634 -0.401089 2.25663 0
M  V30 2261 C 226.634 -0.971732 1.28117 0
M  V30 2262 O 227.824 -0.850254 1.52041 0
M  V30 2263 C 224.956 -1.56483 3.02863 0
M  V30 2264 H 226.149 0.24295 2.98914 0
M  V30 2265 H 223.702 0.163968 1.55438 0
M  V30 2266 H 224.437 -2.24567 2.33967 0
M  V30 2267 H 224.222 -1.16211 3.74483 0
M  V30 2268 H 225.712 -2.13951 3.58629 0
M  V30 2269 N 226.149 -1.5696 0.141893 0
M  V30 2270 C 227.426 -1.87553 -0.555281 0
M  V30 2271 C 227.806 -1.04699 -1.83306 0
M  V30 2272 O 227.154 -0.132346 -2.28116 0
M  V30 2273 C 227.364 -3.39093 -0.825664 0
M  V30 2274 C 228.712 -4.08199 -1.16869 0
M  V30 2275 O 229.736 -3.44242 -0.915185 0
M  V30 2276 O 228.595 -5.21139 -1.6455 0
M  V30 2277 H 225.689 -0.777188 -0.282679 0
M  V30 2278 H 228.235 -1.68763 0.17812 0
M  V30 2279 H 227.007 -3.91221 0.0788633 0
M  V30 2280 H 226.63 -3.63393 -1.61343 0
M  V30 2281 N 227.627 0.131896 -1.57047 0
M  V30 2282 C 228.873 0.843179 -1.84441 0
M  V30 2283 C 229.206 1.80129 -0.725749 0
M  V30 2284 O 228.481 1.92624 0.269469 0
M  V30 2285 C 228.764 1.60442 -3.22382 0
M  V30 2286 C 228.617 0.666782 -4.4483 0
M  V30 2287 C 229.936 2.56354 -3.5773 0
M  V30 2288 H 227.055 0.305081 -0.670891 0
M  V30 2289 H 229.697 0.107839 -1.89694 0
M  V30 2290 H 227.847 2.23128 -3.18035 0
M  V30 2291 H 229.519 0.0497646 -4.61273 0
M  V30 2292 H 227.762 -0.022609 -4.33794 0
M  V30 2293 H 228.433 1.23579 -5.37989 0
M  V30 2294 H 230.909 2.0378 -3.62785 0
M  V30 2295 H 229.785 3.06657 -4.5525 0
M  V30 2296 H 230.046 3.38419 -2.84473 0
M  V30 2297 N 229.106 1.52395 0.401703 0
M  V30 2298 C 230.016 1.7917 1.51444 0
M  V30 2299 C 231.032 0.677691 1.6026 0
M  V30 2300 O 232.208 0.963909 1.76835 0
M  V30 2301 C 229.273 1.94347 2.87107 0
M  V30 2302 C 228.334 3.18257 2.88116 0
M  V30 2303 C 227.567 3.32701 4.17308 0
M  V30 2304 O 227.79 2.52238 5.11598 0
M  V30 2305 O 226.724 4.25891 4.25324 0
M  V30 2306 H 230.55 2.73633 1.31752 0
M  V30 2307 H 228.135 1.3733 0.588296 0
M  V30 2308 H 230.017 2.06109 3.67555 0
M  V30 2309 H 228.692 1.03073 3.06851 0
M  V30 2310 H 227.599 3.11947 2.06494 0
M  V30 2311 H 228.932 4.09336 2.73322 0
M  V30 2312 N 230.584 -0.659388 1.43143 0
M  V30 2313 C 231.494 -1.80167 1.50256 0
M  V30 2314 C 232.51 -1.69571 0.390106 0
M  V30 2315 O 233.686 -1.90849 0.643319 0
M  V30 2316 C 230.751 -3.16409 1.41725 0
M  V30 2317 C 229.812 -3.38848 2.63591 0
M  V30 2318 C 229.045 -4.68591 2.55458 0
M  V30 2319 O 229.268 -5.47532 1.59891 0
M  V30 2320 O 228.202 -4.92614 3.45854 0
M  V30 2321 H 232.028 -1.77121 2.46702 0
M  V30 2322 H 229.613 -0.817092 1.25076 0
M  V30 2323 H 231.495 -3.9768 1.39387 0
M  V30 2324 H 230.17 -3.20059 0.484118 0
M  V30 2325 H 229.077 -2.57366 2.71502 0
M  V30 2326 H 230.41 -3.4004 3.55856 0
M  V30 2327 N 232.062 -1.29571 -0.897171 0
M  V30 2328 C 233.009 -1.14916 -2.00158 0
M  V30 2329 C 233.979 -0.0418149 -1.66047 0
M  V30 2330 O 235.164 -0.209793 -1.89643 0
M  V30 2331 C 232.304 -0.834307 -3.34863 0
M  V30 2332 C 231.417 -2.02234 -3.8174 0
M  V30 2333 C 230.552 -1.64664 -5.05034 0
M  V30 2334 C 229.591 -2.80033 -5.44286 0
M  V30 2335 N 228.728 -2.42843 -6.58765 0
M  V30 2336 H 233.568 -2.09403 -2.12025 0
M  V30 2337 H 231.105 -1.042 -1.0383 0
M  V30 2338 H 233.063 -0.632436 -4.12379 0
M  V30 2339 H 231.693 0.0736656 -3.22716 0
M  V30 2340 H 230.745 -2.33583 -3.00238 0
M  V30 2341 H 232.057 -2.88673 -4.06779 0
M  V30 2342 H 231.211 -1.4078 -5.9014 0
M  V30 2343 H 229.95 -0.753766 -4.8184 0
M  V30 2344 H 228.955 -3.04596 -4.57713 0
M  V30 2345 H 230.18 -3.69989 -5.6946 0
M  V30 2346 H 228.126 -1.56046 -6.3717 0
M  V30 2347 H 228.043 -3.22815 -6.83613 0
M  V30 2348 H 229.311 -2.22285 -7.47134 0
M  V30 2349 N 233.54 1.10788 -1.12088 0
M  V30 2350 C 234.47 2.19083 -0.807755 0
M  V30 2351 C 235.451 1.6858 0.226859 0
M  V30 2352 O 236.636 1.93997 0.0888475 0
M  V30 2353 C 233.766 3.46344 -0.257576 0
M  V30 2354 C 232.72 4.101 -1.22483 0
M  V30 2355 C 232.046 5.32016 -0.535052 0
M  V30 2356 C 233.346 4.54236 -2.57811 0
M  V30 2357 H 235.04 2.45534 -1.71328 0
M  V30 2358 H 232.586 1.1801 -0.825205 0
M  V30 2359 H 234.539 4.21392 -0.0262679 0
M  V30 2360 H 233.263 3.19373 0.683278 0
M  V30 2361 H 231.922 3.37054 -1.44189 0
M  V30 2362 H 231.57 5.01319 0.410827 0
M  V30 2363 H 231.27 5.75625 -1.18024 0
M  V30 2364 H 232.794 6.09799 -0.312695 0
M  V30 2365 H 234.208 5.20575 -2.40155 0
M  V30 2366 H 232.605 5.08682 -3.18375 0
M  V30 2367 H 233.675 3.6734 -3.16528 0
M  V30 2368 N 235.018 0.912232 1.28515 0
M  V30 2369 C 235.948 0.416403 2.29757 0
M  V30 2370 C 236.929 -0.515194 1.6211 0
M  V30 2371 O 238.114 -0.423253 1.89532 0
M  V30 2372 C 235.244 -0.34572 3.45575 0
M  V30 2373 C 234.198 0.496599 4.25109 0
M  V30 2374 C 233.524 -0.393771 5.33248 0
M  V30 2375 C 234.824 1.75307 4.92001 0
M  V30 2376 H 236.518 1.26249 2.7148 0
M  V30 2377 H 234.064 0.608515 1.30511 0
M  V30 2378 H 236.017 -0.703422 4.15488 0
M  V30 2379 H 234.741 -1.2257 3.02728 0
M  V30 2380 H 233.4 0.8368 3.56922 0
M  V30 2381 H 233.048 -1.27225 4.86644 0
M  V30 2382 H 232.748 0.166209 5.87365 0
M  V30 2383 H 234.272 -0.747389 6.06009 0
M  V30 2384 H 235.686 1.46437 5.54283 0
M  V30 2385 H 234.083 2.25534 5.56106 0
M  V30 2386 H 235.153 2.48176 4.16577 0
M  V30 2387 N 236.496 -1.42363 0.676048 0
M  V30 2388 C 237.912 -1.55811 0.345718 0
M  V30 2389 C 238.112 -1.65544 -1.14879 0
M  V30 2390 O 237.168 -1.62306 -1.93424 0
M  V30 2391 C 238.481 -2.80746 1.07713 0
M  V30 2392 C 240.029 -2.9452 1.05958 0
M  V30 2393 C 240.504 -4.22318 1.77233 0
M  V30 2394 N 241.995 -4.29233 1.74108 0
M  V30 2395 C 242.73 -5.26935 2.26113 0
M  V30 2396 N 242.226 -6.30783 2.86505 0
M  V30 2397 N 244.019 -5.18741 2.1648 0
M  V30 2398 H 236.17 -1.34289 1.6456 0
M  V30 2399 H 238.433 -0.646506 0.69335 0
M  V30 2400 H 238.139 -2.79696 2.13221 0
M  V30 2401 H 238.013 -3.71676 0.64316 0
M  V30 2402 H 240.4 -2.95097 0.0128255 0
M  V30 2403 H 240.481 -2.04817 1.53244 0
M  V30 2404 H 240.125 -4.22502 2.81877 0
M  V30 2405 H 240.055 -5.10958 1.27396 0
M  V30 2406 H 242.546 -3.54814 1.30059 0
M  V30 2407 H 242.859 -7.01691 3.23805 0
M  V30 2408 H 241.204 -6.31341 2.90575 0
M  V30 2409 H 244.395 -4.36533 1.68987 0
M  V30 2410 H 244.568 -5.94721 2.57316 0
M  V30 2411 N 237.974 -0.419461 -1.51915 0
M  V30 2412 C 239.221 0.152939 -2.01922 0
M  V30 2413 C 239.549 1.4426 -1.30458 0
M  V30 2414 O 238.804 1.91514 -0.402593 0
M  V30 2415 C 239.103 0.437067 -3.54717 0
M  V30 2416 C 238.769 -0.764632 -4.44369 0
M  V30 2417 C 237.431 -1.09423 -4.68594 0
M  V30 2418 C 239.783 -1.56713 -4.97082 0
M  V30 2419 C 237.111 -2.22732 -5.42777 0
M  V30 2420 C 239.463 -2.69107 -5.72507 0
M  V30 2421 C 238.127 -3.02541 -5.95 0
M  V30 2422 H 237.397 0.0559644 -0.738884 0
M  V30 2423 H 240.044 -0.562998 -1.83037 0
M  V30 2424 H 238.349 1.23469 -3.71837 0
M  V30 2425 H 240.046 0.893083 -3.90928 0
M  V30 2426 H 236.636 -0.497775 -4.257 0
M  V30 2427 H 240.82 -1.32571 -4.78266 0
M  V30 2428 H 236.076 -2.48971 -5.58411 0
M  V30 2429 H 240.25 -3.31671 -6.12346 0
M  V30 2430 H 237.877 -3.90457 -6.52264 0
M  V30 2431 N 239.452 1.56882 -0.150215 0
M  V30 2432 C 240.415 2.1573 0.774157 0
M  V30 2433 C 241.415 1.0999 1.17298 0
M  V30 2434 O 242.605 1.35613 1.09338 0
M  V30 2435 C 239.737 2.72302 2.05096 0
M  V30 2436 H 240.93 2.98752 0.262201 0
M  V30 2437 H 238.483 1.55985 0.099248 0
M  V30 2438 H 239.218 1.92956 2.6065 0
M  V30 2439 H 239.003 3.49665 1.77416 0
M  V30 2440 H 240.493 3.17632 2.71109 0
M  V30 2441 N 240.93 -0.123565 1.57115 0
M  V30 2442 C 242.346 -0.476961 1.52306 0
M  V30 2443 C 242.546 -1.82109 0.86248 0
M  V30 2444 O 241.602 -2.48586 0.442884 0
M  V30 2445 C 242.915 -0.465661 2.97073 0
M  V30 2446 C 244.463 -0.549534 3.08138 0
M  V30 2447 C 244.938 -0.568669 4.54456 0
M  V30 2448 N 246.429 -0.630237 4.58892 0
M  V30 2449 C 247.164 -0.666415 5.69514 0
M  V30 2450 N 246.66 -0.660514 6.89644 0
M  V30 2451 N 248.453 -0.709077 5.5761 0
M  V30 2452 H 240.604 0.757198 1.98445 0
M  V30 2453 H 242.867 0.278808 0.906074 0
M  V30 2454 H 242.573 0.454232 3.48754 0
M  V30 2455 H 242.447 -1.29513 3.54269 0
M  V30 2456 H 244.834 -1.45985 2.56461 0
M  V30 2457 H 244.915 0.307532 2.53945 0
M  V30 2458 H 244.559 0.337581 5.06777 0
M  V30 2459 H 244.489 -1.44256 5.06456 0
M  V30 2460 H 246.98 -0.641146 3.72421 0
M  V30 2461 H 247.293 -0.690616 7.69708 0
M  V30 2462 H 245.638 -0.628012 6.92157 0
M  V30 2463 H 248.829 -0.711019 4.62668 0
M  V30 2464 H 249.002 -0.733804 6.43832 0
M  V30 2465 N 242.408 -1.52605 -0.393616 0
M  V30 2466 C 243.371 -1.76415 -1.46323 0
M  V30 2467 C 244.371 -0.634126 -1.47768 0
M  V30 2468 O 245.561 -0.902142 -1.4902 0
M  V30 2469 C 242.693 -1.8607 -2.85641 0
M  V30 2470 H 243.886 -2.71916 -1.26498 0
M  V30 2471 H 241.439 -1.43257 -0.625073 0
M  V30 2472 H 242.174 -0.925378 -3.10817 0
M  V30 2473 H 241.959 -2.68235 -2.85993 0
M  V30 2474 H 243.449 -2.06179 -3.63153 0
M  V30 2475 N 243.887 0.651787 -1.4349 0
M  V30 2476 C 245.135 1.40888 -1.44897 0
M  V30 2477 C 245.456 1.94856 -0.0749086 0
M  V30 2478 O 244.726 1.74518 0.889956 0
M  V30 2479 H 243.306 0.522887 -0.533478 0
M  V30 2480 H 245.968 0.768609 -1.79104 0
M  V30 2481 H 245.064 2.25052 -2.16236 0
M  V30 2482 N 245.365 1.30045 0.890287 0
M  V30 2483 C 246.295 1.18541 2.01172 0
M  V30 2484 C 247.276 0.0773356 1.69924 0
M  V30 2485 O 248.461 0.25845 1.92473 0
M  V30 2486 C 245.591 0.870941 3.36202 0
M  V30 2487 C 244.545 1.93637 3.81692 0
M  V30 2488 C 243.871 1.475 5.13953 0
M  V30 2489 C 245.171 3.34666 4.00994 0
M  V30 2490 H 246.865 2.12359 2.11054 0
M  V30 2491 H 244.411 1.02238 1.01407 0
M  V30 2492 H 246.364 0.777141 4.14172 0
M  V30 2493 H 245.088 -0.102926 3.26438 0
M  V30 2494 H 243.747 2.01972 3.05946 0
M  V30 2495 H 243.395 0.489551 5.00612 0
M  V30 2496 H 243.095 2.1876 5.4536 0
M  V30 2497 H 244.619 1.39489 5.94454 0
M  V30 2498 H 246.033 3.2912 4.69417 0
M  V30 2499 H 244.43 4.03966 4.43769 0
M  V30 2500 H 245.5 3.76949 3.05021 0
M  V30 2501 N 246.843 -1.10192 1.12674 0
M  V30 2502 C 247.806 -2.14786 0.799979 0
M  V30 2503 C 248.806 -1.59711 -0.18685 0
M  V30 2504 O 249.996 -1.74156 0.0392558 0
M  V30 2505 C 247.128 -3.40374 0.189228 0
M  V30 2506 H 248.321 -2.45203 1.72671 0
M  V30 2507 H 245.874 -1.25597 0.930326 0
M  V30 2508 H 246.609 -3.15577 -0.747107 0
M  V30 2509 H 246.394 -3.81637 0.899766 0
M  V30 2510 H 247.884 -4.17594 -0.0228143 0
M  V30 2511 N 248.321 -0.919034 -1.28029 0
M  V30 2512 C 249.567 -0.555757 -1.95036 0
M  V30 2513 C 249.9 0.899198 -1.72128 0
M  V30 2514 O 249.175 1.64023 -1.04531 0
M  V30 2515 C 249.458 -0.872024 -3.49382 0
M  V30 2516 C 249.311 -2.3801 -3.81669 0
M  V30 2517 C 250.63 -0.37185 -4.38526 0
M  V30 2518 H 247.749 -0.203386 -0.708381 0
M  V30 2519 H 250.391 -1.14924 -1.51303 0
M  V30 2520 H 248.541 -0.366946 -3.86763 0
M  V30 2521 H 250.213 -2.9562 -3.54128 0
M  V30 2522 H 248.456 -2.83289 -3.28526 0
M  V30 2523 H 249.127 -2.55192 -4.8947 0
M  V30 2524 H 251.603 -0.804602 -4.08247 0
M  V30 2525 H 250.479 -0.622173 -5.45362 0
M  V30 2526 H 250.74 0.727934 -4.36066 0
M  V30 2527 N 249.799 1.42003 -0.683588 0
M  V30 2528 C 250.762 2.29191 -0.0198243 0
M  V30 2529 C 251.762 1.43773 0.72013 0
M  V30 2530 O 252.952 1.65061 0.556815 0
M  V30 2531 C 250.084 3.26435 0.982487 0
M  V30 2532 H 251.277 2.8938 -0.787345 0
M  V30 2533 H 248.83 1.49789 -0.446418 0
M  V30 2534 H 249.565 2.71203 1.77819 0
M  V30 2535 H 249.35 3.89449 0.455182 0
M  V30 2536 H 250.84 3.918 1.44508 0
M  V30 2537 N 251.277 0.427512 1.51691 0
M  V30 2538 C 252.502 -0.143601 2.06902 0
M  V30 2539 C 252.927 -1.36536 1.29382 0
M  V30 2540 O 252.285 -1.78289 0.329043 0
M  V30 2541 C 252.333 -0.454207 3.57728 0
M  V30 2542 O 251.437 -1.54228 3.82475 0
M  V30 2543 H 250.778 -0.00617128 0.663971 0
M  V30 2544 H 253.308 0.606014 1.95419 0
M  V30 2545 H 253.318 -0.707525 4.01818 0
M  V30 2546 H 251.993 0.438812 4.13579 0
M  V30 2547 H 250.57 -1.2797 3.50254 0
M  V30 2548 N 252.755 -1.56801 0.158532 0
M  V30 2549 C 253.688 -2.13148 -0.815065 0
M  V30 2550 C 254.666 -1.0581 -1.23462 0
M  V30 2551 O 255.85 -1.3371 -1.32868 0
M  V30 2552 C 252.977 -2.6606 -2.09594 0
M  V30 2553 C 252.023 -3.85651 -1.82141 0
M  V30 2554 S 252.856 -5.26041 -1.00207 0
M  V30 2555 C 254.012 -5.8235 -2.29389 0
M  V30 2556 H 254.245 -2.95396 -0.335937 0
M  V30 2557 H 251.778 -1.54299 -0.0559391 0
M  V30 2558 H 253.736 -2.97195 -2.8317 0
M  V30 2559 H 252.397 -1.83921 -2.54621 0
M  V30 2560 H 251.59 -4.20958 -2.77147 0
M  V30 2561 H 251.192 -3.55338 -1.16667 0
M  V30 2562 H 253.484 -5.94485 -3.24952 0
M  V30 2563 H 254.427 -6.79688 -1.9857 0
M  V30 2564 H 254.835 -5.10675 -2.40564 0
M  V30 2565 N 254.233 0.115231 -1.57178 0
M  V30 2566 C 255.18 1.14115 -2.00615 0
M  V30 2567 C 256.15 1.40939 -0.878941 0
M  V30 2568 O 257.335 1.52741 -1.14345 0
M  V30 2569 C 254.475 2.46156 -2.4187 0
M  V30 2570 C 253.588 2.26236 -3.68024 0
M  V30 2571 C 252.723 3.51534 -3.98243 0
M  V30 2572 C 251.762 3.26787 -5.17568 0
M  V30 2573 N 250.899 4.44298 -5.43639 0
M  V30 2574 H 255.739 0.763743 -2.88047 0
M  V30 2575 H 253.276 0.365615 -1.42484 0
M  V30 2576 H 255.234 3.23189 -2.63827 0
M  V30 2577 H 253.864 2.81783 -1.57475 0
M  V30 2578 H 252.916 1.40102 -3.5366 0
M  V30 2579 H 254.228 2.03929 -4.55208 0
M  V30 2580 H 253.382 4.36984 -4.20868 0
M  V30 2581 H 252.121 3.76876 -3.09541 0
M  V30 2582 H 251.126 2.39729 -4.94783 0
M  V30 2583 H 252.351 3.02812 -6.0785 0
M  V30 2584 H 250.297 4.69754 -4.57895 0
M  V30 2585 H 250.214 4.25109 -6.25154 0
M  V30 2586 H 251.482 5.3087 -5.70786 0
M  V30 2587 N 255.711 1.52812 0.385517 0
M  V30 2588 C 256.959 1.67694 1.12797 0
M  V30 2589 C 257.28 0.421115 1.90399 0
M  V30 2590 O 256.55 -0.564551 1.87589 0
M  V30 2591 H 255.13 0.618155 0.419396 0
M  V30 2592 H 257.792 1.89938 0.436972 0
M  V30 2593 H 256.888 2.52896 1.82894 0
M  V30 2594 N 257.189 -0.644168 1.43834 0
M  V30 2595 C 258.136 -1.75671 1.49694 0
M  V30 2596 C 259.106 -1.6246 0.345809 0
M  V30 2597 O 260.291 -1.82573 0.554234 0
M  V30 2598 C 257.431 -3.13867 1.43463 0
M  V30 2599 C 256.544 -3.38147 2.6885 0
M  V30 2600 C 255.679 -4.66241 2.54544 0
M  V30 2601 C 254.718 -4.83657 3.75157 0
M  V30 2602 N 253.855 -6.03016 3.59605 0
M  V30 2603 H 258.695 -1.69998 2.44754 0
M  V30 2604 H 256.232 -0.829458 1.21484 0
M  V30 2605 H 258.19 -3.9377 1.37843 0
M  V30 2606 H 256.82 -3.18588 0.519783 0
M  V30 2607 H 255.872 -2.52276 2.84712 0
M  V30 2608 H 257.184 -3.46899 3.58417 0
M  V30 2609 H 256.338 -5.54285 2.46683 0
M  V30 2610 H 255.077 -4.59826 1.62516 0
M  V30 2611 H 254.082 -3.94046 3.83416 0
M  V30 2612 H 255.307 -4.91896 4.68204 0
M  V30 2613 H 253.253 -5.97715 2.7032 0
M  V30 2614 H 253.17 -6.12766 4.42779 0
M  V30 2615 H 254.438 -6.93657 3.55613 0
M  V30 2616 N 258.668 -1.30515 -0.883378 0
M  V30 2617 C 259.893 -1.22487 -1.67367 0
M  V30 2618 C 260.318 0.208767 -1.86938 0
M  V30 2619 O 259.676 1.15015 -1.40148 0
M  V30 2620 C 259.724 -1.96041 -3.02655 0
M  V30 2621 O 258.828 -1.28859 -3.91751 0
M  V30 2622 H 258.169 -0.423573 -0.511353 0
M  V30 2623 H 260.699 -1.72362 -1.10239 0
M  V30 2624 H 260.709 -2.05124 -3.52687 0
M  V30 2625 H 259.384 -3.00307 -2.8773 0
M  V30 2626 H 257.961 -1.28141 -3.50192 0
M  V30 2627 N 260.146 1.09593 -1.13257 0
M  V30 2628 C 261.376 1.85231 -0.915049 0
M  V30 2629 C 261.784 1.81345 0.539498 0
M  V30 2630 O 261.127 1.20664 1.38513 0
M  V30 2631 C 261.189 3.34275 -1.3229 0
M  V30 2632 C 260.853 3.6191 -2.79052 0
M  V30 2633 C 261.85 3.57777 -3.77216 0
M  V30 2634 C 259.535 3.90309 -3.16171 0
M  V30 2635 C 261.529 3.81652 -5.1051 0
M  V30 2636 C 259.216 4.13839 -4.49644 0
M  V30 2637 C 260.214 4.09502 -5.46623 0
M  V30 2638 O 259.902 4.32426 -6.77689 0
M  V30 2639 H 259.634 0.591997 -0.326367 0
M  V30 2640 H 262.188 1.394 -1.50854 0
M  V30 2641 H 260.418 3.80805 -0.672667 0
M  V30 2642 H 262.107 3.9132 -1.07812 0
M  V30 2643 H 262.873 3.35865 -3.49885 0
M  V30 2644 H 258.752 3.92811 -2.41289 0
M  V30 2645 H 262.296 3.78182 -5.86195 0
M  V30 2646 H 258.193 4.35232 -4.767 0
M  V30 2647 H 258.961 4.49896 -6.83766 0
M  V30 2648 N 261.624 0.925811 1.2754 0
M  V30 2649 C 262.554 0.440748 2.29303 0
M  V30 2650 C 263.535 -0.497971 1.62648 0
M  V30 2651 O 264.72 -0.403126 1.8997 0
M  V30 2652 C 261.85 -0.309048 3.45922 0
M  V30 2653 C 260.804 0.54166 4.24559 0
M  V30 2654 C 260.13 -0.337191 5.33636 0
M  V30 2655 C 261.43 1.80516 4.90114 0
M  V30 2656 H 263.124 1.29121 2.70126 0
M  V30 2657 H 260.67 0.622323 1.29858 0
M  V30 2658 H 262.623 -0.659315 4.1621 0
M  V30 2659 H 261.347 -1.19352 3.04011 0
M  V30 2660 H 260.006 0.874609 3.56014 0
M  V30 2661 H 259.654 -1.22056 4.87966 0
M  V30 2662 H 259.354 0.228497 5.87156 0
M  V30 2663 H 260.878 -0.683072 6.06767 0
M  V30 2664 H 262.292 1.52307 5.52698 0
M  V30 2665 H 260.689 2.3142 5.53683 0
M  V30 2666 H 261.759 2.52581 4.13921 0
M  V30 2667 N 263.102 -1.41638 0.69111 0
M  V30 2668 C 264.327 -2.06148 0.227583 0
M  V30 2669 C 264.752 -1.51652 -1.11281 0
M  V30 2670 O 264.11 -0.64164 -1.69566 0
M  V30 2671 C 264.158 -3.60095 0.190858 0
M  V30 2672 O 263.262 -4.03845 -0.835664 0
M  V30 2673 H 262.603 -0.654434 0.112306 0
M  V30 2674 H 265.133 -1.81484 0.944714 0
M  V30 2675 H 265.143 -4.07995 0.020207 0
M  V30 2676 H 263.818 -3.99129 1.16915 0
M  V30 2677 H 262.395 -3.67458 -0.63473 0
M  V30 2678 N 264.58 -0.43555 -1.51462 0
M  V30 2679 C 265.51 0.367376 -2.30592 0
M  V30 2680 C 266.491 1.02263 -1.35928 0
M  V30 2681 O 267.676 1.02661 -1.64847 0
M  V30 2682 C 264.806 1.46983 -3.14664 0
M  V30 2683 C 263.76 0.938161 -4.17591 0
M  V30 2684 C 263.086 2.13622 -4.90173 0
M  V30 2685 C 264.386 -0.0261621 -5.22293 0
M  V30 2686 H 266.08 -0.292969 -2.97963 0
M  V30 2687 H 263.626 -0.14234 -1.43295 0
M  V30 2688 H 265.579 2.03873 -3.688 0
M  V30 2689 H 264.303 2.15843 -2.4511 0
M  V30 2690 H 262.962 0.391481 -3.64504 0
M  V30 2691 H 262.61 2.81098 -4.17124 0
M  V30 2692 H 262.31 1.78688 -5.59772 0
M  V30 2693 H 263.834 2.7107 -5.47132 0
M  V30 2694 H 265.248 0.452384 -5.71512 0
M  V30 2695 H 263.645 -0.287992 -5.99409 0
M  V30 2696 H 264.715 -0.963391 -4.75233 0
M  V30 2697 N 266.058 1.56714 -0.166846 0
M  V30 2698 C 267.306 1.96358 0.478305 0
M  V30 2699 C 267.627 1.0537 1.6408 0
M  V30 2700 O 266.897 0.119154 1.95537 0
M  V30 2701 H 265.477 0.725065 0.179692 0
M  V30 2702 H 268.139 1.93329 -0.246985 0
M  V30 2703 H 267.235 3.00547 0.841292 0
M  V30 2704 N 267.536 -0.106894 1.57237 0
M  V30 2705 C 268.784 -0.810921 1.85117 0
M  V30 2706 C 269.105 -1.7984 0.753827 0
M  V30 2707 O 268.375 -1.94649 -0.221056 0
M  V30 2708 H 266.955 -0.302466 0.683025 0
M  V30 2709 H 269.617 -0.0913324 1.94686 0
M  V30 2710 H 268.713 -1.34875 2.81452 0
M  V30 2711 N 269.014 -1.53014 -0.377408 0
M  V30 2712 C 270.26 -1.68872 -1.12294 0
M  V30 2713 C 270.593 -0.433224 -1.89306 0
M  V30 2714 O 269.868 0.569258 -1.85983 0
M  V30 2715 C 270.151 -2.93115 -2.09179 0
M  V30 2716 C 270.004 -4.28794 -1.35853 0
M  V30 2717 C 271.323 -3.12928 -3.09458 0
M  V30 2718 H 268.442 -0.614518 -0.406862 0
M  V30 2719 H 271.084 -1.85633 -0.40503 0
M  V30 2720 H 269.234 -2.78956 -2.70399 0
M  V30 2721 H 270.906 -4.54742 -0.775082 0
M  V30 2722 H 269.149 -4.28744 -0.660364 0
M  V30 2723 H 269.82 -5.11837 -2.06706 0
M  V30 2724 H 272.296 -3.26194 -2.58334 0
M  V30 2725 H 271.172 -4.01316 -3.74482 0
M  V30 2726 H 271.433 -2.27669 -3.78971 0
M  V30 2727 N 270.492 0.636531 -1.44174 0
M  V30 2728 C 271.717 1.42847 -1.50364 0
M  V30 2729 C 272.142 1.87665 -0.127867 0
M  V30 2730 O 271.5 1.58408 0.88185 0
M  V30 2731 C 271.548 2.62854 -2.4686 0
M  V30 2732 O 270.652 3.62501 -1.9664 0
M  V30 2733 H 269.993 0.427642 -0.507955 0
M  V30 2734 H 272.523 0.777422 -1.89255 0
M  V30 2735 H 272.533 3.10465 -2.64718 0
M  V30 2736 H 271.208 2.29578 -3.46795 0
M  V30 2737 H 269.785 3.21735 -1.88523 0
M  V30 2738 N 271.97 1.30982 0.876444 0
M  V30 2739 C 272.903 1.12414 1.98591 0
M  V30 2740 C 273.881 0.0294078 1.62573 0
M  V30 2741 O 275.065 0.184598 1.87594 0
M  V30 2742 C 272.192 0.716276 3.3104 0
M  V30 2743 C 271.238 1.81311 3.86042 0
M  V30 2744 S 272.071 3.41727 4.1229 0
M  V30 2745 C 273.227 3.02863 5.47745 0
M  V30 2746 H 273.46 2.06338 2.14037 0
M  V30 2747 H 270.993 1.15393 1.02586 0
M  V30 2748 H 272.951 0.487697 4.07593 0
M  V30 2749 H 271.612 -0.203749 3.13438 0
M  V30 2750 H 270.805 1.48021 4.81774 0
M  V30 2751 H 270.407 1.99641 3.16259 0
M  V30 2752 H 272.699 2.51353 6.29148 0
M  V30 2753 H 273.642 3.97533 5.8598 0
M  V30 2754 H 274.05 2.40487 5.10711 0
M  V30 2755 N 273.449 -1.08991 1.13837 0
M  V30 2756 C 274.697 -1.80899 0.901098 0
M  V30 2757 C 275.018 -1.86356 -0.574134 0
M  V30 2758 O 274.288 -1.35235 -1.41733 0
M  V30 2759 H 272.868 -0.669966 0.330386 0
M  V30 2760 H 275.53 -1.318 1.43578 0
M  V30 2761 H 274.626 -2.83929 1.29578 0
M  V30 2762 N 274.927 -0.932562 -1.27047 0
M  V30 2763 C 276.176 -0.571351 -1.93439 0
M  V30 2764 C 276.489 0.892467 -1.74053 0
M  V30 2765 O 277.695 1.36267 -2.34826 0
M  V30 2766 C 276.151 -0.97106 -3.46552 0
M  V30 2767 C 275.759 -2.4559 -3.74686 0
M  V30 2768 C 277.503 -0.681333 -4.18997 0
M  V30 2769 C 275.41 -2.79475 -5.21198 0
M  V30 2770 H 274.34 -0.209966 -0.724176 0
M  V30 2771 H 276.991 -1.13403 -1.44263 0
M  V30 2772 H 275.373 -0.336983 -3.94564 0
M  V30 2773 H 276.547 -3.13829 -3.37414 0
M  V30 2774 H 274.862 -2.71802 -3.15456 0
M  V30 2775 H 277.459 -0.910939 -5.26883 0
M  V30 2776 H 277.802 0.381628 -4.14547 0
M  V30 2777 H 278.335 -1.27473 -3.76823 0
M  V30 2778 H 275.074 -3.847 -5.30741 0
M  V30 2779 H 274.594 -2.1589 -5.596 0
M  V30 2780 H 276.273 -2.67478 -5.89122 0
M  V30 2781 N 276.405 1.4127 -0.698611 0
M  V30 2782 C 277.368 2.29158 -0.044132 0
M  V30 2783 C 278.368 1.44529 0.704841 0
M  V30 2784 O 279.558 1.65643 0.539276 0
M  V30 2785 C 276.69 3.27459 0.947809 0
M  V30 2786 H 277.883 2.88529 -0.817994 0
M  V30 2787 H 275.436 1.49307 -0.46228 0
M  V30 2788 H 276.171 2.73073 1.74933 0
M  V30 2789 H 275.956 3.8991 0.41385 0
M  V30 2790 H 277.446 3.93311 1.40344 0
M  V30 2791 N 277.883 0.443576 1.51229 0
M  V30 2792 C 279.131 -0.120557 2.0174 0
M  V30 2793 C 279.452 -1.42665 1.32935 0
M  V30 2794 O 278.722 -1.9028 0.465866 0
M  V30 2795 H 277.302 -0.0475426 0.745486 0
M  V30 2796 H 279.964 0.587711 1.85828 0
M  V30 2797 H 279.06 -0.291972 3.10731 0
M  V30 2798 N 279.361 -1.56624 0.175154 0
M  V30 2799 C 280.586 -2.01813 -0.478137 0
M  V30 2800 C 281.011 -1.05457 -1.55757 0
M  V30 2801 O 280.369 -0.0347439 -1.81267 0
M  V30 2802 C 280.417 -3.45581 -1.02987 0
M  V30 2803 O 279.521 -3.52305 -2.14371 0
M  V30 2804 H 278.862 -0.65413 -0.114059 0
M  V30 2805 H 281.392 -2.02673 0.280173 0
M  V30 2806 H 281.402 -3.84965 -1.35151 0
M  V30 2807 H 280.077 -4.1521 -0.239556 0
M  V30 2808 H 278.654 -3.24783 -1.83222 0
M  V30 2809 N 280.839 0.0985539 -1.57292 0
M  V30 2810 C 282.088 0.801358 -1.85098 0
M  V30 2811 C 282.401 1.80066 -0.763902 0
M  V30 2812 O 283.607 2.55112 -0.928981 0
M  V30 2813 C 282.063 1.47599 -3.28242 0
M  V30 2814 C 281.671 0.516624 -4.45011 0
M  V30 2815 C 283.415 2.16272 -3.65276 0
M  V30 2816 C 281.322 1.19564 -5.79188 0
M  V30 2817 H 280.252 0.303022 -0.69043 0
M  V30 2818 H 282.903 0.0542623 -1.8342 0
M  V30 2819 H 281.285 2.27042 -3.2445 0
M  V30 2820 H 282.459 -0.246065 -4.60143 0
M  V30 2821 H 280.774 -0.064227 -4.1635 0
M  V30 2822 H 283.371 2.67802 -4.62803 0
M  V30 2823 H 283.714 2.95009 -2.93727 0
M  V30 2824 H 284.247 1.43693 -3.70941 0
M  V30 2825 H 280.986 0.449157 -6.53959 0
M  V30 2826 H 280.506 1.92984 -5.67906 0
M  V30 2827 H 282.185 1.7231 -6.23633 0
M  V30 2828 N 282.317 1.53212 0.369288 0
M  V30 2829 C 283.563 1.69466 1.11397 0
M  V30 2830 C 283.896 0.443257 1.89074 0
M  V30 2831 O 283.171 -0.559386 1.86282 0
M  V30 2832 C 283.454 2.9422 2.07621 0
M  V30 2833 C 283.307 4.29508 1.33577 0
M  V30 2834 C 284.626 3.14565 3.07794 0
M  V30 2835 H 281.745 0.616667 0.403597 0
M  V30 2836 H 284.387 1.85845 0.395179 0
M  V30 2837 H 282.537 2.80387 2.68916 0
M  V30 2838 H 284.209 4.55147 0.750955 0
M  V30 2839 H 282.452 4.29088 0.637618 0
M  V30 2840 H 283.123 5.12926 2.03989 0
M  V30 2841 H 285.599 3.2756 2.56601 0
M  V30 2842 H 284.475 4.03297 3.72348 0
M  V30 2843 H 284.736 2.29675 3.77759 0
M  V30 2844 N 283.795 -0.628877 1.44509 0
M  V30 2845 C 285.072 -1.38733 1.37886 0
M  V30 2846 C 285.452 -2.11065 0.0387008 0
M  V30 2847 O 284.8 -2.06476 -0.97878 0
M  V30 2848 C 285.01 -2.35188 2.57852 0
M  V30 2849 C 286.358 -2.9845 3.02014 0
M  V30 2850 O 287.382 -2.45513 2.58073 0
M  V30 2851 O 286.241 -3.94487 3.78209 0
M  V30 2852 H 283.335 -0.621015 0.54614 0
M  V30 2853 H 285.881 -0.653744 1.56602 0
M  V30 2854 H 284.653 -1.80855 3.46998 0
M  V30 2855 H 284.276 -3.1596 2.4136 0
M  V30 2856 N 285.273 -1.31445 -0.869486 0
M  V30 2857 C 286.223 -1.15731 -1.96444 0
M  V30 2858 C 287.207 -0.0681855 -1.60755 0
M  V30 2859 O 288.399 -0.293154 -1.74555 0
M  V30 2860 C 285.528 -0.867255 -3.32165 0
M  V30 2861 C 284.614 -1.99738 -3.74119 0
M  V30 2862 N 285.005 -3.24447 -3.88031 0
M  V30 2863 C 283.303 -1.89723 -4.03635 0
M  V30 2864 C 284.004 -3.98374 -4.23879 0
M  V30 2865 N 282.98 -3.26547 -4.3459 0
M  V30 2866 H 286.782 -2.10296 -2.05312 0
M  V30 2867 H 284.296 -1.23009 -1.06031 0
M  V30 2868 H 286.293 -0.735668 -4.10358 0
M  V30 2869 H 284.953 0.0701614 -3.24624 0
M  V30 2870 H 285.964 -3.59557 -3.72746 0
M  V30 2871 H 282.641 -1.03449 -4.04481 0
M  V30 2872 H 284.031 -5.05844 -4.42235 0
M  V30 2873 N 286.751 1.08385 -1.14413 0
M  V30 2874 C 287.699 2.17406 -0.826888 0
M  V30 2875 C 288.693 1.6827 0.195312 0
M  V30 2876 O 289.899 1.79927 0.0513892 0
M  V30 2877 H 286.274 0.70934 -0.249681 0
M  V30 2878 H 288.245 2.41388 -1.75426 0
M  V30 2879 C 286.994 3.46215 -0.320979 0
M  V30 2880 H 286.317 3.84401 -1.0989 0
M  V30 2881 H 287.757 4.23777 -0.137549 0
M  V30 2882 C 286.216 3.23067 0.955472 0
M  V30 2883 O 286.746 3.4668 2.02918 0
M  V30 2884 N 284.952 2.7661 0.890798 0
M  V30 2885 H 284.499 2.57594 0.0168815 0
M  V30 2886 H 284.457 2.61501 1.74542 0
M  V30 2887 N 288.23 0.939286 1.26551 0
M  V30 2888 C 289.477 0.585847 1.9384 0
M  V30 2889 C 289.805 -0.874784 1.73718 0
M  V30 2890 O 289.06 -1.64092 1.06642 0
M  V30 2891 C 289.359 0.872106 3.46596 0
M  V30 2892 C 289.025 2.31632 3.86856 0
M  V30 2893 C 287.687 2.71111 3.97558 0
M  V30 2894 C 290.039 3.25494 4.07066 0
M  V30 2895 C 287.367 4.03553 4.25866 0
M  V30 2896 C 289.719 4.57531 4.36862 0
M  V30 2897 C 288.383 4.96828 4.45778 0
M  V30 2898 H 287.653 0.214377 0.709312 0
M  V30 2899 H 290.3 1.18544 1.50398 0
M  V30 2900 H 288.605 0.18996 3.91339 0
M  V30 2901 H 290.302 0.577442 3.96821 0
M  V30 2902 H 286.892 2.00008 3.79071 0
M  V30 2903 H 291.076 2.9619 3.98227 0
M  V30 2904 H 286.332 4.33665 4.30981 0
M  V30 2905 H 290.506 5.30254 4.51446 0
M  V30 2906 H 288.133 5.99482 4.67468 0
M  V30 2907 N 289.708 -1.40897 0.706093 0
M  V30 2908 C 290.955 -2.01054 0.241531 0
M  V30 2909 C 291.283 -1.55956 -1.16223 0
M  V30 2910 O 290.538 -0.766336 -1.80072 0
M  V30 2911 C 290.837 -3.5646 0.259099 0
M  V30 2912 C 290.503 -4.21106 1.61184 0
M  V30 2913 C 289.165 -4.38479 1.98216 0
M  V30 2914 C 291.517 -4.57256 2.50132 0
M  V30 2915 C 288.845 -4.89282 3.2376 0
M  V30 2916 C 291.197 -5.09454 3.7502 0
M  V30 2917 C 289.861 -5.25037 4.12181 0
M  V30 2918 H 289.131 -0.73571 0.0883825 0
M  V30 2919 H 291.778 -1.68645 0.907257 0
M  V30 2920 H 290.083 -3.88721 -0.490189 0
M  V30 2921 H 291.78 -4.00826 -0.11804 0
M  V30 2922 H 288.37 -4.07966 1.31384 0
M  V30 2923 H 292.554 -4.43479 2.228 0
M  V30 2924 H 287.81 -4.99531 3.52532 0
M  V30 2925 H 291.984 -5.36404 4.44121 0
M  V30 2926 H 289.611 -5.64164 5.09532 0
M  V30 2927 N 291.186 -0.45159 -1.50991 0
M  V30 2928 C 292.096 0.358431 -2.31846 0
M  V30 2929 C 293.112 1.01438 -1.41373 0
M  V30 2930 O 294.288 1.00663 -1.74439 0
M  V30 2931 C 291.353 1.43704 -3.15515 0
M  V30 2932 C 290.414 0.799742 -4.21785 0
M  V30 2933 C 289.647 1.82696 -5.01456 0
M  V30 2934 O 289.87 3.05105 -4.81941 0
M  V30 2935 O 288.804 1.40958 -5.85162 0
M  V30 2936 H 292.63 -0.302032 -3.02194 0
M  V30 2937 H 290.215 -0.213825 -1.47862 0
M  V30 2938 H 292.097 2.06227 -3.67489 0
M  V30 2939 H 290.772 2.08133 -2.47916 0
M  V30 2940 H 289.679 0.136084 -3.73852 0
M  V30 2941 H 291.012 0.198718 -4.91799 0
M  V30 2942 N 292.664 1.56529 -0.183458 0
M  V30 2943 C 293.889 2.02064 0.467428 0
M  V30 2944 C 294.314 1.06282 1.55196 0
M  V30 2945 O 293.672 0.0443565 1.81246 0
M  V30 2946 C 293.72 3.46122 1.01153 0
M  V30 2947 O 292.824 3.53437 2.12499 0
M  V30 2948 H 292.165 0.654726 0.110588 0
M  V30 2949 H 294.695 2.02521 -0.290917 0
M  V30 2950 H 294.705 3.85676 1.33108 0
M  V30 2951 H 293.38 4.15331 0.217533 0
M  V30 2952 H 291.957 3.2575 1.81497 0
M  V30 2953 N 294.142 -0.090211 1.57342 0
M  V30 2954 C 295.388 -0.788838 1.8748 0
M  V30 2955 C 295.743 -1.76105 0.7749 0
M  V30 2956 O 295.036 -1.90302 -0.222663 0
M  V30 2957 C 295.23 -1.55222 3.21933 0
M  V30 2958 C 295.059 -0.655441 4.44898 0
M  V30 2959 C 293.829 -0.299325 5.04413 0
M  V30 2960 C 296.027 0.0397458 5.14285 0
M  V30 2961 N 294.009 0.605108 6.10911 0
M  V30 2962 C 295.38 0.802061 6.1479 0
M  V30 2963 C 297.435 0.113154 4.97771 0
M  V30 2964 C 296.138 1.63093 7.00566 0
M  V30 2965 C 298.164 0.928942 5.84059 0
M  V30 2966 C 297.526 1.67936 6.84088 0
M  V30 2967 H 293.625 -0.26467 0.735849 0
M  V30 2968 H 296.209 -0.0511453 1.94633 0
M  V30 2969 H 294.38 -2.26076 3.15823 0
M  V30 2970 H 296.112 -2.19843 3.39781 0
M  V30 2971 H 292.867 -0.648079 4.69145 0
M  V30 2972 H 293.291 1.05002 6.68808 0
M  V30 2973 H 297.933 -0.452676 4.2037 0
M  V30 2974 H 295.651 2.20781 7.77355 0
M  V30 2975 H 299.237 0.988478 5.73341 0
M  V30 2976 H 298.117 2.30044 7.49699 0
M  V30 2977 N 295.62 -1.53406 -0.361157 0
M  V30 2978 C 296.55 -1.83136 -1.44857 0
M  V30 2979 C 297.531 -0.685174 -1.5569 0
M  V30 2980 O 298.716 -0.93544 -1.70186 0
M  V30 2981 C 295.846 -2.02522 -2.82138 0
M  V30 2982 C 294.8 -3.18302 -2.86126 0
M  V30 2983 C 294.126 -3.22989 -4.26125 0
M  V30 2984 C 295.426 -4.56796 -2.53248 0
M  V30 2985 H 297.12 -2.74201 -1.20226 0
M  V30 2986 H 294.666 -1.31938 -0.576922 0
M  V30 2987 H 296.619 -2.21904 -3.58241 0
M  V30 2988 H 295.343 -1.08172 -3.08166 0
M  V30 2989 H 294.002 -2.98747 -2.12475 0
M  V30 2990 H 293.65 -2.26267 -4.49235 0
M  V30 2991 H 293.35 -4.00781 -4.29708 0
M  V30 2992 H 294.874 -3.44559 -5.04094 0
M  V30 2993 H 296.288 -4.7631 -3.19064 0
M  V30 2994 H 294.685 -5.36862 -2.68141 0
M  V30 2995 H 295.755 -4.61606 -1.48484 0
M  V30 2996 N 297.098 0.621204 -1.44841 0
M  V30 2997 C 298.346 1.37783 -1.47852 0
M  V30 2998 C 298.667 1.94653 -0.116224 0
M  V30 2999 O 297.937 1.76367 0.852737 0
M  V30 3000 H 296.517 0.511453 -0.544449 0
M  V30 3001 H 299.179 0.730446 -1.80694 0
M  V30 3002 H 298.275 2.20414 -2.20961 0
M  V30 3003 N 298.576 1.31904 0.862503 0
M  V30 3004 C 299.509 1.14514 1.97388 0
M  V30 3005 C 300.487 0.0466493 1.62533 0
M  V30 3006 O 301.671 0.204484 1.87388 0
M  V30 3007 C 298.798 0.751347 3.30261 0
M  V30 3008 C 297.844 1.85395 3.84098 0
M  V30 3009 S 298.677 3.46081 4.08642 0
M  V30 3010 C 299.833 3.08655 5.44502 0
M  V30 3011 H 300.066 2.08597 2.11836 0
M  V30 3012 H 297.599 1.16475 1.01356 0
M  V30 3013 H 299.557 0.530901 4.07052 0
M  V30 3014 H 298.218 -0.170493 3.13637 0
M  V30 3015 H 297.411 1.53122 4.80177 0
M  V30 3016 H 297.013 2.02984 3.14123 0
M  V30 3017 H 299.305 2.58012 6.26447 0
M  V30 3018 H 300.248 4.03726 5.81731 0
M  V30 3019 H 300.656 2.45891 5.08132 0
M  V30 3020 N 300.054 -1.07777 1.14986 0
M  V30 3021 C 301.001 -2.14867 0.842672 0
M  V30 3022 C 301.971 -1.6486 -0.202552 0
M  V30 3023 O 303.156 -1.90668 -0.0710568 0
M  V30 3024 C 300.296 -3.43486 0.333363 0
M  V30 3025 C 299.409 -4.07306 1.43965 0
M  V30 3026 C 298.544 -5.23744 0.886914 0
M  V30 3027 C 297.583 -5.79517 1.97043 0
M  V30 3028 N 296.72 -6.87291 1.4344 0
M  V30 3029 H 301.56 -2.40485 1.75986 0
M  V30 3030 H 299.097 -1.1801 0.878179 0
M  V30 3031 H 301.055 -4.17195 0.0198163 0
M  V30 3032 H 299.685 -3.18133 -0.546916 0
M  V30 3033 H 298.737 -3.31293 1.86946 0
M  V30 3034 H 300.049 -4.44771 2.25788 0
M  V30 3035 H 299.203 -6.04419 0.525651 0
M  V30 3036 H 297.942 -4.87685 0.0377957 0
M  V30 3037 H 296.947 -4.97491 2.34057 0
M  V30 3038 H 298.172 -6.17632 2.82325 0
M  V30 3039 H 296.118 -6.5318 0.607567 0
M  V30 3040 H 296.035 -7.23617 2.18895 0
M  V30 3041 H 297.303 -7.71682 1.10124 0
M  V30 3042 N 301.532 -0.945985 -1.26051 0
M  V30 3043 C 302.778 -0.597002 -1.93814 0
M  V30 3044 C 303.111 0.862484 -1.73997 0
M  V30 3045 O 302.386 1.61769 -1.07986 0
M  V30 3046 C 302.669 -0.945937 -3.47454 0
M  V30 3047 C 302.522 -2.46052 -3.76535 0
M  V30 3048 C 303.841 -0.464785 -4.37639 0
M  V30 3049 H 300.96 -0.218366 -0.703907 0
M  V30 3050 H 303.602 -1.18107 -1.48831 0
M  V30 3051 H 301.752 -0.448902 -3.85898 0
M  V30 3052 H 303.424 -3.03065 -3.47778 0
M  V30 3053 H 301.667 -2.90194 -3.22444 0
M  V30 3054 H 302.338 -2.65517 -4.83947 0
M  V30 3055 H 304.814 -0.891016 -4.06448 0
M  V30 3056 H 303.69 -0.737712 -5.4392 0
M  V30 3057 H 303.951 0.635274 -4.37512 0
M  V30 3058 N 303.011 1.40521 -0.713556 0
M  V30 3059 C 303.943 2.29191 -0.0203126 0
M  V30 3060 C 304.956 1.45723 0.725864 0
M  V30 3061 O 306.145 1.69033 0.573581 0
M  V30 3062 C 303.245 3.2395 0.995486 0
M  V30 3063 C 302.418 4.36262 0.315256 0
M  V30 3064 C 301.477 5.11474 1.23616 0
M  V30 3065 O 300.503 5.64606 0.721719 0
M  V30 3066 N 301.705 5.20638 2.56743 0
M  V30 3067 H 304.47 2.89327 -0.781652 0
M  V30 3068 H 302.031 1.51869 -0.561022 0
M  V30 3069 H 304.023 3.71137 1.61368 0
M  V30 3070 H 302.593 2.64995 1.6582 0
M  V30 3071 H 301.813 3.91228 -0.483106 0
M  V30 3072 H 303.101 5.08558 -0.157004 0
M  V30 3073 H 302.499 4.7895 3.01037 0
M  V30 3074 H 301.056 5.71339 3.13712 0
M  V30 3075 N 304.489 0.459591 1.5075 0
M  V30 3076 C 305.452 -0.329093 2.26825 0
M  V30 3077 C 306.452 -0.930481 1.31144 0
M  V30 3078 O 307.642 -0.801453 1.54669 0
M  V30 3079 C 304.774 -1.46768 3.07688 0
M  V30 3080 H 305.967 0.337924 2.9799 0
M  V30 3081 H 303.52 0.213336 1.54837 0
M  V30 3082 H 304.255 -2.17009 2.40993 0
M  V30 3083 H 304.04 -1.04238 3.77991 0
M  V30 3084 H 305.53 -2.02433 3.65254 0
M  V30 3085 N 305.967 -1.56429 0.191757 0
M  V30 3086 C 307.213 -1.97777 -0.448554 0
M  V30 3087 C 307.546 -1.07847 -1.61501 0
M  V30 3088 O 306.821 -0.129774 -1.94067 0
M  V30 3089 C 307.104 -3.48362 -0.911906 0
M  V30 3090 C 306.957 -4.4907 0.256136 0
M  V30 3091 C 308.276 -4.02561 -1.77857 0
M  V30 3092 H 305.395 -0.719071 -0.161572 0
M  V30 3093 H 308.037 -1.87896 0.282007 0
M  V30 3094 H 306.187 -3.56914 -1.53442 0
M  V30 3095 H 307.859 -4.5256 0.893733 0
M  V30 3096 H 306.102 -4.24181 0.908436 0
M  V30 3097 H 306.773 -5.51889 -0.11053 0
M  V30 3098 H 309.249 -3.96767 -1.25359 0
M  V30 3099 H 308.125 -5.08301 -2.07174 0
M  V30 3100 H 308.386 -3.47616 -2.73158 0
M  V30 3101 N 307.445 0.0818655 -1.57387 0
M  V30 3102 C 308.722 0.815343 -1.77796 0
M  V30 3103 C 309.102 1.96289 -0.77679 0
M  V30 3104 O 308.45 2.27691 0.192106 0
M  V30 3105 C 308.66 1.29765 -3.23978 0
M  V30 3106 C 310.008 1.7351 -3.8753 0
M  V30 3107 O 311.032 1.39356 -3.27808 0
M  V30 3108 O 309.891 2.36708 -4.92576 0
M  V30 3109 H 306.985 0.389914 -0.729312 0
M  V30 3110 H 309.531 0.0627213 -1.69584 0
M  V30 3111 H 308.303 0.47608 -3.88393 0
M  V30 3112 H 307.926 2.11189 -3.36875 0
M  V30 3113 N 308.923 1.53595 0.353017 0
M  V30 3114 C 309.856 1.7572 1.45594 0
M  V30 3115 C 310.834 0.605961 1.50887 0
M  V30 3116 O 312.018 0.840023 1.68748 0
M  V30 3117 C 309.145 1.84732 2.83887 0
M  V30 3118 C 308.191 3.06808 2.96262 0
M  V30 3119 S 309.024 4.66065 2.63711 0
M  V30 3120 C 310.18 4.77943 4.04131 0
M  V30 3121 H 310.413 2.68994 1.26608 0
M  V30 3122 H 307.946 1.44343 0.548117 0
M  V30 3123 H 309.904 1.9061 3.63563 0
M  V30 3124 H 308.565 0.92488 3.00175 0
M  V30 3125 H 307.758 3.09761 3.97573 0
M  V30 3126 H 307.36 2.99108 2.24523 0
M  V30 3127 H 309.652 4.5877 4.98534 0
M  V30 3128 H 310.595 5.80022 4.06177 0
M  V30 3129 H 311.003 4.06472 3.91715 0
M  V30 3130 N 310.401 -0.613514 1.45168 0
M  V30 3131 C 311.629 -1.39946 1.5239 0
M  V30 3132 C 312.044 -1.88167 0.154531 0
M  V30 3133 O 311.401 -1.61872 -0.842843 0
M  V30 3134 C 311.452 -2.60795 2.50337 0
M  V30 3135 O 311.173 -2.1458 3.81952 0
M  V30 3136 C 312.674 -3.53723 2.67198 0
M  V30 3137 H 309.894 -0.428593 0.516284 0
M  V30 3138 H 312.438 -0.748753 1.903 0
M  V30 3139 H 310.593 -3.21919 2.15515 0
M  V30 3140 H 311.007 -2.93055 4.34993 0
M  V30 3141 H 312.481 -4.35079 3.39721 0
M  V30 3142 H 312.958 -4.0368 1.73029 0
M  V30 3143 H 313.564 -2.98456 3.02992 0
M  V30 3144 N 311.879 -1.3236 -0.855495 0
M  V30 3145 C 312.789 -1.23221 -1.99634 0
M  V30 3146 C 313.805 -0.145983 -1.73387 0
M  V30 3147 O 314.981 -0.366502 -1.98037 0
M  V30 3148 C 312.046 -0.954782 -3.33294 0
M  V30 3149 C 311.107 -2.12937 -3.72769 0
M  V30 3150 C 310.34 -1.86508 -5.00051 0
M  V30 3151 O 310.563 -0.807231 -5.64659 0
M  V30 3152 O 309.497 -2.72591 -5.36636 0
M  V30 3153 H 313.323 -2.19126 -2.1028 0
M  V30 3154 H 310.908 -1.12241 -0.986018 0
M  V30 3155 H 312.79 -0.816519 -4.13414 0
M  V30 3156 H 311.465 -0.0258854 -3.2369 0
M  V30 3157 H 310.372 -2.3231 -2.93228 0
M  V30 3158 H 311.705 -3.04102 -3.87018 0
M  V30 3159 N 313.357 1.07166 -1.15556 0
M  V30 3160 C 314.287 2.16403 -0.877046 0
M  V30 3161 C 315.268 1.69217 0.173111 0
M  V30 3162 O 316.453 1.94181 0.027084 0
M  V30 3163 C 313.583 3.45349 -0.367632 0
M  V30 3164 C 312.537 4.05995 -1.35468 0
M  V30 3165 C 311.863 5.30045 -0.704038 0
M  V30 3166 C 313.163 4.45804 -2.72132 0
M  V30 3167 H 314.857 2.39959 -1.79053 0
M  V30 3168 H 312.403 1.15325 -0.862331 0
M  V30 3169 H 314.356 4.21095 -0.160317 0
M  V30 3170 H 313.08 3.21385 0.581326 0
M  V30 3171 H 311.739 3.32296 -1.54839 0
M  V30 3172 H 311.387 5.02373 0.251128 0
M  V30 3173 H 311.087 5.71579 -1.36277 0
M  V30 3174 H 312.611 6.08495 -0.50654 0
M  V30 3175 H 314.025 5.12671 -2.56595 0
M  V30 3176 H 312.422 4.98296 -3.34397 0
M  V30 3177 H 313.492 3.57083 -3.28054 0
M  V30 3178 N 314.835 0.952656 1.25548 0
M  V30 3179 C 316.251 0.656769 1.4546 0
M  V30 3180 C 316.451 -0.78633 1.85524 0
M  V30 3181 O 315.507 -1.56183 1.98402 0
M  V30 3182 C 316.82 1.62801 2.52817 0
M  V30 3183 C 318.368 1.63897 2.66659 0
M  V30 3184 C 318.843 2.5978 3.77198 0
M  V30 3185 N 320.334 2.58133 3.84606 0
M  V30 3186 C 321.069 3.29003 4.69621 0
M  V30 3187 N 320.565 4.09339 5.58939 0
M  V30 3188 N 322.358 3.179 4.63569 0
M  V30 3189 H 314.509 1.88526 0.978344 0
M  V30 3190 H 316.772 0.810815 0.491206 0
M  V30 3191 H 316.478 2.65869 2.30232 0
M  V30 3192 H 316.352 1.38898 3.50695 0
M  V30 3193 H 318.739 0.615481 2.8861 0
M  V30 3194 H 318.82 1.91858 1.69187 0
M  V30 3195 H 318.464 3.62254 3.55997 0
M  V30 3196 H 318.394 2.29105 4.7415 0
M  V30 3197 H 320.885 1.99809 3.20757 0
M  V30 3198 H 321.198 4.6034 6.20731 0
M  V30 3199 H 319.543 4.13438 5.58654 0
M  V30 3200 H 322.734 2.54612 3.92798 0
M  V30 3201 H 322.907 3.73398 5.29602 0
M  V30 3202 N 316.313 -1.40141 0.720998 0
M  V30 3203 C 317.729 -1.54632 0.395113 0
M  V30 3204 C 317.929 -1.69115 -1.09555 0
M  V30 3205 O 316.985 -1.68377 -1.88163 0
M  V30 3206 C 318.298 -2.77177 1.1659 0
M  V30 3207 C 319.846 -2.91 1.15274 0
M  V30 3208 C 320.321 -4.16465 1.90579 0
M  V30 3209 N 321.812 -4.23476 1.87675 0
M  V30 3210 C 322.547 -5.19475 2.42762 0
M  V30 3211 N 322.043 -6.21348 3.06428 0
M  V30 3212 N 323.836 -5.11592 2.32874 0
M  V30 3213 H 315.987 -1.28986 1.68749 0
M  V30 3214 H 318.25 -0.62412 0.713567 0
M  V30 3215 H 317.956 -2.72771 2.22011 0
M  V30 3216 H 317.83 -3.69442 0.76108 0
M  V30 3217 H 320.217 -2.94907 0.106702 0
M  V30 3218 H 320.298 -1.99838 1.59682 0
M  V30 3219 H 319.942 -4.1332 2.95176 0
M  V30 3220 H 319.872 -5.06646 1.43587 0
M  V30 3221 H 322.363 -3.50497 1.41281 0
M  V30 3222 H 322.676 -6.91034 3.45965 0
M  V30 3223 H 321.021 -6.21777 3.10514 0
M  V30 3224 H 324.212 -4.30936 1.82789 0
M  V30 3225 H 324.385 -5.86233 2.76106 0
M  V30 3226 N 317.792 -0.46758 -1.50504 0
M  V30 3227 C 319.208 -0.121533 -1.59137 0
M  V30 3228 C 319.408 1.3717 -1.47603 0
M  V30 3229 O 318.464 2.14464 -1.33272 0
M  V30 3230 C 319.777 -0.6686 -2.93173 0
M  V30 3231 C 321.325 -0.631716 -3.06559 0
M  V30 3232 C 321.8 -1.15627 -4.43164 0
M  V30 3233 N 323.291 -1.11553 -4.49567 0
M  V30 3234 C 324.026 -1.49195 -5.5365 0
M  V30 3235 N 323.522 -1.94269 -6.65005 0
M  V30 3236 N 325.315 -1.4082 -5.44175 0
M  V30 3237 H 317.466 -1.4388 -1.56245 0
M  V30 3238 H 319.729 -0.594784 -0.738198 0
M  V30 3239 H 319.435 -1.71453 -3.07078 0
M  V30 3240 H 319.309 -0.11021 -3.77039 0
M  V30 3241 H 321.696 0.405297 -2.92304 0
M  V30 3242 H 321.777 -1.22687 -2.24458 0
M  V30 3243 H 321.421 -2.1919 -4.58168 0
M  V30 3244 H 321.351 -0.537365 -5.23851 0
M  V30 3245 H 323.842 -0.784895 -3.69659 0
M  V30 3246 H 324.155 -2.21148 -7.40482 0
M  V30 3247 H 322.5 -1.98219 -6.66134 0
M  V30 3248 H 325.691 -1.0545 -4.56068 0
M  V30 3249 H 325.864 -1.70481 -6.25172 0
M  V30 3250 N 319.27 1.56325 -0.20005 0
M  V30 3251 C 320.519 1.96895 0.437652 0
M  V30 3252 C 320.832 1.08999 1.62415 0
M  V30 3253 O 322.038 1.39372 2.32997 0
M  V30 3254 C 320.494 3.50198 0.830025 0
M  V30 3255 C 320.102 4.46765 -0.332461 0
M  V30 3256 C 321.846 3.99526 1.43453 0
M  V30 3257 C 319.753 5.91344 0.0811468 0
M  V30 3258 H 318.683 0.735209 0.167282 0
M  V30 3259 H 321.334 1.81148 -0.292853 0
M  V30 3260 H 319.716 3.61467 1.61734 0
M  V30 3261 H 320.89 4.47231 -1.11 0
M  V30 3262 H 319.205 4.07657 -0.848789 0
M  V30 3263 H 321.802 5.05025 1.75652 0
M  V30 3264 H 322.145 3.44122 2.34277 0
M  V30 3265 H 322.678 3.91393 0.71109 0
M  V30 3266 H 319.417 6.50685 -0.793033 0
M  V30 3267 H 318.937 5.94121 0.823445 0
M  V30 3268 H 320.616 6.44945 0.515252 0
M  V30 3269 N 320.748 -0.0735177 1.57428 0
M  V30 3270 C 322.025 -0.805903 1.78226 0
M  V30 3271 C 322.405 -1.95874 0.787189 0
M  V30 3272 O 321.753 -2.2779 -0.180029 0
M  V30 3273 C 321.963 -1.28045 3.24662 0
M  V30 3274 C 323.311 -1.71453 3.88444 0
M  V30 3275 O 324.335 -1.37616 3.28543 0
M  V30 3276 O 323.194 -2.34093 4.93825 0
M  V30 3277 H 320.288 -0.386041 0.73137 0
M  V30 3278 H 322.834 -0.0537269 1.69615 0
M  V30 3279 H 321.606 -0.455476 3.8864 0
M  V30 3280 H 321.229 -2.094 3.37991 0
M  V30 3281 N 322.226 -1.5378 -0.344866 0
M  V30 3282 C 323.158 -1.77988 -1.44406 0
M  V30 3283 C 324.171 -0.661138 -1.48771 0
M  V30 3284 O 325.36 -0.937842 -1.51877 0
M  V30 3285 C 322.46 -1.86345 -2.8307 0
M  V30 3286 C 321.633 -3.16256 -3.0216 0
M  V30 3287 C 320.692 -3.15588 -4.21059 0
M  V30 3288 O 319.718 -3.89314 -4.15239 0
M  V30 3289 N 320.92 -2.37864 -5.29529 0
M  V30 3290 H 323.685 -2.72839 -1.24012 0
M  V30 3291 H 321.246 -1.52814 -0.534737 0
M  V30 3292 H 323.238 -1.83351 -3.60783 0
M  V30 3293 H 321.808 -0.986858 -2.96614 0
M  V30 3294 H 321.028 -3.32385 -2.11929 0
M  V30 3295 H 322.316 -4.0207 -3.11797 0
M  V30 3296 H 321.714 -1.77514 -5.37127 0
M  V30 3297 H 320.271 -2.40668 -6.05741 0
M  V30 3298 N 323.704 0.605807 -1.45491 0
M  V30 3299 C 324.651 1.7164 -1.54299 0
M  V30 3300 C 325.621 1.61486 -0.388761 0
M  V30 3301 O 326.806 1.81039 -0.602445 0
M  V30 3302 C 323.946 3.09953 -1.51734 0
M  V30 3303 C 323.059 3.309 -2.77721 0
M  V30 3304 C 322.194 4.59329 -2.66816 0
M  V30 3305 C 321.233 4.7354 -3.87848 0
M  V30 3306 N 320.37 5.9327 -3.75467 0
M  V30 3307 H 325.21 1.63449 -2.49176 0
M  V30 3308 H 322.747 0.796957 -1.23641 0
M  V30 3309 H 324.705 3.89977 -1.48235 0
M  V30 3310 H 323.335 3.17098 -0.604068 0
M  V30 3311 H 322.387 2.44639 -2.913 0
M  V30 3312 H 323.699 3.37274 -3.67488 0
M  V30 3313 H 322.853 5.4755 -2.61292 0
M  V30 3314 H 321.592 4.55355 -1.74651 0
M  V30 3315 H 320.597 3.83741 -3.93729 0
M  V30 3316 H 321.822 4.79309 -4.81082 0
M  V30 3317 H 319.768 5.90338 -2.86072 0
M  V30 3318 H 319.685 6.00811 -4.5887 0
M  V30 3319 H 320.953 6.83984 -3.73879 0
M  V30 3320 N 325.182 1.32811 0.848464 0
M  V30 3321 C 326.431 1.23075 1.59798 0
M  V30 3322 C 326.744 -0.204419 1.94529 0
M  V30 3323 O 327.95 -0.423701 2.68173 0
M  V30 3324 C 326.406 2.15594 2.88179 0
M  V30 3325 C 326.014 3.64228 2.60849 0
M  V30 3326 C 327.758 2.14709 3.66197 0
M  V30 3327 C 325.665 4.48689 3.85269 0
M  V30 3328 H 324.595 0.457091 0.599653 0
M  V30 3329 H 327.246 1.57813 0.936342 0
M  V30 3330 H 325.628 1.73778 3.55833 0
M  V30 3331 H 326.802 4.14424 2.01467 0
M  V30 3332 H 325.117 3.67306 1.96151 0
M  V30 3333 H 327.714 2.75046 4.58534 0
M  V30 3334 H 328.057 1.13966 4.00397 0
M  V30 3335 H 328.59 2.54837 3.05455 0
M  V30 3336 H 325.329 5.5027 3.56207 0
M  V30 3337 H 324.849 4.03241 4.44024 0
M  V30 3338 H 326.528 4.62006 4.52946 0
M  V30 3339 N 326.66 -1.06551 1.16123 0
M  V30 3340 C 327.89 -1.8274 0.963838 0
M  V30 3341 C 328.298 -1.82712 -0.491228 0
M  V30 3342 O 327.641 -1.24294 -1.35265 0
M  V30 3343 C 327.703 -3.3065 1.41106 0
M  V30 3344 C 327.367 -3.54384 2.88549 0
M  V30 3345 C 328.364 -3.4765 3.86569 0
M  V30 3346 C 326.049 -3.81789 3.26408 0
M  V30 3347 C 328.043 -3.67982 5.2045 0
M  V30 3348 C 325.73 -4.01772 4.60459 0
M  V30 3349 C 326.728 -3.94866 5.57288 0
M  V30 3350 O 326.416 -4.14306 6.88916 0
M  V30 3351 H 326.148 -0.583136 0.341948 0
M  V30 3352 H 328.702 -1.35351 1.54497 0
M  V30 3353 H 326.932 -3.78887 0.773394 0
M  V30 3354 H 328.621 -3.88324 1.1815 0
M  V30 3355 H 329.387 -3.2647 3.58667 0
M  V30 3356 H 325.266 -3.86276 2.51619 0
M  V30 3357 H 328.81 -3.62507 5.96015 0
M  V30 3358 H 324.707 -4.2244 4.88072 0
M  V30 3359 H 325.475 -4.31609 6.95454 0
M  V30 3360 N 328.138 -0.959301 -1.25041 0
M  V30 3361 C 329.415 -0.533805 -1.88175 0
M  V30 3362 C 329.795 0.988994 -1.865 0
M  V30 3363 O 329.143 1.85677 -1.33177 0
M  V30 3364 C 329.353 -1.11575 -3.30684 0
M  V30 3365 C 330.701 -1.19548 -4.07423 0
M  V30 3366 O 331.725 -1.06765 -3.39823 0
M  V30 3367 O 330.584 -1.39656 -5.28354 0
M  V30 3368 H 327.678 -0.176772 -0.807887 0
M  V30 3369 H 330.224 -1.05303 -1.33076 0
M  V30 3370 H 328.996 -2.15884 -3.26358 0
M  V30 3371 H 328.619 -0.580059 -3.93346 0
M  V30 3372 N 329.616 1.39756 -0.72842 0
M  V30 3373 C 330.526 2.34444 -0.0855374 0
M  V30 3374 C 331.542 1.57976 0.729356 0
M  V30 3375 O 332.718 1.90301 0.659346 0
M  V30 3376 C 329.783 3.36965 0.815798 0
M  V30 3377 C 328.844 4.29299 -0.0105996 0
M  V30 3378 C 328.077 5.26923 0.84781 0
M  V30 3379 O 328.3 5.30859 2.08673 0
M  V30 3380 O 327.234 6.01249 0.279969 0
M  V30 3381 H 331.06 2.91065 -0.866892 0
M  V30 3382 H 328.645 1.4117 -0.48902 0
M  V30 3383 H 330.527 3.99804 1.33171 0
M  V30 3384 H 329.202 2.82739 1.57608 0
M  V30 3385 H 328.109 3.69703 -0.571877 0
M  V30 3386 H 329.442 4.86712 -0.73295 0
M  V30 3387 N 331.094 0.475555 1.50254 0
M  V30 3388 C 332.057 -0.305016 2.27161 0
M  V30 3389 C 333.057 -0.916519 1.32123 0
M  V30 3390 O 334.247 -0.785003 1.5551 0
M  V30 3391 C 331.379 -1.43496 3.09227 0
M  V30 3392 H 332.572 0.369511 2.97615 0
M  V30 3393 H 330.125 0.229747 1.54602 0
M  V30 3394 H 330.86 -2.14441 2.43281 0
M  V30 3395 H 330.645 -1.00223 3.79075 0
M  V30 3396 H 332.135 -1.98548 3.67381 0
M  V30 3397 N 332.573 -1.56217 0.208337 0
M  V30 3398 C 333.483 -2.23316 -0.718836 0
M  V30 3399 C 334.499 -1.23648 -1.22422 0
M  V30 3400 O 335.675 -1.56423 -1.26861 0
M  V30 3401 C 332.74 -2.88968 -1.91568 0
M  V30 3402 C 331.801 -4.03943 -1.45357 0
M  V30 3403 C 331.034 -4.66455 -2.59337 0
M  V30 3404 O 331.257 -4.27919 -3.77149 0
M  V30 3405 O 330.191 -5.55686 -2.31293 0
M  V30 3406 H 334.017 -3.03182 -0.177315 0
M  V30 3407 H 331.602 -1.49384 -0.0215402 0
M  V30 3408 H 333.484 -3.30455 -2.61491 0
M  V30 3409 H 332.159 -2.12071 -2.44556 0
M  V30 3410 H 331.066 -3.67052 -0.722746 0
M  V30 3411 H 332.399 -4.82543 -0.970219 0
M  V30 3412 N 334.051 0.0651679 -1.57465 0
M  V30 3413 C 334.981 1.07693 -2.07182 0
M  V30 3414 C 335.962 1.39962 -0.966673 0
M  V30 3415 O 337.147 1.49475 -1.2398 0
M  V30 3416 C 334.277 2.3885 -2.52127 0
M  V30 3417 C 333.231 2.20917 -3.66579 0
M  V30 3418 C 332.557 3.57515 -3.97601 0
M  V30 3419 C 333.857 1.62493 -4.9638 0
M  V30 3420 H 335.551 0.663199 -2.91962 0
M  V30 3421 H 333.097 0.317569 -1.40455 0
M  V30 3422 H 335.05 3.09928 -2.85522 0
M  V30 3423 H 333.774 2.82215 -1.64384 0
M  V30 3424 H 332.433 1.52279 -3.33477 0
M  V30 3425 H 332.081 3.98463 -3.06979 0
M  V30 3426 H 331.781 3.46353 -4.74672 0
M  V30 3427 H 333.305 4.30013 -4.33499 0
M  V30 3428 H 334.719 2.23445 -5.27963 0
M  V30 3429 H 333.116 1.62009 -5.77818 0
M  V30 3430 H 334.186 0.587041 -4.81333 0
M  V30 3431 N 335.529 1.53961 0.336706 0
M  V30 3432 C 336.439 1.85432 1.43708 0
M  V30 3433 C 337.455 0.745053 1.57242 0
M  V30 3434 O 338.631 1.03804 1.72588 0
M  V30 3435 C 335.696 2.06349 2.78605 0
M  V30 3436 C 334.757 3.30191 2.74358 0
M  V30 3437 C 333.99 3.50101 4.02822 0
M  V30 3438 O 334.213 2.7371 5.00439 0
M  V30 3439 O 333.147 4.43547 4.06878 0
M  V30 3440 H 336.973 2.78975 1.20028 0
M  V30 3441 H 334.558 1.39701 0.52952 0
M  V30 3442 H 336.44 2.21513 3.58483 0
M  V30 3443 H 335.115 1.15995 3.02203 0
M  V30 3444 H 334.022 3.20425 1.93078 0
M  V30 3445 H 335.355 4.2056 2.55715 0
M  V30 3446 N 337.007 -0.598083 1.45811 0
M  V30 3447 C 337.94 -1.7223 1.49706 0
M  V30 3448 C 338.918 -1.58732 0.352535 0
M  V30 3449 O 340.102 -1.80162 0.554438 0
M  V30 3450 C 337.229 -3.10148 1.3611 0
M  V30 3451 C 336.275 -3.42209 2.54549 0
M  V30 3452 S 337.108 -3.35989 4.16979 0
M  V30 3453 C 338.264 -4.76471 4.05865 0
M  V30 3454 H 338.497 -1.68665 2.44826 0
M  V30 3455 H 336.03 -0.775541 1.33509 0
M  V30 3456 H 337.988 -3.8972 1.28953 0
M  V30 3457 H 336.649 -3.11219 0.424451 0
M  V30 3458 H 335.842 -4.42652 2.40988 0
M  V30 3459 H 335.444 -2.70173 2.58617 0
M  V30 3460 H 337.736 -5.665 3.71596 0
M  V30 3461 H 338.679 -4.95089 5.06253 0
M  V30 3462 H 339.087 -4.52599 3.37364 0
M  V30 3463 N 338.485 -1.33259 -0.841409 0
M  V30 3464 C 339.448 -1.23221 -1.9326 0
M  V30 3465 C 340.448 -0.151895 -1.60081 0
M  V30 3466 O 341.638 -0.403246 -1.69468 0
M  V30 3467 C 338.77 -0.898123 -3.28856 0
M  V30 3468 H 339.963 -2.2021 -2.03587 0
M  V30 3469 H 337.516 -1.17281 -1.03319 0
M  V30 3470 H 338.251 0.0693841 -3.24226 0
M  V30 3471 H 338.036 -1.67934 -3.54317 0
M  V30 3472 H 339.526 -0.852563 -4.08805 0
M  V30 3473 N 339.963 1.05934 -1.16686 0
M  V30 3474 C 340.893 2.1546 -0.899949 0
M  V30 3475 C 341.874 1.69391 0.155154 0
M  V30 3476 O 343.059 1.94199 0.00648693 0
M  V30 3477 C 340.189 3.44939 -0.404241 0
M  V30 3478 C 339.143 4.04536 -1.39767 0
M  V30 3479 C 338.469 5.29268 -0.760216 0
M  V30 3480 C 339.769 4.42893 -2.76845 0
M  V30 3481 H 341.463 2.38046 -1.81588 0
M  V30 3482 H 339.009 1.14404 -0.874514 0
M  V30 3483 H 340.962 4.20901 -0.204971 0
M  V30 3484 H 339.686 3.21983 0.547206 0
M  V30 3485 H 338.345 3.30635 -1.58355 0
M  V30 3486 H 337.993 5.02611 0.197831 0
M  V30 3487 H 337.693 5.70101 -1.42332 0
M  V30 3488 H 339.217 6.07924 -0.57105 0
M  V30 3489 H 340.631 5.09921 -2.62019 0
M  V30 3490 H 339.028 4.94721 -3.39663 0
M  V30 3491 H 340.098 3.53584 -3.31823 0
M  V30 3492 N 341.441 0.965919 1.2453 0
M  V30 3493 C 342.404 0.499547 2.2369 0
M  V30 3494 C 343.404 -0.40294 1.5567 0
M  V30 3495 O 344.594 -0.19865 1.73064 0
M  V30 3496 C 341.726 -0.276792 3.39774 0
M  V30 3497 H 342.919 1.37613 2.66463 0
M  V30 3498 H 340.472 0.750324 1.37112 0
M  V30 3499 H 341.207 -1.17055 3.02438 0
M  V30 3500 H 340.992 0.370826 3.90343 0
M  V30 3501 H 342.482 -0.592175 4.1338 0
M  V30 3502 N 342.919 -1.39368 0.735821 0
M  V30 3503 C 344.165 -2.01272 0.293439 0
M  V30 3504 C 344.52 -1.57344 -1.10728 0
M  V30 3505 O 343.813 -0.792744 -1.74431 0
M  V30 3506 C 344.007 -3.5583 0.334651 0
M  V30 3507 C 343.836 -4.14764 1.73784 0
M  V30 3508 C 342.606 -4.47315 2.35026 0
M  V30 3509 C 344.804 -4.38246 2.69157 0
M  V30 3510 N 342.786 -4.91756 3.6749 0
M  V30 3511 C 344.157 -4.849 3.86357 0
M  V30 3512 C 346.212 -4.20315 2.66908 0
M  V30 3513 C 344.915 -5.15505 5.01645 0
M  V30 3514 C 346.941 -4.52033 3.8134 0
M  V30 3515 C 346.303 -4.98895 4.97276 0
M  V30 3516 H 342.402 -0.766756 0.153652 0
M  V30 3517 H 344.986 -1.69276 0.961967 0
M  V30 3518 H 343.157 -3.87212 -0.303527 0
M  V30 3519 H 344.889 -4.04503 -0.126358 0
M  V30 3520 H 341.644 -4.35143 1.86943 0
M  V30 3521 H 342.068 -5.18333 4.35499 0
M  V30 3522 H 346.71 -3.83287 1.78468 0
M  V30 3523 H 344.428 -5.51437 5.90713 0
M  V30 3524 H 348.014 -4.39781 3.80899 0
M  V30 3525 H 346.894 -5.22973 5.84353 0
M  V30 3526 N 344.397 -0.483516 -1.5 0
M  V30 3527 C 345.36 0.292965 -2.2732 0
M  V30 3528 C 346.36 0.909499 -1.32608 0
M  V30 3529 O 347.55 0.776745 -1.55924 0
M  V30 3530 C 344.682 1.41854 -3.09984 0
M  V30 3531 H 345.875 -0.385289 -2.97415 0
M  V30 3532 H 343.428 -0.237942 -1.54478 0
M  V30 3533 H 344.163 2.13148 -2.44414 0
M  V30 3534 H 343.948 0.982114 -3.79601 0
M  V30 3535 H 345.438 1.96597 -3.68429 0
M  V30 3536 N 345.875 1.56104 -0.216619 0
M  V30 3537 C 347.152 1.89988 0.465165 0
M  V30 3538 C 347.532 1.13326 1.78102 0
M  V30 3539 O 346.88 0.241033 2.27225 0
M  V30 3540 C 347.09 3.42646 0.662939 0
M  V30 3541 C 348.438 4.13311 0.972602 0
M  V30 3542 O 349.462 3.48217 0.749901 0
M  V30 3543 O 348.321 5.28396 1.39499 0
M  V30 3544 H 345.415 0.78979 0.245276 0
M  V30 3545 H 347.961 1.67721 -0.258436 0
M  V30 3546 H 346.733 3.90399 -0.26543 0
M  V30 3547 H 346.356 3.70677 1.43821 0
M  V30 3548 N 347.353 -0.0568162 1.57498 0
M  V30 3549 C 348.3 -1.06591 2.04712 0
M  V30 3550 C 349.27 -1.3758 0.930644 0
M  V30 3551 O 350.455 -1.48392 1.19935 0
M  V30 3552 C 347.595 -2.3701 2.50839 0
M  V30 3553 C 346.708 -2.12421 3.76167 0
M  V30 3554 C 345.843 -3.36511 4.11015 0
M  V30 3555 C 344.882 -3.07353 5.2934 0
M  V30 3556 N 344.019 -4.23816 5.59754 0
M  V30 3557 H 348.859 -0.65631 2.90683 0
M  V30 3558 H 346.396 -0.312481 1.43743 0
M  V30 3559 H 348.354 -3.13175 2.7564 0
M  V30 3560 H 346.984 -2.75744 1.67825 0
M  V30 3561 H 346.036 -1.2688 3.58616 0
M  V30 3562 H 347.348 -1.86894 4.62463 0
M  V30 3563 H 346.502 -4.21062 4.36797 0
M  V30 3564 H 345.241 -3.65128 3.23315 0
M  V30 3565 H 344.246 -2.212 5.03339 0
M  V30 3566 H 345.471 -2.80043 6.1867 0
M  V30 3567 H 343.417 -4.52436 4.75014 0
M  V30 3568 H 343.334 -4.01614 6.40501 0
M  V30 3569 H 344.602 -5.0932 5.90096 0
M  V30 3570 N 348.832 -1.54138 -0.328536 0
M  V30 3571 C 349.78 -1.83894 -1.42428 0
M  V30 3572 C 350.774 -0.710478 -1.53781 0
M  V30 3573 O 351.98 -0.894062 -1.56226 0
M  V30 3574 H 348.355 -0.582837 -0.475189 0
M  V30 3575 H 350.326 -2.75537 -1.14552 0
M  V30 3576 C 349.075 -2.07866 -2.78724 0
M  V30 3577 H 348.398 -2.94158 -2.7076 0
M  V30 3578 H 349.838 -2.32644 -3.54476 0
M  V30 3579 C 348.297 -0.868689 -3.25508 0
M  V30 3580 O 348.827 -0.0754908 -4.01629 0
M  V30 3581 N 347.033 -0.681711 -2.82491 0
M  V30 3582 H 346.58 -1.32838 -2.20708 0
M  V30 3583 H 346.538 0.126374 -3.14146 0
M  V30 3584 N 350.31 0.590341 -1.46126 0
M  V30 3585 C 351.557 1.34882 -1.5104 0
M  V30 3586 C 351.885 1.93849 -0.159021 0
M  V30 3587 O 351.14 1.76544 0.844436 0
M  V30 3588 C 351.439 2.5032 -2.55097 0
M  V30 3589 C 351.105 2.09394 -3.99331 0
M  V30 3590 C 349.767 1.97947 -4.38601 0
M  V30 3591 C 352.119 1.77712 -4.89967 0
M  V30 3592 C 349.447 1.53065 -5.66381 0
M  V30 3593 C 351.799 1.34312 -6.18177 0
M  V30 3594 C 350.463 1.21436 -6.56361 0
M  V30 3595 H 349.733 0.493568 -0.552695 0
M  V30 3596 H 352.38 0.665539 -1.79563 0
M  V30 3597 H 350.685 3.24062 -2.20207 0
M  V30 3598 H 352.382 3.08541 -2.56132 0
M  V30 3599 H 348.972 2.19235 -3.68285 0
M  V30 3600 H 353.156 1.85445 -4.60352 0
M  V30 3601 H 348.412 1.41733 -5.94745 0
M  V30 3602 H 352.586 1.08849 -6.87841 0
M  V30 3603 H 350.213 0.864345 -7.5527 0
M  V30 3604 N 351.788 1.33704 0.83433 0
M  V30 3605 C 353.204 1.13137 1.12571 0
M  V30 3606 C 353.404 -0.0747261 2.01361 0
M  V30 3607 O 352.46 -0.753647 2.4099 0
M  V30 3608 C 353.773 2.42105 1.78342 0
M  V30 3609 C 355.321 2.48054 1.90888 0
M  V30 3610 C 355.796 3.76995 2.60075 0
M  V30 3611 N 357.287 3.78092 2.67584 0
M  V30 3612 C 358.022 4.74574 3.21818 0
M  V30 3613 N 357.518 5.81434 3.76705 0
M  V30 3614 N 359.311 4.62044 3.20112 0
M  V30 3615 H 351.462 2.11 0.243489 0
M  V30 3616 H 353.725 0.932532 0.17055 0
M  V30 3617 H 353.431 3.30391 1.20561 0
M  V30 3618 H 353.305 2.54594 2.7832 0
M  V30 3619 H 355.692 1.60215 2.47821 0
M  V30 3620 H 355.773 2.39502 0.898459 0
M  V30 3621 H 355.417 4.65219 2.03799 0
M  V30 3622 H 355.347 3.82825 3.61597 0
M  V30 3623 H 357.838 3.00865 2.28667 0
M  V30 3624 H 358.151 6.51084 4.16305 0
M  V30 3625 H 356.496 5.85163 3.7498 0
M  V30 3626 H 359.687 3.77716 2.76493 0
M  V30 3627 H 359.86 5.37406 3.62076 0
M  V30 3628 N 353.266 -1.05314 1.17247 0
M  V30 3629 C 354.496 -1.81707 0.983166 0
M  V30 3630 C 354.904 -1.83222 -0.471822 0
M  V30 3631 O 354.247 -1.25721 -1.3394 0
M  V30 3632 C 354.309 -3.29134 1.44606 0
M  V30 3633 C 353.973 -3.51304 2.92292 0
M  V30 3634 C 354.97 -3.4353 3.90235 0
M  V30 3635 C 352.655 -3.78306 3.30439 0
M  V30 3636 C 354.649 -3.62442 5.24323 0
M  V30 3637 C 352.336 -3.96866 4.64694 0
M  V30 3638 C 353.334 -3.88933 5.61445 0
M  V30 3639 O 353.022 -4.06976 6.93272 0
M  V30 3640 H 352.754 -0.579476 0.348114 0
M  V30 3641 H 355.308 -1.33705 1.55924 0
M  V30 3642 H 353.538 -3.78046 0.813537 0
M  V30 3643 H 355.227 -3.87049 1.22262 0
M  V30 3644 H 355.993 -3.22648 3.62109 0
M  V30 3645 H 351.872 -3.83585 2.55702 0
M  V30 3646 H 355.416 -3.56165 5.99827 0
M  V30 3647 H 351.313 -4.1724 4.92525 0
M  V30 3648 H 352.081 -4.24209 6.99992 0
M  V30 3649 N 354.744 -0.972509 -1.24016 0
M  V30 3650 C 355.992 -0.635776 -1.91839 0
M  V30 3651 C 356.313 0.832312 -1.76345 0
M  V30 3652 O 355.583 1.5946 -1.13795 0
M  V30 3653 H 354.163 -0.232157 -0.710009 0
M  V30 3654 H 356.825 -1.23462 -1.50809 0
M  V30 3655 H 355.921 -0.880545 -2.99421 0
M  V30 3656 N 356.222 1.38976 -0.743202 0
M  V30 3657 C 357.132 2.3434 -0.110399 0
M  V30 3658 C 358.148 1.58741 0.712559 0
M  V30 3659 O 359.324 1.9099 0.639125 0
M  V30 3660 C 356.389 3.37812 0.780012 0
M  V30 3661 C 355.45 4.29263 -0.0561319 0
M  V30 3662 C 354.683 5.27793 0.791875 0
M  V30 3663 O 354.906 5.33043 2.03031 0
M  V30 3664 O 353.84 6.01512 0.216183 0
M  V30 3665 H 357.666 2.90129 -0.897714 0
M  V30 3666 H 355.251 1.40643 -0.503966 0
M  V30 3667 H 357.133 4.01194 1.28923 0
M  V30 3668 H 355.808 2.84395 1.546 0
M  V30 3669 H 354.715 3.69076 -0.611056 0
M  V30 3670 H 356.048 4.85907 -0.784531 0
M  V30 3671 N 357.7 0.491464 1.49741 0
M  V30 3672 C 358.977 -0.118984 1.95238 0
M  V30 3673 C 359.357 -1.55044 1.43264 0
M  V30 3674 O 358.705 -2.19287 0.642287 0
M  V30 3675 C 358.915 -0.0414187 3.48975 0
M  V30 3676 C 360.263 -0.220133 4.24029 0
M  V30 3677 O 361.287 -0.117055 3.56008 0
M  V30 3678 O 360.146 -0.430567 5.44801 0
M  V30 3679 H 357.24 -0.100536 0.820866 0
M  V30 3680 H 359.786 0.553322 1.60426 0
M  V30 3681 H 358.558 0.957214 3.79412 0
M  V30 3682 H 358.181 -0.754292 3.9038 0
M  V30 3683 N 359.178 -1.55987 0.224894 0
M  V30 3684 C 360.088 -2.24066 -0.69511 0
M  V30 3685 C 361.104 -1.24939 -1.21104 0
M  V30 3686 O 362.28 -1.5776 -1.25195 0
M  V30 3687 C 359.345 -2.90983 -1.88493 0
M  V30 3688 C 358.406 -4.05462 -1.41064 0
M  V30 3689 C 357.639 -4.69179 -2.54375 0
M  V30 3690 O 357.862 -4.31895 -3.72589 0
M  V30 3691 O 356.796 -5.58108 -2.25386 0
M  V30 3692 H 360.622 -3.03353 -0.145149 0
M  V30 3693 H 358.207 -1.49399 -0.00569476 0
M  V30 3694 H 360.089 -3.33209 -2.57972 0
M  V30 3695 H 358.764 -2.14653 -2.42293 0
M  V30 3696 H 357.671 -3.67798 -0.683774 0
M  V30 3697 H 359.004 -4.83545 -0.918985 0
M  V30 3698 N 360.656 0.0484629 -1.57525 0
M  V30 3699 C 361.604 1.07359 -2.06341 0
M  V30 3700 C 362.598 1.3865 -0.973269 0
M  V30 3701 O 363.804 1.37783 -1.15827 0
M  V30 3702 H 360.179 0.363662 -0.65822 0
M  V30 3703 H 362.15 0.635916 -2.91545 0
M  V30 3704 C 360.899 2.37198 -2.54229 0
M  V30 3705 H 360.222 2.13977 -3.37719 0
M  V30 3706 H 361.662 3.07319 -2.92115 0
M  V30 3707 C 360.121 3.04805 -1.43511 0
M  V30 3708 O 360.651 3.93848 -0.79034 0
M  V30 3709 N 358.857 2.65811 -1.17444 0
M  V30 3710 H 358.404 1.93488 -1.70059 0
M  V30 3711 H 358.362 3.11366 -0.435737 0
M  V30 3712 N 362.134 1.5431 0.320358 0
M  V30 3713 C 363.082 1.84647 1.4145 0
M  V30 3714 C 364.076 0.718624 1.53402 0
M  V30 3715 O 365.282 0.902335 1.5575 0
M  V30 3716 H 361.657 0.585349 0.472091 0
M  V30 3717 H 363.628 2.7614 1.13089 0
M  V30 3718 C 362.377 2.09341 2.77617 0
M  V30 3719 H 361.7 2.9559 2.69196 0
M  V30 3720 H 363.14 2.3452 3.53237 0
M  V30 3721 C 361.599 0.885939 3.25043 0
M  V30 3722 O 362.129 0.0967891 4.01583 0
M  V30 3723 N 360.335 0.696682 2.82125 0
M  V30 3724 H 359.882 1.34006 2.2 0
M  V30 3725 H 359.84 -0.109712 3.14209 0
M  V30 3726 N 363.613 -0.582584 1.46437 0
M  V30 3727 C 364.56 -1.69164 1.5701 0
M  V30 3728 C 365.53 -1.60847 0.414403 0
M  V30 3729 O 366.715 -1.80058 0.631171 0
M  V30 3730 C 363.855 -3.075 1.56646 0
M  V30 3731 C 362.968 -3.2644 2.82951 0
M  V30 3732 C 362.103 -4.55026 2.7409 0
M  V30 3733 C 361.142 -4.6731 3.95333 0
M  V30 3734 N 360.279 -5.87221 3.84858 0
M  V30 3735 H 365.119 -1.59464 2.51744 0
M  V30 3736 H 362.656 -0.777186 1.24893 0
M  V30 3737 H 364.614 -3.8757 1.5442 0
M  V30 3738 H 363.244 -3.16096 0.654439 0
M  V30 3739 H 362.296 -2.39974 2.95155 0
M  V30 3740 H 363.608 -3.31385 3.72808 0
M  V30 3741 H 362.762 -5.43324 2.6997 0
M  V30 3742 H 361.501 -4.52519 1.81873 0
M  V30 3743 H 360.506 -3.77429 3.99784 0
M  V30 3744 H 361.731 -4.71595 4.88646 0
M  V30 3745 H 359.677 -5.85712 2.95427 0
M  V30 3746 H 359.594 -5.93435 4.6837 0
M  V30 3747 H 360.862 -6.7795 3.84713 0
M  V30 3748 N 365.091 -1.34144 -0.827227 0
M  V30 3749 C 366.023 -1.21206 -1.9453 0
M  V30 3750 C 367.036 -0.140176 -1.62195 0
M  V30 3751 O 368.225 -0.391647 -1.7415 0
M  V30 3752 C 365.325 -0.839141 -3.28347 0
M  V30 3753 C 364.498 -2.0051 -3.88734 0
M  V30 3754 C 363.557 -1.61128 -5.00923 0
M  V30 3755 O 362.583 -2.32726 -5.19449 0
M  V30 3756 N 363.785 -0.522958 -5.7814 0
M  V30 3757 H 366.55 -2.17525 -2.06162 0
M  V30 3758 H 364.111 -1.27043 -1.00358 0
M  V30 3759 H 366.103 -0.557556 -4.00841 0
M  V30 3760 H 364.673 0.0337293 -3.12582 0
M  V30 3761 H 363.893 -2.45166 -3.08686 0
M  V30 3762 H 365.181 -2.78498 -4.25812 0
M  V30 3763 H 364.579 0.0723518 -5.65654 0
M  V30 3764 H 363.136 -0.301089 -6.51104 0
M  V30 3765 N 366.569 1.04691 -1.17803 0
M  V30 3766 C 367.799 1.81183 -0.992788 0
M  V30 3767 C 368.207 1.8347 0.462098 0
M  V30 3768 O 367.55 1.2643 1.33271 0
M  V30 3769 C 367.612 3.28363 -1.46349 0
M  V30 3770 C 367.276 3.49749 -2.94151 0
M  V30 3771 C 368.273 3.41456 -3.92051 0
M  V30 3772 C 365.958 3.76548 -3.32441 0
M  V30 3773 C 367.952 3.59656 -5.26238 0
M  V30 3774 C 365.639 3.94396 -4.66792 0
M  V30 3775 C 366.637 3.8595 -5.635 0
M  V30 3776 O 366.325 4.03294 -6.9542 0
M  V30 3777 H 366.057 0.577622 -0.351182 0
M  V30 3778 H 368.611 1.32876 -1.5663 0
M  V30 3779 H 366.841 3.77609 -0.833574 0
M  V30 3780 H 368.53 3.86395 -1.24313 0
M  V30 3781 H 369.296 3.20723 -3.63815 0
M  V30 3782 H 365.175 3.82224 -2.57732 0
M  V30 3783 H 368.719 3.52979 -6.01707 0
M  V30 3784 H 364.616 4.14622 -4.94731 0
M  V30 3785 H 365.384 4.2049 -7.02232 0
M  V30 3786 N 368.047 0.979072 1.23499 0
M  V30 3787 C 368.979 0.476271 2.24197 0
M  V30 3788 C 369.992 -0.421166 1.57258 0
M  V30 3789 O 371.181 -0.225515 1.7707 0
M  V30 3790 C 368.281 -0.330503 3.37285 0
M  V30 3791 C 367.454 0.559744 4.33804 0
M  V30 3792 C 366.513 -0.192954 5.25846 0
M  V30 3793 O 365.539 0.416978 5.67671 0
M  V30 3794 N 366.741 -1.47932 5.61334 0
M  V30 3795 H 369.506 1.34211 2.67969 0
M  V30 3796 H 367.067 0.852189 1.37657 0
M  V30 3797 H 369.059 -0.842361 3.95836 0
M  V30 3798 H 367.629 -1.09734 2.92707 0
M  V30 3799 H 366.849 1.25245 3.73775 0
M  V30 3800 H 368.137 1.1665 4.95248 0
M  V30 3801 H 367.535 -1.9964 5.29302 0
M  V30 3802 H 366.092 -1.93664 6.22364 0
M  V30 3803 N 369.525 -1.3858 0.750561 0
M  V30 3804 C 370.941 -1.53759 0.427824 0
M  V30 3805 C 371.141 -1.71401 -1.05943 0
M  V30 3806 O 370.197 -1.72331 -1.84549 0
M  V30 3807 C 371.51 -2.74642 1.22443 0
M  V30 3808 C 373.058 -2.88489 1.2142 0
M  V30 3809 C 373.533 -4.12329 1.9937 0
M  V30 3810 N 375.024 -4.194 1.96616 0
M  V30 3811 C 375.759 -5.14209 2.53727 0
M  V30 3812 N 375.255 -6.14709 3.19539 0
M  V30 3813 N 377.048 -5.06537 2.43673 0
M  V30 3814 H 369.199 -1.25377 1.71447 0
M  V30 3815 H 371.462 -0.608844 0.726645 0
M  V30 3816 H 371.168 -2.68 2.27747 0
M  V30 3817 H 371.042 -3.67745 0.839273 0
M  V30 3818 H 373.429 -2.94614 0.169232 0
M  V30 3819 H 373.51 -1.96406 1.63885 0
M  V30 3820 H 373.154 -4.06966 3.03877 0
M  V30 3821 H 373.084 -5.03486 1.54302 0
M  V30 3822 H 375.575 -3.47421 1.48684 0
M  V30 3823 H 375.888 -6.8354 3.60545 0
M  V30 3824 H 374.233 -6.1505 3.23633 0
M  V30 3825 H 377.424 -4.26962 1.91889 0
M  V30 3826 H 377.597 -5.80245 2.88479 0
M  V30 3827 N 371.003 -0.499398 -1.49478 0
M  V30 3828 C 371.951 0.293604 -2.3074 0
M  V30 3829 C 372.945 0.96427 -1.39277 0
M  V30 3830 O 374.151 0.892141 -1.56336 0
M  V30 3831 H 370.526 0.113541 -0.743379 0
M  V30 3832 H 372.497 -0.411772 -2.95545 0
M  V30 3833 C 371.246 1.3462 -3.20582 0
M  V30 3834 H 370.569 0.83954 -3.90886 0
M  V30 3835 H 372.009 1.87308 -3.80384 0
M  V30 3836 C 370.468 2.36351 -2.40083 0
M  V30 3837 O 370.998 3.422 -2.10385 0
M  V30 3838 N 369.204 2.0878 -2.02137 0
M  V30 3839 H 368.751 1.22723 -2.26488 0
M  V30 3840 H 368.709 2.77075 -1.48583 0
M  V30 3841 N 372.481 1.55866 -0.233164 0
M  V30 3842 C 373.444 2.1953 0.658715 0
M  V30 3843 C 374.444 1.16053 1.11303 0
M  V30 3844 O 375.634 1.41218 1.01996 0
M  V30 3845 C 372.766 2.82791 1.90373 0
M  V30 3846 H 373.959 2.99721 0.10347 0
M  V30 3847 H 371.512 1.56291 0.0164245 0
M  V30 3848 H 372.247 2.06501 2.50056 0
M  V30 3849 H 372.032 3.58578 1.58632 0
M  V30 3850 H 373.522 3.31556 2.53891 0
M  V30 3851 N 373.959 -0.0401083 1.57549 0
M  V30 3852 C 374.869 -1.06133 2.0922 0
M  V30 3853 C 375.885 -1.40356 1.0284 0
M  V30 3854 O 377.061 -1.49897 1.34509 0
M  V30 3855 C 374.126 -2.34658 2.55218 0
M  V30 3856 C 373.187 -2.07117 3.76033 0
M  V30 3857 C 372.42 -3.29514 4.19829 0
M  V30 3858 O 372.643 -4.39794 3.63232 0
M  V30 3859 O 371.577 -3.15863 5.12362 0
M  V30 3860 H 375.403 -0.652244 2.96613 0
M  V30 3861 H 372.988 -0.256368 1.47184 0
M  V30 3862 H 374.87 -3.10239 2.85184 0
M  V30 3863 H 373.545 -2.74883 1.70941 0
M  V30 3864 H 372.452 -1.29139 3.51104 0
M  V30 3865 H 373.785 -1.71754 4.61261 0
M  V30 3866 N 375.437 -1.54477 -0.31217 0
M  V30 3867 C 376.369 -1.81011 -1.40598 0
M  V30 3868 C 377.382 -0.692546 -1.47335 0
M  V30 3869 O 378.571 -0.969847 -1.49854 0
M  V30 3870 C 375.671 -1.92307 -2.79054 0
M  V30 3871 C 374.844 -3.22594 -2.95384 0
M  V30 3872 C 373.903 -3.24448 -4.1427 0
M  V30 3873 O 372.929 -3.98035 -4.06887 0
M  V30 3874 N 374.131 -2.49042 -5.24365 0
M  V30 3875 H 376.896 -2.75408 -1.18196 0
M  V30 3876 H 374.457 -1.53914 -0.502202 0
M  V30 3877 H 376.449 -1.90962 -3.56813 0
M  V30 3878 H 375.019 -1.04955 -2.94454 0
M  V30 3879 H 374.239 -3.36806 -2.04831 0
M  V30 3880 H 375.527 -4.08593 -3.03198 0
M  V30 3881 H 374.925 -1.88867 -5.33241 0
M  V30 3882 H 373.482 -2.53463 -6.005 0
M  V30 3883 N 376.915 0.57481 -1.46744 0
M  V30 3884 C 378.14 1.36341 -1.56288 0
M  V30 3885 C 378.565 1.86954 -0.207347 0
M  V30 3886 O 377.923 1.62006 0.813871 0
M  V30 3887 C 377.971 2.52147 -2.57787 0
M  V30 3888 O 377.075 3.53834 -2.11838 0
M  V30 3889 H 376.416 0.405713 -0.525636 0
M  V30 3890 H 378.946 0.696453 -1.92382 0
M  V30 3891 H 378.956 2.98958 -2.77648 0
M  V30 3892 H 377.631 2.14663 -3.5622 0
M  V30 3893 H 376.208 3.1345 -2.01999 0
M  V30 3894 N 378.394 1.34581 0.820102 0
M  V30 3895 C 379.81 1.14325 1.11364 0
M  V30 3896 C 380.01 -0.0533648 2.01429 0
M  V30 3897 O 379.066 -0.728044 2.41776 0
M  V30 3898 C 380.379 2.43983 1.75764 0
M  V30 3899 C 381.927 2.50065 1.88246 0
M  V30 3900 C 382.402 3.79732 2.56061 0
M  V30 3901 N 383.893 3.80908 2.63558 0
M  V30 3902 C 384.628 4.77961 3.16766 0
M  V30 3903 N 384.124 5.85397 3.70517 0
M  V30 3904 N 385.917 4.65413 3.15194 0
M  V30 3905 H 378.068 2.11246 0.221096 0
M  V30 3906 H 380.331 0.934289 0.160649 0
M  V30 3907 H 380.037 3.31651 1.1705 0
M  V30 3908 H 379.911 2.57531 2.75604 0
M  V30 3909 H 382.298 1.62834 2.46108 0
M  V30 3910 H 382.379 2.40442 0.873006 0
M  V30 3911 H 382.023 4.67354 1.98853 0
M  V30 3912 H 381.953 3.86639 3.57516 0
M  V30 3913 H 384.444 3.03274 2.25463 0
M  V30 3914 H 384.757 6.55463 4.09376 0
M  V30 3915 H 383.102 5.89107 3.68752 0
M  V30 3916 H 386.293 3.80627 2.72471 0
M  V30 3917 H 386.466 5.41216 3.56356 0
M  V30 3918 N 379.872 -1.04064 1.18357 0
M  V30 3919 C 380.835 -2.10243 0.912707 0
M  V30 3920 C 381.835 -1.60477 -0.101928 0
M  V30 3921 O 383.025 -1.73703 0.131517 0
M  V30 3922 C 380.157 -3.38893 0.369387 0
M  V30 3923 H 381.35 -2.35706 1.85426 0
M  V30 3924 H 378.903 -1.20489 0.995594 0
M  V30 3925 H 379.638 -3.19094 -0.578776 0
M  V30 3926 H 379.423 -3.76331 1.1008 0
M  V30 3927 H 380.913 -4.17128 0.198575 0
M  V30 3928 N 381.35 -0.985608 -1.22978 0
M  V30 3929 C 382.596 -0.65836 -1.91816 0
M  V30 3930 C 382.929 0.806692 -1.76653 0
M  V30 3931 O 382.204 1.58252 -1.13078 0
M  V30 3932 C 382.487 -1.056 -3.44268 0
M  V30 3933 C 382.34 -2.57906 -3.68516 0
M  V30 3934 C 383.659 -0.603781 -4.35939 0
M  V30 3935 H 380.778 -0.24065 -0.696604 0
M  V30 3936 H 383.42 -1.22783 -1.44998 0
M  V30 3937 H 381.57 -0.571445 -3.84274 0
M  V30 3938 H 383.242 -3.13976 -3.3796 0
M  V30 3939 H 381.485 -3.00305 -3.13048 0
M  V30 3940 H 382.156 -2.80779 -4.75255 0
M  V30 3941 H 384.632 -1.01987 -4.03408 0
M  V30 3942 H 383.508 -0.910383 -5.41298 0
M  V30 3943 H 383.769 0.495761 -4.39312 0
M  V30 3944 N 382.828 1.3818 -0.7579 0
M  V30 3945 C 383.758 2.33027 -0.148597 0
M  V30 3946 C 384.739 1.55085 0.69875 0
M  V30 3947 O 385.924 1.83384 0.639053 0
M  V30 3948 C 383.054 3.3928 0.742034 0
M  V30 3949 C 382.008 4.28 -0.00291946 0
M  V30 3950 C 381.334 5.25146 1.00625 0
M  V30 3951 C 382.634 5.08938 -1.17385 0
M  V30 3952 H 384.328 2.84231 -0.940909 0
M  V30 3953 H 381.874 1.36659 -0.453908 0
M  V30 3954 H 383.827 4.046 1.17799 0
M  V30 3955 H 382.551 2.86569 1.56671 0
M  V30 3956 H 381.21 3.64192 -0.419504 0
M  V30 3957 H 380.858 4.68721 1.8251 0
M  V30 3958 H 380.558 5.85361 0.512428 0
M  V30 3959 H 382.082 5.93342 1.44143 0
M  V30 3960 H 383.496 5.67474 -0.815224 0
M  V30 3961 H 381.893 5.7841 -1.59882 0
M  V30 3962 H 382.963 4.42424 -1.98468 0
M  V30 3963 N 384.306 0.507319 1.49211 0
M  V30 3964 C 385.722 0.163682 1.58758 0
M  V30 3965 C 385.922 -1.33208 1.51188 0
M  V30 3966 O 384.978 -2.10855 1.38911 0
M  V30 3967 C 386.291 0.746095 2.91297 0
M  V30 3968 C 387.839 0.712773 3.04776 0
M  V30 3969 C 388.314 1.27336 4.39943 0
M  V30 3970 N 389.805 1.23433 4.46451 0
M  V30 3971 C 390.54 1.63821 5.495 0
M  V30 3972 N 390.036 2.11832 6.5962 0
M  V30 3973 N 391.829 1.55198 5.4025 0
M  V30 3974 H 383.98 1.47972 1.52375 0
M  V30 3975 H 386.243 0.614147 0.722168 0
M  V30 3976 H 385.949 1.79534 3.02424 0
M  V30 3977 H 385.823 0.210137 3.76614 0
M  V30 3978 H 388.21 -0.327656 2.93275 0
M  V30 3979 H 388.291 1.28595 2.21127 0
M  V30 3980 H 387.935 2.3126 4.52196 0
M  V30 3981 H 387.865 0.676066 5.22242 0
M  V30 3982 H 390.356 0.882627 3.67448 0
M  V30 3983 H 390.669 2.40703 7.34358 0
M  V30 3984 H 389.014 2.1581 6.60644 0
M  V30 3985 H 392.205 1.17505 4.53112 0
M  V30 3986 H 392.378 1.86997 6.20432 0
M  V30 3987 N 385.784 -1.5574 0.241426 0
M  V30 3988 C 386.694 -2.2479 -0.671305 0
M  V30 3989 C 387.71 -1.26217 -1.19772 0
M  V30 3990 O 388.886 -1.59079 -1.23514 0
M  V30 3991 C 385.951 -2.92966 -1.85396 0
M  V30 3992 C 385.012 -4.06935 -1.36756 0
M  V30 3993 C 384.245 -4.71851 -2.49384 0
M  V30 3994 O 384.468 -4.35823 -3.67987 0
M  V30 3995 O 383.402 -5.60467 -2.19454 0
M  V30 3996 H 387.228 -3.0349 -0.112966 0
M  V30 3997 H 384.813 -1.49397 0.0101513 0
M  V30 3998 H 386.695 -3.35927 -2.54423 0
M  V30 3999 H 385.37 -2.17211 -2.40002 0
M  V30 4000 H 384.277 -3.68503 -0.644726 0
M  V30 4001 H 385.61 -4.84492 -0.867647 0
M  V30 4002 N 387.262 0.0317525 -1.57568 0
M  V30 4003 C 388.487 0.738664 -1.938 0
M  V30 4004 C 388.912 1.68242 -0.841208 0
M  V30 4005 O 388.27 1.80157 0.203267 0
M  V30 4006 C 388.318 1.47417 -3.29091 0
M  V30 4007 O 387.422 2.5872 -3.2115 0
M  V30 4008 H 386.763 0.198856 -0.633524 0
M  V30 4009 H 389.293 -0.0119713 -2.04596 0
M  V30 4010 H 389.303 1.84468 -3.63917 0
M  V30 4011 H 387.978 0.781988 -4.08482 0
M  V30 4012 H 386.555 2.24231 -2.97951 0
M  V30 4013 N 388.74 1.54641 0.303973 0
M  V30 4014 C 389.67 1.88386 1.3796 0
M  V30 4015 C 390.651 0.742485 1.5304 0
M  V30 4016 O 391.836 0.997959 1.66597 0
M  V30 4017 C 388.966 2.12854 2.74427 0
M  V30 4018 C 387.92 3.28702 2.74115 0
M  V30 4019 C 387.246 3.38582 4.13844 0
M  V30 4020 C 388.546 4.65881 2.3612 0
M  V30 4021 H 390.24 2.78474 1.09966 0
M  V30 4022 H 387.786 1.33988 0.527556 0
M  V30 4023 H 389.739 2.35047 3.49758 0
M  V30 4024 H 388.463 1.19535 3.03939 0
M  V30 4025 H 387.122 3.06428 2.0124 0
M  V30 4026 H 386.77 2.42784 4.40528 0
M  V30 4027 H 386.47 4.16453 4.14537 0
M  V30 4028 H 387.994 3.63031 4.90959 0
M  V30 4029 H 389.408 4.87823 3.01167 0
M  V30 4030 H 387.805 5.46444 2.48031 0
M  V30 4031 H 388.875 4.66799 1.3125 0
M  V30 4032 N 390.218 -0.567019 1.47046 0
M  V30 4033 C 391.148 -1.68482 1.61667 0
M  V30 4034 C 392.129 -1.6358 0.466418 0
M  V30 4035 O 393.314 -1.81354 0.694574 0
M  V30 4036 C 390.444 -3.07124 1.62148 0
M  V30 4037 C 389.398 -3.26867 2.76301 0
M  V30 4038 C 388.724 -4.66196 2.61849 0
M  V30 4039 C 390.024 -3.13186 4.17986 0
M  V30 4040 H 391.718 -1.56502 2.5524 0
M  V30 4041 H 389.264 -0.751486 1.22836 0
M  V30 4042 H 391.217 -3.8516 1.70968 0
M  V30 4043 H 389.941 -3.2004 0.651287 0
M  V30 4044 H 388.6 -2.51237 2.66975 0
M  V30 4045 H 388.248 -4.75898 1.62879 0
M  V30 4046 H 387.948 -4.80356 3.38425 0
M  V30 4047 H 389.472 -5.46379 2.72584 0
M  V30 4048 H 390.886 -3.81049 4.2834 0
M  V30 4049 H 389.283 -3.3886 4.95272 0
M  V30 4050 H 390.353 -2.10057 4.3704 0
M  V30 4051 N 391.696 -1.35014 -0.812953 0
M  V30 4052 C 392.629 -1.21761 -1.93001 0
M  V30 4053 C 393.607 -0.10694 -1.62248 0
M  V30 4054 O 394.791 -0.273891 -1.865 0
M  V30 4055 C 391.918 -0.873404 -3.27245 0
M  V30 4056 C 390.964 -1.99523 -3.76952 0
M  V30 4057 S 391.797 -3.61009 -3.95516 0
M  V30 4058 C 392.953 -3.28651 -5.32672 0
M  V30 4059 H 393.186 -2.16315 -2.03948 0
M  V30 4060 H 390.719 -1.20156 -0.969631 0
M  V30 4061 H 392.677 -0.68161 -4.04802 0
M  V30 4062 H 391.338 0.053971 -3.14054 0
M  V30 4063 H 390.531 -1.70838 -4.74163 0
M  V30 4064 H 390.133 -2.14503 -3.06373 0
M  V30 4065 H 392.425 -2.81085 -6.1644 0
M  V30 4066 H 393.368 -4.25039 -5.66346 0
M  V30 4067 H 393.776 -2.6458 -4.98656 0
M  V30 4068 N 393.175 1.03435 -1.18907 0
M  V30 4069 C 394.138 2.09756 -0.923844 0
M  V30 4070 C 395.138 1.60528 0.093416 0
M  V30 4071 O 396.328 1.73631 -0.140727 0
M  V30 4072 C 393.46 3.38692 -0.387354 0
M  V30 4073 H 394.653 2.34719 -1.86674 0
M  V30 4074 H 392.206 1.19959 -1.00197 0
M  V30 4075 H 392.941 3.19396 0.561845 0
M  V30 4076 H 392.726 3.75742 -1.12074 0
M  V30 4077 H 394.216 4.17016 -0.220694 0
M  V30 4078 N 394.653 0.992116 1.22453 0
M  V30 4079 C 395.586 0.486701 2.22949 0
M  V30 4080 C 396.564 -0.45259 1.56174 0
M  V30 4081 O 397.748 -0.378317 1.84665 0
M  V30 4082 C 394.875 -0.294537 3.37417 0
M  V30 4083 C 393.921 0.590628 4.22391 0
M  V30 4084 S 394.754 2.04546 4.94895 0
M  V30 4085 C 395.91 1.27369 6.12803 0
M  V30 4086 H 396.143 1.33828 2.65475 0
M  V30 4087 H 393.676 0.799023 1.32117 0
M  V30 4088 H 395.634 -0.739241 4.03789 0
M  V30 4089 H 394.295 -1.12139 2.934 0
M  V30 4090 H 393.488 -0.0104375 5.03999 0
M  V30 4091 H 393.09 0.972064 3.61147 0
M  V30 4092 H 395.382 0.540943 6.75337 0
M  V30 4093 H 396.325 2.06502 6.7732 0
M  V30 4094 H 396.733 0.787324 5.58983 0
M  V30 4095 N 396.131 -1.37776 0.765217 0
M  V30 4096 C 397.371 -2.01691 0.331669 0
M  V30 4097 C 397.735 -1.59432 -1.06983 0
M  V30 4098 O 398.936 -2.15761 -1.60314 0
M  V30 4099 C 397.207 -3.54385 0.463261 0
M  V30 4100 S 398.766 -4.38652 0.114011 0
M  V30 4101 H 395.584 -0.699387 0.127979 0
M  V30 4102 H 398.186 -1.68084 0.998396 0
M  V30 4103 H 396.89 -3.82629 1.48401 0
M  V30 4104 H 396.421 -3.92783 -0.220246 0
M  V30 4105 H 398.436 -4.84021 -1.09261 0
M  V30 4106 N 397.609 -0.515225 -1.4894 0
M  V30 4107 C 398.858 0.0261361 -2.01683 0
M  V30 4108 C 399.171 1.36719 -1.39883 0
M  V30 4109 O 400.377 1.99606 -1.84037 0
M  V30 4110 C 398.833 0.0970111 -3.59769 0
M  V30 4111 C 398.441 -1.23825 -4.30548 0
M  V30 4112 C 400.185 0.587981 -4.20408 0
M  V30 4113 C 398.092 -1.12877 -5.80528 0
M  V30 4114 H 397.022 0.0135398 -0.753878 0
M  V30 4115 H 399.673 -0.656787 -1.71343 0
M  V30 4116 H 398.055 0.844694 -3.86886 0
M  V30 4117 H 399.229 -2.00034 -4.15118 0
M  V30 4118 H 397.544 -1.66379 -3.81716 0
M  V30 4119 H 400.141 0.68763 -5.3026 0
M  V30 4120 H 400.484 1.59026 -3.84729 0
M  V30 4121 H 401.017 -0.103582 -3.97665 0
M  V30 4122 H 397.756 -2.10575 -6.20756 0
M  V30 4123 H 397.276 -0.407799 -5.98412 0
M  V30 4124 H 398.955 -0.813332 -6.41868 0
M  V30 4125 N 399.087 1.5561 -0.249682 0
M  V30 4126 C 400.503 1.59254 0.105103 0
M  V30 4127 C 400.703 1.26685 1.56694 0
M  V30 4128 O 399.759 1.0155 2.31179 0
M  V30 4129 C 401.072 2.99687 -0.246592 0
M  V30 4130 C 402.62 3.12416 -0.191118 0
M  V30 4131 C 403.095 4.55074 -0.516885 0
M  V30 4132 N 404.586 4.60835 -0.467489 0
M  V30 4133 C 405.321 5.69201 -0.69268 0
M  V30 4134 N 404.817 6.85817 -0.981146 0
M  V30 4135 N 406.61 5.58635 -0.623198 0
M  V30 4136 H 398.761 1.75049 -1.20298 0
M  V30 4137 H 401.024 0.815003 -0.484225 0
M  V30 4138 H 400.73 3.28267 -1.26228 0
M  V30 4139 H 400.604 3.74798 0.424962 0
M  V30 4140 H 402.991 2.83615 0.815247 0
M  V30 4141 H 403.072 2.39573 -0.896563 0
M  V30 4142 H 402.716 4.84596 -1.52082 0
M  V30 4143 H 402.646 5.26181 0.210068 0
M  V30 4144 H 405.137 3.7705 -0.253373 0
M  V30 4145 H 405.45 7.64341 -1.14032 0
M  V30 4146 H 403.795 6.87494 -1.01865 0
M  V30 4147 H 406.986 4.66406 -0.397863 0
M  V30 4148 H 407.159 6.43017 -0.802093 0
M  V30 4149 N 400.565 -0.0233959 1.57583 0
M  V30 4150 C 401.842 -0.748794 1.807 0
M  V30 4151 C 402.222 -1.9327 0.849106 0
M  V30 4152 O 401.57 -2.28247 -0.107468 0
M  V30 4153 C 401.78 -1.17651 3.28571 0
M  V30 4154 C 403.128 -1.59008 3.93702 0
M  V30 4155 O 404.152 -1.27094 3.32755 0
M  V30 4156 O 403.011 -2.18264 5.01022 0
M  V30 4157 H 400.105 -0.362578 0.743281 0
M  V30 4158 H 402.651 0.000261958 1.697 0
M  V30 4159 H 401.423 -0.331603 3.89892 0
M  V30 4160 H 401.046 -1.98541 3.44481 0
M  V30 4161 N 402.043 -1.548 -0.295768 0
M  V30 4162 C 402.976 -1.81003 -1.38972 0
M  V30 4163 C 403.954 -0.661544 -1.48534 0
M  V30 4164 O 405.138 -0.902074 -1.65514 0
M  V30 4165 C 402.265 -1.95141 -2.76835 0
M  V30 4166 C 401.311 -3.17592 -2.84671 0
M  V30 4167 S 402.144 -4.75531 -2.46232 0
M  V30 4168 C 403.3 -4.92613 -3.86114 0
M  V30 4169 H 403.533 -2.73507 -1.16537 0
M  V30 4170 H 401.066 -1.46278 -0.494168 0
M  V30 4171 H 403.024 -2.03972 -3.56238 0
M  V30 4172 H 401.685 -1.03565 -2.96535 0
M  V30 4173 H 400.878 -3.24303 -3.85803 0
M  V30 4174 H 400.48 -3.07235 -2.13267 0
M  V30 4175 H 402.772 -4.76957 -4.81164 0
M  V30 4176 H 403.715 -5.94698 -3.8437 0
M  V30 4177 H 404.123 -4.2073 -3.76359 0
M  V30 4178 N 403.521 0.559213 -1.47345 0
M  V30 4179 C 404.454 1.68201 -1.5422 0
M  V30 4180 C 405.432 1.57742 -0.394497 0
M  V30 4181 O 406.616 1.78628 -0.60201 0
M  V30 4182 C 403.743 3.0643 -1.44285 0
M  V30 4183 C 402.789 3.3534 -2.63532 0
M  V30 4184 S 403.622 3.24816 -4.25741 0
M  V30 4185 C 404.778 4.65542 -4.18355 0
M  V30 4186 H 405.011 1.62114 -2.49211 0
M  V30 4187 H 402.544 0.739871 -1.35519 0
M  V30 4188 H 404.502 3.86164 -1.3924 0
M  V30 4189 H 403.163 3.09984 -0.506816 0
M  V30 4190 H 402.356 4.36107 -2.52639 0
M  V30 4191 H 401.958 2.63221 -2.65689 0
M  V30 4192 H 404.25 5.56449 -3.86485 0
M  V30 4193 H 405.193 4.81493 -5.19202 0
M  V30 4194 H 405.601 4.43495 -3.49246 0
M  V30 4195 N 404.999 1.35443 0.805782 0
M  V30 4196 C 405.931 1.24285 1.92577 0
M  V30 4197 C 406.944 0.165962 1.61952 0
M  V30 4198 O 408.133 0.419303 1.73505 0
M  V30 4199 C 405.233 0.891272 3.2697 0
M  V30 4200 C 404.406 2.06669 3.85495 0
M  V30 4201 C 403.465 1.69077 4.98297 0
M  V30 4202 O 402.491 2.4096 5.15681 0
M  V30 4203 N 403.693 0.614869 5.77234 0
M  V30 4204 H 406.458 2.20777 2.02676 0
M  V30 4205 H 404.019 1.28623 0.983243 0
M  V30 4206 H 406.011 0.621256 3.99903 0
M  V30 4207 H 404.581 0.016004 3.12596 0
M  V30 4208 H 403.801 2.50046 3.04747 0
M  V30 4209 H 405.089 2.85237 4.21328 0
M  V30 4210 H 404.487 0.017648 5.65697 0
M  V30 4211 H 403.044 0.404636 6.50543 0
M  V30 4212 N 406.477 -1.02803 1.19454 0
M  V30 4213 C 407.725 -1.75869 0.995722 0
M  V30 4214 C 408.046 -1.89138 -0.474543 0
M  V30 4215 O 407.316 -1.42558 -1.34366 0
M  V30 4216 H 405.896 -0.651511 0.365435 0
M  V30 4217 H 408.558 -1.24004 1.50363 0
M  V30 4218 H 407.654 -2.76661 1.44447 0
M  V30 4219 N 407.956 -0.998596 -1.21925 0
M  V30 4220 C 408.904 -0.546641 -2.26085 0
M  V30 4221 C 409.898 0.405576 -1.64473 0
M  V30 4222 O 411.104 0.277471 -1.77849 0
M  V30 4223 H 407.479 -0.158403 -0.735127 0
M  V30 4224 H 409.45 -1.43645 -2.61551 0
M  V30 4225 C 408.199 0.117388 -3.47502 0
M  V30 4226 H 407.522 -0.606277 -3.95176 0
M  V30 4227 H 408.962 0.396993 -4.22137 0
M  V30 4228 C 407.421 1.35455 -3.0847 0
M  V30 4229 O 407.951 2.44944 -3.18379 0
M  V30 4230 N 406.157 1.23191 -2.63196 0
M  V30 4231 H 405.704 0.341006 -2.55333 0
M  V30 4232 H 405.662 2.06071 -2.37449 0
M  V30 4233 N 409.434 1.37368 -0.772513 0
M  V30 4234 C 410.659 2.0447 -0.347386 0
M  V30 4235 C 411.084 1.57882 1.0225 0
M  V30 4236 O 410.442 0.73941 1.65537 0
M  V30 4237 C 410.49 3.58369 -0.400479 0
M  V30 4238 O 409.594 4.0803 0.598789 0
M  V30 4239 H 408.935 0.646773 -0.15027 0
M  V30 4240 H 411.465 1.75667 -1.04892 0
M  V30 4241 H 411.475 4.07183 -0.258045 0
M  V30 4242 H 410.15 3.91633 -1.39986 0
M  V30 4243 H 408.727 3.70534 0.419411 0
M  V30 4244 N 410.912 0.523116 1.48665 0
M  V30 4245 C 411.859 -0.243398 2.29513 0
M  V30 4246 C 412.829 -0.940139 1.36933 0
M  V30 4247 O 414.014 -0.942503 1.65896 0
M  V30 4248 C 411.154 -1.28855 3.20141 0
M  V30 4249 C 410.267 -0.60135 4.27794 0
M  V30 4250 C 409.402 -1.62884 5.05611 0
M  V30 4251 C 408.441 -0.924726 6.05075 0
M  V30 4252 N 407.578 -1.89744 6.75975 0
M  V30 4253 H 412.418 0.452234 2.94549 0
M  V30 4254 H 409.955 0.234858 1.45213 0
M  V30 4255 H 411.913 -1.90674 3.71079 0
M  V30 4256 H 410.543 -1.95266 2.57043 0
M  V30 4257 H 409.595 0.130623 3.80176 0
M  V30 4258 H 410.907 -0.0481585 4.98777 0
M  V30 4259 H 410.061 -2.32149 5.60528 0
M  V30 4260 H 408.8 -2.21592 4.34452 0
M  V30 4261 H 407.805 -0.217966 5.49368 0
M  V30 4262 H 409.03 -0.343851 6.78229 0
M  V30 4263 H 406.976 -2.47373 6.07571 0
M  V30 4264 H 406.893 -1.3955 7.43009 0
M  V30 4265 H 408.161 -2.58229 7.35485 0
M  V30 4266 N 412.39 -1.55475 0.257931 0
M  V30 4267 C 413.32 -2.24815 -0.630912 0
M  V30 4268 C 414.301 -1.23224 -1.17259 0
M  V30 4269 O 415.486 -1.51904 -1.20991 0
M  V30 4270 C 412.616 -2.95609 -1.82298 0
M  V30 4271 C 411.57 -4.03982 -1.41359 0
M  V30 4272 C 410.896 -4.6226 -2.68738 0
M  V30 4273 C 412.196 -5.19109 -0.57648 0
M  V30 4274 H 413.89 -2.99354 -0.0526878 0
M  V30 4275 H 411.436 -1.4398 -0.023901 0
M  V30 4276 H 413.389 -3.42822 -2.45054 0
M  V30 4277 H 412.113 -2.18577 -2.42676 0
M  V30 4278 H 410.772 -3.57555 -0.809324 0
M  V30 4279 H 410.42 -3.81915 -3.27338 0
M  V30 4280 H 410.12 -5.35424 -2.42065 0
M  V30 4281 H 411.644 -5.12212 -3.32372 0
M  V30 4282 H 413.058 -5.62479 -1.10861 0
M  V30 4283 H 411.455 -5.98729 -0.405351 0
M  V30 4284 H 412.525 -4.83174 0.408776 0
M  V30 4285 N 413.868 0.0150385 -1.57593 0
M  V30 4286 C 414.831 0.995996 -2.06428 0
M  V30 4287 C 415.831 1.2818 -0.970903 0
M  V30 4288 O 417.021 1.22949 -1.23406 0
M  V30 4289 C 414.153 2.32506 -2.49307 0
M  V30 4290 H 415.346 0.573873 -2.94358 0
M  V30 4291 H 412.899 0.262186 -1.54085 0
M  V30 4292 H 413.634 2.79438 -1.64575 0
M  V30 4293 H 413.419 2.13087 -3.29145 0
M  V30 4294 H 414.909 3.02906 -2.87468 0
M  V30 4295 N 415.346 1.54954 0.287554 0
M  V30 4296 C 416.623 1.65569 1.04146 0
M  V30 4297 C 417.003 0.512672 2.0478 0
M  V30 4298 O 416.351 -0.489038 2.23205 0
M  V30 4299 C 416.561 3.04163 1.71131 0
M  V30 4300 C 417.909 3.61429 2.22832 0
M  V30 4301 O 418.933 3.06702 1.81141 0
M  V30 4302 O 417.792 4.57281 2.9926 0
M  V30 4303 H 414.886 0.671881 0.482188 0
M  V30 4304 H 417.432 1.67297 0.28457 0
M  V30 4305 H 416.204 3.78796 0.981303 0
M  V30 4306 H 415.827 3.06271 2.53543 0
M  V30 4307 N 416.824 -0.551391 1.4764 0
M  V30 4308 C 418.073 -1.30467 1.53822 0
M  V30 4309 C 418.386 -1.94495 0.207661 0
M  V30 4310 O 419.592 -2.71099 0.147533 0
M  V30 4311 C 418.048 -2.36616 2.71184 0
M  V30 4312 C 417.656 -1.78754 4.10793 0
M  V30 4313 C 419.4 -3.13088 2.86663 0
M  V30 4314 C 417.307 -2.82717 5.19447 0
M  V30 4315 H 416.237 -0.490584 0.572576 0
M  V30 4316 H 418.888 -0.58494 1.73927 0
M  V30 4317 H 417.27 -3.11529 2.4447 0
M  V30 4318 H 418.444 -1.10173 4.47435 0
M  V30 4319 H 416.759 -1.14846 4.00249 0
M  V30 4320 H 419.356 -3.90736 3.65007 0
M  V30 4321 H 419.699 -3.67635 1.95321 0
M  V30 4322 H 420.232 -2.45288 3.13175 0
M  V30 4323 H 416.971 -2.33018 6.12685 0
M  V30 4324 H 416.491 -3.4969 4.87316 0
M  V30 4325 H 418.17 -3.46102 5.46646 0
M  V30 4326 N 418.302 -1.35869 -0.798587 0
M  V30 4327 C 419.55 -1.29332 -1.55298 0
M  V30 4328 C 419.871 0.129729 -1.94568 0
M  V30 4329 O 419.141 1.06796 -1.6423 0
M  V30 4330 H 417.721 -0.475737 -0.57592 0
M  V30 4331 H 420.383 -1.70062 -0.952093 0
M  V30 4332 H 419.479 -1.91458 -2.46476 0
M  V30 4333 N 419.78 1.02168 -1.19998 0
M  V30 4334 C 421.196 1.27969 -0.953737 0
M  V30 4335 C 421.396 1.98079 0.369703 0
M  V30 4336 O 420.452 2.27306 1.09947 0
M  V30 4337 C 421.765 2.11971 -2.13281 0
M  V30 4338 C 423.313 2.25255 -2.17323 0
M  V30 4339 C 423.788 3.12632 -3.34702 0
M  V30 4340 N 425.279 3.2022 -3.34684 0
M  V30 4341 C 426.014 3.88039 -4.22153 0
M  V30 4342 N 425.51 4.58027 -5.19791 0
M  V30 4343 N 427.303 3.84511 -4.10009 0
M  V30 4344 H 419.454 0.550794 -2.05134 0
M  V30 4345 H 421.717 0.305683 -0.897364 0
M  V30 4346 H 421.423 1.67785 -3.09097 0
M  V30 4347 H 421.297 3.12699 -2.10949 0
M  V30 4348 H 423.684 2.68667 -1.22073 0
M  V30 4349 H 423.765 1.24053 -2.23706 0
M  V30 4350 H 423.409 2.69926 -4.30235 0
M  V30 4351 H 423.339 4.13909 -3.25556 0
M  V30 4352 H 425.83 2.70382 -2.64012 0
M  V30 4353 H 426.143 5.07429 -5.82868 0
M  V30 4354 H 424.488 4.56869 -5.23733 0
M  V30 4355 H 427.679 3.28978 -3.33003 0
M  V30 4356 H 427.852 4.3709 -4.78389 0
M  V30 4357 N 421.258 1.00505 1.21394 0
M  V30 4358 C 422.504 0.688793 1.90745 0
M  V30 4359 C 422.837 -0.778486 1.77914 0
M  V30 4360 O 422.112 -1.56433 1.15581 0
M  V30 4361 C 422.395 1.11063 3.42545 0
M  V30 4362 C 422.248 2.63737 3.64367 0
M  V30 4363 C 423.567 0.673059 4.34923 0
M  V30 4364 H 420.686 0.251702 0.692687 0
M  V30 4365 H 423.328 1.25074 1.43026 0
M  V30 4366 H 421.478 0.632508 3.83317 0
M  V30 4367 H 423.15 3.19313 3.32922 0
M  V30 4368 H 421.393 3.05248 3.08231 0
M  V30 4369 H 422.064 2.88305 4.70727 0
M  V30 4370 H 424.54 1.08392 4.01734 0
M  V30 4371 H 423.416 0.996383 5.39781 0
M  V30 4372 H 423.677 -0.425808 4.40045 0
M  V30 4373 N 422.737 -1.36956 0.779787 0
M  V30 4374 C 423.647 -2.33965 0.172491 0
M  V30 4375 C 424.663 -1.60574 -0.670222 0
M  V30 4376 O 425.839 -1.92617 -0.588263 0
M  V30 4377 C 422.904 -3.39761 -0.690173 0
M  V30 4378 C 421.965 -4.28964 0.169924 0
M  V30 4379 C 421.198 -5.29707 -0.651662 0
M  V30 4380 O 421.421 -5.38238 -1.88827 0
M  V30 4381 O 420.355 -6.01873 -0.0566264 0
M  V30 4382 H 424.181 -2.87647 0.974321 0
M  V30 4383 H 421.766 -1.39258 0.541078 0
M  V30 4384 H 423.648 -4.04471 -1.1824 0
M  V30 4385 H 422.323 -2.88394 -1.47006 0
M  V30 4386 H 421.23 -3.67326 0.708696 0
M  V30 4387 H 422.563 -4.83656 0.913085 0
M  V30 4388 N 424.215 -0.530993 -1.48385 0
M  V30 4389 C 425.125 0.23503 -2.3342 0
M  V30 4390 C 426.141 0.93801 -1.46552 0
M  V30 4391 O 427.317 0.912745 -1.7953 0
M  V30 4392 C 424.382 1.26778 -3.22689 0
M  V30 4393 C 423.443 0.575038 -4.25431 0
M  V30 4394 C 422.676 1.55858 -5.10435 0
M  V30 4395 O 422.899 2.79129 -4.97437 0
M  V30 4396 O 421.833 1.09742 -5.91811 0
M  V30 4397 H 425.659 -0.461794 -3.00169 0
M  V30 4398 H 423.244 -0.291903 -1.46521 0
M  V30 4399 H 425.126 1.86457 -3.77904 0
M  V30 4400 H 423.801 1.94699 -2.586 0
M  V30 4401 H 422.708 -0.0622782 -3.74048 0
M  V30 4402 H 424.041 -0.062253 -4.92161 0
M  V30 4403 N 425.693 1.55336 -0.266172 0
M  V30 4404 C 426.918 2.04258 0.359661 0
M  V30 4405 C 427.343 1.14359 1.49344 0
M  V30 4406 O 426.701 0.140369 1.80756 0
M  V30 4407 C 426.749 3.50997 0.826635 0
M  V30 4408 O 425.853 3.64204 1.93466 0
M  V30 4409 H 425.194 0.659668 0.075727 0
M  V30 4410 H 427.724 2.00694 -0.39786 0
M  V30 4411 H 427.734 3.9219 1.12477 0
M  V30 4412 H 426.409 4.159 -0.00293032 0
M  V30 4413 H 424.986 3.34913 1.63974 0
M  V30 4414 N 427.171 -0.0066808 1.57599 0
M  V30 4415 C 428.101 -0.999296 2.11036 0
M  V30 4416 C 429.082 -1.36278 1.01795 0
M  V30 4417 O 430.267 -1.4477 1.29442 0
M  V30 4418 C 427.397 -2.29328 2.60818 0
M  V30 4419 C 426.351 -2.07159 3.74525 0
M  V30 4420 C 425.677 -3.42512 4.10596 0
M  V30 4421 C 426.977 -1.43959 5.02069 0
M  V30 4422 H 428.671 -0.554382 2.94223 0
M  V30 4423 H 426.217 -0.265221 1.41536 0
M  V30 4424 H 428.17 -2.99117 2.96828 0
M  V30 4425 H 426.894 -2.7592 1.74745 0
M  V30 4426 H 425.553 -1.39797 3.38899 0
M  V30 4427 H 425.201 -3.86795 3.21556 0
M  V30 4428 H 424.901 -3.28498 4.87199 0
M  V30 4429 H 426.425 -4.13628 4.4916 0
M  V30 4430 H 427.839 -2.03696 5.35893 0
M  V30 4431 H 426.236 -1.40452 5.83432 0
M  V30 4432 H 427.306 -0.407992 4.83181 0
M  V30 4433 N 428.649 -1.55105 -0.279332 0
M  V30 4434 C 429.897 -1.75066 -1.00977 0
M  V30 4435 C 430.218 -0.551276 -1.87045 0
M  V30 4436 O 429.488 0.433984 -1.91032 0
M  V30 4437 H 428.068 -0.645578 -0.375816 0
M  V30 4438 H 430.73 -1.92497 -0.305089 0
M  V30 4439 H 429.826 -2.64894 -1.65038 0
M  V30 4440 N 430.127 0.543554 -1.4793 0
M  V30 4441 C 431.357 1.32324 -1.58663 0
M  V30 4442 C 431.765 1.8766 -0.240896 0
M  V30 4443 O 431.108 1.66411 0.778011 0
M  V30 4444 C 431.17 2.52094 -2.56299 0
M  V30 4445 C 430.834 2.17944 -4.01683 0
M  V30 4446 C 431.831 1.74422 -4.89768 0
M  V30 4447 C 429.516 2.28884 -4.47121 0
M  V30 4448 C 431.51 1.42287 -6.21316 0
M  V30 4449 C 429.197 1.96361 -5.78693 0
M  V30 4450 C 430.195 1.53132 -6.65612 0
M  V30 4451 O 429.883 1.21029 -7.94737 0
M  V30 4452 H 429.615 0.409174 -0.538101 0
M  V30 4453 H 432.169 0.663887 -1.94375 0
M  V30 4454 H 430.399 3.20965 -2.15681 0
M  V30 4455 H 432.088 3.14165 -2.57012 0
M  V30 4456 H 432.854 1.65452 -4.55907 0
M  V30 4457 H 428.733 2.61488 -3.79664 0
M  V30 4458 H 432.277 1.08472 -6.89115 0
M  V30 4459 H 428.174 2.04967 -6.12094 0
M  V30 4460 H 428.942 1.34543 -8.07366 0
M  V30 4461 N 431.605 1.3629 0.791371 0
M  V30 4462 C 432.553 1.30514 1.92533 0
M  V30 4463 C 433.547 0.197285 1.68247 0
M  V30 4464 O 434.753 0.364176 1.76278 0
M  V30 4465 H 431.128 0.406263 0.632815 0
M  V30 4466 H 433.099 2.26282 1.94523 0
M  V30 4467 C 431.848 1.10933 3.29529 0
M  V30 4468 H 431.171 1.95427 3.48781 0
M  V30 4469 H 432.611 1.10937 4.0923 0
M  V30 4470 C 431.07 -0.186123 3.36385 0
M  V30 4471 O 431.6 -1.17664 3.84081 0
M  V30 4472 N 429.806 -0.230128 2.89687 0
M  V30 4473 H 429.353 0.576545 2.51065 0
M  V30 4474 H 429.311 -1.09658 2.94657 0
M  V30 4475 N 433.083 -1.0153 1.20538 0
M  V30 4476 C 434.046 -2.0826 0.957098 0
M  V30 4477 C 435.046 -1.60657 -0.0678655 0
M  V30 4478 O 436.236 -1.73385 0.168332 0
M  V30 4479 C 433.368 -3.38033 0.441188 0
M  V30 4480 H 434.561 -2.31719 1.90384 0
M  V30 4481 H 432.114 -1.1835 1.02093 0
M  V30 4482 H 432.849 -3.20249 -0.510961 0
M  V30 4483 H 432.634 -3.73911 1.18038 0
M  V30 4484 H 434.124 -4.16613 0.287009 0
M  V30 4485 N 434.561 -1.01147 -1.20859 0
M  V30 4486 C 435.81 -0.693214 -1.89413 0
M  V30 4487 C 436.123 0.779969 -1.79376 0
M  V30 4488 O 437.329 1.21057 -2.43017 0
M  V30 4489 C 435.785 -1.18949 -3.39675 0
M  V30 4490 C 435.393 -2.68921 -3.58309 0
M  V30 4491 C 437.137 -0.94642 -4.13815 0
M  V30 4492 C 435.044 -3.12056 -5.0237 0
M  V30 4493 H 433.974 -0.255595 -0.709357 0
M  V30 4494 H 436.625 -1.22349 -1.36759 0
M  V30 4495 H 435.007 -0.587228 -3.91622 0
M  V30 4496 H 436.181 -3.34652 -3.16772 0
M  V30 4497 H 434.496 -2.91314 -2.97532 0
M  V30 4498 H 437.093 -1.24417 -5.20023 0
M  V30 4499 H 437.436 0.117219 -4.16135 0
M  V30 4500 H 437.969 -1.5118 -3.67953 0
M  V30 4501 H 434.708 -4.17674 -5.05202 0
M  V30 4502 H 434.228 -2.51041 -5.44737 0
M  V30 4503 H 435.907 -3.04403 -5.70918 0
M  V30 4504 N 436.039 1.36541 -0.78704 0
M  V30 4505 C 437.002 2.28413 -0.189778 0
M  V30 4506 C 438.002 1.48719 0.611499 0
M  V30 4507 O 439.192 1.68737 0.432842 0
M  V30 4508 C 436.324 3.32824 0.737638 0
M  V30 4509 H 437.517 2.82743 -0.999831 0
M  V30 4510 H 435.07 1.46065 -0.556298 0
M  V30 4511 H 435.805 2.83646 1.57212 0
M  V30 4512 H 435.59 3.91752 0.165044 0
M  V30 4513 H 437.08 4.0144 1.15047 0
M  V30 4514 N 437.518 0.538854 1.48102 0
M  V30 4515 C 438.481 -0.208395 2.28251 0
M  V30 4516 C 439.481 -0.859656 1.35892 0
M  V30 4517 O 440.671 -0.71834 1.58699 0
M  V30 4518 C 437.803 -1.30252 3.15035 0
M  V30 4519 H 438.996 0.495407 2.9578 0
M  V30 4520 H 436.549 0.295112 1.53489 0
M  V30 4521 H 437.284 -2.0393 2.52157 0
M  V30 4522 H 437.069 -0.840551 3.82985 0
M  V30 4523 H 438.559 -1.82787 3.75471 0
M  V30 4524 N 438.996 -1.55193 0.274407 0
M  V30 4525 C 440.244 -1.99187 -0.341902 0
M  V30 4526 C 440.565 -1.16422 -1.56431 0
M  V30 4527 O 439.835 -0.253573 -1.94252 0
M  V30 4528 H 438.415 -0.735721 -0.129317 0
M  V30 4529 H 441.077 -1.91168 0.379578 0
M  V30 4530 H 440.173 -3.05629 -0.632253 0
M  V30 4531 N 440.474 -0.00167713 -1.576 0
M  V30 4532 C 441.721 0.68282 -1.90641 0
M  V30 4533 C 442.049 1.73686 -0.875415 0
M  V30 4534 O 441.304 1.95334 0.119575 0
M  V30 4535 C 441.603 1.36189 -3.30435 0
M  V30 4536 C 441.269 0.440887 -4.48739 0
M  V30 4537 C 439.931 0.187312 -4.80835 0
M  V30 4538 C 442.283 -0.193134 -5.20842 0
M  V30 4539 C 439.611 -0.70855 -5.82406 0
M  V30 4540 C 441.963 -1.07688 -6.23367 0
M  V30 4541 C 440.627 -1.33962 -6.53919 0
M  V30 4542 H 439.897 0.249862 -0.697603 0
M  V30 4543 H 442.544 -0.0575642 -1.91413 0
M  V30 4544 H 440.849 2.17636 -3.25794 0
M  V30 4545 H 442.546 1.89759 -3.5326 0
M  V30 4546 H 439.136 0.648694 -4.23663 0
M  V30 4547 H 443.32 -0.0102445 -4.96299 0
M  V30 4548 H 438.576 -0.920097 -6.04437 0
M  V30 4549 H 442.75 -1.57451 -6.78367 0
M  V30 4550 H 440.377 -2.03549 -7.32442 0
M  V30 4551 N 441.952 1.55251 0.271103 0
M  V30 4552 C 442.884 1.84675 1.35749 0
M  V30 4553 C 443.897 0.731366 1.45447 0
M  V30 4554 O 445.086 1.00924 1.4723 0
M  V30 4555 C 442.186 1.99638 2.73857 0
M  V30 4556 C 441.359 3.30312 2.86727 0
M  V30 4557 C 440.418 3.35318 4.05522 0
M  V30 4558 O 439.444 4.08682 3.96191 0
M  V30 4559 N 440.646 2.62857 5.17577 0
M  V30 4560 H 443.411 2.78445 1.10853 0
M  V30 4561 H 440.972 1.55191 0.461218 0
M  V30 4562 H 442.964 2.00355 3.51625 0
M  V30 4563 H 441.534 1.12725 2.91568 0
M  V30 4564 H 440.754 3.42118 1.95829 0
M  V30 4565 H 442.042 4.16488 2.92258 0
M  V30 4566 H 441.44 2.02939 5.28046 0
M  V30 4567 H 439.997 2.69295 5.93568 0
M  V30 4568 N 443.43 -0.535701 1.48216 0
M  V30 4569 C 444.678 -1.28928 1.55634 0
M  V30 4570 C 444.999 -1.93645 0.229514 0
M  V30 4571 O 444.269 -1.81038 -0.74846 0
M  V30 4572 H 442.849 -0.47884 0.573342 0
M  V30 4573 H 445.511 -0.623853 1.84646 0
M  V30 4574 H 444.607 -2.07157 2.33436 0
M  V30 4575 N 444.908 -1.36708 -0.784132 0
M  V30 4576 C 445.84 -1.27333 -1.90575 0
M  V30 4577 C 446.853 -0.191706 -1.61667 0
M  V30 4578 O 448.042 -0.446854 -1.72816 0
M  V30 4579 C 445.142 -0.943177 -3.25511 0
M  V30 4580 C 444.315 -2.12776 -3.82158 0
M  V30 4581 C 443.374 -1.76983 -4.95544 0
M  V30 4582 O 442.4 -2.49134 -5.11782 0
M  V30 4583 N 443.602 -0.706624 -5.76183 0
M  V30 4584 H 446.367 -2.23974 -1.99138 0
M  V30 4585 H 443.928 -1.30171 -0.962656 0
M  V30 4586 H 445.92 -0.684799 -3.98864 0
M  V30 4587 H 444.49 -0.0657333 -3.12531 0
M  V30 4588 H 443.71 -2.54863 -3.0073 0
M  V30 4589 H 444.998 -2.91904 -4.16737 0
M  V30 4590 H 444.396 -0.107643 -5.65598 0
M  V30 4591 H 442.953 -0.50808 -6.49817 0
M  V30 4592 N 446.386 1.0089 -1.21074 0
M  V30 4593 C 447.802 1.2695 -0.967257 0
M  V30 4594 C 448.002 1.9846 0.348673 0
M  V30 4595 O 447.058 2.28459 1.0753 0
M  V30 4596 C 448.371 2.09697 -2.15517 0
M  V30 4597 C 449.919 2.22937 -2.197 0
M  V30 4598 C 450.394 3.09064 -3.37999 0
M  V30 4599 N 451.885 3.16653 -3.38061 0
M  V30 4600 C 452.62 3.8354 -4.26245 0
M  V30 4601 N 452.116 4.52488 -5.2462 0
M  V30 4602 N 453.909 3.80141 -4.14064 0
M  V30 4603 H 446.06 0.529005 -2.05707 0
M  V30 4604 H 448.323 0.296148 -0.900556 0
M  V30 4605 H 448.029 1.64497 -3.10859 0
M  V30 4606 H 447.903 3.10444 -2.14253 0
M  V30 4607 H 450.29 2.67357 -1.24916 0
M  V30 4608 H 450.371 1.21673 -2.2501 0
M  V30 4609 H 450.015 2.65347 -4.33074 0
M  V30 4610 H 449.945 4.10433 -3.29928 0
M  V30 4611 H 452.436 2.67566 -2.66865 0
M  V30 4612 H 452.749 5.01219 -5.88217 0
M  V30 4613 H 451.094 4.51288 -5.28549 0
M  V30 4614 H 454.285 3.25427 -3.36474 0
M  V30 4615 H 454.458 4.31992 -4.82998 0
M  V30 4616 N 447.864 1.01787 1.20321 0
M  V30 4617 C 448.814 0.559976 2.21016 0
M  V30 4618 C 449.798 -0.385366 1.56217 0
M  V30 4619 O 450.99 -0.208126 1.75772 0
M  V30 4620 C 448.119 -0.0990553 3.43157 0
M  V30 4621 C 447.205 0.86807 4.15121 0
M  V30 4622 N 447.596 2.0261 4.63447 0
M  V30 4623 C 445.894 0.689162 4.40643 0
M  V30 4624 C 446.595 2.63518 5.18588 0
M  V30 4625 N 445.571 1.91569 5.08726 0
M  V30 4626 H 449.373 1.44281 2.56048 0
M  V30 4627 H 446.887 0.883381 1.36272 0
M  V30 4628 H 448.884 -0.444643 4.14522 0
M  V30 4629 H 447.544 -0.977709 3.0963 0
M  V30 4630 H 448.555 2.40598 4.58621 0
M  V30 4631 H 445.232 -0.14133 4.17261 0
M  V30 4632 H 446.622 3.61527 5.66346 0
M  V30 4633 N 449.342 -1.36122 0.79427 0
M  V30 4634 C 450.588 -1.99846 0.378542 0
M  V30 4635 C 450.943 -1.61898 -1.03955 0
M  V30 4636 O 450.236 -0.866013 -1.70912 0
M  V30 4637 C 450.43 -3.5409 0.48527 0
M  V30 4638 C 450.259 -4.0702 1.91219 0
M  V30 4639 C 449.029 -4.36944 2.53787 0
M  V30 4640 C 451.227 -4.26435 2.87502 0
M  V30 4641 N 449.209 -4.75727 3.88017 0
M  V30 4642 C 450.58 -4.68077 4.06576 0
M  V30 4643 C 452.635 -4.08616 2.84495 0
M  V30 4644 C 451.338 -4.93765 5.23057 0
M  V30 4645 C 453.364 -4.35453 4.00169 0
M  V30 4646 C 452.726 -4.77355 5.17988 0
M  V30 4647 H 448.825 -0.759549 0.186034 0
M  V30 4648 H 451.409 -1.65043 1.0329 0
M  V30 4649 H 449.58 -3.88151 -0.139023 0
M  V30 4650 H 451.312 -4.04675 0.0453192 0
M  V30 4651 H 448.067 -4.26822 2.05231 0
M  V30 4652 H 448.491 -4.99396 4.57092 0
M  V30 4653 H 453.133 -3.75373 1.94564 0
M  V30 4654 H 450.851 -5.25887 6.1357 0
M  V30 4655 H 454.437 -4.2323 3.99208 0
M  V30 4656 H 453.317 -4.97718 6.06008 0
M  V30 4657 N 450.82 -0.546701 -1.47814 0
M  V30 4658 C 452.048 -0.0232857 -2.06887 0
M  V30 4659 C 452.463 1.26571 -1.4009 0
M  V30 4660 O 451.82 1.7569 -0.493906 0
M  V30 4661 C 451.871 0.186975 -3.61016 0
M  V30 4662 O 451.592 -1.05097 -4.25307 0
M  V30 4663 C 453.093 0.748872 -4.36929 0
M  V30 4664 H 450.313 -0.0410763 -0.669742 0
M  V30 4665 H 452.857 -0.757117 -1.89968 0
M  V30 4666 H 451.012 0.870903 -3.77484 0
M  V30 4667 H 451.426 -0.842121 -5.17695 0
M  V30 4668 H 452.9 0.845334 -5.45489 0
M  V30 4669 H 453.377 1.75772 -4.02493 0
M  V30 4670 H 453.983 0.100979 -4.2518 0
M  V30 4671 N 452.299 1.55045 -0.282633 0
M  V30 4672 C 453.576 1.9179 0.384166 0
M  V30 4673 C 453.956 1.20778 1.73136 0
M  V30 4674 O 453.304 0.33719 2.25998 0
M  V30 4675 C 453.514 3.45149 0.517014 0
M  V30 4676 C 454.862 4.17064 0.796427 0
M  V30 4677 O 455.886 3.51084 0.601535 0
M  V30 4678 O 454.745 5.33837 1.16962 0
M  V30 4679 H 451.839 0.799483 0.211558 0
M  V30 4680 H 454.385 1.66474 -0.32934 0
M  V30 4681 H 453.157 3.88922 -0.430772 0
M  V30 4682 H 452.78 3.76443 1.2797 0
M  V30 4683 N 453.777 0.010035 1.57597 0
M  V30 4684 C 454.709 -1.00649 2.05918 0
M  V30 4685 C 455.722 -1.30077 0.978964 0
M  V30 4686 O 456.911 -1.26878 1.25556 0
M  V30 4687 C 454.011 -2.33876 2.45265 0
M  V30 4688 C 453.184 -2.23242 3.7614 0
M  V30 4689 C 452.243 -3.39242 4.02245 0
M  V30 4690 O 451.269 -3.1698 4.72771 0
M  V30 4691 N 452.471 -4.6242 3.50924 0
M  V30 4692 H 455.236 -0.594333 2.93748 0
M  V30 4693 H 452.797 -0.17714 1.60928 0
M  V30 4694 H 454.789 -3.1027 2.59836 0
M  V30 4695 H 453.359 -2.66799 1.62902 0
M  V30 4696 H 452.579 -1.31696 3.71551 0
M  V30 4697 H 453.867 -2.13321 4.61922 0
M  V30 4698 H 453.265 -4.83404 2.93832 0
M  V30 4699 H 451.822 -5.36046 3.70807 0
M  V30 4700 N 455.255 -1.55392 -0.262866 0
M  V30 4701 C 456.485 -1.80251 -1.00961 0
M  V30 4702 C 456.893 -0.58117 -1.80053 0
M  V30 4703 O 456.236 0.459427 -1.77862 0
M  V30 4704 C 456.298 -2.98207 -2.00781 0
M  V30 4705 C 455.962 -4.34856 -1.40533 0
M  V30 4706 C 456.959 -5.13459 -0.815853 0
M  V30 4707 C 454.644 -4.8153 -1.42948 0
M  V30 4708 C 456.638 -6.36875 -0.258562 0
M  V30 4709 C 454.325 -6.04899 -0.868334 0
M  V30 4710 C 455.323 -6.8241 -0.283884 0
M  V30 4711 O 455.011 -8.03451 0.268644 0
M  V30 4712 H 454.743 -0.604049 -0.303482 0
M  V30 4713 H 457.297 -2.03257 -0.295926 0
M  V30 4714 H 455.527 -2.70917 -2.75936 0
M  V30 4715 H 457.216 -3.10299 -2.61667 0
M  V30 4716 H 457.982 -4.78526 -0.789812 0
M  V30 4717 H 453.861 -4.21201 -1.87378 0
M  V30 4718 H 457.405 -6.97318 0.198257 0
M  V30 4719 H 453.302 -6.39312 -0.891649 0
M  V30 4720 H 454.07 -8.18346 0.158974 0
M  V30 4721 N 456.733 0.527833 -1.48498 0
M  V30 4722 C 458.144 1.10975 -1.50138 0
M  V30 4723 C 458.495 1.943 -0.272378 0
M  V30 4724 O 457.62 2.07319 0.620301 0
M  V30 4725 C 458.215 2.01927 -2.72049 0
M  V30 4726 C 456.774 2.55332 -2.76554 0
M  V30 4727 C 455.921 1.32341 -2.43683 0
M  V30 4728 H 458.872 0.312986 -1.55583 0
M  V30 4729 H 458.893 2.86244 -2.50689 0
M  V30 4730 H 458.405 1.41254 -3.61481 0
M  V30 4731 H 456.506 3.19721 -1.91336 0
M  V30 4732 H 456.619 2.94319 -3.78038 0
M  V30 4733 H 454.983 1.63989 -1.94884 0
M  V30 4734 H 455.766 0.734165 -3.35358 0
M  V30 4735 N 458.211 1.37122 0.776871 0
M  V30 4736 C 459.159 1.32549 1.91138 0
M  V30 4737 C 460.153 0.215119 1.68029 0
M  V30 4738 O 461.359 0.382852 1.75881 0
M  V30 4739 H 457.734 0.412952 0.62847 0
M  V30 4740 H 459.705 2.28332 1.92112 0
M  V30 4741 C 458.454 1.14422 3.28333 0
M  V30 4742 H 457.777 1.99115 3.46689 0
M  V30 4743 H 459.217 1.15272 4.0803 0
M  V30 4744 C 457.676 -0.150434 3.36564 0
M  V30 4745 O 458.206 -1.13584 3.85307 0
M  V30 4746 N 456.412 -0.19939 2.89915 0
M  V30 4747 H 455.959 0.603142 2.5044 0
M  V30 4748 H 455.917 -1.06526 2.95803 0
M  V30 4749 N 459.689 -1.00246 1.21608 0
M  V30 4750 C 460.937 -1.73717 1.0328 0
M  V30 4751 C 461.258 -1.90102 -0.434318 0
M  V30 4752 O 460.528 -1.45376 -1.31311 0
M  V30 4753 H 459.108 -0.643613 0.379172 0
M  V30 4754 H 461.77 -1.20787 1.52959 0
M  V30 4755 H 460.866 -2.73535 1.50283 0
M  V30 4756 N 461.167 -1.02423 -1.1978 0
M  V30 4757 C 462.444 -0.632802 -1.85081 0
M  V30 4758 C 462.824 0.888745 -1.9148 0
M  V30 4759 O 462.172 1.78357 -1.42832 0
M  V30 4760 C 462.382 -1.28947 -3.24305 0
M  V30 4761 C 463.73 -1.40976 -4.00513 0
M  V30 4762 O 464.754 -1.24628 -3.33686 0
M  V30 4763 O 463.613 -1.67467 -5.20209 0
M  V30 4764 H 460.707 -0.219348 -0.79738 0
M  V30 4765 H 463.253 -1.12209 -1.27307 0
M  V30 4766 H 462.025 -2.3288 -3.14456 0
M  V30 4767 H 461.648 -0.787748 -3.89718 0
M  V30 4768 N 462.645 1.35699 -0.801477 0
M  V30 4769 C 463.873 2.03157 -0.391768 0
M  V30 4770 C 464.288 1.60412 0.995668 0
M  V30 4771 O 463.645 0.799228 1.64069 0
M  V30 4772 C 463.696 3.58566 -0.459671 0
M  V30 4773 O 463.417 3.99756 -1.7924 0
M  V30 4774 C 464.918 4.4328 -0.0421205 0
M  V30 4775 H 462.138 0.651688 -0.159825 0
M  V30 4776 H 464.682 1.73426 -1.08368 0
M  V30 4777 H 462.837 3.86963 0.183939 0
M  V30 4778 H 463.251 4.94387 -1.75162 0
M  V30 4779 H 464.725 5.51821 -0.140754 0
M  V30 4780 H 465.202 4.27383 1.01196 0
M  V30 4781 H 465.808 4.20168 -0.658687 0
M  V30 4782 N 464.123 0.554532 1.47522 0
M  V30 4783 C 465.086 -0.184174 2.28459 0
M  V30 4784 C 466.086 -0.845195 1.36796 0
M  V30 4785 O 467.276 -0.701467 1.59452 0
M  V30 4786 C 464.408 -1.26903 3.16399 0
M  V30 4787 H 465.601 0.526751 2.95238 0
M  V30 4788 H 463.154 0.311375 1.53167 0
M  V30 4789 H 463.889 -2.01244 2.54306 0
M  V30 4790 H 463.674 -0.799883 3.83854 0
M  V30 4791 H 465.164 -1.78794 3.77389 0
M  V30 4792 N 465.601 -1.54893 0.290851 0
M  V30 4793 C 466.511 -2.26812 -0.59945 0
M  V30 4794 C 467.527 -1.29963 -1.15696 0
M  V30 4795 O 468.703 -1.62928 -1.18391 0
M  V30 4796 C 465.768 -2.98716 -1.75982 0
M  V30 4797 C 464.829 -4.1108 -1.2374 0
M  V30 4798 C 464.062 -4.79546 -2.34246 0
M  V30 4799 O 464.285 -4.47309 -3.53936 0
M  V30 4800 O 463.219 -5.67165 -2.01512 0
M  V30 4801 H 467.045 -3.03696 -0.0163561 0
M  V30 4802 H 464.63 -1.49289 0.0576755 0
M  V30 4803 H 466.512 -3.43851 -2.43607 0
M  V30 4804 H 465.187 -2.24737 -2.3297 0
M  V30 4805 H 464.094 -3.70367 -0.527163 0
M  V30 4806 H 465.427 -4.87007 -0.71307 0
M  V30 4807 N 467.08 -0.0183926 -1.57589 0
M  V30 4808 C 468.043 0.951986 -2.08494 0
M  V30 4809 C 469.043 1.26092 -0.997874 0
M  V30 4810 O 470.233 1.20304 -1.25987 0
M  V30 4811 C 467.365 2.27165 -2.54182 0
M  V30 4812 H 468.558 0.511307 -2.95509 0
M  V30 4813 H 466.111 0.229444 -1.54607 0
M  V30 4814 H 466.846 2.75884 -1.70465 0
M  V30 4815 H 466.631 2.06057 -3.33591 0
M  V30 4816 H 468.121 2.9674 -2.93828 0
M  V30 4817 N 468.558 1.5553 0.254621 0
M  V30 4818 C 469.807 1.76202 0.981612 0
M  V30 4819 C 470.12 0.580883 1.86776 0
M  V30 4820 O 471.326 0.670448 2.63092 0
M  V30 4821 C 469.782 3.11921 1.79537 0
M  V30 4822 C 469.39 4.37659 0.956991 0
M  V30 4823 C 471.134 3.41936 2.51555 0
M  V30 4824 C 469.041 5.64411 1.76619 0
M  V30 4825 H 467.971 0.656841 0.370237 0
M  V30 4826 H 470.622 1.81969 0.236556 0
M  V30 4827 H 469.004 3.00241 2.58208 0
M  V30 4828 H 470.178 4.60307 0.21315 0
M  V30 4829 H 468.493 4.14922 0.350497 0
M  V30 4830 H 471.09 4.33849 3.12536 0
M  V30 4831 H 471.433 2.62905 3.22779 0
M  V30 4832 H 471.966 3.54797 1.799 0
M  V30 4833 H 468.705 6.46241 1.09783 0
M  V30 4834 H 468.225 5.45877 2.48551 0
M  V30 4835 H 469.904 6.03386 2.33527 0
M  V30 4836 N 470.036 -0.519951 1.48776 0
M  V30 4837 C 470.966 -1.63253 1.66945 0
M  V30 4838 C 471.947 -1.62014 0.518224 0
M  V30 4839 O 473.132 -1.79053 0.751919 0
M  V30 4840 C 470.262 -3.0181 1.71836 0
M  V30 4841 C 469.216 -3.17911 2.8656 0
M  V30 4842 C 468.542 -4.5763 2.76548 0
M  V30 4843 C 469.842 -2.99729 4.27738 0
M  V30 4844 H 471.536 -1.48302 2.6009 0
M  V30 4845 H 469.082 -0.712026 1.25165 0
M  V30 4846 H 471.035 -3.79525 1.83135 0
M  V30 4847 H 469.759 -3.17806 0.752775 0
M  V30 4848 H 468.418 -2.42616 2.74833 0
M  V30 4849 H 468.066 -4.70476 1.77937 0
M  V30 4850 H 467.766 -4.69346 3.53536 0
M  V30 4851 H 469.29 -5.37431 2.89828 0
M  V30 4852 H 470.704 -3.67228 4.40246 0
M  V30 4853 H 469.101 -3.22932 5.05801 0
M  V30 4854 H 470.171 -1.96047 4.43502 0
M  V30 4855 N 471.514 -1.37532 -0.769588 0
M  V30 4856 C 472.462 -1.33561 -1.90432 0
M  V30 4857 C 473.456 -0.224027 -1.67912 0
M  V30 4858 O 474.662 -0.392174 -1.75676 0
M  V30 4859 H 471.037 -0.416279 -0.626271 0
M  V30 4860 H 473.008 -2.29348 -1.90899 0
M  V30 4861 C 471.757 -1.16162 -3.27722 0
M  V30 4862 H 471.08 -2.00951 -3.45628 0
M  V30 4863 H 472.52 -1.17434 -4.07413 0
M  V30 4864 C 470.979 0.132583 -3.36639 0
M  V30 4865 O 471.509 1.11539 -3.85904 0
M  V30 4866 N 469.715 0.184013 -2.90017 0
M  V30 4867 H 469.262 -0.616415 -2.50116 0
M  V30 4868 H 469.22 1.04956 -2.96364 0
M  V30 4869 N 472.992 0.995999 -1.22138 0
M  V30 4870 C 474.217 1.77601 -1.0711 0
M  V30 4871 C 474.642 1.84339 0.374264 0
M  V30 4872 O 474 1.29359 1.27028 0
M  V30 4873 C 474.048 3.18897 -1.68336 0
M  V30 4874 O 473.152 4.01663 -0.934928 0
M  V30 4875 H 472.493 0.547011 -0.376397 0
M  V30 4876 H 475.023 1.25137 -1.6187 0
M  V30 4877 H 475.033 3.69539 -1.72931 0
M  V30 4878 H 473.708 3.13308 -2.73516 0
M  V30 4879 H 472.285 3.60204 -0.964751 0
M  V30 4880 N 474.47 1.03057 1.19235 0
M  V30 4881 C 475.695 0.74757 1.93458 0
M  V30 4882 C 476.12 -0.687648 1.7508 0
M  V30 4883 O 475.478 -1.47499 1.05422 0
M  V30 4884 C 475.526 1.10604 3.43219 0
M  V30 4885 O 474.63 0.225671 4.11782 0
M  V30 4886 H 473.971 0.276047 0.603899 0
M  V30 4887 H 476.501 1.3777 1.51263 0
M  V30 4888 H 476.511 1.06366 3.93891 0
M  V30 4889 H 475.186 2.15165 3.55917 0
M  V30 4890 H 473.763 0.326795 3.71465 0
M  V30 4891 N 475.948 -1.35272 0.808662 0
M  V30 4892 C 477.195 -1.98709 0.390003 0
M  V30 4893 C 477.523 -1.64148 -1.04335 0
M  V30 4894 O 476.778 -0.897797 -1.73891 0
M  V30 4895 C 477.077 -3.53556 0.522798 0
M  V30 4896 C 476.743 -4.0799 1.91977 0
M  V30 4897 C 475.405 -4.22568 2.30195 0
M  V30 4898 C 477.757 -4.37442 2.83361 0
M  V30 4899 C 475.085 -4.63918 3.59162 0
M  V30 4900 C 477.437 -4.80232 4.11776 0
M  V30 4901 C 476.101 -4.93016 4.49991 0
M  V30 4902 H 475.371 -0.727127 0.142712 0
M  V30 4903 H 478.018 -1.6145 1.02985 0
M  V30 4904 H 476.323 -3.91287 -0.200494 0
M  V30 4905 H 478.02 -4.00598 0.179608 0
M  V30 4906 H 474.61 -3.97096 1.61284 0
M  V30 4907 H 478.794 -4.25731 2.55083 0
M  V30 4908 H 474.05 -4.72005 3.88615 0
M  V30 4909 H 478.224 -5.01982 4.82687 0
M  V30 4910 H 475.851 -5.24814 5.49976 0
M  V30 4911 N 477.426 -0.562348 -1.47226 0
M  V30 4912 C 478.703 0.0256985 -1.95583 0
M  V30 4913 C 479.083 1.48032 -1.50498 0
M  V30 4914 O 478.431 2.15973 -0.746181 0
M  V30 4915 C 478.641 -0.125129 -3.48776 0
M  V30 4916 C 479.989 0.0175728 -4.24596 0
M  V30 4917 O 481.013 -0.0529341 -3.56161 0
M  V30 4918 O 479.872 0.170145 -5.46235 0
M  V30 4919 H 476.966 0.0612565 -0.824728 0
M  V30 4920 H 479.512 -0.629233 -1.57603 0
M  V30 4921 H 478.284 -1.13715 -3.74412 0
M  V30 4922 H 477.907 0.567178 -3.93534 0
M  V30 4923 N 478.904 1.54736 -0.299062 0
M  V30 4924 C 480.15 2.01114 0.304123 0
M  V30 4925 C 480.505 1.18376 1.51674 0
M  V30 4926 O 479.798 0.251635 1.8994 0
M  V30 4927 C 479.992 3.50199 0.713835 0
M  V30 4928 C 479.821 4.47366 -0.457531 0
M  V30 4929 C 478.591 4.9631 -0.948933 0
M  V30 4930 C 480.789 4.9755 -1.30186 0
M  V30 4931 N 478.771 5.77327 -2.08726 0
M  V30 4932 C 480.142 5.7625 -2.28771 0
M  V30 4933 C 482.197 4.79739 -1.33246 0
M  V30 4934 C 480.9 6.39036 -3.3019 0
M  V30 4935 C 482.926 5.43343 -2.33521 0
M  V30 4936 C 482.288 6.21874 -3.30836 0
M  V30 4937 H 478.387 0.778318 0.0757992 0
M  V30 4938 H 480.971 1.89925 -0.428536 0
M  V30 4939 H 479.142 3.61681 1.41567 0
M  V30 4940 H 480.874 3.83374 1.29639 0
M  V30 4941 H 477.629 4.7069 -0.52423 0
M  V30 4942 H 478.053 6.22521 -2.66077 0
M  V30 4943 H 482.695 4.18609 -0.59383 0
M  V30 4944 H 480.413 6.99302 -4.04973 0
M  V30 4945 H 483.999 5.31492 -2.3666 0
M  V30 4946 H 482.879 6.70217 -4.07159 0
M  V30 4947 N 480.382 0.0267497 1.57577 0
M  V30 4948 C 481.33 -0.973923 2.11229 0
M  V30 4949 C 482.324 -1.33849 1.03831 0
M  V30 4950 O 483.53 -1.321 1.22269 0
M  V30 4951 H 479.905 -0.331844 0.674821 0
M  V30 4952 H 481.876 -0.496092 2.94247 0
M  V30 4953 C 480.625 -2.24798 2.65257 0
M  V30 4954 H 479.948 -1.9762 3.47543 0
M  V30 4955 H 481.388 -2.93031 3.06445 0
M  V30 4956 C 479.847 -2.97611 1.57891 0
M  V30 4957 O 480.377 -3.89629 0.97735 0
M  V30 4958 N 478.583 -2.59905 1.29992 0
M  V30 4959 H 478.13 -1.85154 1.79097 0
M  V30 4960 H 478.088 -3.08932 0.583798 0
M  V30 4961 N 481.861 -1.55662 -0.24637 0
M  V30 4962 C 483.109 -1.77168 -0.972411 0
M  V30 4963 C 483.43 -0.590827 -1.85834 0
M  V30 4964 O 482.7 0.393365 -1.9191 0
M  V30 4965 H 481.28 -0.653405 -0.362038 0
M  V30 4966 H 483.942 -1.93101 -0.264189 0
M  V30 4967 H 483.038 -2.68335 -1.59382 0
M  V30 4968 N 483.339 0.512053 -1.4905 0
M  V30 4969 C 484.585 1.26874 -1.58212 0
M  V30 4970 C 484.918 1.9241 -0.263073 0
M  V30 4971 O 484.193 1.80181 0.732476 0
M  V30 4972 C 484.476 2.34428 -2.73341 0
M  V30 4973 C 484.329 1.73466 -4.15006 0
M  V30 4974 C 485.648 3.36073 -2.84154 0
M  V30 4975 H 482.767 0.459924 -0.575881 0
M  V30 4976 H 485.409 0.568587 -1.81293 0
M  V30 4977 H 483.559 2.94146 -2.53792 0
M  V30 4978 H 485.231 1.17661 -4.46042 0
M  V30 4979 H 483.474 1.03921 -4.21168 0
M  V30 4980 H 484.145 2.51426 -4.91415 0
M  V30 4981 H 486.621 2.86332 -3.01916 0
M  V30 4982 H 485.497 4.08703 -3.66406 0
M  V30 4983 H 485.758 3.97725 -1.93048 0
M  V30 4984 N 484.817 1.37938 0.762283 0
M  V30 4985 C 486.233 1.18945 1.06415 0
M  V30 4986 C 486.433 0.0321163 2.01474 0
M  V30 4987 O 485.489 -0.624844 2.44647 0
M  V30 4988 C 486.802 2.51218 1.65258 0
M  V30 4989 C 488.35 2.57824 1.7747 0
M  V30 4990 C 488.825 3.90251 2.39725 0
M  V30 4991 N 490.316 3.91744 2.47166 0
M  V30 4992 C 491.051 4.90966 2.96209 0
M  V30 4993 N 490.547 6.00585 3.45354 0
M  V30 4994 N 492.34 4.78363 2.9517 0
M  V30 4995 H 484.491 2.11994 0.131301 0
M  V30 4996 H 486.754 0.940262 0.120879 0
M  V30 4997 H 486.46 3.36317 1.02878 0
M  V30 4998 H 486.334 2.68989 2.64433 0
M  V30 4999 H 488.721 1.73126 2.3898 0
M  V30 5000 H 488.802 2.43928 0.770241 0
M  V30 5001 H 488.446 4.75368 1.78852 0
M  V30 5002 H 488.376 4.01454 3.40796 0
M  V30 5003 H 490.867 3.12563 2.12397 0
M  V30 5004 H 491.18 6.72236 3.81207 0
M  V30 5005 H 489.525 6.04217 3.43434 0
M  V30 5006 H 492.716 3.91841 2.56082 0
M  V30 5007 H 492.889 5.55843 3.33081 0
M  V30 5008 N 486.295 -0.989507 1.22664 0
M  V30 5009 C 487.205 -2.11449 1.01619 0
M  V30 5010 C 488.221 -1.73962 -0.036545 0
M  V30 5011 O 489.397 -2.00788 0.156924 0
M  V30 5012 C 486.462 -3.41465 0.600204 0
M  V30 5013 C 485.523 -3.93033 1.72695 0
M  V30 5014 C 484.756 -5.16844 1.33071 0
M  V30 5015 O 484.979 -5.7001 0.210975 0
M  V30 5016 O 483.913 -5.6225 2.14845 0
M  V30 5017 H 487.739 -2.32088 1.9588 0
M  V30 5018 H 485.324 -1.09823 1.01289 0
M  V30 5019 H 487.206 -4.19695 0.37873 0
M  V30 5020 H 485.881 -3.22178 -0.313511 0
M  V30 5021 H 484.788 -3.15961 2.00298 0
M  V30 5022 H 486.121 -4.16758 2.61865 0
M  V30 5023 N 487.773 -1.03688 -1.18687 0
M  V30 5024 C 489.184 -0.766488 -1.70241 0
M  V30 5025 C 489.535 0.713052 -1.82784 0
M  V30 5026 O 488.66 1.55529 -1.50465 0
M  V30 5027 C 489.255 -1.38475 -3.09209 0
M  V30 5028 C 487.814 -1.16276 -3.5799 0
M  V30 5029 C 486.961 -1.4778 -2.34641 0
M  V30 5030 H 489.912 -1.20378 -1.03415 0
M  V30 5031 H 489.933 -0.785939 -3.72295 0
M  V30 5032 H 489.445 -2.46157 -3.00048 0
M  V30 5033 H 487.546 -0.104508 -3.72453 0
M  V30 5034 H 487.659 -1.8571 -4.41643 0
M  V30 5035 H 486.023 -0.897366 -2.38368 0
M  V30 5036 H 486.806 -2.56562 -2.28102 0
M  V30 5037 N 489.251 1.34841 -0.815825 0
M  V30 5038 C 490.498 1.98499 -0.400535 0
M  V30 5039 C 490.826 1.64699 1.03463 0
M  V30 5040 O 490.081 0.907006 1.73412 0
M  V30 5041 C 490.38 3.53273 -0.541541 0
M  V30 5042 C 490.046 4.06966 -1.94138 0
M  V30 5043 C 488.708 4.21341 -2.32433 0
M  V30 5044 C 491.06 4.35933 -2.85677 0
M  V30 5045 C 488.388 4.62007 -3.61617 0
M  V30 5046 C 490.74 4.78042 -4.14317 0
M  V30 5047 C 489.404 4.90622 -4.52599 0
M  V30 5048 H 488.674 0.72636 -0.146566 0
M  V30 5049 H 491.321 1.60902 -1.0384 0
M  V30 5050 H 489.626 3.91387 0.179741 0
M  V30 5051 H 491.323 4.00497 -0.20085 0
M  V30 5052 H 487.913 3.96235 -1.63388 0
M  V30 5053 H 492.097 4.24372 -2.57337 0
M  V30 5054 H 487.353 4.69937 -3.91113 0
M  V30 5055 H 491.527 4.99415 -4.85342 0
M  V30 5056 H 489.154 5.2189 -5.52752 0
M  V30 5057 N 490.729 0.570148 1.46925 0
M  V30 5058 C 491.975 0.0510284 2.02736 0
M  V30 5059 C 492.308 -1.3006 1.44215 0
M  V30 5060 O 491.583 -1.84932 0.602521 0
M  V30 5061 C 491.866 -0.028215 3.60089 0
M  V30 5062 C 491.719 1.35142 4.29018 0
M  V30 5063 C 493.038 -0.735181 4.33916 0
M  V30 5064 H 490.157 0.0200178 0.736728 0
M  V30 5065 H 492.799 0.73493 1.75211 0
M  V30 5066 H 490.949 -0.610648 3.83671 0
M  V30 5067 H 492.621 1.97806 4.16738 0
M  V30 5068 H 490.864 1.9226 3.88868 0
M  V30 5069 H 491.535 1.24857 5.37694 0
M  V30 5070 H 494.011 -0.240519 4.15404 0
M  V30 5071 H 492.887 -0.759622 5.43618 0
M  V30 5072 H 493.148 -1.79397 4.04066 0
M  V30 5073 N 492.207 -1.54576 0.307264 0
M  V30 5074 C 493.453 -2.0056 -0.300612 0
M  V30 5075 C 493.786 -1.1953 -1.53057 0
M  V30 5076 O 493.061 -0.27337 -1.92569 0
M  V30 5077 C 493.344 -3.54167 -0.650987 0
M  V30 5078 C 493.197 -4.45933 0.588539 0
M  V30 5079 C 494.516 -4.14645 -1.47506 0
M  V30 5080 H 491.635 -0.729075 -0.107788 0
M  V30 5081 H 494.277 -1.85286 0.420606 0
M  V30 5082 H 492.427 -3.67313 -1.26544 0
M  V30 5083 H 494.099 -4.44683 1.22697 0
M  V30 5084 H 492.342 -4.16274 1.22058 0
M  V30 5085 H 493.013 -5.51189 0.299153 0
M  V30 5086 H 495.489 -4.04973 -0.955821 0
M  V30 5087 H 494.365 -5.22269 -1.68899 0
M  V30 5088 H 494.626 -3.66921 -2.4662 0
M  V30 5089 N 493.685 -0.035106 -1.57561 0
M  V30 5090 C 494.648 0.929819 -2.09492 0
M  V30 5091 C 495.648 1.25026 -1.01119 0
M  V30 5092 O 496.838 1.18961 -1.27255 0
M  V30 5093 C 493.97 2.24457 -2.56577 0
M  V30 5094 H 495.163 0.479935 -2.96035 0
M  V30 5095 H 492.716 0.213033 -1.54841 0
M  V30 5096 H 493.451 2.74061 -1.73382 0
M  V30 5097 H 493.236 2.02508 -3.35757 0
M  V30 5098 H 494.726 2.93607 -2.96959 0
M  V30 5099 N 495.163 1.55791 0.238111 0
M  V30 5100 C 496.391 1.82098 0.982233 0
M  V30 5101 C 496.806 0.612025 1.78605 0
M  V30 5102 O 496.163 -0.419381 1.77616 0
M  V30 5103 C 496.214 3.0673 1.91309 0
M  V30 5104 O 495.935 4.2296 1.14179 0
M  V30 5105 C 497.436 3.45903 2.77248 0
M  V30 5106 H 494.656 0.605748 0.288635 0
M  V30 5107 H 497.2 2.02862 0.258341 0
M  V30 5108 H 495.355 2.87991 2.59114 0
M  V30 5109 H 495.769 4.93653 1.7722 0
M  V30 5110 H 497.243 4.36189 3.38295 0
M  V30 5111 H 497.72 2.66891 3.48806 0
M  V30 5112 H 498.326 3.67024 2.14881 0
M  V30 5113 N 496.642 -0.504142 1.49319 0
M  V30 5114 C 497.552 -1.63248 1.68486 0
M  V30 5115 C 498.568 -1.64488 0.567432 0
M  V30 5116 O 499.744 -1.82966 0.841749 0
M  V30 5117 C 496.809 -2.99627 1.74426 0
M  V30 5118 C 495.87 -3.09039 2.97982 0
M  V30 5119 C 495.103 -4.38913 3.0363 0
M  V30 5120 O 495.326 -5.27528 2.16958 0
M  V30 5121 O 494.26 -4.53231 3.96062 0
M  V30 5122 H 498.086 -1.50008 2.64067 0
M  V30 5123 H 495.671 -0.680086 1.33023 0
M  V30 5124 H 497.553 -3.80689 1.80705 0
M  V30 5125 H 496.228 -3.13136 0.820233 0
M  V30 5126 H 495.135 -2.27177 2.97223 0
M  V30 5127 H 496.468 -3.00456 3.89855 0
M  V30 5128 N 498.12 -1.38341 -0.754957 0
M  V30 5129 C 499.068 -1.35573 -1.89005 0
M  V30 5130 C 500.062 -0.241824 -1.67665 0
M  V30 5131 O 501.268 -0.410785 -1.7525 0
M  V30 5132 H 497.643 -0.422898 -0.621821 0
M  V30 5133 H 499.614 -2.31359 -1.88455 0
M  V30 5134 C 498.363 -1.19631 -3.26471 0
M  V30 5135 H 497.686 -2.04605 -3.43477 0
M  V30 5136 H 499.126 -1.21748 -4.06144 0
M  V30 5137 C 497.585 0.0968705 -3.36761 0
M  V30 5138 O 498.115 1.07439 -3.87066 0
M  V30 5139 N 496.321 0.153242 -2.90196 0
M  V30 5140 H 495.868 -0.642908 -2.49448 0
M  V30 5141 H 495.826 1.01807 -2.9746 0
M  V30 5142 N 499.598 0.982988 -1.23187 0
M  V30 5143 C 500.875 1.69814 -0.970707 0
M  V30 5144 C 501.255 2.04811 0.511424 0
M  V30 5145 O 500.603 1.73924 1.48198 0
M  V30 5146 C 500.813 2.94143 -1.87831 0
M  V30 5147 C 502.161 3.66712 -2.14026 0
M  V30 5148 O 503.185 3.04171 -1.8536 0
M  V30 5149 O 502.044 4.79258 -2.62629 0
M  V30 5150 H 499.138 0.741659 -0.365884 0
M  V30 5151 H 501.684 1.03844 -1.34218 0
M  V30 5152 H 500.456 2.64858 -2.88038 0
M  V30 5153 H 500.079 3.6785 -1.50905 0
M  V30 5154 N 501.076 1.04316 1.18135 0
M  V30 5155 C 502.301 0.768047 1.92655 0
M  V30 5156 C 502.726 -0.66904 1.758 0
M  V30 5157 O 502.084 -1.46372 1.06981 0
M  V30 5158 C 502.132 1.14239 3.42026 0
M  V30 5159 O 501.236 0.269333 4.1152 0
M  V30 5160 H 500.577 0.282436 0.600937 0
M  V30 5161 H 503.107 1.39367 1.49793 0
M  V30 5162 H 503.117 1.10538 3.92741 0
M  V30 5163 H 501.792 2.18928 3.53615 0
M  V30 5164 H 500.369 0.366175 3.71098 0
M  V30 5165 N 502.554 -1.34406 0.822964 0
M  V30 5166 C 503.484 -2.32052 0.259608 0
M  V30 5167 C 504.465 -1.58243 -0.623961 0
M  V30 5168 O 505.65 -1.86224 -0.55083 0
M  V30 5169 C 502.78 -3.42434 -0.579314 0
M  V30 5170 C 501.734 -4.27499 0.20712 0
M  V30 5171 C 501.06 -5.29349 -0.754547 0
M  V30 5172 C 502.36 -5.02758 1.41533 0
M  V30 5173 H 504.054 -2.79418 1.07545 0
M  V30 5174 H 501.6 -1.34338 0.518593 0
M  V30 5175 H 503.553 -4.0976 -0.983612 0
M  V30 5176 H 502.277 -2.93717 -1.4282 0
M  V30 5177 H 500.936 -3.61776 0.592787 0
M  V30 5178 H 500.584 -4.76895 -1.59939 0
M  V30 5179 H 500.284 -5.8714 -0.232561 0
M  V30 5180 H 501.808 -5.99544 -1.1567 0
M  V30 5181 H 503.222 -5.62938 1.08504 0
M  V30 5182 H 501.619 -5.70123 1.87296 0
M  V30 5183 H 502.689 -4.32451 2.1935 0
M  V30 5184 N 504.032 -0.577932 -1.46621 0
M  V30 5185 C 504.98 0.170882 -2.31971 0
M  V30 5186 C 505.974 0.889086 -1.44193 0
M  V30 5187 O 507.18 0.808017 -1.60845 0
M  V30 5188 H 503.555 0.0739763 -0.748353 0
M  V30 5189 H 505.526 -0.567856 -2.92947 0
M  V30 5190 C 504.275 1.17438 -3.27267 0
M  V30 5191 H 503.598 0.63116 -3.94787 0
M  V30 5192 H 505.038 1.66882 -3.89778 0
M  V30 5193 C 503.497 2.23292 -2.52274 0
M  V30 5194 O 504.027 3.30567 -2.28229 0
M  V30 5195 N 502.233 1.97772 -2.12919 0
M  V30 5196 H 501.78 1.10545 -2.32675 0
M  V30 5197 H 501.738 2.68809 -1.63062 0
M  V30 5198 N 505.51 1.54411 -0.315457 0
M  V30 5199 C 506.758 2.00023 0.288971 0
M  V30 5200 C 507.079 1.20529 1.5329 0
M  V30 5201 O 506.349 0.304986 1.93511 0
M  V30 5202 H 504.929 0.738891 0.109766 0
M  V30 5203 H 507.591 1.90094 -0.430129 0
M  V30 5204 H 506.687 3.07198 0.550999 0
M  V30 5205 N 506.988 0.0434614 1.5754 0
M  V30 5206 C 508.234 -0.632971 1.92669 0
M  V30 5207 C 508.567 -1.70947 0.921446 0
M  V30 5208 O 507.842 -1.94426 -0.0537202 0
M  V30 5209 C 508.125 -1.23619 3.38216 0
M  V30 5210 C 507.978 -0.168274 4.49485 0
M  V30 5211 C 509.297 -2.15008 3.84005 0
M  V30 5212 H 506.416 -0.228629 0.700641 0
M  V30 5213 H 509.058 0.103651 1.89717 0
M  V30 5214 H 507.208 -1.864 3.40863 0
M  V30 5215 H 508.88 0.463196 4.58969 0
M  V30 5216 H 507.123 0.504581 4.30855 0
M  V30 5217 H 507.794 -0.630218 5.48391 0
M  V30 5218 H 510.27 -1.62198 3.83185 0
M  V30 5219 H 509.146 -2.54161 4.86511 0
M  V30 5220 H 509.407 -3.04707 3.20322 0
M  V30 5221 N 508.466 -1.55915 -0.229846 0
M  V30 5222 C 509.429 -1.90914 -1.26824 0
M  V30 5223 C 510.429 -0.786999 -1.40225 0
M  V30 5224 O 511.619 -1.05484 -1.38632 0
M  V30 5225 C 508.751 -2.15264 -2.64337 0
M  V30 5226 H 509.944 -2.8378 -0.969998 0
M  V30 5227 H 507.497 -1.49069 -0.4699 0
M  V30 5228 H 508.232 -1.24923 -2.99274 0
M  V30 5229 H 508.017 -2.97005 -2.55989 0
M  V30 5230 H 509.507 -2.43467 -3.39284 0
M  V30 5231 N 509.944 0.496216 -1.49584 0
M  V30 5232 C 510.877 1.61508 -1.61215 0
M  V30 5233 C 511.855 1.55927 -0.461045 0
M  V30 5234 O 513.039 1.75914 -0.677231 0
M  V30 5235 C 510.166 3.00035 -1.57152 0
M  V30 5236 C 509.212 3.23861 -2.77518 0
M  V30 5237 S 510.045 3.06466 -4.39134 0
M  V30 5238 C 511.201 4.4738 -4.37724 0
M  V30 5239 H 511.434 1.51398 -2.55863 0
M  V30 5240 H 508.967 0.681727 -1.38535 0
M  V30 5241 H 510.925 3.7991 -1.55494 0
M  V30 5242 H 509.586 3.07556 -0.637834 0
M  V30 5243 H 508.779 4.25 -2.70908 0
M  V30 5244 H 508.381 2.51716 -2.76614 0
M  V30 5245 H 510.673 5.39556 -4.09738 0
M  V30 5246 H 511.616 4.59038 -5.39156 0
M  V30 5247 H 512.024 4.28283 -3.67742 0
M  V30 5248 N 511.423 1.38739 0.74761 0
M  V30 5249 C 512.353 1.39173 1.87492 0
M  V30 5250 C 513.334 0.256794 1.6815 0
M  V30 5251 O 514.519 0.460762 1.88655 0
M  V30 5252 C 511.649 1.22197 3.25093 0
M  V30 5253 C 510.603 2.32957 3.59047 0
M  V30 5254 C 509.929 2.01082 4.95449 0
M  V30 5255 C 511.229 3.75237 3.6331 0
M  V30 5256 H 512.923 2.3351 1.87386 0
M  V30 5257 H 510.469 1.12399 0.900134 0
M  V30 5258 H 512.422 1.21124 4.03617 0
M  V30 5259 H 511.146 0.243241 3.25693 0
M  V30 5260 H 509.805 2.33226 2.82845 0
M  V30 5261 H 509.453 1.01678 4.92616 0
M  V30 5262 H 509.153 2.75267 5.19136 0
M  V30 5263 H 510.677 2.01638 5.76346 0
M  V30 5264 H 512.091 3.76966 4.31937 0
M  V30 5265 H 510.488 4.48677 3.98509 0
M  V30 5266 H 511.558 4.07122 2.634 0
M  V30 5267 N 512.901 -0.976442 1.23707 0
M  V30 5268 C 513.834 -2.06793 0.964973 0
M  V30 5269 C 514.812 -1.62304 -0.0981472 0
M  V30 5270 O 515.996 -1.88464 0.0369477 0
M  V30 5271 C 513.123 -3.35636 0.454522 0
M  V30 5272 C 512.169 -3.99069 1.50485 0
M  V30 5273 S 513.002 -4.37814 3.0835 0
M  V30 5274 C 514.158 -5.69805 2.58985 0
M  V30 5275 H 514.391 -2.29556 1.88922 0
M  V30 5276 H 511.924 -1.11317 1.06995 0
M  V30 5277 H 513.882 -4.10162 0.166626 0
M  V30 5278 H 512.543 -3.10876 -0.448871 0
M  V30 5279 H 511.736 -4.91896 1.09792 0
M  V30 5280 H 511.338 -3.30938 1.7423 0
M  V30 5281 H 513.63 -6.46919 2.01252 0
M  V30 5282 H 514.573 -6.15345 3.50366 0
M  V30 5283 H 514.981 -5.27994 1.99705 0
M  V30 5284 N 514.379 -1.04941 -1.1758 0
M  V30 5285 C 515.627 -0.756492 -1.87408 0
M  V30 5286 C 515.948 0.718478 -1.81281 0
M  V30 5287 O 515.218 1.519 -1.23706 0
M  V30 5288 H 513.798 -0.276841 -0.693807 0
M  V30 5289 H 516.46 -1.32803 -1.42652 0
M  V30 5290 H 515.556 -1.06918 -2.93215 0
M  V30 5291 N 515.857 1.33968 -0.830081 0
M  V30 5292 C 516.807 2.26845 -0.229242 0
M  V30 5293 C 517.791 1.48862 0.610659 0
M  V30 5294 O 518.983 1.70808 0.464067 0
M  V30 5295 C 516.112 3.3798 0.602057 0
M  V30 5296 C 515.198 4.23369 -0.248866 0
M  V30 5297 N 515.589 4.88182 -1.32334 0
M  V30 5298 C 513.887 4.45987 -0.0344077 0
M  V30 5299 C 514.588 5.51671 -1.84482 0
M  V30 5300 N 513.564 5.31348 -1.14762 0
M  V30 5301 H 517.366 2.74464 -1.05104 0
M  V30 5302 H 514.88 1.4777 -0.673623 0
M  V30 5303 H 516.877 4.03494 1.04873 0
M  V30 5304 H 515.537 2.9191 1.42193 0
M  V30 5305 H 516.548 4.88988 -1.70619 0
M  V30 5306 H 513.225 4.10658 0.752727 0
M  V30 5307 H 514.615 6.13308 -2.74413 0
M  V30 5308 N 517.335 0.585699 1.46312 0
M  V30 5309 C 518.267 -0.183687 2.28463 0
M  V30 5310 C 519.28 -0.85264 1.38686 0
M  V30 5311 O 520.469 -0.721701 1.6326 0
M  V30 5312 C 517.569 -1.27977 3.13808 0
M  V30 5313 C 516.742 -0.702164 4.31727 0
M  V30 5314 C 515.801 -1.68633 4.98447 0
M  V30 5315 O 514.827 -1.22121 5.55945 0
M  V30 5316 N 516.029 -3.02047 4.95729 0
M  V30 5317 H 518.794 0.521127 2.95134 0
M  V30 5318 H 516.355 0.423673 1.56258 0
M  V30 5319 H 518.347 -1.9375 3.55307 0
M  V30 5320 H 516.917 -1.8874 2.4919 0
M  V30 5321 H 516.137 0.1331 3.93975 0
M  V30 5322 H 517.425 -0.296101 5.07938 0
M  V30 5323 H 516.823 -3.42457 4.50266 0
M  V30 5324 H 515.38 -3.63301 5.41161 0
M  V30 5325 N 518.813 -1.54241 0.323641 0
M  V30 5326 C 519.743 -2.27289 -0.534993 0
M  V30 5327 C 520.724 -1.28087 -1.11927 0
M  V30 5328 O 521.909 -1.56899 -1.14439 0
M  V30 5329 C 519.039 -3.03075 -1.69596 0
M  V30 5330 C 517.993 -4.09614 -1.24098 0
M  V30 5331 C 517.319 -4.73242 -2.4889 0
M  V30 5332 C 518.619 -5.21087 -0.355789 0
M  V30 5333 H 520.313 -2.99308 0.0743257 0
M  V30 5334 H 517.859 -1.43952 0.0371874 0
M  V30 5335 H 519.812 -3.52907 -2.30293 0
M  V30 5336 H 518.536 -2.28673 -2.33187 0
M  V30 5337 H 517.195 -3.60666 -0.656945 0
M  V30 5338 H 516.843 -3.95455 -3.10845 0
M  V30 5339 H 516.543 -5.45209 -2.19138 0
M  V30 5340 H 518.067 -5.25848 -3.10348 0
M  V30 5341 H 519.481 -5.66675 -0.869042 0
M  V30 5342 H 517.878 -5.9991 -0.151045 0
M  V30 5343 H 518.948 -4.81005 0.613339 0
M  V30 5344 N 520.291 -0.0518155 -1.57515 0
M  V30 5345 C 521.519 0.631395 -1.9703 0
M  V30 5346 C 521.934 1.64341 -0.92938 0
M  V30 5347 O 521.291 1.82296 0.0863266 0
M  V30 5348 C 521.342 1.31774 -3.36627 0
M  V30 5349 O 521.063 0.346247 -4.3673 0
M  V30 5350 C 522.564 2.09065 -3.90905 0
M  V30 5351 H 519.784 0.172576 -0.648428 0
M  V30 5352 H 522.328 -0.118306 -2.04158 0
M  V30 5353 H 520.483 2.01867 -3.30649 0
M  V30 5354 H 520.897 0.836226 -5.17791 0
M  V30 5355 H 522.371 2.52508 -4.9086 0
M  V30 5356 H 522.848 2.93908 -3.26366 0
M  V30 5357 H 523.454 1.43882 -4.00223 0
M  V30 5358 N 521.769 1.56035 0.221574 0
M  V30 5359 C 523.017 1.78693 0.944102 0
M  V30 5360 C 523.338 0.620317 1.8487 0
M  V30 5361 O 522.608 -0.362784 1.92512 0
M  V30 5362 H 521.188 0.659082 0.351597 0
M  V30 5363 H 523.85 1.93497 0.233435 0
M  V30 5364 H 522.946 2.70837 1.55093 0
M  V30 5365 N 523.247 -0.488276 1.49845 0
M  V30 5366 C 524.475 -1.26527 1.63702 0
M  V30 5367 C 524.89 -1.8618 0.313447 0
M  V30 5368 O 524.247 -1.68432 -0.702624 0
M  V30 5369 C 524.298 -2.3864 2.71538 0
M  V30 5370 O 524.019 -1.81437 3.98763 0
M  V30 5371 C 525.52 -3.29805 2.96215 0
M  V30 5372 H 522.74 -0.383295 0.55075 0
M  V30 5373 H 525.284 -0.584779 1.95961 0
M  V30 5374 H 523.439 -3.02496 2.42023 0
M  V30 5375 H 523.853 -2.55135 4.58265 0
M  V30 5376 H 525.327 -4.04722 3.75372 0
M  V30 5377 H 525.804 -3.87563 2.06619 0
M  V30 5378 H 526.41 -2.71703 3.27196 0
M  V30 5379 N 524.725 -1.39134 -0.740242 0
M  V30 5380 C 525.688 -1.37217 -1.83587 0
M  V30 5381 C 526.688 -0.270221 -1.58513 0
M  V30 5382 O 527.878 -0.527843 -1.6601 0
M  V30 5383 C 525.01 -1.13959 -3.21288 0
M  V30 5384 H 526.203 -2.34705 -1.86691 0
M  V30 5385 H 523.756 -1.24622 -0.94335 0
M  V30 5386 H 524.491 -0.17131 -3.23847 0
M  V30 5387 H 524.276 -1.93754 -3.40884 0
M  V30 5388 H 525.766 -1.15346 -4.01354 0
M  V30 5389 N 526.204 0.969867 -1.24223 0
M  V30 5390 C 527.136 2.0669 -0.99055 0
M  V30 5391 C 528.149 1.62753 0.0392222 0
M  V30 5392 O 529.338 1.77403 -0.197561 0
M  V30 5393 C 526.438 3.35589 -0.472594 0
M  V30 5394 C 525.611 4.08444 -1.56499 0
M  V30 5395 C 524.67 5.15616 -1.05007 0
M  V30 5396 O 523.696 5.41911 -1.7413 0
M  V30 5397 N 524.898 5.80383 0.116641 0
M  V30 5398 H 527.663 2.28855 -1.93508 0
M  V30 5399 H 525.224 1.13733 -1.15223 0
M  V30 5400 H 527.216 4.04542 -0.112919 0
M  V30 5401 H 525.786 3.10311 0.377617 0
M  V30 5402 H 525.006 3.33798 -2.09696 0
M  V30 5403 H 526.294 4.53882 -2.29932 0
M  V30 5404 H 525.692 5.6142 0.694589 0
M  V30 5405 H 524.249 6.50462 0.417483 0
M  V30 5406 N 527.682 1.05563 1.17022 0
M  V30 5407 C 528.928 0.769074 1.87652 0
M  V30 5408 C 529.261 -0.702326 1.81055 0
M  V30 5409 O 528.536 -1.5139 1.22112 0
M  V30 5410 C 528.819 1.25492 3.37526 0
M  V30 5411 C 528.672 2.78953 3.52853 0
M  V30 5412 C 529.991 0.856919 4.31677 0
M  V30 5413 H 527.11 0.280854 0.681388 0
M  V30 5414 H 529.752 1.31027 1.37593 0
M  V30 5415 H 527.902 0.794516 3.80289 0
M  V30 5416 H 529.574 3.33146 3.19079 0
M  V30 5417 H 527.817 3.18046 2.95007 0
M  V30 5418 H 528.488 3.08011 4.58076 0
M  V30 5419 H 530.964 1.25334 3.96775 0
M  V30 5420 H 529.84 1.22443 5.35069 0
M  V30 5421 H 530.101 -0.238787 4.41455 0
M  V30 5422 N 529.16 -1.33526 0.837174 0
M  V30 5423 C 530.407 -1.97837 0.432064 0
M  V30 5424 C 530.735 -1.66324 -1.00829 0
M  V30 5425 O 529.99 -0.93448 -1.71948 0
M  V30 5426 C 530.289 -3.52367 0.597675 0
M  V30 5427 C 529.955 -4.03826 2.00587 0
M  V30 5428 C 528.617 -4.1759 2.39106 0
M  V30 5429 C 530.969 -4.31333 2.92576 0
M  V30 5430 C 528.297 -4.56195 3.68921 0
M  V30 5431 C 530.649 -4.7139 4.2187 0
M  V30 5432 C 529.313 -4.8336 4.60347 0
M  V30 5433 H 528.583 -0.723937 0.158104 0
M  V30 5434 H 531.23 -1.5923 1.06387 0
M  V30 5435 H 529.535 -3.91624 -0.117452 0
M  V30 5436 H 531.232 -4.00126 0.26454 0
M  V30 5437 H 527.822 -3.93586 1.69671 0
M  V30 5438 H 532.006 -4.20224 2.64056 0
M  V30 5439 H 527.262 -4.63655 3.9854 0
M  V30 5440 H 531.436 -4.91631 4.93226 0
M  V30 5441 H 529.063 -5.1303 5.60985 0
M  V30 5442 N 530.638 -0.59345 -1.46 0
M  V30 5443 C 531.601 0.123538 -2.28867 0
M  V30 5444 C 532.601 0.808628 -1.38989 0
M  V30 5445 O 533.791 0.658945 -1.61256 0
M  V30 5446 C 530.923 1.1847 -3.19653 0
M  V30 5447 H 532.116 -0.604843 -2.93737 0
M  V30 5448 H 529.669 -0.351875 -1.52288 0
M  V30 5449 H 530.404 1.94431 -2.59552 0
M  V30 5450 H 530.189 0.69783 -3.8584 0
M  V30 5451 H 531.679 1.68726 -3.81997 0
M  V30 5452 N 532.116 1.54067 -0.331816 0
M  V30 5453 C 533.393 1.92915 0.322955 0
M  V30 5454 C 533.773 1.26225 1.69205 0
M  V30 5455 O 533.121 0.408919 2.24811 0
M  V30 5456 C 533.331 3.46619 0.406946 0
M  V30 5457 C 534.679 4.19386 0.663339 0
M  V30 5458 O 535.703 3.5282 0.489536 0
M  V30 5459 O 534.562 5.37288 0.999193 0
M  V30 5460 H 531.656 0.805808 0.186016 0
M  V30 5461 H 534.202 1.65342 -0.382135 0
M  V30 5462 H 532.974 3.87354 -0.554287 0
M  V30 5463 H 532.597 3.80324 1.15929 0
M  V30 5464 N 533.594 0.0601682 1.57485 0
M  V30 5465 C 534.84 -0.612501 1.93329 0
M  V30 5466 C 535.173 -1.6996 0.939526 0
M  V30 5467 O 534.448 -1.94472 -0.0330957 0
M  V30 5468 C 534.731 -1.20025 3.39508 0
M  V30 5469 C 534.584 -0.12059 4.49638 0
M  V30 5470 C 535.903 -2.10923 3.86264 0
M  V30 5471 H 533.022 -0.221185 0.703027 0
M  V30 5472 H 535.664 0.123768 1.89596 0
M  V30 5473 H 533.814 -1.82774 3.42821 0
M  V30 5474 H 535.486 0.51185 4.58452 0
M  V30 5475 H 533.729 0.550251 4.30296 0
M  V30 5476 H 534.4 -0.572019 5.49028 0
M  V30 5477 H 536.876 -1.58124 3.84884 0
M  V30 5478 H 535.752 -2.48987 4.8918 0
M  V30 5479 H 536.013 -3.01292 3.23536 0
M  V30 5480 N 535.072 -1.5615 -0.213296 0
M  V30 5481 C 536.488 -1.49327 -0.56336 0
M  V30 5482 C 536.688 -0.756826 -1.86747 0
M  V30 5483 O 535.744 -0.299866 -2.50713 0
M  V30 5484 C 537.057 -2.9392 -0.634944 0
M  V30 5485 C 538.605 -3.04487 -0.725013 0
M  V30 5486 C 539.08 -4.50456 -0.82787 0
M  V30 5487 N 540.571 -4.54533 -0.891876 0
M  V30 5488 C 541.306 -5.64766 -0.991315 0
M  V30 5489 N 540.802 -6.84733 -1.05419 0
M  V30 5490 N 542.595 -5.52637 -1.02709 0
M  V30 5491 H 534.746 -2.02453 0.642366 0
M  V30 5492 H 537.009 -0.920548 0.226487 0
M  V30 5493 H 536.715 -3.50783 0.253859 0
M  V30 5494 H 536.589 -3.46274 -1.49579 0
M  V30 5495 H 538.976 -2.47685 -1.60425 0
M  V30 5496 H 539.057 -2.55289 0.161669 0
M  V30 5497 H 538.701 -5.07878 0.0469464 0
M  V30 5498 H 538.631 -4.97369 -1.73009 0
M  V30 5499 H 541.122 -3.68141 -0.85327 0
M  V30 5500 H 541.435 -7.64493 -1.13007 0
M  V30 5501 H 539.78 -6.87427 -1.02318 0
M  V30 5502 H 542.971 -4.5784 -0.974687 0
M  V30 5503 H 543.144 -6.38576 -1.10113 0
M  V30 5504 N 536.55 0.480323 -1.50102 0
M  V30 5505 C 537.778 1.25657 -1.64371 0
M  V30 5506 C 538.193 1.86011 -0.323316 0
M  V30 5507 O 537.55 1.68803 0.693682 0
M  V30 5508 C 537.601 2.37197 -2.728 0
M  V30 5509 O 537.322 1.7932 -3.9972 0
M  V30 5510 C 538.823 3.2823 -2.9796 0
M  V30 5511 H 536.043 0.380369 -0.552775 0
M  V30 5512 H 538.587 0.574379 -1.96268 0
M  V30 5513 H 536.742 3.01208 -2.43623 0
M  V30 5514 H 537.156 2.52701 -4.59611 0
M  V30 5515 H 538.63 4.02725 -3.77513 0
M  V30 5516 H 539.107 3.86462 -2.08671 0
M  V30 5517 H 539.713 2.69964 -3.28633 0
M  V30 5518 N 538.028 1.39524 0.732853 0
M  V30 5519 C 539.258 1.3994 1.51988 0
M  V30 5520 C 539.666 -0.00727973 1.89199 0
M  V30 5521 O 539.009 -0.989521 1.54771 0
M  V30 5522 C 539.071 2.21026 2.83527 0
M  V30 5523 C 538.735 3.69633 2.68738 0
M  V30 5524 C 539.732 4.62665 2.37143 0
M  V30 5525 C 537.417 4.13244 2.85542 0
M  V30 5526 C 539.411 5.97291 2.22536 0
M  V30 5527 C 537.098 5.47945 2.70554 0
M  V30 5528 C 538.096 6.39783 2.39097 0
M  V30 5529 O 537.784 7.72002 2.24204 0
M  V30 5530 H 537.516 0.479795 0.476206 0
M  V30 5531 H 540.07 1.8399 0.913054 0
M  V30 5532 H 538.3 1.71728 3.46477 0
M  V30 5533 H 539.989 2.13594 3.45156 0
M  V30 5534 H 540.755 4.30272 2.2381 0
M  V30 5535 H 536.634 3.42094 3.09019 0
M  V30 5536 H 540.178 6.68939 1.97905 0
M  V30 5537 H 536.075 5.79928 2.83466 0
M  V30 5538 H 536.843 7.8275 2.39258 0
M  V30 5539 N 539.506 -0.963266 1.24736 0
M  V30 5540 C 540.752 -1.71 1.10139 0
M  V30 5541 C 541.107 -1.89089 -0.35541 0
M  V30 5542 O 540.4 -1.44451 -1.25875 0
M  V30 5543 C 540.594 -3.09944 1.7796 0
M  V30 5544 C 540.423 -3.05408 3.30085 0
M  V30 5545 C 539.193 -3.09643 3.99311 0
M  V30 5546 C 541.391 -2.87241 4.26611 0
M  V30 5547 N 539.373 -2.95174 5.3828 0
M  V30 5548 C 540.744 -2.81114 5.52607 0
M  V30 5549 C 542.799 -2.71856 4.17132 0
M  V30 5550 C 541.502 -2.61174 6.70209 0
M  V30 5551 C 543.528 -2.53284 5.34417 0
M  V30 5552 C 542.89 -2.4787 6.59348 0
M  V30 5553 H 538.989 -0.634078 0.457678 0
M  V30 5554 H 541.573 -1.14169 1.57713 0
M  V30 5555 H 539.744 -3.64958 1.32893 0
M  V30 5556 H 541.476 -3.73348 1.56183 0
M  V30 5557 H 538.231 -3.18498 3.50508 0
M  V30 5558 H 538.655 -2.91168 6.11188 0
M  V30 5559 H 543.297 -2.74821 3.21299 0
M  V30 5560 H 541.015 -2.56952 7.6616 0
M  V30 5561 H 544.601 -2.42317 5.28936 0
M  V30 5562 H 543.481 -2.33685 7.48573 0
M  V30 5563 N 540.985 -1.06182 -1.16461 0
M  V30 5564 C 542.21 -0.798599 -1.91408 0
M  V30 5565 C 542.635 0.640987 -1.76842 0
M  V30 5566 O 541.993 1.44652 -1.09296 0
M  V30 5567 C 542.041 -1.19665 -3.40165 0
M  V30 5568 O 541.145 -0.334768 -4.11039 0
M  V30 5569 H 540.486 -0.291961 -0.596368 0
M  V30 5570 H 543.016 -1.41732 -1.47557 0
M  V30 5571 H 543.026 -1.16772 -3.90933 0
M  V30 5572 H 541.701 -2.24526 -3.50087 0
M  V30 5573 H 540.278 -0.425168 -3.70468 0
M  V30 5574 N 542.463 1.3308 -0.844243 0
M  V30 5575 C 543.874 1.7992 -0.498566 0
M  V30 5576 C 544.225 1.69808 0.982834 0
M  V30 5577 O 543.35 1.25051 1.7661 0
M  V30 5578 C 543.945 3.26677 -0.898204 0
M  V30 5579 C 542.504 3.71513 -0.604583 0
M  V30 5580 C 541.651 2.54393 -1.10362 0
M  V30 5581 H 544.602 1.20526 -1.03244 0
M  V30 5582 H 544.623 3.79918 -0.21039 0
M  V30 5583 H 544.135 3.34004 -1.97643 0
M  V30 5584 H 542.236 3.69708 0.46335 0
M  V30 5585 H 542.349 4.64755 -1.16358 0
M  V30 5586 H 540.713 2.49246 -0.524273 0
M  V30 5587 H 541.496 2.6448 -2.18873 0
M  V30 5588 N 543.941 0.601185 1.45683 0
M  V30 5589 C 544.851 -0.123395 2.34275 0
M  V30 5590 C 545.867 -0.86702 1.5086 0
M  V30 5591 O 547.043 -0.826049 1.8368 0
M  V30 5592 C 544.108 -1.11237 3.2837 0
M  V30 5593 C 543.169 -0.371405 4.2769 0
M  V30 5594 C 542.402 -1.31327 5.1729 0
M  V30 5595 O 542.625 -2.55078 5.10188 0
M  V30 5596 O 541.559 -0.813811 5.96373 0
M  V30 5597 H 545.385 0.604483 2.97623 0
M  V30 5598 H 542.97 0.361477 1.44961 0
M  V30 5599 H 544.852 -1.68214 3.8637 0
M  V30 5600 H 543.527 -1.82139 2.67595 0
M  V30 5601 H 542.434 0.24067 3.73325 0
M  V30 5602 H 543.767 0.296998 4.91303 0
M  V30 5603 N 545.419 -1.53889 0.339982 0
M  V30 5604 C 546.382 -2.23547 -0.50592 0
M  V30 5605 C 547.382 -1.23445 -1.03044 0
M  V30 5606 O 548.572 -1.47909 -0.920253 0
M  V30 5607 C 545.704 -2.95234 -1.7044 0
M  V30 5608 H 546.897 -2.99722 0.103247 0
M  V30 5609 H 544.45 -1.56033 0.0912804 0
M  V30 5610 H 545.185 -2.23236 -2.35236 0
M  V30 5611 H 544.97 -3.68654 -1.33553 0
M  V30 5612 H 546.46 -3.48258 -2.30447 0
M  V30 5613 N 546.897 -0.0685191 -1.57451 0
M  V30 5614 C 548.146 0.600898 -1.92541 0
M  V30 5615 C 548.459 1.70967 -0.950239 0
M  V30 5616 O 549.665 2.43844 -1.19384 0
M  V30 5617 C 548.121 1.12019 -3.42023 0
M  V30 5618 C 547.729 0.0426028 -4.4798 0
M  V30 5619 C 549.473 1.76386 -3.86119 0
M  V30 5620 C 547.38 0.575759 -5.88591 0
M  V30 5621 H 546.31 0.228225 -0.71863 0
M  V30 5622 H 548.961 -0.140223 -1.82963 0
M  V30 5623 H 547.343 1.91418 -3.46663 0
M  V30 5624 H 548.517 -0.73182 -4.54952 0
M  V30 5625 H 546.832 -0.504642 -4.13331 0
M  V30 5626 H 549.429 2.17302 -4.88553 0
M  V30 5627 H 549.772 2.62255 -3.23308 0
M  V30 5628 H 550.305 1.03615 -3.84069 0
M  V30 5629 H 547.044 -0.245691 -6.55039 0
M  V30 5630 H 546.564 1.31778 -5.85145 0
M  V30 5631 H 548.243 1.0532 -6.3837 0
M  V30 5632 N 548.375 1.56261 0.205012 0
M  V30 5633 C 549.285 1.96944 1.27476 0
M  V30 5634 C 550.301 0.875636 1.50362 0
M  V30 5635 O 551.477 1.18058 1.6317 0
M  V30 5636 C 548.542 2.29219 2.60115 0
M  V30 5637 C 547.603 3.52255 2.45387 0
M  V30 5638 C 546.836 3.8298 3.71701 0
M  V30 5639 O 547.059 3.15138 4.75441 0
M  V30 5640 O 545.993 4.76435 3.67823 0
M  V30 5641 H 549.819 2.88144 0.959527 0
M  V30 5642 H 547.404 1.43686 0.409217 0
M  V30 5643 H 549.286 2.51098 3.3842 0
M  V30 5644 H 547.961 1.4119 2.91285 0
M  V30 5645 H 546.868 3.35635 1.65227 0
M  V30 5646 H 548.201 4.40719 2.19152 0
M  V30 5647 N 549.853 -0.472356 1.50355 0
M  V30 5648 C 551.269 -0.806001 1.37753 0
M  V30 5649 C 551.469 -1.968 0.432649 0
M  V30 5650 O 550.525 -2.52189 -0.12519 0
M  V30 5651 C 551.838 -1.11926 2.79093 0
M  V30 5652 C 553.386 -1.22579 2.87999 0
M  V30 5653 C 553.861 -1.57218 4.3017 0
M  V30 5654 N 555.352 -1.64212 4.33115 0
M  V30 5655 C 556.087 -1.92517 5.40116 0
M  V30 5656 N 555.583 -2.1885 6.57325 0
M  V30 5657 N 557.376 -1.94008 5.27558 0
M  V30 5658 H 549.527 0.293451 2.10363 0
M  V30 5659 H 551.79 0.0687672 0.945503 0
M  V30 5660 H 551.496 -0.338504 3.50067 0
M  V30 5661 H 551.37 -2.05577 3.16256 0
M  V30 5662 H 553.757 -1.99722 2.17245 0
M  V30 5663 H 553.838 -0.269107 2.54381 0
M  V30 5664 H 553.482 -0.806154 5.01461 0
M  V30 5665 H 553.412 -2.54034 4.61275 0
M  V30 5666 H 555.903 -1.45906 3.48597 0
M  V30 5667 H 556.216 -2.39718 7.3468 0
M  V30 5668 H 554.561 -2.16245 6.60502 0
M  V30 5669 H 557.752 -1.72931 4.34986 0
M  V30 5670 H 557.925 -2.15731 6.11035 0
M  V30 5671 N 551.331 -1.39911 -0.725443 0
M  V30 5672 C 552.577 -1.37858 -1.48738 0
M  V30 5673 C 552.91 0.0224187 -1.94187 0
M  V30 5674 O 552.185 0.989204 -1.67466 0
M  V30 5675 C 552.468 -2.3594 -2.72038 0
M  V30 5676 C 552.321 -3.85023 -2.32546 0
M  V30 5677 C 553.64 -2.31704 -3.74167 0
M  V30 5678 H 550.759 -0.502074 -0.539528 0
M  V30 5679 H 553.401 -1.70974 -0.828728 0
M  V30 5680 H 551.551 -2.0783 -3.28236 0
M  V30 5681 H 553.223 -4.2392 -1.81905 0
M  V30 5682 H 551.466 -4.01334 -1.64661 0
M  V30 5683 H 552.137 -4.49152 -3.20884 0
M  V30 5684 H 554.613 -2.5658 -3.27576 0
M  V30 5685 H 553.489 -3.02395 -4.58092 0
M  V30 5686 H 553.75 -1.3253 -4.21768 0
M  V30 5687 N 552.809 0.956637 -1.25245 0
M  V30 5688 C 554.037 1.73571 -1.12608 0
M  V30 5689 C 554.452 1.86063 0.320324 0
M  V30 5690 O 553.809 1.35691 1.22042 0
M  V30 5691 C 553.86 3.15053 -1.77268 0
M  V30 5692 O 553.581 3.03174 -3.16255 0
M  V30 5693 C 555.082 4.09248 -1.70386 0
M  V30 5694 H 552.302 0.543955 -0.392879 0
M  V30 5695 H 554.846 1.20031 -1.65568 0
M  V30 5696 H 553.001 3.65543 -1.28284 0
M  V30 5697 H 553.415 3.9241 -3.48015 0
M  V30 5698 H 554.889 5.06138 -2.20291 0
M  V30 5699 H 555.366 4.34102 -0.667239 0
M  V30 5700 H 555.972 3.64672 -2.18849 0
M  V30 5701 N 554.287 1.06798 1.15896 0
M  V30 5702 C 555.535 0.786211 1.8618 0
M  V30 5703 C 555.856 -0.689547 1.82401 0
M  V30 5704 O 555.126 -1.49913 1.26107 0
M  V30 5705 H 553.706 0.287843 0.689315 0
M  V30 5706 H 556.368 1.35055 1.40521 0
M  V30 5707 H 555.464 1.1157 2.91477 0
M  V30 5708 N 555.766 -1.3263 0.851289 0
M  V30 5709 C 556.716 -2.26451 0.265302 0
M  V30 5710 C 557.7 -1.49814 -0.586899 0
M  V30 5711 O 558.892 -1.71525 -0.436834 0
M  V30 5712 C 556.021 -3.38895 -0.548212 0
M  V30 5713 C 555.107 -4.2292 0.316189 0
M  V30 5714 N 555.498 -4.86014 1.40084 0
M  V30 5715 C 553.796 -4.45876 0.105356 0
M  V30 5716 C 554.497 -5.48667 1.93235 0
M  V30 5717 N 553.473 -5.29455 1.232 0
M  V30 5718 H 557.275 -2.72757 1.09457 0
M  V30 5719 H 554.789 -1.4668 0.697047 0
M  V30 5720 H 556.786 -4.05111 -0.984402 0
M  V30 5721 H 555.446 -2.94135 -1.37531 0
M  V30 5722 H 556.457 -4.86212 1.78377 0
M  V30 5723 H 553.134 -4.11804 -0.687299 0
M  V30 5724 H 554.524 -6.08865 2.84135 0
M  V30 5725 N 557.244 -0.608902 -1.45362 0
M  V30 5726 C 558.191 0.109172 -2.30542 0
M  V30 5727 C 559.161 0.858704 -1.42181 0
M  V30 5728 O 560.346 0.844178 -1.71109 0
M  V30 5729 C 557.486 1.09971 -3.27109 0
M  V30 5730 C 556.599 0.350911 -4.30572 0
M  V30 5731 C 555.734 1.33129 -5.14247 0
M  V30 5732 C 554.773 0.570377 -6.09437 0
M  V30 5733 N 553.91 1.5001 -6.85887 0
M  V30 5734 H 558.75 -0.623195 -2.91411 0
M  V30 5735 H 556.287 -0.319122 -1.43597 0
M  V30 5736 H 558.245 1.68714 -3.81564 0
M  V30 5737 H 556.875 1.79947 -2.67991 0
M  V30 5738 H 555.927 -0.352054 -3.78767 0
M  V30 5739 H 557.239 -0.242725 -4.98209 0
M  V30 5740 H 556.393 1.99074 -5.73109 0
M  V30 5741 H 555.132 1.95885 -4.46632 0
M  V30 5742 H 554.137 -0.102702 -5.49704 0
M  V30 5743 H 555.362 -0.0521607 -6.7908 0
M  V30 5744 H 553.308 2.11529 -6.2096 0
M  V30 5745 H 553.225 0.959934 -7.49881 0
M  V30 5746 H 554.493 2.14909 -7.49289 0
M  V30 5747 N 558.722 1.53707 -0.348139 0
M  V30 5748 C 559.652 2.28111 0.498766 0
M  V30 5749 C 560.633 1.29851 1.09876 0
M  V30 5750 O 561.818 1.587 1.11928 0
M  V30 5751 C 558.948 3.05735 1.64753 0
M  V30 5752 C 557.902 4.11537 1.17565 0
M  V30 5753 C 557.228 4.77142 2.4133 0
M  V30 5754 C 558.528 5.21587 0.272844 0
M  V30 5755 H 560.222 2.99152 -0.121934 0
M  V30 5756 H 557.768 1.43875 -0.0600842 0
M  V30 5757 H 559.721 3.56526 2.24649 0
M  V30 5758 H 558.445 2.32354 2.2952 0
M  V30 5759 H 557.104 3.61665 0.599483 0
M  V30 5760 H 556.752 4.0035 3.04514 0
M  V30 5761 H 556.452 5.48626 2.10436 0
M  V30 5762 H 557.976 5.30719 3.01943 0
M  V30 5763 H 559.39 5.67986 0.778779 0
M  V30 5764 H 557.787 6.00074 0.0555849 0
M  V30 5765 H 558.857 4.79969 -0.689785 0
M  V30 5766 N 560.2 0.0768682 1.57412 0
M  V30 5767 C 561.477 -0.632359 1.85096 0
M  V30 5768 C 561.857 -1.87479 0.9703 0
M  V30 5769 O 561.205 -2.28469 0.0379062 0
M  V30 5770 C 561.415 -0.965174 3.35388 0
M  V30 5771 C 562.763 -1.33648 4.03018 0
M  V30 5772 O 563.787 -1.05675 3.40164 0
M  V30 5773 O 562.646 -1.85959 5.13889 0
M  V30 5774 H 559.74 -0.314574 0.764835 0
M  V30 5775 H 562.286 0.108184 1.69355 0
M  V30 5776 H 561.058 -0.0829745 3.91212 0
M  V30 5777 H 560.681 -1.76231 3.5641 0
M  V30 5778 N 561.678 -1.56367 -0.196722 0
M  V30 5779 C 562.926 -1.80172 -0.915554 0
M  V30 5780 C 563.247 -0.649649 -1.8386 0
M  V30 5781 O 562.517 0.332111 -1.93064 0
M  V30 5782 H 561.097 -0.664592 -0.341067 0
M  V30 5783 H 563.759 -1.93844 -0.202622 0
M  V30 5784 H 562.855 -2.7327 -1.50764 0
M  V30 5785 N 563.156 0.464375 -1.50603 0
M  V30 5786 C 564.086 1.56944 -1.72889 0
M  V30 5787 C 565.067 1.59979 -0.577997 0
M  V30 5788 O 566.252 1.76138 -0.817855 0
M  V30 5789 C 563.382 2.95225 -1.8292 0
M  V30 5790 C 562.336 3.07056 -2.98162 0
M  V30 5791 C 561.662 4.47051 -2.93343 0
M  V30 5792 C 562.962 2.83648 -4.38567 0
M  V30 5793 H 564.656 1.38547 -2.65415 0
M  V30 5794 H 562.202 0.665082 -1.27721 0
M  V30 5795 H 564.155 3.72467 -1.97095 0
M  V30 5796 H 562.879 3.14793 -0.870209 0
M  V30 5797 H 561.538 2.32248 -2.83648 0
M  V30 5798 H 561.186 4.63547 -1.95276 0
M  V30 5799 H 560.886 4.55902 -3.70712 0
M  V30 5800 H 562.41 5.26304 -3.09575 0
M  V30 5801 H 563.824 3.50636 -4.53572 0
M  V30 5802 H 562.221 3.03937 -5.17438 0
M  V30 5803 H 563.291 1.79451 -4.50472 0
M  V30 5804 N 564.634 1.40294 0.718013 0
M  V30 5805 C 565.597 1.4012 1.81381 0
M  V30 5806 C 566.597 0.295405 1.58063 0
M  V30 5807 O 567.787 0.554187 1.6515 0
M  V30 5808 C 564.919 1.19056 3.19435 0
M  V30 5809 H 566.112 2.37645 1.82933 0
M  V30 5810 H 563.665 1.26107 0.923405 0
M  V30 5811 H 564.4 0.222809 3.23534 0
M  V30 5812 H 564.185 1.99152 3.37758 0
M  V30 5813 H 565.675 1.21716 3.99468 0
M  V30 5814 N 566.112 -0.949982 1.2575 0
M  V30 5815 C 567.022 -2.08109 1.08295 0
M  V30 5816 C 568.038 -1.7399 0.0188181 0
M  V30 5817 O 569.214 -2.00187 0.220724 0
M  V30 5818 C 566.279 -3.39383 0.708534 0
M  V30 5819 C 565.34 -3.8734 1.85111 0
M  V30 5820 C 564.573 -5.12349 1.49447 0
M  V30 5821 O 564.796 -5.6905 0.392212 0
M  V30 5822 O 563.73 -5.5513 2.32624 0
M  V30 5823 H 567.556 -2.25738 2.03165 0
M  V30 5824 H 565.141 -1.06545 1.04731 0
M  V30 5825 H 567.023 -4.18277 0.512061 0
M  V30 5826 H 565.698 -3.23013 -0.210854 0
M  V30 5827 H 564.605 -3.09429 2.10248 0
M  V30 5828 H 565.938 -4.08216 2.74991 0
M  V30 5829 N 567.59 -1.07411 -1.15328 0
M  V30 5830 C 568.54 -0.664788 -2.18093 0
M  V30 5831 C 569.524 0.310395 -1.57878 0
M  V30 5832 O 570.716 0.124026 -1.76565 0
M  V30 5833 C 567.845 -0.0647822 -3.43239 0
M  V30 5834 C 566.931 -1.06514 -4.10506 0
M  V30 5835 N 567.322 -2.24491 -4.53252 0
M  V30 5836 C 565.62 -0.898613 -4.36853 0
M  V30 5837 C 566.321 -2.8796 -5.05424 0
M  V30 5838 N 565.297 -2.15622 -4.99007 0
M  V30 5839 H 569.099 -1.56333 -2.48872 0
M  V30 5840 H 566.613 -0.947393 -1.31902 0
M  V30 5841 H 568.61 0.246363 -4.16171 0
M  V30 5842 H 567.27 0.828866 -3.13943 0
M  V30 5843 H 568.281 -2.62205 -4.46619 0
M  V30 5844 H 564.958 -0.0579118 -4.1746 0
M  V30 5845 H 566.348 -3.88137 -5.48452 0
M  V30 5846 N 569.068 1.32177 -0.85831 0
M  V30 5847 C 570.316 1.96735 -0.462568 0
M  V30 5848 C 570.637 1.6824 0.985911 0
M  V30 5849 O 569.907 0.991564 1.68952 0
M  V30 5850 H 568.487 0.727849 -0.168064 0
M  V30 5851 H 571.149 1.61195 -1.09554 0
M  V30 5852 H 570.245 3.06068 -0.610647 0
M  V30 5853 N 570.547 0.616602 1.45037 0
M  V30 5854 C 571.796 0.112861 2.01384 0
M  V30 5855 C 572.109 -1.26758 1.48969 0
M  V30 5856 O 573.315 -1.86454 1.9735 0
M  V30 5857 C 571.771 0.151057 3.59583 0
M  V30 5858 C 571.379 1.53191 4.20995 0
M  V30 5859 C 573.123 -0.296974 4.2346 0
M  V30 5860 C 571.03 1.526 5.71373 0
M  V30 5861 H 569.96 0.0384254 0.75302 0
M  V30 5862 H 572.611 0.773262 1.66412 0
M  V30 5863 H 570.993 -0.57617 3.91786 0
M  V30 5864 H 572.167 2.28156 4.00352 0
M  V30 5865 H 570.482 1.92279 3.69348 0
M  V30 5866 H 573.079 -0.320712 5.33737 0
M  V30 5867 H 573.422 -1.32145 3.9477 0
M  V30 5868 H 573.955 0.377279 3.96007 0
M  V30 5869 H 570.694 2.52837 6.04776 0
M  V30 5870 H 570.214 0.819064 5.94181 0
M  V30 5871 H 571.893 1.25357 6.3474 0
M  V30 5872 N 572.025 -1.5352 0.356285 0
M  V30 5873 C 573.274 -2.00298 -0.237373 0
M  V30 5874 C 573.587 -1.24784 -1.50627 0
M  V30 5875 O 574.793 -1.62103 -2.17795 0
M  V30 5876 C 573.249 -3.56771 -0.473545 0
M  V30 5877 C 572.857 -4.41154 0.780183 0
M  V30 5878 C 574.601 -4.1193 -1.02537 0
M  V30 5879 C 572.508 -5.89161 0.514108 0
M  V30 5880 H 571.438 -0.748307 -0.092478 0
M  V30 5881 H 574.089 -1.77283 0.473588 0
M  V30 5882 H 572.471 -3.75902 -1.24553 0
M  V30 5883 H 573.645 -4.33797 1.55425 0
M  V30 5884 H 571.96 -3.97052 1.25455 0
M  V30 5885 H 574.557 -5.20133 -1.2396 0
M  V30 5886 H 574.9 -3.65943 -1.98473 0
M  V30 5887 H 575.433 -3.96561 -0.313775 0
M  V30 5888 H 572.172 -6.39408 1.44355 0
M  V30 5889 H 571.692 -5.9939 -0.221632 0
M  V30 5890 H 573.371 -6.46857 0.136122 0
M  V30 5891 N 573.503 -0.0852151 -1.57369 0
M  V30 5892 C 574.453 0.88767 -2.10011 0
M  V30 5893 C 575.437 1.25021 -1.01285 0
M  V30 5894 O 576.629 1.22694 -1.27574 0
M  V30 5895 C 573.758 2.15037 -2.67608 0
M  V30 5896 C 572.844 1.81371 -3.83361 0
M  V30 5897 N 573.235 1.18216 -4.91791 0
M  V30 5898 C 571.533 2.11041 -3.92909 0
M  V30 5899 C 572.234 1.02941 -5.72519 0
M  V30 5900 N 571.21 1.54351 -5.21226 0
M  V30 5901 H 575.012 0.395279 -2.9123 0
M  V30 5902 H 572.526 0.11829 -1.61969 0
M  V30 5903 H 574.523 2.85667 -3.03644 0
M  V30 5904 H 573.183 2.64851 -1.8784 0
M  V30 5905 H 574.194 0.850168 -5.10874 0
M  V30 5906 H 570.871 2.63138 -3.24136 0
M  V30 5907 H 572.261 0.536298 -6.69756 0
M  V30 5908 N 574.981 1.5647 0.188427 0
M  V30 5909 C 575.911 1.98101 1.23606 0
M  V30 5910 C 576.892 0.853961 1.47111 0
M  V30 5911 O 578.077 1.11879 1.58735 0
M  V30 5912 C 575.207 2.32624 2.57882 0
M  V30 5913 C 574.161 3.48129 2.48978 0
M  V30 5914 C 573.487 3.68347 3.87588 0
M  V30 5915 C 574.787 4.82112 2.00911 0
M  V30 5916 H 576.481 2.85864 0.890068 0
M  V30 5917 H 574.027 1.37532 0.426714 0
M  V30 5918 H 575.98 2.60343 3.3136 0
M  V30 5919 H 574.704 1.41751 2.94235 0
M  V30 5920 H 573.363 3.20511 1.77956 0
M  V30 5921 H 573.011 2.74793 4.21305 0
M  V30 5922 H 572.711 4.46055 3.82503 0
M  V30 5923 H 574.235 3.98449 4.62678 0
M  V30 5924 H 575.649 5.08819 2.64151 0
M  V30 5925 H 574.046 5.63337 2.06814 0
M  V30 5926 H 575.116 4.75249 0.96262 0
M  V30 5927 N 576.459 -0.456382 1.50847 0
M  V30 5928 C 577.708 -1.2042 1.61808 0
M  V30 5929 C 578.021 -1.9278 0.330932 0
M  V30 5930 O 579.227 -2.69612 0.319643 0
M  V30 5931 C 577.683 -2.18891 2.85683 0
M  V30 5932 C 577.291 -1.52267 4.2133 0
M  V30 5933 C 579.035 -2.94224 3.05994 0
M  V30 5934 C 576.942 -2.4911 5.36375 0
M  V30 5935 H 575.872 -0.453177 0.602616 0
M  V30 5936 H 578.523 -0.473144 1.77295 0
M  V30 5937 H 576.905 -2.95351 2.63787 0
M  V30 5938 H 578.079 -0.814949 4.53536 0
M  V30 5939 H 576.394 -0.891594 4.06743 0
M  V30 5940 H 578.991 -3.66732 3.89117 0
M  V30 5941 H 579.334 -3.54469 2.18306 0
M  V30 5942 H 579.867 -2.24874 3.28141 0
M  V30 5943 H 576.606 -1.93582 6.26264 0
M  V30 5944 H 576.126 -3.17991 5.08569 0
M  V30 5945 H 577.805 -3.10637 5.67551 0
M  V30 5946 N 577.937 -1.40673 -0.710563 0
M  V30 5947 C 578.885 -1.41517 -1.84596 0
M  V30 5948 C 579.879 -0.295043 -1.66811 0
M  V30 5949 O 581.085 -0.466331 -1.73854 0
M  V30 5950 H 577.46 -0.442467 -0.608052 0
M  V30 5951 H 579.431 -2.37238 -1.80999 0
M  V30 5952 C 578.18 -1.29957 -3.225 0
M  V30 5953 H 577.503 -2.15429 -3.36794 0
M  V30 5954 H 578.943 -1.34608 -4.02066 0
M  V30 5955 C 577.402 -0.0103164 -3.36898 0
M  V30 5956 O 577.932 0.950707 -3.90288 0
M  V30 5957 N 576.138 0.0608409 -2.90536 0
M  V30 5958 H 575.685 -0.721943 -2.47277 0
M  V30 5959 H 575.643 0.92292 -3.00549 0
M  V30 5960 N 579.415 0.9433 -1.26252 0
M  V30 5961 C 580.64 1.72898 -1.14547 0
M  V30 5962 C 581.065 1.85761 0.295743 0
M  V30 5963 O 580.423 1.3463 1.21427 0
M  V30 5964 C 580.471 3.11471 -1.8171 0
M  V30 5965 O 579.575 3.97336 -1.10445 0
M  V30 5966 H 578.916 0.530555 -0.399259 0
M  V30 5967 H 581.446 1.18159 -1.67032 0
M  V30 5968 H 581.456 3.61872 -1.88449 0
M  V30 5969 H 580.131 3.01425 -2.86558 0
M  V30 5970 H 578.708 3.55788 -1.11666 0
M  V30 5971 N 580.893 1.08022 1.14757 0
M  V30 5972 C 582.141 0.805913 1.85336 0
M  V30 5973 C 582.462 -0.670162 1.83122 0
M  V30 5974 O 581.732 -1.48567 1.2769 0
M  V30 5975 H 580.312 0.295138 0.686223 0
M  V30 5976 H 582.974 1.36538 1.3908 0
M  V30 5977 H 582.07 1.14655 2.90277 0
M  V30 5978 N 582.371 -1.3172 0.865308 0
M  V30 5979 C 583.596 -2.01591 0.487415 0
M  V30 5980 C 584.021 -1.6455 -0.911307 0
M  V30 5981 O 583.379 -0.851689 -1.6005 0
M  V30 5982 C 583.427 -3.54759 0.646401 0
M  V30 5983 O 582.531 -4.11185 -0.316284 0
M  V30 5984 H 581.872 -0.634884 0.194468 0
M  V30 5985 H 584.402 -1.68024 1.16744 0
M  V30 5986 H 584.412 -4.04438 0.537932 0
M  V30 5987 H 583.087 -3.8106 1.66632 0
M  V30 5988 H 581.664 -3.72543 -0.163162 0
M  V30 5989 N 583.85 -0.624285 -1.44708 0
M  V30 5990 C 584.812 0.0749638 -2.29077 0
M  V30 5991 C 585.812 0.778965 -1.40673 0
M  V30 5992 O 587.003 0.624591 -1.62618 0
M  V30 5993 C 584.135 1.11663 -3.22094 0
M  V30 5994 H 585.327 -0.667013 -2.92388 0
M  V30 5995 H 582.88 -0.384098 -1.51507 0
M  V30 5996 H 583.615 1.88881 -2.63618 0
M  V30 5997 H 583.401 0.61583 -3.87234 0
M  V30 5998 H 584.891 1.60585 -3.8549 0
M  V30 5999 N 585.328 1.53329 -0.364422 0
M  V30 6000 C 586.291 2.24323 0.470292 0
M  V30 6001 C 587.291 1.25068 1.01067 0
M  V30 6002 O 588.481 1.49354 0.896605 0
M  V30 6003 C 585.613 2.97908 1.65722 0
M  V30 6004 H 586.806 2.9952 -0.150917 0
M  V30 6005 H 584.359 1.55868 -0.116092 0
M  V30 6006 H 585.094 2.2695 2.31655 0
M  V30 6007 H 584.879 3.70732 1.27671 0
M  V30 6008 H 586.369 3.5188 2.24878 0
M  V30 6009 N 586.806 0.0935595 1.57322 0
M  V30 6010 C 587.736 -0.863062 2.16964 0
M  V30 6011 C 588.717 -1.29528 1.10256 0
M  V30 6012 O 589.902 -1.36245 1.38387 0
M  V30 6013 C 587.032 -2.12276 2.74875 0
M  V30 6014 C 585.986 -1.82921 3.86942 0
M  V30 6015 C 585.312 -3.15707 4.31548 0
M  V30 6016 C 586.612 -1.11737 5.10208 0
M  V30 6017 H 588.306 -0.366145 2.97153 0
M  V30 6018 H 585.852 -0.174673 1.42937 0
M  V30 6019 H 587.805 -2.79634 3.1525 0
M  V30 6020 H 586.529 -2.64248 1.91938 0
M  V30 6021 H 585.188 -1.17961 3.47103 0
M  V30 6022 H 584.836 -3.65563 3.45504 0
M  V30 6023 H 584.536 -2.96849 5.07104 0
M  V30 6024 H 586.06 -3.84226 4.74555 0
M  V30 6025 H 587.474 -1.69203 5.47762 0
M  V30 6026 H 585.871 -1.03064 5.91183 0
M  V30 6027 H 586.941 -0.0998818 4.84797 0
M  V30 6028 N 588.284 -1.56567 -0.180126 0
M  V30 6029 C 589.561 -1.7235 -0.924931 0
M  V30 6030 C 589.941 -0.652523 -2.00762 0
M  V30 6031 O 589.289 0.334115 -2.26044 0
M  V30 6032 C 589.499 -3.1523 -1.49771 0
M  V30 6033 C 590.847 -3.75921 -1.97405 0
M  V30 6034 O 591.871 -3.18452 -1.59583 0
M  V30 6035 O 590.73 -4.7681 -2.67048 0
M  V30 6036 H 587.824 -0.703502 -0.434758 0
M  V30 6037 H 590.37 -1.6886 -0.168647 0
M  V30 6038 H 589.142 -3.84656 -0.718027 0
M  V30 6039 H 588.765 -3.23009 -2.31842 0
M  V30 6040 N 589.762 0.448376 -1.51087 0
M  V30 6041 C 591.01 1.19635 -1.62886 0
M  V30 6042 C 591.331 1.91977 -0.342024 0
M  V30 6043 O 590.601 1.85094 0.641636 0
M  V30 6044 H 589.181 0.444598 -0.600285 0
M  V30 6045 H 591.843 0.515138 -1.87969 0
M  V30 6046 H 590.939 1.93194 -2.45117 0
M  V30 6047 N 591.24 1.41047 0.703093 0
M  V30 6048 C 592.465 1.43537 1.49706 0
M  V30 6049 C 592.89 0.0401853 1.88057 0
M  V30 6050 O 592.248 -0.954785 1.54122 0
M  V30 6051 C 592.296 2.3433 2.74084 0
M  V30 6052 O 591.4 1.79515 3.71279 0
M  V30 6053 H 590.741 0.487454 0.450871 0
M  V30 6054 H 593.271 1.85422 0.86486 0
M  V30 6055 H 593.281 2.49947 3.22476 0
M  V30 6056 H 591.956 3.35708 2.45506 0
M  V30 6057 H 590.533 1.7331 3.30179 0
M  V30 6058 N 592.718 -0.936591 1.26751 0
M  V30 6059 C 593.958 -1.69796 1.13792 0
M  V30 6060 C 594.322 -1.89437 -0.312671 0
M  V30 6061 O 595.523 -2.62806 -0.564489 0
M  V30 6062 C 593.794 -3.03297 1.89065 0
M  V30 6063 S 595.353 -3.94461 1.92214 0
M  V30 6064 H 592.171 -0.583412 0.406389 0
M  V30 6065 H 594.773 -1.11575 1.60535 0
M  V30 6066 H 593.477 -2.86687 2.93665 0
M  V30 6067 H 593.008 -3.66575 1.42781 0
M  V30 6068 H 595.023 -4.85767 1.01215 0
M  V30 6069 N 594.196 -1.08629 -1.14182 0
M  V30 6070 C 595.143 -0.718299 -2.19338 0
M  V30 6071 C 596.113 0.296587 -1.63431 0
M  V30 6072 O 597.298 0.180079 -1.89948 0
M  V30 6073 C 594.438 -0.136203 -3.44831 0
M  V30 6074 C 593.551 -1.20414 -4.14879 0
M  V30 6075 C 592.686 -0.585666 -5.27962 0
M  V30 6076 C 591.725 -1.63548 -5.89846 0
M  V30 6077 N 590.862 -1.03864 -6.94375 0
M  V30 6078 H 595.702 -1.61932 -2.50164 0
M  V30 6079 H 593.239 -0.80919 -1.22844 0
M  V30 6080 H 595.197 0.219021 -4.16625 0
M  V30 6081 H 593.827 0.728121 -3.14481 0
M  V30 6082 H 592.879 -1.67676 -3.41451 0
M  V30 6083 H 594.191 -1.99959 -4.56966 0
M  V30 6084 H 593.345 -0.178818 -6.06436 0
M  V30 6085 H 592.084 0.24142 -4.87102 0
M  V30 6086 H 591.089 -2.05197 -5.10073 0
M  V30 6087 H 592.314 -2.46509 -6.3278 0
M  V30 6088 H 590.26 -0.232687 -6.55587 0
M  V30 6089 H 590.177 -1.77116 -7.3496 0
M  V30 6090 H 591.445 -0.657724 -7.7672 0
M  V30 6091 N 595.674 1.31259 -0.872281 0
M  V30 6092 C 596.606 2.27396 -0.28697 0
M  V30 6093 C 597.619 1.53181 0.551297 0
M  V30 6094 O 598.808 1.74561 0.372914 0
M  V30 6095 C 595.908 3.33335 0.611617 0
M  V30 6096 C 595.081 4.36966 -0.194729 0
M  V30 6097 C 594.14 5.22387 0.632358 0
M  V30 6098 O 593.166 5.69169 0.0595691 0
M  V30 6099 N 594.368 5.46985 1.94391 0
M  V30 6100 H 597.133 2.78261 -1.11314 0
M  V30 6101 H 594.694 1.44306 -0.733994 0
M  V30 6102 H 596.686 3.87398 1.17068 0
M  V30 6103 H 595.256 2.82496 1.33846 0
M  V30 6104 H 594.476 3.82945 -0.935241 0
M  V30 6105 H 595.764 5.03273 -0.747935 0
M  V30 6106 H 595.162 5.10737 2.43237 0
M  V30 6107 H 593.719 6.03973 2.45071 0
M  V30 6108 N 597.152 0.631951 1.44375 0
M  V30 6109 C 598.568 0.297642 1.568 0
M  V30 6110 C 598.768 -1.19916 1.61934 0
M  V30 6111 O 597.824 -1.98324 1.56281 0
M  V30 6112 C 599.137 0.990286 2.83926 0
M  V30 6113 C 600.685 0.968507 2.97639 0
M  V30 6114 C 601.16 1.64163 4.27568 0
M  V30 6115 N 602.651 1.60826 4.34384 0
M  V30 6116 C 603.386 2.09802 5.33639 0
M  V30 6117 N 602.882 2.66973 6.39294 0
M  V30 6118 N 604.675 2.00426 5.25153 0
M  V30 6119 H 596.826 1.60353 1.39286 0
M  V30 6120 H 599.089 0.673142 0.667521 0
M  V30 6121 H 598.795 2.04519 2.8612 0
M  V30 6122 H 598.669 0.528563 3.73478 0
M  V30 6123 H 601.056 -0.0779247 2.94997 0
M  V30 6124 H 601.137 1.46873 2.09433 0
M  V30 6125 H 600.781 2.68752 4.3097 0
M  V30 6126 H 600.711 1.11624 5.14634 0
M  V30 6127 H 603.202 1.19087 3.58646 0
M  V30 6128 H 603.515 3.02074 7.11316 0
M  V30 6129 H 601.86 2.71024 6.39977 0
M  V30 6130 H 605.051 1.55483 4.41523 0
M  V30 6131 H 605.224 2.38906 6.02352 0
M  V30 6132 N 598.631 -1.53133 0.372548 0
M  V30 6133 C 599.908 -1.93704 -0.271693 0
M  V30 6134 C 600.288 -1.30667 -1.65799 0
M  V30 6135 O 599.636 -0.46838 -2.23648 0
M  V30 6136 C 599.846 -3.47576 -0.314903 0
M  V30 6137 C 601.194 -4.20998 -0.551912 0
M  V30 6138 O 602.218 -3.53994 -0.39582 0
M  V30 6139 O 601.077 -5.39748 -0.85639 0
M  V30 6140 H 598.171 -0.810457 -0.164586 0
M  V30 6141 H 600.717 -1.6427 0.425838 0
M  V30 6142 H 599.489 -3.85749 0.656792 0
M  V30 6143 H 599.112 -3.83264 -1.05804 0
M  V30 6144 N 600.109 -0.101901 -1.5727 0
M  V30 6145 C 601.334 0.571759 -1.99363 0
M  V30 6146 C 601.759 1.60507 -0.980768 0
M  V30 6147 O 601.117 1.81231 0.0498517 0
M  V30 6148 C 601.165 1.18996 -3.404 0
M  V30 6149 O 600.269 2.30572 -3.41922 0
M  V30 6150 H 599.61 0.144449 -0.648098 0
M  V30 6151 H 602.14 -0.185325 -2.03759 0
M  V30 6152 H 602.15 1.52962 -3.78241 0
M  V30 6153 H 600.825 0.432984 -4.1364 0
M  V30 6154 H 599.402 1.98173 -3.15883 0
M  V30 6155 N 601.587 1.56661 0.17182 0
M  V30 6156 C 602.497 1.99604 1.2327 0
M  V30 6157 C 603.513 0.907333 1.4847 0
M  V30 6158 O 604.689 1.21492 1.60629 0
M  V30 6159 C 601.754 2.34685 2.55194 0
M  V30 6160 C 600.815 3.57381 2.3786 0
M  V30 6161 C 600.048 3.90779 3.63494 0
M  V30 6162 O 600.271 3.25152 4.6865 0
M  V30 6163 O 599.205 4.84129 3.57634 0
M  V30 6164 H 603.031 2.90114 0.898192 0
M  V30 6165 H 600.616 1.44522 0.378647 0
M  V30 6166 H 602.498 2.5822 3.33017 0
M  V30 6167 H 601.173 1.47336 2.88225 0
M  V30 6168 H 600.08 3.39064 1.5807 0
M  V30 6169 H 601.413 4.45268 2.09754 0
M  V30 6170 N 603.065 -0.440357 1.51323 0
M  V30 6171 C 604.313 -1.18769 1.63518 0
M  V30 6172 C 604.634 -1.91793 0.352201 0
M  V30 6173 O 603.904 -1.85432 -0.631811 0
M  V30 6174 H 602.484 -0.441408 0.602634 0
M  V30 6175 H 605.146 -0.505162 1.8824 0
M  V30 6176 H 604.242 -1.91892 2.46138 0
M  V30 6177 N 604.543 -1.41418 -0.695603 0
M  V30 6178 C 605.491 -1.43467 -1.83084 0
M  V30 6179 C 606.485 -0.312719 -1.66489 0
M  V30 6180 O 607.691 -0.484744 -1.7335 0
M  V30 6181 H 604.066 -0.448891 -0.603325 0
M  V30 6182 H 606.037 -2.39144 -1.78473 0
M  V30 6183 C 604.786 -1.3337 -3.21104 0
M  V30 6184 H 604.109 -2.18989 -3.3449 0
M  V30 6185 H 605.549 -1.38865 -4.00615 0
M  V30 6186 C 604.008 -0.0460484 -3.36869 0
M  V30 6187 O 604.538 0.909258 -3.91274 0
M  V30 6188 N 602.744 0.0300222 -2.90584 0
M  V30 6189 H 602.291 -0.748129 -2.46497 0
M  V30 6190 H 602.249 0.890991 -3.01511 0
M  V30 6191 N 606.021 0.929856 -1.27246 0
M  V30 6192 C 607.432 1.49223 -1.12203 0
M  V30 6193 C 607.783 1.93989 0.293731 0
M  V30 6194 O 606.908 1.80978 1.18642 0
M  V30 6195 C 607.503 2.71198 -2.0307 0
M  V30 6196 C 606.062 3.23666 -1.92139 0
M  V30 6197 C 605.209 1.96409 -1.95752 0
M  V30 6198 H 608.16 0.744181 -1.4017 0
M  V30 6199 H 608.181 3.45905 -1.58524 0
M  V30 6200 H 607.693 2.38585 -3.06102 0
M  V30 6201 H 605.794 3.61042 -0.920834 0
M  V30 6202 H 605.907 3.90006 -2.78267 0
M  V30 6203 H 604.271 2.12806 -1.39949 0
M  V30 6204 H 605.054 1.66113 -3.00436 0
M  V30 6205 N 607.499 1.09233 1.13605 0
M  V30 6206 C 608.727 0.848908 1.88683 0
M  V30 6207 C 609.142 -0.599667 1.79024 0
M  V30 6208 O 608.499 -1.41265 1.15544 0
M  V30 6209 C 608.55 1.27273 3.38355 0
M  V30 6210 O 608.271 2.66449 3.47759 0
M  V30 6211 C 609.772 1.0614 4.30406 0
M  V30 6212 H 606.992 0.305549 0.597395 0
M  V30 6213 H 609.536 1.4538 1.43823 0
M  V30 6214 H 607.691 0.711776 3.80805 0
M  V30 6215 H 608.105 2.84264 4.40788 0
M  V30 6216 H 609.579 1.40725 5.33761 0
M  V30 6217 H 610.056 -0.000960332 4.392 0
M  V30 6218 H 610.662 1.60821 3.93722 0
M  V30 6219 N 608.977 -1.30795 0.87923 0
M  V30 6220 C 609.91 -2.26396 0.286404 0
M  V30 6221 C 610.888 -1.51528 -0.589748 0
M  V30 6222 O 612.072 -1.80566 -0.541119 0
M  V30 6223 C 609.199 -3.33458 -0.593581 0
M  V30 6224 C 608.245 -4.2597 0.21247 0
M  V30 6225 S 609.078 -5.11132 1.59702 0
M  V30 6226 C 610.234 -6.21705 0.723408 0
M  V30 6227 H 610.467 -2.7633 1.09677 0
M  V30 6228 H 608 -1.38703 0.678305 0
M  V30 6229 H 609.958 -3.9561 -1.09557 0
M  V30 6230 H 608.619 -2.82259 -1.37799 0
M  V30 6231 H 607.812 -5.01907 -0.458822 0
M  V30 6232 H 607.414 -3.68363 0.646883 0
M  V30 6233 H 609.706 -6.77472 -0.0620739 0
M  V30 6234 H 610.649 -6.93007 1.4542 0
M  V30 6235 H 611.057 -5.63771 0.286855 0
M  V30 6236 N 610.455 -0.639598 -1.44038 0
M  V30 6237 C 611.402 0.0602458 -2.30721 0
M  V30 6238 C 612.372 0.828352 -1.43971 0
M  V30 6239 O 613.557 0.807693 -1.72861 0
M  V30 6240 C 610.697 1.03008 -3.29368 0
M  V30 6241 C 609.81 0.259502 -4.3122 0
M  V30 6242 C 608.945 1.22191 -5.16955 0
M  V30 6243 C 607.984 0.440978 -6.10509 0
M  V30 6244 N 607.121 1.35428 -6.88915 0
M  V30 6245 H 611.961 -0.684867 -2.90023 0
M  V30 6246 H 609.498 -0.349509 -1.42888 0
M  V30 6247 H 611.456 1.60583 -3.85057 0
M  V30 6248 H 610.086 1.74222 -2.71747 0
M  V30 6249 H 609.138 -0.432317 -3.77935 0
M  V30 6250 H 610.45 -0.348347 -4.97582 0
M  V30 6251 H 609.604 1.86873 -5.77203 0
M  V30 6252 H 608.343 1.86367 -4.50687 0
M  V30 6253 H 607.348 -0.219279 -5.49363 0
M  V30 6254 H 608.573 -0.196192 -6.78817 0
M  V30 6255 H 606.519 1.9831 -6.25307 0
M  V30 6256 H 606.436 0.800657 -7.51748 0
M  V30 6257 H 607.704 1.98967 -7.53679 0
M  V30 6258 N 611.933 1.52934 -0.380664 0
M  V30 6259 C 613.344 1.86457 0.0952684 0
M  V30 6260 C 613.695 1.3007 1.46889 0
M  V30 6261 O 612.82 0.628636 2.07068 0
M  V30 6262 C 613.415 3.38323 0.179648 0
M  V30 6263 C 611.974 3.71589 0.599858 0
M  V30 6264 C 611.121 2.76228 -0.243572 0
M  V30 6265 H 614.072 1.46966 -0.59888 0
M  V30 6266 H 614.093 3.67113 1.00042 0
M  V30 6267 H 613.605 3.79333 -0.820228 0
M  V30 6268 H 611.706 3.36144 1.60742 0
M  V30 6269 H 611.819 4.77715 0.364003 0
M  V30 6270 H 610.183 2.53045 0.289855 0
M  V30 6271 H 610.966 3.20074 -1.24127 0
M  V30 6272 N 613.412 0.11024 1.57214 0
M  V30 6273 C 614.362 -0.854147 2.11396 0
M  V30 6274 C 615.346 -1.23394 1.03261 0
M  V30 6275 O 616.538 -1.20649 1.2951 0
M  V30 6276 C 613.667 -2.10752 2.70995 0
M  V30 6277 C 612.753 -1.75249 3.86198 0
M  V30 6278 N 613.144 -1.10377 4.9361 0
M  V30 6279 C 611.442 -2.04763 3.96217 0
M  V30 6280 C 612.143 -0.938199 5.74084 0
M  V30 6281 N 611.119 -1.46039 5.23616 0
M  V30 6282 H 614.921 -0.348897 2.91822 0
M  V30 6283 H 612.435 -0.0925071 1.62136 0
M  V30 6284 H 614.432 -2.80801 3.0815 0
M  V30 6285 H 613.092 -2.61829 1.9203 0
M  V30 6286 H 614.103 -0.768785 5.12162 0
M  V30 6287 H 610.78 -2.57948 3.28282 0
M  V30 6288 H 612.17 -0.429678 6.70525 0
M  V30 6289 N 614.89 -1.56749 -0.16351 0
M  V30 6290 C 616.136 -1.83597 -0.875436 0
M  V30 6291 C 616.491 -0.691907 -1.79528 0
M  V30 6292 O 615.784 0.311193 -1.89056 0
M  V30 6293 C 615.978 -3.14342 -1.70071 0
M  V30 6294 C 615.807 -4.41356 -0.862265 0
M  V30 6295 C 614.577 -5.02467 -0.534299 0
M  V30 6296 C 616.775 -5.1391 -0.200203 0
M  V30 6297 N 614.757 -6.13068 0.31947 0
M  V30 6298 C 616.128 -6.17862 0.514398 0
M  V30 6299 C 618.183 -4.97757 -0.119171 0
M  V30 6300 C 616.886 -7.07412 1.30236 0
M  V30 6301 C 618.912 -5.87756 0.655477 0
M  V30 6302 C 618.274 -6.91178 1.35842 0
M  V30 6303 H 614.373 -0.722702 -0.298708 0
M  V30 6304 H 616.957 -1.94182 -0.141883 0
M  V30 6305 H 615.128 -3.04933 -2.40562 0
M  V30 6306 H 616.86 -3.29156 -2.35453 0
M  V30 6307 H 613.615 -4.65611 -0.866222 0
M  V30 6308 H 614.039 -6.72978 0.736893 0
M  V30 6309 H 618.681 -4.178 -0.648278 0
M  V30 6310 H 616.399 -7.86808 1.84278 0
M  V30 6311 H 619.985 -5.77328 0.719948 0
M  V30 6312 H 618.865 -7.59614 1.94822 0
M  V30 6313 N 616.368 0.432326 -1.51554 0
M  V30 6314 C 617.278 1.55023 -1.76082 0
M  V30 6315 C 618.294 1.61593 -0.645265 0
M  V30 6316 O 619.47 1.78742 -0.928086 0
M  V30 6317 C 616.535 2.90964 -1.88523 0
M  V30 6318 C 615.596 2.9447 -3.12388 0
M  V30 6319 C 614.829 4.23926 -3.24225 0
M  V30 6320 O 615.052 5.16576 -2.4188 0
M  V30 6321 O 613.986 4.33818 -4.17235 0
M  V30 6322 H 617.812 1.37238 -2.70923 0
M  V30 6323 H 615.397 0.615845 -1.36117 0
M  V30 6324 H 617.279 3.71633 -1.98662 0
M  V30 6325 H 615.954 3.08865 -0.9687 0
M  V30 6326 H 614.861 2.12737 -3.07723 0
M  V30 6327 H 616.194 2.81514 -4.03746 0
M  V30 6328 N 617.846 1.41785 0.688094 0
M  V30 6329 C 619.095 1.4084 1.44385 0
M  V30 6330 C 619.408 0.0234166 1.95586 0
M  V30 6331 O 620.614 -0.108647 2.71283 0
M  V30 6332 C 619.07 2.47675 2.61123 0
M  V30 6333 C 618.678 3.92116 2.16677 0
M  V30 6334 C 620.422 2.55877 3.38714 0
M  V30 6335 C 618.329 4.90487 3.30419 0
M  V30 6336 H 617.259 0.523787 0.542368 0
M  V30 6337 H 619.91 1.6764 0.74627 0
M  V30 6338 H 618.292 2.14018 3.33185 0
M  V30 6339 H 619.466 4.35059 1.51856 0
M  V30 6340 H 617.781 3.87642 1.5206 0
M  V30 6341 H 620.378 3.26553 4.234 0
M  V30 6342 H 620.721 1.59801 3.84408 0
M  V30 6343 H 621.254 2.88662 2.73714 0
M  V30 6344 H 617.993 5.87994 2.89729 0
M  V30 6345 H 617.513 4.52187 3.94065 0
M  V30 6346 H 619.192 5.11591 3.96085 0
M  V30 6347 N 619.324 -0.923095 1.27737 0
M  V30 6348 C 620.549 -1.71054 1.17283 0
M  V30 6349 C 620.974 -1.86208 -0.266153 0
M  V30 6350 O 620.332 -1.36545 -1.1927 0
M  V30 6351 C 620.38 -3.0854 1.86642 0
M  V30 6352 O 619.484 -3.95528 1.16752 0
M  V30 6353 H 618.825 -0.524136 0.407649 0
M  V30 6354 H 621.355 -1.15487 1.6889 0
M  V30 6355 H 621.365 -3.58828 1.94182 0
M  V30 6356 H 620.04 -2.96828 2.91317 0
M  V30 6357 H 618.617 -3.53967 1.17312 0
M  V30 6358 N 620.802 -1.09834 -1.13024 0
M  V30 6359 C 621.734 -0.699379 -2.18269 0
M  V30 6360 C 622.747 0.260841 -1.60697 0
M  V30 6361 O 623.936 0.0462538 -1.7844 0
M  V30 6362 C 621.036 -0.0104537 -3.38898 0
M  V30 6363 C 620.209 -0.993275 -4.25973 0
M  V30 6364 C 619.268 -0.336982 -5.2512 0
M  V30 6365 O 618.294 -0.985892 -5.60597 0
M  V30 6366 N 619.496 0.90716 -5.73368 0
M  V30 6367 H 622.261 -1.60486 -2.5311 0
M  V30 6368 H 619.822 -0.986337 -1.28386 0
M  V30 6369 H 621.814 0.43991 -4.02302 0
M  V30 6370 H 620.384 0.797335 -3.0226 0
M  V30 6371 H 619.604 -1.62208 -3.5928 0
M  V30 6372 H 620.892 -1.65876 -4.81002 0
M  V30 6373 H 620.29 1.45384 -5.46699 0
M  V30 6374 H 618.847 1.30077 -6.38689 0
M  V30 6375 N 622.28 1.30327 -0.886154 0
M  V30 6376 C 623.212 2.27079 -0.311072 0
M  V30 6377 C 624.225 1.53758 0.53502 0
M  V30 6378 O 625.414 1.74947 0.354378 0
M  V30 6379 C 622.514 3.33965 0.576228 0
M  V30 6380 C 621.687 4.36735 -0.241064 0
M  V30 6381 C 620.746 5.23028 0.576916 0
M  V30 6382 O 619.772 5.692 -0.000802231 0
M  V30 6383 N 620.974 5.49016 1.88579 0
M  V30 6384 H 623.739 2.77065 -1.14259 0
M  V30 6385 H 621.3 1.43519 -0.749258 0
M  V30 6386 H 623.292 3.88618 1.12953 0
M  V30 6387 H 621.862 2.839 1.30842 0
M  V30 6388 H 621.082 3.81932 -0.975805 0
M  V30 6389 H 622.37 5.02451 -0.801272 0
M  V30 6390 H 621.768 5.13288 2.37806 0
M  V30 6391 H 620.325 6.06539 2.38651 0
M  V30 6392 N 623.758 0.647228 1.43697 0
M  V30 6393 C 624.668 -0.0487997 2.34549 0
M  V30 6394 C 625.684 -0.818586 1.53542 0
M  V30 6395 O 626.86 -0.767195 1.86215 0
M  V30 6396 C 623.925 -1.00734 3.31743 0
M  V30 6397 C 622.986 -0.23515 4.28655 0
M  V30 6398 C 622.219 -1.14803 5.21206 0
M  V30 6399 O 622.442 -2.38717 5.18045 0
M  V30 6400 O 621.376 -0.623667 5.9866 0
M  V30 6401 H 625.202 0.698863 2.9555 0
M  V30 6402 H 622.787 0.407412 1.43738 0
M  V30 6403 H 624.669 -1.55837 3.91526 0
M  V30 6404 H 623.344 -1.73534 2.73254 0
M  V30 6405 H 622.251 0.359319 3.7237 0
M  V30 6406 H 623.584 0.453152 4.9011 0
M  V30 6407 N 625.236 -1.5273 0.388769 0
M  V30 6408 C 626.199 -2.25043 -0.434544 0
M  V30 6409 C 627.199 -1.26661 -0.990644 0
M  V30 6410 O 628.389 -1.50762 -0.872731 0
M  V30 6411 C 625.521 -3.00507 -1.60961 0
M  V30 6412 H 626.714 -2.99242 0.198549 0
M  V30 6413 H 624.267 -1.55664 0.140875 0
M  V30 6414 H 625.002 -2.30607 -2.28015 0
M  V30 6415 H 624.787 -3.72716 -1.21757 0
M  V30 6416 H 626.277 -3.55413 -2.19251 0
M  V30 6417 N 626.714 -0.118576 -1.57153 0
M  V30 6418 C 627.991 0.583062 -1.86708 0
M  V30 6419 C 628.371 1.84841 -1.01967 0
M  V30 6420 O 627.719 2.28288 -0.0984673 0
M  V30 6421 C 627.929 0.875912 -3.3783 0
M  V30 6422 C 629.277 1.22916 -4.0642 0
M  V30 6423 O 630.301 0.966188 -3.42846 0
M  V30 6424 O 629.16 1.72269 -5.18638 0
M  V30 6425 H 626.254 0.294185 -0.772906 0
M  V30 6426 H 628.8 -0.153048 -1.69008 0
M  V30 6427 H 627.572 -0.0207776 -3.91294 0
M  V30 6428 H 627.195 1.66719 -3.60958 0
M  V30 6429 N 628.193 1.56834 0.155195 0
M  V30 6430 C 629.156 1.96748 1.17571 0
M  V30 6431 C 630.156 0.853006 1.3631 0
M  V30 6432 O 631.346 1.11978 1.33441 0
M  V30 6433 C 628.478 2.27631 2.53765 0
M  V30 6434 H 629.671 2.88085 0.833498 0
M  V30 6435 H 627.224 1.51141 0.398242 0
M  V30 6436 H 627.959 1.39059 2.92973 0
M  V30 6437 H 627.744 3.0888 2.41527 0
M  V30 6438 H 629.234 2.59377 3.27282 0
M  V30 6439 N 629.671 -0.424282 1.51781 0
M  V30 6440 C 630.911 -1.18194 1.66762 0
M  V30 6441 C 631.275 -1.88164 0.381857 0
M  V30 6442 O 632.476 -2.65692 0.407586 0
M  V30 6443 C 630.747 -2.16173 2.84612 0
M  V30 6444 S 632.306 -3.0025 3.19993 0
M  V30 6445 H 629.124 -0.400626 0.587384 0
M  V30 6446 H 631.726 -0.471499 1.89729 0
M  V30 6447 H 630.43 -1.6343 3.76455 0
M  V30 6448 H 629.961 -2.91778 2.63873 0
M  V30 6449 H 631.976 -4.1796 2.67439 0
M  V30 6450 N 631.149 -1.42148 -0.680565 0
M  V30 6451 C 632.079 -1.4796 -1.80638 0
M  V30 6452 C 633.06 -0.336728 -1.66734 0
M  V30 6453 O 634.245 -0.550247 -1.86242 0
M  V30 6454 C 631.375 -1.37569 -3.18892 0
M  V30 6455 C 630.329 -2.49823 -3.47524 0
M  V30 6456 C 629.655 -2.24491 -4.85291 0
M  V30 6457 C 630.955 -3.92144 -3.44994 0
M  V30 6458 H 632.649 -2.42184 -1.76032 0
M  V30 6459 H 630.195 -1.16566 -0.845481 0
M  V30 6460 H 632.148 -1.40243 -3.97379 0
M  V30 6461 H 630.872 -0.398357 -3.24162 0
M  V30 6462 H 629.531 -2.46455 -2.71395 0
M  V30 6463 H 629.179 -1.25066 -4.87204 0
M  V30 6464 H 628.879 -2.99722 -5.05411 0
M  V30 6465 H 630.403 -2.28906 -5.66069 0
M  V30 6466 H 631.817 -3.97145 -4.13459 0
M  V30 6467 H 630.214 -4.67179 -3.76648 0
M  V30 6468 H 631.284 -4.19225 -2.43676 0
M  V30 6469 N 632.627 0.916307 -1.28225 0
M  V30 6470 C 633.59 1.99996 -1.11957 0
M  V30 6471 C 634.59 1.60688 -0.0600152 0
M  V30 6472 O 635.78 1.71499 -0.30558 0
M  V30 6473 C 632.912 3.33458 -0.708411 0
M  V30 6474 H 634.105 2.15858 -2.08196 0
M  V30 6475 H 631.658 1.09863 -1.11175 0
M  V30 6476 H 632.393 3.23297 0.254859 0
M  V30 6477 H 632.178 3.63349 -1.47377 0
M  V30 6478 H 633.668 4.13014 -0.617164 0
M  V30 6479 N 634.105 1.10431 1.1244 0
M  V30 6480 C 635.068 0.756542 2.16354 0
M  V30 6481 C 636.068 -0.21899 1.59302 0
M  V30 6482 O 637.258 0.00415969 1.742 0
M  V30 6483 C 634.39 0.120612 3.40687 0
M  V30 6484 H 635.583 1.67696 2.48632 0
M  V30 6485 H 633.136 0.904832 1.27446 0
M  V30 6486 H 633.871 -0.810536 3.14008 0
M  V30 6487 H 633.656 0.822693 3.83372 0
M  V30 6488 H 635.146 -0.106945 4.17463 0
M  V30 6489 N 635.583 -1.29855 0.893053 0
M  V30 6490 C 636.811 -1.99976 0.530788 0
M  V30 6491 C 637.226 -1.66889 -0.882799 0
M  V30 6492 O 636.583 -0.910352 -1.58173 0
M  V30 6493 C 636.634 -3.54547 0.705587 0
M  V30 6494 O 636.355 -3.86458 2.06353 0
M  V30 6495 C 637.856 -4.41937 0.347387 0
M  V30 6496 H 635.076 -0.639129 0.204339 0
M  V30 6497 H 637.62 -1.65549 1.20057 0
M  V30 6498 H 635.775 -3.87311 0.0830685 0
M  V30 6499 H 636.189 -4.81146 2.08803 0
M  V30 6500 H 637.663 -5.4954 0.520557 0
M  V30 6501 H 638.14 -4.33339 -0.715139 0
M  V30 6502 H 638.746 -4.14633 0.946567 0
M  V30 6503 N 637.061 -0.65484 -1.43351 0
M  V30 6504 C 637.971 0.0363603 -2.34572 0
M  V30 6505 C 638.987 0.810432 -1.53974 0
M  V30 6506 O 640.163 0.757308 -1.86619 0
M  V30 6507 C 637.228 0.989733 -3.32273 0
M  V30 6508 C 636.289 0.212414 -4.28774 0
M  V30 6509 C 635.522 1.12038 -5.21808 0
M  V30 6510 O 635.745 2.35967 -5.19303 0
M  V30 6511 O 634.679 0.59191 -5.98982 0
M  V30 6512 H 638.505 -0.714527 -2.95175 0
M  V30 6513 H 636.09 -0.415029 -1.4352 0
M  V30 6514 H 637.972 1.53759 -3.92347 0
M  V30 6515 H 636.647 1.72082 -2.74171 0
M  V30 6516 H 635.554 -0.379062 -3.72175 0
M  V30 6517 H 636.887 -0.479138 -4.89862 0
M  V30 6518 N 638.539 1.52521 -0.396863 0
M  V30 6519 C 639.785 2.02641 0.175606 0
M  V30 6520 C 640.14 1.27782 1.43839 0
M  V30 6521 O 639.433 0.371921 1.87956 0
M  V30 6522 C 639.627 3.5403 0.489677 0
M  V30 6523 C 639.456 4.43551 -0.741113 0
M  V30 6524 C 638.226 4.8927 -1.26265 0
M  V30 6525 C 640.424 4.88263 -1.61565 0
M  V30 6526 N 638.406 5.62884 -2.4502 0
M  V30 6527 C 639.777 5.60534 -2.64955 0
M  V30 6528 C 641.832 4.70294 -1.63486 0
M  V30 6529 C 640.535 6.16744 -3.70162 0
M  V30 6530 C 642.561 5.27392 -2.67603 0
M  V30 6531 C 641.923 5.99575 -3.69715 0
M  V30 6532 H 638.022 0.781563 0.0261477 0
M  V30 6533 H 640.606 1.86816 -0.548454 0
M  V30 6534 H 638.777 3.69952 1.18279 0
M  V30 6535 H 640.509 3.90843 1.04996 0
M  V30 6536 H 637.264 4.66403 -0.822509 0
M  V30 6537 H 637.688 6.04339 -3.05128 0
M  V30 6538 H 642.33 4.13985 -0.858848 0
M  V30 6539 H 640.048 6.72131 -4.48626 0
M  V30 6540 H 643.634 5.15365 -2.69982 0
M  V30 6541 H 642.514 6.42967 -4.48958 0
M  V30 6542 N 640.017 0.126909 1.57088 0
M  V30 6543 C 641.257 -0.53216 1.97351 0
M  V30 6544 C 641.621 -1.63342 1.00913 0
M  V30 6545 O 642.822 -2.35194 1.30144 0
M  V30 6546 C 641.093 -1.04385 3.41817 0
M  V30 6547 S 642.652 -1.71033 4.04095 0
M  V30 6548 H 639.47 -0.172724 0.689701 0
M  V30 6549 H 642.072 0.213865 1.94327 0
M  V30 6550 H 640.776 -0.231289 4.09748 0
M  V30 6551 H 640.307 -1.82496 3.48509 0
M  V30 6552 H 642.322 -2.99656 3.95501 0
M  V30 6553 N 641.495 -1.56914 -0.146875 0
M  V30 6554 C 642.906 -1.72799 -0.706928 0
M  V30 6555 C 643.257 -0.741329 -1.81656 0
M  V30 6556 O 642.382 0.0920162 -2.16204 0
M  V30 6557 C 642.977 -3.13317 -1.28911 0
M  V30 6558 C 641.536 -3.30803 -1.79573 0
M  V30 6559 C 640.683 -2.68725 -0.684252 0
M  V30 6560 H 643.634 -1.58504 0.0787931 0
M  V30 6561 H 643.655 -3.13323 -2.15891 0
M  V30 6562 H 643.167 -3.85104 -0.481284 0
M  V30 6563 H 641.268 -2.64012 -2.62923 0
M  V30 6564 H 641.381 -4.38754 -1.92436 0
M  V30 6565 H 639.745 -2.29196 -1.11091 0
M  V30 6566 H 640.528 -3.43117 0.112134 0
M  V30 6567 N 642.974 0.416227 -1.52004 0
M  V30 6568 C 643.937 1.48926 -1.74223 0
M  V30 6569 C 644.937 1.48693 -0.612119 0
M  V30 6570 O 646.127 1.50343 -0.879921 0
M  V30 6571 C 643.259 2.88372 -1.81809 0
M  V30 6572 H 644.452 1.3052 -2.70008 0
M  V30 6573 H 642.005 0.646271 -1.42313 0
M  V30 6574 H 642.74 3.12157 -0.879135 0
M  V30 6575 H 642.525 2.89944 -2.6396 0
M  V30 6576 H 644.015 3.66173 -2.00766 0
M  V30 6577 N 644.452 1.42507 0.673017 0
M  V30 6578 C 645.701 1.42364 1.42883 0
M  V30 6579 C 646.014 0.0441598 1.9555 0
M  V30 6580 O 647.22 -0.0798679 2.71382 0
M  V30 6581 C 645.676 2.5043 2.58482 0
M  V30 6582 C 645.284 3.94392 2.12506 0
M  V30 6583 C 647.028 2.59455 3.35981 0
M  V30 6584 C 644.935 4.93964 3.25198 0
M  V30 6585 H 643.865 0.52951 0.536782 0
M  V30 6586 H 646.516 1.68422 0.728448 0
M  V30 6587 H 644.898 2.1754 3.30896 0
M  V30 6588 H 646.072 4.36645 1.47233 0
M  V30 6589 H 644.387 3.89233 1.4794 0
M  V30 6590 H 646.984 3.31025 4.19912 0
M  V30 6591 H 647.327 1.63869 3.82691 0
M  V30 6592 H 647.86 2.91549 2.70637 0
M  V30 6593 H 644.599 5.91034 2.83477 0
M  V30 6594 H 644.119 4.56341 3.89247 0
M  V30 6595 H 645.798 5.15763 3.90637 0
M  V30 6596 N 645.93 -0.909495 1.28709 0
M  V30 6597 C 646.88 -1.9991 1.09636 0
M  V30 6598 C 647.864 -1.60889 0.01872 0
M  V30 6599 O 649.056 -1.75374 0.239338 0
M  V30 6600 C 646.185 -3.34675 0.764702 0
M  V30 6601 C 645.271 -3.80085 1.8814 0
M  V30 6602 N 645.662 -3.97824 3.12361 0
M  V30 6603 C 643.96 -4.09278 1.77221 0
M  V30 6604 C 644.661 -4.35928 3.85151 0
M  V30 6605 N 643.637 -4.44426 3.13028 0
M  V30 6606 H 647.439 -2.11681 2.03883 0
M  V30 6607 H 644.953 -1.09763 1.1969 0
M  V30 6608 H 646.95 -4.12426 0.609132 0
M  V30 6609 H 645.61 -3.24255 -0.169952 0
M  V30 6610 H 646.621 -3.83626 3.47925 0
M  V30 6611 H 643.298 -4.0747 0.909621 0
M  V30 6612 H 644.688 -4.57581 4.92006 0
M  V30 6613 N 647.408 -1.11026 -1.11852 0
M  V30 6614 C 648.318 -0.777252 -2.2135 0
M  V30 6615 C 649.334 0.227821 -1.72502 0
M  V30 6616 O 650.51 0.0650587 -2.01295 0
M  V30 6617 C 647.575 -0.220668 -3.45997 0
M  V30 6618 C 646.636 -1.2838 -4.09655 0
M  V30 6619 C 645.869 -0.753678 -5.28352 0
M  V30 6620 O 646.092 0.417779 -5.68868 0
M  V30 6621 O 645.026 -1.51647 -5.82483 0
M  V30 6622 H 648.852 -1.69141 -2.5224 0
M  V30 6623 H 646.437 -0.885836 -1.20305 0
M  V30 6624 H 648.319 0.0855756 -4.21313 0
M  V30 6625 H 646.994 0.666262 -3.16769 0
M  V30 6626 H 645.901 -1.64299 -3.3609 0
M  V30 6627 H 647.234 -2.14396 -4.43052 0
M  V30 6628 N 648.886 1.2938 -0.899927 0
M  V30 6629 C 650.116 1.99402 -0.540601 0
M  V30 6630 C 650.524 1.67534 0.87914 0
M  V30 6631 O 649.867 0.916821 1.59186 0
M  V30 6632 C 649.929 3.53514 -0.653326 0
M  V30 6633 C 649.593 4.08937 -2.04009 0
M  V30 6634 C 650.59 4.23815 -3.01126 0
M  V30 6635 C 648.275 4.43962 -2.34953 0
M  V30 6636 C 650.269 4.72951 -4.27313 0
M  V30 6637 C 647.956 4.92795 -3.61382 0
M  V30 6638 C 648.954 5.07244 -4.57376 0
M  V30 6639 O 648.642 5.55017 -5.8156 0
M  V30 6640 H 648.374 0.64383 -0.206057 0
M  V30 6641 H 650.928 1.65878 -1.21134 0
M  V30 6642 H 649.158 3.86628 0.0744449 0
M  V30 6643 H 650.847 4.04767 -0.303118 0
M  V30 6644 H 651.613 3.97043 -2.78535 0
M  V30 6645 H 647.492 4.31974 -1.60994 0
M  V30 6646 H 651.036 4.84144 -5.02245 0
M  V30 6647 H 646.933 5.19004 -3.83804 0
M  V30 6648 H 647.701 5.73331 -5.84153 0
M  V30 6649 N 650.364 0.662433 1.43002 0
M  V30 6650 C 651.611 0.179591 2.01702 0
M  V30 6651 C 651.939 -1.20964 1.52309 0
M  V30 6652 O 651.194 -1.82343 0.7106 0
M  V30 6653 C 651.493 0.149363 3.57088 0
M  V30 6654 C 651.159 1.48158 4.25864 0
M  V30 6655 C 649.821 1.84638 4.44367 0
M  V30 6656 C 652.173 2.35953 4.64732 0
M  V30 6657 C 649.501 3.08561 4.99006 0
M  V30 6658 C 651.853 3.59176 5.20745 0
M  V30 6659 C 650.517 3.95841 5.37463 0
M  V30 6660 H 649.787 0.0657172 0.73808 0
M  V30 6661 H 652.434 0.854968 1.71355 0
M  V30 6662 H 650.739 -0.609491 3.8703 0
M  V30 6663 H 652.436 -0.241241 4.00274 0
M  V30 6664 H 649.026 1.18777 4.11813 0
M  V30 6665 H 653.21 2.09058 4.50121 0
M  V30 6666 H 648.466 3.37005 5.10135 0
M  V30 6667 H 652.64 4.27417 5.49807 0
M  V30 6668 H 650.267 4.91942 5.79566 0
M  V30 6669 N 651.842 -1.52309 0.404946 0
M  V30 6670 C 653.258 -1.59503 0.0556255 0
M  V30 6671 C 653.458 -1.41805 -1.43156 0
M  V30 6672 O 652.514 -1.2429 -2.19792 0
M  V30 6673 C 653.827 -2.95687 0.546801 0
M  V30 6674 C 655.375 -3.08909 0.504413 0
M  V30 6675 C 655.85 -4.47566 0.97203 0
M  V30 6676 N 657.341 -4.53795 0.928679 0
M  V30 6677 C 658.076 -5.59346 1.26174 0
M  V30 6678 N 657.572 -6.72469 1.66604 0
M  V30 6679 N 659.365 -5.49532 1.18198 0
M  V30 6680 H 651.516 -1.6206 1.37296 0
M  V30 6681 H 653.779 -0.762161 0.563751 0
M  V30 6682 H 653.485 -3.13905 1.58609 0
M  V30 6683 H 653.359 -3.77172 -0.0457905 0
M  V30 6684 H 655.746 -2.90378 -0.525819 0
M  V30 6685 H 655.827 -2.2934 1.13301 0
M  V30 6686 H 655.471 -4.6684 2.00057 0
M  V30 6687 H 655.401 -5.25625 0.320292 0
M  V30 6688 H 657.892 -3.72588 0.631369 0
M  V30 6689 H 658.205 -7.48993 1.9034 0
M  V30 6690 H 656.55 -6.73761 1.70504 0
M  V30 6691 H 659.741 -4.60038 0.865011 0
M  V30 6692 H 659.914 -6.31687 1.44485 0
M  V30 6693 N 653.32 -0.135238 -1.57019 0
M  V30 6694 C 654.568 0.51777 -1.95355 0
M  V30 6695 C 654.889 1.6617 -1.02042 0
M  V30 6696 O 654.159 1.95738 -0.0797343 0
M  V30 6697 H 652.739 0.194264 -0.721298 0
M  V30 6698 H 655.401 -0.207983 -1.93787 0
M  V30 6699 H 654.497 0.901675 -2.98791 0
M  V30 6700 N 654.798 1.5699 0.138552 0
M  V30 6701 C 656.046 1.83446 0.848053 0
M  V30 6702 C 656.367 0.71744 1.81322 0
M  V30 6703 O 655.637 -0.260228 1.94164 0
M  V30 6704 H 654.217 0.676792 0.316166 0
M  V30 6705 H 656.879 1.94462 0.130538 0
M  V30 6706 H 655.975 2.78677 1.40518 0
M  V30 6707 N 656.276 -0.40816 1.52223 0
M  V30 6708 C 657.524 -1.15274 1.66001 0
M  V30 6709 C 657.845 -1.91003 0.392803 0
M  V30 6710 O 657.115 -1.8673 -0.592336 0
M  V30 6711 H 655.695 -0.428526 0.611861 0
M  V30 6712 H 658.357 -0.46512 1.89269 0
M  V30 6713 H 657.453 -1.86628 2.50153 0
M  V30 6714 N 657.755 -1.42862 -0.66545 0
M  V30 6715 C 658.985 -1.47032 -1.45138 0
M  V30 6716 C 659.393 -0.0829977 -1.89018 0
M  V30 6717 O 658.736 0.914551 -1.59316 0
M  V30 6718 C 658.798 -2.34302 -2.72659 0
M  V30 6719 C 658.462 -3.82034 -2.50796 0
M  V30 6720 C 659.459 -4.73453 -2.14799 0
M  V30 6721 C 657.144 -4.26397 -2.655 0
M  V30 6722 C 659.138 -6.07228 -1.93785 0
M  V30 6723 C 656.825 -5.6023 -2.44103 0
M  V30 6724 C 657.823 -6.50462 -2.08299 0
M  V30 6725 O 657.511 -7.8182 -1.87116 0
M  V30 6726 H 657.243 -0.501969 -0.452772 0
M  V30 6727 H 659.797 -1.88137 -0.82423 0
M  V30 6728 H 658.027 -1.88063 -3.37889 0
M  V30 6729 H 659.716 -2.29818 -3.34572 0
M  V30 6730 H 660.482 -4.4046 -2.03026 0
M  V30 6731 H 656.361 -3.56448 -2.92345 0
M  V30 6732 H 659.905 -6.7762 -1.65763 0
M  V30 6733 H 655.802 -5.92793 -2.55475 0
M  V30 6734 H 656.57 -7.93274 -2.01639 0
M  V30 6735 N 659.233 0.902656 -1.29189 0
M  V30 6736 C 660.458 1.69167 -1.19989 0
M  V30 6737 C 660.883 1.86607 0.236495 0
M  V30 6738 O 660.241 1.38425 1.17082 0
M  V30 6739 C 660.289 3.05532 -1.91527 0
M  V30 6740 O 659.393 3.93621 -1.2303 0
M  V30 6741 H 658.734 0.517584 -0.415936 0
M  V30 6742 H 661.264 1.12785 -1.70706 0
M  V30 6743 H 661.274 3.55693 -1.99866 0
M  V30 6744 H 659.949 2.92156 -2.96003 0
M  V30 6745 H 658.526 3.52055 -1.22928 0
M  V30 6746 N 660.711 1.11618 1.11262 0
M  V30 6747 C 661.936 0.889013 1.8738 0
M  V30 6748 C 662.361 -0.555884 1.79698 0
M  V30 6749 O 661.719 -1.39272 1.16073 0
M  V30 6750 C 661.767 1.35759 3.34069 0
M  V30 6751 O 660.871 0.530499 4.08974 0
M  V30 6752 H 660.212 0.320082 0.581759 0
M  V30 6753 H 662.742 1.48611 1.40627 0
M  V30 6754 H 662.752 1.35291 3.84916 0
M  V30 6755 H 661.427 2.40973 3.38976 0
M  V30 6756 H 660.004 0.601439 3.68018 0
M  V30 6757 N 662.189 -1.289 0.906776 0
M  V30 6758 C 663.605 -1.47733 0.603902 0
M  V30 6759 C 663.805 -1.82568 -0.852702 0
M  V30 6760 O 662.861 -1.92642 -1.63234 0
M  V30 6761 C 664.174 -2.58522 1.53581 0
M  V30 6762 C 665.722 -2.72394 1.54177 0
M  V30 6763 C 666.197 -3.86318 2.46013 0
M  V30 6764 N 667.688 -3.93661 2.441 0
M  V30 6765 C 668.423 -4.81177 3.11859 0
M  V30 6766 N 667.919 -5.73333 3.88923 0
M  V30 6767 N 669.712 -4.74728 3.00981 0
M  V30 6768 H 661.863 -1.04567 1.84877 0
M  V30 6769 H 664.126 -0.520118 0.792579 0
M  V30 6770 H 663.832 -2.39667 2.57396 0
M  V30 6771 H 663.706 -3.55475 1.26165 0
M  V30 6772 H 666.093 -2.90641 0.511034 0
M  V30 6773 H 666.174 -1.75993 1.85634 0
M  V30 6774 H 665.818 -3.68826 3.49185 0
M  V30 6775 H 665.748 -4.82102 2.11862 0
M  V30 6776 H 668.239 -3.27751 1.88115 0
M  V30 6777 H 668.552 -6.36923 4.37663 0
M  V30 6778 H 666.897 -5.73196 3.93029 0
M  V30 6779 H 670.088 -4.01722 2.40286 0
M  V30 6780 H 670.261 -5.42719 3.54062 0
M  V30 6781 N 663.667 -0.670007 -1.42649 0
M  V30 6782 C 664.914 -0.190286 -2.01604 0
M  V30 6783 C 665.242 1.20155 -1.52948 0
M  V30 6784 O 664.497 1.81964 -0.72026 0
M  V30 6785 C 664.796 -0.168298 -3.57004 0
M  V30 6786 C 664.462 -1.50415 -4.25072 0
M  V30 6787 C 663.124 -1.86992 -4.43382 0
M  V30 6788 C 665.476 -2.38414 -4.63474 0
M  V30 6789 C 662.804 -3.11203 -4.97363 0
M  V30 6790 C 665.156 -3.61933 -5.18833 0
M  V30 6791 C 663.82 -3.98685 -5.35356 0
M  V30 6792 H 663.09 -0.0696305 -0.737721 0
M  V30 6793 H 665.737 -0.864044 -1.70899 0
M  V30 6794 H 664.042 0.588958 -3.87348 0
M  V30 6795 H 665.739 0.22001 -4.00396 0
M  V30 6796 H 662.329 -1.20959 -4.11177 0
M  V30 6797 H 666.513 -2.11442 -4.49006 0
M  V30 6798 H 661.769 -3.39705 -5.08341 0
M  V30 6799 H 665.943 -4.30326 -5.47533 0
M  V30 6800 H 663.57 -4.95009 -5.76949 0
M  V30 6801 N 665.145 1.52092 -0.413018 0
M  V30 6802 C 666.075 2.30021 0.401567 0
M  V30 6803 C 667.056 1.34395 1.04269 0
M  V30 6804 O 668.241 1.63304 1.05097 0
M  V30 6805 C 665.371 3.12447 1.51638 0
M  V30 6806 C 664.325 4.16153 1.00005 0
M  V30 6807 C 663.651 4.86948 2.20875 0
M  V30 6808 C 664.951 5.22275 0.0513757 0
M  V30 6809 H 666.645 2.98365 -0.248704 0
M  V30 6810 H 664.191 1.4349 -0.121052 0
M  V30 6811 H 666.144 3.65733 2.09326 0
M  V30 6812 H 664.868 2.41879 2.19458 0
M  V30 6813 H 663.527 3.63882 0.445549 0
M  V30 6814 H 663.175 4.12905 2.8726 0
M  V30 6815 H 662.875 5.57057 1.86978 0
M  V30 6816 H 664.399 5.43048 2.79162 0
M  V30 6817 H 665.813 5.70778 0.537176 0
M  V30 6818 H 664.21 5.9977 -0.198977 0
M  V30 6819 H 665.28 4.76611 -0.892736 0
M  V30 6820 N 666.623 0.143563 1.56945 0
M  V30 6821 C 667.851 -0.515447 2.00377 0
M  V30 6822 C 668.266 -1.58643 1.02361 0
M  V30 6823 O 667.623 -1.82489 0.0201039 0
M  V30 6824 C 667.674 -1.11923 3.43737 0
M  V30 6825 O 667.395 -0.0910318 4.38005 0
M  V30 6826 C 668.896 -1.85918 4.02429 0
M  V30 6827 H 666.116 -0.134478 0.657386 0
M  V30 6828 H 668.66 0.237135 2.0312 0
M  V30 6829 H 666.815 -1.82245 3.41856 0
M  V30 6830 H 667.229 -0.532916 5.21786 0
M  V30 6831 H 668.703 -2.2346 5.04747 0
M  V30 6832 H 669.18 -2.7438 3.42947 0
M  V30 6833 H 669.786 -1.20303 4.07931 0
M  V30 6834 N 668.101 -1.57061 -0.130224 0
M  V30 6835 C 669.011 -2.02802 -1.17934 0
M  V30 6836 C 670.027 -0.946378 -1.46013 0
M  V30 6837 O 671.203 -1.25708 -1.57351 0
M  V30 6838 C 668.268 -2.41368 -2.48882 0
M  V30 6839 C 667.329 -3.63561 -2.28301 0
M  V30 6840 C 666.562 -4.00279 -3.53005 0
M  V30 6841 O 666.785 -3.37463 -4.59864 0
M  V30 6842 O 665.719 -4.93441 -3.44673 0
M  V30 6843 H 669.545 -2.92394 -0.820958 0
M  V30 6844 H 667.13 -1.45475 -0.340197 0
M  V30 6845 H 669.012 -2.66958 -3.26054 0
M  V30 6846 H 667.687 -1.54926 -2.84217 0
M  V30 6847 H 666.594 -3.43136 -1.49025 0
M  V30 6848 H 667.927 -4.50673 -1.97875 0
M  V30 6849 N 669.579 0.400081 -1.52437 0
M  V30 6850 C 670.827 1.14392 -1.6661 0
M  V30 6851 C 671.148 1.90792 -0.402927 0
M  V30 6852 O 670.418 1.87042 0.582425 0
M  V30 6853 H 668.998 0.425275 -0.614125 0
M  V30 6854 H 671.66 0.455076 -1.89513 0
M  V30 6855 H 670.756 1.85298 -2.51139 0
M  V30 6856 N 671.057 1.43213 0.657864 0
M  V30 6857 C 672.305 1.44298 1.41501 0
M  V30 6858 C 672.626 0.0666478 1.94886 0
M  V30 6859 O 671.896 -0.897345 1.74139 0
M  V30 6860 H 670.476 0.531257 0.525143 0
M  V30 6861 H 673.138 1.78777 0.776195 0
M  V30 6862 H 672.234 2.1528 2.25966 0
M  V30 6863 N 672.536 -0.895792 1.29666 0
M  V30 6864 C 673.782 -1.64908 1.18039 0
M  V30 6865 C 674.115 -1.9236 -0.266682 0
M  V30 6866 O 673.39 -1.53682 -1.19214 0
M  V30 6867 C 673.673 -2.99574 1.99819 0
M  V30 6868 C 673.526 -2.79163 3.52687 0
M  V30 6869 C 674.845 -4.00358 1.82761 0
M  V30 6870 H 671.964 -0.598437 0.430165 0
M  V30 6871 H 674.606 -1.03736 1.59182 0
M  V30 6872 H 672.756 -3.51786 1.64859 0
M  V30 6873 H 674.428 -2.33821 3.9765 0
M  V30 6874 H 672.671 -2.13871 3.77414 0
M  V30 6875 H 673.342 -3.74871 4.05186 0
M  V30 6876 H 675.818 -3.57268 2.13304 0
M  V30 6877 H 674.694 -4.92514 2.42325 0
M  V30 6878 H 674.955 -4.35096 0.783839 0
M  V30 6879 N 674.014 -1.12206 -1.10668 0
M  V30 6880 C 675.425 -0.890657 -1.64086 0
M  V30 6881 C 675.776 0.575502 -1.8757 0
M  V30 6882 O 674.901 1.4394 -1.61587 0
M  V30 6883 C 675.496 -1.61029 -2.98085 0
M  V30 6884 C 674.055 -1.4251 -3.48379 0
M  V30 6885 C 673.202 -1.64778 -2.23033 0
M  V30 6886 H 676.153 -1.27718 -0.94201 0
M  V30 6887 H 676.174 -1.05993 -3.65439 0
M  V30 6888 H 675.686 -2.67735 -2.80962 0
M  V30 6889 H 673.787 -0.380497 -3.70652 0
M  V30 6890 H 673.9 -2.17959 -4.26651 0
M  V30 6891 H 672.264 -1.07171 -2.31055 0
M  V30 6892 H 673.047 -2.72776 -2.08443 0
M  V30 6893 N 675.492 1.28418 -0.913599 0
M  V30 6894 C 676.739 1.94981 -0.546674 0
M  V30 6895 C 677.067 1.7192 0.909606 0
M  V30 6896 O 676.322 1.03314 1.66207 0
M  V30 6897 C 676.621 3.48283 -0.802099 0
M  V30 6898 C 676.287 3.91444 -2.2379 0
M  V30 6899 C 674.949 4.02939 -2.63046 0
M  V30 6900 C 677.301 4.13542 -3.17227 0
M  V30 6901 C 674.629 4.3391 -3.94891 0
M  V30 6902 C 676.981 4.45992 -4.48636 0
M  V30 6903 C 675.645 4.55698 -4.87746 0
M  V30 6904 H 674.915 0.713487 -0.200042 0
M  V30 6905 H 677.562 1.52756 -1.15489 0
M  V30 6906 H 675.867 3.91643 -0.111076 0
M  V30 6907 H 677.564 3.97903 -0.497375 0
M  V30 6908 H 674.154 3.83024 -1.9233 0
M  V30 6909 H 678.338 4.04114 -2.88107 0
M  V30 6910 H 673.594 4.39631 -4.24894 0
M  V30 6911 H 677.768 4.62038 -5.21051 0
M  V30 6912 H 675.395 4.79451 -5.89942 0
M  V30 6913 N 676.97 0.677563 1.42291 0
M  V30 6914 C 678.198 0.209459 2.05837 0
M  V30 6915 C 678.613 -1.13444 1.50917 0
M  V30 6916 O 677.97 -1.70529 0.65008 0
M  V30 6917 C 678.021 0.138819 3.61233 0
M  V30 6918 O 677.742 1.42962 4.14118 0
M  V30 6919 C 679.243 -0.352449 4.41897 0
M  V30 6920 H 676.463 0.101209 0.663323 0
M  V30 6921 H 679.007 0.925077 1.8238 0
M  V30 6922 H 677.162 -0.527505 3.83792 0
M  V30 6923 H 677.576 1.3048 5.08011 0
M  V30 6924 H 679.05 -0.350778 5.50884 0
M  V30 6925 H 679.527 -1.3882 4.16684 0
M  V30 6926 H 680.133 0.282236 4.24362 0
M  V30 6927 N 678.448 -1.51871 0.421078 0
M  V30 6928 C 679.381 -2.23851 -0.443369 0
M  V30 6929 C 680.359 -1.25142 -1.03818 0
M  V30 6930 O 681.543 -1.5423 -1.08377 0
M  V30 6931 C 678.67 -2.97637 -1.61648 0
M  V30 6932 C 677.716 -4.10873 -1.14391 0
M  V30 6933 S 678.549 -5.35408 -0.0992403 0
M  V30 6934 C 679.705 -6.12726 -1.27739 0
M  V30 6935 H 679.938 -2.96826 0.167786 0
M  V30 6936 H 677.471 -1.53027 0.205461 0
M  V30 6937 H 679.429 -3.40751 -2.28909 0
M  V30 6938 H 678.09 -2.24282 -2.199 0
M  V30 6939 H 677.283 -4.61718 -2.02069 0
M  V30 6940 H 676.885 -3.69937 -0.549775 0
M  V30 6941 H 679.177 -6.40827 -2.19881 0
M  V30 6942 H 680.12 -7.03461 -0.809239 0
M  V30 6943 H 680.528 -5.43968 -1.5086 0
M  V30 6944 N 679.926 -0.151884 -1.56866 0
M  V30 6945 C 681.154 0.504813 -2.00647 0
M  V30 6946 C 681.569 1.58098 -1.03201 0
M  V30 6947 O 680.926 1.82476 -0.0297814 0
M  V30 6948 C 680.977 1.10099 -3.44326 0
M  V30 6949 O 680.698 0.0678021 -4.38048 0
M  V30 6950 C 682.199 1.83782 -4.03409 0
M  V30 6951 H 679.419 0.130989 -0.65809 0
M  V30 6952 H 681.963 -0.247903 -2.02992 0
M  V30 6953 H 680.118 1.8043 -3.42817 0
M  V30 6954 H 680.532 0.505237 -5.22061 0
M  V30 6955 H 682.006 2.2078 -5.05925 0
M  V30 6956 H 682.483 2.72557 -3.44397 0
M  V30 6957 H 683.089 1.18138 -4.08563 0
M  V30 6958 N 681.404 1.57128 0.121893 0
M  V30 6959 C 682.82 1.52357 0.47534 0
M  V30 6960 C 683.02 0.864417 1.82017 0
M  V30 6961 O 682.076 0.445529 2.48538 0
M  V30 6962 C 683.389 2.97122 0.4625 0
M  V30 6963 C 684.937 3.08196 0.546255 0
M  V30 6964 C 685.412 4.54516 0.563833 0
M  V30 6965 N 686.903 4.58959 0.625353 0
M  V30 6966 C 687.638 5.69585 0.660354 0
M  V30 6967 N 687.134 6.89714 0.653175 0
M  V30 6968 N 688.927 5.57685 0.703143 0
M  V30 6969 H 681.078 1.98364 -0.75931 0
M  V30 6970 H 683.341 0.905777 -0.279772 0
M  V30 6971 H 683.047 3.48706 -0.457943 0
M  V30 6972 H 682.921 3.54406 1.29136 0
M  V30 6973 H 685.308 2.56617 1.45712 0
M  V30 6974 H 685.389 2.53912 -0.310234 0
M  V30 6975 H 685.033 5.06741 -0.342974 0
M  V30 6976 H 684.963 5.06609 1.43716 0
M  V30 6977 H 687.454 3.72489 0.637182 0
M  V30 6978 H 687.767 7.69781 0.682425 0
M  V30 6979 H 686.112 6.92223 0.620646 0
M  V30 6980 H 689.303 4.62744 0.706095 0
M  V30 6981 H 689.476 6.43909 0.726952 0
M  V30 6982 N 682.882 -0.391992 1.52647 0
M  V30 6983 C 684.128 -1.139 1.67793 0
M  V30 6984 C 684.461 -1.89711 0.41514 0
M  V30 6985 O 683.736 -1.85431 -0.586979 0
M  V30 6986 C 684.019 -2.11966 2.91105 0
M  V30 6987 C 683.872 -1.39939 4.27478 0
M  V30 6988 C 685.191 -3.1243 3.09961 0
M  V30 6989 H 682.31 -0.412707 0.610608 0
M  V30 6990 H 684.952 -0.422725 1.85238 0
M  V30 6991 H 683.102 -2.73048 2.76364 0
M  V30 6992 H 684.774 -0.818439 4.53982 0
M  V30 6993 H 683.017 -0.701246 4.28095 0
M  V30 6994 H 683.688 -2.1158 5.09841 0
M  V30 6995 H 686.164 -2.61435 3.23714 0
M  V30 6996 H 685.04 -3.78294 3.97725 0
M  V30 6997 H 685.301 -3.81127 2.24042 0
M  V30 6998 N 684.36 -1.4356 -0.65026 0
M  V30 6999 C 685.308 -1.49219 -1.78427 0
M  V30 7000 C 686.302 -0.365528 -1.65409 0
M  V30 7001 O 687.508 -0.539649 -1.7172 0
M  V30 7002 H 683.883 -0.467858 -0.588738 0
M  V30 7003 H 685.854 -2.44701 -1.70774 0
M  V30 7004 C 684.603 -1.43519 -3.16698 0
M  V30 7005 H 683.926 -2.2952 -3.27354 0
M  V30 7006 H 685.366 -1.5154 -3.95995 0
M  V30 7007 C 683.825 -0.153197 -3.36552 0
M  V30 7008 O 684.355 0.784317 -3.93969 0
M  V30 7009 N 682.561 -0.0624402 -2.90533 0
M  V30 7010 H 682.108 -0.826172 -2.43992 0
M  V30 7011 H 682.066 0.794616 -3.04193 0
M  V30 7012 N 685.838 0.888903 -1.30139 0
M  V30 7013 C 687.087 1.63507 -1.18103 0
M  V30 7014 C 687.4 1.93808 0.264141 0
M  V30 7015 O 688.606 2.66744 0.505966 0
M  V30 7016 C 687.062 2.94673 -2.0663 0
M  V30 7017 C 686.67 2.71926 -3.56034 0
M  V30 7018 C 688.414 3.72626 -2.03346 0
M  V30 7019 C 686.321 3.98884 -4.3663 0
M  V30 7020 H 685.251 0.613426 -0.438435 0
M  V30 7021 H 687.902 0.984427 -1.54859 0
M  V30 7022 H 686.284 3.61009 -1.62754 0
M  V30 7023 H 687.458 2.14116 -4.08033 0
M  V30 7024 H 685.773 2.07353 -3.61101 0
M  V30 7025 H 688.37 4.66775 -2.60816 0
M  V30 7026 H 688.713 4.03712 -1.016 0
M  V30 7027 H 689.246 3.13147 -2.45324 0
M  V30 7028 H 685.985 3.72959 -5.39056 0
M  V30 7029 H 685.505 4.56214 -3.89396 0
M  V30 7030 H 687.184 4.66938 -4.47859 0
M  V30 7031 N 687.317 1.12792 1.10072 0
M  V30 7032 C 688.566 0.880232 1.81479 0
M  V30 7033 C 688.879 -0.595575 1.86312 0
M  V30 7034 O 690.085 -0.959979 2.53962 0
M  V30 7035 C 688.541 1.52514 3.25987 0
M  V30 7036 C 688.149 3.036 3.29441 0
M  V30 7037 C 689.893 1.35788 4.02196 0
M  V30 7038 C 687.8 3.61007 4.68431 0
M  V30 7039 H 686.73 0.325654 0.680048 0
M  V30 7040 H 689.381 1.35485 1.23758 0
M  V30 7041 H 687.763 0.978188 3.83728 0
M  V30 7042 H 688.937 3.64819 2.81502 0
M  V30 7043 H 687.252 3.19765 2.66719 0
M  V30 7044 H 689.849 1.76096 5.0487 0
M  V30 7045 H 690.192 0.301972 4.15203 0
M  V30 7046 H 690.725 1.87426 3.50879 0
M  V30 7047 H 687.464 4.66375 4.60625 0
M  V30 7048 H 686.984 3.04564 5.16721 0
M  V30 7049 H 688.663 3.60289 5.37402 0
M  V30 7050 N 688.795 -1.27931 0.920396 0
M  V30 7051 C 689.742 -2.27085 0.412422 0
M  V30 7052 C 690.712 -1.57858 -0.516725 0
M  V30 7053 O 691.897 -1.85717 -0.437475 0
M  V30 7054 C 689.037 -3.43466 -0.335399 0
M  V30 7055 C 688.15 -4.27425 0.627017 0
M  V30 7056 C 687.285 -5.31016 -0.139916 0
M  V30 7057 C 686.324 -6.06641 0.815683 0
M  V30 7058 N 685.461 -7.02052 0.0818439 0
M  V30 7059 H 690.301 -2.69913 1.26298 0
M  V30 7060 H 687.838 -1.32732 0.634076 0
M  V30 7061 H 689.796 -4.09744 -0.785226 0
M  V30 7062 H 688.426 -3.01611 -1.15025 0
M  V30 7063 H 687.478 -3.6113 1.19537 0
M  V30 7064 H 688.79 -4.79969 1.35763 0
M  V30 7065 H 687.944 -6.03208 -0.649998 0
M  V30 7066 H 686.683 -4.79257 -0.903543 0
M  V30 7067 H 685.688 -5.33294 1.33708 0
M  V30 7068 H 686.913 -6.60489 1.57897 0
M  V30 7069 H 684.859 -6.52634 -0.663671 0
M  V30 7070 H 684.776 -7.52249 0.752163 0
M  V30 7071 H 686.044 -7.78432 -0.407825 0
M  V30 7072 N 690.273 -0.685099 -1.4193 0
M  V30 7073 C 691.521 -0.21124 -2.00993 0
M  V30 7074 C 691.842 1.18985 -1.54491 0
M  V30 7075 O 691.112 1.8009 -0.771 0
M  V30 7076 H 689.692 -0.0751059 -0.743215 0
M  V30 7077 H 692.354 -0.883915 -1.73704 0
M  V30 7078 H 691.45 -0.220513 -3.1132 0
M  V30 7079 N 691.751 1.51645 -0.429126 0
M  V30 7080 C 692.681 2.30434 0.377148 0
M  V30 7081 C 693.662 1.35493 1.02838 0
M  V30 7082 O 694.847 1.6441 1.03359 0
M  V30 7083 C 691.977 3.14038 1.48315 0
M  V30 7084 C 690.931 4.1719 0.955855 0
M  V30 7085 C 690.257 4.89263 2.15698 0
M  V30 7086 C 691.557 5.223 -0.00402136 0
M  V30 7087 H 693.251 2.98085 -0.280336 0
M  V30 7088 H 690.797 1.43354 -0.136265 0
M  V30 7089 H 692.75 3.67933 2.05435 0
M  V30 7090 H 691.474 2.44193 2.16881 0
M  V30 7091 H 690.133 3.64335 0.406929 0
M  V30 7092 H 689.781 4.15929 2.82864 0
M  V30 7093 H 689.481 5.59009 1.81059 0
M  V30 7094 H 691.005 5.45978 2.73387 0
M  V30 7095 H 692.419 5.71315 0.476607 0
M  V30 7096 H 690.816 5.99525 -0.26258 0
M  V30 7097 H 691.886 4.75638 -0.943236 0
M  V30 7098 N 693.229 0.160201 1.56784 0
M  V30 7099 C 694.477 -0.486625 1.96154 0
M  V30 7100 C 694.798 -1.64525 1.04673 0
M  V30 7101 O 694.068 -1.95586 0.110864 0
M  V30 7102 H 692.648 -0.182764 0.724297 0
M  V30 7103 H 695.31 0.238787 1.93432 0
M  V30 7104 H 694.406 -0.854025 3.00188 0
M  V30 7105 N 694.707 -1.5719 -0.113559 0
M  V30 7106 C 696.118 -1.74259 -0.670116 0
M  V30 7107 C 696.469 -0.779694 -1.80042 0
M  V30 7108 O 695.594 0.0461353 -2.16351 0
M  V30 7109 C 696.189 -3.15981 -1.22236 0
M  V30 7110 C 694.748 -3.34537 -1.72516 0
M  V30 7111 C 693.895 -2.70116 -0.627098 0
M  V30 7112 H 696.846 -1.58301 0.112396 0
M  V30 7113 H 696.867 -3.17832 -2.09197 0
M  V30 7114 H 696.379 -3.86038 -0.39949 0
M  V30 7115 H 694.48 -2.6953 -2.57263 0
M  V30 7116 H 694.593 -4.42737 -1.83086 0
M  V30 7117 H 692.957 -2.31501 -1.06204 0
M  V30 7118 H 693.74 -3.42802 0.184889 0
M  V30 7119 N 696.185 0.383891 -1.52853 0
M  V30 7120 C 697.431 1.13009 -1.68395 0
M  V30 7121 C 697.764 1.89488 -0.425195 0
M  V30 7122 O 697.039 1.8574 0.577136 0
M  V30 7123 C 697.322 2.10419 -2.92226 0
M  V30 7124 C 697.175 1.3767 -4.28214 0
M  V30 7125 C 698.494 3.10781 -3.11614 0
M  V30 7126 H 695.613 0.409463 -0.612788 0
M  V30 7127 H 698.255 0.412895 -1.85459 0
M  V30 7128 H 696.405 2.71579 -2.77808 0
M  V30 7129 H 698.077 0.794352 -4.54409 0
M  V30 7130 H 696.32 0.678533 -4.2846 0
M  V30 7131 H 696.991 2.08874 -5.10956 0
M  V30 7132 H 699.467 2.59715 -3.25096 0
M  V30 7133 H 698.343 3.76179 -3.99725 0
M  V30 7134 H 698.604 3.79933 -2.2606 0
M  V30 7135 N 697.663 1.43903 0.642637 0
M  V30 7136 C 698.593 1.52697 1.76652 0
M  V30 7137 C 699.574 0.380816 1.65782 0
M  V30 7138 O 700.759 0.599432 1.84717 0
M  V30 7139 C 697.889 1.45975 3.15133 0
M  V30 7140 C 696.843 2.58949 3.40778 0
M  V30 7141 C 696.169 2.37279 4.79169 0
M  V30 7142 C 697.469 4.01153 3.34475 0
M  V30 7143 H 699.163 2.46766 1.69549 0
M  V30 7144 H 696.709 1.18767 0.814279 0
M  V30 7145 H 698.662 1.5073 3.93521 0
M  V30 7146 H 697.386 0.484162 3.22991 0
M  V30 7147 H 696.045 2.53564 2.64765 0
M  V30 7148 H 695.693 1.37939 4.83717 0
M  V30 7149 H 695.393 3.13016 4.97287 0
M  V30 7150 H 696.917 2.43834 5.59801 0
M  V30 7151 H 698.331 4.07968 4.02784 0
M  V30 7152 H 696.728 4.77001 3.64129 0
M  V30 7153 H 697.798 4.25539 2.32475 0
M  V30 7154 N 699.141 -0.881989 1.30609 0
M  V30 7155 C 700.073 -1.99375 1.13058 0
M  V30 7156 C 701.086 -1.62636 0.0729879 0
M  V30 7157 O 702.275 -1.75621 0.319301 0
M  V30 7158 C 699.375 -3.31536 0.702651 0
M  V30 7159 C 698.548 -3.96693 1.84265 0
M  V30 7160 C 697.607 -5.07158 1.40277 0
M  V30 7161 O 696.633 -5.28628 2.11048 0
M  V30 7162 N 697.835 -5.79808 0.283449 0
M  V30 7163 H 700.6 -2.14981 2.08814 0
M  V30 7164 H 698.161 -1.05526 1.22784 0
M  V30 7165 H 700.153 -4.02804 0.391331 0
M  V30 7166 H 698.723 -3.12175 -0.162954 0
M  V30 7167 H 697.943 -3.1856 2.32192 0
M  V30 7168 H 699.231 -4.36964 2.60653 0
M  V30 7169 H 698.629 -5.64871 -0.306189 0
M  V30 7170 H 697.186 -6.51792 0.0315985 0
M  V30 7171 N 700.619 -1.13374 -1.09472 0
M  V30 7172 C 701.868 -0.889844 -1.8101 0
M  V30 7173 C 702.181 0.585686 -1.86625 0
M  V30 7174 O 703.387 0.946497 -2.54467 0
M  V30 7175 C 701.843 -1.54241 -3.25174 0
M  V30 7176 C 701.451 -3.05343 -3.27826 0
M  V30 7177 C 703.195 -1.37919 -4.0147 0
M  V30 7178 C 701.102 -3.63486 -4.6651 0
M  V30 7179 H 700.032 -0.329256 -0.678311 0
M  V30 7180 H 702.683 -1.36139 -1.23038 0
M  V30 7181 H 701.065 -0.998525 -3.83204 0
M  V30 7182 H 702.239 -3.66307 -2.79563 0
M  V30 7183 H 700.554 -3.21175 -2.65019 0
M  V30 7184 H 703.151 -1.78771 -5.03929 0
M  V30 7185 H 703.494 -0.323987 -4.15037 0
M  V30 7186 H 704.027 -1.89284 -3.49881 0
M  V30 7187 H 700.766 -4.68811 -4.58145 0
M  V30 7188 H 700.286 -3.073 -5.15099 0
M  V30 7189 H 701.965 -3.63134 -5.35484 0
M  V30 7190 N 702.098 1.27442 -0.927168 0
M  V30 7191 C 703.061 2.2512 -0.430525 0
M  V30 7192 C 704.061 1.54357 0.450619 0
M  V30 7193 O 705.251 1.72371 0.251774 0
M  V30 7194 C 702.383 3.38763 0.381144 0
M  V30 7195 H 703.576 2.70569 -1.29354 0
M  V30 7196 H 701.129 1.39355 -0.707806 0
M  V30 7197 H 701.864 2.98695 1.263 0
M  V30 7198 H 701.649 3.91298 -0.250618 0
M  V30 7199 H 703.139 4.11364 0.719012 0
M  V30 7200 N 703.576 0.692616 1.41565 0
M  V30 7201 C 704.486 0.0258451 2.34586 0
M  V30 7202 C 705.502 -0.769324 1.56069 0
M  V30 7203 O 706.678 -0.707563 1.88562 0
M  V30 7204 C 703.743 -0.901289 3.3478 0
M  V30 7205 C 702.804 -0.0986579 4.29187 0
M  V30 7206 C 702.037 -0.981634 5.24595 0
M  V30 7207 O 702.26 -2.22115 5.25377 0
M  V30 7208 O 701.194 -0.432892 6.00341 0
M  V30 7209 H 705.02 0.792537 2.93177 0
M  V30 7210 H 702.605 0.452935 1.42369 0
M  V30 7211 H 704.487 -1.43302 3.96286 0
M  V30 7212 H 703.162 -1.64752 2.78637 0
M  V30 7213 H 702.069 0.477604 3.71039 0
M  V30 7214 H 703.402 0.608848 4.8842 0
M  V30 7215 N 705.054 -1.51416 0.437162 0
M  V30 7216 C 706.302 -2.01687 -0.129108 0
M  V30 7217 C 706.623 -1.32329 -1.43227 0
M  V30 7218 O 705.893 -0.457796 -1.90476 0
M  V30 7219 H 704.473 -0.745277 -0.0507023 0
M  V30 7220 H 707.135 -1.86075 0.579828 0
M  V30 7221 H 706.231 -3.10605 -0.305141 0
M  V30 7222 N 706.532 -0.168513 -1.56696 0
M  V30 7223 C 707.778 0.471368 -1.97863 0
M  V30 7224 C 708.133 1.61049 -1.05267 0
M  V30 7225 O 707.426 1.9138 -0.0917908 0
M  V30 7226 C 707.62 1.00441 -3.42996 0
M  V30 7227 C 707.449 -0.081524 -4.49626 0
M  V30 7228 C 706.219 -0.530242 -5.0251 0
M  V30 7229 C 708.417 -0.880897 -5.067 0
M  V30 7230 N 706.399 -1.59678 -5.9277 0
M  V30 7231 C 707.77 -1.79742 -5.93374 0
M  V30 7232 C 709.825 -0.92629 -4.89208 0
M  V30 7233 C 708.528 -2.7555 -6.64428 0
M  V30 7234 C 710.554 -1.8723 -5.6098 0
M  V30 7235 C 709.916 -2.77631 -6.4738 0
M  V30 7236 H 706.015 0.140671 -0.769244 0
M  V30 7237 H 708.599 -0.268084 -1.92846 0
M  V30 7238 H 706.77 1.71339 -3.48565 0
M  V30 7239 H 708.502 1.61269 -3.7118 0
M  V30 7240 H 705.257 -0.12847 -4.73426 0
M  V30 7241 H 705.681 -2.13045 -6.42605 0
M  V30 7242 H 710.323 -0.241412 -4.2211 0
M  V30 7243 H 708.041 -3.45027 -7.30741 0
M  V30 7244 H 711.627 -1.91349 -5.49433 0
M  V30 7245 H 710.507 -3.4964 -7.01941 0
M  V30 7246 N 708.01 1.57248 0.105221 0
M  V30 7247 C 709.235 1.90143 0.828264 0
M  V30 7248 C 709.66 0.761811 1.71983 0
M  V30 7249 O 709.018 -0.287086 1.79013 0
M  V30 7250 C 709.066 3.21856 1.62608 0
M  V30 7251 O 708.17 3.08732 2.7342 0
M  V30 7252 H 707.511 0.623558 0.228192 0
M  V30 7253 H 710.041 2.0443 0.0834826 0
M  V30 7254 H 710.051 3.54916 2.01243 0
M  V30 7255 H 708.726 4.0439 0.971687 0
M  V30 7256 H 707.303 2.87167 2.37886 0
M  V30 7257 N 709.488 -0.375779 1.53054 0
M  V30 7258 C 710.734 -1.12114 1.68992 0
M  V30 7259 C 711.067 -1.8926 0.435238 0
M  V30 7260 O 710.342 -1.86044 -0.567278 0
M  V30 7261 C 710.625 -2.08867 2.93337 0
M  V30 7262 C 710.478 -1.35397 4.28938 0
M  V30 7263 C 711.797 -3.09124 3.13257 0
M  V30 7264 H 708.916 -0.406207 0.614951 0
M  V30 7265 H 711.558 -0.403054 1.85676 0
M  V30 7266 H 709.708 -2.70102 2.79244 0
M  V30 7267 H 711.38 -0.770242 4.54824 0
M  V30 7268 H 709.623 -0.655801 4.28814 0
M  V30 7269 H 710.294 -2.06161 5.12056 0
M  V30 7270 H 712.77 -2.57987 3.26469 0
M  V30 7271 H 711.646 -3.74054 4.01715 0
M  V30 7272 H 711.907 -3.78729 2.28072 0
M  V30 7273 N 710.966 -1.44241 -0.634997 0
M  V30 7274 C 711.876 -1.53293 -1.77591 0
M  V30 7275 C 712.892 -0.418831 -1.68884 0
M  V30 7276 O 714.068 -0.675619 -1.8973 0
M  V30 7277 C 711.133 -1.47075 -3.13958 0
M  V30 7278 C 710.194 -2.69304 -3.34326 0
M  V30 7279 C 709.427 -2.63374 -4.64187 0
M  V30 7280 O 709.65 -1.69161 -5.44739 0
M  V30 7281 O 708.584 -3.54166 -4.86673 0
M  V30 7282 H 712.41 -2.49673 -1.72908 0
M  V30 7283 H 709.995 -1.26445 -0.795745 0
M  V30 7284 H 711.877 -1.46117 -3.95257 0
M  V30 7285 H 710.552 -0.538373 -3.19192 0
M  V30 7286 H 709.459 -2.75831 -2.52721 0
M  V30 7287 H 710.792 -3.61576 -3.33951 0
M  V30 7288 N 712.444 0.87505 -1.31075 0
M  V30 7289 C 713.374 1.99775 -1.20881 0
M  V30 7290 C 714.355 1.69822 -0.0971612 0
M  V30 7291 O 715.54 1.92158 -0.280895 0
M  V30 7292 C 712.67 3.35163 -0.910118 0
M  V30 7293 C 711.624 3.79406 -1.98078 0
M  V30 7294 C 710.95 5.12197 -1.53488 0
M  V30 7295 C 712.25 3.97061 -3.39323 0
M  V30 7296 H 713.944 2.08562 -2.14808 0
M  V30 7297 H 711.49 1.00207 -1.03415 0
M  V30 7298 H 713.443 4.13237 -0.825423 0
M  V30 7299 H 712.167 3.26536 0.064822 0
M  V30 7300 H 710.826 3.03568 -2.05528 0
M  V30 7301 H 710.474 5.00007 -0.547941 0
M  V30 7302 H 710.174 5.4277 -2.2511 0
M  V30 7303 H 711.698 5.92785 -1.46417 0
M  V30 7304 H 713.112 4.65545 -3.34576 0
M  V30 7305 H 711.509 4.39025 -4.09118 0
M  V30 7306 H 712.579 3.00601 -3.80483 0
M  V30 7307 N 713.922 1.13953 1.08869 0
M  V30 7308 C 715.333 0.916649 1.62648 0
M  V30 7309 C 715.684 -0.545589 1.88462 0
M  V30 7310 O 714.809 -1.41351 1.63856 0
M  V30 7311 C 715.404 1.65751 2.95486 0
M  V30 7312 C 713.963 1.48034 3.46068 0
M  V30 7313 C 713.11 1.68305 2.20383 0
M  V30 7314 H 716.061 1.292 0.921572 0
M  V30 7315 H 716.082 1.11794 3.63707 0
M  V30 7316 H 715.594 2.72171 2.76667 0
M  V30 7317 H 713.695 0.439416 3.7 0
M  V30 7318 H 713.808 2.24719 4.23129 0
M  V30 7319 H 712.172 1.10833 2.29321 0
M  V30 7320 H 712.955 2.76057 2.04077 0
M  V30 7321 N 715.4 -1.26948 0.933913 0
M  V30 7322 C 716.347 -2.26635 0.436484 0
M  V30 7323 C 717.317 -1.58397 -0.499953 0
M  V30 7324 O 718.502 -1.86171 -0.417753 0
M  V30 7325 C 715.642 -3.43803 -0.298951 0
M  V30 7326 C 714.755 -4.26736 0.672316 0
M  V30 7327 C 713.89 -5.31134 -0.0835872 0
M  V30 7328 C 712.929 -6.05742 0.879979 0
M  V30 7329 N 712.066 -7.01926 0.156301 0
M  V30 7330 H 716.906 -2.68558 1.29154 0
M  V30 7331 H 714.443 -1.32052 0.648118 0
M  V30 7332 H 716.401 -4.10554 -0.741723 0
M  V30 7333 H 715.031 -3.02814 -1.1182 0
M  V30 7334 H 714.083 -3.59842 1.23361 0
M  V30 7335 H 715.395 -4.78502 1.40846 0
M  V30 7336 H 714.549 -6.03863 -0.585984 0
M  V30 7337 H 713.288 -4.80188 -0.852661 0
M  V30 7338 H 712.293 -5.31846 1.39357 0
M  V30 7339 H 713.518 -6.58777 1.64894 0
M  V30 7340 H 711.464 -6.53301 -0.594413 0
M  V30 7341 H 711.381 -7.51409 0.831906 0
M  V30 7342 H 712.649 -7.78821 -0.325239 0
M  V30 7343 N 716.879 -0.700114 -1.41195 0
M  V30 7344 C 718.156 -0.160836 -1.94938 0
M  V30 7345 C 718.536 1.33014 -1.63922 0
M  V30 7346 O 717.884 2.07878 -0.948636 0
M  V30 7347 C 718.094 -0.456991 -3.45995 0
M  V30 7348 C 719.442 -0.387207 -4.22831 0
M  V30 7349 O 720.466 -0.392164 -3.54035 0
M  V30 7350 O 719.325 -0.351267 -5.4537 0
M  V30 7351 H 716.419 -0.0176304 -0.826812 0
M  V30 7352 H 718.965 -0.776586 -1.50888 0
M  V30 7353 H 717.737 -1.48884 -3.61869 0
M  V30 7354 H 717.36 0.189503 -3.97148 0
M  V30 7355 N 718.357 1.51182 -0.445186 0
M  V30 7356 C 719.603 2.02452 0.11882 0
M  V30 7357 C 719.936 1.32824 1.41673 0
M  V30 7358 O 719.211 0.445637 1.89326 0
M  V30 7359 C 719.494 3.5859 0.329475 0
M  V30 7360 C 719.347 4.38823 -0.987638 0
M  V30 7361 C 720.666 4.26241 1.09575 0
M  V30 7362 H 717.785 0.735819 0.0417092 0
M  V30 7363 H 720.427 1.80747 -0.585718 0
M  V30 7364 H 718.577 3.77214 0.9296 0
M  V30 7365 H 720.249 4.3183 -1.62235 0
M  V30 7366 H 718.492 4.03594 -1.59041 0
M  V30 7367 H 719.163 5.46257 -0.794192 0
M  V30 7368 H 721.639 4.11934 0.587328 0
M  V30 7369 H 720.515 5.35354 1.21191 0
M  V30 7370 H 720.776 3.87635 2.12584 0
M  V30 7371 N 719.835 0.176821 1.56605 0
M  V30 7372 C 720.785 -0.763718 2.14829 0
M  V30 7373 C 721.769 -1.18903 1.08401 0
M  V30 7374 O 722.961 -1.15048 1.3451 0
M  V30 7375 C 720.09 -1.99069 2.7969 0
M  V30 7376 C 719.176 -1.58711 3.93283 0
M  V30 7377 N 719.567 -0.893423 4.97847 0
M  V30 7378 C 717.865 -1.87774 4.04545 0
M  V30 7379 C 718.566 -0.693866 5.77547 0
M  V30 7380 N 717.542 -1.23699 5.29339 0
M  V30 7381 H 721.344 -0.224811 2.93039 0
M  V30 7382 H 718.858 -0.0236563 1.62383 0
M  V30 7383 H 720.855 -2.67478 3.19783 0
M  V30 7384 H 719.515 -2.53449 2.02962 0
M  V30 7385 H 720.526 -0.550868 5.14962 0
M  V30 7386 H 717.203 -2.43793 3.38927 0
M  V30 7387 H 718.593 -0.144899 6.71744 0
M  V30 7388 N 721.313 -1.57302 -0.09688 0
M  V30 7389 C 722.59 -1.7701 -0.832272 0
M  V30 7390 C 722.97 -0.758025 -1.97021 0
M  V30 7391 O 722.318 0.213824 -2.27497 0
M  V30 7392 C 722.528 -3.22725 -1.32851 0
M  V30 7393 C 723.876 -3.85856 -1.772 0
M  V30 7394 O 724.9 -3.26464 -1.42478 0
M  V30 7395 O 723.759 -4.90295 -2.41398 0
M  V30 7396 H 720.853 -0.725558 -0.396856 0
M  V30 7397 H 723.399 -1.69516 -0.0789005 0
M  V30 7398 H 722.171 -3.87921 -0.51312 0
M  V30 7399 H 721.794 -3.34845 -2.14394 0
M  V30 7400 N 722.791 0.367657 -1.53252 0
M  V30 7401 C 724.04 1.10782 -1.68554 0
M  V30 7402 C 724.353 1.90523 -0.442765 0
M  V30 7403 O 725.559 2.6729 -0.47629 0
M  V30 7404 C 724.015 2.01863 -2.97959 0
M  V30 7405 C 723.623 1.27443 -4.29491 0
M  V30 7406 C 725.367 2.75883 -3.22628 0
M  V30 7407 C 723.274 2.17414 -5.49987 0
M  V30 7408 H 722.204 0.417272 -0.628013 0
M  V30 7409 H 724.855 0.368971 -1.79752 0
M  V30 7410 H 723.237 2.7947 -2.80558 0
M  V30 7411 H 724.411 0.549138 -4.57516 0
M  V30 7412 H 722.726 0.652935 -4.11249 0
M  V30 7413 H 725.323 3.43421 -4.09837 0
M  V30 7414 H 725.666 3.41138 -2.38601 0
M  V30 7415 H 726.199 2.0536 -3.40693 0
M  V30 7416 H 722.938 1.5674 -6.36485 0
M  V30 7417 H 722.458 2.87799 -5.26243 0
M  V30 7418 H 724.137 2.77019 -5.84696 0
M  V30 7419 N 724.269 1.44576 0.627338 0
M  V30 7420 C 725.199 1.54562 1.75022 0
M  V30 7421 C 726.18 0.398378 1.65369 0
M  V30 7422 O 727.365 0.61899 1.84071 0
M  V30 7423 C 724.495 1.49309 3.13567 0
M  V30 7424 C 723.449 2.62549 3.38012 0
M  V30 7425 C 722.775 2.42348 4.76625 0
M  V30 7426 C 724.075 4.04678 3.30202 0
M  V30 7427 H 725.769 2.4855 1.66922 0
M  V30 7428 H 723.315 1.19624 0.801636 0
M  V30 7429 H 725.268 1.54895 3.919 0
M  V30 7430 H 723.992 0.518392 3.2246 0
M  V30 7431 H 722.651 2.56358 2.62061 0
M  V30 7432 H 722.299 1.43062 4.82226 0
M  V30 7433 H 721.999 3.18273 4.93939 0
M  V30 7434 H 723.523 2.49758 5.57183 0
M  V30 7435 H 724.937 4.12217 3.98435 0
M  V30 7436 H 723.334 4.80836 3.5905 0
M  V30 7437 H 724.404 4.2798 2.27949 0
M  V30 7438 N 725.747 -0.868086 1.31537 0
M  V30 7439 C 726.695 -1.99688 1.1928 0
M  V30 7440 C 727.689 -1.69101 0.100656 0
M  V30 7441 O 728.895 -1.78073 0.262677 0
M  V30 7442 H 725.27 -0.655032 0.369374 0
M  V30 7443 H 727.241 -2.07157 2.14776 0
M  V30 7444 C 725.99 -3.35338 0.918892 0
M  V30 7445 H 725.313 -3.59396 1.75142 0
M  V30 7446 H 726.753 -4.14909 0.873311 0
M  V30 7447 C 725.212 -3.34769 -0.378366 0
M  V30 7448 O 725.742 -3.76716 -1.39456 0
M  V30 7449 N 723.948 -2.87895 -0.39557 0
M  V30 7450 H 723.495 -2.53954 0.431889 0
M  V30 7451 H 723.453 -2.87897 -1.26344 0
M  V30 7452 N 727.225 -1.14528 -1.08264 0
M  V30 7453 C 728.172 -0.833556 -2.15222 0
M  V30 7454 C 729.142 0.209539 -1.64773 0
M  V30 7455 O 730.327 0.0791388 -1.90636 0
M  V30 7456 C 727.467 -0.318799 -3.43624 0
M  V30 7457 C 726.58 -1.42237 -4.07913 0
M  V30 7458 C 725.715 -0.864704 -5.24115 0
M  V30 7459 C 724.754 -1.94585 -5.80347 0
M  V30 7460 N 723.891 -1.40525 -6.87893 0
M  V30 7461 H 728.731 -1.74965 -2.41228 0
M  V30 7462 H 726.268 -0.873169 -1.18381 0
M  V30 7463 H 728.226 -0.00213088 -4.172 0
M  V30 7464 H 726.856 0.560397 -3.17898 0
M  V30 7465 H 725.908 -1.8554 -3.32083 0
M  V30 7466 H 727.22 -2.23901 -4.45724 0
M  V30 7467 H 726.374 -0.500025 -6.04636 0
M  V30 7468 H 725.113 -0.0171219 -4.87697 0
M  V30 7469 H 724.118 -2.31946 -4.98479 0
M  V30 7470 H 725.343 -2.79704 -6.18823 0
M  V30 7471 H 723.289 -0.579873 -6.53432 0
M  V30 7472 H 723.206 -2.15825 -7.24538 0
M  V30 7473 H 724.474 -1.06852 -7.72142 0
M  V30 7474 N 728.703 1.26451 -0.940633 0
M  V30 7475 C 730.119 1.4608 -0.642859 0
M  V30 7476 C 730.319 1.84765 0.803998 0
M  V30 7477 O 729.375 1.96902 1.58069 0
M  V30 7478 C 730.688 2.54359 -1.60381 0
M  V30 7479 C 732.236 2.6821 -1.61345 0
M  V30 7480 C 732.711 3.79659 -2.56169 0
M  V30 7481 N 734.202 3.87051 -2.54452 0
M  V30 7482 C 734.937 4.72739 -3.24507 0
M  V30 7483 N 734.433 5.6282 -4.03987 0
M  V30 7484 N 736.226 4.66581 -3.13462 0
M  V30 7485 H 728.377 0.996289 -1.87584 0
M  V30 7486 H 730.64 0.498921 -0.80609 0
M  V30 7487 H 730.346 2.32758 -2.6366 0
M  V30 7488 H 730.22 3.52005 -1.35545 0
M  V30 7489 H 732.607 2.89184 -0.587913 0
M  V30 7490 H 732.688 1.7101 -1.90235 0
M  V30 7491 H 732.332 3.59438 -3.58841 0
M  V30 7492 H 732.262 4.76315 -2.2457 0
M  V30 7493 H 734.753 3.22649 -1.96739 0
M  V30 7494 H 735.066 6.25095 -4.54396 0
M  V30 7495 H 733.411 5.62574 -4.08088 0
M  V30 7496 H 736.602 3.9521 -2.50852 0
M  V30 7497 H 736.775 5.33141 -3.68327 0
M  V30 7498 N 730.181 0.707592 1.40822 0
M  V30 7499 C 731.409 0.253073 2.05346 0
M  V30 7500 C 731.824 -1.10218 1.53289 0
M  V30 7501 O 731.181 -1.69112 0.686105 0
M  V30 7502 C 731.232 0.215411 3.60858 0
M  V30 7503 O 730.953 1.51714 4.10992 0
M  V30 7504 C 732.454 -0.258636 4.42545 0
M  V30 7505 H 729.674 0.115256 0.661027 0
M  V30 7506 H 732.218 0.963555 1.80377 0
M  V30 7507 H 730.373 -0.445978 3.84824 0
M  V30 7508 H 730.787 1.41226 5.05129 0
M  V30 7509 H 732.261 -0.233849 5.51504 0
M  V30 7510 H 732.738 -1.2995 4.19535 0
M  V30 7511 H 733.344 0.372186 4.23668 0
M  V30 7512 N 731.66 -1.50943 0.453197 0
M  V30 7513 C 732.608 -2.29728 -0.364419 0
M  V30 7514 C 733.602 -1.36246 -1.00664 0
M  V30 7515 O 734.808 -1.53518 -0.939794 0
M  V30 7516 H 731.183 -0.739536 -0.136347 0
M  V30 7517 H 733.154 -2.96672 0.320696 0
M  V30 7518 C 731.903 -3.1629 -1.44415 0
M  V30 7519 H 731.226 -3.88119 -0.959343 0
M  V30 7520 H 732.666 -3.74444 -1.98917 0
M  V30 7521 C 731.125 -2.32702 -2.43622 0
M  V30 7522 O 731.655 -1.99763 -3.48508 0
M  V30 7523 N 729.861 -1.95621 -2.14897 0
M  V30 7524 H 729.408 -2.22607 -1.29629 0
M  V30 7525 H 729.366 -1.39993 -2.81513 0
M  V30 7526 N 733.138 -0.185124 -1.56509 0
M  V30 7527 C 734.363 0.465278 -2.02114 0
M  V30 7528 C 734.788 1.55083 -1.06447 0
M  V30 7529 O 734.146 1.81241 -0.0462852 0
M  V30 7530 C 734.194 1.00784 -3.46229 0
M  V30 7531 O 733.298 2.12123 -3.53663 0
M  V30 7532 H 732.639 0.109891 -0.654843 0
M  V30 7533 H 735.169 -0.293072 -2.0249 0
M  V30 7534 H 735.179 1.32697 -3.85818 0
M  V30 7535 H 733.854 0.213113 -4.15354 0
M  V30 7536 H 732.431 1.8115 -3.25943 0
M  V30 7537 N 734.616 1.57351 0.0885366 0
M  V30 7538 C 735.844 1.90631 0.804196 0
M  V30 7539 C 736.259 0.779474 1.71958 0
M  V30 7540 O 735.616 -0.248179 1.80805 0
M  V30 7541 C 735.667 3.23568 1.61202 0
M  V30 7542 O 735.388 4.31917 0.733447 0
M  V30 7543 C 736.889 3.70753 2.43016 0
M  V30 7544 H 734.109 0.630501 0.229585 0
M  V30 7545 H 736.653 2.044 0.0638092 0
M  V30 7546 H 734.808 3.11377 2.30485 0
M  V30 7547 H 735.222 5.08297 1.29361 0
M  V30 7548 H 736.696 4.66447 2.9518 0
M  V30 7549 H 737.173 2.98922 3.2178 0
M  V30 7550 H 737.779 3.85834 1.7892 0
M  V30 7551 N 736.094 -0.359525 1.53444 0
M  V30 7552 C 737.34 -1.09958 1.71116 0
M  V30 7553 C 737.695 -1.8681 0.460414 0
M  V30 7554 O 736.988 -1.83635 -0.5467 0
M  V30 7555 C 737.182 -2.08287 2.90433 0
M  V30 7556 C 737.011 -1.41098 4.26991 0
M  V30 7557 C 735.781 -1.16255 4.91745 0
M  V30 7558 C 737.979 -0.845517 5.07302 0
M  V30 7559 N 735.961 -0.454798 6.12213 0
M  V30 7560 C 737.332 -0.267455 6.19423 0
M  V30 7561 C 739.387 -0.744797 4.92298 0
M  V30 7562 C 738.09 0.401511 7.18179 0
M  V30 7563 C 740.116 -0.0896013 5.91332 0
M  V30 7564 C 739.478 0.47756 7.02779 0
M  V30 7565 H 735.577 -0.387305 0.679352 0
M  V30 7566 H 738.161 -0.38519 1.90852 0
M  V30 7567 H 736.332 -2.77034 2.72226 0
M  V30 7568 H 738.064 -2.75015 2.96899 0
M  V30 7569 H 734.819 -1.44544 4.51003 0
M  V30 7570 H 735.243 -0.116108 6.769 0
M  V30 7571 H 739.885 -1.16905 4.06317 0
M  V30 7572 H 737.603 0.837694 8.03746 0
M  V30 7573 H 741.189 -0.0125162 5.81799 0
M  V30 7574 H 740.069 0.976522 7.78096 0
M  V30 7575 N 737.572 -1.44907 -0.619662 0
M  V30 7576 C 738.983 -1.42905 -1.20146 0
M  V30 7577 C 739.334 -0.150341 -1.95623 0
M  V30 7578 O 738.459 0.748732 -2.03034 0
M  V30 7579 C 739.054 -2.58889 -2.18545 0
M  V30 7580 C 737.613 -2.60046 -2.72127 0
M  V30 7581 C 736.76 -2.3493 -1.4732 0
M  V30 7582 H 739.711 -1.53321 -0.409666 0
M  V30 7583 H 739.732 -2.32298 -3.0136 0
M  V30 7584 H 739.244 -3.51941 -1.63583 0
M  V30 7585 H 737.345 -1.70968 -3.3106 0
M  V30 7586 H 737.458 -3.58893 -3.17384 0
M  V30 7587 H 735.822 -1.84248 -1.75855 0
M  V30 7588 H 736.605 -3.3011 -0.942442 0
M  V30 7589 N 739.05 0.861098 -1.31996 0
M  V30 7590 C 740.278 1.6474 -1.25173 0
M  V30 7591 C 740.693 1.87926 0.181425 0
M  V30 7592 O 740.05 1.4437 1.1164 0
M  V30 7593 C 740.101 3.01036 -2.0015 0
M  V30 7594 O 739.822 2.7888 -3.37872 0
M  V30 7595 C 741.323 3.95481 -2.00273 0
M  V30 7596 H 738.543 0.513314 -0.432146 0
M  V30 7597 H 741.087 1.07419 -1.74016 0
M  V30 7598 H 739.242 3.55021 -1.55046 0
M  V30 7599 H 739.656 3.65514 -3.76165 0
M  V30 7600 H 741.13 4.88403 -2.57229 0
M  V30 7601 H 741.607 4.27957 -0.987407 0
M  V30 7602 H 742.213 3.47433 -2.45296 0
M  V30 7603 N 740.528 1.15101 1.07655 0
M  V30 7604 C 741.756 0.947731 1.83918 0
M  V30 7605 C 742.171 -0.503927 1.81951 0
M  V30 7606 O 741.528 -1.34941 1.2287 0
M  V30 7607 C 741.579 1.4503 3.31132 0
M  V30 7608 O 741.3 2.84508 3.33146 0
M  V30 7609 C 742.801 1.28806 4.24174 0
M  V30 7610 H 740.021 0.336786 0.580358 0
M  V30 7611 H 742.565 1.52799 1.35914 0
M  V30 7612 H 740.72 0.912632 3.76497 0
M  V30 7613 H 741.134 3.0723 4.251 0
M  V30 7614 H 742.608 1.6882 5.25551 0
M  V30 7615 H 743.085 0.231851 4.38588 0
M  V30 7616 H 743.691 1.81465 3.84643 0
M  V30 7617 N 742.006 -1.2595 0.947325 0
M  V30 7618 C 743.252 -1.94081 0.608604 0
M  V30 7619 C 743.607 -1.72899 -0.844021 0
M  V30 7620 O 742.9 -1.05908 -1.59669 0
M  V30 7621 C 743.094 -3.46034 0.894158 0
M  V30 7622 C 742.923 -3.81994 2.37299 0
M  V30 7623 C 741.693 -4.04431 3.02925 0
M  V30 7624 C 743.891 -3.90069 3.35188 0
M  V30 7625 N 741.873 -4.27325 4.40757 0
M  V30 7626 C 743.244 -4.17567 4.58299 0
M  V30 7627 C 745.299 -3.72721 3.30127 0
M  V30 7628 C 744.002 -4.2952 5.76979 0
M  V30 7629 C 746.028 -3.8591 4.48138 0
M  V30 7630 C 745.39 -4.13812 5.70034 0
M  V30 7631 H 741.489 -0.73273 0.273187 0
M  V30 7632 H 744.073 -1.51898 1.218 0
M  V30 7633 H 742.244 -3.87131 0.313758 0
M  V30 7634 H 743.976 -4.01396 0.516082 0
M  V30 7635 H 740.731 -4.0003 2.53521 0
M  V30 7636 H 741.155 -4.42792 5.12118 0
M  V30 7637 H 745.797 -3.50172 2.36938 0
M  V30 7638 H 743.515 -4.50888 6.70616 0
M  V30 7639 H 747.101 -3.73882 4.45762 0
M  V30 7640 H 745.981 -4.23791 6.59827 0
M  V30 7641 N 743.484 -0.715051 -1.40445 0
M  V30 7642 C 744.731 -0.254328 -2.00897 0
M  V30 7643 C 745.059 1.15228 -1.56693 0
M  V30 7644 O 744.314 1.7958 -0.777786 0
M  V30 7645 C 744.613 -0.281791 -3.56287 0
M  V30 7646 C 744.279 -1.63862 -4.20071 0
M  V30 7647 C 742.941 -2.01003 -4.37208 0
M  V30 7648 C 745.293 -2.53039 -4.55654 0
M  V30 7649 C 742.621 -3.26869 -4.8721 0
M  V30 7650 C 744.973 -3.78256 -5.07055 0
M  V30 7651 C 743.637 -4.15515 -5.22401 0
M  V30 7652 H 742.907 -0.0930652 -0.735133 0
M  V30 7653 H 745.554 -0.917977 -1.68064 0
M  V30 7654 H 743.859 0.465428 -3.89026 0
M  V30 7655 H 745.556 0.0925158 -4.00893 0
M  V30 7656 H 742.146 -1.33979 -4.07121 0
M  V30 7657 H 746.33 -2.2562 -4.42051 0
M  V30 7658 H 741.586 -3.55706 -4.97276 0
M  V30 7659 H 745.76 -4.47528 -5.33565 0
M  V30 7660 H 743.387 -5.13114 -5.60909 0
M  V30 7661 N 744.962 1.50701 -0.461195 0
M  V30 7662 C 745.925 2.2686 0.326679 0
M  V30 7663 C 746.925 1.31243 0.929085 0
M  V30 7664 O 748.115 1.54754 0.799807 0
M  V30 7665 C 745.247 3.07844 1.46441 0
M  V30 7666 H 746.44 2.97954 -0.341095 0
M  V30 7667 H 743.993 1.54814 -0.214984 0
M  V30 7668 H 744.728 2.41223 2.16753 0
M  V30 7669 H 744.513 3.78101 1.03836 0
M  V30 7670 H 746.003 3.65469 2.02044 0
M  V30 7671 N 746.441 0.193421 1.56409 0
M  V30 7672 C 747.852 -0.319471 1.83946 0
M  V30 7673 C 748.203 -1.61505 1.11403 0
M  V30 7674 O 747.328 -2.13139 0.374289 0
M  V30 7675 C 747.923 -0.586411 3.33686 0
M  V30 7676 C 746.482 -1.04368 3.61641 0
M  V30 7677 C 745.629 -0.0913834 2.77149 0
M  V30 7678 H 748.58 0.417242 1.53117 0
M  V30 7679 H 748.601 -1.43591 3.52366 0
M  V30 7680 H 748.113 0.356701 3.86457 0
M  V30 7681 H 746.214 -2.00113 3.14302 0
M  V30 7682 H 746.327 -0.937549 4.69837 0
M  V30 7683 H 744.691 -0.592954 2.47702 0
M  V30 7684 H 745.474 0.846142 3.32709 0
M  V30 7685 N 747.919 -1.57396 -0.0801906 0
M  V30 7686 C 749.335 -1.53564 -0.434778 0
M  V30 7687 C 749.535 -0.912372 -1.79661 0
M  V30 7688 O 748.591 -0.511268 -2.4727 0
M  V30 7689 C 749.904 -2.98244 -0.383561 0
M  V30 7690 C 751.452 -3.09536 -0.46435 0
M  V30 7691 C 751.927 -4.55851 -0.443128 0
M  V30 7692 N 753.418 -4.60456 -0.503448 0
M  V30 7693 C 754.153 -5.71135 -0.509106 0
M  V30 7694 N 753.649 -6.91203 -0.47008 0
M  V30 7695 N 755.442 -5.59353 -0.555035 0
M  V30 7696 H 747.593 -1.96281 0.811635 0
M  V30 7697 H 749.856 -0.898041 0.303689 0
M  V30 7698 H 749.562 -3.47369 0.550236 0
M  V30 7699 H 749.436 -3.57705 -1.19694 0
M  V30 7700 H 751.823 -2.6039 -1.38857 0
M  V30 7701 H 751.904 -2.53 0.377445 0
M  V30 7702 H 751.548 -5.05653 0.477207 0
M  V30 7703 H 751.478 -5.10242 -1.30234 0
M  V30 7704 H 753.969 -3.74048 -0.538199 0
M  V30 7705 H 754.282 -7.7132 -0.478091 0
M  V30 7706 H 752.627 -6.93625 -0.436897 0
M  V30 7707 H 755.818 -4.64453 -0.583158 0
M  V30 7708 H 755.991 -6.4561 -0.555976 0
M  V30 7709 N 749.397 0.351382 -1.53633 0
M  V30 7710 C 750.327 1.43688 -1.84055 0
M  V30 7711 C 751.308 1.55251 -0.695073 0
M  V30 7712 O 752.493 1.69587 -0.946257 0
M  V30 7713 C 749.623 2.80843 -2.04315 0
M  V30 7714 C 748.577 2.84094 -3.20117 0
M  V30 7715 C 747.903 4.2406 -3.25696 0
M  V30 7716 C 749.203 2.50334 -4.58399 0
M  V30 7717 H 750.897 1.18478 -2.74961 0
M  V30 7718 H 748.443 0.568509 -1.32303 0
M  V30 7719 H 750.396 3.56821 -2.2418 0
M  V30 7720 H 749.12 3.07471 -1.10132 0
M  V30 7721 H 747.779 2.10568 -3.00094 0
M  V30 7722 H 747.427 4.47785 -2.29123 0
M  V30 7723 H 747.127 4.27147 -4.03509 0
M  V30 7724 H 748.651 5.0189 -3.47762 0
M  V30 7725 H 750.065 3.16025 -4.78332 0
M  V30 7726 H 748.462 2.64717 -5.38558 0
M  V30 7727 H 749.532 1.45542 -4.62543 0
M  V30 7728 N 750.875 1.45233 0.611969 0
M  V30 7729 C 752.103 1.52539 1.39784 0
M  V30 7730 C 752.518 0.156533 1.8815 0
M  V30 7731 O 751.875 -0.84112 1.61961 0
M  V30 7732 C 751.926 2.50614 2.60528 0
M  V30 7733 O 751.647 3.8218 2.14173 0
M  V30 7734 C 753.148 2.67574 3.53439 0
M  V30 7735 H 750.368 0.51674 0.428043 0
M  V30 7736 H 752.912 1.90379 0.746727 0
M  V30 7737 H 751.067 2.15858 3.2169 0
M  V30 7738 H 751.481 4.35305 2.92592 0
M  V30 7739 H 752.955 3.40184 4.34717 0
M  V30 7740 H 753.432 1.73458 4.03496 0
M  V30 7741 H 754.038 3.0331 2.98133 0
M  V30 7742 N 752.353 -0.854086 1.3245 0
M  V30 7743 C 753.601 -1.60513 1.228 0
M  V30 7744 C 753.922 -1.93865 -0.210073 0
M  V30 7745 O 753.192 -1.59673 -1.13496 0
M  V30 7746 H 751.772 -0.595099 0.451516 0
M  V30 7747 H 754.434 -1.0216 1.6598 0
M  V30 7748 H 753.53 -2.54182 1.81102 0
M  V30 7749 N 753.831 -1.1567 -1.07043 0
M  V30 7750 C 754.778 -0.856336 -2.14326 0
M  V30 7751 C 755.748 0.192051 -1.64986 0
M  V30 7752 O 756.933 0.0589148 -1.90709 0
M  V30 7753 C 754.073 -0.355227 -3.43267 0
M  V30 7754 C 753.186 -1.46555 -4.06381 0
M  V30 7755 C 752.321 -0.920245 -5.23168 0
M  V30 7756 C 751.36 -2.00729 -5.78251 0
M  V30 7757 N 750.497 -1.47813 -6.86364 0
M  V30 7758 H 755.337 -1.77514 -2.39359 0
M  V30 7759 H 752.874 -0.885676 -1.17449 0
M  V30 7760 H 754.832 -0.0463804 -4.17174 0
M  V30 7761 H 753.462 0.526649 -3.18475 0
M  V30 7762 H 752.514 -1.89052 -3.30096 0
M  V30 7763 H 753.826 -2.28616 -4.43324 0
M  V30 7764 H 752.98 -0.564127 -6.04072 0
M  V30 7765 H 751.719 -0.0688477 -4.87651 0
M  V30 7766 H 750.724 -2.3722 -4.95991 0
M  V30 7767 H 751.949 -2.86252 -6.15822 0
M  V30 7768 H 749.895 -0.649145 -6.5278 0
M  V30 7769 H 749.812 -2.23498 -7.22208 0
M  V30 7770 H 751.08 -1.15036 -7.70965 0
M  V30 7771 N 755.309 1.25446 -0.953992 0
M  V30 7772 C 756.557 1.92762 -0.607227 0
M  V30 7773 C 756.878 1.7509 0.858399 0
M  V30 7774 O 756.148 1.11416 1.61132 0
M  V30 7775 H 754.728 0.713377 -0.221591 0
M  V30 7776 H 757.39 1.52625 -1.21209 0
M  V30 7777 H 756.486 3.00695 -0.835998 0
M  V30 7778 N 756.787 0.722489 1.40064 0
M  V30 7779 C 758.198 0.336507 1.83642 0
M  V30 7780 C 758.549 -1.13002 1.6039 0
M  V30 7781 O 757.674 -1.87036 1.08842 0
M  V30 7782 C 758.269 0.603985 3.33373 0
M  V30 7783 C 756.828 0.271637 3.75419 0
M  V30 7784 C 755.975 0.872898 2.63203 0
M  V30 7785 H 758.926 0.921108 1.29233 0
M  V30 7786 H 758.947 -0.128471 3.80283 0
M  V30 7787 H 758.459 1.67141 3.50265 0
M  V30 7788 H 756.56 -0.790455 3.64119 0
M  V30 7789 H 756.673 0.745457 4.73265 0
M  V30 7790 H 755.037 0.300431 2.52922 0
M  V30 7791 H 755.82 1.94473 2.82905 0
M  V30 7792 N 758.265 -1.50454 0.469181 0
M  V30 7793 C 759.512 -2.02315 -0.086469 0
M  V30 7794 C 759.84 -1.3513 -1.39893 0
M  V30 7795 O 759.095 -0.465341 -1.90087 0
M  V30 7796 C 759.394 -3.55963 -0.320207 0
M  V30 7797 C 759.06 -4.41615 0.910318 0
M  V30 7798 C 757.722 -4.64743 1.2477 0
M  V30 7799 C 760.074 -4.91661 1.72971 0
M  V30 7800 C 757.402 -5.35161 2.40457 0
M  V30 7801 C 759.754 -5.6335 2.87785 0
M  V30 7802 C 758.418 -5.84732 3.2194 0
M  V30 7803 H 757.688 -0.740324 -0.0316412 0
M  V30 7804 H 760.335 -1.81087 0.622872 0
M  V30 7805 H 758.64 -3.75695 -1.11177 0
M  V30 7806 H 760.337 -3.93653 -0.764071 0
M  V30 7807 H 756.927 -4.23833 0.637467 0
M  V30 7808 H 761.111 -4.73649 1.48224 0
M  V30 7809 H 756.367 -5.49924 2.67196 0
M  V30 7810 H 760.541 -6.0111 3.51624 0
M  V30 7811 H 758.168 -6.39074 4.1169 0
M  V30 7812 N 759.743 -0.201713 -1.56304 0
M  V30 7813 C 760.971 0.440723 -2.02152 0
M  V30 7814 C 761.386 1.54735 -1.08179 0
M  V30 7815 O 760.743 1.82289 -0.0878196 0
M  V30 7816 C 760.794 0.990884 -3.47655 0
M  V30 7817 O 760.515 -0.0715937 -4.38041 0
M  V30 7818 C 762.016 1.70854 -4.09052 0
M  V30 7819 H 759.236 0.109987 -0.661924 0
M  V30 7820 H 761.78 -0.312358 -2.021 0
M  V30 7821 H 759.935 1.69432 -3.48384 0
M  V30 7822 H 760.349 0.338892 -5.23404 0
M  V30 7823 H 761.823 2.04572 -5.12693 0
M  V30 7824 H 762.3 2.61462 -3.52894 0
M  V30 7825 H 762.906 1.0508 -4.12114 0
M  V30 7826 N 761.222 1.57436 0.0718424 0
M  V30 7827 C 762.499 1.78312 0.804006 0
M  V30 7828 C 762.879 0.789273 1.9579 0
M  V30 7829 O 762.227 -0.177605 2.27809 0
M  V30 7830 C 762.437 3.24798 1.277 0
M  V30 7831 C 763.785 3.88627 1.71039 0
M  V30 7832 O 764.809 3.28689 1.37266 0
M  V30 7833 O 763.668 4.94073 2.33567 0
M  V30 7834 H 760.762 0.73178 0.385262 0
M  V30 7835 H 763.308 1.69621 0.0519219 0
M  V30 7836 H 762.08 3.88688 0.45134 0
M  V30 7837 H 761.703 3.38213 2.0904 0
M  V30 7838 N 762.7 -0.34323 1.53817 0
M  V30 7839 C 763.946 -1.08504 1.71332 0
M  V30 7840 C 764.279 -1.88294 0.475285 0
M  V30 7841 O 763.554 -1.87205 -0.527688 0
M  V30 7842 C 763.837 -2.02597 2.97702 0
M  V30 7843 C 763.69 -1.26268 4.31713 0
M  V30 7844 C 765.009 -3.0241 3.19744 0
M  V30 7845 H 762.128 -0.393072 0.623429 0
M  V30 7846 H 764.77 -0.363579 1.86489 0
M  V30 7847 H 762.92 -2.64118 2.8491 0
M  V30 7848 H 764.592 -0.673594 4.56356 0
M  V30 7849 H 762.835 -0.564696 4.30109 0
M  V30 7850 H 763.506 -1.95253 5.16314 0
M  V30 7851 H 765.982 -2.51004 3.31868 0
M  V30 7852 H 764.858 -3.65449 4.09558 0
M  V30 7853 H 765.119 -3.73806 2.36054 0
M  V30 7854 N 764.178 -1.45556 -0.604258 0
M  V30 7855 C 765.408 -1.53056 -1.38771 0
M  V30 7856 C 765.816 -0.163092 -1.88496 0
M  V30 7857 O 765.159 0.846157 -1.63052 0
M  V30 7858 C 765.221 -2.45656 -2.62476 0
M  V30 7859 C 764.885 -3.92328 -2.34367 0
M  V30 7860 C 765.882 -4.82137 -1.94525 0
M  V30 7861 C 763.567 -4.37275 -2.47177 0
M  V30 7862 C 765.561 -6.14901 -1.67856 0
M  V30 7863 C 763.248 -5.70079 -2.20122 0
M  V30 7864 C 764.246 -6.58711 -1.80524 0
M  V30 7865 O 763.934 -7.89053 -1.53788 0
M  V30 7866 H 763.666 -0.520721 -0.431075 0
M  V30 7867 H 766.22 -1.91464 -0.743693 0
M  V30 7868 H 764.45 -2.02225 -3.29609 0
M  V30 7869 H 766.139 -2.43802 -3.24523 0
M  V30 7870 H 766.905 -4.48675 -1.84162 0
M  V30 7871 H 762.784 -3.68527 -2.76964 0
M  V30 7872 H 766.328 -6.8404 -1.36874 0
M  V30 7873 H 762.225 -6.03095 -2.30102 0
M  V30 7874 H 762.993 -8.01113 -1.67812 0
M  V30 7875 N 765.656 0.84705 -1.32902 0
M  V30 7876 C 766.881 1.63925 -1.27056 0
M  V30 7877 C 767.306 1.87443 0.157136 0
M  V30 7878 O 766.664 1.43266 1.11106 0
M  V30 7879 C 766.712 2.97134 -2.04313 0
M  V30 7880 O 765.816 3.88049 -1.39614 0
M  V30 7881 H 765.157 0.499477 -0.437514 0
M  V30 7882 H 767.687 1.05443 -1.75336 0
M  V30 7883 H 767.697 3.46896 -2.14772 0
M  V30 7884 H 766.372 2.79339 -3.08128 0
M  V30 7885 H 764.949 3.46525 -1.3775 0
M  V30 7886 N 767.134 1.16236 1.06428 0
M  V30 7887 C 768.38 0.944431 1.79467 0
M  V30 7888 C 768.713 -0.526558 1.86925 0
M  V30 7889 O 767.988 -1.39061 1.35986 0
M  V30 7890 C 768.271 1.57092 3.24028 0
M  V30 7891 C 768.124 3.11315 3.24658 0
M  V30 7892 C 769.443 1.26447 4.21544 0
M  V30 7893 H 766.562 0.344521 0.651517 0
M  V30 7894 H 769.204 1.43545 1.24478 0
M  V30 7895 H 767.354 1.15337 3.70985 0
M  V30 7896 H 769.026 3.62042 2.85873 0
M  V30 7897 H 767.269 3.44716 2.6335 0
M  V30 7898 H 767.94 3.50269 4.26633 0
M  V30 7899 H 770.416 1.62581 3.83023 0
M  V30 7900 H 769.292 1.72885 5.20963 0
M  V30 7901 H 769.553 0.183068 4.41721 0
M  V30 7902 N 768.612 -1.24939 0.960631 0
M  V30 7903 C 769.545 -2.24116 0.429804 0
M  V30 7904 C 770.523 -1.54972 -0.492188 0
M  V30 7905 O 771.707 -1.83642 -0.42519 0
M  V30 7906 C 768.834 -3.36558 -0.380312 0
M  V30 7907 C 767.88 -4.23757 0.482941 0
M  V30 7908 S 768.713 -4.9994 1.91885 0
M  V30 7909 C 769.869 -6.15846 1.11732 0
M  V30 7910 H 770.102 -2.68795 1.27029 0
M  V30 7911 H 767.635 -1.34108 0.765141 0
M  V30 7912 H 769.593 -4.01777 -0.841764 0
M  V30 7913 H 768.254 -2.90451 -1.19569 0
M  V30 7914 H 767.447 -5.03809 -0.138699 0
M  V30 7915 H 767.049 -3.63504 0.879839 0
M  V30 7916 H 769.341 -6.76495 0.368898 0
M  V30 7917 H 770.284 -6.82356 1.89198 0
M  V30 7918 H 770.692 -5.60805 0.644812 0
M  V30 7919 N 770.09 -0.729906 -1.39679 0
M  V30 7920 C 771.053 -0.0951668 -2.29002 0
M  V30 7921 C 772.053 0.672471 -1.46063 0
M  V30 7922 O 773.243 0.502245 -1.66803 0
M  V30 7923 C 770.375 0.874631 -3.29489 0
M  V30 7924 H 771.568 -0.882062 -2.86635 0
M  V30 7925 H 769.121 -0.495424 -1.4824 0
M  V30 7926 H 769.856 1.68807 -2.76902 0
M  V30 7927 H 769.641 0.326893 -3.90735 0
M  V30 7928 H 771.131 1.31548 -3.96339 0
M  V30 7929 N 771.568 1.50203 -0.477153 0
M  V30 7930 C 772.516 2.30278 0.327826 0
M  V30 7931 C 773.51 1.37831 0.984839 0
M  V30 7932 O 774.716 1.54994 0.915251 0
M  V30 7933 H 771.091 0.741612 0.124564 0
M  V30 7934 H 773.062 2.96124 -0.367853 0
M  V30 7935 C 771.811 3.18548 1.39365 0
M  V30 7936 H 771.134 3.89596 0.897475 0
M  V30 7937 H 772.574 3.77561 1.92934 0
M  V30 7938 C 771.033 2.36548 2.39889 0
M  V30 7939 O 771.563 2.05282 3.45286 0
M  V30 7940 N 769.769 1.99015 2.11758 0
M  V30 7941 H 769.316 2.24641 1.26071 0
M  V30 7942 H 769.274 1.44454 2.7925 0
M  V30 7943 N 773.046 0.209999 1.56195 0
M  V30 7944 C 774.292 -0.418742 1.99043 0
M  V30 7945 C 774.647 -1.58201 1.095 0
M  V30 7946 O 773.94 -1.91069 0.1425 0
M  V30 7947 C 774.134 -0.91312 3.45539 0
M  V30 7948 C 773.963 0.200706 4.49252 0
M  V30 7949 C 772.733 0.663287 5.00928 0
M  V30 7950 C 774.931 1.01493 5.04186 0
M  V30 7951 N 772.913 1.75338 5.88328 0
M  V30 7952 C 774.284 1.95411 5.884 0
M  V30 7953 C 776.339 1.05567 4.8658 0
M  V30 7954 C 775.042 2.93069 6.56889 0
M  V30 7955 C 777.068 2.02037 5.55819 0
M  V30 7956 C 776.43 2.94697 6.39791 0
M  V30 7957 H 772.529 -0.120226 0.772703 0
M  V30 7958 H 775.113 0.319119 1.92067 0
M  V30 7959 H 773.284 -1.62038 3.52985 0
M  V30 7960 H 775.016 -1.51371 3.75325 0
M  V30 7961 H 771.771 0.253945 4.72919 0
M  V30 7962 H 772.195 2.30007 6.3673 0
M  V30 7963 H 776.837 0.353242 4.21322 0
M  V30 7964 H 774.555 3.6428 7.21336 0
M  V30 7965 H 778.141 2.05849 5.44167 0
M  V30 7966 H 777.021 3.68128 6.92425 0
M  V30 7967 N 774.524 -1.57472 -0.0634922 0
M  V30 7968 C 775.772 -1.87283 -0.759563 0
M  V30 7969 C 776.093 -0.803135 -1.77693 0
M  V30 7970 O 775.363 0.167293 -1.95184 0
M  V30 7971 H 773.943 -0.691106 -0.283516 0
M  V30 7972 H 776.605 -1.94864 -0.0376091 0
M  V30 7973 H 775.701 -2.85064 -1.27062 0
M  V30 7974 N 776.003 0.335068 -1.53997 0
M  V30 7975 C 776.966 1.39481 -1.81872 0
M  V30 7976 C 777.966 1.4524 -0.690078 0
M  V30 7977 O 779.156 1.45467 -0.958377 0
M  V30 7978 C 776.288 2.78329 -1.9684 0
M  V30 7979 H 777.481 1.16024 -2.76547 0
M  V30 7980 H 775.034 0.569926 -1.45539 0
M  V30 7981 H 775.769 3.07058 -1.04337 0
M  V30 7982 H 775.554 2.75544 -2.78958 0
M  V30 7983 H 777.044 3.55016 -2.19894 0
M  V30 7984 N 777.481 1.45874 0.596531 0
M  V30 7985 C 778.429 1.55739 1.72766 0
M  V30 7986 C 779.423 0.426666 1.63939 0
M  V30 7987 O 780.629 0.60301 1.69599 0
M  V30 7988 H 777.004 0.489386 0.570968 0
M  V30 7989 H 778.975 2.50871 1.61575 0
M  V30 7990 C 777.724 1.55174 3.11153 0
M  V30 7991 H 777.047 2.41511 3.1861 0
M  V30 7992 H 778.487 1.66133 3.90097 0
M  V30 7993 C 776.946 0.278001 3.35751 0
M  V30 7994 O 777.476 -0.637557 3.96608 0
M  V30 7995 N 775.682 0.170227 2.90101 0
M  V30 7996 H 775.229 0.916159 2.40758 0
M  V30 7997 H 775.187 -0.68117 3.06932 0
M  V30 7998 N 778.959 -0.83999 1.33349 0
M  V30 7999 C 779.909 -1.93817 1.20079 0
M  V30 8000 C 780.893 -1.60564 0.103978 0
M  V30 8001 O 782.085 -1.73859 0.331964 0
M  V30 8002 C 779.214 -3.30151 0.941031 0
M  V30 8003 C 778.3 -3.69577 2.08023 0
M  V30 8004 N 778.691 -3.80707 3.3301 0
M  V30 8005 C 776.989 -3.99309 1.98667 0
M  V30 8006 C 777.69 -4.14899 4.07717 0
M  V30 8007 N 776.666 -4.27208 3.36146 0
M  V30 8008 H 780.468 -2.00576 2.14817 0
M  V30 8009 H 777.982 -1.03264 1.2534 0
M  V30 8010 H 779.979 -4.08617 0.826894 0
M  V30 8011 H 778.639 -3.247 0.00216738 0
M  V30 8012 H 779.65 -3.64644 3.67771 0
M  V30 8013 H 776.327 -4.02076 1.12433 0
M  V30 8014 H 777.717 -4.30857 5.15569 0
M  V30 8015 N 780.437 -1.16799 -1.0581 0
M  V30 8016 C 781.685 -0.950642 -1.78346 0
M  V30 8017 C 782.006 0.522524 -1.87869 0
M  V30 8018 O 781.276 1.3795 -1.39092 0
M  V30 8019 H 779.856 -0.348736 -0.6606 0
M  V30 8020 H 782.518 -1.47158 -1.27791 0
M  V30 8021 H 781.614 -1.37359 -2.80248 0
M  V30 8022 N 781.915 1.24427 -0.967243 0
M  V30 8023 C 783.161 1.92772 -0.629812 0
M  V30 8024 C 783.494 1.75436 0.832827 0
M  V30 8025 O 782.769 1.10716 1.59913 0
M  V30 8026 C 783.052 3.45798 -1.00477 0
M  V30 8027 C 782.905 3.72304 -2.52407 0
M  V30 8028 C 784.224 4.36787 -0.538999 0
M  V30 8029 H 781.343 0.700099 -0.230282 0
M  V30 8030 H 783.985 1.46805 -1.20616 0
M  V30 8031 H 782.135 3.8508 -0.514336 0
M  V30 8032 H 783.807 3.42584 -3.08924 0
M  V30 8033 H 782.05 3.17472 -2.95625 0
M  V30 8034 H 782.721 4.7937 -2.73693 0
M  V30 8035 H 785.197 4.04877 -0.959874 0
M  V30 8036 H 784.073 5.4259 -0.829926 0
M  V30 8037 H 784.334 4.38527 0.560923 0
M  V30 8038 N 783.393 0.737304 1.3929 0
M  V30 8039 C 784.323 0.113988 2.33222 0
M  V30 8040 C 785.304 -0.721695 1.54031 0
M  V30 8041 O 786.489 -0.666206 1.82415 0
M  V30 8042 C 783.619 -0.792319 3.38141 0
M  V30 8043 C 782.573 -0.0606178 4.27957 0
M  V30 8044 C 781.899 -1.08409 5.23595 0
M  V30 8045 C 783.199 1.09817 5.10625 0
M  V30 8046 H 784.893 0.898611 2.85596 0
M  V30 8047 H 782.439 0.433571 1.37318 0
M  V30 8048 H 784.392 -1.23793 4.02807 0
M  V30 8049 H 783.116 -1.60908 2.84211 0
M  V30 8050 H 781.775 0.365393 3.64775 0
M  V30 8051 H 781.423 -1.89449 4.6596 0
M  V30 8052 H 781.123 -0.599269 5.84536 0
M  V30 8053 H 782.647 -1.52936 5.91137 0
M  V30 8054 H 784.061 0.730892 5.68622 0
M  V30 8055 H 782.458 1.51278 5.80719 0
M  V30 8056 H 783.528 1.91878 4.45321 0
M  V30 8057 N 784.871 -1.49948 0.485112 0
M  V30 8058 C 786.099 -2.06806 -0.0622824 0
M  V30 8059 C 786.514 -1.34736 -1.32256 0
M  V30 8060 O 785.871 -0.420836 -1.77582 0
M  V30 8061 C 785.922 -3.59934 -0.336096 0
M  V30 8062 O 785.643 -4.29289 0.874203 0
M  V30 8063 C 787.144 -4.33459 -0.928903 0
M  V30 8064 H 784.364 -0.670867 0.0133472 0
M  V30 8065 H 786.908 -1.92937 0.677917 0
M  V30 8066 H 785.063 -3.7356 -1.02625 0
M  V30 8067 H 785.477 -5.20735 0.627332 0
M  V30 8068 H 786.951 -5.41527 -1.07017 0
M  V30 8069 H 787.428 -3.94881 -1.92265 0
M  V30 8070 H 788.034 -4.24399 -0.276705 0
M  V30 8071 N 786.349 -0.21828 -1.56081 0
M  V30 8072 C 787.598 0.414644 -1.97392 0
M  V30 8073 C 787.911 1.61132 -1.10887 0
M  V30 8074 O 789.117 2.31355 -1.42082 0
M  V30 8075 C 787.573 0.789099 -3.51143 0
M  V30 8076 C 787.181 -0.384578 -4.46346 0
M  V30 8077 C 788.925 1.38781 -4.01173 0
M  V30 8078 C 786.832 0.0121288 -5.91399 0
M  V30 8079 H 785.762 0.158691 -0.737111 0
M  V30 8080 H 788.413 -0.313974 -1.80794 0
M  V30 8081 H 786.795 1.57505 -3.6333 0
M  V30 8082 H 787.969 -1.16212 -4.45905 0
M  V30 8083 H 786.284 -0.896306 -4.06639 0
M  V30 8084 H 788.881 1.69746 -5.07041 0
M  V30 8085 H 789.224 2.30245 -3.46833 0
M  V30 8086 H 789.757 0.665364 -3.92196 0
M  V30 8087 H 786.496 -0.868917 -6.49715 0
M  V30 8088 H 786.016 0.754053 -5.95041 0
M  V30 8089 H 787.695 0.439949 -6.45502 0
M  V30 8090 N 787.827 1.57504 0.0551401 0
M  V30 8091 C 789.075 1.87684 0.74962 0
M  V30 8092 C 789.396 0.812547 1.77264 0
M  V30 8093 O 788.666 -0.15694 1.9527 0
M  V30 8094 H 787.246 0.6926 0.279846 0
M  V30 8095 H 789.908 1.94881 0.0272745 0
M  V30 8096 H 789.004 2.85734 1.25548 0
M  V30 8097 N 789.305 -0.326896 1.54172 0
M  V30 8098 C 790.255 -1.40319 1.79707 0
M  V30 8099 C 791.239 -1.47056 0.652938 0
M  V30 8100 O 792.431 -1.51645 0.91284 0
M  V30 8101 C 789.56 -2.77222 2.02491 0
M  V30 8102 C 788.646 -2.74811 3.23016 0
M  V30 8103 N 789.037 -2.42022 4.44138 0
M  V30 8104 C 787.335 -3.05943 3.24522 0
M  V30 8105 C 788.036 -2.48263 5.26061 0
M  V30 8106 N 787.012 -2.84567 4.63166 0
M  V30 8107 H 790.814 -1.13892 2.70935 0
M  V30 8108 H 788.328 -0.53536 1.53322 0
M  V30 8109 H 790.325 -3.54793 2.18923 0
M  V30 8110 H 788.985 -3.04582 1.12515 0
M  V30 8111 H 789.996 -2.14926 4.71197 0
M  V30 8112 H 786.673 -3.38367 2.44569 0
M  V30 8113 H 788.063 -2.2593 6.32776 0
M  V30 8114 N 790.784 -1.46188 -0.588786 0
M  V30 8115 C 792.03 -1.51407 -1.34921 0
M  V30 8116 C 792.363 -0.162771 -1.93517 0
M  V30 8117 O 791.638 0.825082 -1.76132 0
M  V30 8118 C 791.921 -2.60795 -2.48311 0
M  V30 8119 C 791.774 -4.05435 -1.94789 0
M  V30 8120 C 793.093 -2.66313 -3.50379 0
M  V30 8121 H 790.212 -0.551213 -0.489217 0
M  V30 8122 H 792.854 -1.78095 -0.661993 0
M  V30 8123 H 791.004 -2.3817 -3.06932 0
M  V30 8124 H 792.676 -4.39328 -1.40672 0
M  V30 8125 H 790.919 -4.15202 -1.25659 0
M  V30 8126 H 791.59 -4.77691 -2.76613 0
M  V30 8127 H 794.066 -2.86634 -3.01629 0
M  V30 8128 H 792.942 -3.44681 -4.27184 0
M  V30 8129 H 793.203 -1.72127 -4.07216 0
M  V30 8130 N 792.262 0.832906 -1.33792 0
M  V30 8131 C 793.51 1.58539 -1.25338 0
M  V30 8132 C 793.831 1.94175 0.179204 0
M  V30 8133 O 793.101 1.61458 1.10941 0
M  V30 8134 H 791.681 0.58784 -0.460926 0
M  V30 8135 H 794.343 0.995064 -1.67584 0
M  V30 8136 H 793.439 2.51268 -1.85123 0
M  V30 8137 N 793.74 1.17359 1.05189 0
M  V30 8138 C 794.703 0.892604 2.11105 0
M  V30 8139 C 795.703 -0.117236 1.60372 0
M  V30 8140 O 796.893 0.114936 1.7382 0
M  V30 8141 C 794.025 0.337032 3.3923 0
M  V30 8142 H 795.218 1.83169 2.37464 0
M  V30 8143 H 792.771 0.984051 1.21434 0
M  V30 8144 H 793.506 -0.609198 3.18527 0
M  V30 8145 H 793.291 1.06484 3.77364 0
M  V30 8146 H 794.781 0.158763 4.17298 0
M  V30 8147 N 795.218 -1.23913 0.973828 0
M  V30 8148 C 796.495 -1.87539 0.555729 0
M  V30 8149 C 796.875 -1.87641 -0.967162 0
M  V30 8150 O 796.223 -1.35335 -1.84111 0
M  V30 8151 C 796.433 -3.29359 1.15427 0
M  V30 8152 C 797.781 -4.06 1.24294 0
M  V30 8153 O 798.805 -3.38554 1.10723 0
M  V30 8154 O 797.664 -5.26689 1.45813 0
M  V30 8155 H 794.758 -0.805769 0.186188 0
M  V30 8156 H 797.304 -1.31838 1.06849 0
M  V30 8157 H 796.076 -3.23817 2.19678 0
M  V30 8158 H 795.699 -3.92642 0.625925 0
M  V30 8159 N 796.696 -0.74468 -1.38897 0
M  V30 8160 C 797.943 -0.296884 -2.00312 0
M  V30 8161 C 798.271 1.11878 -1.59102 0
M  V30 8162 O 797.526 1.7789 -0.815702 0
M  V30 8163 C 797.825 -0.357302 -3.55609 0
M  V30 8164 C 797.491 -1.72736 -4.16501 0
M  V30 8165 C 796.153 -2.10232 -4.32846 0
M  V30 8166 C 798.505 -2.62647 -4.50184 0
M  V30 8167 C 795.833 -3.3713 -4.80167 0
M  V30 8168 C 798.185 -3.88926 -4.98918 0
M  V30 8169 C 796.849 -4.26503 -5.1347 0
M  V30 8170 H 796.119 -0.108638 -0.732993 0
M  V30 8171 H 798.766 -0.953419 -1.66079 0
M  V30 8172 H 797.071 0.382805 -3.89925 0
M  V30 8173 H 798.768 0.0074596 -4.00999 0
M  V30 8174 H 795.358 -1.42585 -4.04187 0
M  V30 8175 H 799.542 -2.34945 -4.37166 0
M  V30 8176 H 794.798 -3.66174 -4.89619 0
M  V30 8177 H 798.972 -4.58745 -5.23952 0
M  V30 8178 H 796.599 -5.24896 -5.49898 0
M  V30 8179 N 798.174 1.49689 -0.493057 0
M  V30 8180 C 799.423 2.01622 0.0560733 0
M  V30 8181 C 799.736 1.37838 1.3878 0
M  V30 8182 O 800.942 1.81054 2.02316 0
M  V30 8183 C 799.398 3.59586 0.150409 0
M  V30 8184 C 799.006 4.32338 -1.1742 0
M  V30 8185 C 800.75 4.19489 0.650327 0
M  V30 8186 C 798.657 5.8214 -1.04246 0
M  V30 8187 H 797.587 0.753594 0.0247297 0
M  V30 8188 H 800.238 1.723 -0.631279 0
M  V30 8189 H 798.62 3.8559 0.902035 0
M  V30 8190 H 799.794 4.18042 -1.9385 0
M  V30 8191 H 798.109 3.84144 -1.60694 0
M  V30 8192 H 800.706 5.29181 0.766272 0
M  V30 8193 H 801.049 3.82326 1.6472 0
M  V30 8194 H 801.582 3.97775 -0.0445371 0
M  V30 8195 H 798.321 6.23814 -2.01336 0
M  V30 8196 H 797.841 5.98952 -0.31892 0
M  V30 8197 H 799.52 6.43004 -0.717957 0
M  V30 8198 N 799.652 0.226554 1.55963 0
M  V30 8199 C 800.88 -0.408507 2.02827 0
M  V30 8200 C 801.295 -1.52994 1.10627 0
M  V30 8201 O 800.652 -1.82126 0.116809 0
M  V30 8202 C 800.703 -0.93545 3.49187 0
M  V30 8203 O 800.424 0.141273 4.37872 0
M  V30 8204 C 801.925 -1.64325 4.11719 0
M  V30 8205 H 799.145 -0.099442 0.66359 0
M  V30 8206 H 801.689 0.344471 2.01578 0
M  V30 8207 H 799.844 -1.63868 3.51036 0
M  V30 8208 H 800.258 -0.25558 5.23877 0
M  V30 8209 H 801.732 -1.9639 5.15883 0
M  V30 8210 H 802.209 -2.55815 3.57009 0
M  V30 8211 H 802.815 -0.9851 4.13734 0
M  V30 8212 N 801.13 -1.57531 -0.0467866 0
M  V30 8213 C 802.06 -2.08425 -1.05268 0
M  V30 8214 C 803.041 -0.982941 -1.38825 0
M  V30 8215 O 804.226 -1.25716 -1.48018 0
M  V30 8216 C 801.356 -2.54897 -2.35891 0
M  V30 8217 C 800.31 -3.69132 -2.16623 0
M  V30 8218 C 799.636 -4.01747 -3.52851 0
M  V30 8219 C 800.936 -4.98243 -1.56689 0
M  V30 8220 H 802.63 -2.92716 -0.62908 0
M  V30 8221 H 800.176 -1.40816 -0.301156 0
M  V30 8222 H 802.129 -2.8912 -3.06574 0
M  V30 8223 H 800.853 -1.67666 -2.80278 0
M  V30 8224 H 799.512 -3.35231 -1.48377 0
M  V30 8225 H 799.16 -3.11608 -3.94853 0
M  V30 8226 H 798.86 -4.78681 -3.4079 0
M  V30 8227 H 800.384 -4.38487 -4.24925 0
M  V30 8228 H 801.798 -5.30535 -2.17268 0
M  V30 8229 H 800.195 -5.79669 -1.55255 0
M  V30 8230 H 801.265 -4.81986 -0.530827 0
M  V30 8231 N 802.608 0.318715 -1.54344 0
M  V30 8232 C 803.571 1.37545 -1.83342 0
M  V30 8233 C 804.571 1.445 -0.705444 0
M  V30 8234 O 805.761 1.44443 -0.973752 0
M  V30 8235 C 802.893 2.76225 -1.99781 0
M  V30 8236 H 804.086 1.13084 -2.77762 0
M  V30 8237 H 801.639 0.554457 -1.46135 0
M  V30 8238 H 802.374 3.05934 -1.07588 0
M  V30 8239 H 802.159 2.7257 -2.81865 0
M  V30 8240 H 803.649 3.52664 -2.23647 0
M  V30 8241 N 804.086 1.46499 0.581025 0
M  V30 8242 C 805.311 1.55708 1.37002 0
M  V30 8243 C 805.736 0.19942 1.8704 0
M  V30 8244 O 805.094 -0.820731 1.61659 0
M  V30 8245 C 805.142 2.56716 2.53238 0
M  V30 8246 O 804.246 2.10336 3.54729 0
M  V30 8247 H 803.587 0.523912 0.407937 0
M  V30 8248 H 806.117 1.92085 0.704602 0
M  V30 8249 H 806.127 2.76378 3.00132 0
M  V30 8250 H 804.802 3.55307 2.16171 0
M  V30 8251 H 803.379 2.00669 3.14303 0
M  V30 8252 N 805.565 -0.825799 1.34232 0
M  V30 8253 C 806.498 -1.94155 1.19914 0
M  V30 8254 C 807.476 -1.62343 0.0914533 0
M  V30 8255 O 808.66 -1.86752 0.256082 0
M  V30 8256 C 805.787 -3.28064 0.842138 0
M  V30 8257 C 804.833 -3.78839 1.95917 0
M  V30 8258 S 805.666 -3.98943 3.57218 0
M  V30 8259 C 806.822 -5.35783 3.23554 0
M  V30 8260 H 807.055 -2.06003 2.14359 0
M  V30 8261 H 804.588 -0.981053 1.19225 0
M  V30 8262 H 806.546 -4.05434 0.642952 0
M  V30 8263 H 805.207 -3.13988 -0.0839363 0
M  V30 8264 H 804.4 -4.75771 1.66306 0
M  V30 8265 H 804.002 -3.08406 2.11569 0
M  V30 8266 H 806.294 -6.19094 2.7519 0
M  V30 8267 H 807.237 -5.70376 4.19615 0
M  V30 8268 H 807.645 -5.01158 2.5981 0
M  V30 8269 N 807.043 -1.17915 -1.04565 0
M  V30 8270 C 807.973 -0.925033 -2.14395 0
M  V30 8271 C 808.954 0.135375 -1.6956 0
M  V30 8272 O 810.139 -0.0161774 -1.94193 0
M  V30 8273 C 807.269 -0.444469 -3.44444 0
M  V30 8274 C 806.223 -1.44478 -4.02877 0
M  V30 8275 C 805.549 -0.821933 -5.28345 0
M  V30 8276 C 806.849 -2.81995 -4.39632 0
M  V30 8277 H 808.543 -1.84354 -2.35911 0
M  V30 8278 H 806.089 -0.887806 -1.13375 0
M  V30 8279 H 808.042 -0.254078 -4.20633 0
M  V30 8280 H 806.766 0.509592 -3.226 0
M  V30 8281 H 805.425 -1.62203 -3.28764 0
M  V30 8282 H 805.073 0.139161 -5.02807 0
M  V30 8283 H 804.773 -1.48976 -5.68401 0
M  V30 8284 H 806.297 -0.641959 -6.07216 0
M  V30 8285 H 807.711 -2.67952 -5.06828 0
M  V30 8286 H 806.108 -3.45414 -4.90723 0
M  V30 8287 H 807.178 -3.35927 -3.49687 0
M  V30 8288 N 808.521 1.23394 -0.980386 0
M  V30 8289 C 809.937 1.43961 -0.689008 0
M  V30 8290 C 810.137 1.87229 0.744809 0
M  V30 8291 O 809.193 2.01831 1.51725 0
M  V30 8292 C 810.506 2.49128 -1.68392 0
M  V30 8293 C 812.054 2.62941 -1.69796 0
M  V30 8294 C 812.529 3.71317 -2.68118 0
M  V30 8295 N 814.02 3.7876 -2.66636 0
M  V30 8296 C 814.755 4.62176 -3.39383 0
M  V30 8297 N 814.251 5.49682 -4.21688 0
M  V30 8298 N 816.044 4.56372 -3.28147 0
M  V30 8299 H 808.195 0.936106 -1.90659 0
M  V30 8300 H 810.458 0.473023 -0.821555 0
M  V30 8301 H 810.164 2.24252 -2.70931 0
M  V30 8302 H 810.038 3.47514 -1.46675 0
M  V30 8303 H 812.425 2.87168 -0.679617 0
M  V30 8304 H 812.506 1.64871 -1.95579 0
M  V30 8305 H 812.15 3.4784 -3.70095 0
M  V30 8306 H 812.08 4.68929 -2.3961 0
M  V30 8307 H 814.571 3.16226 -2.06904 0
M  V30 8308 H 814.884 6.10323 -4.74053 0
M  V30 8309 H 813.229 5.49306 -4.25779 0
M  V30 8310 H 816.42 3.87029 -2.63299 0
M  V30 8311 H 816.593 5.21153 -3.85102 0
M  V30 8312 N 809.999 0.752036 1.385 0
M  V30 8313 C 811.248 0.304294 1.99391 0
M  V30 8314 C 811.561 -1.11982 1.60373 0
M  V30 8315 O 812.767 -1.66795 2.14223 0
M  V30 8316 C 811.223 0.493101 3.56506 0
M  V30 8317 C 810.831 1.9262 4.04477 0
M  V30 8318 C 812.575 0.107994 4.24363 0
M  V30 8319 C 810.482 2.06365 5.54227 0
M  V30 8320 H 809.412 0.110024 0.745929 0
M  V30 8321 H 812.063 0.928355 1.58284 0
M  V30 8322 H 810.445 -0.20012 3.95494 0
M  V30 8323 H 811.619 2.65276 3.76783 0
M  V30 8324 H 809.934 2.26608 3.49339 0
M  V30 8325 H 812.531 0.189474 5.34364 0
M  V30 8326 H 812.874 -0.939165 4.05568 0
M  V30 8327 H 813.407 0.753011 3.90608 0
M  V30 8328 H 810.146 3.0933 5.77923 0
M  V30 8329 H 809.666 1.38167 5.83669 0
M  V30 8330 H 811.345 1.85286 6.19902 0
M  V30 8331 N 811.477 -1.49425 0.500989 0
M  V30 8332 C 812.888 -1.86624 0.0532011 0
M  V30 8333 C 813.239 -1.41331 -1.36088 0
M  V30 8334 O 812.364 -0.791195 -2.01418 0
M  V30 8335 C 812.959 -3.38681 0.0897693 0
M  V30 8336 C 811.518 -3.75181 -0.302677 0
M  V30 8337 C 810.665 -2.73419 0.462307 0
M  V30 8338 H 813.616 -1.41743 0.713773 0
M  V30 8339 H 813.637 -3.73902 -0.705528 0
M  V30 8340 H 813.149 -3.71616 1.11907 0
M  V30 8341 H 811.25 -3.47855 -1.33521 0
M  V30 8342 H 811.363 -4.79097 0.0167653 0
M  V30 8343 H 809.727 -2.54548 -0.0878557 0
M  V30 8344 H 810.51 -3.09198 1.49169 0
M  V30 8345 N 812.955 -0.234822 -1.55841 0
M  V30 8346 C 814.201 0.393843 -1.98939 0
M  V30 8347 C 814.534 1.58466 -1.1226 0
M  V30 8348 O 813.809 1.93635 -0.183242 0
M  V30 8349 C 814.092 0.815492 -3.50745 0
M  V30 8350 C 813.945 -0.379878 -4.48193 0
M  V30 8351 C 815.264 1.66687 -4.07312 0
M  V30 8352 H 812.383 0.141681 -0.723253 0
M  V30 8353 H 815.025 -0.333716 -1.87046 0
M  V30 8354 H 813.175 1.43541 -3.6101 0
M  V30 8355 H 814.847 -1.0182 -4.49923 0
M  V30 8356 H 813.09 -1.02507 -4.21515 0
M  V30 8357 H 813.761 -0.0417069 -5.51984 0
M  V30 8358 H 816.237 1.14369 -4.00074 0
M  V30 8359 H 815.113 1.93078 -5.13821 0
M  V30 8360 H 815.374 2.63468 -3.55017 0
M  V30 8361 N 814.433 1.57553 0.0384317 0
M  V30 8362 C 815.673 1.90687 0.736069 0
M  V30 8363 C 816.037 0.832381 1.73019 0
M  V30 8364 O 817.238 1.04777 2.47538 0
M  V30 8365 C 815.509 3.28994 1.39635 0
M  V30 8366 S 817.068 3.83944 2.12444 0
M  V30 8367 H 813.886 0.667799 0.244059 0
M  V30 8368 H 816.488 1.95498 -0.00901643 0
M  V30 8369 H 815.192 4.05067 0.659465 0
M  V30 8370 H 814.723 3.27463 2.18018 0
M  V30 8371 H 816.738 3.61916 3.39457 0
M  V30 8372 N 815.911 -0.310526 1.54511 0
M  V30 8373 C 816.844 -1.40693 1.79668 0
M  V30 8374 C 817.822 -1.49159 0.64734 0
M  V30 8375 O 819.006 -1.66367 0.886239 0
M  V30 8376 C 816.133 -2.78685 1.92491 0
M  V30 8377 C 815.179 -2.87688 3.14861 0
M  V30 8378 S 816.012 -2.50759 4.7316 0
M  V30 8379 C 817.168 -3.90797 4.88906 0
M  V30 8380 H 817.401 -1.19142 2.72383 0
M  V30 8381 H 814.934 -0.508103 1.458 0
M  V30 8382 H 816.892 -3.58168 2.00563 0
M  V30 8383 H 815.553 -2.9751 1.00731 0
M  V30 8384 H 814.746 -3.8888 3.20607 0
M  V30 8385 H 814.348 -2.16189 3.05186 0
M  V30 8386 H 816.64 -4.85693 4.72344 0
M  V30 8387 H 817.583 -3.90027 5.91003 0
M  V30 8388 H 817.991 -3.80357 4.1712 0
M  V30 8389 N 817.389 -1.46805 -0.573248 0
M  V30 8390 C 818.339 -1.54497 -1.67674 0
M  V30 8391 C 819.323 -0.405117 -1.55716 0
M  V30 8392 O 820.515 -0.654097 -1.64471 0
M  V30 8393 C 817.644 -1.54717 -3.0646 0
M  V30 8394 C 816.73 -2.7403 -3.2368 0
M  V30 8395 N 817.121 -3.98871 -3.11023 0
M  V30 8396 C 815.419 -2.70453 -3.54642 0
M  V30 8397 C 816.12 -4.78689 -3.30502 0
M  V30 8398 N 815.096 -4.10727 -3.56096 0
M  V30 8399 H 818.898 -2.48809 -1.56433 0
M  V30 8400 H 816.412 -1.42576 -0.777554 0
M  V30 8401 H 818.409 -1.58316 -3.8567 0
M  V30 8402 H 817.069 -0.614886 -3.18825 0
M  V30 8403 H 818.08 -4.29976 -2.88688 0
M  V30 8404 H 814.757 -1.86291 -3.73633 0
M  V30 8405 H 816.147 -5.87615 -3.2582 0
M  V30 8406 N 818.867 0.818669 -1.34668 0
M  V30 8407 C 819.815 1.95123 -1.26609 0
M  V30 8408 C 820.809 1.68611 -0.163348 0
M  V30 8409 O 822.015 1.76975 -0.328586 0
M  V30 8410 H 818.39 0.640871 -0.393431 0
M  V30 8411 H 820.361 1.99043 -2.22316 0
M  V30 8412 C 819.11 3.31697 -1.04272 0
M  V30 8413 H 818.433 3.52648 -1.8836 0
M  V30 8414 H 819.873 4.11382 -1.0267 0
M  V30 8415 C 818.332 3.35942 0.253858 0
M  V30 8416 O 818.862 3.81632 1.25378 0
M  V30 8417 N 817.068 2.89165 0.288447 0
M  V30 8418 H 816.615 2.52176 -0.525845 0
M  V30 8419 H 816.573 2.92387 1.15572 0
M  V30 8420 N 820.346 1.18468 1.03938 0
M  V30 8421 C 821.592 0.982286 1.77423 0
M  V30 8422 C 821.925 -0.48679 1.88 0
M  V30 8423 O 821.2 -1.36146 1.38905 0
M  V30 8424 C 821.483 1.63929 3.20623 0
M  V30 8425 C 821.336 3.18132 3.17982 0
M  V30 8426 C 822.655 1.3536 4.18767 0
M  V30 8427 H 819.774 0.358264 0.644062 0
M  V30 8428 H 822.416 1.46154 1.21405 0
M  V30 8429 H 820.566 1.2318 3.68455 0
M  V30 8430 H 822.238 3.68024 2.78129 0
M  V30 8431 H 820.481 3.50225 2.55978 0
M  V30 8432 H 821.152 3.5924 4.19107 0
M  V30 8433 H 823.628 1.70669 3.79488 0
M  V30 8434 H 822.504 1.83896 5.17178 0
M  V30 8435 H 822.765 0.276722 4.41233 0
M  V30 8436 N 821.824 -1.22873 0.986916 0
M  V30 8437 C 822.734 -2.28277 0.540978 0
M  V30 8438 C 823.75 -1.69164 -0.407363 0
M  V30 8439 O 824.926 -1.99504 -0.275674 0
M  V30 8440 C 821.991 -3.46404 -0.143181 0
M  V30 8441 C 821.052 -4.20854 0.847375 0
M  V30 8442 C 820.285 -5.33341 0.19577 0
M  V30 8443 O 820.508 -5.61356 -1.0117 0
M  V30 8444 O 819.442 -5.95169 0.897623 0
M  V30 8445 H 823.268 -2.68578 1.41773 0
M  V30 8446 H 820.853 -1.28927 0.754867 0
M  V30 8447 H 822.735 -4.18096 -0.526676 0
M  V30 8448 H 821.41 -3.08041 -0.994593 0
M  V30 8449 H 820.317 -3.51459 1.28169 0
M  V30 8450 H 821.65 -4.63082 1.6678 0
M  V30 8451 N 823.302 -0.75937 -1.38099 0
M  V30 8452 C 824.212 -0.13774 -2.34195 0
M  V30 8453 C 825.228 0.693985 -1.59561 0
M  V30 8454 O 826.404 0.616792 -1.91723 0
M  V30 8455 C 823.469 0.740535 -3.38699 0
M  V30 8456 C 822.53 -0.106225 -4.29169 0
M  V30 8457 C 821.763 0.730225 -5.28681 0
M  V30 8458 O 821.986 1.96796 -5.35376 0
M  V30 8459 O 820.92 0.145969 -6.01723 0
M  V30 8460 H 824.746 -0.931512 -2.89061 0
M  V30 8461 H 822.331 -0.520345 -1.40046 0
M  V30 8462 H 824.213 1.24232 -4.02672 0
M  V30 8463 H 822.888 1.51271 -2.8618 0
M  V30 8464 H 821.795 -0.654088 -3.68337 0
M  V30 8465 H 823.128 -0.841186 -4.84959 0
M  V30 8466 N 824.78 1.49157 -0.508906 0
M  V30 8467 C 826.008 2.06879 0.0293734 0
M  V30 8468 C 826.423 1.36823 1.30095 0
M  V30 8469 O 825.78 0.449034 1.7689 0
M  V30 8470 C 825.831 3.60423 0.278791 0
M  V30 8471 O 825.552 4.27844 -0.942389 0
M  V30 8472 C 827.053 4.34881 0.859825 0
M  V30 8473 H 824.273 0.67057 -0.0240184 0
M  V30 8474 H 826.817 1.91834 -0.708526 0
M  V30 8475 H 824.972 3.75145 0.966689 0
M  V30 8476 H 825.386 5.19671 -0.710097 0
M  V30 8477 H 826.86 5.43161 0.983884 0
M  V30 8478 H 827.337 3.9789 1.85958 0
M  V30 8479 H 827.943 4.24785 0.209152 0
M  V30 8480 N 826.258 0.243083 1.55714 0
M  V30 8481 C 827.205 -0.658078 2.21219 0
M  V30 8482 C 828.175 -1.1742 1.17481 0
M  V30 8483 O 829.36 -1.22937 1.45915 0
M  V30 8484 C 826.5 -1.85104 2.91257 0
M  V30 8485 C 825.613 -1.3718 4.09641 0
M  V30 8486 C 824.748 -2.52403 4.67404 0
M  V30 8487 C 823.787 -2.01321 5.78045 0
M  V30 8488 N 822.924 -3.09896 6.30007 0
M  V30 8489 H 827.764 -0.0927854 2.97856 0
M  V30 8490 H 825.301 -0.0340375 1.47061 0
M  V30 8491 H 827.259 -2.55179 3.3006 0
M  V30 8492 H 825.889 -2.38887 2.17101 0
M  V30 8493 H 824.941 -0.565232 3.76177 0
M  V30 8494 H 826.253 -0.957409 4.89525 0
M  V30 8495 H 825.407 -3.30525 5.08761 0
M  V30 8496 H 824.146 -2.97142 3.86728 0
M  V30 8497 H 823.151 -1.21667 5.36169 0
M  V30 8498 H 824.376 -1.57556 6.6057 0
M  V30 8499 H 822.322 -3.54077 5.52237 0
M  V30 8500 H 822.239 -2.72776 7.05074 0
M  V30 8501 H 823.507 -3.8809 6.76023 0
M  V30 8502 N 827.736 -1.57571 -0.0300757 0
M  V30 8503 C 828.982 -1.89506 -0.722159 0
M  V30 8504 C 829.315 -0.840699 -1.7506 0
M  V30 8505 O 828.59 0.144358 -1.93964 0
M  V30 8506 C 828.873 -3.32081 -1.39262 0
M  V30 8507 C 828.726 -4.48211 -0.377768 0
M  V30 8508 C 830.045 -3.73557 -2.32687 0
M  V30 8509 H 827.164 -0.689213 -0.261064 0
M  V30 8510 H 829.806 -1.89994 0.0150388 0
M  V30 8511 H 827.956 -3.31796 -2.02098 0
M  V30 8512 H 829.628 -4.6063 0.248591 0
M  V30 8513 H 827.871 -4.3274 0.303045 0
M  V30 8514 H 828.542 -5.44854 -0.885347 0
M  V30 8515 H 831.018 -3.75202 -1.79896 0
M  V30 8516 H 829.894 -4.74125 -2.7658 0
M  V30 8517 H 830.155 -3.05759 -3.19317 0
M  V30 8518 N 829.214 0.302327 -1.54673 0
M  V30 8519 C 830.444 1.05516 -1.77623 0
M  V30 8520 C 830.852 1.81474 -0.535159 0
M  V30 8521 O 830.195 1.76635 0.504543 0
M  V30 8522 C 830.257 2.08305 -2.93001 0
M  V30 8523 C 829.921 1.51554 -4.31139 0
M  V30 8524 C 830.918 0.946261 -5.11216 0
M  V30 8525 C 828.603 1.55157 -4.77736 0
M  V30 8526 C 830.597 0.420559 -6.36011 0
M  V30 8527 C 828.284 1.022 -6.02494 0
M  V30 8528 C 829.282 0.457461 -6.81466 0
M  V30 8529 O 828.97 -0.064083 -8.03874 0
M  V30 8530 H 828.702 0.318756 -0.59613 0
M  V30 8531 H 831.256 0.347558 -2.02438 0
M  V30 8532 H 829.486 2.82742 -2.63807 0
M  V30 8533 H 831.175 2.69479 -3.03539 0
M  V30 8534 H 831.941 0.911338 -4.76361 0
M  V30 8535 H 827.82 1.98037 -4.16296 0
M  V30 8536 H 831.364 -0.0207298 -6.97597 0
M  V30 8537 H 827.261 1.05406 -6.36836 0
M  V30 8538 H 828.029 0.0493422 -8.18485 0
M  V30 8539 N 830.692 1.47107 0.565454 0
M  V30 8540 C 832.108 1.32443 0.890566 0
M  V30 8541 C 832.308 0.308735 1.99121 0
M  V30 8542 O 831.364 -0.28265 2.50913 0
M  V30 8543 C 832.677 2.71548 1.2916 0
M  V30 8544 C 834.225 2.7977 1.40349 0
M  V30 8545 C 834.7 4.19497 1.83811 0
M  V30 8546 N 836.191 4.21998 1.90975 0
M  V30 8547 C 836.926 5.2702 2.25916 0
M  V30 8548 N 836.422 6.42353 2.59527 0
M  V30 8549 N 838.215 5.14393 2.26619 0
M  V30 8550 H 830.366 2.11786 -0.161328 0
M  V30 8551 H 832.629 0.947952 -0.00950631 0
M  V30 8552 H 832.335 3.47265 0.556753 0
M  V30 8553 H 832.209 3.02782 2.24951 0
M  V30 8554 H 834.596 2.0433 2.12916 0
M  V30 8555 H 834.677 2.522 0.427655 0
M  V30 8556 H 834.321 4.95439 1.11816 0
M  V30 8557 H 834.251 4.44486 2.82382 0
M  V30 8558 H 836.742 3.38791 1.6742 0
M  V30 8559 H 837.055 7.18252 2.85191 0
M  V30 8560 H 835.4 6.45687 2.57126 0
M  V30 8561 H 838.591 4.2332 1.99794 0
M  V30 8562 H 838.764 5.96349 2.5352 0
M  V30 8563 N 832.17 -0.811516 1.35101 0
M  V30 8564 C 833.581 -1.38515 1.25182 0
M  V30 8565 C 833.932 -1.95846 -0.117883 0
M  V30 8566 O 833.057 -1.90925 -1.01866 0
M  V30 8567 C 833.652 -2.51813 2.26662 0
M  V30 8568 C 832.211 -3.05052 2.20499 0
M  V30 8569 C 831.358 -1.77987 2.12641 0
M  V30 8570 H 834.309 -0.614959 1.46301 0
M  V30 8571 H 834.33 -3.30228 1.89023 0
M  V30 8572 H 833.842 -2.10057 3.2634 0
M  V30 8573 H 831.943 -3.51285 1.24215 0
M  V30 8574 H 832.056 -3.63368 3.1225 0
M  V30 8575 H 830.42 -1.99342 1.5854 0
M  V30 8576 H 831.203 -1.38389 3.14171 0
M  V30 8577 N 833.648 -1.19017 -1.03309 0
M  V30 8578 C 834.873 -1.01598 -1.80811 0
M  V30 8579 C 835.298 0.430773 -1.83101 0
M  V30 8580 O 834.656 1.30946 -1.25391 0
M  V30 8581 C 834.704 -1.5845 -3.23923 0
M  V30 8582 O 833.808 -0.810972 -4.04348 0
M  V30 8583 H 833.149 -0.359398 -0.558327 0
M  V30 8584 H 835.679 -1.57945 -1.30055 0
M  V30 8585 H 835.689 -1.61486 -3.74682 0
M  V30 8586 H 834.364 -2.63752 -3.21571 0
M  V30 8587 H 832.941 -0.85353 -3.63 0
M  V30 8588 N 835.127 1.22348 -0.993418 0
M  V30 8589 C 836.09 2.22522 -0.549251 0
M  V30 8590 C 837.09 1.56529 0.368164 0
M  V30 8591 O 838.28 1.73463 0.16005 0
M  V30 8592 C 835.412 3.40307 0.201037 0
M  V30 8593 H 836.605 2.63332 -1.43515 0
M  V30 8594 H 834.158 1.35407 -0.78068 0
M  V30 8595 H 834.893 3.0497 1.10289 0
M  V30 8596 H 834.678 3.8942 -0.457685 0
M  V30 8597 H 836.168 4.14597 0.499946 0
M  V30 8598 N 836.605 0.766683 1.37694 0
M  V30 8599 C 837.851 0.338201 2.00569 0
M  V30 8600 C 838.206 -1.07196 1.59771 0
M  V30 8601 O 837.499 -1.72622 0.831402 0
M  V30 8602 C 837.693 0.413831 3.54996 0
M  V30 8603 C 837.522 1.8298 4.1079 0
M  V30 8604 C 836.292 2.44932 4.41969 0
M  V30 8605 C 838.49 2.78852 4.32141 0
M  V30 8606 N 836.472 3.78353 4.83448 0
M  V30 8607 C 837.843 3.97063 4.76174 0
M  V30 8608 C 839.898 2.76205 4.14265 0
M  V30 8609 C 838.601 5.13003 5.04203 0
M  V30 8610 C 840.627 3.91314 4.43427 0
M  V30 8611 C 839.989 5.08265 4.87694 0
M  V30 8612 H 836.088 0.170693 0.763143 0
M  V30 8613 H 838.672 0.999435 1.67091 0
M  V30 8614 H 836.843 -0.217198 3.87792 0
M  V30 8615 H 838.575 -0.036222 4.04684 0
M  V30 8616 H 835.33 1.9659 4.3087 0
M  V30 8617 H 835.754 4.46937 5.08504 0
M  V30 8618 H 840.396 1.86962 3.79216 0
M  V30 8619 H 838.114 6.0285 5.38142 0
M  V30 8620 H 841.7 3.906 4.31187 0
M  V30 8621 H 840.58 5.95858 5.09827 0
M  V30 8622 N 838.083 -1.48885 0.516809 0
M  V30 8623 C 839.046 -2.27916 -0.242256 0
M  V30 8624 C 840.046 -1.34601 -0.879735 0
M  V30 8625 O 841.236 -1.57616 -0.74182 0
M  V30 8626 C 838.368 -3.13067 -1.34914 0
M  V30 8627 H 839.561 -2.96483 0.451444 0
M  V30 8628 H 837.114 -1.5391 0.272294 0
M  V30 8629 H 837.849 -2.49102 -2.07651 0
M  V30 8630 H 837.634 -3.81695 -0.897313 0
M  V30 8631 H 839.124 -3.72716 -1.88341 0
M  V30 8632 N 839.561 -0.251338 -1.55583 0
M  V30 8633 C 840.524 0.63305 -2.20284 0
M  V30 8634 C 841.524 1.09941 -1.17344 0
M  V30 8635 O 842.714 1.00341 -1.42399 0
M  V30 8636 C 839.846 1.8706 -2.84993 0
M  V30 8637 H 841.039 0.0684846 -2.99822 0
M  V30 8638 H 838.592 -0.00181653 -1.563 0
M  V30 8639 H 839.327 2.47629 -2.09405 0
M  V30 8640 H 839.112 1.54436 -3.60405 0
M  V30 8641 H 840.602 2.50004 -3.34496 0
M  V30 8642 N 841.039 1.57585 0.0217189 0
M  V30 8643 C 841.989 2.03506 1.02807 0
M  V30 8644 C 842.973 0.925716 1.31603 0
M  V30 8645 O 844.165 1.18958 1.31065 0
M  V30 8646 C 841.294 2.52407 2.32693 0
M  V30 8647 C 840.38 3.70176 2.06955 0
M  V30 8648 N 840.771 4.82641 1.513 0
M  V30 8649 C 839.069 3.77691 2.37204 0
M  V30 8650 C 839.77 5.64218 1.41536 0
M  V30 8651 N 838.746 5.09557 1.89348 0
M  V30 8652 H 842.548 2.87878 0.591899 0
M  V30 8653 H 840.062 1.60793 0.227875 0
M  V30 8654 H 842.059 2.83569 3.05605 0
M  V30 8655 H 840.719 1.69444 2.76982 0
M  V30 8656 H 841.73 5.03931 1.19472 0
M  V30 8657 H 838.407 3.05542 2.84517 0
M  V30 8658 H 839.797 6.64576 0.989333 0
M  V30 8659 N 842.517 -0.29412 1.54831 0
M  V30 8660 C 843.765 -1.02643 1.74094 0
M  V30 8661 C 844.086 -1.87563 0.533402 0
M  V30 8662 O 843.356 -1.9061 -0.452192 0
M  V30 8663 H 841.936 -0.381959 0.641963 0
M  V30 8664 H 844.598 -0.323444 1.92197 0
M  V30 8665 H 843.694 -1.67558 2.63307 0
M  V30 8666 N 843.995 -1.47404 -0.557645 0
M  V30 8667 C 844.928 -1.54399 -1.68036 0
M  V30 8668 C 845.906 -0.396175 -1.577 0
M  V30 8669 O 847.09 -0.603911 -1.78564 0
M  V30 8670 C 844.217 -1.44611 -3.06277 0
M  V30 8671 C 843.263 -2.63889 -3.35059 0
M  V30 8672 S 844.096 -4.26086 -3.24362 0
M  V30 8673 C 845.252 -4.1885 -4.65097 0
M  V30 8674 H 845.485 -2.49384 -1.61849 0
M  V30 8675 H 843.018 -1.35597 -0.738429 0
M  V30 8676 H 844.976 -1.39651 -3.86015 0
M  V30 8677 H 843.637 -0.510114 -3.0993 0
M  V30 8678 H 842.83 -2.53103 -4.35838 0
M  V30 8679 H 842.432 -2.65969 -2.62938 0
M  V30 8680 H 844.724 -3.87077 -5.56037 0
M  V30 8681 H 845.667 -5.19714 -4.8094 0
M  V30 8682 H 846.075 -3.49717 -4.43123 0
M  V30 8683 N 845.473 0.80434 -1.35529 0
M  V30 8684 C 846.75 1.5486 -1.1949 0
M  V30 8685 C 847.13 2.09897 0.22506 0
M  V30 8686 O 846.478 1.92643 1.22886 0
M  V30 8687 C 846.688 2.65535 -2.26478 0
M  V30 8688 C 848.036 3.33814 -2.62399 0
M  V30 8689 O 849.06 2.75807 -2.25409 0
M  V30 8690 O 847.919 4.38612 -3.26009 0
M  V30 8691 H 845.013 0.68433 -0.464351 0
M  V30 8692 H 847.559 0.844107 -1.47217 0
M  V30 8693 H 846.331 2.22754 -3.21709 0
M  V30 8694 H 845.954 3.43617 -2.00033 0
M  V30 8695 N 846.951 1.19563 1.02676 0
M  V30 8696 C 848.2 0.993864 1.75514 0
M  V30 8697 C 848.513 -0.475882 1.89723 0
M  V30 8698 O 849.719 -0.796525 2.59553 0
M  V30 8699 C 848.175 1.72937 3.15628 0
M  V30 8700 C 847.783 3.23937 3.09466 0
M  V30 8701 C 849.527 1.61092 3.92746 0
M  V30 8702 C 847.434 3.90067 4.44524 0
M  V30 8703 H 846.364 0.368244 0.657961 0
M  V30 8704 H 849.015 1.43081 1.14891 0
M  V30 8705 H 847.397 1.22025 3.76731 0
M  V30 8706 H 848.571 3.81983 2.57731 0
M  V30 8707 H 846.886 3.3608 2.45843 0
M  V30 8708 H 849.483 2.07848 4.92649 0
M  V30 8709 H 849.826 0.565415 4.12442 0
M  V30 8710 H 850.359 2.09361 3.3825 0
M  V30 8711 H 847.098 4.94725 4.30032 0
M  V30 8712 H 846.618 3.36809 4.96306 0
M  V30 8713 H 848.297 3.93736 5.13401 0
M  V30 8714 N 848.429 -1.21819 0.999893 0
M  V30 8715 C 849.339 -2.27691 0.565159 0
M  V30 8716 C 850.355 -1.69587 -0.389398 0
M  V30 8717 O 851.531 -1.99786 -0.254499 0
M  V30 8718 C 848.596 -3.46537 -0.106432 0
M  V30 8719 C 847.657 -4.19932 0.891964 0
M  V30 8720 C 846.89 -5.33103 0.252327 0
M  V30 8721 O 847.113 -5.62398 -0.952103 0
M  V30 8722 O 846.047 -5.94184 0.960698 0
M  V30 8723 H 849.873 -2.67059 1.44613 0
M  V30 8724 H 847.458 -1.28119 0.768499 0
M  V30 8725 H 849.34 -4.18631 -0.482301 0
M  V30 8726 H 848.015 -3.09079 -0.961865 0
M  V30 8727 H 846.922 -3.5008 1.3189 0
M  V30 8728 H 848.255 -4.61287 1.71682 0
M  V30 8729 N 849.908 -0.773975 -1.37286 0
M  V30 8730 C 851.156 -0.338636 -1.99243 0
M  V30 8731 C 851.477 1.08919 -1.61746 0
M  V30 8732 O 850.747 1.74822 -0.88397 0
M  V30 8733 H 849.327 -0.12222 -0.736934 0
M  V30 8734 H 851.989 -0.992595 -1.67731 0
M  V30 8735 H 851.085 -0.418055 -3.09287 0
M  V30 8736 N 851.386 1.48609 -0.524698 0
M  V30 8737 C 852.318 2.27508 0.278 0
M  V30 8738 C 853.331 1.35042 0.909258 0
M  V30 8739 O 854.52 1.60136 0.788592 0
M  V30 8740 C 851.62 3.08247 1.40843 0
M  V30 8741 C 850.793 4.28455 0.880083 0
M  V30 8742 C 849.852 4.91048 1.891 0
M  V30 8743 O 848.878 5.5042 1.45005 0
M  V30 8744 N 850.08 4.82816 3.22288 0
M  V30 8745 H 852.845 2.97037 -0.398642 0
M  V30 8746 H 850.406 1.57876 -0.358698 0
M  V30 8747 H 852.398 3.46992 2.08276 0
M  V30 8748 H 850.968 2.41173 1.98883 0
M  V30 8749 H 850.188 3.94189 0.0299228 0
M  V30 8750 H 851.476 5.06279 0.505881 0
M  V30 8751 H 850.874 4.3572 3.60783 0
M  V30 8752 H 849.431 5.25676 3.85368 0
M  V30 8753 N 852.864 0.259585 1.55447 0
M  V30 8754 C 854.141 -0.412595 1.91199 0
M  V30 8755 C 854.521 -1.74909 1.18194 0
M  V30 8756 O 853.869 -2.26474 0.303603 0
M  V30 8757 C 854.079 -0.568195 3.44344 0
M  V30 8758 C 855.427 -0.858253 4.15836 0
M  V30 8759 O 856.451 -0.653588 3.50152 0
M  V30 8760 O 855.31 -1.24874 5.32042 0
M  V30 8761 H 852.404 -0.223403 0.796254 0
M  V30 8762 H 854.95 0.30459 1.66944 0
M  V30 8763 H 853.722 0.372989 3.89518 0
M  V30 8764 H 853.345 -1.33544 3.74502 0
M  V30 8765 N 854.342 -1.57594 -0.0133615 0
M  V30 8766 C 855.572 -1.93969 -0.711295 0
M  V30 8767 C 855.98 -0.859084 -1.68572 0
M  V30 8768 O 855.323 0.171842 -1.82894 0
M  V30 8769 C 855.385 -3.2625 -1.51001 0
M  V30 8770 C 855.049 -4.51628 -0.698645 0
M  V30 8771 C 856.046 -5.19899 0.00791185 0
M  V30 8772 C 853.731 -4.98095 -0.648553 0
M  V30 8773 C 855.725 -6.32928 0.753691 0
M  V30 8774 C 853.412 -6.11017 0.10096 0
M  V30 8775 C 854.41 -6.78289 0.800828 0
M  V30 8776 O 854.098 -7.89048 1.53814 0
M  V30 8777 H 853.83 -0.6445 -0.203951 0
M  V30 8778 H 856.384 -2.05378 0.0298267 0
M  V30 8779 H 854.614 -3.11211 -2.29531 0
M  V30 8780 H 856.303 -3.47835 -2.09202 0
M  V30 8781 H 857.069 -4.84995 -0.0217192 0
M  V30 8782 H 852.948 -4.45568 -1.18282 0
M  V30 8783 H 856.492 -6.85371 1.3005 0
M  V30 8784 H 852.389 -6.45364 0.132459 0
M  V30 8785 H 853.157 -8.05492 1.45345 0
M  V30 8786 N 855.82 0.285905 -1.54985 0
M  V30 8787 C 857.236 0.632405 -1.46536 0
M  V30 8788 C 857.436 1.90074 -0.668888 0
M  V30 8789 O 856.492 2.51839 -0.182586 0
M  V30 8790 C 857.805 0.771361 -2.90638 0
M  V30 8791 C 859.353 0.866262 -3.00774 0
M  V30 8792 C 859.828 1.0371 -4.46103 0
M  V30 8793 N 861.319 1.10294 -4.49877 0
M  V30 8794 C 862.054 1.25369 -5.59527 0
M  V30 8795 N 861.55 1.37246 -6.7907 0
M  V30 8796 N 863.343 1.28377 -5.47244 0
M  V30 8797 H 855.494 -0.547226 -2.0523 0
M  V30 8798 H 857.757 -0.183298 -0.930111 0
M  V30 8799 H 857.463 -0.0899485 -3.51585 0
M  V30 8800 H 857.337 1.65569 -3.3892 0
M  V30 8801 H 859.724 1.71805 -2.39931 0
M  V30 8802 H 859.805 -0.0424049 -2.55765 0
M  V30 8803 H 859.449 0.190021 -5.07544 0
M  V30 8804 H 859.379 1.96022 -4.88757 0
M  V30 8805 H 861.87 1.02407 -3.6376 0
M  V30 8806 H 862.183 1.48546 -7.58389 0
M  V30 8807 H 860.528 1.34274 -6.81906 0
M  V30 8808 H 863.719 1.1872 -4.52795 0
M  V30 8809 H 863.892 1.39782 -6.32744 0
M  V30 8810 N 857.298 1.47698 0.54982 0
M  V30 8811 C 858.261 1.60282 1.63837 0
M  V30 8812 C 859.261 0.477394 1.5355 0
M  V30 8813 O 860.451 0.742665 1.57576 0
M  V30 8814 C 857.583 1.55431 3.03404 0
M  V30 8815 H 858.776 2.57325 1.54026 0
M  V30 8816 H 856.329 1.35999 0.770329 0
M  V30 8817 H 857.064 0.597912 3.1874 0
M  V30 8818 H 856.849 2.37116 3.12279 0
M  V30 8819 H 858.339 1.6739 3.82584 0
M  V30 8820 N 858.776 -0.797141 1.35954 0
M  V30 8821 C 860.016 -1.56795 1.31128 0
M  V30 8822 C 860.38 -1.91683 -0.110364 0
M  V30 8823 O 861.581 -2.67305 -0.283093 0
M  V30 8824 C 859.852 -2.81577 2.20111 0
M  V30 8825 S 861.411 -3.71895 2.32894 0
M  V30 8826 H 858.229 -0.53711 0.465869 0
M  V30 8827 H 860.831 -0.939522 1.71445 0
M  V30 8828 H 859.535 -2.53986 3.22365 0
M  V30 8829 H 859.066 -3.49399 1.80786 0
M  V30 8830 H 861.081 -4.72322 1.52073 0
M  V30 8831 N 860.254 -1.20106 -1.0204 0
M  V30 8832 C 861.186 -0.904236 -2.10609 0
M  V30 8833 C 862.199 0.106487 -1.62451 0
M  V30 8834 O 863.388 -0.124035 -1.78069 0
M  V30 8835 C 860.488 -0.333423 -3.37256 0
M  V30 8836 C 859.661 -1.39476 -4.14566 0
M  V30 8837 C 858.72 -0.835961 -5.19517 0
M  V30 8838 O 857.746 -1.51573 -5.48648 0
M  V30 8839 N 858.948 0.356531 -5.79404 0
M  V30 8840 H 861.713 -1.8388 -2.36661 0
M  V30 8841 H 859.274 -1.10422 -1.184 0
M  V30 8842 H 861.266 0.0544571 -4.04663 0
M  V30 8843 H 859.836 0.505608 -3.08484 0
M  V30 8844 H 859.056 -1.95714 -3.42184 0
M  V30 8845 H 860.344 -2.10967 -4.63001 0
M  V30 8846 H 859.742 0.926143 -5.58067 0
M  V30 8847 H 858.299 0.686093 -6.48179 0
M  V30 8848 N 861.732 1.21287 -1.00634 0
M  V30 8849 C 862.68 2.25733 -0.561026 0
M  V30 8850 C 863.674 1.64728 0.395095 0
M  V30 8851 O 864.88 1.78022 0.266141 0
M  V30 8852 H 861.255 0.734104 -0.163081 0
M  V30 8853 H 863.226 2.60631 -1.45307 0
M  V30 8854 C 861.975 3.47569 0.0952587 0
M  V30 8855 H 861.298 3.94782 -0.631427 0
M  V30 8856 H 862.738 4.22382 0.370105 0
M  V30 8857 C 861.197 3.09326 1.33488 0
M  V30 8858 O 861.727 3.19933 2.42912 0
M  V30 8859 N 859.933 2.63976 1.21512 0
M  V30 8860 H 859.48 2.55545 0.324741 0
M  V30 8861 H 859.438 2.38757 2.04555 0
M  V30 8862 N 863.21 0.781244 1.36873 0
M  V30 8863 C 864.44 0.361042 2.03421 0
M  V30 8864 C 864.848 -1.02471 1.59048 0
M  V30 8865 O 864.191 -1.66712 0.771552 0
M  V30 8866 C 864.253 0.336202 3.57924 0
M  V30 8867 C 863.917 1.66815 4.25467 0
M  V30 8868 C 864.914 2.62224 4.48926 0
M  V30 8869 C 862.599 1.9452 4.63106 0
M  V30 8870 C 864.593 3.83538 5.09095 0
M  V30 8871 C 862.28 3.16103 5.22994 0
M  V30 8872 C 863.278 4.10431 5.45926 0
M  V30 8873 O 862.966 5.29871 6.04559 0
M  V30 8874 H 862.698 0.147956 0.65961 0
M  V30 8875 H 865.252 1.05895 1.75998 0
M  V30 8876 H 863.482 -0.418147 3.84433 0
M  V30 8877 H 865.171 -0.0582199 4.05858 0
M  V30 8878 H 865.937 2.42104 4.20251 0
M  V30 8879 H 861.816 1.21921 4.44585 0
M  V30 8880 H 865.36 4.57178 5.2691 0
M  V30 8881 H 861.257 3.36104 5.51094 0
M  V30 8882 H 862.025 5.30825 6.23031 0
M  V30 8883 N 864.689 -1.48329 0.532571 0
M  V30 8884 C 865.937 -2.021 -0.000581206 0
M  V30 8885 C 866.258 -1.4117 -1.34522 0
M  V30 8886 O 865.528 -0.578005 -1.87179 0
M  V30 8887 H 864.108 -0.746993 -0.00320281 0
M  V30 8888 H 866.77 -1.82011 0.696991 0
M  V30 8889 H 865.866 -3.11917 -0.106991 0
M  V30 8890 N 866.167 -0.267825 -1.55308 0
M  V30 8891 C 867.578 0.231344 -1.85261 0
M  V30 8892 C 867.929 1.56006 -1.18982 0
M  V30 8893 O 867.054 2.1111 -0.475554 0
M  V30 8894 C 867.649 0.426537 -3.36104 0
M  V30 8895 C 866.208 0.869945 -3.66209 0
M  V30 8896 C 865.355 -0.0409522 -2.7727 0
M  V30 8897 H 868.306 -0.489821 -1.50952 0
M  V30 8898 H 868.327 1.26616 -3.58816 0
M  V30 8899 H 867.839 -0.540678 -3.84315 0
M  V30 8900 H 865.94 1.84889 -3.23492 0
M  V30 8901 H 866.053 0.712316 -4.73775 0
M  V30 8902 H 864.417 0.474097 -2.50249 0
M  V30 8903 H 865.2 -1.00392 -3.28293 0
M  V30 8904 N 867.645 1.57599 0.00500368 0
M  V30 8905 C 868.575 2.11143 0.99705 0
M  V30 8906 C 869.556 1.0194 1.3617 0
M  V30 8907 O 870.741 1.29596 1.44632 0
M  V30 8908 C 867.871 2.61062 2.2905 0
M  V30 8909 C 866.825 3.74745 2.0676 0
M  V30 8910 C 866.151 4.10961 3.42075 0
M  V30 8911 C 867.451 5.02222 1.43424 0
M  V30 8912 H 869.145 2.94281 0.551251 0
M  V30 8913 H 866.691 1.41565 0.263715 0
M  V30 8914 H 868.644 2.97146 2.98801 0
M  V30 8915 H 867.368 1.75038 2.75734 0
M  V30 8916 H 866.027 3.39047 1.39436 0
M  V30 8917 H 865.675 3.21968 3.86453 0
M  V30 8918 H 865.375 4.87549 3.27979 0
M  V30 8919 H 866.899 4.49599 4.1315 0
M  V30 8920 H 868.313 5.36109 2.03125 0
M  V30 8921 H 866.71 5.83581 1.39831 0
M  V30 8922 H 867.78 4.83224 0.40285 0
M  V30 8923 N 869.123 -0.277682 1.55134 0
M  V30 8924 C 870.353 -1.02677 1.79279 0
M  V30 8925 C 870.761 -1.80599 0.563962 0
M  V30 8926 O 870.104 -1.77416 -0.476378 0
M  V30 8927 C 870.166 -2.03617 2.96277 0
M  V30 8928 C 869.83 -1.44676 4.33495 0
M  V30 8929 C 870.827 -0.864811 5.12657 0
M  V30 8930 C 868.512 -1.47537 4.80144 0
M  V30 8931 C 870.506 -0.319322 6.366 0
M  V30 8932 C 868.193 -0.926016 6.04043 0
M  V30 8933 C 869.191 -0.348988 6.82108 0
M  V30 8934 O 868.879 0.191964 8.03671 0
M  V30 8935 H 868.611 -0.309232 0.601125 0
M  V30 8936 H 871.165 -0.315308 2.02965 0
M  V30 8937 H 869.395 -2.78509 2.68272 0
M  V30 8938 H 871.084 -2.64616 3.07788 0
M  V30 8939 H 871.85 -0.835438 4.7775 0
M  V30 8940 H 867.729 -1.91389 4.19394 0
M  V30 8941 H 871.273 0.131709 6.97476 0
M  V30 8942 H 867.17 -0.952613 6.38432 0
M  V30 8943 H 867.938 0.0808779 8.1846 0
M  V30 8944 N 870.601 -1.47988 -0.541979 0
M  V30 8945 C 871.548 -1.61615 -1.6477 0
M  V30 8946 C 872.518 -0.458602 -1.59644 0
M  V30 8947 O 873.703 -0.680585 -1.78249 0
M  V30 8948 C 870.843 -1.65066 -3.03063 0
M  V30 8949 C 869.956 -2.91845 -3.18513 0
M  V30 8950 C 869.091 -2.86534 -4.47294 0
M  V30 8951 C 868.13 -4.0807 -4.5623 0
M  V30 8952 N 867.267 -4.00905 -5.76385 0
M  V30 8953 H 872.107 -2.56046 -1.52461 0
M  V30 8954 H 869.644 -1.26989 -0.742449 0
M  V30 8955 H 871.602 -1.65049 -3.83164 0
M  V30 8956 H 870.232 -0.74136 -3.14171 0
M  V30 8957 H 869.284 -3.01661 -2.31743 0
M  V30 8958 H 870.596 -3.81804 -3.20978 0
M  V30 8959 H 869.75 -2.84851 -5.35672 0
M  V30 8960 H 868.489 -1.94283 -4.47332 0
M  V30 8961 H 867.494 -4.10041 -3.66261 0
M  V30 8962 H 868.719 -5.01465 -4.5794 0
M  V30 8963 H 866.665 -3.11467 -5.77342 0
M  V30 8964 H 866.582 -4.84557 -5.80293 0
M  V30 8965 H 867.85 -4.03263 -6.67083 0
M  V30 8966 N 872.079 0.78992 -1.36375 0
M  V30 8967 C 873.495 1.0879 -1.16777 0
M  V30 8968 C 873.695 2.01498 0.00848236 0
M  V30 8969 O 872.751 2.43338 0.674007 0
M  V30 8970 C 874.064 1.70285 -2.47837 0
M  V30 8971 C 875.612 1.82629 -2.54196 0
M  V30 8972 C 876.087 2.47539 -3.85342 0
M  V30 8973 N 877.578 2.55008 -3.86685 0
M  V30 8974 C 878.313 3.06041 -4.84898 0
M  V30 8975 N 877.809 3.57385 -5.93505 0
M  V30 8976 N 879.602 3.04748 -4.72319 0
M  V30 8977 H 871.753 0.173985 -2.11686 0
M  V30 8978 H 874.016 0.139798 -0.937636 0
M  V30 8979 H 873.722 1.09633 -3.34176 0
M  V30 8980 H 873.596 2.69799 -2.63607 0
M  V30 8981 H 875.983 2.42419 -1.68276 0
M  V30 8982 H 876.064 0.81923 -2.42327 0
M  V30 8983 H 875.708 1.88393 -4.71668 0
M  V30 8984 H 875.638 3.48815 -3.94507 0
M  V30 8985 H 878.129 2.18651 -3.08221 0
M  V30 8986 H 878.442 3.94674 -6.64419 0
M  V30 8987 H 876.787 3.55538 -5.97175 0
M  V30 8988 H 879.978 2.63925 -3.86602 0
M  V30 8989 H 880.151 3.44212 -5.49019 0
M  V30 8990 O 873.596 1.32076 0.929425 0
M  V30 8991 H 874.287 1.14678 1.56105 0
M  V30 END ATOM
M  V30 BEGIN BOND
M  V30 END BOND
M  V30 END CTAB
M  END
$$$$
