drugbank_target|P69924 Ribonucleoside-diphosphate reductase 1 subunit beta (DB09462)
 OpenBabel12092120283D

  0  0  0     0  0            999 V3000
M  V30 BEGIN CTAB
M  V30 COUNTS 6054 6121 0 0 0
M  V30 BEGIN ATOM
M  V30 1 H -0.908 1.98254 -0.117106 0
M  V30 2 N 0 1.576 0 0
M  V30 3 C 0.933 2.03868 1.02534 0
M  V30 4 C 1.911 0.928543 1.3348 0
M  V30 5 O 3.095 1.19667 1.45644 0
M  V30 6 C 0.222 2.43627 2.35294 0
M  V30 7 C -0.732 3.65373 2.2001 0
M  V30 8 S 0.101 5.13292 1.52614 0
M  V30 9 C 1.257 5.56322 2.86805 0
M  V30 10 H 1.49 2.90518 0.631377 0
M  V30 11 H -0.977 1.52953 0.210867 0
M  V30 12 H 0.981 2.67203 3.11629 0
M  V30 13 H -0.358 1.57376 2.7183 0
M  V30 14 H -1.165 3.90944 3.18086 0
M  V30 15 H -1.563 3.418 1.51819 0
M  V30 16 H 0.729 5.58782 3.83104 0
M  V30 17 H 1.672 6.56266 2.65933 0
M  V30 18 H 2.08 4.83886 2.90714 0
M  V30 19 N 1.4781 -0.272755 1.55222 0
M  V30 20 C 2.4411 -1.32041 1.87344 0
M  V30 21 C 3.4411 -1.42342 0.74803 0
M  V30 22 O 4.6311 -1.41488 1.0162 0
M  V30 23 C 1.7631 -2.70173 2.07893 0
M  V30 24 H 2.9561 -1.04789 2.80997 0
M  V30 25 H 0.5091 -0.51083 1.47717 0
M  V30 26 H 1.2441 -3.02605 1.16622 0
M  V30 27 H 1.0291 -2.64082 2.89833 0
M  V30 28 H 2.5191 -3.45869 2.34017 0
M  V30 29 N 2.9562 -1.48159 -0.537278 0
M  V30 30 C 4.1862 -1.59223 -1.3165 0
M  V30 31 C 4.5942 -0.248849 -1.87556 0
M  V30 32 O 3.9372 0.770949 -1.6674 0
M  V30 33 C 3.9992 -2.57365 -2.51005 0
M  V30 34 C 3.6632 -4.02603 -2.16239 0
M  V30 35 C 4.6602 -4.90503 -1.72344 0
M  V30 36 C 2.3452 -4.48088 -2.26986 0
M  V30 37 C 4.3392 -6.21913 -1.39651 0
M  V30 38 C 2.0262 -5.7952 -1.93906 0
M  V30 39 C 3.0242 -6.66255 -1.50309 0
M  V30 40 O 2.7122 -7.95243 -1.17659 0
M  V30 41 H 2.4442 -0.539831 -0.406889 0
M  V30 42 H 4.9982 -1.94655 -0.655641 0
M  V30 43 H 3.2282 -2.1704 -3.20048 0
M  V30 44 H 4.9172 -2.58342 -3.13072 0
M  V30 45 H 5.6832 -4.56604 -1.63517 0
M  V30 46 H 1.5622 -3.80769 -2.59877 0
M  V30 47 H 5.1062 -6.89569 -1.0555 0
M  V30 48 H 1.0032 -6.12957 -2.02371 0
M  V30 49 H 1.7712 -8.0793 -1.31119 0
M  V30 50 N 4.4343 0.785586 -1.36625 0
M  V30 51 C 5.6623 1.57448 -1.3423 0
M  V30 52 C 6.0773 1.88649 0.0755653 0
M  V30 53 O 5.4343 1.50414 1.03354 0
M  V30 54 C 5.4853 2.89316 -2.16745 0
M  V30 55 O 5.2063 2.59459 -3.53005 0
M  V30 56 C 6.7073 3.83606 -2.22174 0
M  V30 57 H 3.9273 0.488226 -0.4603 0
M  V30 58 H 6.4713 0.974733 -1.79775 0
M  V30 59 H 4.6263 3.4575 -1.74745 0
M  V30 60 H 5.0403 3.43804 -3.96105 0
M  V30 61 H 6.5143 4.73181 -2.8426 0
M  V30 62 H 6.9913 4.21734 -1.22627 0
M  V30 63 H 7.5973 3.33104 -2.64427 0
M  V30 64 N 5.9124 1.20967 1.01018 0
M  V30 65 C 7.1404 1.04956 1.78303 0
M  V30 66 C 7.5554 -0.400915 1.84494 0
M  V30 67 O 6.9124 -1.27826 1.30257 0
M  V30 68 C 6.9634 1.63403 3.22462 0
M  V30 69 O 6.6844 3.02775 3.16637 0
M  V30 70 C 8.1854 1.52432 4.16268 0
M  V30 71 H 5.4054 0.368858 0.560522 0
M  V30 72 H 7.9494 1.60193 1.27116 0
M  V30 73 H 6.1044 1.1227 3.70775 0
M  V30 74 H 6.5184 3.30626 4.07169 0
M  V30 75 H 7.9924 1.98078 5.15237 0
M  V30 76 H 8.4694 0.477875 4.36592 0
M  V30 77 H 9.0754 2.02787 3.73841 0
M  V30 78 N 7.3905 -1.2043 1.01659 0
M  V30 79 C 8.6375 -1.89797 0.705917 0
M  V30 80 C 8.9655 -1.78848 -0.764439 0
M  V30 81 O 8.2205 -1.16694 -1.57102 0
M  V30 82 C 8.5195 -3.40464 1.08714 0
M  V30 83 C 8.1855 -3.71614 2.5537 0
M  V30 84 C 6.8475 -3.79826 2.95441 0
M  V30 85 C 9.1995 -3.85915 3.50313 0
M  V30 86 C 6.5275 -3.99797 4.29394 0
M  V30 87 C 8.8795 -4.07396 4.83954 0
M  V30 88 C 7.5435 -4.13837 5.23732 0
M  V30 89 H 6.8135 -0.694518 0.258313 0
M  V30 90 H 9.4605 -1.42691 1.27717 0
M  V30 91 H 7.7655 -3.89385 0.434309 0
M  V30 92 H 9.4625 -3.92433 0.824461 0
M  V30 93 H 6.0525 -3.65822 2.23321 0
M  V30 94 H 10.2365 -3.78926 3.20513 0
M  V30 95 H 5.4925 -4.03018 4.59768 0
M  V30 96 H 9.6665 -4.17404 5.57447 0
M  V30 97 H 7.2935 -4.29064 6.27541 0
M  V30 98 N 8.8686 -0.792821 -1.36206 0
M  V30 99 C 10.0936 -0.377701 -2.03932 0
M  V30 100 C 10.5186 0.998947 -1.59382 0
M  V30 101 O 9.8766 1.64421 -0.763903 0
M  V30 102 C 9.9246 -0.453635 -3.57735 0
M  V30 103 O 9.0286 0.538151 -4.08874 0
M  V30 104 H 8.3696 -0.159855 -0.644471 0
M  V30 105 H 10.8996 -1.07488 -1.7409 0
M  V30 106 H 10.9096 -0.318464 -4.06755 0
M  V30 107 H 9.5846 -1.45784 -3.89512 0
M  V30 108 H 8.1616 0.364359 -3.71116 0
M  V30 109 N 10.3467 1.47872 -0.545128 0
M  V30 110 C 11.2787 2.27869 0.246621 0
M  V30 111 C 12.2917 1.36282 0.890561 0
M  V30 112 O 13.4807 1.61207 0.766449 0
M  V30 113 C 10.5807 3.10159 1.36582 0
M  V30 114 C 9.7537 4.29627 0.820954 0
M  V30 115 C 8.8127 4.93607 1.82314 0
M  V30 116 O 7.8387 5.52366 1.37406 0
M  V30 117 N 9.0407 4.87211 3.15603 0
M  V30 118 H 11.8057 2.96459 -0.439539 0
M  V30 119 H 9.3667 1.57367 -0.380421 0
M  V30 120 H 11.3587 3.49829 2.03474 0
M  V30 121 H 9.9287 2.43891 1.9554 0
M  V30 122 H 9.1487 3.94192 -0.0244032 0
M  V30 123 H 10.4367 5.06928 0.436063 0
M  V30 124 H 9.8347 4.40651 3.54744 0
M  V30 125 H 8.3917 5.30937 3.78087 0
M  V30 126 N 11.8248 0.280983 1.55075 0
M  V30 127 C 13.0528 -0.337293 2.04132 0
M  V30 128 C 13.4678 -1.4903 1.15912 0
M  V30 129 O 12.8248 -1.81606 0.180459 0
M  V30 130 C 12.8758 -0.812706 3.52246 0
M  V30 131 O 12.5968 0.294387 4.3711 0
M  V30 132 C 14.0978 -1.4982 4.17216 0
M  V30 133 H 11.3178 -0.0761638 0.666663 0
M  V30 134 H 13.8618 0.414787 2.00249 0
M  V30 135 H 12.0168 -1.51486 3.56554 0
M  V30 136 H 12.4308 -0.0721325 5.2445 0
M  V30 137 H 13.9048 -1.7822 5.22438 0
M  V30 138 H 14.3818 -2.43168 3.65741 0
M  V30 139 H 14.9878 -0.839742 4.16927 0
M  V30 140 N 13.3029 -1.57598 0.00835791 0
M  V30 141 C 14.2499 -2.08945 -0.980346 0
M  V30 142 C 15.2199 -0.986738 -1.33614 0
M  V30 143 O 16.4049 -1.25968 -1.43306 0
M  V30 144 C 13.5449 -2.60425 -2.26435 0
M  V30 145 C 12.6579 -3.84628 -1.96685 0
M  V30 146 C 11.7929 -4.24579 -3.19228 0
M  V30 147 C 10.8319 -5.41596 -2.85202 0
M  V30 148 N 9.9689 -5.768 -4.00307 0
M  V30 149 H 14.8089 -2.93148 -0.535551 0
M  V30 150 H 12.3459 -1.44912 -0.252776 0
M  V30 151 H 14.3039 -2.88354 -3.01509 0
M  V30 152 H 12.9339 -1.79083 -2.68568 0
M  V30 153 H 11.9859 -3.63556 -1.11942 0
M  V30 154 H 13.2979 -4.69796 -1.67611 0
M  V30 155 H 12.4519 -4.53834 -4.02641 0
M  V30 156 H 11.1909 -3.38137 -3.51447 0
M  V30 157 H 10.1959 -5.12056 -2.00198 0
M  V30 158 H 11.4209 -6.29721 -2.54222 0
M  V30 159 H 9.3669 -4.93316 -4.32407 0
M  V30 160 H 9.2839 -6.5656 -3.74786 0
M  V30 161 H 10.5519 -6.10652 -4.84484 0
M  V30 162 N 14.781 0.264519 -1.55364 0
M  V30 163 C 15.729 1.34702 -1.89626 0
M  V30 164 C 16.723 1.50712 -0.773459 0
M  V30 165 O 17.929 1.52395 -0.957897 0
M  V30 166 H 14.304 0.450682 -0.601988 0
M  V30 167 H 16.275 1.0306 -2.80038 0
M  V30 168 C 15.024 2.6989 -2.19214 0
M  V30 169 H 14.347 2.58365 -3.05103 0
M  V30 170 H 15.787 3.44553 -2.47102 0
M  V30 171 C 14.246 3.21637 -1.00254 0
M  V30 172 O 14.776 4.00973 -0.241501 0
M  V30 173 N 12.982 2.7943 -0.797938 0
M  V30 174 H 12.529 2.15026 -1.4185 0
M  V30 175 H 12.487 3.144 -0.00363422 0
M  V30 176 N 16.2591 1.48442 0.529413 0
M  V30 177 C 17.5361 1.46978 1.29062 0
M  V30 178 C 17.9161 0.181769 2.10316 0
M  V30 179 O 17.2641 -0.836481 2.12639 0
M  V30 180 C 17.4741 2.7321 2.17157 0
M  V30 181 C 18.8221 3.21562 2.77278 0
M  V30 182 O 19.8461 2.74131 2.27444 0
M  V30 183 O 18.7051 4.04094 3.67927 0
M  V30 184 H 15.7991 0.587003 0.582543 0
M  V30 185 H 18.3451 1.60676 0.546021 0
M  V30 186 H 17.1171 3.58465 1.56903 0
M  V30 187 H 16.7401 2.62235 2.98862 0
M  V30 188 N 17.7372 -0.778329 1.37039 0
M  V30 189 C 18.6692 -1.90034 1.2814 0
M  V30 190 C 19.6822 -1.61585 0.198558 0
M  V30 191 O 20.8712 -1.72625 0.454175 0
M  V30 192 C 17.9712 -3.25108 0.956968 0
M  V30 193 C 17.1442 -3.81253 2.14394 0
M  V30 194 C 16.2032 -4.94789 1.79082 0
M  V30 195 O 15.2292 -5.10721 2.51301 0
M  V30 196 N 16.4312 -5.75878 0.731043 0
M  V30 197 H 19.1962 -1.98186 2.24816 0
M  V30 198 H 16.7572 -0.957129 1.30578 0
M  V30 199 H 18.7492 -3.9857 0.701701 0
M  V30 200 H 17.3192 -3.125 0.0789812 0
M  V30 201 H 16.5392 -2.99647 2.56135 0
M  V30 202 H 17.8272 -4.15495 2.93668 0
M  V30 203 H 17.2252 -5.65547 0.131618 0
M  V30 204 H 15.7822 -6.49596 0.535622 0
M  V30 205 N 19.2153 -1.21501 -1.00376 0
M  V30 206 C 20.1453 -0.999478 -2.11028 0
M  V30 207 C 21.1263 0.0759671 -1.6993 0
M  V30 208 O 22.3113 -0.0841106 -1.94018 0
M  V30 209 C 19.4413 -0.564709 -3.42678 0
M  V30 210 C 18.3953 -1.58486 -3.97576 0
M  V30 211 C 17.7213 -1.00628 -5.25146 0
M  V30 212 C 19.0213 -2.97204 -4.29496 0
M  V30 213 H 20.7153 -1.92495 -2.29317 0
M  V30 214 H 18.2613 -0.92693 -1.102 0
M  V30 215 H 20.2143 -0.401091 -4.19487 0
M  V30 216 H 18.9383 0.396411 -3.24185 0
M  V30 217 H 17.5973 -1.73606 -3.22888 0
M  V30 218 H 17.2453 -0.0368439 -5.02987 0
M  V30 219 H 16.9453 -1.68771 -5.62841 0
M  V30 220 H 18.4693 -0.854015 -6.04598 0
M  V30 221 H 19.8833 -2.8552 -4.97143 0
M  V30 222 H 18.2803 -3.62372 -4.78338 0
M  V30 223 H 19.3503 -3.47956 -3.3772 0
M  V30 224 N 20.6934 1.19889 -1.02296 0
M  V30 225 C 21.6404 2.22901 -0.598651 0
M  V30 226 C 22.6104 1.61588 0.384521 0
M  V30 227 O 23.7954 1.88697 0.282522 0
M  V30 228 C 20.9354 3.45063 0.0504476 0
M  V30 229 C 20.0484 4.20783 -0.978053 0
M  V30 230 C 19.1834 5.30356 -0.299338 0
M  V30 231 C 18.2224 5.97826 -1.31416 0
M  V30 232 N 17.3594 6.98975 -0.661667 0
M  V30 233 H 22.1994 2.58554 -1.48169 0
M  V30 234 H 19.7364 1.27039 -0.741584 0
M  V30 235 H 21.6944 4.14831 0.443971 0
M  V30 236 H 20.3244 3.10084 0.897097 0
M  V30 237 H 19.3764 3.50018 -1.48969 0
M  V30 238 H 20.6884 4.67109 -1.74958 0
M  V30 239 H 19.8424 6.06516 0.149347 0
M  V30 240 H 18.5814 4.85084 0.504445 0
M  V30 241 H 17.5864 5.20422 -1.77317 0
M  V30 242 H 18.8114 6.45183 -2.11933 0
M  V30 243 H 16.7574 6.55886 0.122132 0
M  V30 244 H 16.6744 7.43461 -1.37117 0
M  V30 245 H 17.9424 7.7914 -0.236785 0
M  V30 246 N 22.1715 0.800033 1.35784 0
M  V30 247 C 23.0815 0.207204 2.33683 0
M  V30 248 C 24.0975 -0.64631 1.61551 0
M  V30 249 O 25.2735 -0.559604 1.93469 0
M  V30 250 C 22.3385 -0.639659 3.40748 0
M  V30 251 C 21.3995 0.233585 4.28664 0
M  V30 252 C 20.6325 -0.572954 5.30616 0
M  V30 253 O 20.8555 -1.80816 5.40982 0
M  V30 254 O 19.7895 0.0327285 6.01891 0
M  V30 255 H 23.6155 1.01692 2.86169 0
M  V30 256 H 21.2005 0.561691 1.38439 0
M  V30 257 H 23.0825 -1.12223 4.06182 0
M  V30 258 H 21.7575 -1.42708 2.90544 0
M  V30 259 H 20.6645 0.763147 3.66233 0
M  V30 260 H 21.9975 0.984784 4.82248 0
M  V30 261 N 23.6496 -1.47581 0.552962 0
M  V30 262 C 25.0606 -1.86324 0.118463 0
M  V30 263 C 25.4116 -1.46006 -1.3106 0
M  V30 264 O 24.5366 -0.861182 -1.98526 0
M  V30 265 C 25.1316 -3.3816 0.20821 0
M  V30 266 C 23.6906 -3.7601 -0.171226 0
M  V30 267 C 22.8376 -2.71634 0.557686 0
M  V30 268 H 25.7886 -1.39159 0.762928 0
M  V30 269 H 25.8096 -3.76141 -0.574278 0
M  V30 270 H 25.3216 -3.67473 1.24841 0
M  V30 271 H 23.4226 -3.52313 -1.21269 0
M  V30 272 H 23.5356 -4.78745 0.184379 0
M  V30 273 H 21.8996 -2.547 0.00125792 0
M  V30 274 H 22.6826 -3.0379 1.59896 0
M  V30 275 N 25.1277 -0.289203 -1.54924 0
M  V30 276 C 26.0607 0.633823 -2.19221 0
M  V30 277 C 27.0387 1.14174 -1.15772 0
M  V30 278 O 28.2227 1.21211 -1.44361 0
M  V30 279 C 25.3497 1.86592 -2.82668 0
M  V30 280 C 24.3957 1.49227 -3.99542 0
M  V30 281 S 25.2287 0.558312 -5.32582 0
M  V30 282 C 26.3847 1.79847 -5.99505 0
M  V30 283 H 26.6177 0.0875416 -2.97171 0
M  V30 284 H 24.1507 -0.0733899 -1.54225 0
M  V30 285 H 26.1087 2.57305 -3.19851 0
M  V30 286 H 24.7697 2.38335 -2.04585 0
M  V30 287 H 23.9627 2.40945 -4.42676 0
M  V30 288 H 23.5647 0.865193 -3.63855 0
M  V30 289 H 25.8567 2.7406 -6.19595 0
M  V30 290 H 26.7997 1.4099 -6.93922 0
M  V30 291 H 27.2077 1.96982 -5.29016 0
M  V30 292 N 26.6058 1.57591 -0.0167156 0
M  V30 293 C 27.8528 1.91283 0.664597 0
M  V30 294 C 28.1808 0.891949 1.72842 0
M  V30 295 O 27.4358 -0.100931 1.9544 0
M  V30 296 C 27.7348 3.3172 1.33029 0
M  V30 297 C 27.4008 4.4914 0.398047 0
M  V30 298 C 26.0628 4.80992 0.141421 0
M  V30 299 C 28.4148 5.20634 -0.242825 0
M  V30 300 C 25.7428 5.81703 -0.764092 0
M  V30 301 C 28.0948 6.22311 -1.13632 0
M  V30 302 C 26.7588 6.52611 -1.40196 0
M  V30 303 H 26.0288 0.699956 0.243193 0
M  V30 304 H 28.6758 1.9135 -0.0758267 0
M  V30 305 H 26.9808 3.27856 2.14517 0
M  V30 306 H 28.6778 3.55055 1.86379 0
M  V30 307 H 25.2678 4.24262 0.608238 0
M  V30 308 H 29.4518 4.96267 -0.0576019 0
M  V30 309 H 24.7078 6.03532 -0.977732 0
M  V30 310 H 28.8818 6.76834 -1.63917 0
M  V30 311 H 26.5088 7.30467 -2.10529 0
M  V30 312 N 28.0839 -0.256276 1.55502 0
M  V30 313 C 29.3309 -0.985619 1.76895 0
M  V30 314 C 29.6589 -1.85671 0.579355 0
M  V30 315 O 28.9139 -1.90744 -0.437651 0
M  V30 316 C 29.2129 -1.88432 3.03691 0
M  V30 317 C 28.8789 -1.16936 4.35473 0
M  V30 318 C 27.5409 -0.97173 4.71286 0
M  V30 319 C 29.8929 -0.661889 5.1698 0
M  V30 320 C 27.2209 -0.254179 5.86149 0
M  V30 321 C 29.5729 0.042149 6.32586 0
M  V30 322 C 28.2369 0.25134 6.67027 0
M  V30 323 H 27.5069 -0.360663 0.647304 0
M  V30 324 H 30.1539 -0.256483 1.89775 0
M  V30 325 H 28.4589 -2.68021 2.85783 0
M  V30 326 H 30.1559 -2.45015 3.1744 0
M  V30 327 H 26.7459 -1.33332 4.07333 0
M  V30 328 H 30.9299 -0.802145 4.89775 0
M  V30 329 H 26.1859 -0.0815408 6.11346 0
M  V30 330 H 30.3599 0.443049 6.94989 0
M  V30 331 H 27.9869 0.809314 7.5588 0
M  V30 332 N 29.562 -1.4872 -0.521534 0
M  V30 333 C 30.81 -1.56857 -1.27437 0
M  V30 334 C 31.131 -0.247982 -1.93417 0
M  V30 335 O 30.401 0.731151 -1.81744 0
M  V30 336 H 28.981 -0.577885 -0.473347 0
M  V30 337 H 31.643 -1.85233 -0.606205 0
M  V30 338 H 30.739 -2.35402 -2.0492 0
M  V30 339 N 31.0401 0.771051 -1.3745 0
M  V30 340 C 31.9721 1.89352 -1.29146 0
M  V30 341 C 32.9851 1.61477 -0.207124 0
M  V30 342 O 34.1741 1.72382 -0.463324 0
M  V30 343 C 31.2741 3.24596 -0.974195 0
M  V30 344 C 30.4471 3.80111 -2.16413 0
M  V30 345 C 29.5061 4.93832 -1.81703 0
M  V30 346 O 28.5321 5.09382 -2.54006 0
M  V30 347 N 29.7341 5.75483 -0.761573 0
M  V30 348 H 32.4991 1.96991 -2.25864 0
M  V30 349 H 30.0601 0.950191 -1.31084 0
M  V30 350 H 32.0521 3.98193 -0.722828 0
M  V30 351 H 30.6221 3.12454 -0.0955527 0
M  V30 352 H 29.8421 2.98284 -2.57721 0
M  V30 353 H 31.1301 4.13932 -2.95867 0
M  V30 354 H 30.5281 5.65469 -0.161609 0
M  V30 355 H 29.0851 6.49302 -0.570064 0
M  V30 356 N 32.5182 1.22032 0.997298 0
M  V30 357 C 33.9292 1.0397 1.55071 0
M  V30 358 C 34.2802 -0.398192 1.92117 0
M  V30 359 O 33.4052 -1.28254 1.74298 0
M  V30 360 C 34.0002 1.88109 2.81781 0
M  V30 361 C 32.5592 1.74357 3.33581 0
M  V30 362 C 31.7062 1.84846 2.06706 0
M  V30 363 H 34.6572 1.35941 0.818883 0
M  V30 364 H 34.6782 1.39589 3.53971 0
M  V30 365 H 34.1902 2.92754 2.54787 0
M  V30 366 H 32.2912 0.72427 3.65493 0
M  V30 367 H 32.4042 2.56772 4.04481 0
M  V30 368 H 30.7682 1.28238 2.20062 0
M  V30 369 H 31.5512 2.91014 1.82114 0
M  V30 370 N 33.9963 -1.19345 1.0293 0
M  V30 371 C 35.2423 -1.89318 0.727083 0
M  V30 372 C 35.5753 -1.79446 -0.742483 0
M  V30 373 O 34.8503 -1.1871 -1.54072 0
M  V30 374 C 35.1333 -3.40238 1.17942 0
M  V30 375 C 34.9863 -3.58979 2.71024 0
M  V30 376 C 36.3053 -4.33479 0.760548 0
M  V30 377 H 33.4243 -0.687475 0.265606 0
M  V30 378 H 36.0663 -1.40477 1.2793 0
M  V30 379 H 34.2163 -3.81964 0.709608 0
M  V30 380 H 35.8883 -3.26421 3.25955 0
M  V30 381 H 34.1313 -3.02018 3.11396 0
M  V30 382 H 34.8023 -4.64823 2.9773 0
M  V30 383 H 37.2783 -3.99469 1.16464 0
M  V30 384 H 36.1543 -5.37664 1.10493 0
M  V30 385 H 36.4153 -4.40813 -0.337063 0
M  V30 386 N 35.4744 -0.807222 -1.35358 0
M  V30 387 C 36.4224 -0.20614 -2.31685 0
M  V30 388 C 37.4164 0.644445 -1.56663 0
M  V30 389 O 38.6224 0.537538 -1.71786 0
M  V30 390 H 34.9974 -0.0479006 -0.750473 0
M  V30 391 H 36.9684 -1.03369 -2.79924 0
M  V30 392 C 35.7174 0.630212 -3.41941 0
M  V30 393 H 35.0404 -0.0149558 -3.99797 0
M  V30 394 H 36.4804 1.01716 -4.11619 0
M  V30 395 C 34.9394 1.79601 -2.85035 0
M  V30 396 O 35.4694 2.89351 -2.78637 0
M  V30 397 N 33.6754 1.60774 -2.42074 0
M  V30 398 H 33.2224 0.715009 -2.47478 0
M  V30 399 H 33.1804 2.38933 -2.04349 0
M  V30 400 N 36.9525 1.47285 -0.560781 0
M  V30 401 C 38.1985 2.02764 -0.0381184 0
M  V30 402 C 38.5315 1.43384 1.30976 0
M  V30 403 O 37.8065 0.590733 1.85312 0
M  V30 404 C 38.0895 3.60064 0.0511427 0
M  V30 405 C 37.9425 4.2987 -1.32408 0
M  V30 406 C 39.2615 4.33439 0.762795 0
M  V30 407 H 36.3805 0.736841 -0.0153264 0
M  V30 408 H 39.0225 1.75675 -0.723759 0
M  V30 409 H 37.1725 3.83274 0.635065 0
M  V30 410 H 38.8445 4.17989 -1.95148 0
M  V30 411 H 37.0875 3.90085 -1.8978 0
M  V30 412 H 37.7585 5.38478 -1.21431 0
M  V30 413 H 40.2345 4.15243 0.266965 0
M  V30 414 H 39.1105 5.43124 0.794221 0
M  V30 415 H 39.3715 4.02915 1.81966 0
M  V30 416 N 38.4306 0.297415 1.54768 0
M  V30 417 C 39.3936 -0.567375 2.22066 0
M  V30 418 C 40.3936 -1.06409 1.20556 0
M  V30 419 O 41.5836 -0.960691 1.45315 0
M  V30 420 C 38.7156 -1.78517 2.90421 0
M  V30 421 H 39.9086 0.0205534 2.99893 0
M  V30 422 H 37.4616 0.0482163 1.56226 0
M  V30 423 H 38.1966 -2.41303 2.16664 0
M  V30 424 H 37.9816 -1.43669 3.64831 0
M  V30 425 H 39.4716 -2.39964 3.41771 0
M  V30 426 N 39.9087 -1.5758 0.0250728 0
M  V30 427 C 41.3247 -1.56124 -0.331282 0
M  V30 428 C 41.5247 -1.03029 -1.73169 0
M  V30 429 O 40.5807 -0.675215 -2.43305 0
M  V30 430 C 41.8937 -3.00139 -0.183584 0
M  V30 431 C 43.4417 -3.11946 -0.256654 0
M  V30 432 C 43.9167 -4.57793 -0.137792 0
M  V30 433 N 45.4077 -4.6279 -0.194904 0
M  V30 434 C 46.1427 -5.7326 -0.126655 0
M  V30 435 N 45.6387 -6.928 -0.00755288 0
M  V30 436 N 47.4317 -5.61811 -0.180348 0
M  V30 437 H 39.5827 -1.90424 0.94087 0
M  V30 438 H 41.8457 -0.875761 0.362968 0
M  V30 439 H 41.5517 -3.4292 0.780927 0
M  V30 440 H 41.4257 -3.64899 -0.955448 0
M  V30 441 H 43.8127 -2.69079 -1.21162 0
M  V30 442 H 43.8937 -2.49915 0.545517 0
M  V30 443 H 43.5377 -5.01339 0.813739 0
M  V30 444 H 43.4677 -5.17798 -0.958775 0
M  V30 445 H 45.9587 -3.76807 -0.287267 0
M  V30 446 H 46.2717 -7.72791 0.0379428 0
M  V30 447 H 44.6167 -6.94995 0.0271731 0
M  V30 448 H 47.8077 -4.6731 -0.271767 0
M  V30 449 H 47.9807 -6.47882 -0.123697 0
M  V30 450 N 41.3868 0.248026 -1.55636 0
M  V30 451 C 42.6168 0.992367 -1.81206 0
M  V30 452 C 43.0248 1.7949 -0.598324 0
M  V30 453 O 42.3678 1.78292 0.442434 0
M  V30 454 C 42.4298 1.97926 -3.00109 0
M  V30 455 C 42.0938 1.36377 -4.36177 0
M  V30 456 C 43.0908 0.76682 -5.14214 0
M  V30 457 C 40.7758 1.38347 -4.82872 0
M  V30 458 C 42.7698 0.197778 -6.37093 0
M  V30 459 C 40.4568 0.810574 -6.057 0
M  V30 460 C 41.4548 0.218754 -6.8265 0
M  V30 461 O 41.1428 -0.345298 -8.03158 0
M  V30 462 H 40.8748 0.297704 -0.606917 0
M  V30 463 H 43.4288 0.276517 -2.0353 0
M  V30 464 H 41.6588 2.73339 -2.73538 0
M  V30 465 H 43.3478 2.58694 -3.12781 0
M  V30 466 H 44.1138 0.744114 -4.79258 0
M  V30 467 H 39.9928 1.8335 -4.2297 0
M  V30 468 H 43.5368 -0.264788 -6.97097 0
M  V30 469 H 39.4338 0.830604 -6.40134 0
M  V30 470 H 40.2018 -0.237055 -8.18157 0
M  V30 471 N 42.8649 1.48995 0.513639 0
M  V30 472 C 44.1419 1.48338 1.27495 0
M  V30 473 C 44.5219 0.204065 2.10111 0
M  V30 474 O 43.8699 -0.813881 2.13514 0
M  V30 475 C 44.0799 2.75498 2.14247 0
M  V30 476 C 45.4279 3.24484 2.73852 0
M  V30 477 O 46.4519 2.76528 2.24523 0
M  V30 478 O 45.3109 4.07974 3.6362 0
M  V30 479 H 42.4049 0.593149 0.576284 0
M  V30 480 H 44.9509 1.61246 0.528948 0
M  V30 481 H 43.7229 3.60109 1.53092 0
M  V30 482 H 43.3459 2.6539 2.96064 0
M  V30 483 N 44.343 -0.763751 1.37857 0
M  V30 484 C 45.275 -1.88664 1.30148 0
M  V30 485 C 46.288 -1.61365 0.215685 0
M  V30 486 O 47.477 -1.72134 0.472459 0
M  V30 487 C 44.577 -3.24075 0.991396 0
M  V30 488 C 43.75 -3.78958 2.18426 0
M  V30 489 C 42.809 -4.92862 1.8432 0
M  V30 490 O 41.835 -5.08027 2.56704 0
M  V30 491 N 43.037 -5.75071 0.792081 0
M  V30 492 H 45.802 -1.95791 2.26905 0
M  V30 493 H 43.363 -0.943226 1.31586 0
M  V30 494 H 45.355 -3.97804 0.743935 0
M  V30 495 H 43.925 -3.12399 0.112122 0
M  V30 496 H 43.145 -2.96913 2.59299 0
M  V30 497 H 44.433 -4.12357 2.98058 0
M  V30 498 H 43.831 -5.65375 0.191595 0
M  V30 499 H 42.388 -6.48991 0.60449 0
M  V30 500 N 45.8211 -1.22559 -0.990812 0
M  V30 501 C 46.7531 -0.955325 -2.08342 0
M  V30 502 C 47.7661 0.0668408 -1.62663 0
M  V30 503 O 48.9551 -0.167421 -1.77713 0
M  V30 504 C 46.0551 -0.415566 -3.36342 0
M  V30 505 C 45.2281 -1.49544 -4.11042 0
M  V30 506 C 44.2871 -0.962399 -5.17324 0
M  V30 507 O 43.3131 -1.64907 -5.44788 0
M  V30 508 N 44.5151 0.215134 -5.80101 0
M  V30 509 H 47.2801 -1.89596 -2.32106 0
M  V30 510 H 44.8411 -1.13276 -1.15673 0
M  V30 511 H 46.8331 -0.0442386 -4.04676 0
M  V30 512 H 45.4031 0.430232 -3.09625 0
M  V30 513 H 44.6231 -2.04 -3.37309 0
M  V30 514 H 45.9111 -2.22195 -4.57719 0
M  V30 515 H 45.3091 0.789779 -5.6016 0
M  V30 516 H 43.8661 0.527826 -6.49659 0
M  V30 517 N 47.2992 1.18797 -1.03562 0
M  V30 518 C 48.2462 2.22253 -0.622259 0
M  V30 519 C 49.2162 1.61987 0.36736 0
M  V30 520 O 50.4012 1.88986 0.262492 0
M  V30 521 C 47.5412 3.45097 0.0138462 0
M  V30 522 C 46.6542 4.19722 -1.02263 0
M  V30 523 C 45.7892 5.30009 -0.355573 0
M  V30 524 C 44.8282 5.96399 -1.37749 0
M  V30 525 N 43.9652 6.98234 -0.735766 0
M  V30 526 H 48.8052 2.56968 -1.50903 0
M  V30 527 H 46.3422 1.26245 -0.755017 0
M  V30 528 H 48.3002 4.15279 0.399948 0
M  V30 529 H 46.9302 3.11018 0.864158 0
M  V30 530 H 45.9822 3.48418 -1.52673 0
M  V30 531 H 47.2942 4.65227 -1.79903 0
M  V30 532 H 46.4482 6.0664 0.0850095 0
M  V30 533 H 45.1872 4.85592 0.452967 0
M  V30 534 H 44.1922 5.18512 -1.82826 0
M  V30 535 H 45.4172 6.42899 -2.18764 0
M  V30 536 H 43.3632 6.55979 0.0525597 0
M  V30 537 H 43.2802 7.41965 -1.44995 0
M  V30 538 H 44.5482 7.78845 -0.31941 0
M  V30 539 N 48.7773 0.814389 1.34928 0
M  V30 540 C 50.0073 0.41054 2.0248 0
M  V30 541 C 50.4153 -0.985625 1.61499 0
M  V30 542 O 49.7583 -1.64781 0.811976 0
M  V30 543 C 49.8203 0.423384 3.56998 0
M  V30 544 C 49.4843 1.77141 4.21272 0
M  V30 545 C 50.4813 2.73093 4.42398 0
M  V30 546 C 48.1663 2.05755 4.58225 0
M  V30 547 C 50.1603 3.95838 4.9959 0
M  V30 548 C 47.8473 3.28762 5.1513 0
M  V30 549 C 48.8453 4.23621 5.35755 0
M  V30 550 O 48.5333 5.44456 5.91458 0
M  V30 551 H 48.2653 0.163997 0.655806 0
M  V30 552 H 50.8193 1.10155 1.73364 0
M  V30 553 H 49.0493 -0.324276 3.85338 0
M  V30 554 H 50.7383 0.0407683 4.0588 0
M  V30 555 H 51.5043 2.5228 4.14222 0
M  V30 556 H 47.3833 1.32727 4.4148 0
M  V30 557 H 50.9273 4.69891 5.15605 0
M  V30 558 H 46.8243 3.49443 5.42734 0
M  V30 559 H 47.5923 5.4586 6.09901 0
M  V30 560 N 50.2554 -1.46986 0.568584 0
M  V30 561 C 51.5324 -1.95592 -0.0174074 0
M  V30 562 C 51.9124 -1.51124 -1.47393 0
M  V30 563 O 51.2604 -0.755329 -2.15655 0
M  V30 564 C 51.4704 -3.48719 0.139913 0
M  V30 565 C 52.8184 -4.246 0.000426376 0
M  V30 566 O 53.8424 -3.56135 0.0680316 0
M  V30 567 O 52.7014 -5.46302 -0.146988 0
M  V30 568 H 49.7954 -0.82498 -0.0577599 0
M  V30 569 H 52.3414 -1.57335 0.635909 0
M  V30 570 H 51.1134 -3.73927 1.15301 0
M  V30 571 H 50.7364 -3.93771 -0.550491 0
M  V30 572 N 51.7335 -0.305618 -1.54608 0
M  V30 573 C 52.9825 0.303098 -1.9941 0
M  V30 574 C 53.2955 1.54648 -1.19764 0
M  V30 575 O 54.5015 2.23007 -1.54855 0
M  V30 576 C 52.9575 0.590588 -3.55021 0
M  V30 577 C 52.5655 -0.634719 -4.43481 0
M  V30 578 C 54.3095 1.16025 -4.08336 0
M  V30 579 C 52.2165 -0.320126 -5.90533 0
M  V30 580 H 51.1465 0.117031 -0.744862 0
M  V30 581 H 53.7975 -0.415045 -1.78745 0
M  V30 582 H 52.1795 1.36845 -3.71604 0
M  V30 583 H 53.3535 -1.41079 -4.38672 0
M  V30 584 H 51.6685 -1.12333 -4.00962 0
M  V30 585 H 54.2655 1.40994 -5.15776 0
M  V30 586 H 54.6085 2.10397 -3.5922 0
M  V30 587 H 55.1415 0.443985 -3.95315 0
M  V30 588 H 51.8805 -1.23254 -6.43808 0
M  V30 589 H 51.4005 0.418579 -5.98338 0
M  V30 590 H 53.0795 0.0766241 -6.46955 0
M  V30 591 N 53.2116 1.57565 -0.0334293 0
M  V30 592 C 54.4586 1.91978 0.644272 0
M  V30 593 C 54.7866 0.910231 1.71887 0
M  V30 594 O 54.0416 -0.0801961 1.95536 0
M  V30 595 C 54.3406 3.33112 1.29504 0
M  V30 596 C 54.0066 4.49537 0.350388 0
M  V30 597 C 52.6686 4.81115 0.0903974 0
M  V30 598 C 55.0206 5.20347 -0.298032 0
M  V30 599 C 52.3486 5.8086 -0.825746 0
M  V30 600 C 54.7006 6.2107 -1.20226 0
M  V30 601 C 53.3646 6.51088 -1.4711 0
M  V30 602 H 52.6346 0.702496 0.235756 0
M  V30 603 H 55.2816 1.91259 -0.0961176 0
M  V30 604 H 53.5866 3.30113 2.11028 0
M  V30 605 H 55.2836 3.57011 1.82603 0
M  V30 606 H 51.8736 4.24883 0.563205 0
M  V30 607 H 56.0576 4.96178 -0.110234 0
M  V30 608 H 51.3136 6.02461 -1.04169 0
M  V30 609 H 55.4876 6.75057 -1.71086 0
M  V30 610 H 53.1146 7.28193 -2.18264 0
M  V30 611 N 54.6897 -0.239769 1.55765 0
M  V30 612 C 55.5997 -1.31831 1.94056 0
M  V30 613 C 56.6157 -1.52275 0.841925 0
M  V30 614 O 57.7917 -1.65759 1.14394 0
M  V30 615 C 54.8567 -2.65156 2.23368 0
M  V30 616 C 53.9177 -2.53173 3.46701 0
M  V30 617 C 53.1507 -3.8014 3.74606 0
M  V30 618 O 53.3737 -4.82343 3.04469 0
M  V30 619 O 52.3077 -3.78344 4.68123 0
M  V30 620 H 56.1337 -1.02347 2.85935 0
M  V30 621 H 53.7187 -0.441123 1.42739 0
M  V30 622 H 55.6007 -3.43929 2.43497 0
M  V30 623 H 54.2757 -2.94358 1.34666 0
M  V30 624 H 53.1827 -1.72662 3.31871 0
M  V30 625 H 54.5157 -2.28915 4.35728 0
M  V30 626 N 56.1678 -1.49265 -0.50573 0
M  V30 627 C 57.1148 -1.65585 -1.6078 0
M  V30 628 C 58.0848 -0.497396 -1.58478 0
M  V30 629 O 59.2698 -0.72385 -1.76536 0
M  V30 630 C 56.4098 -1.72408 -2.98948 0
M  V30 631 C 55.5228 -2.99525 -3.11301 0
M  V30 632 C 54.6578 -2.97356 -4.40174 0
M  V30 633 C 53.6968 -4.19074 -4.46143 0
M  V30 634 N 52.8338 -4.14841 -5.66437 0
M  V30 635 H 57.6738 -2.59688 -1.46172 0
M  V30 636 H 55.2108 -1.28761 -0.711261 0
M  V30 637 H 57.1688 -1.74344 -3.79025 0
M  V30 638 H 55.7988 -0.817753 -3.1227 0
M  V30 639 H 54.8508 -3.07222 -2.24318 0
M  V30 640 H 56.1628 -3.89518 -3.11572 0
M  V30 641 H 55.3168 -2.97829 -5.28567 0
M  V30 642 H 54.0558 -2.05133 -4.42461 0
M  V30 643 H 53.0608 -4.1885 -3.56153 0
M  V30 644 H 54.2858 -5.12483 -4.45575 0
M  V30 645 H 52.2318 -3.25453 -5.69575 0
M  V30 646 H 52.1488 -4.98564 -5.68304 0
M  V30 647 H 53.4168 -4.1941 -6.57051 0
M  V30 648 N 57.6459 0.756429 -1.3826 0
M  V30 649 C 58.5759 1.88374 -1.37976 0
M  V30 650 C 59.5569 1.68311 -0.246082 0
M  V30 651 O 60.7419 1.88944 -0.44874 0
M  V30 652 C 57.8719 3.25864 -1.20125 0
M  V30 653 C 56.8259 3.60523 -2.30666 0
M  V30 654 C 56.1519 4.9672 -1.97923 0
M  V30 655 C 57.4519 3.65692 -3.72916 0
M  V30 656 H 59.1459 1.88869 -2.32312 0
M  V30 657 H 56.6919 0.907272 -1.11824 0
M  V30 658 H 58.6449 4.0438 -1.18552 0
M  V30 659 H 57.3689 3.25841 -0.222498 0
M  V30 660 H 56.0279 2.84324 -2.3142 0
M  V30 661 H 55.6759 4.93253 -0.985393 0
M  V30 662 H 55.3759 5.20878 -2.71955 0
M  V30 663 H 56.8999 5.77618 -1.97964 0
M  V30 664 H 58.3139 4.34328 -3.74208 0
M  V30 665 H 56.7109 4.01358 -4.4613 0
M  V30 666 H 57.7809 2.65987 -4.05436 0
M  V30 667 N 59.124 1.23083 0.984299 0
M  V30 668 C 60.373 1.05466 1.71929 0
M  V30 669 C 60.686 -0.409211 1.91272 0
M  V30 670 O 61.892 -0.705226 2.62181 0
M  V30 671 C 60.348 1.83874 3.09384 0
M  V30 672 C 59.956 3.34566 2.97943 0
M  V30 673 C 61.7 1.74734 3.8687 0
M  V30 674 C 59.607 4.05381 4.30605 0
M  V30 675 H 58.537 0.391039 0.644674 0
M  V30 676 H 61.188 1.47013 1.09815 0
M  V30 677 H 59.57 1.35131 3.72231 0
M  V30 678 H 60.744 3.90767 2.44209 0
M  V30 679 H 59.059 3.44476 2.33934 0
M  V30 680 H 61.656 2.24957 4.85076 0
M  V30 681 H 61.999 0.709372 4.10212 0
M  V30 682 H 62.532 2.21067 3.30717 0
M  V30 683 H 59.271 5.09467 4.1246 0
M  V30 684 H 58.791 3.53967 4.84218 0
M  V30 685 H 60.47 4.11458 4.99311 0
M  V30 686 N 60.6021 -1.18246 1.0419 0
M  V30 687 C 61.5121 -2.25574 0.644476 0
M  V30 688 C 62.5281 -1.70845 -0.329826 0
M  V30 689 O 63.7041 -2.00554 -0.184443 0
M  V30 690 C 60.7691 -3.46697 0.014877 0
M  V30 691 C 59.8301 -4.16554 1.03834 0
M  V30 692 C 59.0631 -5.31894 0.438692 0
M  V30 693 O 59.2861 -5.65385 -0.754752 0
M  V30 694 O 58.2201 -5.90459 1.168 0
M  V30 695 H 62.0461 -2.61836 1.53869 0
M  V30 696 H 59.6311 -1.25352 0.812854 0
M  V30 697 H 61.5131 -4.20062 -0.335538 0
M  V30 698 H 60.1881 -3.12255 -0.853138 0
M  V30 699 H 59.0951 -3.45251 1.44057 0
M  V30 700 H 60.4281 -4.54998 1.87716 0
M  V30 701 N 62.0802 -0.821533 -1.34494 0
M  V30 702 C 63.0272 -0.240397 -2.29545 0
M  V30 703 C 63.9972 0.634031 -1.53523 0
M  V30 704 O 65.1822 0.575966 -1.81899 0
M  V30 705 C 62.3222 0.592869 -3.39969 0
M  V30 706 C 61.4352 -0.30365 -4.30932 0
M  V30 707 C 60.5702 0.539049 -5.28458 0
M  V30 708 C 59.6092 -0.356942 -6.11058 0
M  V30 709 N 58.7462 0.446603 -7.00678 0
M  V30 710 H 63.5862 -1.05632 -2.7865 0
M  V30 711 H 61.1232 -0.532413 -1.37127 0
M  V30 712 H 63.0812 1.09129 -4.02675 0
M  V30 713 H 61.7112 1.37392 -2.92102 0
M  V30 714 H 60.7632 -0.920276 -3.691 0
M  V30 715 H 62.0752 -0.992661 -4.88823 0
M  V30 716 H 61.2292 1.102 -5.96608 0
M  V30 717 H 59.9682 1.26157 -4.71101 0
M  V30 718 H 58.9732 -0.932047 -5.41842 0
M  V30 719 H 60.1982 -1.07755 -6.70497 0
M  V30 720 H 58.1442 1.15282 -6.45791 0
M  V30 721 H 58.0612 -0.184048 -7.55776 0
M  V30 722 H 59.3292 0.992352 -7.73158 0
M  V30 723 N 63.5583 1.46682 -0.576371 0
M  V30 724 C 64.4903 2.28341 0.198231 0
M  V30 725 C 65.5033 1.38141 0.861453 0
M  V30 726 O 66.6923 1.62797 0.732082 0
M  V30 727 C 63.7923 3.12986 1.29972 0
M  V30 728 C 62.9653 4.31271 0.729639 0
M  V30 729 C 62.0243 4.97363 1.71803 0
M  V30 730 O 61.0503 5.55156 1.25658 0
M  V30 731 N 62.2523 4.93796 3.05198 0
M  V30 732 H 65.0173 2.9546 -0.502324 0
M  V30 733 H 62.5783 1.56525 -0.413715 0
M  V30 734 H 64.5703 3.54066 1.96008 0
M  V30 735 H 63.1403 2.47984 1.90323 0
M  V30 736 H 62.3603 3.94052 -0.108012 0
M  V30 737 H 63.6483 5.07739 0.328438 0
M  V30 738 H 63.0463 4.48077 3.45317 0
M  V30 739 H 61.6033 5.38837 3.6674 0
M  V30 740 N 65.0364 0.313813 1.54444 0
M  V30 741 C 65.9664 -0.549454 2.26943 0
M  V30 742 C 66.9474 -1.12741 1.27372 0
M  V30 743 O 68.1324 -1.15436 1.56167 0
M  V30 744 C 65.2624 -1.71523 3.01989 0
M  V30 745 C 64.2164 -1.26703 4.08816 0
M  V30 746 C 63.5424 -2.51898 4.71647 0
M  V30 747 C 64.8424 -0.388962 5.2085 0
M  V30 748 H 66.5364 0.0552661 2.99349 0
M  V30 749 H 64.0824 0.0280207 1.43973 0
M  V30 750 H 66.0354 -2.32535 3.51433 0
M  V30 751 H 64.7594 -2.34639 2.27183 0
M  V30 752 H 63.4184 -0.679896 3.6024 0
M  V30 753 H 63.0664 -3.13356 3.93468 0
M  V30 754 H 62.7664 -2.22605 5.43802 0
M  V30 755 H 64.2904 -3.1369 5.23861 0
M  V30 756 H 65.7044 -0.905107 5.6611 0
M  V30 757 H 64.1014 -0.18924 5.99802 0
M  V30 758 H 65.1714 0.582699 4.81386 0
M  V30 759 N 66.5145 -1.57545 0.0417849 0
M  V30 760 C 67.7395 -1.97035 -0.647455 0
M  V30 761 C 68.1645 -0.918775 -1.64135 0
M  V30 762 O 67.5225 0.119006 -1.80909 0
M  V30 763 C 67.5705 -3.35609 -1.31905 0
M  V30 764 O 66.6745 -3.3287 -2.43457 0
M  V30 765 H 66.0155 -0.64211 -0.169086 0
M  V30 766 H 68.5455 -2.04318 0.107399 0
M  V30 767 H 68.5555 -3.72126 -1.67291 0
M  V30 768 H 67.2305 -4.11685 -0.590586 0
M  V30 769 H 65.8075 -3.08087 -2.10088 0
M  V30 770 N 67.9926 0.231505 -1.5589 0
M  V30 771 C 69.2396 0.957352 -1.78441 0
M  V30 772 C 69.5676 1.84726 -0.60882 0
M  V30 773 O 68.8226 1.91416 0.40725 0
M  V30 774 C 69.1216 1.83577 -3.0665 0
M  V30 775 C 68.7876 1.09993 -4.37278 0
M  V30 776 C 67.4496 0.896629 -4.72773 0
M  V30 777 C 69.8016 0.579558 -5.17968 0
M  V30 778 C 67.1296 0.160896 -5.86479 0
M  V30 779 C 69.4816 -0.142783 -6.32439 0
M  V30 780 C 68.1456 -0.357427 -6.66542 0
M  V30 781 H 67.4156 0.35032 -0.65296 0
M  V30 782 H 70.0626 0.226259 -1.90159 0
M  V30 783 H 68.3676 2.63441 -2.90011 0
M  V30 784 H 70.0646 2.39934 -3.21298 0
M  V30 785 H 66.6546 1.26835 -4.09403 0
M  V30 786 H 70.8386 0.724125 -4.90989 0
M  V30 787 H 66.0946 -0.0157293 -6.11398 0
M  V30 788 H 70.2686 -0.553559 -6.94196 0
M  V30 789 H 67.8956 -0.929466 -7.54497 0
M  V30 790 N 69.4707 1.49531 0.497807 0
M  V30 791 C 70.7177 1.59179 1.25173 0
M  V30 792 C 71.0457 0.279932 1.92475 0
M  V30 793 O 70.3007 -0.732383 1.81479 0
M  V30 794 C 70.5997 2.70252 2.33878 0
M  V30 795 C 70.2657 4.11644 1.84012 0
M  V30 796 C 68.9277 4.50121 1.70132 0
M  V30 797 C 71.2797 5.00121 1.46725 0
M  V30 798 C 68.6077 5.74845 1.17348 0
M  V30 799 C 70.9597 6.25366 0.95392 0
M  V30 800 C 69.6237 6.6267 0.801538 0
M  V30 801 H 68.8937 0.582478 0.45804 0
M  V30 802 H 71.5407 1.83373 0.551948 0
M  V30 803 H 69.8457 2.40041 3.09657 0
M  V30 804 H 71.5427 2.74925 2.9192 0
M  V30 805 H 68.1327 3.81274 1.95775 0
M  V30 806 H 72.3167 4.71048 1.56294 0
M  V30 807 H 67.5727 6.02444 1.04264 0
M  V30 808 H 71.7467 6.93301 0.656225 0
M  V30 809 H 69.3737 7.59197 0.390351 0
M  V30 810 N 70.9488 -0.749086 1.3866 0
M  V30 811 C 72.1948 -1.50959 1.36319 0
M  V30 812 C 72.5498 -1.92347 -0.0452451 0
M  V30 813 O 71.8428 -1.6289 -1.00884 0
M  V30 814 C 72.0368 -2.7712 2.25697 0
M  V30 815 C 71.8658 -2.48067 3.7509 0
M  V30 816 C 70.6358 -2.41062 4.44091 0
M  V30 817 C 72.8338 -2.14544 4.67414 0
M  V30 818 N 70.8158 -2.04331 5.78897 0
M  V30 819 C 72.1868 -1.88141 5.90765 0
M  V30 820 C 74.2418 -2.00892 4.55573 0
M  V30 821 C 72.9448 -1.49463 7.036 0
M  V30 822 C 74.9708 -1.63616 5.68317 0
M  V30 823 C 74.3328 -1.38088 6.90732 0
M  V30 824 H 70.4318 -0.551804 0.554108 0
M  V30 825 H 73.0158 -0.871886 1.74087 0
M  V30 826 H 71.1868 -3.38693 1.9011 0
M  V30 827 H 72.9188 -3.4321 2.1445 0
M  V30 828 H 69.6738 -2.57685 3.9736 0
M  V30 829 H 70.0978 -1.88598 6.502 0
M  V30 830 H 74.7398 -2.19301 3.61479 0
M  V30 831 H 72.4578 -1.29794 7.97608 0
M  V30 832 H 76.0438 -1.53678 5.61137 0
M  V30 833 H 74.9238 -1.09674 7.76493 0
M  V30 834 N 72.4269 -1.23603 -0.977757 0
M  V30 835 C 73.8429 -0.999251 -1.24447 0
M  V30 836 C 74.0429 0.298053 -1.99283 0
M  V30 837 O 73.0989 1.01681 -2.31122 0
M  V30 838 C 74.4119 -2.20784 -2.04144 0
M  V30 839 C 75.9599 -2.25303 -2.17273 0
M  V30 840 C 76.4349 -3.45755 -3.00362 0
M  V30 841 N 77.9259 -3.4601 -3.07947 0
M  V30 842 C 78.6609 -4.35868 -3.72568 0
M  V30 843 N 78.1569 -5.35966 -4.38991 0
M  V30 844 N 79.9499 -4.23605 -3.6948 0
M  V30 845 H 72.1009 -2.06986 -0.476483 0
M  V30 846 H 74.3639 -0.907801 -0.273134 0
M  V30 847 H 74.0699 -3.14945 -1.56533 0
M  V30 848 H 73.9439 -2.22085 -3.04891 0
M  V30 849 H 76.3309 -1.3168 -2.64092 0
M  V30 850 H 76.4119 -2.28033 -1.15907 0
M  V30 851 H 76.0559 -4.39687 -2.5424 0
M  V30 852 H 75.9859 -3.40266 -4.01904 0
M  V30 853 H 78.4769 -2.73588 -2.60688 0
M  V30 854 H 78.7899 -6.00783 -4.86086 0
M  V30 855 H 77.1349 -5.39863 -4.37691 0
M  V30 856 H 80.3259 -3.44647 -3.16759 0
M  V30 857 H 80.4989 -4.93836 -4.1956 0
M  V30 858 N 73.905 1.17692 -1.04816 0
M  V30 859 C 75.316 1.69501 -0.782698 0
M  V30 860 C 75.667 1.83456 0.695577 0
M  V30 861 O 74.792 1.51942 1.54086 0
M  V30 862 C 75.387 3.07874 -1.41419 0
M  V30 863 C 73.946 3.56864 -1.19686 0
M  V30 864 C 73.093 2.3322 -1.50012 0
M  V30 865 H 76.044 1.02262 -1.2136 0
M  V30 866 H 76.065 3.71528 -0.821428 0
M  V30 867 H 75.577 2.97685 -2.49009 0
M  V30 868 H 73.678 3.72337 -0.140043 0
M  V30 869 H 73.791 4.39851 -1.89916 0
M  V30 870 H 72.155 2.37501 -0.920071 0
M  V30 871 H 72.938 2.25644 -2.58727 0
M  V30 872 N 75.3831 0.828654 1.34056 0
M  V30 873 C 76.2931 0.256725 2.33191 0
M  V30 874 C 77.3091 -0.611898 1.62886 0
M  V30 875 O 78.4851 -0.51844 1.94613 0
M  V30 876 C 75.5501 -0.567238 3.42028 0
M  V30 877 C 74.6111 0.324458 4.28072 0
M  V30 878 C 73.8441 -0.460274 5.31712 0
M  V30 879 O 74.0671 -1.693 5.44696 0
M  V30 880 O 73.0011 0.160391 6.01686 0
M  V30 881 H 76.8271 1.07739 2.83947 0
M  V30 882 H 74.4121 0.59093 1.37217 0
M  V30 883 H 76.2941 -1.03582 4.08471 0
M  V30 884 H 74.9691 -1.36513 2.93506 0
M  V30 885 H 73.8761 0.840659 3.64532 0
M  V30 886 H 75.2091 1.08685 4.8005 0
M  V30 887 N 76.8612 -1.46375 0.584142 0
M  V30 888 C 77.7712 -2.34115 -0.150728 0
M  V30 889 C 78.7872 -1.49838 -0.884567 0
M  V30 890 O 79.9632 -1.82704 -0.847429 0
M  V30 891 C 77.0282 -3.2705 -1.15062 0
M  V30 892 C 76.0892 -4.27228 -0.421293 0
M  V30 893 C 75.3222 -5.15722 -1.37355 0
M  V30 894 O 75.5452 -5.07176 -2.61014 0
M  V30 895 O 74.4792 -5.95383 -0.883355 0
M  V30 896 H 78.3052 -2.98309 0.569708 0
M  V30 897 H 75.8902 -1.45373 0.344535 0
M  V30 898 H 77.7722 -3.84381 -1.72712 0
M  V30 899 H 76.4472 -2.65451 -1.8525 0
M  V30 900 H 75.3542 -3.7358 0.197085 0
M  V30 901 H 76.6872 -4.91616 0.239641 0
M  V30 902 N 78.3393 -0.321999 -1.54275 0
M  V30 903 C 79.5853 0.281461 -2.00837 0
M  V30 904 C 79.9183 1.51909 -1.20985 0
M  V30 905 O 79.1933 1.923 -0.291733 0
M  V30 906 C 79.4763 0.617162 -3.54772 0
M  V30 907 C 79.3293 -0.631064 -4.45351 0
M  V30 908 C 80.6483 1.43542 -4.16033 0
M  V30 909 H 77.7673 0.100826 -0.730071 0
M  V30 910 H 80.4093 -0.438268 -1.84876 0
M  V30 911 H 78.5593 1.23034 -3.68504 0
M  V30 912 H 80.2313 -1.26934 -4.43492 0
M  V30 913 H 78.4743 -1.26025 -4.15091 0
M  V30 914 H 79.1453 -0.351735 -5.50878 0
M  V30 915 H 81.6213 0.917134 -4.05867 0
M  V30 916 H 80.4973 1.63907 -5.23856 0
M  V30 917 H 80.7583 2.43108 -3.69257 0
M  V30 918 N 79.8174 1.5752 -0.0501392 0
M  V30 919 C 81.0944 1.83996 0.663685 0
M  V30 920 C 81.4744 0.938339 1.89099 0
M  V30 921 O 80.8224 -0.00087759 2.285 0
M  V30 922 C 81.0324 3.33702 1.02196 0
M  V30 923 C 82.3804 4.00691 1.40469 0
M  V30 924 O 83.4044 3.38321 1.11433 0
M  V30 925 O 82.2634 5.10658 1.94654 0
M  V30 926 H 79.3574 0.759385 0.32751 0
M  V30 927 H 81.9034 1.69514 -0.0794238 0
M  V30 928 H 80.6754 3.91015 0.149364 0
M  V30 929 H 80.2984 3.53368 1.82255 0
M  V30 930 N 81.2955 -0.223234 1.56011 0
M  V30 931 C 82.5415 -0.949279 1.79211 0
M  V30 932 C 82.8745 -1.84054 0.619494 0
M  V30 933 O 82.1495 -1.90726 -0.381317 0
M  V30 934 C 82.4325 -1.78965 3.12479 0
M  V30 935 C 82.2855 -0.924997 4.40186 0
M  V30 936 C 83.6045 -2.76774 3.42175 0
M  V30 937 H 80.7235 -0.343676 0.651963 0
M  V30 938 H 83.3655 -0.218253 1.88742 0
M  V30 939 H 81.5155 -2.41291 3.04485 0
M  V30 940 H 83.1875 -0.318615 4.60198 0
M  V30 941 H 81.4305 -0.230344 4.33188 0
M  V30 942 H 82.1015 -1.54735 5.29869 0
M  V30 943 H 84.5775 -2.24584 3.50287 0
M  V30 944 H 83.4535 -3.32678 4.36597 0
M  V30 945 H 83.7145 -3.54429 2.64258 0
M  V30 946 N 82.7736 -1.49793 -0.48987 0
M  V30 947 C 83.9986 -1.63836 -1.27172 0
M  V30 948 C 84.4236 -0.31402 -1.8546 0
M  V30 949 O 83.7816 0.719803 -1.66399 0
M  V30 950 C 83.8296 -2.71797 -2.36978 0
M  V30 951 O 82.9336 -2.31744 -3.41128 0
M  V30 952 H 82.2746 -0.547997 -0.37496 0
M  V30 953 H 84.8046 -1.96053 -0.585191 0
M  V30 954 H 84.8146 -2.94305 -2.82575 0
M  V30 955 H 83.4896 -3.67923 -1.93921 0
M  V30 956 H 82.0666 -2.1961 -3.01373 0
M  V30 957 N 84.2517 0.741722 -1.39055 0
M  V30 958 C 85.6677 1.04638 -1.20512 0
M  V30 959 C 85.8677 2.01405 -0.0620218 0
M  V30 960 O 84.9237 2.45547 0.588457 0
M  V30 961 C 86.2367 1.6151 -2.53643 0
M  V30 962 C 87.7847 1.73623 -2.6043 0
M  V30 963 C 88.2597 2.33906 -3.93767 0
M  V30 964 N 89.7507 2.41323 -3.9537 0
M  V30 965 C 90.4857 2.88888 -4.95309 0
M  V30 966 N 89.9817 3.36401 -6.05645 0
M  V30 967 N 91.7747 2.88037 -4.82692 0
M  V30 968 H 83.9257 0.0998155 -2.12165 0
M  V30 969 H 86.1887 0.106907 -0.941953 0
M  V30 970 H 85.8947 0.978739 -3.37807 0
M  V30 971 H 85.7687 2.60411 -2.72885 0
M  V30 972 H 88.1557 2.36384 -1.76655 0
M  V30 973 H 88.2367 0.733945 -2.45045 0
M  V30 974 H 87.8807 1.71776 -4.7797 0
M  V30 975 H 87.8107 3.34799 -4.06469 0
M  V30 976 H 90.3017 2.07734 -3.15682 0
M  V30 977 H 90.6147 3.71186 -6.77821 0
M  V30 978 H 88.9597 3.34427 -6.09248 0
M  V30 979 H 92.1507 2.50237 -3.95599 0
M  V30 980 H 92.3237 3.24792 -5.60726 0
M  V30 981 N 85.7298 1.2412 0.971189 0
M  V30 982 C 87.0068 0.986867 1.6888 0
M  V30 983 C 87.3868 -0.491857 2.0529 0
M  V30 984 O 86.7348 -1.46531 1.75331 0
M  V30 985 C 86.9448 1.9063 2.92338 0
M  V30 986 C 88.2928 2.17515 3.64654 0
M  V30 987 O 89.3168 1.88254 3.02388 0
M  V30 988 O 88.1758 2.6719 4.7673 0
M  V30 989 H 85.2698 0.372944 0.738134 0
M  V30 990 H 87.8158 1.35203 1.02559 0
M  V30 991 H 86.5878 2.90552 2.62097 0
M  V30 992 H 86.2108 1.54408 3.66393 0
M  V30 993 N 87.2079 -1.17134 1.05439 0
M  V30 994 C 88.6239 -1.39454 0.776201 0
M  V30 995 C 88.8239 -1.91454 -0.628307 0
M  V30 996 O 87.8799 -2.10777 -1.39031 0
M  V30 997 C 89.1929 -2.38305 1.83388 0
M  V30 998 C 90.7409 -2.52006 1.85639 0
M  V30 999 C 91.2159 -3.54133 2.90437 0
M  V30 1000 N 92.7069 -3.61653 2.89415 0
M  V30 1001 C 93.4419 -4.4044 3.67152 0
M  V30 1002 N 92.9379 -5.22721 4.54681 0
M  V30 1003 N 94.7309 -4.35337 3.55581 0
M  V30 1004 H 86.8819 -0.817134 1.96053 0
M  V30 1005 H 89.1449 -0.421626 0.849079 0
M  V30 1006 H 88.8509 -2.07173 2.84204 0
M  V30 1007 H 88.7249 -3.37841 1.67761 0
M  V30 1008 H 91.1119 -2.82447 0.85486 0
M  V30 1009 H 91.1929 -1.52537 2.05344 0
M  V30 1010 H 90.8369 -3.24431 3.90777 0
M  V30 1011 H 90.7669 -4.53313 2.67983 0
M  V30 1012 H 93.2579 -3.02909 2.25952 0
M  V30 1013 H 93.5709 -5.80027 5.10674 0
M  V30 1014 H 91.9159 -5.22093 4.58741 0
M  V30 1015 H 95.1069 -3.70112 2.86592 0
M  V30 1016 H 95.2799 -4.96494 4.1641 0
M  V30 1017 N 88.686 -0.835752 -1.33615 0
M  V30 1018 C 89.935 -0.426289 -1.97144 0
M  V30 1019 C 90.248 1.01912 -1.66953 0
M  V30 1020 O 91.454 1.53311 -2.24072 0
M  V30 1021 C 89.91 -0.711321 -3.52801 0
M  V30 1022 C 89.518 -2.1712 -3.91871 0
M  V30 1023 C 91.262 -0.368654 -4.22896 0
M  V30 1024 C 89.169 -2.40044 -5.40493 0
M  V30 1025 H 88.099 -0.15567 -0.737755 0
M  V30 1026 H 90.75 -1.0239 -1.52278 0
M  V30 1027 H 89.132 -0.0433766 -3.95976 0
M  V30 1028 H 90.306 -2.87936 -3.59763 0
M  V30 1029 H 88.621 -2.47654 -3.34749 0
M  V30 1030 H 91.218 -0.517601 -5.32189 0
M  V30 1031 H 91.561 0.688078 -4.10574 0
M  V30 1032 H 92.094 -0.991702 -3.8524 0
M  V30 1033 H 88.833 -3.44271 -5.57815 0
M  V30 1034 H 88.353 -1.73785 -5.74072 0
M  V30 1035 H 90.032 -2.23042 -6.0734 0
M  V30 1036 N 90.1641 1.46063 -0.591896 0
M  V30 1037 C 91.4411 1.95595 -0.0137119 0
M  V30 1038 C 91.8211 1.5345 1.4497 0
M  V30 1039 O 91.1691 0.789543 2.14426 0
M  V30 1040 C 91.3791 3.48453 -0.195373 0
M  V30 1041 C 92.7271 4.24546 -0.0679765 0
M  V30 1042 O 93.7511 3.55982 -0.124681 0
M  V30 1043 O 92.6101 5.46467 0.0600579 0
M  V30 1044 H 89.7041 0.825795 0.0446279 0
M  V30 1045 H 92.2501 1.56303 -0.660859 0
M  V30 1046 H 91.0221 3.72045 -1.21235 0
M  V30 1047 H 90.6451 3.94597 0.487775 0
M  V30 1048 N 91.6422 0.330177 1.54103 0
M  V30 1049 C 92.8722 -0.271784 2.04805 0
M  V30 1050 C 93.2802 -1.45816 1.20559 0
M  V30 1051 O 92.6232 -1.82247 0.2306 0
M  V30 1052 C 92.6852 -0.763238 3.51305 0
M  V30 1053 C 92.3492 0.301705 4.56003 0
M  V30 1054 C 93.3462 1.13999 5.07248 0
M  V30 1055 C 91.0312 0.451793 5.00264 0
M  V30 1056 C 93.0252 2.11402 6.01322 0
M  V30 1057 C 90.7122 1.42924 5.94151 0
M  V30 1058 C 91.7102 2.25882 6.44567 0
M  V30 1059 O 91.3982 3.21965 7.3661 0
M  V30 1060 H 91.1302 -0.058693 0.673447 0
M  V30 1061 H 93.6842 0.476395 1.99799 0
M  V30 1062 H 91.9142 -1.56244 3.5373 0
M  V30 1063 H 93.6032 -1.28427 3.85047 0
M  V30 1064 H 94.3692 1.03505 4.73827 0
M  V30 1065 H 90.2482 -0.184044 4.60632 0
M  V30 1066 H 93.7922 2.76192 6.40596 0
M  V30 1067 H 89.6892 1.53479 6.26988 0
M  V30 1068 H 90.4572 3.17281 7.54503 0
M  V30 1069 N 93.1203 -1.57491 0.0584922 0
M  V30 1070 C 94.0523 -2.08916 -0.942694 0
M  V30 1071 C 95.0653 -1.0185 -1.27006 0
M  V30 1072 O 96.2543 -1.29398 -1.22957 0
M  V30 1073 C 93.3543 -2.52341 -2.26224 0
M  V30 1074 C 92.5273 -3.82827 -2.1157 0
M  V30 1075 C 91.5863 -4.12487 -3.26712 0
M  V30 1076 O 90.6123 -4.82295 -3.02292 0
M  V30 1077 N 91.8143 -3.64978 -4.5141 0
M  V30 1078 H 94.5793 -2.95437 -0.503722 0
M  V30 1079 H 92.1403 -1.61397 -0.12757 0
M  V30 1080 H 94.1323 -2.69254 -3.02133 0
M  V30 1081 H 92.7023 -1.7103 -2.61663 0
M  V30 1082 H 91.9223 -3.75425 -1.20208 0
M  V30 1083 H 93.2103 -4.68263 -1.99015 0
M  V30 1084 H 92.6083 -3.08558 -4.7414 0
M  V30 1085 H 91.1653 -3.87115 -5.2439 0
M  V30 1086 N 94.5984 0.214957 -1.56127 0
M  V30 1087 C 95.5614 1.24997 -1.92116 0
M  V30 1088 C 96.5614 1.39467 -0.800344 0
M  V30 1089 O 97.7514 1.37619 -1.06802 0
M  V30 1090 C 94.8834 2.62271 -2.17777 0
M  V30 1091 H 96.0764 0.942875 -2.84693 0
M  V30 1092 H 93.6294 0.455654 -1.49511 0
M  V30 1093 H 94.3644 2.98068 -1.27773 0
M  V30 1094 H 94.1494 2.53143 -2.99434 0
M  V30 1095 H 95.6394 3.36946 -2.46693 0
M  V30 1096 N 96.0765 1.50051 0.48192 0
M  V30 1097 C 97.0065 1.71046 1.58951 0
M  V30 1098 C 97.9875 0.559288 1.60642 0
M  V30 1099 O 99.1725 0.797243 1.77081 0
M  V30 1100 C 96.3025 1.79462 2.97339 0
M  V30 1101 C 95.2565 2.94558 3.10515 0
M  V30 1102 C 94.5825 2.88105 4.50444 0
M  V30 1103 C 95.8825 4.35227 2.88747 0
M  V30 1104 H 97.5765 2.6378 1.41635 0
M  V30 1105 H 95.1225 1.26936 0.679942 0
M  V30 1106 H 97.0755 1.92734 3.74742 0
M  V30 1107 H 95.7995 0.833412 3.15788 0
M  V30 1108 H 94.4585 2.80918 2.35543 0
M  V30 1109 H 94.1065 1.89853 4.65795 0
M  V30 1110 H 93.8065 3.65366 4.60197 0
M  V30 1111 H 95.3305 3.03412 5.29881 0
M  V30 1112 H 96.7445 4.49449 3.55905 0
M  V30 1113 H 95.1415 5.13856 3.09955 0
M  V30 1114 H 96.2115 4.48347 1.84696 0
M  V30 1115 N 97.5546 -0.734337 1.39446 0
M  V30 1116 C 98.9656 -1.31264 1.32766 0
M  V30 1117 C 99.3166 -1.96198 -0.00767497 0
M  V30 1118 O 98.4416 -1.96346 -0.909796 0
M  V30 1119 C 99.0366 -2.38682 2.4045 0
M  V30 1120 C 97.5956 -2.92184 2.37288 0
M  V30 1121 C 96.7426 -1.6576 2.22304 0
M  V30 1122 H 99.6936 -0.531799 1.49525 0
M  V30 1123 H 99.7146 -3.19087 2.07276 0
M  V30 1124 H 99.2266 -1.91392 3.37625 0
M  V30 1125 H 97.3276 -3.43752 1.43754 0
M  V30 1126 H 97.4406 -3.45253 3.3217 0
M  V30 1127 H 95.8046 -1.9012 1.69489 0
M  V30 1128 H 96.5876 -1.20521 3.21449 0
M  V30 1129 N 99.0327 -1.24633 -0.964593 0
M  V30 1130 C 99.9427 -1.05859 -2.09359 0
M  V30 1131 C 100.959 0.00148855 -1.74 0
M  V30 1132 O 102.135 -0.197346 -2.00431 0
M  V30 1133 C 99.1997 -0.668879 -3.40187 0
M  V30 1134 C 98.2607 -1.80578 -3.89474 0
M  V30 1135 C 97.4937 -1.43457 -5.14058 0
M  V30 1136 O 97.7167 -0.325775 -5.69469 0
M  V30 1137 O 96.6507 -2.2613 -5.57807 0
M  V30 1138 H 100.477 -2.00516 -2.28094 0
M  V30 1139 H 98.0617 -1.03481 -1.0776 0
M  V30 1140 H 99.9437 -0.463211 -4.18846 0
M  V30 1141 H 98.6187 0.248536 -3.22744 0
M  V30 1142 H 97.5257 -2.06623 -3.11862 0
M  V30 1143 H 98.8587 -2.70208 -4.11398 0
M  V30 1144 N 100.511 1.16574 -1.06058 0
M  V30 1145 C 101.461 2.18854 -0.63929 0
M  V30 1146 C 102.445 1.57505 0.328798 0
M  V30 1147 O 103.637 1.76408 0.144623 0
M  V30 1148 C 100.766 3.43291 -0.0247203 0
M  V30 1149 C 99.8518 4.11722 -1.01716 0
M  V30 1150 N 100.243 4.55841 -2.19186 0
M  V30 1151 C 98.5408 4.37872 -0.847569 0
M  V30 1152 C 99.2418 5.08751 -2.82042 0
M  V30 1153 N 98.2178 5.01489 -2.09784 0
M  V30 1154 H 102.02 2.5068 -1.53417 0
M  V30 1155 H 99.5338 1.32999 -0.931935 0
M  V30 1156 H 101.531 4.15856 0.294915 0
M  V30 1157 H 100.191 3.12954 0.865448 0
M  V30 1158 H 101.202 4.49649 -2.56975 0
M  V30 1159 H 97.8788 4.17499 -0.00918848 0
M  V30 1160 H 99.2688 5.52944 -3.81709 0
M  V30 1161 N 101.989 0.842826 1.3317 0
M  V30 1162 C 102.899 0.281444 2.32906 0
M  V30 1163 C 103.915 -0.594587 1.63526 0
M  V30 1164 O 105.091 -0.49777 1.95152 0
M  V30 1165 C 102.156 -0.530929 3.42611 0
M  V30 1166 C 101.217 0.369843 4.27704 0
M  V30 1167 C 100.45 -0.403853 5.3217 0
M  V30 1168 O 100.673 -1.63513 5.46461 0
M  V30 1169 O 99.6069 0.224199 6.01482 0
M  V30 1170 H 103.433 1.10744 2.82789 0
M  V30 1171 H 101.018 0.60545 1.36582 0
M  V30 1172 H 102.9 -0.992437 4.09547 0
M  V30 1173 H 101.575 -1.33392 2.94938 0
M  V30 1174 H 100.482 0.879275 3.6362 0
M  V30 1175 H 101.815 1.13771 4.78871 0
M  V30 1176 N 103.467 -1.45747 0.599634 0
M  V30 1177 C 104.414 -2.30467 -0.123849 0
M  V30 1178 C 105.384 -1.41632 -0.86774 0
M  V30 1179 O 106.569 -1.70568 -0.855056 0
M  V30 1180 C 103.709 -3.26402 -1.12051 0
M  V30 1181 C 102.822 -4.3034 -0.37832 0
M  V30 1182 C 101.957 -5.13389 -1.364 0
M  V30 1183 C 100.996 -6.09061 -0.609171 0
M  V30 1184 N 100.133 -6.84918 -1.54374 0
M  V30 1185 H 104.973 -2.91802 0.604627 0
M  V30 1186 H 102.51 -1.43797 0.309972 0
M  V30 1187 H 104.468 -3.80482 -1.7114 0
M  V30 1188 H 103.098 -2.66839 -1.8165 0
M  V30 1189 H 102.15 -3.78984 0.327929 0
M  V30 1190 H 103.462 -4.98354 0.210997 0
M  V30 1191 H 102.616 -5.7183 -2.02719 0
M  V30 1192 H 101.355 -4.45376 -1.98725 0
M  V30 1193 H 100.36 -5.49758 0.0676979 0
M  V30 1194 H 101.585 -6.79099 0.00891991 0
M  V30 1195 H 99.531 -6.19601 -2.15478 0
M  V30 1196 H 99.448 -7.49254 -1.00766 0
M  V30 1197 H 100.716 -7.47906 -2.19676 0
M  V30 1198 N 104.945 -0.338344 -1.53925 0
M  V30 1199 C 105.895 0.536712 -2.21593 0
M  V30 1200 C 106.879 1.07015 -1.20153 0
M  V30 1201 O 108.071 1.00471 -1.45721 0
M  V30 1202 C 105.2 1.68977 -2.98834 0
M  V30 1203 C 104.286 1.17052 -4.07627 0
M  V30 1204 N 104.677 0.372085 -5.0443 0
M  V30 1205 C 102.975 1.44789 -4.21844 0
M  V30 1206 C 103.676 0.0909171 -5.81629 0
M  V30 1207 N 102.652 0.681131 -5.39316 0
M  V30 1208 H 106.454 -0.0804298 -2.9379 0
M  V30 1209 H 103.968 -0.144943 -1.61752 0
M  V30 1210 H 105.965 2.32857 -3.45808 0
M  V30 1211 H 104.625 2.31024 -2.28162 0
M  V30 1212 H 105.636 0.0136217 -5.17898 0
M  V30 1213 H 102.313 2.07313 -3.62391 0
M  V30 1214 H 103.703 -0.552817 -6.69622 0
M  V30 1215 N 106.423 1.57458 -0.0668435 0
M  V30 1216 C 107.672 1.92477 0.602947 0
M  V30 1217 C 107.985 0.948419 1.71068 0
M  V30 1218 O 109.191 1.19124 2.43971 0
M  V30 1219 C 107.647 3.41903 1.12383 0
M  V30 1220 C 107.255 4.47975 0.04737 0
M  V30 1221 C 108.999 3.85931 1.76797 0
M  V30 1222 C 106.906 5.88529 0.582022 0
M  V30 1223 H 105.836 0.718387 0.22899 0
M  V30 1224 H 108.487 1.82978 -0.138276 0
M  V30 1225 H 106.869 3.46459 1.91787 0
M  V30 1226 H 108.043 4.55029 -0.726978 0
M  V30 1227 H 106.358 4.13384 -0.500243 0
M  V30 1228 H 108.955 4.88322 2.17821 0
M  V30 1229 H 109.298 3.23029 2.62599 0
M  V30 1230 H 109.831 3.83958 1.04024 0
M  V30 1231 H 106.57 6.55065 -0.238721 0
M  V30 1232 H 106.09 5.85004 1.324 0
M  V30 1233 H 107.769 6.38258 1.05999 0
M  V30 1234 N 107.901 -0.206675 1.56239 0
M  V30 1235 C 109.148 -0.928842 1.79941 0
M  V30 1236 C 109.476 -1.83734 0.638131 0
M  V30 1237 O 108.731 -1.92039 -0.376746 0
M  V30 1238 C 109.03 -1.78675 3.09532 0
M  V30 1239 C 108.696 -1.03022 4.38973 0
M  V30 1240 C 107.358 -0.821302 4.74139 0
M  V30 1241 C 109.71 -0.497081 5.18824 0
M  V30 1242 C 107.038 -0.0675719 5.86661 0
M  V30 1243 C 109.39 0.24338 6.32132 0
M  V30 1244 C 108.054 0.463422 6.65889 0
M  V30 1245 H 107.324 -0.339887 0.658451 0
M  V30 1246 H 109.971 -0.195977 1.90495 0
M  V30 1247 H 108.276 -2.58794 2.94165 0
M  V30 1248 H 109.973 -2.34792 3.25075 0
M  V30 1249 H 106.563 -1.20306 4.11369 0
M  V30 1250 H 110.747 -0.645921 4.92079 0
M  V30 1251 H 106.003 0.112995 6.11296 0
M  V30 1252 H 110.177 0.66393 6.93228 0
M  V30 1253 H 107.804 1.04938 7.52922 0
M  V30 1254 N 109.379 -1.50304 -0.473955 0
M  V30 1255 C 110.628 -1.60392 -1.22301 0
M  V30 1256 C 110.941 -0.308411 -1.93153 0
M  V30 1257 O 112.147 -0.288156 -2.69966 0
M  V30 1258 C 110.603 -2.83109 -2.2221 0
M  V30 1259 C 110.211 -4.19524 -1.57173 0
M  V30 1260 C 111.955 -3.0254 -2.97775 0
M  V30 1261 C 109.862 -5.33431 -2.55353 0
M  V30 1262 H 108.792 -0.597286 -0.460179 0
M  V30 1263 H 111.443 -1.76731 -0.493803 0
M  V30 1264 H 109.825 -2.60322 -2.9841 0
M  V30 1265 H 110.999 -4.52554 -0.867824 0
M  V30 1266 H 109.314 -4.05674 -0.939002 0
M  V30 1267 H 111.911 -3.84811 -3.71248 0
M  V30 1268 H 112.254 -2.14154 -3.56992 0
M  V30 1269 H 112.787 -3.25494 -2.28688 0
M  V30 1270 H 109.526 -6.23962 -2.00878 0
M  V30 1271 H 109.046 -5.04823 -3.23904 0
M  V30 1272 H 110.725 -5.63887 -3.17239 0
M  V30 1273 N 110.857 0.726932 -1.39834 0
M  V30 1274 C 112.082 1.52121 -1.40976 0
M  V30 1275 C 112.507 1.88098 -0.00826029 0
M  V30 1276 O 111.865 1.52479 0.980807 0
M  V30 1277 C 111.913 2.78021 -2.29644 0
M  V30 1278 O 111.017 3.74272 -1.73188 0
M  V30 1279 H 110.358 0.45908 -0.479731 0
M  V30 1280 H 112.888 0.896207 -1.83927 0
M  V30 1281 H 112.898 3.26671 -2.44438 0
M  V30 1282 H 111.573 2.51169 -3.31492 0
M  V30 1283 H 110.15 3.33073 -1.6768 0
M  V30 1284 N 112.336 1.25143 0.95797 0
M  V30 1285 C 113.284 1.05019 2.07542 0
M  V30 1286 C 114.278 -0.0178751 1.69391 0
M  V30 1287 O 115.484 0.137472 1.79474 0
M  V30 1288 H 111.859 0.32265 0.679265 0
M  V30 1289 H 113.83 1.99759 2.21673 0
M  V30 1290 C 112.579 0.682074 3.40944 0
M  V30 1291 H 111.902 1.49573 3.70767 0
M  V30 1292 H 113.342 0.580945 4.20001 0
M  V30 1293 C 111.801 -0.611608 3.31302 0
M  V30 1294 O 112.331 -1.65465 3.66038 0
M  V30 1295 N 110.537 -0.595982 2.84423 0
M  V30 1296 H 110.084 0.253192 2.56353 0
M  V30 1297 H 110.042 -1.46173 2.78354 0
M  V30 1298 N 113.814 -1.1601 1.06675 0
M  V30 1299 C 114.744 -2.22688 0.702307 0
M  V30 1300 C 115.725 -1.67306 -0.307032 0
M  V30 1301 O 116.91 -1.93352 -0.181305 0
M  V30 1302 C 114.04 -3.47178 0.092038 0
M  V30 1303 C 112.994 -4.15477 1.02777 0
M  V30 1304 C 112.32 -5.33963 0.28061 0
M  V30 1305 C 113.62 -4.66019 2.35846 0
M  V30 1306 H 115.314 -2.53429 1.59419 0
M  V30 1307 H 112.86 -1.21813 0.767961 0
M  V30 1308 H 114.813 -4.21037 -0.174814 0
M  V30 1309 H 113.537 -3.15749 -0.834877 0
M  V30 1310 H 112.196 -3.43549 1.27944 0
M  V30 1311 H 111.844 -4.98788 -0.649545 0
M  V30 1312 H 111.544 -5.806 0.904258 0
M  V30 1313 H 113.068 -6.10596 0.021396 0
M  V30 1314 H 114.482 -5.3144 2.15045 0
M  V30 1315 H 112.879 -5.23293 2.93743 0
M  V30 1316 H 113.949 -3.82023 2.98641 0
M  V30 1317 N 115.292 -0.849877 -1.32721 0
M  V30 1318 C 116.239 -0.289033 -2.28983 0
M  V30 1319 C 117.209 0.601324 -1.54833 0
M  V30 1320 O 118.394 0.537253 -1.8308 0
M  V30 1321 C 115.534 0.520623 -3.4115 0
M  V30 1322 C 114.647 -0.394989 -4.3019 0
M  V30 1323 C 113.782 0.426834 -5.29482 0
M  V30 1324 C 112.821 -0.486476 -6.10164 0
M  V30 1325 N 111.958 0.297879 -7.01468 0
M  V30 1326 H 116.798 -1.11519 -2.76347 0
M  V30 1327 H 114.335 -0.56138 -1.35967 0
M  V30 1328 H 116.293 1.00563 -4.04899 0
M  V30 1329 H 114.923 1.31165 -2.9495 0
M  V30 1330 H 113.975 -0.99836 -3.67065 0
M  V30 1331 H 115.287 -1.09612 -4.86607 0
M  V30 1332 H 114.441 0.975205 -5.98811 0
M  V30 1333 H 113.18 1.16136 -4.73671 0
M  V30 1334 H 112.185 -1.04677 -5.39743 0
M  V30 1335 H 113.41 -1.21953 -6.6806 0
M  V30 1336 H 111.356 1.01558 -6.48091 0
M  V30 1337 H 111.273 -0.344318 -7.55216 0
M  V30 1338 H 112.541 0.828131 -7.75089 0
M  V30 1339 N 116.77 1.45427 -0.607355 0
M  V30 1340 C 118 2.06314 -0.108656 0
M  V30 1341 C 118.408 1.45269 1.21217 0
M  V30 1342 O 117.751 0.561115 1.74921 0
M  V30 1343 C 117.813 3.59345 0.105618 0
M  V30 1344 C 117.477 4.42723 -1.13337 0
M  V30 1345 C 118.474 4.77715 -2.05145 0
M  V30 1346 C 116.159 4.83478 -1.36213 0
M  V30 1347 C 118.153 5.52317 -3.18158 0
M  V30 1348 C 115.84 5.57835 -2.49527 0
M  V30 1349 C 116.838 5.92171 -3.40327 0
M  V30 1350 O 116.526 6.65019 -4.51669 0
M  V30 1351 H 116.258 0.672782 -0.0658842 0
M  V30 1352 H 118.812 1.87664 -0.834945 0
M  V30 1353 H 117.042 3.76394 0.886796 0
M  V30 1354 H 118.731 4.02076 0.555886 0
M  V30 1355 H 119.497 4.46787 -1.88697 0
M  V30 1356 H 115.376 4.56188 -0.664362 0
M  V30 1357 H 118.92 5.79036 -3.89054 0
M  V30 1358 H 114.817 5.88177 -2.65928 0
M  V30 1359 H 115.585 6.83469 -4.50348 0
M  V30 1360 N 118.248 0.346503 1.53744 0
M  V30 1361 C 119.18 -0.543316 2.22667 0
M  V30 1362 C 120.193 -1.06159 1.23427 0
M  V30 1363 O 121.382 -0.971235 1.49764 0
M  V30 1364 C 118.482 -1.76076 2.89569 0
M  V30 1365 C 117.655 -1.37727 4.15151 0
M  V30 1366 C 116.714 -2.45471 4.65436 0
M  V30 1367 O 115.74 -2.08655 5.29577 0
M  V30 1368 N 116.942 -3.7677 4.41616 0
M  V30 1369 H 119.707 0.0469703 2.99663 0
M  V30 1370 H 117.268 0.170766 1.60997 0
M  V30 1371 H 119.26 -2.47593 3.20125 0
M  V30 1372 H 117.83 -2.25835 2.16142 0
M  V30 1373 H 117.05 -0.492746 3.91108 0
M  V30 1374 H 118.338 -1.09708 4.96832 0
M  V30 1375 H 117.736 -4.09467 3.90325 0
M  V30 1376 H 116.293 -4.44448 4.7677 0
M  V30 1377 N 119.726 -1.57421 0.075193 0
M  V30 1378 C 120.954 -1.97946 -0.602076 0
M  V30 1379 C 121.369 -0.953674 -1.62943 0
M  V30 1380 O 120.726 0.0592551 -1.82404 0
M  V30 1381 C 120.777 -3.38546 -1.26762 0
M  V30 1382 O 120.498 -4.37195 -0.281376 0
M  V30 1383 C 121.999 -3.93966 -2.03239 0
M  V30 1384 H 119.219 -0.650918 -0.162931 0
M  V30 1385 H 121.763 -2.03959 0.148601 0
M  V30 1386 H 119.918 -3.33609 -1.96936 0
M  V30 1387 H 120.332 -5.18975 -0.759267 0
M  V30 1388 H 121.806 -4.94555 -2.45193 0
M  V30 1389 H 122.283 -3.30693 -2.8903 0
M  V30 1390 H 122.889 -4.02315 -1.37924 0
M  V30 1391 N 121.204 0.198386 -1.56346 0
M  V30 1392 C 122.134 1.24865 -1.9731 0
M  V30 1393 C 123.115 1.47651 -0.844576 0
M  V30 1394 O 124.3 1.59444 -1.10866 0
M  V30 1395 C 121.43 2.59358 -2.30977 0
M  V30 1396 C 120.384 2.5119 -3.46537 0
M  V30 1397 C 119.71 3.89926 -3.65871 0
M  V30 1398 C 121.01 2.03977 -4.80823 0
M  V30 1399 H 122.704 0.908252 -2.85291 0
M  V30 1400 H 120.25 0.435462 -1.37258 0
M  V30 1401 H 122.203 3.33011 -2.58228 0
M  V30 1402 H 120.927 2.95132 -1.39874 0
M  V30 1403 H 119.586 1.79993 -3.19371 0
M  V30 1404 H 119.234 4.23046 -2.72105 0
M  V30 1405 H 118.934 3.85336 -4.4361 0
M  V30 1406 H 120.458 4.65205 -3.95495 0
M  V30 1407 H 121.872 2.67386 -5.07127 0
M  V30 1408 H 120.269 2.10397 -5.62008 0
M  V30 1409 H 121.339 0.992861 -4.74626 0
M  V30 1410 N 122.682 1.50554 0.465978 0
M  V30 1411 C 123.612 1.72722 1.57128 0
M  V30 1412 C 124.593 0.576294 1.6004 0
M  V30 1413 O 125.778 0.81598 1.76225 0
M  V30 1414 C 122.908 1.82605 2.95419 0
M  V30 1415 C 121.862 2.97835 3.07373 0
M  V30 1416 C 121.188 2.92867 4.47363 0
M  V30 1417 C 122.488 4.38265 2.84114 0
M  V30 1418 H 124.182 2.65267 1.38829 0
M  V30 1419 H 121.728 1.2765 0.666441 0
M  V30 1420 H 123.681 1.96698 3.72677 0
M  V30 1421 H 122.405 0.866858 3.14886 0
M  V30 1422 H 121.064 2.83401 2.3255 0
M  V30 1423 H 120.712 1.94783 4.63755 0
M  V30 1424 H 120.412 3.70227 4.56296 0
M  V30 1425 H 121.936 3.09015 5.26633 0
M  V30 1426 H 123.35 4.53198 3.51118 0
M  V30 1427 H 121.747 5.17115 3.04487 0
M  V30 1428 H 122.817 4.50281 1.7993 0
M  V30 1429 N 124.16 -0.719506 1.40217 0
M  V30 1430 C 125.437 -1.47221 1.28784 0
M  V30 1431 C 125.817 -2.10883 -0.0956067 0
M  V30 1432 O 125.165 -1.99833 -1.10811 0
M  V30 1433 C 125.375 -2.5111 2.42373 0
M  V30 1434 C 126.723 -3.17053 2.82423 0
M  V30 1435 O 127.747 -2.61429 2.41937 0
M  V30 1436 O 126.606 -4.17742 3.52355 0
M  V30 1437 H 123.7 -0.654491 0.50554 0
M  V30 1438 H 126.246 -0.752014 1.52128 0
M  V30 1439 H 125.018 -2.02556 3.34793 0
M  V30 1440 H 124.641 -3.3067 2.20778 0
M  V30 1441 N 125.638 -1.25649 -0.95132 0
M  V30 1442 C 126.863 -1.13443 -1.73624 0
M  V30 1443 C 127.288 0.307565 -1.85568 0
M  V30 1444 O 126.646 1.22282 -1.33854 0
M  V30 1445 C 126.694 -1.79723 -3.12621 0
M  V30 1446 O 125.798 -1.07912 -3.98031 0
M  V30 1447 H 125.139 -0.395872 -0.533086 0
M  V30 1448 H 127.669 -1.66276 -1.1922 0
M  V30 1449 H 127.679 -1.86141 -3.63064 0
M  V30 1450 H 126.354 -2.84633 -3.03244 0
M  V30 1451 H 124.931 -1.09398 -3.56492 0
M  V30 1452 N 127.117 1.15442 -1.07289 0
M  V30 1453 C 128.366 1.85557 -0.790669 0
M  V30 1454 C 128.679 1.83186 0.685739 0
M  V30 1455 O 129.885 2.48977 1.0827 0
M  V30 1456 C 128.341 3.33038 -1.36433 0
M  V30 1457 C 127.949 3.43856 -2.8717 0
M  V30 1458 C 129.693 4.0834 -1.1601 0
M  V30 1459 C 127.6 4.85482 -3.3773 0
M  V30 1460 H 126.53 0.695122 -0.292098 0
M  V30 1461 H 129.181 1.30219 -1.29287 0
M  V30 1462 H 127.563 3.88043 -0.789864 0
M  V30 1463 H 128.737 2.98961 -3.50655 0
M  V30 1464 H 127.052 2.81998 -3.06376 0
M  V30 1465 H 129.649 5.12859 -1.51262 0
M  V30 1466 H 129.992 4.16182 -0.0991007 0
M  V30 1467 H 130.525 3.59603 -1.70089 0
M  V30 1468 H 127.264 4.82823 -4.43353 0
M  V30 1469 H 126.784 5.30961 -2.78999 0
M  V30 1470 H 128.463 5.54335 -3.33648 0
M  V30 1471 N 128.595 0.856903 1.32268 0
M  V30 1472 C 129.527 0.260412 2.27716 0
M  V30 1473 C 130.54 -0.569137 1.52528 0
M  V30 1474 O 131.729 -0.39326 1.74114 0
M  V30 1475 C 128.829 -0.650477 3.32599 0
M  V30 1476 C 128.002 0.14372 4.37164 0
M  V30 1477 C 127.061 -0.69328 5.21613 0
M  V30 1478 O 126.087 -0.12599 5.69061 0
M  V30 1479 N 127.289 -2.00761 5.44679 0
M  V30 1480 H 130.054 1.08059 2.79541 0
M  V30 1481 H 127.615 0.717103 1.45152 0
M  V30 1482 H 129.607 -1.21581 3.86005 0
M  V30 1483 H 128.177 -1.37133 2.80915 0
M  V30 1484 H 127.397 0.890486 3.8401 0
M  V30 1485 H 128.685 0.68915 5.04111 0
M  V30 1486 H 128.083 -2.49181 5.07863 0
M  V30 1487 H 126.64 -2.52103 6.01072 0
M  V30 1488 N 130.073 -1.45103 0.615059 0
M  V30 1489 C 131.321 -2.01784 0.112955 0
M  V30 1490 C 131.642 -1.48504 -1.26378 0
M  V30 1491 O 130.912 -0.682245 -1.83636 0
M  V30 1492 H 129.492 -0.745993 0.0387668 0
M  V30 1493 H 132.154 -1.77808 0.798141 0
M  V30 1494 H 131.25 -3.12025 0.0684069 0
M  V30 1495 N 131.551 -0.354651 -1.53558 0
M  V30 1496 C 132.967 -0.00315426 -1.596 0
M  V30 1497 C 133.167 1.47741 -1.37021 0
M  V30 1498 O 132.223 2.23759 -1.16996 0
M  V30 1499 C 133.536 -0.44929 -2.97325 0
M  V30 1500 C 135.084 -0.402578 -3.104 0
M  V30 1501 C 135.559 -0.824355 -4.5052 0
M  V30 1502 N 137.05 -0.778979 -4.56603 0
M  V30 1503 C 137.785 -1.07715 -5.63192 0
M  V30 1504 N 137.281 -1.44405 -6.77583 0
M  V30 1505 N 139.074 -1.00066 -5.53121 0
M  V30 1506 H 131.225 -1.31893 -1.66487 0
M  V30 1507 H 133.488 -0.538388 -0.780284 0
M  V30 1508 H 133.194 -1.48202 -3.1895 0
M  V30 1509 H 133.068 0.169772 -3.76818 0
M  V30 1510 H 135.455 0.621004 -2.88492 0
M  V30 1511 H 135.536 -1.05699 -2.32941 0
M  V30 1512 H 135.18 -1.846 -4.73165 0
M  V30 1513 H 135.11 -0.147304 -5.26394 0
M  V30 1514 H 137.601 -0.508528 -3.74463 0
M  V30 1515 H 137.914 -1.65612 -7.54846 0
M  V30 1516 H 136.259 -1.4826 -6.79002 0
M  V30 1517 H 139.45 -0.713293 -4.62633 0
M  V30 1518 H 139.623 -1.23638 -6.36096 0
M  V30 1519 N 133.029 1.57378 -0.0835403 0
M  V30 1520 C 134.254 1.98682 0.594987 0
M  V30 1521 C 134.679 0.961969 1.61641 0
M  V30 1522 O 134.037 -0.0709989 1.81161 0
M  V30 1523 C 134.085 3.38988 1.2296 0
M  V30 1524 O 133.189 3.39208 2.34546 0
M  V30 1525 H 132.53 0.646368 0.152002 0
M  V30 1526 H 135.06 2.03961 -0.161533 0
M  V30 1527 H 135.07 3.76431 1.57366 0
M  V30 1528 H 133.745 4.13107 0.481228 0
M  V30 1529 H 132.322 3.13548 2.01846 0
M  V30 1530 N 134.507 -0.190092 1.56449 0
M  V30 1531 C 135.918 -0.754312 1.70784 0
M  V30 1532 C 136.269 -1.83631 0.690951 0
M  V30 1533 O 135.394 -2.15868 -0.151604 0
M  V30 1534 C 135.989 -1.37503 3.09642 0
M  V30 1535 C 134.548 -1.88628 3.25725 0
M  V30 1536 C 133.695 -0.758098 2.66736 0
M  V30 1537 H 136.646 0.0350524 1.58661 0
M  V30 1538 H 136.667 -2.2445 3.0725 0
M  V30 1539 H 136.179 -0.587302 3.83631 0
M  V30 1540 H 134.28 -2.70103 2.56661 0
M  V30 1541 H 134.393 -2.04462 4.3328 0
M  V30 1542 H 132.757 -1.17369 2.26046 0
M  V30 1543 H 133.54 0.0174705 3.43296 0
M  V30 1544 N 135.985 -1.50799 -0.457987 0
M  V30 1545 C 136.933 -1.71162 -1.575 0
M  V30 1546 C 137.927 -0.577592 -1.59249 0
M  V30 1547 O 139.133 -0.758443 -1.63241 0
M  V30 1548 H 135.508 -0.540468 -0.522875 0
M  V30 1549 H 137.479 -2.64837 -1.37492 0
M  V30 1550 C 136.228 -1.83496 -2.95338 0
M  V30 1551 H 135.551 -2.70153 -2.94716 0
M  V30 1552 H 136.991 -2.01765 -3.72917 0
M  V30 1553 C 135.45 -0.589694 -3.31699 0
M  V30 1554 O 135.98 0.265163 -4.00824 0
M  V30 1555 N 134.186 -0.439845 -2.87252 0
M  V30 1556 H 133.733 -1.13655 -2.31172 0
M  V30 1557 H 133.691 0.392159 -3.11945 0
M  V30 1558 N 137.463 0.71206 -1.40597 0
M  V30 1559 C 138.709 1.47416 -1.39271 0
M  V30 1560 C 139.042 1.942 0.00388791 0
M  V30 1561 O 138.317 1.68403 0.973179 0
M  V30 1562 C 138.6 2.69774 -2.38525 0
M  V30 1563 C 138.453 2.28861 -3.87224 0
M  V30 1564 C 139.772 3.71939 -2.35264 0
M  V30 1565 H 136.891 0.534713 -0.5072 0
M  V30 1566 H 139.533 0.812375 -1.71757 0
M  V30 1567 H 137.683 3.26238 -2.10953 0
M  V30 1568 H 139.355 1.77852 -4.25636 0
M  V30 1569 H 137.598 1.60824 -4.02887 0
M  V30 1570 H 138.269 3.16584 -4.52193 0
M  V30 1571 H 140.745 3.25113 -2.59694 0
M  V30 1572 H 139.621 4.55186 -3.06753 0
M  V30 1573 H 139.882 4.20484 -1.36549 0
M  V30 1574 N 138.941 1.26152 0.944643 0
M  V30 1575 C 139.904 1.07474 2.0244 0
M  V30 1576 C 140.904 0.0242064 1.60782 0
M  V30 1577 O 142.094 0.267302 1.72137 0
M  V30 1578 C 139.226 0.633956 3.34953 0
M  V30 1579 H 140.419 2.03336 2.20442 0
M  V30 1580 H 137.972 1.087 1.12312 0
M  V30 1581 H 138.707 -0.326811 3.22649 0
M  V30 1582 H 138.492 1.39247 3.66542 0
M  V30 1583 H 139.982 0.52501 4.14287 0
M  V30 1584 N 140.419 -1.14872 1.07899 0
M  V30 1585 C 141.349 -2.2193 0.725887 0
M  V30 1586 C 142.33 -1.67622 -0.28927 0
M  V30 1587 O 143.515 -1.93533 -0.160787 0
M  V30 1588 C 140.645 -3.47061 0.128856 0
M  V30 1589 C 139.599 -4.14363 1.07178 0
M  V30 1590 C 138.925 -5.33636 0.337229 0
M  V30 1591 C 140.225 -4.63492 2.40775 0
M  V30 1592 H 141.919 -2.51724 1.62097 0
M  V30 1593 H 139.465 -1.20991 0.780838 0
M  V30 1594 H 141.418 -4.21199 -0.130147 0
M  V30 1595 H 140.142 -3.16617 -0.80134 0
M  V30 1596 H 138.801 -3.42173 1.3158 0
M  V30 1597 H 138.449 -4.99449 -0.596606 0
M  V30 1598 H 138.149 -5.79609 0.965788 0
M  V30 1599 H 139.673 -6.10539 0.0861567 0
M  V30 1600 H 141.087 -5.2913 2.20669 0
M  V30 1601 H 139.484 -5.20148 2.99276 0
M  V30 1602 H 140.554 -3.78834 3.02676 0
M  V30 1603 N 141.898 -0.863906 -1.31812 0
M  V30 1604 C 142.828 -0.330843 -2.31144 0
M  V30 1605 C 143.809 0.575005 -1.60087 0
M  V30 1606 O 144.994 0.493304 -1.8783 0
M  V30 1607 C 142.124 0.47374 -3.44054 0
M  V30 1608 C 141.078 -0.338481 -4.26659 0
M  V30 1609 C 140.404 0.591412 -5.31419 0
M  V30 1610 C 141.704 -1.56926 -4.98168 0
M  V30 1611 H 143.398 -1.16086 -2.75979 0
M  V30 1612 H 140.944 -0.559657 -1.32679 0
M  V30 1613 H 142.897 0.857143 -4.12591 0
M  V30 1614 H 141.621 1.33721 -2.9797 0
M  V30 1615 H 140.28 -0.703754 -3.59782 0
M  V30 1616 H 139.928 1.45199 -4.81587 0
M  V30 1617 H 139.628 0.0519022 -5.87577 0
M  V30 1618 H 141.152 0.97179 -6.02817 0
M  V30 1619 H 142.566 -1.25764 -5.59336 0
M  V30 1620 H 140.963 -2.04739 -5.64094 0
M  V30 1621 H 142.033 -2.32544 -4.25501 0
M  V30 1622 N 143.376 1.44774 -0.622745 0
M  V30 1623 C 144.787 1.85546 -0.207226 0
M  V30 1624 C 145.138 1.52093 1.23944 0
M  V30 1625 O 144.263 0.95492 1.94191 0
M  V30 1626 C 144.858 3.36781 -0.369313 0
M  V30 1627 C 143.417 3.76399 -0.00836847 0
M  V30 1628 C 142.564 2.68664 -0.686651 0
M  V30 1629 H 145.515 1.3536 -0.828454 0
M  V30 1630 H 145.536 3.78453 0.394162 0
M  V30 1631 H 145.048 3.61098 -1.42231 0
M  V30 1632 H 143.149 3.57698 1.04322 0
M  V30 1633 H 143.262 4.7732 -0.412584 0
M  V30 1634 H 141.626 2.54404 -0.122777 0
M  V30 1635 H 142.409 2.95815 -1.74208 0
M  V30 1636 N 144.854 0.36279 1.53368 0
M  V30 1637 C 145.784 -0.476976 2.28576 0
M  V30 1638 C 146.765 -1.08631 1.30894 0
M  V30 1639 O 147.95 -1.10409 1.59761 0
M  V30 1640 C 145.08 -1.61828 3.07293 0
M  V30 1641 C 144.034 -1.13633 4.1264 0
M  V30 1642 C 143.36 -2.36766 4.79423 0
M  V30 1643 C 144.66 -0.223061 5.21823 0
M  V30 1644 H 146.354 0.150474 2.99022 0
M  V30 1645 H 143.9 0.0738103 1.43811 0
M  V30 1646 H 145.853 -2.21237 3.58653 0
M  V30 1647 H 144.577 -2.27292 2.34533 0
M  V30 1648 H 143.236 -0.564945 3.62221 0
M  V30 1649 H 142.884 -3.0068 4.03238 0
M  V30 1650 H 142.584 -2.05192 5.50609 0
M  V30 1651 H 144.108 -2.96865 5.33576 0
M  V30 1652 H 145.522 -0.724545 5.68703 0
M  V30 1653 H 143.919 0.001678 6.001 0
M  V30 1654 H 144.989 0.735553 4.79289 0
M  V30 1655 N 146.332 -1.57332 0.0918853 0
M  V30 1656 C 147.581 -1.93412 -0.572249 0
M  V30 1657 C 147.894 -0.975515 -1.69538 0
M  V30 1658 O 149.1 -1.22991 -2.42045 0
M  V30 1659 C 147.556 -3.43648 -1.0693 0
M  V30 1660 C 147.164 -4.47994 0.0239049 0
M  V30 1661 C 148.908 -3.88695 -1.70635 0
M  V30 1662 C 146.815 -5.89381 -0.488319 0
M  V30 1663 H 145.745 -0.721939 -0.217532 0
M  V30 1664 H 148.396 -1.82735 0.167369 0
M  V30 1665 H 146.778 -3.49466 -1.8625 0
M  V30 1666 H 147.952 -4.53815 0.799277 0
M  V30 1667 H 146.267 -4.12536 0.565946 0
M  V30 1668 H 148.864 -4.91725 -2.10025 0
M  V30 1669 H 149.207 -3.27166 -2.57426 0
M  V30 1670 H 149.74 -3.85564 -0.979023 0
M  V30 1671 H 146.479 -6.54602 0.342906 0
M  V30 1672 H 145.999 -5.87037 -1.23077 0
M  V30 1673 H 147.678 -6.39863 -0.958317 0
M  V30 1674 N 147.81 0.181792 -1.56548 0
M  V30 1675 C 149.035 0.920019 -1.85877 0
M  V30 1676 C 149.46 1.75494 -0.677021 0
M  V30 1677 O 148.818 1.77399 0.374056 0
M  V30 1678 C 148.866 1.78112 -3.13542 0
M  V30 1679 O 147.97 2.88152 -2.95029 0
M  V30 1680 H 147.311 0.258334 -0.611686 0
M  V30 1681 H 149.841 0.183092 -2.03779 0
M  V30 1682 H 149.851 2.18314 -3.44678 0
M  V30 1683 H 148.526 1.16777 -3.99169 0
M  V30 1684 H 147.103 2.51609 -2.75222 0
M  V30 1685 N 149.288 1.51039 0.449983 0
M  V30 1686 C 150.537 1.62317 1.19733 0
M  V30 1687 C 150.85 0.339101 1.92638 0
M  V30 1688 O 152.056 0.331069 2.69474 0
M  V30 1689 C 150.512 2.86608 2.17678 0
M  V30 1690 C 150.12 4.21972 1.50479 0
M  V30 1691 C 151.864 3.07239 2.92924 0
M  V30 1692 C 149.771 5.37426 2.46834 0
M  V30 1693 H 148.701 0.604532 0.450619 0
M  V30 1694 H 151.352 1.77494 0.465625 0
M  V30 1695 H 149.734 2.65037 2.94231 0
M  V30 1696 H 150.908 4.53878 0.795716 0
M  V30 1697 H 149.223 4.07117 0.874344 0
M  V30 1698 H 151.82 3.90668 3.65079 0
M  V30 1699 H 152.163 2.19807 3.5354 0
M  V30 1700 H 152.696 3.29091 2.23481 0
M  V30 1701 H 149.435 6.27079 1.90926 0
M  V30 1702 H 148.955 5.09912 3.15832 0
M  V30 1703 H 150.634 5.68862 3.08228 0
M  V30 1704 N 150.766 -0.704594 1.40972 0
M  V30 1705 C 152.177 -1.28418 1.3552 0
M  V30 1706 C 152.528 -1.96171 0.0339434 0
M  V30 1707 O 151.653 -1.98231 -0.867944 0
M  V30 1708 C 152.248 -2.33528 2.45459 0
M  V30 1709 C 150.807 -2.87085 2.43433 0
M  V30 1710 C 149.954 -1.61007 2.2577 0
M  V30 1711 H 152.905 -0.499963 1.50619 0
M  V30 1712 H 152.926 -3.14619 2.13998 0
M  V30 1713 H 152.438 -1.84187 3.41609 0
M  V30 1714 H 150.539 -3.40626 1.51013 0
M  V30 1715 H 150.652 -3.3813 3.39419 0
M  V30 1716 H 149.016 -1.86482 1.73483 0
M  V30 1717 H 149.799 -1.13675 3.23933 0
M  V30 1718 N 152.244 -1.26651 -0.937939 0
M  V30 1719 C 153.154 -1.10276 -2.07066 0
M  V30 1720 C 154.17 -0.0354197 -1.73964 0
M  V30 1721 O 155.346 -0.239816 -1.99967 0
M  V30 1722 C 152.411 -0.740887 -3.38691 0
M  V30 1723 C 151.472 -1.88799 -3.85556 0
M  V30 1724 C 150.705 -1.54329 -5.10899 0
M  V30 1725 O 150.928 -0.446494 -5.6865 0
M  V30 1726 O 149.862 -2.37911 -5.52885 0
M  V30 1727 H 153.688 -2.05309 -2.23789 0
M  V30 1728 H 151.273 -1.05743 -1.0554 0
M  V30 1729 H 153.155 -0.55195 -4.1777 0
M  V30 1730 H 151.83 0.180022 -3.23199 0
M  V30 1731 H 150.737 -2.13191 -3.07409 0
M  V30 1732 H 152.07 -2.78874 -4.05574 0
M  V30 1733 N 153.722 1.14298 -1.08507 0
M  V30 1734 C 154.652 2.21542 -0.737646 0
M  V30 1735 C 155.633 1.67773 0.280377 0
M  V30 1736 O 156.818 1.93616 0.150521 0
M  V30 1737 C 153.948 3.46988 -0.147259 0
M  V30 1738 C 152.902 4.13789 -1.09374 0
M  V30 1739 C 152.228 5.33449 -0.365524 0
M  V30 1740 C 153.528 4.62208 -2.4323 0
M  V30 1741 H 155.222 2.5086 -1.6343 0
M  V30 1742 H 152.768 1.20576 -0.787243 0
M  V30 1743 H 154.721 4.21262 0.107808 0
M  V30 1744 H 153.445 3.17037 0.784538 0
M  V30 1745 H 152.104 3.4147 -1.33393 0
M  V30 1746 H 151.752 4.99759 0.57011 0
M  V30 1747 H 151.452 5.79088 -0.996512 0
M  V30 1748 H 152.976 6.10485 -0.118534 0
M  V30 1749 H 154.39 5.27952 -2.23472 0
M  V30 1750 H 152.787 5.18553 -3.02031 0
M  V30 1751 H 153.857 3.77224 -3.04681 0
M  V30 1752 N 155.201 0.870884 1.31352 0
M  V30 1753 C 156.111 0.330783 2.32256 0
M  V30 1754 C 157.127 -0.559767 1.6475 0
M  V30 1755 O 158.303 -0.456263 1.96164 0
M  V30 1756 C 155.368 -0.458137 3.4366 0
M  V30 1757 C 154.429 0.460482 4.26823 0
M  V30 1758 C 153.662 -0.290881 5.32907 0
M  V30 1759 O 153.885 -1.51885 5.49806 0
M  V30 1760 O 152.819 0.351732 6.00871 0
M  V30 1761 H 156.645 1.16718 2.80376 0
M  V30 1762 H 154.23 0.634285 1.35267 0
M  V30 1763 H 156.112 -0.905343 4.1156 0
M  V30 1764 H 154.787 -1.27106 2.97701 0
M  V30 1765 H 153.694 0.956207 3.61673 0
M  V30 1766 H 155.027 1.23903 4.7635 0
M  V30 1767 N 156.679 -1.44442 0.630414 0
M  V30 1768 C 157.907 -2.06414 0.141671 0
M  V30 1769 C 158.322 -1.47105 -1.18345 0
M  V30 1770 O 157.679 -0.593662 -1.72574 0
M  V30 1771 C 157.73 -3.61494 0.0199784 0
M  V30 1772 O 157.451 -4.18594 1.29269 0
M  V30 1773 C 158.952 -4.40499 -0.497544 0
M  V30 1774 H 156.172 -0.666292 0.0793452 0
M  V30 1775 H 158.716 -1.85323 0.864614 0
M  V30 1776 H 156.871 -3.8185 -0.653402 0
M  V30 1777 H 157.285 -5.12026 1.13707 0
M  V30 1778 H 158.759 -5.49433 -0.531708 0
M  V30 1779 H 159.236 -4.11895 -1.52445 0
M  V30 1780 H 159.842 -4.25061 0.142562 0
M  V30 1781 N 158.157 -0.370918 -1.53173 0
M  V30 1782 C 159.403 0.209976 -2.02313 0
M  V30 1783 C 159.758 1.45987 -1.25322 0
M  V30 1784 O 159.051 1.8856 -0.339965 0
M  V30 1785 C 159.245 0.549696 -3.53147 0
M  V30 1786 C 159.074 -0.665721 -4.44745 0
M  V30 1787 C 157.844 -1.17942 -4.91343 0
M  V30 1788 C 160.042 -1.53255 -4.90935 0
M  V30 1789 N 158.024 -2.35431 -5.66962 0
M  V30 1790 C 159.395 -2.55403 -5.64951 0
M  V30 1791 C 161.45 -1.5548 -4.73002 0
M  V30 1792 C 160.153 -3.5964 -6.22938 0
M  V30 1793 C 162.179 -2.58613 -5.31858 0
M  V30 1794 C 161.541 -3.59485 -6.05764 0
M  V30 1795 H 157.64 0.0394095 -0.781006 0
M  V30 1796 H 160.224 -0.516666 -1.8772 0
M  V30 1797 H 158.395 1.24541 -3.67891 0
M  V30 1798 H 160.127 1.11614 -3.89004 0
M  V30 1799 H 156.882 -0.743228 -4.67732 0
M  V30 1800 H 157.306 -2.94827 -6.09431 0
M  V30 1801 H 161.948 -0.788457 -4.15383 0
M  V30 1802 H 159.666 -4.37153 -6.79649 0
M  V30 1803 H 163.252 -2.61195 -5.19873 0
M  V30 1804 H 162.132 -4.3798 -6.50495 0
M  V30 1805 N 159.635 1.57281 -0.100228 0
M  V30 1806 C 160.881 1.94826 0.563101 0
M  V30 1807 C 161.214 0.982475 1.67514 0
M  V30 1808 O 160.489 0.0164069 1.94493 0
M  V30 1809 C 160.772 3.42453 1.11346 0
M  V30 1810 C 160.625 4.498 0.00612081 0
M  V30 1811 C 161.944 3.91506 2.01024 0
M  V30 1812 H 159.063 0.708428 0.203221 0
M  V30 1813 H 161.705 1.8922 -0.171979 0
M  V30 1814 H 159.855 3.47361 1.7399 0
M  V30 1815 H 161.527 4.57 -0.628357 0
M  V30 1816 H 159.77 4.28756 -0.659581 0
M  V30 1817 H 160.441 5.50306 0.432109 0
M  V30 1818 H 162.917 3.88784 1.48278 0
M  V30 1819 H 161.793 4.95358 2.36457 0
M  V30 1820 H 162.054 3.31099 2.92961 0
M  V30 1821 N 161.113 -0.173488 1.56642 0
M  V30 1822 C 162.023 -1.23482 1.99473 0
M  V30 1823 C 163.039 -1.48567 0.905752 0
M  V30 1824 O 164.215 -1.60758 1.21321 0
M  V30 1825 C 161.28 -2.55444 2.34413 0
M  V30 1826 C 160.341 -2.38241 3.57127 0
M  V30 1827 C 159.574 -3.63909 3.90392 0
M  V30 1828 O 159.797 -4.68996 3.24653 0
M  V30 1829 O 158.731 -3.58149 4.83749 0
M  V30 1830 H 162.557 -0.901279 2.90018 0
M  V30 1831 H 160.142 -0.380185 1.44482 0
M  V30 1832 H 162.024 -3.33292 2.57865 0
M  V30 1833 H 160.699 -2.88382 1.4703 0
M  V30 1834 H 159.606 -1.58431 3.38896 0
M  V30 1835 H 160.939 -2.10228 4.45045 0
M  V30 1836 N 162.591 -1.51276 -0.441967 0
M  V30 1837 C 163.819 -1.67516 -1.21434 0
M  V30 1838 C 164.234 -0.37055 -1.85128 0
M  V30 1839 O 163.591 0.650498 -1.70513 0
M  V30 1840 C 163.642 -2.78748 -2.30177 0
M  V30 1841 O 163.363 -4.04154 -1.69089 0
M  V30 1842 C 164.864 -3.06217 -3.20541 0
M  V30 1843 H 162.084 -0.562276 -0.366178 0
M  V30 1844 H 164.628 -1.97666 -0.524244 0
M  V30 1845 H 162.783 -2.5121 -2.94911 0
M  V30 1846 H 163.197 -4.65894 -2.40922 0
M  V30 1847 H 164.671 -3.8764 -3.92987 0
M  V30 1848 H 165.148 -2.18439 -3.81026 0
M  V30 1849 H 165.754 -3.35397 -2.61513 0
M  V30 1850 N 164.069 0.697108 -1.41344 0
M  V30 1851 C 165.315 1.45796 -1.41828 0
M  V30 1852 C 165.67 1.92382 -0.0261743 0
M  V30 1853 O 164.963 1.66522 0.947688 0
M  V30 1854 C 165.157 2.68553 -2.35826 0
M  V30 1855 C 164.986 2.33975 -3.84039 0
M  V30 1856 C 163.756 2.24414 -4.52732 0
M  V30 1857 C 165.954 1.97048 -4.75054 0
M  V30 1858 N 163.936 1.82705 -5.86082 0
M  V30 1859 C 165.307 1.66086 -5.9734 0
M  V30 1860 C 167.362 1.83845 -4.62715 0
M  V30 1861 C 166.065 1.23246 -7.08663 0
M  V30 1862 C 168.091 1.4241 -5.73998 0
M  V30 1863 C 167.453 1.12357 -6.95381 0
M  V30 1864 H 163.552 0.530859 -0.574206 0
M  V30 1865 H 166.136 0.806674 -1.77203 0
M  V30 1866 H 164.307 3.31404 -2.02549 0
M  V30 1867 H 166.039 3.35015 -2.2704 0
M  V30 1868 H 162.794 2.4276 -4.0665 0
M  V30 1869 H 163.218 1.64337 -6.56751 0
M  V30 1870 H 167.86 2.05734 -3.69369 0
M  V30 1871 H 165.578 1.00102 -8.01876 0
M  V30 1872 H 169.164 1.32746 -5.66454 0
M  V30 1873 H 168.044 0.807795 -7.80028 0
M  V30 1874 N 165.547 1.27147 0.931209 0
M  V30 1875 C 166.51 1.09615 2.01289 0
M  V30 1876 C 167.51 0.0412581 1.60747 0
M  V30 1877 O 168.7 0.285545 1.71844 0
M  V30 1878 C 165.832 0.669447 3.34262 0
M  V30 1879 H 167.025 2.05662 2.18273 0
M  V30 1880 H 164.578 1.09885 1.11153 0
M  V30 1881 H 165.313 -0.292572 3.22978 0
M  V30 1882 H 165.098 1.43127 3.65044 0
M  V30 1883 H 166.588 0.568921 4.13706 0
M  V30 1884 N 167.025 -1.13721 1.09112 0
M  V30 1885 C 168.272 -1.84924 0.825192 0
M  V30 1886 C 168.6 -1.83347 -0.649151 0
M  V30 1887 O 167.855 -1.26449 -1.49362 0
M  V30 1888 C 168.154 -3.32861 1.30146 0
M  V30 1889 C 167.82 -3.54621 2.78486 0
M  V30 1890 C 166.482 -3.60268 3.18999 0
M  V30 1891 C 168.834 -3.62855 3.74146 0
M  V30 1892 C 166.162 -3.71679 4.53951 0
M  V30 1893 C 168.514 -3.75793 5.08883 0
M  V30 1894 C 167.178 -3.79692 5.4899 0
M  V30 1895 H 166.448 -0.676684 0.301959 0
M  V30 1896 H 169.095 -1.3428 1.36533 0
M  V30 1897 H 167.4 -3.85835 0.681064 0
M  V30 1898 H 169.097 -3.86395 1.07236 0
M  V30 1899 H 165.687 -3.50879 2.46134 0
M  V30 1900 H 169.871 -3.57775 3.43963 0
M  V30 1901 H 165.127 -3.72963 4.84467 0
M  V30 1902 H 169.301 -3.81107 5.82864 0
M  V30 1903 H 166.928 -3.88287 6.53558 0
M  V30 1904 N 168.503 -0.877838 -1.30888 0
M  V30 1905 C 169.728 -0.506629 -2.01117 0
M  V30 1906 C 170.153 0.895564 -1.65412 0
M  V30 1907 O 169.511 1.5923 -0.866922 0
M  V30 1908 C 169.559 -0.680223 -3.54126 0
M  V30 1909 O 168.663 0.277033 -4.11468 0
M  V30 1910 H 168.004 -0.200518 -0.633 0
M  V30 1911 H 170.534 -1.18342 -1.66902 0
M  V30 1912 H 170.544 -0.5765 -4.03907 0
M  V30 1913 H 169.219 -1.70261 -3.79452 0
M  V30 1914 H 167.796 0.127606 -3.72682 0
M  V30 1915 N 169.982 1.44106 -0.638065 0
M  V30 1916 C 170.892 2.34513 0.0637334 0
M  V30 1917 C 171.908 1.53018 0.828346 0
M  V30 1918 O 173.084 1.85723 0.779036 0
M  V30 1919 C 170.149 3.31095 1.02844 0
M  V30 1920 C 169.21 4.28497 0.26244 0
M  V30 1921 C 168.443 5.20465 1.1812 0
M  V30 1922 O 168.666 5.16514 2.42011 0
M  V30 1923 O 167.6 5.98251 0.661774 0
M  V30 1924 H 171.426 2.95989 -0.68003 0
M  V30 1925 H 169.011 1.43994 -0.398252 0
M  V30 1926 H 170.893 3.90526 1.58327 0
M  V30 1927 H 169.568 2.72144 1.7527 0
M  V30 1928 H 168.475 3.72592 -0.335602 0
M  V30 1929 H 169.808 4.90388 -0.421936 0
M  V30 1930 N 171.46 0.379036 1.52974 0
M  V30 1931 C 172.688 -0.20679 2.05864 0
M  V30 1932 C 173.103 -1.41356 1.25155 0
M  V30 1933 O 172.46 -1.8009 0.295588 0
M  V30 1934 C 172.511 -0.587045 3.56702 0
M  V30 1935 O 172.232 0.571776 4.34353 0
M  V30 1936 C 173.733 -1.22983 4.25899 0
M  V30 1937 H 170.953 -0.0336123 0.670158 0
M  V30 1938 H 173.497 0.541298 1.97206 0
M  V30 1939 H 171.652 -1.28504 3.65466 0
M  V30 1940 H 172.066 0.261544 5.23847 0
M  V30 1941 H 173.54 -1.44635 5.32715 0
M  V30 1942 H 174.017 -2.19416 3.80465 0
M  V30 1943 H 174.623 -0.572892 4.21424 0
M  V30 1944 N 172.938 -1.57226 0.108567 0
M  V30 1945 C 174.187 -1.94008 -0.551703 0
M  V30 1946 C 174.5 -0.993442 -1.68494 0
M  V30 1947 O 175.706 -1.25551 -2.40726 0
M  V30 1948 C 174.162 -3.44763 -1.03279 0
M  V30 1949 C 173.77 -4.47943 0.0714193 0
M  V30 1950 C 175.514 -3.90483 -1.66503 0
M  V30 1951 C 173.421 -5.89865 -0.425779 0
M  V30 1952 H 172.351 -0.724206 -0.209863 0
M  V30 1953 H 175.002 -1.82547 0.186741 0
M  V30 1954 H 173.384 -3.51422 -1.82533 0
M  V30 1955 H 174.558 -4.52942 0.847365 0
M  V30 1956 H 172.873 -4.11913 0.609669 0
M  V30 1957 H 175.47 -4.93925 -2.04798 0
M  V30 1958 H 175.813 -3.29877 -2.53942 0
M  V30 1959 H 176.346 -3.86581 -0.938074 0
M  V30 1960 H 173.085 -6.54202 0.412316 0
M  V30 1961 H 172.605 -5.88309 -1.16843 0
M  V30 1962 H 174.284 -6.40844 -0.890397 0
M  V30 1963 N 174.416 0.165178 -1.56732 0
M  V30 1964 C 175.366 1.20917 -1.93295 0
M  V30 1965 C 176.35 1.39488 -0.801985 0
M  V30 1966 O 177.542 1.41356 -1.06525 0
M  V30 1967 C 174.671 2.54718 -2.3016 0
M  V30 1968 C 173.757 2.39815 -3.49785 0
M  V30 1969 N 174.148 1.94637 -4.66851 0
M  V30 1970 C 172.446 2.70623 -3.54513 0
M  V30 1971 C 173.147 1.92344 -5.4898 0
M  V30 1972 N 172.123 2.34978 -4.9019 0
M  V30 1973 H 175.925 0.851675 -2.81289 0
M  V30 1974 H 173.439 0.373399 -1.58049 0
M  V30 1975 H 175.436 3.30165 -2.54552 0
M  V30 1976 H 174.096 2.91265 -1.43508 0
M  V30 1977 H 175.107 1.6488 -4.90953 0
M  V30 1978 H 171.784 3.11167 -2.78354 0
M  V30 1979 H 173.174 1.5906 -6.52801 0
M  V30 1980 N 175.894 1.51508 0.433938 0
M  V30 1981 C 177.119 1.68443 1.21003 0
M  V30 1982 C 177.544 0.382636 1.84167 0
M  V30 1983 O 176.902 -0.65755 1.68956 0
M  V30 1984 C 176.95 2.80405 2.26727 0
M  V30 1985 O 176.054 2.44245 3.32292 0
M  V30 1986 H 175.395 0.561536 0.354363 0
M  V30 1987 H 177.925 1.9809 0.512024 0
M  V30 1988 H 177.935 3.0459 2.71457 0
M  V30 1989 H 176.61 3.74867 1.80132 0
M  V30 1990 H 175.187 2.30644 2.93015 0
M  V30 1991 N 177.372 -0.689602 1.41712 0
M  V30 1992 C 178.788 -1.00093 1.24312 0
M  V30 1993 C 178.988 -2.01036 0.136729 0
M  V30 1994 O 178.044 -2.47562 -0.496918 0
M  V30 1995 C 179.357 -1.51985 2.59463 0
M  V30 1996 C 180.905 -1.63838 2.66695 0
M  V30 1997 C 181.38 -2.1913 4.02177 0
M  V30 1998 N 182.871 -2.26483 4.04054 0
M  V30 1999 C 183.606 -2.70306 5.0569 0
M  V30 2000 N 183.102 -3.13691 6.17713 0
M  V30 2001 N 184.895 -2.69923 4.9305 0
M  V30 2002 H 177.046 -0.0210029 2.1239 0
M  V30 2003 H 179.309 -0.0718733 0.945272 0
M  V30 2004 H 179.015 -0.85269 3.41207 0
M  V30 2005 H 178.889 -2.50103 2.82362 0
M  V30 2006 H 181.276 -2.29664 1.85306 0
M  V30 2007 H 181.357 -0.642492 2.476 0
M  V30 2008 H 181.001 -1.53918 4.84016 0
M  V30 2009 H 180.931 -3.19482 4.18615 0
M  V30 2010 H 183.422 -1.95874 3.23174 0
M  V30 2011 H 183.735 -3.45773 6.9113 0
M  V30 2012 H 182.08 -3.11585 6.21241 0
M  V30 2013 H 185.271 -2.35382 4.04614 0
M  V30 2014 H 185.444 -3.03758 5.72394 0
M  V30 2015 N 178.85 -1.27639 -0.924453 0
M  V30 2016 C 180.075 -1.17101 -1.71179 0
M  V30 2017 C 180.5 0.268134 -1.86179 0
M  V30 2018 O 179.858 1.19415 -1.36418 0
M  V30 2019 C 179.906 -1.86313 -3.08739 0
M  V30 2020 O 179.01 -1.16331 -3.95652 0
M  V30 2021 H 178.351 -0.407091 -0.524569 0
M  V30 2022 H 180.881 -1.68767 -1.15666 0
M  V30 2023 H 180.891 -1.938 -3.59034 0
M  V30 2024 H 179.566 -2.91001 -2.97138 0
M  V30 2025 H 178.143 -1.16935 -3.54091 0
M  V30 2026 N 180.328 1.1314 -1.09713 0
M  V30 2027 C 181.558 1.88048 -0.855656 0
M  V30 2028 C 181.966 1.79537 0.596919 0
M  V30 2029 O 181.309 1.16196 1.42282 0
M  V30 2030 C 181.371 3.38314 -1.21589 0
M  V30 2031 C 181.035 3.70605 -2.67397 0
M  V30 2032 C 182.032 3.69596 -3.65643 0
M  V30 2033 C 179.717 4.0017 -3.03593 0
M  V30 2034 C 181.711 3.977 -4.9811 0
M  V30 2035 C 179.398 4.27935 -4.36251 0
M  V30 2036 C 180.396 4.26685 -5.33318 0
M  V30 2037 O 180.084 4.53767 -6.63589 0
M  V30 2038 H 179.816 0.60208 -0.307368 0
M  V30 2039 H 182.37 1.44128 -1.46343 0
M  V30 2040 H 180.6 3.82752 -0.551177 0
M  V30 2041 H 182.289 3.94552 -0.953083 0
M  V30 2042 H 183.055 3.46826 -3.39023 0
M  V30 2043 H 178.934 4.00289 -2.2867 0
M  V30 2044 H 182.478 3.9664 -5.73866 0
M  V30 2045 H 178.375 4.50178 -4.62613 0
M  V30 2046 H 179.143 4.71422 -6.69107 0
M  V30 2047 N 181.806 0.884767 1.30421 0
M  V30 2048 C 183.034 0.518044 2.0031 0
M  V30 2049 C 183.449 -0.893408 1.66324 0
M  V30 2050 O 182.806 -1.5875 0.900262 0
M  V30 2051 C 182.857 0.682997 3.54989 0
M  V30 2052 O 182.578 2.03888 3.87764 0
M  V30 2053 C 184.079 0.31924 4.42149 0
M  V30 2054 H 181.299 0.200265 0.640418 0
M  V30 2055 H 183.843 1.19001 1.6631 0
M  V30 2056 H 181.998 0.0584052 3.87356 0
M  V30 2057 H 182.412 2.05735 4.82466 0
M  V30 2058 H 183.886 0.485555 5.4986 0
M  V30 2059 H 184.363 -0.742717 4.32875 0
M  V30 2060 H 184.969 0.920147 4.15227 0
M  V30 2061 N 183.284 -1.43765 0.645699 0
M  V30 2062 C 184.234 -2.27884 -0.0726442 0
M  V30 2063 C 185.218 -1.39483 -0.802086 0
M  V30 2064 O 186.41 -1.63174 -0.685791 0
M  V30 2065 C 183.539 -3.27055 -1.04356 0
M  V30 2066 C 182.625 -4.22944 -0.312985 0
M  V30 2067 N 183.016 -5.01391 0.666386 0
M  V30 2068 C 181.314 -4.42528 -0.55546 0
M  V30 2069 C 182.015 -5.71217 1.09935 0
M  V30 2070 N 180.991 -5.41856 0.435137 0
M  V30 2071 H 184.793 -2.85949 0.678988 0
M  V30 2072 H 182.307 -1.55378 0.472368 0
M  V30 2073 H 184.304 -3.86089 -1.57292 0
M  V30 2074 H 182.964 -2.70551 -1.79534 0
M  V30 2075 H 183.975 -5.07252 1.04481 0
M  V30 2076 H 180.652 -3.97104 -1.28899 0
M  V30 2077 H 182.042 -6.44202 1.90929 0
M  V30 2078 N 184.763 -0.387143 -1.52771 0
M  V30 2079 C 186.012 0.19697 -2.00736 0
M  V30 2080 C 186.325 1.48082 -1.27793 0
M  V30 2081 O 187.531 2.14485 -1.66458 0
M  V30 2082 C 185.987 0.401568 -3.57653 0
M  V30 2083 C 185.595 -0.868907 -4.39493 0
M  V30 2084 C 187.339 0.942164 -4.13912 0
M  V30 2085 C 185.246 -0.632705 -5.88006 0
M  V30 2086 H 184.176 0.0773827 -0.750019 0
M  V30 2087 H 186.827 -0.50921 -1.76293 0
M  V30 2088 H 185.209 1.16954 -3.78335 0
M  V30 2089 H 186.383 -1.64133 -4.30577 0
M  V30 2090 H 184.698 -1.33429 -3.94443 0
M  V30 2091 H 187.295 1.13455 -5.22525 0
M  V30 2092 H 187.638 1.9106 -3.69867 0
M  V30 2093 H 188.171 0.233814 -3.97112 0
M  V30 2094 H 184.91 -1.57208 -6.36369 0
M  V30 2095 H 184.43 0.100825 -5.99715 0
M  V30 2096 H 186.109 -0.26642 -6.46451 0
M  V30 2097 N 186.241 1.57166 -0.116904 0
M  V30 2098 C 187.49 1.94298 0.541407 0
M  V30 2099 C 187.803 1.00236 1.67964 0
M  V30 2100 O 189.009 1.26826 2.40057 0
M  V30 2101 C 187.465 3.45306 1.01449 0
M  V30 2102 C 187.073 4.47899 -0.0951738 0
M  V30 2103 C 188.817 3.91361 1.6443 0
M  V30 2104 C 186.724 5.90083 0.394491 0
M  V30 2105 H 185.654 0.725308 0.206019 0
M  V30 2106 H 188.305 1.82446 -0.196419 0
M  V30 2107 H 186.687 3.52385 1.80667 0
M  V30 2108 H 187.861 4.52486 -0.871374 0
M  V30 2109 H 186.176 4.11583 -0.631505 0
M  V30 2110 H 188.773 4.95004 2.02176 0
M  V30 2111 H 189.116 3.3122 2.52189 0
M  V30 2112 H 189.649 3.87073 0.917559 0
M  V30 2113 H 186.388 6.53974 -0.447004 0
M  V30 2114 H 185.908 5.88921 1.13722 0
M  V30 2115 H 187.587 6.41307 0.856399 0
M  V30 2116 N 187.719 -0.156864 1.56817 0
M  V30 2117 C 189.135 -0.50916 1.5126 0
M  V30 2118 C 189.335 -1.83897 0.823658 0
M  V30 2119 O 188.391 -2.49469 0.390055 0
M  V30 2120 C 189.704 -0.52857 2.96018 0
M  V30 2121 C 191.252 -0.614771 3.06903 0
M  V30 2122 C 191.727 -0.664938 4.53147 0
M  V30 2123 N 193.218 -0.727433 4.57452 0
M  V30 2124 C 193.953 -0.787067 5.67973 0
M  V30 2125 N 193.449 -0.806649 6.88088 0
M  V30 2126 N 195.242 -0.827195 5.5598 0
M  V30 2127 H 187.393 0.714935 2.00006 0
M  V30 2128 H 189.656 0.259526 0.911784 0
M  V30 2129 H 189.362 0.380154 3.49639 0
M  V30 2130 H 189.236 -1.36998 3.51442 0
M  V30 2131 H 191.623 -1.51392 2.53307 0
M  V30 2132 H 191.704 0.253597 2.5454 0
M  V30 2133 H 191.348 0.230011 5.07379 0
M  V30 2134 H 191.278 -1.54966 5.03282 0
M  V30 2135 H 193.769 -0.719998 3.70978 0
M  V30 2136 H 194.082 -0.853727 7.6807 0
M  V30 2137 H 192.427 -0.774687 6.90669 0
M  V30 2138 H 195.618 -0.808998 4.61056 0
M  V30 2139 H 195.791 -0.870206 6.4213 0
M  V30 2140 N 189.197 -1.51736 -0.425897 0
M  V30 2141 C 190.145 -1.74464 -1.53834 0
M  V30 2142 C 191.139 -0.611241 -1.57988 0
M  V30 2143 O 192.345 -0.792899 -1.61596 0
M  V30 2144 H 188.72 -0.551437 -0.511293 0
M  V30 2145 H 190.691 -2.67694 -1.31843 0
M  V30 2146 C 189.44 -1.8972 -2.91379 0
M  V30 2147 H 188.763 -2.76344 -2.88919 0
M  V30 2148 H 190.203 -2.09629 -3.68553 0
M  V30 2149 C 188.662 -0.65992 -3.30374 0
M  V30 2150 O 189.192 0.180083 -4.01296 0
M  V30 2151 N 187.398 -0.500677 -2.86254 0
M  V30 2152 H 186.945 -1.18532 -2.28709 0
M  V30 2153 H 186.903 0.325903 -3.12706 0
M  V30 2154 N 190.675 0.682077 -1.42076 0
M  V30 2155 C 191.924 1.43786 -1.41451 0
M  V30 2156 C 192.237 1.95574 -0.0317074 0
M  V30 2157 O 193.443 2.71326 0.0971462 0
M  V30 2158 C 191.899 2.60071 -2.48779 0
M  V30 2159 C 191.507 2.15013 -3.93031 0
M  V30 2160 C 193.251 3.37626 -2.57311 0
M  V30 2161 C 191.158 3.28336 -4.91883 0
M  V30 2162 H 190.088 0.540143 -0.526082 0
M  V30 2163 H 192.739 0.739157 -1.67955 0
M  V30 2164 H 191.121 3.32275 -2.15429 0
M  V30 2165 H 192.295 1.5001 -4.35699 0
M  V30 2166 H 190.61 1.50416 -3.88284 0
M  V30 2167 H 193.207 4.22012 -3.28345 0
M  V30 2168 H 193.55 3.83727 -1.61429 0
M  V30 2169 H 194.083 2.72488 -2.89819 0
M  V30 2170 H 190.822 2.87234 -5.89217 0
M  V30 2171 H 190.342 3.92145 -4.53853 0
M  V30 2172 H 192.021 3.93913 -5.13265 0
M  V30 2173 N 192.153 1.28127 0.917671 0
M  V30 2174 C 193.399 1.15223 1.66888 0
M  V30 2175 C 193.732 -0.299293 1.9188 0
M  V30 2176 O 193.007 -1.21805 1.51637 0
M  V30 2177 C 193.29 1.94706 3.02922 0
M  V30 2178 C 193.143 3.47898 2.85109 0
M  V30 2179 C 194.462 1.75939 4.03402 0
M  V30 2180 H 191.581 0.419946 0.605652 0
M  V30 2181 H 194.223 1.57398 1.06423 0
M  V30 2182 H 192.373 1.58864 3.54534 0
M  V30 2183 H 194.045 3.93624 2.40537 0
M  V30 2184 H 192.288 3.7373 2.20246 0
M  V30 2185 H 192.959 3.98765 3.81694 0
M  V30 2186 H 195.435 2.07209 3.60837 0
M  V30 2187 H 194.311 2.33931 4.96556 0
M  V30 2188 H 194.572 0.709877 4.36364 0
M  V30 2189 N 193.631 -1.12557 1.10312 0
M  V30 2190 C 194.579 -2.20325 0.745629 0
M  V30 2191 C 195.573 -1.67429 -0.25763 0
M  V30 2192 O 196.779 -1.79612 -0.118132 0
M  V30 2193 H 193.154 -0.718118 0.223182 0
M  V30 2194 H 195.125 -2.47733 1.66346 0
M  V30 2195 C 193.874 -3.47168 0.192262 0
M  V30 2196 H 193.197 -3.88215 0.955475 0
M  V30 2197 H 194.637 -4.23995 -0.0198274 0
M  V30 2198 C 193.096 -3.19298 -1.07472 0
M  V30 2199 O 193.626 -3.3891 -2.15645 0
M  V30 2200 N 191.832 -2.73113 -0.992847 0
M  V30 2201 H 191.379 -2.57354 -0.112474 0
M  V30 2202 H 191.337 -2.54842 -1.84127 0
M  V30 2203 N 195.109 -0.891671 -1.2995 0
M  V30 2204 C 196.386 -0.433307 -1.9074 0
M  V30 2205 C 196.766 1.08646 -1.80995 0
M  V30 2206 O 196.114 1.92476 -1.23147 0
M  V30 2207 C 196.324 -0.938895 -3.36134 0
M  V30 2208 C 197.672 -0.977829 -4.13187 0
M  V30 2209 O 198.696 -0.886015 -3.45005 0
M  V30 2210 O 197.555 -1.11453 -5.35015 0
M  V30 2211 H 194.649 -0.133699 -0.816121 0
M  V30 2212 H 197.195 -0.981011 -1.38471 0
M  V30 2213 H 195.967 -1.98281 -3.37343 0
M  V30 2214 H 195.59 -0.37074 -3.95868 0
M  V30 2215 N 196.587 1.43421 -0.653314 0
M  V30 2216 C 197.998 1.85065 -0.246537 0
M  V30 2217 C 198.349 1.54688 1.2069 0
M  V30 2218 O 197.474 0.995896 1.92122 0
M  V30 2219 C 198.069 3.35922 -0.440666 0
M  V30 2220 C 196.628 3.76297 -0.0882064 0
M  V30 2221 C 195.775 2.67147 -0.743484 0
M  V30 2222 H 198.726 1.33572 -0.856979 0
M  V30 2223 H 198.747 3.79204 0.313798 0
M  V30 2224 H 198.259 3.58 -1.49858 0
M  V30 2225 H 196.36 3.5983 0.96711 0
M  V30 2226 H 196.473 4.76338 -0.513738 0
M  V30 2227 H 194.837 2.54086 -0.176712 0
M  V30 2228 H 195.62 2.92053 -1.80443 0
M  V30 2229 N 198.065 0.39524 1.52563 0
M  V30 2230 C 199.29 -0.187456 2.06551 0
M  V30 2231 C 199.715 -1.39249 1.26457 0
M  V30 2232 O 199.073 -1.78947 0.291151 0
M  V30 2233 C 199.121 -0.529985 3.56684 0
M  V30 2234 O 198.225 -1.62307 3.79118 0
M  V30 2235 H 197.566 -0.0202537 0.663691 0
M  V30 2236 H 200.096 0.564426 1.96661 0
M  V30 2237 H 200.106 -0.792598 4.00227 0
M  V30 2238 H 198.781 0.350987 4.14416 0
M  V30 2239 H 197.358 -1.3537 3.47461 0
M  V30 2240 N 199.544 -1.57102 0.125237 0
M  V30 2241 C 200.79 -1.95697 -0.532035 0
M  V30 2242 C 201.123 -1.009 -1.6593 0
M  V30 2243 O 200.398 -0.047347 -1.94442 0
M  V30 2244 C 200.681 -3.44181 -1.05884 0
M  V30 2245 C 200.534 -4.49752 0.0654392 0
M  V30 2246 C 201.853 -3.94655 -1.9477 0
M  V30 2247 H 198.972 -0.711571 -0.191925 0
M  V30 2248 H 201.614 -1.88923 0.20206 0
M  V30 2249 H 199.764 -3.50085 -1.68442 0
M  V30 2250 H 201.436 -4.55943 0.700982 0
M  V30 2251 H 199.679 -4.27653 0.727709 0
M  V30 2252 H 200.35 -5.50924 -0.344505 0
M  V30 2253 H 202.826 -3.91094 -1.42074 0
M  V30 2254 H 201.702 -4.99057 -2.28546 0
M  V30 2255 H 201.963 -3.35718 -2.87656 0
M  V30 2256 N 201.022 0.148545 -1.56898 0
M  V30 2257 C 202.268 0.862694 -1.83536 0
M  V30 2258 C 202.601 1.80889 -0.706604 0
M  V30 2259 O 201.876 1.92328 0.289885 0
M  V30 2260 C 202.159 1.63853 -3.20662 0
M  V30 2261 C 202.012 0.713925 -4.44098 0
M  V30 2262 C 203.331 2.60133 -3.54991 0
M  V30 2263 H 200.45 0.312179 -0.667618 0
M  V30 2264 H 203.092 0.127953 -1.89569 0
M  V30 2265 H 201.242 2.26489 -3.1565 0
M  V30 2266 H 202.914 0.098686 -4.61194 0
M  V30 2267 H 201.157 0.0234019 -4.33794 0
M  V30 2268 H 201.828 1.29278 -5.36648 0
M  V30 2269 H 204.304 2.07616 -3.60603 0
M  V30 2270 H 203.18 3.11468 -4.51972 0
M  V30 2271 H 203.441 3.41417 -2.80868 0
M  V30 2272 N 202.5 1.5196 0.417844 0
M  V30 2273 C 203.747 1.65591 1.16559 0
M  V30 2274 C 204.075 0.381565 1.90721 0
M  V30 2275 O 203.33 -0.635156 1.85106 0
M  V30 2276 C 203.629 2.82269 2.19223 0
M  V30 2277 C 203.295 4.20819 1.61933 0
M  V30 2278 C 201.957 4.58506 1.46033 0
M  V30 2279 C 204.309 5.07196 1.20008 0
M  V30 2280 C 201.637 5.80257 0.867113 0
M  V30 2281 C 203.989 6.29544 0.621086 0
M  V30 2282 C 202.653 6.65987 0.449144 0
M  V30 2283 H 201.923 0.605939 0.42652 0
M  V30 2284 H 204.57 1.86041 0.45397 0
M  V30 2285 H 202.875 2.56118 2.96498 0
M  V30 2286 H 204.572 2.90012 2.76936 0
M  V30 2287 H 201.162 3.91116 1.7529 0
M  V30 2288 H 205.346 4.7867 1.31105 0
M  V30 2289 H 200.602 6.07124 0.721833 0
M  V30 2290 H 204.776 6.95805 0.287798 0
M  V30 2291 H 202.403 7.60199 -0.012632 0
M  V30 2292 N 203.978 -0.674533 1.42435 0
M  V30 2293 C 205.255 -1.4305 1.33402 0
M  V30 2294 C 205.635 -2.11081 -0.0284674 0
M  V30 2295 O 204.983 -2.03257 -1.04397 0
M  V30 2296 C 205.193 -2.43272 2.50239 0
M  V30 2297 C 206.541 -3.07907 2.92367 0
M  V30 2298 O 207.565 -2.53599 2.50132 0
M  V30 2299 O 206.424 -4.0632 3.65467 0
M  V30 2300 H 203.518 -0.638076 0.526106 0
M  V30 2301 H 206.064 -0.703235 1.54443 0
M  V30 2302 H 204.836 -1.91803 3.41068 0
M  V30 2303 H 204.459 -3.23479 2.31186 0
M  V30 2304 N 205.456 -1.28612 -0.910864 0
M  V30 2305 C 206.733 -1.06632 -1.63979 0
M  V30 2306 C 207.113 0.393351 -2.07403 0
M  V30 2307 O 206.461 1.37999 -1.82122 0
M  V30 2308 C 206.671 -2.0436 -2.8291 0
M  V30 2309 C 208.019 -2.34666 -3.5386 0
M  V30 2310 O 209.043 -2.02467 -2.93062 0
M  V30 2311 O 207.902 -2.89631 -4.63439 0
M  V30 2312 H 204.996 -0.407737 -0.7195 0
M  V30 2313 H 207.542 -1.39942 -0.959914 0
M  V30 2314 H 206.314 -3.02727 -2.47936 0
M  V30 2315 H 205.937 -1.71714 -3.58609 0
M  V30 2316 N 206.934 1.1197 -1.10907 0
M  V30 2317 C 208.183 1.82947 -0.849302 0
M  V30 2318 C 208.496 1.85275 0.627112 0
M  V30 2319 O 209.702 2.52296 1.00295 0
M  V30 2320 C 208.158 3.28529 -1.46959 0
M  V30 2321 C 207.766 3.34546 -2.97965 0
M  V30 2322 C 209.51 4.04443 -1.28942 0
M  V30 2323 C 207.417 4.74491 -3.53004 0
M  V30 2324 H 206.347 0.685477 -0.314065 0
M  V30 2325 H 208.998 1.2604 -1.33365 0
M  V30 2326 H 207.38 3.85333 -0.912917 0
M  V30 2327 H 208.554 2.87654 -3.59989 0
M  V30 2328 H 206.869 2.72108 -3.15192 0
M  V30 2329 H 209.466 5.07787 -1.67502 0
M  V30 2330 H 209.809 4.15656 -0.231456 0
M  V30 2331 H 210.342 3.5401 -1.81443 0
M  V30 2332 H 207.081 4.68474 -4.58489 0
M  V30 2333 H 206.601 5.21816 -2.9575 0
M  V30 2334 H 208.28 5.4344 -3.51115 0
M  V30 2335 N 208.412 0.89855 1.29475 0
M  V30 2336 C 209.658 0.524658 1.95896 0
M  V30 2337 C 209.991 -0.926468 1.70676 0
M  V30 2338 O 209.266 -1.65665 1.01908 0
M  V30 2339 C 209.549 0.81633 3.50725 0
M  V30 2340 C 209.402 2.31907 3.85408 0
M  V30 2341 C 210.721 0.302038 4.39062 0
M  V30 2342 H 207.84 0.19209 0.711527 0
M  V30 2343 H 210.482 1.12502 1.53112 0
M  V30 2344 H 208.632 0.305369 3.87298 0
M  V30 2345 H 210.304 2.89949 3.58786 0
M  V30 2346 H 208.547 2.78027 3.32992 0
M  V30 2347 H 209.218 2.47373 4.93468 0
M  V30 2348 H 211.694 0.739551 4.09475 0
M  V30 2349 H 210.57 0.535331 5.46283 0
M  V30 2350 H 210.831 -0.797216 4.34853 0
M  V30 2351 N 209.89 -1.43072 0.660911 0
M  V30 2352 C 211.118 -2.06067 0.185422 0
M  V30 2353 C 211.533 -1.49582 -1.15198 0
M  V30 2354 O 210.89 -0.630134 -1.71276 0
M  V30 2355 C 210.941 -3.61371 0.0966523 0
M  V30 2356 O 210.662 -4.15758 1.38119 0
M  V30 2357 C 212.163 -4.41455 -0.403996 0
M  V30 2358 H 209.383 -0.664459 0.0934604 0
M  V30 2359 H 211.927 -1.83447 0.90373 0
M  V30 2360 H 210.082 -3.8315 -0.572259 0
M  V30 2361 H 210.496 -5.09499 1.24542 0
M  V30 2362 H 211.97 -5.50437 -0.415045 0
M  V30 2363 H 212.447 -4.15036 -1.43674 0
M  V30 2364 H 213.053 -4.24663 0.232691 0
M  V30 2365 N 211.368 -0.403325 -1.52352 0
M  V30 2366 C 212.316 0.439752 -2.28405 0
M  V30 2367 C 213.31 1.05089 -1.32863 0
M  V30 2368 O 214.516 0.989759 -1.50345 0
M  V30 2369 H 210.891 0.160587 -0.734653 0
M  V30 2370 H 212.862 -0.222983 -2.97566 0
M  V30 2371 C 211.611 1.54736 -3.11371 0
M  V30 2372 H 210.934 1.08643 -3.84755 0
M  V30 2373 H 212.374 2.1112 -3.67701 0
M  V30 2374 C 210.833 2.51141 -2.24566 0
M  V30 2375 O 211.363 3.54887 -1.88196 0
M  V30 2376 N 209.569 2.21213 -1.8845 0
M  V30 2377 H 209.116 1.36878 -2.18225 0
M  V30 2378 H 209.074 2.85963 -1.30662 0
M  V30 2379 N 212.846 1.57033 -0.133567 0
M  V30 2380 C 213.756 2.19632 0.824564 0
M  V30 2381 C 214.772 1.17666 1.28182 0
M  V30 2382 O 215.948 1.50193 1.3418 0
M  V30 2383 C 213.013 2.79499 2.05137 0
M  V30 2384 C 212.074 3.96548 1.64464 0
M  V30 2385 C 211.307 4.5355 2.81297 0
M  V30 2386 O 211.53 4.09438 3.97136 0
M  V30 2387 O 210.464 5.44018 2.57542 0
M  V30 2388 H 214.29 3.01991 0.321766 0
M  V30 2389 H 211.875 1.49112 0.0927889 0
M  V30 2390 H 213.757 3.17602 2.7696 0
M  V30 2391 H 212.432 2.00162 2.54395 0
M  V30 2392 H 211.339 3.63186 0.897048 0
M  V30 2393 H 212.672 4.77364 1.19934 0
M  V30 2394 N 214.325 -0.140222 1.56975 0
M  V30 2395 C 215.257 -1.19818 1.95388 0
M  V30 2396 C 216.27 -1.38816 0.850525 0
M  V30 2397 O 217.459 -1.38267 1.12891 0
M  V30 2398 C 214.559 -2.56189 2.21857 0
M  V30 2399 C 213.732 -2.58077 3.5315 0
M  V30 2400 C 212.791 -3.76037 3.6808 0
M  V30 2401 O 211.817 -3.60598 4.40406 0
M  V30 2402 N 213.019 -4.93763 3.05251 0
M  V30 2403 H 215.784 -0.871609 2.86746 0
M  V30 2404 H 213.345 -0.32972 1.58507 0
M  V30 2405 H 215.337 -3.33623 2.2908 0
M  V30 2406 H 213.907 -2.81111 1.36731 0
M  V30 2407 H 213.127 -1.6651 3.57307 0
M  V30 2408 H 214.415 -2.56377 4.39486 0
M  V30 2409 H 213.813 -5.09209 2.46419 0
M  V30 2410 H 212.37 -5.68949 3.18026 0
M  V30 2411 N 215.803 -1.52179 -0.40978 0
M  V30 2412 C 217.052 -1.65434 -1.15388 0
M  V30 2413 C 217.365 -0.390056 -1.91671 0
M  V30 2414 O 218.571 -0.402399 -2.68501 0
M  V30 2415 C 217.027 -2.92279 -2.10003 0
M  V30 2416 C 216.635 -4.25813 -1.39239 0
M  V30 2417 C 218.379 -3.14897 -2.84675 0
M  V30 2418 C 216.286 -5.43782 -2.32498 0
M  V30 2419 H 215.216 -0.616267 -0.434432 0
M  V30 2420 H 217.867 -1.78666 -0.418401 0
M  V30 2421 H 216.249 -2.72744 -2.871 0
M  V30 2422 H 217.423 -4.55828 -0.675099 0
M  V30 2423 H 215.738 -4.09292 -0.766097 0
M  V30 2424 H 218.335 -4.0021 -3.54593 0
M  V30 2425 H 218.678 -2.29103 -3.47588 0
M  V30 2426 H 219.211 -3.34901 -2.14677 0
M  V30 2427 H 215.95 -6.3192 -1.74233 0
M  V30 2428 H 215.47 -5.18106 -3.02201 0
M  V30 2429 H 217.149 -5.76834 -2.93038 0
M  V30 2430 N 217.281 0.66697 -1.42791 0
M  V30 2431 C 218.213 1.7925 -1.42836 0
M  V30 2432 C 219.226 1.59496 -0.326333 0
M  V30 2433 O 220.415 1.6847 -0.589916 0
M  V30 2434 C 217.515 3.16476 -1.21229 0
M  V30 2435 C 216.688 3.63011 -2.44013 0
M  V30 2436 C 215.747 4.78993 -2.17834 0
M  V30 2437 O 214.773 4.89137 -2.91091 0
M  V30 2438 N 215.975 5.68248 -1.18635 0
M  V30 2439 H 218.74 1.79695 -2.39854 0
M  V30 2440 H 216.301 0.850338 -1.37771 0
M  V30 2441 H 218.293 3.91734 -1.01621 0
M  V30 2442 H 216.863 3.10884 -0.32706 0
M  V30 2443 H 216.083 2.78346 -2.79137 0
M  V30 2444 H 217.371 3.90845 -3.25757 0
M  V30 2445 H 216.769 5.62712 -0.580615 0
M  V30 2446 H 215.326 6.43285 -1.05013 0
M  V30 2447 N 218.759 1.29093 0.90403 0
M  V30 2448 C 219.706 1.13853 2.00764 0
M  V30 2449 C 220.676 0.0330084 1.66067 0
M  V30 2450 O 221.861 0.199733 1.89752 0
M  V30 2451 C 219.001 0.816537 3.35301 0
M  V30 2452 C 218.114 2.00206 3.82807 0
M  V30 2453 C 217.249 1.61983 5.059 0
M  V30 2454 C 216.288 2.77143 5.45764 0
M  V30 2455 N 215.425 2.39346 6.60044 0
M  V30 2456 H 220.265 2.08276 2.13132 0
M  V30 2457 H 217.802 1.03648 1.04381 0
M  V30 2458 H 219.76 0.610557 4.12708 0
M  V30 2459 H 218.39 -0.090779 3.22672 0
M  V30 2460 H 217.442 2.31988 3.01473 0
M  V30 2461 H 218.754 2.86512 4.08304 0
M  V30 2462 H 217.908 1.37649 5.90879 0
M  V30 2463 H 216.647 0.728202 4.82233 0
M  V30 2464 H 215.652 3.02165 4.59322 0
M  V30 2465 H 216.877 3.66964 5.71414 0
M  V30 2466 H 214.823 1.52665 6.37989 0
M  V30 2467 H 214.74 3.19185 6.85315 0
M  V30 2468 H 216.008 2.1832 7.48303 0
M  V30 2469 N 220.237 -1.11381 1.11499 0
M  V30 2470 C 221.653 -1.35143 0.849031 0
M  V30 2471 C 221.853 -1.94515 -0.525938 0
M  V30 2472 O 220.909 -2.1785 -1.27662 0
M  V30 2473 C 222.222 -2.28249 1.95762 0
M  V30 2474 C 223.77 -2.41812 1.98736 0
M  V30 2475 C 224.245 -3.3824 3.088 0
M  V30 2476 N 225.736 -3.45803 3.08179 0
M  V30 2477 C 226.471 -4.20358 3.89982 0
M  V30 2478 N 225.967 -4.97884 4.8175 0
M  V30 2479 N 227.76 -4.15877 3.78157 0
M  V30 2480 H 219.911 -0.712062 2.00109 0
M  V30 2481 H 222.174 -0.376025 0.870235 0
M  V30 2482 H 221.88 -1.91817 2.94787 0
M  V30 2483 H 221.754 -3.28473 1.85433 0
M  V30 2484 H 224.141 -2.77518 1.00338 0
M  V30 2485 H 224.222 -1.41437 2.13141 0
M  V30 2486 H 223.866 -3.03261 4.07425 0
M  V30 2487 H 223.796 -4.38471 2.91635 0
M  V30 2488 H 226.287 -2.90506 2.41691 0
M  V30 2489 H 226.6 -5.52142 5.40702 0
M  V30 2490 H 224.945 -4.97043 4.85771 0
M  V30 2491 H 228.136 -3.544 3.05808 0
M  V30 2492 H 228.309 -4.73723 4.42143 0
M  V30 2493 N 221.715 -0.905404 -1.28997 0
M  V30 2494 C 222.678 -0.392253 -2.25819 0
M  V30 2495 C 223.678 0.476753 -1.5357 0
M  V30 2496 O 224.868 0.280994 -1.71919 0
M  V30 2497 C 222 0.438588 -3.38067 0
M  V30 2498 H 223.193 -1.24743 -2.72725 0
M  V30 2499 H 220.746 -0.684051 -1.40536 0
M  V30 2500 H 221.481 1.31352 -2.96508 0
M  V30 2501 H 221.266 -0.184167 -3.91667 0
M  V30 2502 H 222.756 0.78873 -4.10084 0
M  V30 2503 N 223.193 1.4272 -0.668489 0
M  V30 2504 C 224.103 2.34596 0.0139753 0
M  V30 2505 C 225.119 1.5474 0.795703 0
M  V30 2506 O 226.295 1.87334 0.739466 0
M  V30 2507 C 223.36 3.33202 0.957982 0
M  V30 2508 C 222.421 4.28957 0.17149 0
M  V30 2509 C 221.654 5.22853 1.07053 0
M  V30 2510 O 221.877 5.21531 2.31001 0
M  V30 2511 O 220.811 5.9952 0.534727 0
M  V30 2512 H 224.637 2.9448 -0.742661 0
M  V30 2513 H 222.222 1.43117 -0.428705 0
M  V30 2514 H 224.104 3.93796 1.50008 0
M  V30 2515 H 222.779 2.758 1.69458 0
M  V30 2516 H 221.686 3.71796 -0.414558 0
M  V30 2517 H 223.019 4.89383 -0.52586 0
M  V30 2518 N 224.671 0.411399 1.52136 0
M  V30 2519 C 225.919 -0.163322 2.01439 0
M  V30 2520 C 226.24 -1.45453 1.29879 0
M  V30 2521 O 225.51 -1.91225 0.4254 0
M  V30 2522 H 224.09 -0.0633447 0.744309 0
M  V30 2523 H 226.752 0.548161 1.87033 0
M  V30 2524 H 225.848 -0.357817 3.10042 0
M  V30 2525 N 226.149 -1.5696 0.141893 0
M  V30 2526 C 227.398 -1.95135 -0.510427 0
M  V30 2527 C 227.711 -1.02896 -1.66348 0
M  V30 2528 O 228.917 -1.30629 -2.38009 0
M  V30 2529 C 227.373 -3.46876 -0.959427 0
M  V30 2530 C 226.981 -4.47691 0.166419 0
M  V30 2531 C 228.725 -3.93927 -1.58183 0
M  V30 2532 C 226.632 -5.90636 -0.300565 0
M  V30 2533 H 225.562 -0.728494 -0.194454 0
M  V30 2534 H 228.213 -1.8211 0.22542 0
M  V30 2535 H 226.595 -3.55215 -1.75038 0
M  V30 2536 H 227.769 -4.51043 0.94325 0
M  V30 2537 H 226.084 -4.10527 0.696905 0
M  V30 2538 H 228.681 -4.98158 -1.94275 0
M  V30 2539 H 229.024 -3.3519 -2.46888 0
M  V30 2540 H 229.557 -3.88484 -0.855863 0
M  V30 2541 H 226.296 -6.5318 0.550989 0
M  V30 2542 H 225.816 -5.90655 -1.04338 0
M  V30 2543 H 227.495 -6.42588 -0.754265 0
M  V30 2544 N 227.627 0.131896 -1.57047 0
M  V30 2545 C 228.852 0.860418 -1.8871 0
M  V30 2546 C 229.277 1.73251 -0.73251 0
M  V30 2547 O 228.635 1.785 0.317429 0
M  V30 2548 C 228.683 1.68047 -3.19049 0
M  V30 2549 O 227.787 2.7862 -3.04047 0
M  V30 2550 H 227.128 0.238743 -0.619595 0
M  V30 2551 H 229.658 0.118169 -2.04258 0
M  V30 2552 H 229.668 2.07238 -3.51449 0
M  V30 2553 H 228.343 1.04018 -4.02682 0
M  V30 2554 H 226.92 2.42726 -2.83088 0
M  V30 2555 N 229.106 1.52395 0.401703 0
M  V30 2556 C 230.331 1.70972 1.17403 0
M  V30 2557 C 230.756 0.421615 1.83314 0
M  V30 2558 O 230.114 -0.621564 1.70312 0
M  V30 2559 C 230.162 2.85151 2.20728 0
M  V30 2560 O 229.266 2.51238 3.27037 0
M  V30 2561 H 228.607 0.568927 0.342372 0
M  V30 2562 H 231.137 1.99131 0.469891 0
M  V30 2563 H 231.147 3.10279 2.64936 0
M  V30 2564 H 229.822 3.78603 1.7214 0
M  V30 2565 H 228.399 2.36808 2.88057 0
M  V30 2566 N 230.584 -0.659388 1.43143 0
M  V30 2567 C 231.814 -1.44513 1.47646 0
M  V30 2568 C 232.222 -1.88981 0.0910095 0
M  V30 2569 O 231.565 -1.59702 -0.907789 0
M  V30 2570 C 231.627 -2.71663 2.35456 0
M  V30 2571 C 231.291 -2.49175 3.83094 0
M  V30 2572 C 232.288 -2.1279 4.74359 0
M  V30 2573 C 229.973 -2.63691 4.27519 0
M  V30 2574 C 231.967 -1.9121 6.08044 0
M  V30 2575 C 229.654 -2.41726 5.61259 0
M  V30 2576 C 230.652 -2.0554 6.51339 0
M  V30 2577 O 230.34 -1.838 7.82606 0
M  V30 2578 H 230.072 -0.45064 0.503884 0
M  V30 2579 H 232.626 -0.816248 1.88485 0
M  V30 2580 H 230.856 -3.37089 1.89493 0
M  V30 2581 H 232.545 -3.33595 2.31235 0
M  V30 2582 H 233.311 -2.01157 4.41317 0
M  V30 2583 H 229.19 -2.90832 3.57684 0
M  V30 2584 H 232.734 -1.62889 6.78316 0
M  V30 2585 H 228.631 -2.52959 5.9387 0
M  V30 2586 H 229.399 -1.98275 7.94122 0
M  V30 2587 N 232.062 -1.29571 -0.897171 0
M  V30 2588 C 233.292 -1.20408 -1.67886 0
M  V30 2589 C 233.7 0.237429 -1.87704 0
M  V30 2590 O 233.043 1.17048 -1.41582 0
M  V30 2591 C 233.105 -1.84887 -3.08314 0
M  V30 2592 C 232.769 -3.34189 -3.11716 0
M  V30 2593 C 233.766 -4.30374 -2.91675 0
M  V30 2594 C 231.451 -3.75431 -3.33701 0
M  V30 2595 C 233.445 -5.65776 -2.93557 0
M  V30 2596 C 231.132 -5.10955 -3.35214 0
M  V30 2597 C 232.13 -6.05938 -3.15164 0
M  V30 2598 O 231.818 -7.38987 -3.1647 0
M  V30 2599 H 231.55 -0.418289 -0.531046 0
M  V30 2600 H 234.104 -1.71514 -1.13014 0
M  V30 2601 H 232.334 -1.28295 -3.64798 0
M  V30 2602 H 234.023 -1.70011 -3.6858 0
M  V30 2603 H 234.789 -3.99844 -2.74499 0
M  V30 2604 H 230.668 -3.01953 -3.48347 0
M  V30 2605 H 234.212 -6.39889 -2.77826 0
M  V30 2606 H 230.109 -5.4113 -3.51922 0
M  V30 2607 H 230.877 -7.47823 -3.3272 0
M  V30 2608 N 233.54 1.10788 -1.12088 0
M  V30 2609 C 234.817 1.79136 -0.785476 0
M  V30 2610 C 235.197 1.98246 0.725377 0
M  V30 2611 O 234.545 1.57258 1.65778 0
M  V30 2612 C 234.755 3.12375 -1.55636 0
M  V30 2613 C 236.103 3.8731 -1.74001 0
M  V30 2614 O 237.127 3.22085 -1.52117 0
M  V30 2615 O 235.986 5.04369 -2.10415 0
M  V30 2616 H 233.08 0.776226 -0.285311 0
M  V30 2617 H 235.626 1.1747 -1.2247 0
M  V30 2618 H 234.398 2.93863 -2.5838 0
M  V30 2619 H 234.021 3.81758 -1.11114 0
M  V30 2620 N 235.018 0.912232 1.28515 0
M  V30 2621 C 235.928 0.404506 2.31086 0
M  V30 2622 C 236.944 -0.50707 1.66448 0
M  V30 2623 O 238.12 -0.393624 1.97516 0
M  V30 2624 C 235.185 -0.348572 3.44943 0
M  V30 2625 C 234.246 0.59604 4.25142 0
M  V30 2626 C 233.479 -0.121194 5.33562 0
M  V30 2627 O 233.702 -1.34317 5.5436 0
M  V30 2628 O 232.636 0.542716 5.99448 0
M  V30 2629 H 236.462 1.25579 2.76521 0
M  V30 2630 H 234.047 0.676998 1.33181 0
M  V30 2631 H 235.929 -0.77395 4.14232 0
M  V30 2632 H 234.604 -1.17571 3.01594 0
M  V30 2633 H 233.511 1.07079 3.58448 0
M  V30 2634 H 234.844 1.38995 4.72167 0
M  V30 2635 N 236.496 -1.42363 0.676048 0
M  V30 2636 C 237.426 -2.33497 0.0124832 0
M  V30 2637 C 238.407 -1.50748 -0.787981 0
M  V30 2638 O 239.592 -1.79346 -0.744884 0
M  V30 2639 C 236.722 -3.34377 -0.938582 0
M  V30 2640 C 235.676 -4.27289 -0.246622 0
M  V30 2641 C 235.002 -5.18386 -1.31071 0
M  V30 2642 C 236.302 -5.14916 0.875125 0
M  V30 2643 H 237.996 -2.89233 0.773593 0
M  V30 2644 H 235.542 -1.39073 0.37346 0
M  V30 2645 H 237.495 -3.97044 -1.41188 0
M  V30 2646 H 236.219 -2.76947 -1.73113 0
M  V30 2647 H 234.878 -3.66018 0.206456 0
M  V30 2648 H 234.526 -4.57282 -2.09528 0
M  V30 2649 H 234.226 -5.81378 -0.852839 0
M  V30 2650 H 235.75 -5.83929 -1.78492 0
M  V30 2651 H 237.164 -5.71262 0.482983 0
M  V30 2652 H 235.561 -5.86747 1.25887 0
M  V30 2653 H 236.631 -4.53242 1.72335 0
M  V30 2654 N 237.974 -0.419461 -1.51915 0
M  V30 2655 C 239.223 0.154346 -2.01109 0
M  V30 2656 C 239.536 1.45338 -1.30905 0
M  V30 2657 O 240.742 2.10906 -1.7097 0
M  V30 2658 C 239.198 0.325615 -3.58424 0
M  V30 2659 C 238.806 -0.961934 -4.37551 0
M  V30 2660 C 240.55 0.854155 -4.15818 0
M  V30 2661 C 238.457 -0.757287 -5.86531 0
M  V30 2662 H 237.387 0.0614563 -0.751491 0
M  V30 2663 H 240.038 -0.54649 -1.75173 0
M  V30 2664 H 238.42 1.08903 -3.80731 0
M  V30 2665 H 239.594 -1.7323 -4.26999 0
M  V30 2666 H 237.909 -1.41766 -3.91524 0
M  V30 2667 H 240.506 1.02346 -5.24814 0
M  V30 2668 H 240.849 1.83172 -3.73837 0
M  V30 2669 H 241.382 0.149528 -3.97519 0
M  V30 2670 H 238.121 -1.70671 -6.32892 0
M  V30 2671 H 237.641 -0.0264061 -5.99794 0
M  V30 2672 H 239.32 -0.403482 -6.45741 0
M  V30 2673 N 239.452 1.56882 -0.150215 0
M  V30 2674 C 240.362 2.20494 0.801222 0
M  V30 2675 C 241.378 1.19019 1.26927 0
M  V30 2676 O 242.554 1.51607 1.32579 0
M  V30 2677 C 239.619 2.81659 2.02161 0
M  V30 2678 C 238.68 3.9827 1.60249 0
M  V30 2679 C 237.913 4.56508 2.7647 0
M  V30 2680 O 238.136 4.13627 3.92771 0
M  V30 2681 O 237.07 5.46719 2.51757 0
M  V30 2682 H 240.896 3.02315 0.289717 0
M  V30 2683 H 238.481 1.49202 0.0769684 0
M  V30 2684 H 240.363 3.20522 2.73576 0
M  V30 2685 H 239.038 2.02849 2.52258 0
M  V30 2686 H 237.945 3.64117 0.858477 0
M  V30 2687 H 239.278 4.78609 1.14864 0
M  V30 2688 N 240.93 -0.123565 1.57115 0
M  V30 2689 C 241.863 -1.18202 1.95201 0
M  V30 2690 C 242.841 -1.40349 0.821031 0
M  V30 2691 O 244.025 -1.54578 1.07879 0
M  V30 2692 C 241.152 -2.53671 2.24429 0
M  V30 2693 C 240.198 -2.4798 3.46999 0
M  V30 2694 S 241.031 -1.92389 4.99747 0
M  V30 2695 C 242.187 -3.2954 5.32123 0
M  V30 2696 H 242.42 -0.857212 2.84674 0
M  V30 2697 H 239.953 -0.33014 1.50829 0
M  V30 2698 H 241.911 -3.3162 2.41947 0
M  V30 2699 H 240.572 -2.83332 1.35579 0
M  V30 2700 H 239.765 -3.47758 3.64801 0
M  V30 2701 H 239.367 -1.7815 3.28844 0
M  V30 2702 H 241.659 -4.25736 5.27025 0
M  V30 2703 H 242.602 -3.16569 6.33395 0
M  V30 2704 H 243.01 -3.27758 4.59603 0
M  V30 2705 N 242.408 -1.52605 -0.393616 0
M  V30 2706 C 243.636 -1.71294 -1.16043 0
M  V30 2707 C 244.051 -0.429259 -1.83855 0
M  V30 2708 O 243.408 0.595921 -1.72496 0
M  V30 2709 C 243.459 -2.8593 -2.21193 0
M  V30 2710 O 243.18 -4.09329 -1.56146 0
M  V30 2711 C 244.681 -3.16259 -3.10636 0
M  V30 2712 H 241.901 -0.573641 -0.348104 0
M  V30 2713 H 244.445 -1.99234 -0.461092 0
M  V30 2714 H 242.6 -2.60465 -2.86769 0
M  V30 2715 H 243.014 -4.73323 -2.25978 0
M  V30 2716 H 244.488 -3.99946 -3.80456 0
M  V30 2717 H 244.965 -2.3045 -3.73884 0
M  V30 2718 H 245.571 -3.43547 -2.50711 0
M  V30 2719 N 243.887 0.651787 -1.4349 0
M  V30 2720 C 245.112 1.44434 -1.48841 0
M  V30 2721 C 245.537 1.8779 -0.107955 0
M  V30 2722 O 244.895 1.57464 0.898602 0
M  V30 2723 C 244.943 2.65458 -2.44059 0
M  V30 2724 O 244.047 3.64566 -1.92784 0
M  V30 2725 H 243.388 0.433005 -0.503391 0
M  V30 2726 H 245.918 0.797451 -1.88419 0
M  V30 2727 H 245.928 3.13255 -2.6141 0
M  V30 2728 H 244.603 2.33244 -3.4434 0
M  V30 2729 H 243.18 3.23716 -1.851 0
M  V30 2730 N 245.365 1.30045 0.890287 0
M  V30 2731 C 246.595 1.21296 1.67245 0
M  V30 2732 C 247.003 -0.227471 1.87828 0
M  V30 2733 O 246.346 -1.16296 1.422 0
M  V30 2734 C 246.408 1.86519 3.07329 0
M  V30 2735 C 246.072 3.35837 3.09939 0
M  V30 2736 C 247.069 4.31915 2.89389 0
M  V30 2737 C 244.754 3.77196 3.31706 0
M  V30 2738 C 246.748 5.67325 2.90552 0
M  V30 2739 C 244.435 5.12725 3.32499 0
M  V30 2740 C 245.433 6.076 3.11947 0
M  V30 2741 O 245.121 7.40655 3.12547 0
M  V30 2742 H 244.853 0.4211 0.528821 0
M  V30 2743 H 247.407 1.72111 1.12103 0
M  V30 2744 H 245.637 1.30228 3.64112 0
M  V30 2745 H 247.326 1.71963 3.67673 0
M  V30 2746 H 248.092 4.01294 2.72375 0
M  V30 2747 H 243.971 3.03796 3.4674 0
M  V30 2748 H 247.515 6.41354 2.74429 0
M  V30 2749 H 243.412 5.42988 3.49047 0
M  V30 2750 H 244.18 7.49577 3.28749 0
M  V30 2751 N 246.843 -1.10192 1.12674 0
M  V30 2752 C 248.089 -1.82658 0.894847 0
M  V30 2753 C 248.444 -1.83666 -0.573107 0
M  V30 2754 O 247.737 -1.28816 -1.41835 0
M  V30 2755 C 247.931 -3.28552 1.4067 0
M  V30 2756 C 247.76 -3.41756 2.92289 0
M  V30 2757 C 246.53 -3.54021 3.60551 0
M  V30 2758 C 248.728 -3.34949 3.90274 0
M  V30 2759 N 246.71 -3.55827 5.0026 0
M  V30 2760 C 248.081 -3.43531 5.16127 0
M  V30 2761 C 250.136 -3.18565 3.8265 0
M  V30 2762 C 248.839 -3.37416 6.3525 0
M  V30 2763 C 250.865 -3.13772 5.01299 0
M  V30 2764 C 250.227 -3.22938 6.26012 0
M  V30 2765 H 246.326 -0.683044 0.380756 0
M  V30 2766 H 248.91 -1.31752 1.43351 0
M  V30 2767 H 247.081 -3.77946 0.895055 0
M  V30 2768 H 248.813 -3.88991 1.11661 0
M  V30 2769 H 245.568 -3.57135 3.1105 0
M  V30 2770 H 245.992 -3.60335 5.73138 0
M  V30 2771 H 250.634 -3.10354 2.87124 0
M  V30 2772 H 248.352 -3.44391 7.3104 0
M  V30 2773 H 251.938 -3.02242 4.97133 0
M  V30 2774 H 250.818 -3.19235 7.16281 0
M  V30 2775 N 248.321 -0.919034 -1.28029 0
M  V30 2776 C 249.271 -0.382574 -2.24767 0
M  V30 2777 C 250.255 0.508286 -1.52661 0
M  V30 2778 O 251.447 0.347145 -1.73562 0
M  V30 2779 C 248.576 0.371432 -3.41285 0
M  V30 2780 C 247.662 -0.535449 -4.20706 0
M  V30 2781 N 248.053 -1.65141 -4.78082 0
M  V30 2782 C 246.351 -0.336824 -4.44726 0
M  V30 2783 C 247.052 -2.21475 -5.37888 0
M  V30 2784 N 246.028 -1.50537 -5.22341 0
M  V30 2785 H 249.83 -1.23477 -2.66703 0
M  V30 2786 H 247.344 -0.772299 -1.42861 0
M  V30 2787 H 249.341 0.772638 -4.09678 0
M  V30 2788 H 248.001 1.22066 -3.00882 0
M  V30 2789 H 249.012 -2.03392 -4.7629 0
M  V30 2790 H 245.689 0.47246 -4.14818 0
M  V30 2791 H 247.079 -3.15379 -5.93284 0
M  V30 2792 N 249.799 1.42003 -0.683588 0
M  V30 2793 C 250.729 2.33487 -0.024866 0
M  V30 2794 C 251.71 1.51163 0.779975 0
M  V30 2795 O 252.895 1.79739 0.735362 0
M  V30 2796 C 250.025 3.3487 0.920836 0
M  V30 2797 C 248.979 4.27414 0.223958 0
M  V30 2798 C 248.305 5.19074 1.2832 0
M  V30 2799 C 249.605 5.14445 -0.90242 0
M  V30 2800 H 251.299 2.88819 -0.788921 0
M  V30 2801 H 248.845 1.38873 -0.38083 0
M  V30 2802 H 250.798 3.97787 1.39081 0
M  V30 2803 H 249.522 2.77861 1.71642 0
M  V30 2804 H 248.181 3.65904 -0.225864 0
M  V30 2805 H 247.829 4.58387 2.071 0
M  V30 2806 H 247.529 5.81822 0.821995 0
M  V30 2807 H 249.053 5.84867 1.75392 0
M  V30 2808 H 250.467 5.70998 -0.513272 0
M  V30 2809 H 248.864 5.86072 -1.28997 0
M  V30 2810 H 249.934 4.52322 -1.74737 0
M  V30 2811 N 251.277 0.427512 1.51691 0
M  V30 2812 C 252.207 -0.3796 2.30394 0
M  V30 2813 C 253.188 -1.02982 1.35384 0
M  V30 2814 O 254.373 -1.03534 1.643 0
M  V30 2815 C 251.503 -1.48649 3.1388 0
M  V30 2816 C 250.457 -0.960294 4.17088 0
M  V30 2817 C 249.783 -2.16219 4.89033 0
M  V30 2818 C 251.083 -0.00153679 5.223 0
M  V30 2819 H 252.777 0.277164 2.98114 0
M  V30 2820 H 250.323 0.134739 1.43368 0
M  V30 2821 H 252.276 -2.05826 3.67714 0
M  V30 2822 H 251 -2.1714 2.43962 0
M  V30 2823 H 249.659 -0.410806 3.64291 0
M  V30 2824 H 249.307 -2.83307 4.15628 0
M  V30 2825 H 249.007 -1.81654 5.58816 0
M  V30 2826 H 250.531 -2.73968 5.45687 0
M  V30 2827 H 251.945 -0.482687 5.71264 0
M  V30 2828 H 250.342 0.256199 5.99553 0
M  V30 2829 H 251.412 0.938174 4.75738 0
M  V30 2830 N 252.755 -1.56801 0.158532 0
M  V30 2831 C 254.003 -1.96102 -0.488712 0
M  V30 2832 C 254.324 -1.04498 -1.64636 0
M  V30 2833 O 253.594 -0.108783 -1.95598 0
M  V30 2834 H 252.174 -0.724102 -0.183535 0
M  V30 2835 H 254.836 -1.93457 0.236728 0
M  V30 2836 H 253.932 -3.00097 -0.857219 0
M  V30 2837 N 254.233 0.115231 -1.57178 0
M  V30 2838 C 255.143 1.15994 -2.03918 0
M  V30 2839 C 256.159 1.45103 -0.960268 0
M  V30 2840 O 257.335 1.56144 -1.27204 0
M  V30 2841 C 254.4 2.46568 -2.43732 0
M  V30 2842 C 253.461 2.24822 -3.65723 0
M  V30 2843 C 252.694 3.4917 -4.03629 0
M  V30 2844 O 252.917 4.56623 -3.41835 0
M  V30 2845 O 251.851 3.39949 -4.96708 0
M  V30 2846 H 255.677 0.793019 -2.93164 0
M  V30 2847 H 253.262 0.3263 -1.45793 0
M  V30 2848 H 255.144 3.23492 -2.70057 0
M  V30 2849 H 253.819 2.82726 -1.57631 0
M  V30 2850 H 252.726 1.45744 -3.44542 0
M  V30 2851 H 254.059 1.93566 -4.52541 0
M  V30 2852 N 255.711 1.52812 0.385517 0
M  V30 2853 C 256.959 1.67694 1.12797 0
M  V30 2854 C 257.28 0.421115 1.90399 0
M  V30 2855 O 256.55 -0.564551 1.87589 0
M  V30 2856 H 255.13 0.618155 0.419396 0
M  V30 2857 H 257.792 1.89938 0.436972 0
M  V30 2858 H 256.888 2.52896 1.82894 0
M  V30 2859 N 257.189 -0.644168 1.43834 0
M  V30 2860 C 258.417 -1.43147 1.49387 0
M  V30 2861 C 258.832 -1.88452 0.114583 0
M  V30 2862 O 258.189 -1.60047 -0.876989 0
M  V30 2863 C 258.24 -2.66046 2.44748 0
M  V30 2864 O 257.961 -2.22633 3.77314 0
M  V30 2865 C 259.462 -3.59311 2.59635 0
M  V30 2866 H 256.682 -0.439447 0.507077 0
M  V30 2867 H 259.226 -0.78895 1.88669 0
M  V30 2868 H 257.381 -3.26418 2.08638 0
M  V30 2869 H 257.795 -3.02216 4.28679 0
M  V30 2870 H 259.269 -4.42187 3.30416 0
M  V30 2871 H 259.746 -4.07259 1.64427 0
M  V30 2872 H 260.352 -3.04816 2.96593 0
M  V30 2873 N 258.668 -1.30515 -0.883378 0
M  V30 2874 C 259.618 -1.13641 -1.9766 0
M  V30 2875 C 260.602 -0.0511314 -1.60819 0
M  V30 2876 O 261.794 -0.274623 -1.74857 0
M  V30 2877 C 258.923 -0.831976 -3.33066 0
M  V30 2878 C 258.009 -1.95759 -3.76217 0
M  V30 2879 N 258.4 -3.20313 -3.9145 0
M  V30 2880 C 256.698 -1.85431 -4.05625 0
M  V30 2881 C 257.399 -3.93856 -4.2808 0
M  V30 2882 N 256.375 -3.21919 -4.38029 0
M  V30 2883 H 260.177 -2.08106 -2.07531 0
M  V30 2884 H 257.691 -1.21877 -1.0733 0
M  V30 2885 H 259.688 -0.692102 -4.11115 0
M  V30 2886 H 258.348 0.104588 -3.24532 0
M  V30 2887 H 259.359 -3.55583 -3.76538 0
M  V30 2888 H 256.036 -0.991531 -4.05555 0
M  V30 2889 H 257.426 -5.01125 -4.47575 0
M  V30 2890 N 260.146 1.09593 -1.13257 0
M  V30 2891 C 261.374 1.855 -0.916378 0
M  V30 2892 C 261.789 1.81069 0.534738 0
M  V30 2893 O 261.146 1.20562 1.37007 0
M  V30 2894 C 261.197 3.33546 -1.39388 0
M  V30 2895 O 260.918 3.37927 -2.78813 0
M  V30 2896 C 262.419 4.26299 -1.21588 0
M  V30 2897 H 259.639 0.585991 -0.326887 0
M  V30 2898 H 262.183 1.38488 -1.5047 0
M  V30 2899 H 260.338 3.77992 -0.848597 0
M  V30 2900 H 260.752 4.30254 -2.9997 0
M  V30 2901 H 262.226 5.28341 -1.59876 0
M  V30 2902 H 262.703 4.38918 -0.157376 0
M  V30 2903 H 263.309 3.87668 -1.7491 0
M  V30 2904 N 261.624 0.925811 1.2754 0
M  V30 2905 C 262.87 0.566092 1.94739 0
M  V30 2906 C 263.203 -0.890057 1.72603 0
M  V30 2907 O 262.478 -1.63467 1.05399 0
M  V30 2908 C 262.761 0.89054 3.48915 0
M  V30 2909 C 262.614 2.4003 3.80402 0
M  V30 2910 C 263.933 0.395101 4.38323 0
M  V30 2911 H 261.052 0.20714 0.707292 0
M  V30 2912 H 263.694 1.15725 1.50691 0
M  V30 2913 H 261.844 0.387452 3.86563 0
M  V30 2914 H 263.516 2.97494 3.52555 0
M  V30 2915 H 261.759 2.85028 3.2702 0
M  V30 2916 H 262.43 2.57785 4.8811 0
M  V30 2917 H 264.906 0.826241 4.07814 0
M  V30 2918 H 263.782 0.651086 5.45025 0
M  V30 2919 H 264.043 -0.704798 4.36446 0
M  V30 2920 N 263.102 -1.41638 0.69111 0
M  V30 2921 C 264.05 -2.32597 0.0115199 0
M  V30 2922 C 265.044 -1.5072 -0.773296 0
M  V30 2923 O 266.25 -1.66685 -0.67942 0
M  V30 2924 H 262.625 -0.751849 -0.0150746 0
M  V30 2925 H 264.596 -2.87593 0.795791 0
M  V30 2926 C 263.345 -3.35467 -0.914172 0
M  V30 2927 H 262.668 -3.9852 -0.319687 0
M  V30 2928 H 264.108 -4.01662 -1.35808 0
M  V30 2929 C 262.567 -2.69004 -2.02826 0
M  V30 2930 O 263.097 -2.53444 -3.11655 0
M  V30 2931 N 261.303 -2.2777 -1.80469 0
M  V30 2932 H 260.85 -2.40626 -0.919615 0
M  V30 2933 H 260.808 -1.83635 -2.55197 0
M  V30 2934 N 264.58 -0.43555 -1.51462 0
M  V30 2935 C 265.828 0.131254 -2.01673 0
M  V30 2936 C 266.149 1.43368 -1.32177 0
M  V30 2937 O 265.419 1.90524 -0.455769 0
M  V30 2938 H 263.999 0.0514954 -0.745223 0
M  V30 2939 H 266.661 -0.577847 -1.86137 0
M  V30 2940 H 265.757 0.308446 -3.10572 0
M  V30 2941 N 266.058 1.56714 -0.166846 0
M  V30 2942 C 267.005 2.17746 0.765193 0
M  V30 2943 C 267.975 1.11614 1.23011 0
M  V30 2944 O 269.16 1.39745 1.29908 0
M  V30 2945 C 266.3 2.81882 1.9909 0
M  V30 2946 C 265.413 4.02462 1.56997 0
M  V30 2947 C 264.548 4.54537 2.749 0
M  V30 2948 C 263.587 5.67538 2.29275 0
M  V30 2949 N 262.724 6.14142 3.40255 0
M  V30 2950 H 267.564 2.97048 0.237952 0
M  V30 2951 H 265.101 1.4672 0.105725 0
M  V30 2952 H 267.059 3.17221 2.70974 0
M  V30 2953 H 265.689 2.05191 2.49192 0
M  V30 2954 H 264.741 3.72973 0.748037 0
M  V30 2955 H 266.053 4.84273 1.19503 0
M  V30 2956 H 265.207 4.92035 3.54946 0
M  V30 2957 H 263.946 3.71774 3.1565 0
M  V30 2958 H 262.951 5.29597 1.47674 0
M  V30 2959 H 264.176 6.52099 1.89588 0
M  V30 2960 H 262.122 5.3431 3.8059 0
M  V30 2961 H 262.039 6.9093 3.06841 0
M  V30 2962 H 263.307 6.56289 4.206 0
M  V30 2963 N 267.536 -0.106894 1.57237 0
M  V30 2964 C 268.764 -0.826389 1.8968 0
M  V30 2965 C 269.179 -1.72856 0.759353 0
M  V30 2966 O 268.536 -1.80503 -0.269263 0
M  V30 2967 C 268.587 -1.64967 3.21665 0
M  V30 2968 O 268.308 -0.783804 4.31031 0
M  V30 2969 C 269.809 -2.47326 3.67892 0
M  V30 2970 H 267.029 -0.236927 0.627779 0
M  V30 2971 H 269.573 -0.0876593 2.04312 0
M  V30 2972 H 267.728 -2.34103 3.08666 0
M  V30 2973 H 268.142 -1.35284 5.06753 0
M  V30 2974 H 269.616 -3.00604 4.6297 0
M  V30 2975 H 270.093 -3.25247 2.95146 0
M  V30 2976 H 270.699 -1.83411 3.83719 0
M  V30 2977 N 269.014 -1.53014 -0.377408 0
M  V30 2978 C 270.26 -1.68872 -1.12294 0
M  V30 2979 C 270.593 -0.433224 -1.89306 0
M  V30 2980 O 269.868 0.569258 -1.85983 0
M  V30 2981 C 270.151 -2.93115 -2.09179 0
M  V30 2982 C 270.004 -4.28794 -1.35853 0
M  V30 2983 C 271.323 -3.12928 -3.09458 0
M  V30 2984 H 268.442 -0.614518 -0.406862 0
M  V30 2985 H 271.084 -1.85633 -0.40503 0
M  V30 2986 H 269.234 -2.78956 -2.70399 0
M  V30 2987 H 270.906 -4.54742 -0.775082 0
M  V30 2988 H 269.149 -4.28744 -0.660364 0
M  V30 2989 H 269.82 -5.11837 -2.06706 0
M  V30 2990 H 272.296 -3.26194 -2.58334 0
M  V30 2991 H 271.172 -4.01316 -3.74482 0
M  V30 2992 H 271.433 -2.27669 -3.78971 0
M  V30 2993 N 270.492 0.636531 -1.44174 0
M  V30 2994 C 271.72 1.42353 -1.50144 0
M  V30 2995 C 272.135 1.88389 -0.124575 0
M  V30 2996 O 271.492 1.6051 0.868489 0
M  V30 2997 C 271.543 2.64744 -2.46156 0
M  V30 2998 O 271.264 2.20629 -3.7849 0
M  V30 2999 C 272.765 3.57929 -2.61537 0
M  V30 3000 H 269.985 0.436752 -0.5094 0
M  V30 3001 H 272.529 0.778933 -1.89084 0
M  V30 3002 H 270.684 3.25307 -2.10366 0
M  V30 3003 H 271.098 2.99938 -4.30276 0
M  V30 3004 H 272.572 4.40428 -3.32757 0
M  V30 3005 H 273.049 4.06382 -1.66585 0
M  V30 3006 H 273.655 3.03238 -2.98206 0
M  V30 3007 N 271.97 1.30982 0.876444 0
M  V30 3008 C 273.216 1.20474 1.63138 0
M  V30 3009 C 273.549 -0.238096 1.92735 0
M  V30 3010 O 272.824 -1.1692 1.55435 0
M  V30 3011 C 273.107 2.04244 2.96574 0
M  V30 3012 C 272.96 3.56793 2.73896 0
M  V30 3013 C 274.279 1.88684 3.97601 0
M  V30 3014 H 271.398 0.439001 0.591985 0
M  V30 3015 H 274.04 1.60704 1.01361 0
M  V30 3016 H 272.19 1.70063 3.493 0
M  V30 3017 H 273.862 4.01077 2.27892 0
M  V30 3018 H 272.105 3.80548 2.08245 0
M  V30 3019 H 272.776 4.10706 3.68815 0
M  V30 3020 H 275.252 2.18584 3.54062 0
M  V30 3021 H 274.128 2.4961 4.88862 0
M  V30 3022 H 274.389 0.848343 4.33884 0
M  V30 3023 N 273.449 -1.08991 1.13837 0
M  V30 3024 C 274.674 -1.85551 0.926585 0
M  V30 3025 C 275.099 -1.80782 -0.519566 0
M  V30 3026 O 274.457 -1.18855 -1.36906 0
M  V30 3027 C 274.505 -3.31266 1.42462 0
M  V30 3028 O 273.609 -4.07822 0.612789 0
M  V30 3029 H 272.95 -0.575192 0.331738 0
M  V30 3030 H 275.48 -1.37604 1.51414 0
M  V30 3031 H 275.49 -3.82112 1.43019 0
M  V30 3032 H 274.165 -3.34052 2.47754 0
M  V30 3033 H 272.742 -3.66731 0.675463 0
M  V30 3034 N 274.927 -0.932562 -1.27047 0
M  V30 3035 C 275.857 -0.452902 -2.29066 0
M  V30 3036 C 276.838 0.489338 -1.62909 0
M  V30 3037 O 278.023 0.393046 -1.90181 0
M  V30 3038 C 275.153 0.290698 -3.46081 0
M  V30 3039 C 274.107 -0.564168 -4.24265 0
M  V30 3040 C 273.433 0.308886 -5.33807 0
M  V30 3041 C 274.733 -1.83112 -4.89149 0
M  V30 3042 H 276.427 -1.30552 -2.69437 0
M  V30 3043 H 273.973 -0.629201 -1.29526 0
M  V30 3044 H 275.926 0.637233 -4.16554 0
M  V30 3045 H 274.65 1.17738 -3.0464 0
M  V30 3046 H 273.309 -0.893477 -3.55545 0
M  V30 3047 H 272.957 1.19467 -4.88607 0
M  V30 3048 H 272.657 -0.259633 -5.87026 0
M  V30 3049 H 274.181 0.650884 -6.07121 0
M  V30 3050 H 275.595 -1.55236 -5.51883 0
M  V30 3051 H 273.992 -2.34353 -5.52448 0
M  V30 3052 H 275.062 -2.54772 -4.12576 0
M  V30 3053 N 276.405 1.4127 -0.698611 0
M  V30 3054 C 277.821 1.55241 -0.370462 0
M  V30 3055 C 278.021 1.67351 1.12231 0
M  V30 3056 O 277.077 1.65363 1.90818 0
M  V30 3057 C 278.39 2.78997 -1.12165 0
M  V30 3058 C 279.938 2.92797 -1.1063 0
M  V30 3059 C 280.413 4.19445 -1.8393 0
M  V30 3060 N 281.904 4.26409 -1.80914 0
M  V30 3061 C 282.639 5.23271 -2.34467 0
M  V30 3062 N 282.135 6.26145 -2.96504 0
M  V30 3063 N 283.928 5.15232 -2.24706 0
M  V30 3064 H 276.079 1.31654 -1.66676 0
M  V30 3065 H 278.342 0.635393 -0.703548 0
M  V30 3066 H 278.048 2.76268 -2.17644 0
M  V30 3067 H 277.922 3.70606 -0.702209 0
M  V30 3068 H 280.309 2.95039 -0.0597713 0
M  V30 3069 H 280.39 2.02353 -1.56483 0
M  V30 3070 H 280.034 4.17964 -2.88563 0
M  V30 3071 H 279.964 5.08866 -1.35509 0
M  V30 3072 H 282.455 3.527 -1.35687 0
M  V30 3073 H 282.768 6.96451 -3.34927 0
M  V30 3074 H 281.113 6.26638 -3.00583 0
M  V30 3075 H 284.304 4.33789 -1.7591 0
M  V30 3076 H 284.477 5.90552 -2.66745 0
M  V30 3077 N 277.883 0.443576 1.51229 0
M  V30 3078 C 278.793 -0.370721 2.31652 0
M  V30 3079 C 279.809 -1.02186 1.40833 0
M  V30 3080 O 280.985 -1.01586 1.73903 0
M  V30 3081 C 278.05 -1.45376 3.14749 0
M  V30 3082 C 277.111 -0.822099 4.21355 0
M  V30 3083 C 276.344 -1.85353 5.0048 0
M  V30 3084 O 276.567 -3.07656 4.80316 0
M  V30 3085 O 275.501 -1.4406 5.84406 0
M  V30 3086 H 279.327 0.286002 3.0235 0
M  V30 3087 H 276.912 0.20598 1.47973 0
M  V30 3088 H 278.794 -2.08173 3.66391 0
M  V30 3089 H 277.469 -2.09445 2.46809 0
M  V30 3090 H 276.376 -0.155909 3.73775 0
M  V30 3091 H 277.709 -0.224797 4.91686 0
M  V30 3092 N 279.361 -1.56624 0.175154 0
M  V30 3093 C 280.291 -2.21155 -0.749195 0
M  V30 3094 C 281.272 -1.16836 -1.23626 0
M  V30 3095 O 282.457 -1.45277 -1.28873 0
M  V30 3096 C 279.587 -2.8553 -1.97711 0
M  V30 3097 C 278.541 -3.95921 -1.62575 0
M  V30 3098 C 277.867 -4.47365 -2.92864 0
M  V30 3099 C 279.167 -5.15323 -0.850838 0
M  V30 3100 H 280.861 -2.98653 -0.211295 0
M  V30 3101 H 278.407 -1.43651 -0.100188 0
M  V30 3102 H 280.36 -3.2935 -2.62881 0
M  V30 3103 H 279.084 -2.05406 -2.53921 0
M  V30 3104 H 277.743 -3.52762 -0.997719 0
M  V30 3105 H 277.391 -3.64027 -3.47122 0
M  V30 3106 H 277.091 -5.21839 -2.70106 0
M  V30 3107 H 278.615 -4.93873 -3.59056 0
M  V30 3108 H 280.029 -5.55812 -1.40521 0
M  V30 3109 H 278.426 -5.95739 -0.722154 0
M  V30 3110 H 279.496 -4.84661 0.152082 0
M  V30 3111 N 280.839 0.0985539 -1.57292 0
M  V30 3112 C 281.786 1.11981 -2.01814 0
M  V30 3113 C 282.756 1.39999 -0.89384 0
M  V30 3114 O 283.941 1.5152 -1.15958 0
M  V30 3115 C 281.081 2.43577 -2.44467 0
M  V30 3116 C 280.194 2.2232 -3.70402 0
M  V30 3117 C 279.329 3.4729 -4.01949 0
M  V30 3118 C 278.368 3.2128 -5.21005 0
M  V30 3119 N 277.505 4.38507 -5.48321 0
M  V30 3120 H 282.345 0.733149 -2.88841 0
M  V30 3121 H 279.882 0.350482 -1.42864 0
M  V30 3122 H 281.84 3.20373 -2.6724 0
M  V30 3123 H 280.47 2.80097 -1.60455 0
M  V30 3124 H 279.522 1.36343 -3.55126 0
M  V30 3125 H 280.834 1.99089 -4.57345 0
M  V30 3126 H 279.988 4.32495 -4.25479 0
M  V30 3127 H 278.727 3.73572 -3.13521 0
M  V30 3128 H 277.732 2.34468 -4.97298 0
M  V30 3129 H 278.957 2.96348 -6.11028 0
M  V30 3130 H 276.903 4.64871 -4.62851 0
M  V30 3131 H 276.82 4.18455 -6.29628 0
M  V30 3132 H 278.088 5.24787 -5.76385 0
M  V30 3133 N 282.317 1.53212 0.369288 0
M  V30 3134 C 283.264 1.79388 1.45219 0
M  V30 3135 C 284.234 0.638059 1.53356 0
M  V30 3136 O 285.419 0.879852 1.69302 0
M  V30 3137 C 282.559 1.98623 2.82211 0
M  V30 3138 C 281.672 3.26337 2.8307 0
M  V30 3139 C 280.807 3.35779 4.11614 0
M  V30 3140 C 279.846 4.5754 4.06601 0
M  V30 3141 N 278.983 4.64155 5.26787 0
M  V30 3142 H 283.823 2.71794 1.22198 0
M  V30 3143 H 281.36 1.34642 0.592444 0
M  V30 3144 H 283.318 2.07761 3.61789 0
M  V30 3145 H 281.948 1.09558 3.03639 0
M  V30 3146 H 281 3.26171 1.95747 0
M  V30 3147 H 282.312 4.15988 2.75237 0
M  V30 3148 H 281.466 3.44208 4.99606 0
M  V30 3149 H 280.205 2.44137 4.22195 0
M  V30 3150 H 279.21 4.49215 3.16996 0
M  V30 3151 H 280.435 5.50519 3.97625 0
M  V30 3152 H 278.381 3.75413 5.3796 0
M  V30 3153 H 278.298 5.47706 5.21109 0
M  V30 3154 H 279.566 4.76863 6.16621 0
M  V30 3155 N 283.795 -0.628877 1.44509 0
M  V30 3156 C 284.742 -1.74074 1.51549 0
M  V30 3157 C 285.712 -1.62084 0.363021 0
M  V30 3158 O 286.897 -1.81975 0.573567 0
M  V30 3159 C 284.037 -3.12328 1.46784 0
M  V30 3160 C 283.15 -3.35277 2.72422 0
M  V30 3161 C 282.285 -4.63515 2.59475 0
M  V30 3162 C 281.324 -4.7965 3.80266 0
M  V30 3163 N 280.461 -5.99168 3.65981 0
M  V30 3164 H 285.301 -1.67392 2.46544 0
M  V30 3165 H 282.838 -0.816527 1.22357 0
M  V30 3166 H 284.796 -3.92286 1.42012 0
M  V30 3167 H 283.426 -3.18018 0.553544 0
M  V30 3168 H 282.478 -2.49242 2.87372 0
M  V30 3169 H 283.79 -3.43078 3.62076 0
M  V30 3170 H 282.944 -5.51638 2.52548 0
M  V30 3171 H 281.683 -4.58076 1.67384 0
M  V30 3172 H 280.688 -3.89957 3.87574 0
M  V30 3173 H 281.913 -4.86902 4.73395 0
M  V30 3174 H 279.859 -5.94814 2.76644 0
M  V30 3175 H 279.776 -6.08035 4.49254 0
M  V30 3176 H 281.044 -6.89846 3.6295 0
M  V30 3177 N 285.273 -1.31445 -0.869486 0
M  V30 3178 C 286.203 -1.21727 -1.99261 0
M  V30 3179 C 287.184 -0.104359 -1.6978 0
M  V30 3180 O 288.369 -0.289038 -1.92037 0
M  V30 3181 C 285.499 -0.924317 -3.34774 0
M  V30 3182 C 284.453 -1.99685 -3.78563 0
M  V30 3183 C 283.779 -1.55658 -5.11541 0
M  V30 3184 C 285.079 -3.41003 -3.95619 0
M  V30 3185 H 286.773 -2.1569 -2.07649 0
M  V30 3186 H 284.319 -1.03839 -0.997675 0
M  V30 3187 H 286.272 -0.842934 -4.12883 0
M  V30 3188 H 284.996 0.0509793 -3.2656 0
M  V30 3189 H 283.655 -2.06813 -3.02694 0
M  V30 3190 H 283.303 -0.569132 -4.9977 0
M  V30 3191 H 283.003 -2.27409 -5.41811 0
M  V30 3192 H 284.527 -1.48928 -5.92159 0
M  V30 3193 H 285.941 -3.36547 -4.64122 0
M  V30 3194 H 284.338 -4.10975 -4.37286 0
M  V30 3195 H 285.408 -3.81754 -2.98985 0
M  V30 3196 N 286.751 1.08385 -1.14413 0
M  V30 3197 C 287.981 1.8425 -0.934644 0
M  V30 3198 C 288.389 1.81907 0.520234 0
M  V30 3199 O 287.732 1.22126 1.37226 0
M  V30 3200 C 287.794 3.32853 -1.35828 0
M  V30 3201 C 287.458 3.5893 -2.82875 0
M  V30 3202 C 288.455 3.53756 -3.80989 0
M  V30 3203 C 286.14 3.86934 -3.20293 0
M  V30 3204 C 288.134 3.76216 -5.14529 0
M  V30 3205 C 285.821 4.09047 -4.54008 0
M  V30 3206 C 286.819 4.03682 -5.50936 0
M  V30 3207 O 286.507 4.25214 -6.82238 0
M  V30 3208 H 286.239 0.588502 -0.332628 0
M  V30 3209 H 288.793 1.37792 -1.52324 0
M  V30 3210 H 287.023 3.8007 -0.713019 0
M  V30 3211 H 288.712 3.90154 -1.11957 0
M  V30 3212 H 289.478 3.32135 -3.53428 0
M  V30 3213 H 285.357 3.9023 -2.45442 0
M  V30 3214 H 288.901 3.71943 -5.90173 0
M  V30 3215 H 284.798 4.30151 -4.8129 0
M  V30 3216 H 285.566 4.42619 -6.88499 0
M  V30 3217 N 288.23 0.939286 1.26551 0
M  V30 3218 C 289.16 0.465044 2.28822 0
M  V30 3219 C 290.141 -0.480692 1.63167 0
M  V30 3220 O 291.326 -0.382955 1.90387 0
M  V30 3221 C 288.456 -0.27234 3.46231 0
M  V30 3222 C 287.41 0.58666 4.2396 0
M  V30 3223 C 286.736 -0.280573 5.33963 0
M  V30 3224 C 288.036 1.85704 4.88171 0
M  V30 3225 H 289.73 1.31979 2.68741 0
M  V30 3226 H 287.276 0.636061 1.29191 0
M  V30 3227 H 289.229 -0.615133 4.16886 0
M  V30 3228 H 287.953 -1.16121 3.0526 0
M  V30 3229 H 286.612 0.91232 3.55067 0
M  V30 3230 H 286.26 -1.16874 4.89234 0
M  V30 3231 H 285.96 0.29076 5.8688 0
M  V30 3232 H 287.484 -0.618678 6.07458 0
M  V30 3233 H 288.898 1.58161 5.51052 0
M  V30 3234 H 287.295 2.37279 5.51197 0
M  V30 3235 H 288.365 2.56957 4.11219 0
M  V30 3236 N 289.708 -1.40897 0.706093 0
M  V30 3237 C 290.948 -2.02916 0.245827 0
M  V30 3238 C 291.312 -1.54751 -1.13649 0
M  V30 3239 O 292.513 -2.08768 -1.69321 0
M  V30 3240 C 290.784 -3.56031 0.312537 0
M  V30 3241 S 292.343 -4.38741 -0.0721388 0
M  V30 3242 H 289.161 -0.704186 0.0982007 0
M  V30 3243 H 291.763 -1.72168 0.926207 0
M  V30 3244 H 290.467 -3.88579 1.32039 0
M  V30 3245 H 289.998 -3.91495 -0.386641 0
M  V30 3246 H 292.013 -4.78952 -1.29692 0
M  V30 3247 N 291.186 -0.45159 -1.50991 0
M  V30 3248 C 292.116 0.342898 -2.30969 0
M  V30 3249 C 293.097 1.00815 -1.37005 0
M  V30 3250 O 294.282 1.00907 -1.65926 0
M  V30 3251 C 291.412 1.43637 -3.16205 0
M  V30 3252 C 290.366 0.893818 -4.18563 0
M  V30 3253 C 289.692 2.08411 -4.92411 0
M  V30 3254 C 290.992 -0.0815568 -5.22236 0
M  V30 3255 H 292.686 -0.324556 -2.97636 0
M  V30 3256 H 290.232 -0.157531 -1.43136 0
M  V30 3257 H 292.185 1.9995 -3.70942 0
M  V30 3258 H 290.909 2.13232 -2.47386 0
M  V30 3259 H 289.568 0.352798 -3.64898 0
M  V30 3260 H 289.216 2.76658 -4.20082 0
M  V30 3261 H 288.916 1.72741 -5.61636 0
M  V30 3262 H 290.44 2.65251 -5.49976 0
M  V30 3263 H 291.854 0.391742 -5.7196 0
M  V30 3264 H 290.251 -0.351551 -5.99069 0
M  V30 3265 H 291.321 -1.01374 -4.74185 0
M  V30 3266 N 292.664 1.56529 -0.183458 0
M  V30 3267 C 293.597 2.14417 0.781052 0
M  V30 3268 C 294.575 1.07761 1.21763 0
M  V30 3269 O 295.759 1.35807 1.30724 0
M  V30 3270 C 292.886 2.69361 2.05335 0
M  V30 3271 C 291.932 3.885 1.75982 0
M  V30 3272 S 292.765 5.27568 0.918256 0
M  V30 3273 C 293.921 5.85926 2.20095 0
M  V30 3274 H 294.154 2.95893 0.2889 0
M  V30 3275 H 291.687 1.54368 0.0313844 0
M  V30 3276 H 293.645 3.01662 2.78406 0
M  V30 3277 H 292.306 1.87949 2.51663 0
M  V30 3278 H 291.499 4.25314 2.70415 0
M  V30 3279 H 291.101 3.57149 1.10999 0
M  V30 3280 H 293.393 5.99579 3.15453 0
M  V30 3281 H 294.336 6.82761 1.87731 0
M  V30 3282 H 294.744 5.14438 2.32409 0
M  V30 3283 N 294.142 -0.090211 1.57342 0
M  V30 3284 C 295.367 -0.810082 1.90925 0
M  V30 3285 C 295.792 -1.71248 0.778187 0
M  V30 3286 O 295.15 -1.79278 -0.269991 0
M  V30 3287 C 295.198 -1.59529 3.23393 0
M  V30 3288 O 294.302 -2.70461 3.11327 0
M  V30 3289 H 293.643 -0.222231 0.625707 0
M  V30 3290 H 296.173 -0.0639716 2.045 0
M  V30 3291 H 296.183 -1.97847 3.5682 0
M  V30 3292 H 294.858 -0.933055 4.05299 0
M  V30 3293 H 293.435 -2.35135 2.89423 0
M  V30 3294 N 295.62 -1.53406 -0.361157 0
M  V30 3295 C 296.866 -1.70054 -1.10496 0
M  V30 3296 C 297.199 -0.453278 -1.88836 0
M  V30 3297 O 296.474 0.5495 -1.86576 0
M  V30 3298 C 296.757 -2.95317 -2.06058 0
M  V30 3299 C 296.61 -4.3021 -1.31298 0
M  V30 3300 C 297.929 -3.16193 -3.06121 0
M  V30 3301 H 295.048 -0.618799 -0.400321 0
M  V30 3302 H 297.69 -1.86052 -0.385318 0
M  V30 3303 H 295.84 -2.81809 -2.67425 0
M  V30 3304 H 297.512 -4.55538 -0.726807 0
M  V30 3305 H 295.755 -4.29421 -0.614853 0
M  V30 3306 H 296.426 -5.14 -2.01265 0
M  V30 3307 H 298.902 -3.28916 -2.5486 0
M  V30 3308 H 297.778 -4.05266 -3.70204 0
M  V30 3309 H 298.039 -2.31676 -3.76535 0
M  V30 3310 N 297.098 0.621204 -1.44841 0
M  V30 3311 C 298.046 1.75385 -1.52784 0
M  V30 3312 C 299.04 1.64639 -0.398779 0
M  V30 3313 O 300.246 1.70598 -0.574137 0
M  V30 3314 H 296.621 0.579193 -0.479625 0
M  V30 3315 H 298.592 1.6581 -2.48092 0
M  V30 3316 C 297.341 3.13742 -1.4987 0
M  V30 3317 H 296.664 3.22663 -2.36069 0
M  V30 3318 H 298.104 3.92861 -1.59487 0
M  V30 3319 C 296.563 3.36175 -0.220973 0
M  V30 3320 O 297.093 3.95469 0.704782 0
M  V30 3321 N 295.299 2.90348 -0.120963 0
M  V30 3322 H 294.846 2.42278 -0.875162 0
M  V30 3323 H 294.804 3.05732 0.733168 0
M  V30 3324 N 298.576 1.31904 0.862503 0
M  V30 3325 C 299.539 1.20131 1.95195 0
M  V30 3326 C 300.539 0.126409 1.60302 0
M  V30 3327 O 301.729 0.376234 1.70089 0
M  V30 3328 C 298.861 0.845691 3.30244 0
M  V30 3329 H 300.054 2.16943 2.07064 0
M  V30 3330 H 297.607 1.15622 1.05172 0
M  V30 3331 H 298.342 -0.120957 3.24074 0
M  V30 3332 H 298.127 1.62276 3.56944 0
M  V30 3333 H 299.617 0.787418 4.10109 0
M  V30 3334 N 300.054 -1.07777 1.14986 0
M  V30 3335 C 300.984 -2.16865 0.865557 0
M  V30 3336 C 301.965 -1.69123 -0.182083 0
M  V30 3337 O 303.15 -1.94164 -0.0373815 0
M  V30 3338 C 300.28 -3.45539 0.349313 0
M  V30 3339 C 299.234 -4.06708 1.33313 0
M  V30 3340 C 298.56 -5.30411 0.675918 0
M  V30 3341 C 299.86 -4.47241 2.69764 0
M  V30 3342 H 301.554 -2.40905 1.77778 0
M  V30 3343 H 299.1 -1.15781 0.856203 0
M  V30 3344 H 301.053 -4.21174 0.137983 0
M  V30 3345 H 299.777 -3.21072 -0.598362 0
M  V30 3346 H 298.436 -3.33112 1.53075 0
M  V30 3347 H 298.084 -5.02232 -0.277767 0
M  V30 3348 H 297.784 -5.72293 1.33244 0
M  V30 3349 H 299.308 -6.08755 0.474262 0
M  V30 3350 H 300.722 -5.14025 2.53873 0
M  V30 3351 H 299.119 -5.00062 3.3175 0
M  V30 3352 H 300.189 -3.58818 3.26156 0
M  V30 3353 N 301.532 -0.945985 -1.26051 0
M  V30 3354 C 302.442 -0.465633 -2.29933 0
M  V30 3355 C 303.458 0.462761 -1.67733 0
M  V30 3356 O 304.634 0.341118 -1.9849 0
M  V30 3357 C 301.699 0.256994 -3.45746 0
M  V30 3358 C 300.76 -0.708549 -4.23412 0
M  V30 3359 C 299.993 -0.0203135 -5.33696 0
M  V30 3360 O 300.216 1.19571 -5.57726 0
M  V30 3361 O 299.15 -0.701459 -5.97799 0
M  V30 3362 H 302.976 -1.32866 -2.73094 0
M  V30 3363 H 300.561 -0.712071 -1.31339 0
M  V30 3364 H 302.443 0.663852 -4.16138 0
M  V30 3365 H 301.118 1.09533 -3.04605 0
M  V30 3366 H 300.025 -1.16545 -3.55483 0
M  V30 3367 H 301.358 -1.51465 -4.68315 0
M  V30 3368 N 303.011 1.40521 -0.713556 0
M  V30 3369 C 303.974 2.29098 -0.0684347 0
M  V30 3370 C 304.974 1.45268 0.689472 0
M  V30 3371 O 306.164 1.66205 0.521677 0
M  V30 3372 C 303.296 3.28446 0.913024 0
M  V30 3373 H 304.489 2.87645 -0.84855 0
M  V30 3374 H 302.042 1.48809 -0.47809 0
M  V30 3375 H 302.777 2.74913 1.72027 0
M  V30 3376 H 302.562 3.90327 0.372472 0
M  V30 3377 H 304.052 3.94777 1.36165 0
M  V30 3378 N 304.489 0.459591 1.5075 0
M  V30 3379 C 305.738 -0.100971 2.01447 0
M  V30 3380 C 306.051 -1.41816 1.34713 0
M  V30 3381 O 307.257 -2.06299 1.76502 0
M  V30 3382 C 305.713 -0.23047 3.59161 0
M  V30 3383 C 305.321 1.0776 4.34847 0
M  V30 3384 C 307.065 -0.743608 4.17936 0
M  V30 3385 C 304.972 0.91253 5.84317 0
M  V30 3386 H 303.902 -0.0415102 0.752856 0
M  V30 3387 H 306.553 0.592742 1.73663 0
M  V30 3388 H 304.935 -0.987703 3.83485 0
M  V30 3389 H 306.109 1.8449 4.22256 0
M  V30 3390 H 304.424 1.52097 3.87628 0
M  V30 3391 H 307.021 -0.883959 5.27343 0
M  V30 3392 H 307.364 -1.73196 3.78562 0
M  V30 3393 H 307.897 -0.04408 3.97776 0
M  V30 3394 H 304.636 1.87391 6.28144 0
M  V30 3395 H 304.156 0.185422 5.99513 0
M  V30 3396 H 305.835 0.574547 6.44444 0
M  V30 3397 N 305.967 -1.56429 0.191757 0
M  V30 3398 C 307.383 -1.58754 -0.164137 0
M  V30 3399 C 307.583 -1.20782 -1.61288 0
M  V30 3400 O 306.639 -0.928999 -2.34789 0
M  V30 3401 C 307.952 -3.00396 0.135195 0
M  V30 3402 C 309.5 -3.1291 0.0750351 0
M  V30 3403 C 309.975 -4.56679 0.347632 0
M  V30 3404 N 311.466 -4.62252 0.296131 0
M  V30 3405 C 312.201 -5.71379 0.480948 0
M  V30 3406 N 311.697 -6.88986 0.725933 0
M  V30 3407 N 313.49 -5.60563 0.415435 0
M  V30 3408 H 305.641 -1.79393 1.13718 0
M  V30 3409 H 307.904 -0.832414 0.453643 0
M  V30 3410 H 307.61 -3.32726 1.13958 0
M  V30 3411 H 307.484 -3.72963 -0.563773 0
M  V30 3412 H 309.871 -2.80394 -0.919948 0
M  V30 3413 H 309.952 -2.42736 0.807029 0
M  V30 3414 H 309.596 -4.89907 1.33992 0
M  V30 3415 H 309.526 -5.25039 -0.405212 0
M  V30 3416 H 312.017 -3.7773 0.113259 0
M  V30 3417 H 312.33 -7.68046 0.855857 0
M  V30 3418 H 310.675 -6.90801 0.762788 0
M  V30 3419 H 313.866 -4.67561 0.224486 0
M  V30 3420 H 314.039 -6.45551 0.562889 0
M  V30 3421 N 307.445 0.0818655 -1.57387 0
M  V30 3422 C 308.692 0.782914 -1.86753 0
M  V30 3423 C 309.02 1.78082 -0.782118 0
M  V30 3424 O 308.275 1.94426 0.22295 0
M  V30 3425 C 308.574 1.53513 -3.22752 0
M  V30 3426 C 308.24 0.678134 -4.45771 0
M  V30 3427 C 306.902 0.441929 -4.79166 0
M  V30 3428 C 309.254 0.0832243 -5.21134 0
M  V30 3429 C 306.582 -0.398833 -5.85343 0
M  V30 3430 C 308.934 -0.744935 -6.28199 0
M  V30 3431 C 307.598 -0.991107 -6.60101 0
M  V30 3432 H 306.868 0.286489 -0.683378 0
M  V30 3433 H 309.515 0.0439808 -1.91449 0
M  V30 3434 H 307.82 2.34599 -3.138 0
M  V30 3435 H 309.517 2.08218 -3.42705 0
M  V30 3436 H 306.107 0.872357 -4.19628 0
M  V30 3437 H 310.291 0.252847 -4.95655 0
M  V30 3438 H 305.547 -0.598405 -6.08465 0
M  V30 3439 H 309.721 -1.21271 -6.8576 0
M  V30 3440 H 307.348 -1.64437 -7.42202 0
M  V30 3441 N 308.923 1.53595 0.353017 0
M  V30 3442 C 310.153 1.74058 1.11299 0
M  V30 3443 C 310.561 0.475205 1.83135 0
M  V30 3444 O 309.904 -0.562344 1.74881 0
M  V30 3445 C 309.966 2.85994 2.17825 0
M  V30 3446 C 309.63 4.25923 1.65647 0
M  V30 3447 C 310.627 5.07829 1.11383 0
M  V30 3448 C 308.312 4.72377 1.7078 0
M  V30 3449 C 310.306 6.34285 0.629439 0
M  V30 3450 C 307.993 5.98808 1.21953 0
M  V30 3451 C 308.991 6.79594 0.681265 0
M  V30 3452 O 308.679 8.03651 0.200248 0
M  V30 3453 H 308.411 0.585327 0.338183 0
M  V30 3454 H 310.965 2.01186 0.413927 0
M  V30 3455 H 309.195 2.54368 2.91262 0
M  V30 3456 H 310.884 2.94515 2.79313 0
M  V30 3457 H 311.65 4.73107 1.06746 0
M  V30 3458 H 307.529 4.0956 2.11617 0
M  V30 3459 H 311.073 6.97288 0.208636 0
M  V30 3460 H 306.97 6.33026 1.26287 0
M  V30 3461 H 307.738 8.1788 0.318416 0
M  V30 3462 N 310.401 -0.613514 1.45168 0
M  V30 3463 C 311.647 -1.37471 1.49096 0
M  V30 3464 C 311.98 -1.93765 0.129901 0
M  V30 3465 O 311.255 -1.74707 -0.854858 0
M  V30 3466 C 311.538 -2.52701 2.56542 0
M  V30 3467 C 311.391 -2.01643 4.0207 0
M  V30 3468 C 312.71 -3.54849 2.60327 0
M  V30 3469 H 309.829 -0.498502 0.54283 0
M  V30 3470 H 312.471 -0.692125 1.76945 0
M  V30 3471 H 310.621 -3.10931 2.32926 0
M  V30 3472 H 312.293 -1.48108 4.36877 0
M  V30 3473 H 310.536 -1.32688 4.13009 0
M  V30 3474 H 311.207 -2.84681 4.72928 0
M  V30 3475 H 313.683 -3.0645 2.81474 0
M  V30 3476 H 312.559 -4.32973 3.37381 0
M  V30 3477 H 312.82 -4.10079 1.6519 0
M  V30 3478 N 311.879 -1.3236 -0.855495 0
M  V30 3479 C 313.104 -1.2601 -1.64731 0
M  V30 3480 C 313.529 0.169068 -1.87339 0
M  V30 3481 O 312.887 1.12016 -1.42556 0
M  V30 3482 C 312.935 -2.02417 -2.98429 0
M  V30 3483 O 312.039 -1.3714 -3.8893 0
M  V30 3484 H 311.38 -0.434325 -0.502253 0
M  V30 3485 H 313.91 -1.74661 -1.06558 0
M  V30 3486 H 313.92 -2.12559 -3.48257 0
M  V30 3487 H 312.595 -3.06343 -2.81295 0
M  V30 3488 H 311.172 -1.3554 -3.47395 0
M  V30 3489 N 313.357 1.07166 -1.15556 0
M  V30 3490 C 314.604 1.79798 -0.931604 0
M  V30 3491 C 314.932 1.8682 0.54115 0
M  V30 3492 O 314.187 1.34942 1.41736 0
M  V30 3493 C 314.486 3.24707 -1.49332 0
M  V30 3494 C 314.152 3.37781 -2.98688 0
M  V30 3495 C 312.814 3.41057 -3.39461 0
M  V30 3496 C 315.166 3.40424 -3.94665 0
M  V30 3497 C 312.494 3.4458 -4.74849 0
M  V30 3498 C 314.846 3.45485 -5.29927 0
M  V30 3499 C 313.51 3.47039 -5.70193 0
M  V30 3500 H 312.78 0.657928 -0.340898 0
M  V30 3501 H 315.427 1.26091 -1.44129 0
M  V30 3502 H 313.732 3.81208 -0.904859 0
M  V30 3503 H 315.429 3.79486 -1.29582 0
M  V30 3504 H 312.019 3.35932 -2.66172 0
M  V30 3505 H 316.203 3.37113 -3.64237 0
M  V30 3506 H 311.459 3.44083 -5.05388 0
M  V30 3507 H 315.633 3.46476 -6.04092 0
M  V30 3508 H 313.26 3.49522 -6.75084 0
M  V30 3509 N 314.835 0.952656 1.25548 0
M  V30 3510 C 315.798 0.475794 2.24207 0
M  V30 3511 C 316.798 -0.419428 1.55234 0
M  V30 3512 O 317.988 -0.216994 1.72843 0
M  V30 3513 C 315.12 -0.312814 3.39462 0
M  V30 3514 H 316.313 1.34779 2.67908 0
M  V30 3515 H 313.866 0.735739 1.37901 0
M  V30 3516 H 314.601 -1.20257 3.01179 0
M  V30 3517 H 314.386 0.329404 3.90714 0
M  V30 3518 H 315.876 -0.635986 4.12729 0
M  V30 3519 N 316.313 -1.40141 0.720998 0
M  V30 3520 C 317.553 -2.02644 0.267335 0
M  V30 3521 C 317.917 -1.55948 -1.12001 0
M  V30 3522 O 319.118 -2.10552 -1.67097 0
M  V30 3523 C 317.389 -3.55679 0.350281 0
M  V30 3524 S 318.948 -4.38793 -0.0256004 0
M  V30 3525 H 315.766 -0.703105 0.105664 0
M  V30 3526 H 318.368 -1.71175 0.944416 0
M  V30 3527 H 317.072 -3.87157 1.36153 0
M  V30 3528 H 316.603 -3.91883 -0.345096 0
M  V30 3529 H 318.618 -4.803 -1.24604 0
M  V30 3530 N 317.792 -0.46758 -1.50504 0
M  V30 3531 C 319.017 0.0886943 -2.0721 0
M  V30 3532 C 319.442 1.33057 -1.32956 0
M  V30 3533 O 318.8 1.77354 -0.376197 0
M  V30 3534 C 318.848 0.359202 -3.58806 0
M  V30 3535 O 317.952 1.44034 -3.8643 0
M  V30 3536 H 317.293 -0.0114349 -0.663902 0
M  V30 3537 H 319.823 -0.657613 -1.93744 0
M  V30 3538 H 319.833 0.600742 -4.03553 0
M  V30 3539 H 318.508 -0.548311 -4.1227 0
M  V30 3540 H 317.085 1.18638 -3.53524 0
M  V30 3541 N 319.27 1.56325 -0.20005 0
M  V30 3542 C 320.517 1.97719 0.437411 0
M  V30 3543 C 320.845 1.08709 1.61284 0
M  V30 3544 O 320.1 0.127261 1.95286 0
M  V30 3545 C 320.399 3.4495 0.935103 0
M  V30 3546 C 320.065 4.5072 -0.12749 0
M  V30 3547 C 318.727 4.79368 -0.419451 0
M  V30 3548 C 321.079 5.14268 -0.847231 0
M  V30 3549 C 318.407 5.68854 -1.43604 0
M  V30 3550 C 320.759 6.04852 -1.85301 0
M  V30 3551 C 319.423 6.31855 -2.15211 0
M  V30 3552 H 318.693 0.723507 0.16006 0
M  V30 3553 H 321.34 1.89166 -0.298056 0
M  V30 3554 H 319.645 3.50599 1.74894 0
M  V30 3555 H 321.342 3.74337 1.43781 0
M  V30 3556 H 317.932 4.28458 0.11023 0
M  V30 3557 H 322.116 4.92222 -0.634901 0
M  V30 3558 H 317.372 5.88047 -1.67364 0
M  V30 3559 H 321.546 6.53152 -2.41591 0
M  V30 3560 H 319.173 7.00994 -2.94129 0
M  V30 3561 N 320.748 -0.0735177 1.57428 0
M  V30 3562 C 321.711 -1.07192 2.02589 0
M  V30 3563 C 322.711 -1.31695 0.922661 0
M  V30 3564 O 323.901 -1.27445 1.18758 0
M  V30 3565 C 321.033 -2.41599 2.40506 0
M  V30 3566 H 322.226 -0.682727 2.92025 0
M  V30 3567 H 319.779 -0.319193 1.53006 0
M  V30 3568 H 320.514 -2.85354 1.5409 0
M  V30 3569 H 320.299 -2.25156 3.21009 0
M  V30 3570 H 321.789 -3.13367 2.76027 0
M  V30 3571 N 322.226 -1.5378 -0.344866 0
M  V30 3572 C 323.473 -1.70963 -1.08526 0
M  V30 3573 C 323.801 -0.472126 -1.88683 0
M  V30 3574 O 323.056 0.546116 -1.87926 0
M  V30 3575 C 323.355 -2.92407 -2.05506 0
M  V30 3576 C 323.021 -4.28066 -1.41671 0
M  V30 3577 C 321.683 -4.64951 -1.2399 0
M  V30 3578 C 324.035 -5.12344 -0.956726 0
M  V30 3579 C 321.363 -5.83733 -0.589277 0
M  V30 3580 C 323.715 -6.3179 -0.320015 0
M  V30 3581 C 322.379 -6.67372 -0.130881 0
M  V30 3582 H 321.649 -0.625598 -0.397124 0
M  V30 3583 H 324.296 -1.87995 -0.36469 0
M  V30 3584 H 322.601 -2.69973 -2.8394 0
M  V30 3585 H 324.298 -3.02895 -2.62784 0
M  V30 3586 H 320.888 -3.99034 -1.56429 0
M  V30 3587 H 325.072 -4.8438 -1.08118 0
M  V30 3588 H 320.328 -6.09877 -0.431344 0
M  V30 3589 H 324.502 -6.96386 0.0445072 0
M  V30 3590 H 322.129 -7.59273 0.375318 0
M  V30 3591 N 323.704 0.605807 -1.45491 0
M  V30 3592 C 324.667 1.69836 -1.5391 0
M  V30 3593 C 325.667 1.55261 -0.418424 0
M  V30 3594 O 326.857 1.60296 -0.681965 0
M  V30 3595 C 323.989 3.09117 -1.43734 0
M  V30 3596 H 325.182 1.63738 -2.51257 0
M  V30 3597 H 322.735 0.821689 -1.32959 0
M  V30 3598 H 323.47 3.20791 -0.475788 0
M  V30 3599 H 323.255 3.21104 -2.25021 0
M  V30 3600 H 324.745 3.88696 -1.52661 0
M  V30 3601 N 325.182 1.32811 0.848464 0
M  V30 3602 C 326.092 1.24278 1.98978 0
M  V30 3603 C 327.108 0.155176 1.73307 0
M  V30 3604 O 328.284 0.376999 1.9784 0
M  V30 3605 C 325.349 0.972444 3.32783 0
M  V30 3606 C 324.41 2.14911 3.71634 0
M  V30 3607 C 323.643 1.89157 4.99054 0
M  V30 3608 O 323.866 0.837165 5.64223 0
M  V30 3609 O 322.8 2.75433 5.35183 0
M  V30 3610 H 326.626 2.20238 2.09115 0
M  V30 3611 H 324.211 1.12762 0.980052 0
M  V30 3612 H 326.093 0.838432 4.12975 0
M  V30 3613 H 324.768 0.043051 3.23671 0
M  V30 3614 H 323.675 2.33862 2.91992 0
M  V30 3615 H 325.008 3.06151 3.85399 0
M  V30 3616 N 326.66 -1.06551 1.16123 0
M  V30 3617 C 328.076 -1.3142 0.905585 0
M  V30 3618 C 328.276 -1.96571 -0.442964 0
M  V30 3619 O 327.332 -2.23068 -1.18308 0
M  V30 3620 C 328.645 -2.19741 2.05267 0
M  V30 3621 C 330.193 -2.33165 2.08813 0
M  V30 3622 C 330.668 -3.24838 3.22868 0
M  V30 3623 N 332.159 -3.32421 3.22568 0
M  V30 3624 C 332.894 -4.0344 4.0746 0
M  V30 3625 N 332.39 -4.77003 5.02434 0
M  V30 3626 N 334.183 -3.99464 3.95456 0
M  V30 3627 H 326.334 -0.626548 2.02949 0
M  V30 3628 H 328.597 -0.338777 0.8854 0
M  V30 3629 H 328.303 -1.79142 3.02657 0
M  V30 3630 H 328.177 -3.20313 1.99198 0
M  V30 3631 H 330.564 -2.73013 1.12018 0
M  V30 3632 H 330.645 -1.3227 2.18948 0
M  V30 3633 H 330.289 -2.85708 4.19921 0
M  V30 3634 H 330.219 -4.25707 3.0997 0
M  V30 3635 H 332.71 -2.79994 2.53795 0
M  V30 3636 H 333.023 -5.28712 5.63634 0
M  V30 3637 H 331.368 -4.75992 5.06415 0
M  V30 3638 H 334.559 -3.4111 3.20564 0
M  V30 3639 H 334.732 -4.54544 4.61837 0
M  V30 3640 N 328.138 -0.959301 -1.25041 0
M  V30 3641 C 329.048 -0.489994 -2.29426 0
M  V30 3642 C 330.064 0.444944 -1.68215 0
M  V30 3643 O 331.24 0.320046 -1.98841 0
M  V30 3644 C 328.305 0.220309 -3.45999 0
M  V30 3645 C 327.366 -0.753418 -4.22637 0
M  V30 3646 C 326.599 -0.076918 -5.33645 0
M  V30 3647 O 326.822 1.13649 -5.58963 0
M  V30 3648 O 325.756 -0.764824 -5.97021 0
M  V30 3649 H 329.582 -1.35755 -2.71669 0
M  V30 3650 H 327.167 -0.725961 -1.30576 0
M  V30 3651 H 329.049 0.619677 -4.16819 0
M  V30 3652 H 327.724 1.06296 -3.0575 0
M  V30 3653 H 326.631 -1.20308 -3.54227 0
M  V30 3654 H 327.964 -1.56423 -4.66683 0
M  V30 3655 N 329.616 1.39756 -0.72842 0
M  V30 3656 C 330.546 2.33289 -0.0991354 0
M  V30 3657 C 331.527 1.53568 0.731489 0
M  V30 3658 O 332.712 1.81987 0.677807 0
M  V30 3659 C 329.842 3.3763 0.813834 0
M  V30 3660 C 328.796 4.2791 0.0878663 0
M  V30 3661 C 328.122 5.22894 1.11741 0
M  V30 3662 C 329.422 5.11314 -1.06563 0
M  V30 3663 H 331.116 2.86163 -0.880408 0
M  V30 3664 H 328.662 1.37591 -0.424819 0
M  V30 3665 H 330.615 4.0201 1.26355 0
M  V30 3666 H 329.339 2.83181 1.62715 0
M  V30 3667 H 327.998 3.65 -0.342159 0
M  V30 3668 H 327.646 4.64744 1.92412 0
M  V30 3669 H 327.346 5.84143 0.636477 0
M  V30 3670 H 328.87 5.90151 1.56697 0
M  V30 3671 H 330.284 5.69076 -0.694671 0
M  V30 3672 H 328.681 5.81671 -1.47577 0
M  V30 3673 H 329.751 4.46534 -1.89038 0
M  V30 3674 N 331.094 0.475555 1.50254 0
M  V30 3675 C 332.027 -0.362381 2.25304 0
M  V30 3676 C 333.005 -0.992393 1.28803 0
M  V30 3677 O 334.189 -1.02746 1.58036 0
M  V30 3678 C 331.316 -1.50813 3.03271 0
M  V30 3679 C 330.362 -0.995044 4.1473 0
M  V30 3680 S 331.195 0.0938436 5.35418 0
M  V30 3681 C 332.351 -1.05567 6.16933 0
M  V30 3682 H 332.584 0.274686 2.96028 0
M  V30 3683 H 330.117 0.260495 1.52187 0
M  V30 3684 H 332.075 -2.16476 3.48781 0
M  V30 3685 H 330.736 -2.11672 2.32064 0
M  V30 3686 H 329.929 -1.85293 4.68703 0
M  V30 3687 H 329.531 -0.416052 3.71679 0
M  V30 3688 H 331.823 -1.96636 6.48337 0
M  V30 3689 H 332.766 -0.555109 7.05921 0
M  V30 3690 H 333.174 -1.31151 5.49053 0
M  V30 3691 N 332.573 -1.56217 0.208337 0
M  V30 3692 C 333.483 -2.23316 -0.718836 0
M  V30 3693 C 334.499 -1.23648 -1.22422 0
M  V30 3694 O 335.675 -1.56423 -1.26861 0
M  V30 3695 C 332.74 -2.88968 -1.91568 0
M  V30 3696 C 331.801 -4.03943 -1.45357 0
M  V30 3697 C 331.034 -4.66455 -2.59337 0
M  V30 3698 O 331.257 -4.27919 -3.77149 0
M  V30 3699 O 330.191 -5.55686 -2.31293 0
M  V30 3700 H 334.017 -3.03182 -0.177315 0
M  V30 3701 H 331.602 -1.49384 -0.0215402 0
M  V30 3702 H 333.484 -3.30455 -2.61491 0
M  V30 3703 H 332.159 -2.12071 -2.44556 0
M  V30 3704 H 331.066 -3.67052 -0.722746 0
M  V30 3705 H 332.399 -4.82543 -0.970219 0
M  V30 3706 N 334.051 0.0651679 -1.57465 0
M  V30 3707 C 335.299 0.761555 -1.87202 0
M  V30 3708 C 335.62 1.77778 -0.801243 0
M  V30 3709 O 334.89 1.95166 0.16937 0
M  V30 3710 H 333.47 0.284251 -0.690804 0
M  V30 3711 H 336.132 0.0396827 -1.9486 0
M  V30 3712 H 335.228 1.27365 -2.84929 0
M  V30 3713 N 335.529 1.53961 0.336706 0
M  V30 3714 C 336.477 1.83136 1.43401 0
M  V30 3715 C 337.471 0.702313 1.54156 0
M  V30 3716 O 338.677 0.885765 1.56698 0
M  V30 3717 H 335.052 0.580309 0.478273 0
M  V30 3718 H 337.023 2.74925 1.16012 0
M  V30 3719 C 335.772 2.06385 2.79822 0
M  V30 3720 H 335.095 2.92718 2.72316 0
M  V30 3721 H 336.535 2.30761 3.55704 0
M  V30 3722 C 334.994 0.851414 3.25964 0
M  V30 3723 O 335.524 0.0541904 4.01663 0
M  V30 3724 N 333.73 0.66672 2.82848 0
M  V30 3725 H 333.277 1.31665 2.21409 0
M  V30 3726 H 333.235 -0.143032 3.14074 0
M  V30 3727 N 337.007 -0.598083 1.45811 0
M  V30 3728 C 337.97 -1.69018 1.54808 0
M  V30 3729 C 338.97 -1.55037 0.426652 0
M  V30 3730 O 340.16 -1.59932 0.690456 0
M  V30 3731 C 337.292 -3.0835 1.45371 0
M  V30 3732 H 338.485 -1.62403 2.52121 0
M  V30 3733 H 336.038 -0.814626 1.33392 0
M  V30 3734 H 336.773 -3.20534 0.492793 0
M  V30 3735 H 336.558 -3.19907 2.26721 0
M  V30 3736 H 338.048 -3.8788 1.54721 0
M  V30 3737 N 338.485 -1.33259 -0.841409 0
M  V30 3738 C 339.432 -1.23302 -1.95103 0
M  V30 3739 C 340.402 -0.112204 -1.65721 0
M  V30 3740 O 341.587 -0.290038 -1.88583 0
M  V30 3741 C 338.727 -0.975583 -3.31023 0
M  V30 3742 C 337.84 -2.18243 -3.72819 0
M  V30 3743 C 336.975 -1.85936 -4.97595 0
M  V30 3744 C 336.014 -3.02866 -5.3192 0
M  V30 3745 N 335.151 -2.70565 -6.47873 0
M  V30 3746 H 339.991 -2.18207 -2.02952 0
M  V30 3747 H 337.528 -1.0851 -0.993173 0
M  V30 3748 H 339.486 -0.80677 -4.09325 0
M  V30 3749 H 338.116 -0.0632755 -3.22738 0
M  V30 3750 H 337.168 -2.46107 -2.90061 0
M  V30 3751 H 338.48 -3.05666 -3.94169 0
M  V30 3752 H 337.634 -1.65684 -5.83638 0
M  V30 3753 H 336.373 -0.957452 -4.78209 0
M  V30 3754 H 335.378 -3.23736 -4.44382 0
M  V30 3755 H 336.603 -3.93809 -5.53255 0
M  V30 3756 H 334.549 -1.8293 -6.29978 0
M  V30 3757 H 334.466 -3.51519 -6.69306 0
M  V30 3758 H 335.734 -2.53774 -7.37034 0
M  V30 3759 N 339.963 1.05934 -1.16686 0
M  V30 3760 C 341.212 1.78188 -0.945085 0
M  V30 3761 C 341.525 1.88338 0.528021 0
M  V30 3762 O 342.731 2.57258 0.867799 0
M  V30 3763 C 341.187 3.20277 -1.64167 0
M  V30 3764 C 340.795 3.18281 -3.15279 0
M  V30 3765 C 342.539 3.97039 -1.502 0
M  V30 3766 C 340.446 4.55112 -3.7766 0
M  V30 3767 H 339.376 0.667866 -0.349959 0
M  V30 3768 H 342.027 1.18794 -1.39858 0
M  V30 3769 H 340.409 3.79952 -1.11589 0
M  V30 3770 H 341.583 2.68167 -3.74731 0
M  V30 3771 H 339.898 2.55018 -3.29173 0
M  V30 3772 H 342.495 4.98194 -1.94183 0
M  V30 3773 H 342.838 4.13845 -0.451461 0
M  V30 3774 H 343.371 3.43894 -1.99954 0
M  V30 3775 H 340.11 4.43512 -4.82677 0
M  V30 3776 H 339.63 5.05406 -3.22994 0
M  V30 3777 H 341.309 5.24064 -3.79428 0
M  V30 3778 N 341.441 0.965919 1.2453 0
M  V30 3779 C 342.69 0.622437 1.91856 0
M  V30 3780 C 343.003 -0.846006 1.76358 0
M  V30 3781 O 344.209 -1.29993 2.38357 0
M  V30 3782 C 342.665 1.0626 3.43856 0
M  V30 3783 C 342.273 2.55437 3.68043 0
M  V30 3784 C 344.017 0.792183 4.17043 0
M  V30 3785 C 341.924 2.93196 5.13605 0
M  V30 3786 H 340.854 0.229092 0.718354 0
M  V30 3787 H 343.505 1.17189 1.41206 0
M  V30 3788 H 341.887 0.441476 3.93531 0
M  V30 3789 H 343.061 3.22665 3.28974 0
M  V30 3790 H 341.376 2.8007 3.08139 0
M  V30 3791 H 343.973 1.05031 5.24283 0
M  V30 3792 H 344.316 -0.271584 4.15413 0
M  V30 3793 H 344.849 1.37419 3.73311 0
M  V30 3794 H 341.588 3.98636 5.20355 0
M  V30 3795 H 341.108 2.30651 5.53679 0
M  V30 3796 H 342.787 2.83004 5.81823 0
M  V30 3797 N 342.919 -1.39368 0.735821 0
M  V30 3798 C 344.335 -1.54204 0.411492 0
M  V30 3799 C 344.535 -1.70268 -1.07755 0
M  V30 3800 O 343.591 -1.70364 -1.86366 0
M  V30 3801 C 344.904 -2.75925 1.19523 0
M  V30 3802 C 346.452 -2.89761 1.18354 0
M  V30 3803 C 346.927 -4.14421 1.94986 0
M  V30 3804 N 348.418 -4.21462 1.92156 0
M  V30 3805 C 349.153 -5.16871 2.48258 0
M  V30 3806 N 348.649 -6.18063 3.13001 0
M  V30 3807 N 350.442 -5.09093 2.38287 0
M  V30 3808 H 342.593 -1.27189 1.70108 0
M  V30 3809 H 344.856 -0.616517 0.720147 0
M  V30 3810 H 344.562 -2.70401 2.24892 0
M  V30 3811 H 344.436 -3.68614 0.800222 0
M  V30 3812 H 346.823 -2.94777 0.137975 0
M  V30 3813 H 346.904 -1.98133 1.61793 0
M  V30 3814 H 346.548 -4.10166 2.99543 0
M  V30 3815 H 346.478 -5.05095 1.48953 0
M  V30 3816 H 348.969 -3.48979 1.44991 0
M  V30 3817 H 349.282 -6.87326 3.53275 0
M  V30 3818 H 347.627 -6.18448 3.17091 0
M  V30 3819 H 350.818 -4.28973 1.8735 0
M  V30 3820 H 350.991 -5.83272 2.82308 0
M  V30 3821 N 344.397 -0.483516 -1.5 0
M  V30 3822 C 345.327 0.293829 -2.31644 0
M  V30 3823 C 346.308 0.978864 -1.39112 0
M  V30 3824 O 347.493 0.973644 -1.68029 0
M  V30 3825 C 344.623 1.36897 -3.19181 0
M  V30 3826 C 343.577 0.804833 -4.20365 0
M  V30 3827 C 342.903 1.9792 -4.96721 0
M  V30 3828 C 344.203 -0.192313 -5.21946 0
M  V30 3829 H 345.897 -0.387616 -2.9688 0
M  V30 3830 H 343.443 -0.187856 -1.42769 0
M  V30 3831 H 345.396 1.92037 -3.751 0
M  V30 3832 H 344.12 2.07936 -2.51853 0
M  V30 3833 H 342.779 0.275319 -3.65565 0
M  V30 3834 H 342.427 2.67686 -4.25856 0
M  V30 3835 H 342.127 1.60789 -5.65173 0
M  V30 3836 H 343.651 2.53526 -5.55479 0
M  V30 3837 H 345.065 0.270333 -5.72662 0
M  V30 3838 H 343.462 -0.478543 -5.98189 0
M  V30 3839 H 344.532 -1.11409 -4.71928 0
M  V30 3840 N 345.875 1.56104 -0.216619 0
M  V30 3841 C 347.124 1.97348 0.416744 0
M  V30 3842 C 347.437 1.10715 1.6125 0
M  V30 3843 O 348.643 1.41836 2.31506 0
M  V30 3844 C 347.099 3.51059 0.792835 0
M  V30 3845 C 346.707 4.46387 -0.379828 0
M  V30 3846 C 348.451 4.01026 1.39208 0
M  V30 3847 C 346.358 5.91397 0.0184223 0
M  V30 3848 H 345.288 0.736942 0.159475 0
M  V30 3849 H 347.939 1.80827 -0.31205 0
M  V30 3850 H 346.321 3.63162 1.57891 0
M  V30 3851 H 347.495 4.46029 -1.15737 0
M  V30 3852 H 345.81 4.06734 -0.891979 0
M  V30 3853 H 348.407 5.0686 1.70286 0
M  V30 3854 H 348.75 3.46587 2.30614 0
M  V30 3855 H 349.283 3.92125 0.669537 0
M  V30 3856 H 346.022 6.49807 -0.862002 0
M  V30 3857 H 345.542 5.94961 0.760384 0
M  V30 3858 H 347.221 6.45455 0.446818 0
M  V30 3859 N 347.353 -0.0568162 1.57498 0
M  V30 3860 C 348.316 -1.05038 2.03715 0
M  V30 3861 C 349.316 -1.30709 0.936577 0
M  V30 3862 O 350.506 -1.26178 1.20103 0
M  V30 3863 C 347.638 -2.39034 2.43055 0
M  V30 3864 H 348.831 -0.651715 2.92733 0
M  V30 3865 H 346.384 -0.302947 1.53336 0
M  V30 3866 H 347.119 -2.83703 1.57108 0
M  V30 3867 H 346.904 -2.21739 3.2338 0
M  V30 3868 H 348.394 -3.10421 2.79336 0
M  V30 3869 N 348.832 -1.54138 -0.328536 0
M  V30 3870 C 350.248 -1.44736 -0.672574 0
M  V30 3871 C 350.448 -0.616217 -1.91846 0
M  V30 3872 O 349.504 -0.113067 -2.52247 0
M  V30 3873 C 350.817 -2.884 -0.851217 0
M  V30 3874 C 352.365 -2.98271 -0.948877 0
M  V30 3875 C 352.84 -4.43074 -1.15973 0
M  V30 3876 N 354.331 -4.46665 -1.22658 0
M  V30 3877 C 355.066 -5.55857 -1.40751 0
M  V30 3878 N 354.562 -6.75026 -1.5592 0
M  V30 3879 N 356.355 -5.43495 -1.4342 0
M  V30 3880 H 348.506 -2.06661 0.490421 0
M  V30 3881 H 350.769 -0.934812 0.157579 0
M  V30 3882 H 350.475 -3.51699 -0.00704236 0
M  V30 3883 H 350.349 -3.34225 -1.74853 0
M  V30 3884 H 352.736 -2.35102 -1.78356 0
M  V30 3885 H 352.817 -2.55785 -0.0281435 0
M  V30 3886 H 352.461 -5.06827 -0.329915 0
M  V30 3887 H 352.391 -4.83165 -2.09426 0
M  V30 3888 H 354.882 -3.60797 -1.124 0
M  V30 3889 H 355.195 -7.54004 -1.69404 0
M  V30 3890 H 353.54 -6.77944 -1.53027 0
M  V30 3891 H 356.731 -4.49349 -1.31162 0
M  V30 3892 H 356.904 -6.28649 -1.57178 0
M  V30 3893 N 350.31 0.590341 -1.46126 0
M  V30 3894 C 351.587 1.35029 -1.41515 0
M  V30 3895 C 351.967 2.10888 -0.0946472 0
M  V30 3896 O 351.315 2.08998 0.923693 0
M  V30 3897 C 351.525 2.28269 -2.63997 0
M  V30 3898 C 352.873 2.90338 -3.09821 0
M  V30 3899 O 353.897 2.38585 -2.64492 0
M  V30 3900 O 352.756 3.84321 -3.88535 0
M  V30 3901 H 349.85 0.606317 -0.562413 0
M  V30 3902 H 352.396 0.611994 -1.58281 0
M  V30 3903 H 351.168 1.71591 -3.51671 0
M  V30 3904 H 350.791 3.0945 -2.49652 0
M  V30 3905 N 351.788 1.33704 0.83433 0
M  V30 3906 C 352.698 1.26382 1.97648 0
M  V30 3907 C 353.714 0.173548 1.73132 0
M  V30 3908 O 354.89 0.397962 1.97429 0
M  V30 3909 C 351.955 1.00769 3.31733 0
M  V30 3910 C 351.016 2.1884 3.69334 0
M  V30 3911 C 350.249 1.9444 4.9702 0
M  V30 3912 O 350.472 0.896961 5.63303 0
M  V30 3913 O 349.406 2.81093 5.32231 0
M  V30 3914 H 353.232 2.22444 2.06767 0
M  V30 3915 H 350.817 1.13795 0.968037 0
M  V30 3916 H 352.699 0.882186 4.12062 0
M  V30 3917 H 351.374 0.0773783 3.23608 0
M  V30 3918 H 350.281 2.36946 2.89495 0
M  V30 3919 H 351.614 3.10221 3.82131 0
M  V30 3920 N 353.266 -1.05314 1.17247 0
M  V30 3921 C 354.229 -2.112 0.890357 0
M  V30 3922 C 355.229 -1.60359 -0.118943 0
M  V30 3923 O 356.419 -1.73833 0.113086 0
M  V30 3924 C 353.551 -3.39266 0.333422 0
M  V30 3925 H 354.744 -2.37659 1.82916 0
M  V30 3926 H 352.297 -1.21538 0.982758 0
M  V30 3927 H 353.032 -3.18462 -0.612587 0
M  V30 3928 H 352.817 -3.77477 1.06082 0
M  V30 3929 H 354.307 -4.17315 0.154322 0
M  V30 3930 N 354.744 -0.972509 -1.24016 0
M  V30 3931 C 355.674 -0.525548 -2.27509 0
M  V30 3932 C 356.655 0.437262 -1.64384 0
M  V30 3933 O 357.84 0.332343 -1.91335 0
M  V30 3934 C 354.97 0.180448 -3.46831 0
M  V30 3935 C 353.924 -0.698859 -4.22256 0
M  V30 3936 C 353.25 0.138903 -5.3452 0
M  V30 3937 C 354.55 -1.98582 -4.83076 0
M  V30 3938 H 356.244 -1.39058 -2.65148 0
M  V30 3939 H 353.79 -0.67009 -1.27459 0
M  V30 3940 H 355.743 0.504387 -4.18371 0
M  V30 3941 H 354.467 1.07987 -3.08231 0
M  V30 3942 H 353.126 -1.00614 -3.52523 0
M  V30 3943 H 352.774 1.03862 -4.9216 0
M  V30 3944 H 352.474 -0.446259 -5.85903 0
M  V30 3945 H 353.998 0.457404 -6.08884 0
M  V30 3946 H 355.412 -1.72715 -5.46665 0
M  V30 3947 H 353.809 -2.5181 -5.44713 0
M  V30 3948 H 354.879 -2.67769 -4.04262 0
M  V30 3949 N 356.222 1.38976 -0.743202 0
M  V30 3950 C 357.172 2.27843 -0.084513 0
M  V30 3951 C 358.156 1.44677 0.704094 0
M  V30 3952 O 359.348 1.67511 0.571755 0
M  V30 3953 C 356.477 3.33466 0.815781 0
M  V30 3954 C 355.563 4.24095 0.0208844 0
M  V30 3955 N 355.954 4.95609 -1.0102 0
M  V30 3956 C 354.252 4.45303 0.249293 0
M  V30 3957 C 354.953 5.62287 -1.49024 0
M  V30 3958 N 353.929 5.37571 -0.807377 0
M  V30 3959 H 357.731 2.80593 -0.87436 0
M  V30 3960 H 355.245 1.51755 -0.578283 0
M  V30 3961 H 357.242 3.96008 1.30321 0
M  V30 3962 H 355.902 2.82276 1.6047 0
M  V30 3963 H 356.913 4.98849 -1.39176 0
M  V30 3964 H 353.59 4.0504 1.01237 0
M  V30 3965 H 354.98 6.29519 -2.34853 0
M  V30 3966 N 357.7 0.491464 1.49741 0
M  V30 3967 C 358.63 -0.28154 2.31796 0
M  V30 3968 C 359.611 -0.971473 1.3963 0
M  V30 3969 O 360.796 -0.964719 1.68543 0
M  V30 3970 C 357.926 -1.35203 3.19902 0
M  V30 3971 C 356.88 -0.782529 4.20786 0
M  V30 3972 C 356.206 -1.95283 4.97764 0
M  V30 3973 C 357.506 0.21999 5.21837 0
M  V30 3974 H 359.2 0.403355 2.96671 0
M  V30 3975 H 356.746 0.195425 1.42668 0
M  V30 3976 H 358.699 -1.90045 3.76113 0
M  V30 3977 H 357.423 -2.06598 2.52953 0
M  V30 3978 H 356.082 -0.255928 3.65706 0
M  V30 3979 H 355.73 -2.65423 4.2727 0
M  V30 3980 H 355.43 -1.57789 5.66018 0
M  V30 3981 H 356.954 -2.50577 5.56816 0
M  V30 3982 H 358.368 -0.23996 5.72798 0
M  V30 3983 H 356.765 0.51026 5.97927 0
M  V30 3984 H 357.835 1.13911 4.7133 0
M  V30 3985 N 359.178 -1.55987 0.224894 0
M  V30 3986 C 360.406 -2.02784 -0.410665 0
M  V30 3987 C 360.821 -1.10464 -1.53112 0
M  V30 3988 O 360.178 -0.114871 -1.82138 0
M  V30 3989 C 360.229 -3.49087 -0.939165 0
M  V30 3990 O 359.95 -4.37887 0.136614 0
M  V30 3991 C 361.451 -4.11543 -1.64763 0
M  V30 3992 H 358.671 -0.663484 -0.100148 0
M  V30 3993 H 361.215 -2.01614 0.342326 0
M  V30 3994 H 359.37 -3.50861 -1.64242 0
M  V30 3995 H 359.784 -5.23849 -0.261155 0
M  V30 3996 H 361.258 -5.15673 -1.96939 0
M  V30 3997 H 361.735 -3.56736 -2.56195 0
M  V30 3998 H 362.341 -4.13629 -0.989503 0
M  V30 3999 N 360.656 0.0484629 -1.57525 0
M  V30 4000 C 361.904 0.741657 -1.88 0
M  V30 4001 C 362.225 1.76918 -0.820054 0
M  V30 4002 O 361.495 1.95335 0.148661 0
M  V30 4003 H 360.075 0.276908 -0.69378 0
M  V30 4004 H 362.737 0.019013 -1.94891 0
M  V30 4005 H 361.833 1.24336 -2.86264 0
M  V30 4006 N 362.134 1.5431 0.320358 0
M  V30 4007 C 363.362 1.76636 1.07738 0
M  V30 4008 C 363.777 0.51649 1.81598 0
M  V30 4009 O 363.134 -0.512942 1.75143 0
M  V30 4010 C 363.185 2.96158 2.07299 0
M  V30 4011 O 362.906 4.16313 1.36438 0
M  V30 4012 C 364.407 3.3072 2.95193 0
M  V30 4013 H 361.627 0.589597 0.320339 0
M  V30 4014 H 364.171 2.01207 0.36551 0
M  V30 4015 H 362.326 2.73851 2.74016 0
M  V30 4016 H 362.74 4.83565 2.03138 0
M  V30 4017 H 364.214 4.17643 3.60941 0
M  V30 4018 H 364.691 2.48026 3.62463 0
M  V30 4019 H 365.297 3.55117 2.34034 0
M  V30 4020 N 363.613 -0.582584 1.46437 0
M  V30 4021 C 364.545 -1.70618 1.53043 0
M  V30 4022 C 365.558 -1.57322 0.418769 0
M  V30 4023 O 366.747 -1.64744 0.687136 0
M  V30 4024 C 363.847 -3.08869 1.39474 0
M  V30 4025 C 363.02 -3.48166 2.64762 0
M  V30 4026 C 362.079 -4.65478 2.4539 0
M  V30 4027 O 361.105 -4.71333 3.19114 0
M  V30 4028 N 362.307 -5.60365 1.51564 0
M  V30 4029 H 365.072 -1.65405 2.49923 0
M  V30 4030 H 362.633 -0.768567 1.42494 0
M  V30 4031 H 364.625 -3.85143 1.24287 0
M  V30 4032 H 363.195 -3.08449 0.507758 0
M  V30 4033 H 362.415 -2.61598 2.9489 0
M  V30 4034 H 363.703 -3.71188 3.4799 0
M  V30 4035 H 363.101 -5.5837 0.907705 0
M  V30 4036 H 361.658 -6.36068 1.4234 0
M  V30 4037 N 365.091 -1.34144 -0.827227 0
M  V30 4038 C 366.041 -1.21923 -1.92663 0
M  V30 4039 C 367.025 -0.119294 -1.60457 0
M  V30 4040 O 368.217 -0.348539 -1.73534 0
M  V30 4041 C 365.346 -0.972492 -3.29238 0
M  V30 4042 C 364.432 -2.1154 -3.67576 0
M  V30 4043 N 364.823 -3.36627 -3.77512 0
M  V30 4044 C 363.121 -2.02468 -3.97395 0
M  V30 4045 C 363.822 -4.11658 -4.1099 0
M  V30 4046 N 362.798 -3.40207 -4.23981 0
M  V30 4047 H 366.6 -2.16721 -1.98517 0
M  V30 4048 H 364.114 -1.2632 -1.02064 0
M  V30 4049 H 366.111 -0.865847 -4.0781 0
M  V30 4050 H 364.771 -0.0331509 -3.24683 0
M  V30 4051 H 365.782 -3.71234 -3.61118 0
M  V30 4052 H 362.459 -1.16265 -4.00985 0
M  V30 4053 H 363.849 -5.19657 -4.25918 0
M  V30 4054 N 366.569 1.04691 -1.17803 0
M  V30 4055 C 367.502 2.12068 -0.842765 0
M  V30 4056 C 368.48 1.61455 0.192608 0
M  V30 4057 O 369.664 1.88359 0.072995 0
M  V30 4058 C 366.791 3.37715 -0.258063 0
M  V30 4059 C 365.837 4.07164 -1.26962 0
M  V30 4060 S 366.67 4.55047 -2.82299 0
M  V30 4061 C 367.826 5.83935 -2.25323 0
M  V30 4062 H 368.059 2.4018 -1.75217 0
M  V30 4063 H 365.592 1.17366 -1.00323 0
M  V30 4064 H 367.55 4.10435 0.0727935 0
M  V30 4065 H 366.211 3.0773 0.629357 0
M  V30 4066 H 365.404 4.9746 -0.809263 0
M  V30 4067 H 365.006 3.40533 -1.54639 0
M  V30 4068 H 367.298 6.57552 -1.63192 0
M  V30 4069 H 368.241 6.34725 -3.13894 0
M  V30 4070 H 368.649 5.3874 -1.68582 0
M  V30 4071 N 368.047 0.979072 1.23499 0
M  V30 4072 C 368.977 0.537606 2.27227 0
M  V30 4073 C 369.958 -0.428539 1.64613 0
M  V30 4074 O 371.143 -0.322191 1.91509 0
M  V30 4075 C 368.273 -0.162052 3.46922 0
M  V30 4076 C 367.227 0.721242 4.21879 0
M  V30 4077 C 366.553 -0.110555 5.34586 0
M  V30 4078 C 367.853 2.01141 4.82016 0
M  V30 4079 H 369.547 1.40462 2.64406 0
M  V30 4080 H 367.093 0.67684 1.27102 0
M  V30 4081 H 369.046 -0.482192 4.18632 0
M  V30 4082 H 367.77 -1.06351 3.08799 0
M  V30 4083 H 366.429 1.02482 3.51984 0
M  V30 4084 H 366.077 -1.0125 4.92704 0
M  V30 4085 H 365.777 0.477325 5.85658 0
M  V30 4086 H 367.301 -0.425107 6.09118 0
M  V30 4087 H 368.715 1.75612 5.45741 0
M  V30 4088 H 367.112 2.54695 5.43369 0
M  V30 4089 H 368.182 2.69909 4.02836 0
M  V30 4090 N 369.525 -1.3858 0.750561 0
M  V30 4091 C 370.473 -2.32339 0.110162 0
M  V30 4092 C 371.467 -1.53864 -0.708674 0
M  V30 4093 O 372.673 -1.69417 -0.608112 0
M  V30 4094 H 369.048 -0.751812 0.0168275 0
M  V30 4095 H 371.019 -2.83959 0.917053 0
M  V30 4096 C 369.768 -3.39043 -0.771067 0
M  V30 4097 H 369.091 -3.99517 -0.150374 0
M  V30 4098 H 370.531 -4.07061 -1.1865 0
M  V30 4099 C 368.99 -2.77365 -1.91234 0
M  V30 4100 O 369.52 -2.66434 -3.00626 0
M  V30 4101 N 367.726 -2.35219 -1.70646 0
M  V30 4102 H 367.273 -2.4431 -0.81673 0
M  V30 4103 H 367.231 -1.94294 -2.47178 0
M  V30 4104 N 371.003 -0.499398 -1.49478 0
M  V30 4105 C 371.933 0.269244 -2.31943 0
M  V30 4106 C 372.914 0.964054 -1.40143 0
M  V30 4107 O 374.099 0.955767 -1.69052 0
M  V30 4108 C 371.229 1.33504 -3.20615 0
M  V30 4109 C 370.183 0.760202 -4.21195 0
M  V30 4110 C 369.509 1.9264 -4.98792 0
M  V30 4111 C 370.809 -0.247661 -5.21712 0
M  V30 4112 H 372.503 -0.419082 -2.96452 0
M  V30 4113 H 370.049 -0.202988 -1.42562 0
M  V30 4114 H 372.002 1.88048 -3.77115 0
M  V30 4115 H 370.726 2.05253 -2.54045 0
M  V30 4116 H 369.385 0.23653 -3.65836 0
M  V30 4117 H 369.033 2.63154 -4.28671 0
M  V30 4118 H 368.733 1.54785 -5.66847 0
M  V30 4119 H 370.257 2.4762 -5.58137 0
M  V30 4120 H 371.671 0.209579 -5.72917 0
M  V30 4121 H 370.068 -0.541962 -5.97648 0
M  V30 4122 H 371.138 -1.16409 -4.7072 0
M  V30 4123 N 372.481 1.55866 -0.233164 0
M  V30 4124 C 373.411 2.23783 0.666599 0
M  V30 4125 C 374.392 1.21343 1.19205 0
M  V30 4126 O 375.577 1.4996 1.23392 0
M  V30 4127 C 372.707 2.92671 1.86978 0
M  V30 4128 C 371.661 4.01682 1.47768 0
M  V30 4129 C 370.987 4.57926 2.76058 0
M  V30 4130 C 372.287 5.18126 0.658993 0
M  V30 4131 H 373.981 2.99232 0.100306 0
M  V30 4132 H 371.527 1.43924 0.046804 0
M  V30 4133 H 373.48 3.3888 2.50476 0
M  V30 4134 H 372.204 2.14688 2.46123 0
M  V30 4135 H 370.863 3.56222 0.866106 0
M  V30 4136 H 370.511 3.76659 3.33372 0
M  V30 4137 H 370.211 5.31505 2.50552 0
M  V30 4138 H 371.735 5.06859 3.40479 0
M  V30 4139 H 373.149 5.60644 1.19795 0
M  V30 4140 H 371.546 5.98009 0.500552 0
M  V30 4141 H 372.616 4.83763 -0.331856 0
M  V30 4142 N 373.959 -0.0401083 1.57549 0
M  V30 4143 C 375.375 -0.395556 1.54621 0
M  V30 4144 C 375.575 -1.77281 0.957799 0
M  V30 4145 O 374.631 -2.45888 0.574031 0
M  V30 4146 C 375.944 -0.307535 2.99123 0
M  V30 4147 C 377.492 -0.385425 3.10618 0
M  V30 4148 C 377.967 -0.326973 4.56831 0
M  V30 4149 N 379.458 -0.386102 4.61588 0
M  V30 4150 C 380.193 -0.363591 5.72246 0
M  V30 4151 N 379.689 -0.29402 6.92176 0
M  V30 4152 N 381.482 -0.412503 5.60584 0
M  V30 4153 H 373.633 0.861325 1.94152 0
M  V30 4154 H 375.896 0.326445 0.890021 0
M  V30 4155 H 375.602 0.638461 3.45856 0
M  V30 4156 H 375.476 -1.10552 3.60636 0
M  V30 4157 H 377.863 -1.32185 2.63839 0
M  V30 4158 H 377.944 0.44171 2.51957 0
M  V30 4159 H 377.588 0.605738 5.04275 0
M  V30 4160 H 377.518 -1.17207 5.13391 0
M  V30 4161 H 380.009 -0.442832 3.75296 0
M  V30 4162 H 380.322 -0.28164 7.72287 0
M  V30 4163 H 378.667 -0.260232 6.94513 0
M  V30 4164 H 381.858 -0.464769 4.65787 0
M  V30 4165 H 382.031 -0.391492 6.46816 0
M  V30 4166 N 375.437 -1.54477 -0.31217 0
M  V30 4167 C 376.662 -1.77526 -1.07235 0
M  V30 4168 C 377.087 -0.527775 -1.80544 0
M  V30 4169 O 376.445 0.52121 -1.73646 0
M  V30 4170 C 376.493 -2.97535 -2.03728 0
M  V30 4171 O 375.597 -2.69878 -3.11833 0
M  V30 4172 H 374.938 -0.58792 -0.30862 0
M  V30 4173 H 377.468 -2.01532 -0.352993 0
M  V30 4174 H 377.478 -3.25198 -2.46395 0
M  V30 4175 H 376.153 -3.87996 -1.49774 0
M  V30 4176 H 374.73 -2.53199 -2.7376 0
M  V30 4177 N 376.915 0.57481 -1.46744 0
M  V30 4178 C 378.163 1.33009 -1.52161 0
M  V30 4179 C 378.484 1.94185 -0.178092 0
M  V30 4180 O 377.754 1.7899 0.796196 0
M  V30 4181 H 376.334 0.493873 -0.560445 0
M  V30 4182 H 378.996 0.672589 -1.82927 0
M  V30 4183 H 378.092 2.13273 -2.27862 0
M  V30 4184 N 378.394 1.34581 0.820102 0
M  V30 4185 C 379.357 1.2628 1.91275 0
M  V30 4186 C 380.357 0.177344 1.59819 0
M  V30 4187 O 381.547 0.430156 1.68806 0
M  V30 4188 C 378.679 0.950327 3.27386 0
M  V30 4189 H 379.872 2.23421 2.00057 0
M  V30 4190 H 377.425 1.1891 1.0144 0
M  V30 4191 H 378.16 -0.0177938 3.24295 0
M  V30 4192 H 377.945 1.73549 3.51601 0
M  V30 4193 H 379.435 0.917492 4.07396 0
M  V30 4194 N 379.872 -1.04064 1.18357 0
M  V30 4195 C 381.149 -1.74252 0.888581 0
M  V30 4196 C 381.529 -2.02138 -0.60856 0
M  V30 4197 O 380.877 -1.66656 -1.56327 0
M  V30 4198 C 381.087 -3.0277 1.73584 0
M  V30 4199 C 382.435 -3.76506 1.96286 0
M  V30 4200 O 383.459 -3.12668 1.70637 0
M  V30 4201 O 382.318 -4.91243 2.39464 0
M  V30 4202 H 379.412 -0.758271 0.330082 0
M  V30 4203 H 381.958 -1.1013 1.2911 0
M  V30 4204 H 380.73 -2.78299 2.75073 0
M  V30 4205 H 380.353 -3.74631 1.33183 0
M  V30 4206 N 381.35 -0.985608 -1.22978 0
M  V30 4207 C 382.627 -0.573599 -1.87001 0
M  V30 4208 C 383.007 0.949213 -1.88555 0
M  V30 4209 O 382.355 1.82811 -1.37086 0
M  V30 4210 C 382.565 -1.18564 -3.28243 0
M  V30 4211 C 383.913 -1.28163 -4.04796 0
M  V30 4212 O 384.937 -1.13949 -3.37482 0
M  V30 4213 O 383.796 -1.50832 -5.25273 0
M  V30 4214 H 380.89 -0.193868 -0.803955 0
M  V30 4215 H 383.436 -1.08102 -1.30813 0
M  V30 4216 H 382.208 -2.22758 -3.21706 0
M  V30 4217 H 381.831 -0.663363 -3.92027 0
M  V30 4218 N 382.828 1.3818 -0.7579 0
M  V30 4219 C 384.239 1.82726 -0.383134 0
M  V30 4220 C 384.59 1.63214 1.08884 0
M  V30 4221 O 383.715 1.13566 1.84205 0
M  V30 4222 C 384.31 3.31728 -0.688631 0
M  V30 4223 C 382.869 3.74606 -0.367091 0
M  V30 4224 C 382.016 2.60896 -0.939599 0
M  V30 4225 H 384.967 1.26847 -0.953699 0
M  V30 4226 H 384.988 3.80487 0.0316492 0
M  V30 4227 H 384.5 3.45898 -1.76001 0
M  V30 4228 H 382.601 3.66013 0.697532 0
M  V30 4229 H 382.714 4.71215 -0.865658 0
M  V30 4230 H 381.078 2.52075 -0.3647 0
M  V30 4231 H 381.861 2.77864 -2.0161 0
M  V30 4232 N 384.306 0.507319 1.49211 0
M  V30 4233 C 385.216 -0.272136 2.33016 0
M  V30 4234 C 386.232 -0.961206 1.45041 0
M  V30 4235 O 387.408 -0.941191 1.78055 0
M  V30 4236 C 384.473 -1.31895 3.20631 0
M  V30 4237 C 383.534 -0.642648 4.24463 0
M  V30 4238 C 382.767 -1.63959 5.07891 0
M  V30 4239 O 382.99 -2.87007 4.92933 0
M  V30 4240 O 381.924 -1.19143 5.8999 0
M  V30 4241 H 385.75 0.413982 3.00865 0
M  V30 4242 H 383.335 0.268556 1.46966 0
M  V30 4243 H 385.217 -1.92446 3.7489 0
M  V30 4244 H 383.892 -1.98788 2.5547 0
M  V30 4245 H 382.799 0.00276252 3.741 0
M  V30 4246 H 384.132 -0.0160534 4.92197 0
M  V30 4247 N 385.784 -1.5574 0.241426 0
M  V30 4248 C 386.717 -2.17168 -0.700935 0
M  V30 4249 C 387.695 -1.12206 -1.1768 0
M  V30 4250 O 388.879 -1.40565 -1.25593 0
M  V30 4251 C 386.006 -2.76796 -1.95196 0
M  V30 4252 C 385.052 -3.94764 -1.61442 0
M  V30 4253 S 385.885 -5.30613 -0.72182 0
M  V30 4254 C 387.041 -5.93691 -1.98197 0
M  V30 4255 H 387.274 -2.96761 -0.178882 0
M  V30 4256 H 384.807 -1.54378 0.0259299 0
M  V30 4257 H 386.765 -3.11787 -2.67019 0
M  V30 4258 H 385.426 -1.9716 -2.44514 0
M  V30 4259 H 384.619 -4.35057 -2.54443 0
M  V30 4260 H 384.221 -3.61022 -0.976672 0
M  V30 4261 H 386.513 -6.10874 -2.92983 0
M  V30 4262 H 387.456 -6.89258 -1.62262 0
M  V30 4263 H 387.864 -5.22709 -2.13156 0
M  V30 4264 N 387.262 0.0317525 -1.57568 0
M  V30 4265 C 388.225 1.01783 -2.0536 0
M  V30 4266 C 389.225 1.29203 -0.957253 0
M  V30 4267 O 390.415 1.24251 -1.22095 0
M  V30 4268 C 387.547 2.35137 -2.46827 0
M  V30 4269 H 388.74 0.605062 -2.93733 0
M  V30 4270 H 386.293 0.278514 -1.53799 0
M  V30 4271 H 387.028 2.81168 -1.61602 0
M  V30 4272 H 386.813 2.16566 -3.26866 0
M  V30 4273 H 388.303 3.05938 -2.84239 0
M  V30 4274 N 388.74 1.54641 0.303973 0
M  V30 4275 C 389.65 1.88439 1.39743 0
M  V30 4276 C 390.666 0.778239 1.55626 0
M  V30 4277 O 391.842 1.07442 1.70347 0
M  V30 4278 C 388.907 2.12212 2.74166 0
M  V30 4279 C 387.968 3.35936 2.67293 0
M  V30 4280 C 387.201 3.58566 3.95305 0
M  V30 4281 O 387.424 2.84263 4.9452 0
M  V30 4282 O 386.358 4.52078 3.97378 0
M  V30 4283 H 390.184 2.81458 1.14083 0
M  V30 4284 H 387.769 1.40793 0.499768 0
M  V30 4285 H 389.651 2.29067 3.53704 0
M  V30 4286 H 388.326 1.22379 2.99675 0
M  V30 4287 H 387.233 3.24448 1.86237 0
M  V30 4288 H 388.566 4.2589 2.46736 0
M  V30 4289 N 390.218 -0.567019 1.47046 0
M  V30 4290 C 391.467 -1.32091 1.5243 0
M  V30 4291 C 391.78 -1.94704 0.187021 0
M  V30 4292 O 392.986 -2.7124 0.118771 0
M  V30 4293 C 391.442 -2.39479 2.68659 0
M  V30 4294 C 391.05 -1.831 4.08874 0
M  V30 4295 C 392.794 -3.16111 2.83327 0
M  V30 4296 C 390.701 -2.8821 5.16419 0
M  V30 4297 H 389.631 -0.496629 0.56734 0
M  V30 4298 H 392.282 -0.603354 1.73297 0
M  V30 4299 H 390.664 -3.14105 2.41152 0
M  V30 4300 H 391.838 -1.14913 4.46242 0
M  V30 4301 H 390.153 -1.19085 3.99008 0
M  V30 4302 H 392.75 -3.94585 3.60842 0
M  V30 4303 H 393.093 -3.69686 1.91411 0
M  V30 4304 H 393.626 -2.48595 3.10556 0
M  V30 4305 H 390.365 -2.39504 6.10179 0
M  V30 4306 H 389.885 -3.54839 4.8358 0
M  V30 4307 H 391.564 -3.51881 5.42945 0
M  V30 4308 N 391.696 -1.35014 -0.812953 0
M  V30 4309 C 392.659 -1.27292 -1.90602 0
M  V30 4310 C 393.659 -0.185817 -1.59723 0
M  V30 4311 O 394.849 -0.439102 -1.68575 0
M  V30 4312 C 391.981 -0.967676 -3.26877 0
M  V30 4313 H 393.174 -2.24479 -1.9887 0
M  V30 4314 H 390.727 -1.19446 -1.00808 0
M  V30 4315 H 391.462 0.0005954 -3.243 0
M  V30 4316 H 391.247 -1.75412 -3.50675 0
M  V30 4317 H 392.737 -0.939085 -4.06904 0
M  V30 4318 N 393.175 1.03435 -1.18907 0
M  V30 4319 C 394.085 2.15075 -0.937015 0
M  V30 4320 C 395.101 1.73706 0.101085 0
M  V30 4321 O 396.277 2.01232 -0.0822948 0
M  V30 4322 C 393.342 3.43458 -0.473057 0
M  V30 4323 C 392.403 3.99172 -1.57989 0
M  V30 4324 C 391.636 5.21427 -1.13797 0
M  V30 4325 O 391.859 5.704 0.000725941 0
M  V30 4326 O 390.793 5.69837 -1.9383 0
M  V30 4327 H 394.619 2.39198 -1.87131 0
M  V30 4328 H 392.204 1.13506 -0.971427 0
M  V30 4329 H 394.086 4.20811 -0.222702 0
M  V30 4330 H 392.761 3.20793 0.432869 0
M  V30 4331 H 391.668 3.23178 -1.88433 0
M  V30 4332 H 393.001 4.2619 -2.46217 0
M  V30 4333 N 394.653 0.992116 1.22453 0
M  V30 4334 C 395.563 0.55065 2.28046 0
M  V30 4335 C 396.579 -0.400189 1.69335 0
M  V30 4336 O 397.755 -0.267215 1.99619 0
M  V30 4337 C 394.82 -0.128496 3.46462 0
M  V30 4338 C 393.881 0.865208 4.20491 0
M  V30 4339 C 393.114 0.218377 5.33253 0
M  V30 4340 O 393.337 -0.987894 5.6178 0
M  V30 4341 O 392.271 0.922845 5.94783 0
M  V30 4342 H 396.097 1.4291 2.67975 0
M  V30 4343 H 393.682 0.760326 1.28606 0
M  V30 4344 H 395.564 -0.508947 4.18315 0
M  V30 4345 H 394.239 -0.981526 3.0846 0
M  V30 4346 H 393.146 1.29658 3.50913 0
M  V30 4347 H 394.479 1.68741 4.62371 0
M  V30 4348 N 396.131 -1.37776 0.765217 0
M  V30 4349 C 397.371 -2.01691 0.331669 0
M  V30 4350 C 397.735 -1.59432 -1.06983 0
M  V30 4351 O 398.936 -2.15761 -1.60314 0
M  V30 4352 C 397.207 -3.54385 0.463261 0
M  V30 4353 S 398.766 -4.38652 0.114011 0
M  V30 4354 H 395.584 -0.699387 0.127979 0
M  V30 4355 H 398.186 -1.68084 0.998396 0
M  V30 4356 H 396.89 -3.82629 1.48401 0
M  V30 4357 H 396.421 -3.92783 -0.220246 0
M  V30 4358 H 398.436 -4.84021 -1.09261 0
M  V30 4359 N 397.609 -0.515225 -1.4894 0
M  V30 4360 C 398.556 0.255567 -2.29381 0
M  V30 4361 C 399.526 0.947387 -1.36432 0
M  V30 4362 O 400.711 0.951288 -1.65394 0
M  V30 4363 C 397.851 1.30551 -3.19453 0
M  V30 4364 C 396.964 0.624029 -4.27469 0
M  V30 4365 C 396.099 1.65563 -5.0474 0
M  V30 4366 C 395.138 0.956802 -6.04576 0
M  V30 4367 N 394.275 1.93326 -6.74959 0
M  V30 4368 H 399.115 -0.436607 -2.94784 0
M  V30 4369 H 396.652 -0.227154 -1.45336 0
M  V30 4370 H 398.61 1.92639 -3.70062 0
M  V30 4371 H 397.24 1.96626 -2.56004 0
M  V30 4372 H 396.292 -0.110459 -3.8024 0
M  V30 4373 H 397.604 0.0746092 -4.98744 0
M  V30 4374 H 396.758 2.35119 -5.59289 0
M  V30 4375 H 395.497 2.23893 -4.3327 0
M  V30 4376 H 394.502 0.247097 -5.49244 0
M  V30 4377 H 395.727 0.379814 -6.78037 0
M  V30 4378 H 393.673 2.50591 -6.06251 0
M  V30 4379 H 393.59 1.43489 -7.42258 0
M  V30 4380 H 394.858 2.62126 -7.34105 0
M  V30 4381 N 399.087 1.5561 -0.249682 0
M  V30 4382 C 400.019 2.18834 0.681496 0
M  V30 4383 C 401.032 1.16546 1.1367 0
M  V30 4384 O 402.221 1.43397 1.06299 0
M  V30 4385 C 399.321 2.77992 1.9384 0
M  V30 4386 C 398.494 4.05725 1.63419 0
M  V30 4387 C 397.553 4.49174 2.74096 0
M  V30 4388 O 396.579 5.15492 2.41364 0
M  V30 4389 N 397.781 4.17191 4.03649 0
M  V30 4390 H 400.546 2.9937 0.140514 0
M  V30 4391 H 398.107 1.6175 -0.0697541 0
M  V30 4392 H 400.099 3.04015 2.67127 0
M  V30 4393 H 398.669 2.01596 2.38909 0
M  V30 4394 H 397.889 3.87261 0.736358 0
M  V30 4395 H 399.177 4.88999 1.40562 0
M  V30 4396 H 398.575 3.63955 4.33074 0
M  V30 4397 H 397.132 4.48043 4.73393 0
M  V30 4398 N 400.565 -0.0233959 1.57583 0
M  V30 4399 C 401.475 -1.03907 2.10334 0
M  V30 4400 C 402.491 -1.39257 1.04323 0
M  V30 4401 O 403.667 -1.48462 1.36091 0
M  V30 4402 C 400.732 -2.31938 2.57693 0
M  V30 4403 C 399.793 -2.03117 3.78209 0
M  V30 4404 C 399.026 -3.25043 4.233 0
M  V30 4405 O 399.249 -4.35916 3.67876 0
M  V30 4406 O 398.183 -3.10411 5.15683 0
M  V30 4407 H 402.009 -0.620748 2.97288 0
M  V30 4408 H 399.594 -0.240743 1.47448 0
M  V30 4409 H 401.476 -3.07196 2.88458 0
M  V30 4410 H 400.151 -2.73055 1.73847 0
M  V30 4411 H 399.058 -1.25408 3.52454 0
M  V30 4412 H 400.391 -1.66852 4.63056 0
M  V30 4413 N 402.043 -1.548 -0.295768 0
M  V30 4414 C 403.283 -1.76069 -1.03823 0
M  V30 4415 C 403.647 -0.537992 -1.84309 0
M  V30 4416 O 404.848 -0.628514 -2.61349 0
M  V30 4417 C 403.119 -3.01705 -1.91596 0
M  V30 4418 S 404.678 -3.43998 -2.72416 0
M  V30 4419 H 401.496 -0.618852 -0.350062 0
M  V30 4420 H 404.098 -1.93009 -0.31106 0
M  V30 4421 H 402.802 -3.88812 -1.31351 0
M  V30 4422 H 402.333 -2.87366 -2.68671 0
M  V30 4423 H 404.348 -3.0148 -3.94112 0
M  V30 4424 N 403.521 0.559213 -1.47345 0
M  V30 4425 C 404.751 1.33999 -1.57251 0
M  V30 4426 C 405.159 1.87905 -0.220978 0
M  V30 4427 O 404.502 1.65577 0.795617 0
M  V30 4428 C 404.564 2.54798 -2.53611 0
M  V30 4429 C 404.228 2.22192 -3.99349 0
M  V30 4430 C 405.225 1.79607 -4.87891 0
M  V30 4431 C 402.91 2.33613 -4.44669 0
M  V30 4432 C 404.904 1.48868 -6.19772 0
M  V30 4433 C 402.591 2.02487 -5.76578 0
M  V30 4434 C 403.589 1.60183 -6.63951 0
M  V30 4435 O 403.277 1.29451 -7.93409 0
M  V30 4436 H 403.009 0.414858 -0.533731 0
M  V30 4437 H 405.563 0.684465 -1.9366 0
M  V30 4438 H 403.793 3.23235 -2.12265 0
M  V30 4439 H 405.482 3.16873 -2.53666 0
M  V30 4440 H 406.248 1.70278 -4.54126 0
M  V30 4441 H 402.127 2.65501 -3.76869 0
M  V30 4442 H 405.671 1.15775 -6.87926 0
M  V30 4443 H 401.568 2.11448 -6.09885 0
M  V30 4444 H 402.336 1.43098 -8.05894 0
M  V30 4445 N 404.999 1.35443 0.805782 0
M  V30 4446 C 406.276 1.19325 1.54987 0
M  V30 4447 C 406.656 -0.227294 2.09873 0
M  V30 4448 O 406.004 -1.2309 1.92512 0
M  V30 4449 C 406.214 2.26196 2.65775 0
M  V30 4450 C 407.562 2.62043 3.34094 0
M  V30 4451 O 408.586 2.25115 2.76046 0
M  V30 4452 O 407.445 3.25542 4.38958 0
M  V30 4453 H 404.539 0.463623 0.684823 0
M  V30 4454 H 407.085 1.47127 0.845674 0
M  V30 4455 H 405.857 3.21471 2.23096 0
M  V30 4456 H 405.48 1.99667 3.43829 0
M  V30 4457 N 406.477 -1.02803 1.19454 0
M  V30 4458 C 407.407 -2.12999 0.956758 0
M  V30 4459 C 408.388 -1.69743 -0.110188 0
M  V30 4460 O 409.573 -1.94148 0.0450038 0
M  V30 4461 C 406.703 -3.43746 0.495553 0
M  V30 4462 C 405.657 -4.00688 1.50443 0
M  V30 4463 C 404.983 -5.27067 0.900275 0
M  V30 4464 C 406.283 -4.35397 2.8849 0
M  V30 4465 H 407.977 -2.33148 1.87836 0
M  V30 4466 H 405.523 -1.12045 0.904539 0
M  V30 4467 H 407.476 -4.2021 0.316493 0
M  V30 4468 H 406.2 -3.23321 -0.461646 0
M  V30 4469 H 404.859 -3.2632 1.67065 0
M  V30 4470 H 404.507 -5.02959 -0.064503 0
M  V30 4471 H 404.207 -5.66127 1.57397 0
M  V30 4472 H 405.731 -6.06196 0.73203 0
M  V30 4473 H 407.145 -5.02795 2.75446 0
M  V30 4474 H 405.542 -4.85541 3.52661 0
M  V30 4475 H 406.612 -3.44662 3.41081 0
M  V30 4476 N 407.956 -0.998596 -1.21925 0
M  V30 4477 C 409.203 -0.677663 -1.90824 0
M  V30 4478 C 409.531 0.790905 -1.77693 0
M  V30 4479 O 408.786 1.58817 -1.14349 0
M  V30 4480 C 409.085 -1.03648 -3.42041 0
M  V30 4481 C 408.751 -2.49825 -3.75364 0
M  V30 4482 C 407.413 -2.8977 -3.8417 0
M  V30 4483 C 409.765 -3.44545 -3.91073 0
M  V30 4484 C 407.093 -4.23412 -4.06127 0
M  V30 4485 C 409.445 -4.77853 -4.14535 0
M  V30 4486 C 408.109 -5.17531 -4.21566 0
M  V30 4487 H 407.379 -0.247975 -0.698276 0
M  V30 4488 H 410.026 -1.25584 -1.44571 0
M  V30 4489 H 408.331 -0.376457 -3.89987 0
M  V30 4490 H 410.028 -0.766113 -3.93614 0
M  V30 4491 H 406.618 -2.17866 -3.69097 0
M  V30 4492 H 410.802 -3.14853 -3.83642 0
M  V30 4493 H 406.058 -4.53734 -4.09799 0
M  V30 4494 H 410.232 -5.51189 -4.25633 0
M  V30 4495 H 407.859 -6.21102 -4.38333 0
M  V30 4496 N 409.434 1.37368 -0.772513 0
M  V30 4497 C 410.68 1.99969 -0.337681 0
M  V30 4498 C 411.013 1.61184 1.08321 0
M  V30 4499 O 410.288 0.858395 1.74533 0
M  V30 4500 C 410.571 3.56858 -0.482121 0
M  V30 4501 C 410.424 4.0555 -1.94549 0
M  V30 4502 C 411.743 4.39955 0.113143 0
M  V30 4503 H 408.862 0.726464 -0.124171 0
M  V30 4504 H 411.504 1.63034 -0.975699 0
M  V30 4505 H 409.654 3.88452 0.0610361 0
M  V30 4506 H 411.326 3.84518 -2.54841 0
M  V30 4507 H 409.569 3.57715 -2.45403 0
M  V30 4508 H 410.24 5.14587 -1.9976 0
M  V30 4509 H 412.716 4.14623 -0.35031 0
M  V30 4510 H 411.592 5.48897 -0.0180514 0
M  V30 4511 H 411.853 4.25403 1.20354 0
M  V30 4512 N 410.912 0.523116 1.48665 0
M  V30 4513 C 411.844 -0.280421 2.27478 0
M  V30 4514 C 412.857 -0.910694 1.34945 0
M  V30 4515 O 414.046 -0.790295 1.60052 0
M  V30 4516 C 411.146 -1.41171 3.08097 0
M  V30 4517 C 410.319 -0.884642 4.28361 0
M  V30 4518 C 409.378 -1.89622 4.90846 0
M  V30 4519 O 408.404 -1.4559 5.50265 0
M  V30 4520 N 409.606 -3.22801 4.82472 0
M  V30 4521 H 412.371 0.395481 2.97079 0
M  V30 4522 H 409.932 0.357018 1.57915 0
M  V30 4523 H 411.924 -2.08645 3.4677 0
M  V30 4524 H 410.494 -1.99139 2.40961 0
M  V30 4525 H 409.714 -0.0341177 3.94185 0
M  V30 4526 H 411.002 -0.511268 5.06225 0
M  V30 4527 H 410.4 -3.61246 4.35336 0
M  V30 4528 H 408.957 -3.85927 5.25265 0
M  V30 4529 N 412.39 -1.55475 0.257931 0
M  V30 4530 C 413.353 -2.20551 -0.623706 0
M  V30 4531 C 414.353 -1.17809 -1.09443 0
M  V30 4532 O 415.543 -1.42823 -0.997362 0
M  V30 4533 C 412.675 -2.85784 -1.8585 0
M  V30 4534 H 413.868 -2.99848 -0.0557743 0
M  V30 4535 H 411.421 -1.56298 0.0084422 0
M  V30 4536 H 412.156 -2.10453 -2.46739 0
M  V30 4537 H 411.941 -3.61057 -1.52907 0
M  V30 4538 H 413.431 -3.35553 -2.48584 0
M  V30 4539 N 413.868 0.0150385 -1.57593 0
M  V30 4540 C 414.831 0.995996 -2.06428 0
M  V30 4541 C 415.831 1.2818 -0.970903 0
M  V30 4542 O 417.021 1.22949 -1.23406 0
M  V30 4543 C 414.153 2.32506 -2.49307 0
M  V30 4544 H 415.346 0.573873 -2.94358 0
M  V30 4545 H 412.899 0.262186 -1.54085 0
M  V30 4546 H 413.634 2.79438 -1.64575 0
M  V30 4547 H 413.419 2.13087 -3.29145 0
M  V30 4548 H 414.909 3.02906 -2.87468 0
M  V30 4549 N 415.346 1.54954 0.287554 0
M  V30 4550 C 416.278 1.83224 1.37701 0
M  V30 4551 C 417.291 0.715898 1.46215 0
M  V30 4552 O 418.48 0.993565 1.48292 0
M  V30 4553 C 415.58 1.96723 2.75959 0
M  V30 4554 C 414.753 3.27253 2.90215 0
M  V30 4555 C 413.812 3.30998 4.09056 0
M  V30 4556 O 412.838 4.04457 4.00503 0
M  V30 4557 N 414.04 2.57353 5.20336 0
M  V30 4558 H 416.805 2.77254 1.138 0
M  V30 4559 H 414.366 1.54694 0.477652 0
M  V30 4560 H 416.358 1.96615 3.5373 0
M  V30 4561 H 414.928 1.09626 2.92747 0
M  V30 4562 H 414.148 3.40022 1.99447 0
M  V30 4563 H 415.436 4.13365 2.96659 0
M  V30 4564 H 414.834 1.97327 5.30169 0
M  V30 4565 H 413.391 2.62984 5.96391 0
M  V30 4566 N 416.824 -0.551391 1.4764 0
M  V30 4567 C 417.756 -1.67333 1.56628 0
M  V30 4568 C 418.769 -1.56398 0.452045 0
M  V30 4569 O 419.958 -1.6325 0.721926 0
M  V30 4570 C 417.058 -3.05841 1.45994 0
M  V30 4571 C 416.231 -3.42472 2.72088 0
M  V30 4572 C 415.29 -4.60168 2.55209 0
M  V30 4573 O 414.316 -4.64458 3.2904 0
M  V30 4574 N 415.518 -5.57024 1.63416 0
M  V30 4575 H 418.283 -1.60066 2.53375 0
M  V30 4576 H 415.844 -0.738169 1.44093 0
M  V30 4577 H 417.836 -3.8242 1.32428 0
M  V30 4578 H 416.406 -3.07302 0.573071 0
M  V30 4579 H 415.626 -2.55284 3.00373 0
M  V30 4580 H 416.914 -3.63723 3.55785 0
M  V30 4581 H 416.312 -5.56319 1.02594 0
M  V30 4582 H 414.869 -6.32906 1.558 0
M  V30 4583 N 418.302 -1.35869 -0.798587 0
M  V30 4584 C 419.212 -1.31578 -1.94228 0
M  V30 4585 C 420.228 -0.21939 -1.72611 0
M  V30 4586 O 421.404 -0.450167 -1.96305 0
M  V30 4587 C 418.469 -1.09528 -3.28944 0
M  V30 4588 C 417.53 -2.28556 -3.63402 0
M  V30 4589 C 416.763 -2.07549 -4.9169 0
M  V30 4590 O 416.986 -1.046 -5.60727 0
M  V30 4591 O 415.92 -2.95106 -5.24591 0
M  V30 4592 H 419.746 -2.27847 -2.00796 0
M  V30 4593 H 417.331 -1.16322 -0.937526 0
M  V30 4594 H 419.213 -0.991127 -4.09579 0
M  V30 4595 H 417.888 -0.16315 -3.23289 0
M  V30 4596 H 416.795 -2.44538 -2.83112 0
M  V30 4597 H 418.128 -3.20244 -3.73771 0
M  V30 4598 N 419.78 1.02168 -1.19998 0
M  V30 4599 C 420.727 2.10601 -0.944228 0
M  V30 4600 C 421.697 1.65639 0.123664 0
M  V30 4601 O 422.882 1.9079 -0.0199941 0
M  V30 4602 C 420.022 3.41504 -0.496865 0
M  V30 4603 C 419.135 3.99973 -1.63234 0
M  V30 4604 C 418.27 5.18915 -1.13579 0
M  V30 4605 C 417.309 5.69456 -2.24468 0
M  V30 4606 N 416.446 6.79665 -1.76068 0
M  V30 4607 H 421.286 2.31814 -1.8726 0
M  V30 4608 H 418.823 1.13686 -0.933483 0
M  V30 4609 H 420.781 4.16626 -0.218843 0
M  V30 4610 H 419.411 3.2038 0.394508 0
M  V30 4611 H 418.463 3.21997 -2.0254 0
M  V30 4612 H 419.775 4.33492 -2.46752 0
M  V30 4613 H 418.929 6.01222 -0.813429 0
M  V30 4614 H 417.668 4.8695 -0.270434 0
M  V30 4615 H 416.673 4.85757 -2.57526 0
M  V30 4616 H 417.898 6.03459 -3.11472 0
M  V30 4617 H 415.844 6.49538 -0.918516 0
M  V30 4618 H 415.761 7.12349 -2.5317 0
M  V30 4619 H 417.029 7.65549 -1.46817 0
M  V30 4620 N 421.258 1.00505 1.21394 0
M  V30 4621 C 422.535 0.603277 1.86064 0
M  V30 4622 C 422.915 -0.919095 1.90042 0
M  V30 4623 O 422.263 -1.80607 1.39977 0
M  V30 4624 C 422.473 1.23772 3.26315 0
M  V30 4625 C 423.821 1.34586 4.02705 0
M  V30 4626 O 424.845 1.19304 3.35626 0
M  V30 4627 O 423.704 1.59169 5.22807 0
M  V30 4628 H 420.798 0.206634 0.800769 0
M  V30 4629 H 423.344 1.1017 1.29076 0
M  V30 4630 H 422.116 2.27848 3.18121 0
M  V30 4631 H 421.739 0.725648 3.90922 0
M  V30 4632 N 422.737 -1.36956 0.779787 0
M  V30 4633 C 423.983 -2.00237 0.357324 0
M  V30 4634 C 424.338 -1.60787 -1.05666 0
M  V30 4635 O 423.631 -0.847836 -1.71821 0
M  V30 4636 C 423.825 -3.54585 0.447686 0
M  V30 4637 C 423.654 -4.09025 1.86891 0
M  V30 4638 C 422.424 -4.39612 2.49138 0
M  V30 4639 C 424.622 -4.29461 2.82963 0
M  V30 4640 N 422.604 -4.79816 3.82949 0
M  V30 4641 C 423.975 -4.72363 4.01588 0
M  V30 4642 C 426.03 -4.1161 2.80145 0
M  V30 4643 C 424.733 -4.99284 5.17791 0
M  V30 4644 C 426.759 -4.39672 3.95528 0
M  V30 4645 C 426.121 -4.82822 5.12896 0
M  V30 4646 H 422.22 -0.76148 0.177968 0
M  V30 4647 H 424.804 -1.6613 1.01533 0
M  V30 4648 H 422.975 -3.87982 -0.180184 0
M  V30 4649 H 424.707 -4.047 0.0023955 0
M  V30 4650 H 421.462 -4.28975 2.00693 0
M  V30 4651 H 421.886 -5.04216 4.51769 0
M  V30 4652 H 426.528 -3.77415 1.90572 0
M  V30 4653 H 424.246 -5.32365 6.07958 0
M  V30 4654 H 427.832 -4.27441 3.94697 0
M  V30 4655 H 426.712 -5.04118 6.00695 0
M  V30 4656 N 424.215 -0.530993 -1.48385 0
M  V30 4657 C 425.178 0.220497 -2.28137 0
M  V30 4658 C 426.178 0.866851 -1.35434 0
M  V30 4659 O 427.368 0.726746 -1.58316 0
M  V30 4660 C 424.5 1.31921 -3.1434 0
M  V30 4661 H 425.693 -0.479714 -2.96038 0
M  V30 4662 H 423.246 -0.286968 -1.53643 0
M  V30 4663 H 423.981 2.05264 -2.51072 0
M  V30 4664 H 423.766 0.86085 -3.82533 0
M  V30 4665 H 425.256 1.84776 -3.74497 0
M  V30 4666 N 425.693 1.55336 -0.266172 0
M  V30 4667 C 426.97 1.91372 0.404486 0
M  V30 4668 C 427.35 1.18935 1.74407 0
M  V30 4669 O 426.698 0.3132 2.26343 0
M  V30 4670 C 426.908 3.44581 0.553593 0
M  V30 4671 C 428.256 4.16196 0.840618 0
M  V30 4672 O 429.28 3.50426 0.638739 0
M  V30 4673 O 428.139 5.32567 1.22618 0
M  V30 4674 H 425.233 0.797194 0.220025 0
M  V30 4675 H 427.779 1.66813 -0.311664 0
M  V30 4676 H 426.551 3.89357 -0.389498 0
M  V30 4677 H 426.174 3.75065 1.31955 0
M  V30 4678 N 427.171 -0.0066808 1.57599 0
M  V30 4679 C 428.401 -0.703066 1.94269 0
M  V30 4680 C 428.809 -1.68206 0.866222 0
M  V30 4681 O 428.152 -1.82966 -0.164087 0
M  V30 4682 C 428.214 -1.49616 3.26887 0
M  V30 4683 C 427.878 -0.679494 4.5192 0
M  V30 4684 C 428.875 0.0299508 5.19891 0
M  V30 4685 C 426.56 -0.627433 4.98366 0
M  V30 4686 C 428.554 0.780514 6.32603 0
M  V30 4687 C 426.241 0.126861 6.10968 0
M  V30 4688 C 427.239 0.829574 6.77943 0
M  V30 4689 O 426.927 1.57157 7.88389 0
M  V30 4690 H 426.659 -0.201217 0.645359 0
M  V30 4691 H 429.213 0.0385326 2.05364 0
M  V30 4692 H 427.443 -2.28209 3.12182 0
M  V30 4693 H 429.132 -2.07726 3.48719 0
M  V30 4694 H 429.898 -0.00115963 4.85 0
M  V30 4695 H 425.777 -1.16392 4.46065 0
M  V30 4696 H 429.321 1.32954 6.84813 0
M  V30 4697 H 425.218 0.159815 6.45302 0
M  V30 4698 H 425.986 1.48758 8.04868 0
M  V30 4699 N 428.649 -1.55105 -0.279332 0
M  V30 4700 C 429.579 -1.90557 -1.34945 0
M  V30 4701 C 430.56 -0.766738 -1.51839 0
M  V30 4702 O 431.745 -1.02434 -1.64988 0
M  V30 4703 C 428.875 -2.17193 -2.71006 0
M  V30 4704 C 427.829 -3.33021 -2.68851 0
M  V30 4705 C 427.155 -3.45123 -4.08405 0
M  V30 4706 C 428.455 -4.69578 -2.28678 0
M  V30 4707 H 430.149 -2.80188 -1.05522 0
M  V30 4708 H 427.695 -1.34811 -0.506173 0
M  V30 4709 H 429.648 -2.40581 -3.45975 0
M  V30 4710 H 428.372 -1.24355 -3.01999 0
M  V30 4711 H 427.031 -3.0959 -1.9634 0
M  V30 4712 H 426.679 -2.49762 -4.3661 0
M  V30 4713 H 426.379 -4.22995 -4.07859 0
M  V30 4714 H 427.903 -3.70796 -4.85121 0
M  V30 4715 H 429.317 -4.92553 -2.93368 0
M  V30 4716 H 427.714 -5.5032 -2.39306 0
M  V30 4717 H 428.784 -4.68828 -1.23807 0
M  V30 4718 N 430.127 0.543554 -1.4793 0
M  V30 4719 C 431.374 1.30008 -1.55255 0
M  V30 4720 C 431.702 1.93245 -0.220612 0
M  V30 4721 O 430.957 1.79141 0.787843 0
M  V30 4722 C 431.256 2.42078 -2.62932 0
M  V30 4723 C 430.922 1.96583 -4.0579 0
M  V30 4724 C 429.584 1.83893 -4.44676 0
M  V30 4725 C 431.936 1.62034 -4.95373 0
M  V30 4726 C 429.264 1.34969 -5.70964 0
M  V30 4727 C 431.616 1.14577 -6.22137 0
M  V30 4728 C 430.28 1.00493 -6.59892 0
M  V30 4729 H 429.55 0.475735 -0.568117 0
M  V30 4730 H 432.197 0.608075 -1.81589 0
M  V30 4731 H 430.502 3.16892 -2.30406 0
M  V30 4732 H 432.199 3.00236 -2.65818 0
M  V30 4733 H 428.789 2.07407 -3.75074 0
M  V30 4734 H 432.973 1.70705 -4.66019 0
M  V30 4735 H 428.229 1.2274 -5.98953 0
M  V30 4736 H 432.403 0.869109 -6.90955 0
M  V30 4737 H 430.03 0.623624 -7.57638 0
M  V30 4738 N 431.605 1.3629 0.791371 0
M  V30 4739 C 433.021 1.16661 1.08914 0
M  V30 4740 C 433.221 -0.0106266 2.01497 0
M  V30 4741 O 432.277 -0.676596 2.43266 0
M  V30 4742 C 433.59 2.47656 1.70549 0
M  V30 4743 C 435.138 2.54002 1.82899 0
M  V30 4744 C 435.613 3.85078 2.47949 0
M  V30 4745 N 437.104 3.86413 2.5542 0
M  V30 4746 C 437.839 4.84572 3.06557 0
M  V30 4747 N 437.335 5.93124 3.58016 0
M  V30 4748 N 439.128 4.71994 3.05251 0
M  V30 4749 H 431.279 2.11668 0.176238 0
M  V30 4750 H 433.542 0.937486 0.140796 0
M  V30 4751 H 433.248 3.34059 1.09989 0
M  V30 4752 H 433.122 2.63319 2.70079 0
M  V30 4753 H 435.509 1.68018 2.42598 0
M  V30 4754 H 435.59 2.42239 0.821808 0
M  V30 4755 H 435.234 4.71467 1.88895 0
M  V30 4756 H 435.164 3.94135 3.49235 0
M  V30 4757 H 437.655 3.07988 2.18979 0
M  V30 4758 H 437.968 6.63999 3.95381 0
M  V30 4759 H 436.313 5.96796 3.56173 0
M  V30 4760 H 439.504 3.86321 2.64336 0
M  V30 4761 H 439.677 5.48653 3.44796 0
M  V30 4762 N 433.083 -1.0153 1.20538 0
M  V30 4763 C 434.36 -1.72327 0.925343 0
M  V30 4764 C 434.74 -2.03383 -0.565547 0
M  V30 4765 O 434.088 -1.69934 -1.52757 0
M  V30 4766 C 434.298 -2.9902 1.79967 0
M  V30 4767 C 435.646 -3.72258 2.04228 0
M  V30 4768 O 436.67 -3.08979 1.77231 0
M  V30 4769 O 435.529 -4.86053 2.4983 0
M  V30 4770 H 432.623 -0.751099 0.346092 0
M  V30 4771 H 435.169 -1.07366 1.31417 0
M  V30 4772 H 433.941 -2.72402 2.80915 0
M  V30 4773 H 433.564 -3.71721 1.41099 0
M  V30 4774 N 434.561 -1.01147 -1.20859 0
M  V30 4775 C 435.809 -0.696486 -1.89719 0
M  V30 4776 C 436.13 0.775788 -1.78904 0
M  V30 4777 O 435.4 1.55759 -1.18811 0
M  V30 4778 H 433.98 -0.254628 -0.702263 0
M  V30 4779 H 436.642 -1.28197 -1.46804 0
M  V30 4780 H 435.738 -0.975357 -2.96468 0
M  V30 4781 N 436.039 1.36541 -0.78704 0
M  V30 4782 C 437.264 2.0409 -0.369053 0
M  V30 4783 C 437.689 1.58957 1.00569 0
M  V30 4784 O 437.047 0.756926 1.64743 0
M  V30 4785 C 437.095 3.57924 -0.438466 0
M  V30 4786 O 436.199 4.08642 0.555479 0
M  V30 4787 H 435.54 0.645142 -0.157122 0
M  V30 4788 H 438.07 1.74545 -1.06749 0
M  V30 4789 H 438.08 4.06887 -0.301218 0
M  V30 4790 H 436.755 3.90127 -1.44132 0
M  V30 4791 H 435.332 3.70958 0.380088 0
M  V30 4792 N 437.518 0.538854 1.48102 0
M  V30 4793 C 438.451 -0.266495 2.26639 0
M  V30 4794 C 439.429 -0.93687 1.32897 0
M  V30 4795 O 440.613 -0.959507 1.62252 0
M  V30 4796 C 437.74 -1.37814 3.09394 0
M  V30 4797 C 436.786 -0.818247 4.18577 0
M  V30 4798 S 437.619 0.320848 5.34538 0
M  V30 4799 C 438.775 -0.793059 6.20855 0
M  V30 4800 H 439.008 0.399994 2.94597 0
M  V30 4801 H 436.541 0.324808 1.50945 0
M  V30 4802 H 438.499 -2.01488 3.57649 0
M  V30 4803 H 437.16 -2.01639 2.40833 0
M  V30 4804 H 436.353 -1.65247 4.7614 0
M  V30 4805 H 435.955 -0.258036 3.73109 0
M  V30 4806 H 438.247 -1.68961 6.56093 0
M  V30 4807 H 439.19 -0.255204 7.0764 0
M  V30 4808 H 439.598 -1.07746 5.54122 0
M  V30 4809 N 438.996 -1.55193 0.274407 0
M  V30 4810 C 440.245 -1.98758 -0.343213 0
M  V30 4811 C 440.558 -1.16624 -1.5703 0
M  V30 4812 O 441.764 -1.5033 -2.26082 0
M  V30 4813 C 440.22 -3.53759 -0.661996 0
M  V30 4814 C 439.828 -4.4467 0.54524 0
M  V30 4815 C 441.572 -4.05916 -1.24228 0
M  V30 4816 C 439.479 -5.91058 0.201084 0
M  V30 4817 H 438.409 -0.742353 -0.132014 0
M  V30 4818 H 441.06 -1.79545 0.378948 0
M  V30 4819 H 439.442 -3.68772 -1.44304 0
M  V30 4820 H 440.616 -4.41426 1.32212 0
M  V30 4821 H 438.931 -4.03143 1.04232 0
M  V30 4822 H 441.528 -5.12831 -1.51357 0
M  V30 4823 H 441.871 -3.54908 -2.17592 0
M  V30 4824 H 442.404 -3.9434 -0.523542 0
M  V30 4825 H 439.143 -6.46161 1.10258 0
M  V30 4826 H 438.663 -5.97373 -0.539045 0
M  V30 4827 H 440.342 -6.46669 -0.206954 0
M  V30 4828 N 440.474 -0.00167713 -1.576 0
M  V30 4829 C 441.722 0.681471 -1.90264 0
M  V30 4830 C 442.043 1.7422 -0.875924 0
M  V30 4831 O 441.313 1.95709 0.0864412 0
M  V30 4832 H 439.893 0.254696 -0.702239 0
M  V30 4833 H 442.555 -0.0429996 -1.94853 0
M  V30 4834 H 441.651 1.15166 -2.90075 0
M  V30 4835 N 441.952 1.55251 0.271103 0
M  V30 4836 C 442.882 1.9127 1.33933 0
M  V30 4837 C 443.863 0.77478 1.5143 0
M  V30 4838 O 445.048 1.03307 1.64442 0
M  V30 4839 C 442.178 2.18627 2.69851 0
M  V30 4840 C 441.132 3.34442 2.67081 0
M  V30 4841 C 440.458 3.47284 4.06569 0
M  V30 4842 C 441.758 4.70784 2.26185 0
M  V30 4843 H 443.452 2.80744 1.04035 0
M  V30 4844 H 440.998 1.35077 0.499017 0
M  V30 4845 H 442.951 2.42413 3.44694 0
M  V30 4846 H 441.675 1.25955 3.01335 0
M  V30 4847 H 440.334 3.10627 1.94695 0
M  V30 4848 H 439.982 2.52074 4.35279 0
M  V30 4849 H 439.682 4.25152 4.0561 0
M  V30 4850 H 441.206 3.73363 4.83148 0
M  V30 4851 H 442.62 4.94102 2.90751 0
M  V30 4852 H 441.017 5.51582 2.36384 0
M  V30 4853 H 442.087 4.69478 1.21319 0
M  V30 4854 N 443.43 -0.535701 1.48216 0
M  V30 4855 C 444.378 -1.66179 1.62749 0
M  V30 4856 C 445.372 -1.62034 0.49409 0
M  V30 4857 O 446.578 -1.6696 0.672624 0
M  V30 4858 H 442.953 -0.550244 0.512578 0
M  V30 4859 H 444.924 -1.51063 2.57337 0
M  V30 4860 C 443.673 -3.04471 1.67907 0
M  V30 4861 H 442.996 -3.08351 2.54479 0
M  V30 4862 H 444.436 -3.82894 1.82121 0
M  V30 4863 C 442.895 -3.34314 0.416596 0
M  V30 4864 O 443.425 -3.98905 -0.473014 0
M  V30 4865 N 441.631 -2.89149 0.290038 0
M  V30 4866 H 441.178 -2.36764 1.01493 0
M  V30 4867 H 441.136 -3.09486 -0.55367 0
M  V30 4868 N 444.908 -1.36708 -0.784132 0
M  V30 4869 C 445.855 -1.31466 -1.89698 0
M  V30 4870 C 446.825 -0.18239 -1.65096 0
M  V30 4871 O 448.01 -0.369762 -1.87183 0
M  V30 4872 C 445.15 -1.1151 -3.26588 0
M  V30 4873 C 444.263 -2.33859 -3.63227 0
M  V30 4874 C 443.398 -2.06873 -4.89262 0
M  V30 4875 C 442.437 -3.25154 -5.18595 0
M  V30 4876 N 441.574 -2.978 -6.35814 0
M  V30 4877 H 446.414 -2.26619 -1.93515 0
M  V30 4878 H 443.951 -1.12625 -0.946256 0
M  V30 4879 H 445.909 -0.979653 -4.05535 0
M  V30 4880 H 444.539 -0.200103 -3.22179 0
M  V30 4881 H 443.591 -2.58188 -2.79362 0
M  V30 4882 H 444.903 -3.22109 -3.8085 0
M  V30 4883 H 444.057 -1.90289 -5.76086 0
M  V30 4884 H 442.796 -1.15942 -4.73718 0
M  V30 4885 H 441.801 -3.42292 -4.30251 0
M  V30 4886 H 443.026 -4.1692 -5.36055 0
M  V30 4887 H 440.972 -2.09485 -6.21653 0
M  V30 4888 H 440.889 -3.7959 -6.53794 0
M  V30 4889 H 442.157 -2.84805 -7.25607 0
M  V30 4890 N 446.386 1.0089 -1.21074 0
M  V30 4891 C 447.663 1.71834 -0.934469 0
M  V30 4892 C 448.043 2.0368 0.554753 0
M  V30 4893 O 447.391 1.70742 1.51854 0
M  V30 4894 C 447.601 2.98061 -1.8155 0
M  V30 4895 C 448.949 3.7117 -2.06199 0
M  V30 4896 O 449.973 3.08034 -1.78867 0
M  V30 4897 O 448.832 4.84721 -2.52404 0
M  V30 4898 H 445.926 0.749253 -0.35007 0
M  V30 4899 H 448.472 1.06668 -1.31985 0
M  V30 4900 H 447.244 2.70908 -2.82355 0
M  V30 4901 H 446.867 3.70968 -1.43068 0
M  V30 4902 N 447.864 1.01787 1.20321 0
M  V30 4903 C 449.113 0.703249 1.89043 0
M  V30 4904 C 449.426 -0.770445 1.79787 0
M  V30 4905 O 450.632 -1.19767 2.43656 0
M  V30 4906 C 449.088 1.20749 3.3904 0
M  V30 4907 C 448.696 2.70817 3.56878 0
M  V30 4908 C 450.44 0.968352 4.13308 0
M  V30 4909 C 448.347 3.14716 5.00708 0
M  V30 4910 H 447.277 0.259354 0.707991 0
M  V30 4911 H 449.928 1.23072 1.36108 0
M  V30 4912 H 448.31 0.607989 3.91305 0
M  V30 4913 H 449.484 3.36327 3.14993 0
M  V30 4914 H 447.799 2.92888 2.95983 0
M  V30 4915 H 450.396 1.27173 5.19356 0
M  V30 4916 H 450.739 -0.095149 4.16191 0
M  V30 4917 H 451.272 1.53129 3.67146 0
M  V30 4918 H 448.011 4.20347 5.02979 0
M  V30 4919 H 447.531 2.53927 5.43398 0
M  V30 4920 H 449.21 3.07426 5.69296 0
M  V30 4921 N 449.342 -1.36122 0.79427 0
M  V30 4922 C 450.272 -2.32551 0.210328 0
M  V30 4923 C 451.253 -1.56884 -0.657386 0
M  V30 4924 O 452.438 -1.85014 -0.590207 0
M  V30 4925 C 449.568 -3.41128 -0.651819 0
M  V30 4926 C 448.522 -4.27842 0.116395 0
M  V30 4927 C 447.848 -5.2763 -0.86666 0
M  V30 4928 C 449.148 -5.05647 1.30837 0
M  V30 4929 H 450.842 -2.81636 1.01594 0
M  V30 4930 H 448.388 -1.35407 0.489981 0
M  V30 4931 H 450.341 -4.07581 -1.07031 0
M  V30 4932 H 449.065 -2.90622 -1.49019 0
M  V30 4933 H 447.724 -3.62952 0.515915 0
M  V30 4934 H 447.372 -4.73395 -1.70019 0
M  V30 4935 H 447.072 -5.86514 -0.35705 0
M  V30 4936 H 448.596 -5.96955 -1.28361 0
M  V30 4937 H 450.01 -5.65113 0.965393 0
M  V30 4938 H 448.407 -5.73967 1.75161 0
M  V30 4939 H 449.477 -4.37006 2.10128 0
M  V30 4940 N 450.82 -0.546701 -1.47814 0
M  V30 4941 C 452.06 -0.0209604 -2.04389 0
M  V30 4942 C 452.424 1.29993 -1.413 0
M  V30 4943 O 453.625 1.91273 -1.8886 0
M  V30 4944 C 451.896 0.0812844 -3.57308 0
M  V30 4945 S 453.455 0.55467 -4.3528 0
M  V30 4946 H 450.273 -0.0200865 -0.710716 0
M  V30 4947 H 452.875 -0.731055 -1.81317 0
M  V30 4948 H 451.579 -0.884616 -4.00753 0
M  V30 4949 H 451.11 0.815253 -3.8486 0
M  V30 4950 H 453.125 1.81627 -4.61764 0
M  V30 4951 N 452.299 1.55045 -0.282633 0
M  V30 4952 C 453.231 2.2023 0.634924 0
M  V30 4953 C 454.244 1.18931 1.11172 0
M  V30 4954 O 455.433 1.4562 1.03233 0
M  V30 4955 C 452.533 2.82041 1.87899 0
M  V30 4956 C 451.706 4.091 1.54776 0
M  V30 4957 C 450.765 4.54887 2.64507 0
M  V30 4958 O 449.791 5.20496 2.30375 0
M  V30 4959 N 450.993 4.25659 3.94709 0
M  V30 4960 H 453.758 2.99601 0.0769811 0
M  V30 4961 H 451.319 1.61565 -0.104048 0
M  V30 4962 H 453.311 3.09613 2.60619 0
M  V30 4963 H 451.881 2.06618 2.3458 0
M  V30 4964 H 451.101 3.88736 0.654049 0
M  V30 4965 H 452.389 4.9187 1.30158 0
M  V30 4966 H 451.787 3.7306 4.25256 0
M  V30 4967 H 450.344 4.57984 4.63782 0
M  V30 4968 N 453.777 0.010035 1.57597 0
M  V30 4969 C 455.007 -0.682422 1.95004 0
M  V30 4970 C 455.415 -1.67278 0.884014 0
M  V30 4971 O 454.758 -1.83129 -0.144672 0
M  V30 4972 C 454.82 -1.46141 3.28456 0
M  V30 4973 C 454.484 -0.631523 4.52615 0
M  V30 4974 C 455.481 0.0850905 5.1983 0
M  V30 4975 C 453.166 -0.574539 4.99003 0
M  V30 4976 C 455.16 0.847566 6.3174 0
M  V30 4977 C 452.847 0.191655 6.10799 0
M  V30 4978 C 453.845 0.901432 6.77025 0
M  V30 4979 O 453.533 1.65511 7.86677 0
M  V30 4980 H 453.265 -0.194361 0.647456 0
M  V30 4981 H 455.819 0.060312 2.05311 0
M  V30 4982 H 454.049 -2.24885 3.14585 0
M  V30 4983 H 455.738 -2.04016 3.50902 0
M  V30 4984 H 456.504 0.0502812 4.84974 0
M  V30 4985 H 452.383 -1.11654 4.47274 0
M  V30 4986 H 455.927 1.4021 6.83364 0
M  V30 4987 H 451.824 0.228249 6.45096 0
M  V30 4988 H 452.592 1.57287 8.03245 0
M  V30 4989 N 455.255 -1.55392 -0.262866 0
M  V30 4990 C 456.501 -1.76737 -0.99458 0
M  V30 4991 C 456.834 -0.572453 -1.85571 0
M  V30 4992 O 456.109 0.429732 -1.89693 0
M  V30 4993 C 456.392 -3.07824 -1.8686 0
M  V30 4994 C 456.245 -4.3769 -1.03672 0
M  V30 4995 C 457.564 -3.35021 -2.85393 0
M  V30 4996 H 454.683 -0.643005 -0.360157 0
M  V30 4997 H 457.325 -1.88126 -0.266216 0
M  V30 4998 H 455.475 -2.98245 -2.48962 0
M  V30 4999 H 457.147 -4.59238 -0.43563 0
M  V30 5000 H 455.39 -4.32461 -0.340513 0
M  V30 5001 H 456.061 -5.25759 -1.6817 0
M  V30 5002 H 458.537 -3.44458 -2.33426 0
M  V30 5003 H 457.413 -4.27989 -3.43681 0
M  V30 5004 H 457.674 -2.55153 -3.61039 0
M  V30 5005 N 456.733 0.527833 -1.48498 0
M  V30 5006 C 457.643 1.65907 -1.65867 0
M  V30 5007 C 458.659 1.6537 -0.541192 0
M  V30 5008 O 459.835 1.84282 -0.812534 0
M  V30 5009 C 456.9 3.02364 -1.69637 0
M  V30 5010 C 455.961 3.1374 -2.93028 0
M  V30 5011 C 455.194 4.43688 -2.96609 0
M  V30 5012 O 455.417 5.30913 -2.08538 0
M  V30 5013 O 454.351 4.59475 -3.88802 0
M  V30 5014 H 458.177 1.5419 -2.61647 0
M  V30 5015 H 455.762 0.701163 -1.31924 0
M  V30 5016 H 457.644 3.83515 -1.74625 0
M  V30 5017 H 456.319 3.14401 -0.770312 0
M  V30 5018 H 455.226 2.31877 -2.93571 0
M  V30 5019 H 456.559 3.06621 -3.85026 0
M  V30 5020 N 458.211 1.37122 0.776871 0
M  V30 5021 C 459.441 1.35034 1.56363 0
M  V30 5022 C 459.849 -0.0674681 1.8908 0
M  V30 5023 O 459.192 -1.03826 1.51545 0
M  V30 5024 C 459.254 2.11894 2.90415 0
M  V30 5025 C 458.918 3.60897 2.80362 0
M  V30 5026 C 459.915 4.54887 2.51742 0
M  V30 5027 C 457.6 4.03951 2.98545 0
M  V30 5028 C 459.594 5.89909 2.41426 0
M  V30 5029 C 457.281 5.3906 2.87849 0
M  V30 5030 C 458.279 6.31852 2.5933 0
M  V30 5031 O 457.967 7.64479 2.48651 0
M  V30 5032 H 457.699 0.464402 0.49123 0
M  V30 5033 H 460.253 1.80992 0.971127 0
M  V30 5034 H 458.483 1.60618 3.51765 0
M  V30 5035 H 460.172 2.02505 3.51776 0
M  V30 5036 H 460.938 4.22934 2.37385 0
M  V30 5037 H 456.817 3.3209 3.19746 0
M  V30 5038 H 460.361 6.62304 2.19086 0
M  V30 5039 H 456.258 5.70617 3.01773 0
M  V30 5040 H 457.026 7.74742 2.64039 0
M  V30 5041 N 459.689 -1.00246 1.21608 0
M  V30 5042 C 460.938 -1.73476 1.02902 0
M  V30 5043 C 461.251 -1.90643 -0.437561 0
M  V30 5044 O 462.457 -2.61105 -0.74407 0
M  V30 5045 C 460.913 -3.12079 1.79261 0
M  V30 5046 C 460.521 -3.02877 3.30106 0
M  V30 5047 C 462.265 -3.89421 1.68972 0
M  V30 5048 C 460.172 -4.36575 3.98944 0
M  V30 5049 H 459.102 -0.650408 0.381425 0
M  V30 5050 H 461.753 -1.11985 1.45367 0
M  V30 5051 H 460.135 -3.74196 1.2959 0
M  V30 5052 H 461.309 -2.49983 3.87098 0
M  V30 5053 H 459.624 -2.39022 3.40965 0
M  V30 5054 H 462.221 -4.88362 2.17731 0
M  V30 5055 H 462.564 -4.1122 0.648397 0
M  V30 5056 H 463.097 -3.33963 2.16133 0
M  V30 5057 H 459.836 -4.19978 5.03288 0
M  V30 5058 H 459.356 -4.8942 3.4674 0
M  V30 5059 H 461.035 -5.05364 4.04 0
M  V30 5060 N 461.167 -1.02423 -1.1978 0
M  V30 5061 C 462.395 -0.737456 -1.93311 0
M  V30 5062 C 462.81 0.703023 -1.75223 0
M  V30 5063 O 462.167 1.47761 -1.07112 0
M  V30 5064 C 462.218 -1.0733 -3.45199 0
M  V30 5065 O 461.939 -2.4572 -3.62702 0
M  V30 5066 C 463.44 -0.80866 -4.35862 0
M  V30 5067 H 460.66 -0.2702 -0.614193 0
M  V30 5068 H 463.204 -1.36747 -1.52054 0
M  V30 5069 H 461.359 -0.488545 -3.84307 0
M  V30 5070 H 461.773 -2.58081 -4.56612 0
M  V30 5071 H 463.247 -1.09365 -5.41057 0
M  V30 5072 H 463.724 0.257025 -4.38447 0
M  V30 5073 H 464.33 -1.37592 -4.02428 0
M  V30 5074 N 462.645 1.35699 -0.801477 0
M  V30 5075 C 463.593 2.3177 -0.196317 0
M  V30 5076 C 464.587 1.56388 0.651081 0
M  V30 5077 O 465.793 1.71557 0.544815 0
M  V30 5078 H 462.168 0.750669 -0.0447189 0
M  V30 5079 H 464.139 2.8036 -1.02181 0
M  V30 5080 C 462.888 3.41671 0.644702 0
M  V30 5081 H 462.211 3.998 0.0019921 0
M  V30 5082 H 463.651 4.11184 1.0346 0
M  V30 5083 C 462.11 2.84271 1.80808 0
M  V30 5084 O 462.64 2.77408 2.9053 0
M  V30 5085 N 460.846 2.41391 1.61799 0
M  V30 5086 H 460.393 2.47173 0.725493 0
M  V30 5087 H 460.351 2.03334 2.39797 0
M  V30 5088 N 464.123 0.554532 1.47522 0
M  V30 5089 C 465.372 0.0273458 2.01681 0
M  V30 5090 C 465.685 -1.32962 1.43459 0
M  V30 5091 O 466.891 -1.94657 1.89265 0
M  V30 5092 C 465.347 -0.00159057 3.599 0
M  V30 5093 C 464.955 1.35197 4.27113 0
M  V30 5094 C 466.699 -0.476311 4.21819 0
M  V30 5095 C 464.606 1.28229 5.77331 0
M  V30 5096 H 463.536 0.00645269 0.753972 0
M  V30 5097 H 466.187 0.701985 1.69542 0
M  V30 5098 H 464.569 -0.741821 3.8899 0
M  V30 5099 H 465.743 2.1097 4.09668 0
M  V30 5100 H 464.058 1.76441 3.77171 0
M  V30 5101 H 466.655 -0.5468 5.31897 0
M  V30 5102 H 466.998 -1.4877 3.8881 0
M  V30 5103 H 467.531 0.20898 3.97251 0
M  V30 5104 H 464.27 2.26959 6.14955 0
M  V30 5105 H 463.79 0.566314 5.97121 0
M  V30 5106 H 465.469 0.983226 6.39485 0
M  V30 5107 N 465.601 -1.54893 0.290851 0
M  V30 5108 C 467.017 -1.59476 -0.0628432 0
M  V30 5109 C 467.217 -1.30795 -1.5328 0
M  V30 5110 O 466.273 -1.07644 -2.28406 0
M  V30 5111 C 467.586 -2.98928 0.325962 0
M  V30 5112 C 469.134 -3.11799 0.273882 0
M  V30 5113 C 469.609 -4.53544 0.637359 0
M  V30 5114 N 471.1 -4.59433 0.589507 0
M  V30 5115 C 471.835 -5.67164 0.84335 0
M  V30 5116 N 471.331 -6.82975 1.16263 0
M  V30 5117 N 473.124 -5.56786 0.771091 0
M  V30 5118 H 465.275 -1.71798 1.24896 0
M  V30 5119 H 467.538 -0.801879 0.505663 0
M  V30 5120 H 467.244 -3.24805 1.34887 0
M  V30 5121 H 467.118 -3.75793 -0.325441 0
M  V30 5122 H 469.505 -2.85677 -0.739765 0
M  V30 5123 H 469.586 -2.37112 0.959766 0
M  V30 5124 H 469.23 -4.80394 1.64877 0
M  V30 5125 H 469.16 -5.26553 -0.0704866 0
M  V30 5126 H 471.651 -3.76245 0.353252 0
M  V30 5127 H 471.964 -7.61048 1.34257 0
M  V30 5128 H 470.309 -6.84552 1.20057 0
M  V30 5129 H 473.5 -4.65187 0.521383 0
M  V30 5130 H 473.673 -6.40664 0.972295 0
M  V30 5131 N 467.08 -0.0183926 -1.57589 0
M  V30 5132 C 468.013 1.00148 -2.0505 0
M  V30 5133 C 468.991 1.32387 -0.944058 0
M  V30 5134 O 470.175 1.44237 -1.21358 0
M  V30 5135 C 467.302 2.32435 -2.46357 0
M  V30 5136 C 466.348 2.15731 -3.67916 0
M  V30 5137 S 467.181 1.46613 -5.15039 0
M  V30 5138 C 468.337 2.80293 -5.59631 0
M  V30 5139 H 468.57 0.597429 -2.91235 0
M  V30 5140 H 466.103 0.193002 -1.53189 0
M  V30 5141 H 468.061 3.0849 -2.70822 0
M  V30 5142 H 466.722 2.69975 -1.60537 0
M  V30 5143 H 465.915 3.13502 -3.9463 0
M  V30 5144 H 465.517 1.4782 -3.43548 0
M  V30 5145 H 467.809 3.76557 -5.63215 0
M  V30 5146 H 468.752 2.58256 -6.59325 0
M  V30 5147 H 469.16 2.85047 -4.87246 0
M  V30 5148 N 468.558 1.5553 0.254621 0
M  V30 5149 C 469.49 1.86104 1.33783 0
M  V30 5150 C 470.503 0.746752 1.44663 0
M  V30 5151 O 471.692 1.0248 1.46151 0
M  V30 5152 C 468.792 2.02532 2.71724 0
M  V30 5153 C 467.965 3.33335 2.83208 0
M  V30 5154 C 467.024 3.396 4.01943 0
M  V30 5155 O 466.05 4.12862 3.91834 0
M  V30 5156 N 467.252 2.68332 5.1476 0
M  V30 5157 H 470.017 2.79605 1.07893 0
M  V30 5158 H 467.578 1.55672 0.444732 0
M  V30 5159 H 469.57 2.04074 3.4948 0
M  V30 5160 H 468.14 1.15811 2.90356 0
M  V30 5161 H 467.36 3.44176 1.92189 0
M  V30 5162 H 468.648 4.19565 2.87824 0
M  V30 5163 H 468.046 2.08528 5.25864 0
M  V30 5164 H 466.603 2.75575 5.90679 0
M  V30 5165 N 470.036 -0.519951 1.48776 0
M  V30 5166 C 470.999 -1.60574 1.6355 0
M  V30 5167 C 471.999 -1.52557 0.508234 0
M  V30 5168 O 473.189 -1.56047 0.774262 0
M  V30 5169 C 470.321 -3.00211 1.61512 0
M  V30 5170 H 471.514 -1.4881 2.60376 0
M  V30 5171 H 469.067 -0.742772 1.37523 0
M  V30 5172 H 469.802 -3.17471 0.662009 0
M  V30 5173 H 469.587 -3.07439 2.43359 0
M  V30 5174 H 471.077 -3.79134 1.75064 0
M  V30 5175 N 471.514 -1.37532 -0.769588 0
M  V30 5176 C 472.76 -1.33057 -1.53048 0
M  V30 5177 C 473.093 0.0841865 -1.94017 0
M  V30 5178 O 472.368 1.04198 -1.64235 0
M  V30 5179 C 472.651 -2.27166 -2.79406 0
M  V30 5180 C 472.504 -3.77429 -2.44677 0
M  V30 5181 C 473.823 -2.19683 -3.81349 0
M  V30 5182 H 470.942 -0.484655 -0.555228 0
M  V30 5183 H 473.584 -1.68251 -0.882702 0
M  V30 5184 H 471.734 -1.97283 -3.34682 0
M  V30 5185 H 473.406 -4.17918 -1.953 0
M  V30 5186 H 471.649 -3.95892 -1.77346 0
M  V30 5187 H 472.32 -4.38716 -3.35011 0
M  V30 5188 H 474.796 -2.46029 -3.35573 0
M  V30 5189 H 473.672 -2.87668 -4.67481 0
M  V30 5190 H 473.933 -1.19045 -4.25771 0
M  V30 5191 N 472.992 0.995999 -1.22138 0
M  V30 5192 C 474.24 1.73167 -1.042 0
M  V30 5193 C 474.561 1.90329 0.42423 0
M  V30 5194 O 473.831 1.4607 1.30539 0
M  V30 5195 H 472.411 0.641593 -0.38258 0
M  V30 5196 H 475.073 1.19974 -1.53598 0
M  V30 5197 H 474.169 2.72734 -1.51731 0
M  V30 5198 N 474.47 1.03057 1.19235 0
M  V30 5199 C 475.4 0.633497 2.24742 0
M  V30 5200 C 476.381 -0.358335 1.66283 0
M  V30 5201 O 477.566 -0.240676 1.92703 0
M  V30 5202 C 474.696 -0.0147648 3.47297 0
M  V30 5203 C 473.65 0.899527 4.18441 0
M  V30 5204 C 472.976 0.116281 5.34574 0
M  V30 5205 C 474.276 2.21404 4.73051 0
M  V30 5206 H 475.97 1.5155 2.58211 0
M  V30 5207 H 473.516 0.73014 1.24117 0
M  V30 5208 H 475.469 -0.304202 4.20301 0
M  V30 5209 H 474.193 -0.931577 3.13032 0
M  V30 5210 H 472.852 1.17319 3.47321 0
M  V30 5211 H 472.5 -0.802619 4.96555 0
M  V30 5212 H 472.2 0.725293 5.83107 0
M  V30 5213 H 473.724 -0.166376 6.10373 0
M  V30 5214 H 475.138 1.98601 5.37802 0
M  V30 5215 H 473.535 2.77512 5.32078 0
M  V30 5216 H 474.605 2.86752 3.91026 0
M  V30 5217 N 475.948 -1.35272 0.808662 0
M  V30 5218 C 477.225 -1.93077 0.313181 0
M  V30 5219 C 477.605 -1.73847 -1.19752 0
M  V30 5220 O 476.953 -1.1087 -1.998 0
M  V30 5221 C 477.163 -3.41347 0.726859 0
M  V30 5222 C 478.511 -4.18493 0.717532 0
M  V30 5223 O 479.535 -3.4987 0.668535 0
M  V30 5224 O 478.394 -5.40937 0.777779 0
M  V30 5225 H 475.488 -0.822885 0.0824018 0
M  V30 5226 H 478.034 -1.44335 0.892499 0
M  V30 5227 H 476.806 -3.49082 1.76797 0
M  V30 5228 H 476.429 -3.97411 0.122461 0
M  V30 5229 N 477.426 -0.562348 -1.47226 0
M  V30 5230 C 478.356 0.170627 -2.32876 0
M  V30 5231 C 479.337 0.903748 -1.44106 0
M  V30 5232 O 480.522 0.883206 -1.72954 0
M  V30 5233 C 477.652 1.19786 -3.25989 0
M  V30 5234 C 476.606 0.580875 -4.2404 0
M  V30 5235 C 475.932 1.71311 -5.06514 0
M  V30 5236 C 477.232 -0.468714 -5.20193 0
M  V30 5237 H 478.926 -0.544441 -2.94408 0
M  V30 5238 H 476.472 -0.263271 -1.41573 0
M  V30 5239 H 478.425 1.71884 -3.84752 0
M  V30 5240 H 477.149 1.94294 -2.62521 0
M  V30 5241 H 475.808 0.0811538 -3.6651 0
M  V30 5242 H 475.456 2.44736 -4.39447 0
M  V30 5243 H 475.156 1.30604 -5.72902 0
M  V30 5244 H 476.68 2.23725 -5.68137 0
M  V30 5245 H 478.094 -0.0336028 -5.7329 0
M  V30 5246 H 476.491 -0.794957 -5.94811 0
M  V30 5247 H 477.561 -1.36269 -4.65359 0
M  V30 5248 N 478.904 1.54736 -0.299062 0
M  V30 5249 C 480.315 1.8569 0.193971 0
M  V30 5250 C 480.666 1.22101 1.53577 0
M  V30 5251 O 479.791 0.51799 2.10109 0
M  V30 5252 C 480.386 3.36895 0.358733 0
M  V30 5253 C 478.945 3.67887 0.795986 0
M  V30 5254 C 478.092 2.77131 -0.096807 0
M  V30 5255 H 481.043 1.49934 -0.520134 0
M  V30 5256 H 481.064 3.61294 1.19361 0
M  V30 5257 H 480.576 3.83148 -0.617998 0
M  V30 5258 H 478.677 3.27151 1.78334 0
M  V30 5259 H 478.79 4.75114 0.616718 0
M  V30 5260 H 477.154 2.51153 0.423581 0
M  V30 5261 H 477.937 3.26204 -1.06986 0
M  V30 5262 N 480.382 0.0267497 1.57577 0
M  V30 5263 C 481.629 -0.652404 1.91703 0
M  V30 5264 C 481.957 -1.72271 0.902936 0
M  V30 5265 O 481.212 -1.955 -0.0884843 0
M  V30 5266 C 481.511 -1.30914 3.3256 0
M  V30 5267 C 481.177 -0.369441 4.49384 0
M  V30 5268 C 479.839 -0.110791 4.81072 0
M  V30 5269 C 482.191 0.275971 5.20469 0
M  V30 5270 C 479.519 0.801116 5.81205 0
M  V30 5271 C 481.871 1.17592 6.21575 0
M  V30 5272 C 480.535 1.44348 6.51705 0
M  V30 5273 H 479.805 -0.238732 0.70149 0
M  V30 5274 H 482.452 0.0880091 1.91298 0
M  V30 5275 H 480.757 -2.12425 3.29216 0
M  V30 5276 H 482.454 -1.84115 3.56234 0
M  V30 5277 H 479.044 -0.581211 4.24641 0
M  V30 5278 H 483.228 0.0892 4.9622 0
M  V30 5279 H 478.484 1.01614 6.02897 0
M  V30 5280 H 482.658 1.68223 6.75777 0
M  V30 5281 H 480.285 2.15176 7.29111 0
M  V30 5282 N 481.861 -1.55662 -0.24637 0
M  V30 5283 C 482.793 -1.86811 -1.32794 0
M  V30 5284 C 483.806 -0.754413 -1.44265 0
M  V30 5285 O 484.995 -1.03253 -1.45606 0
M  V30 5286 C 482.095 -2.0397 -2.70646 0
M  V30 5287 C 481.268 -3.34832 -2.81436 0
M  V30 5288 C 480.327 -3.41727 -4.00136 0
M  V30 5289 O 479.353 -4.14934 -3.89639 0
M  V30 5290 N 480.555 -2.71058 -5.1333 0
M  V30 5291 H 483.32 -2.80174 -1.06409 0
M  V30 5292 H 480.881 -1.55906 -0.43647 0
M  V30 5293 H 482.873 -2.05924 -3.48393 0
M  V30 5294 H 481.443 -1.1735 -2.89738 0
M  V30 5295 H 480.663 -3.4519 -1.90361 0
M  V30 5296 H 481.951 -4.21085 -2.85595 0
M  V30 5297 H 481.349 -2.11314 -5.2475 0
M  V30 5298 H 479.906 -2.78704 -5.89209 0
M  V30 5299 N 483.339 0.512053 -1.4905 0
M  V30 5300 C 484.567 1.29116 -1.61669 0
M  V30 5301 C 484.982 1.86655 -0.283787 0
M  V30 5302 O 484.339 1.67293 0.729331 0
M  V30 5303 C 484.39 2.4293 -2.67707 0
M  V30 5304 O 484.111 1.87758 -3.95826 0
M  V30 5305 C 485.612 3.34476 -2.90931 0
M  V30 5306 H 482.832 0.392009 -0.544583 0
M  V30 5307 H 485.376 0.615881 -1.95006 0
M  V30 5308 H 483.531 3.06308 -2.37179 0
M  V30 5309 H 483.945 2.62393 -4.54148 0
M  V30 5310 H 485.419 4.10642 -3.68886 0
M  V30 5311 H 485.896 3.90801 -2.00427 0
M  V30 5312 H 486.502 2.76874 -3.22832 0
M  V30 5313 N 484.817 1.37938 0.762283 0
M  V30 5314 C 486.233 1.18945 1.06415 0
M  V30 5315 C 486.433 0.0321163 2.01474 0
M  V30 5316 O 485.489 -0.624844 2.44647 0
M  V30 5317 C 486.802 2.51218 1.65258 0
M  V30 5318 C 488.35 2.57824 1.7747 0
M  V30 5319 C 488.825 3.90251 2.39725 0
M  V30 5320 N 490.316 3.91744 2.47166 0
M  V30 5321 C 491.051 4.90966 2.96209 0
M  V30 5322 N 490.547 6.00585 3.45354 0
M  V30 5323 N 492.34 4.78363 2.9517 0
M  V30 5324 H 484.491 2.11994 0.131301 0
M  V30 5325 H 486.754 0.940262 0.120879 0
M  V30 5326 H 486.46 3.36317 1.02878 0
M  V30 5327 H 486.334 2.68989 2.64433 0
M  V30 5328 H 488.721 1.73126 2.3898 0
M  V30 5329 H 488.802 2.43928 0.770241 0
M  V30 5330 H 488.446 4.75368 1.78852 0
M  V30 5331 H 488.376 4.01454 3.40796 0
M  V30 5332 H 490.867 3.12563 2.12397 0
M  V30 5333 H 491.18 6.72236 3.81207 0
M  V30 5334 H 489.525 6.04217 3.43434 0
M  V30 5335 H 492.716 3.91841 2.56082 0
M  V30 5336 H 492.889 5.55843 3.33081 0
M  V30 5337 N 486.295 -0.989507 1.22664 0
M  V30 5338 C 487.52 -1.77031 1.08051 0
M  V30 5339 C 487.945 -1.84535 -0.364483 0
M  V30 5340 O 487.303 -1.3003 -1.2634 0
M  V30 5341 C 487.351 -3.18 1.70024 0
M  V30 5342 O 486.455 -4.01161 0.956216 0
M  V30 5343 H 485.796 -0.545008 0.379292 0
M  V30 5344 H 488.326 -1.24277 1.62531 0
M  V30 5345 H 488.336 -3.68616 1.74888 0
M  V30 5346 H 487.011 -3.11853 2.75174 0
M  V30 5347 H 485.588 -3.59687 0.98384 0
M  V30 5348 N 487.773 -1.03688 -1.18687 0
M  V30 5349 C 488.721 -0.618292 -2.24232 0
M  V30 5350 C 489.715 0.353045 -1.6568 0
M  V30 5351 O 490.921 0.220749 -1.78641 0
M  V30 5352 H 487.296 -0.181711 -0.729716 0
M  V30 5353 H 489.267 -1.51893 -2.56848 0
M  V30 5354 C 488.016 0.00677342 -3.47699 0
M  V30 5355 H 487.339 -0.731692 -3.93047 0
M  V30 5356 H 488.779 0.262492 -4.23187 0
M  V30 5357 C 487.238 1.25572 -3.12623 0
M  V30 5358 O 487.768 2.34691 -3.26011 0
M  V30 5359 N 485.974 1.14755 -2.66982 0
M  V30 5360 H 485.521 0.259601 -2.56289 0
M  V30 5361 H 485.479 1.98412 -2.43885 0
M  V30 5362 N 489.251 1.34841 -0.815825 0
M  V30 5363 C 490.662 1.80937 -0.46029 0
M  V30 5364 C 491.013 1.67685 1.01863 0
M  V30 5365 O 490.138 1.21277 1.79223 0
M  V30 5366 C 490.733 3.28509 -0.828708 0
M  V30 5367 C 489.292 3.72712 -0.525644 0
M  V30 5368 C 488.439 2.56676 -1.04941 0
M  V30 5369 H 491.39 1.22688 -1.00664 0
M  V30 5370 H 491.411 3.80279 -0.129757 0
M  V30 5371 H 490.923 3.38122 -1.90513 0
M  V30 5372 H 489.024 3.68642 0.541666 0
M  V30 5373 H 489.137 4.67119 -1.06474 0
M  V30 5374 H 487.501 2.50302 -0.471286 0
M  V30 5375 H 488.284 2.69063 -2.13214 0
M  V30 5376 N 490.729 0.570148 1.46925 0
M  V30 5377 C 491.978 0.0487352 2.01641 0
M  V30 5378 C 492.291 -1.31433 1.44861 0
M  V30 5379 O 493.497 -1.92638 1.91318 0
M  V30 5380 C 491.953 0.0365817 3.59881 0
M  V30 5381 C 491.561 1.39719 4.25655 0
M  V30 5382 C 493.305 -0.431545 4.22301 0
M  V30 5383 C 491.212 1.34345 5.75939 0
M  V30 5384 H 490.142 0.0144492 0.753862 0
M  V30 5385 H 492.793 0.719928 1.68788 0
M  V30 5386 H 491.175 -0.700522 3.89755 0
M  V30 5387 H 492.349 2.15303 4.07408 0
M  V30 5388 H 490.664 1.80431 3.75278 0
M  V30 5389 H 493.261 -0.490354 5.32447 0
M  V30 5390 H 493.604 -1.44638 3.90366 0
M  V30 5391 H 494.137 0.251102 3.97007 0
M  V30 5392 H 490.876 2.33469 6.12513 0
M  V30 5393 H 490.396 0.629615 5.96486 0
M  V30 5394 H 492.075 1.051 6.38407 0
M  V30 5395 N 492.207 -1.54576 0.307264 0
M  V30 5396 C 493.618 -1.8579 -0.184121 0
M  V30 5397 C 493.969 -1.22914 -1.52927 0
M  V30 5398 O 493.094 -0.529126 -2.09831 0
M  V30 5399 C 493.689 -3.37081 -0.340862 0
M  V30 5400 C 492.248 -3.68304 -0.776465 0
M  V30 5401 C 491.395 -2.77076 0.111503 0
M  V30 5402 H 494.346 -1.49656 0.528078 0
M  V30 5403 H 494.367 -3.61922 -1.17443 0
M  V30 5404 H 493.879 -3.82815 0.638309 0
M  V30 5405 H 491.98 -3.28092 -1.76596 0
M  V30 5406 H 492.093 -4.75434 -0.591512 0
M  V30 5407 H 490.457 -2.51374 -0.410256 0
M  V30 5408 H 491.24 -3.25632 1.08714 0
M  V30 5409 N 493.685 -0.035106 -1.57561 0
M  V30 5410 C 494.931 0.637362 -1.93156 0
M  V30 5411 C 495.286 1.69391 -0.912392 0
M  V30 5412 O 494.579 1.91469 0.070735 0
M  V30 5413 C 494.773 1.29149 -3.3325 0
M  V30 5414 C 494.602 0.29983 -4.48699 0
M  V30 5415 C 493.372 -0.102454 -5.05196 0
M  V30 5416 C 495.57 -0.448297 -5.12342 0
M  V30 5417 N 493.552 -1.08866 -6.0417 0
M  V30 5418 C 494.923 -1.28807 -6.06472 0
M  V30 5419 C 496.978 -0.508351 -4.95298 0
M  V30 5420 C 495.681 -2.18248 -6.85391 0
M  V30 5421 C 497.707 -1.39013 -5.7483 0
M  V30 5422 C 497.069 -2.21766 -6.6858 0
M  V30 5423 H 493.168 0.205358 -0.754554 0
M  V30 5424 H 495.752 -0.103682 -1.94424 0
M  V30 5425 H 493.923 2.00264 -3.3279 0
M  V30 5426 H 495.655 1.92147 -3.56177 0
M  V30 5427 H 492.41 0.273223 -4.72811 0
M  V30 5428 H 492.834 -1.57817 -6.58348 0
M  V30 5429 H 497.476 0.117197 -4.22638 0
M  V30 5430 H 495.194 -2.81855 -7.57353 0
M  V30 5431 H 498.78 -1.44096 -5.63673 0
M  V30 5432 H 497.66 -2.88892 -7.29048 0
M  V30 5433 N 495.163 1.55791 0.238111 0
M  V30 5434 C 496.412 1.77234 0.962868 0
M  V30 5435 C 496.725 0.600661 1.86149 0
M  V30 5436 O 497.931 0.698315 2.62366 0
M  V30 5437 C 496.387 3.13808 1.76218 0
M  V30 5438 C 495.995 4.3865 0.910518 0
M  V30 5439 C 497.739 3.44585 2.47914 0
M  V30 5440 C 495.646 5.66252 1.70623 0
M  V30 5441 H 494.576 0.660731 0.36325 0
M  V30 5442 H 497.227 1.8221 0.217242 0
M  V30 5443 H 495.609 3.02963 2.55009 0
M  V30 5444 H 496.783 4.60507 0.164316 0
M  V30 5445 H 495.098 4.15271 0.30647 0
M  V30 5446 H 497.695 4.3714 3.07917 0
M  V30 5447 H 498.038 2.66314 3.19973 0
M  V30 5448 H 498.571 3.56685 1.76127 0
M  V30 5449 H 495.31 6.47369 1.02923 0
M  V30 5450 H 494.83 5.48483 2.42748 0
M  V30 5451 H 496.509 6.05829 2.27114 0
M  V30 5452 N 496.642 -0.504142 1.49319 0
M  V30 5453 C 497.59 -1.62689 1.66238 0
M  V30 5454 C 498.584 -1.6095 0.528349 0
M  V30 5455 O 499.79 -1.65496 0.707887 0
M  V30 5456 H 496.165 -0.539247 0.524134 0
M  V30 5457 H 498.136 -1.45571 2.60484 0
M  V30 5458 C 496.885 -3.00841 1.74328 0
M  V30 5459 H 496.208 -3.02884 2.60963 0
M  V30 5460 H 497.648 -3.78945 1.90202 0
M  V30 5461 C 496.107 -3.33355 0.487416 0
M  V30 5462 O 496.637 -3.99819 -0.388294 0
M  V30 5463 N 494.843 -2.88469 0.351306 0
M  V30 5464 H 494.39 -2.34557 1.06492 0
M  V30 5465 H 494.348 -3.10591 -0.487899 0
M  V30 5466 N 498.12 -1.38341 -0.754957 0
M  V30 5467 C 499.348 -1.37704 -1.54419 0
M  V30 5468 C 499.763 0.0335243 -1.8877 0
M  V30 5469 O 499.12 0.999773 -1.52679 0
M  V30 5470 C 499.171 -2.23136 -2.84416 0
M  V30 5471 O 498.892 -3.58697 -2.51531 0
M  V30 5472 C 500.393 -2.30664 -3.78562 0
M  V30 5473 H 497.613 -0.471061 -0.477852 0
M  V30 5474 H 500.157 -1.81902 -0.934446 0
M  V30 5475 H 498.312 -1.82403 -3.41772 0
M  V30 5476 H 498.726 -4.03665 -3.34896 0
M  V30 5477 H 500.2 -2.9473 -4.66732 0
M  V30 5478 H 500.677 -1.3199 -4.18898 0
M  V30 5479 H 501.283 -2.71781 -3.27131 0
M  V30 5480 N 499.598 0.982988 -1.23187 0
M  V30 5481 C 500.844 1.7273 -1.07405 0
M  V30 5482 C 501.199 1.885 0.385447 0
M  V30 5483 O 500.492 1.4243 1.28157 0
M  V30 5484 C 500.686 3.12736 -1.73006 0
M  V30 5485 C 500.515 3.10621 -3.25184 0
M  V30 5486 C 499.285 3.15957 -3.94334 0
M  V30 5487 C 501.483 2.93992 -4.21987 0
M  V30 5488 N 499.465 3.03701 -5.33516 0
M  V30 5489 C 500.836 2.8987 -5.48065 0
M  V30 5490 C 502.891 2.78457 -4.12754 0
M  V30 5491 C 501.594 2.71804 -6.65969 0
M  V30 5492 C 503.62 2.61754 -5.30319 0
M  V30 5493 C 502.982 2.58328 -6.55321 0
M  V30 5494 H 499.081 0.641279 -0.447533 0
M  V30 5495 H 501.665 1.16664 -1.55877 0
M  V30 5496 H 499.836 3.67026 -1.2707 0
M  V30 5497 H 501.568 3.75786 -1.50224 0
M  V30 5498 H 498.323 3.24034 -3.45397 0
M  V30 5499 H 498.747 3.00855 -6.06478 0
M  V30 5500 H 503.389 2.79898 -3.16886 0
M  V30 5501 H 501.107 2.69108 -7.61975 0
M  V30 5502 H 504.693 2.50702 -5.25014 0
M  V30 5503 H 503.573 2.45564 -7.4476 0
M  V30 5504 N 501.076 1.04316 1.18135 0
M  V30 5505 C 502.006 0.657299 2.24058 0
M  V30 5506 C 502.987 -0.340678 1.66654 0
M  V30 5507 O 504.172 -0.220223 1.92947 0
M  V30 5508 C 501.302 0.0220715 3.47293 0
M  V30 5509 C 500.256 0.943857 4.17463 0
M  V30 5510 C 499.582 0.172973 5.3442 0
M  V30 5511 C 500.882 2.26409 4.70677 0
M  V30 5512 H 502.576 1.5428 2.56589 0
M  V30 5513 H 500.122 0.743263 1.23335 0
M  V30 5514 H 502.075 -0.259607 4.206 0
M  V30 5515 H 500.799 -0.898323 3.14003 0
M  V30 5516 H 499.458 1.20996 3.46057 0
M  V30 5517 H 499.106 -0.749907 4.97379 0
M  V30 5518 H 498.806 0.787098 5.82304 0
M  V30 5519 H 500.33 -0.101628 6.10515 0
M  V30 5520 H 501.744 2.04294 5.35665 0
M  V30 5521 H 500.141 2.8314 5.29105 0
M  V30 5522 H 501.211 2.90883 3.87962 0
M  V30 5523 N 502.554 -1.34406 0.822964 0
M  V30 5524 C 503.8 -1.98578 0.411666 0
M  V30 5525 C 504.133 -1.65093 -1.02264 0
M  V30 5526 O 503.408 -0.92258 -1.71227 0
M  V30 5527 C 503.691 -3.54823 0.614235 0
M  V30 5528 C 503.544 -3.9805 2.09466 0
M  V30 5529 C 504.863 -4.40071 0.050221 0
M  V30 5530 H 501.982 -0.721355 0.151047 0
M  V30 5531 H 504.624 -1.59301 1.03554 0
M  V30 5532 H 502.774 -3.88411 0.0831774 0
M  V30 5533 H 504.446 -3.74795 2.68936 0
M  V30 5534 H 502.689 -3.4836 2.5851 0
M  V30 5535 H 503.36 -5.06819 2.18721 0
M  V30 5536 H 505.836 -4.13037 0.503953 0
M  V30 5537 H 504.712 -5.48452 0.221759 0
M  V30 5538 H 504.973 -4.29576 -1.04482 0
M  V30 5539 N 504.032 -0.577932 -1.46621 0
M  V30 5540 C 505.257 -0.0652536 -2.07297 0
M  V30 5541 C 505.682 1.22828 -1.4246 0
M  V30 5542 O 505.04 1.74075 -0.506718 0
M  V30 5543 C 505.088 0.0920589 -3.60482 0
M  V30 5544 O 504.192 1.14972 -3.96049 0
M  V30 5545 H 503.533 -0.06065 -0.661224 0
M  V30 5546 H 506.063 -0.799515 -1.88332 0
M  V30 5547 H 506.073 0.299741 -4.06897 0
M  V30 5548 H 504.748 -0.852612 -4.07067 0
M  V30 5549 H 503.325 0.920879 -3.61351 0
M  V30 5550 N 505.51 1.54411 -0.315457 0
M  V30 5551 C 506.787 1.92562 0.343398 0
M  V30 5552 C 507.167 1.24423 1.70535 0
M  V30 5553 O 506.515 0.385051 2.25232 0
M  V30 5554 C 506.725 3.46168 0.443687 0
M  V30 5555 C 508.073 4.18659 0.707783 0
M  V30 5556 O 509.097 3.52281 0.52693 0
M  V30 5557 O 507.956 5.36198 1.05612 0
M  V30 5558 H 505.05 0.80379 0.194552 0
M  V30 5559 H 507.596 1.65738 -0.364577 0
M  V30 5560 H 506.368 3.8792 -0.513172 0
M  V30 5561 H 505.991 3.79073 1.19956 0
M  V30 5562 N 506.988 0.0434614 1.5754 0
M  V30 5563 C 507.936 -0.951465 2.1225 0
M  V30 5564 C 508.93 -1.3274 1.05245 0
M  V30 5565 O 510.136 -1.30795 1.23663 0
M  V30 5566 H 506.511 -0.324667 0.678303 0
M  V30 5567 H 508.482 -0.464855 2.94757 0
M  V30 5568 C 507.231 -2.21972 2.67626 0
M  V30 5569 H 506.554 -1.93923 3.4962 0
M  V30 5570 H 507.994 -2.89765 3.09536 0
M  V30 5571 C 506.453 -2.95919 1.61038 0
M  V30 5572 O 506.983 -3.8857 1.01862 0
M  V30 5573 N 505.189 -2.58511 1.32741 0
M  V30 5574 H 504.736 -1.83244 1.81051 0
M  V30 5575 H 504.694 -3.08296 0.616531 0
M  V30 5576 N 508.466 -1.55915 -0.229846 0
M  V30 5577 C 509.712 -1.78807 -0.956868 0
M  V30 5578 C 510.045 -0.611687 -1.84315 0
M  V30 5579 O 509.32 0.389398 -1.90562 0
M  V30 5580 C 509.603 -3.11718 -1.80288 0
M  V30 5581 C 509.456 -4.3979 -0.943649 0
M  V30 5582 C 510.775 -3.40999 -2.78222 0
M  V30 5583 H 507.894 -0.6505 -0.346437 0
M  V30 5584 H 510.536 -1.88648 -0.226252 0
M  V30 5585 H 508.686 -3.03459 -2.42579 0
M  V30 5586 H 510.358 -4.60059 -0.338121 0
M  V30 5587 H 508.601 -4.33086 -0.248705 0
M  V30 5588 H 509.272 -5.29208 -1.5698 0
M  V30 5589 H 511.748 -3.49332 -2.26067 0
M  V30 5590 H 510.624 -4.35183 -3.34526 0
M  V30 5591 H 510.885 -2.62754 -3.55546 0
M  V30 5592 N 509.944 0.496216 -1.49584 0
M  V30 5593 C 510.876 1.61404 -1.62731 0
M  V30 5594 C 511.889 1.54613 -0.50978 0
M  V30 5595 O 513.078 1.60458 -0.782017 0
M  V30 5596 C 510.178 3.00212 -1.57245 0
M  V30 5597 C 509.351 3.32138 -2.84611 0
M  V30 5598 C 508.41 4.5038 -2.72112 0
M  V30 5599 O 507.436 4.51926 -3.46051 0
M  V30 5600 N 508.638 5.50575 -1.83977 0
M  V30 5601 H 511.403 1.50552 -2.59141 0
M  V30 5602 H 508.964 0.684182 -1.46733 0
M  V30 5603 H 510.956 3.77241 -1.4653 0
M  V30 5604 H 509.526 3.04964 -0.686729 0
M  V30 5605 H 508.746 2.4396 -3.09641 0
M  V30 5606 H 510.034 3.50268 -3.69039 0
M  V30 5607 H 509.432 5.52128 -1.23171 0
M  V30 5608 H 507.989 6.26687 -1.79182 0
M  V30 5609 N 511.423 1.38739 0.74761 0
M  V30 5610 C 512.669 1.35475 1.50912 0
M  V30 5611 C 513.002 -0.0533093 1.94127 0
M  V30 5612 O 512.277 -1.01572 1.65871 0
M  V30 5613 C 512.56 2.31582 2.75757 0
M  V30 5614 C 512.413 3.81274 2.38642 0
M  V30 5615 C 513.732 2.25722 3.77806 0
M  V30 5616 H 510.851 0.493427 0.547447 0
M  V30 5617 H 513.493 1.69634 0.855823 0
M  V30 5618 H 511.643 2.02582 3.31501 0
M  V30 5619 H 513.315 4.20972 1.88626 0
M  V30 5620 H 511.558 3.98664 1.71025 0
M  V30 5621 H 512.229 4.4399 3.27989 0
M  V30 5622 H 514.705 2.51336 3.31616 0
M  V30 5623 H 513.581 2.95069 4.62845 0
M  V30 5624 H 513.842 1.25803 4.23823 0
M  V30 5625 N 512.901 -0.976442 1.23707 0
M  V30 5626 C 513.864 -2.0511 1.02287 0
M  V30 5627 C 514.864 -1.60791 -0.0167195 0
M  V30 5628 O 516.054 -1.72761 0.223408 0
M  V30 5629 C 513.186 -3.36458 0.548507 0
M  V30 5630 H 514.379 -2.25545 1.9766 0
M  V30 5631 H 511.932 -1.15042 1.05806 0
M  V30 5632 H 512.667 -3.21713 -0.408818 0
M  V30 5633 H 512.452 -3.69967 1.29874 0
M  V30 5634 H 513.942 -4.15489 0.419406 0
M  V30 5635 N 514.379 -1.04941 -1.1758 0
M  V30 5636 C 515.79 -0.784501 -1.69418 0
M  V30 5637 C 516.141 0.693625 -1.8353 0
M  V30 5638 O 515.266 1.53925 -1.52106 0
M  V30 5639 C 515.861 -1.41746 -3.07723 0
M  V30 5640 C 514.42 -1.20066 -3.56737 0
M  V30 5641 C 513.567 -1.5026 -2.33061 0
M  V30 5642 H 516.518 -1.21469 -1.02133 0
M  V30 5643 H 516.539 -0.825381 -3.7144 0
M  V30 5644 H 516.051 -2.49325 -2.9742 0
M  V30 5645 H 514.152 -0.144006 -3.72322 0
M  V30 5646 H 514.265 -1.90384 -4.39648 0
M  V30 5647 H 512.629 -0.922598 -2.37403 0
M  V30 5648 H 513.412 -2.58967 -2.25368 0
M  V30 5649 N 515.857 1.33968 -0.830081 0
M  V30 5650 C 516.789 2.28194 -0.21448 0
M  V30 5651 C 517.802 1.5135 0.599752 0
M  V30 5652 O 518.991 1.73286 0.42826 0
M  V30 5653 C 516.091 3.31221 0.717356 0
M  V30 5654 C 515.264 4.37365 -0.055613 0
M  V30 5655 C 514.323 5.2011 0.798231 0
M  V30 5656 O 513.349 5.68691 0.240616 0
M  V30 5657 N 514.551 5.40523 2.11695 0
M  V30 5658 H 517.316 2.81662 -1.02405 0
M  V30 5659 H 514.877 1.46568 -0.687713 0
M  V30 5660 H 516.869 3.83477 1.29334 0
M  V30 5661 H 515.439 2.78095 1.42765 0
M  V30 5662 H 514.659 3.85727 -0.812936 0
M  V30 5663 H 515.947 5.05397 -0.587444 0
M  V30 5664 H 515.345 5.0274 2.59363 0
M  V30 5665 H 513.902 5.95871 2.64162 0
M  V30 5666 N 517.335 0.585699 1.46312 0
M  V30 5667 C 518.245 -0.148236 2.34131 0
M  V30 5668 C 519.261 -0.882972 1.49932 0
M  V30 5669 O 520.437 -0.845484 1.82794 0
M  V30 5670 C 517.502 -1.14714 3.27172 0
M  V30 5671 C 516.563 -0.416746 4.27272 0
M  V30 5672 C 515.796 -1.36806 5.15868 0
M  V30 5673 O 516.019 -2.60475 5.07454 0
M  V30 5674 O 514.953 -0.877018 5.95476 0
M  V30 5675 H 518.779 0.572882 2.98248 0
M  V30 5676 H 516.364 0.346082 1.45336 0
M  V30 5677 H 518.246 -1.72303 3.84564 0
M  V30 5678 H 516.921 -1.84967 2.65648 0
M  V30 5679 H 515.828 0.201061 3.73559 0
M  V30 5680 H 517.161 0.244872 4.9159 0
M  V30 5681 N 518.813 -1.54241 0.323641 0
M  V30 5682 C 520.059 -2.00867 -0.279323 0
M  V30 5683 C 520.392 -1.21146 -1.5178 0
M  V30 5684 O 519.667 -0.29378 -1.92269 0
M  V30 5685 C 519.95 -3.54837 -0.613387 0
M  V30 5686 C 519.803 -4.45284 0.635803 0
M  V30 5687 C 521.122 -4.16186 -1.43099 0
M  V30 5688 H 518.241 -0.730177 -0.100049 0
M  V30 5689 H 520.883 -1.84829 0.440235 0
M  V30 5690 H 519.033 -3.68634 -1.22641 0
M  V30 5691 H 520.705 -4.43357 1.27406 0
M  V30 5692 H 518.948 -4.14956 1.26466 0
M  V30 5693 H 519.619 -5.5084 0.357597 0
M  V30 5694 H 522.095 -4.05964 -0.912814 0
M  V30 5695 H 520.971 -5.24031 -1.6335 0
M  V30 5696 H 521.232 -3.69516 -2.42715 0
M  V30 5697 N 520.291 -0.0518155 -1.57515 0
M  V30 5698 C 521.201 0.937539 -2.15052 0
M  V30 5699 C 522.217 1.34121 -1.10849 0
M  V30 5700 O 523.393 1.418 -1.4302 0
M  V30 5701 C 520.458 2.19379 -2.68466 0
M  V30 5702 C 519.519 1.84841 -3.87469 0
M  V30 5703 C 518.752 3.04477 -4.38326 0
M  V30 5704 O 518.975 4.17868 -3.88256 0
M  V30 5705 O 517.909 2.85453 -5.29906 0
M  V30 5706 H 521.735 0.478201 -2.99912 0
M  V30 5707 H 519.32 0.17012 -1.48428 0
M  V30 5708 H 521.202 2.93084 -3.02787 0
M  V30 5709 H 519.877 2.64449 -1.86677 0
M  V30 5710 H 518.784 1.08449 -3.58036 0
M  V30 5711 H 520.117 1.44569 -4.7049 0
M  V30 5712 N 521.769 1.56035 0.221574 0
M  V30 5713 C 523.015 1.79312 0.947372 0
M  V30 5714 C 523.348 0.621453 1.83988 0
M  V30 5715 O 522.623 -0.379287 1.90766 0
M  V30 5716 C 522.906 3.1267 1.78633 0
M  V30 5717 C 522.759 4.40284 0.920312 0
M  V30 5718 C 524.078 3.4247 2.7641 0
M  V30 5719 H 521.197 0.652328 0.342982 0
M  V30 5720 H 523.839 1.88765 0.216244 0
M  V30 5721 H 521.989 3.04741 2.40967 0
M  V30 5722 H 523.661 4.60232 0.313718 0
M  V30 5723 H 521.904 4.33212 0.225734 0
M  V30 5724 H 522.575 5.30033 1.54171 0
M  V30 5725 H 525.051 3.50526 2.24211 0
M  V30 5726 H 523.927 4.3695 3.32213 0
M  V30 5727 H 524.188 2.64635 3.54148 0
M  V30 5728 N 523.247 -0.488276 1.49845 0
M  V30 5729 C 524.472 -1.26997 1.63971 0
M  V30 5730 C 524.897 -1.85427 0.315994 0
M  V30 5731 O 524.255 -1.66475 -0.718032 0
M  V30 5732 C 524.303 -2.36689 2.72049 0
M  V30 5733 O 523.407 -3.40882 2.32107 0
M  V30 5734 H 522.748 -0.374376 0.548396 0
M  V30 5735 H 525.278 -0.583104 1.96115 0
M  V30 5736 H 525.288 -2.82262 2.94605 0
M  V30 5737 H 523.963 -1.93529 3.68129 0
M  V30 5738 H 522.54 -3.01139 2.19931 0
M  V30 5739 N 524.725 -1.39134 -0.740242 0
M  V30 5740 C 525.95 -1.39518 -1.53459 0
M  V30 5741 C 526.375 0.00968883 -1.88098 0
M  V30 5742 O 525.733 0.995312 -1.51536 0
M  V30 5743 C 525.781 -2.26981 -2.802 0
M  V30 5744 O 524.885 -1.69609 -3.75908 0
M  V30 5745 H 524.226 -0.475328 -0.463637 0
M  V30 5746 H 526.756 -1.83064 -0.913717 0
M  V30 5747 H 526.766 -2.41309 -3.28989 0
M  V30 5748 H 525.441 -3.29081 -2.5432 0
M  V30 5749 H 524.018 -1.64495 -3.34658 0
M  V30 5750 N 526.204 0.969867 -1.24223 0
M  V30 5751 C 527.434 1.74502 -1.106 0
M  V30 5752 C 527.842 1.86038 0.344483 0
M  V30 5753 O 527.185 1.3465 1.24961 0
M  V30 5754 C 527.247 3.18391 -1.66935 0
M  V30 5755 C 526.911 3.30334 -3.15798 0
M  V30 5756 C 527.908 3.15832 -4.12973 0
M  V30 5757 C 525.593 3.54644 -3.55715 0
M  V30 5758 C 527.587 3.25461 -5.48045 0
M  V30 5759 C 525.274 3.63912 -4.90929 0
M  V30 5760 C 526.272 3.49332 -5.86904 0
M  V30 5761 O 525.96 3.58251 -7.1966 0
M  V30 5762 H 525.692 0.554119 -0.387206 0
M  V30 5763 H 528.246 1.22646 -1.64764 0
M  V30 5764 H 526.476 3.71543 -1.07203 0
M  V30 5765 H 528.165 3.77707 -1.48634 0
M  V30 5766 H 528.931 2.96937 -3.83476 0
M  V30 5767 H 524.81 3.65059 -2.81519 0
M  V30 5768 H 528.354 3.13998 -6.22937 0
M  V30 5769 H 524.251 3.82319 -5.20098 0
M  V30 5770 H 525.019 3.7498 -7.27552 0
M  V30 5771 N 527.682 1.05563 1.17022 0
M  V30 5772 C 528.612 0.681026 2.23348 0
M  V30 5773 C 529.593 -0.322983 1.67005 0
M  V30 5774 O 530.778 -0.199746 1.9317 0
M  V30 5775 C 527.908 0.0589053 3.4725 0
M  V30 5776 C 526.862 0.988082 4.16438 0
M  V30 5777 C 526.188 0.229646 5.34207 0
M  V30 5778 C 527.488 2.31388 4.68249 0
M  V30 5779 H 529.182 1.56993 2.54938 0
M  V30 5780 H 526.728 0.756302 1.2254 0
M  V30 5781 H 528.681 -0.214982 4.20851 0
M  V30 5782 H 527.405 -0.864968 3.14938 0
M  V30 5783 H 526.064 1.24659 3.44754 0
M  V30 5784 H 525.712 -0.697111 4.98146 0
M  V30 5785 H 525.412 0.848815 5.81437 0
M  V30 5786 H 526.936 -0.0368694 6.10589 0
M  V30 5787 H 528.35 2.09964 5.33468 0
M  V30 5788 H 526.747 2.88736 5.26072 0
M  V30 5789 H 527.817 2.94982 3.84855 0
M  V30 5790 N 529.16 -1.33526 0.837174 0
M  V30 5791 C 530.406 -1.9813 0.432704 0
M  V30 5792 C 530.739 -1.66168 -1.00508 0
M  V30 5793 O 530.014 -0.94069 -1.70239 0
M  V30 5794 C 530.297 -3.54151 0.651834 0
M  V30 5795 C 530.15 -3.95806 2.13676 0
M  V30 5796 C 531.469 -4.39993 0.0968937 0
M  V30 5797 H 528.588 -0.719713 0.15869 0
M  V30 5798 H 531.23 -1.58193 1.05237 0
M  V30 5799 H 529.38 -3.88301 0.124369 0
M  V30 5800 H 531.052 -3.71921 2.72896 0
M  V30 5801 H 529.295 -3.45599 2.62191 0
M  V30 5802 H 529.966 -5.0447 2.24084 0
M  V30 5803 H 532.442 -4.12479 0.547733 0
M  V30 5804 H 531.318 -5.48186 0.279917 0
M  V30 5805 H 531.579 -4.3066 -0.9992 0
M  V30 5806 N 530.638 -0.59345 -1.46 0
M  V30 5807 C 531.886 -0.082988 -2.0193 0
M  V30 5808 C 532.207 1.28569 -1.46612 0
M  V30 5809 O 531.477 1.84629 -0.654909 0
M  V30 5810 H 530.057 -0.0276882 -0.746487 0
M  V30 5811 H 532.719 -0.771657 -1.78973 0
M  V30 5812 H 531.815 -0.022079 -3.12092 0
M  V30 5813 N 532.116 1.54067 -0.331816 0
M  V30 5814 C 533.048 2.22139 0.564538 0
M  V30 5815 C 534.061 1.22408 1.07332 0
M  V30 5816 O 535.25 1.4883 0.985481 0
M  V30 5817 C 532.35 2.87876 1.78831 0
M  V30 5818 C 531.523 4.13817 1.41682 0
M  V30 5819 C 530.582 4.63072 2.49901 0
M  V30 5820 O 529.608 5.27562 2.13699 0
M  V30 5821 N 530.81 4.38001 3.80967 0
M  V30 5822 H 533.575 2.99694 -0.0183736 0
M  V30 5823 H 531.136 1.61153 -0.155396 0
M  V30 5824 H 533.128 3.17747 2.50637 0
M  V30 5825 H 531.698 2.13977 2.27887 0
M  V30 5826 H 530.918 3.9062 0.530044 0
M  V30 5827 H 532.206 4.95762 1.14443 0
M  V30 5828 H 531.604 3.864 4.13173 0
M  V30 5829 H 530.161 4.72507 4.48977 0
M  V30 5830 N 533.594 0.0601682 1.57485 0
M  V30 5831 C 534.843 -0.611101 1.9222 0
M  V30 5832 C 535.156 -1.71469 0.941159 0
M  V30 5833 O 536.362 -2.44473 1.18089 0
M  V30 5834 C 534.818 -1.13832 3.41424 0
M  V30 5835 C 534.426 -0.0663596 4.47951 0
M  V30 5836 C 536.17 -1.78432 3.85178 0
M  V30 5837 C 534.077 -0.606965 5.88277 0
M  V30 5838 H 533.007 -0.232033 0.71741 0
M  V30 5839 H 535.658 0.130518 1.83035 0
M  V30 5840 H 534.04 -1.93254 3.45643 0
M  V30 5841 H 535.214 0.707682 4.55333 0
M  V30 5842 H 533.529 0.482715 4.13593 0
M  V30 5843 H 536.126 -2.1989 4.87394 0
M  V30 5844 H 536.469 -2.63966 3.21913 0
M  V30 5845 H 537.002 -1.05651 3.83514 0
M  V30 5846 H 533.741 0.21095 6.5516 0
M  V30 5847 H 533.261 -1.34879 5.84438 0
M  V30 5848 H 534.94 -1.08704 6.37803 0
M  V30 5849 N 535.072 -1.5615 -0.213296 0
M  V30 5850 C 536.349 -1.70349 -0.961281 0
M  V30 5851 C 536.729 -0.609791 -2.02101 0
M  V30 5852 O 536.077 0.381987 -2.25285 0
M  V30 5853 C 536.287 -3.11982 -1.56424 0
M  V30 5854 C 537.635 -3.71649 -2.05334 0
M  V30 5855 O 538.659 -3.14995 -1.66302 0
M  V30 5856 O 537.518 -4.71038 -2.77102 0
M  V30 5857 H 534.612 -0.694121 -0.449582 0
M  V30 5858 H 537.158 -1.68464 -0.204426 0
M  V30 5859 H 535.93 -3.83046 -0.799457 0
M  V30 5860 H 535.553 -3.18019 -2.38641 0
M  V30 5861 N 536.55 0.480323 -1.50102 0
M  V30 5862 C 537.775 1.26126 -1.64642 0
M  V30 5863 C 538.2 1.85257 -0.325823 0
M  V30 5864 O 537.558 1.66854 0.709194 0
M  V30 5865 C 537.606 2.35243 -2.73301 0
M  V30 5866 O 536.71 3.39646 -2.33911 0
M  V30 5867 H 536.051 0.371463 -0.550374 0
M  V30 5868 H 538.581 0.572696 -1.96421 0
M  V30 5869 H 538.591 2.80695 -2.96098 0
M  V30 5870 H 537.266 1.91574 -3.6915 0
M  V30 5871 H 535.843 2.99969 -2.21525 0
M  V30 5872 N 538.028 1.39524 0.732853 0
M  V30 5873 C 538.938 1.40695 1.87729 0
M  V30 5874 C 539.954 0.301496 1.71368 0
M  V30 5875 O 541.13 0.543313 1.93933 0
M  V30 5876 C 538.195 1.25098 3.23344 0
M  V30 5877 C 537.256 2.45634 3.52083 0
M  V30 5878 C 536.489 2.30772 4.81228 0
M  V30 5879 O 536.712 1.31233 5.55098 0
M  V30 5880 O 535.646 3.19799 5.09914 0
M  V30 5881 H 539.472 2.37168 1.89697 0
M  V30 5882 H 537.057 1.20663 0.880959 0
M  V30 5883 H 538.939 1.18541 4.04383 0
M  V30 5884 H 537.614 0.317209 3.22142 0
M  V30 5885 H 536.521 2.57767 2.71122 0
M  V30 5886 H 537.854 3.37712 3.58066 0
M  V30 5887 N 539.506 -0.963266 1.24736 0
M  V30 5888 C 540.752 -1.70933 1.09131 0
M  V30 5889 C 541.085 -1.90676 -0.368273 0
M  V30 5890 O 540.36 -1.47147 -1.27193 0
M  V30 5891 C 540.643 -3.09744 1.83658 0
M  V30 5892 C 540.496 -2.97465 3.37394 0
M  V30 5893 C 541.815 -4.09483 1.61282 0
M  V30 5894 H 538.934 -0.620398 0.397838 0
M  V30 5895 H 541.576 -1.12028 1.53459 0
M  V30 5896 H 539.726 -3.60031 1.4598 0
M  V30 5897 H 541.398 -2.54571 3.84696 0
M  V30 5898 H 539.641 -2.33576 3.65547 0
M  V30 5899 H 540.312 -3.95822 3.84745 0
M  V30 5900 H 542.788 -3.68073 1.94066 0
M  V30 5901 H 541.664 -5.04666 2.15878 0
M  V30 5902 H 541.925 -4.38639 0.552102 0
M  V30 5903 N 540.985 -1.06182 -1.16461 0
M  V30 5904 C 542.262 -0.691364 -1.82974 0
M  V30 5905 C 542.642 0.827377 -1.9421 0
M  V30 5906 O 541.99 1.73723 -1.48434 0
M  V30 5907 C 542.2 -1.39199 -3.20038 0
M  V30 5908 C 543.548 -1.53647 -3.95825 0
M  V30 5909 O 544.572 -1.35181 -3.29552 0
M  V30 5910 O 543.431 -1.83932 -5.14618 0
M  V30 5911 H 540.525 -0.244605 -0.789998 0
M  V30 5912 H 543.071 -1.16203 -1.23673 0
M  V30 5913 H 541.843 -2.42766 -3.06888 0
M  V30 5914 H 541.466 -0.911335 -3.87015 0
M  V30 5915 N 542.463 1.3308 -0.844243 0
M  V30 5916 C 543.691 2.01808 -0.456203 0
M  V30 5917 C 544.106 1.63498 0.944131 0
M  V30 5918 O 543.463 0.85102 1.61443 0
M  V30 5919 C 543.514 3.56922 -0.573513 0
M  V30 5920 O 543.235 3.93851 -1.91868 0
M  V30 5921 C 544.736 4.42922 -0.183125 0
M  V30 5922 H 541.956 0.646273 -0.180477 0
M  V30 5923 H 544.5 1.69891 -1.1383 0
M  V30 5924 H 542.655 3.87352 0.0607367 0
M  V30 5925 H 543.069 4.88564 -1.90802 0
M  V30 5926 H 544.543 5.51093 -0.316241 0
M  V30 5927 H 545.02 4.30386 0.875477 0
M  V30 5928 H 545.626 4.1786 -0.792027 0
M  V30 5929 N 543.941 0.601185 1.45683 0
M  V30 5930 C 545.218 0.0261659 1.95582 0
M  V30 5931 C 545.598 -1.4399 1.5437 0
M  V30 5932 O 544.946 -2.13919 0.80318 0
M  V30 5933 C 545.156 0.217557 3.48321 0
M  V30 5934 C 546.504 0.0950076 4.24494 0
M  V30 5935 O 547.528 0.147345 3.55895 0
M  V30 5936 O 546.387 -0.025261 5.46494 0
M  V30 5937 H 543.481 -0.0393688 0.826062 0
M  V30 5938 H 546.027 0.670798 1.55879 0
M  V30 5939 H 544.799 1.23601 3.71266 0
M  V30 5940 H 544.422 -0.46264 3.94899 0
M  V30 5941 N 545.419 -1.53889 0.339982 0
M  V30 5942 C 546.696 -1.93084 -0.312719 0
M  V30 5943 C 547.076 -1.2712 -1.68534 0
M  V30 5944 O 546.424 -0.420835 -2.24591 0
M  V30 5945 C 546.634 -3.4683 -0.388558 0
M  V30 5946 C 547.982 -4.19732 -0.641088 0
M  V30 5947 O 549.006 -3.53075 -0.470818 0
M  V30 5948 O 547.865 -5.3781 -0.970685 0
M  V30 5949 H 544.959 -0.806784 -0.18174 0
M  V30 5950 H 547.505 -1.65137 0.390898 0
M  V30 5951 H 546.277 -3.87055 0.574821 0
M  V30 5952 H 545.9 -3.80933 -1.1391 0
M  V30 5953 N 546.897 -0.0685191 -1.57451 0
M  V30 5954 C 547.827 0.89747 -2.15564 0
M  V30 5955 C 548.808 1.31266 -1.08181 0
M  V30 5956 O 549.993 1.38429 -1.36202 0
M  V30 5957 C 547.123 2.16623 -2.71463 0
M  V30 5958 C 546.077 1.89054 -3.83982 0
M  V30 5959 C 545.403 3.22532 -4.26471 0
M  V30 5960 C 546.703 1.1984 -5.08366 0
M  V30 5961 H 548.397 0.413373 -2.96533 0
M  V30 5962 H 545.943 0.197391 -1.42641 0
M  V30 5963 H 547.896 2.84614 -3.10761 0
M  V30 5964 H 546.62 2.67269 -1.8771 0
M  V30 5965 H 545.279 1.23469 -3.45183 0
M  V30 5966 H 544.927 3.71013 -3.39644 0
M  V30 5967 H 544.627 3.04879 -5.02317 0
M  V30 5968 H 546.151 3.91727 -4.68383 0
M  V30 5969 H 547.565 1.77896 -5.45001 0
M  V30 5970 H 545.962 1.12456 -5.89469 0
M  V30 5971 H 547.032 0.176996 -4.84577 0
M  V30 5972 N 548.375 1.56261 0.205012 0
M  V30 5973 C 549.6 1.84491 0.947512 0
M  V30 5974 C 550.025 0.650894 1.76479 0
M  V30 5975 O 549.383 -0.40035 1.76824 0
M  V30 5976 C 549.431 3.10863 1.82747 0
M  V30 5977 O 548.535 2.90719 2.925 0
M  V30 5978 H 547.876 0.607783 0.267386 0
M  V30 5979 H 550.406 2.03485 0.213323 0
M  V30 5980 H 550.416 3.41399 2.23407 0
M  V30 5981 H 549.091 3.97392 1.2269 0
M  V30 5982 H 547.668 2.71457 2.55667 0
M  V30 5983 N 549.853 -0.472356 1.50355 0
M  V30 5984 C 550.801 -1.59126 1.69651 0
M  V30 5985 C 551.795 -1.59793 0.56237 0
M  V30 5986 O 553.001 -1.63957 0.742832 0
M  V30 5987 H 549.376 -0.528008 0.535454 0
M  V30 5988 H 551.347 -1.40013 2.63513 0
M  V30 5989 C 550.096 -2.97075 1.8067 0
M  V30 5990 H 549.419 -2.9728 2.67329 0
M  V30 5991 H 550.859 -3.74825 1.98197 0
M  V30 5992 C 549.318 -3.32247 0.558016 0
M  V30 5993 O 549.848 -4.00553 -0.303399 0
M  V30 5994 N 548.054 -2.87659 0.412415 0
M  V30 5995 H 547.601 -2.32246 1.11443 0
M  V30 5996 H 547.559 -3.11556 -0.421908 0
M  V30 5997 N 551.331 -1.39911 -0.725443 0
M  V30 5998 C 552.578 -1.37654 -1.48518 0
M  V30 5999 C 552.906 0.0243982 -1.94485 0
M  V30 6000 O 552.161 1.00708 -1.67799 0
M  V30 6001 C 552.46 -2.30368 -2.7325 0
M  V30 6002 C 552.126 -3.77817 -2.461 0
M  V30 6003 C 550.788 -4.17991 -2.38405 0
M  V30 6004 C 553.14 -4.71036 -2.23103 0
M  V30 6005 C 550.468 -5.49433 -2.05768 0
M  V30 6006 C 552.82 -6.02766 -1.9198 0
M  V30 6007 C 551.484 -6.41993 -1.82761 0
M  V30 6008 H 550.754 -0.503713 -0.543465 0
M  V30 6009 H 553.401 -1.7249 -0.831822 0
M  V30 6010 H 551.706 -1.88683 -3.43375 0
M  V30 6011 H 553.403 -2.2591 -3.31309 0
M  V30 6012 H 549.993 -3.45982 -2.52972 0
M  V30 6013 H 554.177 -4.40823 -2.2801 0
M  V30 6014 H 549.433 -5.78738 -1.9716 0
M  V30 6015 H 553.607 -6.74519 -1.73197 0
M  V30 6016 H 551.234 -7.43761 -1.57237 0
M  V30 6017 N 552.809 0.956637 -1.25245 0
M  V30 6018 C 553.741 2.05628 -1.01242 0
M  V30 6019 C 554.754 1.62785 0.0219579 0
M  V30 6020 O 555.943 1.77184 -0.216365 0
M  V30 6021 C 553.043 3.35069 -0.508161 0
M  V30 6022 C 552.216 4.06761 -1.60823 0
M  V30 6023 C 551.275 5.14473 -1.1047 0
M  V30 6024 O 550.301 5.40033 -1.79868 0
M  V30 6025 N 551.503 5.80474 0.0550773 0
M  V30 6026 H 554.268 2.2679 -1.95925 0
M  V30 6027 H 551.829 1.12505 -1.16423 0
M  V30 6028 H 553.821 4.044 -0.155819 0
M  V30 6029 H 552.391 3.10694 0.344683 0
M  V30 6030 H 551.611 3.31555 -2.13224 0
M  V30 6031 H 552.899 4.51418 -2.34733 0
M  V30 6032 H 552.297 5.62125 0.635004 0
M  V30 6033 H 550.854 6.50868 0.348469 0
M  V30 6034 N 554.287 1.06798 1.15896 0
M  V30 6035 C 555.217 0.704677 2.22613 0
M  V30 6036 C 556.198 -0.305252 1.67339 0
M  V30 6037 O 557.383 -0.179247 1.93371 0
M  V30 6038 C 554.513 0.0957325 3.47168 0
M  V30 6039 C 553.467 1.0322 4.15367 0
M  V30 6040 C 552.793 0.286293 5.33933 0
M  V30 6041 C 554.093 2.36341 4.65768 0
M  V30 6042 H 555.787 1.59688 2.53259 0
M  V30 6043 H 553.333 0.769257 1.21731 0
M  V30 6044 H 555.286 -0.170333 4.21056 0
M  V30 6045 H 554.01 -0.831516 3.15838 0
M  V30 6046 H 552.669 1.28309 3.43413 0
M  V30 6047 H 552.317 -0.644237 4.98857 0
M  V30 6048 H 552.017 0.910436 5.80504 0
M  V30 6049 H 553.541 0.0278938 6.10594 0
M  V30 6050 H 554.955 2.1561 5.31211 0
M  V30 6051 H 553.352 2.94299 5.2298 0
M  V30 6052 H 554.422 2.99047 3.81705 0
M  V30 6053 O 555.804 -1.27943 0.985539 0
M  V30 6054 H 556.495 -1.83099 0.632003 0
M  V30 END ATOM
M  V30 BEGIN BOND
M  V30 END BOND
M  V30 END CTAB
M  END
$$$$
