drugbank_target|P69903 Formyl-CoA:oxalate CoA-transferase (DB01992)
 OpenBabel12092120013D

  0  0  0     0  0            999 V3000
M  V30 BEGIN CTAB
M  V30 COUNTS 6395 6471 0 0 0
M  V30 BEGIN ATOM
M  V30 1 H -0.908 1.98254 -0.117106 0
M  V30 2 N 0 1.576 0 0
M  V30 3 C 0.933 2.03868 1.02534 0
M  V30 4 C 1.911 0.928543 1.3348 0
M  V30 5 O 3.095 1.19667 1.45644 0
M  V30 6 C 0.222 2.43627 2.35294 0
M  V30 7 C -0.732 3.65373 2.2001 0
M  V30 8 S 0.101 5.13292 1.52614 0
M  V30 9 C 1.257 5.56322 2.86805 0
M  V30 10 H 1.49 2.90518 0.631377 0
M  V30 11 H -0.977 1.52953 0.210867 0
M  V30 12 H 0.981 2.67203 3.11629 0
M  V30 13 H -0.358 1.57376 2.7183 0
M  V30 14 H -1.165 3.90944 3.18086 0
M  V30 15 H -1.563 3.418 1.51819 0
M  V30 16 H 0.729 5.58782 3.83104 0
M  V30 17 H 1.672 6.56266 2.65933 0
M  V30 18 H 2.08 4.83886 2.90714 0
M  V30 19 N 1.4781 -0.272755 1.55222 0
M  V30 20 C 2.7031 -1.02683 1.80197 0
M  V30 21 C 3.1281 -1.79142 0.573551 0
M  V30 22 O 2.4861 -1.74917 -0.476849 0
M  V30 23 C 2.5341 -1.9609 3.02624 0
M  V30 24 O 1.6381 -3.04863 2.77727 0
M  V30 25 H 0.9791 -0.293557 0.595584 0
M  V30 26 H 3.5091 -0.30159 2.02365 0
M  V30 27 H 3.5191 -2.38039 3.31363 0
M  V30 28 H 2.1941 -1.39851 3.91682 0
M  V30 29 H 0.7711 -2.67228 2.60084 0
M  V30 30 N 2.9562 -1.48159 -0.537278 0
M  V30 31 C 4.1842 -1.59454 -1.31841 0
M  V30 32 C 4.5992 -0.252065 -1.8711 0
M  V30 33 O 3.9562 0.757621 -1.66031 0
M  V30 34 C 4.0072 -2.63546 -2.47439 0
M  V30 35 O 3.7282 -3.92583 -1.94449 0
M  V30 36 C 5.2292 -2.85212 -3.39366 0
M  V30 37 H 2.4492 -0.53785 -0.401196 0
M  V30 38 H 4.9932 -1.93932 -0.648891 0
M  V30 39 H 3.1482 -2.31946 -3.1029 0
M  V30 40 H 3.5622 -4.49629 -2.70063 0
M  V30 41 H 5.0362 -3.61863 -4.16844 0
M  V30 42 H 5.5132 -1.93765 -3.94147 0
M  V30 43 H 6.1192 -3.18086 -2.82314 0
M  V30 44 N 4.4343 0.785586 -1.36625 0
M  V30 45 C 5.8453 1.36101 -1.27803 0
M  V30 46 C 6.1963 1.96035 0.0804875 0
M  V30 47 O 5.3213 1.92834 0.982042 0
M  V30 48 C 5.9163 2.47442 -2.31426 0
M  V30 49 C 4.4753 3.00789 -2.26281 0
M  V30 50 C 3.6223 1.73896 -2.15999 0
M  V30 51 H 6.5733 0.586928 -1.47448 0
M  V30 52 H 6.5943 3.2656 -1.95291 0
M  V30 53 H 6.1063 2.03791 -3.30289 0
M  V30 54 H 4.2073 3.48851 -1.30896 0
M  V30 55 H 4.3203 3.57343 -3.19128 0
M  V30 56 H 2.6843 1.9628 -1.62316 0
M  V30 57 H 3.4673 1.32368 -3.16755 0
M  V30 58 N 5.9124 1.20967 1.01018 0
M  V30 59 C 6.8424 0.988272 2.11555 0
M  V30 60 C 7.8234 -0.0849778 1.69888 0
M  V30 61 O 9.0084 0.0738202 1.9406 0
M  V30 62 C 6.1384 0.546528 3.42973 0
M  V30 63 C 5.0924 1.56375 3.9841 0
M  V30 64 C 4.4184 0.97842 5.25672 0
M  V30 65 C 5.7184 2.94922 4.31066 0
M  V30 66 H 7.4124 1.91276 2.30334 0
M  V30 67 H 4.9584 0.921073 1.1069 0
M  V30 68 H 6.9114 0.378839 4.19694 0
M  V30 69 H 5.6354 -0.413598 3.23971 0
M  V30 70 H 4.2944 1.71891 3.23804 0
M  V30 71 H 3.9424 0.0101688 5.02999 0
M  V30 72 H 3.6424 1.65784 5.63728 0
M  V30 73 H 5.1664 0.821939 6.05043 0
M  V30 74 H 6.5804 2.8288 4.9865 0
M  V30 75 H 4.9774 3.5983 4.80253 0
M  V30 76 H 6.0474 3.4616 3.39561 0
M  V30 77 N 7.3905 -1.2043 1.01659 0
M  V30 78 C 8.3225 -2.22626 0.544988 0
M  V30 79 C 9.3355 -1.58479 -0.372609 0
M  V30 80 O 10.5245 -1.77679 -0.170958 0
M  V30 81 C 7.6245 -3.38141 -0.22663 0
M  V30 82 C 6.7975 -4.31877 0.692876 0
M  V30 83 C 5.8565 -5.26191 -0.0311616 0
M  V30 84 O 4.8825 -5.6612 0.591343 0
M  V30 85 N 6.0845 -5.65618 -1.30601 0
M  V30 86 H 8.8495 -2.63716 1.42388 0
M  V30 87 H 6.4105 -1.34971 0.894116 0
M  V30 88 H 8.4025 -3.98239 -0.72024 0
M  V30 89 H 6.9725 -2.95943 -1.00681 0
M  V30 90 H 6.1925 -3.69746 1.36679 0
M  V30 91 H 7.4805 -4.91426 1.31824 0
M  V30 92 H 6.8785 -5.3519 -1.83269 0
M  V30 93 H 5.4355 -6.28025 -1.74435 0
M  V30 94 N 8.8686 -0.792821 -1.36206 0
M  V30 95 C 10.1166 -0.366062 -1.98757 0
M  V30 96 C 10.4376 1.0668 -1.63231 0
M  V30 97 O 9.7076 1.73587 -0.907978 0
M  V30 98 H 8.2876 -0.132364 -0.735179 0
M  V30 99 H 10.9496 -1.01562 -1.66347 0
M  V30 100 H 10.0456 -0.460638 -3.08682 0
M  V30 101 N 10.3467 1.47872 -0.545128 0
M  V30 102 C 11.5957 2.01695 -0.0145033 0
M  V30 103 C 11.9087 1.42609 1.33873 0
M  V30 104 O 13.1147 1.88021 1.95858 0
M  V30 105 C 11.5707 3.59892 0.0245068 0
M  V30 106 C 11.1787 4.27966 -1.32475 0
M  V30 107 C 12.9227 4.21507 0.50316 0
M  V30 108 C 10.8297 5.78136 -1.2455 0
M  V30 109 H 9.7597 0.753998 -0.00165172 0
M  V30 110 H 12.4107 1.69985 -0.691175 0
M  V30 111 H 10.7927 3.88509 0.766575 0
M  V30 112 H 11.9667 4.11003 -2.08357 0
M  V30 113 H 10.2817 3.78286 -1.74036 0
M  V30 114 H 12.8787 5.31538 0.580656 0
M  V30 115 H 13.2217 3.87855 1.51243 0
M  V30 116 H 13.7547 3.97376 -0.183681 0
M  V30 117 H 10.4937 6.16388 -2.23039 0
M  V30 118 H 10.0137 5.97469 -0.528282 0
M  V30 119 H 11.6927 6.40099 -0.942488 0
M  V30 120 N 11.8248 0.280983 1.55075 0
M  V30 121 C 12.7718 -0.603937 2.22758 0
M  V30 122 C 13.7418 -1.1452 1.20309 0
M  V30 123 O 14.9268 -1.19343 1.48869 0
M  V30 124 C 12.0668 -1.77947 2.95684 0
M  V30 125 C 11.1798 -1.2715 4.12864 0
M  V30 126 C 10.3148 -2.4093 4.7342 0
M  V30 127 C 9.3538 -1.87165 5.82783 0
M  V30 128 N 8.4908 -2.94441 6.37377 0
M  V30 129 H 13.3308 -0.020124 2.97993 0
M  V30 130 H 10.8678 0.00183425 1.471 0
M  V30 131 H 12.8258 -2.47055 3.36184 0
M  V30 132 H 11.4558 -2.33522 2.22861 0
M  V30 133 H 10.5078 -0.473331 3.77444 0
M  V30 134 H 11.8198 -0.837751 4.91715 0
M  V30 135 H 10.9738 -3.18021 5.1667 0
M  V30 136 H 9.7128 -2.87623 3.93859 0
M  V30 137 H 8.7178 -1.08556 5.38976 0
M  V30 138 H 9.9428 -1.41401 6.64216 0
M  V30 139 H 7.8888 -3.40505 5.60707 0
M  V30 140 H 7.8058 -2.55501 7.11516 0
M  V30 141 H 9.0738 -3.71489 6.85285 0
M  V30 142 N 13.3029 -1.57598 0.00835791 0
M  V30 143 C 14.5489 -1.91211 -0.675732 0
M  V30 144 C 14.8819 -0.883139 -1.72958 0
M  V30 145 O 14.1569 0.097016 -1.94258 0
M  V30 146 C 14.4399 -3.35379 -1.31123 0
M  V30 147 C 14.2929 -4.48999 -0.268356 0
M  V30 148 C 15.6119 -3.7912 -2.23508 0
M  V30 149 H 12.7309 -0.695374 -0.244179 0
M  V30 150 H 15.3729 -1.89901 0.0613655 0
M  V30 151 H 13.5229 -3.36626 -1.93946 0
M  V30 152 H 15.1949 -4.59887 0.360844 0
M  V30 153 H 13.4379 -4.31873 0.408482 0
M  V30 154 H 14.1089 -5.46851 -0.752218 0
M  V30 155 H 16.5849 -3.79477 -1.70693 0
M  V30 156 H 15.4609 -4.80729 -2.64936 0
M  V30 157 H 15.7219 -3.13455 -3.11766 0
M  V30 158 N 14.781 0.264519 -1.55364 0
M  V30 159 C 15.711 1.33121 -1.91836 0
M  V30 160 C 16.692 1.51101 -0.781192 0
M  V30 161 O 17.877 1.64003 -1.04003 0
M  V30 162 C 15.007 2.68921 -2.19769 0
M  V30 163 C 13.961 2.65661 -3.35571 0
M  V30 164 C 13.287 4.05093 -3.49004 0
M  V30 165 C 14.587 2.24187 -4.71739 0
M  V30 166 H 16.281 1.02844 -2.81182 0
M  V30 167 H 13.827 0.493286 -1.35287 0
M  V30 168 H 15.78 3.43663 -2.43872 0
M  V30 169 H 14.504 3.00799 -1.27231 0
M  V30 170 H 13.163 1.93377 -3.1145 0
M  V30 171 H 12.811 4.34206 -2.53917 0
M  V30 172 H 12.511 4.03804 -4.26868 0
M  V30 173 H 14.035 4.81561 -3.75408 0
M  V30 174 H 15.449 2.88654 -4.9533 0
M  V30 175 H 13.846 2.34044 -5.52579 0
M  V30 176 H 14.916 1.19327 -4.69988 0
M  V30 177 N 16.2591 1.48442 0.529413 0
M  V30 178 C 17.5361 1.46978 1.29062 0
M  V30 179 C 17.9161 0.181769 2.10316 0
M  V30 180 O 17.2641 -0.836481 2.12639 0
M  V30 181 C 17.4741 2.7321 2.17157 0
M  V30 182 C 18.8221 3.21562 2.77278 0
M  V30 183 O 19.8461 2.74131 2.27444 0
M  V30 184 O 18.7051 4.04094 3.67927 0
M  V30 185 H 15.7991 0.587003 0.582543 0
M  V30 186 H 18.3451 1.60676 0.546021 0
M  V30 187 H 17.1171 3.58465 1.56903 0
M  V30 188 H 16.7401 2.62235 2.98862 0
M  V30 189 N 17.7372 -0.778329 1.37039 0
M  V30 190 C 18.9842 -1.53665 1.31884 0
M  V30 191 C 19.3122 -1.9425 -0.0986303 0
M  V30 192 O 18.5672 -1.63832 -1.07041 0
M  V30 193 C 18.8662 -2.81845 2.19768 0
M  V30 194 C 18.5322 -2.60345 3.68146 0
M  V30 195 C 17.1942 -2.5419 4.08584 0
M  V30 196 C 19.5462 -2.40923 4.62175 0
M  V30 197 C 16.8742 -2.26594 5.41177 0
M  V30 198 C 19.2262 -2.14852 5.94997 0
M  V30 199 C 17.8902 -2.07137 6.34547 0
M  V30 200 H 17.1602 -0.562299 0.482598 0
M  V30 201 H 19.8072 -0.897069 1.69189 0
M  V30 202 H 18.1122 -3.50328 1.75436 0
M  V30 203 H 19.8092 -3.39692 2.13097 0
M  V30 204 H 16.3992 -2.65996 3.36072 0
M  V30 205 H 20.5832 -2.44673 4.31797 0
M  V30 206 H 15.8392 -2.19111 5.70789 0
M  V30 207 H 20.0132 -1.98822 6.67415 0
M  V30 208 H 17.6402 -1.85518 7.37216 0
M  V30 209 N 19.2153 -1.21501 -1.00376 0
M  V30 210 C 20.4433 -1.059 -1.77744 0
M  V30 211 C 20.8583 0.391125 -1.84704 0
M  V30 212 O 20.2153 1.27133 -1.30933 0
M  V30 213 C 20.2663 -1.65111 -3.21591 0
M  V30 214 O 19.9873 -3.0445 -3.15027 0
M  V30 215 C 21.4883 -1.54637 -4.15454 0
M  V30 216 H 18.7083 -0.371825 -0.558558 0
M  V30 217 H 21.2523 -1.60865 -1.26264 0
M  V30 218 H 19.4073 -1.14235 -3.70175 0
M  V30 219 H 19.8213 -3.3278 -4.0541 0
M  V30 220 H 21.2953 -2.00808 -5.14179 0
M  V30 221 H 21.7723 -0.501022 -4.36333 0
M  V30 222 H 22.3783 -2.04767 -3.72761 0
M  V30 223 N 20.6934 1.19889 -1.02296 0
M  V30 224 C 21.9414 1.89046 -0.714558 0
M  V30 225 C 22.2624 1.79636 0.758681 0
M  V30 226 O 21.5324 1.20292 1.54618 0
M  V30 227 H 20.1124 0.699802 -0.261317 0
M  V30 228 H 22.7744 1.45574 -1.29592 0
M  V30 229 H 21.8704 2.95524 -1.0036 0
M  V30 230 N 22.1715 0.800033 1.35784 0
M  V30 231 C 23.4175 0.377901 1.99248 0
M  V30 232 C 23.7505 -1.05052 1.63333 0
M  V30 233 O 23.0255 -1.72768 0.893385 0
M  V30 234 C 23.3085 0.553922 3.55814 0
M  V30 235 C 23.1615 2.0268 4.01548 0
M  V30 236 C 24.4805 -0.0244802 4.40093 0
M  V30 237 H 21.5995 0.138782 0.723815 0
M  V30 238 H 24.2415 1.00835 1.61035 0
M  V30 239 H 22.3915 0.0172398 3.88496 0
M  V30 240 H 24.0635 2.62536 3.79305 0
M  V30 241 H 22.3065 2.5256 3.52698 0
M  V30 242 H 22.9775 2.10087 5.10458 0
M  V30 243 H 25.4535 0.433775 4.13833 0
M  V30 244 H 24.3295 0.128637 5.48749 0
M  V30 245 H 24.5905 -1.11758 4.27741 0
M  V30 246 N 23.6496 -1.47581 0.552962 0
M  V30 247 C 24.5816 -2.27997 -0.234533 0
M  V30 248 C 25.5946 -1.36753 -0.883321 0
M  V30 249 O 26.7836 -1.61612 -0.757889 0
M  V30 250 C 23.8836 -3.10879 -1.34935 0
M  V30 251 C 23.0566 -4.30056 -0.798158 0
M  V30 252 C 22.1156 -4.94567 -1.79694 0
M  V30 253 O 21.1416 -5.53087 -1.34474 0
M  V30 254 N 22.3436 -4.88878 -3.13015 0
M  V30 255 H 25.1086 -2.96222 0.455255 0
M  V30 256 H 22.6696 -1.57163 0.388761 0
M  V30 257 H 24.6616 -3.50903 -2.01616 0
M  V30 258 H 23.2316 -2.44924 -1.94244 0
M  V30 259 H 22.4516 -3.94174 0.0453079 0
M  V30 260 H 23.7396 -5.07152 -0.409173 0
M  V30 261 H 23.1376 -4.42526 -3.52402 0
M  V30 262 H 21.6946 -5.32934 -3.75266 0
M  V30 263 N 25.1277 -0.289203 -1.54924 0
M  V30 264 C 26.3527 0.329299 -2.04769 0
M  V30 265 C 26.7777 1.4763 -1.16564 0
M  V30 266 O 26.1357 1.80527 -0.167186 0
M  V30 267 C 26.1837 0.774438 -3.52186 0
M  V30 268 O 25.2877 1.88038 -3.67036 0
M  V30 269 H 24.6287 0.0659259 -0.660719 0
M  V30 270 H 27.1587 -0.42761 -2.00082 0
M  V30 271 H 27.1687 1.06642 -3.93816 0
M  V30 272 H 25.8437 -0.0646707 -4.1585 0
M  V30 273 H 24.4207 1.58985 -3.3731 0
M  V30 274 N 26.6058 1.57591 -0.0167156 0
M  V30 275 C 27.8538 1.90906 0.663285 0
M  V30 276 C 28.1748 0.892509 1.73376 0
M  V30 277 O 27.4448 -0.0677623 1.95783 0
M  V30 278 H 26.0248 0.704637 0.247983 0
M  V30 279 H 28.6868 1.94803 -0.0615909 0
M  V30 280 H 27.7828 2.9116 1.12393 0
M  V30 281 N 28.0839 -0.256276 1.55502 0
M  V30 282 C 29.4949 -0.826068 1.67431 0
M  V30 283 C 29.8459 -1.86396 0.612446 0
M  V30 284 O 28.9709 -2.15031 -0.243025 0
M  V30 285 C 29.5659 -1.50512 3.03532 0
M  V30 286 C 28.1249 -2.02273 3.17431 0
M  V30 287 C 27.2719 -0.870548 2.63281 0
M  V30 288 H 30.2229 -0.0322728 1.58667 0
M  V30 289 H 30.2439 -2.37279 2.97454 0
M  V30 290 H 29.7559 -0.749484 3.80794 0
M  V30 291 H 27.8569 -2.80746 2.44974 0
M  V30 292 H 27.9699 -2.22655 4.24219 0
M  V30 293 H 26.3339 -1.26851 2.20864 0
M  V30 294 H 27.1169 -0.128149 3.43061 0
M  V30 295 N 29.562 -1.4872 -0.521534 0
M  V30 296 C 30.787 -1.61101 -1.30618 0
M  V30 297 C 31.212 -0.274611 -1.86085 0
M  V30 298 O 30.57 0.754937 -1.64834 0
M  V30 299 C 30.618 -2.66709 -2.4269 0
M  V30 300 O 29.722 -2.24456 -3.45967 0
M  V30 301 H 29.063 -0.539921 -0.386499 0
M  V30 302 H 31.593 -1.94767 -0.626645 0
M  V30 303 H 31.603 -2.88245 -2.88754 0
M  V30 304 H 30.278 -3.63727 -2.01682 0
M  V30 305 H 28.855 -2.13168 -3.05964 0
M  V30 306 N 31.0401 0.771051 -1.3745 0
M  V30 307 C 32.2801 1.54264 -1.34096 0
M  V30 308 C 32.6441 1.91858 0.0737639 0
M  V30 309 O 33.8451 2.67797 0.23203 0
M  V30 310 C 32.1161 2.77326 -2.25445 0
M  V30 311 S 33.6751 3.67383 -2.39948 0
M  V30 312 H 30.4931 0.528122 -0.476034 0
M  V30 313 H 33.0951 0.906633 -1.73206 0
M  V30 314 H 31.7991 2.47788 -3.27153 0
M  V30 315 H 31.3301 3.45886 -1.87421 0
M  V30 316 H 33.3451 4.69334 -1.61059 0
M  V30 317 N 32.5182 1.22032 0.997298 0
M  V30 318 C 33.7462 1.06841 1.7718 0
M  V30 319 C 34.1612 -0.381325 1.84909 0
M  V30 320 O 33.5182 -1.26437 1.31605 0
M  V30 321 C 33.5692 1.66814 3.20711 0
M  V30 322 O 33.2902 3.06116 3.13408 0
M  V30 323 C 34.7912 1.56838 4.14628 0
M  V30 324 H 32.0112 0.374782 0.556578 0
M  V30 325 H 34.5552 1.61532 1.2541 0
M  V30 326 H 32.7102 1.16196 3.69564 0
M  V30 327 H 33.1242 3.34926 4.0364 0
M  V30 328 H 34.5982 2.03532 5.13107 0
M  V30 329 H 35.0752 0.524155 4.36061 0
M  V30 330 H 35.6812 2.06741 3.7167 0
M  V30 331 N 33.9963 -1.19345 1.0293 0
M  V30 332 C 34.9283 -2.22036 0.56857 0
M  V30 333 C 35.9413 -1.58865 -0.355779 0
M  V30 334 O 37.1303 -1.77851 -0.152103 0
M  V30 335 C 34.2303 -3.38363 -0.190752 0
M  V30 336 C 33.4033 -4.31118 0.738643 0
M  V30 337 C 32.4623 -5.26194 0.0246497 0
M  V30 338 O 31.4883 -5.65461 0.651354 0
M  V30 339 N 32.6903 -5.66971 -1.24594 0
M  V30 340 H 35.4553 -2.6219 1.45177 0
M  V30 341 H 33.0163 -1.34015 0.908381 0
M  V30 342 H 35.0083 -3.98981 -0.677961 0
M  V30 343 H 33.5783 -2.96994 -0.975366 0
M  V30 344 H 32.7983 -3.68276 1.40593 0
M  V30 345 H 34.0863 -4.90001 1.37029 0
M  V30 346 H 33.4843 -5.37104 -1.77583 0
M  V30 347 H 32.0413 -6.2984 -1.67764 0
M  V30 348 N 35.4744 -0.807222 -1.35358 0
M  V30 349 C 36.4074 -0.163572 -2.27613 0
M  V30 350 C 37.3854 0.670817 -1.48118 0
M  V30 351 O 38.5694 0.63796 -1.77376 0
M  V30 352 C 35.6964 0.773015 -3.29761 0
M  V30 353 C 34.7424 0.0181653 -4.26496 0
M  V30 354 S 35.5754 -1.31831 -5.19019 0
M  V30 355 C 36.7314 -0.38619 -6.24707 0
M  V30 356 H 36.9644 -0.945757 -2.81856 0
M  V30 357 H 34.4974 -0.602315 -1.42167 0
M  V30 358 H 36.4554 1.30788 -3.89108 0
M  V30 359 H 35.1164 1.52859 -2.74396 0
M  V30 360 H 34.3094 0.729534 -4.98692 0
M  V30 361 H 33.9114 -0.446761 -3.71322 0
M  V30 362 H 36.2034 0.428295 -6.76145 0
M  V30 363 H 37.1464 -1.07736 -6.99856 0
M  V30 364 H 37.5544 0.018398 -5.64497 0
M  V30 365 N 36.9525 1.47285 -0.560781 0
M  V30 366 C 37.8825 2.32857 0.173105 0
M  V30 367 C 38.8635 1.44009 0.905281 0
M  V30 368 O 40.0485 1.7286 0.885046 0
M  V30 369 C 37.1785 3.25861 1.20133 0
M  V30 370 C 36.1325 4.23978 0.585388 0
M  V30 371 C 35.4585 5.06332 1.7185 0
M  V30 372 C 36.7585 5.20242 -0.463178 0
M  V30 373 H 38.4525 2.94466 -0.541307 0
M  V30 374 H 35.9985 1.41601 -0.261764 0
M  V30 375 H 37.9515 3.84569 1.72293 0
M  V30 376 H 36.6755 2.62315 1.94573 0
M  V30 377 H 35.3345 3.66501 0.085054 0
M  V30 378 H 34.9825 4.39186 2.45203 0
M  V30 379 H 34.6825 5.72762 1.31213 0
M  V30 380 H 36.2065 5.67899 2.24329 0
M  V30 381 H 37.6205 5.73293 -0.027502 0
M  V30 382 H 36.0175 5.94896 -0.788627 0
M  V30 383 H 37.0875 4.65504 -1.35773 0
M  V30 384 N 38.4306 0.297415 1.54768 0
M  V30 385 C 39.3936 -0.567375 2.22066 0
M  V30 386 C 40.3936 -1.06409 1.20556 0
M  V30 387 O 41.5836 -0.960691 1.45315 0
M  V30 388 C 38.7156 -1.78517 2.90421 0
M  V30 389 H 39.9086 0.0205534 2.99893 0
M  V30 390 H 37.4616 0.0482163 1.56226 0
M  V30 391 H 38.1966 -2.41303 2.16664 0
M  V30 392 H 37.9816 -1.43669 3.64831 0
M  V30 393 H 39.4716 -2.39964 3.41771 0
M  V30 394 N 39.9087 -1.5758 0.0250728 0
M  V30 395 C 41.1547 -1.92746 -0.649648 0
M  V30 396 C 41.5097 -0.901588 -1.69968 0
M  V30 397 O 40.8027 0.0829251 -1.9142 0
M  V30 398 C 40.9967 -3.32421 -1.31268 0
M  V30 399 C 40.8257 -4.48499 -0.328394 0
M  V30 400 C 39.5957 -5.05251 0.070284 0
M  V30 401 C 41.7937 -5.12618 0.415665 0
M  V30 402 N 39.7757 -6.04851 1.05016 0
M  V30 403 C 41.1467 -6.0728 1.24943 0
M  V30 404 C 43.2017 -4.95612 0.476803 0
M  V30 405 C 41.9047 -6.86766 2.1388 0
M  V30 406 C 43.9307 -5.75703 1.3535 0
M  V30 407 C 43.2927 -6.69978 2.17504 0
M  V30 408 H 39.3917 -0.753231 -0.210159 0
M  V30 409 H 41.9757 -1.94486 0.0912999 0
M  V30 410 H 40.1467 -3.31508 -2.02379 0
M  V30 411 H 41.8787 -3.54946 -1.94411 0
M  V30 412 H 38.6337 -4.72628 -0.303323 0
M  V30 413 H 39.0577 -6.5934 1.53622 0
M  V30 414 H 43.6997 -4.22554 -0.144105 0
M  V30 415 H 41.4177 -7.59132 2.77027 0
M  V30 416 H 45.0037 -5.64579 1.40504 0
M  V30 417 H 43.8837 -7.30873 2.84244 0
M  V30 418 N 41.3868 0.248026 -1.55636 0
M  V30 419 C 42.6338 0.976224 -1.77415 0
M  V30 420 C 42.9618 1.85361 -0.589193 0
M  V30 421 O 42.2168 1.90973 0.427529 0
M  V30 422 C 42.5158 1.86819 -3.04686 0
M  V30 423 C 42.1818 1.14625 -4.36087 0
M  V30 424 C 40.8438 0.946723 -4.71795 0
M  V30 425 C 43.1958 0.634463 -5.17324 0
M  V30 426 C 40.5238 0.223091 -5.86276 0
M  V30 427 C 42.8758 -0.0756959 -6.32555 0
M  V30 428 C 41.5398 -0.286711 -6.66884 0
M  V30 429 H 40.8098 0.357226 -0.649208 0
M  V30 430 H 43.4568 0.246415 -1.89908 0
M  V30 431 H 41.7618 2.66502 -2.872 0
M  V30 432 H 43.4588 2.43329 -3.18735 0
M  V30 433 H 40.0488 1.3117 -4.08035 0
M  V30 434 H 44.2328 0.77616 -4.90193 0
M  V30 435 H 39.4888 0.0491185 -6.1138 0
M  V30 436 H 43.6628 -0.479899 -6.94745 0
M  V30 437 H 41.2898 -0.849389 -7.5544 0
M  V30 438 N 42.8649 1.48995 0.513639 0
M  V30 439 C 44.1129 1.57531 1.26604 0
M  V30 440 C 44.4339 0.258236 1.93283 0
M  V30 441 O 43.7039 -0.721502 1.8213 0
M  V30 442 H 42.2839 0.580387 0.470276 0
M  V30 443 H 44.9459 1.85552 0.596373 0
M  V30 444 H 44.0419 2.36486 2.03669 0
M  V30 445 N 44.343 -0.763751 1.37857 0
M  V30 446 C 45.306 -1.85889 1.34081 0
M  V30 447 C 46.306 -1.58949 0.243277 0
M  V30 448 O 47.496 -1.66882 0.499589 0
M  V30 449 C 44.628 -3.23176 1.08489 0
M  V30 450 H 45.821 -1.90648 2.31502 0
M  V30 451 H 43.374 -0.964367 1.23003 0
M  V30 452 H 44.109 -3.24091 0.116318 0
M  V30 453 H 43.894 -3.44124 1.8794 0
M  V30 454 H 45.384 -4.03254 1.08517 0
M  V30 455 N 45.8211 -1.22559 -0.990812 0
M  V30 456 C 47.0981 -0.959875 -1.70428 0
M  V30 457 C 47.4781 0.524455 -2.04481 0
M  V30 458 O 46.8261 1.49302 -1.72977 0
M  V30 459 C 47.0361 -1.85955 -2.95333 0
M  V30 460 C 48.3841 -2.11687 -3.68068 0
M  V30 461 O 49.4081 -1.8342 -3.05345 0
M  V30 462 O 48.2671 -2.59572 -4.80921 0
M  V30 463 H 45.3611 -0.361154 -0.743974 0
M  V30 464 H 47.9071 -1.33554 -1.04697 0
M  V30 465 H 46.6791 -2.86346 -2.66687 0
M  V30 466 H 46.3021 -1.4856 -3.68803 0
M  V30 467 N 47.2992 1.18797 -1.03562 0
M  V30 468 C 48.5452 1.8893 -0.737113 0
M  V30 469 C 48.8782 1.79837 0.732956 0
M  V30 470 O 48.1532 1.19525 1.5344 0
M  V30 471 C 48.4362 3.39607 -1.19745 0
M  V30 472 C 48.2892 3.57537 -2.72924 0
M  V30 473 C 49.6082 4.33069 -0.783526 0
M  V30 474 H 46.7272 0.686057 -0.269249 0
M  V30 475 H 49.3692 1.39797 -1.28673 0
M  V30 476 H 47.5192 3.81583 -0.729855 0
M  V30 477 H 49.1912 3.24688 -3.27682 0
M  V30 478 H 47.4342 3.00363 -3.12993 0
M  V30 479 H 48.1052 4.63238 -3.00191 0
M  V30 480 H 50.5812 3.98846 -1.18581 0
M  V30 481 H 49.4572 5.3707 -1.13343 0
M  V30 482 H 49.7182 4.40986 0.313681 0
M  V30 483 N 48.7773 0.814389 1.34928 0
M  V30 484 C 50.0263 0.394871 1.97797 0
M  V30 485 C 50.3393 -1.04555 1.65311 0
M  V30 486 O 51.5453 -1.56856 2.21604 0
M  V30 487 C 50.0013 0.655103 3.53888 0
M  V30 488 C 49.6093 2.10858 3.95276 0
M  V30 489 C 51.3533 0.301329 4.23429 0
M  V30 490 C 49.2603 2.31415 5.44244 0
M  V30 491 H 48.1903 0.143913 0.740139 0
M  V30 492 H 50.8413 0.999544 1.53888 0
M  V30 493 H 49.2233 -0.0196253 3.95995 0
M  V30 494 H 50.3973 2.82176 3.64298 0
M  V30 495 H 48.7123 2.42297 3.38646 0
M  V30 496 H 51.3093 0.432869 5.32945 0
M  V30 497 H 51.6523 -0.75331 4.09428 0
M  V30 498 H 52.1853 0.930288 3.86769 0
M  V30 499 H 48.9243 3.35353 5.63222 0
M  V30 500 H 48.4443 1.6463 5.76764 0
M  V30 501 H 50.1233 2.13352 6.10811 0
M  V30 502 N 50.2554 -1.46986 0.568584 0
M  V30 503 C 51.2024 -2.30153 -0.172707 0
M  V30 504 C 52.1724 -1.39759 -0.897586 0
M  V30 505 O 53.3574 -1.68716 -0.891044 0
M  V30 506 C 50.4974 -3.23952 -1.1895 0
M  V30 507 C 49.6104 -4.29441 -0.469517 0
M  V30 508 C 48.7454 -5.1038 -1.47259 0
M  V30 509 C 47.7844 -6.07632 -0.738225 0
M  V30 510 N 46.9214 -6.8149 -1.68868 0
M  V30 511 H 51.7614 -2.93019 0.542596 0
M  V30 512 H 49.2984 -1.44422 0.279401 0
M  V30 513 H 51.2564 -3.76767 -1.79173 0
M  V30 514 H 49.8864 -2.62926 -1.87269 0
M  V30 515 H 48.9384 -3.79594 0.247467 0
M  V30 516 H 50.2504 -4.98689 0.105241 0
M  V30 517 H 49.4044 -5.67402 -2.14803 0
M  V30 518 H 48.1434 -4.4106 -2.08128 0
M  V30 519 H 47.1484 -5.49778 -0.0489293 0
M  V30 520 H 48.3734 -6.78966 -0.135129 0
M  V30 521 H 46.3194 -6.14891 -2.28573 0
M  V30 522 H 46.2364 -7.46948 -1.16636 0
M  V30 523 H 47.5044 -7.43078 -2.3549 0
M  V30 524 N 51.7335 -0.305618 -1.54608 0
M  V30 525 C 52.9825 0.303098 -1.9941 0
M  V30 526 C 53.2955 1.54648 -1.19764 0
M  V30 527 O 54.5015 2.23007 -1.54855 0
M  V30 528 C 52.9575 0.590588 -3.55021 0
M  V30 529 C 52.5655 -0.634719 -4.43481 0
M  V30 530 C 54.3095 1.16025 -4.08336 0
M  V30 531 C 52.2165 -0.320126 -5.90533 0
M  V30 532 H 51.1465 0.117031 -0.744862 0
M  V30 533 H 53.7975 -0.415045 -1.78745 0
M  V30 534 H 52.1795 1.36845 -3.71604 0
M  V30 535 H 53.3535 -1.41079 -4.38672 0
M  V30 536 H 51.6685 -1.12333 -4.00962 0
M  V30 537 H 54.2655 1.40994 -5.15776 0
M  V30 538 H 54.6085 2.10397 -3.5922 0
M  V30 539 H 55.1415 0.443985 -3.95315 0
M  V30 540 H 51.8805 -1.23254 -6.43808 0
M  V30 541 H 51.4005 0.418579 -5.98338 0
M  V30 542 H 53.0795 0.0766241 -6.46955 0
M  V30 543 N 53.2116 1.57565 -0.0334293 0
M  V30 544 C 54.1216 2.13943 0.962572 0
M  V30 545 C 55.1376 1.09276 1.35406 0
M  V30 546 O 56.3136 1.41355 1.4346 0
M  V30 547 C 53.3786 2.65887 2.22497 0
M  V30 548 C 52.4396 3.85286 1.8935 0
M  V30 549 C 51.6726 4.34743 3.09571 0
M  V30 550 O 51.8956 3.83352 4.22371 0
M  V30 551 O 50.8296 5.26538 2.91618 0
M  V30 552 H 54.6556 2.99333 0.513169 0
M  V30 553 H 52.2406 1.4822 0.18743 0
M  V30 554 H 54.1226 2.99346 2.96598 0
M  V30 555 H 52.7976 1.83578 2.6661 0
M  V30 556 H 51.7046 3.56746 1.1262 0
M  V30 557 H 53.0376 4.68771 1.5005 0
M  V30 558 N 54.6897 -0.239769 1.55765 0
M  V30 559 C 56.1057 -0.588624 1.48349 0
M  V30 560 C 56.3057 -1.88005 0.72502 0
M  V30 561 O 55.3617 -2.51186 0.257269 0
M  V30 562 C 56.6747 -0.68474 2.928 0
M  V30 563 C 58.2227 -0.77659 3.03213 0
M  V30 564 C 58.6977 -0.904207 4.48986 0
M  V30 565 N 60.1887 -0.968896 4.52953 0
M  V30 566 C 60.9237 -1.08703 5.63002 0
M  V30 567 N 60.4197 -1.17026 6.82845 0
M  V30 568 N 62.2127 -1.12074 5.50814 0
M  V30 569 H 54.3637 0.607911 2.03515 0
M  V30 570 H 56.6267 0.21083 0.924259 0
M  V30 571 H 56.3327 0.194284 3.51163 0
M  V30 572 H 56.2067 -1.55435 3.43686 0
M  V30 573 H 58.5937 -1.64606 2.44926 0
M  V30 574 H 58.6747 0.118315 2.55526 0
M  V30 575 H 58.3187 -0.0392633 5.07885 0
M  V30 576 H 58.2487 -1.81426 4.9436 0
M  V30 577 H 60.7397 -0.915633 3.6664 0
M  V30 578 H 61.0527 -1.25966 7.62465 0
M  V30 579 H 59.3977 -1.13971 6.85591 0
M  V30 580 H 62.5887 -1.05226 4.5612 0
M  V30 581 H 62.7617 -1.20936 6.36615 0
M  V30 582 N 56.1678 -1.49265 -0.50573 0
M  V30 583 C 57.5788 -1.51769 -1.08734 0
M  V30 584 C 57.9298 -0.301192 -1.93874 0
M  V30 585 O 57.0548 0.589456 -2.08217 0
M  V30 586 C 57.6498 -2.75017 -1.97867 0
M  V30 587 C 56.2088 -2.80314 -2.51199 0
M  V30 588 C 55.3558 -2.4562 -1.28709 0
M  V30 589 H 58.3068 -1.56031 -0.289855 0
M  V30 590 H 58.3278 -2.5491 -2.82491 0
M  V30 591 H 57.8398 -3.63539 -1.35873 0
M  V30 592 H 55.9408 -1.96061 -3.16845 0
M  V30 593 H 56.0538 -3.82366 -2.88675 0
M  V30 594 H 54.4178 -1.97297 -1.61078 0
M  V30 595 H 55.2008 -3.36411 -0.6843 0
M  V30 596 N 57.6459 0.756429 -1.3826 0
M  V30 597 C 58.8939 1.51248 -1.34047 0
M  V30 598 C 59.2149 1.94875 0.0698372 0
M  V30 599 O 58.4849 1.67436 1.01696 0
M  V30 600 H 57.0649 0.561018 -0.493222 0
M  V30 601 H 59.7269 0.899347 -1.7291 0
M  V30 602 H 58.8229 2.40472 -1.98947 0
M  V30 603 N 59.124 1.23083 0.984299 0
M  V30 604 C 60.37 1.06214 1.72761 0
M  V30 605 C 60.703 -0.400584 1.90024 0
M  V30 606 O 59.978 -1.29672 1.44967 0
M  V30 607 C 60.261 1.78375 3.12817 0
M  V30 608 C 60.114 3.32296 3.03149 0
M  V30 609 C 61.433 1.54309 4.12161 0
M  V30 610 H 58.552 0.387251 0.627061 0
M  V30 611 H 61.194 1.51536 1.14616 0
M  V30 612 H 59.344 1.39848 3.62457 0
M  V30 613 H 61.016 3.8032 2.61064 0
M  V30 614 H 59.259 3.6153 2.39747 0
M  V30 615 H 59.93 3.77972 4.02295 0
M  V30 616 H 62.406 1.87791 3.71314 0
M  V30 617 H 61.282 2.07281 5.08258 0
M  V30 618 H 61.543 0.477572 4.39513 0
M  V30 619 N 60.6021 -1.18246 1.0419 0
M  V30 620 C 61.8501 -1.87886 0.744543 0
M  V30 621 C 62.1711 -1.8082 -0.730006 0
M  V30 622 O 61.4411 -1.22736 -1.52685 0
M  V30 623 H 60.0211 -0.695556 0.272417 0
M  V30 624 H 62.6831 -1.43494 1.31892 0
M  V30 625 H 61.7791 -2.9389 1.05049 0
M  V30 626 N 62.0802 -0.821533 -1.34494 0
M  V30 627 C 63.3572 -0.33159 -1.92769 0
M  V30 628 C 63.7372 1.18088 -1.74981 0
M  V30 629 O 63.0852 1.98733 -1.12772 0
M  V30 630 C 63.2952 -0.759398 -3.40638 0
M  V30 631 C 64.6432 -0.757433 -4.1779 0
M  V30 632 O 65.6672 -0.70189 -3.49216 0
M  V30 633 O 64.5262 -0.829361 -5.4017 0
M  V30 634 H 61.6202 -0.0902502 -0.822061 0
M  V30 635 H 64.1662 -0.906231 -1.43477 0
M  V30 636 H 62.9382 -1.8012 -3.47379 0
M  V30 637 H 62.5612 -0.160378 -3.97276 0
M  V30 638 N 63.5583 1.46682 -0.576371 0
M  V30 639 C 64.8043 2.02712 -0.0596221 0
M  V30 640 C 65.1373 1.44765 1.29448 0
M  V30 641 O 64.4123 0.610355 1.84675 0
M  V30 642 C 64.6953 3.60098 0.0129503 0
M  V30 643 C 64.5483 4.28441 -1.3696 0
M  V30 644 C 65.8673 4.34224 0.71678 0
M  V30 645 H 62.9863 0.736637 -0.0231407 0
M  V30 646 H 65.6283 1.74898 -0.742351 0
M  V30 647 H 63.7783 3.83926 0.594378 0
M  V30 648 H 65.4503 4.15896 -1.9957 0
M  V30 649 H 63.6933 3.8805 -1.93907 0
M  V30 650 H 64.3643 5.3716 -1.27135 0
M  V30 651 H 66.8403 4.15503 0.222908 0
M  V30 652 H 65.7163 5.43936 0.73657 0
M  V30 653 H 65.9773 4.04823 1.77682 0
M  V30 654 N 65.0364 0.313813 1.54444 0
M  V30 655 C 66.2644 -0.293918 2.04802 0
M  V30 656 C 66.6794 -1.46537 1.19047 0
M  V30 657 O 66.0364 -1.81182 0.218939 0
M  V30 658 C 66.0874 -0.737806 3.53891 0
M  V30 659 O 65.8084 0.387038 4.36387 0
M  V30 660 C 67.3094 -1.40936 4.203 0
M  V30 661 H 64.5294 -0.0620057 0.668129 0
M  V30 662 H 67.0734 0.457169 1.99324 0
M  V30 663 H 65.2284 -1.43889 3.59687 0
M  V30 664 H 65.6424 0.0391274 5.24485 0
M  V30 665 H 67.1164 -1.67099 5.26101 0
M  V30 666 H 67.5934 -2.35355 3.70816 0
M  V30 667 H 68.1994 -0.751117 4.18615 0
M  V30 668 N 66.5145 -1.57545 0.0417849 0
M  V30 669 C 67.9305 -1.56467 -0.314704 0
M  V30 670 C 68.1305 -1.04859 -1.72066 0
M  V30 671 O 67.1865 -0.700983 -2.42575 0
M  V30 672 C 68.4995 -3.00317 -0.15174 0
M  V30 673 C 70.0475 -3.12201 -0.223553 0
M  V30 674 C 70.5225 -4.57913 -0.0892295 0
M  V30 675 N 72.0135 -4.6297 -0.145808 0
M  V30 676 C 72.7485 -5.73362 -0.0658459 0
M  V30 677 N 72.2445 -6.92769 0.0659282 0
M  V30 678 N 74.0375 -5.6197 -0.12075 0
M  V30 679 H 66.1885 -1.89416 0.961014 0
M  V30 680 H 68.4515 -0.871862 0.372237 0
M  V30 681 H 68.1575 -3.42073 0.817254 0
M  V30 682 H 68.0315 -3.65892 -0.916692 0
M  V30 683 H 70.4185 -2.70349 -1.18301 0
M  V30 684 H 70.4995 -2.49323 0.571994 0
M  V30 685 H 70.1435 -5.00448 0.866867 0
M  V30 686 H 70.0735 -5.18786 -0.903802 0
M  V30 687 H 72.5645 -3.7709 -0.247286 0
M  V30 688 H 72.8775 -7.72707 0.119905 0
M  V30 689 H 71.2225 -6.94927 0.100885 0
M  V30 690 H 74.4135 -4.67572 -0.222187 0
M  V30 691 H 74.5865 -6.47977 -0.0549735 0
M  V30 692 N 67.9926 0.231505 -1.5589 0
M  V30 693 C 68.9426 1.29007 -1.87993 0
M  V30 694 C 69.9266 1.42764 -0.742102 0
M  V30 695 O 71.1186 1.45747 -1.00433 0
M  V30 696 C 68.2476 2.6425 -2.1915 0
M  V30 697 C 67.3336 2.54435 -3.39299 0
M  V30 698 N 67.7246 2.14262 -4.58176 0
M  V30 699 C 66.0226 2.85416 -3.42715 0
M  V30 700 C 66.7236 2.15455 -5.40328 0
M  V30 701 N 65.6996 2.55558 -4.79783 0
M  V30 702 H 69.5016 0.970213 -2.77424 0
M  V30 703 H 67.0156 0.440097 -1.56323 0
M  V30 704 H 69.0126 3.40665 -2.40319 0
M  V30 705 H 67.6726 2.9709 -1.31025 0
M  V30 706 H 68.6836 1.85554 -4.83518 0
M  V30 707 H 65.3606 3.22693 -2.64906 0
M  V30 708 H 66.7506 1.86605 -6.45467 0
M  V30 709 N 69.4707 1.49531 0.497807 0
M  V30 710 C 70.4027 1.62559 1.61578 0
M  V30 711 C 71.4157 0.508134 1.54667 0
M  V30 712 O 72.6047 0.780309 1.60541 0
M  V30 713 C 69.7047 1.56925 3.00379 0
M  V30 714 C 68.8777 2.84257 3.3244 0
M  V30 715 C 67.9367 2.71632 4.50669 0
M  V30 716 O 66.9627 3.4557 4.52294 0
M  V30 717 N 68.1647 1.83391 5.5077 0
M  V30 718 H 70.9297 2.58981 1.50828 0
M  V30 719 H 68.4907 1.4666 0.685743 0
M  V30 720 H 70.4827 1.46129 3.77397 0
M  V30 721 H 69.0527 0.683483 3.05037 0
M  V30 722 H 68.2727 3.09381 2.44289 0
M  V30 723 H 69.5607 3.68666 3.5066 0
M  V30 724 H 68.9587 1.22583 5.52259 0
M  V30 725 H 67.5157 1.78515 6.26878 0
M  V30 726 N 70.9488 -0.749086 1.3866 0
M  V30 727 C 71.8788 -1.8764 1.38973 0
M  V30 728 C 72.8598 -1.68178 0.255004 0
M  V30 729 O 74.0448 -1.88704 0.458754 0
M  V30 730 C 71.1748 -3.25222 1.21851 0
M  V30 731 C 70.1288 -3.59295 2.32575 0
M  V30 732 C 69.4548 -4.95663 2.00555 0
M  V30 733 C 70.7548 -3.63709 3.7485 0
M  V30 734 H 72.4488 -1.87635 2.3331 0
M  V30 735 H 69.9948 -0.901329 1.12303 0
M  V30 736 H 71.9478 -4.03746 1.20695 0
M  V30 737 H 70.6718 -3.25719 0.239775 0
M  V30 738 H 69.3308 -2.83093 2.32925 0
M  V30 739 H 68.9788 -4.92724 1.01154 0
M  V30 740 H 68.6788 -5.19429 2.74714 0
M  V30 741 H 70.2028 -5.7656 2.01024 0
M  V30 742 H 71.6168 -4.32338 3.76506 0
M  V30 743 H 70.0138 -3.98986 4.48252 0
M  V30 744 H 71.0838 -2.63834 4.06841 0
M  V30 745 N 72.4269 -1.23603 -0.977757 0
M  V30 746 C 73.8429 -0.999251 -1.24447 0
M  V30 747 C 74.0429 0.298053 -1.99283 0
M  V30 748 O 73.0989 1.01681 -2.31122 0
M  V30 749 C 74.4119 -2.20784 -2.04144 0
M  V30 750 C 75.9599 -2.25303 -2.17273 0
M  V30 751 C 76.4349 -3.45755 -3.00362 0
M  V30 752 N 77.9259 -3.4601 -3.07947 0
M  V30 753 C 78.6609 -4.35868 -3.72568 0
M  V30 754 N 78.1569 -5.35966 -4.38991 0
M  V30 755 N 79.9499 -4.23605 -3.6948 0
M  V30 756 H 72.1009 -2.06986 -0.476483 0
M  V30 757 H 74.3639 -0.907801 -0.273134 0
M  V30 758 H 74.0699 -3.14945 -1.56533 0
M  V30 759 H 73.9439 -2.22085 -3.04891 0
M  V30 760 H 76.3309 -1.3168 -2.64092 0
M  V30 761 H 76.4119 -2.28033 -1.15907 0
M  V30 762 H 76.0559 -4.39687 -2.5424 0
M  V30 763 H 75.9859 -3.40266 -4.01904 0
M  V30 764 H 78.4769 -2.73588 -2.60688 0
M  V30 765 H 78.7899 -6.00783 -4.86086 0
M  V30 766 H 77.1349 -5.39863 -4.37691 0
M  V30 767 H 80.3259 -3.44647 -3.16759 0
M  V30 768 H 80.4989 -4.93836 -4.1956 0
M  V30 769 N 73.905 1.17692 -1.04816 0
M  V30 770 C 75.182 1.83768 -0.669963 0
M  V30 771 C 75.562 1.93232 0.849986 0
M  V30 772 O 74.91 1.46397 1.75443 0
M  V30 773 C 75.12 3.21641 -1.35455 0
M  V30 774 C 76.468 3.97592 -1.49017 0
M  V30 775 O 77.492 3.31107 -1.31326 0
M  V30 776 O 76.351 5.16729 -1.77914 0
M  V30 777 H 73.445 0.792799 -0.235368 0
M  V30 778 H 75.991 1.25021 -1.14751 0
M  V30 779 H 74.763 3.097 -2.39168 0
M  V30 780 H 74.386 3.88052 -0.866107 0
M  V30 781 N 75.3831 0.828654 1.34056 0
M  V30 782 C 76.6321 0.415828 1.97367 0
M  V30 783 C 76.9451 -1.02796 1.6641 0
M  V30 784 O 78.1511 -1.54497 2.23255 0
M  V30 785 C 76.6071 0.692601 3.53173 0
M  V30 786 C 76.2151 2.15038 3.93017 0
M  V30 787 C 77.9591 0.346222 4.23086 0
M  V30 788 C 75.8661 2.37174 5.41758 0
M  V30 789 H 74.7961 0.151755 0.738571 0
M  V30 790 H 77.4471 1.01581 1.52819 0
M  V30 791 H 75.8291 0.0223764 3.95994 0
M  V30 792 H 77.0031 2.86024 3.61285 0
M  V30 793 H 75.3181 2.45875 3.36057 0
M  V30 794 H 77.9151 0.48937 5.32456 0
M  V30 795 H 78.2581 -0.709842 4.10204 0
M  V30 796 H 78.7911 0.971258 3.85761 0
M  V30 797 H 75.5301 3.41308 5.59633 0
M  V30 798 H 75.0501 1.70738 5.74986 0
M  V30 799 H 76.7291 2.19818 6.08514 0
M  V30 800 N 76.8612 -1.46375 0.584142 0
M  V30 801 C 78.2722 -1.86031 0.157959 0
M  V30 802 C 78.6232 -1.48753 -1.27933 0
M  V30 803 O 77.7482 -0.903098 -1.96655 0
M  V30 804 C 78.3432 -3.37642 0.279892 0
M  V30 805 C 76.9022 -3.76289 -0.09143 0
M  V30 806 C 76.0492 -2.7039 0.615178 0
M  V30 807 H 79.0002 -1.37509 0.792274 0
M  V30 808 H 79.0212 -3.77275 -0.494364 0
M  V30 809 H 78.5332 -3.64742 1.32607 0
M  V30 810 H 76.6342 -3.54806 -1.13769 0
M  V30 811 H 76.7472 -4.78246 0.285886 0
M  V30 812 H 75.1112 -2.5464 0.0552833 0
M  V30 813 H 75.8942 -3.0033 1.66303 0
M  V30 814 N 78.3393 -0.321999 -1.54275 0
M  V30 815 C 79.6163 0.335232 -1.92706 0
M  V30 816 C 79.9963 1.70006 -1.25145 0
M  V30 817 O 79.3443 2.25067 -0.394596 0
M  V30 818 C 79.5543 0.429008 -3.46353 0
M  V30 819 C 80.9023 0.690029 -4.18956 0
M  V30 820 O 81.9263 0.511992 -3.52501 0
M  V30 821 O 80.7853 1.03338 -5.36641 0
M  V30 822 H 77.8793 0.191143 -0.804608 0
M  V30 823 H 80.4253 -0.3716 -1.65581 0
M  V30 824 H 79.1973 -0.529611 -3.87699 0
M  V30 825 H 78.8203 1.18348 -3.79578 0
M  V30 826 N 79.8174 1.5752 -0.0501392 0
M  V30 827 C 81.0664 1.91827 0.623328 0
M  V30 828 C 81.3794 0.930222 1.72065 0
M  V30 829 O 82.5854 1.1653 2.4522 0
M  V30 830 C 81.0414 3.40692 1.16003 0
M  V30 831 C 80.6494 4.479 0.0948811 0
M  V30 832 C 82.3934 3.84034 1.80881 0
M  V30 833 C 80.3004 5.87879 0.644411 0
M  V30 834 H 79.2304 0.715918 0.236596 0
M  V30 835 H 81.8814 1.83115 -0.118861 0
M  V30 836 H 80.2634 3.44405 1.9545 0
M  V30 837 H 81.4374 4.55775 -0.678675 0
M  V30 838 H 79.7524 4.13892 -0.45637 0
M  V30 839 H 82.3494 4.85984 2.22988 0
M  V30 840 H 82.6924 3.20225 2.6601 0
M  V30 841 H 83.2254 3.82833 1.0809 0
M  V30 842 H 79.9644 6.55282 -0.169229 0
M  V30 843 H 79.4844 5.83567 1.38598 0
M  V30 844 H 81.1634 6.37098 1.12763 0
M  V30 845 N 81.2955 -0.223234 1.56011 0
M  V30 846 C 82.5725 -0.972108 1.69733 0
M  V30 847 C 82.9525 -2.02485 0.59691 0
M  V30 848 O 82.3005 -2.25037 -0.396324 0
M  V30 849 C 82.5105 -1.58407 3.10979 0
M  V30 850 C 83.8585 -2.07696 3.70334 0
M  V30 851 O 84.8825 -1.68304 3.1393 0
M  V30 852 O 83.7415 -2.80096 4.69264 0
M  V30 853 H 80.8355 -0.453993 0.691245 0
M  V30 854 H 83.3815 -0.215149 1.68331 0
M  V30 855 H 82.1535 -0.823831 3.82529 0
M  V30 856 H 81.7765 -2.40661 3.16493 0
M  V30 857 N 82.7736 -1.49793 -0.48987 0
M  V30 858 C 83.7366 -1.66752 -1.57246 0
M  V30 859 C 84.7366 -0.538867 -1.51502 0
M  V30 860 O 85.9266 -0.805545 -1.54456 0
M  V30 861 C 83.0586 -1.67528 -2.96896 0
M  V30 862 H 84.2516 -2.63321 -1.43534 0
M  V30 863 H 81.8046 -1.38992 -0.714914 0
M  V30 864 H 82.5396 -0.725837 -3.16073 0
M  V30 865 H 82.3246 -2.49504 -3.02473 0
M  V30 866 H 83.8146 -1.82667 -3.7553 0
M  V30 867 N 84.2517 0.741722 -1.39055 0
M  V30 868 C 85.1817 1.869 -1.39966 0
M  V30 869 C 86.1627 1.6804 -0.26392 0
M  V30 870 O 87.3477 1.88458 -0.468755 0
M  V30 871 C 84.4777 3.24572 -1.23574 0
M  V30 872 C 83.4317 3.58056 -2.34477 0
M  V30 873 C 82.7577 4.94593 -2.0318 0
M  V30 874 C 84.0577 3.61716 -3.76774 0
M  V30 875 H 85.7517 1.86395 -2.34302 0
M  V30 876 H 83.2977 0.895361 -1.1278 0
M  V30 877 H 85.2507 4.031 -1.22834 0
M  V30 878 H 83.9747 3.25587 -0.257045 0
M  V30 879 H 82.6337 2.81854 -2.34423 0
M  V30 880 H 82.2817 4.92181 -1.03765 0
M  V30 881 H 81.9817 5.17964 -2.77465 0
M  V30 882 H 83.5057 5.75486 -2.04079 0
M  V30 883 H 84.9197 4.30335 -3.78794 0
M  V30 884 H 83.3167 3.96603 -4.50362 0
M  V30 885 H 84.3867 2.61672 -4.08235 0
M  V30 886 N 85.7298 1.2412 0.971189 0
M  V30 887 C 86.9598 1.10415 1.7462 0
M  V30 888 C 87.3678 -0.346462 1.86001 0
M  V30 889 O 86.7108 -1.25104 1.34517 0
M  V30 890 C 86.7728 1.66596 3.18568 0
M  V30 891 C 86.4368 3.15446 3.3067 0
M  V30 892 C 87.4338 4.12636 3.16271 0
M  V30 893 C 85.1188 3.55337 3.55022 0
M  V30 894 C 87.1128 5.47699 3.26044 0
M  V30 895 C 84.7998 4.90542 3.64434 0
M  V30 896 C 85.7978 5.86532 3.49956 0
M  V30 897 O 85.4858 7.19279 3.59017 0
M  V30 898 H 85.2178 0.386616 0.55453 0
M  V30 899 H 87.7718 1.64633 1.22821 0
M  V30 900 H 86.0018 1.06808 3.71657 0
M  V30 901 H 87.6908 1.48232 3.77865 0
M  V30 902 H 88.4568 3.8316 2.97344 0
M  V30 903 H 84.3358 2.8113 3.65359 0
M  V30 904 H 87.8798 6.22603 3.14661 0
M  V30 905 H 83.7768 5.19691 3.82873 0
M  V30 906 H 84.5448 7.27153 3.75754 0
M  V30 907 N 87.2079 -1.17134 1.05439 0
M  V30 908 C 88.4549 -1.87456 0.765942 0
M  V30 909 C 88.7829 -1.81189 -0.707153 0
M  V30 910 O 88.0379 -1.21633 -1.5331 0
M  V30 911 C 88.3369 -3.36833 1.19491 0
M  V30 912 C 88.0029 -3.63301 2.67063 0
M  V30 913 C 86.6649 -3.70234 3.07376 0
M  V30 914 C 89.0169 -3.74575 3.62413 0
M  V30 915 C 86.3449 -3.85933 4.41896 0
M  V30 916 C 88.6969 -3.91793 4.9667 0
M  V30 917 C 87.3609 -3.96966 5.36633 0
M  V30 918 H 86.6309 -0.685948 0.280278 0
M  V30 919 H 89.2779 -1.38556 1.32192 0
M  V30 920 H 87.5829 -3.87807 0.557969 0
M  V30 921 H 89.2799 -3.89611 0.948893 0
M  V30 922 H 85.8699 -3.58532 2.34846 0
M  V30 923 H 90.0539 -3.68537 3.32406 0
M  V30 924 H 85.3099 -3.88187 4.72357 0
M  V30 925 H 89.4839 -3.99458 5.70444 0
M  V30 926 H 87.1109 -4.08883 6.40874 0
M  V30 927 N 88.686 -0.835752 -1.33615 0
M  V30 928 C 89.914 -0.443344 -2.02094 0
M  V30 929 C 90.329 0.954522 -1.62894 0
M  V30 930 O 89.686 1.61982 -0.840723 0
M  V30 931 C 89.737 -0.550775 -3.5728 0
M  V30 932 O 89.458 -1.89356 -3.95065 0
M  V30 933 C 90.959 -0.154919 -4.43029 0
M  V30 934 H 88.179 -0.176359 -0.647409 0
M  V30 935 H 90.723 -1.12746 -1.70612 0
M  V30 936 H 88.878 0.0853997 -3.87306 0
M  V30 937 H 89.292 -1.87687 -4.89769 0
M  V30 938 H 90.766 -0.281144 -5.51284 0
M  V30 939 H 91.243 0.902863 -4.2982 0
M  V30 940 H 91.849 -0.765404 -4.18356 0
M  V30 941 N 90.1641 1.46063 -0.591896 0
M  V30 942 C 91.0971 2.27452 0.184617 0
M  V30 943 C 92.0751 1.36188 0.888351 0
M  V30 944 O 93.2591 1.65606 0.90039 0
M  V30 945 C 90.3861 3.14162 1.26571 0
M  V30 946 C 89.4321 4.21255 0.666814 0
M  V30 947 S 90.2651 5.33034 -0.513345 0
M  V30 948 C 91.4211 6.23311 0.56872 0
M  V30 949 H 91.6541 2.92963 -0.505939 0
M  V30 950 H 89.1871 1.49676 -0.379014 0
M  V30 951 H 91.1451 3.6468 1.88463 0
M  V30 952 H 89.8061 2.47946 1.92826 0
M  V30 953 H 88.9991 4.81788 1.47974 0
M  V30 954 H 88.6011 3.73797 0.123359 0
M  V30 955 H 90.8931 6.61758 1.45198 0
M  V30 956 H 91.8361 7.081 -7.23824e-05 0
M  V30 957 H 92.2441 5.57646 0.876996 0
M  V30 958 N 91.6422 0.330177 1.54103 0
M  V30 959 C 92.5722 -0.525353 2.27513 0
M  V30 960 C 93.5532 -1.11383 1.2856 0
M  V30 961 O 94.7382 -1.13773 1.57383 0
M  V30 962 C 91.8682 -1.6831 3.03791 0
M  V30 963 C 90.8222 -1.2236 4.10137 0
M  V30 964 C 90.1482 -2.46882 4.74293 0
M  V30 965 C 91.4482 -0.333697 5.21233 0
M  V30 966 H 93.1422 0.087013 2.99274 0
M  V30 967 H 90.6882 0.0432893 1.43935 0
M  V30 968 H 92.6412 -2.28795 3.5388 0
M  V30 969 H 91.3652 -2.32216 2.29659 0
M  V30 970 H 90.0242 -0.64165 3.60941 0
M  V30 971 H 89.6722 -3.09165 3.96769 0
M  V30 972 H 89.3722 -2.16825 5.46133 0
M  V30 973 H 90.8962 -3.08117 5.27159 0
M  V30 974 H 92.3102 -0.845013 5.67038 0
M  V30 975 H 90.7072 -0.125612 5.99969 0
M  V30 976 H 91.7772 0.633724 4.80741 0
M  V30 977 N 93.1203 -1.57491 0.0584922 0
M  V30 978 C 94.0683 -2.13148 -0.931168 0
M  V30 979 C 95.0623 -1.06507 -1.31729 0
M  V30 980 O 96.2683 -1.24906 -1.29609 0
M  V30 981 H 92.6433 -0.68137 -0.31818 0
M  V30 982 H 94.6143 -2.95187 -0.436707 0
M  V30 983 C 93.3633 -2.69732 -2.19408 0
M  V30 984 H 92.6863 -3.51454 -1.90578 0
M  V30 985 H 94.1263 -3.12287 -2.86798 0
M  V30 986 C 92.5853 -1.63855 -2.94369 0
M  V30 987 O 93.1153 -1.05565 -3.87581 0
M  V30 988 N 91.3213 -1.35202 -2.57233 0
M  V30 989 H 90.8683 -1.82791 -1.81508 0
M  V30 990 H 90.8263 -0.645922 -3.07693 0
M  V30 991 N 94.5984 0.214957 -1.56127 0
M  V30 992 C 95.8234 0.95924 -1.83884 0
M  V30 993 C 96.2484 1.7689 -0.639644 0
M  V30 994 O 95.6064 1.76566 0.411601 0
M  V30 995 C 95.6544 1.84723 -3.09693 0
M  V30 996 O 94.7584 2.94346 -2.8885 0
M  V30 997 H 94.0994 0.27125 -0.606069 0
M  V30 998 H 96.6294 0.226276 -2.03345 0
M  V30 999 H 96.6394 2.25576 -3.39969 0
M  V30 1000 H 95.3144 1.25218 -3.96602 0
M  V30 1001 H 93.8914 2.57391 -2.69823 0
M  V30 1002 N 96.0765 1.50051 0.48192 0
M  V30 1003 C 97.0245 1.68635 1.60203 0
M  V30 1004 C 98.0185 0.552184 1.60148 0
M  V30 1005 O 99.2245 0.732377 1.64427 0
M  V30 1006 H 95.5995 0.532081 0.531407 0
M  V30 1007 H 97.5705 2.62616 1.41688 0
M  V30 1008 C 96.3195 1.78775 2.9822 0
M  V30 1009 H 95.6425 2.6543 2.98976 0
M  V30 1010 H 97.0825 1.95806 3.7608 0
M  V30 1011 C 95.5415 0.536849 3.32595 0
M  V30 1012 O 96.0715 -0.328897 4.00351 0
M  V30 1013 N 94.2775 0.394091 2.87915 0
M  V30 1014 H 93.8245 1.09962 2.32951 0
M  V30 1015 H 93.7825 -0.441737 3.11281 0
M  V30 1016 N 97.5546 -0.734337 1.39446 0
M  V30 1017 C 98.5016 -1.84835 1.38219 0
M  V30 1018 C 99.4716 -1.64331 0.24179 0
M  V30 1019 O 100.657 -1.85728 0.437002 0
M  V30 1020 C 97.7966 -3.22355 1.23212 0
M  V30 1021 C 96.9096 -3.5456 2.46801 0
M  V30 1022 C 96.0446 -4.81485 2.24377 0
M  V30 1023 C 95.0836 -5.06536 3.43639 0
M  V30 1024 N 94.2206 -6.24665 3.20528 0
M  V30 1025 H 99.0606 -1.85219 2.33448 0
M  V30 1026 H 96.5976 -0.905039 1.15963 0
M  V30 1027 H 98.5556 -4.0174 1.12522 0
M  V30 1028 H 97.1856 -3.21248 0.316121 0
M  V30 1029 H 96.2376 -2.69872 2.68092 0
M  V30 1030 H 97.5496 -3.6899 3.3563 0
M  V30 1031 H 96.7036 -5.68852 2.10933 0
M  V30 1032 H 95.4426 -4.6923 1.32944 0
M  V30 1033 H 94.4476 -4.17632 3.5758 0
M  V30 1034 H 95.6726 -5.20676 4.35974 0
M  V30 1035 H 93.6186 -6.13696 2.3176 0
M  V30 1036 H 93.5356 -6.39685 4.02913 0
M  V30 1037 H 94.8036 -7.14868 3.10779 0
M  V30 1038 N 99.0327 -1.24633 -0.964593 0
M  V30 1039 C 100.449 -1.01239 -1.2338 0
M  V30 1040 C 100.649 0.2769 -1.99588 0
M  V30 1041 O 99.7047 0.992241 -2.32187 0
M  V30 1042 C 101.018 -2.22937 -2.01791 0
M  V30 1043 C 102.566 -2.27594 -2.14872 0
M  V30 1044 C 103.041 -3.48921 -2.96678 0
M  V30 1045 N 104.532 -3.49257 -3.04259 0
M  V30 1046 C 105.267 -4.39795 -3.67924 0
M  V30 1047 N 104.763 -5.40591 -4.33281 0
M  V30 1048 N 106.556 -4.275 -3.64966 0
M  V30 1049 H 98.7067 -2.0748 -0.454502 0
M  V30 1050 H 100.97 -0.910647 -0.26349 0
M  V30 1051 H 100.676 -3.16587 -1.53184 0
M  V30 1052 H 100.55 -2.25306 -3.02518 0
M  V30 1053 H 102.937 -1.34473 -2.6268 0
M  V30 1054 H 103.018 -2.2925 -1.13482 0
M  V30 1055 H 102.662 -4.42359 -2.49562 0
M  V30 1056 H 102.592 -3.4451 -3.98272 0
M  V30 1057 H 105.083 -2.76337 -2.57771 0
M  V30 1058 H 105.396 -6.05904 -4.79687 0
M  V30 1059 H 103.741 -5.44475 -4.3194 0
M  V30 1060 H 106.932 -3.47987 -3.13086 0
M  V30 1061 H 107.105 -4.98258 -4.14298 0
M  V30 1062 N 100.511 1.16574 -1.06058 0
M  V30 1063 C 101.736 1.91493 -0.796562 0
M  V30 1064 C 102.161 1.76773 0.642868 0
M  V30 1065 O 101.519 1.09142 1.44768 0
M  V30 1066 C 101.567 3.40293 -1.19303 0
M  V30 1067 O 100.671 4.11074 -0.330394 0
M  V30 1068 H 100.012 0.596678 -0.291326 0
M  V30 1069 H 102.542 1.47708 -1.41575 0
M  V30 1070 H 102.552 3.91057 -1.16356 0
M  V30 1071 H 101.227 3.50326 -2.24153 0
M  V30 1072 H 99.8038 3.70513 -0.421225 0
M  V30 1073 N 101.989 0.842826 1.3317 0
M  V30 1074 C 103.238 0.436738 1.96915 0
M  V30 1075 C 103.551 -1.01025 1.67491 0
M  V30 1076 O 104.757 -1.5212 2.24881 0
M  V30 1077 C 103.213 0.730021 3.52418 0
M  V30 1078 C 102.821 2.19195 3.90714 0
M  V30 1079 C 104.565 0.391076 4.22695 0
M  V30 1080 C 102.472 2.42907 5.39212 0
M  V30 1081 H 101.402 0.15958 0.736919 0
M  V30 1082 H 104.053 1.03196 1.51733 0
M  V30 1083 H 102.435 0.0643755 3.95948 0
M  V30 1084 H 103.609 2.8984 3.58231 0
M  V30 1085 H 101.924 2.49425 3.33431 0
M  V30 1086 H 104.521 0.545817 5.31907 0
M  V30 1087 H 104.864 -0.666294 4.10933 0
M  V30 1088 H 105.397 1.01212 3.84709 0
M  V30 1089 H 102.136 3.47224 5.55982 0
M  V30 1090 H 101.656 1.76827 5.73142 0
M  V30 1091 H 103.335 2.2626 6.06148 0
M  V30 1092 N 103.467 -1.45747 0.599634 0
M  V30 1093 C 104.377 -2.34262 -0.125888 0
M  V30 1094 C 105.393 -1.50768 -0.868625 0
M  V30 1095 O 106.569 -1.83592 -0.828003 0
M  V30 1096 C 103.634 -3.28252 -1.11587 0
M  V30 1097 C 102.695 -4.27651 -0.375956 0
M  V30 1098 C 101.928 -5.1715 -1.31877 0
M  V30 1099 O 102.151 -5.09916 -2.55621 0
M  V30 1100 O 101.085 -5.96286 -0.820157 0
M  V30 1101 H 104.911 -2.97688 0.601315 0
M  V30 1102 H 102.496 -1.44999 0.359934 0
M  V30 1103 H 104.378 -3.86191 -1.68626 0
M  V30 1104 H 103.053 -2.67401 -1.82424 0
M  V30 1105 H 101.96 -3.7335 0.236698 0
M  V30 1106 H 103.293 -4.91334 0.29177 0
M  V30 1107 N 104.945 -0.338344 -1.53925 0
M  V30 1108 C 105.875 0.51328 -2.27789 0
M  V30 1109 C 106.856 1.107 -1.29149 0
M  V30 1110 O 108.041 1.12937 -1.57984 0
M  V30 1111 C 105.171 1.66697 -3.04679 0
M  V30 1112 C 104.125 1.20183 -4.1078 0
M  V30 1113 C 103.451 2.44363 -4.75595 0
M  V30 1114 C 104.751 0.30605 -5.21403 0
M  V30 1115 H 106.445 -0.102883 -2.99223 0
M  V30 1116 H 103.991 -0.0509219 -1.4391 0
M  V30 1117 H 105.944 2.26915 -3.55088 0
M  V30 1118 H 104.668 2.30995 -2.30887 0
M  V30 1119 H 103.327 0.622499 -3.61276 0
M  V30 1120 H 102.975 3.07057 -3.98403 0
M  V30 1121 H 102.675 2.13925 -5.47275 0
M  V30 1122 H 104.199 3.05317 -5.28786 0
M  V30 1123 H 105.613 0.814929 -5.67478 0
M  V30 1124 H 104.01 0.0937929 -6.00027 0
M  V30 1125 H 105.08 -0.65921 -4.80398 0
M  V30 1126 N 106.423 1.57458 -0.0668435 0
M  V30 1127 C 107.371 2.13639 0.919851 0
M  V30 1128 C 108.365 1.07204 1.31163 0
M  V30 1129 O 109.571 1.25591 1.28945 0
M  V30 1130 H 105.946 0.683048 0.314562 0
M  V30 1131 H 107.917 2.95415 0.421047 0
M  V30 1132 C 106.666 2.70892 2.17975 0
M  V30 1133 H 105.989 3.5246 1.88711 0
M  V30 1134 H 107.429 3.13803 2.85138 0
M  V30 1135 C 105.888 1.65414 2.93496 0
M  V30 1136 O 106.418 1.07619 3.87015 0
M  V30 1137 N 104.624 1.36564 2.56512 0
M  V30 1138 H 104.171 1.83751 1.80536 0
M  V30 1139 H 104.129 0.66223 3.07347 0
M  V30 1140 N 107.901 -0.206675 1.56239 0
M  V30 1141 C 109.129 -0.945345 1.8404 0
M  V30 1142 C 109.544 -1.77336 0.647885 0
M  V30 1143 O 108.901 -1.78425 -0.383511 0
M  V30 1144 C 108.952 -1.8509 3.10522 0
M  V30 1145 O 108.673 -1.05634 4.25174 0
M  V30 1146 C 110.174 -2.70222 3.51418 0
M  V30 1147 H 107.394 -0.276372 0.61144 0
M  V30 1148 H 109.938 -0.217417 2.03341 0
M  V30 1149 H 108.093 -2.53259 2.93153 0
M  V30 1150 H 108.507 -1.67238 4.97124 0
M  V30 1151 H 109.981 -3.29438 4.42916 0
M  V30 1152 H 110.458 -3.43358 2.73864 0
M  V30 1153 H 111.064 -2.07443 3.71278 0
M  V30 1154 N 109.379 -1.50304 -0.473955 0
M  V30 1155 C 110.326 -1.68959 -1.57231 0
M  V30 1156 C 111.296 -0.530899 -1.57387 0
M  V30 1157 O 112.481 -0.761133 -1.74961 0
M  V30 1158 C 109.621 -1.7871 -2.95223 0
M  V30 1159 C 108.734 -3.06061 -3.04878 0
M  V30 1160 C 107.869 -3.06626 -4.33767 0
M  V30 1161 C 106.908 -4.28443 -4.37154 0
M  V30 1162 N 106.045 -4.26763 -5.5751 0
M  V30 1163 H 110.885 -2.6273 -1.40631 0
M  V30 1164 H 108.422 -1.30241 -0.683789 0
M  V30 1165 H 110.38 -1.82344 -3.75242 0
M  V30 1166 H 109.01 -0.883806 -3.10465 0
M  V30 1167 H 108.062 -3.11911 -2.17751 0
M  V30 1168 H 109.374 -3.96039 -3.0324 0
M  V30 1169 H 108.528 -3.08973 -5.22131 0
M  V30 1170 H 107.267 -2.14473 -4.3801 0
M  V30 1171 H 106.272 -4.2631 -3.47188 0
M  V30 1172 H 107.497 -5.2182 -4.34605 0
M  V30 1173 H 105.443 -3.37462 -5.62544 0
M  V30 1174 H 105.36 -5.10507 -5.57601 0
M  V30 1175 H 106.628 -4.33253 -6.48006 0
M  V30 1176 N 110.857 0.726932 -1.39834 0
M  V30 1177 C 112.085 1.51613 -1.40787 0
M  V30 1178 C 112.5 1.88799 -0.00451505 0
M  V30 1179 O 111.857 1.54662 0.968809 0
M  V30 1180 C 111.908 2.79863 -2.28821 0
M  V30 1181 O 111.629 2.44253 -3.63692 0
M  V30 1182 C 113.13 3.73837 -2.38245 0
M  V30 1183 H 110.35 0.468264 -0.480593 0
M  V30 1184 H 112.894 0.897607 -1.83748 0
M  V30 1185 H 111.049 3.38027 -1.89252 0
M  V30 1186 H 111.463 3.26695 -4.1033 0
M  V30 1187 H 112.937 4.60699 -3.04073 0
M  V30 1188 H 113.414 4.16153 -1.40403 0
M  V30 1189 H 114.02 3.21589 -2.78317 0
M  V30 1190 N 112.336 1.25143 0.95797 0
M  V30 1191 C 113.299 1.05321 2.03569 0
M  V30 1192 C 114.299 0.007152 1.60798 0
M  V30 1193 O 115.489 0.24903 1.72411 0
M  V30 1194 C 112.621 0.598394 3.35607 0
M  V30 1195 H 113.814 2.00986 2.22586 0
M  V30 1196 H 111.367 1.07502 1.13459 0
M  V30 1197 H 112.102 -0.361014 3.22284 0
M  V30 1198 H 111.887 1.35351 3.67998 0
M  V30 1199 H 113.377 0.48104 4.1482 0
M  V30 1200 N 113.814 -1.1601 1.06675 0
M  V30 1201 C 114.724 -2.24156 0.692179 0
M  V30 1202 C 115.74 -1.71507 -0.293513 0
M  V30 1203 O 116.916 -2.009 -0.141861 0
M  V30 1204 C 113.981 -3.46587 0.0884131 0
M  V30 1205 C 113.042 -4.14257 1.12646 0
M  V30 1206 C 112.275 -5.30844 0.551416 0
M  V30 1207 O 112.498 -5.66858 -0.634656 0
M  V30 1208 O 111.432 -5.87848 1.29298 0
M  V30 1209 H 115.258 -2.58513 1.59388 0
M  V30 1210 H 112.843 -1.23599 0.83926 0
M  V30 1211 H 114.725 -4.20679 -0.246361 0
M  V30 1212 H 113.4 -3.13994 -0.786712 0
M  V30 1213 H 112.307 -3.42118 1.51348 0
M  V30 1214 H 113.64 -4.50914 1.97325 0
M  V30 1215 N 115.292 -0.849877 -1.32721 0
M  V30 1216 C 116.54 -0.450032 -1.97026 0
M  V30 1217 C 116.861 0.996604 -1.67609 0
M  V30 1218 O 116.131 1.6958 -0.980786 0
M  V30 1219 H 114.711 -0.163426 -0.728904 0
M  V30 1220 H 117.373 -1.08526 -1.6189 0
M  V30 1221 H 116.469 -0.591146 -3.0645 0
M  V30 1222 N 116.77 1.45427 -0.607355 0
M  V30 1223 C 117.717 2.3053 0.111625 0
M  V30 1224 C 118.687 1.4209 0.860216 0
M  V30 1225 O 119.872 1.71019 0.845998 0
M  V30 1226 C 117.012 3.26992 1.10319 0
M  V30 1227 C 116.125 4.30535 0.355493 0
M  V30 1228 C 115.26 5.14105 1.33676 0
M  V30 1229 C 114.299 6.09376 0.576862 0
M  V30 1230 N 113.436 6.85727 1.5074 0
M  V30 1231 H 118.276 2.91477 -0.620093 0
M  V30 1232 H 115.813 1.43631 -0.317594 0
M  V30 1233 H 117.771 3.81385 1.6912 0
M  V30 1234 H 116.401 2.67799 1.80232 0
M  V30 1235 H 115.453 3.78805 -0.348023 0
M  V30 1236 H 116.765 4.98235 -0.237423 0
M  V30 1237 H 115.919 5.72897 1.99684 0
M  V30 1238 H 114.658 4.46423 1.9636 0
M  V30 1239 H 113.663 5.49715 -0.0968519 0
M  V30 1240 H 114.888 6.79085 -0.0449341 0
M  V30 1241 H 112.834 6.20735 2.12189 0
M  V30 1242 H 112.751 7.49778 0.967913 0
M  V30 1243 H 114.019 7.4906 2.15706 0
M  V30 1244 N 118.248 0.346503 1.53744 0
M  V30 1245 C 119.158 -0.517293 2.28826 0
M  V30 1246 C 120.174 -1.10935 1.3405 0
M  V30 1247 O 121.35 -1.1244 1.6709 0
M  V30 1248 C 118.415 -1.65098 3.04866 0
M  V30 1249 C 117.476 -1.0884 4.15274 0
M  V30 1250 C 116.709 -2.16806 4.87679 0
M  V30 1251 O 116.932 -3.3758 4.59778 0
M  V30 1252 O 115.866 -1.80934 5.74061 0
M  V30 1253 H 119.692 0.0931396 3.03557 0
M  V30 1254 H 117.277 0.111458 1.48984 0
M  V30 1255 H 119.159 -2.31053 3.5241 0
M  V30 1256 H 117.834 -2.24717 2.32989 0
M  V30 1257 H 116.741 -0.3933 3.72027 0
M  V30 1258 H 118.074 -0.537036 4.89261 0
M  V30 1259 N 119.726 -1.57421 0.075193 0
M  V30 1260 C 120.972 -1.93905 -0.594025 0
M  V30 1261 C 121.305 -0.955701 -1.69056 0
M  V30 1262 O 120.58 0.0145373 -1.94495 0
M  V30 1263 C 120.863 -3.40638 -1.1678 0
M  V30 1264 C 120.716 -4.49733 -0.0776792 0
M  V30 1265 C 122.035 -3.88259 -2.07228 0
M  V30 1266 H 119.154 -0.705105 -0.214466 0
M  V30 1267 H 121.796 -1.8947 0.141854 0
M  V30 1268 H 119.946 -3.44549 -1.79494 0
M  V30 1269 H 121.618 -4.57942 0.555573 0
M  V30 1270 H 119.861 -4.29751 0.591286 0
M  V30 1271 H 120.532 -5.49549 -0.519603 0
M  V30 1272 H 123.008 -3.86376 -1.54445 0
M  V30 1273 H 121.884 -4.91533 -2.44308 0
M  V30 1274 H 122.145 -3.26396 -2.98191 0
M  V30 1275 N 121.204 0.198386 -1.56346 0
M  V30 1276 C 122.137 1.27381 -1.89339 0
M  V30 1277 C 123.115 1.44106 -0.753134 0
M  V30 1278 O 124.299 1.59549 -1.00381 0
M  V30 1279 C 121.426 2.6409 -2.12071 0
M  V30 1280 C 120.472 2.64253 -3.34772 0
M  V30 1281 S 121.305 2.16013 -4.89999 0
M  V30 1282 C 122.461 3.54553 -5.15794 0
M  V30 1283 H 122.694 0.992058 -2.8026 0
M  V30 1284 H 120.227 0.401726 -1.49082 0
M  V30 1285 H 122.185 3.42786 -2.2585 0
M  V30 1286 H 120.846 2.89478 -1.21906 0
M  V30 1287 H 120.039 3.64768 -3.47794 0
M  V30 1288 H 119.641 1.93637 -3.1997 0
M  V30 1289 H 121.933 4.50396 -5.06112 0
M  V30 1290 H 122.876 3.46428 -6.1757 0
M  V30 1291 H 123.284 3.49313 -4.43442 0
M  V30 1292 N 122.682 1.50554 0.465978 0
M  V30 1293 C 123.592 1.72585 1.58907 0
M  V30 1294 C 124.608 0.60911 1.6299 0
M  V30 1295 O 125.784 0.88804 1.80765 0
M  V30 1296 C 122.849 1.81995 2.95091 0
M  V30 1297 C 121.91 3.05751 3.01355 0
M  V30 1298 C 121.143 3.14702 4.31043 0
M  V30 1299 O 121.366 2.30313 5.21835 0
M  V30 1300 O 120.3 4.07468 4.43005 0
M  V30 1301 H 124.126 2.67799 1.43239 0
M  V30 1302 H 121.711 1.34711 0.646013 0
M  V30 1303 H 123.593 1.90335 3.75966 0
M  V30 1304 H 122.268 0.899659 3.10947 0
M  V30 1305 H 121.175 3.02908 2.19539 0
M  V30 1306 H 122.508 3.97375 2.90437 0
M  V30 1307 N 124.16 -0.719506 1.40217 0
M  V30 1308 C 125.107 -1.83359 1.40172 0
M  V30 1309 C 126.077 -1.64065 0.259206 0
M  V30 1310 O 127.262 -1.85254 0.456677 0
M  V30 1311 C 124.402 -3.2103 1.26624 0
M  V30 1312 C 123.515 -3.51923 2.50548 0
M  V30 1313 C 122.65 -4.79079 2.29471 0
M  V30 1314 C 121.689 -5.02863 3.48992 0
M  V30 1315 N 120.826 -6.2123 3.27135 0
M  V30 1316 H 125.666 -1.82733 2.35399 0
M  V30 1317 H 123.203 -0.892688 1.16917 0
M  V30 1318 H 125.161 -4.00524 1.16776 0
M  V30 1319 H 123.791 -3.20895 0.350176 0
M  V30 1320 H 122.843 -2.67014 2.70939 0
M  V30 1321 H 124.155 -3.6541 3.39525 0
M  V30 1322 H 123.309 -5.66582 2.16955 0
M  V30 1323 H 122.048 -4.67794 1.37913 0
M  V30 1324 H 121.053 -4.13816 3.6199 0
M  V30 1325 H 122.278 -5.16023 4.41472 0
M  V30 1326 H 120.224 -6.11204 2.38256 0
M  V30 1327 H 120.141 -6.35375 4.09675 0
M  V30 1328 H 121.409 -7.11532 3.18344 0
M  V30 1329 N 125.638 -1.25649 -0.95132 0
M  V30 1330 C 126.568 -1.08808 -2.06599 0
M  V30 1331 C 127.549 0.00382547 -1.701 0
M  V30 1332 O 128.734 -0.166325 -1.93486 0
M  V30 1333 C 125.864 -0.709542 -3.39975 0
M  V30 1334 C 124.818 -1.75206 -3.90496 0
M  V30 1335 C 124.144 -1.22811 -5.20405 0
M  V30 1336 C 125.444 -3.15153 -4.16504 0
M  V30 1337 H 127.138 -2.02048 -2.20946 0
M  V30 1338 H 124.684 -0.972835 -1.06169 0
M  V30 1339 H 126.637 -0.578649 -4.17408 0
M  V30 1340 H 125.361 0.258556 -3.25575 0
M  V30 1341 H 124.02 -1.87145 -3.15234 0
M  V30 1342 H 123.668 -0.250145 -5.02378 0
M  V30 1343 H 123.368 -1.92492 -5.55176 0
M  V30 1344 H 124.892 -1.10968 -6.00432 0
M  V30 1345 H 126.306 -3.06349 -4.84586 0
M  V30 1346 H 124.703 -3.82333 -4.62538 0
M  V30 1347 H 125.773 -3.61966 -3.22658 0
M  V30 1348 N 127.117 1.15442 -1.07289 0
M  V30 1349 C 128.366 1.85557 -0.790669 0
M  V30 1350 C 128.679 1.83186 0.685739 0
M  V30 1351 O 129.885 2.48977 1.0827 0
M  V30 1352 C 128.341 3.33038 -1.36433 0
M  V30 1353 C 127.949 3.43856 -2.8717 0
M  V30 1354 C 129.693 4.0834 -1.1601 0
M  V30 1355 C 127.6 4.85482 -3.3773 0
M  V30 1356 H 126.53 0.695122 -0.292098 0
M  V30 1357 H 129.181 1.30219 -1.29287 0
M  V30 1358 H 127.563 3.88043 -0.789864 0
M  V30 1359 H 128.737 2.98961 -3.50655 0
M  V30 1360 H 127.052 2.81998 -3.06376 0
M  V30 1361 H 129.649 5.12859 -1.51262 0
M  V30 1362 H 129.992 4.16182 -0.0991007 0
M  V30 1363 H 130.525 3.59603 -1.70089 0
M  V30 1364 H 127.264 4.82823 -4.43353 0
M  V30 1365 H 126.784 5.30961 -2.78999 0
M  V30 1366 H 128.463 5.54335 -3.33648 0
M  V30 1367 N 128.595 0.856903 1.32268 0
M  V30 1368 C 130.011 0.547061 1.49931 0
M  V30 1369 C 130.211 -0.921781 1.7918 0
M  V30 1370 O 129.267 -1.70469 1.8627 0
M  V30 1371 C 130.58 1.43599 2.64196 0
M  V30 1372 C 132.128 1.43665 2.78081 0
M  V30 1373 C 132.603 2.31085 3.95428 0
M  V30 1374 N 134.094 2.28893 4.02694 0
M  V30 1375 C 134.829 2.93262 4.92732 0
M  V30 1376 N 134.325 3.66751 5.87763 0
M  V30 1377 N 136.118 2.82638 4.85873 0
M  V30 1378 H 128.269 1.8075 1.11549 0
M  V30 1379 H 130.532 0.772144 0.549997 0
M  V30 1380 H 130.238 2.48058 2.49319 0
M  V30 1381 H 130.112 1.12502 3.60032 0
M  V30 1382 H 132.499 0.399701 2.92381 0
M  V30 1383 H 132.58 1.7878 1.82952 0
M  V30 1384 H 132.224 3.34849 3.81888 0
M  V30 1385 H 132.154 1.93302 4.89839 0
M  V30 1386 H 134.645 1.75466 3.34694 0
M  V30 1387 H 134.958 4.13027 6.53168 0
M  V30 1388 H 133.303 3.70859 5.87783 0
M  V30 1389 H 136.494 2.24774 4.10602 0
M  V30 1390 H 136.667 3.33084 5.55841 0
M  V30 1391 N 130.073 -1.45103 0.615059 0
M  V30 1392 C 130.983 -2.34382 -0.101034 0
M  V30 1393 C 131.999 -1.51681 -0.852585 0
M  V30 1394 O 133.175 -1.8446 -0.808484 0
M  V30 1395 C 130.24 -3.29417 -1.08099 0
M  V30 1396 C 129.301 -4.28025 -0.330577 0
M  V30 1397 C 128.534 -5.1852 -1.26385 0
M  V30 1398 O 128.757 -5.12598 -2.50198 0
M  V30 1399 O 127.691 -5.97122 -0.756866 0
M  V30 1400 H 131.517 -2.97033 0.632855 0
M  V30 1401 H 129.102 -1.4461 0.375293 0
M  V30 1402 H 130.984 -3.87958 -1.6452 0
M  V30 1403 H 129.659 -2.69321 -1.79577 0
M  V30 1404 H 128.566 -3.73078 0.276283 0
M  V30 1405 H 129.899 -4.90997 0.343866 0
M  V30 1406 N 131.551 -0.354651 -1.53558 0
M  V30 1407 C 132.514 0.484566 -2.24019 0
M  V30 1408 C 133.514 1.01861 -1.24422 0
M  V30 1409 O 134.704 0.906097 -1.4878 0
M  V30 1410 C 131.836 1.67615 -2.96847 0
M  V30 1411 H 133.029 -0.131843 -2.9961 0
M  V30 1412 H 130.582 -0.106165 -1.55939 0
M  V30 1413 H 131.317 2.33095 -2.25471 0
M  V30 1414 H 131.102 1.30029 -3.69912 0
M  V30 1415 H 132.592 2.27114 -3.50441 0
M  V30 1416 N 133.029 1.57378 -0.0835403 0
M  V30 1417 C 134.306 1.85363 0.624507 0
M  V30 1418 C 134.686 0.978239 1.87066 0
M  V30 1419 O 134.034 0.0475908 2.2845 0
M  V30 1420 C 134.244 3.35795 0.950947 0
M  V30 1421 C 135.592 4.03581 1.31939 0
M  V30 1422 O 136.616 3.40609 1.04232 0
M  V30 1423 O 135.475 5.14672 1.83779 0
M  V30 1424 H 132.569 0.766162 0.311329 0
M  V30 1425 H 135.115 1.69307 -0.115362 0
M  V30 1426 H 133.887 3.91244 0.0663899 0
M  V30 1427 H 133.51 3.57154 1.74719 0
M  V30 1428 N 134.507 -0.190092 1.56449 0
M  V30 1429 C 135.756 -0.907912 1.80111 0
M  V30 1430 C 136.069 -1.84214 0.657619 0
M  V30 1431 O 137.275 -2.60094 0.778663 0
M  V30 1432 C 135.731 -1.66485 3.19078 0
M  V30 1433 C 135.339 -0.7752 4.41242 0
M  V30 1434 C 137.083 -2.37201 3.52045 0
M  V30 1435 C 134.99 -1.53129 5.71231 0
M  V30 1436 H 133.92 -0.34276 0.671589 0
M  V30 1437 H 136.571 -0.161109 1.82791 0
M  V30 1438 H 134.953 -2.45572 3.10661 0
M  V30 1439 H 136.127 -0.0226298 4.60794 0
M  V30 1440 H 134.442 -0.178627 4.16017 0
M  V30 1441 H 137.039 -2.94329 4.46402 0
M  V30 1442 H 137.382 -3.11632 2.76028 0
M  V30 1443 H 137.915 -1.65075 3.61932 0
M  V30 1444 H 134.654 -0.82967 6.50228 0
M  V30 1445 H 134.174 -2.25767 5.55688 0
M  V30 1446 H 135.853 -2.08377 6.12526 0
M  V30 1447 N 135.985 -1.50799 -0.457987 0
M  V30 1448 C 136.915 -1.73553 -1.5621 0
M  V30 1449 C 137.896 -0.584774 -1.59732 0
M  V30 1450 O 139.081 -0.825314 -1.7579 0
M  V30 1451 C 136.211 -1.84169 -2.94447 0
M  V30 1452 C 135.165 -2.99461 -3.0579 0
M  V30 1453 C 134.491 -2.95235 -4.45803 0
M  V30 1454 C 135.791 -4.39766 -2.81786 0
M  V30 1455 H 137.485 -2.66 -1.37421 0
M  V30 1456 H 135.031 -1.28002 -0.659662 0
M  V30 1457 H 136.984 -1.98672 -3.71628 0
M  V30 1458 H 135.708 -0.883545 -3.14422 0
M  V30 1459 H 134.367 -2.8463 -2.31044 0
M  V30 1460 H 134.015 -1.97239 -4.62715 0
M  V30 1461 H 133.715 -3.72642 -4.54326 0
M  V30 1462 H 135.239 -3.11803 -5.24987 0
M  V30 1463 H 136.653 -4.55054 -3.4871 0
M  V30 1464 H 135.05 -5.18722 -3.0174 0
M  V30 1465 H 136.12 -4.51229 -1.7754 0
M  V30 1466 N 137.463 0.71206 -1.40597 0
M  V30 1467 C 138.709 1.47416 -1.39271 0
M  V30 1468 C 139.042 1.942 0.00388791 0
M  V30 1469 O 138.317 1.68403 0.973179 0
M  V30 1470 C 138.6 2.69774 -2.38525 0
M  V30 1471 C 138.453 2.28861 -3.87224 0
M  V30 1472 C 139.772 3.71939 -2.35264 0
M  V30 1473 H 136.891 0.534713 -0.5072 0
M  V30 1474 H 139.533 0.812375 -1.71757 0
M  V30 1475 H 137.683 3.26238 -2.10953 0
M  V30 1476 H 139.355 1.77852 -4.25636 0
M  V30 1477 H 137.598 1.60824 -4.02887 0
M  V30 1478 H 138.269 3.16584 -4.52193 0
M  V30 1479 H 140.745 3.25113 -2.59694 0
M  V30 1480 H 139.621 4.55186 -3.06753 0
M  V30 1481 H 139.882 4.20484 -1.36549 0
M  V30 1482 N 138.941 1.26152 0.944643 0
M  V30 1483 C 139.851 1.09176 2.07648 0
M  V30 1484 C 140.867 0.0261935 1.7398 0
M  V30 1485 O 142.043 0.229208 2.00091 0
M  V30 1486 C 139.108 0.722915 3.39079 0
M  V30 1487 C 138.169 1.86752 3.86552 0
M  V30 1488 C 137.402 1.51617 5.11711 0
M  V30 1489 O 137.625 0.416331 5.68879 0
M  V30 1490 O 136.559 2.34975 5.54139 0
M  V30 1491 H 140.385 2.0412 2.24875 0
M  V30 1492 H 137.97 1.05182 1.061 0
M  V30 1493 H 139.852 0.529787 4.18056 0
M  V30 1494 H 138.527 -0.197159 3.23099 0
M  V30 1495 H 137.434 2.11558 3.08535 0
M  V30 1496 H 138.767 2.76719 4.07047 0
M  V30 1497 N 140.419 -1.14872 1.07899 0
M  V30 1498 C 141.367 -2.21857 0.698727 0
M  V30 1499 C 142.361 -1.66845 -0.293086 0
M  V30 1500 O 143.567 -1.79321 -0.156204 0
M  V30 1501 H 139.942 -0.722691 0.207899 0
M  V30 1502 H 141.913 -2.51205 1.61054 0
M  V30 1503 C 140.662 -3.47498 0.11858 0
M  V30 1504 H 139.985 -3.90154 0.872914 0
M  V30 1505 H 141.425 -4.23858 -0.109759 0
M  V30 1506 C 139.884 -3.16947 -1.1422 0
M  V30 1507 O 140.414 -3.3426 -2.22785 0
M  V30 1508 N 138.62 -2.70946 -1.05055 0
M  V30 1509 H 138.167 -2.57058 -0.167038 0
M  V30 1510 H 138.125 -2.50879 -1.89491 0
M  V30 1511 N 141.898 -0.863906 -1.31812 0
M  V30 1512 C 143.145 -0.471836 -1.96926 0
M  V30 1513 C 143.473 0.974578 -1.68322 0
M  V30 1514 O 142.728 1.7003 -0.968933 0
M  V30 1515 C 143.027 -0.668547 -3.51091 0
M  V30 1516 C 142.693 -2.08683 -3.99703 0
M  V30 1517 C 141.355 -2.47471 -4.12688 0
M  V30 1518 C 143.707 -3.01207 -4.25351 0
M  V30 1519 C 141.035 -3.78037 -4.4867 0
M  V30 1520 C 143.387 -4.31282 -4.62794 0
M  V30 1521 C 142.051 -4.69992 -4.73987 0
M  V30 1522 H 141.321 -0.172657 -0.720604 0
M  V30 1523 H 143.968 -1.09573 -1.57054 0
M  V30 1524 H 142.273 0.0385252 -3.91781 0
M  V30 1525 H 143.97 -0.345102 -3.99512 0
M  V30 1526 H 140.56 -1.77566 -3.90087 0
M  V30 1527 H 144.744 -2.72469 -4.14819 0
M  V30 1528 H 140 -4.078 -4.55532 0
M  V30 1529 H 144.174 -5.03031 -4.81594 0
M  V30 1530 H 141.801 -5.71207 -5.01624 0
M  V30 1531 N 143.376 1.44774 -0.622745 0
M  V30 1532 C 144.326 2.2774 0.108889 0
M  V30 1533 C 145.31 1.38189 0.824175 0
M  V30 1534 O 146.502 1.62063 0.711664 0
M  V30 1535 C 143.631 3.25353 1.09546 0
M  V30 1536 C 142.717 4.22392 0.380232 0
M  V30 1537 N 143.108 5.02388 -0.586535 0
M  V30 1538 C 141.406 4.41588 0.625792 0
M  V30 1539 C 142.107 5.72894 -1.00834 0
M  V30 1540 N 141.083 5.42479 -0.348878 0
M  V30 1541 H 144.885 2.86993 -0.63341 0
M  V30 1542 H 142.399 1.5611 -0.447589 0
M  V30 1543 H 144.396 3.83538 1.63414 0
M  V30 1544 H 143.056 2.6766 1.83815 0
M  V30 1545 H 144.067 5.0885 -0.963975 0
M  V30 1546 H 140.744 3.95003 1.352 0
M  V30 1547 H 142.134 6.47158 -1.80656 0
M  V30 1548 N 144.854 0.36279 1.53368 0
M  V30 1549 C 146.265 -0.117022 1.86333 0
M  V30 1550 C 146.616 -1.48397 1.28347 0
M  V30 1551 O 145.741 -2.07787 0.604428 0
M  V30 1552 C 146.336 -0.21912 3.38091 0
M  V30 1553 C 144.895 -0.643184 3.70864 0
M  V30 1554 C 144.042 0.211318 2.76494 0
M  V30 1555 H 146.993 0.581687 1.47655 0
M  V30 1556 H 147.014 -1.04319 3.6592 0
M  V30 1557 H 146.526 0.775902 3.80265 0
M  V30 1558 H 144.627 -1.64654 3.34245 0
M  V30 1559 H 144.74 -0.41973 4.77258 0
M  V30 1560 H 143.104 -0.319367 2.5269 0
M  V30 1561 H 143.887 1.20383 3.21501 0
M  V30 1562 N 146.332 -1.57332 0.0918853 0
M  V30 1563 C 147.58 -1.93853 -0.571446 0
M  V30 1564 C 147.901 -0.974212 -1.6892 0
M  V30 1565 O 147.171 -0.0257254 -1.95883 0
M  V30 1566 H 145.751 -0.715666 -0.214082 0
M  V30 1567 H 148.413 -1.94287 0.154464 0
M  V30 1568 H 147.509 -2.96191 -0.983729 0
M  V30 1569 N 147.81 0.181792 -1.56548 0
M  V30 1570 C 148.773 1.20894 -1.94724 0
M  V30 1571 C 149.773 1.37738 -0.829747 0
M  V30 1572 O 150.963 1.35323 -1.09697 0
M  V30 1573 C 148.095 2.57593 -2.23291 0
M  V30 1574 H 149.288 0.882275 -2.86629 0
M  V30 1575 H 146.841 0.423838 -1.50444 0
M  V30 1576 H 147.576 2.95291 -1.34067 0
M  V30 1577 H 147.361 2.46735 -3.04736 0
M  V30 1578 H 148.851 3.31637 -2.53785 0
M  V30 1579 N 149.288 1.51039 0.449983 0
M  V30 1580 C 150.537 1.62317 1.19733 0
M  V30 1581 C 150.85 0.339101 1.92638 0
M  V30 1582 O 152.056 0.331069 2.69474 0
M  V30 1583 C 150.512 2.86608 2.17678 0
M  V30 1584 C 150.12 4.21972 1.50479 0
M  V30 1585 C 151.864 3.07239 2.92924 0
M  V30 1586 C 149.771 5.37426 2.46834 0
M  V30 1587 H 148.701 0.604532 0.450619 0
M  V30 1588 H 151.352 1.77494 0.465625 0
M  V30 1589 H 149.734 2.65037 2.94231 0
M  V30 1590 H 150.908 4.53878 0.795716 0
M  V30 1591 H 149.223 4.07117 0.874344 0
M  V30 1592 H 151.82 3.90668 3.65079 0
M  V30 1593 H 152.163 2.19807 3.5354 0
M  V30 1594 H 152.696 3.29091 2.23481 0
M  V30 1595 H 149.435 6.27079 1.90926 0
M  V30 1596 H 148.955 5.09912 3.15832 0
M  V30 1597 H 150.634 5.68862 3.08228 0
M  V30 1598 N 150.766 -0.704594 1.40972 0
M  V30 1599 C 152.043 -1.45847 1.30338 0
M  V30 1600 C 152.423 -2.10973 -0.0732344 0
M  V30 1601 O 151.771 -2.00997 -1.08685 0
M  V30 1602 C 151.981 -2.48525 2.45023 0
M  V30 1603 C 153.329 -3.1404 2.8577 0
M  V30 1604 O 154.353 -2.58848 2.44696 0
M  V30 1605 O 153.212 -4.13981 3.56766 0
M  V30 1606 H 150.306 -0.649092 0.512454 0
M  V30 1607 H 152.852 -0.735836 1.52917 0
M  V30 1608 H 151.624 -1.98994 3.36923 0
M  V30 1609 H 151.247 -3.2831 2.24272 0
M  V30 1610 N 152.244 -1.26651 -0.937939 0
M  V30 1611 C 153.194 -1.05156 -2.02302 0
M  V30 1612 C 154.178 0.0171233 -1.60891 0
M  V30 1613 O 155.37 -0.200213 -1.75864 0
M  V30 1614 C 152.499 -0.689962 -3.36295 0
M  V30 1615 C 151.585 -1.79626 -3.84181 0
M  V30 1616 N 151.976 -3.03422 -4.04684 0
M  V30 1617 C 150.274 -1.6806 -4.13124 0
M  V30 1618 C 150.975 -3.75345 -4.444 0
M  V30 1619 N 149.951 -3.03051 -4.51288 0
M  V30 1620 H 153.753 -1.99117 -2.1617 0
M  V30 1621 H 151.267 -1.17216 -1.12402 0
M  V30 1622 H 153.264 -0.517112 -4.13681 0
M  V30 1623 H 151.924 0.242139 -3.23796 0
M  V30 1624 H 152.935 -3.39293 -3.91281 0
M  V30 1625 H 149.612 -0.818629 -4.09396 0
M  V30 1626 H 151.002 -4.81691 -4.68427 0
M  V30 1627 N 153.722 1.14298 -1.08507 0
M  V30 1628 C 154.655 2.18447 -0.660004 0
M  V30 1629 C 155.633 1.59242 0.328749 0
M  V30 1630 O 156.817 1.87062 0.232367 0
M  V30 1631 C 153.944 3.38688 0.0290807 0
M  V30 1632 C 152.99 4.1646 -0.919982 0
M  V30 1633 S 153.823 4.77334 -2.42718 0
M  V30 1634 C 154.979 6.00931 -1.75024 0
M  V30 1635 H 155.212 2.54166 -1.54231 0
M  V30 1636 H 152.745 1.25446 -0.900149 0
M  V30 1637 H 154.703 4.08342 0.420378 0
M  V30 1638 H 153.364 3.01289 0.887895 0
M  V30 1639 H 152.557 5.02529 -0.384751 0
M  V30 1640 H 152.159 3.52414 -1.25223 0
M  V30 1641 H 154.451 6.69017 -1.06877 0
M  V30 1642 H 155.394 6.59044 -2.58971 0
M  V30 1643 H 155.802 5.51089 -1.22317 0
M  V30 1644 N 155.201 0.870884 1.31352 0
M  V30 1645 C 156.449 0.48132 1.96285 0
M  V30 1646 C 156.77 -0.969813 1.69173 0
M  V30 1647 O 156.04 -1.67998 1.00764 0
M  V30 1648 H 154.62 0.175002 0.726212 0
M  V30 1649 H 157.282 1.11087 1.60143 0
M  V30 1650 H 156.378 0.639825 3.05471 0
M  V30 1651 N 156.679 -1.44442 0.630414 0
M  V30 1652 C 157.926 -2.02052 0.134617 0
M  V30 1653 C 158.254 -1.49576 -1.24327 0
M  V30 1654 O 157.509 -0.669806 -1.83881 0
M  V30 1655 C 157.808 -3.57332 0.0697835 0
M  V30 1656 C 157.474 -4.29058 1.38635 0
M  V30 1657 C 156.136 -4.4837 1.74694 0
M  V30 1658 C 158.488 -4.69872 2.25543 0
M  V30 1659 C 155.816 -5.05756 2.97369 0
M  V30 1660 C 158.168 -5.28616 3.47487 0
M  V30 1661 C 156.832 -5.46147 3.8377 0
M  V30 1662 H 156.102 -0.739361 0.0492598 0
M  V30 1663 H 158.749 -1.73217 0.816586 0
M  V30 1664 H 157.054 -3.85577 -0.695553 0
M  V30 1665 H 158.751 -3.99637 -0.330344 0
M  V30 1666 H 155.341 -4.14357 1.09574 0
M  V30 1667 H 159.525 -4.54666 1.98979 0
M  V30 1668 H 154.781 -5.17515 3.25558 0
M  V30 1669 H 158.955 -5.59192 4.15063 0
M  V30 1670 H 156.582 -5.9038 4.7891 0
M  V30 1671 N 158.157 -0.370918 -1.53173 0
M  V30 1672 C 159.385 0.217704 -2.05751 0
M  V30 1673 C 159.8 1.42018 -1.24404 0
M  V30 1674 O 159.157 1.80245 -0.286033 0
M  V30 1675 C 159.208 0.605954 -3.56385 0
M  V30 1676 O 158.929 -0.548734 -4.3465 0
M  V30 1677 C 160.43 1.2524 -4.25241 0
M  V30 1678 H 157.65 0.0371659 -0.66997 0
M  V30 1679 H 160.194 -0.530832 -1.9749 0
M  V30 1680 H 158.349 1.3044 -3.6478 0
M  V30 1681 H 158.763 -0.23376 -5.23979 0
M  V30 1682 H 160.237 1.47458 -5.3194 0
M  V30 1683 H 160.714 2.2143 -3.79296 0
M  V30 1684 H 161.32 0.595233 -4.21114 0
M  V30 1685 N 159.635 1.57281 -0.100228 0
M  V30 1686 C 160.881 1.95626 0.556946 0
M  V30 1687 C 161.236 0.981655 1.65473 0
M  V30 1688 O 160.529 0.00849847 1.91598 0
M  V30 1689 C 160.723 3.38305 1.15259 0
M  V30 1690 C 160.552 4.49555 0.114035 0
M  V30 1691 C 159.322 5.0434 -0.311266 0
M  V30 1692 C 161.52 5.10051 -0.659768 0
M  V30 1693 N 159.502 5.99152 -1.33755 0
M  V30 1694 C 160.873 6.00628 -1.53774 0
M  V30 1695 C 162.928 4.92772 -0.712723 0
M  V30 1696 C 161.631 6.7578 -2.46403 0
M  V30 1697 C 163.657 5.6859 -1.62663 0
M  V30 1698 C 163.019 6.58838 -2.49222 0
M  V30 1699 H 159.118 0.7624 0.173982 0
M  V30 1700 H 161.702 1.93829 -0.183988 0
M  V30 1701 H 159.873 3.40786 1.86332 0
M  V30 1702 H 161.605 3.63817 1.77254 0
M  V30 1703 H 158.36 4.73537 0.0774812 0
M  V30 1704 H 158.784 6.5126 -1.84905 0
M  V30 1705 H 163.426 4.22761 -0.0576648 0
M  V30 1706 H 161.144 7.4505 -3.12931 0
M  V30 1707 H 164.73 5.57233 -1.67281 0
M  V30 1708 H 163.61 7.16479 -3.18791 0
M  V30 1709 N 161.113 -0.173488 1.56642 0
M  V30 1710 C 162.023 -1.23482 1.99473 0
M  V30 1711 C 163.039 -1.48567 0.905752 0
M  V30 1712 O 164.215 -1.60758 1.21321 0
M  V30 1713 C 161.28 -2.55444 2.34413 0
M  V30 1714 C 160.341 -2.38241 3.57127 0
M  V30 1715 C 159.574 -3.63909 3.90392 0
M  V30 1716 O 159.797 -4.68996 3.24653 0
M  V30 1717 O 158.731 -3.58149 4.83749 0
M  V30 1718 H 162.557 -0.901279 2.90018 0
M  V30 1719 H 160.142 -0.380185 1.44482 0
M  V30 1720 H 162.024 -3.33292 2.57865 0
M  V30 1721 H 160.699 -2.88382 1.4703 0
M  V30 1722 H 159.606 -1.58431 3.38896 0
M  V30 1723 H 160.939 -2.10228 4.45045 0
M  V30 1724 N 162.591 -1.51276 -0.441967 0
M  V30 1725 C 163.541 -1.6864 -1.53442 0
M  V30 1726 C 164.525 -0.540444 -1.51552 0
M  V30 1727 O 165.717 -0.796157 -1.58083 0
M  V30 1728 C 162.846 -1.8106 -2.91672 0
M  V30 1729 C 161.932 -3.01424 -2.98336 0
M  V30 1730 N 162.323 -4.2467 -2.74752 0
M  V30 1731 C 160.621 -3.00584 -3.29493 0
M  V30 1732 C 161.322 -5.05891 -2.87139 0
M  V30 1733 N 160.298 -4.40442 -3.18609 0
M  V30 1734 H 164.1 -2.61598 -1.33954 0
M  V30 1735 H 161.614 -1.4886 -0.6492 0
M  V30 1736 H 163.611 -1.91609 -3.70259 0
M  V30 1737 H 162.271 -0.892795 -3.12185 0
M  V30 1738 H 163.282 -4.53691 -2.49769 0
M  V30 1739 H 159.959 -2.18417 -3.55809 0
M  V30 1740 H 161.349 -6.13983 -2.72899 0
M  V30 1741 N 164.069 0.697108 -1.41344 0
M  V30 1742 C 165.318 1.45279 -1.39918 0
M  V30 1743 C 165.631 1.95597 -0.0109624 0
M  V30 1744 O 166.837 2.71208 0.125919 0
M  V30 1745 C 165.293 2.62695 -2.46007 0
M  V30 1746 C 164.901 2.19169 -3.90729 0
M  V30 1747 C 166.645 3.40336 -2.53715 0
M  V30 1748 C 164.552 3.33535 -4.88373 0
M  V30 1749 H 163.482 0.545692 -0.520323 0
M  V30 1750 H 166.133 0.756929 -1.67161 0
M  V30 1751 H 164.515 3.34541 -2.11892 0
M  V30 1752 H 165.689 1.54623 -4.34083 0
M  V30 1753 H 164.004 1.54525 -3.86666 0
M  V30 1754 H 166.601 4.2547 -3.2385 0
M  V30 1755 H 166.944 3.85418 -1.5735 0
M  V30 1756 H 167.477 2.75546 -2.86913 0
M  V30 1757 H 164.216 2.93468 -5.86137 0
M  V30 1758 H 163.736 3.96936 -4.49668 0
M  V30 1759 H 165.415 3.99335 -5.09059 0
M  V30 1760 N 165.547 1.27147 0.931209 0
M  V30 1761 C 166.479 1.05364 2.03546 0
M  V30 1762 C 167.492 0.0108438 1.62796 0
M  V30 1763 O 168.681 0.25202 1.76712 0
M  V30 1764 C 165.781 0.575566 3.33977 0
M  V30 1765 C 164.954 1.68985 4.03439 0
M  V30 1766 C 164.013 1.20813 5.12143 0
M  V30 1767 O 163.039 1.90712 5.363 0
M  V30 1768 N 164.241 0.0618851 5.80467 0
M  V30 1769 H 167.006 2.00454 2.22796 0
M  V30 1770 H 164.567 1.18666 1.10136 0
M  V30 1771 H 166.559 0.237264 4.04004 0
M  V30 1772 H 165.129 -0.282016 3.11325 0
M  V30 1773 H 164.349 2.19861 3.27192 0
M  V30 1774 H 165.637 2.4378 4.46597 0
M  V30 1775 H 165.035 -0.521621 5.6329 0
M  V30 1776 H 163.592 -0.217264 6.51438 0
M  V30 1777 N 167.025 -1.13721 1.09112 0
M  V30 1778 C 167.935 -2.22638 0.73957 0
M  V30 1779 C 168.951 -1.72091 -0.257068 0
M  V30 1780 O 170.127 -2.01155 -0.0992154 0
M  V30 1781 C 167.192 -3.46322 0.16191 0
M  V30 1782 C 166.253 -4.11775 1.21408 0
M  V30 1783 C 165.486 -5.29555 0.663891 0
M  V30 1784 O 165.709 -5.68077 -0.514274 0
M  V30 1785 O 164.643 -5.84973 1.41738 0
M  V30 1786 H 168.469 -2.55074 1.64836 0
M  V30 1787 H 166.054 -1.21791 0.865289 0
M  V30 1788 H 167.936 -4.21107 -0.157073 0
M  V30 1789 H 166.611 -3.15593 -0.719932 0
M  V30 1790 H 165.518 -3.3883 1.58571 0
M  V30 1791 H 166.851 -4.46627 2.06845 0
M  V30 1792 N 168.503 -0.877838 -1.30888 0
M  V30 1793 C 169.752 -0.488793 -1.95688 0
M  V30 1794 C 170.065 0.965485 -1.70111 0
M  V30 1795 O 171.271 1.46104 -2.28836 0
M  V30 1796 C 169.727 -0.823201 -3.50359 0
M  V30 1797 C 169.335 -2.29477 -3.84765 0
M  V30 1798 C 171.079 -0.503009 -4.21509 0
M  V30 1799 C 168.986 -2.57118 -5.32583 0
M  V30 1800 H 167.916 -0.179062 -0.732429 0
M  V30 1801 H 170.567 -1.07183 -1.48943 0
M  V30 1802 H 168.949 -0.169331 -3.95638 0
M  V30 1803 H 170.123 -2.99236 -3.5042 0
M  V30 1804 H 168.438 -2.58178 -3.267 0
M  V30 1805 H 171.035 -0.68665 -5.30273 0
M  V30 1806 H 171.378 0.557109 -4.12555 0
M  V30 1807 H 171.911 -1.11376 -3.8189 0
M  V30 1808 H 168.65 -3.61843 -5.4658 0
M  V30 1809 H 168.17 -1.91961 -5.68253 0
M  V30 1810 H 169.849 -2.42251 -5.99936 0
M  V30 1811 N 169.982 1.44106 -0.638065 0
M  V30 1812 C 170.93 2.3248 0.0748149 0
M  V30 1813 C 171.924 1.47746 0.828702 0
M  V30 1814 O 173.13 1.64049 0.740816 0
M  V30 1815 H 169.505 0.750771 0.0429686 0
M  V30 1816 H 171.476 2.90348 -0.688504 0
M  V30 1817 C 170.225 3.31843 1.03805 0
M  V30 1818 H 169.548 3.97059 0.467375 0
M  V30 1819 H 170.988 3.96345 1.50622 0
M  V30 1820 C 169.447 2.61291 2.1267 0
M  V30 1821 O 169.977 2.41702 3.20847 0
M  V30 1822 N 168.183 2.20915 1.88798 0
M  V30 1823 H 167.73 2.37047 1.00829 0
M  V30 1824 H 167.688 1.74038 2.61836 0
M  V30 1825 N 171.46 0.379036 1.52974 0
M  V30 1826 C 172.871 -0.0972525 1.86447 0
M  V30 1827 C 173.222 -1.47027 1.29914 0
M  V30 1828 O 172.347 -2.07135 0.626433 0
M  V30 1829 C 172.942 -0.183248 3.38304 0
M  V30 1830 C 171.501 -0.603812 3.71525 0
M  V30 1831 C 170.648 0.240632 2.76254 0
M  V30 1832 H 173.599 0.597316 1.4703 0
M  V30 1833 H 173.62 -1.00432 3.67006 0
M  V30 1834 H 173.132 0.816191 3.79421 0
M  V30 1835 H 171.233 -1.61099 3.35973 0
M  V30 1836 H 171.346 -0.369086 4.77676 0
M  V30 1837 H 169.71 -0.292548 2.53014 0
M  V30 1838 H 170.493 1.23786 3.20206 0
M  V30 1839 N 172.938 -1.57226 0.108567 0
M  V30 1840 C 174.354 -1.5766 -0.248058 0
M  V30 1841 C 174.554 -1.12063 -1.67464 0
M  V30 1842 O 173.61 -0.803236 -2.39383 0
M  V30 1843 C 174.923 -3.0069 -0.0242287 0
M  V30 1844 C 176.471 -3.12868 -0.0909372 0
M  V30 1845 C 176.946 -4.57879 0.105067 0
M  V30 1846 N 178.437 -4.63172 0.0506846 0
M  V30 1847 C 179.172 -5.73126 0.177396 0
M  V30 1848 N 178.668 -6.91866 0.359696 0
M  V30 1849 N 180.461 -5.61977 0.117709 0
M  V30 1850 H 172.612 -1.85169 1.04049 0
M  V30 1851 H 174.875 -0.85529 0.40888 0
M  V30 1852 H 174.581 -3.38299 0.961604 0
M  V30 1853 H 174.455 -3.6945 -0.76068 0
M  V30 1854 H 176.842 -2.75124 -1.06729 0
M  V30 1855 H 176.923 -2.46672 0.677225 0
M  V30 1856 H 176.567 -4.96321 1.07834 0
M  V30 1857 H 176.497 -5.22153 -0.682954 0
M  V30 1858 H 178.988 -3.778 -0.0871266 0
M  V30 1859 H 179.301 -7.71503 0.447529 0
M  V30 1860 H 177.646 -6.93874 0.395536 0
M  V30 1861 H 180.837 -4.68094 -0.0236741 0
M  V30 1862 H 181.01 -6.47627 0.219905 0
M  V30 1863 N 174.416 0.165178 -1.56732 0
M  V30 1864 C 175.346 1.20651 -1.99914 0
M  V30 1865 C 176.327 1.45827 -0.875705 0
M  V30 1866 O 177.512 1.57057 -1.14223 0
M  V30 1867 C 174.642 2.54401 -2.36427 0
M  V30 1868 C 173.596 2.43782 -3.51787 0
M  V30 1869 C 172.922 3.82078 -3.7406 0
M  V30 1870 C 174.222 1.93732 -4.85041 0
M  V30 1871 H 175.916 0.847534 -2.87154 0
M  V30 1872 H 173.462 0.40625 -1.38151 0
M  V30 1873 H 175.415 3.27458 -2.65234 0
M  V30 1874 H 174.139 2.92098 -1.46103 0
M  V30 1875 H 172.798 1.73178 -3.23117 0
M  V30 1876 H 172.446 4.17179 -2.81017 0
M  V30 1877 H 172.146 3.7584 -4.51684 0
M  V30 1878 H 173.67 4.56712 -4.05274 0
M  V30 1879 H 175.084 2.56569 -5.12684 0
M  V30 1880 H 173.481 1.98428 -5.66345 0
M  V30 1881 H 174.551 0.891962 -4.76626 0
M  V30 1882 N 175.894 1.51508 0.433938 0
M  V30 1883 C 177.143 1.63578 1.18005 0
M  V30 1884 C 177.456 0.359514 1.92268 0
M  V30 1885 O 178.662 0.359632 2.69108 0
M  V30 1886 C 177.118 2.88901 2.14626 0
M  V30 1887 C 176.726 4.23544 1.45995 0
M  V30 1888 C 178.47 3.10328 2.89649 0
M  V30 1889 C 176.377 5.40014 2.4112 0
M  V30 1890 H 175.307 0.609277 0.444182 0
M  V30 1891 H 177.958 1.77978 0.446773 0
M  V30 1892 H 176.34 2.68142 2.91403 0
M  V30 1893 H 177.514 4.54696 0.747532 0
M  V30 1894 H 175.829 4.08021 0.831115 0
M  V30 1895 H 178.426 3.94518 3.60915 0
M  V30 1896 H 178.769 2.23544 3.51189 0
M  V30 1897 H 179.302 3.31443 2.19978 0
M  V30 1898 H 176.041 6.29068 1.84264 0
M  V30 1899 H 175.561 5.13233 3.10406 0
M  V30 1900 H 177.24 5.72099 3.02177 0
M  V30 1901 N 177.372 -0.689602 1.41712 0
M  V30 1902 C 178.619 -1.44966 1.4139 0
M  V30 1903 C 178.947 -1.94484 0.025105 0
M  V30 1904 O 178.202 -1.70307 -0.964048 0
M  V30 1905 C 178.501 -2.67298 2.37247 0
M  V30 1906 C 178.167 -2.36405 3.83958 0
M  V30 1907 C 176.829 -2.27691 4.23923 0
M  V30 1908 C 179.181 -2.11043 4.76561 0
M  V30 1909 C 176.509 -1.91719 5.54492 0
M  V30 1910 C 178.861 -1.76578 6.07456 0
M  V30 1911 C 177.525 -1.66363 6.46436 0
M  V30 1912 H 176.795 -0.53047 0.517381 0
M  V30 1913 H 179.442 -0.787655 1.74552 0
M  V30 1914 H 177.747 -3.38461 1.9736 0
M  V30 1915 H 179.444 -3.25452 2.34269 0
M  V30 1916 H 176.034 -2.44085 3.52308 0
M  V30 1917 H 180.218 -2.16717 4.46483 0
M  V30 1918 H 175.474 -1.82367 5.83568 0
M  V30 1919 H 179.648 -1.55974 6.78708 0
M  V30 1920 H 177.275 -1.38258 7.47522 0
M  V30 1921 N 178.85 -1.27639 -0.924453 0
M  V30 1922 C 180.098 -1.13941 -1.66918 0
M  V30 1923 C 180.419 0.314589 -1.92446 0
M  V30 1924 O 179.689 1.21964 -1.53303 0
M  V30 1925 H 178.269 -0.418678 -0.618642 0
M  V30 1926 H 180.931 -1.60213 -1.10985 0
M  V30 1927 H 180.027 -1.67094 -2.63602 0
M  V30 1928 N 180.328 1.1314 -1.09713 0
M  V30 1929 C 181.553 1.88862 -0.857081 0
M  V30 1930 C 181.978 1.78729 0.586304 0
M  V30 1931 O 181.336 1.13692 1.41222 0
M  V30 1932 C 181.384 3.36325 -1.30069 0
M  V30 1933 O 180.488 4.09815 -0.461007 0
M  V30 1934 H 179.829 0.587108 -0.310162 0
M  V30 1935 H 182.359 1.43129 -1.46203 0
M  V30 1936 H 182.369 3.87157 -1.28738 0
M  V30 1937 H 181.044 3.43017 -2.35185 0
M  V30 1938 H 179.621 3.68986 -0.538888 0
M  V30 1939 N 181.806 0.884767 1.30421 0
M  V30 1940 C 183.055 0.499164 1.95426 0
M  V30 1941 C 183.368 -0.95645 1.70621 0
M  V30 1942 O 184.574 -1.44889 2.29607 0
M  V30 1943 C 183.03 0.84177 3.49917 0
M  V30 1944 C 182.638 2.31514 3.83543 0
M  V30 1945 C 184.382 0.525355 4.21237 0
M  V30 1946 C 182.289 2.59939 5.31212 0
M  V30 1947 H 181.219 0.182944 0.73147 0
M  V30 1948 H 183.87 1.07971 1.48373 0
M  V30 1949 H 182.252 0.190311 3.95542 0
M  V30 1950 H 183.426 3.0109 3.48829 0
M  V30 1951 H 181.741 2.59907 3.25326 0
M  V30 1952 H 184.338 0.714762 5.29901 0
M  V30 1953 H 184.681 -0.535222 4.12845 0
M  V30 1954 H 185.214 1.134 3.81294 0
M  V30 1955 H 181.953 3.64736 5.44654 0
M  V30 1956 H 181.473 1.94972 5.67227 0
M  V30 1957 H 183.152 2.45429 5.98643 0
M  V30 1958 N 183.284 -1.43765 0.645699 0
M  V30 1959 C 184.231 -2.30745 -0.0504648 0
M  V30 1960 C 185.201 -1.4432 -0.822241 0
M  V30 1961 O 186.386 -1.73202 -0.800358 0
M  V30 1962 C 183.526 -3.29802 -1.0161 0
M  V30 1963 C 182.639 -4.31326 -0.241219 0
M  V30 1964 C 181.774 -5.17469 -1.19998 0
M  V30 1965 C 180.813 -6.10691 -0.415094 0
M  V30 1966 N 179.95 -6.89483 -1.32506 0
M  V30 1967 H 184.79 -2.8973 0.697155 0
M  V30 1968 H 182.327 -1.42738 0.355563 0
M  V30 1969 H 184.285 -3.85734 -1.58949 0
M  V30 1970 H 182.915 -2.72483 -1.73069 0
M  V30 1971 H 181.967 -3.77749 0.448334 0
M  V30 1972 H 183.279 -4.9743 0.369437 0
M  V30 1973 H 182.433 -5.7799 -1.84424 0
M  V30 1974 H 181.172 -4.51473 -1.84455 0
M  V30 1975 H 180.177 -5.49265 0.242565 0
M  V30 1976 H 181.402 -6.78727 0.224966 0
M  V30 1977 H 179.348 -6.26142 -1.95657 0
M  V30 1978 H 179.265 -7.52081 -0.768783 0
M  V30 1979 H 180.533 -7.54516 -1.9577 0
M  V30 1980 N 184.763 -0.387143 -1.52771 0
M  V30 1981 C 186.011 0.195349 -2.01154 0
M  V30 1982 C 186.332 1.475 -1.27549 0
M  V30 1983 O 185.602 1.91878 -0.394924 0
M  V30 1984 H 184.182 0.075178 -0.743207 0
M  V30 1985 H 186.844 -0.518337 -1.87881 0
M  V30 1986 H 185.94 0.407096 -3.09434 0
M  V30 1987 N 186.241 1.57166 -0.116904 0
M  V30 1988 C 187.488 1.95123 0.541603 0
M  V30 1989 C 187.816 1.00006 1.6682 0
M  V30 1990 O 187.071 0.0235658 1.95686 0
M  V30 1991 C 187.37 3.39508 1.11664 0
M  V30 1992 C 187.036 4.50762 0.111606 0
M  V30 1993 C 185.698 4.80918 -0.164758 0
M  V30 1994 C 188.05 5.18036 -0.573438 0
M  V30 1995 C 185.378 5.75666 -1.13249 0
M  V30 1996 C 187.73 6.13824 -1.52978 0
M  V30 1997 C 186.394 6.42374 -1.81415 0
M  V30 1998 H 185.664 0.714005 0.198187 0
M  V30 1999 H 188.311 1.9048 -0.197365 0
M  V30 2000 H 186.616 3.40835 1.93232 0
M  V30 2001 H 188.313 3.66189 1.63422 0
M  V30 2002 H 184.903 4.27272 0.337192 0
M  V30 2003 H 189.087 4.94896 -0.373092 0
M  V30 2004 H 184.343 5.96092 -1.35958 0
M  V30 2005 H 188.517 6.65039 -2.06629 0
M  V30 2006 H 186.144 7.15599 -2.56557 0
M  V30 2007 N 187.719 -0.156864 1.56817 0
M  V30 2008 C 188.996 -0.899244 1.73704 0
M  V30 2009 C 189.376 -1.99771 0.682254 0
M  V30 2010 O 188.724 -2.26515 -0.300522 0
M  V30 2011 C 188.934 -1.45075 3.17418 0
M  V30 2012 C 190.282 -1.91802 3.7881 0
M  V30 2013 O 191.306 -1.54838 3.20786 0
M  V30 2014 O 190.165 -2.5994 4.80722 0
M  V30 2015 H 187.259 -0.424267 0.709878 0
M  V30 2016 H 189.805 -0.143561 1.69092 0
M  V30 2017 H 188.577 -0.660846 3.85679 0
M  V30 2018 H 188.2 -2.27021 3.26416 0
M  V30 2019 N 189.197 -1.51736 -0.425897 0
M  V30 2020 C 190.107 -1.76738 -1.54275 0
M  V30 2021 C 191.123 -0.65211 -1.61318 0
M  V30 2022 O 192.299 -0.935654 -1.78346 0
M  V30 2023 C 189.364 -1.89755 -2.90162 0
M  V30 2024 C 188.425 -3.13633 -2.93143 0
M  V30 2025 C 187.658 -3.2602 -4.22548 0
M  V30 2026 O 187.881 -2.44067 -5.15546 0
M  V30 2027 O 186.815 -4.19071 -4.32046 0
M  V30 2028 H 190.641 -2.71502 -1.36089 0
M  V30 2029 H 188.226 -1.36376 -0.610069 0
M  V30 2030 H 190.108 -2.00236 -3.70788 0
M  V30 2031 H 188.783 -0.981785 -3.08452 0
M  V30 2032 H 187.69 -3.08622 -2.11431 0
M  V30 2033 H 189.023 -4.04936 -2.798 0
M  V30 2034 N 190.675 0.682077 -1.42076 0
M  V30 2035 C 191.915 1.45424 -1.43636 0
M  V30 2036 C 192.279 1.91939 -0.0484001 0
M  V30 2037 O 193.48 2.6873 0.0612514 0
M  V30 2038 C 191.751 2.62427 -2.42625 0
M  V30 2039 S 193.31 3.51379 -2.62827 0
M  V30 2040 H 190.128 0.496779 -0.508657 0
M  V30 2041 H 192.73 0.794645 -1.78621 0
M  V30 2042 H 191.434 2.26481 -3.42249 0
M  V30 2043 H 190.965 3.33266 -2.09039 0
M  V30 2044 H 192.98 4.58141 -1.9058 0
M  V30 2045 N 192.153 1.28127 0.917671 0
M  V30 2046 C 193.378 1.18007 1.70555 0
M  V30 2047 C 193.803 -0.258257 1.86319 0
M  V30 2048 O 193.161 -1.1869 1.37049 0
M  V30 2049 C 193.209 1.87948 3.07746 0
M  V30 2050 O 192.313 1.18427 3.9503 0
M  V30 2051 H 191.654 0.409867 0.522403 0
M  V30 2052 H 194.184 1.69379 1.1477 0
M  V30 2053 H 194.194 1.95701 3.58001 0
M  V30 2054 H 192.869 2.92573 2.95591 0
M  V30 2055 H 191.446 1.18811 3.53466 0
M  V30 2056 N 193.631 -1.12557 1.10312 0
M  V30 2057 C 195.042 -1.65574 0.862678 0
M  V30 2058 C 195.393 -1.86566 -0.607256 0
M  V30 2059 O 194.518 -1.59121 -1.46662 0
M  V30 2060 C 195.113 -3.00776 1.55947 0
M  V30 2061 C 193.672 -3.50748 1.36576 0
M  V30 2062 C 192.819 -2.25797 1.60968 0
M  V30 2063 H 195.77 -0.963552 1.26101 0
M  V30 2064 H 195.791 -3.67185 0.997753 0
M  V30 2065 H 195.303 -2.85465 2.62928 0
M  V30 2066 H 193.404 -3.71245 0.317531 0
M  V30 2067 H 193.517 -4.30289 2.10686 0
M  V30 2068 H 191.881 -2.32841 1.03234 0
M  V30 2069 H 192.664 -2.13043 2.69198 0
M  V30 2070 N 195.109 -0.891671 -1.2995 0
M  V30 2071 C 196.339 -0.527893 -1.99742 0
M  V30 2072 C 196.747 0.88979 -1.66971 0
M  V30 2073 O 196.09 1.59766 -0.906667 0
M  V30 2074 C 196.152 -0.630804 -3.53922 0
M  V30 2075 C 195.816 -2.01401 -4.10228 0
M  V30 2076 C 196.813 -2.98422 -4.25724 0
M  V30 2077 C 194.498 -2.32121 -4.45449 0
M  V30 2078 C 196.492 -4.24293 -4.75662 0
M  V30 2079 C 194.179 -3.58237 -4.95086 0
M  V30 2080 C 195.177 -4.54137 -5.10146 0
M  V30 2081 O 194.865 -5.78014 -5.58708 0
M  V30 2082 H 194.597 -0.201953 -0.645129 0
M  V30 2083 H 197.151 -1.20076 -1.66646 0
M  V30 2084 H 195.381 0.0990616 -3.86573 0
M  V30 2085 H 197.07 -0.277338 -4.04951 0
M  V30 2086 H 197.836 -2.76001 -3.98809 0
M  V30 2087 H 193.715 -1.5824 -4.32991 0
M  V30 2088 H 197.259 -4.99153 -4.87332 0
M  V30 2089 H 193.156 -3.80491 -5.21437 0
M  V30 2090 H 193.924 -5.8049 -5.77039 0
M  V30 2091 N 196.587 1.43421 -0.653314 0
M  V30 2092 C 197.833 2.02111 -0.166992 0
M  V30 2093 C 198.166 1.51423 1.21592 0
M  V30 2094 O 197.441 0.707389 1.8118 0
M  V30 2095 C 197.724 3.5966 -0.177948 0
M  V30 2096 C 197.577 4.20579 -1.59478 0
M  V30 2097 C 198.896 4.37413 0.4856 0
M  V30 2098 H 196.015 0.734374 -0.0621557 0
M  V30 2099 H 198.657 1.70717 -0.834016 0
M  V30 2100 H 196.807 3.86537 0.390032 0
M  V30 2101 H 198.479 4.04732 -2.21336 0
M  V30 2102 H 196.722 3.77226 -2.14204 0
M  V30 2103 H 197.393 5.29665 -1.5543 0
M  V30 2104 H 199.869 4.161 0.00234528 0
M  V30 2105 H 198.745 5.47075 0.447207 0
M  V30 2106 H 199.006 4.13672 1.55974 0
M  V30 2107 N 198.065 0.39524 1.52563 0
M  V30 2108 C 199.013 -0.451859 2.28169 0
M  V30 2109 C 200.007 -1.05792 1.32304 0
M  V30 2110 O 201.213 -0.997718 1.49818 0
M  V30 2111 H 197.588 -0.164481 0.733792 0
M  V30 2112 H 199.559 0.207199 2.9768 0
M  V30 2113 C 198.308 -1.56385 3.10546 0
M  V30 2114 H 197.631 -1.10682 3.84174 0
M  V30 2115 H 199.071 -2.13067 3.66577 0
M  V30 2116 C 197.53 -2.52328 2.23231 0
M  V30 2117 O 198.06 -3.5588 1.86312 0
M  V30 2118 N 196.266 -2.22209 1.87274 0
M  V30 2119 H 195.813 -1.38033 2.17496 0
M  V30 2120 H 195.771 -2.86652 1.29143 0
M  V30 2121 N 199.544 -1.57102 0.125237 0
M  V30 2122 C 200.79 -1.95697 -0.532035 0
M  V30 2123 C 201.123 -1.009 -1.6593 0
M  V30 2124 O 200.398 -0.047347 -1.94442 0
M  V30 2125 C 200.681 -3.44181 -1.05884 0
M  V30 2126 C 200.534 -4.49752 0.0654392 0
M  V30 2127 C 201.853 -3.94655 -1.9477 0
M  V30 2128 H 198.972 -0.711571 -0.191925 0
M  V30 2129 H 201.614 -1.88923 0.20206 0
M  V30 2130 H 199.764 -3.50085 -1.68442 0
M  V30 2131 H 201.436 -4.55943 0.700982 0
M  V30 2132 H 199.679 -4.27653 0.727709 0
M  V30 2133 H 200.35 -5.50924 -0.344505 0
M  V30 2134 H 202.826 -3.91094 -1.42074 0
M  V30 2135 H 201.702 -4.99057 -2.28546 0
M  V30 2136 H 201.963 -3.35718 -2.87656 0
M  V30 2137 N 201.022 0.148545 -1.56898 0
M  V30 2138 C 201.969 1.18345 -1.98149 0
M  V30 2139 C 202.939 1.42772 -0.848848 0
M  V30 2140 O 204.124 1.55132 -1.11079 0
M  V30 2141 C 201.264 2.51231 -2.36594 0
M  V30 2142 C 200.377 2.33991 -3.63142 0
M  V30 2143 C 199.512 3.59902 -3.90697 0
M  V30 2144 C 198.551 3.37692 -5.1052 0
M  V30 2145 N 197.688 4.5573 -5.34092 0
M  V30 2146 H 202.528 0.82467 -2.86362 0
M  V30 2147 H 200.065 0.395756 -1.41676 0
M  V30 2148 H 202.023 3.28713 -2.56912 0
M  V30 2149 H 200.653 2.85059 -1.51463 0
M  V30 2150 H 199.705 1.47572 -3.50609 0
M  V30 2151 H 201.017 2.13539 -4.5078 0
M  V30 2152 H 200.171 4.45813 -4.11505 0
M  V30 2153 H 198.91 3.83357 -3.01477 0
M  V30 2154 H 197.915 2.5017 -4.89587 0
M  V30 2155 H 199.14 3.15637 -6.0129 0
M  V30 2156 H 197.086 4.79361 -4.47827 0
M  V30 2157 H 197.003 4.38274 -6.15996 0
M  V30 2158 H 198.271 5.42858 -5.59397 0
M  V30 2159 N 202.5 1.5196 0.417844 0
M  V30 2160 C 203.463 1.74065 1.49111 0
M  V30 2161 C 204.463 0.610537 1.48758 0
M  V30 2162 O 205.653 0.87832 1.50437 0
M  V30 2163 C 202.785 1.81502 2.88565 0
M  V30 2164 H 203.978 2.69869 1.30807 0
M  V30 2165 H 201.531 1.42244 0.647785 0
M  V30 2166 H 202.266 0.875813 3.1225 0
M  V30 2167 H 202.051 2.63651 2.90225 0
M  V30 2168 H 203.541 2.00376 3.66387 0
M  V30 2169 N 203.978 -0.674533 1.42435 0
M  V30 2170 C 205.208 -1.46071 1.46105 0
M  V30 2171 C 205.616 -1.89067 0.0709605 0
M  V30 2172 O 204.959 -1.58731 -0.924677 0
M  V30 2173 C 205.021 -2.74145 2.32561 0
M  V30 2174 C 204.685 -2.53224 3.8043 0
M  V30 2175 C 205.682 -2.17809 4.72075 0
M  V30 2176 C 203.367 -2.6821 4.24698 0
M  V30 2177 C 205.361 -1.97648 6.05982 0
M  V30 2178 C 203.048 -2.47665 5.58664 0
M  V30 2179 C 204.046 -2.12437 6.49122 0
M  V30 2180 O 203.734 -1.9209 7.80613 0
M  V30 2181 H 203.466 -0.455959 0.499076 0
M  V30 2182 H 206.02 -0.836193 1.87609 0
M  V30 2183 H 204.25 -3.3908 1.85908 0
M  V30 2184 H 205.939 -3.36028 2.27683 0
M  V30 2185 H 206.705 -2.05826 4.39159 0
M  V30 2186 H 202.584 -2.94609 3.54579 0
M  V30 2187 H 206.128 -1.70075 6.7655 0
M  V30 2188 H 202.025 -2.59244 5.91154 0
M  V30 2189 H 202.793 -2.06686 7.91974 0
M  V30 2190 N 205.456 -1.28612 -0.910864 0
M  V30 2191 C 206.366 -1.14643 -2.0468 0
M  V30 2192 C 207.382 -0.0723121 -1.7385 0
M  V30 2193 O 208.558 -0.282178 -1.99413 0
M  V30 2194 C 205.623 -0.812561 -3.37044 0
M  V30 2195 C 204.684 -1.96935 -3.81465 0
M  V30 2196 C 203.917 -1.65131 -5.07511 0
M  V30 2197 O 204.14 -0.567013 -5.67575 0
M  V30 2198 O 203.074 -2.49585 -5.47714 0
M  V30 2199 H 206.9 -2.1001 -2.19384 0
M  V30 2200 H 204.485 -1.07958 -1.03274 0
M  V30 2201 H 206.367 -0.640441 -4.16505 0
M  V30 2202 H 205.042 0.111426 -3.23508 0
M  V30 2203 H 203.949 -2.19664 -3.02818 0
M  V30 2204 H 205.282 -2.87414 -3.99567 0
M  V30 2205 N 206.934 1.1197 -1.10907 0
M  V30 2206 C 207.882 2.19927 -0.757303 0
M  V30 2207 C 208.876 1.67564 0.248747 0
M  V30 2208 O 210.082 1.79672 0.108605 0
M  V30 2209 H 206.457 0.716925 -0.226987 0
M  V30 2210 H 208.428 2.46847 -1.67658 0
M  V30 2211 C 207.177 3.47061 -0.210671 0
M  V30 2212 H 206.5 3.87703 -0.976049 0
M  V30 2213 H 207.94 4.24 -0.0026584 0
M  V30 2214 C 206.399 3.19864 1.05777 0
M  V30 2215 O 206.929 3.40049 2.13845 0
M  V30 2216 N 205.135 2.73636 0.978349 0
M  V30 2217 H 204.682 2.5741 0.0988246 0
M  V30 2218 H 204.64 2.55815 1.82773 0
M  V30 2219 N 208.412 0.89855 1.29475 0
M  V30 2220 C 209.658 0.524658 1.95896 0
M  V30 2221 C 209.991 -0.926468 1.70676 0
M  V30 2222 O 209.266 -1.65665 1.01908 0
M  V30 2223 C 209.549 0.81633 3.50725 0
M  V30 2224 C 209.402 2.31907 3.85408 0
M  V30 2225 C 210.721 0.302038 4.39062 0
M  V30 2226 H 207.84 0.19209 0.711527 0
M  V30 2227 H 210.482 1.12502 1.53112 0
M  V30 2228 H 208.632 0.305369 3.87298 0
M  V30 2229 H 210.304 2.89949 3.58786 0
M  V30 2230 H 208.547 2.78027 3.32992 0
M  V30 2231 H 209.218 2.47373 4.93468 0
M  V30 2232 H 211.694 0.739551 4.09475 0
M  V30 2233 H 210.57 0.535331 5.46283 0
M  V30 2234 H 210.831 -0.797216 4.34853 0
M  V30 2235 N 209.89 -1.43072 0.660911 0
M  V30 2236 C 210.853 -2.29194 -0.0166406 0
M  V30 2237 C 211.853 -1.42609 -0.742912 0
M  V30 2238 O 213.043 -1.64155 -0.583004 0
M  V30 2239 C 210.175 -3.24831 -1.0343 0
M  V30 2240 H 211.368 -2.90596 0.741208 0
M  V30 2241 H 208.921 -1.5048 0.422532 0
M  V30 2242 H 209.656 -2.68339 -1.82111 0
M  V30 2243 H 209.441 -3.88676 -0.517082 0
M  V30 2244 H 210.931 -3.89451 -1.50723 0
M  V30 2245 N 211.368 -0.403325 -1.52352 0
M  V30 2246 C 212.3 0.4603 -2.2453 0
M  V30 2247 C 213.313 1.01505 -1.27282 0
M  V30 2248 O 214.502 0.914982 -1.53266 0
M  V30 2249 C 211.602 1.65208 -2.95905 0
M  V30 2250 C 210.775 1.22224 -4.19976 0
M  V30 2251 C 209.834 2.28028 -4.74226 0
M  V30 2252 O 208.86 1.88857 -5.36956 0
M  V30 2253 N 210.062 3.6012 -4.55295 0
M  V30 2254 H 212.827 -0.158156 -2.99282 0
M  V30 2255 H 210.388 -0.230402 -1.60252 0
M  V30 2256 H 212.38 2.35541 -3.29093 0
M  V30 2257 H 210.95 2.17658 -2.24374 0
M  V30 2258 H 210.17 0.34725 -3.92668 0
M  V30 2259 H 211.458 0.911924 -5.00561 0
M  V30 2260 H 210.856 3.94698 -4.05253 0
M  V30 2261 H 209.413 4.26447 -4.92936 0
M  V30 2262 N 212.846 1.57033 -0.133567 0
M  V30 2263 C 213.809 2.14897 0.796995 0
M  V30 2264 C 214.809 1.0874 1.18458 0
M  V30 2265 O 215.999 1.34446 1.1077 0
M  V30 2266 C 213.131 2.70112 2.07973 0
M  V30 2267 H 214.324 2.98457 0.293873 0
M  V30 2268 H 211.877 1.55871 0.115787 0
M  V30 2269 H 212.612 1.9018 2.62682 0
M  V30 2270 H 212.397 3.47764 1.81115 0
M  V30 2271 H 213.887 3.14738 2.74462 0
M  V30 2272 N 214.325 -0.140222 1.56975 0
M  V30 2273 C 215.288 -1.15689 1.97861 0
M  V30 2274 C 216.288 -1.3549 0.865974 0
M  V30 2275 O 217.478 -1.32367 1.13246 0
M  V30 2276 C 214.61 -2.51582 2.30042 0
M  V30 2277 H 215.803 -0.805971 2.88867 0
M  V30 2278 H 213.356 -0.383801 1.51515 0
M  V30 2279 H 214.091 -2.91632 1.41849 0
M  V30 2280 H 213.876 -2.38569 3.11171 0
M  V30 2281 H 215.366 -3.24792 2.62488 0
M  V30 2282 N 215.803 -1.52179 -0.40978 0
M  V30 2283 C 217.051 -1.65878 -1.15451 0
M  V30 2284 C 217.372 -0.390771 -1.91044 0
M  V30 2285 O 216.642 0.594323 -1.86667 0
M  V30 2286 H 215.222 -0.611405 -0.429177 0
M  V30 2287 H 217.884 -1.89219 -0.467134 0
M  V30 2288 H 216.98 -2.49954 -1.86894 0
M  V30 2289 N 217.281 0.66697 -1.42791 0
M  V30 2290 C 218.529 1.42417 -1.43394 0
M  V30 2291 C 218.85 1.94925 -0.0542373 0
M  V30 2292 O 218.12 1.73564 0.908415 0
M  V30 2293 H 216.7 0.528515 -0.527902 0
M  V30 2294 H 219.362 0.787562 -1.78279 0
M  V30 2295 H 218.458 2.27333 -2.13837 0
M  V30 2296 N 218.759 1.29093 0.90403 0
M  V30 2297 C 219.722 1.1386 1.98919 0
M  V30 2298 C 220.722 0.0753457 1.60623 0
M  V30 2299 O 221.912 0.321931 1.71199 0
M  V30 2300 C 219.044 0.740198 3.32767 0
M  V30 2301 H 220.237 2.10246 2.13861 0
M  V30 2302 H 217.79 1.12218 1.08797 0
M  V30 2303 H 218.525 -0.223997 3.23525 0
M  V30 2304 H 218.31 1.50838 3.61926 0
M  V30 2305 H 219.8 0.656546 4.12407 0
M  V30 2306 N 220.237 -1.11381 1.11499 0
M  V30 2307 C 221.2 -2.15622 0.777153 0
M  V30 2308 C 222.2 -1.59504 -0.203779 0
M  V30 2309 O 223.39 -1.74188 0.020782 0
M  V30 2310 C 220.522 -3.40556 0.153116 0
M  V30 2311 H 221.715 -2.47021 1.70061 0
M  V30 2312 H 219.268 -1.26577 0.916952 0
M  V30 2313 H 220.003 -3.14767 -0.780536 0
M  V30 2314 H 219.788 -3.8257 0.859238 0
M  V30 2315 H 221.278 -4.17546 -0.0671044 0
M  V30 2316 N 221.715 -0.905404 -1.28997 0
M  V30 2317 C 222.94 -0.549175 -1.99997 0
M  V30 2318 C 223.365 0.860276 -1.67275 0
M  V30 2319 O 222.723 1.57355 -0.900502 0
M  V30 2320 C 222.771 -0.755185 -3.52604 0
M  V30 2321 O 221.875 0.189692 -4.11964 0
M  V30 2322 H 221.216 -0.213899 -0.628604 0
M  V30 2323 H 223.746 -1.21856 -1.64354 0
M  V30 2324 H 223.756 -0.662045 -4.02593 0
M  V30 2325 H 222.431 -1.78271 -3.75755 0
M  V30 2326 H 221.008 0.0485257 -3.72868 0
M  V30 2327 N 223.193 1.4272 -0.668489 0
M  V30 2328 C 224.421 2.05966 -0.196348 0
M  V30 2329 C 224.836 1.50191 1.14403 0
M  V30 2330 O 224.193 0.639208 1.7094 0
M  V30 2331 C 224.244 3.61314 -0.115815 0
M  V30 2332 O 223.965 4.1502 -1.40322 0
M  V30 2333 C 225.466 4.41663 0.380579 0
M  V30 2334 H 222.686 0.663954 -0.0969829 0
M  V30 2335 H 225.23 1.82966 -0.913446 0
M  V30 2336 H 223.385 3.83448 0.551931 0
M  V30 2337 H 223.799 5.08832 -1.27243 0
M  V30 2338 H 225.273 5.5065 0.385848 0
M  V30 2339 H 225.75 4.15792 1.41471 0
M  V30 2340 H 226.356 4.24534 -0.255209 0
M  V30 2341 N 224.671 0.411399 1.52136 0
M  V30 2342 C 225.899 -0.163076 2.06256 0
M  V30 2343 C 226.314 -1.3867 1.28125 0
M  V30 2344 O 225.671 -1.79423 0.333721 0
M  V30 2345 C 225.722 -0.511252 3.57867 0
M  V30 2346 O 225.443 0.66378 4.33042 0
M  V30 2347 C 226.944 -1.13921 4.28412 0
M  V30 2348 H 224.164 -0.0193897 0.67072 0
M  V30 2349 H 226.708 0.583007 1.96013 0
M  V30 2350 H 224.863 -1.20723 3.6811 0
M  V30 2351 H 225.277 0.372601 5.23175 0
M  V30 2352 H 226.751 -1.33302 5.35663 0
M  V30 2353 H 227.228 -2.11296 3.85033 0
M  V30 2354 H 227.834 -0.483373 4.22544 0
M  V30 2355 N 226.149 -1.5696 0.141893 0
M  V30 2356 C 227.397 -1.95573 -0.509484 0
M  V30 2357 C 227.718 -1.02746 -1.65736 0
M  V30 2358 O 226.988 -0.0880311 -1.95702 0
M  V30 2359 H 225.568 -0.722115 -0.191205 0
M  V30 2360 H 228.23 -1.93697 0.216196 0
M  V30 2361 H 227.326 -2.99171 -0.889 0
M  V30 2362 N 227.627 0.131896 -1.57047 0
M  V30 2363 C 228.874 0.841932 -1.84168 0
M  V30 2364 C 229.202 1.8048 -0.725066 0
M  V30 2365 O 228.457 1.93618 0.284692 0
M  V30 2366 C 228.756 1.63703 -3.17704 0
M  V30 2367 C 228.422 0.81961 -4.43388 0
M  V30 2368 C 227.084 0.594148 -4.77518 0
M  V30 2369 C 229.436 0.248977 -5.20605 0
M  V30 2370 C 226.764 -0.212409 -5.86315 0
M  V30 2371 C 229.116 -0.544701 -6.30251 0
M  V30 2372 C 227.78 -0.780599 -6.6292 0
M  V30 2373 H 227.05 0.308085 -0.673917 0
M  V30 2374 H 229.697 0.104867 -1.91213 0
M  V30 2375 H 228.002 2.44464 -3.06177 0
M  V30 2376 H 229.699 2.19015 -3.35907 0
M  V30 2377 H 226.289 1.00542 -4.16641 0
M  V30 2378 H 230.473 0.410408 -4.946 0
M  V30 2379 H 225.729 -0.404524 -6.1006 0
M  V30 2380 H 229.903 -0.993922 -6.89271 0
M  V30 2381 H 227.53 -1.40742 -7.47058 0
M  V30 2382 N 229.106 1.52395 0.401703 0
M  V30 2383 C 230.352 1.68019 1.14635 0
M  V30 2384 C 230.707 0.408722 1.88009 0
M  V30 2385 O 230 -0.597133 1.82057 0
M  V30 2386 C 230.194 2.84578 2.16217 0
M  V30 2387 C 230.023 4.22938 1.5282 0
M  V30 2388 C 228.793 4.88352 1.29772 0
M  V30 2389 C 230.991 5.04778 0.985094 0
M  V30 2390 N 228.973 6.10726 0.623455 0
M  V30 2391 C 230.344 6.1845 0.438172 0
M  V30 2392 C 232.399 4.90057 0.880275 0
M  V30 2393 C 231.102 7.19013 -0.203306 0
M  V30 2394 C 233.128 5.9086 0.252639 0
M  V30 2395 C 232.49 7.03829 -0.283573 0
M  V30 2396 H 228.589 0.668413 0.405892 0
M  V30 2397 H 231.173 1.89717 0.437674 0
M  V30 2398 H 229.344 2.64483 2.84435 0
M  V30 2399 H 231.076 2.89202 2.83098 0
M  V30 2400 H 227.831 4.46846 1.56926 0
M  V30 2401 H 228.255 6.76323 0.302733 0
M  V30 2402 H 232.897 4.02938 1.28065 0
M  V30 2403 H 230.615 8.05751 -0.615726 0
M  V30 2404 H 234.201 5.81543 0.172954 0
M  V30 2405 H 233.081 7.80493 -0.761575 0
M  V30 2406 N 230.584 -0.659388 1.43143 0
M  V30 2407 C 231.861 -1.41627 1.34912 0
M  V30 2408 C 232.241 -2.11099 -0.00607785 0
M  V30 2409 O 231.589 -2.04353 -1.02236 0
M  V30 2410 C 231.799 -2.40604 2.52805 0
M  V30 2411 C 233.147 -3.04789 2.95616 0
M  V30 2412 O 234.171 -2.50932 2.52807 0
M  V30 2413 O 233.03 -4.02421 3.69756 0
M  V30 2414 H 230.124 -0.63246 0.532844 0
M  V30 2415 H 232.67 -0.686814 1.5518 0
M  V30 2416 H 231.442 -1.88174 3.43083 0
M  V30 2417 H 231.065 -3.21009 2.34604 0
M  V30 2418 N 232.062 -1.29571 -0.897171 0
M  V30 2419 C 233.31 -1.17456 -1.64464 0
M  V30 2420 C 233.631 0.273698 -1.9307 0
M  V30 2421 O 232.901 1.18684 -1.55855 0
M  V30 2422 H 231.481 -0.431706 -0.609622 0
M  V30 2423 H 234.143 -1.62531 -1.07562 0
M  V30 2424 H 233.239 -1.72648 -2.59998 0
M  V30 2425 N 233.54 1.10788 -1.12088 0
M  V30 2426 C 234.951 1.64181 -0.88891 0
M  V30 2427 C 235.302 1.87508 0.577498 0
M  V30 2428 O 234.427 1.61434 1.44112 0
M  V30 2429 C 235.022 2.98257 -1.60712 0
M  V30 2430 C 233.581 3.4853 -1.42139 0
M  V30 2431 C 232.728 2.23208 -1.6454 0
M  V30 2432 H 235.679 0.943368 -1.27618 0
M  V30 2433 H 235.7 3.65552 -1.05604 0
M  V30 2434 H 235.212 2.81246 -2.67436 0
M  V30 2435 H 233.313 3.70692 -0.376552 0
M  V30 2436 H 233.426 4.26882 -2.17505 0
M  V30 2437 H 231.79 2.31169 -1.06925 0
M  V30 2438 H 232.573 2.08733 -2.72554 0
M  V30 2439 N 235.018 0.912232 1.28515 0
M  V30 2440 C 236.429 0.591352 1.77087 0
M  V30 2441 C 236.78 -0.8933 1.74684 0
M  V30 2442 O 235.905 -1.69876 1.34056 0
M  V30 2443 C 236.5 1.06668 3.2157 0
M  V30 2444 C 235.059 0.79675 3.67871 0
M  V30 2445 C 234.206 1.23427 2.48316 0
M  V30 2446 H 237.157 1.09365 1.15 0
M  V30 2447 H 237.178 0.407455 3.78312 0
M  V30 2448 H 236.69 2.14726 3.23287 0
M  V30 2449 H 234.791 -0.270679 3.71616 0
M  V30 2450 H 234.904 1.40343 4.58084 0
M  V30 2451 H 233.268 0.653036 2.46186 0
M  V30 2452 H 234.051 2.32316 2.52753 0
M  V30 2453 N 236.496 -1.42363 0.676048 0
M  V30 2454 C 237.426 -2.33497 0.0124832 0
M  V30 2455 C 238.407 -1.50748 -0.787981 0
M  V30 2456 O 239.592 -1.79346 -0.744884 0
M  V30 2457 C 236.722 -3.34377 -0.938582 0
M  V30 2458 C 235.676 -4.27289 -0.246622 0
M  V30 2459 C 235.002 -5.18386 -1.31071 0
M  V30 2460 C 236.302 -5.14916 0.875125 0
M  V30 2461 H 237.996 -2.89233 0.773593 0
M  V30 2462 H 235.542 -1.39073 0.37346 0
M  V30 2463 H 237.495 -3.97044 -1.41188 0
M  V30 2464 H 236.219 -2.76947 -1.73113 0
M  V30 2465 H 234.878 -3.66018 0.206456 0
M  V30 2466 H 234.526 -4.57282 -2.09528 0
M  V30 2467 H 234.226 -5.81378 -0.852839 0
M  V30 2468 H 235.75 -5.83929 -1.78492 0
M  V30 2469 H 237.164 -5.71262 0.482983 0
M  V30 2470 H 235.561 -5.86747 1.25887 0
M  V30 2471 H 236.631 -4.53242 1.72335 0
M  V30 2472 N 237.974 -0.419461 -1.51915 0
M  V30 2473 C 239.22 0.153166 -2.02221 0
M  V30 2474 C 239.553 1.43907 -1.30401 0
M  V30 2475 O 238.828 1.90055 -0.413438 0
M  V30 2476 C 239.111 0.390291 -3.57979 0
M  V30 2477 C 238.964 -0.913014 -4.40436 0
M  V30 2478 C 240.283 1.16794 -4.2432 0
M  V30 2479 H 237.402 0.0541924 -0.735005 0
M  V30 2480 H 240.044 -0.554955 -1.81715 0
M  V30 2481 H 238.194 0.993491 -3.75582 0
M  V30 2482 H 239.866 -1.54882 -4.34522 0
M  V30 2483 H 238.109 -1.52168 -4.06236 0
M  V30 2484 H 238.78 -0.701361 -5.47526 0
M  V30 2485 H 241.256 0.657161 -4.10878 0
M  V30 2486 H 240.132 1.3026 -5.3322 0
M  V30 2487 H 240.393 2.19132 -3.83971 0
M  V30 2488 N 239.452 1.56882 -0.150215 0
M  V30 2489 C 240.677 2.01027 0.510184 0
M  V30 2490 C 241.102 1.02966 1.57415 0
M  V30 2491 O 240.46 0.00590158 1.81299 0
M  V30 2492 C 240.508 3.43899 1.08472 0
M  V30 2493 O 239.612 3.4885 2.19948 0
M  V30 2494 H 238.953 0.652233 0.124451 0
M  V30 2495 H 241.483 2.03093 -0.247894 0
M  V30 2496 H 241.493 3.82766 1.41259 0
M  V30 2497 H 240.168 4.14776 0.305582 0
M  V30 2498 H 238.745 3.21827 1.88366 0
M  V30 2499 N 240.93 -0.123565 1.57115 0
M  V30 2500 C 241.893 -1.13583 1.99076 0
M  V30 2501 C 242.893 -1.34564 0.880296 0
M  V30 2502 O 244.083 -1.31158 1.14644 0
M  V30 2503 C 241.215 -2.49128 2.32698 0
M  V30 2504 H 242.408 -0.775287 2.89706 0
M  V30 2505 H 239.961 -0.36771 1.51913 0
M  V30 2506 H 240.696 -2.90111 1.44934 0
M  V30 2507 H 240.481 -2.35255 3.13684 0
M  V30 2508 H 241.971 -3.2199 2.65918 0
M  V30 2509 N 242.408 -1.52605 -0.393616 0
M  V30 2510 C 243.371 -1.76415 -1.46323 0
M  V30 2511 C 244.371 -0.634126 -1.47768 0
M  V30 2512 O 245.561 -0.902142 -1.4902 0
M  V30 2513 C 242.693 -1.8607 -2.85641 0
M  V30 2514 H 243.886 -2.71916 -1.26498 0
M  V30 2515 H 241.439 -1.43257 -0.625073 0
M  V30 2516 H 242.174 -0.925378 -3.10817 0
M  V30 2517 H 241.959 -2.68235 -2.85993 0
M  V30 2518 H 243.449 -2.06179 -3.63153 0
M  V30 2519 N 243.887 0.651787 -1.4349 0
M  V30 2520 C 244.85 1.74647 -1.48429 0
M  V30 2521 C 245.85 1.56513 -0.368817 0
M  V30 2522 O 247.04 1.62385 -0.630623 0
M  V30 2523 C 244.172 3.13533 -1.33827 0
M  V30 2524 H 245.365 1.71649 -2.4592 0
M  V30 2525 H 242.918 0.863573 -1.30277 0
M  V30 2526 H 243.653 3.22142 -0.37349 0
M  V30 2527 H 243.438 3.28101 -2.14691 0
M  V30 2528 H 244.928 3.93356 -1.40218 0
M  V30 2529 N 245.365 1.30045 0.890287 0
M  V30 2530 C 246.295 1.18541 2.01172 0
M  V30 2531 C 247.276 0.0773356 1.69924 0
M  V30 2532 O 248.461 0.25845 1.92473 0
M  V30 2533 C 245.591 0.870941 3.36202 0
M  V30 2534 C 244.545 1.93637 3.81692 0
M  V30 2535 C 243.871 1.475 5.13953 0
M  V30 2536 C 245.171 3.34666 4.00994 0
M  V30 2537 H 246.865 2.12359 2.11054 0
M  V30 2538 H 244.411 1.02238 1.01407 0
M  V30 2539 H 246.364 0.777141 4.14172 0
M  V30 2540 H 245.088 -0.102926 3.26438 0
M  V30 2541 H 243.747 2.01972 3.05946 0
M  V30 2542 H 243.395 0.489551 5.00612 0
M  V30 2543 H 243.095 2.1876 5.4536 0
M  V30 2544 H 244.619 1.39489 5.94454 0
M  V30 2545 H 246.033 3.2912 4.69417 0
M  V30 2546 H 244.43 4.03966 4.43769 0
M  V30 2547 H 245.5 3.76949 3.05021 0
M  V30 2548 N 246.843 -1.10192 1.12674 0
M  V30 2549 C 248.091 -1.81845 0.881861 0
M  V30 2550 C 248.412 -1.85737 -0.593867 0
M  V30 2551 O 247.682 -1.33724 -1.4316 0
M  V30 2552 H 246.262 -0.673432 0.323261 0
M  V30 2553 H 248.924 -1.33316 1.42172 0
M  V30 2554 H 248.02 -2.85288 1.2656 0
M  V30 2555 N 248.321 -0.919034 -1.28029 0
M  V30 2556 C 249.598 -0.473668 -1.89778 0
M  V30 2557 C 249.978 1.04783 -1.83259 0
M  V30 2558 O 249.326 1.8982 -1.27202 0
M  V30 2559 C 249.536 -1.00998 -3.34066 0
M  V30 2560 C 250.884 -1.06525 -4.1102 0
M  V30 2561 O 251.908 -0.958996 -3.43048 0
M  V30 2562 O 250.767 -1.22776 -5.3253 0
M  V30 2563 H 247.861 -0.15098 -0.813101 0
M  V30 2564 H 250.407 -1.01016 -1.36359 0
M  V30 2565 H 249.179 -2.05392 -3.33061 0
M  V30 2566 H 248.802 -0.454626 -3.94992 0
M  V30 2567 N 249.799 1.42003 -0.683588 0
M  V30 2568 C 251.024 2.06265 -0.216647 0
M  V30 2569 C 251.449 1.51059 1.12083 0
M  V30 2570 O 250.807 0.632638 1.69904 0
M  V30 2571 C 250.855 3.60191 -0.171759 0
M  V30 2572 O 249.959 4.03396 0.857069 0
M  V30 2573 H 249.3 0.65502 -0.108834 0
M  V30 2574 H 251.83 1.81982 -0.935077 0
M  V30 2575 H 251.84 4.08 0.0014303 0
M  V30 2576 H 250.515 3.99743 -1.14796 0
M  V30 2577 H 249.092 3.67117 0.654208 0
M  V30 2578 N 251.277 0.427512 1.51691 0
M  V30 2579 C 252.225 -0.403359 2.29076 0
M  V30 2580 C 253.219 -1.02962 1.34518 0
M  V30 2581 O 254.425 -0.965715 1.51901 0
M  V30 2582 H 250.8 -0.148879 0.737115 0
M  V30 2583 H 252.771 0.270295 2.97173 0
M  V30 2584 C 251.52 -1.49763 3.13794 0
M  V30 2585 H 250.843 -1.02508 3.86435 0
M  V30 2586 H 252.283 -2.05244 3.71014 0
M  V30 2587 C 250.742 -2.47536 2.28533 0
M  V30 2588 O 251.272 -3.51848 1.93819 0
M  V30 2589 N 249.478 -2.18187 1.91945 0
M  V30 2590 H 249.025 -1.33389 2.20375 0
M  V30 2591 H 248.983 -2.83848 1.35195 0
M  V30 2592 N 252.755 -1.56801 0.158532 0
M  V30 2593 C 253.983 -2.00859 -0.496303 0
M  V30 2594 C 254.398 -1.03871 -1.57659 0
M  V30 2595 O 253.755 -0.0375165 -1.82461 0
M  V30 2596 C 253.806 -3.4479 -1.08638 0
M  V30 2597 O 253.527 -4.38072 -0.0492322 0
M  V30 2598 C 255.028 -4.04185 -1.8207 0
M  V30 2599 H 252.248 -0.65864 -0.128199 0
M  V30 2600 H 254.792 -2.02885 0.256506 0
M  V30 2601 H 252.947 -3.43579 -1.78975 0
M  V30 2602 H 253.361 -5.2227 -0.483102 0
M  V30 2603 H 254.835 -5.06857 -2.18633 0
M  V30 2604 H 255.312 -3.45549 -2.71095 0
M  V30 2605 H 255.918 -4.0906 -1.16405 0
M  V30 2606 N 254.233 0.115231 -1.57178 0
M  V30 2607 C 255.481 0.820727 -1.84685 0
M  V30 2608 C 255.802 1.80237 -0.744279 0
M  V30 2609 O 255.072 1.94529 0.231375 0
M  V30 2610 H 253.652 0.306084 -0.681411 0
M  V30 2611 H 256.314 0.101656 -1.94635 0
M  V30 2612 H 255.41 1.36366 -2.80733 0
M  V30 2613 N 255.711 1.52812 0.385517 0
M  V30 2614 C 256.644 1.72592 1.49289 0
M  V30 2615 C 257.622 0.573819 1.52138 0
M  V30 2616 O 258.806 0.80404 1.70492 0
M  V30 2617 C 255.933 1.78669 2.87741 0
M  V30 2618 C 254.979 3.00455 3.02703 0
M  V30 2619 S 255.812 4.60366 2.73538 0
M  V30 2620 C 256.968 4.69263 4.14177 0
M  V30 2621 H 257.201 2.66248 1.32285 0
M  V30 2622 H 254.734 1.43148 0.578611 0
M  V30 2623 H 256.692 1.82855 3.67524 0
M  V30 2624 H 255.353 0.861 3.02069 0
M  V30 2625 H 254.546 3.01258 4.04054 0
M  V30 2626 H 254.148 2.94278 2.30817 0
M  V30 2627 H 256.44 4.48092 5.08153 0
M  V30 2628 H 257.383 5.71276 4.18388 0
M  V30 2629 H 257.791 3.98072 4.00249 0
M  V30 2630 N 257.189 -0.644168 1.43834 0
M  V30 2631 C 258.139 -1.7501 1.46135 0
M  V30 2632 C 259.123 -1.57507 0.328685 0
M  V30 2633 O 260.315 -1.67465 0.5731 0
M  V30 2634 C 257.444 -3.13641 1.39585 0
M  V30 2635 C 256.53 -3.3666 2.57916 0
M  V30 2636 N 256.921 -3.30107 3.83227 0
M  V30 2637 C 255.219 -3.67411 2.52834 0
M  V30 2638 C 255.92 -3.53456 4.61999 0
M  V30 2639 N 254.896 -3.75705 3.9287 0
M  V30 2640 H 258.698 -1.68382 2.40883 0
M  V30 2641 H 256.212 -0.846169 1.38614 0
M  V30 2642 H 258.209 -3.92933 1.39317 0
M  V30 2643 H 256.869 -3.21444 0.45865 0
M  V30 2644 H 257.88 -3.09316 4.15384 0
M  V30 2645 H 254.557 -3.82275 1.67845 0
M  V30 2646 H 255.947 -3.54093 5.71024 0
M  V30 2647 N 258.668 -1.30515 -0.883378 0
M  V30 2648 C 259.598 -1.19607 -2.00541 0
M  V30 2649 C 260.579 -0.086346 -1.69881 0
M  V30 2650 O 261.764 -0.268654 -1.92333 0
M  V30 2651 C 258.894 -0.888758 -3.35736 0
M  V30 2652 C 257.848 -1.95659 -3.8066 0
M  V30 2653 C 257.174 -1.50224 -5.13164 0
M  V30 2654 C 258.474 -3.36788 -3.99213 0
M  V30 2655 H 260.168 -2.13476 -2.09925 0
M  V30 2656 H 257.714 -1.02775 -1.00863 0
M  V30 2657 H 259.667 -0.799094 -4.13754 0
M  V30 2658 H 258.391 0.0856125 -3.26488 0
M  V30 2659 H 257.05 -2.03591 -3.04871 0
M  V30 2660 H 256.698 -0.516092 -5.00345 0
M  V30 2661 H 256.398 -2.2165 -5.44192 0
M  V30 2662 H 257.922 -1.42639 -5.93706 0
M  V30 2663 H 259.336 -3.31605 -4.67665 0
M  V30 2664 H 257.733 -4.06314 -4.41621 0
M  V30 2665 H 258.803 -3.78561 -3.03017 0
M  V30 2666 N 260.146 1.09593 -1.13257 0
M  V30 2667 C 261.076 2.18214 -0.830946 0
M  V30 2668 C 262.057 1.68812 0.208966 0
M  V30 2669 O 263.242 1.9408 0.0682666 0
M  V30 2670 C 260.372 3.46051 -0.294296 0
M  V30 2671 C 259.326 4.08778 -1.26826 0
M  V30 2672 C 258.652 5.31419 -0.591449 0
M  V30 2673 C 259.952 4.51476 -2.62615 0
M  V30 2674 H 261.646 2.43703 -1.73923 0
M  V30 2675 H 259.192 1.17128 -0.837675 0
M  V30 2676 H 261.145 4.2134 -0.0709606 0
M  V30 2677 H 259.869 3.20079 0.649366 0
M  V30 2678 H 258.528 3.35505 -1.47756 0
M  V30 2679 H 258.176 5.01727 0.357633 0
M  V30 2680 H 257.876 5.74341 -1.24123 0
M  V30 2681 H 259.4 6.09433 -0.377355 0
M  V30 2682 H 260.814 5.17999 -2.45663 0
M  V30 2683 H 259.211 5.05277 -3.23752 0
M  V30 2684 H 260.281 3.63962 -3.20406 0
M  V30 2685 N 261.624 0.925811 1.2754 0
M  V30 2686 C 262.873 0.561084 1.93739 0
M  V30 2687 C 263.186 -0.901685 1.73577 0
M  V30 2688 O 264.392 -1.37511 2.34101 0
M  V30 2689 C 262.848 0.952668 3.47062 0
M  V30 2690 C 262.456 2.43599 3.75983 0
M  V30 2691 C 264.2 0.659103 4.19352 0
M  V30 2692 C 262.107 2.76707 5.22673 0
M  V30 2693 H 261.037 0.206122 0.725279 0
M  V30 2694 H 263.688 1.12637 1.44863 0
M  V30 2695 H 262.07 0.316053 3.94737 0
M  V30 2696 H 263.244 3.12035 3.39073 0
M  V30 2697 H 261.559 2.70125 3.16893 0
M  V30 2698 H 264.156 0.882985 5.27359 0
M  V30 2699 H 264.499 -0.403607 4.14339 0
M  V30 2700 H 265.032 1.25473 3.77494 0
M  V30 2701 H 261.771 3.8188 5.32774 0
M  V30 2702 H 261.291 2.12919 5.60737 0
M  V30 2703 H 262.97 2.6435 5.90532 0
M  V30 2704 N 263.102 -1.41638 0.69111 0
M  V30 2705 C 264.35 -2.00902 0.219758 0
M  V30 2706 C 264.671 -1.54994 -1.18329 0
M  V30 2707 O 263.941 -0.778628 -1.79762 0
M  V30 2708 H 262.521 -0.74289 0.0782558 0
M  V30 2709 H 265.183 -1.73327 0.891271 0
M  V30 2710 H 264.279 -3.11224 0.233708 0
M  V30 2711 N 264.58 -0.43555 -1.51462 0
M  V30 2712 C 265.51 0.367376 -2.30592 0
M  V30 2713 C 266.491 1.02263 -1.35928 0
M  V30 2714 O 267.676 1.02661 -1.64847 0
M  V30 2715 C 264.806 1.46983 -3.14664 0
M  V30 2716 C 263.76 0.938161 -4.17591 0
M  V30 2717 C 263.086 2.13622 -4.90173 0
M  V30 2718 C 264.386 -0.0261621 -5.22293 0
M  V30 2719 H 266.08 -0.292969 -2.97963 0
M  V30 2720 H 263.626 -0.14234 -1.43295 0
M  V30 2721 H 265.579 2.03873 -3.688 0
M  V30 2722 H 264.303 2.15843 -2.4511 0
M  V30 2723 H 262.962 0.391481 -3.64504 0
M  V30 2724 H 262.61 2.81098 -4.17124 0
M  V30 2725 H 262.31 1.78688 -5.59772 0
M  V30 2726 H 263.834 2.7107 -5.47132 0
M  V30 2727 H 265.248 0.452384 -5.71512 0
M  V30 2728 H 263.645 -0.287992 -5.99409 0
M  V30 2729 H 264.715 -0.963391 -4.75233 0
M  V30 2730 N 266.058 1.56714 -0.166846 0
M  V30 2731 C 266.988 2.20754 0.760913 0
M  V30 2732 C 267.969 1.16178 1.24244 0
M  V30 2733 O 269.154 1.44592 1.29641 0
M  V30 2734 C 266.284 2.84478 1.99223 0
M  V30 2735 C 265.238 3.95053 1.64672 0
M  V30 2736 C 264.564 4.45805 2.95232 0
M  V30 2737 C 265.864 5.14865 0.878155 0
M  V30 2738 H 267.558 2.98537 0.22713 0
M  V30 2739 H 265.104 1.43596 0.107805 0
M  V30 2740 H 267.057 3.27951 2.64624 0
M  V30 2741 H 265.781 2.04056 2.55007 0
M  V30 2742 H 264.44 3.52228 1.01641 0
M  V30 2743 H 264.088 3.62181 3.49047 0
M  V30 2744 H 263.788 5.204 2.7287 0
M  V30 2745 H 265.312 4.91962 3.6167 0
M  V30 2746 H 266.726 5.55059 1.43466 0
M  V30 2747 H 265.123 5.95348 0.753738 0
M  V30 2748 H 266.193 4.84735 -0.126377 0
M  V30 2749 N 267.536 -0.106894 1.57237 0
M  V30 2750 C 268.499 -1.11466 2.0027 0
M  V30 2751 C 269.499 -1.33623 0.894519 0
M  V30 2752 O 270.689 -1.29935 1.16028 0
M  V30 2753 C 267.821 -2.46646 2.35327 0
M  V30 2754 H 269.014 -0.744516 2.90512 0
M  V30 2755 H 266.567 -0.351576 1.52295 0
M  V30 2756 H 267.302 -2.88558 1.48003 0
M  V30 2757 H 267.087 -2.31915 3.16161 0
M  V30 2758 H 268.577 -3.19151 2.69318 0
M  V30 2759 N 269.014 -1.53014 -0.377408 0
M  V30 2760 C 269.977 -1.77957 -1.44444 0
M  V30 2761 C 270.977 -0.649763 -1.47087 0
M  V30 2762 O 272.167 -0.917897 -1.48055 0
M  V30 2763 C 269.299 -1.89089 -2.83651 0
M  V30 2764 H 270.492 -2.73243 -1.23606 0
M  V30 2765 H 268.045 -1.43912 -0.609844 0
M  V30 2766 H 268.78 -0.958293 -3.09818 0
M  V30 2767 H 268.565 -2.71254 -2.83132 0
M  V30 2768 H 270.055 -2.1002 -3.60945 0
M  V30 2769 N 270.492 0.636531 -1.44174 0
M  V30 2770 C 271.422 1.76003 -1.53444 0
M  V30 2771 C 272.403 1.65619 -0.387841 0
M  V30 2772 O 273.588 1.84461 -0.607257 0
M  V30 2773 C 270.718 3.14511 -1.4731 0
M  V30 2774 C 269.672 3.39677 -2.60391 0
M  V30 2775 C 268.998 4.78159 -2.39308 0
M  V30 2776 C 270.298 3.32772 -4.02567 0
M  V30 2777 H 271.992 1.68501 -2.47483 0
M  V30 2778 H 269.538 0.809237 -1.19111 0
M  V30 2779 H 271.491 3.92878 -1.52397 0
M  V30 2780 H 270.215 3.22783 -0.49785 0
M  V30 2781 H 268.874 2.63688 -2.54684 0
M  V30 2782 H 268.522 4.83128 -1.39988 0
M  V30 2783 H 268.222 4.95956 -3.15122 0
M  V30 2784 H 269.746 5.58762 -2.46205 0
M  V30 2785 H 271.16 4.01051 -4.09672 0
M  V30 2786 H 269.557 3.62104 -4.7854 0
M  V30 2787 H 270.627 2.30669 -4.2652 0
M  V30 2788 N 271.97 1.30982 0.876444 0
M  V30 2789 C 272.9 1.20668 1.99903 0
M  V30 2790 C 273.881 0.095354 1.69833 0
M  V30 2791 O 275.066 0.27885 1.92188 0
M  V30 2792 C 272.196 0.90655 3.3526 0
M  V30 2793 C 271.15 1.97675 3.79617 0
M  V30 2794 C 270.476 1.52943 5.1236 0
M  V30 2795 C 271.776 3.389 3.97422 0
M  V30 2796 H 273.47 2.14586 2.0879 0
M  V30 2797 H 271.016 1.03308 1.00317 0
M  V30 2798 H 272.969 0.821025 4.13324 0
M  V30 2799 H 271.693 -0.0682969 3.26529 0
M  V30 2800 H 270.352 2.05205 3.03787 0
M  V30 2801 H 270 0.54262 5.00065 0
M  V30 2802 H 269.7 2.24532 5.43009 0
M  V30 2803 H 271.224 1.45786 5.92941 0
M  V30 2804 H 272.638 3.34081 4.659 0
M  V30 2805 H 271.035 4.0865 4.3946 0
M  V30 2806 H 272.105 3.80163 3.01006 0
M  V30 2807 N 273.449 -1.08991 1.13837 0
M  V30 2808 C 274.399 -2.1393 0.788535 0
M  V30 2809 C 275.383 -1.59396 -0.219516 0
M  V30 2810 O 276.575 -1.76985 -0.0227557 0
M  V30 2811 C 273.704 -3.42305 0.261147 0
M  V30 2812 C 272.79 -4.03736 1.29837 0
M  V30 2813 N 273.181 -4.39659 2.50067 0
M  V30 2814 C 271.479 -4.30993 1.1472 0
M  V30 2815 C 272.18 -4.88113 3.16419 0
M  V30 2816 N 271.156 -4.85846 2.43832 0
M  V30 2817 H 274.958 -2.39516 1.70322 0
M  V30 2818 H 272.472 -1.26263 1.02134 0
M  V30 2819 H 274.469 -4.16899 -0.0077405 0
M  V30 2820 H 273.129 -3.18172 -0.647805 0
M  V30 2821 H 274.14 -4.30878 2.8734 0
M  V30 2822 H 270.817 -4.16444 0.296773 0
M  V30 2823 H 272.207 -5.25336 4.18894 0
M  V30 2824 N 274.927 -0.932562 -1.27047 0
M  V30 2825 C 276.343 -0.633544 -1.46487 0
M  V30 2826 C 276.543 0.815746 -1.84249 0
M  V30 2827 O 275.599 1.59319 -1.95892 0
M  V30 2828 C 276.912 -1.58758 -2.55375 0
M  V30 2829 C 278.46 -1.59634 -2.69232 0
M  V30 2830 C 278.935 -2.53747 -3.81283 0
M  V30 2831 N 280.426 -2.51982 -3.88664 0
M  V30 2832 C 281.161 -3.21491 -4.74796 0
M  V30 2833 N 280.657 -4.00395 -5.65381 0
M  V30 2834 N 282.45 -3.10485 -4.68568 0
M  V30 2835 H 274.601 -1.86946 -1.00821 0
M  V30 2836 H 276.864 -0.802897 -0.504044 0
M  V30 2837 H 276.57 -2.62172 -2.34432 0
M  V30 2838 H 276.444 -1.33301 -3.52861 0
M  V30 2839 H 278.831 -0.569488 -2.89553 0
M  V30 2840 H 278.912 -1.89142 -1.72218 0
M  V30 2841 H 278.556 -3.56545 -3.61715 0
M  V30 2842 H 278.486 -2.21532 -4.77735 0
M  V30 2843 H 280.977 -1.94681 -3.23895 0
M  V30 2844 H 281.29 -4.50406 -6.27976 0
M  V30 2845 H 279.635 -4.04498 -5.65161 0
M  V30 2846 H 282.826 -2.48331 -3.96799 0
M  V30 2847 H 282.999 -3.64925 -5.35475 0
M  V30 2848 N 276.405 1.4127 -0.698611 0
M  V30 2849 C 277.315 2.34573 -0.0357891 0
M  V30 2850 C 278.331 1.56393 0.762701 0
M  V30 2851 O 279.507 1.8886 0.699564 0
M  V30 2852 C 276.572 3.35159 0.887089 0
M  V30 2853 C 275.633 4.29225 0.0804634 0
M  V30 2854 C 274.866 5.25006 0.959387 0
M  V30 2855 O 275.089 5.26314 2.19886 0
M  V30 2856 O 274.023 6.00519 0.407439 0
M  V30 2857 H 277.849 2.92838 -0.804957 0
M  V30 2858 H 275.434 1.42175 -0.458966 0
M  V30 2859 H 277.316 3.9689 1.41621 0
M  V30 2860 H 275.991 2.79333 1.6357 0
M  V30 2861 H 274.898 3.70833 -0.493328 0
M  V30 2862 H 276.231 4.88157 -0.629547 0
M  V30 2863 N 277.883 0.443576 1.51229 0
M  V30 2864 C 278.83 -0.364716 2.279 0
M  V30 2865 C 279.8 -1.0114 1.31757 0
M  V30 2866 O 280.985 -1.02912 1.60667 0
M  V30 2867 C 278.125 -1.45644 3.12861 0
M  V30 2868 C 277.238 -0.827269 4.24005 0
M  V30 2869 C 276.373 -1.89456 4.96266 0
M  V30 2870 C 275.412 -1.24416 5.99322 0
M  V30 2871 N 274.549 -2.25309 6.64966 0
M  V30 2872 H 279.389 0.295464 2.96532 0
M  V30 2873 H 276.926 0.157554 1.46254 0
M  V30 2874 H 278.884 -2.10076 3.6045 0
M  V30 2875 H 277.514 -2.08616 2.46331 0
M  V30 2876 H 276.566 -0.0710839 3.80334 0
M  V30 2877 H 277.878 -0.312481 4.9782 0
M  V30 2878 H 277.032 -2.61535 5.47434 0
M  V30 2879 H 275.771 -2.4431 4.22095 0
M  V30 2880 H 274.776 -0.508868 5.4744 0
M  V30 2881 H 276.001 -0.702882 6.75453 0
M  V30 2882 H 273.947 -2.79231 5.93604 0
M  V30 2883 H 273.864 -1.78739 7.34567 0
M  V30 2884 H 275.132 -2.96853 7.20763 0
M  V30 2885 N 279.361 -1.56624 0.175154 0
M  V30 2886 C 280.589 -2.01374 -0.474971 0
M  V30 2887 C 281.004 -1.05537 -1.56548 0
M  V30 2888 O 280.361 -0.0568668 -1.82411 0
M  V30 2889 C 280.412 -3.45923 -1.04975 0
M  V30 2890 O 280.133 -4.381 -0.00276605 0
M  V30 2891 C 281.634 -4.06093 -1.77773 0
M  V30 2892 H 278.854 -0.659962 -0.121206 0
M  V30 2893 H 281.398 -2.02601 0.27801 0
M  V30 2894 H 279.553 -3.45458 -1.75321 0
M  V30 2895 H 279.967 -5.22753 -0.427681 0
M  V30 2896 H 281.441 -5.09147 -2.13245 0
M  V30 2897 H 281.918 -3.48405 -2.67414 0
M  V30 2898 H 282.524 -4.10272 -1.12059 0
M  V30 2899 N 280.839 0.0985539 -1.57292 0
M  V30 2900 C 282.087 0.801092 -1.85545 0
M  V30 2901 C 282.408 1.79438 -0.763353 0
M  V30 2902 O 281.678 1.94763 0.21073 0
M  V30 2903 H 280.258 0.29884 -0.684619 0
M  V30 2904 H 282.92 0.0810064 -1.94732 0
M  V30 2905 H 282.016 1.3338 -2.82163 0
M  V30 2906 N 282.317 1.53212 0.369288 0
M  V30 2907 C 283.733 1.42902 0.710712 0
M  V30 2908 C 283.933 0.565135 1.93413 0
M  V30 2909 O 282.989 0.0461484 2.52458 0
M  V30 2910 C 284.302 2.86042 0.927382 0
M  V30 2911 C 285.85 2.9565 1.02762 0
M  V30 2912 C 286.325 4.39843 1.27679 0
M  V30 2913 N 287.816 4.43256 1.34457 0
M  V30 2914 C 288.551 5.51929 1.55439 0
M  V30 2915 N 288.047 6.70655 1.73762 0
M  V30 2916 N 289.84 5.39502 1.57779 0
M  V30 2917 H 281.991 2.07888 -0.435457 0
M  V30 2918 H 284.254 0.938661 -0.132739 0
M  V30 2919 H 283.96 3.51557 0.100287 0
M  V30 2920 H 283.834 3.29472 1.83653 0
M  V30 2921 H 286.221 2.30291 1.84527 0
M  V30 2922 H 286.302 2.5562 0.0959504 0
M  V30 2923 H 285.946 5.05774 0.464175 0
M  V30 2924 H 285.876 4.77443 2.22162 0
M  V30 2925 H 288.367 3.5769 1.21926 0
M  V30 2926 H 288.68 7.49248 1.89335 0
M  V30 2927 H 287.025 6.73648 1.70948 0
M  V30 2928 H 290.216 4.45713 1.43029 0
M  V30 2929 H 290.389 6.2426 1.7379 0
M  V30 2930 N 283.795 -0.628877 1.44509 0
M  V30 2931 C 285.043 -1.38565 1.4712 0
M  V30 2932 C 285.364 -1.94712 0.105899 0
M  V30 2933 O 284.634 -1.75912 -0.862079 0
M  V30 2934 H 283.214 -0.514333 0.541729 0
M  V30 2935 H 285.876 -0.740018 1.80305 0
M  V30 2936 H 284.972 -2.21583 2.19789 0
M  V30 2937 N 285.273 -1.31445 -0.869486 0
M  V30 2938 C 286.205 -1.14955 -1.98287 0
M  V30 2939 C 287.218 -0.0885037 -1.62559 0
M  V30 2940 O 288.407 -0.336044 -1.75308 0
M  V30 2941 C 285.507 -0.734255 -3.3085 0
M  V30 2942 C 284.68 -1.88042 -3.94917 0
M  V30 2943 C 283.739 -1.4511 -5.05796 0
M  V30 2944 O 282.765 -2.16082 -5.2659 0
M  V30 2945 N 283.967 -0.338763 -5.79511 0
M  V30 2946 H 286.732 -2.10856 -2.12979 0
M  V30 2947 H 284.293 -1.23786 -1.04349 0
M  V30 2948 H 286.285 -0.42975 -4.02412 0
M  V30 2949 H 284.855 0.133158 -3.12316 0
M  V30 2950 H 284.075 -2.35222 -3.1633 0
M  V30 2951 H 285.363 -2.6481 -4.34457 0
M  V30 2952 H 284.761 0.252274 -5.65137 0
M  V30 2953 H 283.318 -0.0937925 -6.51733 0
M  V30 2954 N 286.751 1.08385 -1.14413 0
M  V30 2955 C 288.167 1.32844 -0.884563 0
M  V30 2956 C 288.367 1.95841 0.474181 0
M  V30 2957 O 287.423 2.21158 1.21842 0
M  V30 2958 C 288.736 2.22978 -2.01745 0
M  V30 2959 C 290.284 2.36458 -2.05077 0
M  V30 2960 C 290.759 3.29934 -3.1766 0
M  V30 2961 N 292.25 3.37511 -3.17239 0
M  V30 2962 C 292.985 4.09871 -4.0099 0
M  V30 2963 N 292.481 4.84936 -4.94781 0
M  V30 2964 N 294.274 4.05704 -3.89051 0
M  V30 2965 H 286.425 0.658756 -2.01926 0
M  V30 2966 H 288.688 0.352821 -0.879899 0
M  V30 2967 H 288.394 1.83934 -2.99769 0
M  V30 2968 H 288.268 3.23441 -1.94077 0
M  V30 2969 H 290.655 2.7476 -1.0766 0
M  V30 2970 H 290.736 1.35736 -2.16816 0
M  V30 2971 H 290.38 2.92352 -4.15322 0
M  V30 2972 H 290.31 4.30584 -3.03158 0
M  V30 2973 H 292.801 2.83996 -2.49308 0
M  V30 2974 H 293.114 5.37612 -5.55151 0
M  V30 2975 H 291.459 4.83988 -4.98779 0
M  V30 2976 H 294.65 3.46167 -3.15097 0
M  V30 2977 H 294.823 4.61834 -4.54547 0
M  V30 2978 N 288.23 0.939286 1.26551 0
M  V30 2979 C 289.476 0.586715 1.94128 0
M  V30 2980 C 289.809 -0.8717 1.73537 0
M  V30 2981 O 289.084 -1.62339 1.07127 0
M  V30 2982 C 289.367 0.927497 3.4795 0
M  V30 2983 C 289.22 2.44052 3.77834 0
M  V30 2984 C 290.539 0.441569 4.37879 0
M  V30 2985 H 287.658 0.21463 0.705055 0
M  V30 2986 H 290.3 1.17316 1.49455 0
M  V30 2987 H 288.45 0.428431 3.8613 0
M  V30 2988 H 290.122 3.01216 3.4938 0
M  V30 2989 H 288.365 2.8848 3.23978 0
M  V30 2990 H 289.036 2.62947 4.85348 0
M  V30 2991 H 291.512 0.869448 4.06915 0
M  V30 2992 H 290.388 0.708856 5.44304 0
M  V30 2993 H 290.649 -0.658467 4.37169 0
M  V30 2994 N 289.708 -1.40897 0.706093 0
M  V30 2995 C 290.936 -2.05373 0.250887 0
M  V30 2996 C 291.351 -1.53172 -1.10381 0
M  V30 2997 O 290.708 -0.684305 -1.69185 0
M  V30 2998 C 290.759 -3.6088 0.211571 0
M  V30 2999 O 290.48 -4.11153 1.51276 0
M  V30 3000 C 291.981 -4.42517 -0.263346 0
M  V30 3001 H 289.201 -0.66115 0.114552 0
M  V30 3002 H 291.745 -1.80479 0.961635 0
M  V30 3003 H 289.9 -3.84777 -0.450073 0
M  V30 3004 H 290.314 -5.05279 1.40689 0
M  V30 3005 H 291.788 -5.51479 -0.239718 0
M  V30 3006 H 292.265 -4.19396 -1.30397 0
M  V30 3007 H 292.871 -4.23708 0.367677 0
M  V30 3008 N 291.186 -0.45159 -1.50991 0
M  V30 3009 C 292.119 0.398179 -2.24699 0
M  V30 3010 C 293.097 1.01276 -1.27208 0
M  V30 3011 O 294.281 1.05247 -1.56382 0
M  V30 3012 C 291.408 1.55618 -3.00833 0
M  V30 3013 C 290.454 1.0609 -4.13095 0
M  V30 3014 S 291.287 -0.00865136 -5.35499 0
M  V30 3015 C 292.443 1.15369 -6.15175 0
M  V30 3016 H 292.676 -0.227555 -2.96428 0
M  V30 3017 H 290.209 -0.236251 -1.52582 0
M  V30 3018 H 292.167 2.21997 -3.45293 0
M  V30 3019 H 290.828 2.15337 -2.28667 0
M  V30 3020 H 290.021 1.92726 -4.65696 0
M  V30 3021 H 289.623 0.47513 -3.7097 0
M  V30 3022 H 291.915 2.06925 -6.45126 0
M  V30 3023 H 292.858 0.667344 -7.04948 0
M  V30 3024 H 293.266 1.3987 -5.46897 0
M  V30 3025 N 292.664 1.56529 -0.183458 0
M  V30 3026 C 293.889 2.02064 0.467428 0
M  V30 3027 C 294.314 1.06282 1.55196 0
M  V30 3028 O 293.672 0.0443565 1.81246 0
M  V30 3029 C 293.72 3.46122 1.01153 0
M  V30 3030 O 292.824 3.53437 2.12499 0
M  V30 3031 H 292.165 0.654726 0.110588 0
M  V30 3032 H 294.695 2.02521 -0.290917 0
M  V30 3033 H 294.705 3.85676 1.33108 0
M  V30 3034 H 293.38 4.15331 0.217533 0
M  V30 3035 H 291.957 3.2575 1.81497 0
M  V30 3036 N 294.142 -0.090211 1.57342 0
M  V30 3037 C 295.075 -1.14035 1.97664 0
M  V30 3038 C 296.053 -1.38576 0.850616 0
M  V30 3039 O 297.237 -1.52255 1.11134 0
M  V30 3040 C 294.364 -2.48854 2.2976 0
M  V30 3041 C 293.41 -2.40564 3.52181 0
M  V30 3042 S 294.243 -1.81745 5.03715 0
M  V30 3043 C 295.399 -3.18178 5.38993 0
M  V30 3044 H 295.632 -0.796636 2.86428 0
M  V30 3045 H 293.165 -0.298072 1.51496 0
M  V30 3046 H 295.123 -3.26413 2.48927 0
M  V30 3047 H 293.784 -2.80393 1.41558 0
M  V30 3048 H 292.977 -3.39942 3.72096 0
M  V30 3049 H 292.579 -1.71135 3.32549 0
M  V30 3050 H 294.871 -4.14461 5.35937 0
M  V30 3051 H 295.814 -3.03062 6.39968 0
M  V30 3052 H 296.222 -3.17935 4.66452 0
M  V30 3053 N 295.62 -1.53406 -0.361157 0
M  V30 3054 C 296.552 -1.76446 -1.46286 0
M  V30 3055 C 297.565 -0.645322 -1.49464 0
M  V30 3056 O 298.754 -0.921681 -1.52864 0
M  V30 3057 C 295.854 -1.83332 -2.85031 0
M  V30 3058 C 295.027 -3.13033 -3.05498 0
M  V30 3059 C 294.086 -3.11104 -4.24383 0
M  V30 3060 O 293.112 -3.84888 -4.19344 0
M  V30 3061 N 294.314 -2.32234 -5.32022 0
M  V30 3062 H 297.079 -2.71508 -1.26899 0
M  V30 3063 H 294.64 -1.52238 -0.550915 0
M  V30 3064 H 296.632 -1.79514 -3.62708 0
M  V30 3065 H 295.202 -0.955342 -2.97644 0
M  V30 3066 H 294.422 -3.30119 -2.15442 0
M  V30 3067 H 295.71 -3.9874 -3.16044 0
M  V30 3068 H 295.108 -1.71807 -5.38979 0
M  V30 3069 H 293.665 -2.3423 -6.08259 0
M  V30 3070 N 297.098 0.621204 -1.44841 0
M  V30 3071 C 298.375 1.38 -1.38619 0
M  V30 3072 C 298.755 2.11041 -0.0498935 0
M  V30 3073 O 298.103 2.06992 0.967816 0
M  V30 3074 C 298.313 2.33817 -2.59096 0
M  V30 3075 C 299.661 2.96844 -3.03593 0
M  V30 3076 O 300.685 2.44141 -2.59371 0
M  V30 3077 O 299.544 3.92476 -3.80296 0
M  V30 3078 H 296.638 0.61811 -0.549426 0
M  V30 3079 H 299.184 0.645429 -1.56947 0
M  V30 3080 H 297.956 1.79012 -3.47952 0
M  V30 3081 H 297.579 3.14676 -2.43032 0
M  V30 3082 N 298.576 1.31904 0.862503 0
M  V30 3083 C 299.539 1.20131 1.95195 0
M  V30 3084 C 300.539 0.126409 1.60302 0
M  V30 3085 O 301.729 0.376234 1.70089 0
M  V30 3086 C 298.861 0.845691 3.30244 0
M  V30 3087 H 300.054 2.16943 2.07064 0
M  V30 3088 H 297.607 1.15622 1.05172 0
M  V30 3089 H 298.342 -0.120957 3.24074 0
M  V30 3090 H 298.127 1.62276 3.56944 0
M  V30 3091 H 299.617 0.787418 4.10109 0
M  V30 3092 N 300.054 -1.07777 1.14986 0
M  V30 3093 C 301.3 -1.80557 0.923422 0
M  V30 3094 C 301.633 -1.86298 -0.548337 0
M  V30 3095 O 300.908 -1.34354 -1.40639 0
M  V30 3096 C 301.191 -3.25839 1.53299 0
M  V30 3097 C 301.044 -3.28269 3.07505 0
M  V30 3098 C 302.363 -4.22991 1.21518 0
M  V30 3099 H 299.482 -0.655493 0.336894 0
M  V30 3100 H 302.124 -1.26144 1.42083 0
M  V30 3101 H 300.274 -3.72306 1.10999 0
M  V30 3102 H 301.946 -2.90079 3.58681 0
M  V30 3103 H 300.189 -2.67355 3.4162 0
M  V30 3104 H 300.86 -4.30691 3.45266 0
M  V30 3105 H 303.336 -3.84894 1.581 0
M  V30 3106 H 302.212 -5.22945 1.66793 0
M  V30 3107 H 302.473 -4.41904 0.131505 0
M  V30 3108 N 301.532 -0.945985 -1.26051 0
M  V30 3109 C 302.462 -0.477172 -2.28572 0
M  V30 3110 C 303.443 0.472032 -1.63419 0
M  V30 3111 O 304.628 0.372853 -1.90587 0
M  V30 3112 C 301.758 0.253975 -3.4637 0
M  V30 3113 C 300.712 -0.609135 -4.23643 0
M  V30 3114 C 300.038 0.252252 -5.34105 0
M  V30 3115 C 301.338 -1.8829 -4.8718 0
M  V30 3116 H 303.032 -1.33402 -2.68038 0
M  V30 3117 H 300.578 -0.642904 -1.28852 0
M  V30 3118 H 302.531 0.593016 -4.17207 0
M  V30 3119 H 301.255 1.145 -3.05871 0
M  V30 3120 H 299.914 -0.931138 -3.54578 0
M  V30 3121 H 299.562 1.14278 -4.89846 0
M  V30 3122 H 299.262 -0.32188 -5.86718 0
M  V30 3123 H 300.786 0.586454 -6.07777 0
M  V30 3124 H 302.2 -1.61081 -5.50205 0
M  V30 3125 H 300.597 -2.40199 -5.49931 0
M  V30 3126 H 301.667 -2.59134 -4.09851 0
M  V30 3127 N 303.011 1.40521 -0.713556 0
M  V30 3128 C 303.959 2.32549 -0.0485227 0
M  V30 3129 C 304.953 1.51931 0.74922 0
M  V30 3130 O 306.159 1.67745 0.652816 0
M  V30 3131 H 302.534 0.751994 0.00311138 0
M  V30 3132 H 304.505 2.86291 -0.841443 0
M  V30 3133 C 303.254 3.36879 0.860687 0
M  V30 3134 H 302.577 3.98978 0.256246 0
M  V30 3135 H 304.017 4.03772 1.294 0
M  V30 3136 C 302.476 2.72197 1.9852 0
M  V30 3137 O 303.006 2.5837 3.07584 0
M  V30 3138 N 301.212 2.30612 1.76823 0
M  V30 3139 H 300.759 2.42059 0.881217 0
M  V30 3140 H 300.717 1.87672 2.52243 0
M  V30 3141 N 304.489 0.459591 1.5075 0
M  V30 3142 C 305.419 -0.330644 2.31147 0
M  V30 3143 C 306.4 -1.00087 1.37538 0
M  V30 3144 O 307.585 -1.00025 1.66459 0
M  V30 3145 C 304.715 -1.41958 3.16962 0
M  V30 3146 C 303.669 -0.871608 4.19031 0
M  V30 3147 C 302.995 -2.05797 4.9351 0
M  V30 3148 C 304.295 0.109251 5.22186 0
M  V30 3149 H 305.989 0.340336 2.97459 0
M  V30 3150 H 303.535 0.165119 1.4305 0
M  V30 3151 H 305.488 -1.9798 3.71997 0
M  V30 3152 H 304.212 -2.11917 2.48513 0
M  V30 3153 H 302.871 -0.333442 3.6508 0
M  V30 3154 H 302.519 -2.74427 4.21544 0
M  V30 3155 H 302.219 -1.6976 5.62544 0
M  V30 3156 H 303.743 -2.62331 5.51375 0
M  V30 3157 H 305.157 -0.361405 5.7216 0
M  V30 3158 H 303.554 0.383316 5.98875 0
M  V30 3159 H 304.624 1.03887 4.73641 0
M  V30 3160 N 305.967 -1.56429 0.191757 0
M  V30 3161 C 307.207 -1.99383 -0.450099 0
M  V30 3162 C 307.571 -1.07581 -1.59029 0
M  V30 3163 O 308.772 -1.39758 -2.29611 0
M  V30 3164 C 307.043 -3.45841 -0.901611 0
M  V30 3165 S 308.602 -4.10822 -1.54177 0
M  V30 3166 H 305.42 -0.696253 -0.144057 0
M  V30 3167 H 308.022 -1.93276 0.294036 0
M  V30 3168 H 306.726 -4.10354 -0.0616596 0
M  V30 3169 H 306.257 -3.55757 -1.67929 0
M  V30 3170 H 308.272 -4.07553 -2.83046 0
M  V30 3171 N 307.445 0.0818655 -1.57387 0
M  V30 3172 C 308.861 0.436412 -1.53517 0
M  V30 3173 C 309.061 1.79758 -0.910459 0
M  V30 3174 O 308.117 2.47324 -0.508636 0
M  V30 3175 C 309.43 0.386734 -2.98203 0
M  V30 3176 C 310.978 0.467644 -3.09487 0
M  V30 3177 C 311.453 0.447978 -4.55804 0
M  V30 3178 N 312.944 0.508348 -4.60402 0
M  V30 3179 C 313.679 0.515184 -5.71081 0
M  V30 3180 N 313.175 0.477435 -6.91153 0
M  V30 3181 N 314.968 0.560988 -5.59294 0
M  V30 3182 H 307.119 -0.809546 -1.96367 0
M  V30 3183 H 309.382 -0.302733 -0.898363 0
M  V30 3184 H 309.088 -0.546539 -3.47427 0
M  V30 3185 H 308.962 1.20075 -3.57578 0
M  V30 3186 H 311.349 1.39134 -2.60242 0
M  V30 3187 H 311.43 -0.374753 -2.5304 0
M  V30 3188 H 311.074 -0.471826 -5.05704 0
M  V30 3189 H 311.004 1.30777 -5.10103 0
M  V30 3190 H 313.495 0.54218 -3.7399 0
M  V30 3191 H 313.808 0.486299 -7.71268 0
M  V30 3192 H 312.153 0.444278 -6.93579 0
M  V30 3193 H 315.344 0.5881 -4.64391 0
M  V30 3194 H 315.517 0.562846 -6.45551 0
M  V30 3195 N 308.923 1.53595 0.353017 0
M  V30 3196 C 310.169 1.70638 1.09593 0
M  V30 3197 C 310.502 0.463286 1.88593 0
M  V30 3198 O 309.777 -0.539597 1.86865 0
M  V30 3199 C 310.06 2.96406 2.04489 0
M  V30 3200 C 309.913 4.30901 1.29014 0
M  V30 3201 C 311.232 3.17812 3.0444 0
M  V30 3202 H 308.351 0.620913 0.397034 0
M  V30 3203 H 310.993 1.86254 0.375446 0
M  V30 3204 H 309.143 2.83223 2.65927 0
M  V30 3205 H 310.815 4.55917 0.702638 0
M  V30 3206 H 309.058 4.29741 0.592071 0
M  V30 3207 H 309.729 5.1506 1.98537 0
M  V30 3208 H 312.205 3.30263 2.53112 0
M  V30 3209 H 311.081 4.07223 3.6805 0
M  V30 3210 H 311.342 2.33669 3.75301 0
M  V30 3211 N 310.401 -0.613514 1.45168 0
M  V30 3212 C 311.348 -1.72456 1.53387 0
M  V30 3213 C 312.318 -1.6169 0.380191 0
M  V30 3214 O 313.503 -1.81356 0.592836 0
M  V30 3215 C 310.643 -3.10753 1.50088 0
M  V30 3216 C 309.756 -3.32368 2.75963 0
M  V30 3217 C 308.891 -4.60737 2.64376 0
M  V30 3218 C 307.93 -4.7559 3.85332 0
M  V30 3219 N 307.067 -5.95253 3.72315 0
M  V30 3220 H 311.907 -1.64768 2.48305 0
M  V30 3221 H 309.444 -0.803503 1.23216 0
M  V30 3222 H 311.402 -3.90758 1.46164 0
M  V30 3223 H 310.032 -3.17413 0.587243 0
M  V30 3224 H 309.084 -2.4618 2.89999 0
M  V30 3225 H 310.396 -3.39218 3.65695 0
M  V30 3226 H 309.55 -5.48928 2.58385 0
M  V30 3227 H 308.289 -4.56275 1.72233 0
M  V30 3228 H 307.294 -3.85824 3.91688 0
M  V30 3229 H 308.519 -4.81854 4.78533 0
M  V30 3230 H 306.465 -5.91847 2.82937 0
M  V30 3231 H 306.382 -6.03236 4.55677 0
M  V30 3232 H 307.65 -6.85958 3.70246 0
M  V30 3233 N 311.879 -1.3236 -0.855495 0
M  V30 3234 C 312.809 -1.23833 -1.97958 0
M  V30 3235 C 313.79 -0.122361 -1.69659 0
M  V30 3236 O 314.975 -0.30939 -1.9172 0
M  V30 3237 C 312.105 -0.959772 -3.33775 0
M  V30 3238 C 311.059 -2.03689 -3.76424 0
M  V30 3239 C 310.385 -1.61075 -5.09862 0
M  V30 3240 C 311.685 -3.4518 -3.9198 0
M  V30 3241 H 313.379 -2.1788 -2.0535 0
M  V30 3242 H 310.925 -1.04891 -0.986605 0
M  V30 3243 H 312.878 -0.886678 -4.11966 0
M  V30 3244 H 311.602 0.0163404 -3.26596 0
M  V30 3245 H 310.261 -2.10012 -3.00484 0
M  V30 3246 H 309.909 -0.622107 -4.99138 0
M  V30 3247 H 309.609 -2.33143 -5.39368 0
M  V30 3248 H 311.133 -1.55201 -5.90546 0
M  V30 3249 H 312.547 -3.4145 -4.60526 0
M  V30 3250 H 310.944 -4.1559 -4.32903 0
M  V30 3251 H 312.014 -3.84903 -2.94919 0
M  V30 3252 N 313.357 1.07166 -1.15556 0
M  V30 3253 C 314.773 1.31899 -0.898603 0
M  V30 3254 C 314.973 1.96333 0.453383 0
M  V30 3255 O 314.029 2.22438 1.19489 0
M  V30 3256 C 315.342 2.20826 -2.04099 0
M  V30 3257 C 316.89 2.34269 -2.07574 0
M  V30 3258 C 317.365 3.26546 -3.21141 0
M  V30 3259 N 318.856 3.34127 -3.20801 0
M  V30 3260 C 319.591 4.05595 -4.05315 0
M  V30 3261 N 319.087 4.79661 -4.99897 0
M  V30 3262 N 320.88 4.01555 -3.93332 0
M  V30 3263 H 313.031 0.637302 -2.02613 0
M  V30 3264 H 315.294 0.343468 -0.883591 0
M  V30 3265 H 315 1.80744 -3.01703 0
M  V30 3266 H 314.874 3.21364 -1.97496 0
M  V30 3267 H 317.261 2.73603 -1.10568 0
M  V30 3268 H 317.342 1.33429 -2.18244 0
M  V30 3269 H 316.986 2.87931 -4.184 0
M  V30 3270 H 316.916 4.27345 -3.07708 0
M  V30 3271 H 319.407 2.81336 -2.52306 0
M  V30 3272 H 319.72 5.31694 -5.60822 0
M  V30 3273 H 318.065 4.78671 -5.03884 0
M  V30 3274 H 321.256 3.42806 -3.18751 0
M  V30 3275 H 321.429 4.56987 -4.5942 0
M  V30 3276 N 314.835 0.952656 1.25548 0
M  V30 3277 C 316.112 0.523818 1.88456 0
M  V30 3278 C 316.492 -0.998871 1.85973 0
M  V30 3279 O 315.84 -1.86381 1.3219 0
M  V30 3280 C 316.05 1.0982 3.31271 0
M  V30 3281 C 317.398 1.17385 4.08051 0
M  V30 3282 O 318.422 1.04961 3.40384 0
M  V30 3283 O 317.281 1.36852 5.29088 0
M  V30 3284 H 314.375 0.172485 0.808813 0
M  V30 3285 H 316.921 1.04596 1.33633 0
M  V30 3286 H 315.693 2.1415 3.27499 0
M  V30 3287 H 315.316 0.559191 3.93648 0
M  V30 3288 N 316.313 -1.40141 0.720998 0
M  V30 3289 C 317.245 -2.29177 0.0324669 0
M  V30 3290 C 318.258 -1.46105 -0.718126 0
M  V30 3291 O 319.447 -1.69335 -0.564608 0
M  V30 3292 C 316.547 -3.24473 -0.978292 0
M  V30 3293 C 315.72 -4.36423 -0.292115 0
M  V30 3294 C 314.779 -5.12122 -1.20901 0
M  V30 3295 O 313.805 -5.64981 -0.691766 0
M  V30 3296 N 315.007 -5.21992 -2.53978 0
M  V30 3297 H 317.772 -2.88909 0.796984 0
M  V30 3298 H 315.333 -1.51569 0.569068 0
M  V30 3299 H 317.325 -3.71987 -1.59398 0
M  V30 3300 H 315.895 -2.65871 -1.64413 0
M  V30 3301 H 315.115 -3.90967 0.503847 0
M  V30 3302 H 316.403 -5.08467 0.183971 0
M  V30 3303 H 315.801 -4.8054 -2.98493 0
M  V30 3304 H 314.358 -5.72995 -3.10677 0
M  V30 3305 N 317.792 -0.46758 -1.50504 0
M  V30 3306 C 318.724 0.364655 -2.26281 0
M  V30 3307 C 319.737 0.960151 -1.31472 0
M  V30 3308 O 320.926 0.849153 -1.57008 0
M  V30 3309 C 318.026 1.52509 -3.02645 0
M  V30 3310 C 317.199 1.04302 -4.24782 0
M  V30 3311 C 316.258 2.07709 -4.8347 0
M  V30 3312 O 315.284 1.65913 -5.44483 0
M  V30 3313 N 316.486 3.40485 -4.70159 0
M  V30 3314 H 319.251 -0.28495 -2.98342 0
M  V30 3315 H 316.812 -0.298163 -1.59131 0
M  V30 3316 H 318.804 2.21371 -3.38787 0
M  V30 3317 H 317.374 2.07945 -2.33404 0
M  V30 3318 H 316.594 0.180393 -3.93787 0
M  V30 3319 H 317.882 0.698798 -5.03978 0
M  V30 3320 H 317.28 3.77155 -4.21629 0
M  V30 3321 H 315.837 4.05156 -5.1058 0
M  V30 3322 N 319.27 1.56325 -0.20005 0
M  V30 3323 C 320.686 1.58839 0.155716 0
M  V30 3324 C 320.886 1.21636 1.60645 0
M  V30 3325 O 319.942 0.941437 2.34293 0
M  V30 3326 C 321.255 3.0032 -0.151124 0
M  V30 3327 C 322.803 3.12866 -0.0916284 0
M  V30 3328 C 323.278 4.56488 -0.371845 0
M  V30 3329 N 324.769 4.62089 -0.320641 0
M  V30 3330 C 325.504 5.71116 -0.511243 0
M  V30 3331 N 325 6.88592 -0.762461 0
M  V30 3332 N 326.793 5.60335 -0.445157 0
M  V30 3333 H 318.944 1.78788 -1.14668 0
M  V30 3334 H 321.207 0.829996 -0.458051 0
M  V30 3335 H 320.913 3.32117 -1.15721 0
M  V30 3336 H 320.787 3.73257 0.543986 0
M  V30 3337 H 323.174 2.80878 0.905065 0
M  V30 3338 H 323.255 2.42304 -0.81989 0
M  V30 3339 H 322.899 4.89189 -1.36588 0
M  V30 3340 H 322.829 5.25246 0.377362 0
M  V30 3341 H 325.32 3.77665 -0.13329 0
M  V30 3342 H 325.633 7.67581 -0.896576 0
M  V30 3343 H 323.978 6.90387 -0.799412 0
M  V30 3344 H 327.169 4.67436 -0.249278 0
M  V30 3345 H 327.342 6.45243 -0.597116 0
M  V30 3346 N 320.748 -0.0735177 1.57428 0
M  V30 3347 C 321.678 -1.0879 2.06608 0
M  V30 3348 C 322.659 -1.40473 0.959237 0
M  V30 3349 O 323.844 -1.5013 1.23185 0
M  V30 3350 C 320.974 -2.40183 2.50857 0
M  V30 3351 C 319.928 -2.22858 3.65402 0
M  V30 3352 C 319.254 -3.59619 3.957 0
M  V30 3353 C 320.554 -1.65123 4.95511 0
M  V30 3354 H 322.248 -0.678673 2.91607 0
M  V30 3355 H 319.794 -0.325013 1.40284 0
M  V30 3356 H 321.747 -3.11437 2.83874 0
M  V30 3357 H 320.471 -2.83083 1.62885 0
M  V30 3358 H 319.13 -1.54045 3.32664 0
M  V30 3359 H 318.778 -4.00086 3.04861 0
M  V30 3360 H 318.478 -3.48866 4.72828 0
M  V30 3361 H 320.002 -4.32306 4.31212 0
M  V30 3362 H 321.416 -2.26241 5.26771 0
M  V30 3363 H 319.813 -1.65071 5.7695 0
M  V30 3364 H 320.883 -0.612559 4.81015 0
M  V30 3365 N 322.226 -1.5378 -0.344866 0
M  V30 3366 C 323.503 -1.61589 -1.10219 0
M  V30 3367 C 323.883 -0.436316 -2.06542 0
M  V30 3368 O 323.231 0.571543 -2.21237 0
M  V30 3369 C 323.441 -2.97602 -1.82301 0
M  V30 3370 C 324.789 -3.5291 -2.36093 0
M  V30 3371 O 325.813 -2.99768 -1.924 0
M  V30 3372 O 324.672 -4.45859 -3.16026 0
M  V30 3373 H 321.766 -0.653522 -0.506792 0
M  V30 3374 H 324.312 -1.66126 -0.346465 0
M  V30 3375 H 323.084 -3.74893 -1.12121 0
M  V30 3376 H 322.707 -2.9665 -2.64735 0
M  V30 3377 N 323.704 0.605807 -1.45491 0
M  V30 3378 C 324.651 1.7164 -1.54299 0
M  V30 3379 C 325.621 1.61486 -0.388761 0
M  V30 3380 O 326.806 1.81039 -0.602445 0
M  V30 3381 C 323.946 3.09953 -1.51734 0
M  V30 3382 C 323.059 3.309 -2.77721 0
M  V30 3383 C 322.194 4.59329 -2.66816 0
M  V30 3384 C 321.233 4.7354 -3.87848 0
M  V30 3385 N 320.37 5.9327 -3.75467 0
M  V30 3386 H 325.21 1.63449 -2.49176 0
M  V30 3387 H 322.747 0.796957 -1.23641 0
M  V30 3388 H 324.705 3.89977 -1.48235 0
M  V30 3389 H 323.335 3.17098 -0.604068 0
M  V30 3390 H 322.387 2.44639 -2.913 0
M  V30 3391 H 323.699 3.37274 -3.67488 0
M  V30 3392 H 322.853 5.4755 -2.61292 0
M  V30 3393 H 321.592 4.55355 -1.74651 0
M  V30 3394 H 320.597 3.83741 -3.93729 0
M  V30 3395 H 321.822 4.79309 -4.81082 0
M  V30 3396 H 319.768 5.90338 -2.86072 0
M  V30 3397 H 319.685 6.00811 -4.5887 0
M  V30 3398 H 320.953 6.83984 -3.73879 0
M  V30 3399 N 325.182 1.32811 0.848464 0
M  V30 3400 C 326.112 1.24882 1.97299 0
M  V30 3401 C 327.093 0.131357 1.69592 0
M  V30 3402 O 328.278 0.319553 1.91553 0
M  V30 3403 C 325.408 0.97746 3.33261 0
M  V30 3404 C 324.362 2.05682 3.75338 0
M  V30 3405 C 323.688 1.63777 5.09 0
M  V30 3406 C 324.988 3.47254 3.90144 0
M  V30 3407 H 326.682 2.18966 2.04191 0
M  V30 3408 H 324.228 1.05413 0.981029 0
M  V30 3409 H 326.181 0.908513 4.1149 0
M  V30 3410 H 324.905 0.000980011 3.266 0
M  V30 3411 H 323.564 2.11603 2.99366 0
M  V30 3412 H 323.212 0.648569 4.98801 0
M  V30 3413 H 322.912 2.36 5.38124 0
M  V30 3414 H 324.436 1.5833 5.89715 0
M  V30 3415 H 325.85 3.43888 4.58709 0
M  V30 3416 H 324.247 4.1788 4.30693 0
M  V30 3417 H 325.317 3.86462 2.92874 0
M  V30 3418 N 326.66 -1.06551 1.16123 0
M  V30 3419 C 327.908 -1.78947 0.939267 0
M  V30 3420 C 328.229 -1.87532 -0.534476 0
M  V30 3421 O 327.499 -1.38211 -1.38833 0
M  V30 3422 H 326.079 -0.662807 0.344523 0
M  V30 3423 H 328.741 -1.28725 1.46342 0
M  V30 3424 H 327.837 -2.81117 1.35572 0
M  V30 3425 N 328.138 -0.959301 -1.25041 0
M  V30 3426 C 329.368 -0.63303 -1.96663 0
M  V30 3427 C 329.776 0.800031 -1.71453 0
M  V30 3428 O 329.119 1.54736 -0.99008 0
M  V30 3429 C 329.181 -0.817523 -3.50081 0
M  V30 3430 C 328.845 -2.22863 -3.98975 0
M  V30 3431 C 329.842 -3.20569 -4.09306 0
M  V30 3432 C 327.527 -2.55407 -4.32519 0
M  V30 3433 C 329.521 -4.4891 -4.52503 0
M  V30 3434 C 327.208 -3.83976 -4.754 0
M  V30 3435 C 328.206 -4.8054 -4.85356 0
M  V30 3436 O 327.894 -6.06817 -5.27284 0
M  V30 3437 H 327.626 -0.235866 -0.633516 0
M  V30 3438 H 330.18 -1.2874 -1.60047 0
M  V30 3439 H 328.41 -0.105992 -3.86555 0
M  V30 3440 H 330.099 -0.491604 -4.02912 0
M  V30 3441 H 330.865 -2.96753 -3.83618 0
M  V30 3442 H 326.744 -1.8097 -4.23994 0
M  V30 3443 H 330.288 -5.24283 -4.60188 0
M  V30 3444 H 326.185 -4.07596 -5.00535 0
M  V30 3445 H 326.953 -6.10262 -5.45457 0
M  V30 3446 N 329.616 1.39756 -0.72842 0
M  V30 3447 C 330.546 2.33289 -0.0991354 0
M  V30 3448 C 331.527 1.53568 0.731489 0
M  V30 3449 O 332.712 1.81987 0.677807 0
M  V30 3450 C 329.842 3.3763 0.813834 0
M  V30 3451 C 328.796 4.2791 0.0878663 0
M  V30 3452 C 328.122 5.22894 1.11741 0
M  V30 3453 C 329.422 5.11314 -1.06563 0
M  V30 3454 H 331.116 2.86163 -0.880408 0
M  V30 3455 H 328.662 1.37591 -0.424819 0
M  V30 3456 H 330.615 4.0201 1.26355 0
M  V30 3457 H 329.339 2.83181 1.62715 0
M  V30 3458 H 327.998 3.65 -0.342159 0
M  V30 3459 H 327.646 4.64744 1.92412 0
M  V30 3460 H 327.346 5.84143 0.636477 0
M  V30 3461 H 328.87 5.90151 1.56697 0
M  V30 3462 H 330.284 5.69076 -0.694671 0
M  V30 3463 H 328.681 5.81671 -1.47577 0
M  V30 3464 H 329.751 4.46534 -1.89038 0
M  V30 3465 N 331.094 0.475555 1.50254 0
M  V30 3466 C 332.004 -0.321501 2.32387 0
M  V30 3467 C 333.02 -0.991755 1.42969 0
M  V30 3468 O 334.196 -0.978747 1.76018 0
M  V30 3469 C 331.261 -1.38667 3.17762 0
M  V30 3470 C 330.322 -0.732538 4.23004 0
M  V30 3471 C 329.555 -1.74695 5.04299 0
M  V30 3472 O 329.778 -2.97399 4.86734 0
M  V30 3473 O 328.712 -1.31631 5.8733 0
M  V30 3474 H 332.538 0.350071 3.01676 0
M  V30 3475 H 330.123 0.237321 1.47503 0
M  V30 3476 H 332.005 -2.00354 3.70724 0
M  V30 3477 H 330.68 -2.04163 2.51196 0
M  V30 3478 H 329.587 -0.0765902 3.74022 0
M  V30 3479 H 330.92 -0.120452 4.92053 0
M  V30 3480 N 332.573 -1.56217 0.208337 0
M  V30 3481 C 333.483 -2.23316 -0.718836 0
M  V30 3482 C 334.499 -1.23648 -1.22422 0
M  V30 3483 O 335.675 -1.56423 -1.26861 0
M  V30 3484 C 332.74 -2.88968 -1.91568 0
M  V30 3485 C 331.801 -4.03943 -1.45357 0
M  V30 3486 C 331.034 -4.66455 -2.59337 0
M  V30 3487 O 331.257 -4.27919 -3.77149 0
M  V30 3488 O 330.191 -5.55686 -2.31293 0
M  V30 3489 H 334.017 -3.03182 -0.177315 0
M  V30 3490 H 331.602 -1.49384 -0.0215402 0
M  V30 3491 H 333.484 -3.30455 -2.61491 0
M  V30 3492 H 332.159 -2.12071 -2.44556 0
M  V30 3493 H 331.066 -3.67052 -0.722746 0
M  V30 3494 H 332.399 -4.82543 -0.970219 0
M  V30 3495 N 334.051 0.0651679 -1.57465 0
M  V30 3496 C 335.281 0.774683 -1.91526 0
M  V30 3497 C 335.689 1.71305 -0.803196 0
M  V30 3498 O 335.032 1.82231 0.231881 0
M  V30 3499 C 335.094 1.61645 -3.21109 0
M  V30 3500 C 334.758 0.846753 -4.49087 0
M  V30 3501 C 335.755 0.163024 -5.19644 0
M  V30 3502 C 333.44 0.811966 -4.95694 0
M  V30 3503 C 335.434 -0.54519 -6.35064 0
M  V30 3504 C 333.121 0.0999836 -6.11018 0
M  V30 3505 C 334.119 -0.577388 -6.80555 0
M  V30 3506 O 333.807 -1.27789 -7.93678 0
M  V30 3507 H 333.539 0.225031 -0.637446 0
M  V30 3508 H 336.093 0.0377134 -2.05365 0
M  V30 3509 H 334.323 2.39638 -3.03497 0
M  V30 3510 H 336.012 2.20525 -3.40769 0
M  V30 3511 H 336.778 0.181163 -4.84662 0
M  V30 3512 H 332.657 1.32867 -4.41438 0
M  V30 3513 H 336.201 -1.07446 -6.89276 0
M  V30 3514 H 332.098 0.0797945 -6.45451 0
M  V30 3515 H 332.866 -1.18784 -8.09835 0
M  V30 3516 N 335.529 1.53961 0.336706 0
M  V30 3517 C 336.94 1.62914 0.911925 0
M  V30 3518 C 337.291 0.514795 1.89326 0
M  V30 3519 O 336.416 -0.354395 2.13478 0
M  V30 3520 C 337.011 2.95304 1.66076 0
M  V30 3521 C 335.57 3.06496 2.18489 0
M  V30 3522 C 334.717 2.58403 1.00613 0
M  V30 3523 H 337.668 1.58285 0.114649 0
M  V30 3524 H 337.689 2.84727 2.5241 0
M  V30 3525 H 337.201 3.76387 0.946276 0
M  V30 3526 H 335.302 2.3006 2.93092 0
M  V30 3527 H 335.415 4.1208 2.44391 0
M  V30 3528 H 333.779 2.13977 1.38152 0
M  V30 3529 H 334.562 3.41932 0.306179 0
M  V30 3530 N 337.007 -0.598083 1.45811 0
M  V30 3531 C 337.939 -1.72231 1.51225 0
M  V30 3532 C 338.952 -1.57757 0.402059 0
M  V30 3533 O 340.141 -1.65464 0.669624 0
M  V30 3534 C 337.241 -3.10331 1.3619 0
M  V30 3535 C 336.414 -3.50955 2.61054 0
M  V30 3536 C 335.473 -4.68055 2.40439 0
M  V30 3537 O 334.499 -4.74691 3.14097 0
M  V30 3538 N 335.701 -5.61941 1.45612 0
M  V30 3539 H 338.466 -1.68046 2.48154 0
M  V30 3540 H 336.027 -0.783637 1.41671 0
M  V30 3541 H 338.019 -3.86439 1.20195 0
M  V30 3542 H 336.589 -3.0897 0.475015 0
M  V30 3543 H 335.809 -2.64711 2.92099 0
M  V30 3544 H 337.097 -3.74858 3.44034 0
M  V30 3545 H 336.495 -5.59301 0.848431 0
M  V30 3546 H 335.052 -6.37542 1.35585 0
M  V30 3547 N 338.485 -1.33259 -0.841409 0
M  V30 3548 C 339.715 -1.2742 -1.62628 0
M  V30 3549 C 340.123 0.157604 -1.88542 0
M  V30 3550 O 339.466 1.10938 -1.46419 0
M  V30 3551 C 339.528 -1.97797 -3.00194 0
M  V30 3552 C 339.192 -3.47109 -2.97261 0
M  V30 3553 C 340.189 -4.42358 -2.73159 0
M  V30 3554 C 337.874 -3.89247 -3.17478 0
M  V30 3555 C 339.868 -5.77718 -2.69296 0
M  V30 3556 C 337.555 -5.24713 -3.13241 0
M  V30 3557 C 338.553 -6.1876 -2.89181 0
M  V30 3558 O 338.241 -7.51745 -2.84843 0
M  V30 3559 H 337.973 -0.440436 -0.512827 0
M  V30 3560 H 340.527 -1.76153 -1.05638 0
M  V30 3561 H 338.757 -1.43652 -3.59028 0
M  V30 3562 H 340.446 -1.8549 -3.61038 0
M  V30 3563 H 341.212 -4.11127 -2.57294 0
M  V30 3564 H 337.091 -3.16456 -3.35226 0
M  V30 3565 H 340.635 -6.51097 -2.50436 0
M  V30 3566 H 336.532 -5.55569 -3.28654 0
M  V30 3567 H 337.3 -7.61262 -3.00702 0
M  V30 3568 N 339.963 1.05934 -1.16686 0
M  V30 3569 C 341.374 1.60263 -0.957745 0
M  V30 3570 C 341.725 1.89789 0.49745 0
M  V30 3571 O 340.85 1.67401 1.37135 0
M  V30 3572 C 341.445 2.91172 -1.73218 0
M  V30 3573 C 340.004 3.42188 -1.56794 0
M  V30 3574 C 339.151 2.16028 -1.73859 0
M  V30 3575 H 342.102 0.888392 -1.31504 0
M  V30 3576 H 342.123 3.60744 -1.21014 0
M  V30 3577 H 341.635 2.6965 -2.79124 0
M  V30 3578 H 339.736 3.68762 -0.533437 0
M  V30 3579 H 339.849 4.17273 -2.35414 0
M  V30 3580 H 338.213 2.26426 -1.16633 0
M  V30 3581 H 338.996 1.96985 -2.81161 0
M  V30 3582 N 341.441 0.965919 1.2453 0
M  V30 3583 C 342.389 0.486506 2.27455 0
M  V30 3584 C 343.383 -0.449041 1.6334 0
M  V30 3585 O 344.589 -0.324527 1.7705 0
M  V30 3586 H 340.964 0.138857 0.739069 0
M  V30 3587 H 342.935 1.3666 2.65267 0
M  V30 3588 C 341.684 -0.209481 3.47068 0
M  V30 3589 H 341.007 0.50129 3.96645 0
M  V30 3590 H 342.447 -0.508775 4.20936 0
M  V30 3591 C 340.906 -1.43586 3.0477 0
M  V30 3592 O 341.436 -2.53299 3.11773 0
M  V30 3593 N 339.642 -1.30126 2.59838 0
M  V30 3594 H 339.189 -0.408583 2.54339 0
M  V30 3595 H 339.147 -2.12294 2.31902 0
M  V30 3596 N 342.919 -1.39368 0.735821 0
M  V30 3597 C 344.167 -2.00101 0.283562 0
M  V30 3598 C 344.488 -1.5868 -1.13338 0
M  V30 3599 O 343.758 -0.835423 -1.77193 0
M  V30 3600 H 342.338 -0.740024 0.101851 0
M  V30 3601 H 345 -1.70404 0.945962 0
M  V30 3602 H 344.096 -3.10323 0.332604 0
M  V30 3603 N 344.397 -0.483516 -1.5 0
M  V30 3604 C 345.625 0.0644831 -2.06799 0
M  V30 3605 C 346.04 1.32399 -1.34596 0
M  V30 3606 O 345.397 1.77626 -0.418946 0
M  V30 3607 C 345.448 0.339927 -3.59898 0
M  V30 3608 O 345.169 -0.869635 -4.29382 0
M  V30 3609 C 346.67 0.933515 -4.33359 0
M  V30 3610 H 343.89 -0.0126333 -0.670881 0
M  V30 3611 H 346.434 -0.675864 -1.93009 0
M  V30 3612 H 344.589 1.03022 -3.7345 0
M  V30 3613 H 345.003 -0.62179 -5.20801 0
M  V30 3614 H 346.477 1.07593 -5.41413 0
M  V30 3615 H 346.954 1.92685 -3.94676 0
M  V30 3616 H 347.56 0.281221 -4.24369 0
M  V30 3617 N 345.875 1.56104 -0.216619 0
M  V30 3618 C 347.122 1.98172 0.416416 0
M  V30 3619 C 347.45 1.10413 1.60122 0
M  V30 3620 O 346.705 0.147967 1.9514 0
M  V30 3621 C 347.004 3.45923 0.898464 0
M  V30 3622 C 346.67 4.50559 -0.175288 0
M  V30 3623 C 345.332 4.78897 -0.470271 0
M  V30 3624 C 347.684 5.1334 -0.901728 0
M  V30 3625 C 345.012 5.67299 -1.4963 0
M  V30 3626 C 347.364 6.02853 -1.91705 0
M  V30 3627 C 346.028 6.29537 -2.21901 0
M  V30 3628 H 345.298 0.725164 0.152377 0
M  V30 3629 H 347.945 1.88839 -0.318103 0
M  V30 3630 H 346.25 3.52434 1.71165 0
M  V30 3631 H 347.947 3.75841 1.39803 0
M  V30 3632 H 344.537 4.28551 0.0647806 0
M  V30 3633 H 348.721 4.91521 -0.687072 0
M  V30 3634 H 343.977 5.86239 -1.73592 0
M  V30 3635 H 348.151 6.50552 -2.48505 0
M  V30 3636 H 345.778 6.97835 -3.01548 0
M  V30 3637 N 347.353 -0.0568162 1.57498 0
M  V30 3638 C 348.601 -0.751617 1.87604 0
M  V30 3639 C 348.922 -1.77351 0.81066 0
M  V30 3640 O 348.192 -1.95254 -0.159018 0
M  V30 3641 H 346.772 -0.280583 0.692302 0
M  V30 3642 H 349.434 -0.0293483 1.94878 0
M  V30 3643 H 348.53 -1.25852 2.856 0
M  V30 3644 N 348.832 -1.54138 -0.328536 0
M  V30 3645 C 350.109 -1.62749 -1.08499 0
M  V30 3646 C 350.489 -0.458198 -2.06067 0
M  V30 3647 O 349.837 0.548046 -2.2183 0
M  V30 3648 C 350.047 -2.99519 -1.79135 0
M  V30 3649 C 351.395 -3.55394 -2.32337 0
M  V30 3650 O 352.419 -3.01792 -1.89209 0
M  V30 3651 O 351.278 -4.49186 -3.11279 0
M  V30 3652 H 348.372 -0.65886 -0.499832 0
M  V30 3653 H 350.918 -1.66484 -0.328826 0
M  V30 3654 H 349.69 -3.76061 -1.08139 0
M  V30 3655 H 349.313 -2.99441 -2.61574 0
M  V30 3656 N 350.31 0.590341 -1.46126 0
M  V30 3657 C 351.273 1.68194 -1.55703 0
M  V30 3658 C 352.273 1.54808 -0.434868 0
M  V30 3659 O 353.463 1.59564 -0.698928 0
M  V30 3660 C 350.595 3.07575 -1.47005 0
M  V30 3661 H 351.788 1.61064 -2.52979 0
M  V30 3662 H 349.341 0.807541 -1.33823 0
M  V30 3663 H 350.076 3.20268 -0.509785 0
M  V30 3664 H 349.861 3.187 -2.28414 0
M  V30 3665 H 351.351 3.87055 -1.56776 0
M  V30 3666 N 351.788 1.33704 0.83433 0
M  V30 3667 C 353.034 1.25603 1.59222 0
M  V30 3668 C 353.367 -0.176659 1.93395 0
M  V30 3669 O 352.642 -1.11915 1.59076 0
M  V30 3670 C 352.925 2.13576 2.89926 0
M  V30 3671 C 352.778 3.65326 2.62406 0
M  V30 3672 C 354.097 2.01238 3.91397 0
M  V30 3673 H 351.216 0.457613 0.577719 0
M  V30 3674 H 353.858 1.63848 0.961972 0
M  V30 3675 H 352.008 1.8109 3.43713 0
M  V30 3676 H 353.68 4.08124 2.15017 0
M  V30 3677 H 351.923 3.8698 1.96033 0
M  V30 3678 H 352.594 4.22232 3.55562 0
M  V30 3679 H 355.07 2.29738 3.46929 0
M  V30 3680 H 353.946 2.65036 4.80673 0
M  V30 3681 H 354.207 0.985951 4.30966 0
M  V30 3682 N 353.266 -1.05314 1.17247 0
M  V30 3683 C 354.677 -1.59753 0.96623 0
M  V30 3684 C 355.028 -1.9005 -0.487378 0
M  V30 3685 O 354.153 -1.68126 -1.36245 0
M  V30 3686 C 354.748 -2.90249 1.74759 0
M  V30 3687 C 353.307 -3.41352 1.58606 0
M  V30 3688 C 352.454 -2.15103 1.75002 0
M  V30 3689 H 355.405 -0.881406 1.31973 0
M  V30 3690 H 355.426 -3.60097 1.22925 0
M  V30 3691 H 354.938 -2.68166 2.8055 0
M  V30 3692 H 353.039 -3.68474 0.552985 0
M  V30 3693 H 353.152 -4.16019 2.37624 0
M  V30 3694 H 351.516 -2.25804 1.17833 0
M  V30 3695 H 352.299 -1.95491 2.82202 0
M  V30 3696 N 354.744 -0.972509 -1.24016 0
M  V30 3697 C 356.16 -0.679827 -1.44397 0
M  V30 3698 C 356.36 0.756716 -1.86751 0
M  V30 3699 O 355.416 1.53007 -2.00861 0
M  V30 3700 C 356.729 -1.66803 -2.50195 0
M  V30 3701 C 358.277 -1.68119 -2.64017 0
M  V30 3702 C 358.752 -2.65748 -3.73017 0
M  V30 3703 N 360.243 -2.64219 -3.8045 0
M  V30 3704 C 360.978 -3.36433 -4.64328 0
M  V30 3705 N 360.474 -4.1818 -5.52356 0
M  V30 3706 N 362.267 -3.25235 -4.58453 0
M  V30 3707 H 354.418 -1.90059 -0.948228 0
M  V30 3708 H 356.681 -0.818527 -0.478245 0
M  V30 3709 H 356.387 -2.69498 -2.25973 0
M  V30 3710 H 356.261 -1.4446 -3.48441 0
M  V30 3711 H 358.648 -0.661319 -2.87594 0
M  V30 3712 H 358.729 -1.94525 -1.66113 0
M  V30 3713 H 358.373 -3.67872 -3.50189 0
M  V30 3714 H 358.303 -2.36619 -4.70446 0
M  V30 3715 H 360.794 -2.04887 -3.17537 0
M  V30 3716 H 361.107 -4.70157 -6.13329 0
M  V30 3717 H 359.452 -4.22273 -5.52006 0
M  V30 3718 H 362.643 -2.60829 -3.88698 0
M  V30 3719 H 362.816 -3.81776 -5.23594 0
M  V30 3720 N 356.222 1.38976 -0.743202 0
M  V30 3721 C 357.47 1.99948 -0.29417 0
M  V30 3722 C 357.791 1.59279 1.12495 0
M  V30 3723 O 357.061 0.844808 1.76748 0
M  V30 3724 H 355.641 0.739473 -0.105774 0
M  V30 3725 H 358.303 1.699 -0.954986 0
M  V30 3726 H 357.399 3.10142 -0.349056 0
M  V30 3727 N 357.7 0.491464 1.49741 0
M  V30 3728 C 358.948 -0.0563141 2.02022 0
M  V30 3729 C 359.269 -1.38363 1.37407 0
M  V30 3730 O 358.539 -1.88702 0.526166 0
M  V30 3731 H 357.119 -0.0238014 0.746621 0
M  V30 3732 H 359.781 0.646533 1.83864 0
M  V30 3733 H 358.877 -0.192967 3.11503 0
M  V30 3734 N 359.178 -1.55987 0.224894 0
M  V30 3735 C 360.126 -2.21808 -0.700283 0
M  V30 3736 C 361.12 -1.19854 -1.19714 0
M  V30 3737 O 362.326 -1.37925 -1.15658 0
M  V30 3738 H 358.701 -0.711226 -0.244258 0
M  V30 3739 H 360.672 -2.98152 -0.121749 0
M  V30 3740 C 359.421 -2.91444 -1.8962 0
M  V30 3741 H 358.744 -3.69655 -1.52299 0
M  V30 3742 H 360.184 -3.40894 -2.52125 0
M  V30 3743 C 358.643 -1.94098 -2.75368 0
M  V30 3744 O 359.173 -1.46004 -3.74227 0
M  V30 3745 N 357.379 -1.61675 -2.41474 0
M  V30 3746 H 356.926 -2.00979 -1.61137 0
M  V30 3747 H 356.884 -0.968036 -2.99126 0
M  V30 3748 N 360.656 0.0484629 -1.57525 0
M  V30 3749 C 361.619 1.03956 -2.04269 0
M  V30 3750 C 362.619 1.30211 -0.943496 0
M  V30 3751 O 363.809 1.25539 -1.20771 0
M  V30 3752 C 360.941 2.37742 -2.44319 0
M  V30 3753 H 362.134 0.636182 -2.93075 0
M  V30 3754 H 359.687 0.294811 -1.53494 0
M  V30 3755 H 360.422 2.82866 -1.5861 0
M  V30 3756 H 360.207 2.20021 -3.24551 0
M  V30 3757 H 361.697 3.08936 -2.80978 0
M  V30 3758 N 362.134 1.5431 0.320358 0
M  V30 3759 C 363.382 1.72327 1.05583 0
M  V30 3760 C 363.703 0.50149 1.88441 0
M  V30 3761 O 362.973 -0.48448 1.89815 0
M  V30 3762 H 361.553 0.635387 0.3928 0
M  V30 3763 H 364.215 1.91621 0.356019 0
M  V30 3764 H 363.311 2.60426 1.72003 0
M  V30 3765 N 363.613 -0.582584 1.46437 0
M  V30 3766 C 364.861 -1.33814 1.51453 0
M  V30 3767 C 365.182 -1.94277 0.167792 0
M  V30 3768 O 364.452 -1.78566 -0.805677 0
M  V30 3769 H 363.032 -0.496838 0.557818 0
M  V30 3770 H 365.694 -0.682281 1.82568 0
M  V30 3771 H 364.79 -2.14479 2.26728 0
M  V30 3772 N 365.091 -1.34144 -0.827227 0
M  V30 3773 C 366.339 -1.26009 -1.58007 0
M  V30 3774 C 366.66 0.170971 -1.94249 0
M  V30 3775 O 365.93 1.10256 -1.61927 0
M  V30 3776 H 364.51 -0.463414 -0.585881 0
M  V30 3777 H 367.172 -1.68005 -0.987951 0
M  V30 3778 H 366.268 -1.86187 -2.50481 0
M  V30 3779 N 366.569 1.04691 -1.17803 0
M  V30 3780 C 367.817 1.7743 -0.967617 0
M  V30 3781 C 368.138 1.88359 0.504574 0
M  V30 3782 O 367.408 1.40402 1.36617 0
M  V30 3783 H 365.988 0.657242 -0.355024 0
M  V30 3784 H 368.65 1.2638 -1.48371 0
M  V30 3785 H 367.746 2.78924 -1.40027 0
M  V30 3786 N 368.047 0.979072 1.23499 0
M  V30 3787 C 368.979 0.476271 2.24197 0
M  V30 3788 C 369.992 -0.421166 1.57258 0
M  V30 3789 O 371.181 -0.225515 1.7707 0
M  V30 3790 C 368.281 -0.330503 3.37285 0
M  V30 3791 C 367.454 0.559744 4.33804 0
M  V30 3792 C 366.513 -0.192954 5.25846 0
M  V30 3793 O 365.539 0.416978 5.67671 0
M  V30 3794 N 366.741 -1.47932 5.61334 0
M  V30 3795 H 369.506 1.34211 2.67969 0
M  V30 3796 H 367.067 0.852189 1.37657 0
M  V30 3797 H 369.059 -0.842361 3.95836 0
M  V30 3798 H 367.629 -1.09734 2.92707 0
M  V30 3799 H 366.849 1.25245 3.73775 0
M  V30 3800 H 368.137 1.1665 4.95248 0
M  V30 3801 H 367.535 -1.9964 5.29302 0
M  V30 3802 H 366.092 -1.93664 6.22364 0
M  V30 3803 N 369.525 -1.3858 0.750561 0
M  V30 3804 C 370.936 -1.82927 0.373438 0
M  V30 3805 C 371.287 -1.62634 -1.09748 0
M  V30 3806 O 370.412 -1.12588 -1.84805 0
M  V30 3807 C 371.007 -3.32088 0.671029 0
M  V30 3808 C 369.566 -3.74795 0.34722 0
M  V30 3809 C 368.713 -2.61391 0.92575 0
M  V30 3810 H 371.664 -1.27351 0.946958 0
M  V30 3811 H 371.685 -3.80465 -0.0518269 0
M  V30 3812 H 371.197 -3.46826 1.74164 0
M  V30 3813 H 369.298 -3.65638 -0.716933 0
M  V30 3814 H 369.411 -4.71667 0.840656 0
M  V30 3815 H 367.775 -2.52265 0.351327 0
M  V30 3816 H 368.558 -2.78929 2.00133 0
M  V30 3817 N 371.003 -0.499398 -1.49478 0
M  V30 3818 C 372.251 0.0455996 -2.02049 0
M  V30 3819 C 372.572 1.37633 -1.38138 0
M  V30 3820 O 371.842 1.8842 -0.536166 0
M  V30 3821 H 370.422 0.0198416 -0.746736 0
M  V30 3822 H 373.084 -0.656274 -1.83519 0
M  V30 3823 H 372.18 0.176445 -3.11601 0
M  V30 3824 N 372.481 1.55866 -0.233164 0
M  V30 3825 C 373.727 1.99643 0.389148 0
M  V30 3826 C 374.082 1.11836 1.56558 0
M  V30 3827 O 373.375 0.170848 1.90837 0
M  V30 3828 C 373.569 3.46856 0.861724 0
M  V30 3829 C 373.398 4.48904 -0.267376 0
M  V30 3830 C 372.168 4.99888 -0.737577 0
M  V30 3831 C 374.366 5.02624 -1.08966 0
M  V30 3832 N 372.348 5.8566 -1.84052 0
M  V30 3833 C 373.719 5.85434 -2.04125 0
M  V30 3834 C 375.774 4.84959 -1.12779 0
M  V30 3835 C 374.477 6.52466 -3.02789 0
M  V30 3836 C 376.503 5.52759 -2.10266 0
M  V30 3837 C 375.865 6.35346 -3.04162 0
M  V30 3838 H 371.964 0.774402 0.108742 0
M  V30 3839 H 374.548 1.91572 -0.347596 0
M  V30 3840 H 372.719 3.55352 1.5678 0
M  V30 3841 H 374.451 3.77531 1.45783 0
M  V30 3842 H 371.206 4.7249 -0.324122 0
M  V30 3843 H 371.63 6.33246 -2.39434 0
M  V30 3844 H 376.272 4.20751 -0.415749 0
M  V30 3845 H 373.99 7.15849 -3.74948 0
M  V30 3846 H 377.576 5.41051 -2.13905 0
M  V30 3847 H 376.456 6.86883 -3.78366 0
M  V30 3848 N 373.959 -0.0401083 1.57549 0
M  V30 3849 C 375.208 -0.732108 1.87944 0
M  V30 3850 C 375.521 -1.77107 0.830206 0
M  V30 3851 O 376.727 -2.51488 1.02302 0
M  V30 3852 C 375.183 -1.35315 3.33494 0
M  V30 3853 C 374.791 -0.351105 4.46622 0
M  V30 3854 C 376.535 -2.02566 3.73051 0
M  V30 3855 C 374.442 -0.979859 5.83226 0
M  V30 3856 H 373.372 -0.277188 0.701201 0
M  V30 3857 H 376.023 0.0138501 1.83495 0
M  V30 3858 H 374.405 -2.14844 3.32653 0
M  V30 3859 H 375.579 0.416674 4.58912 0
M  V30 3860 H 373.894 0.218708 4.15825 0
M  V30 3861 H 376.491 -2.50441 4.72423 0
M  V30 3862 H 376.834 -2.83904 3.04474 0
M  V30 3863 H 377.367 -1.29827 3.76018 0
M  V30 3864 H 374.106 -0.206135 6.55176 0
M  V30 3865 H 373.626 -1.71774 5.74677 0
M  V30 3866 H 375.305 -1.49046 6.29599 0
M  V30 3867 N 375.437 -1.54477 -0.31217 0
M  V30 3868 C 376.367 -1.87652 -1.38957 0
M  V30 3869 C 377.348 -0.734358 -1.53431 0
M  V30 3870 O 378.533 -0.98911 -1.67123 0
M  V30 3871 C 375.663 -2.11396 -2.75552 0
M  V30 3872 C 374.617 -3.27243 -2.75855 0
M  V30 3873 C 373.943 -3.36382 -4.15633 0
M  V30 3874 C 375.243 -4.64622 -2.38587 0
M  V30 3875 H 376.937 -2.77887 -1.11442 0
M  V30 3876 H 374.483 -1.33707 -0.534655 0
M  V30 3877 H 376.436 -2.33189 -3.51 0
M  V30 3878 H 375.16 -1.17921 -3.04569 0
M  V30 3879 H 373.819 -3.05356 -2.02863 0
M  V30 3880 H 373.467 -2.40445 -4.41809 0
M  V30 3881 H 373.167 -4.14249 -4.1674 0
M  V30 3882 H 374.691 -3.60422 -4.92877 0
M  V30 3883 H 376.105 -4.86219 -3.03749 0
M  V30 3884 H 374.502 -5.45121 -2.50925 0
M  V30 3885 H 375.572 -4.66097 -1.33723 0
M  V30 3886 N 376.915 0.57481 -1.46744 0
M  V30 3887 C 377.862 1.68329 -1.57905 0
M  V30 3888 C 378.832 1.60625 -0.422927 0
M  V30 3889 O 380.017 1.79721 -0.640711 0
M  V30 3890 C 377.157 3.06665 -1.58274 0
M  V30 3891 C 376.27 3.24935 -2.84678 0
M  V30 3892 C 375.405 4.53566 -2.76499 0
M  V30 3893 C 374.444 4.65207 -3.97806 0
M  V30 3894 N 373.581 5.85172 -3.87967 0
M  V30 3895 H 378.421 1.58127 -2.52587 0
M  V30 3896 H 375.958 0.770552 -1.25303 0
M  V30 3897 H 377.916 3.86745 -1.56473 0
M  V30 3898 H 376.546 3.15745 -0.671194 0
M  V30 3899 H 375.598 2.38405 -2.96424 0
M  V30 3900 H 376.91 3.29403 -3.7456 0
M  V30 3901 H 376.064 5.41885 -2.72848 0
M  V30 3902 H 374.803 4.51548 -1.8427 0
M  V30 3903 H 373.808 3.75304 -4.0178 0
M  V30 3904 H 375.033 4.68997 -4.9114 0
M  V30 3905 H 372.979 5.84137 -2.98529 0
M  V30 3906 H 372.896 5.90943 -4.71511 0
M  V30 3907 H 374.164 6.759 -3.88303 0
M  V30 3908 N 378.394 1.34581 0.820102 0
M  V30 3909 C 379.634 1.28448 1.58998 0
M  V30 3910 C 379.998 -0.142883 1.91468 0
M  V30 3911 O 381.199 -0.328422 2.66786 0
M  V30 3912 C 379.47 2.153 2.85273 0
M  V30 3913 S 381.029 2.26548 3.75794 0
M  V30 3914 H 377.847 0.456685 0.54494 0
M  V30 3915 H 380.449 1.69825 0.968487 0
M  V30 3916 H 379.153 3.18008 2.59421 0
M  V30 3917 H 378.684 1.7483 3.52417 0
M  V30 3918 H 380.699 1.44034 4.74835 0
M  V30 3919 N 379.872 -1.04064 1.18357 0
M  V30 3920 C 380.819 -2.12077 0.910603 0
M  V30 3921 C 381.789 -1.65421 -0.15 0
M  V30 3922 O 382.974 -1.90797 -0.0103614 0
M  V30 3923 C 380.114 -3.42252 0.442472 0
M  V30 3924 C 379.227 -4.0252 1.5685 0
M  V30 3925 C 378.362 -5.20657 1.05309 0
M  V30 3926 C 377.401 -5.72955 2.1538 0
M  V30 3927 N 376.538 -6.8238 1.65233 0
M  V30 3928 H 381.378 -2.34764 1.83548 0
M  V30 3929 H 378.915 -1.15157 0.915279 0
M  V30 3930 H 380.873 -4.16921 0.152534 0
M  V30 3931 H 379.503 -3.19712 -0.445428 0
M  V30 3932 H 378.555 -3.25178 1.97391 0
M  V30 3933 H 379.867 -4.37362 2.39824 0
M  V30 3934 H 379.021 -6.0244 0.717677 0
M  V30 3935 H 377.76 -4.87318 0.19293 0
M  V30 3936 H 376.765 -4.89793 2.49766 0
M  V30 3937 H 377.99 -6.08337 3.01832 0
M  V30 3938 H 375.936 -6.50917 0.815064 0
M  V30 3939 H 375.853 -7.16286 2.41805 0
M  V30 3940 H 377.121 -7.67788 1.34619 0
M  V30 3941 N 381.35 -0.985608 -1.22978 0
M  V30 3942 C 382.598 -0.656087 -1.91154 0
M  V30 3943 C 382.919 0.813561 -1.77218 0
M  V30 3944 O 382.189 1.58244 -1.1548 0
M  V30 3945 H 380.769 -0.239674 -0.707506 0
M  V30 3946 H 383.431 -1.25054 -1.49491 0
M  V30 3947 H 382.527 -0.912253 -2.9847 0
M  V30 3948 N 382.828 1.3818 -0.7579 0
M  V30 3949 C 384.074 2.0078 -0.325423 0
M  V30 3950 C 384.429 1.59085 1.08211 0
M  V30 3951 O 383.722 0.820394 1.73148 0
M  V30 3952 C 383.916 3.55252 -0.391218 0
M  V30 3953 C 383.745 4.11947 -1.8036 0
M  V30 3954 C 382.515 4.43519 -2.42113 0
M  V30 3955 C 384.713 4.33908 -2.76095 0
M  V30 3956 N 382.695 4.85847 -3.75267 0
M  V30 3957 C 384.066 4.78692 -3.94023 0
M  V30 3958 C 386.121 4.16015 -2.73561 0
M  V30 3959 C 384.824 5.07459 -5.09782 0
M  V30 3960 C 386.85 4.45909 -3.88483 0
M  V30 3961 C 386.212 4.90921 -5.0515 0
M  V30 3962 H 382.311 0.764215 -0.165831 0
M  V30 3963 H 384.895 1.67724 -0.988776 0
M  V30 3964 H 383.066 3.87646 0.241886 0
M  V30 3965 H 384.798 4.04653 0.061989 0
M  V30 3966 H 381.553 4.32113 -1.93842 0
M  V30 3967 H 381.977 5.11339 -4.4369 0
M  V30 3968 H 386.619 3.80399 -1.84544 0
M  V30 3969 H 384.337 5.4197 -5.99412 0
M  V30 3970 H 387.923 4.33666 -3.87847 0
M  V30 3971 H 386.803 5.1361 -5.92599 0
M  V30 3972 N 384.306 0.507319 1.49211 0
M  V30 3973 C 385.216 -0.272136 2.33016 0
M  V30 3974 C 386.232 -0.961206 1.45041 0
M  V30 3975 O 387.408 -0.941191 1.78055 0
M  V30 3976 C 384.473 -1.31895 3.20631 0
M  V30 3977 C 383.534 -0.642648 4.24463 0
M  V30 3978 C 382.767 -1.63959 5.07891 0
M  V30 3979 O 382.99 -2.87007 4.92933 0
M  V30 3980 O 381.924 -1.19143 5.8999 0
M  V30 3981 H 385.75 0.413982 3.00865 0
M  V30 3982 H 383.335 0.268556 1.46966 0
M  V30 3983 H 385.217 -1.92446 3.7489 0
M  V30 3984 H 383.892 -1.98788 2.5547 0
M  V30 3985 H 382.799 0.00276252 3.741 0
M  V30 3986 H 384.132 -0.0160534 4.92197 0
M  V30 3987 N 385.784 -1.5574 0.241426 0
M  V30 3988 C 387.012 -2.03208 -0.389134 0
M  V30 3989 C 387.427 -1.12082 -1.51931 0
M  V30 3990 O 386.784 -0.134183 -1.82006 0
M  V30 3991 C 386.835 -3.50064 -0.902087 0
M  V30 3992 O 386.556 -4.37717 0.18305 0
M  V30 3993 C 388.057 -4.13268 -1.60389 0
M  V30 3994 H 385.277 -0.664509 -0.0931053 0
M  V30 3995 H 387.821 -2.0124 0.36369 0
M  V30 3996 H 385.976 -3.52583 -1.60511 0
M  V30 3997 H 386.39 -5.24097 -0.205579 0
M  V30 3998 H 387.864 -5.17733 -1.91458 0
M  V30 3999 H 388.341 -3.59434 -2.52397 0
M  V30 4000 H 388.947 -4.14655 -0.945576 0
M  V30 4001 N 387.262 0.0317525 -1.57568 0
M  V30 4002 C 388.539 0.758366 -1.803 0
M  V30 4003 C 388.919 1.93718 -0.838845 0
M  V30 4004 O 388.267 2.28187 0.119571 0
M  V30 4005 C 388.477 1.19392 -3.27943 0
M  V30 4006 C 389.825 1.61094 -3.92854 0
M  V30 4007 O 390.849 1.28857 -3.32076 0
M  V30 4008 O 389.708 2.20918 -4.99858 0
M  V30 4009 H 386.802 0.366514 -0.741348 0
M  V30 4010 H 389.348 0.00873765 -1.69698 0
M  V30 4011 H 388.12 0.352275 -3.89711 0
M  V30 4012 H 387.743 2.00365 -3.43424 0
M  V30 4013 N 388.74 1.54641 0.303973 0
M  V30 4014 C 390.151 1.64811 0.877163 0
M  V30 4015 C 390.502 0.554838 1.88191 0
M  V30 4016 O 389.627 -0.309033 2.14182 0
M  V30 4017 C 390.222 2.9876 1.59775 0
M  V30 4018 C 388.781 3.11061 2.11938 0
M  V30 4019 C 387.928 2.60479 0.951097 0
M  V30 4020 H 390.879 1.58493 0.0810486 0
M  V30 4021 H 390.9 2.90017 2.46314 0
M  V30 4022 H 390.412 3.7831 0.866226 0
M  V30 4023 H 388.513 2.36225 2.88146 0
M  V30 4024 H 388.626 4.17171 2.35595 0
M  V30 4025 H 386.99 2.16859 1.33583 0
M  V30 4026 H 387.773 3.42504 0.233581 0
M  V30 4027 N 390.218 -0.567019 1.47046 0
M  V30 4028 C 391.166 -1.69593 1.59188 0
M  V30 4029 C 392.16 -1.63046 0.459609 0
M  V30 4030 O 393.366 -1.6835 0.637058 0
M  V30 4031 H 389.741 -0.560993 0.500791 0
M  V30 4032 H 391.712 -1.56488 2.54075 0
M  V30 4033 C 390.461 -3.07964 1.61411 0
M  V30 4034 H 389.784 -3.13679 2.47881 0
M  V30 4035 H 391.224 -3.86671 1.73958 0
M  V30 4036 C 389.683 -3.35123 0.34559 0
M  V30 4037 O 390.213 -3.97812 -0.557521 0
M  V30 4038 N 388.419 -2.89699 0.22864 0
M  V30 4039 H 387.966 -2.38863 0.964479 0
M  V30 4040 H 387.924 -3.08242 -0.619192 0
M  V30 4041 N 391.696 -1.35014 -0.812953 0
M  V30 4042 C 392.659 -1.27292 -1.90602 0
M  V30 4043 C 393.659 -0.185817 -1.59723 0
M  V30 4044 O 394.849 -0.439102 -1.68575 0
M  V30 4045 C 391.981 -0.967676 -3.26877 0
M  V30 4046 H 393.174 -2.24479 -1.9887 0
M  V30 4047 H 390.727 -1.19446 -1.00808 0
M  V30 4048 H 391.462 0.0005954 -3.243 0
M  V30 4049 H 391.247 -1.75412 -3.50675 0
M  V30 4050 H 392.737 -0.939085 -4.06904 0
M  V30 4051 N 393.175 1.03435 -1.18907 0
M  V30 4052 C 394.405 1.8012 -1.01195 0
M  V30 4053 C 394.813 1.8395 0.442613 0
M  V30 4054 O 394.156 1.27836 1.31923 0
M  V30 4055 C 394.218 3.26792 -1.49823 0
M  V30 4056 C 393.882 3.46609 -2.97844 0
M  V30 4057 C 394.879 3.37278 -3.95651 0
M  V30 4058 C 392.564 3.73001 -3.36416 0
M  V30 4059 C 394.558 3.54054 -5.30023 0
M  V30 4060 C 392.245 3.89423 -4.70949 0
M  V30 4061 C 393.243 3.79951 -5.67562 0
M  V30 4062 O 392.931 3.95895 -6.99659 0
M  V30 4063 H 392.663 0.573865 -0.357289 0
M  V30 4064 H 395.217 1.31207 -1.58031 0
M  V30 4065 H 393.447 3.76703 -0.873578 0
M  V30 4066 H 395.136 3.85055 -1.28404 0
M  V30 4067 H 395.902 3.16846 -3.67197 0
M  V30 4068 H 391.781 3.79469 -2.61772 0
M  V30 4069 H 395.325 3.46577 -6.05417 0
M  V30 4070 H 391.222 4.09351 -4.99101 0
M  V30 4071 H 391.99 4.13019 -7.06653 0
M  V30 4072 N 394.653 0.992116 1.22453 0
M  V30 4073 C 395.902 0.662992 1.90492 0
M  V30 4074 C 396.215 -0.808407 1.78113 0
M  V30 4075 O 397.421 -1.24908 2.41061 0
M  V30 4076 C 395.877 1.1353 3.41524 0
M  V30 4077 C 395.485 2.63187 3.62542 0
M  V30 4078 C 397.229 0.880465 4.15269 0
M  V30 4079 C 395.136 3.04024 5.0727 0
M  V30 4080 H 394.066 0.244278 0.713333 0
M  V30 4081 H 396.717 1.20157 1.38688 0
M  V30 4082 H 395.099 0.52485 3.92506 0
M  V30 4083 H 396.273 3.2957 3.22056 0
M  V30 4084 H 394.588 2.86543 3.02129 0
M  V30 4085 H 397.185 1.16128 5.21937 0
M  V30 4086 H 397.528 -0.183408 4.15896 0
M  V30 4087 H 398.061 1.45307 3.70312 0
M  V30 4088 H 394.8 4.09584 5.11782 0
M  V30 4089 H 394.32 2.42343 5.48662 0
M  V30 4090 H 395.999 2.95282 5.75689 0
M  V30 4091 N 396.131 -1.37776 0.765217 0
M  V30 4092 C 397.361 -2.03828 0.337277 0
M  V30 4093 C 397.769 -1.57841 -1.04321 0
M  V30 4094 O 397.112 -0.752043 -1.67601 0
M  V30 4095 C 397.174 -3.58292 0.294407 0
M  V30 4096 C 396.838 -4.27384 1.61838 0
M  V30 4097 C 397.835 -4.51956 2.56967 0
M  V30 4098 C 395.52 -4.65345 1.89102 0
M  V30 4099 C 397.514 -5.13536 3.77571 0
M  V30 4100 C 395.201 -5.26647 3.09978 0
M  V30 4101 C 396.199 -5.50679 4.04032 0
M  V30 4102 O 395.887 -6.10702 5.2278 0
M  V30 4103 H 395.619 -0.661292 0.140248 0
M  V30 4104 H 398.173 -1.77222 1.03834 0
M  V30 4105 H 396.403 -3.83918 -0.462983 0
M  V30 4106 H 398.092 -4.05763 -0.105581 0
M  V30 4107 H 398.858 -4.23048 2.37183 0
M  V30 4108 H 394.737 -4.45978 1.16725 0
M  V30 4109 H 398.281 -5.3221 4.50997 0
M  V30 4110 H 394.178 -5.54979 3.29649 0
M  V30 4111 H 394.946 -6.29183 5.23517 0
M  V30 4112 N 397.609 -0.515225 -1.4894 0
M  V30 4113 C 398.856 0.024215 -2.02486 0
M  V30 4114 C 399.184 1.35671 -1.39368 0
M  V30 4115 O 398.439 1.88566 -0.523574 0
M  V30 4116 C 398.738 0.210595 -3.56779 0
M  V30 4117 C 398.404 -1.04569 -4.38607 0
M  V30 4118 C 397.066 -1.39002 -4.60686 0
M  V30 4119 C 399.418 -1.88008 -4.86109 0
M  V30 4120 C 396.746 -2.568 -5.27514 0
M  V30 4121 C 399.098 -3.04972 -5.54234 0
M  V30 4122 C 397.762 -3.39768 -5.74555 0
M  V30 4123 H 397.032 0.00886088 -0.740947 0
M  V30 4124 H 399.679 -0.678263 -1.79086 0
M  V30 4125 H 397.984 0.99572 -3.78936 0
M  V30 4126 H 399.681 0.642659 -3.95817 0
M  V30 4127 H 396.271 -0.767497 -4.21672 0
M  V30 4128 H 400.455 -1.62719 -4.68867 0
M  V30 4129 H 395.711 -2.8398 -5.41447 0
M  V30 4130 H 399.885 -3.69943 -5.90013 0
M  V30 4131 H 397.512 -4.31148 -6.26112 0
M  V30 4132 N 399.087 1.5561 -0.249682 0
M  V30 4133 C 400.315 2.03411 0.378352 0
M  V30 4134 C 400.73 1.12886 1.51335 0
M  V30 4135 O 400.087 0.143833 1.81932 0
M  V30 4136 C 400.138 3.50537 0.88351 0
M  V30 4137 O 399.859 4.37614 -0.20626 0
M  V30 4138 C 401.36 4.14113 1.58195 0
M  V30 4139 H 398.58 0.664994 0.08958 0
M  V30 4140 H 401.124 2.01044 -0.374357 0
M  V30 4141 H 399.279 3.5343 1.58639 0
M  V30 4142 H 399.693 5.24199 0.177782 0
M  V30 4143 H 401.167 5.18741 1.8871 0
M  V30 4144 H 401.644 3.60767 2.50487 0
M  V30 4145 H 402.25 4.15151 0.923573 0
M  V30 4146 N 400.565 -0.0233959 1.57583 0
M  V30 4147 C 401.814 -0.712133 1.8871 0
M  V30 4148 C 402.127 -1.76217 0.848944 0
M  V30 4149 O 403.333 -2.50389 1.04964 0
M  V30 4150 C 401.789 -1.3177 3.3491 0
M  V30 4151 C 401.397 -0.303715 4.46969 0
M  V30 4152 C 403.141 -1.98598 3.75179 0
M  V30 4153 C 401.048 -0.917945 5.84233 0
M  V30 4154 H 399.978 -0.269735 0.704101 0
M  V30 4155 H 402.629 0.0333114 1.8347 0
M  V30 4156 H 401.011 -2.11304 3.34913 0
M  V30 4157 H 402.185 0.465325 4.58445 0
M  V30 4158 H 400.5 0.2628 4.1557 0
M  V30 4159 H 403.097 -2.45416 4.75053 0
M  V30 4160 H 403.44 -2.80659 3.07468 0
M  V30 4161 H 403.973 -1.25831 3.77374 0
M  V30 4162 H 400.712 -0.136633 6.55358 0
M  V30 4163 H 400.232 -1.65669 5.76467 0
M  V30 4164 H 401.911 -1.4236 6.31144 0
M  V30 4165 N 402.043 -1.548 -0.295768 0
M  V30 4166 C 402.975 -1.82492 -1.3867 0
M  V30 4167 C 403.988 -0.708134 -1.46592 0
M  V30 4168 O 405.177 -0.985686 -1.48817 0
M  V30 4169 C 402.277 -1.95256 -2.76999 0
M  V30 4170 C 401.45 -3.25709 -2.91946 0
M  V30 4171 C 400.509 -3.28824 -4.10806 0
M  V30 4172 O 399.535 -4.02328 -4.02643 0
M  V30 4173 N 400.737 -2.5459 -5.21694 0
M  V30 4174 H 403.502 -2.76646 -1.15269 0
M  V30 4175 H 401.063 -1.54438 -0.485849 0
M  V30 4176 H 403.055 -1.94736 -3.54768 0
M  V30 4177 H 401.625 -1.08072 -2.93324 0
M  V30 4178 H 400.845 -3.38959 -2.01247 0
M  V30 4179 H 402.133 -4.11786 -2.98847 0
M  V30 4180 H 401.531 -1.94512 -5.31208 0
M  V30 4181 H 400.088 -2.59818 -5.97778 0
M  V30 4182 N 403.521 0.559213 -1.47345 0
M  V30 4183 C 404.431 1.69388 -1.62311 0
M  V30 4184 C 405.447 1.6648 -0.505993 0
M  V30 4185 O 406.623 1.85964 -0.773262 0
M  V30 4186 C 403.688 3.05894 -1.63185 0
M  V30 4187 C 402.749 3.19885 -2.86307 0
M  V30 4188 C 401.982 4.49879 -2.87131 0
M  V30 4189 O 402.205 5.35217 -1.97229 0
M  V30 4190 O 401.139 4.67618 -3.78968 0
M  V30 4191 H 404.965 1.59706 -2.58317 0
M  V30 4192 H 402.55 0.728989 -1.30407 0
M  V30 4193 H 404.432 3.87133 -1.66451 0
M  V30 4194 H 403.107 3.15964 -0.70345 0
M  V30 4195 H 402.014 2.38052 -2.88587 0
M  V30 4196 H 403.347 3.14718 -3.78435 0
M  V30 4197 N 404.999 1.35443 0.805782 0
M  V30 4198 C 405.931 1.24285 1.92577 0
M  V30 4199 C 406.944 0.165962 1.61952 0
M  V30 4200 O 408.133 0.419303 1.73505 0
M  V30 4201 C 405.233 0.891272 3.2697 0
M  V30 4202 C 404.406 2.06669 3.85495 0
M  V30 4203 C 403.465 1.69077 4.98297 0
M  V30 4204 O 402.491 2.4096 5.15681 0
M  V30 4205 N 403.693 0.614869 5.77234 0
M  V30 4206 H 406.458 2.20777 2.02676 0
M  V30 4207 H 404.019 1.28623 0.983243 0
M  V30 4208 H 406.011 0.621256 3.99903 0
M  V30 4209 H 404.581 0.016004 3.12596 0
M  V30 4210 H 403.801 2.50046 3.04747 0
M  V30 4211 H 405.089 2.85237 4.21328 0
M  V30 4212 H 404.487 0.017648 5.65697 0
M  V30 4213 H 403.044 0.404636 6.50543 0
M  V30 4214 N 406.477 -1.02803 1.19454 0
M  V30 4215 C 407.425 -2.13213 0.929673 0
M  V30 4216 C 408.419 -1.69011 -0.114806 0
M  V30 4217 O 409.625 -1.79967 0.0345147 0
M  V30 4218 H 406 -0.69662 0.28324 0
M  V30 4219 H 407.971 -2.32744 1.86743 0
M  V30 4220 C 406.72 -3.4429 0.485797 0
M  V30 4221 H 406.043 -3.7872 1.28105 0
M  V30 4222 H 407.483 -4.22638 0.339582 0
M  V30 4223 C 405.942 -3.27258 -0.800244 0
M  V30 4224 O 406.472 -3.55967 -1.86146 0
M  V30 4225 N 404.678 -2.80545 -0.75781 0
M  V30 4226 H 404.225 -2.57382 0.106039 0
M  V30 4227 H 404.183 -2.6953 -1.61867 0
M  V30 4228 N 407.956 -0.998596 -1.21925 0
M  V30 4229 C 409.202 -0.688337 -1.91399 0
M  V30 4230 C 409.557 0.771805 -1.76241 0
M  V30 4231 O 408.85 1.55153 -1.1242 0
M  V30 4232 C 409.044 -1.03648 -3.42041 0
M  V30 4233 C 408.873 -2.52892 -3.71855 0
M  V30 4234 C 407.643 -3.19389 -3.91559 0
M  V30 4235 C 409.841 -3.5103 -3.75875 0
M  V30 4236 N 407.823 -4.5805 -4.08734 0
M  V30 4237 C 409.194 -4.75174 -3.98259 0
M  V30 4238 C 411.249 -3.45257 -3.58751 0
M  V30 4239 C 409.952 -5.94247 -4.05294 0
M  V30 4240 C 411.978 -4.63712 -3.67049 0
M  V30 4241 C 411.34 -5.86658 -3.89887 0
M  V30 4242 H 407.439 -0.303251 -0.720807 0
M  V30 4243 H 410.023 -1.27977 -1.46731 0
M  V30 4244 H 408.194 -0.473569 -3.85502 0
M  V30 4245 H 409.926 -0.681619 -3.98919 0
M  V30 4246 H 406.681 -2.69846 -3.89205 0
M  V30 4247 H 407.105 -5.29989 -4.21237 0
M  V30 4248 H 411.747 -2.51215 -3.40075 0
M  V30 4249 H 409.465 -6.88687 -4.22772 0
M  V30 4250 H 413.051 -4.6084 -3.5513 0
M  V30 4251 H 411.931 -6.76786 -3.96144 0
M  V30 4252 N 409.434 1.37368 -0.772513 0
M  V30 4253 C 410.344 2.34053 -0.160081 0
M  V30 4254 C 411.36 1.60216 0.678728 0
M  V30 4255 O 412.536 1.92303 0.59847 0
M  V30 4256 C 409.601 3.3939 0.708182 0
M  V30 4257 C 408.662 4.29048 -0.147172 0
M  V30 4258 C 407.895 5.29354 0.679744 0
M  V30 4259 O 408.118 5.3723 1.91678 0
M  V30 4260 O 407.052 6.01835 0.0885444 0
M  V30 4261 H 410.878 2.88159 -0.959053 0
M  V30 4262 H 408.463 1.39543 -0.533685 0
M  V30 4263 H 410.345 4.03839 1.20384 0
M  V30 4264 H 409.02 2.8761 1.48533 0
M  V30 4265 H 407.927 3.67697 -0.689205 0
M  V30 4266 H 409.26 4.84134 -0.887423 0
M  V30 4267 N 410.912 0.523116 1.48665 0
M  V30 4268 C 411.86 -0.256859 2.31177 0
M  V30 4269 C 412.854 -0.94199 1.40794 0
M  V30 4270 O 414.06 -0.867157 1.57735 0
M  V30 4271 H 410.435 -0.1017 0.745091 0
M  V30 4272 H 412.406 0.458739 2.94853 0
M  V30 4273 C 411.155 -1.29503 3.22683 0
M  V30 4274 H 410.478 -0.777248 3.92172 0
M  V30 4275 H 411.918 -1.81233 3.83315 0
M  V30 4276 C 410.377 -2.32501 2.43813 0
M  V30 4277 O 410.907 -3.3881 2.15803 0
M  V30 4278 N 409.113 -2.05538 2.05432 0
M  V30 4279 H 408.66 -1.19104 2.28412 0
M  V30 4280 H 408.618 -2.74676 1.52973 0
M  V30 4281 N 412.39 -1.55475 0.257931 0
M  V30 4282 C 413.618 -2.03609 -0.367559 0
M  V30 4283 C 414.033 -1.13687 -1.50734 0
M  V30 4284 O 413.39 -0.153479 -1.81853 0
M  V30 4285 C 413.441 -3.51001 -0.864908 0
M  V30 4286 O 413.162 -4.37499 0.229465 0
M  V30 4287 C 414.663 -4.14946 -1.55997 0
M  V30 4288 H 411.883 -0.665459 -0.0860521 0
M  V30 4289 H 414.427 -2.00843 0.385014 0
M  V30 4290 H 412.582 -3.54266 -1.56762 0
M  V30 4291 H 412.996 -5.24286 -0.14998 0
M  V30 4292 H 414.47 -5.19735 -1.85956 0
M  V30 4293 H 414.947 -3.6209 -2.4857 0
M  V30 4294 H 415.553 -4.15635 -0.901543 0
M  V30 4295 N 413.868 0.0150385 -1.57593 0
M  V30 4296 C 415.108 0.70768 -1.91758 0
M  V30 4297 C 415.472 1.71764 -0.857974 0
M  V30 4298 O 416.673 2.45956 -1.0844 0
M  V30 4299 C 414.944 1.34736 -3.3103 0
M  V30 4300 S 416.503 2.06721 -3.87056 0
M  V30 4301 H 413.321 0.234119 -0.671349 0
M  V30 4302 H 415.923 -0.0380373 -1.95463 0
M  V30 4303 H 414.627 0.59926 -4.06001 0
M  V30 4304 H 414.158 2.13133 -3.30663 0
M  V30 4305 H 416.173 3.34047 -3.66915 0
M  V30 4306 N 415.346 1.54954 0.287554 0
M  V30 4307 C 416.293 1.86834 1.35505 0
M  V30 4308 C 417.263 0.718452 1.49758 0
M  V30 4309 O 418.448 0.968358 1.644 0
M  V30 4310 C 415.588 2.13303 2.71286 0
M  V30 4311 C 414.701 3.40883 2.65373 0
M  V30 4312 C 413.836 3.57125 3.93236 0
M  V30 4313 C 412.875 4.78449 3.81776 0
M  V30 4314 N 412.012 4.91426 5.01443 0
M  V30 4315 H 416.852 2.77889 1.07619 0
M  V30 4316 H 414.389 1.37593 0.520241 0
M  V30 4317 H 416.347 2.26646 3.50267 0
M  V30 4318 H 414.977 1.25499 2.97405 0
M  V30 4319 H 414.029 3.36088 1.78182 0
M  V30 4320 H 415.341 4.29993 2.52799 0
M  V30 4321 H 414.495 3.70207 4.80658 0
M  V30 4322 H 413.234 2.66173 4.0866 0
M  V30 4323 H 412.239 4.65386 2.92738 0
M  V30 4324 H 413.464 5.70822 3.67884 0
M  V30 4325 H 411.41 4.03401 5.17304 0
M  V30 4326 H 411.327 5.74559 4.91343 0
M  V30 4327 H 412.595 5.08879 5.90477 0
M  V30 4328 N 416.824 -0.551391 1.4764 0
M  V30 4329 C 417.787 -1.64007 1.60107 0
M  V30 4330 C 418.787 -1.53601 0.47576 0
M  V30 4331 O 419.977 -1.57655 0.740988 0
M  V30 4332 C 417.109 -3.03569 1.55108 0
M  V30 4333 H 418.302 -1.543 2.57161 0
M  V30 4334 H 415.855 -0.771776 1.35917 0
M  V30 4335 H 416.59 -3.18804 0.594519 0
M  V30 4336 H 416.375 -3.12532 2.36783 0
M  V30 4337 H 417.865 -3.82762 1.66982 0
M  V30 4338 N 418.302 -1.35869 -0.798587 0
M  V30 4339 C 419.551 -1.28921 -1.5512 0
M  V30 4340 C 419.864 0.13208 -1.95154 0
M  V30 4341 O 421.07 0.323879 -2.69561 0
M  V30 4342 C 419.526 -2.26141 -2.79979 0
M  V30 4343 C 419.134 -3.73658 -2.47151 0
M  V30 4344 C 420.878 -2.28152 -3.57976 0
M  V30 4345 C 418.785 -4.62679 -3.6835 0
M  V30 4346 H 417.715 -0.479031 -0.582276 0
M  V30 4347 H 420.366 -1.61179 -0.877125 0
M  V30 4348 H 418.748 -1.86865 -3.49138 0
M  V30 4349 H 419.922 -4.21616 -1.85947 0
M  V30 4350 H 418.237 -3.74333 -1.82383 0
M  V30 4351 H 420.834 -2.91875 -4.4801 0
M  V30 4352 H 421.177 -1.28748 -3.95891 0
M  V30 4353 H 421.71 -2.65998 -2.95787 0
M  V30 4354 H 418.449 -5.63111 -3.35538 0
M  V30 4355 H 417.969 -4.19442 -4.28752 0
M  V30 4356 H 419.648 -4.78498 -4.35487 0
M  V30 4357 N 419.78 1.02168 -1.19998 0
M  V30 4358 C 421.028 1.75338 -1.00504 0
M  V30 4359 C 421.349 1.89387 0.464506 0
M  V30 4360 O 420.619 1.43268 1.33608 0
M  V30 4361 H 419.199 0.649564 -0.368885 0
M  V30 4362 H 421.861 1.23205 -1.51018 0
M  V30 4363 H 420.957 2.75892 -1.45912 0
M  V30 4364 N 421.258 1.00505 1.21394 0
M  V30 4365 C 422.205 0.565496 2.23765 0
M  V30 4366 C 423.175 -0.408466 1.60999 0
M  V30 4367 O 424.36 -0.310503 1.88257 0
M  V30 4368 C 421.5 -0.101667 3.4495 0
M  V30 4369 C 420.613 0.915479 4.22188 0
M  V30 4370 C 419.748 0.220574 5.30742 0
M  V30 4371 C 418.787 1.22527 5.99711 0
M  V30 4372 N 417.924 0.557831 6.9988 0
M  V30 4373 H 422.764 1.44314 2.60725 0
M  V30 4374 H 420.301 0.722643 1.28126 0
M  V30 4375 H 422.259 -0.505504 4.14126 0
M  V30 4376 H 420.889 -0.94303 3.08718 0
M  V30 4377 H 419.941 1.43756 3.52191 0
M  V30 4378 H 421.253 1.68005 4.69655 0
M  V30 4379 H 420.407 -0.239368 6.06228 0
M  V30 4380 H 419.146 -0.576401 4.84282 0
M  V30 4381 H 418.151 1.69571 5.22997 0
M  V30 4382 H 419.376 2.02332 6.48258 0
M  V30 4383 H 417.322 -0.219486 6.55633 0
M  V30 4384 H 417.239 1.26065 7.45415 0
M  V30 4385 H 418.507 0.121095 7.79406 0
M  V30 4386 N 422.737 -1.36956 0.779787 0
M  V30 4387 C 424.148 -1.82094 0.412156 0
M  V30 4388 C 424.499 -1.64926 -1.06273 0
M  V30 4389 O 423.624 -1.16483 -1.82375 0
M  V30 4390 C 424.219 -3.3059 0.741319 0
M  V30 4391 C 422.778 -3.73974 0.426641 0
M  V30 4392 C 421.925 -2.59368 0.980987 0
M  V30 4393 H 424.876 -1.25314 0.973758 0
M  V30 4394 H 424.897 -3.80489 0.028887 0
M  V30 4395 H 424.409 -3.43054 1.81482 0
M  V30 4396 H 422.51 -3.67076 -0.639215 0
M  V30 4397 H 422.623 -4.69778 0.940515 0
M  V30 4398 H 420.987 -2.51463 0.404757 0
M  V30 4399 H 421.77 -2.74621 2.06005 0
M  V30 4400 N 424.215 -0.530993 -1.48385 0
M  V30 4401 C 425.125 0.23503 -2.3342 0
M  V30 4402 C 426.141 0.93801 -1.46552 0
M  V30 4403 O 427.317 0.912745 -1.7953 0
M  V30 4404 C 424.382 1.26778 -3.22689 0
M  V30 4405 C 423.443 0.575038 -4.25431 0
M  V30 4406 C 422.676 1.55858 -5.10435 0
M  V30 4407 O 422.899 2.79129 -4.97437 0
M  V30 4408 O 421.833 1.09742 -5.91811 0
M  V30 4409 H 425.659 -0.461794 -3.00169 0
M  V30 4410 H 423.244 -0.291903 -1.46521 0
M  V30 4411 H 425.126 1.86457 -3.77904 0
M  V30 4412 H 423.801 1.94699 -2.586 0
M  V30 4413 H 422.708 -0.0622782 -3.74048 0
M  V30 4414 H 424.041 -0.062253 -4.92161 0
M  V30 4415 N 425.693 1.55336 -0.266172 0
M  V30 4416 C 426.939 2.00423 0.346714 0
M  V30 4417 C 427.294 1.15132 1.54151 0
M  V30 4418 O 426.587 0.211289 1.90431 0
M  V30 4419 C 426.781 3.48606 0.787957 0
M  V30 4420 C 426.61 4.48236 -0.362535 0
M  V30 4421 C 425.38 4.98211 -0.843445 0
M  V30 4422 C 427.578 5.00199 -1.19603 0
M  V30 4423 N 425.56 5.81625 -1.96434 0
M  V30 4424 C 426.931 5.80973 -2.16497 0
M  V30 4425 C 428.986 4.82458 -1.2304 0
M  V30 4426 C 427.689 6.45896 -3.1656 0
M  V30 4427 C 429.715 5.48174 -2.21944 0
M  V30 4428 C 429.077 6.28751 -3.17571 0
M  V30 4429 H 425.176 0.776535 0.0922914 0
M  V30 4430 H 427.76 1.90792 -0.388154 0
M  V30 4431 H 425.931 3.58597 1.49207 0
M  V30 4432 H 427.663 3.80538 1.37742 0
M  V30 4433 H 424.418 4.71696 -0.424271 0
M  V30 4434 H 424.842 6.28025 -2.52813 0
M  V30 4435 H 429.484 4.19774 -0.504903 0
M  V30 4436 H 427.202 7.07734 -3.90048 0
M  V30 4437 H 430.788 5.36392 -2.25333 0
M  V30 4438 H 429.668 6.78703 -3.92851 0
M  V30 4439 N 427.171 -0.0066808 1.57599 0
M  V30 4440 C 428.42 -0.692078 1.89455 0
M  V30 4441 C 428.733 -1.75306 0.867586 0
M  V30 4442 O 429.939 -2.49262 1.07614 0
M  V30 4443 C 428.395 -1.2821 3.36289 0
M  V30 4444 C 428.003 -0.256291 4.47266 0
M  V30 4445 C 429.747 -1.94608 3.77264 0
M  V30 4446 C 427.654 -0.855927 5.85173 0
M  V30 4447 H 426.584 -0.262252 0.706923 0
M  V30 4448 H 429.235 0.052769 1.83424 0
M  V30 4449 H 427.617 -2.0774 3.37135 0
M  V30 4450 H 428.791 0.513923 4.57925 0
M  V30 4451 H 427.106 0.306862 4.15268 0
M  V30 4452 H 429.703 -2.40364 4.77629 0
M  V30 4453 H 430.046 -2.77382 3.10427 0
M  V30 4454 H 430.579 -1.21822 3.78688 0
M  V30 4455 H 427.318 -0.0671161 6.55466 0
M  V30 4456 H 426.838 -1.59546 5.78191 0
M  V30 4457 H 428.517 -1.35658 6.32618 0
M  V30 4458 N 428.649 -1.55105 -0.279332 0
M  V30 4459 C 429.877 -1.7943 -1.03017 0
M  V30 4460 C 430.292 -0.564456 -1.80165 0
M  V30 4461 O 429.649 0.466326 -1.76442 0
M  V30 4462 C 429.7 -3.0155 -1.99374 0
M  V30 4463 O 429.421 -4.19784 -1.25352 0
M  V30 4464 C 430.922 -3.3843 -2.86321 0
M  V30 4465 H 428.142 -0.597882 -0.304594 0
M  V30 4466 H 430.686 -2.02105 -0.312035 0
M  V30 4467 H 428.841 -2.81019 -2.66659 0
M  V30 4468 H 429.255 -4.88781 -1.90246 0
M  V30 4469 H 430.729 -4.27066 -3.49741 0
M  V30 4470 H 431.206 -2.57549 -3.5576 0
M  V30 4471 H 431.812 -3.61197 -2.24536 0
M  V30 4472 N 430.127 0.543554 -1.4793 0
M  V30 4473 C 431.404 1.30458 -1.4574 0
M  V30 4474 C 431.784 2.1048 -0.161692 0
M  V30 4475 O 431.132 2.11831 0.856734 0
M  V30 4476 C 431.342 2.19754 -2.71126 0
M  V30 4477 C 432.69 2.80334 -3.18901 0
M  V30 4478 O 433.714 2.30049 -2.71948 0
M  V30 4479 O 432.573 3.71766 -4.00565 0
M  V30 4480 H 429.667 0.588117 -0.581418 0
M  V30 4481 H 432.213 0.561328 -1.60147 0
M  V30 4482 H 430.985 1.60316 -3.56952 0
M  V30 4483 H 430.608 3.01351 -2.59371 0
M  V30 4484 N 431.605 1.3629 0.791371 0
M  V30 4485 C 433.016 1.27225 1.36641 0
M  V30 4486 C 433.367 -0.0887968 1.95999 0
M  V30 4487 O 432.492 -0.990207 1.92416 0
M  V30 4488 C 433.087 2.30375 2.48421 0
M  V30 4489 C 431.646 2.25004 3.01746 0
M  V30 4490 C 430.793 2.15259 1.7481 0
M  V30 4491 H 433.744 1.47198 0.593173 0
M  V30 4492 H 433.765 1.93905 3.27385 0
M  V30 4493 H 433.277 3.29422 2.05189 0
M  V30 4494 H 431.378 1.29417 3.49403 0
M  V30 4495 H 431.491 3.1761 3.58693 0
M  V30 4496 H 429.855 1.61482 1.96966 0
M  V30 4497 H 430.638 3.16191 1.33709 0
M  V30 4498 N 433.083 -1.0153 1.20538 0
M  V30 4499 C 434.046 -2.0826 0.957098 0
M  V30 4500 C 435.046 -1.60657 -0.0678655 0
M  V30 4501 O 436.236 -1.73385 0.168332 0
M  V30 4502 C 433.368 -3.38033 0.441188 0
M  V30 4503 H 434.561 -2.31719 1.90384 0
M  V30 4504 H 432.114 -1.1835 1.02093 0
M  V30 4505 H 432.849 -3.20249 -0.510961 0
M  V30 4506 H 432.634 -3.73911 1.18038 0
M  V30 4507 H 434.124 -4.16613 0.287009 0
M  V30 4508 N 434.561 -1.01147 -1.20859 0
M  V30 4509 C 435.791 -0.715872 -1.93801 0
M  V30 4510 C 436.199 0.726592 -1.74692 0
M  V30 4511 O 435.542 1.50397 -1.05482 0
M  V30 4512 C 435.604 -0.965269 -3.46299 0
M  V30 4513 C 435.268 -2.39584 -3.89164 0
M  V30 4514 C 436.265 -3.3764 -3.95342 0
M  V30 4515 C 433.95 -2.73522 -4.21297 0
M  V30 4516 C 435.944 -4.67698 -4.33056 0
M  V30 4517 C 433.631 -4.03794 -4.58687 0
M  V30 4518 C 434.629 -5.00693 -4.64538 0
M  V30 4519 O 434.317 -6.28635 -5.01072 0
M  V30 4520 H 434.049 -0.262524 -0.622942 0
M  V30 4521 H 436.603 -1.35413 -1.54443 0
M  V30 4522 H 434.833 -0.269847 -3.85757 0
M  V30 4523 H 436.522 -0.662051 -4.00464 0
M  V30 4524 H 437.288 -3.12757 -3.70686 0
M  V30 4525 H 433.167 -1.9879 -4.15937 0
M  V30 4526 H 436.711 -5.4333 -4.37537 0
M  V30 4527 H 432.608 -4.28459 -4.82797 0
M  V30 4528 H 433.376 -6.32847 -5.19083 0
M  V30 4529 N 436.039 1.36541 -0.78704 0
M  V30 4530 C 437.264 2.0409 -0.369053 0
M  V30 4531 C 437.689 1.58957 1.00569 0
M  V30 4532 O 437.047 0.756926 1.64743 0
M  V30 4533 C 437.095 3.57924 -0.438466 0
M  V30 4534 O 436.199 4.08642 0.555479 0
M  V30 4535 H 435.54 0.645142 -0.157122 0
M  V30 4536 H 438.07 1.74545 -1.06749 0
M  V30 4537 H 438.08 4.06887 -0.301218 0
M  V30 4538 H 436.755 3.90127 -1.44132 0
M  V30 4539 H 435.332 3.70958 0.380088 0
M  V30 4540 N 437.518 0.538854 1.48102 0
M  V30 4541 C 438.746 0.0123136 2.06896 0
M  V30 4542 C 439.161 -1.27312 1.39417 0
M  V30 4543 O 438.518 -1.75949 0.484582 0
M  V30 4544 C 438.569 -0.206118 3.60912 0
M  V30 4545 O 438.29 1.0284 4.25859 0
M  V30 4546 C 439.791 -0.772033 4.36526 0
M  V30 4547 H 437.011 0.0375239 0.66995 0
M  V30 4548 H 439.555 0.747032 1.90367 0
M  V30 4549 H 437.71 -0.89091 3.77017 0
M  V30 4550 H 438.124 0.814654 5.18135 0
M  V30 4551 H 439.598 -0.874251 5.45033 0
M  V30 4552 H 440.075 -1.77904 4.01555 0
M  V30 4553 H 440.681 -0.123526 4.25121 0
M  V30 4554 N 438.996 -1.55193 0.274407 0
M  V30 4555 C 439.959 -2.212 -0.600279 0
M  V30 4556 C 440.959 -1.18963 -1.08187 0
M  V30 4557 O 442.149 -1.43873 -0.982158 0
M  V30 4558 C 439.281 -2.87739 -1.82809 0
M  V30 4559 H 440.474 -2.9989 -0.0239682 0
M  V30 4560 H 438.027 -1.5628 0.0250192 0
M  V30 4561 H 438.762 -2.13058 -2.44493 0
M  V30 4562 H 438.547 -3.62658 -1.49069 0
M  V30 4563 H 440.037 -3.38171 -2.45011 0
M  V30 4564 N 440.474 -0.00167713 -1.576 0
M  V30 4565 C 441.424 0.997744 -2.0501 0
M  V30 4566 C 442.408 1.30214 -0.94515 0
M  V30 4567 O 443.6 1.29284 -1.20891 0
M  V30 4568 C 440.729 2.2892 -2.55833 0
M  V30 4569 C 439.815 2.01437 -3.73208 0
M  V30 4570 N 440.206 1.44119 -4.84833 0
M  V30 4571 C 438.504 2.31571 -3.8117 0
M  V30 4572 C 439.205 1.33145 -5.66257 0
M  V30 4573 N 438.181 1.81763 -5.12312 0
M  V30 4574 H 441.983 0.549098 -2.88725 0
M  V30 4575 H 439.497 0.20398 -1.61114 0
M  V30 4576 H 441.494 3.01361 -2.88075 0
M  V30 4577 H 440.154 2.74436 -1.73537 0
M  V30 4578 H 441.165 1.11978 -5.0565 0
M  V30 4579 H 437.842 2.7995 -3.09732 0
M  V30 4580 H 439.232 0.890567 -6.65972 0
M  V30 4581 N 441.952 1.55251 0.271103 0
M  V30 4582 C 442.915 1.87484 1.31842 0
M  V30 4583 C 443.915 0.749545 1.42262 0
M  V30 4584 O 445.105 1.01771 1.4138 0
M  V30 4585 C 442.237 2.0818 2.69951 0
M  V30 4586 H 443.43 2.81108 1.0449 0
M  V30 4587 H 440.983 1.47771 0.509258 0
M  V30 4588 H 441.718 1.16944 3.02481 0
M  V30 4589 H 441.503 2.90114 2.63774 0
M  V30 4590 H 442.993 2.34385 3.4562 0
M  V30 4591 N 443.43 -0.535701 1.48216 0
M  V30 4592 C 444.846 -0.863701 1.3421 0
M  V30 4593 C 445.046 -1.98458 0.34879 0
M  V30 4594 O 444.102 -2.51432 -0.23204 0
M  V30 4595 C 445.415 -1.23662 2.74095 0
M  V30 4596 C 446.963 -1.34683 2.82541 0
M  V30 4597 C 447.438 -1.75322 4.23115 0
M  V30 4598 N 448.929 -1.82434 4.2576 0
M  V30 4599 C 449.664 -2.15252 5.31464 0
M  V30 4600 N 449.16 -2.46533 6.47452 0
M  V30 4601 N 450.953 -2.16209 5.18855 0
M  V30 4602 H 443.104 0.203965 2.11418 0
M  V30 4603 H 445.367 0.0286033 0.947568 0
M  V30 4604 H 445.073 -0.486674 3.48316 0
M  V30 4605 H 444.947 -2.18805 3.07253 0
M  V30 4606 H 447.334 -2.08756 2.08579 0
M  V30 4607 H 447.415 -0.376756 2.5301 0
M  V30 4608 H 447.059 -1.01812 4.97591 0
M  V30 4609 H 446.989 -2.7337 4.50085 0
M  V30 4610 H 449.48 -1.6056 3.42095 0
M  V30 4611 H 449.793 -2.70662 7.23852 0
M  V30 4612 H 448.138 -2.44065 6.50736 0
M  V30 4613 H 451.329 -1.91224 4.2726 0
M  V30 4614 H 451.502 -2.41453 6.01335 0
M  V30 4615 N 444.908 -1.36708 -0.784132 0
M  V30 4616 C 445.84 -1.27333 -1.90575 0
M  V30 4617 C 446.853 -0.191706 -1.61667 0
M  V30 4618 O 448.042 -0.446854 -1.72816 0
M  V30 4619 C 445.142 -0.943177 -3.25511 0
M  V30 4620 C 444.315 -2.12776 -3.82158 0
M  V30 4621 C 443.374 -1.76983 -4.95544 0
M  V30 4622 O 442.4 -2.49134 -5.11782 0
M  V30 4623 N 443.602 -0.706624 -5.76183 0
M  V30 4624 H 446.367 -2.23974 -1.99138 0
M  V30 4625 H 443.928 -1.30171 -0.962656 0
M  V30 4626 H 445.92 -0.684799 -3.98864 0
M  V30 4627 H 444.49 -0.0657333 -3.12531 0
M  V30 4628 H 443.71 -2.54863 -3.0073 0
M  V30 4629 H 444.998 -2.91904 -4.16737 0
M  V30 4630 H 444.396 -0.107643 -5.65598 0
M  V30 4631 H 442.953 -0.50808 -6.49817 0
M  V30 4632 N 446.386 1.0089 -1.21074 0
M  V30 4633 C 447.797 1.56056 -1.02486 0
M  V30 4634 C 448.148 1.91728 0.416506 0
M  V30 4635 O 447.273 1.73066 1.29912 0
M  V30 4636 C 447.868 2.83563 -1.85411 0
M  V30 4637 C 446.427 3.3523 -1.71166 0
M  V30 4638 C 445.574 2.0846 -1.82865 0
M  V30 4639 H 448.525 0.831818 -1.35154 0
M  V30 4640 H 448.546 3.55286 -1.36205 0
M  V30 4641 H 448.058 2.57569 -2.9031 0
M  V30 4642 H 446.159 3.66167 -0.689361 0
M  V30 4643 H 446.272 4.06913 -2.52901 0
M  V30 4644 H 444.636 2.21275 -1.26132 0
M  V30 4645 H 445.419 1.84883 -2.89263 0
M  V30 4646 N 447.864 1.01787 1.20321 0
M  V30 4647 C 448.814 0.559976 2.21016 0
M  V30 4648 C 449.798 -0.385366 1.56217 0
M  V30 4649 O 450.99 -0.208126 1.75772 0
M  V30 4650 C 448.119 -0.0990553 3.43157 0
M  V30 4651 C 447.205 0.86807 4.15121 0
M  V30 4652 N 447.596 2.0261 4.63447 0
M  V30 4653 C 445.894 0.689162 4.40643 0
M  V30 4654 C 446.595 2.63518 5.18588 0
M  V30 4655 N 445.571 1.91569 5.08726 0
M  V30 4656 H 449.373 1.44281 2.56048 0
M  V30 4657 H 446.887 0.883381 1.36272 0
M  V30 4658 H 448.884 -0.444643 4.14522 0
M  V30 4659 H 447.544 -0.977709 3.0963 0
M  V30 4660 H 448.555 2.40598 4.58621 0
M  V30 4661 H 445.232 -0.14133 4.17261 0
M  V30 4662 H 446.622 3.61527 5.66346 0
M  V30 4663 N 449.342 -1.36122 0.79427 0
M  V30 4664 C 450.591 -1.98361 0.365464 0
M  V30 4665 C 450.904 -1.6374 -1.06997 0
M  V30 4666 O 452.11 -2.19251 -1.60129 0
M  V30 4667 C 450.566 -3.54821 0.602496 0
M  V30 4668 C 450.174 -3.98362 2.04967 0
M  V30 4669 C 451.918 -4.2383 0.238437 0
M  V30 4670 C 449.825 -5.47619 2.2331 0
M  V30 4671 H 448.755 -0.742193 0.13291 0
M  V30 4672 H 451.406 -1.55354 0.976589 0
M  V30 4673 H 449.788 -3.95922 -0.078409 0
M  V30 4674 H 450.962 -3.68447 2.76737 0
M  V30 4675 H 449.277 -3.42206 2.37243 0
M  V30 4676 H 451.874 -5.33529 0.353705 0
M  V30 4677 H 452.217 -4.08264 -0.814006 0
M  V30 4678 H 452.75 -3.88108 0.872769 0
M  V30 4679 H 449.489 -5.68138 3.26955 0
M  V30 4680 H 449.009 -5.79145 1.5605 0
M  V30 4681 H 450.688 -6.13911 2.0426 0
M  V30 4682 N 450.82 -0.546701 -1.47814 0
M  V30 4683 C 452.067 -0.0187407 -2.02491 0
M  V30 4684 C 452.395 1.32685 -1.42215 0
M  V30 4685 O 451.65 1.87413 -0.563454 0
M  V30 4686 C 451.949 0.134869 -3.57145 0
M  V30 4687 C 451.615 -1.13849 -4.3629 0
M  V30 4688 C 450.277 -1.48743 -4.57634 0
M  V30 4689 C 452.629 -1.98277 -4.82012 0
M  V30 4690 C 449.957 -2.67932 -5.21948 0
M  V30 4691 C 452.309 -3.16659 -5.4764 0
M  V30 4692 C 450.973 -3.51879 -5.67219 0
M  V30 4693 H 450.243 -0.0068577 -0.740968 0
M  V30 4694 H 452.89 -0.716097 -1.77607 0
M  V30 4695 H 451.195 0.915118 -3.80963 0
M  V30 4696 H 452.892 0.558556 -3.97091 0
M  V30 4697 H 449.482 -0.856767 -4.19949 0
M  V30 4698 H 453.666 -1.72628 -4.6531 0
M  V30 4699 H 448.922 -2.95401 -5.35302 0
M  V30 4700 H 453.096 -3.82374 -5.82033 0
M  V30 4701 H 450.723 -4.44331 -6.16825 0
M  V30 4702 N 452.299 1.55045 -0.282633 0
M  V30 4703 C 453.576 1.9179 0.384166 0
M  V30 4704 C 453.956 1.20778 1.73136 0
M  V30 4705 O 453.304 0.33719 2.25998 0
M  V30 4706 C 453.514 3.45149 0.517014 0
M  V30 4707 C 454.862 4.17064 0.796427 0
M  V30 4708 O 455.886 3.51084 0.601535 0
M  V30 4709 O 454.745 5.33837 1.16962 0
M  V30 4710 H 451.839 0.799483 0.211558 0
M  V30 4711 H 454.385 1.66474 -0.32934 0
M  V30 4712 H 453.157 3.88922 -0.430772 0
M  V30 4713 H 452.78 3.76443 1.2797 0
M  V30 4714 N 453.777 0.010035 1.57597 0
M  V30 4715 C 455.026 -0.671945 1.90178 0
M  V30 4716 C 455.339 -1.74376 0.886131 0
M  V30 4717 O 456.545 -2.48107 1.10252 0
M  V30 4718 C 455.001 -1.24636 3.3763 0
M  V30 4719 C 454.609 -0.208838 4.47513 0
M  V30 4720 C 456.353 -1.90595 3.79307 0
M  V30 4721 C 454.26 -0.793814 5.86048 0
M  V30 4722 H 453.19 -0.25474 0.709665 0
M  V30 4723 H 455.841 0.0722206 1.83358 0
M  V30 4724 H 454.223 -2.04152 3.3932 0
M  V30 4725 H 455.397 0.562463 4.57354 0
M  V30 4726 H 453.712 0.350889 4.14919 0
M  V30 4727 H 456.309 -2.35284 4.80151 0
M  V30 4728 H 456.652 -2.74074 3.13352 0
M  V30 4729 H 457.185 -1.17798 3.79958 0
M  V30 4730 H 453.924 0.00240855 6.555 0
M  V30 4731 H 453.444 -1.53404 5.79851 0
M  V30 4732 H 455.123 -1.2894 6.34022 0
M  V30 4733 N 455.255 -1.55392 -0.262866 0
M  V30 4734 C 456.502 -1.76476 -0.993109 0
M  V30 4735 C 456.83 -0.571479 -1.85915 0
M  V30 4736 O 456.085 0.445733 -1.90556 0
M  V30 4737 C 456.384 -3.02889 -1.89718 0
M  V30 4738 C 456.05 -4.34974 -1.18781 0
M  V30 4739 C 454.712 -4.7087 -0.991699 0
M  V30 4740 C 457.064 -5.16695 -0.683798 0
M  V30 4741 C 454.392 -5.86036 -0.279024 0
M  V30 4742 C 456.744 -6.32598 0.0153327 0
M  V30 4743 C 455.408 -6.67127 0.223062 0
M  V30 4744 H 454.678 -0.64577 -0.363404 0
M  V30 4745 H 457.325 -1.89664 -0.264525 0
M  V30 4746 H 455.63 -2.84644 -2.6923 0
M  V30 4747 H 457.327 -3.16399 -2.46359 0
M  V30 4748 H 453.917 -4.06765 -1.35058 0
M  V30 4749 H 458.101 -4.8943 -0.8229 0
M  V30 4750 H 453.357 -6.11306 -0.107456 0
M  V30 4751 H 457.531 -6.95171 0.413584 0
M  V30 4752 H 455.158 -7.56216 0.777265 0
M  V30 4753 N 456.733 0.527833 -1.48498 0
M  V30 4754 C 457.696 1.61439 -1.62696 0
M  V30 4755 C 458.696 1.52824 -0.500136 0
M  V30 4756 O 459.886 1.56456 -0.765976 0
M  V30 4757 C 457.018 3.01063 -1.59918 0
M  V30 4758 H 458.211 1.50189 -2.59583 0
M  V30 4759 H 455.764 0.750055 -1.37127 0
M  V30 4760 H 456.499 3.17818 -0.645163 0
M  V30 4761 H 456.284 3.08725 -2.41726 0
M  V30 4762 H 457.774 3.80057 -1.73051 0
M  V30 4763 N 458.211 1.37122 0.776871 0
M  V30 4764 C 459.121 1.34651 1.9211 0
M  V30 4765 C 460.137 0.246824 1.7224 0
M  V30 4766 O 461.313 0.48134 1.95563 0
M  V30 4767 C 458.378 1.14748 3.2716 0
M  V30 4768 C 457.439 2.34308 3.5972 0
M  V30 4769 C 456.672 2.15345 4.88326 0
M  V30 4770 O 456.895 1.13507 5.58992 0
M  V30 4771 O 455.829 3.03414 5.1983 0
M  V30 4772 H 459.655 2.31013 1.97146 0
M  V30 4773 H 457.24 1.17799 0.918901 0
M  V30 4774 H 459.122 1.05616 4.0795 0
M  V30 4775 H 457.797 0.214562 3.22988 0
M  V30 4776 H 456.704 2.49011 2.79185 0
M  V30 4777 H 458.037 3.26149 3.68629 0
M  V30 4778 N 459.689 -1.00246 1.21608 0
M  V30 4779 C 460.938 -1.73476 1.02902 0
M  V30 4780 C 461.251 -1.90643 -0.437561 0
M  V30 4781 O 462.457 -2.61105 -0.74407 0
M  V30 4782 C 460.913 -3.12079 1.79261 0
M  V30 4783 C 460.521 -3.02877 3.30106 0
M  V30 4784 C 462.265 -3.89421 1.68972 0
M  V30 4785 C 460.172 -4.36575 3.98944 0
M  V30 4786 H 459.102 -0.650408 0.381425 0
M  V30 4787 H 461.753 -1.11985 1.45367 0
M  V30 4788 H 460.135 -3.74196 1.2959 0
M  V30 4789 H 461.309 -2.49983 3.87098 0
M  V30 4790 H 459.624 -2.39022 3.40965 0
M  V30 4791 H 462.221 -4.88362 2.17731 0
M  V30 4792 H 462.564 -4.1122 0.648397 0
M  V30 4793 H 463.097 -3.33963 2.16133 0
M  V30 4794 H 459.836 -4.19978 5.03288 0
M  V30 4795 H 459.356 -4.8942 3.4674 0
M  V30 4796 H 461.035 -5.05364 4.04 0
M  V30 4797 N 461.167 -1.02423 -1.1978 0
M  V30 4798 C 462.077 -0.610919 -2.26506 0
M  V30 4799 C 463.093 0.355152 -1.70337 0
M  V30 4800 O 464.269 0.214195 -2.00258 0
M  V30 4801 C 461.334 0.0365921 -3.46681 0
M  V30 4802 C 460.395 -0.976389 -4.18049 0
M  V30 4803 C 459.628 -0.359683 -5.32487 0
M  V30 4804 O 459.851 0.838601 -5.64202 0
M  V30 4805 O 458.785 -1.08022 -5.92127 0
M  V30 4806 H 462.611 -1.49965 -2.64091 0
M  V30 4807 H 460.196 -0.794156 -1.26545 0
M  V30 4808 H 462.078 0.39786 -4.19518 0
M  V30 4809 H 460.753 0.899398 -3.10954 0
M  V30 4810 H 459.66 -1.38916 -3.47352 0
M  V30 4811 H 460.993 -1.80941 -4.57735 0
M  V30 4812 N 462.645 1.35699 -0.801477 0
M  V30 4813 C 463.592 2.29876 -0.206294 0
M  V30 4814 C 464.562 1.52565 0.656752 0
M  V30 4815 O 465.747 1.81024 0.602906 0
M  V30 4816 C 462.887 3.39052 0.643272 0
M  V30 4817 C 462 4.31335 -0.239644 0
M  V30 4818 C 461.135 5.27599 0.61744 0
M  V30 4819 C 460.174 6.11521 -0.26619 0
M  V30 4820 N 459.311 6.99938 0.550571 0
M  V30 4821 H 464.151 2.80187 -1.01484 0
M  V30 4822 H 461.688 1.37902 -0.511997 0
M  V30 4823 H 463.646 4.0101 1.15094 0
M  V30 4824 H 462.276 2.9003 1.41713 0
M  V30 4825 H 461.328 3.70426 -0.865381 0
M  V30 4826 H 462.64 4.90243 -0.919985 0
M  V30 4827 H 461.794 5.94906 1.19045 0
M  V30 4828 H 460.533 4.69176 1.33137 0
M  V30 4829 H 459.538 5.43166 -0.851507 0
M  V30 4830 H 460.763 6.72022 -0.9779 0
M  V30 4831 H 458.709 6.44008 1.24856 0
M  V30 4832 H 458.626 7.55966 -0.071832 0
M  V30 4833 H 459.894 7.71599 1.10702 0
M  V30 4834 N 464.123 0.554532 1.47522 0
M  V30 4835 C 465.353 0.0342074 2.06572 0
M  V30 4836 C 465.761 -1.26375 1.40805 0
M  V30 4837 O 465.104 -1.7683 0.49769 0
M  V30 4838 C 465.166 -0.235096 3.5873 0
M  V30 4839 C 464.83 0.973024 4.46521 0
M  V30 4840 C 465.827 1.8779 4.848 0
M  V30 4841 C 463.512 1.18694 4.88075 0
M  V30 4842 C 465.506 2.98039 5.63428 0
M  V30 4843 C 463.193 2.29254 5.66468 0
M  V30 4844 C 464.191 3.18757 6.04055 0
M  V30 4845 O 463.879 4.27401 6.8087 0
M  V30 4846 H 463.611 0.041587 0.67472 0
M  V30 4847 H 466.165 0.766748 1.90552 0
M  V30 4848 H 464.395 -1.02191 3.72953 0
M  V30 4849 H 466.084 -0.700477 3.9981 0
M  V30 4850 H 466.85 1.72467 4.53299 0
M  V30 4851 H 462.729 0.49947 4.58286 0
M  V30 4852 H 466.273 3.67926 5.92685 0
M  V30 4853 H 462.17 2.4455 5.97382 0
M  V30 4854 H 462.938 4.25415 6.9926 0
M  V30 4855 N 465.601 -1.54893 0.290851 0
M  V30 4856 C 466.829 -2.04343 -0.324288 0
M  V30 4857 C 467.244 -1.16859 -1.48289 0
M  V30 4858 O 466.601 -0.192018 -1.81487 0
M  V30 4859 C 466.652 -3.52756 -0.79026 0
M  V30 4860 O 466.373 -4.36913 0.322213 0
M  V30 4861 C 467.874 -4.18161 -1.4716 0
M  V30 4862 H 465.094 -0.667135 -0.0719173 0
M  V30 4863 H 467.638 -1.99981 0.427529 0
M  V30 4864 H 465.793 -3.57511 -1.49213 0
M  V30 4865 H 466.207 -5.24486 -0.0387372 0
M  V30 4866 H 467.681 -5.23562 -1.7489 0
M  V30 4867 H 468.158 -3.67282 -2.40834 0
M  V30 4868 H 468.764 -4.17454 -0.813178 0
M  V30 4869 N 467.08 -0.0183926 -1.57589 0
M  V30 4870 C 468.326 0.663543 -1.91638 0
M  V30 4871 C 468.659 1.72392 -0.894134 0
M  V30 4872 O 467.934 1.94316 0.0846449 0
M  V30 4873 C 468.217 1.28984 -3.36207 0
M  V30 4874 C 468.07 0.239761 -4.49161 0
M  V30 4875 C 469.389 2.2109 -3.80536 0
M  V30 4876 H 466.508 0.239746 -0.696915 0
M  V30 4877 H 469.15 -0.073456 -1.89858 0
M  V30 4878 H 467.3 1.91799 -3.37854 0
M  V30 4879 H 468.972 -0.390119 -4.59647 0
M  V30 4880 H 467.215 -0.435972 -4.31604 0
M  V30 4881 H 467.886 0.717383 -5.47319 0
M  V30 4882 H 470.362 1.68273 -3.80557 0
M  V30 4883 H 469.238 2.61869 -4.82406 0
M  V30 4884 H 469.499 3.09764 -3.15434 0
M  V30 4885 N 468.558 1.5553 0.254621 0
M  V30 4886 C 469.786 1.81046 1.00149 0
M  V30 4887 C 470.201 0.593047 1.79244 0
M  V30 4888 O 469.558 -0.438196 1.77161 0
M  V30 4889 C 469.609 3.04684 1.94551 0
M  V30 4890 O 469.33 4.21725 1.18658 0
M  V30 4891 C 470.831 3.42943 2.80901 0
M  V30 4892 H 468.051 0.602653 0.295044 0
M  V30 4893 H 470.595 2.02576 0.279842 0
M  V30 4894 H 468.75 2.85226 2.62154 0
M  V30 4895 H 469.164 4.91746 1.82445 0
M  V30 4896 H 470.638 4.32576 3.42902 0
M  V30 4897 H 471.115 2.63176 3.51617 0
M  V30 4898 H 471.721 3.64724 2.18762 0
M  V30 4899 N 470.036 -0.519951 1.48776 0
M  V30 4900 C 471.285 -1.27175 1.56555 0
M  V30 4901 C 471.598 -1.9401 0.248869 0
M  V30 4902 O 472.804 -2.70725 0.205004 0
M  V30 4903 C 471.26 -2.30811 2.76142 0
M  V30 4904 C 470.868 -1.7 4.14493 0
M  V30 4905 C 472.612 -3.06937 2.9324 0
M  V30 4906 C 470.519 -2.71635 5.25327 0
M  V30 4907 H 469.449 -0.478329 0.582853 0
M  V30 4908 H 472.1 -0.547916 1.75129 0
M  V30 4909 H 470.482 -3.06274 2.51023 0
M  V30 4910 H 471.656 -1.00658 4.49672 0
M  V30 4911 H 469.971 -1.06331 4.02595 0
M  V30 4912 H 472.568 -3.82905 3.73213 0
M  V30 4913 H 472.911 -3.63409 2.03075 0
M  V30 4914 H 473.444 -2.38589 3.18308 0
M  V30 4915 H 470.183 -2.1997 6.1749 0
M  V30 4916 H 469.703 -3.39275 4.94624 0
M  V30 4917 H 471.382 -3.34429 5.53865 0
M  V30 4918 N 471.514 -1.37532 -0.769588 0
M  V30 4919 C 472.791 -1.23392 -1.51768 0
M  V30 4920 C 473.171 0.17157 -2.10402 0
M  V30 4921 O 472.519 1.17943 -1.95708 0
M  V30 4922 C 472.729 -2.33163 -2.59685 0
M  V30 4923 C 474.077 -2.70809 -3.27028 0
M  V30 4924 O 475.101 -2.32355 -2.69981 0
M  V30 4925 O 473.96 -3.37066 -4.30173 0
M  V30 4926 H 471.054 -0.481617 -0.67229 0
M  V30 4927 H 473.6 -1.49318 -0.806368 0
M  V30 4928 H 472.372 -3.27273 -2.14494 0
M  V30 4929 H 471.995 -2.08713 -3.38415 0
M  V30 4930 N 472.992 0.995999 -1.22138 0
M  V30 4931 C 473.939 2.08551 -0.988687 0
M  V30 4932 C 474.909 1.65864 0.0885021 0
M  V30 4933 O 476.094 1.90704 -0.0604589 0
M  V30 4934 C 473.234 3.40374 -0.569191 0
M  V30 4935 C 472.347 3.96421 -1.71681 0
M  V30 4936 C 471.482 5.1639 -1.2456 0
M  V30 4937 C 470.521 5.64567 -2.36497 0
M  V30 4938 N 469.658 6.75777 -1.90445 0
M  V30 4939 H 474.498 2.2779 -1.92135 0
M  V30 4940 H 472.035 1.1168 -0.957388 0
M  V30 4941 H 473.993 4.16068 -0.307166 0
M  V30 4942 H 472.623 3.21145 0.326462 0
M  V30 4943 H 471.675 3.17628 -2.09324 0
M  V30 4944 H 472.987 4.2816 -2.55891 0
M  V30 4945 H 472.141 5.99362 -0.940774 0
M  V30 4946 H 470.88 4.86266 -0.373662 0
M  V30 4947 H 469.885 4.80185 -2.67772 0
M  V30 4948 H 471.11 5.96716 -3.24202 0
M  V30 4949 H 469.056 6.47443 -1.05609 0
M  V30 4950 H 468.973 7.06818 -2.68223 0
M  V30 4951 H 470.241 7.62262 -1.63022 0
M  V30 4952 N 474.47 1.03057 1.19235 0
M  V30 4953 C 475.42 0.583386 2.2041 0
M  V30 4954 C 476.404 -0.368776 1.56617 0
M  V30 4955 O 477.596 -0.189471 1.75983 0
M  V30 4956 C 474.725 -0.0626534 3.43243 0
M  V30 4957 C 473.811 0.91205 4.14177 0
M  V30 4958 N 474.202 2.07514 4.61272 0
M  V30 4959 C 472.5 0.735859 4.39888 0
M  V30 4960 C 473.201 2.69003 5.15764 0
M  V30 4961 N 472.177 1.96954 5.06666 0
M  V30 4962 H 475.979 1.46988 2.54503 0
M  V30 4963 H 473.493 0.897785 1.35328 0
M  V30 4964 H 475.49 -0.400653 4.1497 0
M  V30 4965 H 474.15 -0.944813 3.1065 0
M  V30 4966 H 475.161 2.45448 4.56043 0
M  V30 4967 H 471.838 -0.0970656 4.17387 0
M  V30 4968 H 473.228 3.67514 5.6248 0
M  V30 4969 N 475.948 -1.35272 0.808662 0
M  V30 4970 C 476.858 -2.33546 0.222079 0
M  V30 4971 C 477.874 -1.6196 -0.636011 0
M  V30 4972 O 479.05 -1.93822 -0.547274 0
M  V30 4973 C 476.115 -3.41148 -0.61795 0
M  V30 4974 C 475.176 -4.28507 0.260875 0
M  V30 4975 C 474.409 -5.3097 -0.539156 0
M  V30 4976 O 474.632 -5.42123 -1.77367 0
M  V30 4977 O 473.566 -6.01858 0.0710526 0
M  V30 4978 H 477.392 -2.85515 1.03512 0
M  V30 4979 H 474.977 -1.38079 0.570495 0
M  V30 4980 H 476.859 -4.06889 -1.09634 0
M  V30 4981 H 475.534 -2.91447 -1.40855 0
M  V30 4982 H 474.441 -3.6574 0.786451 0
M  V30 4983 H 475.774 -4.81611 1.01547 0
M  V30 4984 N 477.426 -0.562348 -1.47226 0
M  V30 4985 C 478.389 0.172056 -2.28553 0
M  V30 4986 C 479.389 0.837928 -1.37242 0
M  V30 4987 O 480.579 0.693001 -1.59822 0
M  V30 4988 C 477.711 1.25223 -3.17068 0
M  V30 4989 H 478.904 -0.542401 -2.94954 0
M  V30 4990 H 476.457 -0.319493 -1.53 0
M  V30 4991 H 477.192 1.99892 -2.55369 0
M  V30 4992 H 476.977 0.779515 -3.84273 0
M  V30 4993 H 478.467 1.76791 -3.78332 0
M  V30 4994 N 478.904 1.54736 -0.299062 0
M  V30 4995 C 480.15 2.00397 0.311244 0
M  V30 4996 C 480.483 1.18716 1.53688 0
M  V30 4997 O 479.758 0.263154 1.92712 0
M  V30 4998 C 480.041 3.53817 0.669761 0
M  V30 4999 C 479.894 4.46239 -0.564882 0
M  V30 5000 C 481.213 4.13856 1.49702 0
M  V30 5001 H 478.332 0.728493 0.111653 0
M  V30 5002 H 480.974 1.85506 -0.410774 0
M  V30 5003 H 479.124 3.66637 1.28491 0
M  V30 5004 H 480.796 4.45328 -1.20337 0
M  V30 5005 H 479.039 4.16916 -1.19849 0
M  V30 5006 H 479.71 5.5134 -0.269918 0
M  V30 5007 H 482.186 4.04461 0.977284 0
M  V30 5008 H 481.062 5.21365 1.71666 0
M  V30 5009 H 481.323 3.65608 2.48563 0
M  V30 5010 N 480.382 0.0267497 1.57577 0
M  V30 5011 C 481.345 -0.940916 2.08996 0
M  V30 5012 C 482.345 -1.25561 1.00455 0
M  V30 5013 O 483.535 -1.19634 1.26623 0
M  V30 5014 C 480.667 -2.25814 2.55384 0
M  V30 5015 H 481.86 -0.495628 2.95776 0
M  V30 5016 H 479.413 -0.221241 1.54726 0
M  V30 5017 H 480.148 -2.74976 1.71926 0
M  V30 5018 H 479.933 -2.04285 3.34679 0
M  V30 5019 H 481.423 -2.95178 2.95398 0
M  V30 5020 N 481.861 -1.55662 -0.24637 0
M  V30 5021 C 483.091 -1.81312 -0.990438 0
M  V30 5022 C 483.499 -0.600234 -1.79426 0
M  V30 5023 O 482.842 0.440537 -1.78339 0
M  V30 5024 C 482.904 -3.0032 -1.97607 0
M  V30 5025 C 482.568 -4.36322 -1.35912 0
M  V30 5026 C 483.565 -5.14295 -0.761348 0
M  V30 5027 C 481.25 -4.83019 -1.37833 0
M  V30 5028 C 483.244 -6.37114 -0.190998 0
M  V30 5029 C 480.931 -6.05786 -0.804128 0
M  V30 5030 C 481.929 -6.82672 -0.211489 0
M  V30 5031 O 481.617 -8.03121 0.353845 0
M  V30 5032 H 481.349 -0.607233 -0.297058 0
M  V30 5033 H 483.903 -2.0356 -0.274351 0
M  V30 5034 H 482.133 -2.73829 -2.73047 0
M  V30 5035 H 483.822 -3.13057 -2.58361 0
M  V30 5036 H 484.588 -4.79337 -0.739013 0
M  V30 5037 H 480.467 -4.23165 -1.829 0
M  V30 5038 H 484.011 -6.97069 0.272206 0
M  V30 5039 H 479.908 -6.40222 -0.823792 0
M  V30 5040 H 480.676 -8.18131 0.245761 0
M  V30 5041 N 483.339 0.512053 -1.4905 0
M  V30 5042 C 484.269 1.62365 -1.67809 0
M  V30 5043 C 485.25 1.61737 -0.526809 0
M  V30 5044 O 486.435 1.78651 -0.761404 0
M  V30 5045 C 483.565 3.00895 -1.73435 0
M  V30 5046 C 482.519 3.16387 -2.88242 0
M  V30 5047 C 481.845 4.56157 -2.78971 0
M  V30 5048 C 483.145 2.97457 -4.29321 0
M  V30 5049 H 484.839 1.46921 -2.60873 0
M  V30 5050 H 482.385 0.705379 -1.2554 0
M  V30 5051 H 484.338 3.78549 -1.85145 0
M  V30 5052 H 483.062 3.17403 -0.769619 0
M  V30 5053 H 481.721 2.41155 -2.76116 0
M  V30 5054 H 481.369 4.69525 -1.8043 0
M  V30 5055 H 481.069 4.67465 -3.5602 0
M  V30 5056 H 482.593 5.35886 -2.92675 0
M  V30 5057 H 484.007 3.64888 -4.42187 0
M  V30 5058 H 482.404 3.20245 -5.07507 0
M  V30 5059 H 483.474 1.93692 -4.44535 0
M  V30 5060 N 484.817 1.37938 0.762283 0
M  V30 5061 C 486.045 1.36883 1.55147 0
M  V30 5062 C 486.46 -0.0435348 1.8875 0
M  V30 5063 O 485.817 -1.00786 1.52146 0
M  V30 5064 C 485.868 2.21624 2.85596 0
M  V30 5065 O 485.589 3.57358 2.5343 0
M  V30 5066 C 487.09 2.28653 3.7978 0
M  V30 5067 H 484.31 0.468521 0.480343 0
M  V30 5068 H 486.854 1.81404 0.944079 0
M  V30 5069 H 485.009 1.80588 3.42734 0
M  V30 5070 H 485.423 4.01883 3.37032 0
M  V30 5071 H 486.897 2.9225 4.68288 0
M  V30 5072 H 487.374 1.29767 4.19592 0
M  V30 5073 H 487.98 2.70043 3.28568 0
M  V30 5074 N 486.295 -0.989507 1.22664 0
M  V30 5075 C 487.227 -2.0824 0.957542 0
M  V30 5076 C 488.24 -1.6267 -0.0651098 0
M  V30 5077 O 489.429 -1.77695 0.169312 0
M  V30 5078 C 486.529 -3.36298 0.419145 0
M  V30 5079 C 485.702 -4.10882 1.49982 0
M  V30 5080 C 484.761 -5.17221 0.967904 0
M  V30 5081 O 483.787 -5.44613 1.65487 0
M  V30 5082 N 484.989 -5.80124 -0.20896 0
M  V30 5083 H 487.754 -2.31904 1.89843 0
M  V30 5084 H 485.315 -1.15552 1.13399 0
M  V30 5085 H 487.307 -4.04671 0.0485451 0
M  V30 5086 H 485.877 -3.09671 -0.426937 0
M  V30 5087 H 485.097 -3.37092 2.04359 0
M  V30 5088 H 486.385 -4.57482 2.22682 0
M  V30 5089 H 485.783 -5.60244 -0.783818 0
M  V30 5090 H 484.34 -6.49715 -0.520913 0
M  V30 5091 N 487.773 -1.03688 -1.18687 0
M  V30 5092 C 489.02 -0.73803 -1.88572 0
M  V30 5093 C 489.348 0.733973 -1.8012 0
M  V30 5094 O 488.603 1.55098 -1.19344 0
M  V30 5095 C 488.902 -1.14477 -3.3857 0
M  V30 5096 C 488.568 -2.61641 -3.67226 0
M  V30 5097 C 487.23 -3.01846 -3.74757 0
M  V30 5098 C 489.582 -3.56812 -3.79914 0
M  V30 5099 C 486.91 -4.36118 -3.92451 0
M  V30 5100 C 489.262 -4.90799 -3.99123 0
M  V30 5101 C 487.926 -5.3068 -4.04888 0
M  V30 5102 H 487.196 -0.270064 -0.690034 0
M  V30 5103 H 489.843 -1.3012 -1.40503 0
M  V30 5104 H 488.148 -0.500337 -3.88592 0
M  V30 5105 H 489.845 -0.89095 -3.90977 0
M  V30 5106 H 486.435 -2.29498 -3.61979 0
M  V30 5107 H 490.619 -3.26899 -3.73431 0
M  V30 5108 H 485.875 -4.66542 -3.95157 0
M  V30 5109 H 490.049 -5.64451 -4.07882 0
M  V30 5110 H 487.676 -6.34733 -4.18351 0
M  V30 5111 N 489.251 1.34841 -0.815825 0
M  V30 5112 C 490.528 1.92908 -0.323416 0
M  V30 5113 C 490.908 1.74479 1.18828 0
M  V30 5114 O 490.256 1.11928 1.99209 0
M  V30 5115 C 490.466 3.40957 -0.744952 0
M  V30 5116 C 491.814 4.18107 -0.739716 0
M  V30 5117 O 492.838 3.49511 -0.68708 0
M  V30 5118 O 491.697 5.40517 -0.806456 0
M  V30 5119 H 488.791 0.822436 -0.0867646 0
M  V30 5120 H 491.337 1.4386 -0.90014 0
M  V30 5121 H 490.109 3.4814 -1.78646 0
M  V30 5122 H 489.732 3.97341 -0.143535 0
M  V30 5123 N 490.729 0.570148 1.46925 0
M  V30 5124 C 491.978 0.0487352 2.01641 0
M  V30 5125 C 492.291 -1.31433 1.44861 0
M  V30 5126 O 493.497 -1.92638 1.91318 0
M  V30 5127 C 491.953 0.0365817 3.59881 0
M  V30 5128 C 491.561 1.39719 4.25655 0
M  V30 5129 C 493.305 -0.431545 4.22301 0
M  V30 5130 C 491.212 1.34345 5.75939 0
M  V30 5131 H 490.142 0.0144492 0.753862 0
M  V30 5132 H 492.793 0.719928 1.68788 0
M  V30 5133 H 491.175 -0.700522 3.89755 0
M  V30 5134 H 492.349 2.15303 4.07408 0
M  V30 5135 H 490.664 1.80431 3.75278 0
M  V30 5136 H 493.261 -0.490354 5.32447 0
M  V30 5137 H 493.604 -1.44638 3.90366 0
M  V30 5138 H 494.137 0.251102 3.97007 0
M  V30 5139 H 490.876 2.33469 6.12513 0
M  V30 5140 H 490.396 0.629615 5.96486 0
M  V30 5141 H 492.075 1.051 6.38407 0
M  V30 5142 N 492.207 -1.54576 0.307264 0
M  V30 5143 C 493.618 -1.8579 -0.184121 0
M  V30 5144 C 493.969 -1.22914 -1.52927 0
M  V30 5145 O 493.094 -0.529126 -2.09831 0
M  V30 5146 C 493.689 -3.37081 -0.340862 0
M  V30 5147 C 492.248 -3.68304 -0.776465 0
M  V30 5148 C 491.395 -2.77076 0.111503 0
M  V30 5149 H 494.346 -1.49656 0.528078 0
M  V30 5150 H 494.367 -3.61922 -1.17443 0
M  V30 5151 H 493.879 -3.82815 0.638309 0
M  V30 5152 H 491.98 -3.28092 -1.76596 0
M  V30 5153 H 492.093 -4.75434 -0.591512 0
M  V30 5154 H 490.457 -2.51374 -0.410256 0
M  V30 5155 H 491.24 -3.25632 1.08714 0
M  V30 5156 N 493.685 -0.035106 -1.57561 0
M  V30 5157 C 494.925 0.646316 -1.93913 0
M  V30 5158 C 495.289 1.68947 -0.912185 0
M  V30 5159 O 496.49 2.42381 -1.1621 0
M  V30 5160 C 494.761 1.24136 -3.35149 0
M  V30 5161 S 496.32 1.94302 -3.93436 0
M  V30 5162 H 493.138 0.212642 -0.678457 0
M  V30 5163 H 495.74 -0.100203 -1.95243 0
M  V30 5164 H 494.444 0.46979 -4.07702 0
M  V30 5165 H 493.975 2.02505 -3.37276 0
M  V30 5166 H 495.99 3.22205 -3.77357 0
M  V30 5167 N 495.163 1.55791 0.238111 0
M  V30 5168 C 496.126 1.90239 1.27835 0
M  V30 5169 C 497.126 0.779552 1.4064 0
M  V30 5170 O 498.316 1.04747 1.3919 0
M  V30 5171 C 495.448 2.13859 2.65475 0
M  V30 5172 H 496.641 2.83262 0.985034 0
M  V30 5173 H 494.194 1.48818 0.477799 0
M  V30 5174 H 494.929 1.23334 2.99932 0
M  V30 5175 H 494.714 2.95643 2.57561 0
M  V30 5176 H 496.204 2.41664 3.40571 0
M  V30 5177 N 496.642 -0.504142 1.49319 0
M  V30 5178 C 498.053 -1.08572 1.51885 0
M  V30 5179 C 498.404 -1.93842 0.303255 0
M  V30 5180 O 497.529 -2.0828 -0.58724 0
M  V30 5181 C 498.124 -1.97574 2.75227 0
M  V30 5182 C 496.683 -2.509 2.80581 0
M  V30 5183 C 495.83 -1.28447 2.45757 0
M  V30 5184 H 498.781 -0.288194 1.56061 0
M  V30 5185 H 498.802 -2.82219 2.55211 0
M  V30 5186 H 498.314 -1.35486 3.63683 0
M  V30 5187 H 496.415 -3.16636 1.96398 0
M  V30 5188 H 496.528 -2.88268 3.82673 0
M  V30 5189 H 494.892 -1.60868 1.97468 0
M  V30 5190 H 495.675 -0.68072 3.36483 0
M  V30 5191 N 498.12 -1.38341 -0.754957 0
M  V30 5192 C 499.366 -1.34672 -1.51628 0
M  V30 5193 C 499.699 0.0636036 -1.94096 0
M  V30 5194 O 498.974 1.0245 -1.6533 0
M  V30 5195 C 499.257 -2.30116 -2.76981 0
M  V30 5196 C 499.11 -3.80003 -2.4066 0
M  V30 5197 C 500.429 -2.23715 -3.78998 0
M  V30 5198 H 497.548 -0.490517 -0.550056 0
M  V30 5199 H 500.19 -1.69178 -0.864807 0
M  V30 5200 H 498.34 -2.00821 -3.3257 0
M  V30 5201 H 500.012 -4.19966 -1.90856 0
M  V30 5202 H 498.255 -3.97751 -1.73137 0
M  V30 5203 H 498.926 -4.42244 -3.30339 0
M  V30 5204 H 501.402 -2.49574 -3.32945 0
M  V30 5205 H 500.278 -2.9261 -4.64403 0
M  V30 5206 H 500.539 -1.23554 -4.24484 0
M  V30 5207 N 499.598 0.982988 -1.23187 0
M  V30 5208 C 500.528 2.09301 -1.03515 0
M  V30 5209 C 501.509 1.70035 0.0471136 0
M  V30 5210 O 502.694 1.93847 -0.117029 0
M  V30 5211 C 499.824 3.4167 -0.622791 0
M  V30 5212 C 498.778 3.94828 -1.65211 0
M  V30 5213 C 498.104 5.23362 -1.09527 0
M  V30 5214 C 499.404 4.2439 -3.04451 0
M  V30 5215 H 501.098 2.26016 -1.96359 0
M  V30 5216 H 498.644 1.08611 -0.945501 0
M  V30 5217 H 500.597 4.18746 -0.472233 0
M  V30 5218 H 499.321 3.24811 0.341329 0
M  V30 5219 H 497.98 3.19895 -1.79061 0
M  V30 5220 H 497.628 5.02852 -0.122211 0
M  V30 5221 H 497.328 5.59895 -1.783 0
M  V30 5222 H 498.852 6.03062 -0.956511 0
M  V30 5223 H 500.266 4.92225 -2.93917 0
M  V30 5224 H 498.663 4.72118 -3.70438 0
M  V30 5225 H 499.733 3.31765 -3.53638 0
M  V30 5226 N 501.076 1.04316 1.18135 0
M  V30 5227 C 502.301 0.768047 1.92655 0
M  V30 5228 C 502.726 -0.66904 1.758 0
M  V30 5229 O 502.084 -1.46372 1.06981 0
M  V30 5230 C 502.132 1.14239 3.42026 0
M  V30 5231 O 501.236 0.269333 4.1152 0
M  V30 5232 H 500.577 0.282436 0.600937 0
M  V30 5233 H 503.107 1.39367 1.49793 0
M  V30 5234 H 503.117 1.10538 3.92741 0
M  V30 5235 H 501.792 2.18928 3.53615 0
M  V30 5236 H 500.369 0.366175 3.71098 0
M  V30 5237 N 502.554 -1.34406 0.822964 0
M  V30 5238 C 503.487 -2.27407 0.190124 0
M  V30 5239 C 504.465 -1.4889 -0.653486 0
M  V30 5240 O 505.649 -1.78109 -0.617216 0
M  V30 5241 C 502.776 -3.3064 -0.734477 0
M  V30 5242 C 501.822 -4.26488 0.0316099 0
M  V30 5243 S 502.655 -5.17445 1.3788 0
M  V30 5244 C 503.811 -6.24214 0.45907 0
M  V30 5245 H 504.044 -2.80733 0.978586 0
M  V30 5246 H 501.577 -1.41455 0.618866 0
M  V30 5247 H 503.535 -3.90607 -1.26238 0
M  V30 5248 H 502.196 -2.76161 -1.49646 0
M  V30 5249 H 501.389 -4.9951 -0.671285 0
M  V30 5250 H 500.991 -3.70775 0.490066 0
M  V30 5251 H 503.283 -6.76599 -0.349357 0
M  V30 5252 H 504.226 -6.98551 1.15896 0
M  V30 5253 H 504.634 -5.6448 0.0474825 0
M  V30 5254 N 504.032 -0.577932 -1.46621 0
M  V30 5255 C 504.979 0.158048 -2.30258 0
M  V30 5256 C 505.949 0.888669 -1.40328 0
M  V30 5257 O 507.134 0.880283 -1.6928 0
M  V30 5258 C 504.274 1.16884 -3.24703 0
M  V30 5259 C 503.387 0.442163 -4.29731 0
M  V30 5260 C 502.522 1.44007 -5.11308 0
M  V30 5261 C 501.561 0.69952 -6.0809 0
M  V30 5262 N 500.698 1.64525 -6.82551 0
M  V30 5263 H 505.538 -0.561242 -2.92667 0
M  V30 5264 H 503.075 -0.288591 -1.44241 0
M  V30 5265 H 505.033 1.7677 -3.779 0
M  V30 5266 H 503.663 1.85591 -2.64113 0
M  V30 5267 H 502.715 -0.271632 -3.79429 0
M  V30 5268 H 504.027 -0.136992 -4.98612 0
M  V30 5269 H 503.181 2.11186 -5.68758 0
M  V30 5270 H 501.92 2.05315 -4.42377 0
M  V30 5271 H 500.925 0.0139217 -5.49798 0
M  V30 5272 H 502.15 0.091894 -6.79038 0
M  V30 5273 H 500.096 2.24653 -6.16334 0
M  V30 5274 H 500.013 1.11878 -7.47676 0
M  V30 5275 H 501.281 2.30754 -7.44562 0
M  V30 5276 N 505.51 1.54411 -0.315457 0
M  V30 5277 C 506.42 2.27737 0.56329 0
M  V30 5278 C 507.436 1.31787 1.13614 0
M  V30 5279 O 508.612 1.64791 1.15784 0
M  V30 5280 C 505.677 3.01478 1.71207 0
M  V30 5281 C 504.738 4.12997 1.17185 0
M  V30 5282 C 503.971 4.83212 2.26588 0
M  V30 5283 O 504.194 4.52884 3.46775 0
M  V30 5284 O 503.128 5.70299 1.92463 0
M  V30 5285 H 506.954 3.03683 -0.0319614 0
M  V30 5286 H 504.539 1.49178 -0.0814188 0
M  V30 5287 H 506.421 3.47683 2.38106 0
M  V30 5288 H 505.096 2.28414 2.29366 0
M  V30 5289 H 504.003 3.71159 0.468174 0
M  V30 5290 H 505.336 4.8808 0.635501 0
M  V30 5291 N 506.988 0.0434614 1.5754 0
M  V30 5292 C 508.237 -0.631454 1.91561 0
M  V30 5293 C 508.55 -1.72457 0.92292 0
M  V30 5294 O 509.756 -2.45712 1.15489 0
M  V30 5295 C 508.212 -1.17447 3.40197 0
M  V30 5296 C 507.82 -0.113867 4.47855 0
M  V30 5297 C 509.564 -1.82507 3.83264 0
M  V30 5298 C 507.471 -0.669326 5.876 0
M  V30 5299 H 506.401 -0.239629 0.714908 0
M  V30 5300 H 509.052 0.111097 1.83163 0
M  V30 5301 H 507.434 -1.96909 3.43574 0
M  V30 5302 H 508.608 0.659348 4.56058 0
M  V30 5303 H 506.923 0.438821 4.14081 0
M  V30 5304 H 509.52 -2.25047 4.85034 0
M  V30 5305 H 509.863 -2.67365 3.19095 0
M  V30 5306 H 510.396 -1.09712 3.82372 0
M  V30 5307 H 507.135 0.141449 6.55347 0
M  V30 5308 H 506.655 -1.4107 5.82974 0
M  V30 5309 H 508.334 -1.15463 6.36614 0
M  V30 5310 N 508.466 -1.55915 -0.229846 0
M  V30 5311 C 509.691 -1.8296 -0.976743 0
M  V30 5312 C 510.116 -0.622735 -1.77493 0
M  V30 5313 O 509.474 0.428431 -1.76165 0
M  V30 5314 C 509.522 -3.07916 -1.8767 0
M  V30 5315 O 508.626 -2.86028 -2.97088 0
M  V30 5316 H 507.967 -0.603453 -0.277021 0
M  V30 5317 H 510.497 -2.0312 -0.245669 0
M  V30 5318 H 510.507 -3.37802 -2.2881 0
M  V30 5319 H 509.182 -3.95389 -1.28996 0
M  V30 5320 H 507.759 -2.67355 -2.59954 0
M  V30 5321 N 509.944 0.496216 -1.49584 0
M  V30 5322 C 510.874 1.60576 -1.69521 0
M  V30 5323 C 511.855 1.61169 -0.543933 0
M  V30 5324 O 513.04 1.77834 -0.78031 0
M  V30 5325 C 510.17 2.99038 -1.76616 0
M  V30 5326 C 509.124 3.13312 -2.91581 0
M  V30 5327 C 508.45 4.53172 -2.83794 0
M  V30 5328 C 509.75 2.92886 -4.32452 0
M  V30 5329 H 511.444 1.44146 -2.62416 0
M  V30 5330 H 508.99 0.692024 -1.26282 0
M  V30 5331 H 510.943 3.76564 -1.8915 0
M  V30 5332 H 509.667 3.16568 -0.80324 0
M  V30 5333 H 508.326 2.38213 -2.78658 0
M  V30 5334 H 507.974 4.67585 -1.854 0
M  V30 5335 H 507.674 4.63662 -3.60958 0
M  V30 5336 H 509.198 5.32752 -2.98342 0
M  V30 5337 H 510.612 3.60178 -4.46032 0
M  V30 5338 H 509.009 3.14844 -5.10875 0
M  V30 5339 H 510.079 1.88966 -4.46565 0
M  V30 5340 N 511.423 1.38739 0.74761 0
M  V30 5341 C 512.7 1.25791 1.49786 0
M  V30 5342 C 513.08 -0.138075 2.10648 0
M  V30 5343 O 512.428 -1.14815 1.9756 0
M  V30 5344 C 512.638 2.37265 2.55942 0
M  V30 5345 C 513.986 2.75978 3.22679 0
M  V30 5346 O 515.01 2.36621 2.6625 0
M  V30 5347 O 513.869 3.43867 4.24756 0
M  V30 5348 H 510.963 0.492251 0.664543 0
M  V30 5349 H 513.509 1.50582 0.782511 0
M  V30 5350 H 512.281 3.30644 2.0926 0
M  V30 5351 H 511.904 2.14071 3.35051 0
M  V30 5352 N 512.901 -0.976442 1.23707 0
M  V30 5353 C 514.312 -1.53284 1.06587 0
M  V30 5354 C 514.663 -1.92765 -0.365526 0
M  V30 5355 O 513.788 -1.7645 -1.25277 0
M  V30 5356 C 514.383 -2.78548 1.92864 0
M  V30 5357 C 512.942 -3.30574 1.79994 0
M  V30 5358 C 512.089 -2.03538 1.88328 0
M  V30 5359 H 515.04 -0.795692 1.37311 0
M  V30 5360 H 515.061 -3.5155 1.45577 0
M  V30 5361 H 514.573 -2.49782 2.97037 0
M  V30 5362 H 512.674 -3.64211 0.786202 0
M  V30 5363 H 512.787 -4.00065 2.636 0
M  V30 5364 H 511.151 -2.17853 1.31954 0
M  V30 5365 H 511.934 -1.77149 2.94063 0
M  V30 5366 N 514.379 -1.04941 -1.1758 0
M  V30 5367 C 515.604 -0.778253 -1.92245 0
M  V30 5368 C 516.029 0.659707 -1.76152 0
M  V30 5369 O 515.387 1.45803 -1.07755 0
M  V30 5370 C 515.435 -1.16051 -3.41416 0
M  V30 5371 O 514.539 -0.291153 -4.11371 0
M  V30 5372 H 513.88 -0.285619 -0.599431 0
M  V30 5373 H 516.41 -1.40159 -1.49052 0
M  V30 5374 H 516.42 -1.12619 -3.92149 0
M  V30 5375 H 515.095 -2.208 -3.52449 0
M  V30 5376 H 513.672 -0.385851 -3.70898 0
M  V30 5377 N 515.857 1.33968 -0.830081 0
M  V30 5378 C 516.787 2.31911 -0.271911 0
M  V30 5379 C 517.768 1.58571 0.61556 0
M  V30 5380 O 518.953 1.86514 0.540946 0
M  V30 5381 C 516.083 3.42737 0.561146 0
M  V30 5382 C 515.037 4.27383 -0.229789 0
M  V30 5383 C 514.363 5.29742 0.726463 0
M  V30 5384 C 515.663 5.02 -1.44197 0
M  V30 5385 H 517.357 2.78844 -1.09025 0
M  V30 5386 H 514.903 1.34061 -0.52571 0
M  V30 5387 H 516.856 4.10276 0.961867 0
M  V30 5388 H 515.58 2.94471 1.41261 0
M  V30 5389 H 514.239 3.61456 -0.611964 0
M  V30 5390 H 513.887 4.77736 1.57408 0
M  V30 5391 H 513.587 5.87255 0.20142 0
M  V30 5392 H 515.111 6.00149 1.12489 0
M  V30 5393 H 516.525 5.62355 -1.11488 0
M  V30 5394 H 514.922 5.69122 -1.90317 0
M  V30 5395 H 515.992 4.31281 -2.2164 0
M  V30 5396 N 517.335 0.585699 1.46312 0
M  V30 5397 C 518.751 0.247607 1.57668 0
M  V30 5398 C 518.951 -1.25007 1.58037 0
M  V30 5399 O 518.007 -2.03196 1.49893 0
M  V30 5400 C 519.32 0.899456 2.86933 0
M  V30 5401 C 520.868 0.873326 3.00569 0
M  V30 5402 C 521.343 1.50477 4.32574 0
M  V30 5403 N 522.834 1.46925 4.3928 0
M  V30 5404 C 523.569 1.92719 5.40044 0
M  V30 5405 N 523.065 2.46499 6.47464 0
M  V30 5406 N 524.858 1.83617 5.31264 0
M  V30 5407 H 517.009 1.55841 1.44317 0
M  V30 5408 H 519.272 0.651564 0.688599 0
M  V30 5409 H 518.978 1.95313 2.92482 0
M  V30 5410 H 518.852 0.409476 3.74971 0
M  V30 5411 H 521.239 -0.171736 2.946 0
M  V30 5412 H 521.32 1.40136 2.13999 0
M  V30 5413 H 520.964 2.54905 4.39302 0
M  V30 5414 H 520.894 0.951944 5.17924 0
M  V30 5415 H 523.385 1.07616 3.62253 0
M  V30 5416 H 523.698 2.79291 7.20567 0
M  V30 5417 H 522.043 2.50526 6.48276 0
M  V30 5418 H 525.234 1.41358 4.46246 0
M  V30 5419 H 525.407 2.19622 6.09648 0
M  V30 5420 N 518.813 -1.54241 0.323641 0
M  V30 5421 C 519.745 -2.21836 -0.576311 0
M  V30 5422 C 520.758 -1.21837 -1.07979 0
M  V30 5423 O 521.947 -1.48306 -0.99336 0
M  V30 5424 C 519.047 -2.86923 -1.80356 0
M  V30 5425 C 518.22 -4.1306 -1.43875 0
M  V30 5426 C 517.279 -4.6174 -2.52353 0
M  V30 5427 O 516.305 -5.26421 -2.16494 0
M  V30 5428 N 517.507 -4.35974 -3.83284 0
M  V30 5429 H 520.272 -2.997 0.00247987 0
M  V30 5430 H 517.833 -1.61233 0.146848 0
M  V30 5431 H 519.825 -3.16414 -2.52318 0
M  V30 5432 H 518.395 -2.12765 -2.29019 0
M  V30 5433 H 517.615 -3.90334 -0.550752 0
M  V30 5434 H 518.903 -4.95148 -1.17071 0
M  V30 5435 H 518.301 -3.84203 -4.15216 0
M  V30 5436 H 516.858 -4.70119 -4.51477 0
M  V30 5437 N 520.291 -0.0518155 -1.57515 0
M  V30 5438 C 521.516 0.634896 -1.97443 0
M  V30 5439 C 521.941 1.63546 -0.929207 0
M  V30 5440 O 521.299 1.80981 0.107484 0
M  V30 5441 C 521.347 1.29765 -3.36442 0
M  V30 5442 O 520.451 2.41333 -3.34413 0
M  V30 5443 H 519.792 0.164994 -0.643174 0
M  V30 5444 H 522.322 -0.120407 -2.04245 0
M  V30 5445 H 522.332 1.64918 -3.73184 0
M  V30 5446 H 521.007 0.564361 -4.12053 0
M  V30 5447 H 519.584 2.08122 -3.09418 0
M  V30 5448 N 521.769 1.56035 0.221574 0
M  V30 5449 C 523.017 1.78693 0.944102 0
M  V30 5450 C 523.338 0.620317 1.8487 0
M  V30 5451 O 522.608 -0.362784 1.92512 0
M  V30 5452 H 521.188 0.659082 0.351597 0
M  V30 5453 H 523.85 1.93497 0.233435 0
M  V30 5454 H 522.946 2.70837 1.55093 0
M  V30 5455 N 523.247 -0.488276 1.49845 0
M  V30 5456 C 524.472 -1.26997 1.63971 0
M  V30 5457 C 524.897 -1.85427 0.315994 0
M  V30 5458 O 524.255 -1.66475 -0.718032 0
M  V30 5459 C 524.303 -2.36689 2.72049 0
M  V30 5460 O 523.407 -3.40882 2.32107 0
M  V30 5461 H 522.748 -0.374376 0.548396 0
M  V30 5462 H 525.278 -0.583104 1.96115 0
M  V30 5463 H 525.288 -2.82262 2.94605 0
M  V30 5464 H 523.963 -1.93529 3.68129 0
M  V30 5465 H 522.54 -3.01139 2.19931 0
M  V30 5466 N 524.725 -1.39134 -0.740242 0
M  V30 5467 C 525.971 -1.36273 -1.50192 0
M  V30 5468 C 526.304 0.0430136 -1.94152 0
M  V30 5469 O 525.579 1.00691 -1.66408 0
M  V30 5470 C 525.862 -2.33041 -2.74525 0
M  V30 5471 C 525.715 -3.82535 -2.36617 0
M  V30 5472 C 527.034 -2.27723 -3.76604 0
M  V30 5473 H 524.153 -0.496323 -0.544823 0
M  V30 5474 H 526.795 -1.70085 -0.846815 0
M  V30 5475 H 524.945 -2.04337 -3.30422 0
M  V30 5476 H 526.617 -4.21967 -1.86391 0
M  V30 5477 H 524.86 -3.99565 -1.68909 0
M  V30 5478 H 525.531 -4.45723 -3.2563 0
M  V30 5479 H 528.007 -2.53091 -3.30279 0
M  V30 5480 H 526.883 -2.97519 -4.61274 0
M  V30 5481 H 527.144 -1.28049 -4.2315 0
M  V30 5482 N 526.204 0.969867 -1.24223 0
M  V30 5483 C 527.45 1.7151 -1.08223 0
M  V30 5484 C 527.783 1.90478 0.37838 0
M  V30 5485 O 527.058 1.4647 1.27971 0
M  V30 5486 C 527.341 3.10714 -1.82013 0
M  V30 5487 C 527.194 2.9925 -3.35811 0
M  V30 5488 C 528.513 4.10332 -1.59108 0
M  V30 5489 H 525.632 0.622499 -0.394543 0
M  V30 5490 H 528.274 1.1284 -1.52863 0
M  V30 5491 H 526.424 3.608 -1.44068 0
M  V30 5492 H 528.096 2.56608 -3.83341 0
M  V30 5493 H 526.339 2.35512 -3.64303 0
M  V30 5494 H 527.01 3.97857 -3.82641 0
M  V30 5495 H 529.486 3.69097 -1.92111 0
M  V30 5496 H 528.362 5.05804 -2.13198 0
M  V30 5497 H 528.623 4.38926 -0.528832 0
M  V30 5498 N 527.682 1.05563 1.17022 0
M  V30 5499 C 528.592 0.670758 2.24807 0
M  V30 5500 C 529.608 -0.309865 1.71219 0
M  V30 5501 O 530.784 -0.161025 2.00755 0
M  V30 5502 C 527.849 0.055337 3.46656 0
M  V30 5503 C 526.91 1.08688 4.15314 0
M  V30 5504 C 526.143 0.500736 5.31346 0
M  V30 5505 O 526.366 -0.688718 5.66227 0
M  V30 5506 O 525.3 1.23683 5.89055 0
M  V30 5507 H 529.126 1.56914 2.60023 0
M  V30 5508 H 526.711 0.827428 1.24395 0
M  V30 5509 H 528.593 -0.286492 4.20425 0
M  V30 5510 H 527.268 -0.816638 3.13229 0
M  V30 5511 H 526.175 1.48077 3.43546 0
M  V30 5512 H 527.508 1.93014 4.52777 0
M  V30 5513 N 529.16 -1.33526 0.837174 0
M  V30 5514 C 530.406 -1.9813 0.432704 0
M  V30 5515 C 530.739 -1.66168 -1.00508 0
M  V30 5516 O 530.014 -0.94069 -1.70239 0
M  V30 5517 C 530.297 -3.54151 0.651834 0
M  V30 5518 C 530.15 -3.95806 2.13676 0
M  V30 5519 C 531.469 -4.39993 0.0968937 0
M  V30 5520 H 528.588 -0.719713 0.15869 0
M  V30 5521 H 531.23 -1.58193 1.05237 0
M  V30 5522 H 529.38 -3.88301 0.124369 0
M  V30 5523 H 531.052 -3.71921 2.72896 0
M  V30 5524 H 529.295 -3.45599 2.62191 0
M  V30 5525 H 529.966 -5.0447 2.24084 0
M  V30 5526 H 532.442 -4.12479 0.547733 0
M  V30 5527 H 531.318 -5.48186 0.279917 0
M  V30 5528 H 531.579 -4.3066 -0.9992 0
M  V30 5529 N 530.638 -0.59345 -1.46 0
M  V30 5530 C 531.548 0.135817 -2.34207 0
M  V30 5531 C 532.564 0.875008 -1.50398 0
M  V30 5532 O 533.74 0.835778 -1.83239 0
M  V30 5533 C 530.805 1.12977 -3.27776 0
M  V30 5534 C 529.866 0.394081 -4.27487 0
M  V30 5535 C 529.099 1.34068 -5.16586 0
M  V30 5536 O 529.322 2.5778 -5.08828 0
M  V30 5537 O 528.256 0.845426 -5.95933 0
M  V30 5538 H 532.082 -0.588691 -2.9794 0
M  V30 5539 H 529.667 -0.353784 -1.45151 0
M  V30 5540 H 531.549 1.70261 -3.85473 0
M  V30 5541 H 530.224 1.83556 -2.66625 0
M  V30 5542 H 529.131 -0.220869 -3.73447 0
M  V30 5543 H 530.464 -0.270939 -4.91454 0
M  V30 5544 N 532.116 1.54067 -0.331816 0
M  V30 5545 C 533.048 2.22139 0.564538 0
M  V30 5546 C 534.061 1.22408 1.07332 0
M  V30 5547 O 535.25 1.4883 0.985481 0
M  V30 5548 C 532.35 2.87876 1.78831 0
M  V30 5549 C 531.523 4.13817 1.41682 0
M  V30 5550 C 530.582 4.63072 2.49901 0
M  V30 5551 O 529.608 5.27562 2.13699 0
M  V30 5552 N 530.81 4.38001 3.80967 0
M  V30 5553 H 533.575 2.99694 -0.0183736 0
M  V30 5554 H 531.136 1.61153 -0.155396 0
M  V30 5555 H 533.128 3.17747 2.50637 0
M  V30 5556 H 531.698 2.13977 2.27887 0
M  V30 5557 H 530.918 3.9062 0.530044 0
M  V30 5558 H 532.206 4.95762 1.14443 0
M  V30 5559 H 531.604 3.864 4.13173 0
M  V30 5560 H 530.161 4.72507 4.48977 0
M  V30 5561 N 533.594 0.0601682 1.57485 0
M  V30 5562 C 535.005 -0.474217 1.80577 0
M  V30 5563 C 535.356 -1.70365 0.973147 0
M  V30 5564 O 534.481 -2.15544 0.192306 0
M  V30 5565 C 535.076 -0.867102 3.27516 0
M  V30 5566 C 533.635 -1.34642 3.51495 0
M  V30 5567 C 532.782 -0.32594 2.75378 0
M  V30 5568 H 535.733 0.285973 1.56102 0
M  V30 5569 H 535.754 -1.72938 3.38929 0
M  V30 5570 H 535.266 0.0278927 3.8809 0
M  V30 5571 H 533.367 -2.2603 2.96212 0
M  V30 5572 H 533.48 -1.33237 4.60201 0
M  V30 5573 H 531.844 -0.800749 2.41785 0
M  V30 5574 H 532.627 0.561125 3.38683 0
M  V30 5575 N 535.072 -1.5615 -0.213296 0
M  V30 5576 C 536.002 -1.96109 -1.26742 0
M  V30 5577 C 536.983 -0.830448 -1.48451 0
M  V30 5578 O 538.168 -1.09339 -1.60495 0
M  V30 5579 C 535.298 -2.28492 -2.61551 0
M  V30 5580 C 534.252 -3.44124 -2.54485 0
M  V30 5581 C 533.578 -3.62134 -3.93399 0
M  V30 5582 C 534.878 -4.78855 -2.08556 0
M  V30 5583 H 536.572 -2.84412 -0.935434 0
M  V30 5584 H 534.118 -1.36836 -0.44854 0
M  V30 5585 H 536.071 -2.55039 -3.3546 0
M  V30 5586 H 534.795 -1.37052 -2.96453 0
M  V30 5587 H 533.454 -3.17639 -1.83033 0
M  V30 5588 H 533.102 -2.68055 -4.25623 0
M  V30 5589 H 532.802 -4.39913 -3.89551 0
M  V30 5590 H 534.326 -3.91038 -4.68958 0
M  V30 5591 H 535.74 -5.04552 -2.72213 0
M  V30 5592 H 534.137 -5.59975 -2.1575 0
M  V30 5593 H 535.207 -4.73657 -1.03811 0
M  V30 5594 N 536.55 0.480323 -1.50102 0
M  V30 5595 C 537.966 0.813295 -1.37323 0
M  V30 5596 C 538.166 1.97027 -0.422206 0
M  V30 5597 O 537.222 2.5212 0.138563 0
M  V30 5598 C 538.535 1.13404 -2.78496 0
M  V30 5599 C 540.083 1.24104 -2.87345 0
M  V30 5600 C 540.558 1.59497 -4.29331 0
M  V30 5601 N 542.049 1.66507 -4.32238 0
M  V30 5602 C 542.784 1.95378 -5.39087 0
M  V30 5603 N 542.28 2.22333 -6.56155 0
M  V30 5604 N 544.073 1.96803 -5.26522 0
M  V30 5605 H 536.224 -0.282291 -2.10516 0
M  V30 5606 H 538.487 -0.063752 -0.945854 0
M  V30 5607 H 538.193 0.357064 -3.49883 0
M  V30 5608 H 538.067 2.07251 -3.15162 0
M  V30 5609 H 540.454 2.00871 -2.16183 0
M  V30 5610 H 540.535 0.282593 -2.54234 0
M  V30 5611 H 540.179 0.832736 -5.01027 0
M  V30 5612 H 540.109 2.56477 -4.59921 0
M  V30 5613 H 542.6 1.47753 -3.47818 0
M  V30 5614 H 542.913 2.43611 -7.33399 0
M  V30 5615 H 541.258 2.19745 -6.59346 0
M  V30 5616 H 544.449 1.75235 -4.34062 0
M  V30 5617 H 544.622 2.18969 -6.09883 0
M  V30 5618 N 538.028 1.39524 0.732853 0
M  V30 5619 C 539.276 1.36594 1.48951 0
M  V30 5620 C 539.597 -0.0367507 1.94965 0
M  V30 5621 O 538.867 -0.988391 1.69138 0
M  V30 5622 H 537.447 0.502673 0.552566 0
M  V30 5623 H 540.109 1.74411 0.869869 0
M  V30 5624 H 539.205 2.03 2.3706 0
M  V30 5625 N 539.506 -0.963266 1.24736 0
M  V30 5626 C 540.453 -2.05857 1.04363 0
M  V30 5627 C 541.423 -1.6604 -0.0444951 0
M  V30 5628 O 542.608 -1.90477 0.110999 0
M  V30 5629 C 539.748 -3.38745 0.659235 0
M  V30 5630 C 538.861 -3.9173 1.82131 0
M  V30 5631 C 537.996 -5.12906 1.38208 0
M  V30 5632 C 537.035 -5.58098 2.51382 0
M  V30 5633 N 536.172 -6.7049 2.08295 0
M  V30 5634 H 541.012 -2.22616 1.98107 0
M  V30 5635 H 538.549 -1.09103 0.986661 0
M  V30 5636 H 540.507 -4.15107 0.417371 0
M  V30 5637 H 539.137 -3.21898 -0.241201 0
M  V30 5638 H 538.189 -3.11966 2.17672 0
M  V30 5639 H 539.501 -4.21225 2.67153 0
M  V30 5640 H 538.655 -5.96657 1.09935 0
M  V30 5641 H 537.394 -4.85105 0.502456 0
M  V30 5642 H 536.399 -4.72917 2.80409 0
M  V30 5643 H 537.624 -5.87911 3.39909 0
M  V30 5644 H 535.57 -6.44416 1.22737 0
M  V30 5645 H 535.487 -6.99458 2.86869 0
M  V30 5646 H 536.755 -7.57672 1.83175 0
M  V30 5647 N 540.985 -1.06182 -1.16461 0
M  V30 5648 C 542.215 -0.797425 -1.9059 0
M  V30 5649 C 542.623 0.651845 -1.77616 0
M  V30 5650 O 541.966 1.45788 -1.11766 0
M  V30 5651 C 542.028 -1.11128 -3.41893 0
M  V30 5652 C 541.692 -2.55874 -3.78652 0
M  V30 5653 C 542.689 -3.54104 -3.80665 0
M  V30 5654 C 540.374 -2.91144 -4.09317 0
M  V30 5655 C 542.368 -4.85645 -4.12829 0
M  V30 5656 C 540.055 -4.22885 -4.41148 0
M  V30 5657 C 541.053 -5.19945 -4.42883 0
M  V30 5658 O 540.741 -6.49322 -4.73959 0
M  V30 5659 H 540.473 -0.288709 -0.611247 0
M  V30 5660 H 543.027 -1.41841 -1.4856 0
M  V30 5661 H 541.257 -0.433217 -3.84266 0
M  V30 5662 H 542.946 -0.831306 -3.97296 0
M  V30 5663 H 543.712 -3.28197 -3.57088 0
M  V30 5664 H 539.591 -2.16252 -4.07131 0
M  V30 5665 H 543.135 -5.61398 -4.14099 0
M  V30 5666 H 539.032 -4.48551 -4.6419 0
M  V30 5667 H 539.8 -6.54294 -4.91774 0
M  V30 5668 N 542.463 1.3308 -0.844243 0
M  V30 5669 C 543.393 2.3161 -0.296493 0
M  V30 5670 C 544.374 1.59215 0.598707 0
M  V30 5671 O 545.559 1.87077 0.521134 0
M  V30 5672 C 542.689 3.43313 0.524762 0
M  V30 5673 C 541.643 4.27115 -0.275106 0
M  V30 5674 C 540.969 5.30483 0.670236 0
M  V30 5675 C 542.269 5.00443 -1.49514 0
M  V30 5676 H 543.963 2.77672 -1.11976 0
M  V30 5677 H 541.509 1.33496 -0.539899 0
M  V30 5678 H 543.462 4.11273 0.918298 0
M  V30 5679 H 542.186 2.95952 1.3813 0
M  V30 5680 H 540.845 3.60787 -0.650267 0
M  V30 5681 H 540.493 4.79379 1.52332 0
M  V30 5682 H 540.193 5.87435 0.139123 0
M  V30 5683 H 541.717 6.01308 1.06117 0
M  V30 5684 H 543.131 5.61141 -1.17447 0
M  V30 5685 H 541.528 5.67071 -1.96343 0
M  V30 5686 H 542.598 4.28906 -2.26202 0
M  V30 5687 N 543.941 0.601185 1.45683 0
M  V30 5688 C 545.169 0.100054 2.06658 0
M  V30 5689 C 545.584 -1.21285 1.44691 0
M  V30 5690 O 544.941 -1.73735 0.558772 0
M  V30 5691 C 544.992 -0.0528579 3.61461 0
M  V30 5692 O 544.713 1.20809 4.21114 0
M  V30 5693 C 546.214 -0.586193 4.39407 0
M  V30 5694 H 543.434 0.065905 0.667756 0
M  V30 5695 H 545.978 0.827101 1.87028 0
M  V30 5696 H 544.133 -0.730203 3.80456 0
M  V30 5697 H 544.547 1.03368 5.14213 0
M  V30 5698 H 546.021 -0.642297 5.4825 0
M  V30 5699 H 546.498 -1.60713 4.0874 0
M  V30 5700 H 547.104 0.0568935 4.25262 0
M  V30 5701 N 545.419 -1.53889 0.339982 0
M  V30 5702 C 546.665 -2.01152 -0.258003 0
M  V30 5703 C 546.998 -1.22749 -1.50487 0
M  V30 5704 O 546.273 -0.314156 -1.91946 0
M  V30 5705 C 546.556 -3.55468 -0.575717 0
M  V30 5706 C 546.409 -4.44584 0.682996 0
M  V30 5707 C 547.728 -4.1768 -1.38677 0
M  V30 5708 H 544.847 -0.731198 -0.0922992 0
M  V30 5709 H 547.489 -1.84352 0.459814 0
M  V30 5710 H 545.639 -3.69914 -1.18725 0
M  V30 5711 H 547.311 -4.41981 1.32102 0
M  V30 5712 H 545.554 -4.13592 1.3086 0
M  V30 5713 H 546.225 -5.5043 0.416001 0
M  V30 5714 H 548.701 -4.0691 -0.869705 0
M  V30 5715 H 547.577 -5.25734 -1.57783 0
M  V30 5716 H 547.838 -3.72069 -2.38782 0
M  V30 5717 N 546.897 -0.0685191 -1.57451 0
M  V30 5718 C 548.145 0.60016 -1.92983 0
M  V30 5719 C 548.466 1.70348 -0.949028 0
M  V30 5720 O 547.736 1.959 0.00335647 0
M  V30 5721 H 546.316 0.224682 -0.712409 0
M  V30 5722 H 548.978 -0.125605 -1.94495 0
M  V30 5723 H 548.074 1.02759 -2.94698 0
M  V30 5724 N 548.375 1.56261 0.205012 0
M  V30 5725 C 549.615 1.81823 0.933806 0
M  V30 5726 C 549.979 0.644534 1.80858 0
M  V30 5727 O 551.18 0.779819 2.5724 0
M  V30 5728 C 549.451 3.12362 1.7368 0
M  V30 5729 S 551.01 3.59296 2.51897 0
M  V30 5730 H 547.828 0.638209 0.313386 0
M  V30 5731 H 550.43 1.94495 0.198001 0
M  V30 5732 H 549.134 3.95809 1.08459 0
M  V30 5733 H 548.665 3.02542 2.5146 0
M  V30 5734 H 550.68 3.23945 3.75864 0
M  V30 5735 N 549.853 -0.472356 1.50355 0
M  V30 5736 C 551.264 -1.05326 1.54154 0
M  V30 5737 C 551.615 -1.93155 0.344303 0
M  V30 5738 O 550.74 -2.09479 -0.542928 0
M  V30 5739 C 551.335 -1.91691 2.79356 0
M  V30 5740 C 549.894 -2.44892 2.8584 0
M  V30 5741 C 549.041 -1.23205 2.48426 0
M  V30 5742 H 551.992 -0.255027 1.56637 0
M  V30 5743 H 552.013 -2.76742 2.6114 0
M  V30 5744 H 551.525 -1.27741 3.66475 0
M  V30 5745 H 549.626 -3.12399 2.0307 0
M  V30 5746 H 549.739 -2.80086 3.88701 0
M  V30 5747 H 548.103 -1.56643 2.00836 0
M  V30 5748 H 548.886 -0.609194 3.37852 0
M  V30 5749 N 551.331 -1.39911 -0.725443 0
M  V30 5750 C 552.264 -1.33788 -1.84867 0
M  V30 5751 C 553.242 -0.209907 -1.61239 0
M  V30 5752 O 554.426 -0.391943 -1.8438 0
M  V30 5753 C 551.553 -1.07975 -3.21028 0
M  V30 5754 C 550.599 -2.23092 -3.635 0
M  V30 5755 S 551.432 -3.85431 -3.71757 0
M  V30 5756 C 552.588 -3.61862 -5.10692 0
M  V30 5757 H 552.821 -2.28848 -1.89779 0
M  V30 5758 H 550.354 -1.26079 -0.891254 0
M  V30 5759 H 552.312 -0.937669 -3.99647 0
M  V30 5760 H 550.973 -0.145865 -3.13761 0
M  V30 5761 H 550.166 -2.00647 -4.62338 0
M  V30 5762 H 549.768 -2.33553 -2.92112 0
M  V30 5763 H 552.06 -3.19719 -5.97316 0
M  V30 5764 H 553.003 -4.60196 -5.38169 0
M  V30 5765 H 553.411 -2.95757 -4.8082 0
M  V30 5766 N 552.809 0.956637 -1.25245 0
M  V30 5767 C 553.756 2.053 -1.05454 0
M  V30 5768 C 554.726 1.66062 0.0356889 0
M  V30 5769 O 555.911 1.90415 -0.121099 0
M  V30 5770 C 553.051 3.38391 -0.677191 0
M  V30 5771 C 552.164 3.90758 -1.84206 0
M  V30 5772 C 551.299 5.12165 -1.40926 0
M  V30 5773 C 550.338 5.56757 -2.54338 0
M  V30 5774 N 549.475 6.69376 -2.11848 0
M  V30 5775 H 554.315 2.21562 -1.99284 0
M  V30 5776 H 551.852 1.08578 -0.992434 0
M  V30 5777 H 553.81 4.1488 -0.43938 0
M  V30 5778 H 552.44 3.22021 0.224127 0
M  V30 5779 H 551.492 3.10808 -2.19323 0
M  V30 5780 H 552.804 4.19802 -2.69383 0
M  V30 5781 H 551.958 5.96065 -1.13098 0
M  V30 5782 H 550.697 4.84832 -0.528175 0
M  V30 5783 H 549.702 4.71423 -2.82913 0
M  V30 5784 H 550.927 5.861 -3.43022 0
M  V30 5785 H 548.873 6.43756 -1.26153 0
M  V30 5786 H 548.79 6.97927 -2.90574 0
M  V30 5787 H 550.058 7.5669 -1.87191 0
M  V30 5788 N 554.287 1.06798 1.15896 0
M  V30 5789 C 555.534 0.787767 1.86549 0
M  V30 5790 C 555.862 -0.685959 1.82002 0
M  V30 5791 O 555.117 -1.5188 1.23414 0
M  V30 5792 C 555.416 1.23414 3.35416 0
M  V30 5793 C 555.082 2.71285 3.6016 0
M  V30 5794 C 553.744 3.11676 3.66622 0
M  V30 5795 C 556.096 3.6676 3.7032 0
M  V30 5796 C 553.424 4.4637 3.8075 0
M  V30 5797 C 555.776 5.01209 3.8597 0
M  V30 5798 C 554.44 5.41229 3.90676 0
M  V30 5799 H 553.71 0.288264 0.682631 0
M  V30 5800 H 556.357 1.338 1.37003 0
M  V30 5801 H 554.662 0.60319 3.87129 0
M  V30 5802 H 556.359 0.994298 3.88477 0
M  V30 5803 H 552.949 2.39015 3.55767 0
M  V30 5804 H 557.133 3.36685 3.64633 0
M  V30 5805 H 552.389 4.76855 3.82648 0
M  V30 5806 H 556.563 5.75067 3.92773 0
M  V30 5807 H 554.19 6.45602 4.01375 0
M  V30 5808 N 555.766 -1.3263 0.851289 0
M  V30 5809 C 556.991 -2.02097 0.466006 0
M  V30 5810 C 557.416 -1.63574 -0.928709 0
M  V30 5811 O 556.774 -0.834665 -1.60944 0
M  V30 5812 C 556.822 -3.55425 0.608737 0
M  V30 5813 O 555.926 -4.10827 -0.359878 0
M  V30 5814 H 555.267 -0.636911 0.187724 0
M  V30 5815 H 557.797 -1.69253 1.14955 0
M  V30 5816 H 557.807 -4.04986 0.495006 0
M  V30 5817 H 556.482 -3.82806 1.62581 0
M  V30 5818 H 555.059 -3.72349 -0.202666 0
M  V30 5819 N 557.244 -0.608902 -1.45362 0
M  V30 5820 C 558.207 0.0992563 -2.28985 0
M  V30 5821 C 559.207 0.793841 -1.39838 0
M  V30 5822 O 560.397 0.641804 -1.61946 0
M  V30 5823 C 557.529 1.15073 -3.20891 0
M  V30 5824 H 558.722 -0.635964 -2.93079 0
M  V30 5825 H 556.275 -0.368007 -1.51906 0
M  V30 5826 H 557.01 1.91667 -2.616 0
M  V30 5827 H 556.795 0.656867 -3.86559 0
M  V30 5828 H 558.285 1.64665 -3.83765 0
M  V30 5829 N 558.722 1.53707 -0.348139 0
M  V30 5830 C 559.969 2.00988 0.246966 0
M  V30 5831 C 560.297 1.23586 1.50189 0
M  V30 5832 O 559.552 0.312817 1.93184 0
M  V30 5833 C 559.851 3.52292 0.602061 0
M  V30 5834 C 559.517 4.47453 -0.556509 0
M  V30 5835 C 558.179 4.73188 -0.874446 0
M  V30 5836 C 560.531 5.03851 -1.33354 0
M  V30 5837 C 557.859 5.52577 -1.9717 0
M  V30 5838 C 560.211 5.84437 -2.42108 0
M  V30 5839 C 558.875 6.08465 -2.74456 0
M  V30 5840 H 558.145 0.735469 0.0903712 0
M  V30 5841 H 560.792 1.85464 -0.477001 0
M  V30 5842 H 559.097 3.65672 1.40681 0
M  V30 5843 H 560.794 3.86337 1.07447 0
M  V30 5844 H 557.384 4.27558 -0.298652 0
M  V30 5845 H 561.568 4.8393 -1.10117 0
M  V30 5846 H 556.824 5.69418 -2.22651 0
M  V30 5847 H 560.998 6.27151 -3.02745 0
M  V30 5848 H 558.625 6.69768 -3.59604 0
M  V30 5849 N 560.2 0.0768682 1.57412 0
M  V30 5850 C 561.428 -0.59997 1.9801 0
M  V30 5851 C 561.843 -1.62842 0.955408 0
M  V30 5852 O 561.2 -1.8241 -0.057314 0
M  V30 5853 C 561.251 -1.26401 3.38681 0
M  V30 5854 O 560.972 -0.276723 4.37225 0
M  V30 5855 C 562.473 -2.0282 3.94182 0
M  V30 5856 H 559.693 -0.162239 0.651091 0
M  V30 5857 H 562.237 0.150771 2.03943 0
M  V30 5858 H 560.392 -1.96581 3.33819 0
M  V30 5859 H 560.806 -0.753744 5.19056 0
M  V30 5860 H 562.28 -2.44667 4.94815 0
M  V30 5861 H 562.757 -2.88678 3.31001 0
M  V30 5862 H 563.363 -1.37496 4.02461 0
M  V30 5863 N 561.678 -1.56367 -0.196722 0
M  V30 5864 C 563.089 -1.70462 -0.761545 0
M  V30 5865 C 563.44 -0.683161 -1.83922 0
M  V30 5866 O 562.565 0.160753 -2.15802 0
M  V30 5867 C 563.16 -3.09057 -1.38814 0
M  V30 5868 C 561.719 -3.24922 -1.90007 0
M  V30 5869 C 560.866 -2.66412 -0.769399 0
M  V30 5870 H 563.817 -1.58675 0.0283263 0
M  V30 5871 H 563.838 -3.06296 -2.2575 0
M  V30 5872 H 563.35 -3.83378 -0.603559 0
M  V30 5873 H 561.451 -2.55514 -2.71189 0
M  V30 5874 H 561.564 -4.3241 -2.06297 0
M  V30 5875 H 559.928 -2.25546 -1.18326 0
M  V30 5876 H 560.711 -3.433 0.00291773 0
M  V30 5877 N 563.156 0.464375 -1.50603 0
M  V30 5878 C 564.433 1.22549 -1.5245 0
M  V30 5879 C 564.813 2.09327 -0.273035 0
M  V30 5880 O 564.161 2.16074 0.743242 0
M  V30 5881 C 564.371 2.05074 -2.82393 0
M  V30 5882 C 565.719 2.63036 -3.33313 0
M  V30 5883 O 566.743 2.1531 -2.8376 0
M  V30 5884 O 565.602 3.5001 -4.19709 0
M  V30 5885 H 562.696 0.556471 -0.611775 0
M  V30 5886 H 565.242 0.475648 -1.62898 0
M  V30 5887 H 564.014 1.41169 -3.64948 0
M  V30 5888 H 563.637 2.87179 -2.7498 0
M  V30 5889 N 564.634 1.40294 0.718013 0
M  V30 5890 C 565.883 1.37746 1.4734 0
M  V30 5891 C 566.196 -0.0180754 1.95592 0
M  V30 5892 O 567.402 -0.166166 2.70991 0
M  V30 5893 C 565.858 2.4208 2.66318 0
M  V30 5894 C 565.466 3.87432 2.24945 0
M  V30 5895 C 567.21 2.48635 3.44065 0
M  V30 5896 C 565.117 4.83368 3.40748 0
M  V30 5897 H 564.047 0.512165 0.553356 0
M  V30 5898 H 566.698 1.66019 0.781661 0
M  V30 5899 H 565.08 2.06903 3.3765 0
M  V30 5900 H 566.254 4.3174 1.6105 0
M  V30 5901 H 564.569 3.8433 1.60249 0
M  V30 5902 H 567.166 3.17499 4.30231 0
M  V30 5903 H 567.509 1.51611 3.87711 0
M  V30 5904 H 568.042 2.82791 2.79775 0
M  V30 5905 H 564.781 5.81716 3.02136 0
M  V30 5906 H 564.301 4.43726 4.03568 0
M  V30 5907 H 565.98 5.03074 4.06848 0
M  V30 5908 N 566.112 -0.949982 1.2575 0
M  V30 5909 C 567.059 -2.04738 1.06541 0
M  V30 5910 C 568.029 -1.66078 -0.0268818 0
M  V30 5911 O 569.214 -1.90348 0.131196 0
M  V30 5912 C 566.354 -3.38027 0.695127 0
M  V30 5913 C 565.467 -3.89776 1.86276 0
M  V30 5914 C 564.602 -5.11411 1.4364 0
M  V30 5915 C 563.641 -5.554 2.57287 0
M  V30 5916 N 562.778 -6.68244 2.15395 0
M  V30 5917 H 567.618 -2.20502 2.00457 0
M  V30 5918 H 565.155 -1.0805 0.998178 0
M  V30 5919 H 567.113 -4.14641 0.461375 0
M  V30 5920 H 565.743 -3.22135 -0.207046 0
M  V30 5921 H 564.795 -3.0964 2.20969 0
M  V30 5922 H 566.107 -4.18368 2.71606 0
M  V30 5923 H 565.261 -5.95457 1.16257 0
M  V30 5924 H 564 -4.84545 0.553879 0
M  V30 5925 H 563.005 -4.69916 2.85409 0
M  V30 5926 H 564.23 -5.84272 3.46125 0
M  V30 5927 H 562.176 -6.43078 1.29565 0
M  V30 5928 H 562.093 -6.96377 2.94272 0
M  V30 5929 H 563.361 -7.55687 1.91201 0
M  V30 5930 N 567.59 -1.07411 -1.15328 0
M  V30 5931 C 568.553 -0.698914 -2.18284 0
M  V30 5932 C 569.553 0.261149 -1.58665 0
M  V30 5933 O 570.743 0.0420277 -1.74149 0
M  V30 5934 C 567.875 -0.0302427 -3.40887 0
M  V30 5935 H 569.068 -1.61045 -2.52991 0
M  V30 5936 H 566.621 -0.870724 -1.298 0
M  V30 5937 H 567.356 0.893505 -3.11748 0
M  V30 5938 H 567.141 -0.720759 -3.85419 0
M  V30 5939 H 568.631 0.21759 -4.17033 0
M  V30 5940 N 569.068 1.32177 -0.85831 0
M  V30 5941 C 570.031 2.27086 -0.310588 0
M  V30 5942 C 571.031 1.51751 0.531806 0
M  V30 5943 O 572.221 1.70794 0.34279 0
M  V30 5944 C 569.353 3.36266 0.560179 0
M  V30 5945 H 570.546 2.77045 -1.1483 0
M  V30 5946 H 568.099 1.42911 -0.632942 0
M  V30 5947 H 568.834 2.9158 1.41956 0
M  V30 5948 H 568.619 3.92077 -0.0428473 0
M  V30 5949 H 570.109 4.06974 0.936056 0
M  V30 5950 N 570.547 0.616602 1.45037 0
M  V30 5951 C 571.958 0.199359 1.85633 0
M  V30 5952 C 572.309 -1.24588 1.51566 0
M  V30 5953 O 571.434 -1.94594 0.94668 0
M  V30 5954 C 572.029 0.355033 3.36935 0
M  V30 5955 C 570.588 -0.00758748 3.76399 0
M  V30 5956 C 569.735 0.675256 2.68953 0
M  V30 5957 H 572.686 0.822708 1.3571 0
M  V30 5958 H 572.707 -0.410201 3.78282 0
M  V30 5959 H 572.219 1.40699 3.61698 0
M  V30 5960 H 570.32 -1.05837 3.57252 0
M  V30 5961 H 570.433 0.392346 4.77491 0
M  V30 5962 H 568.797 0.111992 2.54454 0
M  V30 5963 H 569.58 1.72952 2.96551 0
M  V30 5964 N 572.025 -1.5352 0.356285 0
M  V30 5965 C 572.955 -2.28372 -0.486661 0
M  V30 5966 C 573.936 -1.30432 -1.09185 0
M  V30 5967 O 575.121 -1.59291 -1.11085 0
M  V30 5968 C 572.251 -3.06604 -1.63129 0
M  V30 5969 C 571.205 -4.12154 -1.15381 0
M  V30 5970 C 570.531 -4.78415 -2.38796 0
M  V30 5971 C 571.831 -5.21724 -0.245179 0
M  V30 5972 H 573.525 -2.99083 0.137797 0
M  V30 5973 H 571.071 -1.43841 0.0677134 0
M  V30 5974 H 573.024 -3.57712 -2.22755 0
M  V30 5975 H 571.748 -2.33568 -2.28284 0
M  V30 5976 H 570.407 -3.61978 -0.580294 0
M  V30 5977 H 570.055 -4.01959 -3.02387 0
M  V30 5978 H 569.755 -5.49734 -2.07524 0
M  V30 5979 H 571.279 -5.32313 -2.99125 0
M  V30 5980 H 572.693 -5.68391 -0.748646 0
M  V30 5981 H 571.09 -6.00095 -0.0237608 0
M  V30 5982 H 572.16 -4.79596 0.715229 0
M  V30 5983 N 573.503 -0.0852151 -1.57369 0
M  V30 5984 C 574.433 0.874556 -2.16503 0
M  V30 5985 C 575.414 1.30111 -1.09568 0
M  V30 5986 O 576.599 1.36977 -1.37662 0
M  V30 5987 C 573.729 2.13731 -2.73745 0
M  V30 5988 C 572.683 1.84971 -3.85966 0
M  V30 5989 C 572.009 3.17991 -4.29867 0
M  V30 5990 C 573.309 1.14442 -5.09608 0
M  V30 5991 H 575.003 0.381899 -2.96954 0
M  V30 5992 H 572.549 0.18225 -1.42842 0
M  V30 5993 H 574.502 2.81302 -3.13763 0
M  V30 5994 H 573.226 2.65263 -1.90534 0
M  V30 5995 H 571.885 1.19801 -3.46473 0
M  V30 5996 H 571.533 3.6739 -3.4356 0
M  V30 5997 H 571.233 2.99534 -5.05523 0
M  V30 5998 H 572.757 3.86737 -4.72511 0
M  V30 5999 H 574.171 1.72105 -5.46857 0
M  V30 6000 H 572.568 1.06197 -5.90629 0
M  V30 6001 H 573.638 0.12559 -4.84737 0
M  V30 6002 N 574.981 1.5647 0.188427 0
M  V30 6003 C 576.229 1.80655 0.905986 0
M  V30 6004 C 576.55 0.659391 1.83513 0
M  V30 6005 O 575.82 -0.321868 1.93238 0
M  V30 6006 H 574.4 0.666391 0.337538 0
M  V30 6007 H 577.062 1.93949 0.192339 0
M  V30 6008 H 576.158 2.74066 1.49313 0
M  V30 6009 N 576.459 -0.456382 1.50847 0
M  V30 6010 C 577.369 -1.57805 1.73594 0
M  V30 6011 C 578.385 -1.62599 0.619476 0
M  V30 6012 O 579.561 -1.80195 0.899532 0
M  V30 6013 C 576.626 -2.93926 1.8387 0
M  V30 6014 C 575.687 -2.99402 3.07663 0
M  V30 6015 C 574.92 -4.29031 3.1744 0
M  V30 6016 O 575.143 -5.20358 2.33631 0
M  V30 6017 O 574.077 -4.40401 4.10281 0
M  V30 6018 H 577.903 -1.41531 2.68705 0
M  V30 6019 H 575.488 -0.637422 1.3512 0
M  V30 6020 H 577.37 -3.74747 1.92725 0
M  V30 6021 H 576.045 -3.10368 0.91944 0
M  V30 6022 H 574.952 -2.17606 3.043 0
M  V30 6023 H 576.285 -2.87901 3.99216 0
M  V30 6024 N 577.937 -1.40673 -0.710563 0
M  V30 6025 C 578.887 -1.37812 -1.81636 0
M  V30 6026 C 579.871 -0.254853 -1.58869 0
M  V30 6027 O 581.063 -0.494356 -1.69956 0
M  V30 6028 C 578.192 -1.24802 -3.19811 0
M  V30 6029 C 577.278 -2.41931 -3.48325 0
M  V30 6030 N 577.669 -3.67411 -3.47625 0
M  V30 6031 C 575.967 -2.35419 -3.78806 0
M  V30 6032 C 576.668 -4.45008 -3.74623 0
M  V30 6033 N 575.644 -3.74916 -3.93623 0
M  V30 6034 H 579.446 -2.32766 -1.79436 0
M  V30 6035 H 576.96 -1.34516 -0.909909 0
M  V30 6036 H 578.957 -1.20835 -3.99004 0
M  V30 6037 H 577.617 -0.308202 -3.23234 0
M  V30 6038 H 578.628 -4.00503 -3.28356 0
M  V30 6039 H 575.305 -1.4983 -3.89689 0
M  V30 6040 H 576.695 -5.53884 -3.80344 0
M  V30 6041 N 579.415 0.9433 -1.26252 0
M  V30 6042 C 580.643 1.72367 -1.14443 0
M  V30 6043 C 581.058 1.86392 0.300572 0
M  V30 6044 O 580.415 1.36978 1.20596 0
M  V30 6045 C 580.466 3.13155 -1.806 0
M  V30 6046 O 580.187 2.99803 -3.19452 0
M  V30 6047 C 581.688 4.07417 -1.74717 0
M  V30 6048 H 578.908 0.539758 -0.398626 0
M  V30 6049 H 581.452 1.18268 -1.66832 0
M  V30 6050 H 579.607 3.64162 -1.32154 0
M  V30 6051 H 580.021 3.88697 -3.52158 0
M  V30 6052 H 581.495 5.03773 -2.25647 0
M  V30 6053 H 581.972 4.3337 -0.713244 0
M  V30 6054 H 582.578 3.6233 -2.22704 0
M  V30 6055 N 580.893 1.08022 1.14757 0
M  V30 6056 C 581.856 0.71048 2.1791 0
M  V30 6057 C 582.856 -0.252731 1.58801 0
M  V30 6058 O 584.046 -0.0327915 1.74169 0
M  V30 6059 C 581.178 0.0483203 3.40866 0
M  V30 6060 H 582.371 1.62384 2.52134 0
M  V30 6061 H 579.924 0.877595 1.29337 0
M  V30 6062 H 580.659 -0.876959 3.12218 0
M  V30 6063 H 580.444 0.741189 3.85031 0
M  V30 6064 H 581.934 -0.195471 4.17142 0
M  V30 6065 N 582.371 -1.3172 0.865308 0
M  V30 6066 C 583.334 -2.26918 0.322627 0
M  V30 6067 C 584.334 -1.52031 -0.523751 0
M  V30 6068 O 585.524 -1.70973 -0.333727 0
M  V30 6069 C 582.656 -3.36558 -0.542338 0
M  V30 6070 H 583.849 -2.76432 1.16298 0
M  V30 6071 H 581.402 -1.42573 0.640512 0
M  V30 6072 H 582.137 -2.92329 -1.40407 0
M  V30 6073 H 581.922 -3.92048 0.0636395 0
M  V30 6074 H 583.412 -4.07465 -0.91446 0
M  V30 6075 N 583.85 -0.624285 -1.44708 0
M  V30 6076 C 585.096 -0.126237 -2.02407 0
M  V30 6077 C 585.428 1.24618 -1.48943 0
M  V30 6078 O 584.704 1.82569 -0.670742 0
M  V30 6079 C 584.986 -0.105449 -3.59946 0
M  V30 6080 C 584.84 -1.50972 -4.23707 0
M  V30 6081 C 586.159 0.573629 -4.36346 0
M  V30 6082 H 583.278 -0.0473472 -0.735478 0
M  V30 6083 H 585.92 -0.799452 -1.72362 0
M  V30 6084 H 584.07 0.46783 -3.85673 0
M  V30 6085 H 585.742 -2.13136 -4.0911 0
M  V30 6086 H 583.985 -2.0656 -3.81465 0
M  V30 6087 H 584.656 -1.44727 -5.32689 0
M  V30 6088 H 587.132 0.0861787 -4.16011 0
M  V30 6089 H 586.008 0.557338 -5.46063 0
M  V30 6090 H 586.269 1.64276 -4.10446 0
M  V30 6091 N 585.328 1.53329 -0.364422 0
M  V30 6092 C 586.258 2.28627 0.474543 0
M  V30 6093 C 587.239 1.31009 1.08492 0
M  V30 6094 O 588.424 1.59878 1.10239 0
M  V30 6095 C 585.554 3.07465 1.61501 0
M  V30 6096 C 584.508 4.1276 1.13194 0
M  V30 6097 C 583.834 4.79674 2.36255 0
M  V30 6098 C 585.134 5.21847 0.217507 0
M  V30 6099 H 586.828 2.99005 -0.153656 0
M  V30 6100 H 584.374 1.43803 -0.0753406 0
M  V30 6101 H 586.327 3.58889 2.20855 0
M  V30 6102 H 585.051 2.34775 2.27042 0
M  V30 6103 H 583.71 3.62281 0.56109 0
M  V30 6104 H 583.358 4.03557 3.00251 0
M  V30 6105 H 583.058 5.50827 2.04606 0
M  V30 6106 H 584.582 5.33892 2.96297 0
M  V30 6107 H 585.996 5.6878 0.718493 0
M  V30 6108 H 584.393 6.00099 -0.00806408 0
M  V30 6109 H 585.463 4.7921 -0.740653 0
M  V30 6110 N 586.806 0.0935595 1.57322 0
M  V30 6111 C 587.738 -0.895923 2.10964 0
M  V30 6112 C 588.751 -1.24705 1.04654 0
M  V30 6113 O 589.94 -1.20044 1.32105 0
M  V30 6114 C 587.04 -2.20546 2.57318 0
M  V30 6115 C 586.213 -2.0299 3.87445 0
M  V30 6116 C 585.272 -3.17443 4.19662 0
M  V30 6117 O 584.298 -2.91474 4.88909 0
M  V30 6118 N 585.5 -4.43168 3.74943 0
M  V30 6119 H 588.265 -0.437788 2.96485 0
M  V30 6120 H 585.826 -0.0915863 1.61641 0
M  V30 6121 H 587.818 -2.9606 2.75917 0
M  V30 6122 H 586.388 -2.57789 1.76816 0
M  V30 6123 H 585.608 -1.11815 3.78009 0
M  V30 6124 H 586.896 -1.88535 4.7258 0
M  V30 6125 H 586.294 -4.67149 3.19043 0
M  V30 6126 H 584.851 -5.15637 3.987 0
M  V30 6127 N 588.284 -1.56567 -0.180126 0
M  V30 6128 C 589.194 -1.98947 -1.24327 0
M  V30 6129 C 590.21 -0.899446 -1.4895 0
M  V30 6130 O 591.386 -1.20639 -1.61271 0
M  V30 6131 C 588.451 -2.33328 -2.56435 0
M  V30 6132 C 587.512 -3.56114 -2.39752 0
M  V30 6133 C 586.745 -3.88845 -3.65561 0
M  V30 6134 O 586.968 -3.22662 -4.70368 0
M  V30 6135 O 585.902 -4.82226 -3.60197 0
M  V30 6136 H 589.728 -2.89634 -0.913565 0
M  V30 6137 H 587.313 -1.44319 -0.386306 0
M  V30 6138 H 589.195 -2.5645 -3.34382 0
M  V30 6139 H 587.87 -1.45806 -2.89002 0
M  V30 6140 H 586.777 -3.38221 -1.59866 0
M  V30 6141 H 588.11 -4.4415 -2.12113 0
M  V30 6142 N 589.762 0.448376 -1.51087 0
M  V30 6143 C 590.692 1.55102 -1.74544 0
M  V30 6144 C 591.673 1.59357 -0.594932 0
M  V30 6145 O 592.858 1.75261 -0.836491 0
M  V30 6146 C 589.988 2.93268 -1.86041 0
M  V30 6147 C 588.942 3.03877 -3.01402 0
M  V30 6148 C 588.268 4.43914 -2.98068 0
M  V30 6149 C 589.568 2.7898 -4.41551 0
M  V30 6150 H 591.262 1.35724 -2.66869 0
M  V30 6151 H 588.808 0.651498 -1.28419 0
M  V30 6152 H 590.761 3.70356 -2.01034 0
M  V30 6153 H 589.485 3.13853 -0.903548 0
M  V30 6154 H 588.144 2.29227 -2.86096 0
M  V30 6155 H 587.792 4.6145 -2.00182 0
M  V30 6156 H 587.492 4.51944 -3.75527 0
M  V30 6157 H 589.016 5.22991 -3.1514 0
M  V30 6158 H 590.43 3.45805 -4.57265 0
M  V30 6159 H 588.827 2.98431 -5.20633 0
M  V30 6160 H 589.897 1.74663 -4.5235 0
M  V30 6161 N 591.24 1.41047 0.703093 0
M  V30 6162 C 592.488 1.39723 1.4602 0
M  V30 6163 C 592.809 0.00461257 1.94999 0
M  V30 6164 O 592.079 -0.952292 1.71196 0
M  V30 6165 H 590.659 0.514281 0.541779 0
M  V30 6166 H 593.321 1.76217 0.832678 0
M  V30 6167 H 592.417 2.07982 2.32701 0
M  V30 6168 N 592.718 -0.936591 1.26751 0
M  V30 6169 C 593.948 -1.71509 1.15188 0
M  V30 6170 C 594.356 -1.86885 -0.295037 0
M  V30 6171 O 593.699 -1.37915 -1.21347 0
M  V30 6172 C 593.761 -3.13853 1.75318 0
M  V30 6173 C 593.425 -3.21845 3.24445 0
M  V30 6174 C 594.422 -3.04771 4.21201 0
M  V30 6175 C 592.107 -3.45088 3.64992 0
M  V30 6176 C 594.101 -3.10816 5.56482 0
M  V30 6177 C 591.788 -3.50767 5.00405 0
M  V30 6178 C 592.786 -3.33648 5.9596 0
M  V30 6179 O 592.474 -3.39045 7.28906 0
M  V30 6180 H 592.206 -0.543658 0.401761 0
M  V30 6181 H 594.76 -1.18234 1.67958 0
M  V30 6182 H 592.99 -3.6857 1.17016 0
M  V30 6183 H 594.679 -3.73634 1.58596 0
M  V30 6184 H 595.445 -2.86665 3.91214 0
M  V30 6185 H 591.324 -3.57467 2.91098 0
M  V30 6186 H 594.868 -2.97372 6.31043 0
M  V30 6187 H 590.765 -3.68396 5.30052 0
M  V30 6188 H 591.533 -3.55558 7.37238 0
M  V30 6189 N 594.196 -1.08629 -1.14182 0
M  V30 6190 C 595.421 -0.83902 -1.89671 0
M  V30 6191 C 595.846 0.603332 -1.78161 0
M  V30 6192 O 595.204 1.42301 -1.12339 0
M  V30 6193 C 595.252 -1.26854 -3.37551 0
M  V30 6194 O 594.356 -0.42188 -4.10236 0
M  V30 6195 H 593.697 -0.304545 -0.590041 0
M  V30 6196 H 596.227 -1.4483 -1.44518 0
M  V30 6197 H 596.237 -1.25038 -3.88368 0
M  V30 6198 H 594.912 -2.31901 -3.45246 0
M  V30 6199 H 593.489 -0.503654 -3.69483 0
M  V30 6200 N 595.674 1.31259 -0.872281 0
M  V30 6201 C 596.951 1.91362 -0.404943 0
M  V30 6202 C 597.331 1.79362 1.11321 0
M  V30 6203 O 596.679 1.20277 1.94283 0
M  V30 6204 C 596.889 3.3749 -0.888893 0
M  V30 6205 C 598.237 4.14593 -0.916384 0
M  V30 6206 O 599.261 3.46282 -0.834701 0
M  V30 6207 O 598.12 5.3661 -1.03498 0
M  V30 6208 H 595.214 0.818016 -0.121569 0
M  V30 6209 H 597.76 1.39912 -0.960346 0
M  V30 6210 H 596.532 3.40249 -1.93251 0
M  V30 6211 H 596.155 3.96375 -0.311932 0
M  V30 6212 N 597.152 0.631951 1.44375 0
M  V30 6213 C 598.429 0.067646 1.95483 0
M  V30 6214 C 598.809 -1.40683 1.57389 0
M  V30 6215 O 598.157 -2.12167 0.848375 0
M  V30 6216 C 598.367 0.291392 3.47781 0
M  V30 6217 C 599.715 0.185028 4.24197 0
M  V30 6218 O 600.739 0.222803 3.55503 0
M  V30 6219 O 599.598 0.0906642 5.46425 0
M  V30 6220 H 596.692 -0.0218379 0.826712 0
M  V30 6221 H 599.238 0.703711 1.54421 0
M  V30 6222 H 598.01 1.31449 3.68561 0
M  V30 6223 H 597.633 -0.378772 3.95792 0
M  V30 6224 N 598.631 -1.53133 0.372548 0
M  V30 6225 C 599.541 -2.29671 -0.478379 0
M  V30 6226 C 600.557 -1.35913 -1.08644 0
M  V30 6227 O 601.733 -1.68975 -1.09588 0
M  V30 6228 C 598.798 -3.07625 -1.599 0
M  V30 6229 C 597.859 -4.17061 -1.01776 0
M  V30 6230 C 597.092 -4.91289 -2.08497 0
M  V30 6231 O 597.315 -4.65442 -3.29727 0
M  V30 6232 O 596.249 -5.7705 -1.71164 0
M  V30 6233 H 600.075 -3.03355 0.144649 0
M  V30 6234 H 597.66 -1.48773 0.136729 0
M  V30 6235 H 599.542 -3.56281 -2.25038 0
M  V30 6236 H 598.217 -2.3677 -2.2073 0
M  V30 6237 H 597.124 -3.72641 -0.330098 0
M  V30 6238 H 598.457 -4.90102 -0.453915 0
M  V30 6239 N 600.109 -0.101901 -1.5727 0
M  V30 6240 C 601.358 0.559922 -1.93772 0
M  V30 6241 C 601.671 1.68913 -0.98629 0
M  V30 6242 O 602.877 2.41256 -1.24529 0
M  V30 6243 C 601.333 1.04739 -3.44322 0
M  V30 6244 C 600.941 -0.05243 -4.47969 0
M  V30 6245 C 602.685 1.68157 -3.89774 0
M  V30 6246 C 600.592 0.450781 -5.8968 0
M  V30 6247 H 599.522 0.212931 -0.723309 0
M  V30 6248 H 602.173 -0.179001 -1.82625 0
M  V30 6249 H 600.555 1.84021 -3.50645 0
M  V30 6250 H 601.729 -0.828157 -4.53297 0
M  V30 6251 H 600.044 -0.592202 -4.12167 0
M  V30 6252 H 602.641 2.0689 -4.93052 0
M  V30 6253 H 602.984 2.55338 -3.28798 0
M  V30 6254 H 603.517 0.954453 -3.8618 0
M  V30 6255 H 600.256 -0.38458 -6.54371 0
M  V30 6256 H 599.776 1.19336 -5.87809 0
M  V30 6257 H 601.455 0.917555 -6.40461 0
M  V30 6258 N 601.587 1.56661 0.17182 0
M  V30 6259 C 602.55 1.9549 1.19651 0
M  V30 6260 C 603.55 0.838501 1.37207 0
M  V30 6261 O 604.74 1.10556 1.34622 0
M  V30 6262 C 601.872 2.24927 2.56166 0
M  V30 6263 H 603.065 2.87184 0.864007 0
M  V30 6264 H 600.618 1.50711 0.41425 0
M  V30 6265 H 601.353 1.35944 2.94431 0
M  V30 6266 H 601.138 3.06301 2.4479 0
M  V30 6267 H 602.628 2.55891 3.30014 0
M  V30 6268 N 603.065 -0.440357 1.51323 0
M  V30 6269 C 604.028 -1.51679 1.71832 0
M  V30 6270 C 605.028 -1.49648 0.588386 0
M  V30 6271 O 606.218 -1.51724 0.855891 0
M  V30 6272 C 603.35 -2.91228 1.77199 0
M  V30 6273 H 604.543 -1.34799 2.67898 0
M  V30 6274 H 602.096 -0.66883 1.41267 0
M  V30 6275 H 602.831 -3.13516 0.829363 0
M  V30 6276 H 602.616 -2.94107 2.59314 0
M  V30 6277 H 604.106 -3.69321 1.94915 0
M  V30 6278 N 604.543 -1.41418 -0.695603 0
M  V30 6279 C 605.476 -1.3768 -1.81988 0
M  V30 6280 C 606.454 -0.244061 -1.60758 0
M  V30 6281 O 607.638 -0.430965 -1.83507 0
M  V30 6282 C 604.765 -1.1476 -3.18666 0
M  V30 6283 C 603.811 -2.30752 -3.58686 0
M  V30 6284 S 604.644 -3.9323 -3.63498 0
M  V30 6285 C 605.8 -3.72613 -5.02902 0
M  V30 6286 H 606.033 -2.32822 -1.84882 0
M  V30 6287 H 603.566 -1.27942 -0.86431 0
M  V30 6288 H 605.524 -1.02223 -3.97569 0
M  V30 6289 H 604.185 -0.212385 -3.13381 0
M  V30 6290 H 603.378 -2.10409 -4.57978 0
M  V30 6291 H 602.98 -2.39696 -2.87092 0
M  V30 6292 H 605.272 -3.32317 -5.904 0
M  V30 6293 H 606.215 -4.71507 -5.28286 0
M  V30 6294 H 606.623 -3.0589 -4.74438 0
M  V30 6295 N 606.021 0.929856 -1.27246 0
M  V30 6296 C 606.968 2.03017 -1.09785 0
M  V30 6297 C 607.938 1.661 0.000456744 0
M  V30 6298 O 609.123 1.90116 -0.161462 0
M  V30 6299 C 606.263 3.36878 -0.748816 0
M  V30 6300 C 605.376 3.86763 -1.92453 0
M  V30 6301 C 604.511 5.09061 -1.51758 0
M  V30 6302 C 603.55 5.51237 -2.66091 0
M  V30 6303 N 602.687 6.64732 -2.25999 0
M  V30 6304 H 607.527 2.17285 -2.03939 0
M  V30 6305 H 605.064 1.06448 -1.01524 0
M  V30 6306 H 607.022 4.13855 -0.527283 0
M  V30 6307 H 605.652 3.22424 0.155771 0
M  V30 6308 H 604.704 3.06086 -2.25867 0
M  V30 6309 H 606.016 4.13994 -2.78227 0
M  V30 6310 H 605.17 5.93532 -1.25716 0
M  V30 6311 H 603.909 4.83602 -0.630896 0
M  V30 6312 H 602.914 4.65316 -2.92849 0
M  V30 6313 H 604.139 5.78692 -3.55377 0
M  V30 6314 H 602.085 6.40935 -1.3978 0
M  V30 6315 H 602.002 6.91607 -3.05313 0
M  V30 6316 H 603.27 7.52549 -2.03199 0
M  V30 6317 N 607.499 1.09233 1.13605 0
M  V30 6318 C 608.431 0.687794 2.18637 0
M  V30 6319 C 609.444 -0.26936 1.60556 0
M  V30 6320 O 610.633 -0.0557162 1.78413 0
M  V30 6321 C 607.733 -0.00751901 3.38899 0
M  V30 6322 C 606.906 0.97067 4.26494 0
M  V30 6323 C 605.965 0.309129 5.25291 0
M  V30 6324 O 604.991 0.956149 5.61112 0
M  V30 6325 N 606.193 -0.937555 5.72879 0
M  V30 6326 H 608.958 1.59141 2.53957 0
M  V30 6327 H 606.519 0.979515 1.28907 0
M  V30 6328 H 608.511 -0.461238 4.02063 0
M  V30 6329 H 607.081 -0.813353 3.01833 0
M  V30 6330 H 606.301 1.603 3.60135 0
M  V30 6331 H 607.589 1.63323 4.81875 0
M  V30 6332 H 606.987 -1.48281 5.4592 0
M  V30 6333 H 605.544 -1.33463 6.3799 0
M  V30 6334 N 608.977 -1.30795 0.87923 0
M  V30 6335 C 609.925 -2.30231 0.331112 0
M  V30 6336 C 610.919 -1.59918 -0.558794 0
M  V30 6337 O 612.125 -1.74441 -0.443866 0
M  V30 6338 H 608.5 -0.746785 0.088409 0
M  V30 6339 H 610.471 -2.73925 1.18353 0
M  V30 6340 C 609.22 -3.44848 -0.444401 0
M  V30 6341 H 608.543 -3.99131 0.231106 0
M  V30 6342 H 609.983 -4.16516 -0.793109 0
M  V30 6343 C 608.442 -2.94329 -1.63926 0
M  V30 6344 O 608.972 -2.93875 -2.73862 0
M  V30 6345 N 607.178 -2.50413 -1.4745 0
M  V30 6346 H 606.725 -2.50982 -0.58015 0
M  V30 6347 H 606.683 -2.16969 -2.27534 0
M  V30 6348 N 610.455 -0.639598 -1.44038 0
M  V30 6349 C 611.405 0.0823038 -2.27851 0
M  V30 6350 C 612.389 0.807991 -1.39141 0
M  V30 6351 O 613.581 0.692702 -1.62882 0
M  V30 6352 C 610.71 1.05742 -3.26609 0
M  V30 6353 C 609.796 0.330911 -4.22807 0
M  V30 6354 N 610.187 -0.645126 -5.01669 0
M  V30 6355 C 608.485 0.574214 -4.42288 0
M  V30 6356 C 609.186 -1.07513 -5.71678 0
M  V30 6357 N 608.162 -0.412164 -5.42035 0
M  V30 6358 H 611.964 -0.666861 -2.86234 0
M  V30 6359 H 609.478 -0.465777 -1.55577 0
M  V30 6360 H 611.475 1.58927 -3.85419 0
M  V30 6361 H 610.135 1.80679 -2.69787 0
M  V30 6362 H 611.146 -1.02329 -5.0769 0
M  V30 6363 H 607.823 1.30581 -3.96554 0
M  V30 6364 H 609.213 -1.88196 -6.45005 0
M  V30 6365 N 611.933 1.52934 -0.380664 0
M  V30 6366 C 612.896 2.24809 0.446473 0
M  V30 6367 C 613.896 1.26133 0.997347 0
M  V30 6368 O 615.086 1.50297 0.880714 0
M  V30 6369 C 612.218 2.99649 1.62553 0
M  V30 6370 H 613.411 2.99343 -0.182677 0
M  V30 6371 H 610.964 1.55736 -0.132618 0
M  V30 6372 H 611.699 2.29395 2.29235 0
M  V30 6373 H 611.484 3.72066 1.23732 0
M  V30 6374 H 612.974 3.54246 2.21133 0
M  V30 6375 N 613.412 0.11024 1.57214 0
M  V30 6376 C 614.661 -0.549638 1.94067 0
M  V30 6377 C 614.974 -1.68388 0.995234 0
M  V30 6378 O 616.18 -2.40593 1.25807 0
M  V30 6379 C 614.636 -1.02912 3.44873 0
M  V30 6380 C 614.244 0.0761861 4.47935 0
M  V30 6381 C 615.988 -1.66087 3.9066 0
M  V30 6382 C 613.895 -0.419502 5.8991 0
M  V30 6383 H 612.825 -0.209092 0.724428 0
M  V30 6384 H 615.476 0.188683 1.82527 0
M  V30 6385 H 613.858 -1.82159 3.51616 0
M  V30 6386 H 615.032 0.852185 4.52851 0
M  V30 6387 H 613.347 0.614052 4.11847 0
M  V30 6388 H 615.944 -2.04272 4.94143 0
M  V30 6389 H 616.287 -2.53591 3.30148 0
M  V30 6390 H 616.82 -0.933959 3.86681 0
M  V30 6391 H 613.559 0.419277 6.54158 0
M  V30 6392 H 613.079 -1.16217 5.88433 0
M  V30 6393 H 614.758 -0.883577 6.40938 0
M  V30 6394 O 614.929 -1.61473 -0.0293866 0
M  V30 6395 H 615.62 -1.82469 -0.649975 0
M  V30 END ATOM
M  V30 BEGIN BOND
M  V30 END BOND
M  V30 END CTAB
M  END
$$$$
