drugbank_target|P70174 Histamine H1 receptor (DB11160)
 OpenBabel12092121093D

  0  0  0     0  0            999 V3000
M  V30 BEGIN CTAB
M  V30 COUNTS 7896 7990 0 0 0
M  V30 BEGIN ATOM
M  V30 1 H -0.908 1.98254 -0.117106 0
M  V30 2 N 0 1.576 0 0
M  V30 3 C 0.933 2.03868 1.02534 0
M  V30 4 C 1.911 0.928543 1.3348 0
M  V30 5 O 3.095 1.19667 1.45644 0
M  V30 6 C 0.222 2.43627 2.35294 0
M  V30 7 C -0.732 3.65373 2.2001 0
M  V30 8 S 0.101 5.13292 1.52614 0
M  V30 9 C 1.257 5.56322 2.86805 0
M  V30 10 H 1.49 2.90518 0.631377 0
M  V30 11 H -0.977 1.52953 0.210867 0
M  V30 12 H 0.981 2.67203 3.11629 0
M  V30 13 H -0.358 1.57376 2.7183 0
M  V30 14 H -1.165 3.90944 3.18086 0
M  V30 15 H -1.563 3.418 1.51819 0
M  V30 16 H 0.729 5.58782 3.83104 0
M  V30 17 H 1.672 6.56266 2.65933 0
M  V30 18 H 2.08 4.83886 2.90714 0
M  V30 19 N 1.4781 -0.272755 1.55222 0
M  V30 20 C 2.7031 -1.02683 1.80197 0
M  V30 21 C 3.1281 -1.79142 0.573551 0
M  V30 22 O 2.4861 -1.74917 -0.476849 0
M  V30 23 C 2.5341 -1.9609 3.02624 0
M  V30 24 O 1.6381 -3.04863 2.77727 0
M  V30 25 H 0.9791 -0.293557 0.595584 0
M  V30 26 H 3.5091 -0.30159 2.02365 0
M  V30 27 H 3.5191 -2.38039 3.31363 0
M  V30 28 H 2.1941 -1.39851 3.91682 0
M  V30 29 H 0.7711 -2.67228 2.60084 0
M  V30 30 N 2.9562 -1.48159 -0.537278 0
M  V30 31 C 3.8862 -1.65029 -1.6519 0
M  V30 32 C 4.8672 -0.499281 -1.62607 0
M  V30 33 O 6.0522 -0.730972 -1.79918 0
M  V30 34 C 3.1822 -1.68303 -3.03795 0
M  V30 35 C 2.1362 -2.8283 -3.21234 0
M  V30 36 C 1.4622 -2.71189 -4.60826 0
M  V30 37 C 2.7622 -4.24211 -3.04701 0
M  V30 38 H 4.4562 -2.58341 -1.51328 0
M  V30 39 H 2.0022 -1.24325 -0.726585 0
M  V30 40 H 3.9552 -1.78693 -3.81637 0
M  V30 41 H 2.6792 -0.715635 -3.18663 0
M  V30 42 H 1.3382 -2.71983 -2.45807 0
M  V30 43 H 0.9862 -1.72435 -4.7252 0
M  V30 44 H 0.6862 -3.48035 -4.7344 0
M  V30 45 H 2.2102 -2.83537 -5.40777 0
M  V30 46 H 3.6242 -4.3593 -3.72341 0
M  V30 47 H 2.0212 -5.01998 -3.28813 0
M  V30 48 H 3.0912 -4.41184 -2.01209 0
M  V30 49 N 4.4343 0.785586 -1.36625 0
M  V30 50 C 5.8453 1.36101 -1.27803 0
M  V30 51 C 6.1963 1.96035 0.0804875 0
M  V30 52 O 5.3213 1.92834 0.982042 0
M  V30 53 C 5.9163 2.47442 -2.31426 0
M  V30 54 C 4.4753 3.00789 -2.26281 0
M  V30 55 C 3.6223 1.73896 -2.15999 0
M  V30 56 H 6.5733 0.586928 -1.47448 0
M  V30 57 H 6.5943 3.2656 -1.95291 0
M  V30 58 H 6.1063 2.03791 -3.30289 0
M  V30 59 H 4.2073 3.48851 -1.30896 0
M  V30 60 H 4.3203 3.57343 -3.19128 0
M  V30 61 H 2.6843 1.9628 -1.62316 0
M  V30 62 H 3.4673 1.32368 -3.16755 0
M  V30 63 N 5.9124 1.20967 1.01018 0
M  V30 64 C 6.8604 0.961223 2.1181 0
M  V30 65 C 7.8544 -0.0897034 1.69162 0
M  V30 66 O 9.0604 0.0612271 1.79896 0
M  V30 67 H 5.4354 0.29355 0.692338 0
M  V30 68 H 7.4064 1.90178 2.29946 0
M  V30 69 C 6.1554 0.536854 3.4353 0
M  V30 70 H 5.4784 1.33713 3.76777 0
M  V30 71 H 6.9184 0.402286 4.22087 0
M  V30 72 C 5.3774 -0.751574 3.2841 0
M  V30 73 O 5.9074 -1.80841 3.58691 0
M  V30 74 N 4.1134 -0.716079 2.81639 0
M  V30 75 H 3.6604 0.144236 2.57196 0
M  V30 76 H 3.6184 -1.57847 2.71904 0
M  V30 77 N 7.3905 -1.2043 1.01659 0
M  V30 78 C 8.6185 -1.93777 0.725132 0
M  V30 79 C 9.0335 -1.74772 -0.714166 0
M  V30 80 O 8.3905 -1.06169 -1.4844 0
M  V30 81 C 8.4415 -3.45876 1.05129 0
M  V30 82 O 8.1625 -3.6426 2.43406 0
M  V30 83 C 9.6635 -4.36368 0.780891 0
M  V30 84 H 6.8835 -0.615901 0.266284 0
M  V30 85 H 9.4275 -1.52922 1.35776 0
M  V30 86 H 7.5825 -3.8461 0.464065 0
M  V30 87 H 7.9965 -4.58246 2.55169 0
M  V30 88 H 9.4705 -5.41743 1.05918 0
M  V30 89 H 9.9475 -4.38275 -0.284937 0
M  V30 90 H 10.5535 -4.03296 1.35027 0
M  V30 91 N 8.8686 -0.792821 -1.36206 0
M  V30 92 C 10.0936 -0.377701 -2.03932 0
M  V30 93 C 10.5186 0.998947 -1.59382 0
M  V30 94 O 9.8766 1.64421 -0.763903 0
M  V30 95 C 9.9246 -0.453635 -3.57735 0
M  V30 96 O 9.0286 0.538151 -4.08874 0
M  V30 97 H 8.3696 -0.159855 -0.644471 0
M  V30 98 H 10.8996 -1.07488 -1.7409 0
M  V30 99 H 10.9096 -0.318464 -4.06755 0
M  V30 100 H 9.5846 -1.45784 -3.89512 0
M  V30 101 H 8.1616 0.364359 -3.71116 0
M  V30 102 N 10.3467 1.47872 -0.545128 0
M  V30 103 C 11.5717 2.07391 -0.0190611 0
M  V30 104 C 11.9967 1.39688 1.25971 0
M  V30 105 O 11.3547 0.467816 1.7516 0
M  V30 106 C 11.4027 3.60188 0.172335 0
M  V30 107 O 10.5067 3.9339 1.23766 0
M  V30 108 H 9.8477 0.662411 -0.0459059 0
M  V30 109 H 12.3777 1.90066 -0.757365 0
M  V30 110 H 12.3877 4.06129 0.390305 0
M  V30 111 H 11.0627 4.08865 -0.761725 0
M  V30 112 H 9.6397 3.5921 1.00114 0
M  V30 113 N 11.8248 0.280983 1.55075 0
M  V30 114 C 12.7878 -0.590896 2.21452 0
M  V30 115 C 13.7878 -1.07682 1.19421 0
M  V30 116 O 14.9778 -0.97605 1.44288 0
M  V30 117 C 12.1098 -1.81587 2.88511 0
M  V30 118 H 13.3028 -0.0112554 2.99898 0
M  V30 119 H 10.8558 0.0316438 1.56268 0
M  V30 120 H 11.5908 -2.43587 2.14093 0
M  V30 121 H 11.3758 -1.4753 3.63287 0
M  V30 122 H 12.8658 -2.43575 3.39206 0
M  V30 123 N 13.3029 -1.57598 0.00835791 0
M  V30 124 C 14.5279 -1.95617 -0.689103 0
M  V30 125 C 14.9529 -0.883753 -1.66046 0
M  V30 126 O 14.3109 0.157352 -1.80616 0
M  V30 127 C 14.3589 -3.32736 -1.38994 0
M  V30 128 O 13.4629 -3.27631 -2.50463 0
M  V30 129 H 12.8039 -0.638379 -0.182668 0
M  V30 130 H 15.3339 -2.045 0.064036 0
M  V30 131 H 15.3439 -3.68494 -1.75147 0
M  V30 132 H 14.0189 -4.1034 -0.677778 0
M  V30 133 H 12.5959 -3.03561 -2.16576 0
M  V30 134 N 14.781 0.264519 -1.55364 0
M  V30 135 C 15.691 1.34902 -1.91934 0
M  V30 136 C 16.707 1.53595 -0.817593 0
M  V30 137 O 17.883 1.67558 -1.11742 0
M  V30 138 C 14.948 2.68676 -2.19121 0
M  V30 139 C 14.009 2.58657 -3.4263 0
M  V30 140 C 13.242 3.86051 -3.68511 0
M  V30 141 O 13.465 4.87126 -2.96757 0
M  V30 142 O 12.399 3.85744 -4.62045 0
M  V30 143 H 16.225 1.06883 -2.8427 0
M  V30 144 H 13.81 0.463775 -1.42019 0
M  V30 145 H 15.692 3.47759 -2.37995 0
M  V30 146 H 14.367 2.96463 -1.29966 0
M  V30 147 H 13.274 1.7792 -3.29082 0
M  V30 148 H 14.607 2.35818 -4.32031 0
M  V30 149 N 16.2591 1.48442 0.529413 0
M  V30 150 C 17.5361 1.46978 1.29062 0
M  V30 151 C 17.9161 0.181769 2.10316 0
M  V30 152 O 17.2641 -0.836481 2.12639 0
M  V30 153 C 17.4741 2.7321 2.17157 0
M  V30 154 C 18.8221 3.21562 2.77278 0
M  V30 155 O 19.8461 2.74131 2.27444 0
M  V30 156 O 18.7051 4.04094 3.67927 0
M  V30 157 H 15.7991 0.587003 0.582543 0
M  V30 158 H 18.3451 1.60676 0.546021 0
M  V30 159 H 17.1171 3.58465 1.56903 0
M  V30 160 H 16.7401 2.62235 2.98862 0
M  V30 161 N 17.7372 -0.778329 1.37039 0
M  V30 162 C 18.6842 -1.89139 1.32269 0
M  V30 163 C 19.6542 -1.65017 0.189387 0
M  V30 164 O 20.8392 -1.87024 0.377693 0
M  V30 165 C 17.9792 -3.26112 1.12894 0
M  V30 166 C 17.0922 -3.62233 2.35396 0
M  V30 167 C 16.2272 -4.8838 2.08946 0
M  V30 168 C 15.2662 -5.17212 3.2735 0
M  V30 169 N 14.4032 -6.34546 3.00492 0
M  V30 170 H 19.2432 -1.92552 2.27437 0
M  V30 171 H 16.7802 -0.941473 1.13025 0
M  V30 172 H 18.7382 -4.05116 0.996835 0
M  V30 173 H 17.3682 -3.22091 0.213758 0
M  V30 174 H 16.4202 -2.78265 2.5937 0
M  V30 175 H 17.7322 -3.79481 3.23721 0
M  V30 176 H 16.8862 -5.75274 1.92729 0
M  V30 177 H 15.6252 -4.73222 1.17949 0
M  V30 178 H 14.6302 -4.28796 3.44113 0
M  V30 179 H 15.8552 -5.34283 4.19188 0
M  V30 180 H 13.8012 -6.20759 2.12118 0
M  V30 181 H 13.7182 -6.52179 3.82358 0
M  V30 182 H 14.9862 -7.24394 2.87879 0
M  V30 183 N 19.2153 -1.21501 -1.00376 0
M  V30 184 C 20.1483 -0.918669 -2.08892 0
M  V30 185 C 21.1263 0.134277 -1.62045 0
M  V30 186 O 22.3103 0.00504255 -1.88499 0
M  V30 187 C 19.4373 -0.379645 -3.36566 0
M  V30 188 C 18.4833 -1.41559 -4.02323 0
M  V30 189 S 19.3163 -2.98521 -4.44574 0
M  V30 190 C 20.4723 -2.46228 -5.75433 0
M  V30 191 H 20.7053 -1.83761 -2.33707 0
M  V30 192 H 18.2383 -1.04489 -1.13673 0
M  V30 193 H 20.1963 -0.0752195 -4.10431 0
M  V30 194 H 18.8573 0.518008 -3.09799 0
M  V30 195 H 18.0503 -0.988076 -4.9422 0
M  V30 196 H 17.6523 -1.66815 -3.34737 0
M  V30 197 H 19.9443 -1.86791 -6.51241 0
M  V30 198 H 20.8873 -3.36572 -6.22997 0
M  V30 199 H 21.2953 -1.87894 -5.32312 0
M  V30 200 N 20.6934 1.19889 -1.02296 0
M  V30 201 C 21.9334 1.91125 -0.724602 0
M  V30 202 C 22.2974 1.77464 0.732835 0
M  V30 203 O 23.4984 2.43241 1.144 0
M  V30 204 C 21.7694 3.38187 -1.15604 0
M  V30 205 S 23.3284 4.27702 -0.980621 0
M  V30 206 H 20.1464 0.66018 -0.263976 0
M  V30 207 H 22.7484 1.44978 -1.31155 0
M  V30 208 H 21.4524 3.45653 -2.21251 0
M  V30 209 H 20.9834 3.89363 -0.562131 0
M  V30 210 H 22.9984 4.96073 0.112225 0
M  V30 211 N 22.1715 0.800033 1.35784 0
M  V30 212 C 23.0815 0.207204 2.33683 0
M  V30 213 C 24.0975 -0.64631 1.61551 0
M  V30 214 O 25.2735 -0.559604 1.93469 0
M  V30 215 C 22.3385 -0.639659 3.40748 0
M  V30 216 C 21.3995 0.233585 4.28664 0
M  V30 217 C 20.6325 -0.572954 5.30616 0
M  V30 218 O 20.8555 -1.80816 5.40982 0
M  V30 219 O 19.7895 0.0327285 6.01891 0
M  V30 220 H 23.6155 1.01692 2.86169 0
M  V30 221 H 21.2005 0.561691 1.38439 0
M  V30 222 H 23.0825 -1.12223 4.06182 0
M  V30 223 H 21.7575 -1.42708 2.90544 0
M  V30 224 H 20.6645 0.763147 3.66233 0
M  V30 225 H 21.9975 0.984784 4.82248 0
M  V30 226 N 23.6496 -1.47581 0.552962 0
M  V30 227 C 24.8976 -2.02082 0.0272703 0
M  V30 228 C 25.2186 -1.4301 -1.32563 0
M  V30 229 O 24.4886 -0.603745 -1.86365 0
M  V30 230 H 23.0686 -0.746966 0.00709182 0
M  V30 231 H 25.7306 -1.81033 0.722008 0
M  V30 232 H 24.8266 -3.12034 -0.0639951 0
M  V30 233 N 25.1277 -0.289203 -1.54924 0
M  V30 234 C 26.0757 0.607966 -2.24514 0
M  V30 235 C 27.0697 1.14655 -1.24702 0
M  V30 236 O 28.2757 1.09856 -1.4259 0
M  V30 237 H 24.6507 0.21464 -0.720718 0
M  V30 238 H 26.6217 -0.00164182 -2.984 0
M  V30 239 C 25.3707 1.77406 -2.99036 0
M  V30 240 H 24.6937 1.36884 -3.75637 0
M  V30 241 H 26.1337 2.37814 -3.51028 0
M  V30 242 C 24.5927 2.67107 -2.05318 0
M  V30 243 O 25.1227 3.6787 -1.61353 0
M  V30 244 N 23.3287 2.34582 -1.71521 0
M  V30 245 H 22.8757 1.52688 -2.07471 0
M  V30 246 H 22.8337 2.94867 -1.0909 0
M  V30 247 N 26.6058 1.57591 -0.0167156 0
M  V30 248 C 28.0218 1.55946 0.339557 0
M  V30 249 C 28.2218 1.02109 1.73713 0
M  V30 250 O 27.2778 0.662303 2.43659 0
M  V30 251 C 28.5908 3.00037 0.199499 0
M  V30 252 C 30.1388 3.11805 0.273193 0
M  V30 253 C 30.6138 4.57713 0.162068 0
M  V30 254 N 32.1048 4.6268 0.219444 0
M  V30 255 C 32.8398 5.73185 0.157054 0
M  V30 256 N 32.3358 6.92786 0.0442936 0
M  V30 257 N 34.1288 5.61707 0.21014 0
M  V30 258 H 26.2798 1.90921 -0.930758 0
M  V30 259 H 28.5428 0.877674 -0.358319 0
M  V30 260 H 28.2488 3.4333 -0.76273 0
M  V30 261 H 28.1228 3.64387 0.974786 0
M  V30 262 H 30.5098 2.68433 1.22587 0
M  V30 263 H 30.5908 2.50201 -0.532256 0
M  V30 264 H 30.2348 5.01763 -0.78714 0
M  V30 265 H 30.1648 5.17283 0.986222 0
M  V30 266 H 32.6558 3.76649 0.307246 0
M  V30 267 H 32.9688 7.728 0.00304069 0
M  V30 268 H 31.3138 6.94999 0.00968457 0
M  V30 269 H 34.5048 4.6716 0.296546 0
M  V30 270 H 34.6778 6.47807 0.158054 0
M  V30 271 N 28.0839 -0.256276 1.55502 0
M  V30 272 C 29.3119 -1.00342 1.8094 0
M  V30 273 C 29.7269 -1.79307 0.59114 0
M  V30 274 O 29.0839 -1.77114 -0.440081 0
M  V30 275 C 29.1349 -1.94875 3.04476 0
M  V30 276 O 28.8559 -1.19107 4.21598 0
M  V30 277 C 30.3569 -2.81266 3.42644 0
M  V30 278 H 27.5769 -0.295685 0.602338 0
M  V30 279 H 30.1209 -0.281998 2.02546 0
M  V30 280 H 28.2759 -2.62457 2.84947 0
M  V30 281 H 28.6899 -1.82969 4.91551 0
M  V30 282 H 30.1639 -3.43362 4.32211 0
M  V30 283 H 30.6409 -3.51897 2.62802 0
M  V30 284 H 31.2469 -2.1915 3.64491 0
M  V30 285 N 29.562 -1.4872 -0.521534 0
M  V30 286 C 30.525 -1.63379 -1.60748 0
M  V30 287 C 31.525 -0.50661 -1.52611 0
M  V30 288 O 32.715 -0.772601 -1.5613 0
M  V30 289 C 29.847 -1.61192 -3.00383 0
M  V30 290 H 31.04 -2.60217 -1.49087 0
M  V30 291 H 28.593 -1.37444 -0.744235 0
M  V30 292 H 29.328 -0.65863 -3.17541 0
M  V30 293 H 29.113 -2.43032 -3.07698 0
M  V30 294 H 30.603 -1.7466 -3.7932 0
M  V30 295 N 31.0401 0.771051 -1.3745 0
M  V30 296 C 31.9731 1.89166 -1.27638 0
M  V30 297 C 32.9511 1.61842 -0.156782 0
M  V30 298 O 34.1351 1.85569 -0.331111 0
M  V30 299 C 31.2621 3.24405 -0.973621 0
M  V30 300 C 30.3081 3.70638 -2.1102 0
M  V30 301 S 31.1411 3.84228 -3.73 0
M  V30 302 C 32.2971 5.22313 -3.44876 0
M  V30 303 H 32.5301 1.972 -2.22485 0
M  V30 304 H 30.0631 0.932224 -1.23081 0
M  V30 305 H 32.0211 4.02514 -0.805766 0
M  V30 306 H 30.6821 3.14071 -0.0426279 0
M  V30 307 H 29.8751 4.68685 -1.85338 0
M  V30 308 H 29.4771 2.99632 -2.23822 0
M  V30 309 H 31.7691 6.07505 -2.99908 0
M  V30 310 H 32.7121 5.53008 -4.42253 0
M  V30 311 H 33.1201 4.90284 -2.79789 0
M  V30 312 N 32.5182 1.22032 0.997298 0
M  V30 313 C 33.4812 0.987909 2.06816 0
M  V30 314 C 34.4812 -0.0440084 1.6074 0
M  V30 315 O 35.6712 0.194053 1.73116 0
M  V30 316 C 32.8032 0.49132 3.37341 0
M  V30 317 H 33.9962 1.93803 2.28868 0
M  V30 318 H 31.5492 1.03838 1.16822 0
M  V30 319 H 32.2842 -0.463364 3.20973 0
M  V30 320 H 32.0692 1.23575 3.72118 0
M  V30 321 H 33.5592 0.348824 4.16141 0
M  V30 322 N 33.9963 -1.19345 1.0293 0
M  V30 323 C 35.2213 -1.93538 0.745511 0
M  V30 324 C 35.6463 -1.75007 -0.689511 0
M  V30 325 O 35.0043 -1.05265 -1.47611 0
M  V30 326 C 35.0523 -3.43336 1.10239 0
M  V30 327 O 34.1563 -4.11806 0.221289 0
M  V30 328 H 33.4973 -0.604193 0.275404 0
M  V30 329 H 36.0273 -1.5141 1.37609 0
M  V30 330 H 36.0373 -3.94004 1.05947 0
M  V30 331 H 34.7123 -3.56146 2.14786 0
M  V30 332 H 33.2893 -3.715 0.322842 0
M  V30 333 N 35.4744 -0.807222 -1.35358 0
M  V30 334 C 36.8854 -0.44876 -1.81226 0
M  V30 335 C 37.2364 1.02929 -1.67033 0
M  V30 336 O 36.3614 1.79991 -1.20133 0
M  V30 337 C 36.9564 -0.807774 -3.2903 0
M  V30 338 C 35.5154 -0.501901 -3.73039 0
M  V30 339 C 34.6624 -1.03304 -2.57339 0
M  V30 340 H 37.6134 -0.998808 -1.23327 0
M  V30 341 H 37.6344 -0.10554 -3.80354 0
M  V30 342 H 37.1464 -1.88357 -3.39328 0
M  V30 343 H 35.2474 0.565128 -3.68289 0
M  V30 344 H 35.3604 -1.03497 -4.67787 0
M  V30 345 H 33.7244 -0.455339 -2.50597 0
M  V30 346 H 34.5074 -2.11496 -2.70415 0
M  V30 347 N 36.9525 1.47285 -0.560781 0
M  V30 348 C 37.8845 2.28118 0.222438 0
M  V30 349 C 38.8975 1.37219 0.876056 0
M  V30 350 O 40.0865 1.62011 0.749307 0
M  V30 351 C 37.1865 3.1159 1.33285 0
M  V30 352 C 36.3595 4.30473 0.77534 0
M  V30 353 C 35.4185 4.95513 1.77069 0
M  V30 354 O 34.4445 5.53792 1.31539 0
M  V30 355 N 35.6465 4.90531 3.10418 0
M  V30 356 H 38.4115 2.95976 -0.470958 0
M  V30 357 H 35.9725 1.56955 -0.39709 0
M  V30 358 H 37.9645 3.51967 1.99752 0
M  V30 359 H 36.5345 2.45951 1.92943 0
M  V30 360 H 35.7545 3.94144 -0.0662113 0
M  V30 361 H 37.0425 5.07362 0.382272 0
M  V30 362 H 36.4405 4.44389 3.5005 0
M  V30 363 H 34.9975 5.34917 3.72434 0
M  V30 364 N 38.4306 0.297415 1.54768 0
M  V30 365 C 39.3606 -0.573494 2.26348 0
M  V30 366 C 40.3416 -1.14085 1.26169 0
M  V30 367 O 41.5266 -1.17086 1.54934 0
M  V30 368 C 38.6566 -1.74716 3.00153 0
M  V30 369 C 37.6106 -1.31032 4.07449 0
M  V30 370 C 36.9366 -2.56887 4.68949 0
M  V30 371 C 38.2366 -0.444183 5.20408 0
M  V30 372 H 39.9306 0.0235131 2.99391 0
M  V30 373 H 37.4766 0.0127488 1.43994 0
M  V30 374 H 39.4296 -2.3625 3.48947 0
M  V30 375 H 38.1536 -2.37035 2.24682 0
M  V30 376 H 36.8126 -0.718066 3.59499 0
M  V30 377 H 36.4606 -3.17512 3.90122 0
M  V30 378 H 36.1606 -2.2836 5.41411 0
M  V30 379 H 37.6846 -3.19229 5.20505 0
M  V30 380 H 39.0986 -0.9651 5.65118 0
M  V30 381 H 37.4956 -0.252846 5.99567 0
M  V30 382 H 38.5656 0.531609 4.81977 0
M  V30 383 N 39.9087 -1.5758 0.0250728 0
M  V30 384 C 40.8387 -2.13007 -0.956575 0
M  V30 385 C 41.8197 -1.0452 -1.342 0
M  V30 386 O 43.0047 -1.32332 -1.42133 0
M  V30 387 C 40.1347 -2.65386 -2.24026 0
M  V30 388 C 39.0887 -3.78623 -1.99571 0
M  V30 389 C 38.4147 -4.17414 -3.3417 0
M  V30 390 C 39.7147 -5.04867 -1.33814 0
M  V30 391 H 41.4087 -2.9528 -0.494991 0
M  V30 392 H 38.9547 -1.42042 -0.236651 0
M  V30 393 H 40.9077 -3.02794 -2.93076 0
M  V30 394 H 39.6317 -1.80268 -2.72343 0
M  V30 395 H 38.2907 -3.41646 -1.32941 0
M  V30 396 H 37.9387 -3.29284 -3.80238 0
M  V30 397 H 37.6387 -4.93719 -3.18615 0
M  V30 398 H 39.1627 -4.57402 -4.04495 0
M  V30 399 H 40.5767 -5.39888 -1.92857 0
M  V30 400 H 38.9737 -5.86144 -1.28669 0
M  V30 401 H 40.0437 -4.83904 -0.310561 0
M  V30 402 N 41.3868 0.248026 -1.55636 0
M  V30 403 C 42.7978 0.817177 -1.67866 0
M  V30 404 C 43.1488 1.86069 -0.622322 0
M  V30 405 O 42.2738 2.15157 0.231618 0
M  V30 406 C 42.8688 1.489 -3.04326 0
M  V30 407 C 41.4278 2.00587 -3.185 0
M  V30 408 C 40.5748 0.856573 -2.63739 0
M  V30 409 H 43.5258 0.0238579 -1.58682 0
M  V30 410 H 43.5468 2.35698 -2.98708 0
M  V30 411 H 43.0588 0.729279 -3.81186 0
M  V30 412 H 41.1598 2.79443 -2.4646 0
M  V30 413 H 41.2728 2.20402 -4.25393 0
M  V30 414 H 39.6368 1.25678 -2.21534 0
M  V30 415 H 40.4198 0.109953 -3.43124 0
M  V30 416 N 42.8649 1.48995 0.513639 0
M  V30 417 C 43.7949 1.67636 1.62544 0
M  V30 418 C 44.7759 0.525087 1.61793 0
M  V30 419 O 45.9609 0.759502 1.78732 0
M  V30 420 C 43.0909 1.73114 3.01079 0
M  V30 421 C 42.0449 2.87905 3.16693 0
M  V30 422 C 41.3709 2.78486 4.56453 0
M  V30 423 C 42.6709 4.29005 2.97913 0
M  V30 424 H 44.3649 2.60716 1.47198 0
M  V30 425 H 41.9109 1.25465 0.706714 0
M  V30 426 H 43.8639 1.84742 3.78746 0
M  V30 427 H 42.5879 0.766241 3.17484 0
M  V30 428 H 41.2469 2.75859 2.41448 0
M  V30 429 H 40.8949 1.7993 4.69717 0
M  V30 430 H 40.5949 3.55523 4.67843 0
M  V30 431 H 42.1189 2.92104 5.36197 0
M  V30 432 H 43.5329 4.41798 3.65359 0
M  V30 433 H 41.9299 5.07166 3.20785 0
M  V30 434 H 42.9999 4.44329 1.94165 0
M  V30 435 N 44.343 -0.763751 1.37857 0
M  V30 436 C 45.589 -1.52483 1.33704 0
M  V30 437 C 45.922 -1.94051 -0.0759612 0
M  V30 438 O 45.197 -1.64675 -1.03501 0
M  V30 439 C 45.48 -2.78441 2.28348 0
M  V30 440 C 45.333 -2.43075 3.78463 0
M  V30 441 C 46.652 -3.80415 2.21298 0
M  V30 442 H 43.771 -0.553169 0.487005 0
M  V30 443 H 46.413 -0.875562 1.68624 0
M  V30 444 H 44.563 -3.33842 1.987 0
M  V30 445 H 46.235 -1.93527 4.18742 0
M  V30 446 H 44.478 -1.75666 3.96641 0
M  V30 447 H 45.149 -3.33149 4.40132 0
M  V30 448 H 47.625 -3.34527 2.47449 0
M  V30 449 H 46.501 -4.66257 2.89647 0
M  V30 450 H 46.762 -4.25262 1.20849 0
M  V30 451 N 45.8211 -1.22559 -0.990812 0
M  V30 452 C 47.0671 -1.05297 -1.73322 0
M  V30 453 C 47.4001 0.410655 -1.89808 0
M  V30 454 O 46.6751 1.30439 -1.44277 0
M  V30 455 C 46.9581 -1.76713 -3.13759 0
M  V30 456 C 46.8111 -3.30684 -3.04907 0
M  V30 457 C 48.1301 -1.52121 -4.12974 0
M  V30 458 H 45.2491 -0.38392 -0.629106 0
M  V30 459 H 47.8911 -1.50926 -1.15418 0
M  V30 460 H 46.0411 -1.37924 -3.63193 0
M  V30 461 H 47.7131 -3.7893 -2.63077 0
M  V30 462 H 45.9561 -3.60253 -2.41661 0
M  V30 463 H 46.6271 -3.75833 -4.04294 0
M  V30 464 H 49.1031 -1.85819 -3.72304 0
M  V30 465 H 47.9791 -2.04582 -5.0935 0
M  V30 466 H 48.2401 -0.454257 -4.3976 0
M  V30 467 N 47.2992 1.18797 -1.03562 0
M  V30 468 C 48.5452 1.8893 -0.737113 0
M  V30 469 C 48.8782 1.79837 0.732956 0
M  V30 470 O 48.1532 1.19525 1.5344 0
M  V30 471 C 48.4362 3.39607 -1.19745 0
M  V30 472 C 48.2892 3.57537 -2.72924 0
M  V30 473 C 49.6082 4.33069 -0.783526 0
M  V30 474 H 46.7272 0.686057 -0.269249 0
M  V30 475 H 49.3692 1.39797 -1.28673 0
M  V30 476 H 47.5192 3.81583 -0.729855 0
M  V30 477 H 49.1912 3.24688 -3.27682 0
M  V30 478 H 47.4342 3.00363 -3.12993 0
M  V30 479 H 48.1052 4.63238 -3.00191 0
M  V30 480 H 50.5812 3.98846 -1.18581 0
M  V30 481 H 49.4572 5.3707 -1.13343 0
M  V30 482 H 49.7182 4.40986 0.313681 0
M  V30 483 N 48.7773 0.814389 1.34928 0
M  V30 484 C 49.7073 0.244827 2.32213 0
M  V30 485 C 50.6883 -0.634024 1.57842 0
M  V30 486 O 51.8733 -0.562676 1.8587 0
M  V30 487 C 49.0033 -0.601106 3.42058 0
M  V30 488 C 47.9573 0.179896 4.27622 0
M  V30 489 C 47.2833 -0.788237 5.28858 0
M  V30 490 C 48.5833 1.38329 5.03649 0
M  V30 491 H 50.2773 1.05763 2.80097 0
M  V30 492 H 47.8233 0.510029 1.34665 0
M  V30 493 H 49.7763 -1.00968 4.09125 0
M  V30 494 H 48.5003 -1.44688 2.92802 0
M  V30 495 H 47.1593 0.569739 3.62146 0
M  V30 496 H 46.8073 -1.62973 4.75866 0
M  V30 497 H 46.5073 -0.269942 5.8698 0
M  V30 498 H 48.0313 -1.19485 5.98795 0
M  V30 499 H 49.4453 1.04918 5.63618 0
M  V30 500 H 47.8423 1.83662 5.71304 0
M  V30 501 H 48.9123 2.16592 4.33839 0
M  V30 502 N 50.2554 -1.46986 0.568584 0
M  V30 503 C 51.4804 -2.07335 0.0520528 0
M  V30 504 C 51.9054 -1.41675 -1.23733 0
M  V30 505 O 51.2634 -0.495623 -1.74394 0
M  V30 506 C 51.3114 -3.60417 -0.11501 0
M  V30 507 O 50.4154 -3.95309 -1.17492 0
M  V30 508 H 49.7564 -0.661597 0.0564385 0
M  V30 509 H 52.2864 -1.88837 0.787507 0
M  V30 510 H 52.2964 -4.06698 -0.325644 0
M  V30 511 H 50.9714 -4.07601 0.826675 0
M  V30 512 H 49.5484 -3.60757 -0.943869 0
M  V30 513 N 51.7335 -0.305618 -1.54608 0
M  V30 514 C 52.9585 0.307562 -2.05107 0
M  V30 515 C 53.3835 1.46385 -1.18123 0
M  V30 516 O 52.7415 1.8034 -0.186324 0
M  V30 517 C 52.7895 0.73704 -3.52987 0
M  V30 518 O 51.8935 1.84134 -3.6901 0
M  V30 519 H 51.2345 0.0589143 -0.661381 0
M  V30 520 H 53.7645 -0.448807 -1.99617 0
M  V30 521 H 53.7745 1.02459 -3.94925 0
M  V30 522 H 52.4495 -0.108773 -4.15758 0
M  V30 523 H 51.0265 1.55398 -3.38978 0
M  V30 524 N 53.2116 1.57565 -0.0334293 0
M  V30 525 C 54.4606 1.91155 0.643639 0
M  V30 526 C 54.7736 0.91192 1.73042 0
M  V30 527 O 55.9796 1.13923 2.46442 0
M  V30 528 C 54.4356 3.39443 1.1961 0
M  V30 529 C 54.0436 4.47774 0.142381 0
M  V30 530 C 55.7876 3.82094 1.84944 0
M  V30 531 C 53.6946 5.87162 0.706727 0
M  V30 532 H 52.6246 0.713368 0.244176 0
M  V30 533 H 55.2756 1.8323 -0.0994323 0
M  V30 534 H 53.6576 3.42313 1.99092 0
M  V30 535 H 54.8316 4.56469 -0.630296 0
M  V30 536 H 53.1466 4.14352 -0.412446 0
M  V30 537 H 55.7436 4.83591 2.2813 0
M  V30 538 H 56.0866 3.17386 2.69392 0
M  V30 539 H 56.6196 3.81665 1.12145 0
M  V30 540 H 53.3586 6.55424 -0.0997178 0
M  V30 541 H 52.8786 5.82064 1.44779 0
M  V30 542 H 54.5576 6.35866 1.19514 0
M  V30 543 N 54.6897 -0.239769 1.55765 0
M  V30 544 C 55.9147 -0.988373 1.82335 0
M  V30 545 C 56.3397 -1.77886 0.611421 0
M  V30 546 O 55.6977 -1.75889 -0.439639 0
M  V30 547 C 55.7457 -1.89627 3.06715 0
M  V30 548 O 54.8497 -2.98904 2.84131 0
M  V30 549 H 54.1907 -0.280858 0.601677 0
M  V30 550 H 56.7207 -0.258597 2.02959 0
M  V30 551 H 56.7307 -2.30957 3.36338 0
M  V30 552 H 55.4057 -1.31511 3.9456 0
M  V30 553 H 53.9827 -2.61651 2.65694 0
M  V30 554 N 56.1678 -1.49265 -0.50573 0
M  V30 555 C 57.0978 -1.68495 -1.61653 0
M  V30 556 C 58.0788 -0.53366 -1.61512 0
M  V30 557 O 59.2638 -0.76897 -1.78327 0
M  V30 558 C 56.3938 -1.74709 -3.00157 0
M  V30 559 C 55.3478 -2.89581 -3.15162 0
M  V30 560 C 54.6738 -2.80903 -4.5497 0
M  V30 561 C 55.9738 -4.30578 -2.95634 0
M  V30 562 H 57.6678 -2.61493 -1.45814 0
M  V30 563 H 55.2138 -1.25838 -0.70005 0
M  V30 564 H 57.1668 -1.86748 -3.77761 0
M  V30 565 H 55.8908 -0.783067 -3.17074 0
M  V30 566 H 54.5498 -2.77136 -2.39982 0
M  V30 567 H 54.1978 -1.82419 -4.68756 0
M  V30 568 H 53.8978 -3.57999 -4.65951 0
M  V30 569 H 55.4218 -2.94944 -5.34641 0
M  V30 570 H 56.8358 -4.4373 -3.63011 0
M  V30 571 H 55.2328 -5.0886 -3.18091 0
M  V30 572 H 56.3028 -4.45352 -1.91806 0
M  V30 573 N 57.6459 0.756429 -1.3826 0
M  V30 574 C 58.8919 1.51772 -1.34511 0
M  V30 575 C 59.2249 1.94089 0.0656691 0
M  V30 576 O 58.4999 1.65221 1.02626 0
M  V30 577 C 58.7829 2.77226 -2.29821 0
M  V30 578 C 58.6359 2.41065 -3.79747 0
M  V30 579 C 59.9549 3.79236 -2.23312 0
M  V30 580 H 57.0739 0.550578 -0.489931 0
M  V30 581 H 59.7159 0.866607 -1.69086 0
M  V30 582 H 57.8659 3.32784 -2.00467 0
M  V30 583 H 59.5379 1.91303 -4.19763 0
M  V30 584 H 57.7809 1.7356 -3.97567 0
M  V30 585 H 58.4519 3.3081 -4.41892 0
M  V30 586 H 60.9279 3.3321 -2.49219 0
M  V30 587 H 59.8039 4.64714 -2.92116 0
M  V30 588 H 60.0649 4.24615 -1.23102 0
M  V30 589 N 59.124 1.23083 0.984299 0
M  V30 590 C 60.352 1.08714 1.76037 0
M  V30 591 C 60.767 -0.361691 1.85303 0
M  V30 592 O 60.124 -1.25034 1.32939 0
M  V30 593 C 60.175 1.70206 3.18923 0
M  V30 594 O 59.896 3.09423 3.10144 0
M  V30 595 C 61.397 1.61227 4.12941 0
M  V30 596 H 58.617 0.380664 0.552572 0
M  V30 597 H 61.161 1.62853 1.23689 0
M  V30 598 H 59.316 1.20109 3.6831 0
M  V30 599 H 59.73 3.39188 4.00065 0
M  V30 600 H 61.204 2.08962 5.10919 0
M  V30 601 H 61.681 0.570375 4.35481 0
M  V30 602 H 62.287 2.10671 3.69456 0
M  V30 603 N 60.6021 -1.18246 1.0419 0
M  V30 604 C 61.8481 -1.88536 0.747122 0
M  V30 605 C 62.1811 -1.80223 -0.723409 0
M  V30 606 O 61.4561 -1.20337 -1.52804 0
M  V30 607 C 61.7391 -3.38968 1.21544 0
M  V30 608 C 61.5921 -3.56084 2.74816 0
M  V30 609 C 62.9111 -4.32648 0.806482 0
M  V30 610 H 60.0301 -0.684619 0.272883 0
M  V30 611 H 62.6721 -1.39113 1.29413 0
M  V30 612 H 60.8221 -3.8119 0.750081 0
M  V30 613 H 62.4941 -3.22946 3.29399 0
M  V30 614 H 60.7371 -2.98699 3.14582 0
M  V30 615 H 61.4081 -4.61639 3.02644 0
M  V30 616 H 63.8841 -3.98211 1.20695 0
M  V30 617 H 62.7601 -5.36462 1.1619 0
M  V30 618 H 63.0211 -4.41146 -0.29029 0
M  V30 619 N 62.0802 -0.821533 -1.34494 0
M  V30 620 C 63.3282 -0.408139 -1.97936 0
M  V30 621 C 63.6492 1.03193 -1.65457 0
M  V30 622 O 62.9192 1.71622 -0.944595 0
M  V30 623 H 61.4992 -0.147928 -0.732206 0
M  V30 624 H 64.1612 -1.05067 -1.64155 0
M  V30 625 H 63.2572 -0.52601 -3.07635 0
M  V30 626 N 63.5583 1.46682 -0.576371 0
M  V30 627 C 64.4883 2.33028 0.148397 0
M  V30 628 C 65.4693 1.44961 0.889956 0
M  V30 629 O 66.6543 1.73789 0.866662 0
M  V30 630 C 63.7843 3.27117 1.1667 0
M  V30 631 C 62.7383 4.24575 0.540386 0
M  V30 632 C 62.0643 5.08126 1.6647 0
M  V30 633 C 63.3643 5.19722 -0.518331 0
M  V30 634 H 65.0583 2.93875 -0.572509 0
M  V30 635 H 62.6043 1.41315 -0.276768 0
M  V30 636 H 64.5573 3.86374 1.68204 0
M  V30 637 H 63.2813 2.64364 1.9178 0
M  V30 638 H 61.9403 3.66571 0.0461769 0
M  V30 639 H 61.5883 4.41762 2.40531 0
M  V30 640 H 61.2883 5.74122 1.25131 0
M  V30 641 H 62.8123 5.70246 2.18293 0
M  V30 642 H 64.2263 5.73232 -0.0883058 0
M  V30 643 H 62.6233 5.94026 -0.851679 0
M  V30 644 H 63.6933 4.64037 -1.40703 0
M  V30 645 N 65.0364 0.313813 1.54444 0
M  V30 646 C 65.9844 -0.572171 2.25453 0
M  V30 647 C 66.9784 -1.12657 1.2651 0
M  V30 648 O 68.1844 -1.07573 1.44319 0
M  V30 649 H 64.5594 -0.203146 0.724041 0
M  V30 650 H 66.5304 0.0491145 2.9836 0
M  V30 651 C 65.2794 -1.72626 3.0182 0
M  V30 652 H 64.6024 -1.30891 3.77767 0
M  V30 653 H 66.0424 -2.32199 3.54767 0
M  V30 654 C 64.5014 -2.63806 2.09542 0
M  V30 655 O 65.0314 -3.65256 1.67185 0
M  V30 656 N 63.2374 -2.31824 1.75232 0
M  V30 657 H 62.7844 -1.49368 2.09873 0
M  V30 658 H 62.7424 -2.93095 1.13767 0
M  V30 659 N 66.5145 -1.57545 0.0417849 0
M  V30 660 C 67.4445 -2.14009 -0.933929 0
M  V30 661 C 68.4255 -1.05938 -1.33083 0
M  V30 662 O 69.6105 -1.33833 -1.40721 0
M  V30 663 C 66.7405 -2.67747 -2.21199 0
M  V30 664 C 65.6945 -3.80718 -1.95544 0
M  V30 665 C 65.0205 -4.20935 -3.29724 0
M  V30 666 C 66.3205 -5.06258 -1.28452 0
M  V30 667 H 68.0145 -2.95788 -0.463645 0
M  V30 668 H 65.5605 -1.42285 -0.221573 0
M  V30 669 H 67.5135 -3.05886 -2.89848 0
M  V30 670 H 66.2375 -1.83147 -2.70416 0
M  V30 671 H 64.8965 -3.43037 -1.2931 0
M  V30 672 H 64.5445 -3.33298 -3.76724 0
M  V30 673 H 64.2445 -4.9707 -3.13361 0
M  V30 674 H 65.7685 -4.61666 -3.9962 0
M  V30 675 H 67.1825 -5.41903 -1.8712 0
M  V30 676 H 65.5795 -5.87475 -1.22445 0
M  V30 677 H 66.6495 -4.84207 -0.259219 0
M  V30 678 N 67.9926 0.231505 -1.5589 0
M  V30 679 C 68.9226 1.29022 -1.94617 0
M  V30 680 C 69.9036 1.4941 -0.813067 0
M  V30 681 O 71.0886 1.6176 -1.07459 0
M  V30 682 C 68.2186 2.64199 -2.25424 0
M  V30 683 C 67.1726 2.58484 -3.41131 0
M  V30 684 C 66.4986 3.97599 -3.57518 0
M  V30 685 C 67.7986 2.1413 -4.76388 0
M  V30 686 H 69.4926 0.968563 -2.83301 0
M  V30 687 H 67.0386 0.464479 -1.36303 0
M  V30 688 H 68.9916 3.38413 -2.51107 0
M  V30 689 H 67.7156 2.98032 -1.33583 0
M  V30 690 H 66.3746 1.86727 -3.15481 0
M  V30 691 H 66.0226 4.28723 -2.6307 0
M  V30 692 H 65.7226 3.94659 -4.35337 0
M  V30 693 H 67.2466 4.7349 -3.85538 0
M  V30 694 H 68.6606 2.78083 -5.01341 0
M  V30 695 H 67.0576 2.2227 -5.57419 0
M  V30 696 H 68.1276 1.09331 -4.72414 0
M  V30 697 N 69.4707 1.49531 0.497807 0
M  V30 698 C 70.7167 1.59415 1.25358 0
M  V30 699 C 71.0497 0.281422 1.9215 0
M  V30 700 O 70.3247 -0.715249 1.80871 0
M  V30 701 C 70.6077 2.75566 2.3181 0
M  V30 702 C 70.4607 4.16642 1.69498 0
M  V30 703 C 71.7797 2.87347 3.33346 0
M  V30 704 H 68.8987 0.580244 0.454408 0
M  V30 705 H 71.5407 1.81827 0.551262 0
M  V30 706 H 69.6907 2.56587 2.91711 0
M  V30 707 H 71.3627 4.47145 1.13399 0
M  V30 708 H 69.6057 4.22141 0.998978 0
M  V30 709 H 70.2767 4.93792 2.46725 0
M  V30 710 H 72.7527 3.04634 2.83438 0
M  V30 711 H 71.6287 3.70289 4.05188 0
M  V30 712 H 71.8897 1.96834 3.95865 0
M  V30 713 N 70.9488 -0.749086 1.3866 0
M  V30 714 C 71.8788 -1.8764 1.38973 0
M  V30 715 C 72.8598 -1.68178 0.255004 0
M  V30 716 O 74.0448 -1.88704 0.458754 0
M  V30 717 C 71.1748 -3.25222 1.21851 0
M  V30 718 C 70.1288 -3.59295 2.32575 0
M  V30 719 C 69.4548 -4.95663 2.00555 0
M  V30 720 C 70.7548 -3.63709 3.7485 0
M  V30 721 H 72.4488 -1.87635 2.3331 0
M  V30 722 H 69.9948 -0.901329 1.12303 0
M  V30 723 H 71.9478 -4.03746 1.20695 0
M  V30 724 H 70.6718 -3.25719 0.239775 0
M  V30 725 H 69.3308 -2.83093 2.32925 0
M  V30 726 H 68.9788 -4.92724 1.01154 0
M  V30 727 H 68.6788 -5.19429 2.74714 0
M  V30 728 H 70.2028 -5.7656 2.01024 0
M  V30 729 H 71.6168 -4.32338 3.76506 0
M  V30 730 H 70.0138 -3.98986 4.48252 0
M  V30 731 H 71.0838 -2.63834 4.06841 0
M  V30 732 N 72.4269 -1.23603 -0.977757 0
M  V30 733 C 73.6569 -1.09487 -1.75203 0
M  V30 734 C 74.0649 0.356321 -1.85814 0
M  V30 735 O 73.4079 1.25816 -1.33851 0
M  V30 736 C 73.4699 -1.64905 -3.19447 0
M  V30 737 C 73.1339 -3.13688 -3.32338 0
M  V30 738 C 74.1309 -4.10953 -3.18455 0
M  V30 739 C 71.8159 -3.53449 -3.56902 0
M  V30 740 C 73.8099 -5.45962 -3.28944 0
M  V30 741 C 71.4969 -4.88602 -3.6703 0
M  V30 742 C 72.4949 -5.84668 -3.53062 0
M  V30 743 O 72.1829 -7.17365 -3.62826 0
M  V30 744 H 71.9149 -0.38367 -0.556573 0
M  V30 745 H 74.4689 -1.6398 -1.23693 0
M  V30 746 H 72.6989 -1.04835 -3.72218 0
M  V30 747 H 74.3879 -1.46226 -3.78646 0
M  V30 748 H 75.1539 -3.81577 -2.99372 0
M  V30 749 H 71.0329 -2.79188 -3.66844 0
M  V30 750 H 74.5769 -6.20925 -3.17958 0
M  V30 751 H 70.4739 -5.17653 -3.85623 0
M  V30 752 H 71.2419 -7.2515 -3.79605 0
M  V30 753 N 73.905 1.17692 -1.04816 0
M  V30 754 C 74.868 2.19787 -0.650117 0
M  V30 755 C 75.868 1.58044 0.296427 0
M  V30 756 O 77.058 1.74012 0.0808097 0
M  V30 757 C 74.19 3.40869 0.0456987 0
M  V30 758 H 75.383 2.56516 -1.5537 0
M  V30 759 H 72.936 1.31708 -0.841594 0
M  V30 760 H 73.671 3.09681 0.962726 0
M  V30 761 H 73.456 3.86928 -0.634727 0
M  V30 762 H 74.946 4.16445 0.310432 0
M  V30 763 N 75.3831 0.828654 1.34056 0
M  V30 764 C 76.6291 0.42008 1.98402 0
M  V30 765 C 76.9621 -1.01564 1.65525 0
M  V30 766 O 76.2371 -1.70834 0.929831 0
M  V30 767 C 76.5201 0.62927 3.54559 0
M  V30 768 C 76.3731 2.11152 3.97159 0
M  V30 769 C 77.6921 0.0688756 4.40046 0
M  V30 770 H 74.8111 0.154104 0.720709 0
M  V30 771 H 77.4531 1.04228 1.5886 0
M  V30 772 H 75.6031 0.0996418 3.88372 0
M  V30 773 H 77.2751 2.70522 3.73651 0
M  V30 774 H 75.5181 2.59985 3.47261 0
M  V30 775 H 76.1891 2.20868 5.05887 0
M  V30 776 H 78.6651 0.521458 4.1282 0
M  V30 777 H 77.5411 0.245006 5.48353 0
M  V30 778 H 77.8021 -1.0266 4.30015 0
M  V30 779 N 76.8612 -1.46375 0.584142 0
M  V30 780 C 78.2772 -1.57694 0.245929 0
M  V30 781 C 78.4772 -1.57903 -1.25175 0
M  V30 782 O 77.5332 -1.49676 -2.03355 0
M  V30 783 C 78.8462 -2.87028 0.896402 0
M  V30 784 C 80.3942 -3.00662 0.870127 0
M  V30 785 C 80.8692 -4.32734 1.50017 0
M  V30 786 N 82.3602 -4.39436 1.46458 0
M  V30 787 C 83.0952 -5.40248 1.92144 0
M  V30 788 N 82.5912 -6.47726 2.4581 0
M  V30 789 N 84.3842 -5.31459 1.83052 0
M  V30 790 H 76.5352 -1.44483 1.55687 0
M  V30 791 H 78.7982 -0.689291 0.650831 0
M  V30 792 H 78.5042 -2.9269 1.95002 0
M  V30 793 H 78.3782 -3.75014 0.405486 0
M  V30 794 H 80.7652 -2.94581 -0.174871 0
M  V30 795 H 80.8462 -2.14148 1.39908 0
M  V30 796 H 80.4902 -4.39573 2.54437 0
M  V30 797 H 80.4202 -5.18025 0.946432 0
M  V30 798 H 82.9112 -3.62367 1.07231 0
M  V30 799 H 83.2242 -7.20863 2.78525 0
M  V30 800 H 81.5692 -6.48542 2.49836 0
M  V30 801 H 84.7602 -4.46396 1.40883 0
M  V30 802 H 84.9332 -6.09881 2.18973 0
M  V30 803 N 78.3393 -0.321999 -1.54275 0
M  V30 804 C 79.5643 0.285791 -2.05422 0
M  V30 805 C 79.9893 1.45124 -1.19669 0
M  V30 806 O 79.3473 1.80132 -0.205441 0
M  V30 807 C 79.3953 0.69956 -3.53749 0
M  V30 808 O 78.4993 1.8021 -3.70942 0
M  V30 809 H 77.8403 0.0518962 -0.661969 0
M  V30 810 H 80.3703 -0.469954 -1.9913 0
M  V30 811 H 80.3803 0.982649 -3.9599 0
M  V30 812 H 79.0553 -0.152864 -4.15619 0
M  V30 813 H 77.6323 1.51794 -3.40607 0
M  V30 814 N 79.8174 1.5752 -0.0501392 0
M  V30 815 C 80.7274 2.14952 0.939827 0
M  V30 816 C 81.7434 1.10706 1.34239 0
M  V30 817 O 82.9194 1.42869 1.41952 0
M  V30 818 C 79.9844 2.68232 2.19665 0
M  V30 819 C 79.0454 3.87272 1.85253 0
M  V30 820 C 78.2784 4.38002 3.04943 0
M  V30 821 O 78.5014 3.87811 4.18281 0
M  V30 822 O 77.4354 5.29602 2.86017 0
M  V30 823 H 81.2614 2.9986 0.481392 0
M  V30 824 H 78.8464 1.4841 0.171699 0
M  V30 825 H 80.7284 3.02475 2.93406 0
M  V30 826 H 79.4034 1.86395 2.64648 0
M  V30 827 H 78.3104 3.5792 1.0883 0
M  V30 828 H 79.6434 4.70336 1.4507 0
M  V30 829 N 81.2955 -0.223234 1.56011 0
M  V30 830 C 82.7115 -0.572856 1.48965 0
M  V30 831 C 82.9115 -1.87225 0.74492 0
M  V30 832 O 81.9675 -2.50899 0.283896 0
M  V30 833 C 83.2805 -0.653646 2.9351 0
M  V30 834 C 84.8285 -0.744386 3.0402 0
M  V30 835 C 85.3035 -0.856535 4.49919 0
M  V30 836 N 86.7945 -0.9208 4.53955 0
M  V30 837 C 87.5295 -1.02726 5.64123 0
M  V30 838 N 87.0255 -1.09777 6.84047 0
M  V30 839 N 88.8185 -1.06226 5.51971 0
M  V30 840 H 80.9695 0.629462 2.02858 0
M  V30 841 H 83.2325 0.220621 0.921971 0
M  V30 842 H 82.9385 0.231518 3.50937 0
M  V30 843 H 82.8125 -1.51781 3.45315 0
M  V30 844 H 85.1995 -1.61999 2.46658 0
M  V30 845 H 85.2805 0.14541 2.55386 0
M  V30 846 H 84.9245 0.0146069 5.07898 0
M  V30 847 H 84.8545 -1.76172 4.96257 0
M  V30 848 H 87.3455 -0.876694 3.6759 0
M  V30 849 H 87.6585 -1.17872 7.63758 0
M  V30 850 H 86.0035 -1.06693 6.86762 0
M  V30 851 H 89.1945 -1.00382 4.5721 0
M  V30 852 H 89.3675 -1.14177 6.37862 0
M  V30 853 N 82.7736 -1.49793 -0.48987 0
M  V30 854 C 83.7206 -1.67281 -1.59014 0
M  V30 855 C 84.6906 -0.514177 -1.57941 0
M  V30 856 O 85.8756 -0.742533 -1.75759 0
M  V30 857 C 83.0156 -1.75569 -2.97102 0
M  V30 858 C 82.1286 -3.0281 -3.08107 0
M  V30 859 C 81.2636 -3.02008 -4.36995 0
M  V30 860 C 80.3026 -4.23782 -4.41673 0
M  V30 861 N 79.4396 -4.20826 -5.62005 0
M  V30 862 H 84.2796 -2.61224 -1.43409 0
M  V30 863 H 81.8166 -1.29508 -0.697565 0
M  V30 864 H 83.7746 -1.78354 -3.77155 0
M  V30 865 H 82.4046 -0.850827 -3.11385 0
M  V30 866 H 81.4566 -3.09584 -2.21047 0
M  V30 867 H 82.7686 -3.92801 -3.07423 0
M  V30 868 H 81.9226 -3.03418 -5.25378 0
M  V30 869 H 80.6616 -2.09815 -4.4026 0
M  V30 870 H 79.6666 -4.22604 -3.5169 0
M  V30 871 H 80.8916 -5.17181 -4.40115 0
M  V30 872 H 78.8376 -3.31476 -5.66091 0
M  V30 873 H 78.7546 -5.04564 -5.62984 0
M  V30 874 H 80.0226 -4.26355 -6.52565 0
M  V30 875 N 84.2517 0.741722 -1.39055 0
M  V30 876 C 85.1817 1.869 -1.39966 0
M  V30 877 C 86.1627 1.6804 -0.26392 0
M  V30 878 O 87.3477 1.88458 -0.468755 0
M  V30 879 C 84.4777 3.24572 -1.23574 0
M  V30 880 C 83.4317 3.58056 -2.34477 0
M  V30 881 C 82.7577 4.94593 -2.0318 0
M  V30 882 C 84.0577 3.61716 -3.76774 0
M  V30 883 H 85.7517 1.86395 -2.34302 0
M  V30 884 H 83.2977 0.895361 -1.1278 0
M  V30 885 H 85.2507 4.031 -1.22834 0
M  V30 886 H 83.9747 3.25587 -0.257045 0
M  V30 887 H 82.6337 2.81854 -2.34423 0
M  V30 888 H 82.2817 4.92181 -1.03765 0
M  V30 889 H 81.9817 5.17964 -2.77465 0
M  V30 890 H 83.5057 5.75486 -2.04079 0
M  V30 891 H 84.9197 4.30335 -3.78794 0
M  V30 892 H 83.3167 3.96603 -4.50362 0
M  V30 893 H 84.3867 2.61672 -4.08235 0
M  V30 894 N 85.7298 1.2412 0.971189 0
M  V30 895 C 86.6798 0.997551 2.05019 0
M  V30 896 C 87.6638 -0.0597747 1.60789 0
M  V30 897 O 88.8558 0.153516 1.76333 0
M  V30 898 C 85.9848 0.600557 3.38006 0
M  V30 899 C 85.0708 1.69377 3.88809 0
M  V30 900 N 85.4618 2.92586 4.12586 0
M  V30 901 C 83.7598 1.57048 4.17435 0
M  V30 902 C 84.4608 3.63431 4.54195 0
M  V30 903 N 83.4368 2.90979 4.59165 0
M  V30 904 H 87.2388 1.93316 2.21374 0
M  V30 905 H 84.7528 1.14194 1.1547 0
M  V30 906 H 86.7498 0.40725 4.14906 0
M  V30 907 H 85.4098 -0.327903 3.2304 0
M  V30 908 H 86.4208 3.288 4.00139 0
M  V30 909 H 83.0978 0.709798 4.11422 0
M  V30 910 H 84.4878 4.69102 4.81033 0
M  V30 911 N 87.2079 -1.17134 1.05439 0
M  V30 912 C 88.4359 -1.91372 0.786414 0
M  V30 913 C 88.8509 -1.76955 -0.658202 0
M  V30 914 O 88.2079 -1.10838 -1.44987 0
M  V30 915 C 88.2589 -3.42356 1.1608 0
M  V30 916 O 87.9799 -3.56332 2.54871 0
M  V30 917 C 89.4809 -4.33663 0.919322 0
M  V30 918 H 86.7009 -0.607118 0.285743 0
M  V30 919 H 89.2449 -1.48525 1.40572 0
M  V30 920 H 87.3999 -3.82939 0.586191 0
M  V30 921 H 87.8139 -4.49896 2.69618 0
M  V30 922 H 89.2879 -5.38099 1.231 0
M  V30 923 H 89.7649 -4.38959 -0.145359 0
M  V30 924 H 90.3709 -3.98796 1.47789 0
M  V30 925 N 88.686 -0.835752 -1.33615 0
M  V30 926 C 89.932 -0.430596 -1.98176 0
M  V30 927 C 90.265 1.00684 -1.66061 0
M  V30 928 O 89.54 1.70339 -0.938877 0
M  V30 929 C 89.823 -0.648065 -3.5422 0
M  V30 930 C 89.676 -2.13255 -3.96033 0
M  V30 931 C 90.995 -0.0922113 -4.40003 0
M  V30 932 H 88.114 -0.157924 -0.719881 0
M  V30 933 H 90.756 -1.05069 -1.58305 0
M  V30 934 H 88.906 -0.120237 -3.88314 0
M  V30 935 H 90.578 -2.725 -3.72211 0
M  V30 936 H 88.821 -2.61823 -3.45878 0
M  V30 937 H 89.492 -2.23547 -5.04708 0
M  V30 938 H 91.968 -0.543343 -4.12537 0
M  V30 939 H 90.844 -0.274083 -5.48215 0
M  V30 940 H 91.105 1.00378 -4.30554 0
M  V30 941 N 90.1641 1.46063 -0.591896 0
M  V30 942 C 91.4121 2.01938 -0.0808391 0
M  V30 943 C 91.7331 1.46475 1.28725 0
M  V30 944 O 91.0031 0.652944 1.84698 0
M  V30 945 H 89.5831 0.746516 -0.0268938 0
M  V30 946 H 92.2451 1.79055 -0.769752 0
M  V30 947 H 91.3411 3.12094 -0.0187578 0
M  V30 948 N 91.6422 0.330177 1.54103 0
M  V30 949 C 92.5902 -0.548226 2.26047 0
M  V30 950 C 93.5842 -1.11309 1.27698 0
M  V30 951 O 94.7902 -1.06036 1.45452 0
M  V30 952 H 91.1652 -0.195456 0.726155 0
M  V30 953 H 93.1362 0.0807567 2.98291 0
M  V30 954 C 91.8852 -1.69415 3.03634 0
M  V30 955 H 91.2082 -1.26876 3.79134 0
M  V30 956 H 92.6482 -2.28423 3.5721 0
M  V30 957 C 91.1072 -2.61569 2.12328 0
M  V30 958 O 91.6372 -3.63462 1.7105 0
M  V30 959 N 89.8432 -2.29952 1.77681 0
M  V30 960 H 89.3902 -1.47134 2.11446 0
M  V30 961 H 89.3482 -2.91871 1.16869 0
M  V30 962 N 93.1203 -1.57491 0.0584922 0
M  V30 963 C 94.0503 -2.14988 -0.911178 0
M  V30 964 C 95.0313 -1.07343 -1.31952 0
M  V30 965 O 96.2163 -1.35318 -1.39294 0
M  V30 966 C 93.3463 -2.70078 -2.18347 0
M  V30 967 C 92.3003 -3.82771 -1.91495 0
M  V30 968 C 91.6263 -4.24408 -3.25241 0
M  V30 969 C 92.9263 -5.07592 -1.23075 0
M  V30 970 H 94.6203 -2.96263 -0.432246 0
M  V30 971 H 92.1663 -1.42512 -0.206469 0
M  V30 972 H 94.1193 -3.08943 -2.86587 0
M  V30 973 H 92.8433 -1.86005 -2.68458 0
M  V30 974 H 91.5023 -3.44389 -1.25664 0
M  V30 975 H 91.1503 -3.37275 -3.73168 0
M  V30 976 H 90.8503 -5.00366 -3.08071 0
M  V30 977 H 92.3743 -4.65879 -3.94701 0
M  V30 978 H 93.7883 -5.43857 -1.81362 0
M  V30 979 H 92.1853 -5.88741 -1.16207 0
M  V30 980 H 93.2553 -4.84454 -0.207847 0
M  V30 981 N 94.5984 0.214957 -1.56127 0
M  V30 982 C 95.8284 0.953707 -1.8327 0
M  V30 983 C 96.2364 1.78181 -0.636262 0
M  V30 984 O 95.5794 1.79191 0.404516 0
M  V30 985 C 95.6414 1.91516 -3.0424 0
M  V30 986 C 95.3054 1.27094 -4.38972 0
M  V30 987 C 96.3024 0.657575 -5.15725 0
M  V30 988 C 93.9874 1.28073 -4.85698 0
M  V30 989 C 95.9814 0.0625968 -6.37369 0
M  V30 990 C 93.6684 0.681914 -6.07283 0
M  V30 991 C 94.6664 0.0739046 -6.8296 0
M  V30 992 O 94.3544 -0.515582 -8.02245 0
M  V30 993 H 94.0864 0.284764 -0.613095 0
M  V30 994 H 96.6404 0.233283 -2.04071 0
M  V30 995 H 94.8704 2.67475 -2.79274 0
M  V30 996 H 96.5594 2.52001 -3.18198 0
M  V30 997 H 97.3254 0.642288 -4.80728 0
M  V30 998 H 93.2044 1.74337 -4.26764 0
M  V30 999 H 96.7484 -0.412593 -6.96379 0
M  V30 1000 H 92.6454 0.694636 -6.41752 0
M  V30 1001 H 93.4134 -0.410544 -8.1747 0
M  V30 1002 N 96.0765 1.50051 0.48192 0
M  V30 1003 C 97.3255 1.59741 1.23149 0
M  V30 1004 C 97.6385 0.298163 1.93314 0
M  V30 1005 O 98.8445 0.273835 2.70116 0
M  V30 1006 C 97.3005 2.81926 2.23708 0
M  V30 1007 C 96.9085 4.18685 1.59396 0
M  V30 1008 C 98.6525 3.00956 2.99375 0
M  V30 1009 C 96.5595 5.3207 2.58178 0
M  V30 1010 H 95.4895 0.594838 0.46334 0
M  V30 1011 H 98.1405 1.76467 0.503169 0
M  V30 1012 H 96.5225 2.58736 2.99786 0
M  V30 1013 H 97.6965 4.52088 0.891811 0
M  V30 1014 H 96.0115 4.05171 0.960503 0
M  V30 1015 H 98.6085 3.82836 3.73283 0
M  V30 1016 H 98.9515 2.12258 3.58123 0
M  V30 1017 H 99.4845 3.24277 2.30411 0
M  V30 1018 H 96.2235 6.22888 2.04184 0
M  V30 1019 H 95.7435 5.03098 3.26577 0
M  V30 1020 H 97.4225 5.62196 3.20225 0
M  V30 1021 N 97.5546 -0.734337 1.39446 0
M  V30 1022 C 98.8006 -1.49613 1.36908 0
M  V30 1023 C 99.1336 -1.94169 -0.0347829 0
M  V30 1024 O 98.4086 -1.66833 -0.999847 0
M  V30 1025 C 98.6916 -2.73534 2.34203 0
M  V30 1026 C 98.5446 -2.34993 3.83534 0
M  V30 1027 C 99.8636 -3.75635 2.29317 0
M  V30 1028 H 96.9826 -0.542714 0.498629 0
M  V30 1029 H 99.6246 -0.839597 1.70443 0
M  V30 1030 H 97.7746 -3.29553 2.05736 0
M  V30 1031 H 99.4466 -1.84601 4.22753 0
M  V30 1032 H 97.6896 -1.67213 4.00278 0
M  V30 1033 H 98.3606 -3.23738 4.47099 0
M  V30 1034 H 100.837 -3.29203 2.54489 0
M  V30 1035 H 99.7126 -4.60008 2.99472 0
M  V30 1036 H 99.9736 -4.22603 1.29842 0
M  V30 1037 N 99.0327 -1.24633 -0.964593 0
M  V30 1038 C 100.258 -1.11596 -1.74818 0
M  V30 1039 C 100.683 0.32723 -1.85232 0
M  V30 1040 O 100.041 1.23695 -1.32549 0
M  V30 1041 C 100.089 -1.76397 -3.1451 0
M  V30 1042 O 99.1927 -1.03685 -3.99153 0
M  V30 1043 H 98.5337 -0.390196 -0.537255 0
M  V30 1044 H 101.064 -1.65002 -1.20977 0
M  V30 1045 H 101.074 -1.8228 -3.65018 0
M  V30 1046 H 99.7487 -2.81401 -3.06246 0
M  V30 1047 H 98.3257 -1.05611 -3.57632 0
M  V30 1048 N 100.511 1.16574 -1.06058 0
M  V30 1049 C 101.441 2.23057 -0.690488 0
M  V30 1050 C 102.422 1.67141 0.315901 0
M  V30 1051 O 103.607 1.93253 0.191556 0
M  V30 1052 C 100.737 3.47222 -0.073625 0
M  V30 1053 C 99.6908 4.16016 -1.00573 0
M  V30 1054 C 99.0168 5.34104 -0.252289 0
M  V30 1055 C 100.317 4.67264 -2.33371 0
M  V30 1056 H 102.011 2.54271 -1.58072 0
M  V30 1057 H 99.5568 1.22218 -0.76149 0
M  V30 1058 H 101.51 4.20939 0.19714 0
M  V30 1059 H 100.234 3.15302 0.85161 0
M  V30 1060 H 98.8928 3.44223 -1.2612 0
M  V30 1061 H 98.5408 4.98437 0.675988 0
M  V30 1062 H 98.2408 5.81072 -0.873455 0
M  V30 1063 H 99.7648 6.10599 0.0109857 0
M  V30 1064 H 101.179 5.32573 -2.12223 0
M  V30 1065 H 99.5758 5.24843 -2.90963 0
M  V30 1066 H 100.646 3.83602 -2.96611 0
M  V30 1067 N 101.989 0.842826 1.3317 0
M  V30 1068 C 103.214 0.453129 2.02389 0
M  V30 1069 C 103.639 -0.939105 1.6298 0
M  V30 1070 O 102.997 -1.61472 0.8244 0
M  V30 1071 C 103.045 0.586094 3.55805 0
M  V30 1072 O 102.149 -0.386029 4.10589 0
M  V30 1073 H 101.49 0.183664 0.638094 0
M  V30 1074 H 104.02 1.13875 1.69981 0
M  V30 1075 H 104.03 0.469209 4.05293 0
M  V30 1076 H 102.705 1.6014 3.83833 0
M  V30 1077 H 101.282 -0.226371 3.72212 0
M  V30 1078 N 103.467 -1.45747 0.599634 0
M  V30 1079 C 104.713 -2.02592 0.0918643 0
M  V30 1080 C 105.046 -1.46806 -1.27128 0
M  V30 1081 O 104.321 -0.639658 -1.83681 0
M  V30 1082 C 104.604 -3.60073 0.0443398 0
M  V30 1083 C 104.457 -4.26208 1.43759 0
M  V30 1084 C 105.776 -4.35309 -0.647608 0
M  V30 1085 H 102.895 -0.736175 0.034857 0
M  V30 1086 H 105.537 -1.73694 0.770081 0
M  V30 1087 H 103.687 -3.84823 -0.533224 0
M  V30 1088 H 105.359 -4.12668 2.06162 0
M  V30 1089 H 103.602 -3.84916 2.00056 0
M  V30 1090 H 104.273 -5.35069 1.35665 0
M  V30 1091 H 106.749 -4.15805 -0.156776 0
M  V30 1092 H 105.625 -5.45038 -0.649942 0
M  V30 1093 H 105.886 -4.07598 -1.71219 0
M  V30 1094 N 104.945 -0.338344 -1.53925 0
M  V30 1095 C 105.908 0.508299 -2.23493 0
M  V30 1096 C 106.908 1.03175 -1.23335 0
M  V30 1097 O 108.098 0.921826 -1.47811 0
M  V30 1098 C 105.23 1.70754 -2.95052 0
M  V30 1099 H 106.423 -0.100058 -2.99733 0
M  V30 1100 H 103.976 -0.0896198 -1.56043 0
M  V30 1101 H 104.711 2.35474 -2.22986 0
M  V30 1102 H 104.496 1.33946 -3.68512 0
M  V30 1103 H 105.986 2.30818 -3.48013 0
M  V30 1104 N 106.423 1.57458 -0.0668435 0
M  V30 1105 C 107.7 1.8469 0.644132 0
M  V30 1106 C 108.08 0.958343 1.88093 0
M  V30 1107 O 107.428 0.0233579 2.28488 0
M  V30 1108 C 107.638 3.34767 0.986509 0
M  V30 1109 C 108.986 4.02159 1.36212 0
M  V30 1110 O 110.01 3.39484 1.07839 0
M  V30 1111 O 108.869 5.12694 1.89227 0
M  V30 1112 H 105.963 0.762816 0.319437 0
M  V30 1113 H 108.509 1.6942 -0.0973986 0
M  V30 1114 H 107.281 3.91151 0.107883 0
M  V30 1115 H 106.904 3.55281 1.78497 0
M  V30 1116 N 107.901 -0.206675 1.56239 0
M  V30 1117 C 108.831 -1.25909 1.96645 0
M  V30 1118 C 109.812 -1.48097 0.836734 0
M  V30 1119 O 110.997 -1.6003 1.10019 0
M  V30 1120 C 108.127 -2.6058 2.29599 0
M  V30 1121 C 107.081 -2.53024 3.452 0
M  V30 1122 C 106.407 -3.91861 3.63798 0
M  V30 1123 C 107.707 -2.06524 4.79734 0
M  V30 1124 H 109.401 -0.923369 2.84806 0
M  V30 1125 H 106.947 -0.442735 1.37025 0
M  V30 1126 H 108.9 -3.34375 2.56459 0
M  V30 1127 H 107.624 -2.95869 1.38307 0
M  V30 1128 H 106.283 -1.81684 3.18412 0
M  V30 1129 H 105.931 -4.24483 2.69857 0
M  V30 1130 H 105.631 -3.87683 4.4156 0
M  V30 1131 H 107.155 -4.67296 3.93022 0
M  V30 1132 H 108.569 -2.70072 5.05702 0
M  V30 1133 H 106.966 -2.13374 5.60885 0
M  V30 1134 H 108.036 -1.01802 4.74093 0
M  V30 1135 N 109.379 -1.50304 -0.473955 0
M  V30 1136 C 110.628 -1.60392 -1.22301 0
M  V30 1137 C 110.941 -0.308411 -1.93153 0
M  V30 1138 O 112.147 -0.288156 -2.69966 0
M  V30 1139 C 110.603 -2.83109 -2.2221 0
M  V30 1140 C 110.211 -4.19524 -1.57173 0
M  V30 1141 C 111.955 -3.0254 -2.97775 0
M  V30 1142 C 109.862 -5.33431 -2.55353 0
M  V30 1143 H 108.792 -0.597286 -0.460179 0
M  V30 1144 H 111.443 -1.76731 -0.493803 0
M  V30 1145 H 109.825 -2.60322 -2.9841 0
M  V30 1146 H 110.999 -4.52554 -0.867824 0
M  V30 1147 H 109.314 -4.05674 -0.939002 0
M  V30 1148 H 111.911 -3.84811 -3.71248 0
M  V30 1149 H 112.254 -2.14154 -3.56992 0
M  V30 1150 H 112.787 -3.25494 -2.28688 0
M  V30 1151 H 109.526 -6.23962 -2.00878 0
M  V30 1152 H 109.046 -5.04823 -3.23904 0
M  V30 1153 H 110.725 -5.63887 -3.17239 0
M  V30 1154 N 110.857 0.726932 -1.39834 0
M  V30 1155 C 112.103 1.48884 -1.377 0
M  V30 1156 C 112.436 1.94185 0.0244852 0
M  V30 1157 O 111.711 1.67361 0.990986 0
M  V30 1158 C 111.994 2.72288 -2.3565 0
M  V30 1159 C 111.847 2.32956 -3.84775 0
M  V30 1160 C 113.166 3.74414 -2.31306 0
M  V30 1161 H 110.285 0.540062 -0.5015 0
M  V30 1162 H 112.927 0.830547 -1.70886 0
M  V30 1163 H 111.077 3.28457 -2.07481 0
M  V30 1164 H 112.749 1.82356 -4.23726 0
M  V30 1165 H 110.992 1.65088 -4.01159 0
M  V30 1166 H 111.663 3.21362 -4.4881 0
M  V30 1167 H 114.139 3.27849 -2.56231 0
M  V30 1168 H 113.015 4.58414 -3.01907 0
M  V30 1169 H 113.276 4.21909 -1.32081 0
M  V30 1170 N 112.336 1.25143 0.95797 0
M  V30 1171 C 113.584 1.09476 1.69881 0
M  V30 1172 C 113.905 -0.365502 1.91544 0
M  V30 1173 O 113.175 -1.25985 1.50015 0
M  V30 1174 H 111.755 0.402128 0.629525 0
M  V30 1175 H 114.417 1.57214 1.15194 0
M  V30 1176 H 113.513 1.60046 2.6794 0
M  V30 1177 N 113.814 -1.1601 1.06675 0
M  V30 1178 C 114.777 -2.18724 0.685001 0
M  V30 1179 C 115.777 -1.58496 -0.271246 0
M  V30 1180 O 116.967 -1.74119 -0.0531156 0
M  V30 1181 C 114.099 -3.40899 0.00853648 0
M  V30 1182 H 115.292 -2.54011 1.59431 0
M  V30 1183 H 112.845 -1.30352 0.862441 0
M  V30 1184 H 113.58 -3.11173 -0.913337 0
M  V30 1185 H 113.365 -3.8587 0.696204 0
M  V30 1186 H 114.855 -4.16886 -0.24414 0
M  V30 1187 N 115.292 -0.849877 -1.32721 0
M  V30 1188 C 116.538 -0.451591 -1.97708 0
M  V30 1189 C 116.871 0.989175 -1.6712 0
M  V30 1190 O 116.146 1.69334 -0.956891 0
M  V30 1191 C 116.429 -0.685598 -3.53513 0
M  V30 1192 C 116.282 -2.17444 -3.93749 0
M  V30 1193 C 117.601 -0.138874 -4.39881 0
M  V30 1194 H 114.72 -0.16555 -0.718166 0
M  V30 1195 H 117.362 -1.06742 -1.57182 0
M  V30 1196 H 115.512 -0.161416 -3.88165 0
M  V30 1197 H 117.184 -2.76433 -3.693 0
M  V30 1198 H 115.427 -2.65476 -3.43081 0
M  V30 1199 H 116.098 -2.28888 -5.02309 0
M  V30 1200 H 118.574 -0.587068 -4.11938 0
M  V30 1201 H 117.45 -0.332213 -5.47894 0
M  V30 1202 H 117.711 0.95806 -4.31594 0
M  V30 1203 N 116.77 1.45427 -0.607355 0
M  V30 1204 C 118.016 2.0254 -0.102607 0
M  V30 1205 C 118.349 1.47478 1.26348 0
M  V30 1206 O 117.624 0.64939 1.83339 0
M  V30 1207 C 117.907 3.60044 -0.0634347 0
M  V30 1208 C 117.76 4.2544 -1.46017 0
M  V30 1209 C 119.079 4.35646 0.624514 0
M  V30 1210 H 116.198 0.73598 -0.0387607 0
M  V30 1211 H 118.84 1.73284 -0.779282 0
M  V30 1212 H 116.99 3.85101 0.512808 0
M  V30 1213 H 118.662 4.11569 -2.08347 0
M  V30 1214 H 116.905 3.83849 -2.02094 0
M  V30 1215 H 117.576 5.34342 -1.385 0
M  V30 1216 H 120.052 4.15882 0.134723 0
M  V30 1217 H 118.928 5.45376 0.621028 0
M  V30 1218 H 119.189 4.08501 1.69055 0
M  V30 1219 N 118.248 0.346503 1.53744 0
M  V30 1220 C 119.181 -0.552023 2.21423 0
M  V30 1221 C 120.159 -1.09798 1.19929 0
M  V30 1222 O 121.343 -1.1577 1.4876 0
M  V30 1223 C 118.47 -1.75972 2.89398 0
M  V30 1224 C 117.516 -1.34295 4.04805 0
M  V30 1225 S 118.349 -0.360263 5.34287 0
M  V30 1226 C 119.505 -1.57473 6.05767 0
M  V30 1227 H 119.738 0.0228119 2.97291 0
M  V30 1228 H 117.271 0.130579 1.53847 0
M  V30 1229 H 119.229 -2.45256 3.2918 0
M  V30 1230 H 117.89 -2.30578 2.1329 0
M  V30 1231 H 117.083 -2.24349 4.51313 0
M  V30 1232 H 116.685 -0.729555 3.66815 0
M  V30 1233 H 118.977 -2.50875 6.29339 0
M  V30 1234 H 119.92 -1.15138 6.98676 0
M  V30 1235 H 120.328 -1.77212 5.35963 0
M  V30 1236 N 119.726 -1.57421 0.075193 0
M  V30 1237 C 121.137 -1.81021 -0.456964 0
M  V30 1238 C 121.488 -0.98936 -1.69429 0
M  V30 1239 O 120.613 -0.212865 -2.15351 0
M  V30 1240 C 121.208 -3.28329 -0.83581 0
M  V30 1241 C 119.767 -3.52764 -1.31281 0
M  V30 1242 C 118.914 -2.75676 -0.299648 0
M  V30 1243 H 121.865 -1.55822 0.300856 0
M  V30 1244 H 121.886 -3.40564 -1.69696 0
M  V30 1245 H 121.398 -3.88046 0.0649238 0
M  V30 1246 H 119.499 -2.98355 -2.23193 0
M  V30 1247 H 119.612 -4.61451 -1.28839 0
M  V30 1248 H 117.976 -2.42538 -0.777641 0
M  V30 1249 H 118.759 -3.38132 0.593417 0
M  V30 1250 N 121.204 0.198386 -1.56346 0
M  V30 1251 C 122.137 1.27381 -1.89339 0
M  V30 1252 C 123.115 1.44106 -0.753134 0
M  V30 1253 O 124.299 1.59549 -1.00381 0
M  V30 1254 C 121.426 2.6409 -2.12071 0
M  V30 1255 C 120.472 2.64253 -3.34772 0
M  V30 1256 S 121.305 2.16013 -4.89999 0
M  V30 1257 C 122.461 3.54553 -5.15794 0
M  V30 1258 H 122.694 0.992058 -2.8026 0
M  V30 1259 H 120.227 0.401726 -1.49082 0
M  V30 1260 H 122.185 3.42786 -2.2585 0
M  V30 1261 H 120.846 2.89478 -1.21906 0
M  V30 1262 H 120.039 3.64768 -3.47794 0
M  V30 1263 H 119.641 1.93637 -3.1997 0
M  V30 1264 H 121.933 4.50396 -5.06112 0
M  V30 1265 H 122.876 3.46428 -6.1757 0
M  V30 1266 H 123.284 3.49313 -4.43442 0
M  V30 1267 N 122.682 1.50554 0.465978 0
M  V30 1268 C 123.63 1.70324 1.58406 0
M  V30 1269 C 124.624 0.569139 1.59553 0
M  V30 1270 O 125.83 0.749776 1.63641 0
M  V30 1271 H 122.205 0.537688 0.525734 0
M  V30 1272 H 124.176 2.64104 1.38894 0
M  V30 1273 C 122.925 1.81928 2.96307 0
M  V30 1274 H 122.248 2.68586 2.96144 0
M  V30 1275 H 123.688 1.99784 3.73982 0
M  V30 1276 C 122.147 0.572095 3.32007 0
M  V30 1277 O 122.677 -0.286416 4.00678 0
M  V30 1278 N 120.883 0.424606 2.87481 0
M  V30 1279 H 120.43 1.12427 2.31771 0
M  V30 1280 H 120.388 -0.408697 3.11732 0
M  V30 1281 N 124.16 -0.719506 1.40217 0
M  V30 1282 C 125.409 -1.47486 1.37589 0
M  V30 1283 C 125.722 -1.9559 -0.0201568 0
M  V30 1284 O 126.928 -2.70973 -0.169049 0
M  V30 1285 C 125.384 -2.66575 2.41796 0
M  V30 1286 C 124.992 -2.25358 3.87192 0
M  V30 1287 C 126.736 -3.4433 2.48269 0
M  V30 1288 C 124.643 -3.41262 4.83005 0
M  V30 1289 H 123.573 -0.553901 0.511576 0
M  V30 1290 H 126.224 -0.783427 1.65936 0
M  V30 1291 H 124.606 -3.3787 2.06543 0
M  V30 1292 H 125.78 -1.61509 4.31569 0
M  V30 1293 H 124.095 -1.60657 3.84159 0
M  V30 1294 H 126.692 -4.30569 3.17041 0
M  V30 1295 H 127.035 -3.87872 1.51198 0
M  V30 1296 H 127.568 -2.80076 2.82493 0
M  V30 1297 H 124.307 -3.02755 5.81394 0
M  V30 1298 H 123.827 -4.0404 4.43297 0
M  V30 1299 H 125.506 -4.07383 5.02641 0
M  V30 1300 N 125.638 -1.25649 -0.95132 0
M  V30 1301 C 126.568 -1.08808 -2.06599 0
M  V30 1302 C 127.549 0.00382547 -1.701 0
M  V30 1303 O 128.734 -0.166325 -1.93486 0
M  V30 1304 C 125.864 -0.709542 -3.39975 0
M  V30 1305 C 124.818 -1.75206 -3.90496 0
M  V30 1306 C 124.144 -1.22811 -5.20405 0
M  V30 1307 C 125.444 -3.15153 -4.16504 0
M  V30 1308 H 127.138 -2.02048 -2.20946 0
M  V30 1309 H 124.684 -0.972835 -1.06169 0
M  V30 1310 H 126.637 -0.578649 -4.17408 0
M  V30 1311 H 125.361 0.258556 -3.25575 0
M  V30 1312 H 124.02 -1.87145 -3.15234 0
M  V30 1313 H 123.668 -0.250145 -5.02378 0
M  V30 1314 H 123.368 -1.92492 -5.55176 0
M  V30 1315 H 124.892 -1.10968 -6.00432 0
M  V30 1316 H 126.306 -3.06349 -4.84586 0
M  V30 1317 H 124.703 -3.82333 -4.62538 0
M  V30 1318 H 125.773 -3.61966 -3.22658 0
M  V30 1319 N 127.117 1.15442 -1.07289 0
M  V30 1320 C 128.347 1.89821 -0.815576 0
M  V30 1321 C 128.755 1.7823 0.634867 0
M  V30 1322 O 128.098 1.13152 1.44715 0
M  V30 1323 C 128.16 3.40817 -1.14385 0
M  V30 1324 C 127.824 3.76193 -2.59476 0
M  V30 1325 C 128.821 3.77269 -3.57721 0
M  V30 1326 C 126.506 4.0652 -2.95037 0
M  V30 1327 C 128.5 4.08176 -4.89562 0
M  V30 1328 C 126.187 4.37092 -4.27076 0
M  V30 1329 C 127.185 4.37902 -5.24148 0
M  V30 1330 O 126.873 4.67741 -6.53815 0
M  V30 1331 H 126.605 0.608465 -0.294528 0
M  V30 1332 H 129.159 1.472 -1.43252 0
M  V30 1333 H 127.389 3.83835 -0.469865 0
M  V30 1334 H 129.078 3.96485 -0.869179 0
M  V30 1335 H 129.844 3.5394 -3.3159 0
M  V30 1336 H 125.723 4.05049 -2.20128 0
M  V30 1337 H 129.267 4.08723 -5.65324 0
M  V30 1338 H 125.164 4.59889 -4.5296 0
M  V30 1339 H 125.932 4.85509 -6.58957 0
M  V30 1340 N 128.595 0.856903 1.32268 0
M  V30 1341 C 129.525 0.31858 2.31316 0
M  V30 1342 C 130.506 -0.583487 1.59779 0
M  V30 1343 O 131.691 -0.503259 1.87566 0
M  V30 1344 C 128.821 -0.491979 3.43798 0
M  V30 1345 C 127.775 0.315849 4.26833 0
M  V30 1346 C 127.101 -0.619586 5.31098 0
M  V30 1347 C 128.401 1.54282 4.98993 0
M  V30 1348 H 130.095 1.14621 2.76591 0
M  V30 1349 H 127.641 0.552613 1.32974 0
M  V30 1350 H 129.594 -0.879012 4.1213 0
M  V30 1351 H 128.318 -1.35299 2.97257 0
M  V30 1352 H 126.977 0.684664 3.6015 0
M  V30 1353 H 126.625 -1.47751 4.8081 0
M  V30 1354 H 126.325 -0.0830621 5.87541 0
M  V30 1355 H 127.849 -1.00375 6.02293 0
M  V30 1356 H 129.263 1.22796 5.59995 0
M  V30 1357 H 127.66 2.01745 5.65172 0
M  V30 1358 H 128.73 2.30285 4.26728 0
M  V30 1359 N 130.073 -1.45103 0.615059 0
M  V30 1360 C 131.322 -2.01396 0.110718 0
M  V30 1361 C 131.635 -1.48834 -1.26916 0
M  V30 1362 O 132.841 -1.97152 -1.86664 0
M  V30 1363 C 131.297 -3.59599 0.14723 0
M  V30 1364 C 130.905 -4.21158 1.52743 0
M  V30 1365 C 132.649 -4.23428 -0.30148 0
M  V30 1366 C 130.556 -5.71535 1.51992 0
M  V30 1367 H 129.486 -0.753061 0.0376241 0
M  V30 1368 H 132.137 -1.66494 0.77149 0
M  V30 1369 H 130.519 -3.91724 -0.580339 0
M  V30 1370 H 131.693 -4.00594 2.2773 0
M  V30 1371 H 130.008 -3.69552 1.91886 0
M  V30 1372 H 132.605 -5.33703 -0.326392 0
M  V30 1373 H 132.948 -3.94629 -1.32565 0
M  V30 1374 H 133.481 -3.96047 0.373065 0
M  V30 1375 H 130.22 -6.05044 2.52193 0
M  V30 1376 H 129.74 -5.94268 0.81274 0
M  V30 1377 H 131.419 -6.34873 1.24681 0
M  V30 1378 N 131.551 -0.354651 -1.53558 0
M  V30 1379 C 132.484 0.540273 -2.21712 0
M  V30 1380 C 133.462 1.09161 -1.2051 0
M  V30 1381 O 134.646 1.14979 -1.49372 0
M  V30 1382 C 131.773 1.74435 -2.90328 0
M  V30 1383 C 130.819 1.32146 -4.05512 0
M  V30 1384 S 131.652 0.331924 -5.3447 0
M  V30 1385 C 132.808 1.54258 -6.06593 0
M  V30 1386 H 133.041 -0.0385776 -2.97275 0
M  V30 1387 H 130.574 -0.138736 -1.53775 0
M  V30 1388 H 132.532 2.43507 -3.30476 0
M  V30 1389 H 131.193 2.29444 -2.1451 0
M  V30 1390 H 130.386 2.21952 -4.52497 0
M  V30 1391 H 129.988 0.710091 -3.67197 0
M  V30 1392 H 132.28 2.47534 -6.30661 0
M  V30 1393 H 133.223 1.11431 -6.99277 0
M  V30 1394 H 133.631 1.74367 -5.36895 0
M  V30 1395 N 133.029 1.57378 -0.0835403 0
M  V30 1396 C 134.257 1.98263 0.59157 0
M  V30 1397 C 134.672 0.962302 1.62435 0
M  V30 1398 O 134.029 -0.049581 1.82433 0
M  V30 1399 C 134.08 3.39214 1.24965 0
M  V30 1400 O 133.801 4.37339 0.258186 0
M  V30 1401 C 135.302 3.95038 2.01147 0
M  V30 1402 H 132.522 0.651773 0.159477 0
M  V30 1403 H 135.066 2.03878 -0.159415 0
M  V30 1404 H 133.221 3.34649 1.95164 0
M  V30 1405 H 133.635 5.19371 0.731734 0
M  V30 1406 H 135.109 4.95848 2.42567 0
M  V30 1407 H 135.586 3.32222 2.87272 0
M  V30 1408 H 136.192 4.0304 1.35789 0
M  V30 1409 N 134.507 -0.190092 1.56449 0
M  V30 1410 C 135.454 -1.23557 1.94942 0
M  V30 1411 C 136.424 -1.44972 0.810696 0
M  V30 1412 O 137.609 -1.58023 1.06927 0
M  V30 1413 C 134.749 -2.57416 2.2985 0
M  V30 1414 C 133.862 -2.43537 3.5681 0
M  V30 1415 C 132.997 -3.70134 3.81017 0
M  V30 1416 C 132.036 -3.51109 5.01387 0
M  V30 1417 N 131.173 -4.6973 5.21822 0
M  V30 1418 H 136.013 -0.900304 2.84075 0
M  V30 1419 H 133.55 -0.43318 1.40577 0
M  V30 1420 H 135.508 -3.35409 2.48106 0
M  V30 1421 H 134.138 -2.88975 1.43852 0
M  V30 1422 H 133.19 -1.56816 3.46573 0
M  V30 1423 H 134.502 -2.25415 4.4496 0
M  V30 1424 H 133.656 -4.56566 3.9954 0
M  V30 1425 H 132.395 -3.91215 2.91207 0
M  V30 1426 H 131.4 -2.63063 4.82782 0
M  V30 1427 H 132.625 -3.31468 5.9271 0
M  V30 1428 H 130.571 -4.91065 4.34961 0
M  V30 1429 H 130.488 -4.54452 6.0416 0
M  V30 1430 H 131.756 -5.57499 5.44808 0
M  V30 1431 N 135.985 -1.50799 -0.457987 0
M  V30 1432 C 137.231 -1.63648 -1.20792 0
M  V30 1433 C 137.586 -0.338662 -1.89396 0
M  V30 1434 O 136.879 0.664291 -1.79716 0
M  V30 1435 C 137.073 -2.76358 -2.2663 0
M  V30 1436 C 136.902 -4.16974 -1.68411 0
M  V30 1437 C 135.672 -4.83199 -1.47807 0
M  V30 1438 C 137.87 -5.00774 -1.17176 0
M  V30 1439 N 135.852 -6.07991 -0.849692 0
M  V30 1440 C 137.223 -6.16397 -0.667403 0
M  V30 1441 C 139.278 -4.86452 -1.06155 0
M  V30 1442 C 137.981 -7.19272 -0.0636908 0
M  V30 1443 C 140.007 -5.89515 -0.471759 0
M  V30 1444 C 139.369 -7.04397 0.0221557 0
M  V30 1445 H 135.468 -0.652888 -0.43042 0
M  V30 1446 H 138.052 -1.87962 -0.507785 0
M  V30 1447 H 136.223 -2.53744 -2.94056 0
M  V30 1448 H 137.955 -2.78496 -2.93636 0
M  V30 1449 H 134.71 -4.40714 -1.73403 0
M  V30 1450 H 135.134 -6.74733 -0.553537 0
M  V30 1451 H 139.776 -3.97907 -1.42932 0
M  V30 1452 H 137.494 -8.07481 0.316253 0
M  V30 1453 H 141.08 -5.805 -0.388671 0
M  V30 1454 H 139.96 -7.82782 0.471375 0
M  V30 1455 N 137.463 0.71206 -1.40597 0
M  V30 1456 C 138.688 1.50617 -1.42581 0
M  V30 1457 C 139.113 1.88079 -0.0282102 0
M  V30 1458 O 138.471 1.53511 0.964579 0
M  V30 1459 C 138.519 2.7557 -2.3258 0
M  V30 1460 O 137.623 3.72414 -1.77148 0
M  V30 1461 H 136.964 0.453966 -0.484573 0
M  V30 1462 H 139.494 0.876649 -1.84868 0
M  V30 1463 H 139.504 3.2406 -2.47889 0
M  V30 1464 H 138.179 2.47639 -3.34138 0
M  V30 1465 H 136.756 3.31276 -1.71204 0
M  V30 1466 N 138.941 1.26152 0.944643 0
M  V30 1467 C 139.871 1.09902 2.06019 0
M  V30 1468 C 140.852 0.00519538 1.70099 0
M  V30 1469 O 142.037 0.176583 1.93396 0
M  V30 1470 C 139.167 0.727562 3.39594 0
M  V30 1471 C 138.121 1.77274 3.89561 0
M  V30 1472 C 137.447 1.25569 5.19747 0
M  V30 1473 C 138.747 3.17357 4.14827 0
M  V30 1474 H 140.441 2.03217 2.19871 0
M  V30 1475 H 137.987 0.978452 1.05652 0
M  V30 1476 H 139.94 0.600777 4.17095 0
M  V30 1477 H 138.664 -0.241287 3.25707 0
M  V30 1478 H 137.323 1.88814 3.14237 0
M  V30 1479 H 136.971 0.276783 5.02238 0
M  V30 1480 H 136.671 1.95433 5.54148 0
M  V30 1481 H 138.195 1.1415 5.99835 0
M  V30 1482 H 139.609 3.08914 4.82954 0
M  V30 1483 H 138.006 3.84781 4.60504 0
M  V30 1484 H 139.076 3.63673 3.20734 0
M  V30 1485 N 140.419 -1.14872 1.07899 0
M  V30 1486 C 141.667 -1.85422 0.803941 0
M  V30 1487 C 141.988 -1.83051 -0.67211 0
M  V30 1488 O 141.258 -1.27532 -1.48703 0
M  V30 1489 H 139.838 -0.686537 0.294408 0
M  V30 1490 H 142.5 -1.39226 1.3639 0
M  V30 1491 H 141.596 -2.90399 1.14346 0
M  V30 1492 N 141.898 -0.863906 -1.31812 0
M  V30 1493 C 143.314 -0.555004 -1.49639 0
M  V30 1494 C 143.514 0.912266 -1.79666 0
M  V30 1495 O 142.57 1.69479 -1.87171 0
M  V30 1496 C 143.883 -1.44998 -2.63431 0
M  V30 1497 C 145.431 -1.45138 -2.77316 0
M  V30 1498 C 145.906 -2.33179 -3.94197 0
M  V30 1499 N 147.397 -2.31025 -4.01474 0
M  V30 1500 C 148.132 -2.95871 -4.9117 0
M  V30 1501 N 147.628 -3.69863 -5.8581 0
M  V30 1502 N 149.421 -2.85211 -4.84367 0
M  V30 1503 H 141.572 -1.81339 -1.10589 0
M  V30 1504 H 143.835 -0.77505 -0.545895 0
M  V30 1505 H 143.541 -2.49377 -2.48 0
M  V30 1506 H 143.415 -1.14409 -3.59431 0
M  V30 1507 H 145.802 -0.415201 -2.92164 0
M  V30 1508 H 145.883 -1.79747 -1.82001 0
M  V30 1509 H 145.527 -3.3687 -3.80107 0
M  V30 1510 H 145.457 -1.95897 -4.88807 0
M  V30 1511 H 147.948 -1.77238 -3.33759 0
M  V30 1512 H 148.261 -4.16486 -6.50968 0
M  V30 1513 H 146.606 -3.73971 -5.85808 0
M  V30 1514 H 149.797 -2.26948 -4.09405 0
M  V30 1515 H 149.97 -3.36027 -5.54066 0
M  V30 1516 N 143.376 1.44774 -0.622745 0
M  V30 1517 C 144.787 1.85546 -0.207226 0
M  V30 1518 C 145.138 1.52093 1.23944 0
M  V30 1519 O 144.263 0.95492 1.94191 0
M  V30 1520 C 144.858 3.36781 -0.369313 0
M  V30 1521 C 143.417 3.76399 -0.00836847 0
M  V30 1522 C 142.564 2.68664 -0.686651 0
M  V30 1523 H 145.515 1.3536 -0.828454 0
M  V30 1524 H 145.536 3.78453 0.394162 0
M  V30 1525 H 145.048 3.61098 -1.42231 0
M  V30 1526 H 143.149 3.57698 1.04322 0
M  V30 1527 H 143.262 4.7732 -0.412584 0
M  V30 1528 H 141.626 2.54404 -0.122777 0
M  V30 1529 H 142.409 2.95815 -1.74208 0
M  V30 1530 N 144.854 0.36279 1.53368 0
M  V30 1531 C 145.784 -0.476976 2.28576 0
M  V30 1532 C 146.765 -1.08631 1.30894 0
M  V30 1533 O 147.95 -1.10409 1.59761 0
M  V30 1534 C 145.08 -1.61828 3.07293 0
M  V30 1535 C 144.034 -1.13633 4.1264 0
M  V30 1536 C 143.36 -2.36766 4.79423 0
M  V30 1537 C 144.66 -0.223061 5.21823 0
M  V30 1538 H 146.354 0.150474 2.99022 0
M  V30 1539 H 143.9 0.0738103 1.43811 0
M  V30 1540 H 145.853 -2.21237 3.58653 0
M  V30 1541 H 144.577 -2.27292 2.34533 0
M  V30 1542 H 143.236 -0.564945 3.62221 0
M  V30 1543 H 142.884 -3.0068 4.03238 0
M  V30 1544 H 142.584 -2.05192 5.50609 0
M  V30 1545 H 144.108 -2.96865 5.33576 0
M  V30 1546 H 145.522 -0.724545 5.68703 0
M  V30 1547 H 143.919 0.001678 6.001 0
M  V30 1548 H 144.989 0.735553 4.79289 0
M  V30 1549 N 146.332 -1.57332 0.0918853 0
M  V30 1550 C 147.572 -1.96117 -0.575988 0
M  V30 1551 C 147.936 -0.972499 -1.65549 0
M  V30 1552 O 149.137 -1.24872 -2.38034 0
M  V30 1553 C 147.408 -3.39407 -1.11973 0
M  V30 1554 S 148.967 -4.00185 -1.79992 0
M  V30 1555 H 145.785 -0.685682 -0.188045 0
M  V30 1556 H 148.387 -1.94755 0.170525 0
M  V30 1557 H 147.091 -4.09131 -0.322504 0
M  V30 1558 H 146.622 -3.44358 -1.90214 0
M  V30 1559 H 148.637 -3.88728 -3.08391 0
M  V30 1560 N 147.81 0.181792 -1.56548 0
M  V30 1561 C 148.74 1.22765 -1.98623 0
M  V30 1562 C 149.721 1.46747 -0.860189 0
M  V30 1563 O 150.906 1.58259 -1.12551 0
M  V30 1564 C 148.036 2.56894 -2.33715 0
M  V30 1565 C 146.99 2.475 -3.49182 0
M  V30 1566 C 146.316 3.86023 -3.69986 0
M  V30 1567 C 147.616 1.98866 -4.82959 0
M  V30 1568 H 149.31 0.877942 -2.86239 0
M  V30 1569 H 146.856 0.42088 -1.37712 0
M  V30 1570 H 148.809 3.30253 -2.61746 0
M  V30 1571 H 147.533 2.93632 -1.42997 0
M  V30 1572 H 146.192 1.76596 -3.21262 0
M  V30 1573 H 145.84 4.20136 -2.76576 0
M  V30 1574 H 145.54 3.80609 -4.47672 0
M  V30 1575 H 147.064 4.60984 -4.00407 0
M  V30 1576 H 148.478 2.61992 -5.09934 0
M  V30 1577 H 146.875 2.04424 -5.64208 0
M  V30 1578 H 147.945 0.942465 -4.75653 0
M  V30 1579 N 149.288 1.51039 0.449983 0
M  V30 1580 C 150.535 1.63081 1.20045 0
M  V30 1581 C 150.863 0.341024 1.91487 0
M  V30 1582 O 150.118 -0.674276 1.83717 0
M  V30 1583 C 150.417 2.77556 2.25161 0
M  V30 1584 C 150.083 4.17289 1.70823 0
M  V30 1585 C 148.745 4.55305 1.55725 0
M  V30 1586 C 151.097 5.04536 1.3074 0
M  V30 1587 C 148.425 5.78287 0.989999 0
M  V30 1588 C 150.777 6.28085 0.754482 0
M  V30 1589 C 149.441 6.64885 0.590308 0
M  V30 1590 H 148.711 0.596755 0.439277 0
M  V30 1591 H 151.358 1.85037 0.49333 0
M  V30 1592 H 149.663 2.49771 3.01863 0
M  V30 1593 H 151.36 2.84073 2.83026 0
M  V30 1594 H 147.95 3.8731 1.83546 0
M  V30 1595 H 152.134 4.75782 1.41229 0
M  V30 1596 H 147.39 6.05456 0.850451 0
M  V30 1597 H 151.564 6.95038 0.435324 0
M  V30 1598 H 149.191 7.60055 0.14862 0
M  V30 1599 N 150.766 -0.704594 1.40972 0
M  V30 1600 C 152.012 -1.46546 1.41053 0
M  V30 1601 C 152.367 -1.92393 0.0159714 0
M  V30 1602 O 151.66 -1.66017 -0.956506 0
M  V30 1603 C 151.854 -2.698 2.34399 0
M  V30 1604 C 151.683 -2.36008 3.82793 0
M  V30 1605 C 150.453 -2.26812 4.51536 0
M  V30 1606 C 152.651 -1.99565 4.74003 0
M  V30 1607 N 150.633 -1.8581 5.85105 0
M  V30 1608 C 152.004 -1.69251 5.96451 0
M  V30 1609 C 154.059 -1.86296 4.61734 0
M  V30 1610 C 152.762 -1.27003 7.07999 0
M  V30 1611 C 154.788 -1.45452 5.73234 0
M  V30 1612 C 154.15 -1.16043 6.94776 0
M  V30 1613 H 150.249 -0.533896 0.571383 0
M  V30 1614 H 152.833 -0.816061 1.76773 0
M  V30 1615 H 151.004 -3.32473 2.00789 0
M  V30 1616 H 152.736 -3.36214 2.25261 0
M  V30 1617 H 149.491 -2.44913 4.05357 0
M  V30 1618 H 149.915 -1.67817 6.55871 0
M  V30 1619 H 154.557 -2.0769 3.68273 0
M  V30 1620 H 152.275 -1.04353 8.01334 0
M  V30 1621 H 155.861 -1.35748 5.65742 0
M  V30 1622 H 154.741 -0.84915 7.79589 0
M  V30 1623 N 152.244 -1.26651 -0.937939 0
M  V30 1624 C 153.174 -1.10993 -2.05433 0
M  V30 1625 C 154.155 -0.0142161 -1.70094 0
M  V30 1626 O 155.34 -0.186837 -1.93299 0
M  V30 1627 C 152.47 -0.745561 -3.39203 0
M  V30 1628 C 151.424 -1.79337 -3.88616 0
M  V30 1629 C 150.75 -1.28324 -5.19073 0
M  V30 1630 C 152.05 -3.19553 -4.13138 0
M  V30 1631 H 153.744 -2.0438 -2.1879 0
M  V30 1632 H 151.29 -0.984041 -1.05131 0
M  V30 1633 H 153.243 -0.622888 -4.16771 0
M  V30 1634 H 151.967 0.22401 -3.25831 0
M  V30 1635 H 150.626 -1.90477 -3.13231 0
M  V30 1636 H 150.274 -0.303414 -5.02084 0
M  V30 1637 H 149.974 -1.98369 -5.53103 0
M  V30 1638 H 151.498 -1.1733 -5.99221 0
M  V30 1639 H 152.912 -3.11471 -4.81309 0
M  V30 1640 H 151.309 -3.87218 -4.58457 0
M  V30 1641 H 152.379 -3.65368 -3.18801 0
M  V30 1642 N 153.722 1.14298 -1.08507 0
M  V30 1643 C 154.947 1.8976 -0.837001 0
M  V30 1644 C 155.372 1.78097 0.605228 0
M  V30 1645 O 154.73 1.12188 1.4242 0
M  V30 1646 C 154.778 3.37685 -1.26495 0
M  V30 1647 O 153.882 4.10281 -0.417514 0
M  V30 1648 H 153.223 0.590365 -0.303917 0
M  V30 1649 H 155.753 1.44672 -1.44676 0
M  V30 1650 H 155.763 3.88501 -1.24625 0
M  V30 1651 H 154.438 3.45492 -2.31534 0
M  V30 1652 H 153.015 3.69536 -0.499722 0
M  V30 1653 N 155.201 0.870884 1.31352 0
M  V30 1654 C 156.134 0.271983 2.26573 0
M  V30 1655 C 157.112 -0.599385 1.51149 0
M  V30 1656 O 158.296 -0.552605 1.80218 0
M  V30 1657 C 155.423 -0.614801 3.33073 0
M  V30 1658 C 154.469 0.185342 4.26097 0
M  V30 1659 S 155.302 1.56444 5.12138 0
M  V30 1660 C 156.458 0.683807 6.22153 0
M  V30 1661 H 156.691 1.07916 2.77023 0
M  V30 1662 H 154.224 0.669459 1.39132 0
M  V30 1663 H 156.182 -1.12074 3.94905 0
M  V30 1664 H 154.843 -1.39593 2.81376 0
M  V30 1665 H 154.036 -0.490771 5.01605 0
M  V30 1666 H 153.638 0.623415 3.68768 0
M  V30 1667 H 155.93 -0.10521 6.77418 0
M  V30 1668 H 156.873 1.41004 6.93919 0
M  V30 1669 H 157.281 0.250952 5.63942 0
M  V30 1670 N 156.679 -1.44442 0.630414 0
M  V30 1671 C 157.956 -1.9549 0.0655657 0
M  V30 1672 C 158.336 -1.5724 -1.40851 0
M  V30 1673 O 157.684 -0.846116 -2.12257 0
M  V30 1674 C 157.894 -3.47812 0.287691 0
M  V30 1675 C 159.242 -4.24216 0.180513 0
M  V30 1676 O 160.266 -3.55526 0.219019 0
M  V30 1677 O 159.125 -5.46434 0.0848493 0
M  V30 1678 H 156.219 -0.826688 -0.0227177 0
M  V30 1679 H 158.765 -1.54496 0.702068 0
M  V30 1680 H 157.537 -3.687 1.31056 0
M  V30 1681 H 157.16 -3.95751 -0.382984 0
M  V30 1682 N 158.157 -0.370918 -1.53173 0
M  V30 1683 C 159.387 0.217389 -2.05453 0
M  V30 1684 C 159.795 1.42568 -1.24382 0
M  V30 1685 O 159.138 1.81571 -0.278839 0
M  V30 1686 C 159.2 0.669827 -3.53205 0
M  V30 1687 C 158.864 -0.4225 -4.55043 0
M  V30 1688 C 159.861 -1.27407 -5.04047 0
M  V30 1689 C 157.546 -0.58427 -4.9889 0
M  V30 1690 C 159.54 -2.27271 -5.95505 0
M  V30 1691 C 157.227 -1.58627 -5.90153 0
M  V30 1692 C 158.225 -2.42892 -6.38351 0
M  V30 1693 O 157.913 -3.41382 -7.27814 0
M  V30 1694 H 157.645 0.0408171 -0.674767 0
M  V30 1695 H 160.199 -0.5292 -1.98466 0
M  V30 1696 H 158.429 1.4681 -3.57748 0
M  V30 1697 H 160.118 1.18173 -3.88317 0
M  V30 1698 H 160.884 -1.16031 -4.70916 0
M  V30 1699 H 156.763 0.061851 -4.60959 0
M  V30 1700 H 160.307 -2.93079 -6.33049 0
M  V30 1701 H 156.204 -1.70048 -6.22699 0
M  V30 1702 H 156.972 -3.37173 -7.45826 0
M  V30 1703 N 159.635 1.57281 -0.100228 0
M  V30 1704 C 160.881 1.94826 0.563101 0
M  V30 1705 C 161.214 0.982475 1.67514 0
M  V30 1706 O 160.489 0.0164069 1.94493 0
M  V30 1707 C 160.772 3.42453 1.11346 0
M  V30 1708 C 160.625 4.498 0.00612081 0
M  V30 1709 C 161.944 3.91506 2.01024 0
M  V30 1710 H 159.063 0.708428 0.203221 0
M  V30 1711 H 161.705 1.8922 -0.171979 0
M  V30 1712 H 159.855 3.47361 1.7399 0
M  V30 1713 H 161.527 4.57 -0.628357 0
M  V30 1714 H 159.77 4.28756 -0.659581 0
M  V30 1715 H 160.441 5.50306 0.432109 0
M  V30 1716 H 162.917 3.88784 1.48278 0
M  V30 1717 H 161.793 4.95358 2.36457 0
M  V30 1718 H 162.054 3.31099 2.92961 0
M  V30 1719 N 161.113 -0.173488 1.56642 0
M  V30 1720 C 162.076 -1.19859 1.95362 0
M  V30 1721 C 163.076 -1.37296 0.83704 0
M  V30 1722 O 164.266 -1.34739 1.10413 0
M  V30 1723 C 161.398 -2.56405 2.24654 0
M  V30 1724 H 162.591 -0.867062 2.87092 0
M  V30 1725 H 160.144 -0.415853 1.50666 0
M  V30 1726 H 160.879 -2.94576 1.35631 0
M  V30 1727 H 160.664 -2.45115 3.06041 0
M  V30 1728 H 162.154 -3.30287 2.5554 0
M  V30 1729 N 162.591 -1.51276 -0.441967 0
M  V30 1730 C 163.816 -1.67799 -1.21895 0
M  V30 1731 C 164.241 -0.372864 -1.84367 0
M  V30 1732 O 163.599 0.666501 -1.68604 0
M  V30 1733 C 163.647 -2.79199 -2.28211 0
M  V30 1734 O 162.751 -2.42479 -3.33583 0
M  V30 1735 H 162.092 -0.559649 -0.357336 0
M  V30 1736 H 164.622 -1.97815 -0.522522 0
M  V30 1737 H 164.632 -3.03146 -2.73069 0
M  V30 1738 H 163.307 -3.73906 -1.82118 0
M  V30 1739 H 161.884 -2.29087 -2.94234 0
M  V30 1740 N 164.069 0.697108 -1.41344 0
M  V30 1741 C 165.297 1.48593 -1.43972 0
M  V30 1742 C 165.712 1.88747 -0.0445612 0
M  V30 1743 O 165.069 1.56682 0.935785 0
M  V30 1744 C 165.12 2.74946 -2.34706 0
M  V30 1745 O 164.841 2.36484 -3.68791 0
M  V30 1746 C 166.342 3.687 -2.46121 0
M  V30 1747 H 163.562 0.457964 -0.490418 0
M  V30 1748 H 166.106 0.858429 -1.8561 0
M  V30 1749 H 164.261 3.33937 -1.9638 0
M  V30 1750 H 164.675 3.17918 -4.17167 0
M  V30 1751 H 166.149 4.54145 -3.13777 0
M  V30 1752 H 166.626 4.13081 -1.49199 0
M  V30 1753 H 167.232 3.15613 -2.85076 0
M  V30 1754 N 165.547 1.27147 0.931209 0
M  V30 1755 C 166.51 1.09615 2.01289 0
M  V30 1756 C 167.51 0.0412581 1.60747 0
M  V30 1757 O 168.7 0.285545 1.71844 0
M  V30 1758 C 165.832 0.669447 3.34262 0
M  V30 1759 H 167.025 2.05662 2.18273 0
M  V30 1760 H 164.578 1.09885 1.11153 0
M  V30 1761 H 165.313 -0.292572 3.22978 0
M  V30 1762 H 165.098 1.43127 3.65044 0
M  V30 1763 H 166.588 0.568921 4.13706 0
M  V30 1764 N 167.025 -1.13721 1.09112 0
M  V30 1765 C 168.25 -1.89314 0.847053 0
M  V30 1766 C 168.675 -1.78416 -0.595774 0
M  V30 1767 O 168.033 -1.12942 -1.41823 0
M  V30 1768 C 168.081 -3.3701 1.28284 0
M  V30 1769 O 167.185 -4.10054 0.439267 0
M  V30 1770 H 166.526 -0.588745 0.307044 0
M  V30 1771 H 169.056 -1.43902 1.45442 0
M  V30 1772 H 169.066 -3.87834 1.26683 0
M  V30 1773 H 167.741 -3.4426 2.33363 0
M  V30 1774 H 166.318 -3.69266 0.519312 0
M  V30 1775 N 168.503 -0.877838 -1.30888 0
M  V30 1776 C 169.752 -0.488793 -1.95688 0
M  V30 1777 C 170.065 0.965485 -1.70111 0
M  V30 1778 O 171.271 1.46104 -2.28836 0
M  V30 1779 C 169.727 -0.823201 -3.50359 0
M  V30 1780 C 169.335 -2.29477 -3.84765 0
M  V30 1781 C 171.079 -0.503009 -4.21509 0
M  V30 1782 C 168.986 -2.57118 -5.32583 0
M  V30 1783 H 167.916 -0.179062 -0.732429 0
M  V30 1784 H 170.567 -1.07183 -1.48943 0
M  V30 1785 H 168.949 -0.169331 -3.95638 0
M  V30 1786 H 170.123 -2.99236 -3.5042 0
M  V30 1787 H 168.438 -2.58178 -3.267 0
M  V30 1788 H 171.035 -0.68665 -5.30273 0
M  V30 1789 H 171.378 0.557109 -4.12555 0
M  V30 1790 H 171.911 -1.11376 -3.8189 0
M  V30 1791 H 168.65 -3.61843 -5.4658 0
M  V30 1792 H 168.17 -1.91961 -5.68253 0
M  V30 1793 H 169.849 -2.42251 -5.99936 0
M  V30 1794 N 169.982 1.44106 -0.638065 0
M  V30 1795 C 171.229 2.01978 -0.14533 0
M  V30 1796 C 171.557 1.50234 1.23532 0
M  V30 1797 O 170.812 0.679548 1.83523 0
M  V30 1798 C 171.111 3.5729 -0.0887327 0
M  V30 1799 C 170.777 4.28317 -1.40909 0
M  V30 1800 C 169.439 4.47437 -1.77069 0
M  V30 1801 C 171.791 4.6867 -2.28031 0
M  V30 1802 C 169.119 5.04171 -3.00047 0
M  V30 1803 C 171.471 5.26766 -3.50286 0
M  V30 1804 C 170.135 5.44104 -3.86661 0
M  V30 1805 H 169.405 0.739089 -0.0531801 0
M  V30 1806 H 172.052 1.72781 -0.825761 0
M  V30 1807 H 170.357 3.8594 0.675095 0
M  V30 1808 H 172.054 3.99807 0.309145 0
M  V30 1809 H 168.644 4.1377 -1.1177 0
M  V30 1810 H 172.828 4.53604 -2.01388 0
M  V30 1811 H 168.084 5.15782 -3.28298 0
M  V30 1812 H 172.258 5.56983 -4.18023 0
M  V30 1813 H 169.885 5.87832 -4.82034 0
M  V30 1814 N 171.46 0.379036 1.52974 0
M  V30 1815 C 172.685 -0.209353 2.06341 0
M  V30 1816 C 173.11 -1.40583 1.24972 0
M  V30 1817 O 172.468 -1.79246 0.272155 0
M  V30 1818 C 172.516 -0.567786 3.56102 0
M  V30 1819 O 171.62 -1.66318 3.77375 0
M  V30 1820 H 170.961 -0.0272919 0.663439 0
M  V30 1821 H 173.491 0.543536 1.97248 0
M  V30 1822 H 173.501 -0.835003 3.99364 0
M  V30 1823 H 172.176 0.307013 4.14765 0
M  V30 1824 H 170.753 -1.39048 3.46006 0
M  V30 1825 N 172.938 -1.57226 0.108567 0
M  V30 1826 C 174.184 -1.95121 -0.552761 0
M  V30 1827 C 174.517 -0.991345 -1.66991 0
M  V30 1828 O 173.792 -0.0267211 -1.94482 0
M  V30 1829 C 174.075 -3.43039 -1.09528 0
M  V30 1830 C 173.928 -4.49797 0.0177332 0
M  V30 1831 C 175.247 -3.92567 -1.98945 0
M  V30 1832 H 172.366 -0.709496 -0.199461 0
M  V30 1833 H 175.008 -1.89126 0.182011 0
M  V30 1834 H 173.158 -3.48279 -1.72146 0
M  V30 1835 H 174.83 -4.56661 0.652584 0
M  V30 1836 H 173.073 -4.284 0.682309 0
M  V30 1837 H 173.744 -5.50528 -0.402919 0
M  V30 1838 H 176.22 -3.89565 -1.46214 0
M  V30 1839 H 175.096 -4.96605 -2.33827 0
M  V30 1840 H 175.357 -3.32648 -2.91201 0
M  V30 1841 N 174.416 0.165178 -1.56732 0
M  V30 1842 C 175.663 0.880807 -1.8234 0
M  V30 1843 C 175.991 1.81977 -0.686621 0
M  V30 1844 O 175.246 1.92971 0.325697 0
M  V30 1845 C 175.545 1.70405 -3.1416 0
M  V30 1846 C 175.211 0.913475 -4.4155 0
M  V30 1847 C 173.873 0.695303 -4.7615 0
M  V30 1848 C 176.225 0.359349 -5.1996 0
M  V30 1849 C 173.553 -0.0879947 -5.86634 0
M  V30 1850 C 175.905 -0.410893 -6.31264 0
M  V30 1851 C 174.569 -0.639808 -6.64427 0
M  V30 1852 H 173.839 0.32231 -0.667231 0
M  V30 1853 H 176.486 0.145402 -1.90947 0
M  V30 1854 H 174.791 2.50903 -3.00923 0
M  V30 1855 H 176.488 2.26091 -3.31186 0
M  V30 1856 H 173.078 1.09357 -4.14414 0
M  V30 1857 H 177.262 0.515228 -4.93618 0
M  V30 1858 H 172.518 -0.27503 -6.10781 0
M  V30 1859 H 176.692 -0.847494 -6.91224 0
M  V30 1860 H 174.319 -1.24864 -7.49875 0
M  V30 1861 N 175.894 1.51508 0.433938 0
M  V30 1862 C 177.143 1.63578 1.18005 0
M  V30 1863 C 177.456 0.359514 1.92268 0
M  V30 1864 O 178.662 0.359632 2.69108 0
M  V30 1865 C 177.118 2.88901 2.14626 0
M  V30 1866 C 176.726 4.23544 1.45995 0
M  V30 1867 C 178.47 3.10328 2.89649 0
M  V30 1868 C 176.377 5.40014 2.4112 0
M  V30 1869 H 175.307 0.609277 0.444182 0
M  V30 1870 H 177.958 1.77978 0.446773 0
M  V30 1871 H 176.34 2.68142 2.91403 0
M  V30 1872 H 177.514 4.54696 0.747532 0
M  V30 1873 H 175.829 4.08021 0.831115 0
M  V30 1874 H 178.426 3.94518 3.60915 0
M  V30 1875 H 178.769 2.23544 3.51189 0
M  V30 1876 H 179.302 3.31443 2.19978 0
M  V30 1877 H 176.041 6.29068 1.84264 0
M  V30 1878 H 175.561 5.13233 3.10406 0
M  V30 1879 H 177.24 5.72099 3.02177 0
M  V30 1880 N 177.372 -0.689602 1.41712 0
M  V30 1881 C 178.302 -1.81577 1.46806 0
M  V30 1882 C 179.283 -1.66945 0.326105 0
M  V30 1883 O 180.468 -1.86588 0.538377 0
M  V30 1884 C 177.598 -3.19762 1.35535 0
M  V30 1885 C 176.552 -3.49107 2.47605 0
M  V30 1886 C 175.878 -4.86711 2.21397 0
M  V30 1887 C 177.178 -3.47483 3.89939 0
M  V30 1888 H 178.872 -1.7757 2.41058 0
M  V30 1889 H 176.418 -0.852887 1.16025 0
M  V30 1890 H 178.371 -3.98263 1.3771 0
M  V30 1891 H 177.095 -3.24409 0.377708 0
M  V30 1892 H 175.754 -2.72959 2.44722 0
M  V30 1893 H 175.402 -4.8799 1.21961 0
M  V30 1894 H 175.102 -5.0731 2.96497 0
M  V30 1895 H 176.626 -5.67515 2.25297 0
M  V30 1896 H 178.04 -4.1598 3.94505 0
M  V30 1897 H 176.437 -3.79615 4.64771 0
M  V30 1898 H 177.507 -2.46341 4.17665 0
M  V30 1899 N 178.85 -1.27639 -0.924453 0
M  V30 1900 C 180.09 -1.15407 -1.68703 0
M  V30 1901 C 180.454 0.294581 -1.89727 0
M  V30 1902 O 181.655 0.539385 -2.63333 0
M  V30 1903 C 179.926 -1.9195 -3.0148 0
M  V30 1904 S 181.485 -1.95969 -3.92609 0
M  V30 1905 H 178.303 -0.411937 -0.579507 0
M  V30 1906 H 180.905 -1.61592 -1.10038 0
M  V30 1907 H 179.609 -2.96387 -2.83871 0
M  V30 1908 H 179.14 -1.46272 -3.65196 0
M  V30 1909 H 181.155 -1.05846 -4.84779 0
M  V30 1910 N 180.328 1.1314 -1.09713 0
M  V30 1911 C 181.577 1.83838 -0.829851 0
M  V30 1912 C 181.89 1.84599 0.646728 0
M  V30 1913 O 183.096 2.51218 1.02965 0
M  V30 1914 C 181.552 3.30069 -1.43466 0
M  V30 1915 C 181.16 3.37688 -2.94399 0
M  V30 1916 C 182.904 4.05788 -1.24645 0
M  V30 1917 C 180.811 4.78209 -3.47952 0
M  V30 1918 H 179.741 0.68877 -0.306777 0
M  V30 1919 H 182.392 1.27448 -1.3202 0
M  V30 1920 H 180.774 3.8628 -0.871996 0
M  V30 1921 H 181.948 2.91456 -3.56918 0
M  V30 1922 H 180.263 2.75436 -3.12289 0
M  V30 1923 H 182.86 5.09535 -1.62107 0
M  V30 1924 H 183.203 4.15878 -0.187357 0
M  V30 1925 H 183.736 3.55915 -1.77678 0
M  V30 1926 H 180.475 4.73311 -4.53495 0
M  V30 1927 H 179.995 5.24924 -2.90198 0
M  V30 1928 H 181.674 5.47133 -3.45332 0
M  V30 1929 N 181.806 0.884767 1.30421 0
M  V30 1930 C 183.083 0.423185 1.90967 0
M  V30 1931 C 183.463 -1.09605 1.80416 0
M  V30 1932 O 182.811 -1.93126 1.22125 0
M  V30 1933 C 183.021 0.921056 3.36627 0
M  V30 1934 C 184.369 0.955903 4.137 0
M  V30 1935 O 185.393 0.867706 3.4547 0
M  V30 1936 O 184.252 1.08614 5.35598 0
M  V30 1937 H 181.346 0.129369 0.816819 0
M  V30 1938 H 183.892 0.973653 1.3899 0
M  V30 1939 H 182.664 1.96489 3.3839 0
M  V30 1940 H 182.287 0.349741 3.96059 0
M  V30 1941 N 183.284 -1.43765 0.645699 0
M  V30 1942 C 184.7 -1.56509 0.312591 0
M  V30 1943 C 184.9 -1.6307 -1.18365 0
M  V30 1944 O 183.956 -1.58167 -1.96824 0
M  V30 1945 C 185.269 -2.82968 1.01733 0
M  V30 1946 C 186.817 -2.96701 0.996865 0
M  V30 1947 C 187.292 -4.25982 1.68236 0
M  V30 1948 N 188.783 -4.32829 1.64964 0
M  V30 1949 C 189.518 -5.31613 2.14885 0
M  V30 1950 N 189.014 -6.36718 2.73061 0
M  V30 1951 N 190.807 -5.23217 2.05428 0
M  V30 1952 H 182.958 -1.3775 1.61675 0
M  V30 1953 H 185.221 -0.661067 0.679481 0
M  V30 1954 H 184.927 -2.84156 2.0724 0
M  V30 1955 H 184.801 -3.72957 0.564177 0
M  V30 1956 H 187.188 -2.95058 -0.0497719 0
M  V30 1957 H 187.269 -2.08022 1.48865 0
M  V30 1958 H 186.913 -4.28386 2.72852 0
M  V30 1959 H 186.843 -5.13545 1.16529 0
M  V30 1960 H 189.334 -3.57493 1.22503 0
M  V30 1961 H 189.647 -7.08401 3.08848 0
M  V30 1962 H 187.992 -6.37362 2.77118 0
M  V30 1963 H 191.183 -4.40019 1.59689 0
M  V30 1964 H 191.356 -6.00045 2.44643 0
M  V30 1965 N 184.763 -0.387143 -1.52771 0
M  V30 1966 C 185.993 0.195585 -2.05672 0
M  V30 1967 C 186.401 1.41241 -1.25887 0
M  V30 1968 O 185.744 1.81265 -0.298081 0
M  V30 1969 C 185.806 0.632327 -3.53895 0
M  V30 1970 C 185.47 -0.470739 -4.54569 0
M  V30 1971 C 186.467 -1.32746 -5.02667 0
M  V30 1972 C 184.152 -0.637151 -4.98243 0
M  V30 1973 C 186.146 -2.33574 -5.93061 0
M  V30 1974 C 183.833 -1.64877 -5.88438 0
M  V30 1975 C 184.831 -2.49649 -6.35739 0
M  V30 1976 O 184.519 -3.49082 -7.24153 0
M  V30 1977 H 184.251 0.033658 -0.675162 0
M  V30 1978 H 186.805 -0.550221 -1.97893 0
M  V30 1979 H 185.035 1.43008 -3.59285 0
M  V30 1980 H 186.724 1.14048 -3.89548 0
M  V30 1981 H 187.49 -1.21019 -4.69659 0
M  V30 1982 H 183.369 0.0129567 -4.60998 0
M  V30 1983 H 186.913 -2.99777 -6.29904 0
M  V30 1984 H 182.81 -1.76643 -6.2086 0
M  V30 1985 H 183.578 -3.45065 -7.42208 0
M  V30 1986 N 186.241 1.57166 -0.116904 0
M  V30 1987 C 187.657 1.5779 0.239693 0
M  V30 1988 C 187.857 1.1295 1.66867 0
M  V30 1989 O 186.913 0.81592 2.38954 0
M  V30 1990 C 188.226 3.00699 0.00828202 0
M  V30 1991 C 189.774 3.12912 0.0743438 0
M  V30 1992 C 190.249 4.57817 -0.129348 0
M  V30 1993 N 191.74 4.63139 -0.075247 0
M  V30 1994 C 192.475 5.73023 -0.207788 0
M  V30 1995 N 191.971 6.91665 -0.396382 0
M  V30 1996 N 193.764 5.61906 -0.14751 0
M  V30 1997 H 185.915 1.84615 -1.05029 0
M  V30 1998 H 188.178 0.85311 -0.41341 0
M  V30 1999 H 187.884 3.37784 -0.979531 0
M  V30 2000 H 187.758 3.69848 0.741077 0
M  V30 2001 H 190.145 2.75686 1.05268 0
M  V30 2002 H 190.226 2.4631 -0.690297 0
M  V30 2003 H 189.87 4.95742 -1.10465 0
M  V30 2004 H 189.8 5.22507 0.655253 0
M  V30 2005 H 192.291 3.7784 0.0670898 0
M  V30 2006 H 192.604 7.71255 -0.488437 0
M  V30 2007 H 190.949 6.93654 -0.432329 0
M  V30 2008 H 194.14 4.681 -0.00115036 0
M  V30 2009 H 194.313 6.47501 -0.254247 0
M  V30 2010 N 187.719 -0.156864 1.56817 0
M  V30 2011 C 188.944 -0.890331 1.87318 0
M  V30 2012 C 189.369 -1.74394 0.704855 0
M  V30 2013 O 188.727 -1.77972 -0.345786 0
M  V30 2014 C 188.775 -1.73102 3.16336 0
M  V30 2015 O 187.879 -2.83422 2.99576 0
M  V30 2016 H 187.22 -0.24857 0.615718 0
M  V30 2017 H 189.75 -0.150649 2.04045 0
M  V30 2018 H 189.76 -2.12803 3.48107 0
M  V30 2019 H 188.435 -1.10412 4.00976 0
M  V30 2020 H 187.012 -2.47199 2.7919 0
M  V30 2021 N 189.197 -1.51736 -0.425897 0
M  V30 2022 C 190.443 -1.65214 -1.1761 0
M  V30 2023 C 190.776 -0.372778 -1.90589 0
M  V30 2024 O 190.051 0.628139 -1.84078 0
M  V30 2025 C 190.334 -2.86312 -2.18398 0
M  V30 2026 C 190.187 -4.24254 -1.49426 0
M  V30 2027 C 191.506 -3.02925 -3.19256 0
M  V30 2028 H 188.625 -0.601263 -0.426206 0
M  V30 2029 H 191.267 -1.8425 -0.463882 0
M  V30 2030 H 189.417 -2.70213 -2.79137 0
M  V30 2031 H 191.089 -4.52046 -0.919362 0
M  V30 2032 H 189.332 -4.26426 -0.796432 0
M  V30 2033 H 190.003 -5.05001 -2.22885 0
M  V30 2034 H 192.479 -3.1781 -2.68581 0
M  V30 2035 H 191.355 -3.89199 -3.8706 0
M  V30 2036 H 191.616 -2.15497 -3.86023 0
M  V30 2037 N 190.675 0.682077 -1.42076 0
M  V30 2038 C 191.607 1.80755 -1.40926 0
M  V30 2039 C 192.62 1.59833 -0.309398 0
M  V30 2040 O 193.809 1.69087 -0.572014 0
M  V30 2041 C 190.909 3.17744 -1.17865 0
M  V30 2042 C 190.082 3.65578 -2.40149 0
M  V30 2043 C 189.141 4.81277 -2.12742 0
M  V30 2044 O 188.167 4.92197 -2.85887 0
M  V30 2045 N 189.369 5.69474 -1.12602 0
M  V30 2046 H 192.134 1.82229 -2.37935 0
M  V30 2047 H 189.695 0.864903 -1.36861 0
M  V30 2048 H 191.687 3.9279 -0.9746 0
M  V30 2049 H 190.257 3.11214 -0.294068 0
M  V30 2050 H 189.477 2.81291 -2.76169 0
M  V30 2051 H 190.765 3.94278 -3.21593 0
M  V30 2052 H 190.163 5.63297 -0.520899 0
M  V30 2053 H 188.72 6.44363 -0.981842 0
M  V30 2054 N 192.153 1.28127 0.917671 0
M  V30 2055 C 193.085 1.07517 2.02417 0
M  V30 2056 C 194.098 0.0281099 1.62776 0
M  V30 2057 O 195.287 0.270748 1.76435 0
M  V30 2058 C 192.387 0.610957 3.33347 0
M  V30 2059 C 191.56 1.73255 4.01624 0
M  V30 2060 C 190.619 1.26238 5.10833 0
M  V30 2061 O 189.645 1.96389 5.34247 0
M  V30 2062 N 190.847 0.123448 5.80369 0
M  V30 2063 H 193.612 2.02806 2.20658 0
M  V30 2064 H 191.173 1.19827 1.08871 0
M  V30 2065 H 193.165 0.280101 4.0373 0
M  V30 2066 H 191.735 -0.24898 3.11607 0
M  V30 2067 H 190.955 2.23319 3.24842 0
M  V30 2068 H 192.243 2.48503 4.43986 0
M  V30 2069 H 191.641 -0.461847 5.63812 0
M  V30 2070 H 190.198 -0.148158 6.51632 0
M  V30 2071 N 193.631 -1.12557 1.10312 0
M  V30 2072 C 195.042 -1.65574 0.862678 0
M  V30 2073 C 195.393 -1.86566 -0.607256 0
M  V30 2074 O 194.518 -1.59121 -1.46662 0
M  V30 2075 C 195.113 -3.00776 1.55947 0
M  V30 2076 C 193.672 -3.50748 1.36576 0
M  V30 2077 C 192.819 -2.25797 1.60968 0
M  V30 2078 H 195.77 -0.963552 1.26101 0
M  V30 2079 H 195.791 -3.67185 0.997753 0
M  V30 2080 H 195.303 -2.85465 2.62928 0
M  V30 2081 H 193.404 -3.71245 0.317531 0
M  V30 2082 H 193.517 -4.30289 2.10686 0
M  V30 2083 H 191.881 -2.32841 1.03234 0
M  V30 2084 H 192.664 -2.13043 2.69198 0
M  V30 2085 N 195.109 -0.891671 -1.2995 0
M  V30 2086 C 196.039 -0.379797 -2.30391 0
M  V30 2087 C 197.02 0.540919 -1.6127 0
M  V30 2088 O 198.205 0.453352 -1.88834 0
M  V30 2089 C 195.335 0.400654 -3.44981 0
M  V30 2090 C 194.289 -0.428905 -4.25846 0
M  V30 2091 C 193.615 0.478557 -5.32554 0
M  V30 2092 C 194.915 -1.67458 -4.94727 0
M  V30 2093 H 196.609 -1.21914 -2.73454 0
M  V30 2094 H 194.155 -0.587675 -1.31462 0
M  V30 2095 H 196.108 0.769434 -4.14316 0
M  V30 2096 H 194.832 1.27371 -3.0074 0
M  V30 2097 H 193.491 -0.779911 -3.58208 0
M  V30 2098 H 193.139 1.34951 -4.84559 0
M  V30 2099 H 192.839 -0.0727433 -5.87555 0
M  V30 2100 H 194.363 0.843705 -6.04743 0
M  V30 2101 H 195.777 -1.376 -5.56542 0
M  V30 2102 H 194.174 -2.16659 -5.59624 0
M  V30 2103 H 195.244 -2.41518 -4.20473 0
M  V30 2104 N 196.587 1.43421 -0.653314 0
M  V30 2105 C 198.003 1.56341 -0.320886 0
M  V30 2106 C 198.203 1.63696 1.17499 0
M  V30 2107 O 197.259 1.59208 1.95982 0
M  V30 2108 C 198.572 2.82424 -1.03233 0
M  V30 2109 C 200.12 2.96168 -1.01259 0
M  V30 2110 C 200.595 4.25084 -1.70492 0
M  V30 2111 N 202.086 4.31948 -1.67257 0
M  V30 2112 C 202.821 5.30466 -2.17701 0
M  V30 2113 N 202.317 6.35261 -2.76434 0
M  V30 2114 N 204.11 5.2212 -2.082 0
M  V30 2115 H 196.261 1.3689 -1.62403 0
M  V30 2116 H 198.524 0.657455 -0.682977 0
M  V30 2117 H 198.23 2.83053 -2.08744 0
M  V30 2118 H 198.104 3.72653 -0.583948 0
M  V30 2119 H 200.491 2.9508 0.0341235 0
M  V30 2120 H 200.572 2.07229 -1.49966 0
M  V30 2121 H 200.216 4.26932 -2.7512 0
M  V30 2122 H 200.146 5.1292 -1.19251 0
M  V30 2123 H 202.637 3.56838 -1.24398 0
M  V30 2124 H 202.95 7.06754 -3.12601 0
M  V30 2125 H 201.295 6.35884 -2.80495 0
M  V30 2126 H 204.486 4.39166 -1.62021 0
M  V30 2127 H 204.659 5.98739 -2.47822 0
M  V30 2128 N 198.065 0.39524 1.52563 0
M  V30 2129 C 199.295 -0.184675 2.05773 0
M  V30 2130 C 199.703 -1.40571 1.26635 0
M  V30 2131 O 199.046 -1.81105 0.30769 0
M  V30 2132 C 199.108 -0.613551 3.54226 0
M  V30 2133 C 198.772 0.49484 4.54313 0
M  V30 2134 C 199.769 1.3541 5.01956 0
M  V30 2135 C 197.454 0.663565 4.97898 0
M  V30 2136 C 199.448 2.36716 5.91814 0
M  V30 2137 C 197.135 1.67996 5.87555 0
M  V30 2138 C 198.133 2.53017 6.34406 0
M  V30 2139 O 197.821 3.52917 7.22291 0
M  V30 2140 H 197.553 -0.030077 0.675331 0
M  V30 2141 H 200.107 0.560708 1.97599 0
M  V30 2142 H 198.337 -1.411 3.60038 0
M  V30 2143 H 200.026 -1.11981 3.90148 0
M  V30 2144 H 200.792 1.23509 4.6901 0
M  V30 2145 H 196.671 0.0114913 4.60999 0
M  V30 2146 H 200.215 3.03113 6.28306 0
M  V30 2147 H 196.112 1.79933 6.19915 0
M  V30 2148 H 196.88 3.48996 7.40367 0
M  V30 2149 N 199.544 -1.57102 0.125237 0
M  V30 2150 C 200.474 -2.18659 -0.819174 0
M  V30 2151 C 201.455 -1.12843 -1.27281 0
M  V30 2152 O 202.64 -1.41104 -1.33429 0
M  V30 2153 C 199.77 -2.79096 -2.06695 0
M  V30 2154 C 198.724 -3.90548 -1.75088 0
M  V30 2155 C 198.05 -4.37821 -3.06948 0
M  V30 2156 C 199.35 -5.12356 -1.01435 0
M  V30 2157 H 201.044 -2.9783 -0.306202 0
M  V30 2158 H 198.59 -1.4326 -0.145839 0
M  V30 2159 H 200.543 -3.2082 -2.73226 0
M  V30 2160 H 199.267 -1.97223 -2.60328 0
M  V30 2161 H 197.926 -3.49409 -1.10944 0
M  V30 2162 H 197.574 -3.52799 -3.58527 0
M  V30 2163 H 197.274 -5.12982 -2.86571 0
M  V30 2164 H 198.798 -4.822 -3.74587 0
M  V30 2165 H 200.212 -5.5106 -1.58132 0
M  V30 2166 H 198.609 -5.9314 -0.911319 0
M  V30 2167 H 199.679 -4.849 -0.00218681 0
M  V30 2168 N 201.022 0.148545 -1.56898 0
M  V30 2169 C 202.438 0.501131 -1.51528 0
M  V30 2170 C 202.638 1.83458 -0.833399 0
M  V30 2171 O 201.694 2.49259 -0.40328 0
M  V30 2172 C 203.007 0.512864 -2.96294 0
M  V30 2173 C 204.555 0.598487 -3.07225 0
M  V30 2174 C 205.03 0.640897 -4.53494 0
M  V30 2175 N 206.521 0.703163 -4.57832 0
M  V30 2176 C 207.256 0.756935 -5.68382 0
M  V30 2177 N 206.752 0.770147 -6.88506 0
M  V30 2178 N 208.545 0.797698 -5.56411 0
M  V30 2179 H 200.696 -0.725532 -1.99624 0
M  V30 2180 H 202.959 -0.264358 -0.910395 0
M  V30 2181 H 202.665 -0.398691 -3.49433 0
M  V30 2182 H 202.539 1.35133 -3.52163 0
M  V30 2183 H 204.926 1.50046 -2.54106 0
M  V30 2184 H 205.007 -0.267093 -2.54402 0
M  V30 2185 H 204.651 -0.256915 -5.0725 0
M  V30 2186 H 204.581 1.52295 -5.04097 0
M  V30 2187 H 207.072 0.700314 -3.71354 0
M  V30 2188 H 207.385 0.812983 -7.68512 0
M  V30 2189 H 205.73 0.738049 -6.9107 0
M  V30 2190 H 208.921 0.784535 -4.61479 0
M  V30 2191 H 209.094 0.83614 -6.42583 0
M  V30 2192 N 202.5 1.5196 0.417844 0
M  V30 2193 C 203.73 1.69181 1.18581 0
M  V30 2194 C 204.138 0.397104 1.84986 0
M  V30 2195 O 203.481 -0.636011 1.72339 0
M  V30 2196 C 203.543 2.76497 2.29759 0
M  V30 2197 C 203.207 4.18514 1.83563 0
M  V30 2198 C 204.204 5.02648 1.32821 0
M  V30 2199 C 201.889 4.64708 1.90661 0
M  V30 2200 C 203.883 6.31044 0.897894 0
M  V30 2201 C 201.57 5.93096 1.47241 0
M  V30 2202 C 202.568 6.76093 0.968891 0
M  V30 2203 O 202.256 8.02078 0.540924 0
M  V30 2204 H 201.988 0.570457 0.362705 0
M  V30 2205 H 204.542 1.99249 0.498885 0
M  V30 2206 H 202.772 2.41786 3.01789 0
M  V30 2207 H 204.461 2.82403 2.91553 0
M  V30 2208 H 205.227 4.68154 1.26716 0
M  V30 2209 H 201.106 4.00216 2.28797 0
M  V30 2210 H 204.65 6.95776 0.504192 0
M  V30 2211 H 200.547 6.271 1.53022 0
M  V30 2212 H 201.315 8.15794 0.66502 0
M  V30 2213 N 203.978 -0.674533 1.42435 0
M  V30 2214 C 205.394 -0.98769 1.25367 0
M  V30 2215 C 205.594 -2.00879 0.158044 0
M  V30 2216 O 204.65 -2.48075 -0.470633 0
M  V30 2217 C 205.963 -1.49224 2.6106 0
M  V30 2218 C 207.511 -1.61 2.68417 0
M  V30 2219 C 207.986 -2.14852 4.04478 0
M  V30 2220 N 209.477 -2.22185 4.06434 0
M  V30 2221 C 210.212 -2.64928 5.08528 0
M  V30 2222 N 209.708 -3.07121 6.21006 0
M  V30 2223 N 211.501 -2.64679 4.95885 0
M  V30 2224 H 203.652 0.00152503 2.124 0
M  V30 2225 H 205.915 -0.0618434 0.945981 0
M  V30 2226 H 205.621 -0.816453 3.42092 0
M  V30 2227 H 205.495 -2.47094 2.84999 0
M  V30 2228 H 207.882 -2.27686 1.87732 0
M  V30 2229 H 207.963 -0.616195 2.48267 0
M  V30 2230 H 207.607 -1.48775 4.85622 0
M  V30 2231 H 207.537 -3.15024 4.2198 0
M  V30 2232 H 210.028 -1.92435 3.25234 0
M  V30 2233 H 210.341 -3.38423 6.94759 0
M  V30 2234 H 208.686 -3.04978 6.24511 0
M  V30 2235 H 211.877 -2.31078 4.07088 0
M  V30 2236 H 212.05 -2.9767 5.75584 0
M  V30 2237 N 205.456 -1.28612 -0.910864 0
M  V30 2238 C 206.684 -1.18792 -1.69399 0
M  V30 2239 C 207.099 0.253039 -1.87097 0
M  V30 2240 O 206.456 1.17071 -1.40003 0
M  V30 2241 C 206.507 -1.88511 -3.08457 0
M  V30 2242 O 206.228 -3.26979 -2.91576 0
M  V30 2243 C 207.729 -1.85029 -4.02839 0
M  V30 2244 H 204.949 -0.412233 -0.529438 0
M  V30 2245 H 207.493 -1.69788 -1.13984 0
M  V30 2246 H 205.648 -1.41379 -3.60681 0
M  V30 2247 H 206.062 -3.61936 -3.79608 0
M  V30 2248 H 207.536 -2.38395 -4.97867 0
M  V30 2249 H 208.013 -0.823303 -4.31414 0
M  V30 2250 H 208.619 -2.31853 -3.56545 0
M  V30 2251 N 206.934 1.1197 -1.10907 0
M  V30 2252 C 207.881 2.17846 -0.762345 0
M  V30 2253 C 208.851 1.63995 0.263599 0
M  V30 2254 O 210.036 1.90273 0.141773 0
M  V30 2255 C 207.176 3.44487 -0.205651 0
M  V30 2256 C 206.289 4.12369 -1.28748 0
M  V30 2257 C 205.424 5.26674 -0.691919 0
M  V30 2258 C 204.463 5.86431 -1.75399 0
M  V30 2259 N 203.6 6.92142 -1.17833 0
M  V30 2260 H 208.44 2.46851 -1.6694 0
M  V30 2261 H 205.977 1.21188 -0.833776 0
M  V30 2262 H 207.935 4.16981 0.135037 0
M  V30 2263 H 206.565 3.15884 0.664613 0
M  V30 2264 H 205.617 3.38003 -1.74522 0
M  V30 2265 H 206.929 4.52844 -2.09125 0
M  V30 2266 H 206.083 6.05953 -0.300963 0
M  V30 2267 H 204.822 4.8749 0.143232 0
M  V30 2268 H 203.827 5.05835 -2.15432 0
M  V30 2269 H 205.052 6.27685 -2.59208 0
M  V30 2270 H 202.998 6.54985 -0.364725 0
M  V30 2271 H 202.915 7.31242 -1.91887 0
M  V30 2272 H 204.183 7.75237 -0.81408 0
M  V30 2273 N 208.412 0.89855 1.29475 0
M  V30 2274 C 209.64 0.539261 1.99749 0
M  V30 2275 C 210.055 -0.875716 1.67262 0
M  V30 2276 O 209.412 -1.57786 0.917049 0
M  V30 2277 C 209.463 0.72061 3.54245 0
M  V30 2278 O 209.184 2.07989 3.8558 0
M  V30 2279 C 210.685 0.366118 4.41786 0
M  V30 2280 H 207.905 0.207047 0.638258 0
M  V30 2281 H 210.449 1.20758 1.65039 0
M  V30 2282 H 208.604 0.0994862 3.87272 0
M  V30 2283 H 209.018 2.10841 4.80257 0
M  V30 2284 H 210.492 0.543848 5.49314 0
M  V30 2285 H 210.969 -0.696763 4.33638 0
M  V30 2286 H 211.575 0.964135 4.14228 0
M  V30 2287 N 209.89 -1.43072 0.660911 0
M  V30 2288 C 211.306 -1.56169 0.329173 0
M  V30 2289 C 211.506 -1.64317 -1.16629 0
M  V30 2290 O 210.562 -1.60245 -1.95135 0
M  V30 2291 C 211.875 -2.81873 1.04729 0
M  V30 2292 C 213.423 -2.95627 1.02828 0
M  V30 2293 C 213.898 -4.24174 1.72744 0
M  V30 2294 N 215.389 -4.31055 1.69545 0
M  V30 2295 C 216.124 -5.29304 2.20511 0
M  V30 2296 N 215.62 -6.33786 2.79799 0
M  V30 2297 N 217.413 -5.21008 2.10966 0
M  V30 2298 H 209.564 -1.36027 1.63127 0
M  V30 2299 H 211.827 -0.653823 0.686454 0
M  V30 2300 H 211.533 -2.81942 2.10242 0
M  V30 2301 H 211.407 -3.72338 0.603702 0
M  V30 2302 H 213.794 -2.95094 -0.0184742 0
M  V30 2303 H 213.875 -2.06431 1.51063 0
M  V30 2304 H 213.519 -4.25467 2.7738 0
M  V30 2305 H 213.449 -5.1228 1.2197 0
M  V30 2306 H 215.94 -3.56174 1.26288 0
M  V30 2307 H 216.253 -7.05086 3.16344 0
M  V30 2308 H 214.598 -6.34387 2.83863 0
M  V30 2309 H 217.789 -4.38301 1.64347 0
M  V30 2310 H 217.962 -5.97416 2.50993 0
M  V30 2311 N 211.368 -0.403325 -1.52352 0
M  V30 2312 C 212.331 0.413051 -2.25447 0
M  V30 2313 C 213.331 0.978513 -1.276 0
M  V30 2314 O 214.521 0.858305 -1.51587 0
M  V30 2315 C 211.653 1.58087 -3.02029 0
M  V30 2316 H 212.846 -0.227094 -2.99039 0
M  V30 2317 H 210.399 -0.155722 -1.55522 0
M  V30 2318 H 211.134 2.25804 -2.32772 0
M  V30 2319 H 210.919 1.18195 -3.73861 0
M  V30 2320 H 212.409 2.1585 -3.57489 0
M  V30 2321 N 212.846 1.57033 -0.133567 0
M  V30 2322 C 214.071 2.00475 0.531477 0
M  V30 2323 C 214.496 1.01291 1.58499 0
M  V30 2324 O 213.854 -0.0133279 1.81295 0
M  V30 2325 C 213.902 3.42729 1.12113 0
M  V30 2326 O 213.006 3.46498 2.23636 0
M  V30 2327 H 212.347 0.650876 0.131362 0
M  V30 2328 H 214.877 2.03344 -0.22634 0
M  V30 2329 H 214.887 3.81246 1.4531 0
M  V30 2330 H 213.562 4.14428 0.349557 0
M  V30 2331 H 212.139 3.19811 1.91769 0
M  V30 2332 N 214.325 -0.140222 1.56975 0
M  V30 2333 C 215.288 -1.15689 1.97861 0
M  V30 2334 C 216.288 -1.3549 0.865974 0
M  V30 2335 O 217.478 -1.32367 1.13246 0
M  V30 2336 C 214.61 -2.51582 2.30042 0
M  V30 2337 H 215.803 -0.805971 2.88867 0
M  V30 2338 H 213.356 -0.383801 1.51515 0
M  V30 2339 H 214.091 -2.91632 1.41849 0
M  V30 2340 H 213.876 -2.38569 3.11171 0
M  V30 2341 H 215.366 -3.24792 2.62488 0
M  V30 2342 N 215.803 -1.52179 -0.40978 0
M  V30 2343 C 217.031 -1.70054 -1.17853 0
M  V30 2344 C 217.446 -0.409735 -1.843 0
M  V30 2345 O 216.803 0.614183 -1.71855 0
M  V30 2346 C 216.854 -2.83568 -2.24213 0
M  V30 2347 O 216.575 -4.0765 -1.60478 0
M  V30 2348 C 218.076 -3.12947 -3.13973 0
M  V30 2349 H 215.296 -0.569917 -0.354169 0
M  V30 2350 H 217.84 -1.98734 -0.482198 0
M  V30 2351 H 215.995 -2.57409 -2.89516 0
M  V30 2352 H 216.409 -4.70899 -2.30986 0
M  V30 2353 H 217.883 -3.95889 -3.84677 0
M  V30 2354 H 218.36 -2.26472 -3.76307 0
M  V30 2355 H 218.966 -3.40868 -2.5434 0
M  V30 2356 N 217.281 0.66697 -1.42791 0
M  V30 2357 C 218.53 1.42278 -1.42968 0
M  V30 2358 C 218.843 1.9553 -0.0524489 0
M  V30 2359 O 220.049 2.71414 0.068363 0
M  V30 2360 C 218.505 2.57418 -2.51524 0
M  V30 2361 C 218.113 2.10832 -3.9529 0
M  V30 2362 C 219.857 3.34878 -2.60877 0
M  V30 2363 C 217.764 3.23101 -4.95338 0
M  V30 2364 H 216.694 0.534533 -0.531781 0
M  V30 2365 H 219.345 0.721302 -1.68729 0
M  V30 2366 H 217.727 3.29971 -2.18941 0
M  V30 2367 H 218.901 1.4538 -4.37266 0
M  V30 2368 H 217.216 1.46289 -3.89857 0
M  V30 2369 H 219.813 4.18505 -3.32802 0
M  V30 2370 H 220.156 3.81993 -1.6549 0
M  V30 2371 H 220.689 2.69398 -2.92693 0
M  V30 2372 H 217.428 2.80969 -5.9223 0
M  V30 2373 H 216.948 3.87309 -4.57987 0
M  V30 2374 H 218.627 3.88447 -5.17415 0
M  V30 2375 N 218.759 1.29093 0.90403 0
M  V30 2376 C 219.689 1.16401 2.02418 0
M  V30 2377 C 220.67 0.0593085 1.69997 0
M  V30 2378 O 221.855 0.238021 1.92736 0
M  V30 2379 C 218.985 0.835233 3.37107 0
M  V30 2380 C 217.939 1.89578 3.83724 0
M  V30 2381 C 217.265 1.42041 5.15489 0
M  V30 2382 C 218.565 3.30394 4.04521 0
M  V30 2383 H 220.259 2.10109 2.13295 0
M  V30 2384 H 217.805 1.01157 1.02486 0
M  V30 2385 H 219.758 0.733169 4.14973 0
M  V30 2386 H 218.482 -0.137543 3.2631 0
M  V30 2387 H 217.141 1.98715 3.08071 0
M  V30 2388 H 216.789 0.436426 5.01103 0
M  V30 2389 H 216.489 2.12964 5.4765 0
M  V30 2390 H 218.013 1.33176 5.959 0
M  V30 2391 H 219.427 3.24123 4.72882 0
M  V30 2392 H 217.824 3.99237 4.48029 0
M  V30 2393 H 218.894 3.73692 3.09002 0
M  V30 2394 N 220.237 -1.11381 1.11499 0
M  V30 2395 C 221.485 -1.8277 0.862524 0
M  V30 2396 C 221.806 -1.85097 -0.613534 0
M  V30 2397 O 221.076 -1.32198 -1.4457 0
M  V30 2398 H 219.656 -0.676823 0.316101 0
M  V30 2399 H 222.318 -1.34816 1.4075 0
M  V30 2400 H 221.414 -2.86614 1.23527 0
M  V30 2401 N 221.715 -0.905404 -1.28997 0
M  V30 2402 C 222.678 -0.392253 -2.25819 0
M  V30 2403 C 223.678 0.476753 -1.5357 0
M  V30 2404 O 224.868 0.280994 -1.71919 0
M  V30 2405 C 222 0.438588 -3.38067 0
M  V30 2406 H 223.193 -1.24743 -2.72725 0
M  V30 2407 H 220.746 -0.684051 -1.40536 0
M  V30 2408 H 221.481 1.31352 -2.96508 0
M  V30 2409 H 221.266 -0.184167 -3.91667 0
M  V30 2410 H 222.756 0.78873 -4.10084 0
M  V30 2411 N 223.193 1.4272 -0.668489 0
M  V30 2412 C 224.439 2.02443 -0.197076 0
M  V30 2413 C 224.794 1.51882 1.18109 0
M  V30 2414 O 224.087 0.708618 1.78015 0
M  V30 2415 C 224.281 3.57021 -0.164499 0
M  V30 2416 C 224.11 4.22583 -1.53797 0
M  V30 2417 C 222.88 4.58019 -2.13416 0
M  V30 2418 C 225.078 4.50588 -2.47941 0
M  V30 2419 N 223.06 5.08729 -3.4361 0
M  V30 2420 C 224.431 5.02782 -3.62782 0
M  V30 2421 C 226.486 4.32571 -2.46551 0
M  V30 2422 C 225.189 5.38852 -4.76478 0
M  V30 2423 C 227.215 4.69713 -3.59338 0
M  V30 2424 C 226.577 5.22053 -4.72906 0
M  V30 2425 H 222.676 0.773214 -0.116894 0
M  V30 2426 H 225.26 1.73673 -0.880108 0
M  V30 2427 H 223.431 3.85323 0.487925 0
M  V30 2428 H 225.163 4.03439 0.319207 0
M  V30 2429 H 221.918 4.43566 -1.65969 0
M  V30 2430 H 222.342 5.38521 -4.10273 0
M  V30 2431 H 226.984 3.91365 -1.59978 0
M  V30 2432 H 224.702 5.78993 -5.63731 0
M  V30 2433 H 228.288 4.57454 -3.59482 0
M  V30 2434 H 227.168 5.50258 -5.58736 0
M  V30 2435 N 224.671 0.411399 1.52136 0
M  V30 2436 C 225.918 -0.163645 2.01838 0
M  V30 2437 C 226.246 -1.4495 1.29691 0
M  V30 2438 O 225.501 -1.91725 0.392431 0
M  V30 2439 C 225.8 -0.455872 3.54481 0
M  V30 2440 C 225.466 0.741055 4.44769 0
M  V30 2441 C 224.128 1.06936 4.69167 0
M  V30 2442 C 226.48 1.54075 4.97906 0
M  V30 2443 C 223.808 2.19851 5.43951 0
M  V30 2444 C 226.16 2.66067 5.73926 0
M  V30 2445 C 224.824 2.99381 5.96596 0
M  V30 2446 H 224.094 -0.0598821 0.738576 0
M  V30 2447 H 226.741 0.553283 1.83333 0
M  V30 2448 H 225.046 -1.2544 3.71177 0
M  V30 2449 H 226.743 -0.913802 3.90449 0
M  V30 2450 H 223.333 0.475192 4.25958 0
M  V30 2451 H 227.517 1.30033 4.78963 0
M  V30 2452 H 222.773 2.46006 5.59724 0
M  V30 2453 H 226.947 3.28419 6.14096 0
M  V30 2454 H 224.574 3.86992 6.54325 0
M  V30 2455 N 226.149 -1.5696 0.141893 0
M  V30 2456 C 227.079 -2.19516 -0.795936 0
M  V30 2457 C 228.06 -1.14187 -1.26077 0
M  V30 2458 O 229.245 -1.42511 -1.31925 0
M  V30 2459 C 226.375 -2.81272 -2.03723 0
M  V30 2460 C 225.329 -3.92384 -1.70936 0
M  V30 2461 C 224.655 -4.41052 -3.02287 0
M  V30 2462 C 225.955 -5.13403 -0.959954 0
M  V30 2463 H 227.649 -2.98138 -0.274596 0
M  V30 2464 H 225.195 -1.43406 -0.130636 0
M  V30 2465 H 227.148 -3.237 -2.69808 0
M  V30 2466 H 225.872 -1.99973 -2.58221 0
M  V30 2467 H 224.531 -3.50566 -1.07232 0
M  V30 2468 H 224.179 -3.56582 -3.54765 0
M  V30 2469 H 223.879 -5.15993 -2.81114 0
M  V30 2470 H 225.403 -4.86146 -3.69451 0
M  V30 2471 H 226.817 -5.52706 -1.52279 0
M  V30 2472 H 225.214 -5.94073 -0.848357 0
M  V30 2473 H 226.284 -4.84875 0.0492434 0
M  V30 2474 N 227.627 0.131896 -1.57047 0
M  V30 2475 C 228.852 0.860418 -1.8871 0
M  V30 2476 C 229.277 1.73251 -0.73251 0
M  V30 2477 O 228.635 1.785 0.317429 0
M  V30 2478 C 228.683 1.68047 -3.19049 0
M  V30 2479 O 227.787 2.7862 -3.04047 0
M  V30 2480 H 227.128 0.238743 -0.619595 0
M  V30 2481 H 229.658 0.118169 -2.04258 0
M  V30 2482 H 229.668 2.07238 -3.51449 0
M  V30 2483 H 228.343 1.04018 -4.02682 0
M  V30 2484 H 226.92 2.42726 -2.83088 0
M  V30 2485 N 229.106 1.52395 0.401703 0
M  V30 2486 C 230.353 1.66817 1.14796 0
M  V30 2487 C 230.681 0.401772 1.90305 0
M  V30 2488 O 229.936 -0.615487 1.85769 0
M  V30 2489 C 230.235 2.84578 2.16217 0
M  V30 2490 C 229.901 4.22513 1.5746 0
M  V30 2491 C 228.563 4.60029 1.41161 0
M  V30 2492 C 230.915 5.0844 1.14622 0
M  V30 2493 C 228.243 5.81144 0.80552 0
M  V30 2494 C 230.595 6.30167 0.55428 0
M  V30 2495 C 229.259 6.66426 0.378482 0
M  V30 2496 H 228.529 0.610428 0.420069 0
M  V30 2497 H 231.176 1.86512 0.434212 0
M  V30 2498 H 229.481 2.59248 2.93764 0
M  V30 2499 H 231.178 2.92933 2.73845 0
M  V30 2500 H 227.768 3.92953 1.71132 0
M  V30 2501 H 231.952 4.80034 1.26021 0
M  V30 2502 H 227.208 6.07855 0.657399 0
M  V30 2503 H 231.382 6.96071 0.213983 0
M  V30 2504 H 229.009 7.60143 -0.0932606 0
M  V30 2505 N 230.584 -0.659388 1.43143 0
M  V30 2506 C 231.514 -1.78422 1.50625 0
M  V30 2507 C 232.495 -1.66216 0.361443 0
M  V30 2508 O 233.68 -1.85404 0.577834 0
M  V30 2509 C 230.81 -3.16815 1.42287 0
M  V30 2510 C 229.764 -3.43777 2.54954 0
M  V30 2511 C 229.09 -4.81905 2.31671 0
M  V30 2512 C 230.39 -3.39134 3.97222 0
M  V30 2513 H 232.084 -1.72417 2.44771 0
M  V30 2514 H 229.63 -0.828084 1.17808 0
M  V30 2515 H 231.583 -3.95253 1.46127 0
M  V30 2516 H 230.307 -3.23534 0.446435 0
M  V30 2517 H 228.966 -2.67707 2.50457 0
M  V30 2518 H 228.614 -4.85294 1.32284 0
M  V30 2519 H 228.314 -5.00906 3.07192 0
M  V30 2520 H 229.838 -5.62609 2.37284 0
M  V30 2521 H 231.252 -4.07518 4.03239 0
M  V30 2522 H 229.649 -3.69671 4.72719 0
M  V30 2523 H 230.719 -2.37426 4.22797 0
M  V30 2524 N 232.062 -1.29571 -0.897171 0
M  V30 2525 C 233.308 -1.18873 -1.65048 0
M  V30 2526 C 233.663 0.256707 -1.9068 0
M  V30 2527 O 232.956 1.18202 -1.50794 0
M  V30 2528 C 233.15 -1.9382 -3.00281 0
M  V30 2529 C 232.979 -3.45503 -2.8785 0
M  V30 2530 C 231.749 -4.14856 -2.88483 0
M  V30 2531 C 233.947 -4.40956 -2.64693 0
M  V30 2532 N 231.929 -5.52886 -2.66815 0
M  V30 2533 C 233.3 -5.66464 -2.5203 0
M  V30 2534 C 235.355 -4.3069 -2.49821 0
M  V30 2535 C 234.058 -6.82871 -2.26008 0
M  V30 2536 C 236.084 -5.46852 -2.25182 0
M  V30 2537 C 235.446 -6.71333 -2.13286 0
M  V30 2538 H 231.545 -0.489998 -0.609447 0
M  V30 2539 H 234.129 -1.63431 -1.05822 0
M  V30 2540 H 232.3 -1.51671 -3.57562 0
M  V30 2541 H 234.032 -1.75366 -3.64731 0
M  V30 2542 H 230.787 -3.66579 -2.99861 0
M  V30 2543 H 231.211 -6.25487 -2.59027 0
M  V30 2544 H 235.853 -3.35141 -2.5776 0
M  V30 2545 H 233.571 -7.78473 -2.16806 0
M  V30 2546 H 237.157 -5.40809 -2.14515 0
M  V30 2547 H 236.037 -7.59701 -1.94485 0
M  V30 2548 N 233.54 1.10788 -1.12088 0
M  V30 2549 C 234.786 1.82942 -0.875226 0
M  V30 2550 C 235.119 1.84779 0.597538 0
M  V30 2551 O 234.394 1.30578 1.44152 0
M  V30 2552 C 234.677 3.29789 -1.44606 0
M  V30 2553 C 234.53 3.36307 -2.98693 0
M  V30 2554 C 235.849 4.26064 -1.10261 0
M  V30 2555 H 232.968 0.664195 -0.319397 0
M  V30 2556 H 235.61 1.29867 -1.38689 0
M  V30 2557 H 233.76 3.75118 -1.01089 0
M  V30 2558 H 235.432 2.99487 -3.50864 0
M  V30 2559 H 233.675 2.76318 -3.34411 0
M  V30 2560 H 234.346 4.39694 -3.33726 0
M  V30 2561 H 236.822 3.88951 -1.4784 0
M  V30 2562 H 235.698 5.27183 -1.52869 0
M  V30 2563 H 235.959 4.42098 -0.0142953 0
M  V30 2564 N 235.018 0.912232 1.28515 0
M  V30 2565 C 236.267 0.540504 1.94323 0
M  V30 2566 C 236.58 -0.920044 1.72611 0
M  V30 2567 O 237.786 -1.39986 2.32629 0
M  V30 2568 C 236.242 0.915803 3.48053 0
M  V30 2569 C 235.85 2.39598 3.78546 0
M  V30 2570 C 237.594 0.614588 4.20027 0
M  V30 2571 C 235.501 2.71148 5.25578 0
M  V30 2572 H 234.431 0.198418 0.727424 0
M  V30 2573 H 237.082 1.11094 1.46049 0
M  V30 2574 H 235.464 0.274168 3.9505 0
M  V30 2575 H 236.638 3.08422 3.42364 0
M  V30 2576 H 234.953 2.66749 3.1974 0
M  V30 2577 H 237.55 0.827002 5.28266 0
M  V30 2578 H 237.893 -0.447531 4.13887 0
M  V30 2579 H 238.426 1.21462 3.78803 0
M  V30 2580 H 235.165 3.76207 5.36794 0
M  V30 2581 H 234.685 2.0696 5.62963 0
M  V30 2582 H 236.364 2.58072 5.93302 0
M  V30 2583 N 236.496 -1.42363 0.676048 0
M  V30 2584 C 237.907 -1.84649 0.275948 0
M  V30 2585 C 238.258 -1.56588 -1.18214 0
M  V30 2586 O 237.383 -1.02634 -1.90513 0
M  V30 2587 C 237.978 -3.35178 0.494053 0
M  V30 2588 C 236.537 -3.76109 0.148061 0
M  V30 2589 C 235.684 -2.65931 0.785891 0
M  V30 2590 H 238.635 -1.32192 0.878121 0
M  V30 2591 H 238.656 -3.79655 -0.25343 0
M  V30 2592 H 238.168 -3.55571 1.55535 0
M  V30 2593 H 236.269 -3.61323 -0.909742 0
M  V30 2594 H 236.382 -4.7546 0.589454 0
M  V30 2595 H 234.746 -2.53773 0.217113 0
M  V30 2596 H 235.529 -2.89146 1.85067 0
M  V30 2597 N 237.974 -0.419461 -1.51915 0
M  V30 2598 C 239.223 0.154346 -2.01109 0
M  V30 2599 C 239.536 1.45338 -1.30905 0
M  V30 2600 O 240.742 2.10906 -1.7097 0
M  V30 2601 C 239.198 0.325615 -3.58424 0
M  V30 2602 C 238.806 -0.961934 -4.37551 0
M  V30 2603 C 240.55 0.854155 -4.15818 0
M  V30 2604 C 238.457 -0.757287 -5.86531 0
M  V30 2605 H 237.387 0.0614563 -0.751491 0
M  V30 2606 H 240.038 -0.54649 -1.75173 0
M  V30 2607 H 238.42 1.08903 -3.80731 0
M  V30 2608 H 239.594 -1.7323 -4.26999 0
M  V30 2609 H 237.909 -1.41766 -3.91524 0
M  V30 2610 H 240.506 1.02346 -5.24814 0
M  V30 2611 H 240.849 1.83172 -3.73837 0
M  V30 2612 H 241.382 0.149528 -3.97519 0
M  V30 2613 H 238.121 -1.70671 -6.32892 0
M  V30 2614 H 237.641 -0.0264061 -5.99794 0
M  V30 2615 H 239.32 -0.403482 -6.45741 0
M  V30 2616 N 239.452 1.56882 -0.150215 0
M  V30 2617 C 240.382 2.19935 0.784284 0
M  V30 2618 C 241.363 1.14854 1.25469 0
M  V30 2619 O 242.548 1.43209 1.31168 0
M  V30 2620 C 239.678 2.82349 2.02229 0
M  V30 2621 C 238.632 3.93285 1.68853 0
M  V30 2622 C 237.958 4.42649 2.99944 0
M  V30 2623 C 239.258 5.13904 0.932714 0
M  V30 2624 H 240.952 2.9828 0.258781 0
M  V30 2625 H 238.498 1.43473 0.123029 0
M  V30 2626 H 240.451 3.25126 2.68088 0
M  V30 2627 H 239.175 2.0134 2.57157 0
M  V30 2628 H 237.834 3.5113 1.05371 0
M  V30 2629 H 237.482 3.58458 3.52869 0
M  V30 2630 H 237.182 5.17476 2.78374 0
M  V30 2631 H 238.706 4.88099 3.66868 0
M  V30 2632 H 240.12 5.53506 1.49345 0
M  V30 2633 H 238.517 5.94515 0.81684 0
M  V30 2634 H 239.587 4.84842 -0.0749568 0
M  V30 2635 N 240.93 -0.123565 1.57115 0
M  V30 2636 C 242.178 -0.83051 1.84247 0
M  V30 2637 C 242.499 -1.80629 0.73471 0
M  V30 2638 O 241.769 -1.94403 -0.241688 0
M  V30 2639 H 240.349 -0.309694 0.679778 0
M  V30 2640 H 243.011 -0.111976 1.94578 0
M  V30 2641 H 242.107 -1.37852 2.80006 0
M  V30 2642 N 242.408 -1.52605 -0.393616 0
M  V30 2643 C 243.654 -1.68624 -1.13743 0
M  V30 2644 C 244.009 -0.418687 -1.87789 0
M  V30 2645 O 243.302 0.58747 -1.82371 0
M  V30 2646 C 243.496 -2.85721 -2.14705 0
M  V30 2647 C 243.325 -4.23742 -1.50575 0
M  V30 2648 C 242.095 -4.89033 -1.2718 0
M  V30 2649 C 244.293 -5.05293 -0.958311 0
M  V30 2650 N 242.275 -6.11048 -0.591058 0
M  V30 2651 C 243.646 -6.18673 -0.405367 0
M  V30 2652 C 245.701 -4.90517 -0.854274 0
M  V30 2653 C 244.404 -7.18895 0.241434 0
M  V30 2654 C 246.43 -5.90986 -0.221301 0
M  V30 2655 C 245.792 -7.03669 0.320894 0
M  V30 2656 H 241.891 -0.670556 -0.402342 0
M  V30 2657 H 244.475 -1.89946 -0.427607 0
M  V30 2658 H 242.646 -2.65987 -2.83029 0
M  V30 2659 H 244.378 -2.90699 -2.8156 0
M  V30 2660 H 241.133 -4.47672 -1.54554 0
M  V30 2661 H 241.557 -6.76474 -0.266862 0
M  V30 2662 H 246.199 -4.03612 -1.25926 0
M  V30 2663 H 243.917 -8.05413 0.658448 0
M  V30 2664 H 247.503 -5.81626 -0.142111 0
M  V30 2665 H 246.383 -7.80078 0.802956 0
M  V30 2666 N 243.887 0.651787 -1.4349 0
M  V30 2667 C 244.837 1.75783 -1.45205 0
M  V30 2668 C 245.821 1.57679 -0.320328 0
M  V30 2669 O 247.013 1.67767 -0.564211 0
M  V30 2670 C 244.142 3.14377 -1.3792 0
M  V30 2671 C 243.228 3.38023 -2.56127 0
M  V30 2672 N 243.619 3.32135 -3.81471 0
M  V30 2673 C 241.917 3.68747 -2.50882 0
M  V30 2674 C 242.618 3.55902 -4.60118 0
M  V30 2675 N 241.594 3.77783 -3.90872 0
M  V30 2676 H 245.396 1.69657 -2.39987 0
M  V30 2677 H 242.91 0.853508 -1.38163 0
M  V30 2678 H 244.907 3.93666 -1.37231 0
M  V30 2679 H 243.567 3.21683 -0.441596 0
M  V30 2680 H 244.578 3.11515 -4.13738 0
M  V30 2681 H 241.255 3.8316 -1.65816 0
M  V30 2682 H 242.645 3.57116 -5.69138 0
M  V30 2683 N 245.365 1.30045 0.890287 0
M  V30 2684 C 246.315 1.12592 1.9826 0
M  V30 2685 C 247.299 0.0426021 1.60844 0
M  V30 2686 O 248.491 0.265346 1.75 0
M  V30 2687 C 245.62 0.814301 3.33503 0
M  V30 2688 C 244.706 1.93761 3.7725 0
M  V30 2689 N 245.097 3.18232 3.93143 0
M  V30 2690 C 243.395 1.83277 4.06602 0
M  V30 2691 C 244.096 3.9158 4.30163 0
M  V30 2692 N 243.072 3.19591 4.3973 0
M  V30 2693 H 246.874 2.07003 2.08631 0
M  V30 2694 H 244.388 1.21307 1.07974 0
M  V30 2695 H 246.385 0.67029 4.11476 0
M  V30 2696 H 245.045 -0.121797 3.24471 0
M  V30 2697 H 246.056 3.53581 3.78419 0
M  V30 2698 H 242.733 0.97001 4.06075 0
M  V30 2699 H 244.123 4.98744 4.50226 0
M  V30 2700 N 246.843 -1.10192 1.12674 0
M  V30 2701 C 248.09 -1.82205 0.883606 0
M  V30 2702 C 248.418 -1.8532 -0.590492 0
M  V30 2703 O 247.673 -1.31137 -1.45264 0
M  V30 2704 C 247.972 -3.28552 1.4067 0
M  V30 2705 C 247.638 -3.45582 2.89627 0
M  V30 2706 C 246.3 -3.49937 3.30299 0
M  V30 2707 C 248.652 -3.50768 3.85501 0
M  V30 2708 C 245.98 -3.57049 4.65546 0
M  V30 2709 C 248.332 -3.59414 5.20581 0
M  V30 2710 C 246.996 -3.62034 5.60792 0
M  V30 2711 H 246.266 -0.666735 0.323334 0
M  V30 2712 H 248.913 -1.29868 1.40736 0
M  V30 2713 H 247.218 -3.83473 0.80347 0
M  V30 2714 H 248.915 -3.82788 1.19475 0
M  V30 2715 H 245.505 -3.42871 2.57172 0
M  V30 2716 H 249.689 -3.46651 3.55171 0
M  V30 2717 H 244.945 -3.57361 4.96088 0
M  V30 2718 H 249.119 -3.62371 5.94693 0
M  V30 2719 H 246.746 -3.67298 6.6558 0
M  V30 2720 N 248.321 -0.919034 -1.28029 0
M  V30 2721 C 249.549 -0.570971 -1.98866 0
M  V30 2722 C 249.964 0.848996 -1.68634 0
M  V30 2723 O 249.321 1.56307 -0.942036 0
M  V30 2724 C 249.372 -0.776876 -3.53054 0
M  V30 2725 O 249.093 -2.14097 -3.82222 0
M  V30 2726 C 250.594 -0.436356 -4.41147 0
M  V30 2727 H 247.814 -0.217175 -0.634883 0
M  V30 2728 H 250.358 -1.23368 -1.63097 0
M  V30 2729 H 248.513 -0.161085 -3.87065 0
M  V30 2730 H 248.927 -2.18455 -4.76841 0
M  V30 2731 H 250.401 -0.63117 -5.4838 0
M  V30 2732 H 250.878 0.627686 -4.34692 0
M  V30 2733 H 251.484 -1.02991 -4.12641 0
M  V30 2734 N 249.799 1.42003 -0.683588 0
M  V30 2735 C 251.21 1.84501 -0.285736 0
M  V30 2736 C 251.561 1.57213 1.17382 0
M  V30 2737 O 250.686 1.03642 1.89966 0
M  V30 2738 C 251.281 3.34912 -0.511821 0
M  V30 2739 C 249.84 3.76025 -0.168005 0
M  V30 2740 C 248.987 2.6551 -0.799983 0
M  V30 2741 H 251.938 1.31724 -0.885119 0
M  V30 2742 H 251.959 3.79784 0.233292 0
M  V30 2743 H 251.471 3.54741 -1.57418 0
M  V30 2744 H 249.572 3.61801 0.890567 0
M  V30 2745 H 249.685 4.75141 -0.614661 0
M  V30 2746 H 248.049 2.53654 -0.230568 0
M  V30 2747 H 248.832 2.8816 -1.86597 0
M  V30 2748 N 251.277 0.427512 1.51691 0
M  V30 2749 C 252.207 -0.3796 2.30394 0
M  V30 2750 C 253.188 -1.02982 1.35384 0
M  V30 2751 O 254.373 -1.03534 1.643 0
M  V30 2752 C 251.503 -1.48649 3.1388 0
M  V30 2753 C 250.457 -0.960294 4.17088 0
M  V30 2754 C 249.783 -2.16219 4.89033 0
M  V30 2755 C 251.083 -0.00153679 5.223 0
M  V30 2756 H 252.777 0.277164 2.98114 0
M  V30 2757 H 250.323 0.134739 1.43368 0
M  V30 2758 H 252.276 -2.05826 3.67714 0
M  V30 2759 H 251 -2.1714 2.43962 0
M  V30 2760 H 249.659 -0.410806 3.64291 0
M  V30 2761 H 249.307 -2.83307 4.15628 0
M  V30 2762 H 249.007 -1.81654 5.58816 0
M  V30 2763 H 250.531 -2.73968 5.45687 0
M  V30 2764 H 251.945 -0.482687 5.71264 0
M  V30 2765 H 250.342 0.256199 5.99553 0
M  V30 2766 H 251.412 0.938174 4.75738 0
M  V30 2767 N 252.755 -1.56801 0.158532 0
M  V30 2768 C 253.718 -2.16138 -0.762705 0
M  V30 2769 C 254.718 -1.1061 -1.16713 0
M  V30 2770 O 255.908 -1.36191 -1.08617 0
M  V30 2771 C 253.04 -2.73386 -2.03649 0
M  V30 2772 H 254.233 -2.98886 -0.246354 0
M  V30 2773 H 251.786 -1.56035 -0.0909744 0
M  V30 2774 H 252.521 -1.94335 -2.59623 0
M  V30 2775 H 252.306 -3.50601 -1.75559 0
M  V30 2776 H 253.796 -3.19065 -2.6942 0
M  V30 2777 N 254.233 0.115231 -1.57178 0
M  V30 2778 C 255.644 0.67197 -1.74188 0
M  V30 2779 C 255.995 1.80125 -0.777777 0
M  V30 2780 O 255.12 2.16346 0.0484376 0
M  V30 2781 C 255.715 1.22573 -3.1585 0
M  V30 2782 C 254.274 1.72872 -3.34353 0
M  V30 2783 C 253.421 0.629972 -2.70049 0
M  V30 2784 H 256.372 -0.110712 -1.58313 0
M  V30 2785 H 256.393 2.09535 -3.17609 0
M  V30 2786 H 255.905 0.403598 -3.85996 0
M  V30 2787 H 254.006 2.5755 -2.69256 0
M  V30 2788 H 254.119 1.83557 -4.42542 0
M  V30 2789 H 252.483 1.0645 -2.31388 0
M  V30 2790 H 253.266 -0.181241 -3.42821 0
M  V30 2791 N 255.711 1.52812 0.385517 0
M  V30 2792 C 256.621 1.80766 1.49535 0
M  V30 2793 C 257.637 0.694651 1.59532 0
M  V30 2794 O 258.813 0.982611 1.75803 0
M  V30 2795 C 255.878 1.97381 2.85029 0
M  V30 2796 C 254.939 3.21295 2.84724 0
M  V30 2797 C 254.172 3.37108 4.13756 0
M  V30 2798 O 254.395 2.5765 5.08893 0
M  V30 2799 O 253.329 4.30378 4.20783 0
M  V30 2800 H 257.155 2.75015 1.28842 0
M  V30 2801 H 254.74 1.37946 0.573697 0
M  V30 2802 H 256.622 2.09996 3.65349 0
M  V30 2803 H 255.297 1.06322 3.05741 0
M  V30 2804 H 254.204 3.1412 2.03174 0
M  V30 2805 H 255.537 4.12212 2.68965 0
M  V30 2806 N 257.189 -0.644168 1.43834 0
M  V30 2807 C 258.119 -1.76814 1.52509 0
M  V30 2808 C 259.1 -1.65823 0.379052 0
M  V30 2809 O 260.285 -1.84781 0.597466 0
M  V30 2810 C 257.415 -3.15288 1.4564 0
M  V30 2811 C 256.369 -3.41053 2.58586 0
M  V30 2812 C 255.695 -4.79421 2.36769 0
M  V30 2813 C 256.995 -3.34902 4.00797 0
M  V30 2814 H 258.689 -1.69812 2.46586 0
M  V30 2815 H 256.235 -0.815542 1.1868 0
M  V30 2816 H 258.188 -3.93681 1.50311 0
M  V30 2817 H 256.912 -3.23043 0.480725 0
M  V30 2818 H 255.571 -2.65035 2.53282 0
M  V30 2819 H 255.219 -4.83863 1.37424 0
M  V30 2820 H 254.919 -4.9762 3.12487 0
M  V30 2821 H 256.443 -5.6006 2.43238 0
M  V30 2822 H 257.857 -4.03218 4.07539 0
M  V30 2823 H 256.254 -3.64637 4.76613 0
M  V30 2824 H 257.324 -2.32928 4.25291 0
M  V30 2825 N 258.668 -1.30515 -0.883378 0
M  V30 2826 C 260.084 -1.08881 -1.16692 0
M  V30 2827 C 260.284 0.149409 -2.00945 0
M  V30 2828 O 259.34 0.84257 -2.38027 0
M  V30 2829 C 260.653 -2.35319 -1.87204 0
M  V30 2830 C 262.201 -2.40799 -1.99962 0
M  V30 2831 C 262.676 -3.67083 -2.73887 0
M  V30 2832 N 264.167 -3.679 -2.81432 0
M  V30 2833 C 264.902 -4.62303 -3.3921 0
M  V30 2834 N 264.398 -5.67052 -3.98025 0
M  V30 2835 N 266.191 -4.49845 -3.3704 0
M  V30 2836 H 258.342 -2.09951 -0.321633 0
M  V30 2837 H 260.605 -0.92556 -0.205043 0
M  V30 2838 H 260.311 -3.25689 -1.3274 0
M  V30 2839 H 260.185 -2.44089 -2.87577 0
M  V30 2840 H 262.572 -1.50907 -2.53597 0
M  V30 2841 H 262.653 -2.36003 -0.98673 0
M  V30 2842 H 262.297 -4.57334 -2.20925 0
M  V30 2843 H 262.227 -3.69141 -3.75556 0
M  V30 2844 H 264.718 -2.92171 -2.39676 0
M  V30 2845 H 265.031 -6.35184 -4.40183 0
M  V30 2846 H 263.376 -5.70842 -3.96439 0
M  V30 2847 H 266.567 -3.67194 -2.90321 0
M  V30 2848 H 266.74 -5.23597 -3.81772 0
M  V30 2849 N 260.146 1.09593 -1.13257 0
M  V30 2850 C 261.056 2.19739 -0.821691 0
M  V30 2851 C 262.072 1.72926 0.19302 0
M  V30 2852 O 263.248 2.01385 0.0244895 0
M  V30 2853 C 260.313 3.45482 -0.290333 0
M  V30 2854 C 259.374 4.06985 -1.36607 0
M  V30 2855 C 258.607 5.26726 -0.859975 0
M  V30 2856 O 258.83 5.69594 0.303082 0
M  V30 2857 O 257.764 5.7931 -1.63351 0
M  V30 2858 H 261.59 2.48781 -1.74189 0
M  V30 2859 H 259.175 1.18496 -0.909894 0
M  V30 2860 H 261.057 4.214 0.000674022 0
M  V30 2861 H 259.732 3.18047 0.602306 0
M  V30 2862 H 258.639 3.32712 -1.71037 0
M  V30 2863 H 259.972 4.38643 -2.23279 0
M  V30 2864 N 261.624 0.925811 1.2754 0
M  V30 2865 C 262.901 0.483726 1.89524 0
M  V30 2866 C 263.281 -1.03809 1.83812 0
M  V30 2867 O 262.629 -1.89143 1.28207 0
M  V30 2868 C 262.839 1.02769 3.33526 0
M  V30 2869 C 264.187 1.08703 4.10449 0
M  V30 2870 O 265.211 0.977175 3.42534 0
M  V30 2871 O 264.07 1.25599 5.31871 0
M  V30 2872 H 261.164 0.15529 0.812289 0
M  V30 2873 H 263.71 1.01738 1.35822 0
M  V30 2874 H 262.482 2.07155 3.31967 0
M  V30 2875 H 262.105 0.475567 3.94746 0
M  V30 2876 N 263.102 -1.41638 0.69111 0
M  V30 2877 C 264.049 -2.30789 0.0229705 0
M  V30 2878 C 265.019 -1.46863 -0.775911 0
M  V30 2879 O 266.204 -1.75661 -0.74485 0
M  V30 2880 C 263.344 -3.32868 -0.910666 0
M  V30 2881 C 262.457 -4.31875 -0.103874 0
M  V30 2882 C 261.592 -5.21024 -1.03475 0
M  V30 2883 C 260.631 -6.11702 -0.220598 0
M  V30 2884 N 259.768 -6.93349 -1.10504 0
M  V30 2885 H 264.608 -2.87366 0.788978 0
M  V30 2886 H 262.145 -1.41535 0.400794 0
M  V30 2887 H 264.103 -3.90596 -1.46597 0
M  V30 2888 H 262.733 -2.77851 -1.64312 0
M  V30 2889 H 261.785 -3.76131 0.568285 0
M  V30 2890 H 263.097 -4.96003 0.527504 0
M  V30 2891 H 262.251 -5.83565 -1.65943 0
M  V30 2892 H 260.99 -4.57112 -1.69999 0
M  V30 2893 H 259.995 -5.48215 0.417187 0
M  V30 2894 H 261.22 -6.77668 0.440784 0
M  V30 2895 H 259.166 -6.3205 -1.75638 0
M  V30 2896 H 259.083 -7.54146 -0.529125 0
M  V30 2897 H 260.351 -7.60362 -1.71667 0
M  V30 2898 N 264.58 -0.43555 -1.51462 0
M  V30 2899 C 265.82 0.130708 -2.03982 0
M  V30 2900 C 266.184 1.40117 -1.31268 0
M  V30 2901 O 267.385 2.04755 -1.74152 0
M  V30 2902 C 265.656 0.346102 -3.5572 0
M  V30 2903 S 267.215 0.876022 -4.29967 0
M  V30 2904 H 264.033 0.0326881 -0.710248 0
M  V30 2905 H 266.635 -0.594544 -1.8624 0
M  V30 2906 H 265.339 -0.584911 -4.0621 0
M  V30 2907 H 264.87 1.09849 -3.77752 0
M  V30 2908 H 266.885 2.15379 -4.47019 0
M  V30 2909 N 266.058 1.56714 -0.166846 0
M  V30 2910 C 266.968 2.21331 0.777791 0
M  V30 2911 C 267.984 1.20358 1.25658 0
M  V30 2912 O 269.16 1.53005 1.30964 0
M  V30 2913 C 266.225 2.83787 1.99163 0
M  V30 2914 C 265.286 3.99947 1.56016 0
M  V30 2915 C 264.519 4.59415 2.71613 0
M  V30 2916 O 264.742 4.17769 3.88362 0
M  V30 2917 O 263.676 5.49359 2.45945 0
M  V30 2918 H 267.502 3.02605 0.257636 0
M  V30 2919 H 265.087 1.49275 0.0611393 0
M  V30 2920 H 266.969 3.23405 2.70161 0
M  V30 2921 H 265.644 2.05513 2.50092 0
M  V30 2922 H 264.551 3.65007 0.819809 0
M  V30 2923 H 265.884 4.79801 1.09782 0
M  V30 2924 N 267.536 -0.106894 1.57237 0
M  V30 2925 C 268.764 -0.826389 1.8968 0
M  V30 2926 C 269.179 -1.72856 0.759353 0
M  V30 2927 O 268.536 -1.80503 -0.269263 0
M  V30 2928 C 268.587 -1.64967 3.21665 0
M  V30 2929 O 268.308 -0.783804 4.31031 0
M  V30 2930 C 269.809 -2.47326 3.67892 0
M  V30 2931 H 267.029 -0.236927 0.627779 0
M  V30 2932 H 269.573 -0.0876593 2.04312 0
M  V30 2933 H 267.728 -2.34103 3.08666 0
M  V30 2934 H 268.142 -1.35284 5.06753 0
M  V30 2935 H 269.616 -3.00604 4.6297 0
M  V30 2936 H 270.093 -3.25247 2.95146 0
M  V30 2937 H 270.699 -1.83411 3.83719 0
M  V30 2938 N 269.014 -1.53014 -0.377408 0
M  V30 2939 C 270.291 -1.59215 -1.13622 0
M  V30 2940 C 270.671 -0.392407 -2.07421 0
M  V30 2941 O 270.019 0.618342 -2.19975 0
M  V30 2942 C 270.229 -2.93669 -1.88573 0
M  V30 2943 C 271.577 -3.47822 -2.43526 0
M  V30 2944 O 272.601 -2.9562 -1.98715 0
M  V30 2945 O 271.46 -4.39055 -3.25412 0
M  V30 2946 H 268.554 -0.642625 -0.52054 0
M  V30 2947 H 271.1 -1.65353 -0.381625 0
M  V30 2948 H 269.872 -3.7243 -1.20048 0
M  V30 2949 H 269.495 -2.90968 -2.70968 0
M  V30 2950 N 270.492 0.636531 -1.44174 0
M  V30 2951 C 271.739 1.39619 -1.46672 0
M  V30 2952 C 272.067 1.94257 -0.0972691 0
M  V30 2953 O 271.322 1.73768 0.900175 0
M  V30 2954 C 271.621 2.58309 -2.47005 0
M  V30 2955 C 271.287 2.21992 -3.92467 0
M  V30 2956 C 269.949 2.118 -4.32081 0
M  V30 2957 C 272.301 1.9321 -4.84065 0
M  V30 2958 C 269.629 1.71007 -5.61225 0
M  V30 2959 C 271.981 1.53911 -6.13591 0
M  V30 2960 C 270.645 1.42257 -6.52165 0
M  V30 2961 H 269.915 0.510902 -0.536712 0
M  V30 2962 H 272.562 0.722328 -1.77355 0
M  V30 2963 H 270.867 3.30903 -2.09786 0
M  V30 2964 H 272.564 3.16533 -2.46186 0
M  V30 2965 H 269.154 2.30841 -3.61124 0
M  V30 2966 H 273.338 1.99997 -4.54219 0
M  V30 2967 H 268.594 1.60583 -5.89935 0
M  V30 2968 H 272.768 1.30677 -6.8403 0
M  V30 2969 H 270.395 1.10419 -7.52138 0
M  V30 2970 N 271.97 1.30982 0.876444 0
M  V30 2971 C 273.2 1.23063 1.65949 0
M  V30 2972 C 273.608 -0.207537 1.88058 0
M  V30 2973 O 272.951 -1.14781 1.43426 0
M  V30 2974 C 273.013 1.89768 3.05333 0
M  V30 2975 C 272.677 3.39106 3.0636 0
M  V30 2976 C 273.674 4.3496 2.84791 0
M  V30 2977 C 271.359 3.80693 3.27686 0
M  V30 2978 C 273.353 5.70375 2.84519 0
M  V30 2979 C 271.04 5.16223 3.27043 0
M  V30 2980 C 272.038 6.10875 3.05485 0
M  V30 2981 O 271.726 7.43928 3.04674 0
M  V30 2982 H 271.458 0.426685 0.524324 0
M  V30 2983 H 274.012 1.7329 1.10271 0
M  V30 2984 H 272.242 1.34082 3.6271 0
M  V30 2985 H 273.931 1.75853 3.65829 0
M  V30 2986 H 274.697 4.0416 2.68103 0
M  V30 2987 H 270.576 3.07457 3.43499 0
M  V30 2988 H 274.12 6.44228 2.67611 0
M  V30 2989 H 270.017 5.4666 3.43269 0
M  V30 2990 H 270.785 7.53022 3.2078 0
M  V30 2991 N 273.449 -1.08991 1.13837 0
M  V30 2992 C 274.397 -2.17841 0.815347 0
M  V30 2993 C 275.391 -1.68164 -0.204233 0
M  V30 2994 O 276.597 -1.79897 -0.0609304 0
M  V30 2995 H 272.972 -0.710654 0.245915 0
M  V30 2996 H 274.943 -2.42315 1.74143 0
M  V30 2997 C 273.692 -3.46381 0.302614 0
M  V30 2998 H 273.015 -3.84979 1.0785 0
M  V30 2999 H 274.455 -4.23844 0.115074 0
M  V30 3000 C 272.914 -3.22556 -0.972591 0
M  V30 3001 O 273.444 -3.45599 -2.04754 0
M  V30 3002 N 271.65 -2.76134 -0.905455 0
M  V30 3003 H 271.197 -2.57582 -0.0305421 0
M  V30 3004 H 271.155 -2.60571 -1.75926 0
M  V30 3005 N 274.927 -0.932562 -1.27047 0
M  V30 3006 C 276.173 -0.576412 -1.94436 0
M  V30 3007 C 276.506 0.880891 -1.73072 0
M  V30 3008 O 275.781 1.62905 -1.06264 0
M  V30 3009 C 276.064 -0.909031 -3.48437 0
M  V30 3010 C 275.917 -2.42044 -3.79123 0
M  V30 3011 C 277.236 -0.418341 -4.38107 0
M  V30 3012 H 274.355 -0.210888 -0.706184 0
M  V30 3013 H 276.997 -1.16522 -1.50075 0
M  V30 3014 H 275.147 -0.407947 -3.86352 0
M  V30 3015 H 276.819 -2.99359 -3.50973 0
M  V30 3016 H 275.062 -2.86758 -3.25503 0
M  V30 3017 H 275.733 -2.6037 -4.86736 0
M  V30 3018 H 278.209 -0.847856 -4.0737 0
M  V30 3019 H 277.085 -0.679981 -5.44672 0
M  V30 3020 H 277.346 0.681642 -4.36814 0
M  V30 3021 N 276.405 1.4127 -0.698611 0
M  V30 3022 C 277.633 2.05503 -0.239992 0
M  V30 3023 C 278.048 1.52584 1.11191 0
M  V30 3024 O 277.405 0.675323 1.69545 0
M  V30 3025 C 277.456 3.60987 -0.192429 0
M  V30 3026 O 277.177 4.1195 -1.49094 0
M  V30 3027 C 278.678 4.42371 0.28681 0
M  V30 3028 H 275.898 0.661748 -0.111045 0
M  V30 3029 H 278.442 1.80987 -0.95205 0
M  V30 3030 H 276.597 3.84533 0.470472 0
M  V30 3031 H 277.011 5.06018 -1.38007 0
M  V30 3032 H 278.485 5.51344 0.26896 0
M  V30 3033 H 278.962 4.18699 1.32619 0
M  V30 3034 H 279.568 4.23897 -0.345201 0
M  V30 3035 N 277.883 0.443576 1.51229 0
M  V30 3036 C 279.129 -0.11321 2.03085 0
M  V30 3037 C 279.484 -1.39841 1.32145 0
M  V30 3038 O 278.777 -1.86723 0.429542 0
M  V30 3039 C 278.971 -0.380579 3.55368 0
M  V30 3040 C 278.8 0.877157 4.41062 0
M  V30 3041 C 277.57 1.4125 4.85156 0
M  V30 3042 C 279.768 1.76503 4.83064 0
M  V30 3043 N 277.75 2.62213 5.55083 0
M  V30 3044 C 279.121 2.82067 5.52122 0
M  V30 3045 C 281.176 1.7787 4.65045 0
M  V30 3046 C 279.879 3.88952 6.05069 0
M  V30 3047 C 281.905 2.83694 5.18914 0
M  V30 3048 C 281.267 3.87978 5.87922 0
M  V30 3049 H 277.366 -0.00210178 0.781997 0
M  V30 3050 H 279.95 0.605641 1.85041 0
M  V30 3051 H 278.121 -1.06847 3.73414 0
M  V30 3052 H 279.853 -0.929274 3.93887 0
M  V30 3053 H 276.608 0.965542 4.63653 0
M  V30 3054 H 277.032 3.23568 5.9467 0
M  V30 3055 H 281.674 0.985744 4.11148 0
M  V30 3056 H 279.392 4.69082 6.58018 0
M  V30 3057 H 282.978 2.85702 5.06819 0
M  V30 3058 H 281.858 4.68517 6.28857 0
M  V30 3059 N 279.361 -1.56624 0.175154 0
M  V30 3060 C 280.608 -1.96999 -0.468811 0
M  V30 3061 C 280.936 -1.06129 -1.62994 0
M  V30 3062 O 280.191 -0.0961771 -1.95464 0
M  V30 3063 C 280.49 -3.43419 -0.989864 0
M  V30 3064 C 280.156 -4.50866 0.0557687 0
M  V30 3065 C 278.818 -4.79975 0.343134 0
M  V30 3066 C 281.17 -5.15551 0.765308 0
M  V30 3067 C 278.498 -5.71066 1.34536 0
M  V30 3068 C 280.85 -6.07724 1.75654 0
M  V30 3069 C 279.514 -6.35199 2.05132 0
M  V30 3070 H 278.784 -0.720869 -0.17155 0
M  V30 3071 H 281.431 -1.89616 0.267924 0
M  V30 3072 H 279.736 -3.47772 -1.80449 0
M  V30 3073 H 281.433 -3.72002 -1.49719 0
M  V30 3074 H 278.023 -4.28229 -0.178381 0
M  V30 3075 H 282.207 -4.9317 0.556513 0
M  V30 3076 H 277.463 -5.90635 1.57988 0
M  V30 3077 H 281.637 -6.56912 2.31169 0
M  V30 3078 H 279.264 -7.05584 2.8294 0
M  V30 3079 N 280.839 0.0985539 -1.57292 0
M  V30 3080 C 281.786 1.11981 -2.01814 0
M  V30 3081 C 282.756 1.39999 -0.89384 0
M  V30 3082 O 283.941 1.5152 -1.15958 0
M  V30 3083 C 281.081 2.43577 -2.44467 0
M  V30 3084 C 280.194 2.2232 -3.70402 0
M  V30 3085 C 279.329 3.4729 -4.01949 0
M  V30 3086 C 278.368 3.2128 -5.21005 0
M  V30 3087 N 277.505 4.38507 -5.48321 0
M  V30 3088 H 282.345 0.733149 -2.88841 0
M  V30 3089 H 279.882 0.350482 -1.42864 0
M  V30 3090 H 281.84 3.20373 -2.6724 0
M  V30 3091 H 280.47 2.80097 -1.60455 0
M  V30 3092 H 279.522 1.36343 -3.55126 0
M  V30 3093 H 280.834 1.99089 -4.57345 0
M  V30 3094 H 279.988 4.32495 -4.25479 0
M  V30 3095 H 278.727 3.73572 -3.13521 0
M  V30 3096 H 277.732 2.34468 -4.97298 0
M  V30 3097 H 278.957 2.96348 -6.11028 0
M  V30 3098 H 276.903 4.64871 -4.62851 0
M  V30 3099 H 276.82 4.18455 -6.29628 0
M  V30 3100 H 278.088 5.24787 -5.76385 0
M  V30 3101 N 282.317 1.53212 0.369288 0
M  V30 3102 C 283.566 1.68436 1.10961 0
M  V30 3103 C 283.879 0.440738 1.9057 0
M  V30 3104 O 285.085 0.473446 2.6734 0
M  V30 3105 C 283.541 2.97744 2.0218 0
M  V30 3106 C 283.149 4.29355 1.279 0
M  V30 3107 C 284.893 3.22334 2.76226 0
M  V30 3108 C 282.8 5.49755 2.17999 0
M  V30 3109 H 281.73 0.627568 0.41794 0
M  V30 3110 H 284.381 1.79713 0.370884 0
M  V30 3111 H 282.763 2.8026 2.79768 0
M  V30 3112 H 283.937 4.57458 0.554007 0
M  V30 3113 H 282.252 4.11179 0.657311 0
M  V30 3114 H 284.849 4.09471 3.43857 0
M  V30 3115 H 285.192 2.38238 3.41392 0
M  V30 3116 H 285.725 3.40475 2.05723 0
M  V30 3117 H 282.464 6.36318 1.57417 0
M  V30 3118 H 281.984 5.25937 2.88359 0
M  V30 3119 H 283.663 5.84401 2.77641 0
M  V30 3120 N 283.795 -0.628877 1.44509 0
M  V30 3121 C 284.728 -1.75367 1.46019 0
M  V30 3122 C 285.706 -1.59444 0.318787 0
M  V30 3123 O 286.89 -1.81297 0.516099 0
M  V30 3124 C 284.017 -3.12965 1.29501 0
M  V30 3125 C 283.063 -3.47532 2.47233 0
M  V30 3126 S 283.896 -3.44758 4.09758 0
M  V30 3127 C 285.052 -4.84973 3.95667 0
M  V30 3128 H 285.285 -1.7382 2.41193 0
M  V30 3129 H 282.818 -0.803686 1.31834 0
M  V30 3130 H 284.776 -3.92367 1.20658 0
M  V30 3131 H 283.437 -3.12049 0.358341 0
M  V30 3132 H 282.63 -4.47664 2.31544 0
M  V30 3133 H 282.232 -2.75598 2.52828 0
M  V30 3134 H 284.524 -5.74255 3.59496 0
M  V30 3135 H 285.467 -5.05716 4.95638 0
M  V30 3136 H 285.875 -4.59653 3.27688 0
M  V30 3137 N 285.273 -1.31445 -0.869486 0
M  V30 3138 C 286.501 -1.24122 -1.65534 0
M  V30 3139 C 286.916 0.193387 -1.87807 0
M  V30 3140 O 286.273 1.12557 -1.43656 0
M  V30 3141 C 286.324 -1.98229 -3.02304 0
M  V30 3142 O 286.045 -3.3609 -2.81026 0
M  V30 3143 C 287.546 -1.97751 -3.96749 0
M  V30 3144 H 284.766 -0.428868 -0.516055 0
M  V30 3145 H 287.31 -1.73328 -1.08525 0
M  V30 3146 H 285.465 -1.52782 -3.56001 0
M  V30 3147 H 285.879 -3.7383 -3.67902 0
M  V30 3148 H 287.353 -2.54114 -4.90031 0
M  V30 3149 H 287.83 -0.960137 -4.28577 0
M  V30 3150 H 288.436 -2.43079 -3.48988 0
M  V30 3151 N 286.751 1.08385 -1.14413 0
M  V30 3152 C 287.714 2.13486 -0.834048 0
M  V30 3153 C 288.714 1.59988 0.161418 0
M  V30 3154 O 289.904 1.74071 -0.0669575 0
M  V30 3155 C 287.036 3.4003 -0.243354 0
M  V30 3156 H 288.229 2.42425 -1.7655 0
M  V30 3157 H 285.782 1.24101 -0.950189 0
M  V30 3158 H 286.517 3.16726 0.696807 0
M  V30 3159 H 286.302 3.80157 -0.960367 0
M  V30 3160 H 287.792 4.17577 -0.0436242 0
M  V30 3161 N 288.23 0.939286 1.26551 0
M  V30 3162 C 289.479 0.581601 1.93133 0
M  V30 3163 C 289.792 -0.883224 1.74524 0
M  V30 3164 O 290.998 -1.3502 2.35546 0
M  V30 3165 C 289.454 0.989425 3.46032 0
M  V30 3166 C 289.062 2.47573 3.73379 0
M  V30 3167 C 290.806 0.703544 4.18629 0
M  V30 3168 C 288.713 2.82235 5.19709 0
M  V30 3169 H 287.643 0.213803 0.723052 0
M  V30 3170 H 290.294 1.14167 1.4366 0
M  V30 3171 H 288.676 0.357902 3.94379 0
M  V30 3172 H 289.85 3.15614 3.35744 0
M  V30 3173 H 288.165 2.73471 3.1401 0
M  V30 3174 H 290.762 0.938869 5.26393 0
M  V30 3175 H 291.105 -0.359639 4.14744 0
M  V30 3176 H 291.638 1.2947 3.76141 0
M  V30 3177 H 288.377 3.87509 5.28694 0
M  V30 3178 H 287.897 2.18854 5.58447 0
M  V30 3179 H 289.576 2.70599 5.87695 0
M  V30 3180 N 289.708 -1.40897 0.706093 0
M  V30 3181 C 290.957 -2.00284 0.238574 0
M  V30 3182 C 291.27 -1.56604 -1.17194 0
M  V30 3183 O 292.476 -2.08624 -1.73748 0
M  V30 3184 C 290.932 -3.57934 0.375623 0
M  V30 3185 C 290.54 -4.10591 1.79217 0
M  V30 3186 C 292.284 -4.24488 -0.0315857 0
M  V30 3187 C 290.191 -5.60712 1.88032 0
M  V30 3188 H 289.121 -0.749144 0.0854398 0
M  V30 3189 H 291.772 -1.61251 0.875813 0
M  V30 3190 H 290.154 -3.94622 -0.330042 0
M  V30 3191 H 291.328 -3.85301 2.52745 0
M  V30 3192 H 289.643 -3.56601 2.15 0
M  V30 3193 H 292.24 -5.34698 0.0136842 0
M  V30 3194 H 292.583 -4.02261 -1.072 0
M  V30 3195 H 293.116 -3.92873 0.624181 0
M  V30 3196 H 289.855 -5.87781 2.90161 0
M  V30 3197 H 289.375 -5.87896 1.18903 0
M  V30 3198 H 291.054 -6.25658 1.64805 0
M  V30 3199 N 291.186 -0.45159 -1.50991 0
M  V30 3200 C 292.134 0.366864 -2.29689 0
M  V30 3201 C 293.128 1.00809 -1.36139 0
M  V30 3202 O 294.334 0.941427 -1.53418 0
M  V30 3203 H 290.709 0.137133 -0.739391 0
M  V30 3204 H 292.68 -0.317538 -2.96706 0
M  V30 3205 C 291.429 1.44751 -3.16137 0
M  V30 3206 H 290.752 0.963473 -3.88017 0
M  V30 3207 H 292.192 1.99315 -3.74232 0
M  V30 3208 C 290.651 2.43869 -2.32442 0
M  V30 3209 O 291.181 3.4872 -1.99392 0
M  V30 3210 N 289.387 2.15105 -1.95392 0
M  V30 3211 H 288.934 1.29866 -2.22469 0
M  V30 3212 H 288.892 2.81661 -1.39693 0
M  V30 3213 N 292.664 1.56529 -0.183458 0
M  V30 3214 C 293.911 1.97244 0.458357 0
M  V30 3215 C 294.239 1.06992 1.62428 0
M  V30 3216 O 293.494 0.106542 1.9541 0
M  V30 3217 C 293.793 3.43939 0.971637 0
M  V30 3218 C 293.459 4.5083 -0.0796784 0
M  V30 3219 C 292.121 4.79786 -0.368584 0
M  V30 3220 C 294.473 5.15138 -0.792638 0
M  V30 3221 C 291.801 5.70345 -1.37563 0
M  V30 3222 C 294.153 6.06784 -1.78875 0
M  V30 3223 C 292.817 6.34102 -2.08497 0
M  V30 3224 H 292.087 0.721768 0.167725 0
M  V30 3225 H 294.734 1.89472 -0.277976 0
M  V30 3226 H 293.039 3.48724 1.78602 0
M  V30 3227 H 294.736 3.72791 1.47744 0
M  V30 3228 H 291.326 4.28317 0.155668 0
M  V30 3229 H 295.51 4.92868 -0.582659 0
M  V30 3230 H 290.766 5.89789 -1.61118 0
M  V30 3231 H 294.94 6.55677 -2.3465 0
M  V30 3232 H 292.567 7.04074 -2.86678 0
M  V30 3233 N 294.142 -0.090211 1.57342 0
M  V30 3234 C 295.372 -0.805055 1.90269 0
M  V30 3235 C 295.78 -1.72561 0.775842 0
M  V30 3236 O 295.123 -1.81839 -0.260843 0
M  V30 3237 C 295.185 -1.66734 3.18497 0
M  V30 3238 C 294.849 -0.918092 4.47683 0
M  V30 3239 C 295.846 -0.245674 5.19319 0
M  V30 3240 C 293.531 -0.890724 4.94339 0
M  V30 3241 C 295.525 0.444088 6.35851 0
M  V30 3242 C 293.212 -0.197179 6.10782 0
M  V30 3243 C 294.21 0.469044 6.81388 0
M  V30 3244 O 293.898 1.15146 7.95611 0
M  V30 3245 H 293.63 -0.235143 0.633785 0
M  V30 3246 H 296.184 -0.0703805 2.05279 0
M  V30 3247 H 294.414 -2.44437 2.99646 0
M  V30 3248 H 296.103 -2.25919 3.37217 0
M  V30 3249 H 296.869 -0.258246 4.84312 0
M  V30 3250 H 292.748 -1.39873 4.39268 0
M  V30 3251 H 296.292 0.964667 6.90898 0
M  V30 3252 H 292.189 -0.18247 6.45242 0
M  V30 3253 H 292.957 1.05885 8.11622 0
M  V30 3254 N 295.62 -1.53406 -0.361157 0
M  V30 3255 C 296.55 -1.83136 -1.44857 0
M  V30 3256 C 297.531 -0.685174 -1.5569 0
M  V30 3257 O 298.716 -0.93544 -1.70186 0
M  V30 3258 C 295.846 -2.02522 -2.82138 0
M  V30 3259 C 294.8 -3.18302 -2.86126 0
M  V30 3260 C 294.126 -3.22989 -4.26125 0
M  V30 3261 C 295.426 -4.56796 -2.53248 0
M  V30 3262 H 297.12 -2.74201 -1.20226 0
M  V30 3263 H 294.666 -1.31938 -0.576922 0
M  V30 3264 H 296.619 -2.21904 -3.58241 0
M  V30 3265 H 295.343 -1.08172 -3.08166 0
M  V30 3266 H 294.002 -2.98747 -2.12475 0
M  V30 3267 H 293.65 -2.26267 -4.49235 0
M  V30 3268 H 293.35 -4.00781 -4.29708 0
M  V30 3269 H 294.874 -3.44559 -5.04094 0
M  V30 3270 H 296.288 -4.7631 -3.19064 0
M  V30 3271 H 294.685 -5.36862 -2.68141 0
M  V30 3272 H 295.755 -4.61606 -1.48484 0
M  V30 3273 N 297.098 0.621204 -1.44841 0
M  V30 3274 C 298.509 1.20298 -1.42777 0
M  V30 3275 C 298.86 1.95639 -0.148259 0
M  V30 3276 O 297.985 2.02955 0.750892 0
M  V30 3277 C 298.58 2.1882 -2.58657 0
M  V30 3278 C 297.139 2.72403 -2.59756 0
M  V30 3279 C 296.286 1.4757 -2.34773 0
M  V30 3280 H 299.237 0.411297 -1.53278 0
M  V30 3281 H 299.258 3.01607 -2.31977 0
M  V30 3282 H 298.77 1.63957 -3.51766 0
M  V30 3283 H 296.871 3.31242 -1.70615 0
M  V30 3284 H 296.984 3.17765 -3.58556 0
M  V30 3285 H 295.348 1.76051 -1.8406 0
M  V30 3286 H 296.131 0.945954 -3.3001 0
M  V30 3287 N 298.576 1.31904 0.862503 0
M  V30 3288 C 299.804 1.24998 1.64873 0
M  V30 3289 C 300.219 -0.183425 1.87907 0
M  V30 3290 O 299.576 -1.11794 1.44251 0
M  V30 3291 C 299.627 1.99829 3.01248 0
M  V30 3292 O 299.348 3.37575 2.79239 0
M  V30 3293 C 300.849 1.99852 3.95694 0
M  V30 3294 H 298.069 0.431599 0.513773 0
M  V30 3295 H 300.613 1.73901 1.07604 0
M  V30 3296 H 298.768 1.54668 3.55185 0
M  V30 3297 H 299.182 3.75776 3.65914 0
M  V30 3298 H 300.656 2.56709 4.88676 0
M  V30 3299 H 301.133 0.982852 4.28062 0
M  V30 3300 H 301.739 2.44926 3.47694 0
M  V30 3301 N 300.054 -1.07777 1.14986 0
M  V30 3302 C 300.984 -2.16865 0.865557 0
M  V30 3303 C 301.965 -1.69123 -0.182083 0
M  V30 3304 O 303.15 -1.94164 -0.0373815 0
M  V30 3305 C 300.28 -3.45539 0.349313 0
M  V30 3306 C 299.234 -4.06708 1.33313 0
M  V30 3307 C 298.56 -5.30411 0.675918 0
M  V30 3308 C 299.86 -4.47241 2.69764 0
M  V30 3309 H 301.554 -2.40905 1.77778 0
M  V30 3310 H 299.1 -1.15781 0.856203 0
M  V30 3311 H 301.053 -4.21174 0.137983 0
M  V30 3312 H 299.777 -3.21072 -0.598362 0
M  V30 3313 H 298.436 -3.33112 1.53075 0
M  V30 3314 H 298.084 -5.02232 -0.277767 0
M  V30 3315 H 297.784 -5.72293 1.33244 0
M  V30 3316 H 299.308 -6.08755 0.474262 0
M  V30 3317 H 300.722 -5.14025 2.53873 0
M  V30 3318 H 299.119 -5.00062 3.3175 0
M  V30 3319 H 300.189 -3.58818 3.26156 0
M  V30 3320 N 301.532 -0.945985 -1.26051 0
M  V30 3321 C 302.462 -0.477172 -2.28572 0
M  V30 3322 C 303.443 0.472032 -1.63419 0
M  V30 3323 O 304.628 0.372853 -1.90587 0
M  V30 3324 C 301.758 0.253975 -3.4637 0
M  V30 3325 C 300.712 -0.609135 -4.23643 0
M  V30 3326 C 300.038 0.252252 -5.34105 0
M  V30 3327 C 301.338 -1.8829 -4.8718 0
M  V30 3328 H 303.032 -1.33402 -2.68038 0
M  V30 3329 H 300.578 -0.642904 -1.28852 0
M  V30 3330 H 302.531 0.593016 -4.17207 0
M  V30 3331 H 301.255 1.145 -3.05871 0
M  V30 3332 H 299.914 -0.931138 -3.54578 0
M  V30 3333 H 299.562 1.14278 -4.89846 0
M  V30 3334 H 299.262 -0.32188 -5.86718 0
M  V30 3335 H 300.786 0.586454 -6.07777 0
M  V30 3336 H 302.2 -1.61081 -5.50205 0
M  V30 3337 H 300.597 -2.40199 -5.49931 0
M  V30 3338 H 301.667 -2.59134 -4.09851 0
M  V30 3339 N 303.011 1.40521 -0.713556 0
M  V30 3340 C 303.944 2.28198 -0.00881422 0
M  V30 3341 C 304.922 1.43227 0.769735 0
M  V30 3342 O 306.106 1.72641 0.756799 0
M  V30 3343 C 303.233 3.23758 0.994899 0
M  V30 3344 C 302.279 4.25391 0.3074 0
M  V30 3345 S 303.112 5.26765 -0.963247 0
M  V30 3346 C 304.268 6.25888 0.0384143 0
M  V30 3347 H 304.501 2.87622 -0.752407 0
M  V30 3348 H 302.034 1.45925 -0.504502 0
M  V30 3349 H 303.992 3.79341 1.56879 0
M  V30 3350 H 302.653 2.63396 1.71118 0
M  V30 3351 H 301.846 4.92596 1.0661 0
M  V30 3352 H 301.448 3.73497 -0.193879 0
M  V30 3353 H 303.74 6.71683 0.885912 0
M  V30 3354 H 304.683 7.05552 -0.60019 0
M  V30 3355 H 305.091 5.63072 0.401233 0
M  V30 3356 N 304.489 0.459591 1.5075 0
M  V30 3357 C 305.419 -0.330644 2.31147 0
M  V30 3358 C 306.4 -1.00087 1.37538 0
M  V30 3359 O 307.585 -1.00025 1.66459 0
M  V30 3360 C 304.715 -1.41958 3.16962 0
M  V30 3361 C 303.669 -0.871608 4.19031 0
M  V30 3362 C 302.995 -2.05797 4.9351 0
M  V30 3363 C 304.295 0.109251 5.22186 0
M  V30 3364 H 305.989 0.340336 2.97459 0
M  V30 3365 H 303.535 0.165119 1.4305 0
M  V30 3366 H 305.488 -1.9798 3.71997 0
M  V30 3367 H 304.212 -2.11917 2.48513 0
M  V30 3368 H 302.871 -0.333442 3.6508 0
M  V30 3369 H 302.519 -2.74427 4.21544 0
M  V30 3370 H 302.219 -1.6976 5.62544 0
M  V30 3371 H 303.743 -2.62331 5.51375 0
M  V30 3372 H 305.157 -0.361405 5.7216 0
M  V30 3373 H 303.554 0.383316 5.98875 0
M  V30 3374 H 304.624 1.03887 4.73641 0
M  V30 3375 N 305.967 -1.56429 0.191757 0
M  V30 3376 C 307.213 -1.98541 -0.441943 0
M  V30 3377 C 307.568 -1.07646 -1.59468 0
M  V30 3378 O 306.861 -0.120191 -1.91223 0
M  V30 3379 C 307.055 -3.44449 -0.953384 0
M  V30 3380 C 306.884 -4.49456 0.148262 0
M  V30 3381 C 305.654 -5.01668 0.604781 0
M  V30 3382 C 307.852 -5.05336 0.95602 0
M  V30 3383 N 305.834 -5.90334 1.6846 0
M  V30 3384 C 307.205 -5.9064 1.88531 0
M  V30 3385 C 309.26 -4.87779 0.998811 0
M  V30 3386 C 307.963 -6.60264 2.85383 0
M  V30 3387 C 309.989 -5.58139 1.95537 0
M  V30 3388 C 309.351 -6.43187 2.8721 0
M  V30 3389 H 305.45 -0.771247 -0.129236 0
M  V30 3390 H 308.034 -1.92426 0.296682 0
M  V30 3391 H 306.205 -3.5107 -1.66146 0
M  V30 3392 H 307.937 -3.73533 -1.55741 0
M  V30 3393 H 304.692 -4.73183 0.198736 0
M  V30 3394 H 305.116 -6.39371 2.22561 0
M  V30 3395 H 309.758 -4.21705 0.304048 0
M  V30 3396 H 307.476 -7.25538 3.55837 0
M  V30 3397 H 311.062 -5.46532 1.99484 0
M  V30 3398 H 309.942 -6.96674 3.60022 0
M  V30 3399 N 307.445 0.0818655 -1.57387 0
M  V30 3400 C 308.692 0.782914 -1.86753 0
M  V30 3401 C 309.02 1.78082 -0.782118 0
M  V30 3402 O 308.275 1.94426 0.22295 0
M  V30 3403 C 308.574 1.53513 -3.22752 0
M  V30 3404 C 308.24 0.678134 -4.45771 0
M  V30 3405 C 306.902 0.441929 -4.79166 0
M  V30 3406 C 309.254 0.0832243 -5.21134 0
M  V30 3407 C 306.582 -0.398833 -5.85343 0
M  V30 3408 C 308.934 -0.744935 -6.28199 0
M  V30 3409 C 307.598 -0.991107 -6.60101 0
M  V30 3410 H 306.868 0.286489 -0.683378 0
M  V30 3411 H 309.515 0.0439808 -1.91449 0
M  V30 3412 H 307.82 2.34599 -3.138 0
M  V30 3413 H 309.517 2.08218 -3.42705 0
M  V30 3414 H 306.107 0.872357 -4.19628 0
M  V30 3415 H 310.291 0.252847 -4.95655 0
M  V30 3416 H 305.547 -0.598405 -6.08465 0
M  V30 3417 H 309.721 -1.21271 -6.8576 0
M  V30 3418 H 307.348 -1.64437 -7.42202 0
M  V30 3419 N 308.923 1.53595 0.353017 0
M  V30 3420 C 310.153 1.74058 1.11299 0
M  V30 3421 C 310.561 0.475205 1.83135 0
M  V30 3422 O 309.904 -0.562344 1.74881 0
M  V30 3423 C 309.966 2.85994 2.17825 0
M  V30 3424 C 309.63 4.25923 1.65647 0
M  V30 3425 C 310.627 5.07829 1.11383 0
M  V30 3426 C 308.312 4.72377 1.7078 0
M  V30 3427 C 310.306 6.34285 0.629439 0
M  V30 3428 C 307.993 5.98808 1.21953 0
M  V30 3429 C 308.991 6.79594 0.681265 0
M  V30 3430 O 308.679 8.03651 0.200248 0
M  V30 3431 H 308.411 0.585327 0.338183 0
M  V30 3432 H 310.965 2.01186 0.413927 0
M  V30 3433 H 309.195 2.54368 2.91262 0
M  V30 3434 H 310.884 2.94515 2.79313 0
M  V30 3435 H 311.65 4.73107 1.06746 0
M  V30 3436 H 307.529 4.0956 2.11617 0
M  V30 3437 H 311.073 6.97288 0.208636 0
M  V30 3438 H 306.97 6.33026 1.26287 0
M  V30 3439 H 307.738 8.1788 0.318416 0
M  V30 3440 N 310.401 -0.613514 1.45168 0
M  V30 3441 C 311.647 -1.37471 1.49096 0
M  V30 3442 C 311.98 -1.93765 0.129901 0
M  V30 3443 O 311.255 -1.74707 -0.854858 0
M  V30 3444 C 311.538 -2.52701 2.56542 0
M  V30 3445 C 311.391 -2.01643 4.0207 0
M  V30 3446 C 312.71 -3.54849 2.60327 0
M  V30 3447 H 309.829 -0.498502 0.54283 0
M  V30 3448 H 312.471 -0.692125 1.76945 0
M  V30 3449 H 310.621 -3.10931 2.32926 0
M  V30 3450 H 312.293 -1.48108 4.36877 0
M  V30 3451 H 310.536 -1.32688 4.13009 0
M  V30 3452 H 311.207 -2.84681 4.72928 0
M  V30 3453 H 313.683 -3.0645 2.81474 0
M  V30 3454 H 312.559 -4.32973 3.37381 0
M  V30 3455 H 312.82 -4.10079 1.6519 0
M  V30 3456 N 311.879 -1.3236 -0.855495 0
M  V30 3457 C 312.826 -1.21225 -1.964 0
M  V30 3458 C 313.796 -0.0946204 -1.6583 0
M  V30 3459 O 314.981 -0.27002 -1.8888 0
M  V30 3460 C 312.121 -0.940419 -3.32039 0
M  V30 3461 C 311.234 -2.14276 -3.75113 0
M  V30 3462 C 310.369 -1.80648 -4.9954 0
M  V30 3463 C 309.408 -2.97208 -5.35102 0
M  V30 3464 N 308.545 -2.63678 -6.50706 0
M  V30 3465 H 313.385 -2.16042 -2.05255 0
M  V30 3466 H 310.922 -1.07451 -1.00463 0
M  V30 3467 H 312.88 -0.763311 -4.10158 0
M  V30 3468 H 311.51 -0.0290413 -3.22787 0
M  V30 3469 H 310.562 -2.43017 -2.92655 0
M  V30 3470 H 311.874 -3.01468 -3.97389 0
M  V30 3471 H 311.028 -1.59484 -5.85363 0
M  V30 3472 H 309.767 -0.906678 -4.79198 0
M  V30 3473 H 308.772 -3.19004 -4.47791 0
M  V30 3474 H 309.997 -3.87918 -5.57401 0
M  V30 3475 H 307.943 -1.76238 -6.31883 0
M  V30 3476 H 307.86 -3.444 -6.72997 0
M  V30 3477 H 309.128 -2.45942 -7.39684 0
M  V30 3478 N 313.357 1.07166 -1.15556 0
M  V30 3479 C 314.606 1.79181 -0.926132 0
M  V30 3480 C 314.919 1.87768 0.547967 0
M  V30 3481 O 316.125 2.56323 0.895036 0
M  V30 3482 C 314.581 3.22 -1.60761 0
M  V30 3483 C 314.189 3.21607 -3.11886 0
M  V30 3484 C 315.933 3.9861 -1.4598 0
M  V30 3485 C 313.84 4.59092 -3.72812 0
M  V30 3486 H 312.77 0.67154 -0.342856 0
M  V30 3487 H 315.421 1.2027 -1.3859 0
M  V30 3488 H 313.803 3.81115 -1.07553 0
M  V30 3489 H 314.977 2.72127 -3.71865 0
M  V30 3490 H 313.292 2.58495 -3.2645 0
M  V30 3491 H 315.889 5.00225 -1.88888 0
M  V30 3492 H 316.232 4.143 -0.407541 0
M  V30 3493 H 316.765 3.45996 -1.96295 0
M  V30 3494 H 313.504 4.48606 -4.77946 0
M  V30 3495 H 313.024 5.08803 -3.17616 0
M  V30 3496 H 314.703 5.28059 -3.73848 0
M  V30 3497 N 314.835 0.952656 1.25548 0
M  V30 3498 C 316.065 0.622592 1.96996 0
M  V30 3499 C 316.473 -0.809112 1.71026 0
M  V30 3500 O 315.816 -1.55258 0.981861 0
M  V30 3501 C 315.878 0.798946 3.5051 0
M  V30 3502 C 315.542 2.20744 4.00151 0
M  V30 3503 C 316.539 3.18394 4.11001 0
M  V30 3504 C 314.224 2.5311 4.33867 0
M  V30 3505 C 316.218 4.46504 4.54877 0
M  V30 3506 C 313.905 3.8145 4.7743 0
M  V30 3507 C 314.903 4.77959 4.87897 0
M  V30 3508 O 314.591 6.04012 5.30494 0
M  V30 3509 H 314.323 0.232503 0.634758 0
M  V30 3510 H 316.877 1.2789 1.60728 0
M  V30 3511 H 315.107 0.0854903 3.86605 0
M  V30 3512 H 316.796 0.47023 4.03167 0
M  V30 3513 H 317.562 2.94715 3.85186 0
M  V30 3514 H 313.441 1.78719 4.24948 0
M  V30 3515 H 316.985 5.21835 4.62962 0
M  V30 3516 H 312.882 4.04936 5.0269 0
M  V30 3517 H 313.65 6.0736 5.48685 0
M  V30 3518 N 316.313 -1.40141 0.720998 0
M  V30 3519 C 317.26 -2.30688 0.071919 0
M  V30 3520 C 318.23 -1.48476 -0.744584 0
M  V30 3521 O 319.415 -1.77201 -0.707423 0
M  V30 3522 C 316.555 -3.34724 -0.839855 0
M  V30 3523 C 315.668 -4.31998 -0.0122438 0
M  V30 3524 C 314.803 -5.23102 -0.923995 0
M  V30 3525 C 313.842 -6.12033 -0.0907969 0
M  V30 3526 N 312.979 -6.95537 -0.957718 0
M  V30 3527 H 317.819 -2.85628 0.849755 0
M  V30 3528 H 315.356 -1.40653 0.430726 0
M  V30 3529 H 317.314 -3.93618 -1.38279 0
M  V30 3530 H 315.944 -2.81274 -1.58381 0
M  V30 3531 H 314.996 -3.74841 0.64794 0
M  V30 3532 H 316.308 -4.94772 0.632595 0
M  V30 3533 H 315.462 -5.86953 -1.53527 0
M  V30 3534 H 314.201 -4.60615 -1.60264 0
M  V30 3535 H 313.206 -5.47207 0.533377 0
M  V30 3536 H 314.431 -6.76581 0.584428 0
M  V30 3537 H 312.377 -6.35633 -1.62192 0
M  V30 3538 H 312.294 -7.55099 -0.36904 0
M  V30 3539 H 313.562 -7.63832 -1.555 0
M  V30 3540 N 317.792 -0.46758 -1.50504 0
M  V30 3541 C 318.755 0.317059 -2.26996 0
M  V30 3542 C 319.755 0.923513 -1.31635 0
M  V30 3543 O 320.945 0.793239 -1.55091 0
M  V30 3544 C 318.077 1.45134 -3.08462 0
M  V30 3545 H 319.27 -0.353723 -2.97807 0
M  V30 3546 H 316.823 -0.221545 -1.54722 0
M  V30 3547 H 317.558 2.15728 -2.4214 0
M  V30 3548 H 317.343 1.02232 -3.78538 0
M  V30 3549 H 318.833 2.00493 -3.66323 0
M  V30 3550 N 319.27 1.56325 -0.20005 0
M  V30 3551 C 320.516 1.98012 0.438059 0
M  V30 3552 C 320.849 1.08702 1.60927 0
M  V30 3553 O 320.124 0.140064 1.93995 0
M  V30 3554 C 320.407 3.48841 0.893419 0
M  V30 3555 C 320.26 4.48928 -0.279947 0
M  V30 3556 C 321.579 4.03498 1.75719 0
M  V30 3557 H 318.698 0.719918 0.157757 0
M  V30 3558 H 321.34 1.87743 -0.291968 0
M  V30 3559 H 319.49 3.57723 1.51547 0
M  V30 3560 H 321.162 4.52079 -0.91772 0
M  V30 3561 H 319.405 4.23694 -0.930919 0
M  V30 3562 H 320.076 5.5194 0.0812601 0
M  V30 3563 H 322.552 3.97427 1.23253 0
M  V30 3564 H 321.428 5.09393 2.04476 0
M  V30 3565 H 321.689 3.4906 2.71311 0
M  V30 3566 N 320.748 -0.0735177 1.57428 0
M  V30 3567 C 322.164 -0.428264 1.53747 0
M  V30 3568 C 322.364 -1.79272 0.91998 0
M  V30 3569 O 321.42 -2.47051 0.521745 0
M  V30 3570 C 322.733 -0.370914 2.98404 0
M  V30 3571 C 324.281 -0.451224 3.0973 0
M  V30 3572 C 324.756 -0.4238 4.56035 0
M  V30 3573 N 326.247 -0.483925 4.60665 0
M  V30 3574 C 326.982 -0.484891 5.71346 0
M  V30 3575 N 326.478 -0.440775 6.91396 0
M  V30 3576 N 328.271 -0.531319 5.59583 0
M  V30 3577 H 320.422 0.819949 1.95935 0
M  V30 3578 H 322.685 0.307493 0.896745 0
M  V30 3579 H 322.391 0.564956 3.47133 0
M  V30 3580 H 322.265 -1.18176 3.5821 0
M  V30 3581 H 324.652 -1.37752 2.60976 0
M  V30 3582 H 324.733 0.388167 2.52838 0
M  V30 3583 H 324.377 0.498638 5.05446 0
M  V30 3584 H 324.307 -1.2807 5.10789 0
M  V30 3585 H 326.798 -0.522338 3.74273 0
M  V30 3586 H 327.111 -0.44539 7.71515 0
M  V30 3587 H 325.456 -0.40749 6.93804 0
M  V30 3588 H 328.647 -0.563464 4.64696 0
M  V30 3589 H 328.82 -0.528603 6.4584 0
M  V30 3590 N 322.226 -1.5378 -0.344866 0
M  V30 3591 C 323.642 -1.44015 -0.687888 0
M  V30 3592 C 323.842 -0.595834 -1.92489 0
M  V30 3593 O 322.898 -0.0863064 -2.52352 0
M  V30 3594 C 324.211 -2.87481 -0.881758 0
M  V30 3595 C 325.759 -2.97247 -0.980459 0
M  V30 3596 C 326.234 -4.41819 -1.20665 0
M  V30 3597 N 327.725 -4.45339 -1.27389 0
M  V30 3598 C 328.46 -5.54333 -1.46639 0
M  V30 3599 N 327.956 -6.73335 -1.63071 0
M  V30 3600 N 329.749 -5.41944 -1.49176 0
M  V30 3601 H 321.9 -2.07169 0.468475 0
M  V30 3602 H 324.163 -0.93643 0.147655 0
M  V30 3603 H 323.869 -3.51672 -0.0443444 0
M  V30 3604 H 323.743 -3.32352 -1.78388 0
M  V30 3605 H 326.13 -2.33197 -1.8084 0
M  V30 3606 H 326.211 -2.5574 -0.0552713 0
M  V30 3607 H 325.855 -5.06449 -0.383652 0
M  V30 3608 H 325.785 -4.80917 -2.14539 0
M  V30 3609 H 328.276 -3.59585 -1.1622 0
M  V30 3610 H 328.589 -7.52165 -1.77391 0
M  V30 3611 H 326.934 -6.76282 -1.60209 0
M  V30 3612 H 330.125 -4.47932 -1.3592 0
M  V30 3613 H 330.298 -6.26946 -1.63837 0
M  V30 3614 N 323.704 0.605807 -1.45491 0
M  V30 3615 C 324.654 1.71074 -1.50724 0
M  V30 3616 C 325.638 1.5658 -0.37033 0
M  V30 3617 O 326.83 1.65887 -0.617299 0
M  V30 3618 C 323.959 3.0983 -1.47852 0
M  V30 3619 C 323.045 3.29704 -2.66751 0
M  V30 3620 N 323.436 3.19831 -3.91844 0
M  V30 3621 C 321.734 3.60579 -2.62486 0
M  V30 3622 C 322.435 3.41083 -4.71208 0
M  V30 3623 N 321.411 3.65157 -4.02693 0
M  V30 3624 H 325.213 1.61937 -2.45263 0
M  V30 3625 H 322.727 0.80912 -1.40808 0
M  V30 3626 H 324.724 3.89101 -1.49686 0
M  V30 3627 H 323.384 3.20115 -0.543714 0
M  V30 3628 H 324.395 2.98194 -4.23439 0
M  V30 3629 H 321.072 3.7769 -1.77922 0
M  V30 3630 H 322.462 3.38828 -5.80211 0
M  V30 3631 N 325.182 1.32811 0.848464 0
M  V30 3632 C 326.422 1.25046 1.61687 0
M  V30 3633 C 326.786 -0.183464 1.91121 0
M  V30 3634 O 327.987 -0.384937 2.66029 0
M  V30 3635 C 326.258 2.09201 2.89775 0
M  V30 3636 S 327.817 2.18526 3.80515 0
M  V30 3637 H 324.635 0.445023 0.554505 0
M  V30 3638 H 327.237 1.67733 1.00429 0
M  V30 3639 H 325.941 3.12433 2.66108 0
M  V30 3640 H 325.472 1.67315 3.56047 0
M  V30 3641 H 327.487 1.3393 4.77784 0
M  V30 3642 N 326.66 -1.06551 1.16123 0
M  V30 3643 C 327.592 -2.13908 0.823171 0
M  V30 3644 C 328.605 -1.61926 -0.16843 0
M  V30 3645 O 329.794 -1.78412 0.055962 0
M  V30 3646 C 326.894 -3.38283 0.204424 0
M  V30 3647 C 326.067 -4.19589 1.23548 0
M  V30 3648 C 325.126 -5.2233 0.637011 0
M  V30 3649 O 324.152 -5.54034 1.30516 0
M  V30 3650 N 325.354 -5.77621 -0.577474 0
M  V30 3651 H 328.119 -2.43508 1.74711 0
M  V30 3652 H 325.68 -1.2253 1.05821 0
M  V30 3653 H 327.672 -4.0416 -0.208909 0
M  V30 3654 H 326.242 -3.06329 -0.623012 0
M  V30 3655 H 325.462 -3.49406 1.82507 0
M  V30 3656 H 326.75 -4.70718 1.93137 0
M  V30 3657 H 326.148 -5.54125 -1.13853 0
M  V30 3658 H 324.705 -6.45087 -0.933053 0
M  V30 3659 N 328.138 -0.959301 -1.25041 0
M  V30 3660 C 329.088 -0.453888 -2.23436 0
M  V30 3661 C 330.072 0.459461 -1.542 0
M  V30 3662 O 331.264 0.291752 -1.74579 0
M  V30 3663 C 328.393 0.262667 -3.42294 0
M  V30 3664 C 327.479 -0.669022 -4.1879 0
M  V30 3665 N 327.87 -1.80267 -4.72586 0
M  V30 3666 C 326.168 -0.47814 -4.4343 0
M  V30 3667 C 326.869 -2.38475 -5.3057 0
M  V30 3668 N 325.845 -1.67078 -5.17287 0
M  V30 3669 H 329.647 -1.319 -2.6264 0
M  V30 3670 H 327.161 -0.817358 -1.40332 0
M  V30 3671 H 329.158 0.641911 -4.11929 0
M  V30 3672 H 327.818 1.12432 -3.04613 0
M  V30 3673 H 328.829 -2.18442 -4.69578 0
M  V30 3674 H 325.506 0.340249 -4.16111 0
M  V30 3675 H 326.896 -3.34094 -5.8295 0
M  V30 3676 N 329.616 1.39756 -0.72842 0
M  V30 3677 C 331.032 1.5442 -0.403308 0
M  V30 3678 C 331.232 1.69694 1.08656 0
M  V30 3679 O 330.288 1.69373 1.87267 0
M  V30 3680 C 331.601 2.76555 -1.18058 0
M  V30 3681 C 333.149 2.90384 -1.16815 0
M  V30 3682 C 333.624 4.15449 -1.92785 0
M  V30 3683 N 335.115 4.22475 -1.89918 0
M  V30 3684 C 335.85 5.1818 -2.45514 0
M  V30 3685 N 335.346 6.19714 -3.09719 0
M  V30 3686 N 337.139 5.1035 -2.35584 0
M  V30 3687 H 329.29 1.28089 -1.69431 0
M  V30 3688 H 331.553 0.620327 -0.716867 0
M  V30 3689 H 331.259 2.7159 -2.23455 0
M  V30 3690 H 331.133 3.69033 -0.780662 0
M  V30 3691 H 333.52 2.94846 -0.12234 0
M  V30 3692 H 333.601 1.98988 -1.6074 0
M  V30 3693 H 333.245 4.11749 -2.97364 0
M  V30 3694 H 333.175 5.05877 -1.46272 0
M  V30 3695 H 335.666 3.49743 -1.43138 0
M  V30 3696 H 335.979 6.8919 -3.49625 0
M  V30 3697 H 334.324 6.20121 -3.13807 0
M  V30 3698 H 337.515 4.2996 -1.85072 0
M  V30 3699 H 337.688 5.84761 -2.79211 0
M  V30 3700 N 331.094 0.475555 1.50254 0
M  V30 3701 C 332.026 -0.352649 2.26471 0
M  V30 3702 C 333.039 -0.953165 1.3198 0
M  V30 3703 O 334.228 -0.840815 1.57457 0
M  V30 3704 C 331.328 -1.50902 3.0345 0
M  V30 3705 C 330.501 -1.02047 4.25329 0
M  V30 3706 C 329.56 -2.05142 4.84565 0
M  V30 3707 O 328.586 -1.63023 5.45355 0
M  V30 3708 N 329.788 -3.37987 4.71959 0
M  V30 3709 H 332.553 0.300767 2.98187 0
M  V30 3710 H 330.114 0.306598 1.5897 0
M  V30 3711 H 332.106 -2.19572 3.39956 0
M  V30 3712 H 330.676 -2.06705 2.34504 0
M  V30 3713 H 329.896 -0.159507 3.93877 0
M  V30 3714 H 331.184 -0.672061 5.04342 0
M  V30 3715 H 330.582 -3.74913 4.23623 0
M  V30 3716 H 329.139 -4.02443 5.12721 0
M  V30 3717 N 332.573 -1.56217 0.208337 0
M  V30 3718 C 333.503 -2.22694 -0.702116 0
M  V30 3719 C 334.484 -1.19432 -1.2112 0
M  V30 3720 O 335.669 -1.47978 -1.25762 0
M  V30 3721 C 332.799 -2.8966 -1.9161 0
M  V30 3722 C 331.753 -3.9928 -1.5414 0
M  V30 3723 C 331.079 -4.53476 -2.83308 0
M  V30 3724 C 332.379 -5.17012 -0.741339 0
M  V30 3725 H 334.073 -2.99034 -0.147898 0
M  V30 3726 H 331.619 -1.43831 -0.0696951 0
M  V30 3727 H 333.572 -3.34852 -2.55836 0
M  V30 3728 H 332.296 -2.10746 -2.49507 0
M  V30 3729 H 330.955 -3.54799 -0.922668 0
M  V30 3730 H 330.603 -3.71308 -3.39322 0
M  V30 3731 H 330.303 -5.27451 -2.58976 0
M  V30 3732 H 331.827 -5.01378 -3.485 0
M  V30 3733 H 333.241 -5.58667 -1.28699 0
M  V30 3734 H 331.638 -5.97137 -0.595627 0
M  V30 3735 H 332.708 -4.8423 0.254851 0
M  V30 3736 N 334.051 0.0651679 -1.57465 0
M  V30 3737 C 335.279 0.775808 -1.91804 0
M  V30 3738 C 335.694 1.70782 -0.804916 0
M  V30 3739 O 335.051 1.81153 0.221311 0
M  V30 3740 C 335.102 1.56381 -3.25925 0
M  V30 3741 O 334.823 0.669248 -4.32958 0
M  V30 3742 C 336.324 2.37485 -3.7432 0
M  V30 3743 H 333.544 0.2202 -0.63384 0
M  V30 3744 H 336.088 0.0334587 -2.04473 0
M  V30 3745 H 334.243 2.25837 -3.14764 0
M  V30 3746 H 334.657 1.21801 -5.10162 0
M  V30 3747 H 336.131 2.88223 -4.70778 0
M  V30 3748 H 336.608 3.17307 -3.03666 0
M  V30 3749 H 337.214 1.73173 -3.88447 0
M  V30 3750 N 335.529 1.53961 0.336706 0
M  V30 3751 C 336.477 1.83136 1.43401 0
M  V30 3752 C 337.471 0.702313 1.54156 0
M  V30 3753 O 338.677 0.885765 1.56698 0
M  V30 3754 H 335.052 0.580309 0.478273 0
M  V30 3755 H 337.023 2.74925 1.16012 0
M  V30 3756 C 335.772 2.06385 2.79822 0
M  V30 3757 H 335.095 2.92718 2.72316 0
M  V30 3758 H 336.535 2.30761 3.55704 0
M  V30 3759 C 334.994 0.851414 3.25964 0
M  V30 3760 O 335.524 0.0541904 4.01663 0
M  V30 3761 N 333.73 0.66672 2.82848 0
M  V30 3762 H 333.277 1.31665 2.21409 0
M  V30 3763 H 333.235 -0.143032 3.14074 0
M  V30 3764 N 337.007 -0.598083 1.45811 0
M  V30 3765 C 338.255 -1.35413 1.50026 0
M  V30 3766 C 338.576 -1.94444 0.147177 0
M  V30 3767 O 337.846 -1.77701 -0.824571 0
M  V30 3768 H 336.426 -0.502727 0.552517 0
M  V30 3769 H 339.088 -0.701606 1.81834 0
M  V30 3770 H 338.184 -2.16871 2.2444 0
M  V30 3771 N 338.485 -1.33259 -0.841409 0
M  V30 3772 C 339.71 -1.2775 -1.63385 0
M  V30 3773 C 340.135 0.149188 -1.87507 0
M  V30 3774 O 339.493 1.10498 -1.43736 0
M  V30 3775 C 339.541 -2.05571 -2.96265 0
M  V30 3776 O 338.645 -1.41257 -3.87453 0
M  V30 3777 H 337.986 -0.439627 -0.497618 0
M  V30 3778 H 340.516 -1.75782 -1.04699 0
M  V30 3779 H 340.526 -2.16241 -3.45982 0
M  V30 3780 H 339.201 -3.09309 -2.7803 0
M  V30 3781 H 337.778 -1.39217 -3.45938 0
M  V30 3782 N 339.963 1.05934 -1.16686 0
M  V30 3783 C 340.893 2.1546 -0.899949 0
M  V30 3784 C 341.874 1.69391 0.155154 0
M  V30 3785 O 343.059 1.94199 0.00648693 0
M  V30 3786 C 340.189 3.44939 -0.404241 0
M  V30 3787 C 339.143 4.04536 -1.39767 0
M  V30 3788 C 338.469 5.29268 -0.760216 0
M  V30 3789 C 339.769 4.42893 -2.76845 0
M  V30 3790 H 341.463 2.38046 -1.81588 0
M  V30 3791 H 339.009 1.14404 -0.874514 0
M  V30 3792 H 340.962 4.20901 -0.204971 0
M  V30 3793 H 339.686 3.21983 0.547206 0
M  V30 3794 H 338.345 3.30635 -1.58355 0
M  V30 3795 H 337.993 5.02611 0.197831 0
M  V30 3796 H 337.693 5.70101 -1.42332 0
M  V30 3797 H 339.217 6.07924 -0.57105 0
M  V30 3798 H 340.631 5.09921 -2.62019 0
M  V30 3799 H 339.028 4.94721 -3.39663 0
M  V30 3800 H 340.098 3.53584 -3.31823 0
M  V30 3801 N 341.441 0.965919 1.2453 0
M  V30 3802 C 342.852 0.665929 1.7442 0
M  V30 3803 C 343.203 -0.818407 1.78316 0
M  V30 3804 O 342.328 -1.64037 1.41141 0
M  V30 3805 C 342.923 1.20211 3.16757 0
M  V30 3806 C 341.482 0.952059 3.6416 0
M  V30 3807 C 340.629 1.33848 2.42858 0
M  V30 3808 H 343.58 1.14144 1.10258 0
M  V30 3809 H 343.601 0.567544 3.76244 0
M  V30 3810 H 343.113 2.28244 3.13889 0
M  V30 3811 H 341.214 -0.112821 3.72429 0
M  V30 3812 H 341.327 1.59645 4.51719 0
M  V30 3813 H 339.691 0.756864 2.43195 0
M  V30 3814 H 340.474 2.42827 2.42673 0
M  V30 3815 N 342.919 -1.39368 0.735821 0
M  V30 3816 C 344.147 -2.04795 0.294393 0
M  V30 3817 C 344.562 -1.55478 -1.07107 0
M  V30 3818 O 343.919 -0.720038 -1.67695 0
M  V30 3819 C 343.97 -3.6035 0.288071 0
M  V30 3820 O 343.691 -4.07852 1.59963 0
M  V30 3821 C 345.192 -4.42976 -0.169422 0
M  V30 3822 H 342.412 -0.658571 0.128551 0
M  V30 3823 H 344.956 -1.78399 0.999701 0
M  V30 3824 H 343.111 -3.85645 -0.368355 0
M  V30 3825 H 343.525 -5.02181 1.51375 0
M  V30 3826 H 344.999 -5.51864 -0.122687 0
M  V30 3827 H 345.476 -4.22068 -1.21472 0
M  V30 3828 H 346.082 -4.22832 0.457469 0
M  V30 3829 N 344.397 -0.483516 -1.5 0
M  V30 3830 C 345.644 0.0671597 -2.02389 0
M  V30 3831 C 345.972 1.38597 -1.36459 0
M  V30 3832 O 345.227 1.89634 -0.483458 0
M  V30 3833 C 345.526 0.286226 -3.56252 0
M  V30 3834 C 345.192 -0.952416 -4.40726 0
M  V30 3835 C 343.854 -1.29199 -4.63531 0
M  V30 3836 C 346.206 -1.77655 -4.89988 0
M  V30 3837 C 343.534 -2.45553 -5.32842 0
M  V30 3838 C 345.886 -2.93147 -5.60578 0
M  V30 3839 C 344.55 -3.27505 -5.81633 0
M  V30 3840 H 343.82 0.0245755 -0.740592 0
M  V30 3841 H 346.467 -0.640124 -1.80485 0
M  V30 3842 H 344.772 1.07587 -3.76739 0
M  V30 3843 H 346.469 0.726473 -3.94365 0
M  V30 3844 H 343.059 -0.677881 -4.23205 0
M  V30 3845 H 347.243 -1.52737 -4.72213 0
M  V30 3846 H 342.499 -2.72431 -5.47349 0
M  V30 3847 H 346.673 -3.57344 -5.97727 0
M  V30 3848 H 344.3 -4.1777 -6.35116 0
M  V30 3849 N 345.875 1.56104 -0.216619 0
M  V30 3850 C 346.805 2.23063 0.690296 0
M  V30 3851 C 347.786 1.20072 1.20485 0
M  V30 3852 O 348.971 1.48643 1.24976 0
M  V30 3853 C 346.101 2.90672 1.90072 0
M  V30 3854 C 345.055 4.00092 1.5202 0
M  V30 3855 C 344.381 4.54972 2.80899 0
M  V30 3856 C 345.681 5.17398 0.71391 0
M  V30 3857 H 347.375 2.99109 0.132038 0
M  V30 3858 H 344.921 1.43866 0.0620664 0
M  V30 3859 H 346.874 3.36204 2.54057 0
M  V30 3860 H 345.598 2.12066 2.48386 0
M  V30 3861 H 344.257 3.55283 0.903839 0
M  V30 3862 H 343.905 3.73102 3.37348 0
M  V30 3863 H 343.605 5.28817 2.56176 0
M  V30 3864 H 345.129 5.0322 3.45836 0
M  V30 3865 H 346.543 5.59342 1.25735 0
M  V30 3866 H 344.94 5.97444 0.563951 0
M  V30 3867 H 346.01 4.84088 -0.280527 0
M  V30 3868 N 347.353 -0.0568162 1.57498 0
M  V30 3869 C 348.263 -1.08346 2.08083 0
M  V30 3870 C 349.279 -1.41439 1.01346 0
M  V30 3871 O 350.455 -1.51316 1.32912 0
M  V30 3872 C 347.52 -2.37352 2.52715 0
M  V30 3873 C 346.581 -2.11093 3.73816 0
M  V30 3874 C 345.814 -3.33949 4.1631 0
M  V30 3875 O 346.037 -4.43622 3.58547 0
M  V30 3876 O 344.971 -3.21279 5.08983 0
M  V30 3877 H 348.797 -0.683667 2.95905 0
M  V30 3878 H 346.382 -0.271965 1.46904 0
M  V30 3879 H 348.264 -3.13246 2.81877 0
M  V30 3880 H 346.939 -2.76681 1.68016 0
M  V30 3881 H 345.846 -1.32856 3.49714 0
M  V30 3882 H 347.179 -1.76637 4.59413 0
M  V30 3883 N 348.832 -1.54138 -0.328536 0
M  V30 3884 C 350.081 -1.71318 -1.06456 0
M  V30 3885 C 350.394 -0.491109 -1.89334 0
M  V30 3886 O 351.6 -0.54416 -2.65991 0
M  V30 3887 C 350.056 -3.03 -1.94214 0
M  V30 3888 C 349.664 -4.32595 -1.16471 0
M  V30 3889 C 351.408 -3.29544 -2.67583 0
M  V30 3890 C 349.315 -5.55341 -2.03347 0
M  V30 3891 H 348.245 -0.638429 -0.401155 0
M  V30 3892 H 350.896 -1.80633 -0.323106 0
M  V30 3893 H 349.278 -2.87579 -2.72239 0
M  V30 3894 H 350.452 -4.58766 -0.432525 0
M  V30 3895 H 348.767 -4.12777 -0.548063 0
M  V30 3896 H 351.364 -4.18444 -3.3288 0
M  V30 3897 H 351.707 -2.47206 -3.34955 0
M  V30 3898 H 352.24 -3.45809 -1.96623 0
M  V30 3899 H 348.979 -6.40268 -1.40491 0
M  V30 3900 H 348.499 -5.33397 -2.74313 0
M  V30 3901 H 350.178 -5.91557 -2.62049 0
M  V30 3902 N 350.31 0.590341 -1.46126 0
M  V30 3903 C 351.257 1.69994 -1.56111 0
M  V30 3904 C 352.227 1.61065 -0.405867 0
M  V30 3905 O 353.412 1.8039 -0.621613 0
M  V30 3906 C 350.552 3.08326 -1.55013 0
M  V30 3907 C 349.665 3.27936 -2.81215 0
M  V30 3908 C 348.8 4.56473 -2.71673 0
M  V30 3909 C 347.839 4.694 -3.92849 0
M  V30 3910 N 346.976 5.89254 -3.81738 0
M  V30 3911 H 351.816 1.60797 -2.50895 0
M  V30 3912 H 349.353 0.783799 -1.24479 0
M  V30 3913 H 351.311 3.88383 -1.52362 0
M  V30 3914 H 349.941 3.16439 -0.637667 0
M  V30 3915 H 348.993 2.41536 -2.93879 0
M  V30 3916 H 350.305 3.33357 -3.71045 0
M  V30 3917 H 349.459 5.44748 -2.67085 0
M  V30 3918 H 348.198 4.53477 -1.7947 0
M  V30 3919 H 347.203 3.79544 -3.97777 0
M  V30 3920 H 348.428 4.7418 -4.86138 0
M  V30 3921 H 346.374 5.87271 -2.92317 0
M  V30 3922 H 346.291 5.95911 -4.65217 0
M  V30 3923 H 347.559 6.79981 -3.81112 0
M  V30 3924 N 351.788 1.33704 0.83433 0
M  V30 3925 C 352.718 1.26967 1.95963 0
M  V30 3926 C 353.699 0.149337 1.69443 0
M  V30 3927 O 354.884 0.339852 1.91203 0
M  V30 3928 C 352.014 1.01275 3.32206 0
M  V30 3929 C 350.968 2.09652 3.73136 0
M  V30 3930 C 350.294 1.69166 5.07235 0
M  V30 3931 C 351.594 3.51372 3.86439 0
M  V30 3932 H 353.288 2.2112 2.01857 0
M  V30 3933 H 350.834 1.06447 0.969793 0
M  V30 3934 H 352.787 0.952106 4.10503 0
M  V30 3935 H 351.511 0.0356203 3.26581 0
M  V30 3936 H 350.17 2.14766 2.97104 0
M  V30 3937 H 349.818 0.701437 4.98085 0
M  V30 3938 H 349.518 2.41694 5.35591 0
M  V30 3939 H 351.042 1.64576 5.88003 0
M  V30 3940 H 352.456 3.48734 4.55036 0
M  V30 3941 H 350.853 4.22425 4.26236 0
M  V30 3942 H 351.923 3.89546 2.88759 0
M  V30 3943 N 353.266 -1.05314 1.17247 0
M  V30 3944 C 354.682 -1.30452 0.919473 0
M  V30 3945 C 354.882 -1.9703 -0.42209 0
M  V30 3946 O 353.938 -2.24311 -1.15935 0
M  V30 3947 C 355.251 -2.17551 2.07586 0
M  V30 3948 C 356.799 -2.30937 2.11275 0
M  V30 3949 C 357.274 -3.21396 3.26296 0
M  V30 3950 N 358.765 -3.28981 3.26076 0
M  V30 3951 C 359.5 -3.99095 4.11716 0
M  V30 3952 N 358.996 -4.71648 5.07465 0
M  V30 3953 N 360.789 -3.95247 3.9967 0
M  V30 3954 H 352.94 -0.604988 2.03602 0
M  V30 3955 H 355.203 -0.329368 0.888944 0
M  V30 3956 H 354.909 -1.75921 3.0454 0
M  V30 3957 H 354.783 -3.18182 2.02584 0
M  V30 3958 H 357.17 -2.71809 1.14907 0
M  V30 3959 H 357.251 -1.2994 2.20339 0
M  V30 3960 H 356.895 -2.81238 4.22927 0
M  V30 3961 H 356.825 -4.22395 3.14467 0
M  V30 3962 H 359.316 -2.77286 2.5675 0
M  V30 3963 H 359.629 -5.22705 5.6921 0
M  V30 3964 H 357.974 -4.70594 5.11435 0
M  V30 3965 H 361.165 -3.37691 3.24164 0
M  V30 3966 H 361.338 -4.4962 4.66632 0
M  V30 3967 N 354.744 -0.972509 -1.24016 0
M  V30 3968 C 355.969 -0.654417 -1.96805 0
M  V30 3969 C 356.394 0.770398 -1.716 0
M  V30 3970 O 355.752 1.52361 -0.982647 0
M  V30 3971 C 355.8 -0.941031 -3.48105 0
M  V30 3972 O 354.904 -0.0289472 -4.1239 0
M  V30 3973 H 354.245 -0.24692 -0.616382 0
M  V30 3974 H 356.775 -1.30396 -1.57664 0
M  V30 3975 H 356.785 -0.87452 -3.98517 0
M  V30 3976 H 355.46 -1.97939 -3.65777 0
M  V30 3977 H 354.037 -0.149192 -3.72601 0
M  V30 3978 N 356.222 1.38976 -0.743202 0
M  V30 3979 C 357.132 2.3434 -0.110399 0
M  V30 3980 C 358.148 1.58741 0.712559 0
M  V30 3981 O 359.324 1.9099 0.639125 0
M  V30 3982 C 356.389 3.37812 0.780012 0
M  V30 3983 C 355.45 4.29263 -0.0561319 0
M  V30 3984 C 354.683 5.27793 0.791875 0
M  V30 3985 O 354.906 5.33043 2.03031 0
M  V30 3986 O 353.84 6.01512 0.216183 0
M  V30 3987 H 357.666 2.90129 -0.897714 0
M  V30 3988 H 355.251 1.40643 -0.503966 0
M  V30 3989 H 357.133 4.01194 1.28923 0
M  V30 3990 H 355.808 2.84395 1.546 0
M  V30 3991 H 354.715 3.69076 -0.611056 0
M  V30 3992 H 356.048 4.85907 -0.784531 0
M  V30 3993 N 357.7 0.491464 1.49741 0
M  V30 3994 C 358.977 -0.118984 1.95238 0
M  V30 3995 C 359.357 -1.55044 1.43264 0
M  V30 3996 O 358.705 -2.19287 0.642287 0
M  V30 3997 C 358.915 -0.0414187 3.48975 0
M  V30 3998 C 360.263 -0.220133 4.24029 0
M  V30 3999 O 361.287 -0.117055 3.56008 0
M  V30 4000 O 360.146 -0.430567 5.44801 0
M  V30 4001 H 357.24 -0.100536 0.820866 0
M  V30 4002 H 359.786 0.553322 1.60426 0
M  V30 4003 H 358.558 0.957214 3.79412 0
M  V30 4004 H 358.181 -0.754292 3.9038 0
M  V30 4005 N 359.178 -1.55987 0.224894 0
M  V30 4006 C 360.141 -2.19178 -0.670348 0
M  V30 4007 C 361.141 -1.15461 -1.11917 0
M  V30 4008 O 362.331 -1.40675 -1.02743 0
M  V30 4009 C 359.463 -2.81777 -1.9187 0
M  V30 4010 H 360.656 -2.99662 -0.119364 0
M  V30 4011 H 358.209 -1.5628 -0.0247128 0
M  V30 4012 H 358.944 -2.05172 -2.51147 0
M  V30 4013 H 358.729 -3.57732 -1.60531 0
M  V30 4014 H 360.219 -3.30205 -2.55645 0
M  V30 4015 N 360.656 0.0484629 -1.57525 0
M  V30 4016 C 361.603 1.05504 -2.05275 0
M  V30 4017 C 362.573 1.37084 -0.937927 0
M  V30 4018 O 363.758 1.47754 -1.2072 0
M  V30 4019 C 360.898 2.35676 -2.52093 0
M  V30 4020 C 360.011 2.10423 -3.77288 0
M  V30 4021 C 359.146 3.34327 -4.12794 0
M  V30 4022 C 358.185 3.04542 -5.30962 0
M  V30 4023 N 357.322 4.20841 -5.61994 0
M  V30 4024 H 362.162 0.640885 -2.91027 0
M  V30 4025 H 359.699 0.304854 -1.43906 0
M  V30 4026 H 361.657 3.11709 -2.77297 0
M  V30 4027 H 360.287 2.7485 -1.69285 0
M  V30 4028 H 359.339 1.24976 -3.59284 0
M  V30 4029 H 360.651 1.84438 -4.63448 0
M  V30 4030 H 359.805 4.1874 -4.39024 0
M  V30 4031 H 358.544 3.63408 -3.25247 0
M  V30 4032 H 357.549 2.18528 -5.04505 0
M  V30 4033 H 358.774 2.76758 -6.20146 0
M  V30 4034 H 356.72 4.4991 -4.77406 0
M  V30 4035 H 356.637 3.98212 -6.42622 0
M  V30 4036 H 357.905 5.06184 -5.92789 0
M  V30 4037 N 362.134 1.5431 0.320358 0
M  V30 4038 C 363.044 1.86946 1.41734 0
M  V30 4039 C 364.06 0.761689 1.56443 0
M  V30 4040 O 365.236 1.05629 1.71477 0
M  V30 4041 C 362.301 2.09293 2.76401 0
M  V30 4042 C 361.362 3.33082 2.70841 0
M  V30 4043 C 360.595 3.54353 3.99086 0
M  V30 4044 O 360.818 2.79002 4.97508 0
M  V30 4045 O 359.752 4.47838 4.0215 0
M  V30 4046 H 363.578 2.80232 1.17062 0
M  V30 4047 H 361.163 1.40255 0.514673 0
M  V30 4048 H 363.045 2.25303 3.56113 0
M  V30 4049 H 361.72 1.19194 3.00956 0
M  V30 4050 H 360.627 3.22454 1.89668 0
M  V30 4051 H 361.96 4.23249 2.5124 0
M  V30 4052 N 363.613 -0.582584 1.46437 0
M  V30 4053 C 364.861 -1.33814 1.51453 0
M  V30 4054 C 365.182 -1.94277 0.167792 0
M  V30 4055 O 364.452 -1.78566 -0.805677 0
M  V30 4056 H 363.032 -0.496838 0.557818 0
M  V30 4057 H 365.694 -0.682281 1.82568 0
M  V30 4058 H 364.79 -2.14479 2.26728 0
M  V30 4059 N 365.091 -1.34144 -0.827227 0
M  V30 4060 C 366.054 -1.25264 -1.91942 0
M  V30 4061 C 367.054 -0.168866 -1.59911 0
M  V30 4062 O 368.244 -0.421198 -1.69031 0
M  V30 4063 C 365.376 -0.932952 -3.27885 0
M  V30 4064 H 366.569 -2.22357 -2.0124 0
M  V30 4065 H 364.122 -1.1837 -1.0207 0
M  V30 4066 H 364.857 0.0349917 -3.24281 0
M  V30 4067 H 364.642 -1.71682 -3.52516 0
M  V30 4068 H 366.132 -0.895874 -4.07877 0
M  V30 4069 N 366.569 1.04691 -1.17803 0
M  V30 4070 C 367.516 2.12557 -0.899343 0
M  V30 4071 C 368.486 1.65339 0.158771 0
M  V30 4072 O 369.671 1.90789 0.0204797 0
M  V30 4073 C 366.811 3.42481 -0.424315 0
M  V30 4074 C 365.924 4.03346 -1.54713 0
M  V30 4075 C 365.059 5.21208 -1.02546 0
M  V30 4076 C 364.098 5.74089 -2.12339 0
M  V30 4077 N 363.235 6.83247 -1.61612 0
M  V30 4078 H 368.075 2.35734 -1.823 0
M  V30 4079 H 365.612 1.1564 -0.909159 0
M  V30 4080 H 367.57 4.16996 -0.130421 0
M  V30 4081 H 366.2 3.19471 0.462377 0
M  V30 4082 H 365.252 3.2622 -1.95664 0
M  V30 4083 H 366.564 4.38628 -2.37501 0
M  V30 4084 H 365.718 6.02812 -0.685718 0
M  V30 4085 H 364.457 4.87414 -0.167084 0
M  V30 4086 H 363.462 4.91111 -2.47165 0
M  V30 4087 H 364.687 6.0993 -2.98601 0
M  V30 4088 H 362.633 6.5134 -0.780533 0
M  V30 4089 H 362.55 7.17559 -2.38003 0
M  V30 4090 H 363.818 7.68491 -1.30545 0
M  V30 4091 N 368.047 0.979072 1.23499 0
M  V30 4092 C 368.994 0.517904 2.24914 0
M  V30 4093 C 369.964 -0.442525 1.60097 0
M  V30 4094 O 371.149 -0.350365 1.87556 0
M  V30 4095 C 368.289 -0.174813 3.44657 0
M  V30 4096 C 367.402 0.825721 4.24035 0
M  V30 4097 C 366.537 0.107946 5.3109 0
M  V30 4098 C 365.576 1.09778 6.02175 0
M  V30 4099 N 364.713 0.40925 7.00906 0
M  V30 4100 H 369.553 1.38751 2.63727 0
M  V30 4101 H 367.09 0.695303 1.2963 0
M  V30 4102 H 369.048 -0.593233 4.12961 0
M  V30 4103 H 367.678 -1.0083 3.06648 0
M  V30 4104 H 366.73 1.36253 3.55161 0
M  V30 4105 H 368.042 1.58005 4.73113 0
M  V30 4106 H 367.196 -0.367904 6.05583 0
M  V30 4107 H 365.935 -0.678994 4.8295 0
M  V30 4108 H 364.94 1.5844 5.26476 0
M  V30 4109 H 366.165 1.88536 6.52404 0
M  V30 4110 H 364.111 -0.358506 6.5502 0
M  V30 4111 H 364.028 1.10226 7.47921 0
M  V30 4112 H 365.296 -0.0442557 7.79487 0
M  V30 4113 N 369.525 -1.3858 0.750561 0
M  V30 4114 C 370.936 -1.82927 0.373438 0
M  V30 4115 C 371.287 -1.62634 -1.09748 0
M  V30 4116 O 370.412 -1.12588 -1.84805 0
M  V30 4117 C 371.007 -3.32088 0.671029 0
M  V30 4118 C 369.566 -3.74795 0.34722 0
M  V30 4119 C 368.713 -2.61391 0.92575 0
M  V30 4120 H 371.664 -1.27351 0.946958 0
M  V30 4121 H 371.685 -3.80465 -0.0518269 0
M  V30 4122 H 371.197 -3.46826 1.74164 0
M  V30 4123 H 369.298 -3.65638 -0.716933 0
M  V30 4124 H 369.411 -4.71667 0.840656 0
M  V30 4125 H 367.775 -2.52265 0.351327 0
M  V30 4126 H 368.558 -2.78929 2.00133 0
M  V30 4127 N 371.003 -0.499398 -1.49478 0
M  V30 4128 C 372.251 0.0455996 -2.02049 0
M  V30 4129 C 372.572 1.37633 -1.38138 0
M  V30 4130 O 371.842 1.8842 -0.536166 0
M  V30 4131 H 370.422 0.0198416 -0.746736 0
M  V30 4132 H 373.084 -0.656274 -1.83519 0
M  V30 4133 H 372.18 0.176445 -3.11601 0
M  V30 4134 N 372.481 1.55866 -0.233164 0
M  V30 4135 C 373.428 2.20796 0.67215 0
M  V30 4136 C 374.398 1.16731 1.18166 0
M  V30 4137 O 375.583 1.45129 1.23864 0
M  V30 4138 C 372.723 2.90072 1.86955 0
M  V30 4139 C 371.836 4.08759 1.39786 0
M  V30 4140 C 370.971 4.65787 2.55374 0
M  V30 4141 C 370.01 5.76752 2.04998 0
M  V30 4142 N 369.147 6.28021 3.13901 0
M  V30 4143 H 373.987 2.9779 0.111749 0
M  V30 4144 H 371.524 1.47036 0.0434007 0
M  V30 4145 H 373.482 3.28428 2.57276 0
M  V30 4146 H 372.112 2.15575 2.40265 0
M  V30 4147 H 371.164 3.7581 0.589173 0
M  V30 4148 H 372.476 4.88906 0.98856 0
M  V30 4149 H 371.63 5.06646 3.33758 0
M  V30 4150 H 370.369 3.84828 2.99598 0
M  V30 4151 H 369.374 5.35383 1.25079 0
M  V30 4152 H 370.599 6.59553 1.61759 0
M  V30 4153 H 368.545 5.49971 3.57586 0
M  V30 4154 H 368.462 7.03323 2.7726 0
M  V30 4155 H 369.73 6.73538 3.92386 0
M  V30 4156 N 373.959 -0.0401083 1.57549 0
M  V30 4157 C 374.869 -1.06133 2.0922 0
M  V30 4158 C 375.885 -1.40356 1.0284 0
M  V30 4159 O 377.061 -1.49897 1.34509 0
M  V30 4160 C 374.126 -2.34658 2.55218 0
M  V30 4161 C 373.187 -2.07117 3.76033 0
M  V30 4162 C 372.42 -3.29514 4.19829 0
M  V30 4163 O 372.643 -4.39794 3.63232 0
M  V30 4164 O 371.577 -3.15863 5.12362 0
M  V30 4165 H 375.403 -0.652244 2.96613 0
M  V30 4166 H 372.988 -0.256368 1.47184 0
M  V30 4167 H 374.87 -3.10239 2.85184 0
M  V30 4168 H 373.545 -2.74883 1.70941 0
M  V30 4169 H 372.452 -1.29139 3.51104 0
M  V30 4170 H 373.785 -1.71754 4.61261 0
M  V30 4171 N 375.437 -1.54477 -0.31217 0
M  V30 4172 C 376.662 -1.77526 -1.07235 0
M  V30 4173 C 377.087 -0.527775 -1.80544 0
M  V30 4174 O 376.445 0.52121 -1.73646 0
M  V30 4175 C 376.493 -2.97535 -2.03728 0
M  V30 4176 O 375.597 -2.69878 -3.11833 0
M  V30 4177 H 374.938 -0.58792 -0.30862 0
M  V30 4178 H 377.468 -2.01532 -0.352993 0
M  V30 4179 H 377.478 -3.25198 -2.46395 0
M  V30 4180 H 376.153 -3.87996 -1.49774 0
M  V30 4181 H 374.73 -2.53199 -2.7376 0
M  V30 4182 N 376.915 0.57481 -1.46744 0
M  V30 4183 C 378.326 1.15695 -1.46532 0
M  V30 4184 C 378.677 1.95068 -0.210425 0
M  V30 4185 O 377.802 2.05241 0.685944 0
M  V30 4186 C 378.397 2.1048 -2.65487 0
M  V30 4187 C 376.956 2.64002 -2.68291 0
M  V30 4188 C 376.103 1.40026 -2.39349 0
M  V30 4189 H 379.054 0.362325 -1.54509 0
M  V30 4190 H 379.075 2.94074 -2.41455 0
M  V30 4191 H 378.587 1.52683 -3.56805 0
M  V30 4192 H 376.688 3.25646 -1.81067 0
M  V30 4193 H 376.801 3.06197 -3.68483 0
M  V30 4194 H 375.165 1.70106 -1.89568 0
M  V30 4195 H 375.948 0.840485 -3.32852 0
M  V30 4196 N 378.394 1.34581 0.820102 0
M  V30 4197 C 379.64 1.28294 1.57836 0
M  V30 4198 C 379.995 -0.145099 1.91852 0
M  V30 4199 O 379.288 -1.09209 1.57429 0
M  V30 4200 C 379.482 2.10997 2.8847 0
M  V30 4201 C 379.311 3.61698 2.67216 0
M  V30 4202 C 378.081 4.3097 2.63805 0
M  V30 4203 C 380.279 4.55638 2.38534 0
M  V30 4204 N 378.261 5.67502 2.34126 0
M  V30 4205 C 379.632 5.80194 2.18574 0
M  V30 4206 C 381.687 4.44523 2.24285 0
M  V30 4207 C 380.39 6.94886 1.8581 0
M  V30 4208 C 382.416 5.5905 1.92916 0
M  V30 4209 C 381.778 6.82627 1.73782 0
M  V30 4210 H 377.877 0.524697 0.579842 0
M  V30 4211 H 380.461 1.69323 0.961139 0
M  V30 4212 H 378.632 1.7226 3.48111 0
M  V30 4213 H 380.364 1.96333 3.53886 0
M  V30 4214 H 377.119 3.83438 2.77978 0
M  V30 4215 H 377.543 6.39525 2.22118 0
M  V30 4216 H 382.185 3.49599 2.37782 0
M  V30 4217 H 379.903 7.89789 1.7105 0
M  V30 4218 H 383.489 5.52396 1.82619 0
M  V30 4219 H 382.369 7.69748 1.49861 0
M  V30 4220 N 379.872 -1.04064 1.18357 0
M  V30 4221 C 381.12 -1.76915 0.977013 0
M  V30 4222 C 381.441 -1.88624 -0.494577 0
M  V30 4223 O 380.711 -1.41125 -1.3587 0
M  V30 4224 H 379.291 -0.65535 0.358504 0
M  V30 4225 H 381.953 -1.25592 1.49039 0
M  V30 4226 H 381.049 -2.78178 1.41504 0
M  V30 4227 N 381.35 -0.985608 -1.22978 0
M  V30 4228 C 382.596 -0.65836 -1.91816 0
M  V30 4229 C 382.929 0.806692 -1.76653 0
M  V30 4230 O 382.204 1.58252 -1.13078 0
M  V30 4231 C 382.487 -1.056 -3.44268 0
M  V30 4232 C 382.34 -2.57906 -3.68516 0
M  V30 4233 C 383.659 -0.603781 -4.35939 0
M  V30 4234 H 380.778 -0.24065 -0.696604 0
M  V30 4235 H 383.42 -1.22783 -1.44998 0
M  V30 4236 H 381.57 -0.571445 -3.84274 0
M  V30 4237 H 383.242 -3.13976 -3.3796 0
M  V30 4238 H 381.485 -3.00305 -3.13048 0
M  V30 4239 H 382.156 -2.80779 -4.75255 0
M  V30 4240 H 384.632 -1.01987 -4.03408 0
M  V30 4241 H 383.508 -0.910383 -5.41298 0
M  V30 4242 H 383.769 0.495761 -4.39312 0
M  V30 4243 N 382.828 1.3818 -0.7579 0
M  V30 4244 C 383.76 2.2901 -0.0932177 0
M  V30 4245 C 384.773 1.47958 0.679136 0
M  V30 4246 O 385.962 1.70773 0.519514 0
M  V30 4247 C 383.062 3.26953 0.89192 0
M  V30 4248 C 382.235 4.37045 0.176303 0
M  V30 4249 C 381.294 5.15148 1.07281 0
M  V30 4250 O 380.32 5.66616 0.541728 0
M  V30 4251 N 381.522 5.28542 2.40049 0
M  V30 4252 H 384.287 2.86694 -0.873303 0
M  V30 4253 H 381.848 1.50007 -0.609054 0
M  V30 4254 H 383.84 3.76083 1.49479 0
M  V30 4255 H 382.41 2.70136 1.57306 0
M  V30 4256 H 381.63 3.89493 -0.607328 0
M  V30 4257 H 382.918 5.07801 -0.318718 0
M  V30 4258 H 382.316 4.88285 2.85647 0
M  V30 4259 H 380.873 5.8103 2.95376 0
M  V30 4260 N 384.306 0.507319 1.49211 0
M  V30 4261 C 385.253 -0.267728 2.29242 0
M  V30 4262 C 386.223 -0.954609 1.35928 0
M  V30 4263 O 387.408 -0.960046 1.64887 0
M  V30 4264 C 384.548 -1.32243 3.18756 0
M  V30 4265 C 383.661 -0.64669 4.27132 0
M  V30 4266 C 382.796 -1.68238 5.03855 0
M  V30 4267 C 381.835 -0.98885 6.0406 0
M  V30 4268 N 380.972 -1.96903 6.73924 0
M  V30 4269 H 385.812 0.420968 2.95012 0
M  V30 4270 H 383.349 0.219443 1.45454 0
M  V30 4271 H 385.307 -1.94599 3.69036 0
M  V30 4272 H 383.937 -1.97981 2.54958 0
M  V30 4273 H 382.989 0.0902926 3.80293 0
M  V30 4274 H 384.301 -0.101058 4.98698 0
M  V30 4275 H 383.455 -2.38081 5.58034 0
M  V30 4276 H 382.194 -2.26187 4.32077 0
M  V30 4277 H 381.199 -0.276222 5.49106 0
M  V30 4278 H 382.424 -0.415767 6.77826 0
M  V30 4279 H 380.37 -2.53803 6.04913 0
M  V30 4280 H 380.287 -1.47423 7.41487 0
M  V30 4281 H 381.555 -2.66015 7.32705 0
M  V30 4282 N 385.784 -1.5574 0.241426 0
M  V30 4283 C 387.2 -1.59196 -0.113548 0
M  V30 4284 C 387.4 -1.25852 -1.57364 0
M  V30 4285 O 386.456 -1.00322 -2.31715 0
M  V30 4286 C 387.769 -2.99814 0.230695 0
M  V30 4287 C 389.317 -3.12513 0.174547 0
M  V30 4288 C 389.792 -4.55342 0.492744 0
M  V30 4289 N 391.283 -4.61076 0.443043 0
M  V30 4290 C 392.018 -5.6956 0.662484 0
M  V30 4291 N 391.514 -6.86328 0.944761 0
M  V30 4292 N 393.307 -5.58957 0.593564 0
M  V30 4293 H 385.458 -1.75685 1.19368 0
M  V30 4294 H 387.721 -0.81756 0.479896 0
M  V30 4295 H 387.427 -3.28932 1.24485 0
M  V30 4296 H 387.301 -3.74568 -0.444833 0
M  V30 4297 H 389.688 -2.83179 -0.830277 0
M  V30 4298 H 389.769 -2.40045 0.883845 0
M  V30 4299 H 389.413 -4.85396 1.4951 0
M  V30 4300 H 389.343 -5.26062 -0.23797 0
M  V30 4301 H 391.834 -3.77179 0.233374 0
M  V30 4302 H 392.147 -7.64935 1.09977 0
M  V30 4303 H 390.492 -6.88025 0.982175 0
M  V30 4304 H 393.683 -4.66611 0.373123 0
M  V30 4305 H 393.856 -6.43433 0.767981 0
M  V30 4306 N 387.262 0.0317525 -1.57568 0
M  V30 4307 C 388.673 0.578692 -1.77505 0
M  V30 4308 C 389.024 1.75749 -0.872164 0
M  V30 4309 O 388.149 2.16298 -0.0663106 0
M  V30 4310 C 388.744 1.05658 -3.21904 0
M  V30 4311 C 387.303 1.54906 -3.43047 0
M  V30 4312 C 386.45 0.485939 -2.73009 0
M  V30 4313 H 389.401 -0.194475 -1.57504 0
M  V30 4314 H 389.422 1.92404 -3.28269 0
M  V30 4315 H 388.934 0.198422 -3.87592 0
M  V30 4316 H 387.035 2.42915 -2.82529 0
M  V30 4317 H 387.148 1.59841 -4.5165 0
M  V30 4318 H 385.512 0.940354 -2.36705 0
M  V30 4319 H 386.295 -0.362709 -3.41379 0
M  V30 4320 N 388.74 1.54641 0.303973 0
M  V30 4321 C 389.965 1.78092 1.06292 0
M  V30 4322 C 390.39 0.537342 1.80262 0
M  V30 4323 O 389.748 -0.511993 1.7392 0
M  V30 4324 C 389.796 2.98612 2.02147 0
M  V30 4325 O 388.9 2.71528 3.10397 0
M  V30 4326 H 388.241 0.589548 0.305497 0
M  V30 4327 H 390.771 2.01716 0.3423 0
M  V30 4328 H 390.781 3.265 2.44667 0
M  V30 4329 H 389.456 3.88785 1.47714 0
M  V30 4330 H 388.033 2.54648 2.72413 0
M  V30 4331 N 390.218 -0.567019 1.47046 0
M  V30 4332 C 391.634 -0.891975 1.32348 0
M  V30 4333 C 391.834 -1.99154 0.306616 0
M  V30 4334 O 390.89 -2.50883 -0.28532 0
M  V30 4335 C 392.203 -1.29449 2.7141 0
M  V30 4336 C 393.751 -1.40646 2.79621 0
M  V30 4337 C 394.226 -1.84257 4.19301 0
M  V30 4338 N 395.717 -1.91424 4.21795 0
M  V30 4339 C 396.452 -2.26476 5.26779 0
M  V30 4340 N 395.948 -2.60211 6.42077 0
M  V30 4341 N 397.741 -2.27166 5.14152 0
M  V30 4342 H 389.892 0.159074 2.11803 0
M  V30 4343 H 392.155 0.00849752 0.947962 0
M  V30 4344 H 391.861 -0.560448 3.47206 0
M  V30 4345 H 391.735 -2.25273 3.02542 0
M  V30 4346 H 394.122 -2.13133 2.04104 0
M  V30 4347 H 394.203 -0.430339 2.52154 0
M  V30 4348 H 393.847 -1.12343 4.95319 0
M  V30 4349 H 393.777 -2.82855 4.44185 0
M  V30 4350 H 396.268 -1.6778 3.38612 0
M  V30 4351 H 396.581 -2.85956 7.17948 0
M  V30 4352 H 394.926 -2.57813 6.45413 0
M  V30 4353 H 398.117 -2.00244 4.23107 0
M  V30 4354 H 398.29 -2.54154 5.96079 0
M  V30 4355 N 391.696 -1.35014 -0.812953 0
M  V30 4356 C 392.973 -1.18502 -1.55617 0
M  V30 4357 C 393.353 0.238421 -2.09749 0
M  V30 4358 O 392.701 1.2411 -1.91857 0
M  V30 4359 C 392.911 -2.24783 -2.66971 0
M  V30 4360 C 394.259 -2.60268 -3.35478 0
M  V30 4361 O 395.283 -2.23648 -2.77236 0
M  V30 4362 O 394.142 -3.2321 -4.40678 0
M  V30 4363 H 391.236 -0.459984 -0.687272 0
M  V30 4364 H 393.782 -1.46677 -0.853464 0
M  V30 4365 H 392.554 -3.20284 -2.24798 0
M  V30 4366 H 392.177 -1.97841 -3.44884 0
M  V30 4367 N 393.175 1.03435 -1.18907 0
M  V30 4368 C 394.586 1.58195 -0.991523 0
M  V30 4369 C 394.937 1.90801 0.457081 0
M  V30 4370 O 394.062 1.70272 1.33553 0
M  V30 4371 C 394.657 2.87432 -1.79355 0
M  V30 4372 C 393.216 3.38785 -1.64017 0
M  V30 4373 C 392.363 2.12292 -1.78402 0
M  V30 4374 H 395.314 0.860299 -1.33359 0
M  V30 4375 H 395.335 3.58096 -1.28638 0
M  V30 4376 H 394.847 2.63669 -2.84781 0
M  V30 4377 H 392.948 3.67547 -0.611536 0
M  V30 4378 H 393.061 4.12186 -2.44212 0
M  V30 4379 H 391.425 2.23901 -1.2141 0
M  V30 4380 H 392.208 1.90977 -2.85277 0
M  V30 4381 N 394.653 0.992116 1.22453 0
M  V30 4382 C 395.881 0.685944 1.95198 0
M  V30 4383 C 396.296 -0.749233 1.73297 0
M  V30 4384 O 395.653 -1.50549 1.03156 0
M  V30 4385 C 395.704 0.981395 3.47924 0
M  V30 4386 O 395.425 2.36018 3.6909 0
M  V30 4387 C 396.926 0.692815 4.37853 0
M  V30 4388 H 394.146 0.253821 0.621141 0
M  V30 4389 H 396.69 1.32668 1.55626 0
M  V30 4390 H 394.845 0.386481 3.85467 0
M  V30 4391 H 395.259 2.45884 4.63294 0
M  V30 4392 H 396.733 0.949818 5.43767 0
M  V30 4393 H 397.21 -0.373181 4.37612 0
M  V30 4394 H 397.816 1.26874 4.05935 0
M  V30 4395 N 396.131 -1.37776 0.765217 0
M  V30 4396 C 397.379 -1.99454 0.325943 0
M  V30 4397 C 397.7 -1.61049 -1.09947 0
M  V30 4398 O 396.97 -0.872821 -1.75381 0
M  V30 4399 H 395.55 -0.737697 0.117525 0
M  V30 4400 H 398.212 -1.68359 0.981895 0
M  V30 4401 H 397.308 -3.09547 0.398353 0
M  V30 4402 N 397.609 -0.515225 -1.4894 0
M  V30 4403 C 398.857 0.0241671 -2.02086 0
M  V30 4404 C 399.178 1.3616 -1.3959 0
M  V30 4405 O 398.448 1.87841 -0.556121 0
M  V30 4406 H 397.028 0.0119203 -0.746905 0
M  V30 4407 H 399.69 -0.675702 -1.82812 0
M  V30 4408 H 398.786 0.143385 -3.1177 0
M  V30 4409 N 399.087 1.5561 -0.249682 0
M  V30 4410 C 400.017 2.24477 0.642826 0
M  V30 4411 C 400.998 1.22601 1.17911 0
M  V30 4412 O 402.183 1.5126 1.21795 0
M  V30 4413 C 399.313 2.94638 1.83863 0
M  V30 4414 C 398.267 4.03227 1.435 0
M  V30 4415 C 397.593 4.60828 2.71186 0
M  V30 4416 C 398.893 5.18796 0.604002 0
M  V30 4417 H 400.587 2.99321 0.0685625 0
M  V30 4418 H 398.133 1.43965 0.0315363 0
M  V30 4419 H 400.086 3.41517 2.46868 0
M  V30 4420 H 398.81 2.17287 2.43832 0
M  V30 4421 H 397.469 3.57121 0.828275 0
M  V30 4422 H 397.117 3.80174 3.29358 0
M  V30 4423 H 396.817 5.34132 2.44901 0
M  V30 4424 H 398.341 5.10442 3.35084 0
M  V30 4425 H 399.755 5.61883 1.13842 0
M  V30 4426 H 398.152 5.98506 0.437097 0
M  V30 4427 H 399.222 4.83384 -0.383147 0
M  V30 4428 N 400.565 -0.0233959 1.57583 0
M  V30 4429 C 401.842 -0.748794 1.807 0
M  V30 4430 C 402.222 -1.9327 0.849106 0
M  V30 4431 O 401.57 -2.28247 -0.107468 0
M  V30 4432 C 401.78 -1.17651 3.28571 0
M  V30 4433 C 403.128 -1.59008 3.93702 0
M  V30 4434 O 404.152 -1.27094 3.32755 0
M  V30 4435 O 403.011 -2.18264 5.01022 0
M  V30 4436 H 400.105 -0.362578 0.743281 0
M  V30 4437 H 402.651 0.000261958 1.697 0
M  V30 4438 H 401.423 -0.331603 3.89892 0
M  V30 4439 H 401.046 -1.98541 3.44481 0
M  V30 4440 N 402.043 -1.548 -0.295768 0
M  V30 4441 C 402.975 -1.82492 -1.3867 0
M  V30 4442 C 403.988 -0.708134 -1.46592 0
M  V30 4443 O 405.177 -0.985686 -1.48817 0
M  V30 4444 C 402.277 -1.95256 -2.76999 0
M  V30 4445 C 401.45 -3.25709 -2.91946 0
M  V30 4446 C 400.509 -3.28824 -4.10806 0
M  V30 4447 O 399.535 -4.02328 -4.02643 0
M  V30 4448 N 400.737 -2.5459 -5.21694 0
M  V30 4449 H 403.502 -2.76646 -1.15269 0
M  V30 4450 H 401.063 -1.54438 -0.485849 0
M  V30 4451 H 403.055 -1.94736 -3.54768 0
M  V30 4452 H 401.625 -1.08072 -2.93324 0
M  V30 4453 H 400.845 -3.38959 -2.01247 0
M  V30 4454 H 402.133 -4.11786 -2.98847 0
M  V30 4455 H 401.531 -1.94512 -5.31208 0
M  V30 4456 H 400.088 -2.59818 -5.97778 0
M  V30 4457 N 403.521 0.559213 -1.47345 0
M  V30 4458 C 404.468 1.66645 -1.59682 0
M  V30 4459 C 405.438 1.60168 -0.43994 0
M  V30 4460 O 406.623 1.79031 -0.659736 0
M  V30 4461 C 403.763 3.04969 -1.61518 0
M  V30 4462 C 402.876 3.21897 -2.88108 0
M  V30 4463 C 402.011 4.50608 -2.81294 0
M  V30 4464 C 401.05 4.60961 -4.02717 0
M  V30 4465 N 400.187 5.81024 -3.94151 0
M  V30 4466 H 405.027 1.55439 -2.54249 0
M  V30 4467 H 402.564 0.757219 -1.26113 0
M  V30 4468 H 404.522 3.85064 -1.60566 0
M  V30 4469 H 403.152 3.15015 -0.704645 0
M  V30 4470 H 402.204 2.35248 -2.98936 0
M  V30 4471 H 403.516 3.25412 -3.78032 0
M  V30 4472 H 402.67 5.3896 -2.7858 0
M  V30 4473 H 401.409 4.49568 -1.89049 0
M  V30 4474 H 400.414 3.71021 -4.05738 0
M  V30 4475 H 401.639 4.63761 -4.96087 0
M  V30 4476 H 399.585 5.80938 -3.04708 0
M  V30 4477 H 399.502 5.85909 -4.77752 0
M  V30 4478 H 400.77 6.71744 -3.9545 0
M  V30 4479 N 404.999 1.35443 0.805782 0
M  V30 4480 C 406.224 1.32037 1.59941 0
M  V30 4481 C 406.649 -0.0994215 1.87837 0
M  V30 4482 O 406.007 -1.06648 1.46615 0
M  V30 4483 C 406.055 2.13354 2.90711 0
M  V30 4484 O 405.159 1.5148 3.83572 0
M  V30 4485 H 404.5 0.452666 0.485787 0
M  V30 4486 H 407.03 1.78496 1.00002 0
M  V30 4487 H 407.04 2.25338 3.40128 0
M  V30 4488 H 405.715 3.16572 2.69732 0
M  V30 4489 H 404.292 1.4834 3.42125 0
M  V30 4490 N 406.477 -1.02803 1.19454 0
M  V30 4491 C 407.705 -1.79841 1.02297 0
M  V30 4492 C 408.12 -1.83879 -0.428259 0
M  V30 4493 O 407.477 -1.28345 -1.29745 0
M  V30 4494 C 407.528 -3.24852 1.58598 0
M  V30 4495 O 407.249 -3.21097 2.98041 0
M  V30 4496 C 408.75 -4.18485 1.46236 0
M  V30 4497 H 405.97 -0.565936 0.360496 0
M  V30 4498 H 408.514 -1.2948 1.58288 0
M  V30 4499 H 406.669 -3.72401 1.06753 0
M  V30 4500 H 407.083 -4.12033 3.24545 0
M  V30 4501 H 408.557 -5.18121 1.90407 0
M  V30 4502 H 409.034 -4.37254 0.41301 0
M  V30 4503 H 409.64 -3.76811 1.97215 0
M  V30 4504 N 407.956 -0.998596 -1.21925 0
M  V30 4505 C 409.181 -0.696015 -1.95372 0
M  V30 4506 C 409.606 0.733826 -1.73195 0
M  V30 4507 O 408.964 1.50242 -1.01474 0
M  V30 4508 C 409.012 -1.01466 -3.4603 0
M  V30 4509 O 408.116 -0.116415 -4.12236 0
M  V30 4510 H 407.457 -0.259938 -0.611006 0
M  V30 4511 H 409.987 -1.33711 -1.54863 0
M  V30 4512 H 409.997 -0.958855 -3.96573 0
M  V30 4513 H 408.672 -2.05653 -3.61497 0
M  V30 4514 H 407.249 -0.228193 -3.72201 0
M  V30 4515 N 409.434 1.37368 -0.772513 0
M  V30 4516 C 410.344 2.34053 -0.160081 0
M  V30 4517 C 411.36 1.60216 0.678728 0
M  V30 4518 O 412.536 1.92303 0.59847 0
M  V30 4519 C 409.601 3.3939 0.708182 0
M  V30 4520 C 408.662 4.29048 -0.147172 0
M  V30 4521 C 407.895 5.29354 0.679744 0
M  V30 4522 O 408.118 5.3723 1.91678 0
M  V30 4523 O 407.052 6.01835 0.0885444 0
M  V30 4524 H 410.878 2.88159 -0.959053 0
M  V30 4525 H 408.463 1.39543 -0.533685 0
M  V30 4526 H 410.345 4.03839 1.20384 0
M  V30 4527 H 409.02 2.8761 1.48533 0
M  V30 4528 H 407.927 3.67697 -0.689205 0
M  V30 4529 H 409.26 4.84134 -0.887423 0
M  V30 4530 N 410.912 0.523116 1.48665 0
M  V30 4531 C 412.189 -0.0775449 1.95446 0
M  V30 4532 C 412.569 -1.5197 1.4652 0
M  V30 4533 O 411.917 -2.17876 0.688657 0
M  V30 4534 C 412.127 0.0326135 3.48985 0
M  V30 4535 C 413.475 -0.130141 4.24401 0
M  V30 4536 O 414.499 -0.0415142 3.56176 0
M  V30 4537 O 413.358 -0.31491 5.45592 0
M  V30 4538 H 410.452 -0.0831012 0.822814 0
M  V30 4539 H 412.998 0.587227 1.59216 0
M  V30 4540 H 411.77 1.03748 3.77296 0
M  V30 4541 H 411.393 -0.671317 3.91892 0
M  V30 4542 N 412.39 -1.55475 0.257931 0
M  V30 4543 C 413.801 -1.8511 -0.243135 0
M  V30 4544 C 414.152 -1.17986 -1.5676 0
M  V30 4545 O 413.277 -0.462102 -2.11409 0
M  V30 4546 C 413.872 -3.35826 -0.447929 0
M  V30 4547 C 412.431 -3.65647 -0.893245 0
M  V30 4548 C 411.578 -2.7729 0.0232965 0
M  V30 4549 H 414.529 -1.51261 0.480199 0
M  V30 4550 H 414.55 -3.58002 -1.28898 0
M  V30 4551 H 414.062 -3.84652 0.516196 0
M  V30 4552 H 412.163 -3.22308 -1.86945 0
M  V30 4553 H 412.276 -4.73312 -0.742469 0
M  V30 4554 H 410.64 -2.49942 -0.490021 0
M  V30 4555 H 411.423 -3.28926 0.982994 0
M  V30 4556 N 413.868 0.0150385 -1.57593 0
M  V30 4557 C 414.815 1.01126 -2.07466 0
M  V30 4558 C 415.785 1.35064 -0.966794 0
M  V30 4559 O 416.97 1.4516 -1.23827 0
M  V30 4560 C 414.11 2.30276 -2.57035 0
M  V30 4561 C 413.223 2.02373 -3.81666 0
M  V30 4562 C 412.358 3.25496 -4.19793 0
M  V30 4563 C 411.397 2.93211 -5.37303 0
M  V30 4564 N 410.534 4.08826 -5.70794 0
M  V30 4565 H 415.374 0.57901 -2.92321 0
M  V30 4566 H 412.911 0.27426 -1.44521 0
M  V30 4567 H 414.869 3.05757 -2.83846 0
M  V30 4568 H 413.499 2.71197 -1.75077 0
M  V30 4569 H 412.551 1.17327 -3.61854 0
M  V30 4570 H 413.863 1.74567 -4.67256 0
M  V30 4571 H 413.017 4.09333 -4.47807 0
M  V30 4572 H 411.756 3.56428 -3.32882 0
M  V30 4573 H 410.761 2.07777 -5.09027 0
M  V30 4574 H 411.986 2.63542 -6.25877 0
M  V30 4575 H 409.932 4.39682 -4.86842 0
M  V30 4576 H 409.849 3.84491 -6.50924 0
M  V30 4577 H 411.117 4.93496 -6.03392 0
M  V30 4578 N 415.346 1.54954 0.287554 0
M  V30 4579 C 416.592 1.75132 1.02257 0
M  V30 4580 C 416.925 0.542858 1.86458 0
M  V30 4581 O 416.2 -0.459856 1.88986 0
M  V30 4582 C 416.483 3.04812 1.91733 0
M  V30 4583 C 416.336 4.35985 1.10622 0
M  V30 4584 C 417.655 3.30438 2.90687 0
M  V30 4585 H 414.774 0.637194 0.370341 0
M  V30 4586 H 417.416 1.87678 0.296111 0
M  V30 4587 H 415.566 2.94247 2.53675 0
M  V30 4588 H 417.238 4.58487 0.508636 0
M  V30 4589 H 415.481 4.31865 0.409271 0
M  V30 4590 H 416.152 5.23017 1.76513 0
M  V30 4591 H 418.628 3.40701 2.38877 0
M  V30 4592 H 417.504 4.22467 3.50447 0
M  V30 4593 H 417.765 2.49377 3.65053 0
M  V30 4594 N 416.824 -0.551391 1.4764 0
M  V30 4595 C 418.052 -1.33357 1.58189 0
M  V30 4596 C 418.467 -1.87342 0.234199 0
M  V30 4597 O 417.824 -1.65301 -0.77343 0
M  V30 4598 C 417.875 -2.49942 2.61173 0
M  V30 4599 O 417.596 -1.98187 3.90709 0
M  V30 4600 C 419.097 -3.42072 2.8196 0
M  V30 4601 H 416.317 -0.40631 0.533998 0
M  V30 4602 H 418.861 -0.667367 1.93304 0
M  V30 4603 H 417.016 -3.12489 2.28975 0
M  V30 4604 H 417.43 -2.74342 4.47031 0
M  V30 4605 H 418.904 -4.20278 3.57869 0
M  V30 4606 H 419.381 -3.95978 1.89995 0
M  V30 4607 H 419.987 -2.85336 3.15378 0
M  V30 4608 N 418.302 -1.35869 -0.798587 0
M  V30 4609 C 419.527 -1.32883 -1.59238 0
M  V30 4610 C 419.952 0.0894587 -1.87887 0
M  V30 4611 O 419.31 1.05869 -1.47178 0
M  V30 4612 C 419.358 -2.14892 -2.89575 0
M  V30 4613 O 418.462 -1.53512 -3.82763 0
M  V30 4614 H 417.803 -0.455236 -0.48338 0
M  V30 4615 H 420.333 -1.79024 -0.990539 0
M  V30 4616 H 420.343 -2.27139 -3.38928 0
M  V30 4617 H 419.018 -3.17998 -2.68049 0
M  V30 4618 H 417.595 -1.50153 -3.41334 0
M  V30 4619 N 419.78 1.02168 -1.19998 0
M  V30 4620 C 421.191 1.57135 -1.00825 0
M  V30 4621 C 421.542 1.91276 0.436818 0
M  V30 4622 O 420.667 1.71679 1.3174 0
M  V30 4623 C 421.262 2.85514 -1.82393 0
M  V30 4624 C 419.821 3.37027 -1.67601 0
M  V30 4625 C 418.968 2.10388 -1.80644 0
M  V30 4626 H 421.919 0.846106 -1.34264 0
M  V30 4627 H 421.94 3.56711 -1.32429 0
M  V30 4628 H 421.452 2.60634 -2.87561 0
M  V30 4629 H 419.553 3.66878 -0.650485 0
M  V30 4630 H 419.666 4.09572 -2.4857 0
M  V30 4631 H 418.03 2.22601 -1.23778 0
M  V30 4632 H 418.813 1.8794 -2.87286 0
M  V30 4633 N 421.258 1.00505 1.21394 0
M  V30 4634 C 422.486 0.706609 1.9446 0
M  V30 4635 C 422.901 -0.73081 1.74082 0
M  V30 4636 O 422.258 -1.49446 1.04747 0
M  V30 4637 C 422.309 1.01824 3.46863 0
M  V30 4638 O 422.03 2.39919 3.66566 0
M  V30 4639 C 423.531 0.739216 4.37093 0
M  V30 4640 H 420.751 0.260394 0.618414 0
M  V30 4641 H 423.295 1.34311 1.54211 0
M  V30 4642 H 421.45 0.427343 3.85036 0
M  V30 4643 H 421.864 2.50784 4.6066 0
M  V30 4644 H 423.338 1.00744 5.42729 0
M  V30 4645 H 423.815 -0.326746 4.37983 0
M  V30 4646 H 424.421 1.31173 4.04566 0
M  V30 4647 N 422.737 -1.36956 0.779787 0
M  V30 4648 C 423.983 -1.99787 0.348281 0
M  V30 4649 C 424.316 -1.61756 -1.07465 0
M  V30 4650 O 423.591 -0.867639 -1.74075 0
M  V30 4651 C 423.874 -3.56597 0.50104 0
M  V30 4652 C 423.727 -4.04513 1.96697 0
M  V30 4653 C 425.046 -4.40008 -0.0898097 0
M  V30 4654 H 422.165 -0.725796 0.128022 0
M  V30 4655 H 424.807 -1.62514 0.984331 0
M  V30 4656 H 422.957 -3.88479 -0.0404347 0
M  V30 4657 H 424.629 -3.83161 2.56876 0
M  V30 4658 H 422.872 -3.56408 2.47297 0
M  V30 4659 H 423.543 -5.1352 2.02486 0
M  V30 4660 H 426.019 -4.14431 0.372293 0
M  V30 4661 H 424.895 -5.4888 0.0471605 0
M  V30 4662 H 425.156 -4.26035 -1.18096 0
M  V30 4663 N 424.215 -0.530993 -1.48385 0
M  V30 4664 C 425.462 0.0027373 -2.025 0
M  V30 4665 C 425.79 1.34186 -1.40799 0
M  V30 4666 O 425.045 1.88 -0.543544 0
M  V30 4667 C 425.344 0.172742 -3.56982 0
M  V30 4668 C 425.01 -1.09215 -4.37473 0
M  V30 4669 C 423.672 -1.43881 -4.59186 0
M  V30 4670 C 426.024 -1.93153 -4.84088 0
M  V30 4671 C 423.352 -2.62381 -5.2476 0
M  V30 4672 C 425.704 -3.10833 -5.50968 0
M  V30 4673 C 424.368 -3.45843 -5.70919 0
M  V30 4674 H 423.638 0.00100165 -0.740999 0
M  V30 4675 H 426.285 -0.697219 -1.78357 0
M  V30 4676 H 424.59 0.955473 -3.79971 0
M  V30 4677 H 426.287 0.600642 -3.96476 0
M  V30 4678 H 422.877 -0.812177 -4.20834 0
M  V30 4679 H 427.061 -1.67683 -4.67115 0
M  V30 4680 H 422.317 -2.89707 -5.38405 0
M  V30 4681 H 426.491 -3.7618 -5.86056 0
M  V30 4682 H 424.118 -4.37764 -6.21503 0
M  V30 4683 N 425.693 1.55336 -0.266172 0
M  V30 4684 C 426.918 2.04258 0.359661 0
M  V30 4685 C 427.343 1.14359 1.49344 0
M  V30 4686 O 426.701 0.140369 1.80756 0
M  V30 4687 C 426.749 3.50997 0.826635 0
M  V30 4688 O 425.853 3.64204 1.93466 0
M  V30 4689 H 425.194 0.659668 0.075727 0
M  V30 4690 H 427.724 2.00694 -0.39786 0
M  V30 4691 H 427.734 3.9219 1.12477 0
M  V30 4692 H 426.409 4.159 -0.00293032 0
M  V30 4693 H 424.986 3.34913 1.63974 0
M  V30 4694 N 427.171 -0.0066808 1.57599 0
M  V30 4695 C 428.103 -1.02827 2.04839 0
M  V30 4696 C 429.116 -1.31108 0.965113 0
M  V30 4697 O 430.305 -1.28202 1.24203 0
M  V30 4698 C 427.405 -2.36464 2.42771 0
M  V30 4699 C 426.578 -2.27219 3.73751 0
M  V30 4700 C 425.637 -3.43489 3.98625 0
M  V30 4701 O 424.663 -3.21976 4.69382 0
M  V30 4702 N 425.865 -4.66116 3.46 0
M  V30 4703 H 428.63 -0.625455 2.93101 0
M  V30 4704 H 426.191 -0.194198 1.60731 0
M  V30 4705 H 428.183 -3.13008 2.56531 0
M  V30 4706 H 426.753 -2.68512 1.60063 0
M  V30 4707 H 425.973 -1.35629 3.70133 0
M  V30 4708 H 427.261 -2.18208 4.59633 0
M  V30 4709 H 426.659 -4.86493 2.88688 0
M  V30 4710 H 425.216 -5.39949 3.65101 0
M  V30 4711 N 428.649 -1.55105 -0.279332 0
M  V30 4712 C 429.559 -1.90638 -1.36727 0
M  V30 4713 C 430.575 -0.802899 -1.54368 0
M  V30 4714 O 431.751 -1.10138 -1.68616 0
M  V30 4715 C 428.816 -2.16547 -2.70755 0
M  V30 4716 C 427.877 -3.40146 -2.61915 0
M  V30 4717 C 427.11 -3.6481 -3.8955 0
M  V30 4718 O 427.333 -2.92095 -4.89935 0
M  V30 4719 O 426.267 -4.58343 -3.90135 0
M  V30 4720 H 430.093 -2.83237 -1.09591 0
M  V30 4721 H 427.678 -1.4157 -0.477306 0
M  V30 4722 H 429.56 -2.34665 -3.50014 0
M  V30 4723 H 428.235 -1.27131 -2.9769 0
M  V30 4724 H 427.142 -3.2737 -1.81052 0
M  V30 4725 H 428.475 -4.29761 -2.3993 0
M  V30 4726 N 430.127 0.543554 -1.4793 0
M  V30 4727 C 431.375 1.29752 -1.54948 0
M  V30 4728 C 431.696 1.93764 -0.219242 0
M  V30 4729 O 430.966 1.80639 0.75805 0
M  V30 4730 H 429.546 0.481874 -0.570795 0
M  V30 4731 H 432.208 0.633636 -1.84312 0
M  V30 4732 H 431.304 2.08392 -2.32334 0
M  V30 4733 N 431.605 1.3629 0.791371 0
M  V30 4734 C 432.515 1.32606 1.93527 0
M  V30 4735 C 433.531 0.228541 1.72493 0
M  V30 4736 O 434.707 0.460571 1.96063 0
M  V30 4737 C 431.772 1.11271 3.28359 0
M  V30 4738 C 430.833 2.3048 3.62185 0
M  V30 4739 C 430.066 2.10154 4.90583 0
M  V30 4740 O 430.289 1.07572 5.60165 0
M  V30 4741 O 429.223 2.97884 5.23019 0
M  V30 4742 H 433.049 2.28909 1.99585 0
M  V30 4743 H 430.634 1.16818 0.931344 0
M  V30 4744 H 432.516 1.01283 4.09047 0
M  V30 4745 H 431.191 0.180292 3.23198 0
M  V30 4746 H 430.098 2.46036 2.81811 0
M  V30 4747 H 431.431 3.22221 3.72068 0
M  V30 4748 N 433.083 -1.0153 1.20538 0
M  V30 4749 C 434.499 -1.27461 0.96051 0
M  V30 4750 C 434.699 -1.98273 -0.359193 0
M  V30 4751 O 433.755 -2.27886 -1.0874 0
M  V30 4752 C 435.068 -2.10837 2.14402 0
M  V30 4753 C 436.616 -2.24099 2.18515 0
M  V30 4754 C 437.091 -3.10852 3.36355 0
M  V30 4755 N 438.582 -3.18441 3.36377 0
M  V30 4756 C 439.317 -3.85795 4.24205 0
M  V30 4757 N 438.813 -4.55264 5.22213 0
M  V30 4758 N 440.606 -3.82331 4.12043 0
M  V30 4759 H 432.757 -0.539907 2.05423 0
M  V30 4760 H 435.02 -0.30092 0.898972 0
M  V30 4761 H 434.726 -1.66144 3.09983 0
M  V30 4762 H 434.6 -3.11576 2.12604 0
M  V30 4763 H 436.987 -2.68016 1.23497 0
M  V30 4764 H 437.068 -1.22865 2.24361 0
M  V30 4765 H 436.712 -2.6764 4.31661 0
M  V30 4766 H 436.642 -4.12177 3.27746 0
M  V30 4767 H 439.133 -2.68978 2.65442 0
M  V30 4768 H 439.446 -5.04331 5.85551 0
M  V30 4769 H 437.791 -4.54085 5.26148 0
M  V30 4770 H 440.982 -3.27207 3.34743 0
M  V30 4771 H 441.155 -4.34547 4.807 0
M  V30 4772 N 434.561 -1.01147 -1.20859 0
M  V30 4773 C 435.471 -0.58686 -2.27141 0
M  V30 4774 C 436.487 0.373198 -1.69951 0
M  V30 4775 O 437.663 0.235423 -2.00019 0
M  V30 4776 C 434.728 0.0733602 -3.46622 0
M  V30 4777 C 433.789 -0.931995 -4.19061 0
M  V30 4778 C 433.022 -0.303186 -5.32838 0
M  V30 4779 O 433.245 0.898395 -5.63281 0
M  V30 4780 O 432.179 -1.01735 -5.9324 0
M  V30 4781 H 436.005 -1.47155 -2.65667 0
M  V30 4782 H 433.59 -0.780689 -1.2738 0
M  V30 4783 H 435.472 0.442333 -4.19072 0
M  V30 4784 H 434.147 0.932329 -3.09983 0
M  V30 4785 H 433.054 -1.35224 -3.48805 0
M  V30 4786 H 434.387 -1.76076 -4.59628 0
M  V30 4787 N 436.039 1.36541 -0.78704 0
M  V30 4788 C 437.267 2.03561 -0.370199 0
M  V30 4789 C 437.682 1.59347 1.01263 0
M  V30 4790 O 437.039 0.781781 1.64907 0
M  V30 4791 C 437.09 3.59033 -0.421614 0
M  V30 4792 O 436.811 4.01634 -1.7499 0
M  V30 4793 C 438.312 4.433 0.00489763 0
M  V30 4794 H 435.532 0.653346 -0.152904 0
M  V30 4795 H 438.076 1.74566 -1.06522 0
M  V30 4796 H 436.231 3.86746 0.224971 0
M  V30 4797 H 436.645 4.96217 -1.69909 0
M  V30 4798 H 438.119 5.51939 -0.0822184 0
M  V30 4799 H 438.596 4.26285 1.05723 0
M  V30 4800 H 439.202 4.20843 -0.614085 0
M  V30 4801 N 437.518 0.538854 1.48102 0
M  V30 4802 C 438.764 0.00801365 2.02798 0
M  V30 4803 C 439.097 -1.3309 1.41424 0
M  V30 4804 O 438.372 -1.86169 0.563158 0
M  V30 4805 C 438.655 -0.104589 3.59948 0
M  V30 4806 C 438.508 1.26012 4.31788 0
M  V30 4807 C 439.827 -0.827055 4.32259 0
M  V30 4808 H 436.946 0.00438624 0.736987 0
M  V30 4809 H 439.588 0.6976 1.7673 0
M  V30 4810 H 437.738 -0.691893 3.82289 0
M  V30 4811 H 439.41 1.88922 4.2084 0
M  V30 4812 H 437.653 1.83968 3.92859 0
M  V30 4813 H 438.324 1.13424 5.40221 0
M  V30 4814 H 440.8 -0.328578 4.14801 0
M  V30 4815 H 439.676 -0.87476 5.41885 0
M  V30 4816 H 439.937 -1.87927 4.0017 0
M  V30 4817 N 438.996 -1.55193 0.274407 0
M  V30 4818 C 440.224 -2.03987 -0.345943 0
M  V30 4819 C 440.639 -1.15279 -1.4952 0
M  V30 4820 O 439.996 -0.172759 -1.8168 0
M  V30 4821 C 440.047 -3.51898 -0.827631 0
M  V30 4822 O 439.768 -4.37231 0.275855 0
M  V30 4823 C 441.269 -4.16577 -1.51587 0
M  V30 4824 H 438.489 -0.666335 -0.0789892 0
M  V30 4825 H 441.033 -2.00423 0.406294 0
M  V30 4826 H 439.188 -3.55909 -1.52996 0
M  V30 4827 H 439.602 -5.24415 -0.0943638 0
M  V30 4828 H 441.076 -5.21678 -1.80433 0
M  V30 4829 H 441.553 -3.64707 -2.44716 0
M  V30 4830 H 442.159 -4.16568 -0.857409 0
M  V30 4831 N 440.474 -0.00167713 -1.576 0
M  V30 4832 C 441.89 0.354422 -1.55615 0
M  V30 4833 C 442.09 1.74679 -1.00447 0
M  V30 4834 O 441.146 2.4428 -0.639022 0
M  V30 4835 C 442.459 0.22812 -2.99833 0
M  V30 4836 C 444.007 0.302934 -3.11531 0
M  V30 4837 C 444.482 0.205737 -4.57538 0
M  V30 4838 N 445.973 0.263584 -4.62449 0
M  V30 4839 C 446.708 0.211742 -5.73009 0
M  V30 4840 N 446.204 0.110399 -6.92712 0
M  V30 4841 N 447.997 0.263729 -5.61481 0
M  V30 4842 H 440.148 -0.912498 -1.918 0
M  V30 4843 H 442.411 -0.349928 -0.881053 0
M  V30 4844 H 442.117 -0.729934 -3.44042 0
M  V30 4845 H 441.991 1.00951 -3.6344 0
M  V30 4846 H 444.378 1.25143 -2.67251 0
M  V30 4847 H 444.459 -0.508357 -2.50698 0
M  V30 4848 H 444.103 -0.739225 -5.02492 0
M  V30 4849 H 444.033 1.03554 -5.16318 0
M  V30 4850 H 446.524 0.343173 -3.76339 0
M  V30 4851 H 446.837 0.0767828 -7.72762 0
M  V30 4852 H 445.182 0.0760025 -6.94958 0
M  V30 4853 H 448.373 0.34111 -4.66855 0
M  V30 4854 H 448.546 0.219862 -6.47627 0
M  V30 4855 N 441.952 1.55251 0.271103 0
M  V30 4856 C 443.363 1.66635 0.842007 0
M  V30 4857 C 443.714 0.594631 1.86972 0
M  V30 4858 O 442.839 -0.263532 2.14789 0
M  V30 4859 C 443.434 3.02082 1.53401 0
M  V30 4860 C 441.993 3.15487 2.05293 0
M  V30 4861 C 441.14 2.62438 0.895631 0
M  V30 4862 H 444.091 1.58629 0.0474117 0
M  V30 4863 H 444.112 2.95176 2.40107 0
M  V30 4864 H 443.624 3.80062 0.785786 0
M  V30 4865 H 441.725 2.42284 2.83071 0
M  V30 4866 H 441.838 4.22075 2.26693 0
M  V30 4867 H 440.202 2.19644 1.28953 0
M  V30 4868 H 440.985 3.42923 0.160878 0
M  V30 4869 N 443.43 -0.535701 1.48216 0
M  V30 4870 C 444.67 -1.30238 1.57536 0
M  V30 4871 C 445.034 -1.90479 0.241229 0
M  V30 4872 O 446.235 -2.67983 0.20938 0
M  V30 4873 C 444.506 -2.3669 2.67792 0
M  V30 4874 S 446.065 -3.23159 2.9684 0
M  V30 4875 H 442.883 -0.443093 0.556048 0
M  V30 4876 H 445.485 -0.610937 1.85709 0
M  V30 4877 H 444.189 -1.90905 3.63296 0
M  V30 4878 H 443.72 -3.10548 2.41502 0
M  V30 4879 H 445.735 -4.36647 2.35699 0
M  V30 4880 N 444.908 -1.36708 -0.784132 0
M  V30 4881 C 446.155 -1.31231 -1.54222 0
M  V30 4882 C 446.483 0.106864 -1.94206 0
M  V30 4883 O 445.738 1.07734 -1.63376 0
M  V30 4884 C 446.037 -2.18571 -2.82774 0
M  V30 4885 C 445.703 -3.67039 -2.61903 0
M  V30 4886 C 444.365 -4.07503 -2.55919 0
M  V30 4887 C 446.717 -4.61149 -2.4288 0
M  V30 4888 C 444.045 -5.40211 -2.28886 0
M  V30 4889 C 446.397 -5.94081 -2.17373 0
M  V30 4890 C 445.061 -6.33664 -2.09825 0
M  V30 4891 H 444.331 -0.48021 -0.56434 0
M  V30 4892 H 446.978 -1.68807 -0.904233 0
M  V30 4893 H 445.283 -1.73949 -3.51068 0
M  V30 4894 H 446.98 -2.11655 -3.40592 0
M  V30 4895 H 443.57 -3.34941 -2.67418 0
M  V30 4896 H 447.754 -4.30756 -2.46501 0
M  V30 4897 H 443.01 -5.69855 -2.21529 0
M  V30 4898 H 447.184 -6.66566 -2.01649 0
M  V30 4899 H 444.811 -7.36423 -1.88641 0
M  V30 4900 N 446.386 1.0089 -1.21074 0
M  V30 4901 C 447.802 1.2695 -0.967257 0
M  V30 4902 C 448.002 1.9846 0.348673 0
M  V30 4903 O 447.058 2.28459 1.0753 0
M  V30 4904 C 448.371 2.09697 -2.15517 0
M  V30 4905 C 449.919 2.22937 -2.197 0
M  V30 4906 C 450.394 3.09064 -3.37999 0
M  V30 4907 N 451.885 3.16653 -3.38061 0
M  V30 4908 C 452.62 3.8354 -4.26245 0
M  V30 4909 N 452.116 4.52488 -5.2462 0
M  V30 4910 N 453.909 3.80141 -4.14064 0
M  V30 4911 H 446.06 0.529005 -2.05707 0
M  V30 4912 H 448.323 0.296148 -0.900556 0
M  V30 4913 H 448.029 1.64497 -3.10859 0
M  V30 4914 H 447.903 3.10444 -2.14253 0
M  V30 4915 H 450.29 2.67357 -1.24916 0
M  V30 4916 H 450.371 1.21673 -2.2501 0
M  V30 4917 H 450.015 2.65347 -4.33074 0
M  V30 4918 H 449.945 4.10433 -3.29928 0
M  V30 4919 H 452.436 2.67566 -2.66865 0
M  V30 4920 H 452.749 5.01219 -5.88217 0
M  V30 4921 H 451.094 4.51288 -5.28549 0
M  V30 4922 H 454.285 3.25427 -3.36474 0
M  V30 4923 H 454.458 4.31992 -4.82998 0
M  V30 4924 N 447.864 1.01787 1.20321 0
M  V30 4925 C 448.794 0.609625 2.25401 0
M  V30 4926 C 449.775 -0.375951 1.65893 0
M  V30 4927 O 450.96 -0.261101 1.92437 0
M  V30 4928 C 448.09 -0.0515995 3.47262 0
M  V30 4929 C 447.044 0.855095 4.19371 0
M  V30 4930 C 446.37 0.0595757 5.34667 0
M  V30 4931 C 447.67 2.16374 4.75373 0
M  V30 4932 H 449.364 1.48803 2.59804 0
M  V30 4933 H 446.91 0.716934 1.24884 0
M  V30 4934 H 448.863 -0.348764 4.19954 0
M  V30 4935 H 447.587 -0.964726 3.12027 0
M  V30 4936 H 446.246 1.13628 3.48546 0
M  V30 4937 H 445.894 -0.85524 4.95676 0
M  V30 4938 H 445.594 0.663406 5.83843 0
M  V30 4939 H 447.118 -0.231105 6.10162 0
M  V30 4940 H 448.532 1.92885 5.39878 0
M  V30 4941 H 446.929 2.71853 5.34991 0
M  V30 4942 H 447.999 2.82589 3.94045 0
M  V30 4943 N 449.342 -1.36122 0.79427 0
M  V30 4944 C 450.619 -1.93398 0.292685 0
M  V30 4945 C 450.999 -1.72567 -1.21589 0
M  V30 4946 O 450.347 -1.08745 -2.00965 0
M  V30 4947 C 450.557 -3.42099 0.690614 0
M  V30 4948 C 451.905 -4.19231 0.673105 0
M  V30 4949 O 452.929 -3.50559 0.631389 0
M  V30 4950 O 451.788 -5.41732 0.720362 0
M  V30 4951 H 448.882 -0.823712 0.0736693 0
M  V30 4952 H 451.428 -1.45273 0.87714 0
M  V30 4953 H 450.2 -3.50938 1.73085 0
M  V30 4954 H 449.823 -3.97519 0.0803036 0
M  V30 4955 N 450.82 -0.546701 -1.47814 0
M  V30 4956 C 452.066 -0.0187684 -2.02791 0
M  V30 4957 C 452.399 1.32338 -1.42128 0
M  V30 4958 O 451.674 1.85867 -0.573023 0
M  V30 4959 C 451.957 0.0854985 -3.59998 0
M  V30 4960 C 451.81 -1.283 -4.31114 0
M  V30 4961 C 453.129 0.80412 -4.32691 0
M  V30 4962 H 450.248 -0.0082946 -0.736953 0
M  V30 4963 H 452.89 -0.706962 -1.76358 0
M  V30 4964 H 451.04 0.671609 -3.82651 0
M  V30 4965 H 452.712 -1.91151 -4.19832 0
M  V30 4966 H 450.955 -1.86049 -3.91878 0
M  V30 4967 H 451.626 -1.16287 -5.39612 0
M  V30 4968 H 454.102 0.306576 -4.14969 0
M  V30 4969 H 452.978 0.846011 -5.42341 0
M  V30 4970 H 453.239 1.85802 -4.01161 0
M  V30 4971 N 452.299 1.55045 -0.282633 0
M  V30 4972 C 453.232 2.18951 0.64311 0
M  V30 4973 C 454.21 1.15287 1.14664 0
M  V30 4974 O 455.394 1.43846 1.21822 0
M  V30 4975 C 452.521 2.81874 1.87789 0
M  V30 4976 C 451.567 3.98906 1.50919 0
M  V30 4977 S 452.4 5.3234 0.580884 0
M  V30 4978 C 453.556 5.98737 1.82387 0
M  V30 4979 H 453.789 2.97131 0.100138 0
M  V30 4980 H 451.322 1.54255 -0.0668514 0
M  V30 4981 H 453.28 3.18757 2.58658 0
M  V30 4982 H 451.941 2.03573 2.392 0
M  V30 4983 H 451.134 4.4165 2.42819 0
M  V30 4984 H 450.736 3.63485 0.88061 0
M  V30 4985 H 453.028 6.18427 2.76684 0
M  V30 4986 H 453.971 6.93318 1.4393 0
M  V30 4987 H 454.379 5.28177 1.99223 0
M  V30 4988 N 453.777 0.010035 1.57597 0
M  V30 4989 C 454.709 -1.00649 2.05918 0
M  V30 4990 C 455.722 -1.30077 0.978964 0
M  V30 4991 O 456.911 -1.26878 1.25556 0
M  V30 4992 C 454.011 -2.33876 2.45265 0
M  V30 4993 C 453.184 -2.23242 3.7614 0
M  V30 4994 C 452.243 -3.39242 4.02245 0
M  V30 4995 O 451.269 -3.1698 4.72771 0
M  V30 4996 N 452.471 -4.6242 3.50924 0
M  V30 4997 H 455.236 -0.594333 2.93748 0
M  V30 4998 H 452.797 -0.17714 1.60928 0
M  V30 4999 H 454.789 -3.1027 2.59836 0
M  V30 5000 H 453.359 -2.66799 1.62902 0
M  V30 5001 H 452.579 -1.31696 3.71551 0
M  V30 5002 H 453.867 -2.13321 4.61922 0
M  V30 5003 H 453.265 -4.83404 2.93832 0
M  V30 5004 H 451.822 -5.36046 3.70807 0
M  V30 5005 N 455.255 -1.55392 -0.262866 0
M  V30 5006 C 456.483 -1.80513 -1.01108 0
M  V30 5007 C 456.898 -0.583533 -1.79556 0
M  V30 5008 O 456.255 0.447585 -1.76926 0
M  V30 5009 C 456.306 -3.03648 -1.96164 0
M  V30 5010 O 456.027 -4.2109 -1.20893 0
M  V30 5011 C 457.528 -3.41448 -2.82715 0
M  V30 5012 H 454.748 -0.601079 -0.298236 0
M  V30 5013 H 457.292 -2.02425 -0.290582 0
M  V30 5014 H 455.447 -2.83832 -2.63663 0
M  V30 5015 H 455.861 -4.90771 -1.85051 0
M  V30 5016 H 457.335 -4.30751 -3.45192 0
M  V30 5017 H 457.812 -2.61308 -3.53008 0
M  V30 5018 H 458.418 -3.63559 -2.20693 0
M  V30 5019 N 456.733 0.527833 -1.48498 0
M  V30 5020 C 457.665 1.6482 -1.5927 0
M  V30 5021 C 458.678 1.55659 -0.476869 0
M  V30 5022 O 459.867 1.62081 -0.747806 0
M  V30 5023 C 456.967 3.0348 -1.50842 0
M  V30 5024 C 456.14 3.381 -2.77502 0
M  V30 5025 C 455.199 4.5605 -2.62497 0
M  V30 5026 O 454.225 4.59165 -3.36387 0
M  V30 5027 N 455.427 5.54353 -1.72257 0
M  V30 5028 H 458.192 1.56015 -2.55889 0
M  V30 5029 H 455.753 0.715152 -1.45249 0
M  V30 5030 H 457.745 3.80264 -1.38496 0
M  V30 5031 H 456.315 3.06352 -0.621887 0
M  V30 5032 H 455.535 2.50473 -3.04396 0
M  V30 5033 H 456.823 3.58017 -3.61527 0
M  V30 5034 H 456.221 5.54617 -1.11431 0
M  V30 5035 H 454.778 6.30347 -1.65849 0
M  V30 5036 N 458.211 1.37122 0.776871 0
M  V30 5037 C 459.622 1.28667 1.35284 0
M  V30 5038 C 459.973 -0.0680035 1.96082 0
M  V30 5039 O 459.098 -0.969743 1.93455 0
M  V30 5040 C 459.693 2.32997 2.45963 0
M  V30 5041 C 458.252 2.28191 2.99342 0
M  V30 5042 C 457.399 2.17101 1.72517 0
M  V30 5043 H 460.35 1.47819 0.577527 0
M  V30 5044 H 460.371 1.97366 3.2531 0
M  V30 5045 H 459.883 3.3158 2.01684 0
M  V30 5046 H 457.984 1.33115 3.4801 0
M  V30 5047 H 458.097 3.21397 3.55304 0
M  V30 5048 H 456.461 1.63562 1.95242 0
M  V30 5049 H 457.244 3.17591 1.30348 0
M  V30 5050 N 459.689 -1.00246 1.21608 0
M  V30 5051 C 460.935 -1.74319 1.03638 0
M  V30 5052 C 461.268 -1.89408 -0.428749 0
M  V30 5053 O 460.543 -1.43026 -1.3181 0
M  V30 5054 C 460.826 -3.15431 1.73711 0
M  V30 5055 C 460.679 -3.08049 3.27759 0
M  V30 5056 C 461.998 -4.14407 1.48173 0
M  V30 5057 H 459.117 -0.632741 0.377899 0
M  V30 5058 H 461.759 -1.16853 1.49818 0
M  V30 5059 H 459.909 -3.64493 1.34452 0
M  V30 5060 H 461.581 -2.66681 3.76403 0
M  V30 5061 H 459.824 -2.45088 3.57931 0
M  V30 5062 H 460.495 -4.07862 3.71958 0
M  V30 5063 H 462.971 -3.74061 1.82258 0
M  V30 5064 H 461.847 -5.11279 1.99713 0
M  V30 5065 H 462.108 -4.40174 0.412273 0
M  V30 5066 N 461.167 -1.02423 -1.1978 0
M  V30 5067 C 462.578 -0.748389 -1.71044 0
M  V30 5068 C 462.929 0.732398 -1.82017 0
M  V30 5069 O 462.054 1.57116 -1.48807 0
M  V30 5070 C 462.649 -1.35187 -3.1066 0
M  V30 5071 C 461.208 -1.12472 -3.59203 0
M  V30 5072 C 460.355 -1.45283 -2.36195 0
M  V30 5073 H 463.306 -1.19275 -1.04686 0
M  V30 5074 H 463.327 -0.746408 -3.73107 0
M  V30 5075 H 462.839 -2.4296 -3.02642 0
M  V30 5076 H 460.94 -0.0649983 -3.72543 0
M  V30 5077 H 461.053 -1.81016 -4.43588 0
M  V30 5078 H 459.417 -0.872034 -2.39307 0
M  V30 5079 H 460.2 -2.54129 -2.30811 0
M  V30 5080 N 462.645 1.35699 -0.801477 0
M  V30 5081 C 463.555 2.33661 -0.209691 0
M  V30 5082 C 464.571 1.6162 0.644591 0
M  V30 5083 O 465.747 1.93529 0.557545 0
M  V30 5084 C 462.812 3.40816 0.636033 0
M  V30 5085 C 461.873 4.28639 -0.238147 0
M  V30 5086 C 461.106 5.30676 0.567307 0
M  V30 5087 O 461.329 5.41174 1.8024 0
M  V30 5088 O 460.263 6.01887 -0.0391336 0
M  V30 5089 H 464.089 2.8606 -1.01996 0
M  V30 5090 H 461.674 1.38379 -0.563164 0
M  V30 5091 H 463.556 4.06301 1.11791 0
M  V30 5092 H 462.231 2.90696 1.42399 0
M  V30 5093 H 461.138 3.66152 -0.767044 0
M  V30 5094 H 462.471 4.82143 -0.989915 0
M  V30 5095 N 464.123 0.554532 1.47522 0
M  V30 5096 C 465.371 0.0294208 2.02079 0
M  V30 5097 C 465.692 -1.32411 1.43151 0
M  V30 5098 O 464.962 -1.863 0.605728 0
M  V30 5099 H 463.542 0.00788672 0.746958 0
M  V30 5100 H 466.204 0.723934 1.80956 0
M  V30 5101 H 465.3 -0.0606745 3.12041 0
M  V30 5102 N 465.601 -1.54893 0.290851 0
M  V30 5103 C 466.878 -1.91991 -0.373989 0
M  V30 5104 C 467.258 -1.21694 -1.72493 0
M  V30 5105 O 466.606 -0.34917 -2.25816 0
M  V30 5106 C 466.816 -3.45419 -0.498703 0
M  V30 5107 C 468.164 -4.1748 -0.774298 0
M  V30 5108 O 469.188 -3.51398 -0.582908 0
M  V30 5109 O 468.047 -5.3445 -1.14129 0
M  V30 5110 H 465.141 -0.800593 -0.207315 0
M  V30 5111 H 467.687 -1.66297 0.338164 0
M  V30 5112 H 466.459 -3.88688 0.451392 0
M  V30 5113 H 466.082 -3.77117 -1.25972 0
M  V30 5114 N 467.08 -0.0183926 -1.57589 0
M  V30 5115 C 468.043 0.951986 -2.08494 0
M  V30 5116 C 469.043 1.26092 -0.997874 0
M  V30 5117 O 470.233 1.20304 -1.25987 0
M  V30 5118 C 467.365 2.27165 -2.54182 0
M  V30 5119 H 468.558 0.511307 -2.95509 0
M  V30 5120 H 466.111 0.229444 -1.54607 0
M  V30 5121 H 466.846 2.75884 -1.70465 0
M  V30 5122 H 466.631 2.06057 -3.33591 0
M  V30 5123 H 468.121 2.9674 -2.93828 0
M  V30 5124 N 468.558 1.5553 0.254621 0
M  V30 5125 C 469.974 1.4778 0.602753 0
M  V30 5126 C 470.174 0.707047 1.88688 0
M  V30 5127 O 469.23 0.233288 2.5142 0
M  V30 5128 C 470.543 2.92133 0.712648 0
M  V30 5129 C 472.091 3.02458 0.805488 0
M  V30 5130 C 472.566 4.48102 0.947009 0
M  V30 5131 N 474.057 4.52008 1.01207 0
M  V30 5132 C 474.792 5.61939 1.1407 0
M  V30 5133 N 474.288 6.81697 1.23536 0
M  V30 5134 N 476.081 5.49719 1.17325 0
M  V30 5135 H 468.232 2.04085 -0.588463 0
M  V30 5136 H 470.495 0.926229 -0.202001 0
M  V30 5137 H 470.201 3.51332 -0.160766 0
M  V30 5138 H 470.075 3.42187 1.58707 0
M  V30 5139 H 472.462 2.43344 1.66936 0
M  V30 5140 H 472.543 2.55627 -0.0939266 0
M  V30 5141 H 472.187 5.07824 0.087725 0
M  V30 5142 H 472.117 4.92607 1.86135 0
M  V30 5143 H 474.608 3.65749 0.950577 0
M  V30 5144 H 474.921 7.61228 1.33236 0
M  V30 5145 H 473.266 6.84473 1.20508 0
M  V30 5146 H 476.457 4.55095 1.09573 0
M  V30 5147 H 476.63 6.35432 1.27005 0
M  V30 5148 N 470.036 -0.519951 1.48776 0
M  V30 5149 C 471.284 -1.2727 1.56993 0
M  V30 5150 C 471.605 -1.9339 0.25004 0
M  V30 5151 O 470.875 -1.81822 -0.729216 0
M  V30 5152 H 469.455 -0.472732 0.578389 0
M  V30 5153 H 472.117 -0.604234 1.85297 0
M  V30 5154 H 471.213 -2.04669 2.3562 0
M  V30 5155 N 471.514 -1.37532 -0.769588 0
M  V30 5156 C 472.739 -1.36231 -1.56384 0
M  V30 5157 C 473.164 0.0495849 -1.88035 0
M  V30 5158 O 472.522 1.02723 -1.49391 0
M  V30 5159 C 472.57 -2.20986 -2.84952 0
M  V30 5160 O 471.674 -1.61597 -3.79421 0
M  V30 5161 H 471.015 -0.465387 -0.473615 0
M  V30 5162 H 473.545 -1.81085 -0.952342 0
M  V30 5163 H 473.555 -2.34277 -3.34034 0
M  V30 5164 H 472.23 -3.23612 -2.61243 0
M  V30 5165 H 470.807 -1.57359 -3.38072 0
M  V30 5166 N 472.992 0.995999 -1.22138 0
M  V30 5167 C 473.939 2.08551 -0.988687 0
M  V30 5168 C 474.909 1.65864 0.0885021 0
M  V30 5169 O 476.094 1.90704 -0.0604589 0
M  V30 5170 C 473.234 3.40374 -0.569191 0
M  V30 5171 C 472.347 3.96421 -1.71681 0
M  V30 5172 C 471.482 5.1639 -1.2456 0
M  V30 5173 C 470.521 5.64567 -2.36497 0
M  V30 5174 N 469.658 6.75777 -1.90445 0
M  V30 5175 H 474.498 2.2779 -1.92135 0
M  V30 5176 H 472.035 1.1168 -0.957388 0
M  V30 5177 H 473.993 4.16068 -0.307166 0
M  V30 5178 H 472.623 3.21145 0.326462 0
M  V30 5179 H 471.675 3.17628 -2.09324 0
M  V30 5180 H 472.987 4.2816 -2.55891 0
M  V30 5181 H 472.141 5.99362 -0.940774 0
M  V30 5182 H 470.88 4.86266 -0.373662 0
M  V30 5183 H 469.885 4.80185 -2.67772 0
M  V30 5184 H 471.11 5.96716 -3.24202 0
M  V30 5185 H 469.056 6.47443 -1.05609 0
M  V30 5186 H 468.973 7.06818 -2.68223 0
M  V30 5187 H 470.241 7.62262 -1.63022 0
M  V30 5188 N 474.47 1.03057 1.19235 0
M  V30 5189 C 475.433 0.617418 2.20727 0
M  V30 5190 C 476.433 -0.319856 1.57587 0
M  V30 5191 O 477.623 -0.106633 1.73873 0
M  V30 5192 C 474.755 -0.096296 3.40764 0
M  V30 5193 H 475.948 1.51544 2.58794 0
M  V30 5194 H 473.501 0.821949 1.32942 0
M  V30 5195 H 474.236 -1.00859 3.08217 0
M  V30 5196 H 474.021 0.577217 3.87828 0
M  V30 5197 H 475.511 -0.372219 4.15938 0
M  V30 5198 N 475.948 -1.35272 0.808662 0
M  V30 5199 C 476.896 -2.31663 0.208606 0
M  V30 5200 C 477.89 -1.56731 -0.642778 0
M  V30 5201 O 479.096 -1.71843 -0.53571 0
M  V30 5202 H 475.471 -0.750421 0.0486993 0
M  V30 5203 H 477.442 -2.79814 1.03666 0
M  V30 5204 C 476.191 -3.42008 -0.626573 0
M  V30 5205 H 475.514 -3.99795 0.0192103 0
M  V30 5206 H 476.954 -4.11727 -1.01278 0
M  V30 5207 C 475.413 -2.85226 -1.79298 0
M  V30 5208 O 475.943 -2.78945 -2.89055 0
M  V30 5209 N 474.149 -2.42245 -1.60516 0
M  V30 5210 H 473.696 -2.47554 -0.712375 0
M  V30 5211 H 473.654 -2.04603 -2.38715 0
M  V30 5212 N 477.426 -0.562348 -1.47226 0
M  V30 5213 C 478.703 0.0256985 -1.95583 0
M  V30 5214 C 479.083 1.48032 -1.50498 0
M  V30 5215 O 478.431 2.15973 -0.746181 0
M  V30 5216 C 478.641 -0.125129 -3.48776 0
M  V30 5217 C 479.989 0.0175728 -4.24596 0
M  V30 5218 O 481.013 -0.0529341 -3.56161 0
M  V30 5219 O 479.872 0.170145 -5.46235 0
M  V30 5220 H 476.966 0.0612565 -0.824728 0
M  V30 5221 H 479.512 -0.629233 -1.57603 0
M  V30 5222 H 478.284 -1.13715 -3.74412 0
M  V30 5223 H 477.907 0.567178 -3.93534 0
M  V30 5224 N 478.904 1.54736 -0.299062 0
M  V30 5225 C 479.836 2.20891 0.61153 0
M  V30 5226 C 480.849 1.20104 1.09904 0
M  V30 5227 O 482.038 1.46707 1.01683 0
M  V30 5228 C 479.138 2.84018 1.84897 0
M  V30 5229 C 478.311 4.10719 1.50428 0
M  V30 5230 C 477.37 4.57667 2.59667 0
M  V30 5231 O 476.396 5.2291 2.24842 0
M  V30 5232 N 477.598 4.29821 3.90172 0
M  V30 5233 H 480.363 2.99666 0.0452001 0
M  V30 5234 H 477.924 1.61446 -0.121178 0
M  V30 5235 H 479.916 3.1236 2.5732 0
M  V30 5236 H 478.486 2.09095 2.32375 0
M  V30 5237 H 477.706 3.89408 0.612781 0
M  V30 5238 H 478.994 4.93223 1.24934 0
M  V30 5239 H 478.392 3.77549 4.21276 0
M  V30 5240 H 476.949 4.62877 4.58899 0
M  V30 5241 N 480.382 0.0267497 1.57577 0
M  V30 5242 C 481.61 -0.662661 1.96001 0
M  V30 5243 C 482.025 -1.65799 0.903117 0
M  V30 5244 O 481.382 -1.82135 -0.115317 0
M  V30 5245 C 481.433 -1.37112 3.34488 0
M  V30 5246 O 481.154 -0.415683 4.36123 0
M  V30 5247 C 482.655 -2.15257 3.8753 0
M  V30 5248 H 479.875 -0.18287 0.6456 0
M  V30 5249 H 482.419 0.0858116 2.0432 0
M  V30 5250 H 480.574 -2.07101 3.27395 0
M  V30 5251 H 480.988 -0.918496 5.16395 0
M  V30 5252 H 482.462 -2.60285 4.86781 0
M  V30 5253 H 482.939 -2.99063 3.21649 0
M  V30 5254 H 483.545 -1.50231 3.97883 0
M  V30 5255 N 481.861 -1.55662 -0.24637 0
M  V30 5256 C 482.791 -1.93377 -1.30873 0
M  V30 5257 C 483.772 -0.798773 -1.50179 0
M  V30 5258 O 484.957 -1.0591 -1.62778 0
M  V30 5259 C 482.087 -2.22893 -2.66338 0
M  V30 5260 C 481.041 -3.38649 -2.61727 0
M  V30 5261 C 480.367 -3.53708 -4.00992 0
M  V30 5262 C 481.667 -4.74323 -2.18666 0
M  V30 5263 H 483.361 -2.82363 -0.995552 0
M  V30 5264 H 480.907 -1.35854 -0.477464 0
M  V30 5265 H 482.86 -2.47866 -3.40794 0
M  V30 5266 H 481.584 -1.30733 -2.99293 0
M  V30 5267 H 480.243 -3.13685 -1.89729 0
M  V30 5268 H 479.891 -2.58967 -4.31214 0
M  V30 5269 H 479.591 -4.31551 -3.98795 0
M  V30 5270 H 481.115 -3.81003 -4.77147 0
M  V30 5271 H 482.529 -4.98665 -2.82854 0
M  V30 5272 H 480.926 -5.55273 -2.27579 0
M  V30 5273 H 481.996 -4.71349 -1.13834 0
M  V30 5274 N 483.339 0.512053 -1.4905 0
M  V30 5275 C 484.564 1.2959 -1.6193 0
M  V30 5276 C 484.989 1.85906 -0.286454 0
M  V30 5277 O 484.347 1.65312 0.744426 0
M  V30 5278 C 484.395 2.40987 -2.68249 0
M  V30 5279 O 483.499 3.44531 -2.26654 0
M  V30 5280 H 482.84 0.383053 -0.542371 0
M  V30 5281 H 485.37 0.614231 -1.95162 0
M  V30 5282 H 485.38 2.86913 -2.90078 0
M  V30 5283 H 484.055 1.99361 -3.65004 0
M  V30 5284 H 482.632 3.046 -2.15112 0
M  V30 5285 N 484.817 1.37938 0.762283 0
M  V30 5286 C 485.749 1.30349 1.88525 0
M  V30 5287 C 486.762 0.217402 1.61342 0
M  V30 5288 O 487.951 0.474291 1.72084 0
M  V30 5289 C 485.051 0.994844 3.23969 0
M  V30 5290 C 484.224 2.18829 3.78725 0
M  V30 5291 C 483.283 1.84844 4.92665 0
M  V30 5292 O 482.309 2.57244 5.07754 0
M  V30 5293 N 483.511 0.798201 5.74986 0
M  V30 5294 H 486.276 2.27114 1.95549 0
M  V30 5295 H 483.837 1.31686 0.941825 0
M  V30 5296 H 485.829 0.748168 3.97724 0
M  V30 5297 H 484.399 0.115446 3.12387 0
M  V30 5298 H 483.619 2.59615 2.96637 0
M  V30 5299 H 484.907 2.98497 4.1204 0
M  V30 5300 H 484.305 0.197611 5.65355 0
M  V30 5301 H 482.862 0.611396 6.48926 0
M  V30 5302 N 486.295 -0.989507 1.22664 0
M  V30 5303 C 487.706 -1.54406 1.04955 0
M  V30 5304 C 488.057 -1.92366 -0.385951 0
M  V30 5305 O 487.182 -1.75111 -1.27142 0
M  V30 5306 C 487.777 -2.80578 1.89899 0
M  V30 5307 C 486.336 -3.32464 1.76478 0
M  V30 5308 C 485.483 -2.05524 1.86159 0
M  V30 5309 H 488.434 -0.810211 1.3646 0
M  V30 5310 H 488.455 -3.53075 1.4184 0
M  V30 5311 H 487.967 -2.52918 2.94371 0
M  V30 5312 H 486.068 -3.65024 0.747528 0
M  V30 5313 H 486.181 -4.02838 2.59342 0
M  V30 5314 H 484.545 -2.19241 1.29636 0
M  V30 5315 H 485.328 -1.80258 2.92168 0
M  V30 5316 N 487.773 -1.03688 -1.18687 0
M  V30 5317 C 488.72 -0.624624 -2.22187 0
M  V30 5318 C 489.69 0.365636 -1.62026 0
M  V30 5319 O 490.875 0.260481 -1.89014 0
M  V30 5320 C 488.015 0.0101738 -3.45099 0
M  V30 5321 C 487.128 -1.02709 -4.19613 0
M  V30 5322 C 486.263 -0.361213 -5.2997 0
M  V30 5323 C 485.302 -1.38384 -5.96252 0
M  V30 5324 N 484.439 -0.743196 -6.98155 0
M  V30 5325 H 489.279 -1.51176 -2.56807 0
M  V30 5326 H 486.816 -0.75636 -1.26165 0
M  V30 5327 H 488.774 0.395528 -4.15321 0
M  V30 5328 H 487.404 0.860848 -3.1111 0
M  V30 5329 H 486.456 -1.53043 -3.48256 0
M  V30 5330 H 487.768 -1.80398 -4.65036 0
M  V30 5331 H 486.922 0.0785537 -6.06649 0
M  V30 5332 H 485.661 0.447799 -4.8564 0
M  V30 5333 H 484.666 -1.83378 -5.18317 0
M  V30 5334 H 485.891 -2.19448 -6.42666 0
M  V30 5335 H 483.837 0.0455789 -6.55984 0
M  V30 5336 H 483.754 -1.45784 -7.41811 0
M  V30 5337 H 485.022 -0.327698 -7.78811 0
M  V30 5338 N 489.251 1.34841 -0.815825 0
M  V30 5339 C 490.184 2.27504 -0.178062 0
M  V30 5340 C 491.162 1.48542 0.661373 0
M  V30 5341 O 492.346 1.77779 0.626653 0
M  V30 5342 C 489.473 3.30246 0.752002 0
M  V30 5343 C 488.519 4.26499 -0.00899172 0
M  V30 5344 S 489.352 5.18169 -1.35134 0
M  V30 5345 C 490.508 6.24449 -0.42596 0
M  V30 5346 H 490.741 2.81248 -0.963684 0
M  V30 5347 H 488.274 1.41781 -0.611355 0
M  V30 5348 H 490.232 3.89933 1.28308 0
M  V30 5349 H 488.893 2.75363 1.51109 0
M  V30 5350 H 488.086 4.99146 0.697766 0
M  V30 5351 H 487.688 3.7103 -0.470396 0
M  V30 5352 H 489.98 6.76404 0.385234 0
M  V30 5353 H 490.923 6.99156 -1.1219 0
M  V30 5354 H 491.331 5.64497 -0.0175461 0
M  V30 5355 N 490.729 0.570148 1.46925 0
M  V30 5356 C 492.006 -0.0153259 1.95594 0
M  V30 5357 C 492.386 -1.47232 1.51281 0
M  V30 5358 O 491.734 -2.15574 0.757624 0
M  V30 5359 C 491.944 0.143624 3.48704 0
M  V30 5360 C 493.292 0.00494484 4.246 0
M  V30 5361 O 494.316 0.0718214 3.56128 0
M  V30 5362 O 493.175 -0.141175 5.46318 0
M  V30 5363 H 490.269 -0.0568819 0.825041 0
M  V30 5364 H 492.815 0.637583 1.57267 0
M  V30 5365 H 491.587 1.15699 3.73804 0
M  V30 5366 H 491.21 -0.5463 3.93829 0
M  V30 5367 N 492.207 -1.54576 0.307264 0
M  V30 5368 C 493.117 -2.27435 -0.57536 0
M  V30 5369 C 494.133 -1.31183 -1.14311 0
M  V30 5370 O 495.309 -1.64175 -1.16656 0
M  V30 5371 C 492.374 -3.00566 -1.72803 0
M  V30 5372 C 491.435 -4.12369 -1.19373 0
M  V30 5373 C 490.668 -4.82003 -2.29147 0
M  V30 5374 O 490.891 -4.51038 -3.49171 0
M  V30 5375 O 489.825 -5.69271 -1.95485 0
M  V30 5376 H 493.651 -3.03696 0.0158558 0
M  V30 5377 H 491.236 -1.49219 0.0735064 0
M  V30 5378 H 493.118 -3.46416 -2.39946 0
M  V30 5379 H 491.793 -2.27195 -2.30574 0
M  V30 5380 H 490.7 -3.70905 -0.487851 0
M  V30 5381 H 492.033 -4.87736 -0.661376 0
M  V30 5382 N 493.685 -0.035106 -1.57561 0
M  V30 5383 C 494.617 0.973604 -2.07494 0
M  V30 5384 C 495.63 1.28504 -0.999534 0
M  V30 5385 O 496.819 1.24864 -1.27559 0
M  V30 5386 C 493.919 2.29945 -2.48955 0
M  V30 5387 C 493.092 2.1723 -3.79644 0
M  V30 5388 C 492.151 3.328 -4.07592 0
M  V30 5389 O 491.177 3.09418 -4.77754 0
M  V30 5390 N 492.379 4.56779 -3.58236 0
M  V30 5391 H 495.144 0.547525 -2.94656 0
M  V30 5392 H 492.705 0.151515 -1.61189 0
M  V30 5393 H 494.697 3.06097 -2.64739 0
M  V30 5394 H 493.267 2.64173 -1.67126 0
M  V30 5395 H 492.487 1.25768 -3.73599 0
M  V30 5396 H 493.775 2.05945 -4.65257 0
M  V30 5397 H 493.173 4.78668 -3.01485 0
M  V30 5398 H 491.73 5.30079 -3.79288 0
M  V30 5399 N 495.163 1.55791 0.238111 0
M  V30 5400 C 496.388 1.8244 0.986432 0
M  V30 5401 C 496.813 0.613314 1.7782 0
M  V30 5402 O 496.171 -0.437767 1.75935 0
M  V30 5403 C 496.219 3.06917 1.893 0
M  V30 5404 O 495.323 2.84449 2.98601 0
M  V30 5405 H 494.664 0.601975 0.280218 0
M  V30 5406 H 497.194 2.02987 0.256437 0
M  V30 5407 H 497.204 3.36583 2.30598 0
M  V30 5408 H 495.879 3.947 1.31091 0
M  V30 5409 H 494.456 2.65972 2.61368 0
M  V30 5410 N 496.642 -0.504142 1.49319 0
M  V30 5411 C 497.572 -1.61473 1.68667 0
M  V30 5412 C 498.553 -1.61455 0.535378 0
M  V30 5413 O 499.738 -1.78245 0.770868 0
M  V30 5414 C 496.868 -2.99971 1.75028 0
M  V30 5415 C 495.822 -3.14854 2.89916 0
M  V30 5416 C 495.148 -4.54671 2.81387 0
M  V30 5417 C 496.448 -2.95176 4.30893 0
M  V30 5418 H 498.142 -1.45535 2.61648 0
M  V30 5419 H 495.688 -0.698711 1.25913 0
M  V30 5420 H 497.641 -3.77562 1.8715 0
M  V30 5421 H 496.365 -3.1699 0.786441 0
M  V30 5422 H 495.024 -2.39687 2.77391 0
M  V30 5423 H 494.672 -4.68562 1.82917 0
M  V30 5424 H 494.372 -4.6557 3.58494 0
M  V30 5425 H 495.896 -5.34327 2.95512 0
M  V30 5426 H 497.31 -3.62538 4.44116 0
M  V30 5427 H 495.707 -3.17549 5.09198 0
M  V30 5428 H 496.777 -1.91332 4.45556 0
M  V30 5429 N 498.12 -1.38341 -0.754957 0
M  V30 5430 C 499.345 -1.37882 -1.5493 0
M  V30 5431 C 499.77 0.0296385 -1.88077 0
M  V30 5432 O 499.128 1.01133 -1.50472 0
M  V30 5433 C 499.176 -2.23996 -2.82592 0
M  V30 5434 O 498.28 -1.65612 -3.77686 0
M  V30 5435 H 497.621 -0.470384 -0.468652 0
M  V30 5436 H 500.151 -1.82084 -0.933082 0
M  V30 5437 H 500.161 -2.37806 -3.3153 0
M  V30 5438 H 498.836 -3.26365 -2.57796 0
M  V30 5439 H 497.413 -1.60936 -3.36384 0
M  V30 5440 N 499.598 0.982988 -1.23187 0
M  V30 5441 C 500.826 1.75921 -1.08901 0
M  V30 5442 C 501.241 1.85341 0.359719 0
M  V30 5443 O 500.598 1.33072 1.24892 0
M  V30 5444 C 500.649 3.18742 -1.70545 0
M  V30 5445 O 500.37 3.09814 -3.09753 0
M  V30 5446 C 501.871 4.1277 -1.61667 0
M  V30 5447 H 499.091 0.552166 -0.381252 0
M  V30 5448 H 501.635 1.23516 -1.62985 0
M  V30 5449 H 499.79 3.68182 -1.20501 0
M  V30 5450 H 500.204 3.99703 -3.39614 0
M  V30 5451 H 501.678 5.10697 -2.09506 0
M  V30 5452 H 502.155 4.3542 -0.575009 0
M  V30 5453 H 502.761 3.69232 -2.11064 0
M  V30 5454 N 501.076 1.04316 1.18135 0
M  V30 5455 C 502.316 0.756937 1.89868 0
M  V30 5456 C 502.68 -0.702609 1.78682 0
M  V30 5457 O 503.881 -1.10255 2.45148 0
M  V30 5458 C 502.152 1.21327 3.36176 0
M  V30 5459 S 503.711 1.05307 4.25976 0
M  V30 5460 H 500.529 0.275143 0.655604 0
M  V30 5461 H 503.131 1.33597 1.42731 0
M  V30 5462 H 501.835 2.27086 3.41848 0
M  V30 5463 H 501.366 0.628137 3.88353 0
M  V30 5464 H 503.381 -0.0280093 4.96192 0
M  V30 5465 N 502.554 -1.34406 0.822964 0
M  V30 5466 C 503.97 -1.51275 0.508727 0
M  V30 5467 C 504.17 -1.76776 -0.967083 0
M  V30 5468 O 503.226 -1.81871 -1.75155 0
M  V30 5469 C 504.539 -2.67765 1.36829 0
M  V30 5470 C 506.087 -2.81647 1.36542 0
M  V30 5471 C 506.562 -4.01181 2.20947 0
M  V30 5472 N 508.053 -4.08388 2.18571 0
M  V30 5473 C 508.788 -5.00036 2.80627 0
M  V30 5474 N 508.284 -5.96906 3.51674 0
M  V30 5475 N 510.077 -4.92908 2.70181 0
M  V30 5476 H 502.228 -1.16113 1.77852 0
M  V30 5477 H 504.491 -0.56947 0.757897 0
M  V30 5478 H 504.197 -2.55551 2.41633 0
M  V30 5479 H 504.071 -3.62779 1.03303 0
M  V30 5480 H 506.458 -2.93303 0.325163 0
M  V30 5481 H 506.539 -1.87443 1.74066 0
M  V30 5482 H 506.183 -3.90286 3.25022 0
M  V30 5483 H 506.113 -4.94599 1.80774 0
M  V30 5484 H 508.604 -3.39051 1.66891 0
M  V30 5485 H 508.917 -6.63468 3.96271 0
M  V30 5486 H 507.262 -5.9703 3.5578 0
M  V30 5487 H 510.453 -4.1619 2.14251 0
M  V30 5488 H 510.626 -5.64137 3.18831 0
M  V30 5489 N 504.032 -0.577932 -1.46621 0
M  V30 5490 C 505.448 -0.239242 -1.57797 0
M  V30 5491 C 505.648 1.25843 -1.57371 0
M  V30 5492 O 504.704 2.03988 -1.48813 0
M  V30 5493 C 506.017 -0.884227 -2.87405 0
M  V30 5494 C 507.565 -0.857373 -3.01028 0
M  V30 5495 C 508.04 -1.48181 -4.33366 0
M  V30 5496 N 509.531 -1.44593 -4.40053 0
M  V30 5497 C 510.266 -1.89852 -5.41058 0
M  V30 5498 N 509.762 -2.43062 -6.48762 0
M  V30 5499 N 511.555 -1.80797 -5.3223 0
M  V30 5500 H 503.706 -1.55073 -1.45142 0
M  V30 5501 H 505.969 -0.647903 -0.692044 0
M  V30 5502 H 505.675 -1.93759 -2.93514 0
M  V30 5503 H 505.549 -0.389585 -3.75183 0
M  V30 5504 H 507.936 0.187357 -2.94505 0
M  V30 5505 H 508.017 -1.38999 -2.14739 0
M  V30 5506 H 507.661 -2.52572 -4.40647 0
M  V30 5507 H 507.591 -0.924464 -5.18422 0
M  V30 5508 H 510.082 -1.05694 -3.62819 0
M  V30 5509 H 510.395 -2.75466 -7.22038 0
M  V30 5510 H 508.74 -2.47085 -6.49595 0
M  V30 5511 H 511.931 -1.38989 -4.46989 0
M  V30 5512 H 512.104 -2.16385 -6.10804 0
M  V30 5513 N 505.51 1.54411 -0.315457 0
M  V30 5514 C 506.759 1.99599 0.290395 0
M  V30 5515 C 507.072 1.20746 1.53882 0
M  V30 5516 O 508.278 1.56272 2.22017 0
M  V30 5517 C 506.734 3.5539 0.56797 0
M  V30 5518 C 506.342 4.43068 -0.662945 0
M  V30 5519 C 508.086 4.09067 1.13422 0
M  V30 5520 C 505.993 5.90317 -0.357722 0
M  V30 5521 H 504.923 0.745592 0.112286 0
M  V30 5522 H 507.574 1.78477 -0.426418 0
M  V30 5523 H 505.956 3.72468 1.34476 0
M  V30 5524 H 507.13 4.37765 -1.43869 0
M  V30 5525 H 505.445 4.00238 -1.14884 0
M  V30 5526 H 508.042 5.16663 1.37707 0
M  V30 5527 H 508.385 3.60552 2.08106 0
M  V30 5528 H 508.918 3.95589 0.418805 0
M  V30 5529 H 505.657 6.4301 -1.27351 0
M  V30 5530 H 505.177 5.98592 0.380472 0
M  V30 5531 H 506.856 6.4699 0.0354284 0
M  V30 5532 N 506.988 0.0434614 1.5754 0
M  V30 5533 C 508.213 -0.645358 1.97104 0
M  V30 5534 C 508.638 -1.64037 0.920521 0
M  V30 5535 O 507.996 -1.80922 -0.11708 0
M  V30 5536 C 508.044 -1.31547 3.35749 0
M  V30 5537 O 507.148 -2.43103 3.33129 0
M  V30 5538 H 506.489 -0.168403 0.64229 0
M  V30 5539 H 509.019 0.109573 2.04306 0
M  V30 5540 H 509.029 -1.66895 3.72304 0
M  V30 5541 H 507.704 -0.586205 4.11748 0
M  V30 5542 H 506.281 -2.0976 3.0831 0
M  V30 5543 N 508.466 -1.55915 -0.229846 0
M  V30 5544 C 509.376 -1.94891 -1.30593 0
M  V30 5545 C 510.392 -0.851604 -1.51736 0
M  V30 5546 O 511.568 -1.15447 -1.65027 0
M  V30 5547 C 508.633 -2.25052 -2.63728 0
M  V30 5548 C 507.694 -3.48306 -2.5096 0
M  V30 5549 C 506.927 -3.77019 -3.77747 0
M  V30 5550 O 507.15 -3.07534 -4.80395 0
M  V30 5551 O 506.084 -4.70523 -3.75356 0
M  V30 5552 H 509.91 -2.86581 -1.00525 0
M  V30 5553 H 507.495 -1.43017 -0.432025 0
M  V30 5554 H 509.377 -2.45682 -3.42372 0
M  V30 5555 H 508.052 -1.36538 -2.93495 0
M  V30 5556 H 506.959 -3.32964 -1.70546 0
M  V30 5557 H 508.292 -4.37177 -2.26136 0
M  V30 5558 N 509.944 0.496216 -1.49584 0
M  V30 5559 C 511.172 1.27394 -1.63029 0
M  V30 5560 C 511.587 1.86344 -0.303569 0
M  V30 5561 O 510.944 1.68057 0.711547 0
M  V30 5562 C 510.995 2.40077 -2.70269 0
M  V30 5563 O 510.716 1.83549 -3.97796 0
M  V30 5564 C 512.217 3.31372 -2.94462 0
M  V30 5565 H 509.437 0.386211 -0.54871 0
M  V30 5566 H 511.981 0.595163 -1.95648 0
M  V30 5567 H 510.136 3.03775 -2.40415 0
M  V30 5568 H 510.55 2.57561 -4.56905 0
M  V30 5569 H 512.024 4.06707 -3.73221 0
M  V30 5570 H 512.501 3.88654 -2.0456 0
M  V30 5571 H 513.107 2.73435 -3.25751 0
M  V30 5572 N 511.423 1.38739 0.74761 0
M  V30 5573 C 512.648 1.38702 1.54197 0
M  V30 5574 C 513.073 -0.019664 1.8809 0
M  V30 5575 O 512.431 -1.00333 1.51006 0
M  V30 5576 C 512.479 2.25492 2.814 0
M  V30 5577 O 511.583 1.67613 3.76802 0
M  V30 5578 H 510.924 0.472863 0.466151 0
M  V30 5579 H 513.454 1.82577 0.923413 0
M  V30 5580 H 513.464 2.39561 3.30264 0
M  V30 5581 H 512.139 3.27727 2.56062 0
M  V30 5582 H 510.716 1.62718 3.35526 0
M  V30 5583 N 512.901 -0.976442 1.23707 0
M  V30 5584 C 513.811 -2.10359 1.03856 0
M  V30 5585 C 514.827 -1.73991 -0.0180919 0
M  V30 5586 O 516.003 -2.0061 0.178211 0
M  V30 5587 C 513.068 -3.40809 0.636387 0
M  V30 5588 C 512.129 -3.91179 1.76854 0
M  V30 5589 C 511.362 -5.15404 1.38546 0
M  V30 5590 O 511.585 -5.69754 0.27142 0
M  V30 5591 O 510.519 -5.5994 2.20797 0
M  V30 5592 H 514.345 -2.29997 1.98331 0
M  V30 5593 H 511.93 -1.08742 1.02448 0
M  V30 5594 H 513.812 -4.19269 0.423223 0
M  V30 5595 H 512.487 -3.22493 -0.279322 0
M  V30 5596 H 511.394 -3.13819 2.03638 0
M  V30 5597 H 512.727 -4.13958 2.6627 0
M  V30 5598 N 514.379 -1.04941 -1.1758 0
M  V30 5599 C 515.656 -0.671918 -1.83697 0
M  V30 5600 C 516.036 0.847929 -1.93322 0
M  V30 5601 O 515.384 1.75287 -1.46583 0
M  V30 5602 C 515.594 -1.35797 -3.21497 0
M  V30 5603 C 516.942 -1.4944 -3.97433 0
M  V30 5604 O 517.966 -1.31678 -3.30967 0
M  V30 5605 O 516.825 -1.78463 -5.1654 0
M  V30 5606 H 513.919 -0.236212 -0.792548 0
M  V30 5607 H 516.465 -1.14884 -1.24899 0
M  V30 5608 H 515.237 -2.39498 -3.09446 0
M  V30 5609 H 514.86 -0.870236 -3.8796 0
M  V30 5610 N 515.857 1.33968 -0.830081 0
M  V30 5611 C 516.789 2.28194 -0.21448 0
M  V30 5612 C 517.802 1.5135 0.599752 0
M  V30 5613 O 518.991 1.73286 0.42826 0
M  V30 5614 C 516.091 3.31221 0.717356 0
M  V30 5615 C 515.264 4.37365 -0.055613 0
M  V30 5616 C 514.323 5.2011 0.798231 0
M  V30 5617 O 513.349 5.68691 0.240616 0
M  V30 5618 N 514.551 5.40523 2.11695 0
M  V30 5619 H 517.316 2.81662 -1.02405 0
M  V30 5620 H 514.877 1.46568 -0.687713 0
M  V30 5621 H 516.869 3.83477 1.29334 0
M  V30 5622 H 515.439 2.78095 1.42765 0
M  V30 5623 H 514.659 3.85727 -0.812936 0
M  V30 5624 H 515.947 5.05397 -0.587444 0
M  V30 5625 H 515.345 5.0274 2.59363 0
M  V30 5626 H 513.902 5.95871 2.64162 0
M  V30 5627 N 517.335 0.585699 1.46312 0
M  V30 5628 C 518.563 0.0781299 2.06752 0
M  V30 5629 C 518.978 -1.22812 1.43396 0
M  V30 5630 O 518.335 -1.74318 0.540314 0
M  V30 5631 C 518.386 -0.0911927 3.61385 0
M  V30 5632 O 518.107 1.16336 4.22371 0
M  V30 5633 C 519.608 -0.632765 4.38761 0
M  V30 5634 H 516.828 0.0588188 0.668417 0
M  V30 5635 H 519.372 0.807218 1.87894 0
M  V30 5636 H 517.527 -0.770514 3.7966 0
M  V30 5637 H 517.941 0.979082 5.15281 0
M  V30 5638 H 519.415 -0.70041 5.47538 0
M  V30 5639 H 519.892 -1.65039 4.07012 0
M  V30 5640 H 520.498 0.0117856 4.25298 0
M  V30 5641 N 518.813 -1.54241 0.323641 0
M  V30 5642 C 519.743 -2.27289 -0.534993 0
M  V30 5643 C 520.724 -1.28087 -1.11927 0
M  V30 5644 O 521.909 -1.56899 -1.14439 0
M  V30 5645 C 519.039 -3.03075 -1.69596 0
M  V30 5646 C 517.993 -4.09614 -1.24098 0
M  V30 5647 C 517.319 -4.73242 -2.4889 0
M  V30 5648 C 518.619 -5.21087 -0.355789 0
M  V30 5649 H 520.313 -2.99308 0.0743257 0
M  V30 5650 H 517.859 -1.43952 0.0371874 0
M  V30 5651 H 519.812 -3.52907 -2.30293 0
M  V30 5652 H 518.536 -2.28673 -2.33187 0
M  V30 5653 H 517.195 -3.60666 -0.656945 0
M  V30 5654 H 516.843 -3.95455 -3.10845 0
M  V30 5655 H 516.543 -5.45209 -2.19138 0
M  V30 5656 H 518.067 -5.25848 -3.10348 0
M  V30 5657 H 519.481 -5.66675 -0.869042 0
M  V30 5658 H 517.878 -5.9991 -0.151045 0
M  V30 5659 H 518.948 -4.81005 0.613339 0
M  V30 5660 N 520.291 -0.0518155 -1.57515 0
M  V30 5661 C 521.537 0.622745 -1.93002 0
M  V30 5662 C 521.87 1.70456 -0.930499 0
M  V30 5663 O 521.145 1.94452 0.0434086 0
M  V30 5664 C 521.428 1.21824 -3.38867 0
M  V30 5665 C 521.281 0.144434 -4.49568 0
M  V30 5666 C 522.6 2.12968 -3.8514 0
M  V30 5667 H 519.719 0.22491 -0.701844 0
M  V30 5668 H 522.361 -0.113711 -1.89659 0
M  V30 5669 H 520.511 1.8459 -3.41846 0
M  V30 5670 H 522.183 -0.48753 -4.58717 0
M  V30 5671 H 520.426 -0.527424 -4.30582 0
M  V30 5672 H 521.097 0.601127 -5.48717 0
M  V30 5673 H 523.573 1.60163 -3.8404 0
M  V30 5674 H 522.449 2.51578 -4.87852 0
M  V30 5675 H 522.71 3.03004 -3.21934 0
M  V30 5676 N 521.769 1.56035 0.221574 0
M  V30 5677 C 523.046 1.69837 0.970301 0
M  V30 5678 C 523.426 0.599065 2.02421 0
M  V30 5679 O 522.774 -0.393929 2.25079 0
M  V30 5680 C 522.984 3.11148 1.58076 0
M  V30 5681 C 524.332 3.70555 2.07302 0
M  V30 5682 O 525.356 3.14109 1.6797 0
M  V30 5683 O 524.215 4.69562 2.79596 0
M  V30 5684 H 521.309 0.691727 0.453257 0
M  V30 5685 H 523.855 1.68353 0.213358 0
M  V30 5686 H 522.627 3.82617 0.819759 0
M  V30 5687 H 522.25 3.16749 2.40324 0
M  V30 5688 N 523.247 -0.488276 1.49845 0
M  V30 5689 C 524.663 -0.820566 1.3689 0
M  V30 5690 C 524.863 -1.97248 0.411752 0
M  V30 5691 O 523.919 -2.52042 -0.151931 0
M  V30 5692 C 525.232 -1.1488 2.77891 0
M  V30 5693 C 526.78 -1.25626 2.86683 0
M  V30 5694 C 527.255 -1.61772 4.28479 0
M  V30 5695 N 528.746 -1.68797 4.31349 0
M  V30 5696 C 529.481 -1.98235 5.38043 0
M  V30 5697 N 528.977 -2.2581 6.54967 0
M  V30 5698 N 530.77 -1.99593 5.2547 0
M  V30 5699 H 522.921 0.271123 2.10662 0
M  V30 5700 H 525.184 0.058735 0.946179 0
M  V30 5701 H 524.89 -0.375614 3.49688 0
M  V30 5702 H 524.764 -2.08919 3.14058 0
M  V30 5703 H 527.151 -2.02014 2.15114 0
M  V30 5704 H 527.232 -0.296072 2.54081 0
M  V30 5705 H 526.876 -0.859295 5.00578 0
M  V30 5706 H 526.806 -2.58912 4.58554 0
M  V30 5707 H 529.297 -1.49595 3.4703 0
M  V30 5708 H 529.61 -2.47497 7.32096 0
M  V30 5709 H 527.955 -2.23239 6.58171 0
M  V30 5710 H 531.146 -1.77535 4.33127 0
M  V30 5711 H 531.319 -2.222 6.08713 0
M  V30 5712 N 524.725 -1.39134 -0.740242 0
M  V30 5713 C 525.657 -1.33332 -1.86428 0
M  V30 5714 C 526.67 -0.243042 -1.60976 0
M  V30 5715 O 527.859 -0.501608 -1.71307 0
M  V30 5716 C 524.959 -1.04626 -3.22346 0
M  V30 5717 C 524.132 -2.24826 -3.75196 0
M  V30 5718 C 523.191 -1.92659 -4.89662 0
M  V30 5719 O 522.217 -2.6529 -5.03597 0
M  V30 5720 N 523.419 -0.889575 -5.73643 0
M  V30 5721 H 526.184 -2.30196 -1.91911 0
M  V30 5722 H 523.745 -1.33168 -0.920756 0
M  V30 5723 H 525.737 -0.811347 -3.96484 0
M  V30 5724 H 524.307 -0.165129 -3.12164 0
M  V30 5725 H 523.527 -2.64301 -2.9247 0
M  V30 5726 H 524.815 -3.05015 -4.07239 0
M  V30 5727 H 524.213 -0.287529 -5.64969 0
M  V30 5728 H 522.77 -0.714557 -6.47871 0
M  V30 5729 N 526.204 0.969867 -1.24223 0
M  V30 5730 C 527.429 1.75289 -1.10853 0
M  V30 5731 C 527.854 1.85091 0.335079 0
M  V30 5732 O 527.212 1.32024 1.24255 0
M  V30 5733 C 527.26 3.15255 -1.75062 0
M  V30 5734 O 526.364 3.99589 -1.01992 0
M  V30 5735 H 525.705 0.538904 -0.387915 0
M  V30 5736 H 528.235 1.21675 -1.64488 0
M  V30 5737 H 528.245 3.65787 -1.80731 0
M  V30 5738 H 526.92 3.07436 -2.801 0
M  V30 5739 H 525.497 3.58077 -1.04094 0
M  V30 5740 N 527.682 1.05563 1.17022 0
M  V30 5741 C 528.929 0.767937 1.87374 0
M  V30 5742 C 529.257 -0.705224 1.81265 0
M  V30 5743 O 528.512 -1.5318 1.21796 0
M  V30 5744 C 528.811 1.19849 3.36706 0
M  V30 5745 C 528.477 2.6745 3.63017 0
M  V30 5746 C 527.139 3.0777 3.69907 0
M  V30 5747 C 529.491 3.62811 3.74189 0
M  V30 5748 C 526.819 4.42307 3.85463 0
M  V30 5749 C 529.171 4.97087 3.91264 0
M  V30 5750 C 527.835 5.37055 3.96394 0
M  V30 5751 H 527.105 0.281008 0.68565 0
M  V30 5752 H 529.752 1.32339 1.38415 0
M  V30 5753 H 528.057 0.562096 3.87747 0
M  V30 5754 H 529.754 0.953038 3.8951 0
M  V30 5755 H 526.344 2.35228 3.58282 0
M  V30 5756 H 530.528 3.32798 3.68183 0
M  V30 5757 H 525.784 4.72769 3.87684 0
M  V30 5758 H 529.958 5.70869 3.9885 0
M  V30 5759 H 527.585 6.41308 4.082 0
M  V30 5760 N 529.16 -1.33526 0.837174 0
M  V30 5761 C 530.385 -2.0258 0.444545 0
M  V30 5762 C 530.81 -1.6258 -0.946006 0
M  V30 5763 O 530.168 -0.817548 -1.6182 0
M  V30 5764 C 530.216 -3.5605 0.571006 0
M  V30 5765 O 529.32 -4.10422 -0.403431 0
M  V30 5766 H 528.661 -0.638866 0.180958 0
M  V30 5767 H 531.191 -1.70462 1.13154 0
M  V30 5768 H 531.201 -4.05488 0.452024 0
M  V30 5769 H 529.876 -3.84509 1.58512 0
M  V30 5770 H 528.453 -3.72113 -0.242147 0
M  V30 5771 N 530.638 -0.59345 -1.46 0
M  V30 5772 C 532.054 -0.255965 -1.57534 0
M  V30 5773 C 532.254 1.24167 -1.58697 0
M  V30 5774 O 531.31 2.02398 -1.50968 0
M  V30 5775 C 532.623 -0.91466 -2.86451 0
M  V30 5776 C 534.171 -0.889253 -3.00102 0
M  V30 5777 C 534.646 -1.52769 -4.3177 0
M  V30 5778 N 536.137 -1.49253 -4.38495 0
M  V30 5779 C 536.872 -1.9558 -5.39014 0
M  V30 5780 N 536.368 -2.49929 -6.46148 0
M  V30 5781 N 538.161 -1.86432 -5.30282 0
M  V30 5782 H 530.312 -1.56604 -1.43489 0
M  V30 5783 H 532.575 -0.655207 -0.685133 0
M  V30 5784 H 532.281 -1.96861 -2.91442 0
M  V30 5785 H 532.155 -0.429356 -3.74748 0
M  V30 5786 H 534.542 0.156111 -2.94687 0
M  V30 5787 H 534.623 -1.41268 -2.13253 0
M  V30 5788 H 534.267 -2.57231 -4.37944 0
M  V30 5789 H 534.197 -0.979398 -5.17412 0
M  V30 5790 H 536.688 -1.09536 -3.61677 0
M  V30 5791 H 537.001 -2.83109 -7.19075 0
M  V30 5792 H 535.346 -2.53961 -6.46938 0
M  V30 5793 H 538.537 -1.43722 -4.4549 0
M  V30 5794 H 538.71 -2.22852 -6.08474 0
M  V30 5795 N 532.116 1.54067 -0.331816 0
M  V30 5796 C 533.344 2.05131 0.269996 0
M  V30 5797 C 533.759 1.20749 1.45138 0
M  V30 5798 O 533.116 0.240069 1.80914 0
M  V30 5799 C 533.167 3.54728 0.696456 0
M  V30 5800 O 532.888 4.35906 -0.43794 0
M  V30 5801 C 534.389 4.21916 1.36021 0
M  V30 5802 H 531.609 0.668807 0.0542042 0
M  V30 5803 H 534.153 1.98777 -0.4804 0
M  V30 5804 H 532.308 3.61342 1.39681 0
M  V30 5805 H 532.722 5.24404 -0.100334 0
M  V30 5806 H 534.196 5.28015 1.60947 0
M  V30 5807 H 534.673 3.73538 2.31011 0
M  V30 5808 H 535.279 4.19463 0.702212 0
M  V30 5809 N 533.594 0.0601682 1.57485 0
M  V30 5810 C 534.822 -0.620937 1.97363 0
M  V30 5811 C 535.237 -1.63846 0.938082 0
M  V30 5812 O 534.594 -1.82339 -0.0766578 0
M  V30 5813 C 534.645 -1.29987 3.37321 0
M  V30 5814 O 534.366 -0.323081 4.36907 0
M  V30 5815 C 535.867 -2.06989 3.92008 0
M  V30 5816 H 533.087 -0.169135 0.649334 0
M  V30 5817 H 535.631 0.129132 2.04092 0
M  V30 5818 H 533.786 -2.0011 3.31715 0
M  V30 5819 H 534.2 -0.808754 5.18227 0
M  V30 5820 H 535.674 -2.49901 4.92192 0
M  V30 5821 H 536.151 -2.92173 3.2792 0
M  V30 5822 H 536.757 -1.41757 4.0098 0
M  V30 5823 N 535.072 -1.5615 -0.213296 0
M  V30 5824 C 536.349 -1.70349 -0.961281 0
M  V30 5825 C 536.729 -0.609791 -2.02101 0
M  V30 5826 O 536.077 0.381987 -2.25285 0
M  V30 5827 C 536.287 -3.11982 -1.56424 0
M  V30 5828 C 537.635 -3.71649 -2.05334 0
M  V30 5829 O 538.659 -3.14995 -1.66302 0
M  V30 5830 O 537.518 -4.71038 -2.77102 0
M  V30 5831 H 534.612 -0.694121 -0.449582 0
M  V30 5832 H 537.158 -1.68464 -0.204426 0
M  V30 5833 H 535.93 -3.83046 -0.799457 0
M  V30 5834 H 535.553 -3.18019 -2.38641 0
M  V30 5835 N 536.55 0.480323 -1.50102 0
M  V30 5836 C 537.775 1.26126 -1.64642 0
M  V30 5837 C 538.2 1.85257 -0.325823 0
M  V30 5838 O 537.558 1.66854 0.709194 0
M  V30 5839 C 537.606 2.35243 -2.73301 0
M  V30 5840 O 536.71 3.39646 -2.33911 0
M  V30 5841 H 536.051 0.371463 -0.550374 0
M  V30 5842 H 538.581 0.572696 -1.96421 0
M  V30 5843 H 538.591 2.80695 -2.96098 0
M  V30 5844 H 537.266 1.91574 -3.6915 0
M  V30 5845 H 535.843 2.99969 -2.21525 0
M  V30 5846 N 538.028 1.39524 0.732853 0
M  V30 5847 C 539.305 1.27373 1.48444 0
M  V30 5848 C 539.685 -0.115725 2.10783 0
M  V30 5849 O 539.033 -1.12713 1.98766 0
M  V30 5850 C 539.243 2.39966 2.53412 0
M  V30 5851 C 540.591 2.79384 3.19733 0
M  V30 5852 O 541.615 2.39431 2.63725 0
M  V30 5853 O 540.474 3.48353 4.21085 0
M  V30 5854 H 537.568 0.499272 0.659285 0
M  V30 5855 H 540.114 1.51403 0.766496 0
M  V30 5856 H 538.886 3.32845 2.05742 0
M  V30 5857 H 538.509 2.17612 3.32762 0
M  V30 5858 N 539.506 -0.963266 1.24736 0
M  V30 5859 C 540.734 -1.74166 1.11686 0
M  V30 5860 C 541.149 -1.8589 -0.330187 0
M  V30 5861 O 540.506 -1.35042 -1.2276 0
M  V30 5862 C 540.557 -3.15989 1.75595 0
M  V30 5863 O 540.278 -3.04847 3.14642 0
M  V30 5864 C 541.779 -4.10145 1.68213 0
M  V30 5865 H 538.999 -0.546031 0.389989 0
M  V30 5866 H 541.543 -1.20907 1.64929 0
M  V30 5867 H 539.698 -3.66219 1.26343 0
M  V30 5868 H 540.112 -3.9425 3.4593 0
M  V30 5869 H 541.586 -5.07299 2.17604 0
M  V30 5870 H 542.063 -4.3445 0.644208 0
M  V30 5871 H 542.669 -3.65827 2.16912 0
M  V30 5872 N 540.985 -1.06182 -1.16461 0
M  V30 5873 C 542.21 -0.798599 -1.91408 0
M  V30 5874 C 542.635 0.640987 -1.76842 0
M  V30 5875 O 541.993 1.44652 -1.09296 0
M  V30 5876 C 542.041 -1.19665 -3.40165 0
M  V30 5877 O 541.145 -0.334768 -4.11039 0
M  V30 5878 H 540.486 -0.291961 -0.596368 0
M  V30 5879 H 543.016 -1.41732 -1.47557 0
M  V30 5880 H 543.026 -1.16772 -3.90933 0
M  V30 5881 H 541.701 -2.24526 -3.50087 0
M  V30 5882 H 540.278 -0.425168 -3.70468 0
M  V30 5883 N 542.463 1.3308 -0.844243 0
M  V30 5884 C 543.712 1.96868 -0.438833 0
M  V30 5885 C 544.025 1.67599 1.00846 0
M  V30 5886 O 545.231 2.25043 1.51881 0
M  V30 5887 C 543.687 3.5234 -0.73377 0
M  V30 5888 C 543.295 3.90481 -2.1961 0
M  V30 5889 C 545.039 4.22653 -0.395574 0
M  V30 5890 C 542.946 5.38954 -2.43481 0
M  V30 5891 H 541.876 0.736749 -0.160364 0
M  V30 5892 H 544.527 1.51623 -1.03358 0
M  V30 5893 H 542.909 3.95941 -0.068589 0
M  V30 5894 H 544.083 3.57922 -2.90221 0
M  V30 5895 H 542.398 3.33165 -2.4978 0
M  V30 5896 H 544.995 5.31848 -0.551477 0
M  V30 5897 H 545.338 4.11004 0.661921 0
M  V30 5898 H 545.871 3.84601 -1.01621 0
M  V30 5899 H 542.61 5.55612 -3.47816 0
M  V30 5900 H 542.13 5.72954 -1.77437 0
M  V30 5901 H 543.809 6.05907 -2.26905 0
M  V30 5902 N 543.941 0.601185 1.45683 0
M  V30 5903 C 544.851 -0.123395 2.34275 0
M  V30 5904 C 545.867 -0.86702 1.5086 0
M  V30 5905 O 547.043 -0.826049 1.8368 0
M  V30 5906 C 544.108 -1.11237 3.2837 0
M  V30 5907 C 543.169 -0.371405 4.2769 0
M  V30 5908 C 542.402 -1.31327 5.1729 0
M  V30 5909 O 542.625 -2.55078 5.10188 0
M  V30 5910 O 541.559 -0.813811 5.96373 0
M  V30 5911 H 545.385 0.604483 2.97623 0
M  V30 5912 H 542.97 0.361477 1.44961 0
M  V30 5913 H 544.852 -1.68214 3.8637 0
M  V30 5914 H 543.527 -1.82139 2.67595 0
M  V30 5915 H 542.434 0.24067 3.73325 0
M  V30 5916 H 543.767 0.296998 4.91303 0
M  V30 5917 N 545.419 -1.53889 0.339982 0
M  V30 5918 C 546.83 -1.86139 -0.144671 0
M  V30 5919 C 547.181 -1.2613 -1.50285 0
M  V30 5920 O 546.306 -0.573515 -2.08662 0
M  V30 5921 C 546.901 -3.37728 -0.269285 0
M  V30 5922 C 545.46 -3.69868 -0.698168 0
M  V30 5923 C 544.607 -2.76777 0.170249 0
M  V30 5924 H 547.558 -1.48503 0.559704 0
M  V30 5925 H 547.579 -3.64331 -1.0974 0
M  V30 5926 H 547.091 -3.81375 0.719366 0
M  V30 5927 H 545.192 -3.31764 -1.69597 0
M  V30 5928 H 545.305 -4.76582 -0.490533 0
M  V30 5929 H 543.669 -2.52188 -0.356844 0
M  V30 5930 H 544.452 -3.23253 1.15597 0
M  V30 5931 N 546.897 -0.0685191 -1.57451 0
M  V30 5932 C 548.145 0.60016 -1.92983 0
M  V30 5933 C 548.466 1.70348 -0.949028 0
M  V30 5934 O 547.736 1.959 0.00335647 0
M  V30 5935 H 546.316 0.224682 -0.712409 0
M  V30 5936 H 548.978 -0.125605 -1.94495 0
M  V30 5937 H 548.074 1.02759 -2.94698 0
M  V30 5938 N 548.375 1.56261 0.205012 0
M  V30 5939 C 549.305 1.96779 1.257 0
M  V30 5940 C 550.286 0.838309 1.48008 0
M  V30 5941 O 551.471 1.10189 1.59913 0
M  V30 5942 C 548.601 2.29876 2.60335 0
M  V30 5943 C 547.555 3.45469 2.52656 0
M  V30 5944 C 546.881 3.64215 3.91473 0
M  V30 5945 C 548.181 4.79954 2.06014 0
M  V30 5946 H 549.875 2.84904 0.920338 0
M  V30 5947 H 547.421 1.37072 0.441277 0
M  V30 5948 H 549.374 2.56814 3.34102 0
M  V30 5949 H 548.098 1.38622 2.95722 0
M  V30 5950 H 546.757 3.18605 1.81345 0
M  V30 5951 H 546.405 2.70309 4.24196 0
M  V30 5952 H 546.105 4.41973 3.87213 0
M  V30 5953 H 547.629 3.93519 4.66878 0
M  V30 5954 H 549.043 5.05989 2.69533 0
M  V30 5955 H 547.44 5.61111 2.12777 0
M  V30 5956 H 548.51 4.74201 1.01297 0
M  V30 5957 N 549.853 -0.472356 1.50355 0
M  V30 5958 C 551.101 -1.22211 1.60962 0
M  V30 5959 C 551.422 -1.92497 0.311439 0
M  V30 5960 O 550.692 -1.8405 -0.671002 0
M  V30 5961 H 549.272 -0.454092 0.593135 0
M  V30 5962 H 551.934 -0.544977 1.87126 0
M  V30 5963 H 551.03 -1.9707 2.42012 0
M  V30 5964 N 551.331 -1.39911 -0.725443 0
M  V30 5965 C 552.278 -1.39393 -1.83952 0
M  V30 5966 C 553.248 -0.252249 -1.64173 0
M  V30 5967 O 554.433 -0.44882 -1.85446 0
M  V30 5968 C 551.573 -1.25262 -3.21564 0
M  V30 5969 C 550.686 -2.49054 -3.52982 0
M  V30 5970 C 549.821 -2.27439 -4.80047 0
M  V30 5971 C 548.86 -3.46857 -5.04338 0
M  V30 5972 N 547.997 -3.24499 -6.22611 0
M  V30 5973 H 552.837 -2.34622 -1.83729 0
M  V30 5974 H 550.374 -1.16537 -0.897636 0
M  V30 5975 H 552.332 -1.15077 -4.01015 0
M  V30 5976 H 550.962 -0.33657 -3.21041 0
M  V30 5977 H 550.014 -2.69805 -2.6816 0
M  V30 5978 H 551.326 -3.37973 -3.66846 0
M  V30 5979 H 550.48 -2.14551 -5.67497 0
M  V30 5980 H 549.219 -1.35929 -4.68374 0
M  V30 5981 H 548.224 -3.60232 -4.15346 0
M  V30 5982 H 549.449 -4.3928 -5.17889 0
M  V30 5983 H 547.395 -2.35663 -6.12208 0
M  V30 5984 H 547.312 -4.06978 -6.37106 0
M  V30 5985 H 548.58 -3.15325 -7.12875 0
M  V30 5986 N 552.809 0.956637 -1.25245 0
M  V30 5987 C 554.055 1.70352 -1.10036 0
M  V30 5988 C 554.388 1.90869 0.358156 0
M  V30 5989 O 553.663 1.47819 1.26411 0
M  V30 5990 C 553.946 3.08766 -1.85298 0
M  V30 5991 C 553.799 2.95672 -3.38966 0
M  V30 5992 C 555.118 4.08622 -1.63451 0
M  V30 5993 H 552.237 0.618279 -0.401123 0
M  V30 5994 H 554.879 1.11212 -1.54051 0
M  V30 5995 H 553.029 3.59252 -1.47887 0
M  V30 5996 H 554.701 2.52527 -3.86041 0
M  V30 5997 H 552.944 2.31634 -3.6678 0
M  V30 5998 H 553.615 3.93776 -3.86839 0
M  V30 5999 H 556.091 3.67038 -1.96015 0
M  V30 6000 H 554.967 5.03514 -2.18551 0
M  V30 6001 H 555.228 4.3834 -0.575357 0
M  V30 6002 N 554.287 1.06798 1.15896 0
M  V30 6003 C 555.234 0.683314 2.20453 0
M  V30 6004 C 556.204 -0.32255 1.62938 0
M  V30 6005 O 557.389 -0.210276 1.89638 0
M  V30 6006 C 554.529 0.0813266 3.45004 0
M  V30 6007 C 553.642 1.13799 4.16742 0
M  V30 6008 C 552.777 0.501598 5.28826 0
M  V30 6009 C 551.816 1.54144 5.92373 0
M  V30 6010 N 550.953 0.928038 6.9594 0
M  V30 6011 H 555.793 1.57932 2.52708 0
M  V30 6012 H 553.33 0.789544 1.24115 0
M  V30 6013 H 555.288 -0.285274 4.16224 0
M  V30 6014 H 553.918 -0.77806 3.13283 0
M  V30 6015 H 552.97 1.62223 3.44075 0
M  V30 6016 H 554.282 1.92664 4.60089 0
M  V30 6017 H 553.436 0.0823162 6.06644 0
M  V30 6018 H 552.175 -0.318883 4.86656 0
M  V30 6019 H 551.18 1.97056 5.13273 0
M  V30 6020 H 552.405 2.3641 6.36621 0
M  V30 6021 H 550.351 0.12836 6.55874 0
M  V30 6022 H 550.268 1.65401 7.37685 0
M  V30 6023 H 551.536 0.534071 7.77668 0
M  V30 6024 N 555.766 -1.3263 0.851289 0
M  V30 6025 C 556.729 -2.27247 0.298541 0
M  V30 6026 C 557.729 -1.51467 -0.539847 0
M  V30 6027 O 558.919 -1.7061 -0.351843 0
M  V30 6028 C 556.051 -3.35964 -0.578004 0
M  V30 6029 H 557.244 -2.7765 1.13359 0
M  V30 6030 H 554.797 -1.43245 0.625354 0
M  V30 6031 H 555.532 -2.90823 -1.435 0
M  V30 6032 H 555.317 -3.92094 0.0220539 0
M  V30 6033 H 556.807 -4.06472 -0.957626 0
M  V30 6034 N 557.244 -0.608902 -1.45362 0
M  V30 6035 C 558.66 -0.272659 -1.57254 0
M  V30 6036 C 558.86 1.22477 -1.60005 0
M  V30 6037 O 557.916 2.00785 -1.53106 0
M  V30 6038 C 559.229 -0.944991 -2.85465 0
M  V30 6039 C 560.777 -0.921033 -2.99142 0
M  V30 6040 C 561.252 -1.5734 -4.30126 0
M  V30 6041 N 562.743 -1.53895 -4.36887 0
M  V30 6042 C 563.478 -2.01286 -5.36909 0
M  V30 6043 N 562.974 -2.56768 -6.43461 0
M  V30 6044 N 564.767 -1.92046 -5.28275 0
M  V30 6045 H 556.918 -1.58117 -1.4182 0
M  V30 6046 H 559.181 -0.662437 -0.678146 0
M  V30 6047 H 558.887 -1.99941 -2.89338 0
M  V30 6048 H 558.761 -0.469079 -3.74272 0
M  V30 6049 H 561.148 0.124846 -2.94836 0
M  V30 6050 H 561.229 -1.43522 -2.11743 0
M  V30 6051 H 560.873 -2.61862 -4.35191 0
M  V30 6052 H 560.803 -1.03422 -5.16344 0
M  V30 6053 H 563.294 -1.13366 -3.60495 0
M  V30 6054 H 563.607 -2.9072 -7.16032 0
M  V30 6055 H 561.952 -2.60808 -6.44208 0
M  V30 6056 H 565.143 -1.48439 -4.43941 0
M  V30 6057 H 565.316 -2.29293 -6.06077 0
M  V30 6058 N 558.722 1.53707 -0.348139 0
M  V30 6059 C 559.947 2.05877 0.250883 0
M  V30 6060 C 560.372 1.22115 1.43072 0
M  V30 6061 O 559.73 0.235986 1.79758 0
M  V30 6062 C 559.778 3.54886 0.639416 0
M  V30 6063 O 558.882 3.73948 1.73888 0
M  V30 6064 H 558.223 0.662754 0.040653 0
M  V30 6065 H 560.753 1.98303 -0.503685 0
M  V30 6066 H 560.763 3.97601 0.915295 0
M  V30 6067 H 559.438 4.153 -0.223386 0
M  V30 6068 H 558.015 3.43134 1.45991 0
M  V30 6069 N 560.2 0.0768682 1.57412 0
M  V30 6070 C 561.616 -0.279772 1.57129 0
M  V30 6071 C 561.816 -1.69688 1.08666 0
M  V30 6072 O 560.872 -2.40953 0.754843 0
M  V30 6073 C 562.185 -0.0848055 3.0058 0
M  V30 6074 C 563.733 -0.153954 3.12621 0
M  V30 6075 C 564.208 0.0127946 4.57998 0
M  V30 6076 N 565.699 -0.0426435 4.6318 0
M  V30 6077 C 566.434 0.0618892 5.73367 0
M  V30 6078 N 565.93 0.220229 6.9245 0
M  V30 6079 N 567.723 0.00446072 5.621 0
M  V30 6080 H 559.874 1.00297 1.87228 0
M  V30 6081 H 562.137 0.391565 0.863354 0
M  V30 6082 H 561.843 0.89325 3.40168 0
M  V30 6083 H 561.717 -0.834961 3.67843 0
M  V30 6084 H 564.104 -1.1225 2.72917 0
M  V30 6085 H 564.185 0.627389 2.47987 0
M  V30 6086 H 563.829 0.978128 4.98392 0
M  V30 6087 H 563.759 -0.788016 5.20671 0
M  V30 6088 H 566.25 -0.163226 3.77547 0
M  V30 6089 H 566.563 0.291999 7.72248 0
M  V30 6090 H 564.908 0.255658 6.9453 0
M  V30 6091 H 568.099 -0.117979 4.67951 0
M  V30 6092 H 568.272 0.0893796 6.47938 0
M  V30 6093 N 561.678 -1.56367 -0.196722 0
M  V30 6094 C 562.903 -1.84991 -0.937714 0
M  V30 6095 C 563.328 -0.660244 -1.76132 0
M  V30 6096 O 562.686 0.390967 -1.77034 0
M  V30 6097 C 562.734 -3.11828 -1.81096 0
M  V30 6098 O 561.838 -2.92266 -2.90955 0
M  V30 6099 H 561.179 -0.609193 -0.264159 0
M  V30 6100 H 563.709 -2.03595 -0.202529 0
M  V30 6101 H 563.719 -3.42579 -2.21594 0
M  V30 6102 H 562.394 -3.98037 -1.2058 0
M  V30 6103 H 560.971 -2.72809 -2.54224 0
M  V30 6104 N 563.156 0.464375 -1.50603 0
M  V30 6105 C 564.104 1.58224 -1.70493 0
M  V30 6106 C 565.098 1.59492 -0.570836 0
M  V30 6107 O 566.304 1.63561 -0.751517 0
M  V30 6108 H 562.679 0.525161 -0.538247 0
M  V30 6109 H 564.65 1.38613 -2.64252 0
M  V30 6110 C 563.399 2.96113 -1.82243 0
M  V30 6111 H 562.722 2.95858 -2.68901 0
M  V30 6112 H 564.162 3.73769 -2.00182 0
M  V30 6113 C 562.621 3.31946 -0.575628 0
M  V30 6114 O 563.151 4.00708 0.282152 0
M  V30 6115 N 561.357 2.87436 -0.427665 0
M  V30 6116 H 560.904 2.31652 -1.12674 0
M  V30 6117 H 560.862 3.11776 0.405379 0
M  V30 6118 N 564.634 1.40294 0.718013 0
M  V30 6119 C 565.859 1.41941 1.5122 0
M  V30 6120 C 566.284 0.0202371 1.88089 0
M  V30 6121 O 565.642 -0.971078 1.53101 0
M  V30 6122 C 565.69 2.3141 2.76554 0
M  V30 6123 O 564.794 1.75567 3.73162 0
M  V30 6124 H 564.135 0.482644 0.456016 0
M  V30 6125 H 566.665 1.84494 0.884478 0
M  V30 6126 H 566.675 2.46513 3.25108 0
M  V30 6127 H 565.35 3.33085 2.49053 0
M  V30 6128 H 563.927 1.69798 3.31999 0
M  V30 6129 N 566.112 -0.949982 1.2575 0
M  V30 6130 C 567.36 -1.6918 1.10555 0
M  V30 6131 C 567.681 -1.91773 -0.353298 0
M  V30 6132 O 566.951 -1.50814 -1.25027 0
M  V30 6133 H 565.531 -0.626952 0.406129 0
M  V30 6134 H 568.193 -1.1419 1.57945 0
M  V30 6135 H 567.289 -2.66915 1.61749 0
M  V30 6136 N 567.59 -1.07411 -1.15328 0
M  V30 6137 C 568.52 -0.716472 -2.22236 0
M  V30 6138 C 569.501 0.296373 -1.67498 0
M  V30 6139 O 570.686 0.168989 -1.93463 0
M  V30 6140 C 567.816 -0.114142 -3.47112 0
M  V30 6141 C 566.77 -1.05421 -4.14814 0
M  V30 6142 C 566.096 -0.314604 -5.33774 0
M  V30 6143 C 567.396 -2.38808 -4.64508 0
M  V30 6144 H 569.09 -1.61029 -2.52408 0
M  V30 6145 H 566.636 -0.775702 -1.21321 0
M  V30 6146 H 568.589 0.148001 -4.2114 0
M  V30 6147 H 567.313 0.814755 -3.16274 0
M  V30 6148 H 565.972 -1.30128 -3.42728 0
M  V30 6149 H 565.62 0.617772 -4.99192 0
M  V30 6150 H 565.32 -0.941209 -5.80013 0
M  V30 6151 H 566.844 -0.0602747 -6.1057 0
M  V30 6152 H 568.258 -2.18424 -5.3006 0
M  V30 6153 H 566.655 -2.97069 -5.21412 0
M  V30 6154 H 567.725 -3.01067 -3.80114 0
M  V30 6155 N 569.068 1.32177 -0.85831 0
M  V30 6156 C 570.345 1.91781 -0.384624 0
M  V30 6157 C 570.725 1.78171 1.13217 0
M  V30 6158 O 570.073 1.18209 1.95548 0
M  V30 6159 C 570.283 3.38414 -0.853047 0
M  V30 6160 C 571.631 4.15542 -0.872359 0
M  V30 6161 O 572.655 3.47148 -0.797926 0
M  V30 6162 O 571.514 5.37678 -0.978009 0
M  V30 6163 H 568.608 0.819259 -0.112886 0
M  V30 6164 H 571.154 1.40923 -0.945453 0
M  V30 6165 H 569.926 3.4228 -1.89632 0
M  V30 6166 H 569.549 3.96683 -0.269874 0
M  V30 6167 N 570.547 0.616602 1.45037 0
M  V30 6168 C 571.777 0.121791 2.06241 0
M  V30 6169 C 572.185 -1.20289 1.46038 0
M  V30 6170 O 571.528 -1.7456 0.572242 0
M  V30 6171 C 571.59 -0.0827345 3.59405 0
M  V30 6172 C 571.254 1.16153 4.41993 0
M  V30 6173 C 572.251 2.08183 4.76399 0
M  V30 6174 C 569.936 1.39288 4.82601 0
M  V30 6175 C 571.93 3.21668 5.5028 0
M  V30 6176 C 569.617 2.53073 5.56235 0
M  V30 6177 C 570.615 3.44091 5.89992 0
M  V30 6178 O 570.303 4.55894 6.6213 0
M  V30 6179 H 570.035 0.0701667 0.672349 0
M  V30 6180 H 572.589 0.846877 1.87129 0
M  V30 6181 H 570.819 -0.862812 3.76952 0
M  V30 6182 H 572.508 -0.530273 4.02421 0
M  V30 6183 H 573.274 1.91538 4.45576 0
M  V30 6184 H 569.153 0.693396 4.55755 0
M  V30 6185 H 572.697 3.92733 5.76547 0
M  V30 6186 H 568.594 2.69667 5.86472 0
M  V30 6187 H 569.362 4.5469 6.80587 0
M  V30 6188 N 572.025 -1.5352 0.356285 0
M  V30 6189 C 573.274 -2.00298 -0.237373 0
M  V30 6190 C 573.587 -1.24784 -1.50627 0
M  V30 6191 O 574.793 -1.62103 -2.17795 0
M  V30 6192 C 573.249 -3.56771 -0.473545 0
M  V30 6193 C 572.857 -4.41154 0.780183 0
M  V30 6194 C 574.601 -4.1193 -1.02537 0
M  V30 6195 C 572.508 -5.89161 0.514108 0
M  V30 6196 H 571.438 -0.748307 -0.092478 0
M  V30 6197 H 574.089 -1.77283 0.473588 0
M  V30 6198 H 572.471 -3.75902 -1.24553 0
M  V30 6199 H 573.645 -4.33797 1.55425 0
M  V30 6200 H 571.96 -3.97052 1.25455 0
M  V30 6201 H 574.557 -5.20133 -1.2396 0
M  V30 6202 H 574.9 -3.65943 -1.98473 0
M  V30 6203 H 575.433 -3.96561 -0.313775 0
M  V30 6204 H 572.172 -6.39408 1.44355 0
M  V30 6205 H 571.692 -5.9939 -0.221632 0
M  V30 6206 H 573.371 -6.46857 0.136122 0
M  V30 6207 N 573.503 -0.0852151 -1.57369 0
M  V30 6208 C 574.45 0.877268 -2.13478 0
M  V30 6209 C 575.42 1.28642 -1.05073 0
M  V30 6210 O 576.605 1.36992 -1.32808 0
M  V30 6211 C 573.745 2.13464 -2.71159 0
M  V30 6212 C 572.858 1.77691 -3.93764 0
M  V30 6213 C 571.993 2.98139 -4.39643 0
M  V30 6214 C 571.032 2.58447 -5.54862 0
M  V30 6215 N 570.169 3.71698 -5.95639 0
M  V30 6216 H 575.009 0.391933 -2.95411 0
M  V30 6217 H 572.546 0.181796 -1.45972 0
M  V30 6218 H 574.504 2.87086 -3.02717 0
M  V30 6219 H 573.134 2.59514 -1.91969 0
M  V30 6220 H 572.186 0.940768 -3.68583 0
M  V30 6221 H 573.498 1.44497 -4.77412 0
M  V30 6222 H 572.652 3.80026 -4.72933 0
M  V30 6223 H 571.391 3.34536 -3.54876 0
M  V30 6224 H 570.396 1.74984 -5.21211 0
M  V30 6225 H 571.621 2.23205 -6.41371 0
M  V30 6226 H 569.567 4.07831 -5.13819 0
M  V30 6227 H 569.484 3.42317 -6.74059 0
M  V30 6228 H 570.752 4.54123 -6.33555 0
M  V30 6229 N 574.981 1.5647 0.188427 0
M  V30 6230 C 576.227 1.81281 0.909124 0
M  V30 6231 C 576.56 0.66034 1.82628 0
M  V30 6232 O 575.835 -0.338737 1.91528 0
M  V30 6233 C 576.118 3.16388 1.7196 0
M  V30 6234 C 575.971 4.42137 0.826714 0
M  V30 6235 C 577.29 3.48256 2.69083 0
M  V30 6236 H 574.409 0.659457 0.329068 0
M  V30 6237 H 577.051 1.89182 0.176156 0
M  V30 6238 H 575.201 3.09784 2.34448 0
M  V30 6239 H 576.873 4.60794 0.216025 0
M  V30 6240 H 575.116 4.33594 0.133792 0
M  V30 6241 H 575.787 5.33184 1.42893 0
M  V30 6242 H 578.263 3.55203 2.16726 0
M  V30 6243 H 577.139 4.43899 3.2287 0
M  V30 6244 H 577.4 2.72088 3.48455 0
M  V30 6245 N 576.459 -0.456382 1.50847 0
M  V30 6246 C 577.687 -1.23026 1.66349 0
M  V30 6247 C 578.102 -1.85473 0.352868 0
M  V30 6248 O 577.459 -1.69885 -0.666739 0
M  V30 6249 C 577.51 -2.32827 2.76539 0
M  V30 6250 O 577.231 -1.72938 4.02522 0
M  V30 6251 C 578.732 -3.23448 3.03144 0
M  V30 6252 H 575.952 -0.371527 0.558756 0
M  V30 6253 H 578.496 -0.543082 1.97157 0
M  V30 6254 H 576.651 -2.97294 2.48384 0
M  V30 6255 H 577.065 -2.45357 4.63573 0
M  V30 6256 H 578.539 -3.96669 3.83872 0
M  V30 6257 H 579.016 -3.83094 2.14793 0
M  V30 6258 H 579.622 -2.64702 3.32886 0
M  V30 6259 N 577.937 -1.40673 -0.710563 0
M  V30 6260 C 579.183 -1.4043 -1.47142 0
M  V30 6261 C 579.538 -0.00781557 -1.92398 0
M  V30 6262 O 578.831 0.963535 -1.6561 0
M  V30 6263 C 579.025 -2.33253 -2.70791 0
M  V30 6264 C 578.854 -3.81789 -2.37629 0
M  V30 6265 C 577.624 -4.5057 -2.28724 0
M  V30 6266 C 579.822 -4.73152 -2.01572 0
M  V30 6267 N 577.804 -5.84312 -1.88289 0
M  V30 6268 C 579.175 -5.95728 -1.71778 0
M  V30 6269 C 581.23 -4.6094 -1.88252 0
M  V30 6270 C 579.933 -7.07454 -1.30003 0
M  V30 6271 C 581.959 -5.72613 -1.47881 0
M  V30 6272 C 581.321 -6.94278 -1.18987 0
M  V30 6273 H 577.42 -0.569115 -0.536314 0
M  V30 6274 H 580.004 -1.76425 -0.823547 0
M  V30 6275 H 578.175 -1.99378 -3.33321 0
M  V30 6276 H 579.907 -2.23833 -3.37166 0
M  V30 6277 H 576.662 -4.04315 -2.46629 0
M  V30 6278 H 577.086 -6.55153 -1.70596 0
M  V30 6279 H 581.728 -3.67389 -2.09249 0
M  V30 6280 H 579.446 -8.00884 -1.07749 0
M  V30 6281 H 583.032 -5.65161 -1.38145 0
M  V30 6282 H 581.912 -7.79222 -0.88219 0
M  V30 6283 N 579.415 0.9433 -1.26252 0
M  V30 6284 C 580.362 2.0417 -1.07625 0
M  V30 6285 C 581.332 1.6609 0.0180738 0
M  V30 6286 O 582.517 1.90276 -0.141289 0
M  V30 6287 C 579.657 3.37653 -0.713043 0
M  V30 6288 C 578.77 3.88783 -1.8834 0
M  V30 6289 C 577.905 5.10642 -1.4635 0
M  V30 6290 C 576.944 5.54028 -2.60229 0
M  V30 6291 N 576.081 6.67092 -2.18936 0
M  V30 6292 H 580.921 2.19436 -2.01623 0
M  V30 6293 H 578.458 1.07519 -1.00389 0
M  V30 6294 H 580.416 4.14391 -0.483358 0
M  V30 6295 H 579.046 3.22241 0.18996 0
M  V30 6296 H 578.098 3.08464 -2.22608 0
M  V30 6297 H 579.41 4.16922 -2.73821 0
M  V30 6298 H 578.564 5.94832 -1.19414 0
M  V30 6299 H 577.303 4.84244 -0.579568 0
M  V30 6300 H 576.308 4.68396 -2.87898 0
M  V30 6301 H 577.533 5.82429 -3.49219 0
M  V30 6302 H 575.479 6.42381 -1.32974 0
M  V30 6303 H 575.396 6.94806 -2.97961 0
M  V30 6304 H 576.664 7.54662 -1.95206 0
M  V30 6305 N 580.893 1.08022 1.14757 0
M  V30 6306 C 582.309 0.807072 1.3769 0
M  V30 6307 C 582.509 -0.585504 1.92806 0
M  V30 6308 O 581.565 -1.34301 2.13821 0
M  V30 6309 C 582.878 1.88651 2.34161 0
M  V30 6310 C 584.426 1.91206 2.47809 0
M  V30 6311 C 584.901 2.98253 3.47576 0
M  V30 6312 N 586.392 2.974 3.55117 0
M  V30 6313 C 587.127 3.76872 4.32152 0
M  V30 6314 N 586.623 4.66212 5.12463 0
M  V30 6315 N 588.416 3.6519 4.27309 0
M  V30 6316 H 580.567 1.97824 0.77326 0
M  V30 6317 H 582.83 0.85826 0.402608 0
M  V30 6318 H 582.536 2.88749 2.00791 0
M  V30 6319 H 582.41 1.75244 3.3402 0
M  V30 6320 H 584.797 0.917564 2.80472 0
M  V30 6321 H 584.878 2.08691 1.47925 0
M  V30 6322 H 584.522 3.97907 3.15646 0
M  V30 6323 H 584.452 2.78014 4.47231 0
M  V30 6324 H 586.943 2.32643 2.97801 0
M  V30 6325 H 587.256 5.23468 5.68508 0
M  V30 6326 H 585.601 4.70257 5.11745 0
M  V30 6327 H 588.792 2.94765 3.63636 0
M  V30 6328 H 588.965 4.27366 4.87095 0
M  V30 6329 N 582.371 -1.3172 0.865308 0
M  V30 6330 C 583.301 -2.31109 0.333302 0
M  V30 6331 C 584.282 -1.60148 -0.573301 0
M  V30 6332 O 585.467 -1.87882 -0.491305 0
M  V30 6333 C 582.597 -3.44104 -0.470078 0
M  V30 6334 C 581.551 -4.26623 0.343021 0
M  V30 6335 C 580.877 -5.31482 -0.585756 0
M  V30 6336 C 582.177 -4.98001 1.57456 0
M  V30 6337 H 583.871 -2.75855 1.1638 0
M  V30 6338 H 581.417 -1.3262 0.561069 0
M  V30 6339 H 583.37 -4.12682 -0.852752 0
M  V30 6340 H 582.094 -2.98112 -1.33404 0
M  V30 6341 H 580.753 -3.59707 0.707583 0
M  V30 6342 H 580.401 -4.81741 -1.44686 0
M  V30 6343 H 580.101 -5.87582 -0.0456494 0
M  V30 6344 H 581.625 -6.0292 -0.965375 0
M  V30 6345 H 583.039 -5.59201 1.26359 0
M  V30 6346 H 581.436 -5.63876 2.05339 0
M  V30 6347 H 582.506 -4.25253 2.32997 0
M  V30 6348 N 583.85 -0.624285 -1.44708 0
M  V30 6349 C 585.266 -0.289322 -1.56956 0
M  V30 6350 C 585.466 1.20773 -1.61295 0
M  V30 6351 O 584.522 1.9915 -1.55227 0
M  V30 6352 C 585.835 -0.975215 -2.84447 0
M  V30 6353 C 587.383 -0.952709 -2.98148 0
M  V30 6354 C 587.858 -1.61893 -4.28433 0
M  V30 6355 N 589.349 -1.5852 -4.35231 0
M  V30 6356 C 590.084 -2.06969 -5.34744 0
M  V30 6357 N 589.58 -2.63579 -6.40701 0
M  V30 6358 N 591.373 -1.97638 -5.26209 0
M  V30 6359 H 583.524 -1.59612 -1.40135 0
M  V30 6360 H 585.787 -0.669592 -0.671081 0
M  V30 6361 H 585.493 -2.02999 -2.87201 0
M  V30 6362 H 585.367 -0.508749 -3.73753 0
M  V30 6363 H 587.754 0.093568 -2.94952 0
M  V30 6364 H 587.835 -1.4576 -2.10209 0
M  V30 6365 H 587.479 -2.66463 -4.32389 0
M  V30 6366 H 587.409 -1.08893 -5.15218 0
M  V30 6367 H 589.899 -1.17183 -3.59272 0
M  V30 6368 H 590.213 -2.98298 -7.12908 0
M  V30 6369 H 588.558 -2.67626 -6.41406 0
M  V30 6370 H 591.749 -1.5314 -4.42341 0
M  V30 6371 H 591.922 -2.35708 -6.03611 0
M  V30 6372 N 585.328 1.53329 -0.364422 0
M  V30 6373 C 586.553 2.06132 0.229033 0
M  V30 6374 C 586.978 1.23625 1.41769 0
M  V30 6375 O 586.336 0.255038 1.79497 0
M  V30 6376 C 586.384 3.55544 0.60174 0
M  V30 6377 O 585.488 3.75771 1.69912 0
M  V30 6378 H 584.829 0.663148 0.0336213 0
M  V30 6379 H 587.359 1.97758 -0.524689 0
M  V30 6380 H 587.369 3.98549 0.873073 0
M  V30 6381 H 586.044 4.15039 -0.267421 0
M  V30 6382 H 584.621 3.44663 1.42343 0
M  V30 6383 N 586.806 0.0935595 1.57322 0
M  V30 6384 C 587.756 -0.876521 2.10478 0
M  V30 6385 C 588.74 -1.24482 1.01946 0
M  V30 6386 O 589.932 -1.22016 1.28223 0
M  V30 6387 C 587.061 -2.13615 2.68745 0
M  V30 6388 C 586.147 -1.79335 3.84317 0
M  V30 6389 N 586.538 -1.15606 4.92411 0
M  V30 6390 C 584.836 -2.08954 3.94023 0
M  V30 6391 C 585.537 -0.999036 5.73057 0
M  V30 6392 N 584.513 -1.51585 5.22037 0
M  V30 6393 H 588.315 -0.379829 2.91435 0
M  V30 6394 H 585.829 -0.109699 1.62029 0
M  V30 6395 H 587.826 -2.84053 3.05155 0
M  V30 6396 H 586.486 -2.63851 1.89242 0
M  V30 6397 H 587.497 -0.823063 5.11318 0
M  V30 6398 H 584.174 -2.61416 3.25527 0
M  V30 6399 H 585.564 -0.500772 6.70031 0
M  V30 6400 N 588.284 -1.56567 -0.180126 0
M  V30 6401 C 589.509 -1.85975 -0.918041 0
M  V30 6402 C 589.934 -0.678888 -1.75422 0
M  V30 6403 O 589.292 0.372168 -1.77439 0
M  V30 6404 C 589.34 -3.13731 -1.77779 0
M  V30 6405 O 588.444 -2.95335 -2.87838 0
M  V30 6406 H 587.785 -0.61196 -0.257683 0
M  V30 6407 H 590.315 -2.03798 -0.180923 0
M  V30 6408 H 590.325 -3.4491 -2.17948 0
M  V30 6409 H 589 -3.99293 -1.16352 0
M  V30 6410 H 587.577 -2.7549 -2.51316 0
M  V30 6411 N 589.762 0.448376 -1.51087 0
M  V30 6412 C 591.178 0.783984 -1.39017 0
M  V30 6413 C 591.378 1.96087 -0.463904 0
M  V30 6414 O 590.434 2.52357 0.0850534 0
M  V30 6415 C 591.747 1.07471 -2.80839 0
M  V30 6416 C 593.295 1.17981 -2.89913 0
M  V30 6417 C 593.77 1.50354 -4.32617 0
M  V30 6418 N 595.261 1.57301 -4.35673 0
M  V30 6419 C 595.996 1.839 -5.4311 0
M  V30 6420 N 595.492 2.08365 -6.60724 0
M  V30 6421 N 597.285 1.8559 -5.30578 0
M  V30 6422 H 589.436 -0.326881 -2.0987 0
M  V30 6423 H 591.699 -0.0838006 -0.944289 0
M  V30 6424 H 591.405 0.282768 -3.50561 0
M  V30 6425 H 591.279 2.00519 -3.19487 0
M  V30 6426 H 593.666 1.9624 -2.20395 0
M  V30 6427 H 593.747 0.228603 -2.54776 0
M  V30 6428 H 593.391 0.726273 -5.0268 0
M  V30 6429 H 593.321 2.46663 -4.65258 0
M  V30 6430 H 595.812 1.40342 -3.50874 0
M  V30 6431 H 596.125 2.27999 -7.38401 0
M  V30 6432 H 594.47 2.0571 -6.63859 0
M  V30 6433 H 597.661 1.65989 -4.37682 0
M  V30 6434 H 597.834 2.05983 -6.1439 0
M  V30 6435 N 591.24 1.41047 0.703093 0
M  V30 6436 C 592.172 1.38228 1.82827 0
M  V30 6437 C 593.185 0.285637 1.60275 0
M  V30 6438 O 594.374 0.54685 1.69917 0
M  V30 6439 C 591.474 1.13136 3.19458 0
M  V30 6440 C 590.647 2.34695 3.69103 0
M  V30 6441 C 589.706 2.05574 4.84382 0
M  V30 6442 O 588.732 2.78549 4.96386 0
M  V30 6443 N 589.934 1.04135 5.71083 0
M  V30 6444 H 592.699 2.35203 1.85741 0
M  V30 6445 H 590.26 1.35562 0.885125 0
M  V30 6446 H 592.252 0.916183 3.94193 0
M  V30 6447 H 590.822 0.247836 3.11616 0
M  V30 6448 H 590.042 2.71963 2.85359 0
M  V30 6449 H 591.33 3.15705 3.99009 0
M  V30 6450 H 590.728 0.43722 5.64008 0
M  V30 6451 H 589.285 0.886078 6.45749 0
M  V30 6452 N 592.718 -0.936591 1.26751 0
M  V30 6453 C 593.948 -1.71509 1.15188 0
M  V30 6454 C 594.356 -1.86885 -0.295037 0
M  V30 6455 O 593.699 -1.37915 -1.21347 0
M  V30 6456 C 593.761 -3.13853 1.75318 0
M  V30 6457 C 593.425 -3.21845 3.24445 0
M  V30 6458 C 594.422 -3.04771 4.21201 0
M  V30 6459 C 592.107 -3.45088 3.64992 0
M  V30 6460 C 594.101 -3.10816 5.56482 0
M  V30 6461 C 591.788 -3.50767 5.00405 0
M  V30 6462 C 592.786 -3.33648 5.9596 0
M  V30 6463 O 592.474 -3.39045 7.28906 0
M  V30 6464 H 592.206 -0.543658 0.401761 0
M  V30 6465 H 594.76 -1.18234 1.67958 0
M  V30 6466 H 592.99 -3.6857 1.17016 0
M  V30 6467 H 594.679 -3.73634 1.58596 0
M  V30 6468 H 595.445 -2.86665 3.91214 0
M  V30 6469 H 591.324 -3.57467 2.91098 0
M  V30 6470 H 594.868 -2.97372 6.31043 0
M  V30 6471 H 590.765 -3.68396 5.30052 0
M  V30 6472 H 591.533 -3.55558 7.37238 0
M  V30 6473 N 594.196 -1.08629 -1.14182 0
M  V30 6474 C 595.442 -0.818556 -1.85546 0
M  V30 6475 C 595.775 0.654076 -1.82854 0
M  V30 6476 O 595.05 1.48099 -1.26083 0
M  V30 6477 C 595.333 -1.34397 -3.3408 0
M  V30 6478 C 595.186 -2.8821 -3.45333 0
M  V30 6479 C 596.505 -0.971069 -4.29253 0
M  V30 6480 H 593.624 -0.298821 -0.673702 0
M  V30 6481 H 596.266 -1.34629 -1.34071 0
M  V30 6482 H 594.416 -0.895064 -3.78049 0
M  V30 6483 H 596.088 -3.41488 -3.10134 0
M  V30 6484 H 594.331 -3.25756 -2.86471 0
M  V30 6485 H 595.002 -3.20047 -4.49749 0
M  V30 6486 H 597.478 -1.35809 -3.93313 0
M  V30 6487 H 596.354 -1.36586 -5.31635 0
M  V30 6488 H 596.615 0.121659 -4.41933 0
M  V30 6489 N 595.674 1.31259 -0.872281 0
M  V30 6490 C 596.899 2.0133 -0.498099 0
M  V30 6491 C 597.324 1.65031 0.902568 0
M  V30 6492 O 596.682 0.860164 1.59596 0
M  V30 6493 C 596.73 3.54411 -0.665205 0
M  V30 6494 O 595.834 4.11347 0.294473 0
M  V30 6495 H 595.175 0.633844 -0.197832 0
M  V30 6496 H 597.705 1.67402 -1.17633 0
M  V30 6497 H 597.715 4.04147 -0.559373 0
M  V30 6498 H 596.39 3.80171 -1.68651 0
M  V30 6499 H 594.967 3.72624 0.143403 0
M  V30 6500 N 597.152 0.631951 1.44375 0
M  V30 6501 C 598.4 0.136497 2.01639 0
M  V30 6502 C 598.721 -1.24637 1.49969 0
M  V30 6503 O 597.991 -1.82827 0.70363 0
M  V30 6504 H 596.571 0.0474703 0.74549 0
M  V30 6505 H 599.233 0.818837 1.76865 0
M  V30 6506 H 598.329 0.104817 3.11924 0
M  V30 6507 N 598.631 -1.53133 0.372548 0
M  V30 6508 C 599.561 -2.28876 -0.462412 0
M  V30 6509 C 600.542 -1.31583 -1.07796 0
M  V30 6510 O 601.727 -1.60461 -1.09389 0
M  V30 6511 C 598.857 -3.08317 -1.59868 0
M  V30 6512 C 597.811 -4.13355 -1.11003 0
M  V30 6513 C 597.137 -4.8092 -2.33708 0
M  V30 6514 C 598.437 -5.21955 -0.18983 0
M  V30 6515 H 600.131 -2.9892 0.169511 0
M  V30 6516 H 597.677 -1.43761 0.0829658 0
M  V30 6517 H 599.63 -3.60055 -2.18949 0
M  V30 6518 H 598.354 -2.35976 -2.25794 0
M  V30 6519 H 597.013 -3.62573 -0.541869 0
M  V30 6520 H 596.661 -4.05144 -2.98106 0
M  V30 6521 H 596.361 -5.51904 -2.01682 0
M  V30 6522 H 597.885 -5.35455 -2.93462 0
M  V30 6523 H 599.299 -5.69153 -0.688319 0
M  V30 6524 H 597.696 -6.00087 0.0398887 0
M  V30 6525 H 598.766 -4.78811 0.766057 0
M  V30 6526 N 600.109 -0.101901 -1.5727 0
M  V30 6527 C 601.059 0.865346 -2.1094 0
M  V30 6528 C 602.043 1.2394 -1.02605 0
M  V30 6529 O 603.235 1.21334 -1.28868 0
M  V30 6530 C 600.364 2.12187 -2.69874 0
M  V30 6531 C 599.45 1.77295 -3.85263 0
M  V30 6532 N 599.841 1.12993 -4.93017 0
M  V30 6533 C 598.139 2.06862 -3.95126 0
M  V30 6534 C 598.84 0.968631 -5.73579 0
M  V30 6535 N 597.816 1.48814 -5.22834 0
M  V30 6536 H 601.618 0.364368 -2.91633 0
M  V30 6537 H 599.132 0.101104 -1.62085 0
M  V30 6538 H 601.129 2.82431 -3.06657 0
M  V30 6539 H 599.789 2.62844 -1.90639 0
M  V30 6540 H 600.8 0.795935 -5.11747 0
M  V30 6541 H 597.477 2.59686 -3.26909 0
M  V30 6542 H 598.867 0.465231 -6.70287 0
M  V30 6543 N 601.587 1.56661 0.17182 0
M  V30 6544 C 602.517 1.99401 1.21498 0
M  V30 6545 C 603.498 0.869516 1.46197 0
M  V30 6546 O 604.683 1.13556 1.57539 0
M  V30 6547 C 601.813 2.35346 2.55401 0
M  V30 6548 C 600.767 3.5075 2.45272 0
M  V30 6549 C 600.093 3.72437 3.8366 0
M  V30 6550 C 601.393 4.84216 1.95787 0
M  V30 6551 H 603.087 2.86792 0.859699 0
M  V30 6552 H 600.633 1.37977 0.412103 0
M  V30 6553 H 602.586 2.63843 3.2858 0
M  V30 6554 H 601.31 1.44864 2.92715 0
M  V30 6555 H 599.969 3.2238 1.74547 0
M  V30 6556 H 599.617 2.79246 4.18367 0
M  V30 6557 H 599.317 4.50087 3.77751 0
M  V30 6558 H 600.841 4.03334 4.58426 0
M  V30 6559 H 602.255 5.11592 2.5874 0
M  V30 6560 H 600.652 5.65498 2.00827 0
M  V30 6561 H 601.722 4.76243 0.912159 0
M  V30 6562 N 603.065 -0.440357 1.51323 0
M  V30 6563 C 604.013 -1.55492 1.72988 0
M  V30 6564 C 605.007 -1.58564 0.596138 0
M  V30 6565 O 606.213 -1.62345 0.777443 0
M  V30 6566 H 602.588 -0.516532 0.546533 0
M  V30 6567 H 604.559 -1.34392 2.66423 0
M  V30 6568 C 603.308 -2.93176 1.86931 0
M  V30 6569 H 602.631 -2.91543 2.73574 0
M  V30 6570 H 604.071 -3.70537 2.06103 0
M  V30 6571 C 602.53 -3.30988 0.628365 0
M  V30 6572 O 603.06 -4.01106 -0.218367 0
M  V30 6573 N 601.266 -2.86719 0.473339 0
M  V30 6574 H 600.813 -2.2983 1.16345 0
M  V30 6575 H 600.771 -3.12381 -0.355727 0
M  V30 6576 N 604.543 -1.41418 -0.695603 0
M  V30 6577 C 605.959 -1.23887 -1.00619 0
M  V30 6578 C 606.159 -0.128206 -2.01092 0
M  V30 6579 O 605.215 0.507408 -2.47349 0
M  V30 6580 C 606.528 -2.58816 -1.53083 0
M  V30 6581 C 608.076 -2.65998 -1.64967 0
M  V30 6582 C 608.551 -4.01244 -2.20833 0
M  V30 6583 N 610.042 -4.0309 -2.28194 0
M  V30 6584 C 610.777 -5.04539 -2.72448 0
M  V30 6585 N 610.273 -6.16378 -3.16306 0
M  V30 6586 N 612.066 -4.91901 -2.72011 0
M  V30 6587 H 604.217 -2.12379 -0.0300061 0
M  V30 6588 H 606.48 -0.944958 -0.0758797 0
M  V30 6589 H 606.186 -3.40842 -0.867147 0
M  V30 6590 H 606.06 -2.81299 -2.51298 0
M  V30 6591 H 608.447 -1.84331 -2.30448 0
M  V30 6592 H 608.528 -2.47325 -0.652982 0
M  V30 6593 H 608.172 -4.83359 -1.55968 0
M  V30 6594 H 608.102 -4.17257 -3.21254 0
M  V30 6595 H 610.593 -3.22341 -1.97242 0
M  V30 6596 H 610.906 -6.89658 -3.487 0
M  V30 6597 H 609.251 -6.19914 -3.14215 0
M  V30 6598 H 612.442 -4.03613 -2.37095 0
M  V30 6599 H 612.615 -5.71102 -3.06181 0
M  V30 6600 N 606.021 0.929856 -1.27246 0
M  V30 6601 C 606.931 2.0636 -1.11592 0
M  V30 6602 C 607.947 1.73938 -0.046496 0
M  V30 6603 O 609.123 1.9981 -0.252544 0
M  V30 6604 C 606.188 3.38213 -0.762437 0
M  V30 6605 C 605.249 3.84346 -1.9125 0
M  V30 6606 C 604.482 5.09906 -1.57579 0
M  V30 6607 O 604.705 5.68354 -0.482694 0
M  V30 6608 O 603.639 5.51359 -2.41426 0
M  V30 6609 H 607.465 2.22478 -2.0673 0
M  V30 6610 H 605.05 1.04865 -1.06413 0
M  V30 6611 H 606.932 4.1741 -0.57854 0
M  V30 6612 H 605.607 3.23307 0.159439 0
M  V30 6613 H 604.514 3.06045 -2.15144 0
M  V30 6614 H 605.847 4.0379 -2.81451 0
M  V30 6615 N 607.499 1.09233 1.13605 0
M  V30 6616 C 608.915 0.82163 1.36826 0
M  V30 6617 C 609.115 -0.565021 1.93416 0
M  V30 6618 O 608.171 -1.32026 2.15234 0
M  V30 6619 C 609.484 1.91124 2.32147 0
M  V30 6620 C 611.032 1.93824 2.45767 0
M  V30 6621 C 611.507 3.01923 3.44393 0
M  V30 6622 N 612.998 3.01149 3.51942 0
M  V30 6623 C 613.733 3.81434 4.2813 0
M  V30 6624 N 613.229 4.71621 5.07489 0
M  V30 6625 N 615.022 3.69702 4.23411 0
M  V30 6626 H 607.173 1.98633 0.752234 0
M  V30 6627 H 609.436 0.862482 0.393482 0
M  V30 6628 H 609.142 2.90862 1.97717 0
M  V30 6629 H 609.016 1.78777 3.32142 0
M  V30 6630 H 611.403 0.94726 2.79483 0
M  V30 6631 H 611.484 2.10248 1.45703 0
M  V30 6632 H 611.128 4.01232 3.11408 0
M  V30 6633 H 611.058 2.82742 4.44257 0
M  V30 6634 H 613.549 2.35789 2.95317 0
M  V30 6635 H 613.862 5.29468 5.62924 0
M  V30 6636 H 612.207 4.75658 5.06729 0
M  V30 6637 H 615.398 2.98606 3.60489 0
M  V30 6638 H 615.571 4.32509 4.82535 0
M  V30 6639 N 608.977 -1.30795 0.87923 0
M  V30 6640 C 609.924 -2.28282 0.339968 0
M  V30 6641 C 610.894 -1.56134 -0.566685 0
M  V30 6642 O 612.079 -1.84231 -0.496338 0
M  V30 6643 C 609.219 -3.42225 -0.444501 0
M  V30 6644 C 608.332 -4.29204 0.490717 0
M  V30 6645 C 607.467 -5.30302 -0.308784 0
M  V30 6646 C 606.506 -6.08929 0.622272 0
M  V30 6647 N 605.643 -7.01957 -0.14155 0
M  V30 6648 H 610.483 -2.73794 1.17647 0
M  V30 6649 H 608.02 -1.34682 0.591527 0
M  V30 6650 H 609.978 -4.07038 -0.915186 0
M  V30 6651 H 608.608 -2.97799 -1.24562 0
M  V30 6652 H 607.66 -3.6475 1.07988 0
M  V30 6653 H 608.972 -4.84045 1.20425 0
M  V30 6654 H 608.126 -6.00835 -0.841575 0
M  V30 6655 H 606.865 -4.7614 -1.05556 0
M  V30 6656 H 605.87 -5.37278 1.16674 0
M  V30 6657 H 607.095 -6.65178 1.36804 0
M  V30 6658 H 605.041 -6.50192 -0.870966 0
M  V30 6659 H 604.958 -7.54261 0.51246 0
M  V30 6660 H 606.226 -7.76741 -0.655271 0
M  V30 6661 N 610.455 -0.639598 -1.44038 0
M  V30 6662 C 611.418 0.0506628 -2.29144 0
M  V30 6663 C 612.418 0.764001 -1.41491 0
M  V30 6664 O 613.608 0.607309 -1.63271 0
M  V30 6665 C 610.74 1.0824 -3.2326 0
M  V30 6666 H 611.933 -0.697987 -2.91664 0
M  V30 6667 H 609.486 -0.400146 -1.51091 0
M  V30 6668 H 610.221 1.86075 -2.65606 0
M  V30 6669 H 610.006 0.574725 -3.87865 0
M  V30 6670 H 611.496 1.56487 -3.87171 0
M  V30 6671 N 611.933 1.52934 -0.380664 0
M  V30 6672 C 612.896 2.24809 0.446473 0
M  V30 6673 C 613.896 1.26133 0.997347 0
M  V30 6674 O 615.086 1.50297 0.880714 0
M  V30 6675 C 612.218 2.99649 1.62553 0
M  V30 6676 H 613.411 2.99343 -0.182677 0
M  V30 6677 H 610.964 1.55736 -0.132618 0
M  V30 6678 H 611.699 2.29395 2.29235 0
M  V30 6679 H 611.484 3.72066 1.23732 0
M  V30 6680 H 612.974 3.54246 2.21133 0
M  V30 6681 N 613.412 0.11024 1.57214 0
M  V30 6682 C 614.359 -0.843195 2.14846 0
M  V30 6683 C 615.329 -1.26954 1.07107 0
M  V30 6684 O 616.514 -1.34861 1.34971 0
M  V30 6685 C 613.654 -2.09123 2.74521 0
M  V30 6686 C 612.767 -1.71404 3.96541 0
M  V30 6687 C 611.902 -2.91107 4.44331 0
M  V30 6688 C 610.941 -2.49586 5.58903 0
M  V30 6689 N 610.078 -3.62175 6.01477 0
M  V30 6690 H 614.918 -0.344886 2.95998 0
M  V30 6691 H 612.455 -0.15855 1.46243 0
M  V30 6692 H 614.413 -2.82234 3.07246 0
M  V30 6693 H 613.043 -2.56427 1.96074 0
M  V30 6694 H 612.095 -0.88201 3.70033 0
M  V30 6695 H 613.407 -1.36884 4.7965 0
M  V30 6696 H 612.561 -3.72454 4.78919 0
M  V30 6697 H 611.3 -3.28848 3.60153 0
M  V30 6698 H 610.305 -1.6667 5.23929 0
M  V30 6699 H 611.53 -2.12973 6.4484 0
M  V30 6700 H 609.476 -3.99605 5.20242 0
M  V30 6701 H 609.393 -3.3155 6.79419 0
M  V30 6702 H 610.661 -4.43987 6.407 0
M  V30 6703 N 614.89 -1.56749 -0.16351 0
M  V30 6704 C 615.822 -1.93587 -1.22705 0
M  V30 6705 C 616.835 -0.829824 -1.40063 0
M  V30 6706 O 618.024 -1.10826 -1.39928 0
M  V30 6707 C 615.124 -2.1803 -2.59454 0
M  V30 6708 C 614.297 -3.4928 -2.63292 0
M  V30 6709 C 613.356 -3.62457 -3.8146 0
M  V30 6710 O 612.382 -4.35004 -3.67096 0
M  V30 6711 N 613.584 -2.97888 -4.9824 0
M  V30 6712 H 616.349 -2.8542 -0.914081 0
M  V30 6713 H 613.91 -1.58 -0.353214 0
M  V30 6714 H 615.902 -2.24102 -3.36987 0
M  V30 6715 H 614.472 -1.32543 -2.8311 0
M  V30 6716 H 613.692 -3.54795 -1.71796 0
M  V30 6717 H 614.98 -4.35632 -2.62873 0
M  V30 6718 H 614.378 -2.38833 -5.12811 0
M  V30 6719 H 612.935 -3.09545 -5.73607 0
M  V30 6720 N 616.368 0.432326 -1.51554 0
M  V30 6721 C 617.298 1.53242 -1.76179 0
M  V30 6722 C 618.279 1.58717 -0.611801 0
M  V30 6723 O 619.464 1.74364 -0.855033 0
M  V30 6724 C 616.594 2.91278 -1.89141 0
M  V30 6725 C 615.548 3.00663 -3.04608 0
M  V30 6726 C 614.874 4.40728 -3.02759 0
M  V30 6727 C 616.174 2.74281 -4.44485 0
M  V30 6728 H 617.868 1.32886 -2.68294 0
M  V30 6729 H 615.414 0.637841 -1.29103 0
M  V30 6730 H 617.367 3.68203 -2.04951 0
M  V30 6731 H 616.091 3.12877 -0.936785 0
M  V30 6732 H 614.75 2.26179 -2.88511 0
M  V30 6733 H 614.398 4.59301 -2.05065 0
M  V30 6734 H 614.098 4.47936 -3.80299 0
M  V30 6735 H 615.622 5.19619 -3.20669 0
M  V30 6736 H 617.036 3.40936 -4.60907 0
M  V30 6737 H 615.433 2.92893 -5.23769 0
M  V30 6738 H 616.503 1.69856 -4.54177 0
M  V30 6739 N 617.846 1.41785 0.688094 0
M  V30 6740 C 619.094 1.41264 1.4453 0
M  V30 6741 C 619.415 0.0252946 1.94984 0
M  V30 6742 O 618.685 -0.934081 1.72197 0
M  V30 6743 H 617.265 0.519998 0.536294 0
M  V30 6744 H 619.927 1.7709 0.813941 0
M  V30 6745 H 619.023 2.10439 2.30482 0
M  V30 6746 N 619.324 -0.923095 1.27737 0
M  V30 6747 C 620.564 -1.6858 1.15586 0
M  V30 6748 C 620.928 -1.89758 -0.292562 0
M  V30 6749 O 622.129 -2.6339 -0.536583 0
M  V30 6750 C 620.4 -3.01275 1.92271 0
M  V30 6751 S 621.959 -3.924 1.96387 0
M  V30 6752 H 618.777 -0.579069 0.412554 0
M  V30 6753 H 621.379 -1.09866 1.61709 0
M  V30 6754 H 620.083 -2.83556 2.96689 0
M  V30 6755 H 619.614 -3.6504 1.46661 0
M  V30 6756 H 621.629 -4.84667 1.06361 0
M  V30 6757 N 620.802 -1.09834 -1.13024 0
M  V30 6758 C 622.051 -0.831806 -1.83749 0
M  V30 6759 C 622.364 0.644763 -1.84668 0
M  V30 6760 O 623.57 1.02697 -2.51327 0
M  V30 6761 C 622.026 -1.43817 -3.29916 0
M  V30 6762 C 621.634 -2.94759 -3.37374 0
M  V30 6763 C 623.378 -1.25077 -4.05655 0
M  V30 6764 C 621.285 -3.48461 -4.77838 0
M  V30 6765 H 620.215 -0.30751 -0.688443 0
M  V30 6766 H 622.866 -1.32156 -1.27307 0
M  V30 6767 H 621.248 -0.876106 -3.86187 0
M  V30 6768 H 622.422 -3.57228 -2.91076 0
M  V30 6769 H 620.737 -3.12581 -2.75103 0
M  V30 6770 H 623.334 -1.62649 -5.09362 0
M  V30 6771 H 623.677 -0.191782 -4.15858 0
M  V30 6772 H 624.21 -1.78057 -3.55725 0
M  V30 6773 H 620.949 -4.53998 -4.72828 0
M  V30 6774 H 620.469 -2.90757 -5.24615 0
M  V30 6775 H 622.148 -3.45914 -5.46766 0
M  V30 6776 N 622.28 1.30327 -0.886154 0
M  V30 6777 C 623.213 2.26241 -0.298407 0
M  V30 6778 C 624.191 1.51839 0.581704 0
M  V30 6779 O 625.375 1.80851 0.531536 0
M  V30 6780 C 622.502 3.33768 0.575888 0
M  V30 6781 C 621.548 4.25852 -0.235057 0
M  V30 6782 S 622.381 5.10277 -1.62411 0
M  V30 6783 C 623.537 6.21313 -0.756368 0
M  V30 6784 H 623.77 2.75744 -1.11141 0
M  V30 6785 H 621.303 1.38341 -0.685651 0
M  V30 6786 H 623.261 3.96186 1.07458 0
M  V30 6787 H 621.922 2.82986 1.363 0
M  V30 6788 H 621.115 5.02143 0.432198 0
M  V30 6789 H 620.717 3.68015 -0.666409 0
M  V30 6790 H 623.009 6.77495 0.0261451 0
M  V30 6791 H 623.952 6.92226 -1.49093 0
M  V30 6792 H 624.36 5.63611 -0.316749 0
M  V30 6793 N 623.758 0.647228 1.43697 0
M  V30 6794 C 624.721 -0.0385101 2.29168 0
M  V30 6795 C 625.721 -0.756487 1.41894 0
M  V30 6796 O 626.911 -0.598641 1.63591 0
M  V30 6797 C 624.043 -1.06524 3.23829 0
M  V30 6798 H 625.236 0.713445 2.9129 0
M  V30 6799 H 622.789 0.408153 1.50877 0
M  V30 6800 H 623.524 -1.84664 2.66589 0
M  V30 6801 H 623.309 -0.554147 3.88164 0
M  V30 6802 H 624.799 -1.54432 3.87996 0
M  V30 6803 N 625.236 -1.5273 0.388769 0
M  V30 6804 C 626.199 -2.25043 -0.434544 0
M  V30 6805 C 627.199 -1.26661 -0.990644 0
M  V30 6806 O 628.389 -1.50762 -0.872731 0
M  V30 6807 C 625.521 -3.00507 -1.60961 0
M  V30 6808 H 626.714 -2.99242 0.198549 0
M  V30 6809 H 624.267 -1.55664 0.140875 0
M  V30 6810 H 625.002 -2.30607 -2.28015 0
M  V30 6811 H 624.787 -3.72716 -1.21757 0
M  V30 6812 H 626.277 -3.55413 -2.19251 0
M  V30 6813 N 626.714 -0.118576 -1.57153 0
M  V30 6814 C 627.961 0.539526 -1.9518 0
M  V30 6815 C 628.289 1.66714 -1.00184 0
M  V30 6816 O 627.544 1.95683 -0.0256482 0
M  V30 6817 C 627.843 1.11303 -3.39627 0
M  V30 6818 C 627.509 0.106809 -4.50773 0
M  V30 6819 C 626.171 -0.169876 -4.809 0
M  V30 6820 C 628.523 -0.57895 -5.17975 0
M  V30 6821 C 625.851 -1.13861 -5.75545 0
M  V30 6822 C 628.203 -1.53631 -6.13661 0
M  V30 6823 C 626.867 -1.82099 -6.42181 0
M  V30 6824 H 626.137 0.197427 -0.714215 0
M  V30 6825 H 628.784 -0.199391 -1.90459 0
M  V30 6826 H 627.089 1.92869 -3.4104 0
M  V30 6827 H 628.786 1.63032 -3.66363 0
M  V30 6828 H 625.376 0.332645 -4.27307 0
M  V30 6829 H 629.56 -0.378359 -4.94856 0
M  V30 6830 H 624.816 -1.36592 -5.95947 0
M  V30 6831 H 628.99 -2.07337 -6.64819 0
M  V30 6832 H 626.617 -2.57319 -7.15326 0
M  V30 6833 N 628.193 1.56834 0.155195 0
M  V30 6834 C 629.442 1.82088 0.867567 0
M  V30 6835 C 629.755 0.69849 1.82703 0
M  V30 6836 O 630.961 0.836407 2.58295 0
M  V30 6837 C 629.417 3.22707 1.59336 0
M  V30 6838 C 629.025 4.42859 0.676719 0
M  V30 6839 C 630.769 3.57242 2.293 0
M  V30 6840 C 628.676 5.74501 1.40367 0
M  V30 6841 H 627.606 0.679057 0.327715 0
M  V30 6842 H 630.257 1.83105 0.120351 0
M  V30 6843 H 628.639 3.16054 2.38591 0
M  V30 6844 H 629.813 4.60731 -0.0800196 0
M  V30 6845 H 628.128 4.16311 0.0859129 0
M  V30 6846 H 630.725 4.52847 2.84312 0
M  V30 6847 H 631.068 2.82901 3.05406 0
M  V30 6848 H 631.601 3.6552 1.56972 0
M  V30 6849 H 628.34 6.51915 0.684623 0
M  V30 6850 H 627.86 5.60579 2.13332 0
M  V30 6851 H 629.539 6.17016 1.94681 0
M  V30 6852 N 629.671 -0.424282 1.51781 0
M  V30 6853 C 630.601 -1.52305 1.7699 0
M  V30 6854 C 631.582 -1.5839 0.620209 0
M  V30 6855 O 632.767 -1.73908 0.864268 0
M  V30 6856 C 629.897 -2.90271 1.90683 0
M  V30 6857 C 628.851 -2.99043 3.06198 0
M  V30 6858 C 628.177 -4.39116 3.05092 0
M  V30 6859 C 629.477 -2.7192 4.45934 0
M  V30 6860 H 631.171 -1.31461 2.68995 0
M  V30 6861 H 628.717 -0.630985 1.29439 0
M  V30 6862 H 630.67 -3.6711 2.06901 0
M  V30 6863 H 629.394 -3.12376 0.953365 0
M  V30 6864 H 628.053 -2.24646 2.89706 0
M  V30 6865 H 627.701 -4.58207 2.07498 0
M  V30 6866 H 627.401 -4.45912 3.82669 0
M  V30 6867 H 628.925 -5.17911 3.2342 0
M  V30 6868 H 630.339 -3.38487 4.62709 0
M  V30 6869 H 628.736 -2.90111 5.25315 0
M  V30 6870 H 629.806 -1.67445 4.55072 0
M  V30 6871 N 631.149 -1.42148 -0.680565 0
M  V30 6872 C 632.389 -1.4379 -1.45271 0
M  V30 6873 C 632.753 -0.0504426 -1.91934 0
M  V30 6874 O 633.954 0.0583916 -2.68737 0
M  V30 6875 C 632.225 -2.42904 -2.62168 0
M  V30 6876 S 633.784 -2.63201 -3.51099 0
M  V30 6877 H 630.602 -0.509185 -0.496237 0
M  V30 6878 H 633.204 -1.78706 -0.792744 0
M  V30 6879 H 631.908 -3.4249 -2.26116 0
M  V30 6880 H 631.439 -2.09394 -3.33043 0
M  V30 6881 H 633.454 -1.91068 -4.57938 0
M  V30 6882 N 632.627 0.916307 -1.28225 0
M  V30 6883 C 633.873 1.66794 -1.1641 0
M  V30 6884 C 634.228 1.90278 0.284986 0
M  V30 6885 O 633.521 1.49023 1.20427 0
M  V30 6886 C 633.715 3.03125 -1.8934 0
M  V30 6887 C 633.544 2.92947 -3.41192 0
M  V30 6888 C 632.314 2.9461 -4.10528 0
M  V30 6889 C 634.512 2.7121 -4.36978 0
M  V30 6890 N 632.494 2.74993 -5.48864 0
M  V30 6891 C 633.865 2.60411 -5.6266 0
M  V30 6892 C 635.92 2.56187 -4.26934 0
M  V30 6893 C 634.623 2.3612 -6.79441 0
M  V30 6894 C 636.649 2.33275 -5.43449 0
M  V30 6895 C 636.011 2.23228 -6.68093 0
M  V30 6896 H 632.11 0.616654 -0.480896 0
M  V30 6897 H 634.694 1.08237 -1.61842 0
M  V30 6898 H 632.865 3.59774 -1.46346 0
M  V30 6899 H 634.597 3.67294 -1.69932 0
M  V30 6900 H 631.352 3.0527 -3.62087 0
M  V30 6901 H 631.776 2.68284 -6.21573 0
M  V30 6902 H 636.418 2.62707 -3.31278 0
M  V30 6903 H 634.136 2.28339 -7.75169 0
M  V30 6904 H 637.722 2.22519 -5.37565 0
M  V30 6905 H 636.602 2.05741 -7.5673 0
M  V30 6906 N 634.105 1.10431 1.1244 0
M  V30 6907 C 635.354 0.841539 1.83306 0
M  V30 6908 C 635.667 -0.634961 1.85007 0
M  V30 6909 O 636.873 -1.01363 2.51869 0
M  V30 6910 C 635.329 1.45565 3.29149 0
M  V30 6911 C 634.937 2.96544 3.35806 0
M  V30 6912 C 636.681 1.27227 4.04986 0
M  V30 6913 C 634.588 3.5099 4.75983 0
M  V30 6914 H 633.518 0.311156 0.686803 0
M  V30 6915 H 636.169 1.32829 1.26604 0
M  V30 6916 H 634.551 0.896574 3.85717 0
M  V30 6917 H 635.725 3.58766 2.89177 0
M  V30 6918 H 634.04 3.14036 2.73442 0
M  V30 6919 H 636.637 1.65348 5.08492 0
M  V30 6920 H 636.98 0.213834 4.1575 0
M  V30 6921 H 637.513 1.79941 3.54776 0
M  V30 6922 H 634.252 4.56499 4.70413 0
M  V30 6923 H 633.772 2.93535 5.23065 0
M  V30 6924 H 635.451 3.48808 5.44924 0
M  V30 6925 N 635.583 -1.29855 0.893053 0
M  V30 6926 C 636.994 -1.77946 0.564998 0
M  V30 6927 C 637.345 -1.73339 -0.919134 0
M  V30 6928 O 636.47 -1.3152 -1.71847 0
M  V30 6929 C 637.065 -3.23118 1.01883 0
M  V30 6930 C 635.624 -3.69013 0.742051 0
M  V30 6931 C 634.771 -2.50121 1.19727 0
M  V30 6932 H 637.722 -1.16611 1.07646 0
M  V30 6933 H 637.743 -3.78875 0.351249 0
M  V30 6934 H 637.255 -3.26439 2.09903 0
M  V30 6935 H 635.356 -3.71173 -0.325816 0
M  V30 6936 H 635.469 -4.60117 1.33527 0
M  V30 6937 H 633.833 -2.47128 0.616418 0
M  V30 6938 H 634.616 -2.56174 2.28538 0
M  V30 6939 N 637.061 -0.65484 -1.43351 0
M  V30 6940 C 638.291 -0.176429 -2.05845 0
M  V30 6941 C 638.699 1.16375 -1.49176 0
M  V30 6942 O 638.042 1.72981 -0.618322 0
M  V30 6943 C 638.104 -0.0125844 -3.59498 0
M  V30 6944 C 637.768 -1.27831 -4.38758 0
M  V30 6945 C 638.765 -2.2074 -4.70712 0
M  V30 6946 C 636.45 -1.52035 -4.78739 0
M  V30 6947 C 638.444 -3.36145 -5.41558 0
M  V30 6948 C 636.131 -2.67732 -5.49329 0
M  V30 6949 C 637.129 -3.59612 -5.80662 0
M  V30 6950 O 636.817 -4.73289 -6.4981 0
M  V30 6951 H 636.549 -0.0879682 -0.670252 0
M  V30 6952 H 639.103 -0.896193 -1.84818 0
M  V30 6953 H 637.333 0.762567 -3.79107 0
M  V30 6954 H 639.022 0.423392 -4.03686 0
M  V30 6955 H 639.788 -2.03284 -4.40341 0
M  V30 6956 H 635.667 -0.813987 -4.53757 0
M  V30 6957 H 639.211 -4.07881 -5.65932 0
M  V30 6958 H 635.108 -2.85122 -5.79116 0
M  V30 6959 H 635.876 -4.72575 -6.68293 0
M  V30 6960 N 638.539 1.52521 -0.396863 0
M  V30 6961 C 639.786 2.01672 0.182898 0
M  V30 6962 C 640.114 1.28302 1.46181 0
M  V30 6963 O 639.369 0.374118 1.92091 0
M  V30 6964 C 639.668 3.5403 0.489677 0
M  V30 6965 C 639.334 4.45456 -0.698581 0
M  V30 6966 C 637.996 4.70166 -1.02454 0
M  V30 6967 C 640.348 4.99354 -1.49316 0
M  V30 6968 C 637.676 5.46024 -2.1465 0
M  V30 6969 C 640.028 5.76439 -2.60579 0
M  V30 6970 C 638.692 5.99426 -2.93675 0
M  V30 6971 H 637.962 0.737971 0.066927 0
M  V30 6972 H 640.609 1.83853 -0.535764 0
M  V30 6973 H 638.914 3.69963 1.28976 0
M  V30 6974 H 640.611 3.8956 0.951018 0
M  V30 6975 H 637.201 4.26392 -0.434525 0
M  V30 6976 H 641.385 4.80182 -1.25457 0
M  V30 6977 H 636.641 5.62046 -2.40654 0
M  V30 6978 H 640.815 6.17202 -3.22544 0
M  V30 6979 H 638.442 6.57988 -3.80731 0
M  V30 6980 N 640.017 0.126909 1.57088 0
M  V30 6981 C 641.266 -0.529024 1.94639 0
M  V30 6982 C 641.579 -1.67323 1.01304 0
M  V30 6983 O 642.785 -2.39245 1.28352 0
M  V30 6984 C 641.241 -0.992483 3.45945 0
M  V30 6985 C 640.849 0.123691 4.47829 0
M  V30 6986 C 642.593 -1.61934 3.924 0
M  V30 6987 C 640.5 -0.356911 5.90322 0
M  V30 6988 H 639.43 -0.201397 0.726605 0
M  V30 6989 H 642.081 0.208032 1.82317 0
M  V30 6990 H 640.463 -1.7842 3.53528 0
M  V30 6991 H 641.637 0.900168 4.51922 0
M  V30 6992 H 639.952 0.657699 4.11173 0
M  V30 6993 H 642.549 -1.9902 4.96281 0
M  V30 6994 H 642.892 -2.50075 3.32819 0
M  V30 6995 H 643.425 -0.892894 3.8765 0
M  V30 6996 H 640.164 0.488636 6.53676 0
M  V30 6997 H 639.684 -1.0997 5.89633 0
M  V30 6998 H 641.363 -0.815547 6.41839 0
M  V30 6999 N 641.495 -1.56914 -0.146875 0
M  V30 7000 C 642.742 -1.83356 -0.859467 0
M  V30 7001 C 643.07 -0.707811 -1.81164 0
M  V30 7002 O 642.325 0.303155 -1.93338 0
M  V30 7003 C 642.624 -3.16128 -1.66727 0
M  V30 7004 C 642.29 -4.42586 -0.861881 0
M  V30 7005 C 640.952 -4.76929 -0.639687 0
M  V30 7006 C 643.304 -5.20344 -0.298643 0
M  V30 7007 C 640.632 -5.86491 0.156451 0
M  V30 7008 C 642.984 -6.30742 0.484536 0
M  V30 7009 C 641.648 -6.63635 0.717306 0
M  V30 7010 H 640.918 -0.670947 -0.314501 0
M  V30 7011 H 643.565 -1.91104 -0.123108 0
M  V30 7012 H 641.87 -3.03831 -2.47374 0
M  V30 7013 H 643.567 -3.33802 -2.2221 0
M  V30 7014 H 640.157 -4.15662 -1.04513 0
M  V30 7015 H 644.341 -4.94186 -0.457585 0
M  V30 7016 H 639.597 -6.10419 0.346292 0
M  V30 7017 H 643.771 -6.90188 0.928105 0
M  V30 7018 H 641.398 -7.48367 1.33607 0
M  V30 7019 N 642.974 0.416227 -1.52004 0
M  V30 7020 C 644.221 1.16383 -1.65714 0
M  V30 7021 C 644.549 1.9068 -0.383594 0
M  V30 7022 O 643.804 1.85174 0.633185 0
M  V30 7023 C 644.103 2.18923 -2.82502 0
M  V30 7024 C 643.769 1.61485 -4.20991 0
M  V30 7025 C 642.431 1.45545 -4.58661 0
M  V30 7026 C 644.783 1.19468 -5.07323 0
M  V30 7027 C 642.111 0.860937 -5.80349 0
M  V30 7028 C 644.463 0.614386 -6.29609 0
M  V30 7029 C 643.127 0.442056 -6.66035 0
M  V30 7030 H 642.397 0.425875 -0.606392 0
M  V30 7031 H 645.044 0.45199 -1.8609 0
M  V30 7032 H 643.349 2.96225 -2.56433 0
M  V30 7033 H 645.046 2.76628 -2.90307 0
M  V30 7034 H 641.636 1.74873 -3.91302 0
M  V30 7035 H 645.82 1.30596 -4.78809 0
M  V30 7036 H 641.076 0.715372 -6.072 0
M  V30 7037 H 645.25 0.280393 -6.95835 0
M  V30 7038 H 642.877 -0.0207218 -7.60197 0
M  V30 7039 N 644.452 1.42507 0.673017 0
M  V30 7040 C 645.385 1.40557 1.79774 0
M  V30 7041 C 646.363 0.269606 1.60349 0
M  V30 7042 O 647.547 0.460105 1.82798 0
M  V30 7043 C 644.674 1.19815 3.168 0
M  V30 7044 C 643.72 2.36429 3.5497 0
M  V30 7045 S 644.553 3.98963 3.57196 0
M  V30 7046 C 645.709 3.80567 4.9691 0
M  V30 7047 H 645.942 2.35734 1.81154 0
M  V30 7048 H 643.475 1.293 0.843846 0
M  V30 7049 H 645.433 1.08535 3.95892 0
M  V30 7050 H 644.094 0.262215 3.13004 0
M  V30 7051 H 643.287 2.17669 4.54573 0
M  V30 7052 H 642.889 2.44233 2.83242 0
M  V30 7053 H 645.181 3.41668 5.85038 0
M  V30 7054 H 646.124 4.79852 5.20718 0
M  V30 7055 H 646.532 3.13399 4.69512 0
M  V30 7056 N 645.93 -0.909495 1.28709 0
M  V30 7057 C 647.176 -1.66151 1.16283 0
M  V30 7058 C 647.509 -1.92067 -0.287069 0
M  V30 7059 O 646.784 -1.52409 -1.20837 0
M  V30 7060 C 647.067 -3.01676 1.9663 0
M  V30 7061 C 646.92 -2.82888 3.49707 0
M  V30 7062 C 648.239 -4.02274 1.78504 0
M  V30 7063 H 645.358 -0.602966 0.423793 0
M  V30 7064 H 648 -1.05418 1.58073 0
M  V30 7065 H 646.15 -3.53515 1.61119 0
M  V30 7066 H 647.822 -2.38026 3.95147 0
M  V30 7067 H 646.065 -2.17862 3.75125 0
M  V30 7068 H 646.736 -3.79147 4.01187 0
M  V30 7069 H 649.212 -3.59511 2.09503 0
M  V30 7070 H 648.088 -4.95056 2.37088 0
M  V30 7071 H 648.349 -4.35903 0.737647 0
M  V30 7072 N 647.408 -1.11026 -1.11852 0
M  V30 7073 C 648.657 -0.851249 -1.82857 0
M  V30 7074 C 648.97 0.62514 -1.85341 0
M  V30 7075 O 650.176 1.00026 -2.52403 0
M  V30 7076 C 648.632 -1.47309 -3.28372 0
M  V30 7077 C 648.24 -2.9832 -3.34229 0
M  V30 7078 C 649.984 -1.29373 -4.04306 0
M  V30 7079 C 647.891 -3.53509 -4.74115 0
M  V30 7080 H 646.821 -0.314794 -0.685143 0
M  V30 7081 H 649.472 -1.33499 -1.25898 0
M  V30 7082 H 647.854 -0.917017 -3.85236 0
M  V30 7083 H 649.028 -3.60295 -2.87271 0
M  V30 7084 H 647.343 -3.15482 -2.71772 0
M  V30 7085 H 649.94 -1.68042 -5.07608 0
M  V30 7086 H 650.283 -0.235879 -4.15631 0
M  V30 7087 H 650.816 -1.8182 -3.53817 0
M  V30 7088 H 647.555 -4.58987 -4.67986 0
M  V30 7089 H 647.075 -2.96305 -5.21501 0
M  V30 7090 H 648.754 -3.51693 -5.43066 0
M  V30 7091 N 648.886 1.2938 -0.899927 0
M  V30 7092 C 649.849 2.25983 -0.382677 0
M  V30 7093 C 650.849 1.53366 0.483259 0
M  V30 7094 O 652.039 1.71798 0.28828 0
M  V30 7095 C 649.171 3.37878 0.452915 0
M  V30 7096 H 650.364 2.73252 -1.23586 0
M  V30 7097 H 647.917 1.40825 -0.678088 0
M  V30 7098 H 648.652 2.95949 1.32608 0
M  V30 7099 H 648.437 3.91742 -0.167562 0
M  V30 7100 H 649.927 4.09746 0.806107 0
M  V30 7101 N 650.364 0.662433 1.43002 0
M  V30 7102 C 651.611 0.179591 2.01702 0
M  V30 7103 C 651.939 -1.20964 1.52309 0
M  V30 7104 O 651.194 -1.82343 0.7106 0
M  V30 7105 C 651.493 0.149363 3.57088 0
M  V30 7106 C 651.159 1.48158 4.25864 0
M  V30 7107 C 649.821 1.84638 4.44367 0
M  V30 7108 C 652.173 2.35953 4.64732 0
M  V30 7109 C 649.501 3.08561 4.99006 0
M  V30 7110 C 651.853 3.59176 5.20745 0
M  V30 7111 C 650.517 3.95841 5.37463 0
M  V30 7112 H 649.787 0.0657172 0.73808 0
M  V30 7113 H 652.434 0.854968 1.71355 0
M  V30 7114 H 650.739 -0.609491 3.8703 0
M  V30 7115 H 652.436 -0.241241 4.00274 0
M  V30 7116 H 649.026 1.18777 4.11813 0
M  V30 7117 H 653.21 2.09058 4.50121 0
M  V30 7118 H 648.466 3.37005 5.10135 0
M  V30 7119 H 652.64 4.27417 5.49807 0
M  V30 7120 H 650.267 4.91942 5.79566 0
M  V30 7121 N 651.842 -1.52309 0.404946 0
M  V30 7122 C 653.082 -2.03677 -0.171779 0
M  V30 7123 C 653.446 -1.28419 -1.42733 0
M  V30 7124 O 654.647 -1.69991 -2.08222 0
M  V30 7125 C 652.918 -3.54951 -0.417701 0
M  V30 7126 S 654.477 -4.28114 -0.962472 0
M  V30 7127 H 651.295 -0.709445 -0.0469912 0
M  V30 7128 H 653.897 -1.874 0.556901 0
M  V30 7129 H 652.601 -4.07306 0.50295 0
M  V30 7130 H 652.132 -3.75462 -1.17437 0
M  V30 7131 H 654.147 -4.42589 -2.24342 0
M  V30 7132 N 653.32 -0.135238 -1.57019 0
M  V30 7133 C 654.268 0.826099 -2.17436 0
M  V30 7134 C 655.262 1.26378 -1.12805 0
M  V30 7135 O 656.468 1.23363 -1.31079 0
M  V30 7136 H 652.843 0.284568 -0.696078 0
M  V30 7137 H 654.814 0.292212 -2.96966 0
M  V30 7138 C 653.563 2.05991 -2.80112 0
M  V30 7139 H 652.886 1.73209 -3.60331 0
M  V30 7140 H 654.326 2.71225 -3.25903 0
M  V30 7141 C 652.785 2.86027 -1.78017 0
M  V30 7142 O 653.315 3.81971 -1.24344 0
M  V30 7143 N 651.521 2.50332 -1.47588 0
M  V30 7144 H 651.068 1.72377 -1.91426 0
M  V30 7145 H 651.026 3.04177 -0.795228 0
M  V30 7146 N 654.798 1.5699 0.138552 0
M  V30 7147 C 656.023 1.88344 0.86841 0
M  V30 7148 C 656.448 0.725159 1.7356 0
M  V30 7149 O 655.806 -0.324992 1.78363 0
M  V30 7150 C 655.854 3.18334 1.69398 0
M  V30 7151 O 654.958 3.02863 2.79907 0
M  V30 7152 H 654.299 0.618577 0.241367 0
M  V30 7153 H 656.829 2.04207 0.126826 0
M  V30 7154 H 656.839 3.50567 2.08726 0
M  V30 7155 H 655.514 4.02238 1.05725 0
M  V30 7156 H 654.091 2.82056 2.43924 0
M  V30 7157 N 656.276 -0.40816 1.52223 0
M  V30 7158 C 657.516 -1.16418 1.68006 0
M  V30 7159 C 657.88 -1.87749 0.401793 0
M  V30 7160 O 659.081 -2.65245 0.435743 0
M  V30 7161 C 657.352 -2.13143 2.86889 0
M  V30 7162 S 658.911 -2.96839 3.2316 0
M  V30 7163 H 655.729 -0.394373 0.5916 0
M  V30 7164 H 658.331 -0.451349 1.90219 0
M  V30 7165 H 657.035 -1.59428 3.78168 0
M  V30 7166 H 656.566 -2.88963 2.66953 0
M  V30 7167 H 658.581 -4.151 2.71857 0
M  V30 7168 N 657.755 -1.42862 -0.66545 0
M  V30 7169 C 658.995 -1.45323 -1.43738 0
M  V30 7170 C 659.359 -0.0707969 -1.91869 0
M  V30 7171 O 660.56 0.0298852 -2.68783 0
M  V30 7172 C 658.831 -2.45671 -2.59577 0
M  V30 7173 S 660.39 -2.6691 -3.48288 0
M  V30 7174 H 657.208 -0.51442 -0.490809 0
M  V30 7175 H 659.81 -1.79537 -0.773745 0
M  V30 7176 H 658.514 -3.44869 -2.22471 0
M  V30 7177 H 658.045 -2.12914 -3.30804 0
M  V30 7178 H 660.06 -1.95914 -4.55886 0
M  V30 7179 N 659.233 0.902656 -1.29189 0
M  V30 7180 C 660.458 1.69167 -1.19989 0
M  V30 7181 C 660.883 1.86607 0.236495 0
M  V30 7182 O 660.241 1.38425 1.17082 0
M  V30 7183 C 660.289 3.05532 -1.91527 0
M  V30 7184 O 659.393 3.93621 -1.2303 0
M  V30 7185 H 658.734 0.517584 -0.415936 0
M  V30 7186 H 661.264 1.12785 -1.70706 0
M  V30 7187 H 661.274 3.55693 -1.99866 0
M  V30 7188 H 659.949 2.92156 -2.96003 0
M  V30 7189 H 658.526 3.52055 -1.22928 0
M  V30 7190 N 660.711 1.11618 1.11262 0
M  V30 7191 C 661.621 0.78898 2.20935 0
M  V30 7192 C 662.637 -0.21867 1.7262 0
M  V30 7193 O 663.813 -0.0543826 2.01327 0
M  V30 7194 C 660.878 0.239014 3.45875 0
M  V30 7195 C 659.939 1.3055 4.08968 0
M  V30 7196 C 659.172 0.781687 5.27944 0
M  V30 7197 O 659.395 -0.387605 5.69082 0
M  V30 7198 O 658.329 1.54734 5.81671 0
M  V30 7199 H 662.155 1.70477 2.51339 0
M  V30 7200 H 659.74 0.892203 1.19834 0
M  V30 7201 H 661.622 -0.0632312 4.21353 0
M  V30 7202 H 660.297 -0.649454 3.17118 0
M  V30 7203 H 659.204 1.66079 3.35214 0
M  V30 7204 H 660.537 2.16743 4.41909 0
M  V30 7205 N 662.189 -1.289 0.906776 0
M  V30 7206 C 663.6 -1.77336 0.58384 0
M  V30 7207 C 663.951 -1.74304 -0.900697 0
M  V30 7208 O 663.076 -1.33335 -1.70443 0
M  V30 7209 C 663.671 -3.22019 1.05304 0
M  V30 7210 C 662.23 -3.68205 0.781148 0
M  V30 7211 C 661.377 -2.48837 1.22373 0
M  V30 7212 H 664.328 -1.15462 1.08877 0
M  V30 7213 H 664.349 -3.78481 0.391414 0
M  V30 7214 H 663.861 -3.24194 2.13353 0
M  V30 7215 H 661.962 -3.71497 -0.28643 0
M  V30 7216 H 662.075 -4.58675 1.384 0
M  V30 7217 H 660.439 -2.46461 0.642594 0
M  V30 7218 H 661.222 -2.53736 2.31242 0
M  V30 7219 N 663.667 -0.670007 -1.42649 0
M  V30 7220 C 664.913 -0.190568 -2.01903 0
M  V30 7221 C 665.246 1.19817 -1.52832 0
M  V30 7222 O 664.521 1.80342 -0.728485 0
M  V30 7223 C 664.804 -0.21991 -3.59428 0
M  V30 7224 C 664.657 -1.64376 -4.18689 0
M  V30 7225 C 665.976 0.434519 -4.3795 0
M  V30 7226 H 663.095 -0.0707219 -0.733599 0
M  V30 7227 H 665.737 -0.853883 -1.69732 0
M  V30 7228 H 663.887 0.344894 -3.86966 0
M  V30 7229 H 665.559 -2.26044 -4.02122 0
M  V30 7230 H 663.802 -2.18591 -3.747 0
M  V30 7231 H 664.473 -1.61601 -5.27815 0
M  V30 7232 H 666.949 -0.0462156 -4.16074 0
M  V30 7233 H 665.825 0.38333 -5.4756 0
M  V30 7234 H 666.086 1.51135 -4.15464 0
M  V30 7235 N 665.145 1.52092 -0.413018 0
M  V30 7236 C 666.095 2.23947 0.427993 0
M  V30 7237 C 667.079 1.25229 1.01027 0
M  V30 7238 O 668.271 1.50448 0.932444 0
M  V30 7239 C 665.4 3.0672 1.542 0
M  V30 7240 C 664.486 4.12851 0.970307 0
M  V30 7241 N 664.877 5.05644 0.125611 0
M  V30 7242 C 663.175 4.28404 1.24042 0
M  V30 7243 C 663.876 5.8138 -0.192876 0
M  V30 7244 N 662.852 5.41996 0.417273 0
M  V30 7245 H 666.654 2.93048 -0.223628 0
M  V30 7246 H 664.168 1.60852 -0.223664 0
M  V30 7247 H 666.165 3.56754 2.15714 0
M  V30 7248 H 664.825 2.39159 2.19621 0
M  V30 7249 H 665.836 5.17348 -0.238995 0
M  V30 7250 H 662.513 3.72071 1.89391 0
M  V30 7251 H 663.903 6.66129 -0.878762 0
M  V30 7252 N 666.623 0.143563 1.56945 0
M  V30 7253 C 667.556 -0.835367 2.1236 0
M  V30 7254 C 668.534 -1.24466 1.04627 0
M  V30 7255 O 669.718 -1.34138 1.32436 0
M  V30 7256 C 666.845 -2.12123 2.64048 0
M  V30 7257 C 665.891 -1.85812 3.83896 0
M  V30 7258 S 666.724 -1.05222 5.25061 0
M  V30 7259 C 667.88 -2.34935 5.80135 0
M  V30 7260 H 668.113 -0.364109 2.95062 0
M  V30 7261 H 665.646 -0.0706601 1.54238 0
M  V30 7262 H 667.604 -2.85993 2.94479 0
M  V30 7263 H 666.265 -2.56364 1.81483 0
M  V30 7264 H 665.458 -2.81151 4.18294 0
M  V30 7265 H 665.06 -1.20052 3.54208 0
M  V30 7266 H 667.352 -3.3061 5.91357 0
M  V30 7267 H 668.295 -2.05046 6.77762 0
M  V30 7268 H 668.703 -2.45426 5.08356 0
M  V30 7269 N 668.101 -1.57061 -0.130224 0
M  V30 7270 C 669.348 -1.84257 -0.839972 0
M  V30 7271 C 669.676 -0.726986 -1.80403 0
M  V30 7272 O 668.931 0.282632 -1.93648 0
M  V30 7273 C 669.23 -3.17878 -1.63365 0
M  V30 7274 C 668.896 -4.43475 -0.814891 0
M  V30 7275 C 667.558 -4.77581 -0.589066 0
M  V30 7276 C 669.91 -5.20631 -0.243437 0
M  V30 7277 C 667.238 -5.86292 0.218648 0
M  V30 7278 C 669.59 -6.30192 0.551408 0
M  V30 7279 C 668.254 -6.62837 0.787653 0
M  V30 7280 H 667.524 -0.674245 -0.307367 0
M  V30 7281 H 670.171 -1.91224 -0.102832 0
M  V30 7282 H 668.476 -3.06437 -2.44138 0
M  V30 7283 H 670.173 -3.3614 -2.18658 0
M  V30 7284 H 666.763 -4.16747 -1.00098 0
M  V30 7285 H 670.947 -4.94644 -0.405145 0
M  V30 7286 H 666.203 -6.10017 0.411016 0
M  V30 7287 H 670.377 -6.89165 1.00126 0
M  V30 7288 H 668.004 -7.46908 1.41537 0
M  V30 7289 N 669.579 0.400081 -1.52437 0
M  V30 7290 C 670.807 1.16768 -1.70801 0
M  V30 7291 C 671.222 1.84036 -0.421462 0
M  V30 7292 O 670.579 1.72242 0.603228 0
M  V30 7293 C 670.63 2.22403 -2.8499 0
M  V30 7294 O 670.351 1.57879 -4.08663 0
M  V30 7295 C 671.852 3.11974 -3.1494 0
M  V30 7296 H 669.072 0.350533 -0.57216 0
M  V30 7297 H 671.616 0.469534 -1.99037 0
M  V30 7298 H 669.771 2.87871 -2.59247 0
M  V30 7299 H 670.185 2.27982 -4.7236 0
M  V30 7300 H 671.659 3.82148 -3.9833 0
M  V30 7301 H 672.136 3.74858 -2.28863 0
M  V30 7302 H 672.742 2.52165 -3.42481 0
M  V30 7303 N 671.057 1.43213 0.657864 0
M  V30 7304 C 672.306 1.43871 1.41365 0
M  V30 7305 C 672.619 0.064898 1.95492 0
M  V30 7306 O 673.825 -0.0510796 2.71452 0
M  V30 7307 C 672.281 2.53158 2.55811 0
M  V30 7308 C 671.889 3.96624 2.08311 0
M  V30 7309 C 673.633 2.63004 3.3321 0
M  V30 7310 C 671.54 4.97385 3.1994 0
M  V30 7311 H 670.47 0.535174 0.531136 0
M  V30 7312 H 673.121 1.69185 0.710543 0
M  V30 7313 H 671.503 2.21037 3.2857 0
M  V30 7314 H 672.677 4.38182 1.42593 0
M  V30 7315 H 670.992 3.90781 1.43804 0
M  V30 7316 H 673.589 3.3546 4.16378 0
M  V30 7317 H 673.932 1.67918 3.80932 0
M  V30 7318 H 674.465 2.94403 2.67529 0
M  V30 7319 H 671.204 5.94007 2.77192 0
M  V30 7320 H 670.724 4.60444 3.84385 0
M  V30 7321 H 672.403 5.19877 3.85145 0
M  V30 7322 N 672.536 -0.895792 1.29666 0
M  V30 7323 C 673.782 -1.64921 1.19049 0
M  V30 7324 C 674.137 -1.90707 -0.254678 0
M  V30 7325 O 673.43 -1.5092 -1.18041 0
M  V30 7326 C 673.624 -3.00075 1.94139 0
M  V30 7327 C 673.453 -2.87482 3.4581 0
M  V30 7328 C 672.223 -2.88041 4.15163 0
M  V30 7329 C 674.421 -2.64224 4.41237 0
M  V30 7330 N 672.403 -2.66226 5.5317 0
M  V30 7331 C 673.774 -2.51427 5.66732 0
M  V30 7332 C 675.829 -2.49362 4.30956 0
M  V30 7333 C 674.532 -2.25281 6.83111 0
M  V30 7334 C 676.558 -2.246 5.47091 0
M  V30 7335 C 675.92 -2.12571 6.7156 0
M  V30 7336 H 672.019 -0.608926 0.490646 0
M  V30 7337 H 674.603 -1.05648 1.63544 0
M  V30 7338 H 672.774 -3.574 1.52052 0
M  V30 7339 H 674.506 -3.64544 1.75754 0
M  V30 7340 H 671.261 -2.99471 3.66898 0
M  V30 7341 H 671.685 -2.58361 6.25762 0
M  V30 7342 H 676.327 -2.57403 3.35415 0
M  V30 7343 H 674.045 -2.15978 7.78704 0
M  V30 7344 H 677.631 -2.13939 5.41037 0
M  V30 7345 H 676.511 -1.93676 7.59907 0
M  V30 7346 N 674.014 -1.12206 -1.10668 0
M  V30 7347 C 674.944 -0.810086 -2.18997 0
M  V30 7348 C 675.925 0.225065 -1.68604 0
M  V30 7349 O 677.11 0.086783 -1.94006 0
M  V30 7350 C 674.24 -0.261262 -3.46316 0
M  V30 7351 C 673.194 -1.2292 -4.09969 0
M  V30 7352 C 672.52 -0.540713 -5.31959 0
M  V30 7353 C 673.82 -2.58295 -4.53962 0
M  V30 7354 H 675.514 -1.7159 -2.45352 0
M  V30 7355 H 673.06 -0.82646 -1.17922 0
M  V30 7356 H 675.013 -0.0307522 -4.21389 0
M  V30 7357 H 673.737 0.679879 -3.19445 0
M  V30 7358 H 672.396 -1.44548 -3.369 0
M  V30 7359 H 672.044 0.405492 -5.01363 0
M  V30 7360 H 671.744 -1.18637 -5.75499 0
M  V30 7361 H 673.268 -0.319184 -6.09765 0
M  V30 7362 H 674.682 -2.40709 -5.20319 0
M  V30 7363 H 673.079 -3.18916 -5.08343 0
M  V30 7364 H 674.149 -3.16918 -3.67002 0
M  V30 7365 N 675.492 1.28418 -0.913599 0
M  V30 7366 C 676.74 1.94596 -0.545594 0
M  V30 7367 C 677.061 1.7227 0.913668 0
M  V30 7368 O 676.331 1.06233 1.64595 0
M  V30 7369 H 674.911 0.720065 -0.198783 0
M  V30 7370 H 677.573 1.56404 -1.16292 0
M  V30 7371 H 676.669 3.03202 -0.739911 0
M  V30 7372 N 676.97 0.677563 1.42291 0
M  V30 7373 C 678.2 0.209155 2.05539 0
M  V30 7374 C 678.608 -1.13987 1.51009 0
M  V30 7375 O 677.951 -1.71976 0.645764 0
M  V30 7376 C 678.013 0.0697758 3.59432 0
M  V30 7377 C 677.677 1.34795 4.36668 0
M  V30 7378 C 678.674 2.28201 4.67141 0
M  V30 7379 C 676.359 1.59632 4.76259 0
M  V30 7380 C 678.353 3.44718 5.36142 0
M  V30 7381 C 676.04 2.76437 5.45 0
M  V30 7382 C 677.038 3.68805 5.74867 0
M  V30 7383 O 676.726 4.83567 6.42198 0
M  V30 7384 H 676.458 0.0986202 0.668768 0
M  V30 7385 H 679.012 0.925483 1.83368 0
M  V30 7386 H 677.242 -0.702157 3.80272 0
M  V30 7387 H 678.931 -0.359115 4.04308 0
M  V30 7388 H 679.697 2.10264 4.37052 0
M  V30 7389 H 675.576 0.886073 4.52404 0
M  V30 7390 H 679.12 4.16833 5.59371 0
M  V30 7391 H 675.017 2.94299 5.74507 0
M  V30 7392 H 675.785 4.83147 6.6069 0
M  V30 7393 N 678.448 -1.51871 0.421078 0
M  V30 7394 C 679.697 -2.01125 -0.152206 0
M  V30 7395 C 680.01 -1.3106 -1.45199 0
M  V30 7396 O 681.216 -1.71195 -2.10724 0
M  V30 7397 C 679.672 -3.58458 -0.3218 0
M  V30 7398 C 679.28 -4.37448 0.96659 0
M  V30 7399 C 681.024 -4.15908 -0.84973 0
M  V30 7400 C 678.931 -5.86451 0.763529 0
M  V30 7401 H 677.861 -0.751556 -0.0606565 0
M  V30 7402 H 680.512 -1.75115 0.548354 0
M  V30 7403 H 678.894 -3.80847 -1.08498 0
M  V30 7404 H 680.068 -4.26814 1.73684 0
M  V30 7405 H 678.383 -3.91373 1.42183 0
M  V30 7406 H 680.98 -5.24922 -1.01788 0
M  V30 7407 H 681.323 -3.74031 -1.82774 0
M  V30 7408 H 681.856 -3.97535 -0.145297 0
M  V30 7409 H 678.595 -6.3271 1.71344 0
M  V30 7410 H 678.115 -5.99791 0.0327889 0
M  V30 7411 H 679.794 -6.45697 0.410354 0
M  V30 7412 N 679.926 -0.151884 -1.56866 0
M  V30 7413 C 680.874 0.80299 -2.183 0
M  V30 7414 C 681.868 1.25174 -1.14139 0
M  V30 7415 O 683.074 1.21966 -1.3238 0
M  V30 7416 H 679.449 0.277169 -0.699057 0
M  V30 7417 H 681.42 0.260699 -2.97259 0
M  V30 7418 C 680.169 2.03009 -2.82281 0
M  V30 7419 H 679.492 1.69377 -3.62148 0
M  V30 7420 H 680.932 2.67753 -3.28762 0
M  V30 7421 C 679.391 2.84123 -1.81041 0
M  V30 7422 O 679.921 3.8063 -1.28388 0
M  V30 7423 N 678.127 2.48753 -1.50234 0
M  V30 7424 H 677.674 1.70337 -1.93244 0
M  V30 7425 H 677.632 3.03316 -0.827445 0
M  V30 7426 N 681.404 1.57128 0.121893 0
M  V30 7427 C 682.629 1.89254 0.848385 0
M  V30 7428 C 683.054 0.743527 1.72781 0
M  V30 7429 O 682.412 -0.306056 1.78698 0
M  V30 7430 C 682.46 3.20113 1.66012 0
M  V30 7431 O 681.564 3.05815 2.76679 0
M  V30 7432 H 680.905 0.621103 0.234793 0
M  V30 7433 H 683.435 2.0433 0.10516 0
M  V30 7434 H 683.445 3.52761 2.04996 0
M  V30 7435 H 682.12 4.03336 1.01452 0
M  V30 7436 H 680.697 2.84627 2.40918 0
M  V30 7437 N 682.882 -0.391992 1.52647 0
M  V30 7438 C 684.11 -1.1586 1.71418 0
M  V30 7439 C 684.525 -1.8381 0.431216 0
M  V30 7440 O 683.882 -1.7256 -0.594085 0
M  V30 7441 C 683.933 -2.20888 2.86165 0
M  V30 7442 O 683.654 -1.5571 4.09495 0
M  V30 7443 C 685.155 -3.103 3.1659 0
M  V30 7444 H 682.375 -0.347494 0.574011 0
M  V30 7445 H 684.919 -0.458972 1.99283 0
M  V30 7446 H 683.074 -2.86492 2.6077 0
M  V30 7447 H 683.488 -2.25474 4.73563 0
M  V30 7448 H 684.962 -3.8003 4.00351 0
M  V30 7449 H 685.439 -3.73639 2.30848 0
M  V30 7450 H 686.045 -2.50345 3.43813 0
M  V30 7451 N 684.36 -1.4356 -0.65026 0
M  V30 7452 C 685.29 -1.51758 -1.77459 0
M  V30 7453 C 686.271 -0.372019 -1.65982 0
M  V30 7454 O 687.456 -0.589627 -1.85033 0
M  V30 7455 C 684.586 -1.44302 -3.15902 0
M  V30 7456 C 683.54 -2.57138 -3.42146 0
M  V30 7457 C 682.866 -2.34735 -4.8042 0
M  V30 7458 C 684.166 -3.99373 -3.36598 0
M  V30 7459 H 685.86 -2.45863 -1.70855 0
M  V30 7460 H 683.406 -1.18333 -0.820566 0
M  V30 7461 H 685.359 -1.48641 -3.94314 0
M  V30 7462 H 684.083 -0.467026 -3.23244 0
M  V30 7463 H 682.742 -2.52157 -2.66106 0
M  V30 7464 H 682.39 -1.35372 -4.84441 0
M  V30 7465 H 682.09 -3.10375 -4.9894 0
M  V30 7466 H 683.614 -2.40862 -5.61086 0
M  V30 7467 H 685.028 -4.05826 -4.04942 0
M  V30 7468 H 683.425 -4.75063 -3.66654 0
M  V30 7469 H 684.495 -4.243 -2.34729 0
M  V30 7470 N 685.838 0.888903 -1.30139 0
M  V30 7471 C 686.786 2.0156 -1.16088 0
M  V30 7472 C 687.78 1.69239 -0.0737413 0
M  V30 7473 O 688.986 1.78468 -0.234313 0
M  V30 7474 H 685.361 0.660825 -0.358907 0
M  V30 7475 H 687.332 2.10547 -2.11453 0
M  V30 7476 C 686.081 3.36758 -0.865426 0
M  V30 7477 H 685.404 3.62137 -1.69402 0
M  V30 7478 H 686.844 4.16246 -0.807192 0
M  V30 7479 C 685.303 3.34124 0.431577 0
M  V30 7480 O 685.833 3.7445 1.45431 0
M  V30 7481 N 684.039 2.87229 0.441321 0
M  V30 7482 H 683.586 2.54609 -0.391433 0
M  V30 7483 H 683.544 2.8585 1.30909 0
M  V30 7484 N 687.317 1.12792 1.10072 0
M  V30 7485 C 688.728 0.899346 1.63611 0
M  V30 7486 C 689.079 -0.565547 1.87872 0
M  V30 7487 O 688.204 -1.43081 1.62348 0
M  V30 7488 C 688.799 1.62608 2.97227 0
M  V30 7489 C 687.358 1.44356 3.47618 0
M  V30 7490 C 686.505 1.65958 2.22156 0
M  V30 7491 H 689.456 1.28216 0.935223 0
M  V30 7492 H 689.477 1.0793 3.64872 0
M  V30 7493 H 688.989 2.69221 2.79538 0
M  V30 7494 H 687.09 0.400148 3.70445 0
M  V30 7495 H 687.203 2.20218 4.25489 0
M  V30 7496 H 685.567 1.08395 2.30484 0
M  V30 7497 H 686.35 2.73877 2.06993 0
M  V30 7498 N 688.795 -1.27931 0.920396 0
M  V30 7499 C 689.725 -2.29487 0.431024 0
M  V30 7500 C 690.706 -1.62435 -0.504861 0
M  V30 7501 O 691.891 -1.89797 -0.411176 0
M  V30 7502 C 689.021 -3.45788 -0.323709 0
M  V30 7503 C 687.975 -4.24784 0.523658 0
M  V30 7504 C 687.301 -5.33488 -0.359809 0
M  V30 7505 C 688.601 -4.90874 1.78437 0
M  V30 7506 H 690.295 -2.70671 1.27975 0
M  V30 7507 H 687.841 -1.30121 0.616813 0
M  V30 7508 H 689.794 -4.15927 -0.676952 0
M  V30 7509 H 688.518 -3.03502 -1.2064 0
M  V30 7510 H 687.177 -3.56382 0.85951 0
M  V30 7511 H 686.825 -4.87445 -1.24124 0
M  V30 7512 H 686.525 -5.87247 0.203605 0
M  V30 7513 H 688.049 -6.06472 -0.708787 0
M  V30 7514 H 689.463 -5.53339 1.49963 0
M  V30 7515 H 687.86 -5.54659 2.29071 0
M  V30 7516 H 688.93 -4.14988 2.50824 0
M  V30 7517 N 690.273 -0.685099 -1.4193 0
M  V30 7518 C 691.522 -0.208816 -2.00616 0
M  V30 7519 C 691.835 1.19506 -1.54847 0
M  V30 7520 O 693.041 1.76826 -2.06021 0
M  V30 7521 C 691.497 -0.322446 -3.58453 0
M  V30 7522 C 691.105 -1.73102 -4.13206 0
M  V30 7523 C 692.849 0.0945979 -4.24395 0
M  V30 7524 C 690.756 -1.79687 -5.63442 0
M  V30 7525 H 689.686 -0.0743092 -0.750329 0
M  V30 7526 H 692.337 -0.851778 -1.62533 0
M  V30 7527 H 690.719 0.388588 -3.94089 0
M  V30 7528 H 691.893 -2.46997 -3.8901 0
M  V30 7529 H 690.208 -2.09682 -3.59753 0
M  V30 7530 H 692.805 0.0656937 -5.3466 0
M  V30 7531 H 693.148 1.1316 -4.00625 0
M  V30 7532 H 693.681 -0.56579 -3.93756 0
M  V30 7533 H 690.42 -2.81404 -5.92024 0
M  V30 7534 H 689.94 -1.10162 -5.89597 0
M  V30 7535 H 691.619 -1.55498 -6.28036 0
M  V30 7536 N 691.751 1.51645 -0.429126 0
M  V30 7537 C 692.981 2.06133 0.138793 0
M  V30 7538 C 693.389 1.29735 1.37716 0
M  V30 7539 O 692.732 0.347955 1.80375 0
M  V30 7540 C 692.794 3.55504 0.534493 0
M  V30 7541 C 692.458 4.53098 -0.595917 0
M  V30 7542 C 693.455 4.98815 -1.46558 0
M  V30 7543 C 691.14 4.96296 -0.774309 0
M  V30 7544 C 693.134 5.86394 -2.4984 0
M  V30 7545 C 690.821 5.83667 -1.81042 0
M  V30 7546 C 691.819 6.28613 -2.67086 0
M  V30 7547 O 691.507 7.14251 -3.68919 0
M  V30 7548 H 691.239 0.675833 0.0150263 0
M  V30 7549 H 693.793 1.96301 -0.604584 0
M  V30 7550 H 692.023 3.63092 1.33045 0
M  V30 7551 H 693.712 3.92545 1.03262 0
M  V30 7552 H 694.478 4.66143 -1.33925 0
M  V30 7553 H 690.357 4.60859 -0.114178 0
M  V30 7554 H 693.901 6.21398 -3.17034 0
M  V30 7555 H 689.798 6.15753 -1.93698 0
M  V30 7556 H 690.566 7.3241 -3.65402 0
M  V30 7557 N 693.229 0.160201 1.56784 0
M  V30 7558 C 694.64 -0.358417 1.83227 0
M  V30 7559 C 694.991 -1.63831 1.07952 0
M  V30 7560 O 694.116 -2.13885 0.328995 0
M  V30 7561 C 694.711 -0.657058 3.32368 0
M  V30 7562 C 693.27 -1.12015 3.59346 0
M  V30 7563 C 692.417 -0.15015 2.76893 0
M  V30 7564 H 695.368 0.384669 1.53967 0
M  V30 7565 H 695.389 -1.51033 3.49241 0
M  V30 7566 H 694.901 0.274647 3.87127 0
M  V30 7567 H 693.002 -2.06734 3.09987 0
M  V30 7568 H 693.115 -1.037 4.67743 0
M  V30 7569 H 691.479 -0.645361 2.46388 0
M  V30 7570 H 692.262 0.775379 3.34429 0
M  V30 7571 N 694.707 -1.5719 -0.113559 0
M  V30 7572 C 695.637 -2.03772 -1.14013 0
M  V30 7573 C 696.618 -0.923176 -1.42869 0
M  V30 7574 O 697.803 -1.19325 -1.53216 0
M  V30 7575 C 694.933 -2.44663 -2.4649 0
M  V30 7576 C 693.887 -3.59612 -2.32085 0
M  V30 7577 C 693.213 -3.8642 -3.69573 0
M  V30 7578 C 694.513 -4.91149 -1.7768 0
M  V30 7579 H 696.207 -2.89785 -0.752665 0
M  V30 7580 H 693.753 -1.39412 -0.360609 0
M  V30 7581 H 695.706 -2.75857 -3.18561 0
M  V30 7582 H 694.43 -1.55628 -2.87137 0
M  V30 7583 H 693.089 -3.28636 -1.62461 0
M  V30 7584 H 692.737 -2.94581 -4.07715 0
M  V30 7585 H 692.437 -4.63797 -3.60786 0
M  V30 7586 H 693.961 -4.2007 -4.4314 0
M  V30 7587 H 695.375 -5.20843 -2.39574 0
M  V30 7588 H 693.772 -5.72562 -1.79701 0
M  V30 7589 H 694.842 -4.79301 -0.734776 0
M  V30 7590 N 696.185 0.383891 -1.52853 0
M  V30 7591 C 697.425 1.13731 -1.69837 0
M  V30 7592 C 697.789 1.87086 -0.431611 0
M  V30 7593 O 698.99 2.64518 -0.477886 0
M  V30 7594 C 697.261 2.08551 -2.90243 0
M  V30 7595 S 698.82 2.9166 -3.27841 0
M  V30 7596 H 695.638 0.384911 -0.5978 0
M  V30 7597 H 698.24 0.42103 -1.90913 0
M  V30 7598 H 696.944 1.53392 -3.80656 0
M  V30 7599 H 696.475 2.8468 -2.71516 0
M  V30 7600 H 698.49 4.10723 -2.78426 0
M  V30 7601 N 697.663 1.43903 0.642637 0
M  V30 7602 C 698.611 1.50164 1.77634 0
M  V30 7603 C 699.605 0.374294 1.65213 0
M  V30 7604 O 700.811 0.548748 1.71431 0
M  V30 7605 H 697.186 0.470974 0.586249 0
M  V30 7606 H 699.157 2.45603 1.69474 0
M  V30 7607 C 697.906 1.45196 3.15933 0
M  V30 7608 H 697.229 2.31253 3.26132 0
M  V30 7609 H 698.669 1.53638 3.95185 0
M  V30 7610 C 697.128 0.171043 3.36466 0
M  V30 7611 O 697.658 -0.763413 3.94379 0
M  V30 7612 N 695.864 0.077847 2.90496 0
M  V30 7613 H 695.411 0.8391 2.43551 0
M  V30 7614 H 695.369 -0.778473 3.0461 0
M  V30 7615 N 699.141 -0.881989 1.30609 0
M  V30 7616 C 700.051 -2.02076 1.19174 0
M  V30 7617 C 701.067 -1.73645 0.11102 0
M  V30 7618 O 702.243 -1.98735 0.326528 0
M  V30 7619 C 699.308 -3.3515 0.887438 0
M  V30 7620 C 698.369 -3.76983 2.05383 0
M  V30 7621 C 697.602 -5.03707 1.76395 0
M  V30 7622 O 697.825 -5.66171 0.693302 0
M  V30 7623 O 696.759 -5.42019 2.61723 0
M  V30 7624 H 700.585 -2.14652 2.14845 0
M  V30 7625 H 698.17 -1.00843 1.10232 0
M  V30 7626 H 700.052 -4.14975 0.73306 0
M  V30 7627 H 698.727 -3.23676 -0.0393354 0
M  V30 7628 H 697.634 -2.97849 2.26355 0
M  V30 7629 H 698.967 -3.93066 2.96243 0
M  V30 7630 N 700.619 -1.13374 -1.09472 0
M  V30 7631 C 701.567 -0.806105 -2.18185 0
M  V30 7632 C 702.561 0.21136 -1.68076 0
M  V30 7633 O 703.767 0.0685558 -1.79869 0
M  V30 7634 H 700.142 -0.242901 -0.71169 0
M  V30 7635 H 702.113 -1.73115 -2.43051 0
M  V30 7636 C 700.862 -0.287928 -3.46506 0
M  V30 7637 H 700.185 -1.06217 -3.85432 0
M  V30 7638 H 701.625 -0.0971054 -4.23889 0
M  V30 7639 C 700.084 0.986256 -3.22141 0
M  V30 7640 O 700.614 2.06217 -3.44728 0
M  V30 7641 N 698.82 0.917153 -2.75747 0
M  V30 7642 H 698.367 0.0414609 -2.57567 0
M  V30 7643 H 698.325 1.77029 -2.59823 0
M  V30 7644 N 702.098 1.27442 -0.927168 0
M  V30 7645 C 703.345 1.94391 -0.567324 0
M  V30 7646 C 703.673 1.72875 0.891321 0
M  V30 7647 O 702.928 1.05071 1.65102 0
M  V30 7648 C 703.227 3.47413 -0.838994 0
M  V30 7649 C 702.893 3.89049 -2.2793 0
M  V30 7650 C 701.555 4.00127 -2.67305 0
M  V30 7651 C 703.907 4.10154 -3.21595 0
M  V30 7652 C 701.235 4.29697 -3.99471 0
M  V30 7653 C 703.587 4.41208 -4.53341 0
M  V30 7654 C 702.251 4.50499 -4.92551 0
M  V30 7655 H 701.521 0.711325 -0.207598 0
M  V30 7656 H 704.168 1.51523 -1.17103 0
M  V30 7657 H 702.473 3.91503 -0.152609 0
M  V30 7658 H 704.17 3.97354 -0.53955 0
M  V30 7659 H 700.76 3.80962 -1.96381 0
M  V30 7660 H 704.944 4.01036 -2.92377 0
M  V30 7661 H 700.2 4.35099 -4.29533 0
M  V30 7662 H 704.374 4.56486 -5.25922 0
M  V30 7663 H 702.001 4.73167 -5.94994 0
M  V30 7664 N 703.576 0.692616 1.41565 0
M  V30 7665 C 704.523 0.0254264 2.30786 0
M  V30 7666 C 705.493 -0.774347 1.46946 0
M  V30 7667 O 706.678 -0.742981 1.7574 0
M  V30 7668 C 703.818 -0.907123 3.32964 0
M  V30 7669 C 702.931 -0.0992784 4.31886 0
M  V30 7670 C 702.066 -1.0292 5.21134 0
M  V30 7671 C 701.105 -0.214088 6.11725 0
M  V30 7672 N 700.242 -1.09766 6.93467 0
M  V30 7673 H 705.082 0.792036 2.87282 0
M  V30 7674 H 702.619 0.4023 1.41492 0
M  V30 7675 H 704.577 -1.46181 3.90752 0
M  V30 7676 H 703.207 -1.64016 2.78026 0
M  V30 7677 H 702.259 0.572287 3.76071 0
M  V30 7678 H 703.571 0.532782 4.95946 0
M  V30 7679 H 702.725 -1.65321 5.83741 0
M  V30 7680 H 701.464 -1.69512 4.57293 0
M  V30 7681 H 700.469 0.42302 5.4817 0
M  V30 7682 H 701.694 0.447995 6.77621 0
M  V30 7683 H 699.64 -1.74965 6.32237 0
M  V30 7684 H 699.557 -0.521099 7.54202 0
M  V30 7685 H 700.825 -1.70858 7.60544 0
M  V30 7686 N 705.054 -1.51416 0.437162 0
M  V30 7687 C 706.001 -2.27743 -0.374374 0
M  V30 7688 C 706.971 -1.31327 -1.01698 0
M  V30 7689 O 708.156 -1.60229 -1.03592 0
M  V30 7690 C 705.296 -3.12241 -1.46969 0
M  V30 7691 C 704.409 -4.23651 -0.845236 0
M  V30 7692 C 703.544 -4.95458 -1.91559 0
M  V30 7693 C 702.583 -5.98789 -1.26956 0
M  V30 7694 N 701.72 -6.64005 -2.28126 0
M  V30 7695 H 706.56 -2.96654 0.282892 0
M  V30 7696 H 704.097 -1.46319 0.151352 0
M  V30 7697 H 706.055 -3.59556 -2.11602 0
M  V30 7698 H 704.685 -2.45445 -2.09659 0
M  V30 7699 H 703.737 -3.803 -0.0872059 0
M  V30 7700 H 705.049 -4.97683 -0.333582 0
M  V30 7701 H 704.203 -5.46321 -2.63854 0
M  V30 7702 H 702.942 -4.21055 -2.46097 0
M  V30 7703 H 701.947 -5.47219 -0.53207 0
M  V30 7704 H 703.172 -6.75149 -0.731509 0
M  V30 7705 H 701.118 -5.92415 -2.81745 0
M  V30 7706 H 701.035 -7.33802 -1.81852 0
M  V30 7707 H 702.303 -7.19498 -2.99905 0
M  V30 7708 N 706.532 -0.168513 -1.56696 0
M  V30 7709 C 707.76 0.483503 -2.01171 0
M  V30 7710 C 708.175 1.56994 -1.04872 0
M  V30 7711 O 707.532 1.82434 -0.0491337 0
M  V30 7712 C 707.583 1.0644 -3.45475 0
M  V30 7713 O 707.304 0.0213375 -4.38095 0
M  V30 7714 C 708.805 1.79493 -4.05336 0
M  V30 7715 H 706.025 0.124002 -0.659443 0
M  V30 7716 H 708.569 -0.269419 -2.02717 0
M  V30 7717 H 706.724 1.76784 -3.44712 0
M  V30 7718 H 707.138 0.449837 -5.22567 0
M  V30 7719 H 708.612 2.15401 -5.08238 0
M  V30 7720 H 709.089 2.68889 -3.47269 0
M  V30 7721 H 709.695 1.13798 -4.09793 0
M  V30 7722 N 708.01 1.57248 0.105221 0
M  V30 7723 C 709.257 1.8557 0.810552 0
M  V30 7724 C 709.585 0.755595 1.79223 0
M  V30 7725 O 708.84 -0.251788 1.94073 0
M  V30 7726 C 709.139 3.20437 1.58287 0
M  V30 7727 C 708.805 4.44716 0.744235 0
M  V30 7728 C 707.467 4.78458 0.513013 0
M  V30 7729 C 709.819 5.20953 0.160578 0
M  V30 7730 C 707.147 5.8587 -0.311894 0
M  V30 7731 C 709.499 6.29235 -0.651596 0
M  V30 7732 C 708.163 6.615 -0.893005 0
M  V30 7733 H 707.433 0.67905 0.296602 0
M  V30 7734 H 710.08 1.91363 0.0723968 0
M  V30 7735 H 708.385 3.10283 2.39232 0
M  V30 7736 H 710.082 3.39576 2.13282 0
M  V30 7737 H 706.672 4.18287 0.934555 0
M  V30 7738 H 710.856 4.95226 0.3264 0
M  V30 7739 H 706.112 6.09286 -0.508012 0
M  V30 7740 H 710.286 6.87484 -1.11077 0
M  V30 7741 H 707.913 7.44562 -1.53401 0
M  V30 7742 N 709.488 -0.375779 1.53054 0
M  V30 7743 C 710.435 -1.45978 1.78771 0
M  V30 7744 C 711.405 -1.53625 0.631552 0
M  V30 7745 O 712.59 -1.69674 0.872667 0
M  V30 7746 C 709.73 -2.8305 1.97425 0
M  V30 7747 C 708.843 -2.84451 3.25134 0
M  V30 7748 C 707.978 -4.13034 3.34031 0
M  V30 7749 C 707.017 -4.08536 4.55812 0
M  V30 7750 N 706.154 -5.2875 4.61918 0
M  V30 7751 H 710.994 -1.23349 2.71273 0
M  V30 7752 H 708.531 -0.598147 1.3439 0
M  V30 7753 H 710.489 -3.62666 2.06225 0
M  V30 7754 H 709.119 -3.04101 1.0827 0
M  V30 7755 H 708.171 -1.97127 3.25338 0
M  V30 7756 H 709.483 -2.76998 4.14818 0
M  V30 7757 H 708.637 -5.0106 3.42087 0
M  V30 7758 H 707.376 -4.23226 2.42345 0
M  V30 7759 H 706.381 -3.18897 4.47867 0
M  V30 7760 H 707.606 -3.99955 5.48828 0
M  V30 7761 H 705.552 -5.39547 3.73129 0
M  V30 7762 H 705.469 -5.23426 5.45492 0
M  V30 7763 H 706.737 -6.18637 4.74245 0
M  V30 7764 N 710.966 -1.44241 -0.634997 0
M  V30 7765 C 711.913 -1.5081 -1.74714 0
M  V30 7766 C 712.883 -0.356147 -1.62237 0
M  V30 7767 O 714.068 -0.565848 -1.82216 0
M  V30 7768 C 711.208 -1.45458 -3.12947 0
M  V30 7769 C 710.321 -2.70998 -3.36428 0
M  V30 7770 C 709.456 -2.57507 -4.64611 0
M  V30 7771 C 708.495 -3.78229 -4.81258 0
M  V30 7772 N 707.632 -3.63438 -6.00714 0
M  V30 7773 H 712.472 -2.45832 -1.68436 0
M  V30 7774 H 710.009 -1.2201 -0.821706 0
M  V30 7775 H 711.967 -1.40347 -3.92885 0
M  V30 7776 H 710.597 -0.540058 -3.1825 0
M  V30 7777 H 709.649 -2.86312 -2.50458 0
M  V30 7778 H 710.961 -3.60619 -3.44609 0
M  V30 7779 H 710.115 -2.50207 -5.52703 0
M  V30 7780 H 708.854 -1.65441 -4.58782 0
M  V30 7781 H 707.859 -3.85918 -3.91596 0
M  V30 7782 H 709.084 -4.71327 -4.88904 0
M  V30 7783 H 707.03 -2.7412 -5.95982 0
M  V30 7784 H 706.947 -4.46672 -6.09934 0
M  V30 7785 H 708.215 -3.60022 -6.91378 0
M  V30 7786 N 712.444 0.87505 -1.31075 0
M  V30 7787 C 713.693 1.62245 -1.19831 0
M  V30 7788 C 714.006 1.94078 0.24357 0
M  V30 7789 O 715.212 2.67265 0.477646 0
M  V30 7790 C 713.668 2.92464 -2.09744 0
M  V30 7791 C 713.276 2.68134 -3.58898 0
M  V30 7792 C 715.02 3.70449 -2.07287 0
M  V30 7793 C 712.927 3.9423 -4.40836 0
M  V30 7794 H 711.857 0.608741 -0.444916 0
M  V30 7795 H 714.508 0.967947 -1.55894 0
M  V30 7796 H 712.89 3.59262 -1.66574 0
M  V30 7797 H 714.064 2.09776 -4.10281 0
M  V30 7798 H 712.379 2.03511 -3.6328 0
M  V30 7799 H 714.976 4.63983 -2.65752 0
M  V30 7800 H 715.319 4.02611 -1.05876 0
M  V30 7801 H 715.852 3.10528 -2.48631 0
M  V30 7802 H 712.591 3.67221 -5.42982 0
M  V30 7803 H 712.111 4.52058 -3.94213 0
M  V30 7804 H 713.79 4.62162 -4.52786 0
M  V30 7805 N 713.922 1.13953 1.08869 0
M  V30 7806 C 714.852 0.844824 2.17681 0
M  V30 7807 C 715.833 -0.198213 1.68941 0
M  V30 7808 O 717.018 -0.0559073 1.9412 0
M  V30 7809 C 714.148 0.316325 3.45856 0
M  V30 7810 C 713.102 1.29426 4.07962 0
M  V30 7811 C 712.428 0.625275 5.31031 0
M  V30 7812 C 713.728 2.65484 4.49795 0
M  V30 7813 H 715.422 1.75471 2.42591 0
M  V30 7814 H 712.968 0.845116 1.16592 0
M  V30 7815 H 714.921 0.0977876 4.21287 0
M  V30 7816 H 713.645 -0.628972 3.20486 0
M  V30 7817 H 712.304 1.49889 3.34558 0
M  V30 7818 H 711.952 -0.325678 5.01945 0
M  V30 7819 H 711.652 1.27777 5.73539 0
M  V30 7820 H 713.176 0.416152 6.0918 0
M  V30 7821 H 714.59 2.48957 5.16424 0
M  V30 7822 H 712.987 3.26963 5.03205 0
M  V30 7823 H 714.057 3.22717 3.61914 0
M  V30 7824 N 715.4 -1.26948 0.933913 0
M  V30 7825 C 716.35 -2.24306 0.408779 0
M  V30 7826 C 717.334 -1.53243 -0.490435 0
M  V30 7827 O 718.526 -1.73956 -0.326866 0
M  V30 7828 C 715.655 -3.41695 -0.331578 0
M  V30 7829 C 714.741 -4.20053 0.58451 0
M  V30 7830 N 715.132 -4.76122 1.70709 0
M  V30 7831 C 713.43 -4.44303 0.388703 0
M  V30 7832 C 714.131 -5.35267 2.27737 0
M  V30 7833 N 713.107 -5.20548 1.56622 0
M  V30 7834 H 716.909 -2.65244 1.26582 0
M  V30 7835 H 714.423 -1.4195 0.788919 0
M  V30 7836 H 716.42 -4.10552 -0.724774 0
M  V30 7837 H 715.08 -3.02286 -1.18547 0
M  V30 7838 H 716.091 -4.73884 2.08937 0
M  V30 7839 H 712.768 -4.15341 -0.424016 0
M  V30 7840 H 714.158 -5.89563 3.22282 0
M  V30 7841 N 716.879 -0.700114 -1.41195 0
M  V30 7842 C 718.128 -0.230082 -2.00383 0
M  V30 7843 C 718.441 1.17857 -1.56106 0
M  V30 7844 O 719.647 1.74631 -2.07885 0
M  V30 7845 C 718.103 -0.360447 -3.5809 0
M  V30 7846 C 717.711 -1.77475 -4.11347 0
M  V30 7847 C 719.455 0.0495799 -4.24471 0
M  V30 7848 C 717.362 -1.85653 -5.61504 0
M  V30 7849 H 716.292 -0.0822633 -0.749499 0
M  V30 7850 H 718.943 -0.868969 -1.6162 0
M  V30 7851 H 717.325 0.346768 -3.94479 0
M  V30 7852 H 718.499 -2.51109 -3.86369 0
M  V30 7853 H 716.814 -2.13486 -3.57509 0
M  V30 7854 H 719.411 0.00898219 -5.34699 0
M  V30 7855 H 719.754 1.08904 -4.01803 0
M  V30 7856 H 720.287 -0.607521 -3.93134 0
M  V30 7857 H 717.026 -2.87667 -5.89006 0
M  V30 7858 H 716.546 -1.1641 -5.88395 0
M  V30 7859 H 718.225 -1.62151 -6.26351 0
M  V30 7860 N 718.357 1.51182 -0.445186 0
M  V30 7861 C 719.773 1.59299 -0.0978954 0
M  V30 7862 C 719.973 1.4555 1.39346 0
M  V30 7863 O 719.029 1.30073 2.16419 0
M  V30 7864 C 720.342 2.94133 -0.625005 0
M  V30 7865 C 721.89 3.07463 -0.586137 0
M  V30 7866 C 722.365 4.44832 -1.09035 0
M  V30 7867 N 723.856 4.51173 -1.04867 0
M  V30 7868 C 724.591 5.55804 -1.40959 0
M  V30 7869 N 724.087 6.67816 -1.84375 0
M  V30 7870 N 725.88 5.46205 -1.32726 0
M  V30 7871 H 718.031 1.58363 -1.41544 0
M  V30 7872 H 720.294 0.746946 -0.58376 0
M  V30 7873 H 720 3.09589 -1.66876 0
M  V30 7874 H 719.874 3.77161 -0.0542262 0
M  V30 7875 H 722.261 2.9167 0.448646 0
M  V30 7876 H 722.342 2.26255 -1.19341 0
M  V30 7877 H 721.986 4.61372 -2.12364 0
M  V30 7878 H 721.916 5.24591 -0.459539 0
M  V30 7879 H 724.407 3.70783 -0.729932 0
M  V30 7880 H 724.72 7.43683 -2.10131 0
M  V30 7881 H 723.065 6.69003 -1.88308 0
M  V30 7882 H 726.256 4.57583 -0.986678 0
M  V30 7883 H 726.429 6.27634 -1.61182 0
M  V30 7884 N 719.835 0.176821 1.56605 0
M  V30 7885 C 721.06 -0.47599 2.01864 0
M  V30 7886 C 721.485 -1.55645 1.05623 0
M  V30 7887 O 720.843 -1.81263 0.0366729 0
M  V30 7888 C 720.891 -1.02619 3.4569 0
M  V30 7889 O 719.995 -2.13996 3.52533 0
M  V30 7890 H 719.336 -0.113363 0.654251 0
M  V30 7891 H 721.866 0.28233 2.02643 0
M  V30 7892 H 721.876 -1.34742 3.85109 0
M  V30 7893 H 720.551 -0.235138 4.15235 0
M  V30 7894 H 719.128 -1.82876 3.24978 0
M  V30 7895 O 721.352 -1.61453 0.0391262 0
M  V30 7896 H 722.043 -1.85062 -0.571999 0
M  V30 END ATOM
M  V30 BEGIN BOND
M  V30 END BOND
M  V30 END CTAB
M  END
$$$$
