drugbank_target|P71278 Pentaerythritol tetranitrate reductase (DB01676; DB02060; DB02508; DB03247; DB03651; DB04528; DB07373)
 OpenBabel12092120223D

  0  0  0     0  0            999 V3000
M  V30 BEGIN CTAB
M  V30 COUNTS 5527 5584 0 0 0
M  V30 BEGIN ATOM
M  V30 1 H -0.908 1.98254 -0.117106 0
M  V30 2 N 0 1.576 0 0
M  V30 3 C 0.933 2.03868 1.02534 0
M  V30 4 C 1.911 0.928543 1.3348 0
M  V30 5 O 3.095 1.19667 1.45644 0
M  V30 6 C 0.222 2.43627 2.35294 0
M  V30 7 C -0.732 3.65373 2.2001 0
M  V30 8 S 0.101 5.13292 1.52614 0
M  V30 9 C 1.257 5.56322 2.86805 0
M  V30 10 H 1.49 2.90518 0.631377 0
M  V30 11 H -0.977 1.52953 0.210867 0
M  V30 12 H 0.981 2.67203 3.11629 0
M  V30 13 H -0.358 1.57376 2.7183 0
M  V30 14 H -1.165 3.90944 3.18086 0
M  V30 15 H -1.563 3.418 1.51819 0
M  V30 16 H 0.729 5.58782 3.83104 0
M  V30 17 H 1.672 6.56266 2.65933 0
M  V30 18 H 2.08 4.83886 2.90714 0
M  V30 19 N 1.4781 -0.272755 1.55222 0
M  V30 20 C 2.7031 -1.02683 1.80197 0
M  V30 21 C 3.1281 -1.79142 0.573551 0
M  V30 22 O 2.4861 -1.74917 -0.476849 0
M  V30 23 C 2.5341 -1.9609 3.02624 0
M  V30 24 O 1.6381 -3.04863 2.77727 0
M  V30 25 H 0.9791 -0.293557 0.595584 0
M  V30 26 H 3.5091 -0.30159 2.02365 0
M  V30 27 H 3.5191 -2.38039 3.31363 0
M  V30 28 H 2.1941 -1.39851 3.91682 0
M  V30 29 H 0.7711 -2.67228 2.60084 0
M  V30 30 N 2.9562 -1.48159 -0.537278 0
M  V30 31 C 3.9192 -1.61665 -1.62472 0
M  V30 32 C 4.9192 -0.490395 -1.5314 0
M  V30 33 O 6.1092 -0.755998 -1.5694 0
M  V30 34 C 3.2412 -1.57997 -3.02076 0
M  V30 35 H 4.4342 -2.58621 -1.51839 0
M  V30 36 H 1.9872 -1.36647 -0.758771 0
M  V30 37 H 2.7222 -0.624913 -3.18222 0
M  V30 38 H 2.5072 -2.39755 -3.10258 0
M  V30 39 H 3.9972 -1.70627 -3.81151 0
M  V30 40 N 4.4343 0.785586 -1.36625 0
M  V30 41 C 5.3443 1.92964 -1.33425 0
M  V30 42 C 6.3603 1.72394 -0.235851 0
M  V30 43 O 7.5363 1.95866 -0.468878 0
M  V30 44 C 4.6013 3.27884 -1.12662 0
M  V30 45 C 3.6623 3.61204 -2.32013 0
M  V30 46 C 2.8953 4.89687 -2.12231 0
M  V30 47 O 3.1183 5.59704 -1.09945 0
M  V30 48 O 2.0523 5.21752 -3.00098 0
M  V30 49 H 5.8783 1.98613 -2.29753 0
M  V30 50 H 3.4633 0.926384 -1.17211 0
M  V30 51 H 5.3453 4.08614 -1.03016 0
M  V30 52 H 4.0203 3.23118 -0.193991 0
M  V30 53 H 2.9273 2.80765 -2.47228 0
M  V30 54 H 4.2603 3.70698 -3.23796 0
M  V30 55 N 5.9124 1.20967 1.01018 0
M  V30 56 C 6.8594 0.964281 2.09691 0
M  V30 57 C 7.8294 -0.107853 1.65749 0
M  V30 58 O 9.0144 0.0381987 1.90762 0
M  V30 59 C 6.1544 0.52943 3.41015 0
M  V30 60 C 5.2674 1.67043 3.98398 0
M  V30 61 C 4.4024 1.18525 5.17808 0
M  V30 62 C 3.4414 2.29892 5.67288 0
M  V30 63 N 2.5784 1.82546 6.77954 0
M  V30 64 H 7.4184 1.89463 2.30017 0
M  V30 65 H 4.9554 0.944289 1.1279 0
M  V30 66 H 6.9134 0.258588 4.16398 0
M  V30 67 H 5.5434 -0.363919 3.20742 0
M  V30 68 H 4.5954 2.05603 3.20049 0
M  V30 69 H 5.9074 2.50877 4.31117 0
M  V30 70 H 5.0614 0.870762 6.00419 0
M  V30 71 H 3.8004 0.316887 4.86669 0
M  V30 72 H 2.8054 2.6215 4.83278 0
M  V30 73 H 4.0304 3.17216 6.00459 0
M  V30 74 H 1.9764 0.980454 6.48632 0
M  V30 75 H 1.8934 2.59956 7.09901 0
M  V30 76 H 3.1614 1.54115 7.64113 0
M  V30 77 N 7.3905 -1.2043 1.01659 0
M  V30 78 C 8.3205 -2.25466 0.607226 0
M  V30 79 C 9.3015 -1.65853 -0.377716 0
M  V30 80 O 10.4865 -1.92409 -0.263149 0
M  V30 81 C 7.6165 -3.47256 -0.0552949 0
M  V30 82 C 6.5705 -4.19462 0.850632 0
M  V30 83 C 5.8965 -5.34673 0.0538859 0
M  V30 84 C 7.1965 -4.75603 2.15868 0
M  V30 85 H 8.8905 -2.59962 1.48526 0
M  V30 86 H 6.4365 -1.2496 0.715605 0
M  V30 87 H 8.3895 -4.19917 -0.353233 0
M  V30 88 H 7.1135 -3.11924 -0.968045 0
M  V30 89 H 5.7725 -3.48667 1.13257 0
M  V30 90 H 5.4205 -4.95585 -0.860514 0
M  V30 91 H 5.1205 -5.83913 0.657192 0
M  V30 92 H 6.6445 -6.10138 -0.237598 0
M  V30 93 H 8.0585 -5.40083 1.92311 0
M  V30 94 H 6.4555 -5.3528 2.71284 0
M  V30 95 H 7.5255 -3.94346 2.82169 0
M  V30 96 N 8.8686 -0.792821 -1.36206 0
M  V30 97 C 10.1156 -0.366786 -1.99151 0
M  V30 98 C 10.4436 1.06243 -1.62919 0
M  V30 99 O 9.6986 1.74927 -0.877442 0
M  V30 100 C 9.9976 -0.481501 -3.54142 0
M  V30 101 C 9.6636 -1.87202 -4.10203 0
M  V30 102 C 8.3256 -2.25248 -4.25226 0
M  V30 103 C 10.6776 -2.78237 -4.40719 0
M  V30 104 C 8.0056 -3.53723 -4.68078 0
M  V30 105 C 10.3576 -4.06144 -4.85005 0
M  V30 106 C 9.0216 -4.44207 -4.98234 0
M  V30 107 H 8.2916 -0.134217 -0.728743 0
M  V30 108 H 10.9386 -1.01094 -1.62641 0
M  V30 109 H 9.2436 0.246146 -3.91026 0
M  V30 110 H 10.9406 -0.132844 -4.0078 0
M  V30 111 H 7.5306 -1.56639 -3.98951 0
M  V30 112 H 11.7146 -2.50097 -4.28679 0
M  V30 113 H 6.9706 -3.8308 -4.76508 0
M  V30 114 H 11.1446 -4.76796 -5.07581 0
M  V30 115 H 8.7716 -5.43814 -5.31197 0
M  V30 116 N 10.3467 1.47872 -0.545128 0
M  V30 117 C 11.5747 2.06889 -0.021084 0
M  V30 118 C 11.9897 1.39955 1.2672 0
M  V30 119 O 11.3467 0.492036 1.75742 0
M  V30 120 C 11.3977 3.60996 0.190817 0
M  V30 121 O 11.1187 4.25419 -1.04644 0
M  V30 122 C 12.6197 4.36849 0.753521 0
M  V30 123 H 9.8397 0.669785 -0.0403635 0
M  V30 124 H 12.3837 1.90049 -0.755095 0
M  V30 125 H 10.5387 3.77391 0.87492 0
M  V30 126 H 10.9527 5.17785 -0.836611 0
M  V30 127 H 12.4267 5.45399 0.851139 0
M  V30 128 H 12.9037 4.02306 1.762 0
M  V30 129 H 13.5097 4.25169 0.105503 0
M  V30 130 N 11.8248 0.280983 1.55075 0
M  V30 131 C 13.2358 -0.215629 1.85451 0
M  V30 132 C 13.5868 -1.54991 1.203 0
M  V30 133 O 12.7118 -2.10699 0.493435 0
M  V30 134 C 13.3068 -0.398026 3.36454 0
M  V30 135 C 11.8658 -0.838866 3.66933 0
M  V30 136 C 11.0128 0.064458 2.77225 0
M  V30 137 H 13.9638 0.502601 1.50531 0
M  V30 138 H 13.9848 -1.23569 3.59876 0
M  V30 139 H 13.4968 0.573241 3.83843 0
M  V30 140 H 11.5978 -1.8214 3.25048 0
M  V30 141 H 11.7108 -0.672123 4.74362 0
M  V30 142 H 10.0748 -0.452863 2.50642 0
M  V30 143 H 10.8578 1.03172 3.2743 0
M  V30 144 N 13.3029 -1.57598 0.00835791 0
M  V30 145 C 14.2329 -2.1198 -0.979113 0
M  V30 146 C 15.2139 -1.03091 -1.35301 0
M  V30 147 O 16.3989 -1.30818 -1.43528 0
M  V30 148 C 13.5289 -2.62995 -2.26828 0
M  V30 149 C 12.4829 -3.76485 -2.03576 0
M  V30 150 C 11.8089 -4.13846 -3.38579 0
M  V30 151 C 13.1089 -5.0342 -1.39161 0
M  V30 152 H 14.8029 -2.94738 -0.526281 0
M  V30 153 H 12.3489 -1.41783 -0.251704 0
M  V30 154 H 14.3019 -2.99669 -2.96271 0
M  V30 155 H 13.0259 -1.7737 -2.7424 0
M  V30 156 H 11.6849 -3.40217 -1.36557 0
M  V30 157 H 11.3329 -3.25232 -3.83709 0
M  V30 158 H 11.0329 -4.90312 -3.23834 0
M  V30 159 H 12.5569 -4.53086 -4.09323 0
M  V30 160 H 13.9709 -5.37812 -1.98573 0
M  V30 161 H 12.3679 -5.84746 -1.34878 0
M  V30 162 H 13.4379 -4.83548 -0.361868 0
M  V30 163 N 14.781 0.264519 -1.55364 0
M  V30 164 C 15.728 1.32717 -1.88825 0
M  V30 165 C 16.698 1.48675 -0.740605 0
M  V30 166 O 17.883 1.62945 -0.992657 0
M  V30 167 C 15.023 2.68089 -2.17307 0
M  V30 168 C 14.136 2.60284 -3.44785 0
M  V30 169 C 13.271 3.87892 -3.62924 0
M  V30 170 C 12.31 3.74631 -4.84064 0
M  V30 171 N 11.447 4.94092 -4.98816 0
M  V30 172 H 16.287 1.03481 -2.79456 0
M  V30 173 H 13.824 0.499757 -1.3835 0
M  V30 174 H 15.782 3.46864 -2.31821 0
M  V30 175 H 14.412 2.95509 -1.299 0
M  V30 176 H 13.464 1.73173 -3.38697 0
M  V30 177 H 14.776 2.46388 -4.33698 0
M  V30 178 H 13.93 4.75109 -3.77302 0
M  V30 179 H 12.669 4.04664 -2.7221 0
M  V30 180 H 11.674 2.85797 -4.69681 0
M  V30 181 H 12.899 3.5937 -5.76221 0
M  V30 182 H 10.845 5.11259 -4.11036 0
M  V30 183 H 10.762 4.8276 -5.81789 0
M  V30 184 H 12.03 5.82857 -5.17588 0
M  V30 185 N 16.2591 1.48442 0.529413 0
M  V30 186 C 17.5051 1.5672 1.28711 0
M  V30 187 C 17.8381 0.2406 1.92704 0
M  V30 188 O 17.1131 -0.753454 1.79313 0
M  V30 189 C 17.3961 2.70587 2.37603 0
M  V30 190 C 17.2491 4.12953 1.78297 0
M  V30 191 C 18.5681 2.80212 3.39366 0
M  V30 192 H 15.6871 0.570474 0.466613 0
M  V30 193 H 18.3291 1.80617 0.589706 0
M  V30 194 H 16.4791 2.50342 2.97088 0
M  V30 195 H 18.1511 4.44639 1.22858 0
M  V30 196 H 16.3941 4.19927 1.0883 0
M  V30 197 H 17.0651 4.88448 2.57144 0
M  V30 198 H 19.5411 2.98553 2.89836 0
M  V30 199 H 18.4171 3.61611 4.12951 0
M  V30 200 H 18.6781 1.88393 3.99951 0
M  V30 201 N 17.7372 -0.778329 1.37039 0
M  V30 202 C 18.9852 -1.53361 1.31623 0
M  V30 203 C 19.3062 -1.94739 -0.100831 0
M  V30 204 O 18.5762 -1.65797 -1.04347 0
M  V30 205 H 17.1562 -0.568794 0.484234 0
M  V30 206 H 19.8182 -0.926742 1.71457 0
M  V30 207 H 18.9142 -2.43606 1.95096 0
M  V30 208 N 19.2153 -1.21501 -1.00376 0
M  V30 209 C 20.1783 -0.976927 -2.07337 0
M  V30 210 C 21.1783 0.0525322 -1.60714 0
M  V30 211 O 22.3683 -0.184869 -1.73216 0
M  V30 212 C 19.5003 -0.473423 -3.37597 0
M  V30 213 H 20.6933 -1.92587 -2.29892 0
M  V30 214 H 18.2463 -1.03217 -1.17371 0
M  V30 215 H 18.9813 0.480379 -3.20722 0
M  V30 216 H 18.7663 -1.216 -3.72768 0
M  V30 217 H 20.2563 -0.32675 -4.1632 0
M  V30 218 N 20.6934 1.19889 -1.02296 0
M  V30 219 C 21.9394 1.89701 -0.717033 0
M  V30 220 C 22.2724 1.7905 0.751989 0
M  V30 221 O 21.5474 1.17891 1.547 0
M  V30 222 C 21.8304 3.40858 -1.16136 0
M  V30 223 C 21.6834 3.60411 -2.69117 0
M  V30 224 C 23.0024 4.33876 -0.737549 0
M  V30 225 H 20.1214 0.688874 -0.261957 0
M  V30 226 H 22.7634 1.41154 -1.27183 0
M  V30 227 H 20.9134 3.82335 -0.689342 0
M  V30 228 H 22.5854 3.28145 -3.2422 0
M  V30 229 H 20.8284 3.03665 -3.0979 0
M  V30 230 H 21.4994 4.66396 -2.95261 0
M  V30 231 H 23.9754 4.00081 -1.14344 0
M  V30 232 H 22.8514 5.38242 -1.0764 0
M  V30 233 H 23.1124 4.40628 0.360436 0
M  V30 234 N 22.1715 0.800033 1.35784 0
M  V30 235 C 23.3995 0.389606 2.03199 0
M  V30 236 C 23.8145 -0.997375 1.60306 0
M  V30 237 O 23.1715 -1.64154 0.797481 0
M  V30 238 C 23.2225 0.455855 3.58614 0
M  V30 239 O 22.9435 1.78815 3.99946 0
M  V30 240 C 24.4445 0.0374032 4.43284 0
M  V30 241 H 21.6645 0.159132 0.651857 0
M  V30 242 H 24.2085 1.08183 1.73541 0
M  V30 243 H 22.3635 -0.188057 3.86943 0
M  V30 244 H 22.7775 1.74636 4.94573 0
M  V30 245 H 24.2515 0.134882 5.51835 0
M  V30 246 H 24.7285 -1.01651 4.27275 0
M  V30 247 H 25.3345 0.654215 4.20238 0
M  V30 248 N 23.6496 -1.47581 0.552962 0
M  V30 249 C 24.6126 -2.28439 -0.186605 0
M  V30 250 C 25.6126 -1.36706 -0.84665 0
M  V30 251 O 26.8026 -1.59378 -0.703164 0
M  V30 252 C 23.9346 -3.16264 -1.2724 0
M  V30 253 H 25.1276 -2.95294 0.523609 0
M  V30 254 H 22.6806 -1.532 0.309745 0
M  V30 255 H 23.4156 -2.54091 -2.01514 0
M  V30 256 H 23.2006 -3.83769 -0.803968 0
M  V30 257 H 24.6906 -3.77198 -1.79196 0
M  V30 258 N 25.1277 -0.289203 -1.54924 0
M  V30 259 C 26.5387 0.205791 -1.85562 0
M  V30 260 C 26.8897 1.54351 -1.2112 0
M  V30 261 O 26.0147 2.10435 -0.504601 0
M  V30 262 C 26.6097 0.380177 -3.3666 0
M  V30 263 C 25.1687 0.819395 -3.67373 0
M  V30 264 C 24.3157 -0.079159 -2.77187 0
M  V30 265 H 27.2667 -0.510577 -1.50262 0
M  V30 266 H 27.2877 1.21659 -3.60526 0
M  V30 267 H 26.7997 -0.593589 -3.83534 0
M  V30 268 H 24.9007 1.80413 -3.26009 0
M  V30 269 H 25.0137 0.646957 -4.74712 0
M  V30 270 H 23.3777 0.439565 -2.50878 0
M  V30 271 H 24.1607 -1.04906 -3.26878 0
M  V30 272 N 26.6058 1.57591 -0.0167156 0
M  V30 273 C 27.5538 2.10604 0.987353 0
M  V30 274 C 28.5478 1.02977 1.34507 0
M  V30 275 O 29.7538 1.21425 1.32875 0
M  V30 276 H 26.1288 0.672695 0.336134 0
M  V30 277 H 28.0998 2.93925 0.514817 0
M  V30 278 C 26.8488 2.6382 2.26483 0
M  V30 279 H 26.1718 3.46278 1.99829 0
M  V30 280 H 27.6118 3.04573 2.94977 0
M  V30 281 C 26.0708 1.55992 2.9861 0
M  V30 282 O 26.6008 0.952521 3.90243 0
M  V30 283 N 24.8068 1.28335 2.60727 0
M  V30 284 H 24.3538 1.77914 1.86291 0
M  V30 285 H 24.3118 0.564115 3.09298 0
M  V30 286 N 28.0839 -0.256276 1.55502 0
M  V30 287 C 29.4999 -0.604325 1.47716 0
M  V30 288 C 29.6999 -1.88763 0.705039 0
M  V30 289 O 28.7559 -2.51445 0.230613 0
M  V30 290 C 30.0689 -0.715756 2.92057 0
M  V30 291 C 31.6169 -0.808706 3.02372 0
M  V30 292 C 32.0919 -0.951777 4.48001 0
M  V30 293 N 33.5829 -1.01688 4.519 0
M  V30 294 C 34.3179 -1.14668 5.61817 0
M  V30 295 N 33.8139 -1.24261 6.81565 0
M  V30 296 N 35.6069 -1.1791 5.49594 0
M  V30 297 H 27.7579 0.586291 2.04148 0
M  V30 298 H 30.0209 0.201015 0.926443 0
M  V30 299 H 29.7269 0.157027 3.51349 0
M  V30 300 H 29.6009 -1.59071 3.42018 0
M  V30 301 H 31.9879 -1.67195 2.43166 0
M  V30 302 H 32.0689 0.0912063 2.55637 0
M  V30 303 H 31.7129 -0.0931291 5.07815 0
M  V30 304 H 31.6429 -1.86659 4.92408 0
M  V30 305 H 34.1339 -0.954468 3.65648 0
M  V30 306 H 34.4469 -1.34046 7.61086 0
M  V30 307 H 32.7919 -1.21236 6.84344 0
M  V30 308 H 35.9829 -1.10057 4.54978 0
M  V30 309 H 36.1559 -1.27681 6.35296 0
M  V30 310 N 29.562 -1.4872 -0.521534 0
M  V30 311 C 30.808 -1.574 -1.27879 0
M  V30 312 C 31.141 -0.250817 -1.92573 0
M  V30 313 O 30.416 0.743934 -1.79711 0
M  V30 314 C 30.699 -2.71843 -2.36164 0
M  V30 315 C 30.552 -4.13893 -1.76105 0
M  V30 316 C 31.871 -2.82008 -3.37875 0
M  V30 317 H 28.99 -0.572941 -0.463581 0
M  V30 318 H 31.632 -1.80927 -0.580119 0
M  V30 319 H 29.782 -2.51914 -2.95756 0
M  V30 320 H 31.454 -4.45284 -1.20499 0
M  V30 321 H 29.697 -4.20498 -1.06601 0
M  V30 322 H 30.368 -4.89804 -2.5455 0
M  V30 323 H 32.844 -3.00086 -2.88249 0
M  V30 324 H 31.72 -3.63796 -4.11028 0
M  V30 325 H 31.981 -1.90511 -3.98946 0
M  V30 326 N 31.0401 0.771051 -1.3745 0
M  V30 327 C 32.2871 1.52963 -1.32697 0
M  V30 328 C 32.6151 1.94299 0.0883274 0
M  V30 329 O 31.8701 1.64397 1.0617 0
M  V30 330 C 32.1691 2.80676 -2.2126 0
M  V30 331 C 31.8351 2.58389 -3.69521 0
M  V30 332 C 30.4971 2.52019 -4.09927 0
M  V30 333 C 32.8491 2.38469 -4.63446 0
M  V30 334 C 30.1771 2.23721 -5.42371 0
M  V30 335 C 32.5291 2.11694 -5.96128 0
M  V30 336 C 31.1931 2.03769 -6.35637 0
M  V30 337 H 30.4631 0.559732 -0.485573 0
M  V30 338 H 33.1101 0.888083 -1.69662 0
M  V30 339 H 31.4151 3.49392 -1.77291 0
M  V30 340 H 33.1121 3.38557 -2.14895 0
M  V30 341 H 29.7021 2.6421 -3.37478 0
M  V30 342 H 33.8861 2.4238 -4.33089 0
M  V30 343 H 29.1421 2.16081 -5.71943 0
M  V30 344 H 33.3161 1.9528 -6.6846 0
M  V30 345 H 30.9431 1.81606 -7.38189 0
M  V30 346 N 32.5182 1.22032 0.997298 0
M  V30 347 C 33.4512 0.929735 2.08401 0
M  V30 348 C 34.4292 -0.125681 1.62114 0
M  V30 349 O 35.6132 0.00495409 1.88499 0
M  V30 350 C 32.7402 0.397488 3.3636 0
M  V30 351 C 31.7862 1.4369 4.01566 0
M  V30 352 S 32.6192 3.00874 4.42984 0
M  V30 353 C 33.7752 2.49276 5.74119 0
M  V30 354 H 34.0082 1.84998 2.32729 0
M  V30 355 H 31.5412 1.0509 1.13117 0
M  V30 356 H 33.4992 0.0969846 4.10385 0
M  V30 357 H 32.1602 -0.501571 3.10069 0
M  V30 358 H 31.3532 1.01427 4.93689 0
M  V30 359 H 30.9552 1.68588 3.33847 0
M  V30 360 H 33.2472 1.90242 6.50242 0
M  V30 361 H 34.1902 3.39872 6.21203 0
M  V30 362 H 34.5982 1.90714 5.31308 0
M  V30 363 N 33.9963 -1.19345 1.0293 0
M  V30 364 C 34.9593 -2.20793 0.615069 0
M  V30 365 C 35.9593 -1.57553 -0.321533 0
M  V30 366 O 37.1493 -1.73862 -0.108483 0
M  V30 367 C 34.2813 -3.40754 -0.0999222 0
M  V30 368 H 35.4743 -2.58955 1.51269 0
M  V30 369 H 33.0273 -1.3303 0.820534 0
M  V30 370 H 33.7623 -3.0811 -1.01187 0
M  V30 371 H 33.5473 -3.87889 0.57309 0
M  V30 372 H 35.0373 -4.15898 -0.376645 0
M  V30 373 N 35.4744 -0.807222 -1.35358 0
M  V30 374 C 36.8854 -0.44876 -1.81226 0
M  V30 375 C 37.2364 1.02929 -1.67033 0
M  V30 376 O 36.3614 1.79991 -1.20133 0
M  V30 377 C 36.9564 -0.807774 -3.2903 0
M  V30 378 C 35.5154 -0.501901 -3.73039 0
M  V30 379 C 34.6624 -1.03304 -2.57339 0
M  V30 380 H 37.6134 -0.998808 -1.23327 0
M  V30 381 H 37.6344 -0.10554 -3.80354 0
M  V30 382 H 37.1464 -1.88357 -3.39328 0
M  V30 383 H 35.2474 0.565128 -3.68289 0
M  V30 384 H 35.3604 -1.03497 -4.67787 0
M  V30 385 H 33.7244 -0.455339 -2.50597 0
M  V30 386 H 34.5074 -2.11496 -2.70415 0
M  V30 387 N 36.9525 1.47285 -0.560781 0
M  V30 388 C 37.8825 2.32857 0.173105 0
M  V30 389 C 38.8635 1.44009 0.905281 0
M  V30 390 O 40.0485 1.7286 0.885046 0
M  V30 391 C 37.1785 3.25861 1.20133 0
M  V30 392 C 36.1325 4.23978 0.585388 0
M  V30 393 C 35.4585 5.06332 1.7185 0
M  V30 394 C 36.7585 5.20242 -0.463178 0
M  V30 395 H 38.4525 2.94466 -0.541307 0
M  V30 396 H 35.9985 1.41601 -0.261764 0
M  V30 397 H 37.9515 3.84569 1.72293 0
M  V30 398 H 36.6755 2.62315 1.94573 0
M  V30 399 H 35.3345 3.66501 0.085054 0
M  V30 400 H 34.9825 4.39186 2.45203 0
M  V30 401 H 34.6825 5.72762 1.31213 0
M  V30 402 H 36.2065 5.67899 2.24329 0
M  V30 403 H 37.6205 5.73293 -0.027502 0
M  V30 404 H 36.0175 5.94896 -0.788627 0
M  V30 405 H 37.0875 4.65504 -1.35773 0
M  V30 406 N 38.4306 0.297415 1.54768 0
M  V30 407 C 39.6586 -0.315623 2.04478 0
M  V30 408 C 40.0736 -1.47792 1.17486 0
M  V30 409 O 39.4306 -1.81404 0.19971 0
M  V30 410 C 39.4816 -0.7753 3.53088 0
M  V30 411 O 39.2026 0.340732 4.36773 0
M  V30 412 C 40.7036 -1.45386 4.18781 0
M  V30 413 H 37.9236 -0.0690887 0.667434 0
M  V30 414 H 40.4676 0.436003 1.99798 0
M  V30 415 H 38.6226 -1.47696 3.58141 0
M  V30 416 H 39.0366 -0.0165035 5.24497 0
M  V30 417 H 40.5106 -1.72669 5.24299 0
M  V30 418 H 40.9876 -2.39275 3.68299 0
M  V30 419 H 41.5936 -0.795475 4.17795 0
M  V30 420 N 39.9087 -1.5758 0.0250728 0
M  V30 421 C 41.3247 -1.56124 -0.331282 0
M  V30 422 C 41.5247 -1.03029 -1.73169 0
M  V30 423 O 40.5807 -0.675215 -2.43305 0
M  V30 424 C 41.8937 -3.00139 -0.183584 0
M  V30 425 C 43.4417 -3.11946 -0.256654 0
M  V30 426 C 43.9167 -4.57793 -0.137792 0
M  V30 427 N 45.4077 -4.6279 -0.194904 0
M  V30 428 C 46.1427 -5.7326 -0.126655 0
M  V30 429 N 45.6387 -6.928 -0.00755288 0
M  V30 430 N 47.4317 -5.61811 -0.180348 0
M  V30 431 H 39.5827 -1.90424 0.94087 0
M  V30 432 H 41.8457 -0.875761 0.362968 0
M  V30 433 H 41.5517 -3.4292 0.780927 0
M  V30 434 H 41.4257 -3.64899 -0.955448 0
M  V30 435 H 43.8127 -2.69079 -1.21162 0
M  V30 436 H 43.8937 -2.49915 0.545517 0
M  V30 437 H 43.5377 -5.01339 0.813739 0
M  V30 438 H 43.4677 -5.17798 -0.958775 0
M  V30 439 H 45.9587 -3.76807 -0.287267 0
M  V30 440 H 46.2717 -7.72791 0.0379428 0
M  V30 441 H 44.6167 -6.94995 0.0271731 0
M  V30 442 H 47.8077 -4.6731 -0.271767 0
M  V30 443 H 47.9807 -6.47882 -0.123697 0
M  V30 444 N 41.3868 0.248026 -1.55636 0
M  V30 445 C 42.3168 1.31079 -1.93237 0
M  V30 446 C 43.2978 1.50264 -0.797174 0
M  V30 447 O 44.4828 1.62891 -1.05737 0
M  V30 448 C 41.6128 2.66575 -2.22609 0
M  V30 449 C 40.5668 2.62087 -3.3837 0
M  V30 450 C 39.8928 4.01369 -3.53281 0
M  V30 451 C 41.1928 2.19171 -4.7409 0
M  V30 452 H 42.8868 0.998556 -2.82257 0
M  V30 453 H 40.4328 0.47891 -1.35803 0
M  V30 454 H 42.3858 3.41057 -2.47503 0
M  V30 455 H 41.1098 2.99432 -1.30414 0
M  V30 456 H 39.7688 1.90063 -3.13483 0
M  V30 457 H 39.4168 4.31489 -2.58508 0
M  V30 458 H 39.1168 3.99254 -4.31127 0
M  V30 459 H 40.6408 4.77552 -3.80495 0
M  V30 460 H 42.0548 2.83384 -4.98363 0
M  V30 461 H 40.4518 2.2817 -5.5503 0
M  V30 462 H 41.5218 1.14336 -4.71227 0
M  V30 463 N 42.8649 1.48995 0.513639 0
M  V30 464 C 44.2809 1.35478 0.843682 0
M  V30 465 C 44.4809 0.378213 1.97919 0
M  V30 466 O 43.5369 -0.194689 2.51748 0
M  V30 467 C 44.8499 2.75901 1.1958 0
M  V30 468 C 46.3979 2.84509 1.30474 0
M  V30 469 C 46.8729 4.25671 1.69021 0
M  V30 470 N 48.3639 4.28422 1.76094 0
M  V30 471 C 49.0989 5.34601 2.07338 0
M  V30 472 N 48.5949 6.5104 2.36894 0
M  V30 473 N 50.3879 5.22007 2.08483 0
M  V30 474 H 42.5389 2.11092 -0.235328 0
M  V30 475 H 44.8019 0.947039 -0.0426669 0
M  V30 476 H 44.5079 3.49001 0.434913 0
M  V30 477 H 44.3819 3.10467 2.1422 0
M  V30 478 H 46.7689 2.11655 2.05637 0
M  V30 479 H 46.8499 2.53542 0.339155 0
M  V30 480 H 46.4939 4.99048 0.944135 0
M  V30 481 H 46.4239 4.54094 2.66658 0
M  V30 482 H 48.9149 3.44441 1.55464 0
M  V30 483 H 49.2279 7.2779 2.59887 0
M  V30 484 H 47.5729 6.54287 2.34378 0
M  V30 485 H 50.7639 4.30051 1.84861 0
M  V30 486 H 50.9369 6.04854 2.325 0
M  V30 487 N 44.343 -0.763751 1.37857 0
M  V30 488 C 45.568 -1.55805 1.36893 0
M  V30 489 C 45.993 -1.88054 -0.0416135 0
M  V30 490 O 45.351 -1.49825 -1.02089 0
M  V30 491 C 45.399 -2.84012 2.22192 0
M  V30 492 O 44.503 -3.78732 1.63204 0
M  V30 493 H 43.844 -0.471638 0.46739 0
M  V30 494 H 46.374 -0.944657 1.81487 0
M  V30 495 H 46.384 -3.33037 2.35691 0
M  V30 496 H 45.059 -2.59869 3.24716 0
M  V30 497 H 43.636 -3.37402 1.58791 0
M  V30 498 N 45.8211 -1.22559 -0.990812 0
M  V30 499 C 47.0701 -1.04553 -1.72486 0
M  V30 500 C 47.3831 0.419349 -1.91052 0
M  V30 501 O 48.5891 0.719121 -2.61803 0
M  V30 502 C 47.0451 -1.82231 -3.10355 0
M  V30 503 C 46.6531 -3.32981 -2.99713 0
M  V30 504 C 48.3971 -1.7268 -3.87791 0
M  V30 505 C 46.3041 -4.03091 -4.32748 0
M  V30 506 H 45.2341 -0.387614 -0.646739 0
M  V30 507 H 47.8851 -1.46429 -1.10593 0
M  V30 508 H 46.2671 -1.33155 -3.72942 0
M  V30 509 H 47.4411 -3.89466 -2.46278 0
M  V30 510 H 45.7561 -3.43231 -2.35758 0
M  V30 511 H 48.3531 -2.22381 -4.86262 0
M  V30 512 H 48.6961 -0.687607 -4.10582 0
M  V30 513 H 49.2291 -2.1931 -3.31885 0
M  V30 514 H 45.9681 -5.07273 -4.15156 0
M  V30 515 H 45.4881 -3.51394 -4.86089 0
M  V30 516 H 47.1671 -4.08804 -5.01486 0
M  V30 517 N 47.2992 1.18797 -1.03562 0
M  V30 518 C 48.2092 2.25913 -0.632505 0
M  V30 519 C 49.2252 1.70668 0.338882 0
M  V30 520 O 50.4012 2.00453 0.195076 0
M  V30 521 C 47.4662 3.467 0.00350942 0
M  V30 522 C 46.5272 4.17098 -1.01624 0
M  V30 523 C 45.7602 5.32119 -0.410478 0
M  V30 524 O 45.9832 5.64976 0.784725 0
M  V30 525 O 44.9172 5.9107 -1.13667 0
M  V30 526 H 48.7432 2.62648 -1.52478 0
M  V30 527 H 46.3282 1.25781 -0.806195 0
M  V30 528 H 48.2102 4.19878 0.35781 0
M  V30 529 H 46.8852 3.11798 0.869686 0
M  V30 530 H 45.7922 3.4601 -1.42224 0
M  V30 531 H 47.1252 4.55987 -1.85301 0
M  V30 532 N 48.7773 0.814389 1.34928 0
M  V30 533 C 50.1883 0.458364 1.80986 0
M  V30 534 C 50.5393 -1.02042 1.67577 0
M  V30 535 O 49.6643 -1.79352 1.21086 0
M  V30 536 C 50.2593 0.825212 3.28597 0
M  V30 537 C 48.8183 0.521677 3.72767 0
M  V30 538 C 47.9653 1.04668 2.56788 0
M  V30 539 H 50.9163 1.00533 1.22795 0
M  V30 540 H 50.9373 0.12571 3.80292 0
M  V30 541 H 50.4493 1.90154 3.38324 0
M  V30 542 H 48.5503 -0.545589 3.68584 0
M  V30 543 H 48.6633 1.05977 4.67232 0
M  V30 544 H 47.0273 0.468622 2.50352 0
M  V30 545 H 47.8103 2.12927 2.6929 0
M  V30 546 N 50.2554 -1.46986 0.568584 0
M  V30 547 C 51.5034 -2.02041 0.0487022 0
M  V30 548 C 51.8244 -1.44408 -1.31039 0
M  V30 549 O 51.0944 -0.623477 -1.85714 0
M  V30 550 H 49.6744 -0.746849 0.015014 0
M  V30 551 H 52.3364 -1.80257 0.741168 0
M  V30 552 H 51.4324 -3.12085 -0.0308961 0
M  V30 553 N 51.7335 -0.305618 -1.54608 0
M  V30 554 C 53.0105 0.355652 -1.92339 0
M  V30 555 C 53.3905 1.71324 -1.23335 0
M  V30 556 O 52.7385 2.25473 -0.370702 0
M  V30 557 C 52.9485 0.46572 -3.45879 0
M  V30 558 C 54.2965 0.734426 -4.182 0
M  V30 559 O 55.3205 0.54935 -3.51938 0
M  V30 560 O 54.1795 1.09024 -5.35515 0
M  V30 561 H 51.2735 0.199666 -0.802535 0
M  V30 562 H 53.8195 -0.354017 -1.65966 0
M  V30 563 H 52.5915 -0.488461 -3.88239 0
M  V30 564 H 52.2145 1.22367 -3.78301 0
M  V30 565 N 53.2116 1.57565 -0.0334293 0
M  V30 566 C 54.4606 1.91155 0.643639 0
M  V30 567 C 54.7736 0.91192 1.73042 0
M  V30 568 O 55.9796 1.13923 2.46442 0
M  V30 569 C 54.4356 3.39443 1.1961 0
M  V30 570 C 54.0436 4.47774 0.142381 0
M  V30 571 C 55.7876 3.82094 1.84944 0
M  V30 572 C 53.6946 5.87162 0.706727 0
M  V30 573 H 52.6246 0.713368 0.244176 0
M  V30 574 H 55.2756 1.8323 -0.0994323 0
M  V30 575 H 53.6576 3.42313 1.99092 0
M  V30 576 H 54.8316 4.56469 -0.630296 0
M  V30 577 H 53.1466 4.14352 -0.412446 0
M  V30 578 H 55.7436 4.83591 2.2813 0
M  V30 579 H 56.0866 3.17386 2.69392 0
M  V30 580 H 56.6196 3.81665 1.12145 0
M  V30 581 H 53.3586 6.55424 -0.0997178 0
M  V30 582 H 52.8786 5.82064 1.44779 0
M  V30 583 H 54.5576 6.35866 1.19514 0
M  V30 584 N 54.6897 -0.239769 1.55765 0
M  V30 585 C 56.1007 -0.808263 1.68297 0
M  V30 586 C 56.4517 -1.85736 0.632181 0
M  V30 587 O 55.5767 -2.15277 -0.220204 0
M  V30 588 C 56.1717 -1.47284 3.05111 0
M  V30 589 C 54.7307 -1.98895 3.19559 0
M  V30 590 C 53.8777 -0.842575 2.64189 0
M  V30 591 H 56.8287 -0.0154422 1.58692 0
M  V30 592 H 56.8497 -2.34111 2.99954 0
M  V30 593 H 56.3617 -0.709053 3.81568 0
M  V30 594 H 54.4627 -2.78132 2.47938 0
M  V30 595 H 54.5757 -2.18143 4.26556 0
M  V30 596 H 52.9397 -1.24501 2.22197 0
M  V30 597 H 53.7227 -0.0917552 3.43177 0
M  V30 598 N 56.1678 -1.49265 -0.50573 0
M  V30 599 C 57.3958 -1.62215 -1.28429 0
M  V30 600 C 57.8108 -0.291697 -1.86533 0
M  V30 601 O 57.1678 0.722233 -1.67601 0
M  V30 602 C 57.2188 -2.68735 -2.41793 0
M  V30 603 O 56.9398 -3.96619 -1.86078 0
M  V30 604 C 58.4408 -2.92346 -3.3324 0
M  V30 605 H 55.6608 -0.546239 -0.389697 0
M  V30 606 H 58.2048 -1.95265 -0.607609 0
M  V30 607 H 56.3598 -2.38476 -3.053 0
M  V30 608 H 56.7738 -4.55256 -2.60465 0
M  V30 609 H 58.2478 -3.70623 -4.09075 0
M  V30 610 H 58.7248 -2.02081 -3.89948 0
M  V30 611 H 59.3308 -3.24003 -2.75503 0
M  V30 612 N 57.6459 0.756429 -1.3826 0
M  V30 613 C 59.0569 1.33359 -1.30661 0
M  V30 614 C 59.4079 1.96161 0.0388875 0
M  V30 615 O 58.5329 1.94874 0.940918 0
M  V30 616 C 59.1279 2.42477 -2.36622 0
M  V30 617 C 57.6869 2.95922 -2.3261 0
M  V30 618 C 56.8339 1.69275 -2.19639 0
M  V30 619 H 59.7849 0.55552 -1.4866 0
M  V30 620 H 59.8059 3.22345 -2.02174 0
M  V30 621 H 59.3179 1.96739 -3.34538 0
M  V30 622 H 57.4189 3.45996 -1.38267 0
M  V30 623 H 57.5319 3.50494 -3.26636 0
M  V30 624 H 55.8959 1.92793 -1.66442 0
M  V30 625 H 56.6789 1.25619 -3.19491 0
M  V30 626 N 59.124 1.23083 0.984299 0
M  V30 627 C 60.054 1.03292 2.09411 0
M  V30 628 C 61.035 -0.048923 1.7003 0
M  V30 629 O 62.22 0.114967 1.93859 0
M  V30 630 C 59.35 0.619155 3.41736 0
M  V30 631 C 58.304 1.64791 3.95004 0
M  V30 632 C 57.63 1.0897 5.23478 0
M  V30 633 C 58.93 3.03999 4.24714 0
M  V30 634 H 60.624 1.96119 2.26225 0
M  V30 635 H 58.17 0.944344 1.08711 0
M  V30 636 H 60.123 0.467777 4.18796 0
M  V30 637 H 58.847 -0.344786 3.24775 0
M  V30 638 H 57.506 1.78721 3.20085 0
M  V30 639 H 57.154 0.11686 5.02864 0
M  V30 640 H 56.854 1.77704 5.60085 0
M  V30 641 H 58.378 0.950093 6.03163 0
M  V30 642 H 59.792 2.93393 4.92538 0
M  V30 643 H 58.189 3.69936 4.72512 0
M  V30 644 H 59.259 3.53285 3.32142 0
M  V30 645 N 60.6021 -1.18246 1.0419 0
M  V30 646 C 61.5351 -2.20746 0.578474 0
M  V30 647 C 62.5131 -1.57912 -0.387624 0
M  V30 648 O 63.6971 -1.86071 -0.301634 0
M  V30 649 C 60.8241 -3.38346 -0.154762 0
M  V30 650 C 59.8701 -4.19587 0.764782 0
M  V30 651 S 60.7031 -4.86014 2.24835 0
M  V30 652 C 61.8591 -6.07012 1.526 0
M  V30 653 H 62.0921 -2.59715 1.44691 0
M  V30 654 H 59.6251 -1.287 0.85297 0
M  V30 655 H 61.5831 -4.065 -0.571641 0
M  V30 656 H 60.2441 -2.97786 -0.999105 0
M  V30 657 H 59.4371 -5.03611 0.197976 0
M  V30 658 H 59.0391 -3.56818 1.12057 0
M  V30 659 H 61.3311 -6.72523 0.819733 0
M  V30 660 H 62.2741 -6.68202 2.34333 0
M  V30 661 H 62.6821 -5.55249 1.01779 0
M  V30 662 N 62.0802 -0.821533 -1.34494 0
M  V30 663 C 63.3282 -0.408139 -1.97936 0
M  V30 664 C 63.6492 1.03193 -1.65457 0
M  V30 665 O 62.9192 1.71622 -0.944595 0
M  V30 666 H 61.4992 -0.147928 -0.732206 0
M  V30 667 H 64.1612 -1.05067 -1.64155 0
M  V30 668 H 63.2572 -0.52601 -3.07635 0
M  V30 669 N 63.5583 1.46682 -0.576371 0
M  V30 670 C 64.4683 2.34032 0.163141 0
M  V30 671 C 65.4843 1.49367 0.892501 0
M  V30 672 O 66.6603 1.82252 0.857106 0
M  V30 673 C 63.7253 3.26435 1.16795 0
M  V30 674 C 62.7863 4.26998 0.443944 0
M  V30 675 C 62.0193 5.14986 1.40088 0
M  V30 676 O 62.2423 5.05785 2.637 0
M  V30 677 O 61.1763 5.94906 0.914917 0
M  V30 678 H 65.0023 2.98607 -0.55388 0
M  V30 679 H 62.5873 1.45554 -0.336821 0
M  V30 680 H 64.4693 3.83459 1.74748 0
M  V30 681 H 63.1443 2.64465 1.86655 0
M  V30 682 H 62.0513 3.7368 -0.177271 0
M  V30 683 H 63.3843 4.91736 -0.213566 0
M  V30 684 N 65.0364 0.313813 1.54444 0
M  V30 685 C 66.2664 -0.293491 2.04505 0
M  V30 686 C 66.6744 -1.47086 1.19005 0
M  V30 687 O 66.0174 -1.82481 0.211257 0
M  V30 688 C 66.0794 -0.800455 3.50475 0
M  V30 689 C 65.7434 0.253322 4.56297 0
M  V30 690 C 66.7404 1.08612 5.08428 0
M  V30 691 C 64.4254 0.398708 5.00715 0
M  V30 692 C 66.4194 2.05013 6.0353 0
M  V30 693 C 64.1064 1.36614 5.95634 0
M  V30 694 C 65.1044 2.19033 6.46926 0
M  V30 695 O 64.7924 3.14134 7.39983 0
M  V30 696 H 64.5244 -0.0658325 0.672787 0
M  V30 697 H 67.0784 0.455177 2.00293 0
M  V30 698 H 65.3084 -1.59987 3.52053 0
M  V30 699 H 66.9974 -1.32504 3.83663 0
M  V30 700 H 67.7634 0.984736 4.74898 0
M  V30 701 H 63.6424 -0.23289 4.60411 0
M  V30 702 H 67.1864 2.69382 6.4349 0
M  V30 703 H 63.0834 1.4682 6.28581 0
M  V30 704 H 63.8514 3.0926 7.57826 0
M  V30 705 N 66.5145 -1.57545 0.0417849 0
M  V30 706 C 67.7445 -1.96339 -0.642995 0
M  V30 707 C 68.1525 -0.917536 -1.65463 0
M  V30 708 O 67.4955 0.107747 -1.83384 0
M  V30 709 C 67.5575 -3.31333 -1.39494 0
M  V30 710 C 67.2215 -4.53796 -0.540204 0
M  V30 711 C 68.2185 -5.19553 0.189806 0
M  V30 712 C 65.9035 -5.0006 -0.473886 0
M  V30 713 C 67.8975 -6.29904 0.974674 0
M  V30 714 C 65.5845 -6.10289 0.314677 0
M  V30 715 C 66.5825 -6.75072 1.03765 0
M  V30 716 O 66.2705 -7.83183 1.81327 0
M  V30 717 H 66.0025 -0.651241 -0.181277 0
M  V30 718 H 68.5565 -2.05148 0.101665 0
M  V30 719 H 66.7865 -3.19052 -2.18502 0
M  V30 720 H 68.4755 -3.54942 -1.96904 0
M  V30 721 H 69.2415 -4.84774 0.147981 0
M  V30 722 H 65.1205 -4.49433 -1.0262 0
M  V30 723 H 68.6645 -6.80401 1.5395 0
M  V30 724 H 64.5615 -6.44506 0.358174 0
M  V30 725 H 65.3295 -7.99913 1.73438 0
M  V30 726 N 67.9926 0.231505 -1.5589 0
M  V30 727 C 69.4086 0.580748 -1.48659 0
M  V30 728 C 69.6086 1.87617 -0.73498 0
M  V30 729 O 68.6646 2.51046 -0.270586 0
M  V30 730 C 69.9776 0.669202 -2.93159 0
M  V30 731 C 71.5256 0.760499 -3.03621 0
M  V30 732 C 72.0006 0.880383 -4.49459 0
M  V30 733 N 73.4916 0.944861 -4.53461 0
M  V30 734 C 74.2266 1.05716 -5.63571 0
M  V30 735 N 73.7226 1.13403 -6.83456 0
M  V30 736 N 75.5156 1.09152 -5.514 0
M  V30 737 H 67.6666 -0.618695 -2.03189 0
M  V30 738 H 69.9296 -0.215728 -0.923128 0
M  V30 739 H 69.6356 -0.212904 -3.51055 0
M  V30 740 H 69.5096 1.5361 -3.44505 0
M  V30 741 H 71.8966 1.63305 -2.45796 0
M  V30 742 H 71.9776 -0.131864 -2.5546 0
M  V30 743 H 71.6216 0.0123284 -5.07899 0
M  V30 744 H 71.5516 1.78802 -4.95316 0
M  V30 745 H 74.0426 0.896176 -3.6712 0
M  V30 746 H 74.3556 1.21921 -7.63122 0
M  V30 747 H 72.7006 1.10333 -6.86186 0
M  V30 748 H 75.8916 1.02805 -4.56671 0
M  V30 749 H 76.0646 1.17558 -6.37247 0
M  V30 750 N 69.4707 1.49531 0.497807 0
M  V30 751 C 70.4027 1.62559 1.61578 0
M  V30 752 C 71.4157 0.508134 1.54667 0
M  V30 753 O 72.6047 0.780309 1.60541 0
M  V30 754 C 69.7047 1.56925 3.00379 0
M  V30 755 C 68.8777 2.84257 3.3244 0
M  V30 756 C 67.9367 2.71632 4.50669 0
M  V30 757 O 66.9627 3.4557 4.52294 0
M  V30 758 N 68.1647 1.83391 5.5077 0
M  V30 759 H 70.9297 2.58981 1.50828 0
M  V30 760 H 68.4907 1.4666 0.685743 0
M  V30 761 H 70.4827 1.46129 3.77397 0
M  V30 762 H 69.0527 0.683483 3.05037 0
M  V30 763 H 68.2727 3.09381 2.44289 0
M  V30 764 H 69.5607 3.68666 3.5066 0
M  V30 765 H 68.9587 1.22583 5.52259 0
M  V30 766 H 67.5157 1.78515 6.26878 0
M  V30 767 N 70.9488 -0.749086 1.3866 0
M  V30 768 C 72.3648 -1.05276 1.19955 0
M  V30 769 C 72.5648 -2.01435 0.05134 0
M  V30 770 O 71.6208 -2.45232 -0.60147 0
M  V30 771 C 72.9338 -1.62853 2.52783 0
M  V30 772 C 74.4818 -1.75002 2.59506 0
M  V30 773 C 74.9568 -2.35991 3.92521 0
M  V30 774 N 76.4478 -2.43416 3.94085 0
M  V30 775 C 77.1828 -2.91511 4.9377 0
M  V30 776 N 76.6788 -3.39608 6.03853 0
M  V30 777 N 78.4718 -2.90592 4.81157 0
M  V30 778 H 70.6228 -0.111066 2.12109 0
M  V30 779 H 72.8858 -0.111901 0.941373 0
M  V30 780 H 72.5918 -0.99664 3.37283 0
M  V30 781 H 72.4658 -2.61854 2.715 0
M  V30 782 H 74.8528 -2.37317 1.75398 0
M  V30 783 H 74.9338 -0.74693 2.44652 0
M  V30 784 H 74.5778 -1.74308 4.77053 0
M  V30 785 H 74.5078 -3.3695 4.04688 0
M  V30 786 H 76.9988 -2.09405 3.14576 0
M  V30 787 H 77.3118 -3.74775 6.75843 0
M  V30 788 H 75.6568 -3.37653 6.07466 0
M  V30 789 H 78.8478 -2.52332 3.94267 0
M  V30 790 H 79.0208 -3.27762 5.58996 0
M  V30 791 N 72.4269 -1.23603 -0.977757 0
M  V30 792 C 73.3899 -1.02069 -2.05218 0
M  V30 793 C 74.3899 0.0184305 -1.60789 0
M  V30 794 O 75.5799 -0.221569 -1.72785 0
M  V30 795 C 72.7119 -0.544926 -3.36517 0
M  V30 796 H 73.9049 -1.9742 -2.25755 0
M  V30 797 H 71.4579 -1.05684 -1.15155 0
M  V30 798 H 72.1929 0.412241 -3.21669 0
M  V30 799 H 71.9779 -1.2948 -3.70105 0
M  V30 800 H 73.4679 -0.414985 -4.15533 0
M  V30 801 N 73.905 1.17692 -1.04816 0
M  V30 802 C 75.13 1.92327 -0.776207 0
M  V30 803 C 75.555 1.76082 0.661581 0
M  V30 804 O 74.913 1.076 1.45917 0
M  V30 805 C 74.961 3.41539 -1.15687 0
M  V30 806 O 74.065 4.11402 -0.286775 0
M  V30 807 H 73.406 0.599735 -0.284981 0
M  V30 808 H 75.936 1.49201 -1.4 0
M  V30 809 H 75.946 3.92269 -1.12202 0
M  V30 810 H 74.621 3.52684 -2.20425 0
M  V30 811 H 73.198 3.70939 -0.381903 0
M  V30 812 N 75.3831 0.828654 1.34056 0
M  V30 813 C 76.3461 0.259927 2.27721 0
M  V30 814 C 77.3461 -0.565478 1.50529 0
M  V30 815 O 78.5361 -0.38075 1.69988 0
M  V30 816 C 75.6681 -0.634944 3.34935 0
M  V30 817 H 76.8611 1.0863 2.79534 0
M  V30 818 H 74.4141 0.600951 1.44285 0
M  V30 819 H 75.1491 -1.48416 2.88346 0
M  V30 820 H 74.9341 -0.0444999 3.92075 0
M  V30 821 H 76.4241 -1.02648 4.04788 0
M  V30 822 N 76.8612 -1.46375 0.584142 0
M  V30 823 C 78.1092 -2.01978 0.0701287 0
M  V30 824 C 78.4302 -1.4579 -1.295 0
M  V30 825 O 77.7002 -0.64314 -1.85042 0
M  V30 826 H 76.2802 -0.746648 0.0229345 0
M  V30 827 H 78.9422 -1.79461 0.760245 0
M  V30 828 H 78.0382 -3.121 0.0022064 0
M  V30 829 N 78.3393 -0.321999 -1.54275 0
M  V30 830 C 79.2693 0.537411 -2.27231 0
M  V30 831 C 80.2503 1.12064 -1.27968 0
M  V30 832 O 81.4353 1.14606 -1.56777 0
M  V30 833 C 78.5653 1.69919 -3.02894 0
M  V30 834 C 77.5193 1.24534 -4.09482 0
M  V30 835 C 76.8453 2.49394 -4.72977 0
M  V30 836 C 78.1453 0.361335 -5.21049 0
M  V30 837 H 79.8393 -0.0711406 -2.99315 0
M  V30 838 H 77.3853 -0.0356555 -1.43956 0
M  V30 839 H 79.3383 2.30668 -3.52662 0
M  V30 840 H 78.0623 2.33431 -2.28424 0
M  V30 841 H 76.7213 0.660782 -3.60596 0
M  V30 842 H 76.3693 3.11265 -3.95124 0
M  V30 843 H 76.0693 2.19718 -5.44975 0
M  V30 844 H 77.5933 3.10908 -5.25517 0
M  V30 845 H 79.0073 0.875072 -5.66582 0
M  V30 846 H 77.4043 0.157428 -5.99893 0
M  V30 847 H 78.4743 -0.60822 -4.8107 0
M  V30 848 N 79.8174 1.5752 -0.0501392 0
M  V30 849 C 81.0664 1.91827 0.623328 0
M  V30 850 C 81.3794 0.930222 1.72065 0
M  V30 851 O 82.5854 1.1653 2.4522 0
M  V30 852 C 81.0414 3.40692 1.16003 0
M  V30 853 C 80.6494 4.479 0.0948811 0
M  V30 854 C 82.3934 3.84034 1.80881 0
M  V30 855 C 80.3004 5.87879 0.644411 0
M  V30 856 H 79.2304 0.715918 0.236596 0
M  V30 857 H 81.8814 1.83115 -0.118861 0
M  V30 858 H 80.2634 3.44405 1.9545 0
M  V30 859 H 81.4374 4.55775 -0.678675 0
M  V30 860 H 79.7524 4.13892 -0.45637 0
M  V30 861 H 82.3494 4.85984 2.22988 0
M  V30 862 H 82.6924 3.20225 2.6601 0
M  V30 863 H 83.2254 3.82833 1.0809 0
M  V30 864 H 79.9644 6.55282 -0.169229 0
M  V30 865 H 79.4844 5.83567 1.38598 0
M  V30 866 H 81.1634 6.37098 1.12763 0
M  V30 867 N 81.2955 -0.223234 1.56011 0
M  V30 868 C 82.5445 -0.945912 1.78144 0
M  V30 869 C 82.8575 -1.85567 0.618396 0
M  V30 870 O 84.0635 -2.61688 0.723318 0
M  V30 871 C 82.5195 -1.73216 3.15475 0
M  V30 872 C 82.1275 -0.868619 4.39499 0
M  V30 873 C 83.8715 -2.44615 3.46935 0
M  V30 874 C 81.7785 -1.65212 5.67855 0
M  V30 875 H 80.7085 -0.356929 0.664167 0
M  V30 876 H 83.3595 -0.199845 1.82409 0
M  V30 877 H 81.7415 -2.52107 3.05382 0
M  V30 878 H 82.9155 -0.120366 4.60643 0
M  V30 879 H 81.2305 -0.26683 4.15544 0
M  V30 880 H 83.8275 -3.03732 4.40058 0
M  V30 881 H 84.1705 -3.17417 2.69355 0
M  V30 882 H 84.7035 -1.72715 3.58349 0
M  V30 883 H 81.4425 -0.967407 6.48322 0
M  V30 884 H 80.9625 -2.37503 5.50774 0
M  V30 885 H 82.6415 -2.21322 6.07968 0
M  V30 886 N 82.7736 -1.49793 -0.48987 0
M  V30 887 C 83.9986 -1.63836 -1.27172 0
M  V30 888 C 84.4236 -0.31402 -1.8546 0
M  V30 889 O 83.7816 0.719803 -1.66399 0
M  V30 890 C 83.8296 -2.71797 -2.36978 0
M  V30 891 O 82.9336 -2.31744 -3.41128 0
M  V30 892 H 82.2746 -0.547997 -0.37496 0
M  V30 893 H 84.8046 -1.96053 -0.585191 0
M  V30 894 H 84.8146 -2.94305 -2.82575 0
M  V30 895 H 83.4896 -3.67923 -1.93921 0
M  V30 896 H 82.0666 -2.1961 -3.01373 0
M  V30 897 N 84.2517 0.741722 -1.39055 0
M  V30 898 C 85.1617 1.88621 -1.39496 0
M  V30 899 C 86.1777 1.71557 -0.290578 0
M  V30 900 O 87.3537 1.94275 -0.530954 0
M  V30 901 C 84.4187 3.24134 -1.23037 0
M  V30 902 C 83.4797 3.5364 -2.43387 0
M  V30 903 C 82.7127 4.82687 -2.27703 0
M  V30 904 O 82.9357 5.55922 -1.27696 0
M  V30 905 O 81.8697 5.1194 -3.16545 0
M  V30 906 H 85.6957 1.91203 -2.35956 0
M  V30 907 H 83.2807 0.888625 -1.20099 0
M  V30 908 H 85.1627 4.0513 -1.15964 0
M  V30 909 H 83.8377 3.22337 -0.296691 0
M  V30 910 H 82.7447 2.72758 -2.56035 0
M  V30 911 H 84.0777 3.60209 -3.35425 0
M  V30 912 N 85.7298 1.2412 0.971189 0
M  V30 913 C 86.6928 1.03156 2.04674 0
M  V30 914 C 87.6928 -0.00990322 1.60797 0
M  V30 915 O 88.8828 0.230729 1.72665 0
M  V30 916 C 86.0148 0.562765 3.36223 0
M  V30 917 H 87.2078 1.98614 2.24705 0
M  V30 918 H 84.7608 1.06293 1.14593 0
M  V30 919 H 85.4958 -0.395176 3.21883 0
M  V30 920 H 85.2808 1.31441 3.69413 0
M  V30 921 H 86.7708 0.437015 4.15307 0
M  V30 922 N 87.2079 -1.17134 1.05439 0
M  V30 923 C 88.4359 -1.91372 0.786414 0
M  V30 924 C 88.8509 -1.76955 -0.658202 0
M  V30 925 O 88.2079 -1.10838 -1.44987 0
M  V30 926 C 88.2589 -3.42356 1.1608 0
M  V30 927 O 87.9799 -3.56332 2.54871 0
M  V30 928 C 89.4809 -4.33663 0.919322 0
M  V30 929 H 86.7009 -0.607118 0.285743 0
M  V30 930 H 89.2449 -1.48525 1.40572 0
M  V30 931 H 87.3999 -3.82939 0.586191 0
M  V30 932 H 87.8139 -4.49896 2.69618 0
M  V30 933 H 89.2879 -5.38099 1.231 0
M  V30 934 H 89.7649 -4.38959 -0.145359 0
M  V30 935 H 90.3709 -3.98796 1.47789 0
M  V30 936 N 88.686 -0.835752 -1.33615 0
M  V30 937 C 89.618 -0.224151 -2.28101 0
M  V30 938 C 90.631 0.593331 -1.51603 0
M  V30 939 O 91.82 0.420911 -1.73466 0
M  V30 940 C 88.92 0.703309 -3.31522 0
M  V30 941 C 88.093 -0.0741528 -4.37337 0
M  V30 942 C 87.152 0.776176 -5.20444 0
M  V30 943 O 86.178 0.216506 -5.68788 0
M  V30 944 N 87.38 2.09401 -5.41416 0
M  V30 945 H 90.145 -1.03598 -2.81225 0
M  V30 946 H 87.706 -0.69392 -1.46275 0
M  V30 947 H 89.698 1.27707 -3.84022 0
M  V30 948 H 88.268 1.41585 -2.78698 0
M  V30 949 H 87.488 -0.82928 -3.85378 0
M  V30 950 H 88.776 -0.608863 -5.05144 0
M  V30 951 H 88.174 2.57229 -5.03835 0
M  V30 952 H 86.731 2.61633 -5.96985 0
M  V30 953 N 90.1641 1.46063 -0.591896 0
M  V30 954 C 91.4131 2.01547 -0.0786637 0
M  V30 955 C 91.7261 1.46796 1.29268 0
M  V30 956 O 92.9321 1.94157 1.89777 0
M  V30 957 C 91.3881 3.59787 -0.0900024 0
M  V30 958 C 90.9961 4.23534 -1.46023 0
M  V30 959 C 92.7401 4.22895 0.368806 0
M  V30 960 C 90.6471 5.73881 -1.4288 0
M  V30 961 H 89.5771 0.753564 -0.0256388 0
M  V30 962 H 92.2281 1.677 -0.744905 0
M  V30 963 H 90.6101 3.90752 0.642586 0
M  V30 964 H 91.7841 4.04167 -2.21328 0
M  V30 965 H 90.0991 3.72558 -1.85982 0
M  V30 966 H 92.6961 5.33116 0.411258 0
M  V30 967 H 93.0391 3.9247 1.38827 0
M  V30 968 H 93.5721 3.9659 -0.31001 0
M  V30 969 H 90.3111 6.0898 -2.42536 0
M  V30 970 H 89.8311 5.95486 -0.718095 0
M  V30 971 H 91.5101 6.36776 -1.14565 0
M  V30 972 N 91.6422 0.330177 1.54103 0
M  V30 973 C 92.8672 -0.274893 2.0557 0
M  V30 974 C 93.2922 -1.44487 1.20437 0
M  V30 975 O 92.6502 -1.80021 0.214991 0
M  V30 976 C 92.6982 -0.68079 3.54115 0
M  V30 977 O 91.8022 -1.7824 3.71893 0
M  V30 978 H 91.1432 -0.0483849 0.662235 0
M  V30 979 H 93.6732 0.480508 1.98878 0
M  V30 980 H 93.6832 -0.961635 3.96505 0
M  V30 981 H 92.3582 0.174903 4.15532 0
M  V30 982 H 90.9352 -1.49985 3.41407 0
M  V30 983 N 93.1203 -1.57491 0.0584922 0
M  V30 984 C 94.0833 -2.1085 -0.898617 0
M  V30 985 C 95.0833 -1.02964 -1.23511 0
M  V30 986 O 96.2733 -1.29007 -1.17059 0
M  V30 987 C 93.4053 -2.59881 -2.20623 0
M  V30 988 H 94.5983 -2.96715 -0.435936 0
M  V30 989 H 92.1513 -1.55141 -0.190023 0
M  V30 990 H 92.8863 -1.77431 -2.71457 0
M  V30 991 H 92.6713 -3.38727 -1.97501 0
M  V30 992 H 94.1613 -3.01285 -2.89166 0
M  V30 993 N 94.5984 0.214957 -1.56127 0
M  V30 994 C 95.5304 1.29004 -1.89448 0
M  V30 995 C 96.5434 1.42716 -0.783326 0
M  V30 996 O 97.7324 1.43496 -1.06166 0
M  V30 997 C 94.8324 2.66482 -2.09381 0
M  V30 998 C 94.0054 2.74633 -3.40434 0
M  V30 999 C 93.0644 3.9317 -3.49719 0
M  V30 1000 O 92.0904 3.812 -4.227 0
M  V30 1001 N 93.2924 5.07765 -2.81346 0
M  V30 1002 H 96.0574 1.00743 -2.82261 0
M  V30 1003 H 93.6184 0.40497 -1.56753 0
M  V30 1004 H 95.6104 3.44173 -2.12901 0
M  V30 1005 H 94.1804 2.87314 -1.23163 0
M  V30 1006 H 93.4004 1.83368 -3.48955 0
M  V30 1007 H 94.6884 2.77054 -4.26754 0
M  V30 1008 H 94.0864 5.20386 -2.21843 0
M  V30 1009 H 92.6434 5.83474 -2.90519 0
M  V30 1010 N 96.0765 1.50051 0.48192 0
M  V30 1011 C 97.0395 1.67584 1.5636 0
M  V30 1012 C 98.0395 0.546894 1.51214 0
M  V30 1013 O 99.2295 0.813725 1.54026 0
M  V30 1014 C 96.3615 1.691 2.96003 0
M  V30 1015 H 97.5545 2.64078 1.42136 0
M  V30 1016 H 95.1075 1.39369 0.707533 0
M  V30 1017 H 95.8425 0.742589 3.15684 0
M  V30 1018 H 95.6275 2.51105 3.01146 0
M  V30 1019 H 97.1175 1.84656 3.74556 0
M  V30 1020 N 97.5546 -0.734337 1.39446 0
M  V30 1021 C 98.5016 -1.84835 1.38219 0
M  V30 1022 C 99.4716 -1.64331 0.24179 0
M  V30 1023 O 100.657 -1.85728 0.437002 0
M  V30 1024 C 97.7966 -3.22355 1.23212 0
M  V30 1025 C 96.9096 -3.5456 2.46801 0
M  V30 1026 C 96.0446 -4.81485 2.24377 0
M  V30 1027 C 95.0836 -5.06536 3.43639 0
M  V30 1028 N 94.2206 -6.24665 3.20528 0
M  V30 1029 H 99.0606 -1.85219 2.33448 0
M  V30 1030 H 96.5976 -0.905039 1.15963 0
M  V30 1031 H 98.5556 -4.0174 1.12522 0
M  V30 1032 H 97.1856 -3.21248 0.316121 0
M  V30 1033 H 96.2376 -2.69872 2.68092 0
M  V30 1034 H 97.5496 -3.6899 3.3563 0
M  V30 1035 H 96.7036 -5.68852 2.10933 0
M  V30 1036 H 95.4426 -4.6923 1.32944 0
M  V30 1037 H 94.4476 -4.17632 3.5758 0
M  V30 1038 H 95.6726 -5.20676 4.35974 0
M  V30 1039 H 93.6186 -6.13696 2.3176 0
M  V30 1040 H 93.5356 -6.39685 4.02913 0
M  V30 1041 H 94.8036 -7.14868 3.10779 0
M  V30 1042 N 99.0327 -1.24633 -0.964593 0
M  V30 1043 C 100.281 -1.08573 -1.70459 0
M  V30 1044 C 100.602 0.375655 -1.91347 0
M  V30 1045 O 99.8717 1.26779 -1.49345 0
M  V30 1046 H 98.4517 -0.398784 -0.631649 0
M  V30 1047 H 101.114 -1.56601 -1.16026 0
M  V30 1048 H 100.21 -1.58623 -2.68785 0
M  V30 1049 N 100.511 1.16574 -1.06058 0
M  V30 1050 C 101.741 1.90675 -0.795397 0
M  V30 1051 C 102.149 1.77547 0.653735 0
M  V30 1052 O 101.492 1.11611 1.45907 0
M  V30 1053 C 101.554 3.42011 -1.10764 0
M  V30 1054 C 101.218 3.78924 -2.55471 0
M  V30 1055 C 102.215 3.81042 -3.53699 0
M  V30 1056 C 99.8998 4.09626 -2.90708 0
M  V30 1057 C 101.894 4.13346 -4.85205 0
M  V30 1058 C 99.5808 4.41597 -4.22416 0
M  V30 1059 C 100.579 4.43436 -5.19474 0
M  V30 1060 O 100.267 4.74649 -6.48817 0
M  V30 1061 H 99.9988 0.611554 -0.288058 0
M  V30 1062 H 102.553 1.48711 -1.41683 0
M  V30 1063 H 100.783 3.84312 -0.429128 0
M  V30 1064 H 102.472 3.97384 -0.827077 0
M  V30 1065 H 103.238 3.57437 -3.27817 0
M  V30 1066 H 99.1168 4.07361 -2.15819 0
M  V30 1067 H 102.661 4.14696 -5.60957 0
M  V30 1068 H 98.5578 4.64667 -4.48056 0
M  V30 1069 H 99.3258 4.9247 -6.5377 0
M  V30 1070 N 101.989 0.842826 1.3317 0
M  V30 1071 C 102.952 0.284065 2.27433 0
M  V30 1072 C 103.952 -0.54948 1.5112 0
M  V30 1073 O 105.142 -0.362699 1.70382 0
M  V30 1074 C 102.274 -0.599384 3.35589 0
M  V30 1075 H 103.467 1.11589 2.78366 0
M  V30 1076 H 101.02 0.616221 1.4364 0
M  V30 1077 H 101.755 -1.45349 2.89904 0
M  V30 1078 H 101.54 -0.00291266 3.921 0
M  V30 1079 H 103.03 -0.983488 4.05854 0
M  V30 1080 N 103.467 -1.45747 0.599634 0
M  V30 1081 C 104.715 -2.01893 0.0915472 0
M  V30 1082 C 105.036 -1.47155 -1.27946 0
M  V30 1083 O 104.306 -0.66273 -1.84349 0
M  V30 1084 H 102.886 -0.746363 0.0308524 0
M  V30 1085 H 105.548 -1.78645 0.779237 0
M  V30 1086 H 104.644 -3.1208 0.0353086 0
M  V30 1087 N 104.945 -0.338344 -1.53925 0
M  V30 1088 C 105.908 0.508299 -2.23493 0
M  V30 1089 C 106.908 1.03175 -1.23335 0
M  V30 1090 O 108.098 0.921826 -1.47811 0
M  V30 1091 C 105.23 1.70754 -2.95052 0
M  V30 1092 H 106.423 -0.100058 -2.99733 0
M  V30 1093 H 103.976 -0.0896198 -1.56043 0
M  V30 1094 H 104.711 2.35474 -2.22986 0
M  V30 1095 H 104.496 1.33946 -3.68512 0
M  V30 1096 H 105.986 2.30818 -3.48013 0
M  V30 1097 N 106.423 1.57458 -0.0668435 0
M  V30 1098 C 107.834 1.80776 0.466558 0
M  V30 1099 C 108.185 0.980361 1.69951 0
M  V30 1100 O 107.31 0.201441 2.1546 0
M  V30 1101 C 107.905 3.27881 0.85321 0
M  V30 1102 C 106.464 3.52062 1.3315 0
M  V30 1103 C 105.611 2.75513 0.314264 0
M  V30 1104 H 108.562 1.5598 -0.292588 0
M  V30 1105 H 108.583 3.39659 1.715 0
M  V30 1106 H 108.095 3.88075 -0.0443439 0
M  V30 1107 H 106.196 2.97167 2.24772 0
M  V30 1108 H 106.309 4.60762 1.31285 0
M  V30 1109 H 104.673 2.42123 0.790492 0
M  V30 1110 H 105.456 3.38442 -0.575477 0
M  V30 1111 N 107.901 -0.206675 1.56239 0
M  V30 1112 C 109.149 -0.927007 1.79586 0
M  V30 1113 C 109.47 -1.8427 0.637929 0
M  V30 1114 O 108.74 -1.92849 -0.344398 0
M  V30 1115 H 107.32 -0.345292 0.662407 0
M  V30 1116 H 109.982 -0.21496 1.93711 0
M  V30 1117 H 109.078 -1.52501 2.72305 0
M  V30 1118 N 109.379 -1.50304 -0.473955 0
M  V30 1119 C 110.309 -1.71886 -1.58042 0
M  V30 1120 C 111.29 -0.567799 -1.60344 0
M  V30 1121 O 112.475 -0.806623 -1.76656 0
M  V30 1122 C 109.605 -1.81036 -2.96384 0
M  V30 1123 C 108.559 -2.962 -3.08949 0
M  V30 1124 C 107.885 -2.9049 -4.48909 0
M  V30 1125 C 109.185 -4.36752 -2.86434 0
M  V30 1126 H 110.879 -2.64527 -1.40234 0
M  V30 1127 H 108.425 -1.27295 -0.673201 0
M  V30 1128 H 110.378 -1.94719 -3.73714 0
M  V30 1129 H 109.102 -0.850147 -3.15341 0
M  V30 1130 H 107.761 -2.82164 -2.3405 0
M  V30 1131 H 107.409 -1.92321 -4.64781 0
M  V30 1132 H 107.109 -3.67802 -4.58253 0
M  V30 1133 H 108.633 -3.06218 -5.28264 0
M  V30 1134 H 110.047 -4.5133 -3.53517 0
M  V30 1135 H 108.444 -5.15493 -3.07225 0
M  V30 1136 H 109.514 -4.49321 -1.82316 0
M  V30 1137 N 110.857 0.726932 -1.39834 0
M  V30 1138 C 111.807 1.83232 -1.35683 0
M  V30 1139 C 112.791 1.59155 -0.236295 0
M  V30 1140 O 113.983 1.70522 -0.474488 0
M  V30 1141 C 111.112 3.21246 -1.21062 0
M  V30 1142 C 110.198 3.51125 -2.37849 0
M  V30 1143 N 110.589 3.51889 -3.63329 0
M  V30 1144 C 108.887 3.81527 -2.30982 0
M  V30 1145 C 109.588 3.79791 -4.40606 0
M  V30 1146 N 108.564 3.97971 -3.70297 0
M  V30 1147 H 112.366 1.8214 -2.30656 0
M  V30 1148 H 109.88 0.925545 -1.33444 0
M  V30 1149 H 111.877 4.00387 -1.16171 0
M  V30 1150 H 110.537 3.23572 -0.270458 0
M  V30 1151 H 111.548 3.33008 -3.96643 0
M  V30 1152 H 108.225 3.91411 -1.45272 0
M  V30 1153 H 109.615 3.86783 -5.49408 0
M  V30 1154 N 112.336 1.25143 0.95797 0
M  V30 1155 C 113.561 1.12521 1.74223 0
M  V30 1156 C 113.986 -0.317402 1.85403 0
M  V30 1157 O 113.344 -1.2299 1.33204 0
M  V30 1158 C 113.392 1.78062 3.1357 0
M  V30 1159 O 112.496 1.058 3.98598 0
M  V30 1160 H 111.837 0.39304 0.535178 0
M  V30 1161 H 114.367 1.65641 1.201 0
M  V30 1162 H 114.377 1.84213 3.64046 0
M  V30 1163 H 113.052 2.83021 3.04749 0
M  V30 1164 H 111.629 1.07506 3.57067 0
M  V30 1165 N 113.814 -1.1601 1.06675 0
M  V30 1166 C 115.225 -1.68235 0.809565 0
M  V30 1167 C 115.576 -1.8454 -0.666303 0
M  V30 1168 O 114.701 -1.54374 -1.5165 0
M  V30 1169 C 115.296 -3.05585 1.46299 0
M  V30 1170 C 113.855 -3.54915 1.25349 0
M  V30 1171 C 113.002 -2.30804 1.53703 0
M  V30 1172 H 115.953 -1.00318 1.22971 0
M  V30 1173 H 115.974 -3.70174 0.880431 0
M  V30 1174 H 115.486 -2.93686 2.53713 0
M  V30 1175 H 113.587 -3.72067 0.199261 0
M  V30 1176 H 113.7 -4.36774 1.9689 0
M  V30 1177 H 112.064 -2.36007 0.957739 0
M  V30 1178 H 112.847 -2.21499 2.62284 0
M  V30 1179 N 115.292 -0.849877 -1.32721 0
M  V30 1180 C 116.202 -0.293791 -2.32753 0
M  V30 1181 C 117.218 0.585906 -1.63839 0
M  V30 1182 O 118.394 0.487413 -1.95413 0
M  V30 1183 C 115.459 0.512752 -3.42887 0
M  V30 1184 C 114.52 -0.39252 -4.27502 0
M  V30 1185 C 113.753 0.375625 -5.32377 0
M  V30 1186 O 113.976 1.60613 -5.4732 0
M  V30 1187 O 112.91 -0.256094 -6.01355 0
M  V30 1188 H 116.736 -1.12242 -2.82197 0
M  V30 1189 H 114.321 -0.612685 -1.36259 0
M  V30 1190 H 116.203 0.970704 -4.10067 0
M  V30 1191 H 114.878 1.31826 -2.95641 0
M  V30 1192 H 113.785 -0.898547 -3.63149 0
M  V30 1193 H 115.118 -1.16309 -4.7826 0
M  V30 1194 N 116.77 1.45427 -0.607355 0
M  V30 1195 C 117.702 2.2871 0.149752 0
M  V30 1196 C 118.715 1.39937 0.831958 0
M  V30 1197 O 119.904 1.64313 0.697385 0
M  V30 1198 C 117.004 3.15673 1.23304 0
M  V30 1199 C 116.177 4.32722 0.637996 0
M  V30 1200 C 115.236 5.00895 1.61215 0
M  V30 1201 O 114.262 5.57697 1.13854 0
M  V30 1202 N 115.464 5.00159 2.94655 0
M  V30 1203 H 118.229 2.94328 -0.564882 0
M  V30 1204 H 115.79 1.55612 -0.446823 0
M  V30 1205 H 117.782 3.58144 1.88454 0
M  V30 1206 H 116.352 2.51965 1.8502 0
M  V30 1207 H 115.572 3.93734 -0.191572 0
M  V30 1208 H 116.86 5.08321 0.220665 0
M  V30 1209 H 116.258 4.553 3.35735 0
M  V30 1210 H 114.815 5.46495 3.55228 0
M  V30 1211 N 118.248 0.346503 1.53744 0
M  V30 1212 C 119.497 -0.250122 2.00143 0
M  V30 1213 C 119.81 -1.51418 1.23822 0
M  V30 1214 O 121.016 -2.18823 1.60713 0
M  V30 1215 C 119.472 -0.496252 3.56462 0
M  V30 1216 C 119.08 0.752077 4.41642 0
M  V30 1217 C 120.824 -1.05157 4.11269 0
M  V30 1218 C 118.731 0.476583 5.89477 0
M  V30 1219 H 117.661 -0.0972409 0.747703 0
M  V30 1220 H 120.312 0.46229 1.77581 0
M  V30 1221 H 118.694 -1.26944 3.75102 0
M  V30 1222 H 119.868 1.5266 4.34778 0
M  V30 1223 H 118.183 1.22925 3.97842 0
M  V30 1224 H 120.78 -1.27269 5.19333 0
M  V30 1225 H 121.123 -2.00799 3.64672 0
M  V30 1226 H 121.656 -0.339019 3.96353 0
M  V30 1227 H 118.395 1.4028 6.40314 0
M  V30 1228 H 117.915 -0.259794 5.99237 0
M  V30 1229 H 119.594 0.0949315 6.4693 0
M  V30 1230 N 119.726 -1.57421 0.075193 0
M  V30 1231 C 120.689 -2.11791 -0.876203 0
M  V30 1232 C 121.689 -1.04268 -1.22412 0
M  V30 1233 O 122.879 -1.30242 -1.15684 0
M  V30 1234 C 120.011 -2.62207 -2.17854 0
M  V30 1235 H 121.204 -2.9716 -0.40444 0
M  V30 1236 H 118.757 -1.55333 -0.173557 0
M  V30 1237 H 119.492 -1.803 -2.6956 0
M  V30 1238 H 119.277 -3.40802 -1.93897 0
M  V30 1239 H 120.767 -3.04335 -2.85955 0
M  V30 1240 N 121.204 0.198386 -1.56346 0
M  V30 1241 C 122.167 1.22952 -1.93431 0
M  V30 1242 C 123.167 1.38611 -0.815092 0
M  V30 1243 O 124.357 1.36479 -1.08255 0
M  V30 1244 C 121.489 2.59946 -2.20546 0
M  V30 1245 H 122.682 0.912626 -2.85677 0
M  V30 1246 H 120.235 0.43977 -1.49986 0
M  V30 1247 H 120.97 2.96696 -1.30927 0
M  V30 1248 H 120.755 2.49953 -3.02102 0
M  V30 1249 H 122.245 3.3431 -2.50253 0
M  V30 1250 N 122.682 1.50554 0.465978 0
M  V30 1251 C 123.928 1.63006 1.21658 0
M  V30 1252 C 124.283 0.328613 1.89573 0
M  V30 1253 O 123.576 -0.673813 1.79361 0
M  V30 1254 C 123.77 2.75152 2.28093 0
M  V30 1255 C 123.599 4.16075 1.7062 0
M  V30 1256 C 122.369 4.82408 1.50368 0
M  V30 1257 C 124.567 5.00145 1.1983 0
M  V30 1258 N 122.549 6.07532 0.881924 0
M  V30 1259 C 123.92 6.16035 0.700083 0
M  V30 1260 C 125.975 4.85882 1.08733 0
M  V30 1261 C 124.678 7.19228 0.101835 0
M  V30 1262 C 126.704 5.89257 0.503016 0
M  V30 1263 C 126.066 7.04398 0.0152005 0
M  V30 1264 H 122.165 0.650596 0.433877 0
M  V30 1265 H 124.749 1.8769 0.517746 0
M  V30 1266 H 122.92 2.52181 2.95397 0
M  V30 1267 H 124.652 2.76935 2.95109 0
M  V30 1268 H 121.407 4.39788 1.75737 0
M  V30 1269 H 121.831 6.7443 0.589312 0
M  V30 1270 H 126.473 3.97144 1.4504 0
M  V30 1271 H 124.191 8.07637 -0.273426 0
M  V30 1272 H 127.777 5.80286 0.419451 0
M  V30 1273 H 126.657 7.83021 -0.429856 0
M  V30 1274 N 124.16 -0.719506 1.40217 0
M  V30 1275 C 125.107 -1.83359 1.40172 0
M  V30 1276 C 126.077 -1.64065 0.259206 0
M  V30 1277 O 127.262 -1.85254 0.456677 0
M  V30 1278 C 124.402 -3.2103 1.26624 0
M  V30 1279 C 123.515 -3.51923 2.50548 0
M  V30 1280 C 122.65 -4.79079 2.29471 0
M  V30 1281 C 121.689 -5.02863 3.48992 0
M  V30 1282 N 120.826 -6.2123 3.27135 0
M  V30 1283 H 125.666 -1.82733 2.35399 0
M  V30 1284 H 123.203 -0.892688 1.16917 0
M  V30 1285 H 125.161 -4.00524 1.16776 0
M  V30 1286 H 123.791 -3.20895 0.350176 0
M  V30 1287 H 122.843 -2.67014 2.70939 0
M  V30 1288 H 124.155 -3.6541 3.39525 0
M  V30 1289 H 123.309 -5.66582 2.16955 0
M  V30 1290 H 122.048 -4.67794 1.37913 0
M  V30 1291 H 121.053 -4.13816 3.6199 0
M  V30 1292 H 122.278 -5.16023 4.41472 0
M  V30 1293 H 120.224 -6.11204 2.38256 0
M  V30 1294 H 120.141 -6.35375 4.09675 0
M  V30 1295 H 121.409 -7.11532 3.18344 0
M  V30 1296 N 125.638 -1.25649 -0.95132 0
M  V30 1297 C 126.585 -1.06323 -2.04851 0
M  V30 1298 C 127.555 0.0286491 -1.66075 0
M  V30 1299 O 128.74 -0.12917 -1.90362 0
M  V30 1300 C 125.88 -0.691529 -3.381 0
M  V30 1301 C 124.993 -1.85861 -3.89974 0
M  V30 1302 C 124.128 -1.43096 -5.11563 0
M  V30 1303 C 123.167 -2.56696 -5.55674 0
M  V30 1304 N 122.304 -2.14684 -6.68472 0
M  V30 1305 H 127.144 -2.00222 -2.20715 0
M  V30 1306 H 124.681 -0.997027 -1.08156 0
M  V30 1307 H 126.639 -0.456963 -4.1469 0
M  V30 1308 H 125.269 0.210474 -3.22113 0
M  V30 1309 H 124.321 -2.20639 -3.09875 0
M  V30 1310 H 125.633 -2.71161 -4.18657 0
M  V30 1311 H 124.787 -1.15624 -5.9558 0
M  V30 1312 H 123.526 -0.548722 -4.84603 0
M  V30 1313 H 122.531 -2.84909 -4.7022 0
M  V30 1314 H 123.756 -3.45503 -5.8464 0
M  V30 1315 H 121.702 -1.28881 -6.43215 0
M  V30 1316 H 121.619 -2.9353 -6.96689 0
M  V30 1317 H 122.887 -1.90397 -7.5589 0
M  V30 1318 N 127.117 1.15442 -1.07289 0
M  V30 1319 C 128.366 1.85557 -0.790669 0
M  V30 1320 C 128.679 1.83186 0.685739 0
M  V30 1321 O 129.885 2.48977 1.0827 0
M  V30 1322 C 128.341 3.33038 -1.36433 0
M  V30 1323 C 127.949 3.43856 -2.8717 0
M  V30 1324 C 129.693 4.0834 -1.1601 0
M  V30 1325 C 127.6 4.85482 -3.3773 0
M  V30 1326 H 126.53 0.695122 -0.292098 0
M  V30 1327 H 129.181 1.30219 -1.29287 0
M  V30 1328 H 127.563 3.88043 -0.789864 0
M  V30 1329 H 128.737 2.98961 -3.50655 0
M  V30 1330 H 127.052 2.81998 -3.06376 0
M  V30 1331 H 129.649 5.12859 -1.51262 0
M  V30 1332 H 129.992 4.16182 -0.0991007 0
M  V30 1333 H 130.525 3.59603 -1.70089 0
M  V30 1334 H 127.264 4.82823 -4.43353 0
M  V30 1335 H 126.784 5.30961 -2.78999 0
M  V30 1336 H 128.463 5.54335 -3.33648 0
M  V30 1337 N 128.595 0.856903 1.32268 0
M  V30 1338 C 129.823 0.475439 2.01363 0
M  V30 1339 C 130.238 -0.928486 1.64392 0
M  V30 1340 O 129.595 -1.60624 0.866387 0
M  V30 1341 C 129.646 0.607545 3.56358 0
M  V30 1342 O 129.367 1.95617 3.92002 0
M  V30 1343 C 130.868 0.225382 4.42727 0
M  V30 1344 H 128.088 0.186636 0.644521 0
M  V30 1345 H 130.632 1.15446 1.68797 0
M  V30 1346 H 128.787 -0.0237719 3.87393 0
M  V30 1347 H 129.201 1.95455 4.86721 0
M  V30 1348 H 130.675 0.368813 5.50767 0
M  V30 1349 H 131.152 -0.834369 4.31202 0
M  V30 1350 H 131.758 0.831864 4.17085 0
M  V30 1351 N 130.073 -1.45103 0.615059 0
M  V30 1352 C 131.036 -2.29025 -0.0895485 0
M  V30 1353 C 132.036 -1.40174 -0.787906 0
M  V30 1354 O 133.226 -1.62217 -0.634933 0
M  V30 1355 C 130.358 -3.21376 -1.13711 0
M  V30 1356 H 131.551 -2.92807 0.648382 0
M  V30 1357 H 129.104 -1.51749 0.374444 0
M  V30 1358 H 129.839 -2.6241 -1.90556 0
M  V30 1359 H 129.624 -3.86834 -0.640475 0
M  V30 1360 H 131.114 -3.84459 -1.63036 0
M  V30 1361 N 131.551 -0.354651 -1.53558 0
M  V30 1362 C 132.799 0.237972 -2.00694 0
M  V30 1363 C 133.12 1.50173 -1.24391 0
M  V30 1364 O 132.39 1.92673 -0.354135 0
M  V30 1365 H 130.97 0.0909256 -0.741446 0
M  V30 1366 H 133.632 -0.478368 -1.88938 0
M  V30 1367 H 132.728 0.47264 -3.085 0
M  V30 1368 N 133.029 1.57378 -0.0835403 0
M  V30 1369 C 134.275 1.94217 0.583733 0
M  V30 1370 C 134.608 0.964653 1.68547 0
M  V30 1371 O 133.883 -0.00422258 1.945 0
M  V30 1372 C 134.166 3.41253 1.14972 0
M  V30 1373 C 134.019 4.49768 0.0538277 0
M  V30 1374 C 135.338 3.89352 2.05166 0
M  V30 1375 H 132.457 0.706233 0.210724 0
M  V30 1376 H 135.099 1.89392 -0.1519 0
M  V30 1377 H 133.249 3.45496 1.77665 0
M  V30 1378 H 134.921 4.57641 -0.579851 0
M  V30 1379 H 133.164 4.29432 -0.614068 0
M  V30 1380 H 133.835 5.49817 0.490452 0
M  V30 1381 H 136.311 3.87189 1.52393 0
M  V30 1382 H 135.187 4.92822 2.41698 0
M  V30 1383 H 135.448 3.27973 2.96456 0
M  V30 1384 N 134.507 -0.190092 1.56449 0
M  V30 1385 C 135.457 -1.23977 1.91347 0
M  V30 1386 C 136.441 -1.40747 0.779693 0
M  V30 1387 O 137.633 -1.43033 1.04262 0
M  V30 1388 C 134.762 -2.58347 2.26079 0
M  V30 1389 C 133.848 -2.4535 3.45925 0
M  V30 1390 N 134.239 -2.02039 4.63696 0
M  V30 1391 C 132.537 -2.76229 3.50162 0
M  V30 1392 C 133.238 -2.01053 5.4585 0
M  V30 1393 N 132.214 -2.42747 4.8639 0
M  V30 1394 H 136.016 -0.896318 2.79899 0
M  V30 1395 H 133.53 -0.398496 1.57435 0
M  V30 1396 H 135.527 -3.34173 2.49267 0
M  V30 1397 H 134.187 -2.93512 1.38856 0
M  V30 1398 H 135.198 -1.7267 4.88268 0
M  V30 1399 H 131.875 -3.15556 2.73369 0
M  V30 1400 H 133.265 -1.69426 6.50188 0
M  V30 1401 N 135.985 -1.50799 -0.457987 0
M  V30 1402 C 136.948 -1.7005 -1.53674 0
M  V30 1403 C 137.948 -0.570881 -1.50325 0
M  V30 1404 O 139.138 -0.838126 -1.52712 0
M  V30 1405 C 136.27 -1.73788 -2.93276 0
M  V30 1406 H 137.463 -2.66306 -1.37917 0
M  V30 1407 H 135.016 -1.40477 -0.685271 0
M  V30 1408 H 135.751 -0.792717 -3.14462 0
M  V30 1409 H 135.536 -2.55864 -2.97113 0
M  V30 1410 H 137.026 -1.90591 -3.71571 0
M  V30 1411 N 137.463 0.71206 -1.40597 0
M  V30 1412 C 138.373 1.8562 -1.43466 0
M  V30 1413 C 139.389 1.70902 -0.326902 0
M  V30 1414 O 140.565 1.93105 -0.572043 0
M  V30 1415 C 137.63 3.21451 -1.29884 0
M  V30 1416 C 136.691 3.48398 -2.50833 0
M  V30 1417 C 135.924 4.77749 -2.3789 0
M  V30 1418 O 136.147 5.53089 -1.39459 0
M  V30 1419 O 135.081 5.05111 -3.27333 0
M  V30 1420 H 138.907 1.86155 -2.39958 0
M  V30 1421 H 136.492 0.86295 -1.21957 0
M  V30 1422 H 138.374 4.02579 -1.24531 0
M  V30 1423 H 137.049 3.21636 -0.364997 0
M  V30 1424 H 135.956 2.67265 -2.61763 0
M  V30 1425 H 137.289 3.53014 -3.4299 0
M  V30 1426 N 138.941 1.26152 0.944643 0
M  V30 1427 C 140.218 1.02247 1.66748 0
M  V30 1428 C 140.598 -0.448202 2.06287 0
M  V30 1429 O 139.946 -1.42779 1.78399 0
M  V30 1430 C 140.156 1.96788 2.88228 0
M  V30 1431 C 141.504 2.25201 3.59958 0
M  V30 1432 O 142.528 1.94626 2.98327 0
M  V30 1433 O 141.387 2.77242 4.70956 0
M  V30 1434 H 138.481 0.388517 0.730057 0
M  V30 1435 H 141.027 1.37348 0.99668 0
M  V30 1436 H 139.799 2.96047 2.55875 0
M  V30 1437 H 139.422 1.62145 3.63035 0
M  V30 1438 N 140.419 -1.14872 1.07899 0
M  V30 1439 C 141.667 -1.85422 0.803941 0
M  V30 1440 C 141.988 -1.83051 -0.67211 0
M  V30 1441 O 141.258 -1.27532 -1.48703 0
M  V30 1442 H 139.838 -0.686537 0.294408 0
M  V30 1443 H 142.5 -1.39226 1.3639 0
M  V30 1444 H 141.596 -2.90399 1.14346 0
M  V30 1445 N 141.898 -0.863906 -1.31812 0
M  V30 1446 C 143.314 -0.555004 -1.49639 0
M  V30 1447 C 143.514 0.912266 -1.79666 0
M  V30 1448 O 142.57 1.69479 -1.87171 0
M  V30 1449 C 143.883 -1.44998 -2.63431 0
M  V30 1450 C 145.431 -1.45138 -2.77316 0
M  V30 1451 C 145.906 -2.33179 -3.94197 0
M  V30 1452 N 147.397 -2.31025 -4.01474 0
M  V30 1453 C 148.132 -2.95871 -4.9117 0
M  V30 1454 N 147.628 -3.69863 -5.8581 0
M  V30 1455 N 149.421 -2.85211 -4.84367 0
M  V30 1456 H 141.572 -1.81339 -1.10589 0
M  V30 1457 H 143.835 -0.77505 -0.545895 0
M  V30 1458 H 143.541 -2.49377 -2.48 0
M  V30 1459 H 143.415 -1.14409 -3.59431 0
M  V30 1460 H 145.802 -0.415201 -2.92164 0
M  V30 1461 H 145.883 -1.79747 -1.82001 0
M  V30 1462 H 145.527 -3.3687 -3.80107 0
M  V30 1463 H 145.457 -1.95897 -4.88807 0
M  V30 1464 H 147.948 -1.77238 -3.33759 0
M  V30 1465 H 148.261 -4.16486 -6.50968 0
M  V30 1466 H 146.606 -3.73971 -5.85808 0
M  V30 1467 H 149.797 -2.26948 -4.09405 0
M  V30 1468 H 149.97 -3.36027 -5.54066 0
M  V30 1469 N 143.376 1.44774 -0.622745 0
M  V30 1470 C 144.625 2.01334 -0.121397 0
M  V30 1471 C 144.938 1.49505 1.26125 0
M  V30 1472 O 146.144 1.98139 1.85616 0
M  V30 1473 C 144.6 3.59516 -0.166298 0
M  V30 1474 C 144.208 4.20342 -1.54974 0
M  V30 1475 C 145.952 4.23582 0.279021 0
M  V30 1476 C 143.859 5.70721 -1.55021 0
M  V30 1477 H 142.789 0.752851 -0.0416172 0
M  V30 1478 H 145.44 1.66083 -0.780309 0
M  V30 1479 H 143.822 3.92027 0.559557 0
M  V30 1480 H 144.996 3.99381 -2.29851 0
M  V30 1481 H 143.311 3.68529 -1.93843 0
M  V30 1482 H 145.908 5.33868 0.298083 0
M  V30 1483 H 146.251 3.95327 1.30471 0
M  V30 1484 H 146.784 3.95843 -0.394063 0
M  V30 1485 H 143.523 6.03698 -2.55399 0
M  V30 1486 H 143.043 5.93829 -0.844245 0
M  V30 1487 H 144.722 6.34203 -1.28047 0
M  V30 1488 N 144.854 0.36279 1.53368 0
M  V30 1489 C 145.817 -0.472679 2.24273 0
M  V30 1490 C 146.817 -1.012 1.24961 0
M  V30 1491 O 148.007 -0.898194 1.49259 0
M  V30 1492 C 145.139 -1.66039 2.97731 0
M  V30 1493 H 146.332 0.14773 2.99536 0
M  V30 1494 H 143.885 0.114434 1.55881 0
M  V30 1495 H 144.62 -2.31896 2.26704 0
M  V30 1496 H 144.405 -1.28066 3.70596 0
M  V30 1497 H 145.895 -2.25252 3.51641 0
M  V30 1498 N 146.332 -1.57332 0.0918853 0
M  V30 1499 C 147.578 -1.94524 -0.573425 0
M  V30 1500 C 147.911 -0.973578 -1.68033 0
M  V30 1501 O 147.186 -0.00609226 -1.94499 0
M  V30 1502 C 147.469 -3.41858 -1.13161 0
M  V30 1503 C 147.322 -4.4979 -0.0299747 0
M  V30 1504 C 148.641 -3.90435 -2.03098 0
M  V30 1505 H 145.76 -0.70734 -0.206975 0
M  V30 1506 H 148.402 -1.89309 0.161942 0
M  V30 1507 H 146.552 -3.46433 -1.7583 0
M  V30 1508 H 148.224 -4.57327 0.604112 0
M  V30 1509 H 146.467 -4.291 0.636833 0
M  V30 1510 H 147.138 -5.50069 -0.461287 0
M  V30 1511 H 149.614 -3.87992 -1.50338 0
M  V30 1512 H 148.49 -4.94097 -2.39081 0
M  V30 1513 H 148.751 -3.29541 -2.94712 0
M  V30 1514 N 147.81 0.181792 -1.56548 0
M  V30 1515 C 148.742 1.24956 -1.92142 0
M  V30 1516 C 149.755 1.41022 -0.813422 0
M  V30 1517 O 150.944 1.41212 -1.09186 0
M  V30 1518 C 148.044 2.61981 -2.14987 0
M  V30 1519 C 147.217 2.6735 -3.46183 0
M  V30 1520 C 146.276 3.85664 -3.5798 0
M  V30 1521 O 145.302 3.72148 -4.30691 0
M  V30 1522 N 146.504 5.01683 -2.92053 0
M  V30 1523 H 149.269 0.947329 -2.84334 0
M  V30 1524 H 146.83 0.371629 -1.57577 0
M  V30 1525 H 148.822 3.3958 -2.20154 0
M  V30 1526 H 147.392 2.84637 -1.2923 0
M  V30 1527 H 146.612 1.75925 -3.52766 0
M  V30 1528 H 147.9 2.67939 -4.32534 0
M  V30 1529 H 147.298 5.15564 -2.32832 0
M  V30 1530 H 145.855 5.77181 -3.0283 0
M  V30 1531 N 149.288 1.51039 0.449983 0
M  V30 1532 C 150.218 1.74379 1.55288 0
M  V30 1533 C 151.199 0.593236 1.5942 0
M  V30 1534 O 152.384 0.834625 1.7535 0
M  V30 1535 C 149.514 1.85728 2.93466 0
M  V30 1536 C 148.468 3.01078 3.04197 0
M  V30 1537 C 147.794 2.97595 4.44231 0
M  V30 1538 C 149.094 4.41254 2.7945 0
M  V30 1539 H 150.788 2.66725 1.36008 0
M  V30 1540 H 148.334 1.2835 0.652864 0
M  V30 1541 H 150.287 2.0064 3.70569 0
M  V30 1542 H 149.011 0.900207 3.13949 0
M  V30 1543 H 147.67 2.85851 2.29531 0
M  V30 1544 H 147.318 1.99691 4.61663 0
M  V30 1545 H 147.018 3.75046 4.52343 0
M  V30 1546 H 148.542 3.14583 5.23326 0
M  V30 1547 H 149.956 4.56897 3.46292 0
M  V30 1548 H 148.353 5.20315 2.98985 0
M  V30 1549 H 149.423 4.52164 1.75144 0
M  V30 1550 N 150.766 -0.704594 1.40972 0
M  V30 1551 C 152.012 -1.46546 1.41053 0
M  V30 1552 C 152.367 -1.92393 0.0159714 0
M  V30 1553 O 151.66 -1.66017 -0.956506 0
M  V30 1554 C 151.854 -2.698 2.34399 0
M  V30 1555 C 151.683 -2.36008 3.82793 0
M  V30 1556 C 150.453 -2.26812 4.51536 0
M  V30 1557 C 152.651 -1.99565 4.74003 0
M  V30 1558 N 150.633 -1.8581 5.85105 0
M  V30 1559 C 152.004 -1.69251 5.96451 0
M  V30 1560 C 154.059 -1.86296 4.61734 0
M  V30 1561 C 152.762 -1.27003 7.07999 0
M  V30 1562 C 154.788 -1.45452 5.73234 0
M  V30 1563 C 154.15 -1.16043 6.94776 0
M  V30 1564 H 150.249 -0.533896 0.571383 0
M  V30 1565 H 152.833 -0.816061 1.76773 0
M  V30 1566 H 151.004 -3.32473 2.00789 0
M  V30 1567 H 152.736 -3.36214 2.25261 0
M  V30 1568 H 149.491 -2.44913 4.05357 0
M  V30 1569 H 149.915 -1.67817 6.55871 0
M  V30 1570 H 154.557 -2.0769 3.68273 0
M  V30 1571 H 152.275 -1.04353 8.01334 0
M  V30 1572 H 155.861 -1.35748 5.65742 0
M  V30 1573 H 154.741 -0.84915 7.79589 0
M  V30 1574 N 152.244 -1.26651 -0.937939 0
M  V30 1575 C 153.194 -1.05156 -2.02302 0
M  V30 1576 C 154.178 0.0171233 -1.60891 0
M  V30 1577 O 155.37 -0.200213 -1.75864 0
M  V30 1578 C 152.499 -0.689962 -3.36295 0
M  V30 1579 C 151.585 -1.79626 -3.84181 0
M  V30 1580 N 151.976 -3.03422 -4.04684 0
M  V30 1581 C 150.274 -1.6806 -4.13124 0
M  V30 1582 C 150.975 -3.75345 -4.444 0
M  V30 1583 N 149.951 -3.03051 -4.51288 0
M  V30 1584 H 153.753 -1.99117 -2.1617 0
M  V30 1585 H 151.267 -1.17216 -1.12402 0
M  V30 1586 H 153.264 -0.517112 -4.13681 0
M  V30 1587 H 151.924 0.242139 -3.23796 0
M  V30 1588 H 152.935 -3.39293 -3.91281 0
M  V30 1589 H 149.612 -0.818629 -4.09396 0
M  V30 1590 H 151.002 -4.81691 -4.68427 0
M  V30 1591 N 153.722 1.14298 -1.08507 0
M  V30 1592 C 154.95 1.89219 -0.836876 0
M  V30 1593 C 155.365 1.78638 0.611054 0
M  V30 1594 O 154.722 1.14643 1.41998 0
M  V30 1595 C 154.773 3.39158 -1.25116 0
M  V30 1596 O 154.494 3.49449 -2.64229 0
M  V30 1597 C 155.995 4.31073 -1.03398 0
M  V30 1598 H 153.215 0.599328 -0.301739 0
M  V30 1599 H 155.759 1.44746 -1.44461 0
M  V30 1600 H 153.914 3.81251 -0.687514 0
M  V30 1601 H 154.328 4.42589 -2.81452 0
M  V30 1602 H 155.802 5.34646 -1.37323 0
M  V30 1603 H 156.279 4.3919 0.0289259 0
M  V30 1604 H 156.885 3.94738 -1.58311 0
M  V30 1605 N 155.201 0.870884 1.31352 0
M  V30 1606 C 156.449 0.48132 1.96285 0
M  V30 1607 C 156.77 -0.969813 1.69173 0
M  V30 1608 O 156.04 -1.67998 1.00764 0
M  V30 1609 H 154.62 0.175002 0.726212 0
M  V30 1610 H 157.282 1.11087 1.60143 0
M  V30 1611 H 156.378 0.639825 3.05471 0
M  V30 1612 N 156.679 -1.44442 0.630414 0
M  V30 1613 C 158.095 -1.56832 0.295973 0
M  V30 1614 C 158.295 -1.61806 -1.20088 0
M  V30 1615 O 157.351 -1.5607 -1.9849 0
M  V30 1616 C 158.664 -2.84031 0.987264 0
M  V30 1617 C 160.212 -2.97742 0.96534 0
M  V30 1618 C 160.687 -4.27743 1.63708 0
M  V30 1619 N 162.178 -4.34555 1.60364 0
M  V30 1620 C 162.913 -5.33862 2.09234 0
M  V30 1621 N 162.409 -6.39578 2.66292 0
M  V30 1622 N 164.202 -5.25366 1.99867 0
M  V30 1623 H 156.353 -1.39457 1.60205 0
M  V30 1624 H 158.616 -0.668237 0.672431 0
M  V30 1625 H 158.322 -2.86338 2.04215 0
M  V30 1626 H 158.196 -3.73534 0.524588 0
M  V30 1627 H 160.583 -2.94989 -0.0810639 0
M  V30 1628 H 160.664 -2.09589 1.4665 0
M  V30 1629 H 160.308 -4.31255 2.68293 0
M  V30 1630 H 160.238 -5.14752 1.11076 0
M  V30 1631 H 162.729 -3.58772 1.18705 0
M  V30 1632 H 163.042 -7.11637 3.01317 0
M  V30 1633 H 161.387 -6.40265 2.70343 0
M  V30 1634 H 164.578 -4.41688 1.55013 0
M  V30 1635 H 164.751 -6.02606 2.38265 0
M  V30 1636 N 158.157 -0.370918 -1.53173 0
M  V30 1637 C 159.406 0.218249 -2.00516 0
M  V30 1638 C 159.719 1.49429 -1.26215 0
M  V30 1639 O 160.925 2.16239 -1.64174 0
M  V30 1640 C 159.381 0.43948 -3.57207 0
M  V30 1641 C 158.989 -0.822244 -4.4039 0
M  V30 1642 C 160.733 0.986012 -4.1289 0
M  V30 1643 C 158.64 -0.570304 -5.88644 0
M  V30 1644 H 157.57 0.0853333 -0.749156 0
M  V30 1645 H 160.221 -0.490483 -1.76823 0
M  V30 1646 H 158.603 1.20961 -3.77074 0
M  V30 1647 H 159.777 -1.59557 -4.32294 0
M  V30 1648 H 158.092 -1.29238 -3.95836 0
M  V30 1649 H 160.689 1.18991 -5.21292 0
M  V30 1650 H 161.032 1.94972 -3.6782 0
M  V30 1651 H 161.565 0.27592 -3.96842 0
M  V30 1652 H 158.304 -1.50449 -6.38001 0
M  V30 1653 H 157.824 0.164427 -5.99575 0
M  V30 1654 H 159.503 -0.19784 -6.46697 0
M  V30 1655 N 159.635 1.57281 -0.100228 0
M  V30 1656 C 160.86 1.99302 0.573881 0
M  V30 1657 C 161.285 0.979059 1.60611 0
M  V30 1658 O 160.643 -0.0517803 1.81226 0
M  V30 1659 C 160.691 3.40274 1.19358 0
M  V30 1660 O 159.795 3.41676 2.30935 0
M  V30 1661 H 159.136 0.647944 0.145138 0
M  V30 1662 H 161.666 2.03779 -0.183156 0
M  V30 1663 H 161.676 3.78078 1.53365 0
M  V30 1664 H 160.351 4.13594 0.437385 0
M  V30 1665 H 158.928 3.15672 1.98509 0
M  V30 1666 N 161.113 -0.173488 1.56642 0
M  V30 1667 C 162.063 -1.21941 1.92651 0
M  V30 1668 C 163.047 -1.39912 0.794577 0
M  V30 1669 O 164.239 -1.41919 1.05773 0
M  V30 1670 C 161.368 -2.55935 2.28806 0
M  V30 1671 C 160.454 -2.41667 3.48508 0
M  V30 1672 N 160.845 -1.9711 4.65813 0
M  V30 1673 C 159.143 -2.72499 3.53072 0
M  V30 1674 C 159.844 -1.95253 5.47952 0
M  V30 1675 N 158.82 -2.37575 4.88937 0
M  V30 1676 H 162.622 -0.866581 2.80834 0
M  V30 1677 H 160.136 -0.381776 1.57849 0
M  V30 1678 H 162.133 -3.31511 2.52797 0
M  V30 1679 H 160.793 -2.92022 1.41961 0
M  V30 1680 H 161.804 -1.67481 4.90072 0
M  V30 1681 H 158.481 -3.12639 2.767 0
M  V30 1682 H 159.871 -1.6252 6.51948 0
M  V30 1683 N 162.591 -1.51276 -0.441967 0
M  V30 1684 C 163.816 -1.67799 -1.21895 0
M  V30 1685 C 164.241 -0.372864 -1.84367 0
M  V30 1686 O 163.599 0.666501 -1.68604 0
M  V30 1687 C 163.647 -2.79199 -2.28211 0
M  V30 1688 O 162.751 -2.42479 -3.33583 0
M  V30 1689 H 162.092 -0.559649 -0.357336 0
M  V30 1690 H 164.622 -1.97815 -0.522522 0
M  V30 1691 H 164.632 -3.03146 -2.73069 0
M  V30 1692 H 163.307 -3.73906 -1.82118 0
M  V30 1693 H 161.884 -2.29087 -2.94234 0
M  V30 1694 N 164.069 0.697108 -1.41344 0
M  V30 1695 C 165.294 1.49096 -1.44171 0
M  V30 1696 C 165.719 1.88038 -0.0481568 0
M  V30 1697 O 165.077 1.54525 0.948243 0
M  V30 1698 C 165.125 2.73088 -2.3549 0
M  V30 1699 O 164.229 3.70514 -1.81088 0
M  V30 1700 H 163.57 0.448801 -0.489361 0
M  V30 1701 H 166.1 0.856992 -1.85787 0
M  V30 1702 H 166.11 3.21413 -2.51312 0
M  V30 1703 H 164.785 2.44081 -3.36745 0
M  V30 1704 H 163.362 3.29441 -1.74708 0
M  V30 1705 N 165.547 1.27147 0.931209 0
M  V30 1706 C 166.796 1.12664 1.67302 0
M  V30 1707 C 167.109 -0.327718 1.92835 0
M  V30 1708 O 168.315 -0.593392 2.64936 0
M  V30 1709 C 166.771 1.9683 3.01307 0
M  V30 1710 C 166.379 3.46901 2.83485 0
M  V30 1711 C 168.123 1.90985 3.79111 0
M  V30 1712 C 166.03 4.23279 4.13024 0
M  V30 1713 H 164.96 0.41803 0.627509 0
M  V30 1714 H 167.611 1.51539 1.03481 0
M  V30 1715 H 165.993 1.50797 3.66164 0
M  V30 1716 H 167.167 4.00773 2.27415 0
M  V30 1717 H 165.482 3.54088 2.19113 0
M  V30 1718 H 168.079 2.45328 4.75098 0
M  V30 1719 H 168.422 0.882718 4.06834 0
M  V30 1720 H 168.955 2.34895 3.21044 0
M  V30 1721 H 165.694 5.26503 3.90481 0
M  V30 1722 H 165.214 3.74186 4.6877 0
M  V30 1723 H 166.893 4.32265 4.81411 0
M  V30 1724 N 167.025 -1.13721 1.09112 0
M  V30 1725 C 167.957 -2.1871 0.685467 0
M  V30 1726 C 168.97 -1.60527 -0.271068 0
M  V30 1727 O 170.159 -1.78407 -0.0576148 0
M  V30 1728 C 167.259 -3.38898 -0.0111255 0
M  V30 1729 C 166.432 -4.26597 0.966131 0
M  V30 1730 C 165.491 -5.25324 0.303539 0
M  V30 1731 O 164.517 -5.61213 0.950177 0
M  V30 1732 N 165.719 -5.72779 -0.943651 0
M  V30 1733 H 168.484 -2.54126 1.58871 0
M  V30 1734 H 166.045 -1.29012 0.978143 0
M  V30 1735 H 168.037 -4.02014 -0.465517 0
M  V30 1736 H 166.607 -3.01747 -0.816565 0
M  V30 1737 H 165.827 -3.60306 1.59917 0
M  V30 1738 H 167.115 -4.82048 1.6281 0
M  V30 1739 H 166.513 -5.45762 -1.48862 0
M  V30 1740 H 165.07 -6.37847 -1.34142 0
M  V30 1741 N 168.503 -0.877838 -1.30888 0
M  V30 1742 C 169.914 -0.544193 -1.78593 0
M  V30 1743 C 170.265 0.939301 -1.72254 0
M  V30 1744 O 169.39 1.7337 -1.29505 0
M  V30 1745 C 169.985 -0.98105 -3.24285 0
M  V30 1746 C 168.544 -0.698935 -3.69854 0
M  V30 1747 C 167.691 -1.168 -2.51502 0
M  V30 1748 H 170.642 -1.06278 -1.17859 0
M  V30 1749 H 170.663 -0.307009 -3.79259 0
M  V30 1750 H 170.175 -2.06079 -3.28866 0
M  V30 1751 H 168.276 0.369112 -3.70767 0
M  V30 1752 H 168.389 -1.28148 -4.61644 0
M  V30 1753 H 166.753 -0.587535 -2.47831 0
M  V30 1754 H 167.536 -2.25533 -2.58824 0
M  V30 1755 N 169.982 1.44106 -0.638065 0
M  V30 1756 C 171.23 2.01579 -0.145043 0
M  V30 1757 C 171.551 1.50496 1.24 0
M  V30 1758 O 170.821 0.711374 1.82527 0
M  V30 1759 H 169.401 0.745282 -0.05063 0
M  V30 1760 H 172.063 1.76516 -0.826327 0
M  V30 1761 H 171.159 3.11877 -0.118039 0
M  V30 1762 N 171.46 0.379036 1.52974 0
M  V30 1763 C 172.708 -0.206014 2.01047 0
M  V30 1764 C 173.029 -1.48175 1.26765 0
M  V30 1765 O 172.299 -1.92085 0.384743 0
M  V30 1766 H 170.879 -0.0791184 0.742798 0
M  V30 1767 H 173.541 0.508366 1.88153 0
M  V30 1768 H 172.637 -0.423501 3.09213 0
M  V30 1769 N 172.938 -1.57226 0.108567 0
M  V30 1770 C 173.87 -2.11809 -0.875752 0
M  V30 1771 C 174.883 -1.05839 -1.23701 0
M  V30 1772 O 176.072 -1.33245 -1.18778 0
M  V30 1773 C 173.172 -2.59411 -2.18081 0
M  V30 1774 C 172.345 -3.89364 -1.99284 0
M  V30 1775 C 171.404 -4.22672 -3.13424 0
M  V30 1776 O 170.43 -4.91668 -2.86795 0
M  V30 1777 N 171.632 -3.79154 -4.3957 0
M  V30 1778 H 174.397 -2.9689 -0.409477 0
M  V30 1779 H 171.958 -1.61721 -0.076158 0
M  V30 1780 H 173.95 -2.7873 -2.93414 0
M  V30 1781 H 172.52 -1.79268 -2.5609 0
M  V30 1782 H 171.74 -3.79059 -1.08203 0
M  V30 1783 H 173.028 -4.74358 -1.84017 0
M  V30 1784 H 172.426 -3.23486 -4.64083 0
M  V30 1785 H 170.983 -4.03602 -5.11809 0
M  V30 1786 N 174.416 0.165178 -1.56732 0
M  V30 1787 C 175.379 1.18822 -1.95995 0
M  V30 1788 C 176.379 1.3685 -0.84431 0
M  V30 1789 O 177.569 1.34152 -1.11126 0
M  V30 1790 C 174.701 2.5521 -2.26011 0
M  V30 1791 H 175.894 0.851825 -2.87548 0
M  V30 1792 H 173.447 0.407857 -1.50885 0
M  V30 1793 H 174.182 2.93852 -1.37191 0
M  V30 1794 H 173.967 2.43489 -3.07336 0
M  V30 1795 H 175.457 3.28927 -2.57288 0
M  V30 1796 N 175.894 1.51508 0.433938 0
M  V30 1797 C 177.305 1.56784 1.01369 0
M  V30 1798 C 177.656 0.393349 1.92217 0
M  V30 1799 O 176.781 -0.489441 2.10792 0
M  V30 1800 C 177.376 2.84144 1.8452 0
M  V30 1801 C 175.935 2.9198 2.37539 0
M  V30 1802 C 175.082 2.51482 1.16843 0
M  V30 1803 H 178.033 1.57236 0.215081 0
M  V30 1804 H 178.054 2.68098 2.70007 0
M  V30 1805 H 177.566 3.69607 1.18373 0
M  V30 1806 H 175.667 2.10955 3.0713 0
M  V30 1807 H 175.78 3.95704 2.70103 0
M  V30 1808 H 174.144 2.04758 1.51481 0
M  V30 1809 H 174.927 3.39293 0.523015 0
M  V30 1810 N 177.372 -0.689602 1.41712 0
M  V30 1811 C 178.618 -1.45181 1.41599 0
M  V30 1812 C 178.951 -1.94181 0.0270081 0
M  V30 1813 O 178.226 -1.6993 -0.946265 0
M  V30 1814 C 178.509 -2.65945 2.42787 0
M  V30 1815 C 178.362 -2.22672 3.90816 0
M  V30 1816 C 179.681 -3.68149 2.41151 0
M  V30 1817 H 176.8 -0.526576 0.515642 0
M  V30 1818 H 179.442 -0.784947 1.73028 0
M  V30 1819 H 177.592 -3.2284 2.16116 0
M  V30 1820 H 179.264 -1.71058 4.28412 0
M  V30 1821 H 177.507 -1.54394 4.05395 0
M  V30 1822 H 178.178 -3.0935 4.57172 0
M  V30 1823 H 180.654 -3.2094 2.64834 0
M  V30 1824 H 179.53 -4.50248 3.13955 0
M  V30 1825 H 179.791 -4.18259 1.43221 0
M  V30 1826 N 178.85 -1.27639 -0.924453 0
M  V30 1827 C 180.075 -1.17101 -1.71179 0
M  V30 1828 C 180.5 0.268134 -1.86179 0
M  V30 1829 O 179.858 1.19415 -1.36418 0
M  V30 1830 C 179.906 -1.86313 -3.08739 0
M  V30 1831 O 179.01 -1.16331 -3.95652 0
M  V30 1832 H 178.351 -0.407091 -0.524569 0
M  V30 1833 H 180.881 -1.68767 -1.15666 0
M  V30 1834 H 180.891 -1.938 -3.59034 0
M  V30 1835 H 179.566 -2.91001 -2.97138 0
M  V30 1836 H 178.143 -1.16935 -3.54091 0
M  V30 1837 N 180.328 1.1314 -1.09713 0
M  V30 1838 C 181.291 2.16831 -0.742751 0
M  V30 1839 C 182.291 1.59159 0.229129 0
M  V30 1840 O 183.481 1.74199 0.00693237 0
M  V30 1841 C 180.613 3.40756 -0.0989168 0
M  V30 1842 H 181.806 2.49695 -1.66109 0
M  V30 1843 H 179.359 1.2802 -0.896699 0
M  V30 1844 H 180.094 3.13485 0.830514 0
M  V30 1845 H 179.879 3.83888 -0.798265 0
M  V30 1846 H 181.369 4.17386 0.133524 0
M  V30 1847 N 181.806 0.884767 1.30421 0
M  V30 1848 C 183.031 0.517288 2.00845 0
M  V30 1849 C 183.456 -0.886779 1.65885 0
M  V30 1850 O 182.814 -1.58768 0.875354 0
M  V30 1851 C 182.862 0.698994 3.5376 0
M  V30 1852 O 181.966 -0.255208 4.1161 0
M  V30 1853 H 181.307 0.203872 0.631927 0
M  V30 1854 H 183.837 1.19225 1.66272 0
M  V30 1855 H 183.847 0.597912 4.03595 0
M  V30 1856 H 182.522 1.72271 3.78544 0
M  V30 1857 H 181.099 -0.10784 3.72744 0
M  V30 1858 N 183.284 -1.43765 0.645699 0
M  V30 1859 C 184.247 -2.29163 -0.0409488 0
M  V30 1860 C 185.247 -1.41813 -0.757996 0
M  V30 1861 O 186.437 -1.63527 -0.600382 0
M  V30 1862 C 183.569 -3.23716 -1.06869 0
M  V30 1863 H 184.762 -2.91366 0.710345 0
M  V30 1864 H 182.315 -1.5092 0.406547 0
M  V30 1865 H 183.05 -2.66393 -1.84947 0
M  V30 1866 H 182.835 -3.88105 -0.558277 0
M  V30 1867 H 184.325 -3.87831 -1.54845 0
M  V30 1868 N 184.763 -0.387143 -1.52771 0
M  V30 1869 C 185.693 0.440551 -2.29306 0
M  V30 1870 C 186.674 1.06535 -1.32606 0
M  V30 1871 O 187.859 1.07853 -1.61497 0
M  V30 1872 C 184.989 1.56919 -3.09829 0
M  V30 1873 C 183.943 1.07054 -4.14395 0
M  V30 1874 C 183.269 2.29109 -4.83129 0
M  V30 1875 C 184.569 0.140015 -5.22112 0
M  V30 1876 H 186.263 -0.198026 -2.98744 0
M  V30 1877 H 183.809 -0.09668 -1.43675 0
M  V30 1878 H 185.762 2.15503 -3.62128 0
M  V30 1879 H 184.486 2.23532 -2.3812 0
M  V30 1880 H 183.145 0.507247 -3.63074 0
M  V30 1881 H 182.793 2.94227 -4.0797 0
M  V30 1882 H 182.493 1.96406 -5.53804 0
M  V30 1883 H 184.017 2.88339 -5.38231 0
M  V30 1884 H 185.431 0.633978 -5.69784 0
M  V30 1885 H 183.828 -0.0971485 -6.00021 0
M  V30 1886 H 184.898 -0.811711 -4.78058 0
M  V30 1887 N 186.241 1.57166 -0.116904 0
M  V30 1888 C 187.189 2.16457 0.851418 0
M  V30 1889 C 188.183 1.11323 1.27686 0
M  V30 1890 O 189.389 1.2963 1.24884 0
M  V30 1891 H 185.764 0.69271 0.292672 0
M  V30 1892 H 187.735 2.96605 0.32685 0
M  V30 1893 C 186.484 2.77689 2.09246 0
M  V30 1894 H 185.807 3.58285 1.77402 0
M  V30 1895 H 187.247 3.22716 2.7501 0
M  V30 1896 C 185.706 1.74667 2.88085 0
M  V30 1897 O 186.236 1.19877 3.83396 0
M  V30 1898 N 184.442 1.44656 2.52038 0
M  V30 1899 H 183.989 1.89402 1.74599 0
M  V30 1900 H 183.947 0.759675 3.05084 0
M  V30 1901 N 187.719 -0.156864 1.56817 0
M  V30 1902 C 188.682 -1.17781 1.96622 0
M  V30 1903 C 189.682 -1.36401 0.851555 0
M  V30 1904 O 190.872 -1.33561 1.11836 0
M  V30 1905 C 188.004 -2.54008 2.27361 0
M  V30 1906 H 189.197 -0.836564 2.87996 0
M  V30 1907 H 186.75 -0.39985 1.51099 0
M  V30 1908 H 187.485 -2.9312 1.38748 0
M  V30 1909 H 187.27 -2.41856 3.08623 0
M  V30 1910 H 188.76 -3.27558 2.59029 0
M  V30 1911 N 189.197 -1.51736 -0.425897 0
M  V30 1912 C 190.145 -1.74464 -1.53834 0
M  V30 1913 C 191.139 -0.611241 -1.57988 0
M  V30 1914 O 192.345 -0.792899 -1.61596 0
M  V30 1915 H 188.72 -0.551437 -0.511293 0
M  V30 1916 H 190.691 -2.67694 -1.31843 0
M  V30 1917 C 189.44 -1.8972 -2.91379 0
M  V30 1918 H 188.763 -2.76344 -2.88919 0
M  V30 1919 H 190.203 -2.09629 -3.68553 0
M  V30 1920 C 188.662 -0.65992 -3.30374 0
M  V30 1921 O 189.192 0.180083 -4.01296 0
M  V30 1922 N 187.398 -0.500677 -2.86254 0
M  V30 1923 H 186.945 -1.18532 -2.28709 0
M  V30 1924 H 186.903 0.325903 -3.12706 0
M  V30 1925 N 190.675 0.682077 -1.42076 0
M  V30 1926 C 191.903 1.47057 -1.4554 0
M  V30 1927 C 192.318 1.8869 -0.0645779 0
M  V30 1928 O 191.675 1.57666 0.919115 0
M  V30 1929 C 191.726 2.72442 -2.37609 0
M  V30 1930 O 191.447 2.32559 -3.71279 0
M  V30 1931 C 192.948 3.66069 -2.50017 0
M  V30 1932 H 190.168 0.452737 -0.495248 0
M  V30 1933 H 192.712 0.838695 -1.8651 0
M  V30 1934 H 190.867 3.31835 -1.9991 0
M  V30 1935 H 191.281 3.13475 -4.20516 0
M  V30 1936 H 192.755 4.50792 -3.18576 0
M  V30 1937 H 193.232 4.11476 -1.53572 0
M  V30 1938 H 193.838 3.12572 -2.88407 0
M  V30 1939 N 192.153 1.28127 0.917671 0
M  V30 1940 C 193.569 1.05749 1.19538 0
M  V30 1941 C 193.769 -0.202633 2.00479 0
M  V30 1942 O 192.825 -0.905382 2.3571 0
M  V30 1943 C 194.138 2.30273 1.93378 0
M  V30 1944 C 195.686 2.35412 2.06277 0
M  V30 1945 C 196.161 3.59692 2.83524 0
M  V30 1946 N 197.652 3.60309 2.91087 0
M  V30 1947 C 198.387 4.53147 3.51348 0
M  V30 1948 N 197.883 5.563 4.12919 0
M  V30 1949 N 199.676 4.40751 3.48849 0
M  V30 1950 H 191.827 2.09024 0.377184 0
M  V30 1951 H 194.09 0.919798 0.22951 0
M  V30 1952 H 193.796 3.22055 1.41328 0
M  V30 1953 H 193.67 2.36378 2.93947 0
M  V30 1954 H 196.057 1.4413 2.57508 0
M  V30 1955 H 196.138 2.33304 1.04895 0
M  V30 1956 H 195.782 4.51316 2.32973 0
M  V30 1957 H 195.712 3.59054 3.85211 0
M  V30 1958 H 198.203 2.85714 2.47338 0
M  V30 1959 H 198.516 6.2329 4.56869 0
M  V30 1960 H 196.861 5.60131 4.11435 0
M  V30 1961 H 200.052 3.59367 2.99955 0
M  V30 1962 H 200.225 5.13291 3.9552 0
M  V30 1963 N 193.631 -1.12557 1.10312 0
M  V30 1964 C 194.859 -1.87864 0.866873 0
M  V30 1965 C 195.274 -1.79588 -0.582557 0
M  V30 1966 O 194.631 -1.16887 -1.40156 0
M  V30 1967 C 194.682 -3.37125 1.30496 0
M  V30 1968 O 194.403 -3.45201 2.69755 0
M  V30 1969 C 195.904 -4.29373 1.10243 0
M  V30 1970 H 193.124 -0.594452 0.311236 0
M  V30 1971 H 195.668 -1.42429 1.46745 0
M  V30 1972 H 193.823 -3.80109 0.748081 0
M  V30 1973 H 194.237 -4.38056 2.88457 0
M  V30 1974 H 195.711 -5.32394 1.45811 0
M  V30 1975 H 196.188 -4.39181 0.0409492 0
M  V30 1976 H 196.794 -3.92169 1.64571 0
M  V30 1977 N 195.109 -0.891671 -1.2995 0
M  V30 1978 C 196.334 -0.527932 -2.00568 0
M  V30 1979 C 196.759 0.877969 -1.66353 0
M  V30 1980 O 196.117 1.58301 -0.883762 0
M  V30 1981 C 196.165 -0.717745 -3.53385 0
M  V30 1982 O 195.269 0.233376 -4.11739 0
M  V30 1983 H 194.61 -0.20722 -0.630837 0
M  V30 1984 H 197.14 -1.20105 -1.65638 0
M  V30 1985 H 197.15 -0.619307 -4.03272 0
M  V30 1986 H 195.825 -1.74276 -3.77625 0
M  V30 1987 H 194.402 0.0880706 -3.72796 0
M  V30 1988 N 196.587 1.43421 -0.653314 0
M  V30 1989 C 197.517 2.33487 0.0246656 0
M  V30 1990 C 198.498 1.49475 0.811863 0
M  V30 1991 O 199.683 1.78139 0.773322 0
M  V30 1992 C 196.813 3.32841 0.99166 0
M  V30 1993 C 195.767 4.26842 0.314568 0
M  V30 1994 C 195.093 5.16236 1.39302 0
M  V30 1995 C 196.393 5.16243 -0.793095 0
M  V30 1996 H 198.087 2.90427 -0.727481 0
M  V30 1997 H 195.633 1.39649 -0.351287 0
M  V30 1998 H 197.586 3.94747 1.47487 0
M  V30 1999 H 196.31 2.74158 1.77497 0
M  V30 2000 H 194.969 3.663 -0.148199 0
M  V30 2001 H 194.617 4.53891 2.16776 0
M  V30 2002 H 194.317 5.79948 0.945223 0
M  V30 2003 H 195.841 5.81015 1.87759 0
M  V30 2004 H 197.255 5.71958 -0.392039 0
M  V30 2005 H 195.652 5.88676 -1.16536 0
M  V30 2006 H 196.722 4.55927 -1.65103 0
M  V30 2007 N 198.065 0.39524 1.52563 0
M  V30 2008 C 199.481 0.0454682 1.59535 0
M  V30 2009 C 199.681 -1.44056 1.4089 0
M  V30 2010 O 198.737 -2.20579 1.22888 0
M  V30 2011 C 200.05 0.527963 2.96029 0
M  V30 2012 C 201.598 0.484733 3.09224 0
M  V30 2013 C 202.073 0.943512 4.48176 0
M  V30 2014 N 203.564 0.899765 4.54377 0
M  V30 2015 C 204.299 1.22609 5.60138 0
M  V30 2016 N 203.795 1.62319 6.73516 0
M  V30 2017 N 205.588 1.14696 5.50274 0
M  V30 2018 H 197.739 1.36261 1.62931 0
M  V30 2019 H 200.002 0.558887 0.765735 0
M  V30 2020 H 199.708 1.56607 3.14908 0
M  V30 2021 H 199.582 -0.0698056 3.77135 0
M  V30 2022 H 201.969 -0.544298 2.90037 0
M  V30 2023 H 202.05 1.11838 2.30056 0
M  V30 2024 H 201.694 1.9708 4.68104 0
M  V30 2025 H 201.624 0.286817 5.25818 0
M  V30 2026 H 204.115 0.607632 3.72983 0
M  V30 2027 H 204.428 1.85567 7.5019 0
M  V30 2028 H 202.773 1.66211 6.74833 0
M  V30 2029 H 205.964 0.835701 4.6058 0
M  V30 2030 H 206.137 1.40459 6.32594 0
M  V30 2031 N 199.544 -1.57102 0.125237 0
M  V30 2032 C 200.821 -1.86953 -0.575142 0
M  V30 2033 C 201.201 -1.02749 -1.84407 0
M  V30 2034 O 200.549 -0.108144 -2.28244 0
M  V30 2035 C 200.759 -3.38198 -0.861583 0
M  V30 2036 C 202.107 -4.06937 -1.21192 0
M  V30 2037 O 203.131 -3.43252 -0.951645 0
M  V30 2038 O 201.99 -5.19364 -1.70068 0
M  V30 2039 H 199.084 -0.774147 -0.290906 0
M  V30 2040 H 201.63 -1.68942 0.160211 0
M  V30 2041 H 200.402 -3.91282 0.0373647 0
M  V30 2042 H 200.025 -3.61661 -1.65188 0
M  V30 2043 N 201.022 0.148545 -1.56898 0
M  V30 2044 C 201.932 1.20293 -2.01412 0
M  V30 2045 C 202.948 1.47107 -0.929273 0
M  V30 2046 O 204.124 1.58807 -1.23863 0
M  V30 2047 C 201.189 2.51682 -2.38447 0
M  V30 2048 C 200.25 2.32529 -3.60872 0
M  V30 2049 C 199.483 3.57653 -3.96132 0
M  V30 2050 O 199.706 4.63771 -3.32073 0
M  V30 2051 O 198.64 3.50408 -4.89385 0
M  V30 2052 H 202.466 0.855025 -2.91416 0
M  V30 2053 H 200.051 0.357151 -1.45068 0
M  V30 2054 H 201.933 3.29147 -2.63135 0
M  V30 2055 H 200.608 2.86006 -1.51599 0
M  V30 2056 H 199.515 1.53019 -3.41373 0
M  V30 2057 H 200.848 2.03121 -4.48333 0
M  V30 2058 N 202.5 1.5196 0.417844 0
M  V30 2059 C 203.448 1.75278 1.52907 0
M  V30 2060 C 204.442 0.619611 1.57662 0
M  V30 2061 O 205.648 0.801457 1.61173 0
M  V30 2062 H 202.023 0.554141 0.508362 0
M  V30 2063 H 203.994 2.68389 1.30422 0
M  V30 2064 C 202.743 1.91262 2.90369 0
M  V30 2065 H 202.066 2.77872 2.8745 0
M  V30 2066 H 203.506 2.11581 3.67436 0
M  V30 2067 C 201.965 0.677431 3.30019 0
M  V30 2068 O 202.495 -0.158799 4.01386 0
M  V30 2069 N 200.701 0.515851 2.85985 0
M  V30 2070 H 200.248 1.19744 2.28077 0
M  V30 2071 H 200.206 -0.309315 3.12875 0
M  V30 2072 N 203.978 -0.674533 1.42435 0
M  V30 2073 C 205.226 -1.43175 1.42637 0
M  V30 2074 C 205.547 -1.94951 0.0438992 0
M  V30 2075 O 204.817 -1.7308 -0.917607 0
M  V30 2076 H 203.397 -0.531307 0.525092 0
M  V30 2077 H 206.059 -0.797006 1.77859 0
M  V30 2078 H 205.155 -2.28463 2.12629 0
M  V30 2079 N 205.456 -1.28612 -0.910864 0
M  V30 2080 C 206.404 -1.1265 -2.03501 0
M  V30 2081 C 207.398 -0.0450054 -1.6934 0
M  V30 2082 O 208.604 -0.203988 -1.7884 0
M  V30 2083 H 204.979 -0.347639 -0.666822 0
M  V30 2084 H 206.95 -2.07849 -2.14106 0
M  V30 2085 C 205.699 -0.808143 -3.38178 0
M  V30 2086 H 205.022 -1.63231 -3.6496 0
M  V30 2087 H 206.462 -0.736426 -4.17556 0
M  V30 2088 C 204.921 0.488226 -3.33344 0
M  V30 2089 O 205.451 1.51766 -3.71927 0
M  V30 2090 N 203.657 0.490009 -2.86439 0
M  V30 2091 H 203.204 -0.348161 -2.55236 0
M  V30 2092 H 203.162 1.35741 -2.83587 0
M  V30 2093 N 206.934 1.1197 -1.10907 0
M  V30 2094 C 207.897 2.16031 -0.765707 0
M  V30 2095 C 208.897 1.59393 0.212235 0
M  V30 2096 O 210.087 1.74196 -0.0115441 0
M  V30 2097 C 207.219 3.40632 -0.135053 0
M  V30 2098 H 208.412 2.47919 -1.68748 0
M  V30 2099 H 205.965 1.27061 -0.910226 0
M  V30 2100 H 206.7 3.14348 0.797218 0
M  V30 2101 H 206.485 3.8302 -0.838937 0
M  V30 2102 H 207.975 4.17505 0.0892469 0
M  V30 2103 N 208.412 0.89855 1.29475 0
M  V30 2104 C 209.661 0.519863 1.94885 0
M  V30 2105 C 209.974 -0.9383 1.71625 0
M  V30 2106 O 211.18 -1.42445 2.31131 0
M  V30 2107 C 209.636 0.878836 3.49005 0
M  V30 2108 C 209.244 2.35569 3.81066 0
M  V30 2109 C 210.988 0.570004 4.20656 0
M  V30 2110 C 208.895 2.65558 5.28425 0
M  V30 2111 H 207.825 0.190692 0.729488 0
M  V30 2112 H 210.476 1.09539 1.47219 0
M  V30 2113 H 208.858 0.232253 3.95318 0
M  V30 2114 H 210.032 3.04773 3.45616 0
M  V30 2115 H 208.347 2.63343 3.22552 0
M  V30 2116 H 210.944 0.770925 5.29113 0
M  V30 2117 H 211.287 -0.491404 4.1339 0
M  V30 2118 H 211.82 1.17438 3.8007 0
M  V30 2119 H 208.559 3.70493 5.40754 0
M  V30 2120 H 208.079 2.00977 5.65127 0
M  V30 2121 H 209.758 2.51765 5.96006 0
M  V30 2122 N 209.89 -1.43072 0.660911 0
M  V30 2123 C 211.306 -1.56169 0.329173 0
M  V30 2124 C 211.506 -1.64317 -1.16629 0
M  V30 2125 O 210.562 -1.60245 -1.95135 0
M  V30 2126 C 211.875 -2.81873 1.04729 0
M  V30 2127 C 213.423 -2.95627 1.02828 0
M  V30 2128 C 213.898 -4.24174 1.72744 0
M  V30 2129 N 215.389 -4.31055 1.69545 0
M  V30 2130 C 216.124 -5.29304 2.20511 0
M  V30 2131 N 215.62 -6.33786 2.79799 0
M  V30 2132 N 217.413 -5.21008 2.10966 0
M  V30 2133 H 209.564 -1.36027 1.63127 0
M  V30 2134 H 211.827 -0.653823 0.686454 0
M  V30 2135 H 211.533 -2.81942 2.10242 0
M  V30 2136 H 211.407 -3.72338 0.603702 0
M  V30 2137 H 213.794 -2.95094 -0.0184742 0
M  V30 2138 H 213.875 -2.06431 1.51063 0
M  V30 2139 H 213.519 -4.25467 2.7738 0
M  V30 2140 H 213.449 -5.1228 1.2197 0
M  V30 2141 H 215.94 -3.56174 1.26288 0
M  V30 2142 H 216.253 -7.05086 3.16344 0
M  V30 2143 H 214.598 -6.34387 2.83863 0
M  V30 2144 H 217.789 -4.38301 1.64347 0
M  V30 2145 H 217.962 -5.97416 2.50993 0
M  V30 2146 N 211.368 -0.403325 -1.52352 0
M  V30 2147 C 212.614 0.174605 -2.02047 0
M  V30 2148 C 212.947 1.45282 -1.28867 0
M  V30 2149 O 212.222 1.90483 -0.393257 0
M  V30 2150 C 212.505 0.428238 -3.57545 0
M  V30 2151 C 212.358 -0.866248 -4.4138 0
M  V30 2152 C 213.677 1.21287 -4.23057 0
M  V30 2153 H 210.796 0.0619851 -0.734389 0
M  V30 2154 H 213.438 -0.53565 -1.82293 0
M  V30 2155 H 211.588 1.03327 -3.74507 0
M  V30 2156 H 213.26 -1.50265 -4.3614 0
M  V30 2157 H 211.503 -1.47851 -4.07827 0
M  V30 2158 H 212.174 -0.643249 -5.48239 0
M  V30 2159 H 214.65 0.700703 -4.10158 0
M  V30 2160 H 213.526 1.35909 -5.31808 0
M  V30 2161 H 213.787 2.23193 -3.81625 0
M  V30 2162 N 212.846 1.57033 -0.133567 0
M  V30 2163 C 214.123 1.87256 0.56522 0
M  V30 2164 C 214.503 1.03726 1.83859 0
M  V30 2165 O 213.851 0.120247 2.28183 0
M  V30 2166 C 214.061 3.3865 0.843636 0
M  V30 2167 C 215.409 4.07574 1.19032 0
M  V30 2168 O 216.433 3.43752 0.933429 0
M  V30 2169 O 215.292 5.20259 1.67312 0
M  V30 2170 H 212.386 0.775678 0.286796 0
M  V30 2171 H 214.932 1.68855 -0.169168 0
M  V30 2172 H 213.704 3.91257 -0.0581149 0
M  V30 2173 H 213.327 3.62532 1.63268 0
M  V30 2174 N 214.325 -0.140222 1.56975 0
M  V30 2175 C 215.553 -0.866437 1.87884 0
M  V30 2176 C 215.968 -1.74428 0.722517 0
M  V30 2177 O 215.325 -1.79891 -0.30749 0
M  V30 2178 C 215.376 -1.71753 3.18093 0
M  V30 2179 O 215.097 -0.875056 4.29272 0
M  V30 2180 C 216.598 -2.55074 3.62563 0
M  V30 2181 H 213.818 -0.25019 0.622612 0
M  V30 2182 H 216.362 -0.130977 2.0408 0
M  V30 2183 H 214.517 -2.40598 3.03631 0
M  V30 2184 H 214.931 -1.46002 5.03769 0
M  V30 2185 H 216.405 -3.10356 4.5649 0
M  V30 2186 H 216.882 -3.31434 2.88181 0
M  V30 2187 H 217.488 -1.91509 3.79743 0
M  V30 2188 N 215.803 -1.52179 -0.40978 0
M  V30 2189 C 217.031 -1.70054 -1.17853 0
M  V30 2190 C 217.446 -0.409735 -1.843 0
M  V30 2191 O 216.803 0.614183 -1.71855 0
M  V30 2192 C 216.854 -2.83568 -2.24213 0
M  V30 2193 O 216.575 -4.0765 -1.60478 0
M  V30 2194 C 218.076 -3.12947 -3.13973 0
M  V30 2195 H 215.296 -0.569917 -0.354169 0
M  V30 2196 H 217.84 -1.98734 -0.482198 0
M  V30 2197 H 215.995 -2.57409 -2.89516 0
M  V30 2198 H 216.409 -4.70899 -2.30986 0
M  V30 2199 H 217.883 -3.95889 -3.84677 0
M  V30 2200 H 218.36 -2.26472 -3.76307 0
M  V30 2201 H 218.966 -3.40868 -2.5434 0
M  V30 2202 N 217.281 0.66697 -1.42791 0
M  V30 2203 C 218.509 1.45505 -1.47091 0
M  V30 2204 C 218.924 1.8861 -0.0845873 0
M  V30 2205 O 218.281 1.58632 0.90234 0
M  V30 2206 C 218.332 2.69906 -2.40485 0
M  V30 2207 O 218.053 2.28608 -3.73725 0
M  V30 2208 C 219.554 3.63396 -2.53886 0
M  V30 2209 H 216.774 0.447459 -0.500022 0
M  V30 2210 H 219.318 0.818866 -1.8739 0
M  V30 2211 H 217.473 3.29696 -2.03419 0
M  V30 2212 H 217.887 3.08997 -4.23817 0
M  V30 2213 H 219.361 4.47387 -3.2334 0
M  V30 2214 H 219.838 4.09824 -1.57927 0
M  V30 2215 H 220.444 3.09495 -2.91706 0
M  V30 2216 N 218.759 1.29093 0.90403 0
M  V30 2217 C 220.17 1.15186 1.46932 0
M  V30 2218 C 220.521 -0.254587 1.94541 0
M  V30 2219 O 219.646 -1.14972 1.83332 0
M  V30 2220 C 220.241 2.08492 2.67051 0
M  V30 2221 C 218.8 1.98621 3.19729 0
M  V30 2222 C 217.947 1.9967 1.92425 0
M  V30 2223 H 220.898 1.41641 0.715789 0
M  V30 2224 H 220.919 1.65461 3.42641 0
M  V30 2225 H 220.431 3.10847 2.3237 0
M  V30 2226 H 218.532 0.993389 3.59114 0
M  V30 2227 H 218.645 2.86068 3.8432 0
M  V30 2228 H 217.009 1.44208 2.09943 0
M  V30 2229 H 217.792 3.03721 1.60026 0
M  V30 2230 N 220.237 -1.11381 1.11499 0
M  V30 2231 C 221.653 -1.35143 0.849031 0
M  V30 2232 C 221.853 -1.94515 -0.525938 0
M  V30 2233 O 220.909 -2.1785 -1.27662 0
M  V30 2234 C 222.222 -2.28249 1.95762 0
M  V30 2235 C 223.77 -2.41812 1.98736 0
M  V30 2236 C 224.245 -3.3824 3.088 0
M  V30 2237 N 225.736 -3.45803 3.08179 0
M  V30 2238 C 226.471 -4.20358 3.89982 0
M  V30 2239 N 225.967 -4.97884 4.8175 0
M  V30 2240 N 227.76 -4.15877 3.78157 0
M  V30 2241 H 219.911 -0.712062 2.00109 0
M  V30 2242 H 222.174 -0.376025 0.870235 0
M  V30 2243 H 221.88 -1.91817 2.94787 0
M  V30 2244 H 221.754 -3.28473 1.85433 0
M  V30 2245 H 224.141 -2.77518 1.00338 0
M  V30 2246 H 224.222 -1.41437 2.13141 0
M  V30 2247 H 223.866 -3.03261 4.07425 0
M  V30 2248 H 223.796 -4.38471 2.91635 0
M  V30 2249 H 226.287 -2.90506 2.41691 0
M  V30 2250 H 226.6 -5.52142 5.40702 0
M  V30 2251 H 224.945 -4.97043 4.85771 0
M  V30 2252 H 228.136 -3.544 3.05808 0
M  V30 2253 H 228.309 -4.73723 4.42143 0
M  V30 2254 N 221.715 -0.905404 -1.28997 0
M  V30 2255 C 222.678 -0.392253 -2.25819 0
M  V30 2256 C 223.678 0.476753 -1.5357 0
M  V30 2257 O 224.868 0.280994 -1.71919 0
M  V30 2258 C 222 0.438588 -3.38067 0
M  V30 2259 H 223.193 -1.24743 -2.72725 0
M  V30 2260 H 220.746 -0.684051 -1.40536 0
M  V30 2261 H 221.481 1.31352 -2.96508 0
M  V30 2262 H 221.266 -0.184167 -3.91667 0
M  V30 2263 H 222.756 0.78873 -4.10084 0
M  V30 2264 N 223.193 1.4272 -0.668489 0
M  V30 2265 C 224.123 2.335 -0.000100175 0
M  V30 2266 C 225.104 1.50328 0.795964 0
M  V30 2267 O 226.289 1.78949 0.754385 0
M  V30 2268 C 223.419 3.33874 0.956302 0
M  V30 2269 C 222.373 4.27152 0.269278 0
M  V30 2270 C 221.699 5.17684 1.33818 0
M  V30 2271 C 222.999 5.15373 -0.847805 0
M  V30 2272 H 224.693 2.89639 -0.758244 0
M  V30 2273 H 222.239 1.39269 -0.366079 0
M  V30 2274 H 224.192 3.9629 1.43292 0
M  V30 2275 H 222.916 2.76025 1.74579 0
M  V30 2276 H 221.575 3.66123 -0.187042 0
M  V30 2277 H 221.223 4.56165 2.1195 0
M  V30 2278 H 220.923 5.80918 0.883659 0
M  V30 2279 H 222.447 5.82974 1.81586 0
M  V30 2280 H 223.861 5.7151 -0.452681 0
M  V30 2281 H 222.258 5.87407 -1.22773 0
M  V30 2282 H 223.328 4.5415 -1.69929 0
M  V30 2283 N 224.671 0.411399 1.52136 0
M  V30 2284 C 225.581 -0.419774 2.30814 0
M  V30 2285 C 226.597 -1.0515 1.38634 0
M  V30 2286 O 227.773 -1.05252 1.71709 0
M  V30 2287 C 224.838 -1.52019 3.11594 0
M  V30 2288 C 223.899 -0.91129 4.19516 0
M  V30 2289 C 223.132 -1.95927 4.96436 0
M  V30 2290 O 223.355 -3.17775 4.73683 0
M  V30 2291 O 222.289 -1.56423 5.81219 0
M  V30 2292 H 226.115 0.221805 3.02889 0
M  V30 2293 H 223.7 0.174547 1.48377 0
M  V30 2294 H 225.582 -2.15898 3.61892 0
M  V30 2295 H 224.257 -2.14633 2.42311 0
M  V30 2296 H 223.164 -0.235157 3.7336 0
M  V30 2297 H 224.497 -0.32904 4.91099 0
M  V30 2298 N 226.149 -1.5696 0.141893 0
M  V30 2299 C 227.079 -2.19516 -0.795936 0
M  V30 2300 C 228.06 -1.14187 -1.26077 0
M  V30 2301 O 229.245 -1.42511 -1.31925 0
M  V30 2302 C 226.375 -2.81272 -2.03723 0
M  V30 2303 C 225.329 -3.92384 -1.70936 0
M  V30 2304 C 224.655 -4.41052 -3.02287 0
M  V30 2305 C 225.955 -5.13403 -0.959954 0
M  V30 2306 H 227.649 -2.98138 -0.274596 0
M  V30 2307 H 225.195 -1.43406 -0.130636 0
M  V30 2308 H 227.148 -3.237 -2.69808 0
M  V30 2309 H 225.872 -1.99973 -2.58221 0
M  V30 2310 H 224.531 -3.50566 -1.07232 0
M  V30 2311 H 224.179 -3.56582 -3.54765 0
M  V30 2312 H 223.879 -5.15993 -2.81114 0
M  V30 2313 H 225.403 -4.86146 -3.69451 0
M  V30 2314 H 226.817 -5.52706 -1.52279 0
M  V30 2315 H 225.214 -5.94073 -0.848357 0
M  V30 2316 H 226.284 -4.84875 0.0492434 0
M  V30 2317 N 227.627 0.131896 -1.57047 0
M  V30 2318 C 228.904 0.871495 -1.75112 0
M  V30 2319 C 229.284 1.9866 -0.713949 0
M  V30 2320 O 228.632 2.26965 0.264447 0
M  V30 2321 C 228.842 1.40007 -3.19686 0
M  V30 2322 C 230.19 1.85752 -3.81813 0
M  V30 2323 O 231.214 1.49715 -3.23209 0
M  V30 2324 O 230.073 2.5226 -4.84796 0
M  V30 2325 H 227.167 0.412919 -0.716538 0
M  V30 2326 H 229.713 0.116641 -1.69299 0
M  V30 2327 H 228.485 0.599404 -3.86682 0
M  V30 2328 H 228.108 2.218 -3.29986 0
M  V30 2329 N 229.106 1.52395 0.401703 0
M  V30 2330 C 230.016 1.7917 1.51444 0
M  V30 2331 C 231.032 0.677691 1.6026 0
M  V30 2332 O 232.208 0.963909 1.76835 0
M  V30 2333 C 229.273 1.94347 2.87107 0
M  V30 2334 C 228.334 3.18257 2.88116 0
M  V30 2335 C 227.567 3.32701 4.17308 0
M  V30 2336 O 227.79 2.52238 5.11598 0
M  V30 2337 O 226.724 4.25891 4.25324 0
M  V30 2338 H 230.55 2.73633 1.31752 0
M  V30 2339 H 228.135 1.3733 0.588296 0
M  V30 2340 H 230.017 2.06109 3.67555 0
M  V30 2341 H 228.692 1.03073 3.06851 0
M  V30 2342 H 227.599 3.11947 2.06494 0
M  V30 2343 H 228.932 4.09336 2.73322 0
M  V30 2344 N 230.584 -0.659388 1.43143 0
M  V30 2345 C 231.833 -1.41518 1.43721 0
M  V30 2346 C 232.146 -1.95499 0.0628176 0
M  V30 2347 O 233.352 -2.71446 -0.0539683 0
M  V30 2348 C 231.808 -2.5608 2.52885 0
M  V30 2349 C 231.416 -2.08733 3.96402 0
M  V30 2350 C 233.16 -3.3349 2.62649 0
M  V30 2351 C 231.067 -3.20469 4.97045 0
M  V30 2352 H 229.997 -0.531705 0.534608 0
M  V30 2353 H 232.648 -0.712343 1.69109 0
M  V30 2354 H 231.03 -3.28805 2.20688 0
M  V30 2355 H 232.204 -1.43059 4.3803 0
M  V30 2356 H 230.519 -1.44219 3.90627 0
M  V30 2357 H 233.116 -4.16734 3.35017 0
M  V30 2358 H 233.459 -3.8111 1.67513 0
M  V30 2359 H 233.992 -2.67842 2.94118 0
M  V30 2360 H 230.731 -2.77824 5.93712 0
M  V30 2361 H 230.251 -3.84874 4.60034 0
M  V30 2362 H 231.93 -3.85698 5.19467 0
M  V30 2363 N 232.062 -1.29571 -0.897171 0
M  V30 2364 C 233.473 -1.15964 -1.46319 0
M  V30 2365 C 233.824 0.244267 -1.94674 0
M  V30 2366 O 232.949 1.13998 -1.83939 0
M  V30 2367 C 233.544 -2.09906 -2.65942 0
M  V30 2368 C 232.103 -2.00314 -3.18671 0
M  V30 2369 C 231.25 -2.00687 -1.91363 0
M  V30 2370 H 234.201 -1.42019 -0.708268 0
M  V30 2371 H 234.222 -1.67276 -3.41759 0
M  V30 2372 H 233.734 -3.12075 -2.30718 0
M  V30 2373 H 231.835 -1.01242 -3.58582 0
M  V30 2374 H 231.948 -2.88102 -3.82798 0
M  V30 2375 H 230.312 -1.45319 -2.09175 0
M  V30 2376 H 231.095 -3.04566 -1.58413 0
M  V30 2377 N 233.54 1.10788 -1.12088 0
M  V30 2378 C 234.788 1.8231 -0.872205 0
M  V30 2379 C 235.109 1.85419 0.603709 0
M  V30 2380 O 234.379 1.32963 1.43867 0
M  V30 2381 H 232.959 0.675137 -0.319686 0
M  V30 2382 H 235.621 1.34068 -1.41463 0
M  V30 2383 H 234.717 2.85955 -1.25045 0
M  V30 2384 N 235.018 0.912232 1.28515 0
M  V30 2385 C 236.267 0.540504 1.94323 0
M  V30 2386 C 236.58 -0.920044 1.72611 0
M  V30 2387 O 237.786 -1.39986 2.32629 0
M  V30 2388 C 236.242 0.915803 3.48053 0
M  V30 2389 C 235.85 2.39598 3.78546 0
M  V30 2390 C 237.594 0.614588 4.20027 0
M  V30 2391 C 235.501 2.71148 5.25578 0
M  V30 2392 H 234.431 0.198418 0.727424 0
M  V30 2393 H 237.082 1.11094 1.46049 0
M  V30 2394 H 235.464 0.274168 3.9505 0
M  V30 2395 H 236.638 3.08422 3.42364 0
M  V30 2396 H 234.953 2.66749 3.1974 0
M  V30 2397 H 237.55 0.827002 5.28266 0
M  V30 2398 H 237.893 -0.447531 4.13887 0
M  V30 2399 H 238.426 1.21462 3.78803 0
M  V30 2400 H 235.165 3.76207 5.36794 0
M  V30 2401 H 234.685 2.0696 5.62963 0
M  V30 2402 H 236.364 2.58072 5.93302 0
M  V30 2403 N 236.496 -1.42363 0.676048 0
M  V30 2404 C 237.742 -2.0182 0.199125 0
M  V30 2405 C 238.075 -1.53339 -1.19168 0
M  V30 2406 O 237.35 -0.736124 -1.80032 0
M  V30 2407 C 237.633 -3.59331 0.235144 0
M  V30 2408 C 237.486 -4.17989 1.66149 0
M  V30 2409 C 238.805 -4.3813 -0.41595 0
M  V30 2410 H 235.924 -0.733293 0.0738311 0
M  V30 2411 H 238.566 -1.69368 0.86107 0
M  V30 2412 H 236.716 -3.87109 -0.328487 0
M  V30 2413 H 238.388 -4.0116 2.27747 0
M  V30 2414 H 236.631 -3.7377 2.20178 0
M  V30 2415 H 237.302 -5.27126 1.63837 0
M  V30 2416 H 239.778 -4.16051 0.0638529 0
M  V30 2417 H 238.654 -5.47717 -0.360115 0
M  V30 2418 H 238.915 -4.16101 -1.49373 0
M  V30 2419 N 237.974 -0.419461 -1.51915 0
M  V30 2420 C 238.922 0.415502 -2.28859 0
M  V30 2421 C 239.916 1.03674 -1.3397 0
M  V30 2422 O 241.122 0.973757 -1.51387 0
M  V30 2423 H 237.497 0.152786 -0.736315 0
M  V30 2424 H 239.468 -0.254531 -2.97312 0
M  V30 2425 C 238.217 1.51425 -3.12995 0
M  V30 2426 H 237.54 1.04556 -3.85886 0
M  V30 2427 H 238.98 2.07208 -3.6992 0
M  V30 2428 C 237.439 2.48745 -2.27217 0
M  V30 2429 O 237.969 3.52871 -1.9195 0
M  V30 2430 N 236.175 2.19202 -1.90785 0
M  V30 2431 H 235.722 1.34556 -2.19664 0
M  V30 2432 H 235.68 2.84561 -1.33687 0
M  V30 2433 N 239.452 1.56882 -0.150215 0
M  V30 2434 C 240.729 1.87844 0.545327 0
M  V30 2435 C 241.109 1.0567 1.82749 0
M  V30 2436 O 240.457 0.144442 2.28043 0
M  V30 2437 C 240.667 3.39526 0.80767 0
M  V30 2438 C 242.015 4.08814 1.14703 0
M  V30 2439 O 243.039 3.44723 0.896917 0
M  V30 2440 O 241.898 5.22004 1.61784 0
M  V30 2441 H 238.992 0.778677 0.278553 0
M  V30 2442 H 241.538 1.68666 -0.187068 0
M  V30 2443 H 240.31 3.91173 -0.0996096 0
M  V30 2444 H 239.933 3.64243 1.59413 0
M  V30 2445 N 240.93 -0.123565 1.57115 0
M  V30 2446 C 242.177 -0.832153 1.84612 0
M  V30 2447 C 242.505 -1.80093 0.734627 0
M  V30 2448 O 241.76 -1.93766 -0.27442 0
M  V30 2449 C 242.059 -1.62016 3.18568 0
M  V30 2450 C 241.725 -0.796084 4.43817 0
M  V30 2451 C 240.387 -0.568816 4.77826 0
M  V30 2452 C 242.739 -0.221364 5.2073 0
M  V30 2453 C 240.067 0.243499 5.86194 0
M  V30 2454 C 242.419 0.578117 6.29953 0
M  V30 2455 C 241.083 0.815744 6.62497 0
M  V30 2456 H 240.353 -0.304507 0.675542 0
M  V30 2457 H 243 -0.0947248 1.91266 0
M  V30 2458 H 241.305 -2.42837 3.0747 0
M  V30 2459 H 243.002 -2.17231 3.37064 0
M  V30 2460 H 239.592 -0.983307 4.17168 0
M  V30 2461 H 243.776 -0.384173 4.94811 0
M  V30 2462 H 239.032 0.436871 6.09837 0
M  V30 2463 H 243.206 1.03046 6.88734 0
M  V30 2464 H 240.833 1.44701 7.46301 0
M  V30 2465 N 242.408 -1.52605 -0.393616 0
M  V30 2466 C 243.824 -1.41753 -0.733357 0
M  V30 2467 C 244.024 -0.534293 -1.94287 0
M  V30 2468 O 243.08 -0.0059787 -2.52499 0
M  V30 2469 C 244.393 -2.84531 -0.972772 0
M  V30 2470 C 245.941 -2.93978 -1.07453 0
M  V30 2471 C 246.416 -4.37756 -1.3466 0
M  V30 2472 N 247.907 -4.4106 -1.41492 0
M  V30 2473 C 248.642 -5.49387 -1.642 0
M  V30 2474 N 248.138 -6.67806 -1.8441 0
M  V30 2475 N 249.931 -5.36923 -1.66342 0
M  V30 2476 H 242.082 -2.08555 0.402328 0
M  V30 2477 H 244.345 -0.940654 0.117789 0
M  V30 2478 H 244.051 -3.51353 -0.156204 0
M  V30 2479 H 243.925 -3.26508 -1.88871 0
M  V30 2480 H 246.312 -2.27326 -1.88167 0
M  V30 2481 H 246.393 -2.55435 -0.136605 0
M  V30 2482 H 246.037 -5.04972 -0.544581 0
M  V30 2483 H 245.967 -4.73848 -2.2973 0
M  V30 2484 H 248.458 -3.55705 -1.27601 0
M  V30 2485 H 248.771 -7.46141 -2.01231 0
M  V30 2486 H 247.116 -6.70843 -1.81644 0
M  V30 2487 H 250.307 -4.43381 -1.50102 0
M  V30 2488 H 250.48 -6.21416 -1.837 0
M  V30 2489 N 243.887 0.651787 -1.4349 0
M  V30 2490 C 244.819 1.77725 -1.44729 0
M  V30 2491 C 245.832 1.59141 -0.343231 0
M  V30 2492 O 247.021 1.67835 -0.607751 0
M  V30 2493 C 244.121 3.15172 -1.24579 0
M  V30 2494 C 243.294 3.60402 -2.47849 0
M  V30 2495 C 242.353 4.76656 -2.22902 0
M  V30 2496 O 241.379 4.86022 -2.96263 0
M  V30 2497 N 242.581 5.66958 -1.24656 0
M  V30 2498 H 245.346 1.77141 -2.41746 0
M  V30 2499 H 242.907 0.835678 -1.38665 0
M  V30 2500 H 244.899 3.90634 -1.0577 0
M  V30 2501 H 243.469 3.1052 -0.360015 0
M  V30 2502 H 242.689 2.75369 -2.82073 0
M  V30 2503 H 243.977 3.87368 -3.29884 0
M  V30 2504 H 243.375 5.62065 -0.640265 0
M  V30 2505 H 241.932 6.42135 -1.1183 0
M  V30 2506 N 245.365 1.30045 0.890287 0
M  V30 2507 C 246.328 1.15963 1.977 0
M  V30 2508 C 247.328 0.0923777 1.60534 0
M  V30 2509 O 248.518 0.340071 1.70848 0
M  V30 2510 C 245.65 0.775451 3.31963 0
M  V30 2511 H 246.843 2.12502 2.11619 0
M  V30 2512 H 244.396 1.13366 1.07601 0
M  V30 2513 H 245.131 -0.189671 3.23745 0
M  V30 2514 H 244.916 1.54668 3.60306 0
M  V30 2515 H 246.406 0.700251 4.11687 0
M  V30 2516 N 246.843 -1.10192 1.12674 0
M  V30 2517 C 248.089 -1.82475 0.884915 0
M  V30 2518 C 248.422 -1.85093 -0.58773 0
M  V30 2519 O 247.697 -1.3134 -1.43457 0
M  V30 2520 C 247.98 -3.29018 1.46353 0
M  V30 2521 C 247.833 -3.34718 3.00473 0
M  V30 2522 C 249.152 -4.25473 1.12519 0
M  V30 2523 H 246.271 -0.662492 0.322915 0
M  V30 2524 H 248.913 -1.2913 1.39375 0
M  V30 2525 H 247.063 -3.74576 1.03077 0
M  V30 2526 H 248.735 -2.97622 3.52447 0
M  V30 2527 H 246.978 -2.74541 3.35872 0
M  V30 2528 H 247.649 -4.37918 3.36053 0
M  V30 2529 H 250.125 -3.88161 1.499 0
M  V30 2530 H 249.001 -5.26365 1.55663 0
M  V30 2531 H 249.262 -4.42084 0.0377407 0
M  V30 2532 N 248.321 -0.919034 -1.28029 0
M  V30 2533 C 249.284 -0.416182 -2.2539 0
M  V30 2534 C 250.284 0.460438 -1.54067 0
M  V30 2535 O 251.474 0.262744 -1.72207 0
M  V30 2536 C 248.606 0.402707 -3.38513 0
M  V30 2537 H 249.799 -1.27629 -2.71387 0
M  V30 2538 H 247.352 -0.698919 -1.39803 0
M  V30 2539 H 248.087 1.282 -2.97885 0
M  V30 2540 H 247.872 -0.225698 -3.9145 0
M  V30 2541 H 249.362 0.745191 -4.10897 0
M  V30 2542 N 249.799 1.42003 -0.683588 0
M  V30 2543 C 250.747 2.326 0.000815408 0
M  V30 2544 C 251.741 1.50308 0.781278 0
M  V30 2545 O 252.947 1.66322 0.688251 0
M  V30 2546 H 249.322 0.751758 0.0190616 0
M  V30 2547 H 251.293 2.88011 -0.780528 0
M  V30 2548 C 250.042 3.34978 0.93195 0
M  V30 2549 H 249.365 3.98345 0.340817 0
M  V30 2550 H 250.805 4.00936 1.37936 0
M  V30 2551 C 249.264 2.67925 2.04249 0
M  V30 2552 O 249.794 2.51788 3.12995 0
M  V30 2553 N 248 2.2681 1.81675 0
M  V30 2554 H 247.547 2.40135 0.932363 0
M  V30 2555 H 247.505 1.8228 2.56167 0
M  V30 2556 N 251.277 0.427512 1.51691 0
M  V30 2557 C 252.24 -0.377132 2.26076 0
M  V30 2558 C 253.24 -0.958089 1.29141 0
M  V30 2559 O 254.43 -0.83408 1.52934 0
M  V30 2560 C 251.562 -1.53262 3.04506 0
M  V30 2561 H 252.755 0.27464 2.9864 0
M  V30 2562 H 250.308 0.180445 1.55255 0
M  V30 2563 H 251.043 -2.22072 2.36335 0
M  V30 2564 H 250.828 -1.12232 3.75694 0
M  V30 2565 H 252.318 -2.10135 3.60878 0
M  V30 2566 N 252.755 -1.56801 0.158532 0
M  V30 2567 C 254.171 -1.5837 -0.197774 0
M  V30 2568 C 254.371 -1.17334 -1.63814 0
M  V30 2569 O 253.427 -0.878988 -2.36707 0
M  V30 2570 C 254.74 -3.00615 0.0714459 0
M  V30 2571 C 256.288 -3.12999 0.00864533 0
M  V30 2572 C 256.763 -4.57313 0.250685 0
M  V30 2573 N 258.254 -4.62777 0.198014 0
M  V30 2574 C 258.989 -5.72271 0.359642 0
M  V30 2575 N 258.485 -6.90371 0.579625 0
M  V30 2576 N 260.278 -5.61318 0.296438 0
M  V30 2577 H 252.429 -1.81765 1.09887 0
M  V30 2578 H 254.692 -0.841849 0.435884 0
M  V30 2579 H 254.398 -3.35068 1.06874 0
M  V30 2580 H 254.272 -3.71683 -0.642757 0
M  V30 2581 H 256.659 -2.7838 -0.979217 0
M  V30 2582 H 256.74 -2.44393 0.755359 0
M  V30 2583 H 256.384 -4.92639 1.2357 0
M  V30 2584 H 256.314 -5.24061 -0.516489 0
M  V30 2585 H 258.805 -3.77885 0.0331115 0
M  V30 2586 H 259.118 -7.69689 0.69275 0
M  V30 2587 H 257.463 -6.92264 0.616087 0
M  V30 2588 H 260.654 -4.67932 0.125258 0
M  V30 2589 H 260.827 -6.46599 0.425831 0
M  V30 2590 N 254.233 0.115231 -1.57178 0
M  V30 2591 C 255.143 1.15994 -2.03918 0
M  V30 2592 C 256.159 1.45103 -0.960268 0
M  V30 2593 O 257.335 1.56144 -1.27204 0
M  V30 2594 C 254.4 2.46568 -2.43732 0
M  V30 2595 C 253.461 2.24822 -3.65723 0
M  V30 2596 C 252.694 3.4917 -4.03629 0
M  V30 2597 O 252.917 4.56623 -3.41835 0
M  V30 2598 O 251.851 3.39949 -4.96708 0
M  V30 2599 H 255.677 0.793019 -2.93164 0
M  V30 2600 H 253.262 0.3263 -1.45793 0
M  V30 2601 H 255.144 3.23492 -2.70057 0
M  V30 2602 H 253.819 2.82726 -1.57631 0
M  V30 2603 H 252.726 1.45744 -3.44542 0
M  V30 2604 H 254.059 1.93566 -4.52541 0
M  V30 2605 N 255.711 1.52812 0.385517 0
M  V30 2606 C 256.674 1.77188 1.45386 0
M  V30 2607 C 257.674 0.641953 1.4743 0
M  V30 2608 O 258.864 0.910033 1.4854 0
M  V30 2609 C 255.996 1.87582 2.8465 0
M  V30 2610 H 257.189 2.72583 1.25054 0
M  V30 2611 H 254.742 1.43586 0.617467 0
M  V30 2612 H 255.477 0.941849 3.10322 0
M  V30 2613 H 255.262 2.69748 2.84567 0
M  V30 2614 H 256.752 2.08102 3.62054 0
M  V30 2615 N 257.189 -0.644168 1.43834 0
M  V30 2616 C 258.437 -1.40117 1.45642 0
M  V30 2617 C 258.758 -1.94814 0.0852413 0
M  V30 2618 O 258.028 -1.74988 -0.880688 0
M  V30 2619 H 256.608 -0.52005 0.536243 0
M  V30 2620 H 259.27 -0.7591 1.7951 0
M  V30 2621 H 258.366 -2.23902 2.17427 0
M  V30 2622 N 258.668 -1.30515 -0.883378 0
M  V30 2623 C 259.915 -1.1943 -1.63532 0
M  V30 2624 C 260.243 0.250627 -1.92878 0
M  V30 2625 O 259.498 1.19556 -1.54935 0
M  V30 2626 C 259.797 -1.96994 -2.98209 0
M  V30 2627 C 259.463 -3.466 -2.88408 0
M  V30 2628 C 258.125 -3.87397 -2.85442 0
M  V30 2629 C 260.477 -4.41863 -2.76418 0
M  V30 2630 C 257.805 -5.21745 -2.68327 0
M  V30 2631 C 260.157 -5.7632 -2.60841 0
M  V30 2632 C 258.821 -6.16354 -2.56251 0
M  V30 2633 H 258.091 -0.437025 -0.598406 0
M  V30 2634 H 260.738 -1.61635 -1.02696 0
M  V30 2635 H 259.043 -1.47429 -3.63004 0
M  V30 2636 H 260.74 -1.85808 -3.55354 0
M  V30 2637 H 257.33 -3.14182 -2.91527 0
M  V30 2638 H 261.514 -4.11285 -2.77775 0
M  V30 2639 H 256.77 -5.51853 -2.63189 0
M  V30 2640 H 260.944 -6.49772 -2.50538 0
M  V30 2641 H 258.571 -7.20401 -2.42748 0
M  V30 2642 N 260.146 1.09593 -1.13257 0
M  V30 2643 C 261.423 1.78293 -0.804432 0
M  V30 2644 C 261.803 1.99004 0.70431 0
M  V30 2645 O 261.151 1.59007 1.641 0
M  V30 2646 C 261.361 3.10707 -1.5894 0
M  V30 2647 C 262.709 3.85443 -1.78099 0
M  V30 2648 O 263.733 3.20454 -1.55525 0
M  V30 2649 O 262.592 5.02108 -2.15753 0
M  V30 2650 H 259.686 0.773156 -0.293528 0
M  V30 2651 H 262.232 1.16164 -1.23709 0
M  V30 2652 H 261.004 2.91106 -2.61482 0
M  V30 2653 H 260.627 3.80558 -1.15157 0
M  V30 2654 N 261.624 0.925811 1.2754 0
M  V30 2655 C 262.554 0.440748 2.29303 0
M  V30 2656 C 263.535 -0.497971 1.62648 0
M  V30 2657 O 264.72 -0.403126 1.8997 0
M  V30 2658 C 261.85 -0.309048 3.45922 0
M  V30 2659 C 260.804 0.54166 4.24559 0
M  V30 2660 C 260.13 -0.337191 5.33636 0
M  V30 2661 C 261.43 1.80516 4.90114 0
M  V30 2662 H 263.124 1.29121 2.70126 0
M  V30 2663 H 260.67 0.622323 1.29858 0
M  V30 2664 H 262.623 -0.659315 4.1621 0
M  V30 2665 H 261.347 -1.19352 3.04011 0
M  V30 2666 H 260.006 0.874609 3.56014 0
M  V30 2667 H 259.654 -1.22056 4.87966 0
M  V30 2668 H 259.354 0.228497 5.87156 0
M  V30 2669 H 260.878 -0.683072 6.06767 0
M  V30 2670 H 262.292 1.52307 5.52698 0
M  V30 2671 H 260.689 2.3142 5.53683 0
M  V30 2672 H 261.759 2.52581 4.13921 0
M  V30 2673 N 263.102 -1.41638 0.69111 0
M  V30 2674 C 264.348 -2.01598 0.220519 0
M  V30 2675 C 264.681 -1.54594 -1.17535 0
M  V30 2676 O 263.956 -0.755177 -1.79241 0
M  V30 2677 C 264.239 -3.59062 0.273243 0
M  V30 2678 C 264.092 -4.16203 1.70573 0
M  V30 2679 C 265.411 -4.38546 -0.369457 0
M  V30 2680 H 262.53 -0.732468 0.0816045 0
M  V30 2681 H 265.172 -1.68445 0.878986 0
M  V30 2682 H 263.322 -3.87435 -0.287411 0
M  V30 2683 H 264.994 -3.98722 2.31989 0
M  V30 2684 H 263.237 -3.71414 2.2413 0
M  V30 2685 H 263.908 -5.25358 1.69419 0
M  V30 2686 H 266.384 -4.1596 0.107977 0
M  V30 2687 H 265.26 -5.48069 -0.302002 0
M  V30 2688 H 265.521 -4.17662 -1.44951 0
M  V30 2689 N 264.58 -0.43555 -1.51462 0
M  V30 2690 C 265.49 0.383001 -2.31453 0
M  V30 2691 C 266.506 1.02931 -1.4029 0
M  V30 2692 O 267.682 1.02507 -1.73362 0
M  V30 2693 C 264.747 1.47043 -3.13973 0
M  V30 2694 C 263.808 0.844433 -4.20913 0
M  V30 2695 C 263.041 1.88004 -4.9949 0
M  V30 2696 O 263.264 3.10199 -4.78678 0
M  V30 2697 O 262.198 1.47157 -5.83634 0
M  V30 2698 H 266.024 -0.269964 -3.02498 0
M  V30 2699 H 263.609 -0.19813 -1.4808 0
M  V30 2700 H 265.491 2.10113 -3.65281 0
M  V30 2701 H 264.166 2.10751 -2.45695 0
M  V30 2702 H 263.073 0.175729 -3.73687 0
M  V30 2703 H 264.406 0.250869 -4.9156 0
M  V30 2704 N 266.058 1.56714 -0.166846 0
M  V30 2705 C 266.988 2.20754 0.760913 0
M  V30 2706 C 267.969 1.16178 1.24244 0
M  V30 2707 O 269.154 1.44592 1.29641 0
M  V30 2708 C 266.284 2.84478 1.99223 0
M  V30 2709 C 265.238 3.95053 1.64672 0
M  V30 2710 C 264.564 4.45805 2.95232 0
M  V30 2711 C 265.864 5.14865 0.878155 0
M  V30 2712 H 267.558 2.98537 0.22713 0
M  V30 2713 H 265.104 1.43596 0.107805 0
M  V30 2714 H 267.057 3.27951 2.64624 0
M  V30 2715 H 265.781 2.04056 2.55007 0
M  V30 2716 H 264.44 3.52228 1.01641 0
M  V30 2717 H 264.088 3.62181 3.49047 0
M  V30 2718 H 263.788 5.204 2.7287 0
M  V30 2719 H 265.312 4.91962 3.6167 0
M  V30 2720 H 266.726 5.55059 1.43466 0
M  V30 2721 H 265.123 5.95348 0.753738 0
M  V30 2722 H 266.193 4.84735 -0.126377 0
M  V30 2723 N 267.536 -0.106894 1.57237 0
M  V30 2724 C 268.486 -1.1366 1.9765 0
M  V30 2725 C 269.47 -1.36416 0.853203 0
M  V30 2726 O 270.662 -1.37305 1.11697 0
M  V30 2727 C 267.791 -2.46 2.39455 0
M  V30 2728 C 266.877 -2.26668 3.58445 0
M  V30 2729 N 267.268 -1.77176 4.73754 0
M  V30 2730 C 265.566 -2.57279 3.64312 0
M  V30 2731 C 266.267 -1.71836 5.5574 0
M  V30 2732 N 265.243 -2.16623 4.98573 0
M  V30 2733 H 269.045 -0.74669 2.84256 0
M  V30 2734 H 266.559 -0.314483 1.59326 0
M  V30 2735 H 268.556 -3.2049 2.6663 0
M  V30 2736 H 267.216 -2.85738 1.54219 0
M  V30 2737 H 268.227 -1.46545 4.96734 0
M  V30 2738 H 264.904 -3.00622 2.89711 0
M  V30 2739 H 266.294 -1.34723 6.58255 0
M  V30 2740 N 269.014 -1.53014 -0.377408 0
M  V30 2741 C 270.239 -1.72818 -1.14668 0
M  V30 2742 C 270.664 -0.450725 -1.8262 0
M  V30 2743 O 270.022 0.59439 -1.7128 0
M  V30 2744 C 270.07 -2.88627 -2.16164 0
M  V30 2745 O 269.174 -2.56409 -3.22998 0
M  V30 2746 H 268.515 -0.574301 -0.333278 0
M  V30 2747 H 271.045 -1.99853 -0.438152 0
M  V30 2748 H 271.055 -3.14455 -2.59966 0
M  V30 2749 H 269.73 -3.81294 -1.66095 0
M  V30 2750 H 268.307 -2.4136 -2.84253 0
M  V30 2751 N 270.492 0.636531 -1.44174 0
M  V30 2752 C 271.455 1.73063 -1.50273 0
M  V30 2753 C 272.455 1.56113 -0.385397 0
M  V30 2754 O 273.645 1.61707 -0.64781 0
M  V30 2755 C 270.777 3.12096 -1.37145 0
M  V30 2756 H 271.97 1.69031 -2.47727 0
M  V30 2757 H 269.523 0.849706 -1.31186 0
M  V30 2758 H 270.258 3.21728 -0.407636 0
M  V30 2759 H 270.043 3.25805 -2.18159 0
M  V30 2760 H 271.533 3.91846 -1.44382 0
M  V30 2761 N 271.97 1.30982 0.876444 0
M  V30 2762 C 272.92 1.14688 1.97055 0
M  V30 2763 C 273.904 0.0596593 1.60789 0
M  V30 2764 O 275.096 0.283892 1.74708 0
M  V30 2765 C 272.225 0.849627 3.3262 0
M  V30 2766 C 271.311 1.97752 3.75173 0
M  V30 2767 N 271.702 3.22384 3.89746 0
M  V30 2768 C 270 1.8758 4.04635 0
M  V30 2769 C 270.701 3.96121 4.25985 0
M  V30 2770 N 269.677 3.24237 4.36315 0
M  V30 2771 H 273.479 2.09204 2.06424 0
M  V30 2772 H 270.993 1.22445 1.06682 0
M  V30 2773 H 272.99 0.713895 4.10742 0
M  V30 2774 H 271.65 -0.087376 3.24582 0
M  V30 2775 H 272.661 3.57575 3.74647 0
M  V30 2776 H 269.338 1.01303 4.05024 0
M  V30 2777 H 270.728 5.03491 4.44911 0
M  V30 2778 N 273.449 -1.08991 1.13837 0
M  V30 2779 C 274.697 -1.80899 0.901098 0
M  V30 2780 C 275.018 -1.86356 -0.574134 0
M  V30 2781 O 274.288 -1.35235 -1.41733 0
M  V30 2782 H 272.868 -0.669966 0.330386 0
M  V30 2783 H 275.53 -1.318 1.43578 0
M  V30 2784 H 274.626 -2.83929 1.29578 0
M  V30 2785 N 274.927 -0.932562 -1.27047 0
M  V30 2786 C 276.157 -0.591173 -1.97961 0
M  V30 2787 C 276.565 0.836219 -1.69717 0
M  V30 2788 O 275.908 1.56801 -0.957036 0
M  V30 2789 C 275.97 -0.743082 -3.51736 0
M  V30 2790 C 275.634 -2.1435 -4.03613 0
M  V30 2791 C 276.631 -3.11815 -4.16014 0
M  V30 2792 C 274.316 -2.46175 -4.37839 0
M  V30 2793 C 276.31 -4.39211 -4.61923 0
M  V30 2794 C 273.997 -3.73806 -4.83438 0
M  V30 2795 C 274.995 -4.70137 -4.95439 0
M  V30 2796 O 274.683 -5.95496 -5.40037 0
M  V30 2797 H 274.415 -0.222375 -0.638377 0
M  V30 2798 H 276.969 -1.25317 -1.62742 0
M  V30 2799 H 275.199 -0.0239739 -3.86693 0
M  V30 2800 H 276.888 -0.40603 -4.03864 0
M  V30 2801 H 277.654 -2.88549 -3.89826 0
M  V30 2802 H 273.533 -1.71936 -4.27737 0
M  V30 2803 H 277.077 -5.14404 -4.71205 0
M  V30 2804 H 272.974 -3.96888 -5.09068 0
M  V30 2805 H 273.742 -5.98554 -5.58279 0
M  V30 2806 N 276.405 1.4127 -0.698611 0
M  V30 2807 C 277.335 2.33447 -0.049629 0
M  V30 2808 C 278.316 1.51982 0.763898 0
M  V30 2809 O 279.501 1.80509 0.716257 0
M  V30 2810 C 276.631 3.35828 0.885267 0
M  V30 2811 C 275.585 4.27627 0.178613 0
M  V30 2812 C 274.911 5.20406 1.22807 0
M  V30 2813 C 276.211 5.13459 -0.956933 0
M  V30 2814 H 277.905 2.87966 -0.81951 0
M  V30 2815 H 275.451 1.38461 -0.395538 0
M  V30 2816 H 277.404 3.9924 1.34854 0
M  V30 2817 H 276.128 2.79666 1.68685 0
M  V30 2818 H 274.787 3.65643 -0.26466 0
M  V30 2819 H 274.435 4.60558 2.02226 0
M  V30 2820 H 274.135 5.82661 0.760239 0
M  V30 2821 H 275.659 5.86695 1.69179 0
M  V30 2822 H 277.073 5.70421 -0.573805 0
M  V30 2823 H 275.47 5.8467 -1.35205 0
M  V30 2824 H 276.54 4.50443 -1.79524 0
M  V30 2825 N 277.883 0.443576 1.51229 0
M  V30 2826 C 278.813 -0.355142 2.30783 0
M  V30 2827 C 279.794 -1.0154 1.36468 0
M  V30 2828 O 280.979 -1.01785 1.65389 0
M  V30 2829 C 278.109 -1.45312 3.15439 0
M  V30 2830 C 277.063 -0.916002 4.18083 0
M  V30 2831 C 276.389 -2.1102 4.91299 0
M  V30 2832 C 277.689 0.0538602 5.22272 0
M  V30 2833 H 279.383 0.308767 2.97804 0
M  V30 2834 H 276.929 0.149937 1.43217 0
M  V30 2835 H 278.882 -2.01914 3.69876 0
M  V30 2836 H 277.606 -2.14541 2.46252 0
M  V30 2837 H 276.265 -0.372145 3.64706 0
M  V30 2838 H 275.913 -2.78882 4.18609 0
M  V30 2839 H 275.613 -1.75717 5.60712 0
M  V30 2840 H 277.137 -2.68164 5.48562 0
M  V30 2841 H 278.551 -0.422069 5.71744 0
M  V30 2842 H 276.948 0.319776 5.99247 0
M  V30 2843 H 278.018 0.98858 4.74716 0
M  V30 2844 N 279.361 -1.56624 0.175154 0
M  V30 2845 C 280.311 -2.14747 -0.766004 0
M  V30 2846 C 281.295 -1.08275 -1.19018 0
M  V30 2847 O 282.487 -1.34388 -1.15191 0
M  V30 2848 C 279.616 -2.79478 -1.99366 0
M  V30 2849 C 278.702 -3.93114 -1.5913 0
M  V30 2850 N 279.093 -4.97752 -0.89872 0
M  V30 2851 C 277.391 -4.04345 -1.88204 0
M  V30 2852 C 278.092 -5.77473 -0.700012 0
M  V30 2853 N 277.068 -5.29207 -1.24263 0
M  V30 2854 H 280.87 -2.93015 -0.22793 0
M  V30 2855 H 278.384 -1.6238 -0.0253843 0
M  V30 2856 H 280.381 -3.19498 -2.67818 0
M  V30 2857 H 279.041 -2.02692 -2.53665 0
M  V30 2858 H 280.052 -5.14903 -0.556347 0
M  V30 2859 H 276.729 -3.38667 -2.44153 0
M  V30 2860 H 278.119 -6.71728 -0.152047 0
M  V30 2861 N 280.839 0.0985539 -1.57292 0
M  V30 2862 C 281.771 1.14595 -1.98496 0
M  V30 2863 C 282.784 1.36512 -0.887031 0
M  V30 2864 O 283.973 1.35225 -1.16518 0
M  V30 2865 C 281.073 2.50216 -2.28572 0
M  V30 2866 C 280.246 2.48624 -3.59868 0
M  V30 2867 C 279.305 3.66146 -3.7792 0
M  V30 2868 O 278.331 3.48795 -4.49812 0
M  V30 2869 N 279.533 4.85496 -3.18235 0
M  V30 2870 H 282.298 0.795277 -2.88956 0
M  V30 2871 H 279.859 0.287579 -1.59325 0
M  V30 2872 H 281.851 3.27432 -2.37845 0
M  V30 2873 H 280.421 2.77387 -1.44136 0
M  V30 2874 H 279.641 1.56978 -3.61596 0
M  V30 2875 H 280.929 2.44635 -4.46129 0
M  V30 2876 H 280.327 5.02497 -2.59833 0
M  V30 2877 H 278.884 5.60317 -3.32999 0
M  V30 2878 N 282.317 1.53212 0.369288 0
M  V30 2879 C 283.564 1.69215 1.11232 0
M  V30 2880 C 283.892 0.442048 1.8941 0
M  V30 2881 O 283.147 -0.575944 1.87033 0
M  V30 2882 C 283.446 2.89101 2.10132 0
M  V30 2883 C 283.112 4.25758 1.48463 0
M  V30 2884 C 281.774 4.6292 1.31372 0
M  V30 2885 C 284.126 5.10757 1.03811 0
M  V30 2886 C 281.454 5.82722 0.68207 0
M  V30 2887 C 283.806 6.31201 0.420487 0
M  V30 2888 C 282.47 6.67079 0.237038 0
M  V30 2889 H 281.74 0.619201 0.407027 0
M  V30 2890 H 284.387 1.87391 0.394552 0
M  V30 2891 H 282.692 2.65421 2.88199 0
M  V30 2892 H 284.389 2.98676 2.6757 0
M  V30 2893 H 280.979 3.96494 1.62758 0
M  V30 2894 H 285.163 4.82599 1.1581 0
M  V30 2895 H 280.419 6.09113 0.528316 0
M  V30 2896 H 284.593 6.96368 0.0662874 0
M  V30 2897 H 282.22 7.59774 -0.254477 0
M  V30 2898 N 283.795 -0.628877 1.44509 0
M  V30 2899 C 284.725 -1.75187 1.54376 0
M  V30 2900 C 285.706 -1.65411 0.396618 0
M  V30 2901 O 286.891 -1.84137 0.617031 0
M  V30 2902 C 284.021 -3.13725 1.48976 0
M  V30 2903 C 282.975 -3.38291 2.62189 0
M  V30 2904 C 282.301 -4.76883 2.41841 0
M  V30 2905 C 283.601 -3.30632 4.04326 0
M  V30 2906 H 285.295 -1.67187 2.48373 0
M  V30 2907 H 282.841 -0.802909 1.19538 0
M  V30 2908 H 284.794 -3.92064 1.54478 0
M  V30 2909 H 283.518 -3.22515 0.514961 0
M  V30 2910 H 282.177 -2.62334 2.56079 0
M  V30 2911 H 281.825 -4.82378 1.42548 0
M  V30 2912 H 281.525 -4.94278 3.17747 0
M  V30 2913 H 283.049 -5.57449 2.49165 0
M  V30 2914 H 284.463 -3.98873 4.11793 0
M  V30 2915 H 282.86 -3.59561 4.80454 0
M  V30 2916 H 283.93 -2.28404 4.27738 0
M  V30 2917 N 285.273 -1.31445 -0.869486 0
M  V30 2918 C 286.498 -1.24256 -1.66058 0
M  V30 2919 C 286.923 0.188928 -1.87149 0
M  V30 2920 O 286.281 1.13522 -1.4136 0
M  V30 2921 C 286.329 -1.9924 -3.00559 0
M  V30 2922 O 285.433 -1.33007 -3.90362 0
M  V30 2923 H 284.774 -0.428973 -0.506831 0
M  V30 2924 H 287.304 -1.73521 -1.08404 0
M  V30 2925 H 287.314 -2.08854 -3.50491 0
M  V30 2926 H 285.989 -3.03342 -2.84528 0
M  V30 2927 H 284.566 -1.31848 -3.48813 0
M  V30 2928 N 286.751 1.08385 -1.14413 0
M  V30 2929 C 288.162 1.62258 -0.923535 0
M  V30 2930 C 288.513 1.88691 0.537595 0
M  V30 2931 O 287.638 1.64454 1.40655 0
M  V30 2932 C 288.233 2.94781 -1.67002 0
M  V30 2933 C 286.792 3.45437 -1.495 0
M  V30 2934 C 285.939 2.19668 -1.69238 0
M  V30 2935 H 288.89 0.916086 -1.2959 0
M  V30 2936 H 288.911 3.63229 -1.13334 0
M  V30 2937 H 288.423 2.7551 -2.73342 0
M  V30 2938 H 286.524 3.6981 -0.455097 0
M  V30 2939 H 286.637 4.22173 -2.2651 0
M  V30 2940 H 285.001 2.28849 -1.11804 0
M  V30 2941 H 285.784 2.02905 -2.7692 0
M  V30 2942 N 288.23 0.939286 1.26551 0
M  V30 2943 C 289.455 0.602008 1.98471 0
M  V30 2944 C 289.88 -0.815624 1.69497 0
M  V30 2945 O 289.238 -1.54912 0.941905 0
M  V30 2946 C 289.286 0.848407 3.50477 0
M  V30 2947 O 288.39 -0.0804009 4.12322 0
M  V30 2948 H 287.731 0.23049 0.622712 0
M  V30 2949 H 290.261 1.2617 1.61066 0
M  V30 2950 H 290.271 0.768553 4.00696 0
M  V30 2951 H 288.946 1.88171 3.70897 0
M  V30 2952 H 287.523 0.0503508 3.72866 0
M  V30 2953 N 289.708 -1.40897 0.706093 0
M  V30 2954 C 290.933 -2.05895 0.249435 0
M  V30 2955 C 291.358 -1.52823 -1.09666 0
M  V30 2956 O 290.716 -0.659589 -1.68876 0
M  V30 2957 C 290.764 -3.59872 0.22904 0
M  V30 2958 O 289.868 -4.04708 -0.792784 0
M  V30 2959 H 289.209 -0.653206 0.119241 0
M  V30 2960 H 291.739 -1.80471 0.96391 0
M  V30 2961 H 291.749 -4.07951 0.0634791 0
M  V30 2962 H 290.424 -3.97866 1.21141 0
M  V30 2963 H 289.001 -3.68111 -0.59572 0
M  V30 2964 N 291.186 -0.45159 -1.50991 0
M  V30 2965 C 292.134 0.366864 -2.29689 0
M  V30 2966 C 293.128 1.00809 -1.36139 0
M  V30 2967 O 294.334 0.941427 -1.53418 0
M  V30 2968 H 290.709 0.137133 -0.739391 0
M  V30 2969 H 292.68 -0.317538 -2.96706 0
M  V30 2970 C 291.429 1.44751 -3.16137 0
M  V30 2971 H 290.752 0.963473 -3.88017 0
M  V30 2972 H 292.192 1.99315 -3.74232 0
M  V30 2973 C 290.651 2.43869 -2.32442 0
M  V30 2974 O 291.181 3.4872 -1.99392 0
M  V30 2975 N 289.387 2.15105 -1.95392 0
M  V30 2976 H 288.934 1.29866 -2.22469 0
M  V30 2977 H 288.892 2.81661 -1.39693 0
M  V30 2978 N 292.664 1.56529 -0.183458 0
M  V30 2979 C 293.596 2.15747 0.773697 0
M  V30 2980 C 294.609 1.1162 1.1851 0
M  V30 2981 O 295.798 1.3876 1.12285 0
M  V30 2982 C 292.898 2.6952 2.05456 0
M  V30 2983 C 292.071 3.98429 1.8048 0
M  V30 2984 C 291.13 4.37145 2.92901 0
M  V30 2985 O 290.156 5.04791 2.6301 0
M  V30 2986 N 291.358 3.99695 4.2098 0
M  V30 2987 H 294.123 2.98505 0.26736 0
M  V30 2988 H 291.684 1.619 -0.0010878 0
M  V30 2989 H 293.676 2.92412 2.79781 0
M  V30 2990 H 292.246 1.91282 2.47245 0
M  V30 2991 H 291.466 3.8379 0.899947 0
M  V30 2992 H 292.754 4.82597 1.61175 0
M  V30 2993 H 292.152 3.4526 4.48121 0
M  V30 2994 H 290.709 4.27562 4.9197 0
M  V30 2995 N 294.142 -0.090211 1.57342 0
M  V30 2996 C 295.558 -0.444547 1.53284 0
M  V30 2997 C 295.758 -1.80238 0.900914 0
M  V30 2998 O 294.814 -2.4759 0.495513 0
M  V30 2999 C 296.127 -0.402543 2.97993 0
M  V30 3000 C 297.675 -0.48405 3.09234 0
M  V30 3001 C 298.15 -0.472144 4.5556 0
M  V30 3002 N 299.641 -0.532757 4.60126 0
M  V30 3003 C 300.376 -0.545462 5.708 0
M  V30 3004 N 299.872 -0.514082 6.9089 0
M  V30 3005 N 301.665 -0.59064 5.58988 0
M  V30 3006 H 293.816 0.799121 1.96794 0
M  V30 3007 H 296.079 0.297965 0.899956 0
M  V30 3008 H 295.785 0.528106 3.47712 0
M  V30 3009 H 295.659 -1.21969 3.56936 0
M  V30 3010 H 298.046 -1.40512 2.595 0
M  V30 3011 H 298.127 0.361328 2.53235 0
M  V30 3012 H 297.771 0.445 5.05947 0
M  V30 3013 H 297.701 -1.3348 5.09402 0
M  V30 3014 H 300.192 -0.562006 3.73698 0
M  V30 3015 H 300.505 -0.527195 7.71 0
M  V30 3016 H 298.85 -0.481054 6.93333 0
M  V30 3017 H 302.041 -0.61272 4.64073 0
M  V30 3018 H 302.214 -0.597073 6.45243 0
M  V30 3019 N 295.62 -1.53406 -0.361157 0
M  V30 3020 C 296.848 -1.73717 -1.12383 0
M  V30 3021 C 297.263 -0.468161 -1.82904 0
M  V30 3022 O 296.62 0.559198 -1.73722 0
M  V30 3023 C 296.671 -2.90558 -2.15078 0
M  V30 3024 O 296.392 -4.12549 -1.47428 0
M  V30 3025 C 297.893 -3.22777 -3.03858 0
M  V30 3026 H 295.113 -0.580896 -0.335858 0
M  V30 3027 H 297.657 -2.00167 -0.418728 0
M  V30 3028 H 295.812 -2.66489 -2.8118 0
M  V30 3029 H 296.226 -4.78009 -2.15887 0
M  V30 3030 H 297.7 -4.07927 -3.71887 0
M  V30 3031 H 298.177 -2.38329 -3.68912 0
M  V30 3032 H 298.783 -3.48787 -2.43367 0
M  V30 3033 N 297.098 0.621204 -1.44841 0
M  V30 3034 C 298.375 1.38 -1.38619 0
M  V30 3035 C 298.755 2.11041 -0.0498935 0
M  V30 3036 O 298.103 2.06992 0.967816 0
M  V30 3037 C 298.313 2.33817 -2.59096 0
M  V30 3038 C 299.661 2.96844 -3.03593 0
M  V30 3039 O 300.685 2.44141 -2.59371 0
M  V30 3040 O 299.544 3.92476 -3.80296 0
M  V30 3041 H 296.638 0.61811 -0.549426 0
M  V30 3042 H 299.184 0.645429 -1.56947 0
M  V30 3043 H 297.956 1.79012 -3.47952 0
M  V30 3044 H 297.579 3.14676 -2.43032 0
M  V30 3045 N 298.576 1.31904 0.862503 0
M  V30 3046 C 299.508 1.16005 1.97675 0
M  V30 3047 C 300.521 0.0971234 1.6251 0
M  V30 3048 O 301.71 0.345337 1.75128 0
M  V30 3049 C 298.81 0.751791 3.30456 0
M  V30 3050 C 297.983 1.90133 3.93914 0
M  V30 3051 C 297.042 1.4779 5.05019 0
M  V30 3052 O 296.068 2.18872 5.25437 0
M  V30 3053 N 297.27 0.369491 5.79323 0
M  V30 3054 H 300.035 2.11982 2.11857 0
M  V30 3055 H 297.596 1.24337 1.03691 0
M  V30 3056 H 299.588 0.451084 4.02178 0
M  V30 3057 H 298.158 -0.116593 3.12382 0
M  V30 3058 H 297.378 2.36896 3.15078 0
M  V30 3059 H 298.666 2.67111 4.33047 0
M  V30 3060 H 298.064 -0.222299 5.65263 0
M  V30 3061 H 296.621 0.128354 6.51674 0
M  V30 3062 N 300.054 -1.07777 1.14986 0
M  V30 3063 C 301.284 -1.83752 0.944402 0
M  V30 3064 C 301.692 -1.8218 -0.51058 0
M  V30 3065 O 301.035 -1.22852 -1.36576 0
M  V30 3066 C 301.097 -3.32128 1.37592 0
M  V30 3067 C 300.761 -3.57425 2.84775 0
M  V30 3068 C 301.758 -3.5173 3.8286 0
M  V30 3069 C 299.443 -3.8523 3.2234 0
M  V30 3070 C 301.437 -3.73482 5.16517 0
M  V30 3071 C 299.124 -4.06634 4.56171 0
M  V30 3072 C 300.122 -4.00754 5.53069 0
M  V30 3073 O 299.81 -4.2159 6.84483 0
M  V30 3074 H 299.542 -0.58673 0.335744 0
M  V30 3075 H 302.096 -1.36982 1.53052 0
M  V30 3076 H 300.326 -3.79686 0.733165 0
M  V30 3077 H 302.015 -3.89555 1.14024 0
M  V30 3078 H 302.781 -3.30256 3.55184 0
M  V30 3079 H 298.66 -3.88923 2.47508 0
M  V30 3080 H 302.204 -3.68808 5.92137 0
M  V30 3081 H 298.101 -4.27593 4.83564 0
M  V30 3082 H 298.869 -4.38961 6.90837 0
M  V30 3083 N 301.532 -0.945985 -1.26051 0
M  V30 3084 C 302.78 -0.594941 -1.93145 0
M  V30 3085 C 303.101 0.86953 -1.7454 0
M  V30 3086 O 302.371 1.61838 -1.10387 0
M  V30 3087 H 300.951 -0.217044 -0.714773 0
M  V30 3088 H 303.613 -1.20235 -1.53393 0
M  V30 3089 H 302.709 -0.816835 -3.01221 0
M  V30 3090 N 303.011 1.40521 -0.713556 0
M  V30 3091 C 304.259 2.00527 -0.251692 0
M  V30 3092 C 304.58 1.56857 1.15848 0
M  V30 3093 O 303.85 0.807127 1.785 0
M  V30 3094 H 302.43 0.741551 -0.0900646 0
M  V30 3095 H 305.092 1.71887 -0.918733 0
M  V30 3096 H 304.188 3.10813 -0.283192 0
M  V30 3097 N 304.489 0.459591 1.5075 0
M  V30 3098 C 305.714 -0.0996819 2.0716 0
M  V30 3099 C 306.139 -1.33761 1.32249 0
M  V30 3100 O 305.497 -1.77551 0.366786 0
M  V30 3101 C 305.545 -0.378226 3.58611 0
M  V30 3102 O 304.649 -1.46081 3.85661 0
M  V30 3103 H 303.99 0.00791392 0.663953 0
M  V30 3104 H 306.52 0.647329 1.9409 0
M  V30 3105 H 306.53 -0.622135 4.03229 0
M  V30 3106 H 305.205 0.526439 4.12555 0
M  V30 3107 H 303.782 -1.20511 3.5289 0
M  V30 3108 N 305.967 -1.56429 0.191757 0
M  V30 3109 C 307.213 -1.97777 -0.448554 0
M  V30 3110 C 307.546 -1.07847 -1.61501 0
M  V30 3111 O 306.821 -0.129774 -1.94067 0
M  V30 3112 C 307.104 -3.48362 -0.911906 0
M  V30 3113 C 306.957 -4.4907 0.256136 0
M  V30 3114 C 308.276 -4.02561 -1.77857 0
M  V30 3115 H 305.395 -0.719071 -0.161572 0
M  V30 3116 H 308.037 -1.87896 0.282007 0
M  V30 3117 H 306.187 -3.56914 -1.53442 0
M  V30 3118 H 307.859 -4.5256 0.893733 0
M  V30 3119 H 306.102 -4.24181 0.908436 0
M  V30 3120 H 306.773 -5.51889 -0.11053 0
M  V30 3121 H 309.249 -3.96767 -1.25359 0
M  V30 3122 H 308.125 -5.08301 -2.07174 0
M  V30 3123 H 308.386 -3.47616 -2.73158 0
M  V30 3124 N 307.445 0.0818655 -1.57387 0
M  V30 3125 C 308.355 1.11642 -2.06333 0
M  V30 3126 C 309.371 1.43033 -0.99083 0
M  V30 3127 O 310.547 1.53411 -1.30488 0
M  V30 3128 C 307.612 2.41342 -2.48907 0
M  V30 3129 C 306.673 2.17014 -3.7041 0
M  V30 3130 C 305.906 3.4053 -4.10944 0
M  V30 3131 O 306.129 4.4927 -3.51444 0
M  V30 3132 O 305.063 3.29336 -5.03807 0
M  V30 3133 H 308.889 0.730657 -2.9478 0
M  V30 3134 H 306.474 0.295301 -1.46452 0
M  V30 3135 H 308.356 3.17691 -2.76858 0
M  V30 3136 H 307.031 2.79319 -1.63593 0
M  V30 3137 H 305.938 1.38403 -3.47556 0
M  V30 3138 H 307.271 1.83923 -4.56545 0
M  V30 3139 N 308.923 1.53595 0.353017 0
M  V30 3140 C 309.871 1.81605 1.45335 0
M  V30 3141 C 310.865 0.685923 1.54892 0
M  V30 3142 O 312.071 0.869095 1.57628 0
M  V30 3143 H 308.446 0.575204 0.484401 0
M  V30 3144 H 310.417 2.73679 1.18921 0
M  V30 3145 C 309.166 2.03406 2.81995 0
M  V30 3146 H 308.489 2.89814 2.75405 0
M  V30 3147 H 309.929 2.26975 3.58132 0
M  V30 3148 C 308.388 0.816794 3.26849 0
M  V30 3149 O 308.918 0.0115856 4.01698 0
M  V30 3150 N 307.124 0.636682 2.8354 0
M  V30 3151 H 306.671 1.2931 2.22793 0
M  V30 3152 H 306.629 -0.176336 3.13905 0
M  V30 3153 N 310.401 -0.613514 1.45168 0
M  V30 3154 C 311.817 -0.933629 1.29443 0
M  V30 3155 C 312.017 -2.00028 0.243101 0
M  V30 3156 O 311.073 -2.49848 -0.364992 0
M  V30 3157 C 312.386 -1.38018 2.67155 0
M  V30 3158 C 313.934 -1.49471 2.75004 0
M  V30 3159 C 314.409 -1.97503 4.13227 0
M  V30 3160 N 315.9 -2.04746 4.15491 0
M  V30 3161 C 316.635 -2.43121 5.19307 0
M  V30 3162 N 316.131 -2.80506 6.33473 0
M  V30 3163 N 317.924 -2.43408 5.06664 0
M  V30 3164 H 310.075 0.0916097 2.12202 0
M  V30 3165 H 312.338 -0.0216655 0.947752 0
M  V30 3166 H 312.044 -0.670625 3.45247 0
M  V30 3167 H 311.918 -2.34784 2.95222 0
M  V30 3168 H 314.305 -2.19519 1.9722 0
M  V30 3169 H 314.386 -0.510342 2.50657 0
M  V30 3170 H 314.03 -1.28045 4.91495 0
M  V30 3171 H 313.96 -2.96843 4.34962 0
M  V30 3172 H 316.451 -1.78468 3.33103 0
M  V30 3173 H 316.764 -3.08652 7.08487 0
M  V30 3174 H 315.109 -2.78216 6.36884 0
M  V30 3175 H 318.3 -2.13604 4.16523 0
M  V30 3176 H 318.473 -2.72989 5.87691 0
M  V30 3177 N 311.879 -1.3236 -0.855495 0
M  V30 3178 C 312.842 -1.21164 -1.94556 0
M  V30 3179 C 313.842 -0.134908 -1.60233 0
M  V30 3180 O 315.032 -0.385249 -1.69887 0
M  V30 3181 C 312.164 -0.863192 -3.29791 0
M  V30 3182 H 313.357 -2.18038 -2.05911 0
M  V30 3183 H 310.91 -1.16179 -1.04557 0
M  V30 3184 H 311.645 0.103769 -3.24134 0
M  V30 3185 H 311.43 -1.64166 -3.56078 0
M  V30 3186 H 312.92 -0.809156 -4.09686 0
M  V30 3187 N 313.357 1.07166 -1.15556 0
M  V30 3188 C 314.773 1.31899 -0.898603 0
M  V30 3189 C 314.973 1.96333 0.453383 0
M  V30 3190 O 314.029 2.22438 1.19489 0
M  V30 3191 C 315.342 2.20826 -2.04099 0
M  V30 3192 C 316.89 2.34269 -2.07574 0
M  V30 3193 C 317.365 3.26546 -3.21141 0
M  V30 3194 N 318.856 3.34127 -3.20801 0
M  V30 3195 C 319.591 4.05595 -4.05315 0
M  V30 3196 N 319.087 4.79661 -4.99897 0
M  V30 3197 N 320.88 4.01555 -3.93332 0
M  V30 3198 H 313.031 0.637302 -2.02613 0
M  V30 3199 H 315.294 0.343468 -0.883591 0
M  V30 3200 H 315 1.80744 -3.01703 0
M  V30 3201 H 314.874 3.21364 -1.97496 0
M  V30 3202 H 317.261 2.73603 -1.10568 0
M  V30 3203 H 317.342 1.33429 -2.18244 0
M  V30 3204 H 316.986 2.87931 -4.184 0
M  V30 3205 H 316.916 4.27345 -3.07708 0
M  V30 3206 H 319.407 2.81336 -2.52306 0
M  V30 3207 H 319.72 5.31694 -5.60822 0
M  V30 3208 H 318.065 4.78671 -5.03884 0
M  V30 3209 H 321.256 3.42806 -3.18751 0
M  V30 3210 H 321.429 4.56987 -4.5942 0
M  V30 3211 N 314.835 0.952656 1.25548 0
M  V30 3212 C 315.765 0.489287 2.28316 0
M  V30 3213 C 316.746 -0.463359 1.63667 0
M  V30 3214 O 317.931 -0.36274 1.90782 0
M  V30 3215 C 315.061 -0.235603 3.465 0
M  V30 3216 C 314.015 0.631593 4.23314 0
M  V30 3217 C 313.341 -0.223923 5.34231 0
M  V30 3218 C 314.641 1.90871 4.86174 0
M  V30 3219 H 316.335 1.34822 2.67326 0
M  V30 3220 H 313.881 0.649728 1.28509 0
M  V30 3221 H 315.834 -0.570882 4.17515 0
M  V30 3222 H 314.558 -1.12877 3.06474 0
M  V30 3223 H 313.217 0.949929 3.54079 0
M  V30 3224 H 312.865 -1.11678 4.90446 0
M  V30 3225 H 312.565 0.35299 5.86539 0
M  V30 3226 H 314.089 -0.554214 6.0808 0
M  V30 3227 H 315.503 1.63997 5.49343 0
M  V30 3228 H 313.9 2.43112 5.4865 0
M  V30 3229 H 314.97 2.61304 4.08471 0
M  V30 3230 N 316.313 -1.40141 0.720998 0
M  V30 3231 C 317.559 -2.01084 0.263231 0
M  V30 3232 C 317.892 -1.57052 -1.14229 0
M  V30 3233 O 317.167 -0.793027 -1.77599 0
M  V30 3234 C 317.45 -3.58401 0.349344 0
M  V30 3235 C 317.303 -4.12491 1.79363 0
M  V30 3236 C 318.622 -4.39231 -0.276351 0
M  V30 3237 H 315.741 -0.730572 0.0971228 0
M  V30 3238 H 318.383 -1.66543 0.914518 0
M  V30 3239 H 316.533 -3.87958 -0.205165 0
M  V30 3240 H 318.205 -3.93711 2.40394 0
M  V30 3241 H 316.448 -3.66576 2.31958 0
M  V30 3242 H 317.119 -5.21646 1.80524 0
M  V30 3243 H 319.595 -4.15637 0.196184 0
M  V30 3244 H 318.471 -5.48586 -0.185681 0
M  V30 3245 H 318.732 -4.20643 -1.36059 0
M  V30 3246 N 317.792 -0.46758 -1.50504 0
M  V30 3247 C 318.722 0.318381 -2.31319 0
M  V30 3248 C 319.703 0.993564 -1.38066 0
M  V30 3249 O 320.888 0.991411 -1.66987 0
M  V30 3250 C 318.018 1.40275 -3.17711 0
M  V30 3251 C 316.972 0.849373 -4.19487 0
M  V30 3252 C 316.298 2.03177 -4.94594 0
M  V30 3253 C 317.598 -0.136942 -5.2212 0
M  V30 3254 H 319.292 -0.356106 -2.97275 0
M  V30 3255 H 316.838 -0.172703 -1.42961 0
M  V30 3256 H 318.791 1.96004 -3.73042 0
M  V30 3257 H 317.515 2.10596 -2.49634 0
M  V30 3258 H 316.174 0.314076 -3.65252 0
M  V30 3259 H 315.822 2.72187 -4.22993 0
M  V30 3260 H 315.522 1.66774 -5.63436 0
M  V30 3261 H 317.046 2.59403 -5.52759 0
M  V30 3262 H 318.46 0.331056 -5.72343 0
M  V30 3263 H 316.857 -0.41507 -5.98663 0
M  V30 3264 H 317.927 -1.06398 -4.73083 0
M  V30 3265 N 319.27 1.56325 -0.20005 0
M  V30 3266 C 320.18 2.22931 0.730668 0
M  V30 3267 C 321.196 1.22997 1.23076 0
M  V30 3268 O 322.372 1.55748 1.27689 0
M  V30 3269 C 319.437 2.87948 1.93098 0
M  V30 3270 C 318.498 4.03166 1.47497 0
M  V30 3271 C 317.731 4.65073 2.61807 0
M  V30 3272 O 317.954 4.25913 3.79413 0
M  V30 3273 O 316.888 5.54452 2.34237 0
M  V30 3274 H 320.714 3.03084 0.193391 0
M  V30 3275 H 318.299 1.49371 0.0294621 0
M  V30 3276 H 320.181 3.29063 2.6324 0
M  V30 3277 H 318.856 2.10771 2.45677 0
M  V30 3278 H 317.763 3.66664 0.742201 0
M  V30 3279 H 319.096 4.82022 0.995796 0
M  V30 3280 N 320.748 -0.0735177 1.57428 0
M  V30 3281 C 321.994 -0.774145 1.87443 0
M  V30 3282 C 322.327 -1.77311 0.792103 0
M  V30 3283 O 321.602 -1.93492 -0.197793 0
M  V30 3284 C 321.885 -1.48367 3.28115 0
M  V30 3285 C 321.738 -0.501227 4.46999 0
M  V30 3286 C 323.057 -2.429 3.66998 0
M  V30 3287 H 320.176 -0.279971 0.681752 0
M  V30 3288 H 322.818 -0.0373616 1.89963 0
M  V30 3289 H 320.968 -2.11171 3.26097 0
M  V30 3290 H 322.64 0.121468 4.6114 0
M  V30 3291 H 320.883 0.183593 4.33411 0
M  V30 3292 H 321.554 -1.03526 5.42205 0
M  V30 3293 H 324.03 -1.90175 3.70098 0
M  V30 3294 H 322.906 -2.89549 4.66318 0
M  V30 3295 H 323.167 -3.27628 2.96837 0
M  V30 3296 N 322.226 -1.5378 -0.344866 0
M  V30 3297 C 323.472 -1.71216 -1.08687 0
M  V30 3298 C 323.805 -0.473281 -1.88345 0
M  V30 3299 O 323.08 0.52968 -1.87149 0
M  V30 3300 C 323.363 -2.97486 -2.02914 0
M  V30 3301 C 323.216 -4.31579 -1.26727 0
M  V30 3302 C 324.535 -3.19422 -3.0275 0
M  V30 3303 H 321.654 -0.62301 -0.393735 0
M  V30 3304 H 324.296 -1.8645 -0.365563 0
M  V30 3305 H 322.446 -2.84629 -2.64421 0
M  V30 3306 H 324.118 -4.56284 -0.67845 0
M  V30 3307 H 322.361 -4.30049 -0.569273 0
M  V30 3308 H 323.032 -5.16106 -1.95803 0
M  V30 3309 H 325.508 -3.316 -2.51357 0
M  V30 3310 H 324.384 -4.09169 -3.65885 0
M  V30 3311 H 324.645 -2.35656 -3.74057 0
M  V30 3312 N 323.704 0.605807 -1.45491 0
M  V30 3313 C 324.981 1.36522 -1.40075 0
M  V30 3314 C 325.361 2.10976 -0.0722744 0
M  V30 3315 O 324.709 2.08007 0.945808 0
M  V30 3316 C 324.919 2.31056 -2.61561 0
M  V30 3317 C 326.267 2.93608 -3.06724 0
M  V30 3318 O 327.291 2.41376 -2.61946 0
M  V30 3319 O 326.15 3.88421 -3.84437 0
M  V30 3320 H 323.244 0.612248 -0.555951 0
M  V30 3321 H 325.79 0.628747 -1.57623 0
M  V30 3322 H 324.562 1.75311 -3.49831 0
M  V30 3323 H 324.185 3.12081 -2.46356 0
M  V30 3324 N 325.182 1.32811 0.848464 0
M  V30 3325 C 326.145 1.22194 1.9391 0
M  V30 3326 C 327.145 0.143404 1.60159 0
M  V30 3327 O 328.335 0.394253 1.6968 0
M  V30 3328 C 325.467 0.88067 3.29328 0
M  V30 3329 H 326.66 2.19127 2.04752 0
M  V30 3330 H 324.213 1.16731 1.0394 0
M  V30 3331 H 324.948 -0.0865776 3.24184 0
M  V30 3332 H 324.733 1.66052 3.55203 0
M  V30 3333 H 326.223 0.830871 4.09251 0
M  V30 3334 N 326.66 -1.06551 1.16123 0
M  V30 3335 C 327.906 -1.79567 0.94252 0
M  V30 3336 C 328.239 -1.86869 -0.528547 0
M  V30 3337 O 327.514 -1.35838 -1.39206 0
M  V30 3338 C 327.797 -3.24195 1.56747 0
M  V30 3339 C 327.65 -3.24989 3.10969 0
M  V30 3340 C 328.969 -4.21678 1.25998 0
M  V30 3341 H 326.088 -0.651883 0.343828 0
M  V30 3342 H 328.73 -1.2463 1.43413 0
M  V30 3343 H 326.88 -3.71107 1.14942 0
M  V30 3344 H 328.552 -2.86258 3.61737 0
M  V30 3345 H 326.795 -2.63716 3.44436 0
M  V30 3346 H 327.466 -4.27005 3.49815 0
M  V30 3347 H 329.942 -3.83196 1.62174 0
M  V30 3348 H 328.818 -5.21146 1.7233 0
M  V30 3349 H 329.079 -4.4174 0.178367 0
M  V30 3350 N 328.138 -0.959301 -1.25041 0
M  V30 3351 C 329.378 -0.624343 -1.94631 0
M  V30 3352 C 329.742 0.82403 -1.73418 0
M  V30 3353 O 330.943 1.26881 -2.3697 0
M  V30 3354 C 329.214 -0.978805 -3.43736 0
M  V30 3355 S 330.773 -0.757127 -4.32219 0
M  V30 3356 H 327.591 -0.229327 -0.673001 0
M  V30 3357 H 330.193 -1.23447 -1.51595 0
M  V30 3358 H 328.897 -2.02997 -3.56679 0
M  V30 3359 H 328.428 -0.359117 -3.91757 0
M  V30 3360 H 330.443 0.369759 -4.9482 0
M  V30 3361 N 329.616 1.39756 -0.72842 0
M  V30 3362 C 330.564 2.32485 -0.0731849 0
M  V30 3363 C 331.558 1.52717 0.733063 0
M  V30 3364 O 332.764 1.68428 0.634988 0
M  V30 3365 H 329.139 0.751984 -0.00486469 0
M  V30 3366 H 331.11 2.85382 -0.871761 0
M  V30 3367 C 329.859 3.37773 0.824908 0
M  V30 3368 H 329.182 3.99227 0.213915 0
M  V30 3369 H 330.622 4.05121 1.25111 0
M  V30 3370 C 329.081 2.74287 1.95622 0
M  V30 3371 O 329.611 2.61618 3.04826 0
M  V30 3372 N 327.817 2.32475 1.74367 0
M  V30 3373 H 327.364 2.4298 0.855494 0
M  V30 3374 H 327.322 1.90337 2.50238 0
M  V30 3375 N 331.094 0.475555 1.50254 0
M  V30 3376 C 332.004 -0.321501 2.32387 0
M  V30 3377 C 333.02 -0.991755 1.42969 0
M  V30 3378 O 334.196 -0.978747 1.76018 0
M  V30 3379 C 331.261 -1.38667 3.17762 0
M  V30 3380 C 330.322 -0.732538 4.23004 0
M  V30 3381 C 329.555 -1.74695 5.04299 0
M  V30 3382 O 329.778 -2.97399 4.86734 0
M  V30 3383 O 328.712 -1.31631 5.8733 0
M  V30 3384 H 332.538 0.350071 3.01676 0
M  V30 3385 H 330.123 0.237321 1.47503 0
M  V30 3386 H 332.005 -2.00354 3.70724 0
M  V30 3387 H 330.68 -2.04163 2.51196 0
M  V30 3388 H 329.587 -0.0765902 3.74022 0
M  V30 3389 H 330.92 -0.120452 4.92053 0
M  V30 3390 N 332.573 -1.56217 0.208337 0
M  V30 3391 C 333.819 -1.98998 -0.42086 0
M  V30 3392 C 334.174 -1.09331 -1.58317 0
M  V30 3393 O 333.467 -0.140466 -1.91084 0
M  V30 3394 C 333.661 -3.45441 -0.916797 0
M  V30 3395 C 333.49 -4.49273 0.195925 0
M  V30 3396 C 332.26 -5.00998 0.657956 0
M  V30 3397 C 334.458 -5.04294 1.00956 0
M  V30 3398 N 332.44 -5.88514 1.74712 0
M  V30 3399 C 333.811 -5.88607 1.94785 0
M  V30 3400 C 335.866 -4.86692 1.05049 0
M  V30 3401 C 334.569 -6.572 2.9237 0
M  V30 3402 C 336.595 -5.56034 2.01446 0
M  V30 3403 C 335.957 -6.40105 2.94016 0
M  V30 3404 H 332.056 -0.772574 -0.121048 0
M  V30 3405 H 334.64 -1.92101 0.317075 0
M  V30 3406 H 332.811 -3.52812 -1.62413 0
M  V30 3407 H 334.543 -3.75164 -1.51771 0
M  V30 3408 H 331.298 -4.72945 0.248912 0
M  V30 3409 H 331.722 -6.36975 2.2933 0
M  V30 3410 H 336.364 -4.21359 0.348759 0
M  V30 3411 H 334.082 -7.21723 3.63512 0
M  V30 3412 H 337.668 -5.44385 2.0527 0
M  V30 3413 H 336.548 -6.92816 3.6739 0
M  V30 3414 N 334.051 0.0651679 -1.57465 0
M  V30 3415 C 335.276 0.779605 -1.9219 0
M  V30 3416 C 335.701 1.69988 -0.805333 0
M  V30 3417 O 335.059 1.79685 0.241435 0
M  V30 3418 C 335.107 1.54364 -3.2589 0
M  V30 3419 O 334.211 2.65474 -3.1559 0
M  V30 3420 H 333.552 0.212249 -0.629163 0
M  V30 3421 H 336.082 0.0314294 -2.04576 0
M  V30 3422 H 336.092 1.92146 -3.59922 0
M  V30 3423 H 334.767 0.868457 -4.06732 0
M  V30 3424 H 333.344 2.30501 -2.93128 0
M  V30 3425 N 335.529 1.53961 0.336706 0
M  V30 3426 C 336.492 1.81724 1.39675 0
M  V30 3427 C 337.492 0.688532 1.45313 0
M  V30 3428 O 338.682 0.956829 1.45569 0
M  V30 3429 C 335.814 1.96543 2.78538 0
M  V30 3430 H 337.007 2.76424 1.16318 0
M  V30 3431 H 334.56 1.45478 0.571474 0
M  V30 3432 H 335.295 1.0401 3.07168 0
M  V30 3433 H 335.08 2.78665 2.75841 0
M  V30 3434 H 336.57 2.19516 3.5525 0
M  V30 3435 N 337.007 -0.598083 1.45811 0
M  V30 3436 C 338.284 -1.35777 1.40797 0
M  V30 3437 C 338.664 -2.10935 0.083462 0
M  V30 3438 O 338.012 -2.08505 -0.934763 0
M  V30 3439 C 338.222 -2.29666 2.62783 0
M  V30 3440 C 339.57 -2.91977 3.08277 0
M  V30 3441 O 340.594 -2.39984 2.63223 0
M  V30 3442 O 339.453 -3.86376 3.86491 0
M  V30 3443 H 336.547 -0.609291 0.55919 0
M  V30 3444 H 339.093 -0.620379 1.57954 0
M  V30 3445 H 337.865 -1.73454 3.50756 0
M  V30 3446 H 337.488 -3.1077 2.48008 0
M  V30 3447 N 338.485 -1.33259 -0.841409 0
M  V30 3448 C 339.901 -1.12538 -1.13169 0
M  V30 3449 C 340.101 0.0854037 -2.01319 0
M  V30 3450 O 339.157 0.766417 -2.40587 0
M  V30 3451 C 340.47 -2.41156 -1.79623 0
M  V30 3452 C 342.018 -2.47038 -1.922 0
M  V30 3453 C 342.493 -3.7561 -2.6207 0
M  V30 3454 N 343.984 -3.76667 -2.69585 0
M  V30 3455 C 344.719 -4.72861 -3.2433 0
M  V30 3456 N 344.215 -5.79428 -3.79783 0
M  V30 3457 N 346.008 -4.6034 -3.22558 0
M  V30 3458 H 338.159 -2.10868 -0.254676 0
M  V30 3459 H 340.422 -0.931615 -0.175493 0
M  V30 3460 H 340.128 -3.29747 -1.22311 0
M  V30 3461 H 340.002 -2.53114 -2.79666 0
M  V30 3462 H 342.389 -1.58898 -2.48667 0
M  V30 3463 H 342.47 -2.39022 -0.911148 0
M  V30 3464 H 342.114 -4.64131 -2.06263 0
M  V30 3465 H 342.044 -3.80902 -3.63622 0
M  V30 3466 H 344.535 -2.99648 -2.30259 0
M  V30 3467 H 344.848 -6.48867 -4.19752 0
M  V30 3468 H 343.193 -5.83166 -3.78078 0
M  V30 3469 H 346.384 -3.76244 -2.78492 0
M  V30 3470 H 346.557 -5.35478 -3.64921 0
M  V30 3471 N 339.963 1.05934 -1.16686 0
M  V30 3472 C 341.212 1.78188 -0.945085 0
M  V30 3473 C 341.525 1.88338 0.528021 0
M  V30 3474 O 342.731 2.57258 0.867799 0
M  V30 3475 C 341.187 3.20277 -1.64167 0
M  V30 3476 C 340.795 3.18281 -3.15279 0
M  V30 3477 C 342.539 3.97039 -1.502 0
M  V30 3478 C 340.446 4.55112 -3.7766 0
M  V30 3479 H 339.376 0.667866 -0.349959 0
M  V30 3480 H 342.027 1.18794 -1.39858 0
M  V30 3481 H 340.409 3.79952 -1.11589 0
M  V30 3482 H 341.583 2.68167 -3.74731 0
M  V30 3483 H 339.898 2.55018 -3.29173 0
M  V30 3484 H 342.495 4.98194 -1.94183 0
M  V30 3485 H 342.838 4.13845 -0.451461 0
M  V30 3486 H 343.371 3.43894 -1.99954 0
M  V30 3487 H 340.11 4.43512 -4.82677 0
M  V30 3488 H 339.63 5.05406 -3.22994 0
M  V30 3489 H 341.309 5.24064 -3.79428 0
M  V30 3490 N 341.441 0.965919 1.2453 0
M  V30 3491 C 342.689 0.625593 1.92174 0
M  V30 3492 C 343.01 -0.841652 1.75901 0
M  V30 3493 O 342.28 -1.60061 1.12948 0
M  V30 3494 H 340.86 0.228388 0.71123 0
M  V30 3495 H 343.522 1.2266 1.51461 0
M  V30 3496 H 342.618 0.864653 2.99884 0
M  V30 3497 N 342.919 -1.39368 0.735821 0
M  V30 3498 C 344.168 -1.99733 0.281004 0
M  V30 3499 C 344.481 -1.59055 -1.13846 0
M  V30 3500 O 345.687 -2.12262 -1.69284 0
M  V30 3501 C 344.143 -3.57057 0.451462 0
M  V30 3502 C 343.751 -4.06697 1.87886 0
M  V30 3503 C 345.495 -4.2446 0.0584616 0
M  V30 3504 C 343.402 -5.56598 1.99883 0
M  V30 3505 H 342.332 -0.747163 0.101311 0
M  V30 3506 H 344.983 -1.59357 0.909819 0
M  V30 3507 H 343.365 -3.95234 -0.246263 0
M  V30 3508 H 344.539 -3.79853 2.60861 0
M  V30 3509 H 342.854 -3.5196 2.22515 0
M  V30 3510 H 345.451 -5.34549 0.127099 0
M  V30 3511 H 345.794 -4.04444 -0.986433 0
M  V30 3512 H 346.327 -3.9146 0.707374 0
M  V30 3513 H 343.066 -5.81494 3.02564 0
M  V30 3514 H 342.586 -5.85242 1.31346 0
M  V30 3515 H 344.265 -6.22022 1.78039 0
M  V30 3516 N 344.397 -0.483516 -1.5 0
M  V30 3517 C 345.813 -0.138404 -1.58999 0
M  V30 3518 C 346.013 1.35597 -1.4905 0
M  V30 3519 O 345.069 2.13039 -1.35539 0
M  V30 3520 C 346.382 -0.699658 -2.92447 0
M  V30 3521 C 347.93 -0.664195 -3.05872 0
M  V30 3522 C 348.405 -1.20321 -4.41913 0
M  V30 3523 N 349.896 -1.16315 -4.48358 0
M  V30 3524 C 350.631 -1.55058 -5.52037 0
M  V30 3525 N 350.127 -2.01311 -6.62907 0
M  V30 3526 N 351.92 -1.46584 -5.42651 0
M  V30 3527 H 344.071 -1.45529 -1.5471 0
M  V30 3528 H 346.334 -0.60258 -0.731848 0
M  V30 3529 H 346.04 -1.747 -3.05242 0
M  V30 3530 H 345.914 -0.150194 -3.76901 0
M  V30 3531 H 348.301 0.374272 -2.92717 0
M  V30 3532 H 348.382 -1.25061 -2.23144 0
M  V30 3533 H 348.026 -2.24037 -4.55818 0
M  V30 3534 H 347.956 -0.592896 -5.23252 0
M  V30 3535 H 350.447 -0.824058 -3.68806 0
M  V30 3536 H 350.76 -2.2899 -7.38095 0
M  V30 3537 H 349.105 -2.05273 -6.63994 0
M  V30 3538 H 352.296 -1.10281 -4.54924 0
M  V30 3539 H 352.469 -1.77103 -6.23329 0
M  V30 3540 N 345.875 1.56104 -0.216619 0
M  V30 3541 C 347.121 1.98466 0.417033 0
M  V30 3542 C 347.454 1.10403 1.59765 0
M  V30 3543 O 346.729 0.160632 1.93836 0
M  V30 3544 C 347.012 3.49769 0.85637 0
M  V30 3545 C 346.865 4.48606 -0.327546 0
M  V30 3546 C 348.184 4.05339 1.7143 0
M  V30 3547 H 345.303 0.721551 0.150112 0
M  V30 3548 H 347.945 1.87423 -0.311864 0
M  V30 3549 H 346.095 3.5931 1.47745 0
M  V30 3550 H 347.767 4.5108 -0.965618 0
M  V30 3551 H 346.01 4.22682 -0.975805 0
M  V30 3552 H 346.681 5.51995 0.0227149 0
M  V30 3553 H 349.157 3.98712 1.19031 0
M  V30 3554 H 348.033 5.11533 1.99061 0
M  V30 3555 H 348.294 3.51918 2.67593 0
M  V30 3556 N 347.353 -0.0568162 1.57498 0
M  V30 3557 C 348.578 -0.769402 1.92601 0
M  V30 3558 C 349.003 -1.69559 0.814336 0
M  V30 3559 O 348.361 -1.79811 -0.231903 0
M  V30 3560 C 348.409 -1.52634 3.26704 0
M  V30 3561 O 347.513 -2.63797 3.16994 0
M  V30 3562 H 346.854 -0.208909 0.63028 0
M  V30 3563 H 349.384 -0.0205798 2.0459 0
M  V30 3564 H 349.394 -1.90234 3.60936 0
M  V30 3565 H 348.069 -0.846875 4.07186 0
M  V30 3566 H 346.646 -2.28943 2.94346 0
M  V30 3567 N 348.832 -1.54138 -0.328536 0
M  V30 3568 C 350.243 -1.63395 -0.903272 0
M  V30 3569 C 350.594 -0.524828 -1.8905 0
M  V30 3570 O 349.719 0.343068 -2.13663 0
M  V30 3571 C 350.314 -2.9618 -1.64507 0
M  V30 3572 C 348.873 -3.0765 -2.1686 0
M  V30 3573 C 348.02 -2.58933 -0.992416 0
M  V30 3574 H 350.971 -1.58344 -0.106253 0
M  V30 3575 H 350.992 -2.86061 -2.50897 0
M  V30 3576 H 350.504 -3.76884 -0.926302 0
M  V30 3577 H 348.605 -2.31611 -2.91868 0
M  V30 3578 H 348.718 -4.1337 -2.42202 0
M  V30 3579 H 347.082 -2.14706 -1.37016 0
M  V30 3580 H 347.865 -3.42089 -0.288041 0
M  V30 3581 N 350.31 0.590341 -1.46126 0
M  V30 3582 C 351.559 1.34499 -1.50309 0
M  V30 3583 C 351.872 1.94977 -0.156021 0
M  V30 3584 O 353.078 2.71395 -0.0756037 0
M  V30 3585 C 351.534 2.43723 -2.64815 0
M  V30 3586 C 351.142 1.89582 -4.0591 0
M  V30 3587 C 352.886 3.20579 -2.78262 0
M  V30 3588 C 350.793 2.9639 -5.11769 0
M  V30 3589 H 349.723 0.505593 -0.559368 0
M  V30 3590 H 352.374 0.630848 -1.72315 0
M  V30 3591 H 350.756 3.17902 -2.36124 0
M  V30 3592 H 351.93 1.21997 -4.44357 0
M  V30 3593 H 350.245 1.25418 -3.97063 0
M  V30 3594 H 352.842 4.00276 -3.54519 0
M  V30 3595 H 353.185 3.72684 -1.85505 0
M  V30 3596 H 353.718 2.53505 -3.06562 0
M  V30 3597 H 350.457 2.49181 -6.06291 0
M  V30 3598 H 349.977 3.62487 -4.77873 0
M  V30 3599 H 351.656 3.60474 -5.37278 0
M  V30 3600 N 351.788 1.33704 0.83433 0
M  V30 3601 C 353.036 1.25169 1.58673 0
M  V30 3602 C 353.357 -0.18127 1.94156 0
M  V30 3603 O 352.627 -1.11113 1.6134 0
M  V30 3604 H 351.207 0.4603 0.58833 0
M  V30 3605 H 353.869 1.67478 0.996847 0
M  V30 3606 H 352.965 1.84856 2.51465 0
M  V30 3607 N 353.266 -1.05314 1.17247 0
M  V30 3608 C 354.494 -1.81971 0.984593 0
M  V30 3609 C 354.909 -1.82929 -0.467166 0
M  V30 3610 O 354.266 -1.25564 -1.32438 0
M  V30 3611 C 354.317 -3.28143 1.51672 0
M  V30 3612 O 354.038 -3.27347 2.91163 0
M  V30 3613 C 355.539 -4.21493 1.37326 0
M  V30 3614 H 352.759 -0.573455 0.348411 0
M  V30 3615 H 355.303 -1.32808 1.55506 0
M  V30 3616 H 353.458 -3.74582 0.988302 0
M  V30 3617 H 353.872 -4.18824 3.15732 0
M  V30 3618 H 355.346 -5.22043 1.79375 0
M  V30 3619 H 355.823 -4.38031 0.320169 0
M  V30 3620 H 356.429 -3.80909 1.89178 0
M  V30 3621 N 354.744 -0.972509 -1.24016 0
M  V30 3622 C 355.991 -0.637034 -1.92219 0
M  V30 3623 C 356.319 0.828418 -1.75976 0
M  V30 3624 O 355.574 1.61206 -1.10955 0
M  V30 3625 C 355.873 -0.963694 -3.44162 0
M  V30 3626 C 355.539 -2.41807 -3.80579 0
M  V30 3627 C 354.201 -2.81556 -3.9023 0
M  V30 3628 C 356.553 -3.36172 -3.98293 0
M  V30 3629 C 353.881 -4.14702 -4.15017 0
M  V30 3630 C 356.233 -4.68952 -4.24578 0
M  V30 3631 C 354.897 -5.08472 -4.32449 0
M  V30 3632 H 354.167 -0.233107 -0.703379 0
M  V30 3633 H 356.814 -1.2249 -1.47202 0
M  V30 3634 H 355.119 -0.29365 -3.90698 0
M  V30 3635 H 356.816 -0.682449 -3.9515 0
M  V30 3636 H 353.406 -2.09988 -3.73635 0
M  V30 3637 H 357.59 -3.06644 -3.90234 0
M  V30 3638 H 352.846 -4.4494 -4.19331 0
M  V30 3639 H 357.02 -5.42037 -4.37229 0
M  V30 3640 H 354.647 -6.11665 -4.51409 0
M  V30 3641 N 356.222 1.38976 -0.743202 0
M  V30 3642 C 357.154 2.29096 -0.0689228 0
M  V30 3643 C 358.167 1.47229 0.694791 0
M  V30 3644 O 359.356 1.70212 0.537597 0
M  V30 3645 C 356.456 3.25988 0.926548 0
M  V30 3646 C 355.629 4.36833 0.222647 0
M  V30 3647 C 354.688 5.13981 1.12739 0
M  V30 3648 O 353.714 5.6601 0.601795 0
M  V30 3649 N 354.916 5.25966 2.45641 0
M  V30 3650 H 357.681 2.87604 -0.842846 0
M  V30 3651 H 355.242 1.50645 -0.593109 0
M  V30 3652 H 357.234 3.74476 1.5346 0
M  V30 3653 H 355.804 2.68453 1.60162 0
M  V30 3654 H 355.024 3.90116 -0.565983 0
M  V30 3655 H 356.312 5.0811 -0.264841 0
M  V30 3656 H 355.71 4.85228 2.9081 0
M  V30 3657 H 354.267 5.77865 3.01522 0
M  V30 3658 N 357.7 0.491464 1.49741 0
M  V30 3659 C 358.648 -0.305837 2.30581 0
M  V30 3660 C 359.642 -0.971642 1.38764 0
M  V30 3661 O 360.848 -0.90042 1.5586 0
M  V30 3662 H 357.223 -0.117482 0.742767 0
M  V30 3663 H 359.194 0.396093 2.95759 0
M  V30 3664 C 357.943 -1.36319 3.19863 0
M  V30 3665 H 357.266 -0.860258 3.90435 0
M  V30 3666 H 358.706 -1.89323 3.79385 0
M  V30 3667 C 357.165 -2.37621 2.38826 0
M  V30 3668 O 357.695 -3.43311 2.08567 0
M  V30 3669 N 355.901 -2.09849 2.01026 0
M  V30 3670 H 355.448 -1.23922 2.25834 0
M  V30 3671 H 355.406 -2.77859 1.47112 0
M  V30 3672 N 359.178 -1.55987 0.224894 0
M  V30 3673 C 360.424 -1.98684 -0.406502 0
M  V30 3674 C 360.757 -1.11248 -1.59177 0
M  V30 3675 O 360.032 -0.170909 -1.93748 0
M  V30 3676 C 360.315 -3.50218 -0.837808 0
M  V30 3677 C 360.168 -4.48426 0.351332 0
M  V30 3678 C 361.487 -4.06243 -1.69278 0
M  V30 3679 H 358.606 -0.722337 -0.146283 0
M  V30 3680 H 361.248 -1.87255 0.321799 0
M  V30 3681 H 359.398 -3.60089 -1.45837 0
M  V30 3682 H 361.07 -4.50562 0.989526 0
M  V30 3683 H 359.313 -4.22159 0.998207 0
M  V30 3684 H 359.984 -5.52 0.00655905 0
M  V30 3685 H 362.46 -3.99337 -1.16914 0
M  V30 3686 H 361.336 -5.12581 -1.96346 0
M  V30 3687 H 361.597 -3.53332 -2.65723 0
M  V30 3688 N 360.656 0.0484629 -1.57525 0
M  V30 3689 C 361.933 0.777447 -1.79486 0
M  V30 3690 C 362.313 1.94597 -0.818251 0
M  V30 3691 O 361.661 2.28047 0.143767 0
M  V30 3692 C 361.871 1.22864 -3.26658 0
M  V30 3693 C 363.219 1.65251 -3.91123 0
M  V30 3694 O 364.243 1.32372 -3.3069 0
M  V30 3695 O 363.102 2.26207 -4.97486 0
M  V30 3696 H 360.196 0.374357 -0.737419 0
M  V30 3697 H 362.742 0.0267359 -1.69679 0
M  V30 3698 H 361.514 0.393589 -3.89316 0
M  V30 3699 H 361.137 2.03996 -3.41279 0
M  V30 3700 N 362.134 1.5431 0.320358 0
M  V30 3701 C 363.082 1.84647 1.4145 0
M  V30 3702 C 364.076 0.718624 1.53402 0
M  V30 3703 O 365.282 0.902335 1.5575 0
M  V30 3704 H 361.657 0.585349 0.472091 0
M  V30 3705 H 363.628 2.7614 1.13089 0
M  V30 3706 C 362.377 2.09341 2.77617 0
M  V30 3707 H 361.7 2.9559 2.69196 0
M  V30 3708 H 363.14 2.3452 3.53237 0
M  V30 3709 C 361.599 0.885939 3.25043 0
M  V30 3710 O 362.129 0.0967891 4.01583 0
M  V30 3711 N 360.335 0.696682 2.82125 0
M  V30 3712 H 359.882 1.34006 2.2 0
M  V30 3713 H 359.84 -0.109712 3.14209 0
M  V30 3714 N 363.613 -0.582584 1.46437 0
M  V30 3715 C 364.861 -1.33814 1.51453 0
M  V30 3716 C 365.182 -1.94277 0.167792 0
M  V30 3717 O 364.452 -1.78566 -0.805677 0
M  V30 3718 H 363.032 -0.496838 0.557818 0
M  V30 3719 H 365.694 -0.682281 1.82568 0
M  V30 3720 H 364.79 -2.14479 2.26728 0
M  V30 3721 N 365.091 -1.34144 -0.827227 0
M  V30 3722 C 366.502 -1.23557 -1.39966 0
M  V30 3723 C 366.853 0.140731 -1.95695 0
M  V30 3724 O 365.978 1.04087 -1.89723 0
M  V30 3725 C 366.573 -2.23708 -2.54441 0
M  V30 3726 C 365.132 -2.16924 -3.07605 0
M  V30 3727 C 364.279 -2.10549 -1.80456 0
M  V30 3728 H 367.23 -1.45573 -0.631991 0
M  V30 3729 H 367.251 -1.85157 -3.32411 0
M  V30 3730 H 366.763 -3.23866 -2.13851 0
M  V30 3731 H 364.864 -1.20107 -3.52711 0
M  V30 3732 H 364.977 -3.07988 -3.66988 0
M  V30 3733 H 363.341 -1.56203 -2.01178 0
M  V30 3734 H 364.124 -3.12535 -1.42046 0
M  V30 3735 N 366.569 1.04691 -1.17803 0
M  V30 3736 C 367.517 2.14665 -0.895635 0
M  V30 3737 C 368.511 1.68806 0.141679 0
M  V30 3738 O 369.717 1.79999 -0.00587914 0
M  V30 3739 H 366.092 0.701038 -0.272121 0
M  V30 3740 H 368.063 2.35685 -1.83017 0
M  V30 3741 C 366.812 3.45019 -0.430962 0
M  V30 3742 H 366.135 3.8071 -1.22064 0
M  V30 3743 H 367.575 4.23125 -0.272301 0
M  V30 3744 C 366.034 3.25943 0.852207 0
M  V30 3745 O 366.564 3.5296 1.91786 0
M  V30 3746 N 364.77 2.79304 0.802346 0
M  V30 3747 H 364.317 2.57518 -0.0650788 0
M  V30 3748 H 364.275 2.66921 1.66134 0
M  V30 3749 N 368.047 0.979072 1.23499 0
M  V30 3750 C 368.957 0.526431 2.28617 0
M  V30 3751 C 369.973 -0.418126 1.68901 0
M  V30 3752 O 371.149 -0.288372 1.99325 0
M  V30 3753 C 368.214 -0.165235 3.46306 0
M  V30 3754 C 367.275 0.82056 4.21385 0
M  V30 3755 C 366.508 0.161807 5.33455 0
M  V30 3756 O 366.731 -1.04742 5.60701 0
M  V30 3757 O 365.665 0.859708 5.95729 0
M  V30 3758 H 369.491 1.4006 2.69475 0
M  V30 3759 H 367.076 0.746643 1.29405 0
M  V30 3760 H 368.958 -0.553287 4.17752 0
M  V30 3761 H 367.633 -1.01419 3.07402 0
M  V30 3762 H 366.54 1.25929 3.52268 0
M  V30 3763 H 367.873 1.63828 4.64135 0
M  V30 3764 N 369.525 -1.3858 0.750561 0
M  V30 3765 C 370.435 -2.34278 0.122825 0
M  V30 3766 C 371.451 -1.59116 -0.704131 0
M  V30 3767 O 372.627 -1.91326 -0.628987 0
M  V30 3768 C 369.692 -3.38221 -0.762086 0
M  V30 3769 C 368.753 -4.29227 0.078896 0
M  V30 3770 C 367.986 -5.28205 -0.763874 0
M  V30 3771 O 368.209 -5.34112 -2.00201 0
M  V30 3772 O 367.143 -6.01618 -0.18428 0
M  V30 3773 H 370.969 -2.89649 0.913088 0
M  V30 3774 H 368.554 -1.40374 0.511417 0
M  V30 3775 H 370.436 -4.01872 -1.26793 0
M  V30 3776 H 369.111 -2.85211 -1.5309 0
M  V30 3777 H 368.018 -3.68747 0.630621 0
M  V30 3778 H 369.351 -4.85484 0.810289 0
M  V30 3779 N 371.003 -0.499398 -1.49478 0
M  V30 3780 C 371.966 0.268838 -2.27618 0
M  V30 3781 C 372.966 0.895383 -1.33565 0
M  V30 3782 O 374.156 0.760164 -1.56739 0
M  V30 3783 C 371.288 1.38559 -3.11471 0
M  V30 3784 H 372.481 -0.416812 -2.96989 0
M  V30 3785 H 370.034 -0.254313 -1.54217 0
M  V30 3786 H 370.769 2.10544 -2.46661 0
M  V30 3787 H 370.554 0.941797 -3.80621 0
M  V30 3788 H 372.044 1.92678 -3.70493 0
M  V30 3789 N 372.481 1.55866 -0.233164 0
M  V30 3790 C 373.758 1.90471 0.444988 0
M  V30 3791 C 374.138 1.15209 1.7689 0
M  V30 3792 O 373.486 0.265119 2.26957 0
M  V30 3793 C 373.696 3.4333 0.626559 0
M  V30 3794 C 375.044 4.14319 0.92871 0
M  V30 3795 O 376.068 3.48993 0.712926 0
M  V30 3796 O 374.927 5.29846 1.33887 0
M  V30 3797 H 372.021 0.792347 0.236885 0
M  V30 3798 H 374.567 1.67437 -0.276211 0
M  V30 3799 H 373.339 3.90095 -0.306822 0
M  V30 3800 H 372.962 3.72181 1.39881 0
M  V30 3801 N 373.959 -0.0401083 1.57549 0
M  V30 3802 C 374.922 -1.02871 2.04817 0
M  V30 3803 C 375.922 -1.29708 0.950388 0
M  V30 3804 O 377.112 -1.24897 1.21435 0
M  V30 3805 C 374.244 -2.36443 2.45576 0
M  V30 3806 H 375.437 -0.620631 2.93408 0
M  V30 3807 H 372.99 -0.286667 1.53649 0
M  V30 3808 H 373.725 -2.82021 1.60108 0
M  V30 3809 H 373.51 -2.18296 3.25713 0
M  V30 3810 H 375 -3.07441 2.82612 0
M  V30 3811 N 375.437 -1.54477 -0.31217 0
M  V30 3812 C 376.367 -1.87652 -1.38957 0
M  V30 3813 C 377.348 -0.734358 -1.53431 0
M  V30 3814 O 378.533 -0.98911 -1.67123 0
M  V30 3815 C 375.663 -2.11396 -2.75552 0
M  V30 3816 C 374.617 -3.27243 -2.75855 0
M  V30 3817 C 373.943 -3.36382 -4.15633 0
M  V30 3818 C 375.243 -4.64622 -2.38587 0
M  V30 3819 H 376.937 -2.77887 -1.11442 0
M  V30 3820 H 374.483 -1.33707 -0.534655 0
M  V30 3821 H 376.436 -2.33189 -3.51 0
M  V30 3822 H 375.16 -1.17921 -3.04569 0
M  V30 3823 H 373.819 -3.05356 -2.02863 0
M  V30 3824 H 373.467 -2.40445 -4.41809 0
M  V30 3825 H 373.167 -4.14249 -4.1674 0
M  V30 3826 H 374.691 -3.60422 -4.92877 0
M  V30 3827 H 376.105 -4.86219 -3.03749 0
M  V30 3828 H 374.502 -5.45121 -2.50925 0
M  V30 3829 H 375.572 -4.66097 -1.33723 0
M  V30 3830 N 376.915 0.57481 -1.46744 0
M  V30 3831 C 378.145 1.35659 -1.55821 0
M  V30 3832 C 378.553 1.88129 -0.201036 0
M  V30 3833 O 377.896 1.64723 0.813134 0
M  V30 3834 C 377.958 2.57473 -2.50894 0
M  V30 3835 C 377.622 2.26415 -3.9697 0
M  V30 3836 C 378.619 1.84771 -4.85958 0
M  V30 3837 C 376.304 2.38316 -4.42166 0
M  V30 3838 C 378.298 1.55434 -6.18158 0
M  V30 3839 C 375.985 2.08591 -5.74398 0
M  V30 3840 C 376.983 1.67216 -6.62214 0
M  V30 3841 O 376.671 1.37859 -7.91991 0
M  V30 3842 H 376.403 0.420496 -0.529301 0
M  V30 3843 H 378.957 0.704967 -1.92923 0
M  V30 3844 H 377.187 3.25468 -2.08824 0
M  V30 3845 H 378.876 3.19546 -2.50291 0
M  V30 3846 H 379.642 1.75085 -4.52295 0
M  V30 3847 H 375.521 2.69483 -3.74032 0
M  V30 3848 H 379.065 1.23065 -6.86659 0
M  V30 3849 H 374.962 2.17905 -6.07608 0
M  V30 3850 H 375.73 1.51638 -8.04331 0
M  V30 3851 N 378.394 1.34581 0.820102 0
M  V30 3852 C 379.324 1.29038 1.94606 0
M  V30 3853 C 380.305 0.1673 1.69275 0
M  V30 3854 O 381.49 0.360112 1.90832 0
M  V30 3855 C 378.62 1.04793 3.31113 0
M  V30 3856 C 377.574 2.13597 3.70891 0
M  V30 3857 C 376.9 1.74537 5.05412 0
M  V30 3858 C 378.2 3.55451 3.8269 0
M  V30 3859 H 379.894 2.23248 1.99501 0
M  V30 3860 H 377.44 1.0747 0.958449 0
M  V30 3861 H 379.393 0.995592 4.0947 0
M  V30 3862 H 378.117 0.0702565 3.26524 0
M  V30 3863 H 376.776 2.17905 2.9481 0
M  V30 3864 H 376.424 0.754226 4.97313 0
M  V30 3865 H 376.124 2.47361 5.32997 0
M  V30 3866 H 377.648 1.70803 5.86224 0
M  V30 3867 H 379.062 3.5354 4.51312 0
M  V30 3868 H 377.459 4.26922 4.21732 0
M  V30 3869 H 378.529 3.92587 2.84611 0
M  V30 3870 N 379.872 -1.04064 1.18357 0
M  V30 3871 C 381.121 -1.76662 0.973313 0
M  V30 3872 C 381.434 -1.89154 -0.497991 0
M  V30 3873 O 382.64 -2.58606 -0.826762 0
M  V30 3874 C 381.096 -3.17624 1.69242 0
M  V30 3875 C 380.704 -3.13225 3.20303 0
M  V30 3876 C 382.448 -3.946 1.56497 0
M  V30 3877 C 380.355 -4.49046 3.84853 0
M  V30 3878 H 379.285 -0.662214 0.36054 0
M  V30 3879 H 381.936 -1.16553 1.41731 0
M  V30 3880 H 380.318 -3.78129 1.1762 0
M  V30 3881 H 381.492 -2.62172 3.78949 0
M  V30 3882 H 379.807 -2.49749 3.33189 0
M  V30 3883 H 382.404 -4.95042 2.02084 0
M  V30 3884 H 382.747 -4.13074 0.517243 0
M  V30 3885 H 383.28 -3.4067 2.05399 0
M  V30 3886 H 380.019 -4.35777 4.89672 0
M  V30 3887 H 379.539 -5.00203 3.30994 0
M  V30 3888 H 381.218 -5.17961 3.87718 0
M  V30 3889 N 381.35 -0.985608 -1.22978 0
M  V30 3890 C 382.26 -0.538548 -2.28335 0
M  V30 3891 C 383.276 0.409163 -1.69121 0
M  V30 3892 O 384.452 0.277797 -1.99475 0
M  V30 3893 C 381.517 0.146867 -3.46389 0
M  V30 3894 C 380.578 -0.842896 -4.20944 0
M  V30 3895 C 379.811 -0.190095 -5.33361 0
M  V30 3896 O 380.034 1.01767 -5.61248 0
M  V30 3897 O 378.968 -0.891289 -5.95264 0
M  V30 3898 H 382.794 -1.41487 -2.68729 0
M  V30 3899 H 380.379 -0.753495 -1.29007 0
M  V30 3900 H 382.261 0.531125 -4.1804 0
M  V30 3901 H 380.936 0.997871 -3.07935 0
M  V30 3902 H 379.843 -1.27795 -3.51595 0
M  V30 3903 H 381.176 -1.66287 -4.6326 0
M  V30 3904 N 382.828 1.3818 -0.7579 0
M  V30 3905 C 383.738 2.3421 -0.135247 0
M  V30 3906 C 384.754 1.59487 0.695683 0
M  V30 3907 O 385.93 1.91657 0.618832 0
M  V30 3908 C 382.995 3.3862 0.744139 0
M  V30 3909 C 382.056 4.2918 -0.101658 0
M  V30 3910 C 381.289 5.28603 0.735851 0
M  V30 3911 O 381.512 5.35166 1.97366 0
M  V30 3912 O 380.446 6.01707 0.152372 0
M  V30 3913 H 384.272 2.8916 -0.928436 0
M  V30 3914 H 381.857 1.40101 -0.518855 0
M  V30 3915 H 383.739 4.02539 1.2466 0
M  V30 3916 H 382.414 2.86019 1.51575 0
M  V30 3917 H 381.321 3.68407 -0.650167 0
M  V30 3918 H 382.654 4.85048 -0.836024 0
M  V30 3919 N 384.306 0.507319 1.49211 0
M  V30 3920 C 385.236 -0.256939 2.32082 0
M  V30 3921 C 386.217 -0.956609 1.40652 0
M  V30 3922 O 387.402 -0.946788 1.69557 0
M  V30 3923 C 384.532 -1.31802 3.21318 0
M  V30 3924 C 383.486 -0.737855 4.21592 0
M  V30 3925 C 382.812 -1.89992 4.99807 0
M  V30 3926 C 384.112 0.275325 5.21574 0
M  V30 3927 H 385.806 0.434798 2.96226 0
M  V30 3928 H 383.352 0.210546 1.42452 0
M  V30 3929 H 385.305 -1.86045 3.78107 0
M  V30 3930 H 384.029 -2.03903 2.5513 0
M  V30 3931 H 382.688 -0.217126 3.65956 0
M  V30 3932 H 382.336 -2.60877 4.30061 0
M  V30 3933 H 382.036 -1.51777 5.6766 0
M  V30 3934 H 383.56 -2.44657 5.59442 0
M  V30 3935 H 384.974 -0.179193 5.7302 0
M  V30 3936 H 383.371 0.573649 5.97352 0
M  V30 3937 H 384.441 1.18903 4.70096 0
M  V30 3938 N 385.784 -1.5574 0.241426 0
M  V30 3939 C 386.747 -2.19877 -0.647063 0
M  V30 3940 C 387.747 -1.16642 -1.10686 0
M  V30 3941 O 388.937 -1.41757 -1.01245 0
M  V30 3942 C 386.069 -2.83797 -1.88871 0
M  V30 3943 H 387.262 -2.99772 -0.087574 0
M  V30 3944 H 384.815 -1.56298 -0.00813574 0
M  V30 3945 H 385.55 -2.07824 -2.48957 0
M  V30 3946 H 385.335 -3.59414 -1.56728 0
M  V30 3947 H 386.825 -3.32898 -2.52129 0
M  V30 3948 N 387.262 0.0317525 -1.57568 0
M  V30 3949 C 388.209 1.0332 -2.06382 0
M  V30 3950 C 389.179 1.36082 -0.952414 0
M  V30 3951 O 390.364 1.46466 -1.2228 0
M  V30 3952 C 387.504 2.32989 -2.54578 0
M  V30 3953 C 386.617 2.0641 -3.79498 0
M  V30 3954 C 385.752 3.2993 -4.16317 0
M  V30 3955 C 384.791 2.98893 -5.34162 0
M  V30 3956 N 383.928 4.14857 -5.66426 0
M  V30 3957 H 388.768 0.609982 -2.9169 0
M  V30 3958 H 386.305 0.289573 -1.44222 0
M  V30 3959 H 388.263 3.0875 -2.80587 0
M  V30 3960 H 386.893 2.73039 -1.7219 0
M  V30 3961 H 385.945 1.21158 -3.6059 0
M  V30 3962 H 387.257 1.79513 -4.65378 0
M  V30 3963 H 386.411 4.1406 -4.4344 0
M  V30 3964 H 385.15 3.59938 -3.29083 0
M  V30 3965 H 384.155 2.13164 -5.06795 0
M  V30 3966 H 385.38 2.70165 -6.23047 0
M  V30 3967 H 383.326 4.44821 -4.82151 0
M  V30 3968 H 383.243 3.91374 -6.4681 0
M  V30 3969 H 384.511 4.99868 -5.98124 0
M  V30 3970 N 388.74 1.54641 0.303973 0
M  V30 3971 C 390.156 1.45788 0.649463 0
M  V30 3972 C 390.356 0.64666 1.90842 0
M  V30 3973 O 389.412 0.153183 2.52035 0
M  V30 3974 C 390.725 2.89718 0.805227 0
M  V30 3975 C 392.273 2.99742 0.901305 0
M  V30 3976 C 392.748 4.44863 1.08909 0
M  V30 3977 N 394.239 4.48559 1.15536 0
M  V30 3978 C 394.974 5.58026 1.3189 0
M  V30 3979 N 394.47 6.77422 1.45161 0
M  V30 3980 N 396.263 5.45708 1.34755 0
M  V30 3981 H 388.414 2.05854 -0.523237 0
M  V30 3982 H 390.677 0.932186 -0.172431 0
M  V30 3983 H 390.383 3.51666 -0.0489108 0
M  V30 3984 H 390.257 3.36964 1.69513 0
M  V30 3985 H 392.644 2.3791 1.74593 0
M  V30 3986 H 392.725 2.55797 -0.0125531 0
M  V30 3987 H 392.369 5.07288 0.249241 0
M  V30 3988 H 392.299 4.86436 2.01713 0
M  V30 3989 H 394.79 3.6254 1.06646 0
M  V30 3990 H 395.103 7.56604 1.57387 0
M  V30 3991 H 393.448 6.80292 1.42223 0
M  V30 3992 H 396.639 4.51378 1.23996 0
M  V30 3993 H 396.812 6.3107 1.47157 0
M  V30 3994 N 390.218 -0.567019 1.47046 0
M  V30 3995 C 391.466 -1.322 1.52864 0
M  V30 3996 C 391.787 -1.94088 0.188388 0
M  V30 3997 O 391.057 -1.7941 -0.786693 0
M  V30 3998 H 389.637 -0.490894 0.563056 0
M  V30 3999 H 392.299 -0.662879 1.83281 0
M  V30 4000 H 391.395 -2.12062 2.2899 0
M  V30 4001 N 391.696 -1.35014 -0.812953 0
M  V30 4002 C 392.945 -1.27269 -1.56479 0
M  V30 4003 C 393.258 0.152771 -1.95002 0
M  V30 4004 O 394.464 0.352451 -2.69203 0
M  V30 4005 C 392.92 -2.23159 -2.82362 0
M  V30 4006 C 392.528 -3.71016 -2.511 0
M  V30 4007 C 394.272 -2.24342 -3.60376 0
M  V30 4008 C 392.179 -4.58746 -3.73237 0
M  V30 4009 H 391.109 -0.472829 -0.587324 0
M  V30 4010 H 393.76 -1.6024 -0.894171 0
M  V30 4011 H 392.142 -1.83151 -3.51101 0
M  V30 4012 H 393.316 -4.1962 -1.90409 0
M  V30 4013 H 391.631 -3.72378 -1.86343 0
M  V30 4014 H 394.228 -2.87107 -4.51081 0
M  V30 4015 H 394.571 -1.24542 -3.97234 0
M  V30 4016 H 395.104 -2.62846 -2.98591 0
M  V30 4017 H 391.843 -5.59521 -3.41492 0
M  V30 4018 H 391.363 -4.14871 -4.33176 0
M  V30 4019 H 393.042 -4.73852 -4.40537 0
M  V30 4020 N 393.175 1.03435 -1.18907 0
M  V30 4021 C 394.138 2.09756 -0.923844 0
M  V30 4022 C 395.138 1.60528 0.093416 0
M  V30 4023 O 396.328 1.73631 -0.140727 0
M  V30 4024 C 393.46 3.38692 -0.387354 0
M  V30 4025 H 394.653 2.34719 -1.86674 0
M  V30 4026 H 392.206 1.19959 -1.00197 0
M  V30 4027 H 392.941 3.19396 0.561845 0
M  V30 4028 H 392.726 3.75742 -1.12074 0
M  V30 4029 H 394.216 4.17016 -0.220694 0
M  V30 4030 N 394.653 0.992116 1.22453 0
M  V30 4031 C 395.883 0.684949 1.94915 0
M  V30 4032 C 396.291 -0.754292 1.73514 0
M  V30 4033 O 395.634 -1.52056 1.03076 0
M  V30 4034 C 395.696 0.910054 3.47791 0
M  V30 4035 C 395.36 2.33363 3.92926 0
M  V30 4036 C 396.357 3.31308 4.00663 0
M  V30 4037 C 394.042 2.66785 4.25595 0
M  V30 4038 C 396.036 4.6075 4.40441 0
M  V30 4039 C 393.723 3.96446 4.65053 0
M  V30 4040 C 394.721 4.9324 4.72444 0
M  V30 4041 O 394.409 6.20584 5.1101 0
M  V30 4042 H 394.141 0.25258 0.62704 0
M  V30 4043 H 396.695 1.32939 1.56577 0
M  V30 4044 H 394.925 0.208443 3.86138 0
M  V30 4045 H 396.614 0.598257 4.01467 0
M  V30 4046 H 397.38 3.0682 3.75615 0
M  V30 4047 H 393.259 1.92148 4.19047 0
M  V30 4048 H 396.803 5.363 4.46126 0
M  V30 4049 H 392.7 4.20724 4.89552 0
M  V30 4050 H 393.468 6.24509 5.29085 0
M  V30 4051 N 396.131 -1.37776 0.765217 0
M  V30 4052 C 397.061 -2.32945 0.160953 0
M  V30 4053 C 398.042 -1.55454 -0.690516 0
M  V30 4054 O 399.227 -1.83721 -0.629318 0
M  V30 4055 C 396.357 -3.39669 -0.724031 0
M  V30 4056 C 395.311 -4.27992 0.0256173 0
M  V30 4057 C 394.637 -5.25673 -0.978383 0
M  V30 4058 C 395.937 -5.08309 1.20082 0
M  V30 4059 H 397.631 -2.83728 0.955969 0
M  V30 4060 H 395.177 -1.36416 0.461149 0
M  V30 4061 H 397.13 -4.05219 -1.15652 0
M  V30 4062 H 395.854 -2.87396 -1.5515 0
M  V30 4063 H 394.513 -3.63964 0.438812 0
M  V30 4064 H 394.161 -4.69682 -1.80022 0
M  V30 4065 H 393.861 -5.85625 -0.481378 0
M  V30 4066 H 395.385 -5.94098 -1.40995 0
M  V30 4067 H 396.799 -5.67034 0.845307 0
M  V30 4068 H 395.196 -5.77554 1.62947 0
M  V30 4069 H 396.266 -4.41365 2.00811 0
M  V30 4070 N 397.609 -0.515225 -1.4894 0
M  V30 4071 C 398.559 0.275113 -2.26334 0
M  V30 4072 C 399.543 0.923007 -1.31793 0
M  V30 4073 O 400.735 0.828254 -1.56426 0
M  V30 4074 C 397.864 1.33041 -3.16473 0
M  V30 4075 C 396.95 0.688051 -4.18481 0
M  V30 4076 N 397.341 -0.217638 -5.05332 0
M  V30 4077 C 395.639 0.94699 -4.3583 0
M  V30 4078 C 396.34 -0.58676 -5.78733 0
M  V30 4079 N 395.316 0.0486966 -5.43578 0
M  V30 4080 H 399.118 -0.421876 -2.90856 0
M  V30 4081 H 396.632 -0.332249 -1.58965 0
M  V30 4082 H 398.629 1.9102 -3.70563 0
M  V30 4083 H 397.289 2.02894 -2.53504 0
M  V30 4084 H 398.3 -0.589343 -5.14536 0
M  V30 4085 H 394.977 1.63719 -3.8406 0
M  V30 4086 H 396.367 -1.32855 -6.58634 0
M  V30 4087 N 399.087 1.5561 -0.249682 0
M  V30 4088 C 400.02 2.17537 0.689408 0
M  V30 4089 C 400.998 1.12829 1.17083 0
M  V30 4090 O 402.182 1.41229 1.24846 0
M  V30 4091 C 399.309 2.77828 1.93725 0
M  V30 4092 C 398.355 3.95615 1.59346 0
M  V30 4093 S 399.188 5.30988 0.69367 0
M  V30 4094 C 400.344 5.94734 1.95046 0
M  V30 4095 H 400.577 2.96852 0.163142 0
M  V30 4096 H 398.11 1.54362 -0.0341166 0
M  V30 4097 H 400.068 3.13199 2.65361 0
M  V30 4098 H 398.729 1.98454 2.43465 0
M  V30 4099 H 397.922 4.364 2.52132 0
M  V30 4100 H 397.524 3.61535 0.957512 0
M  V30 4101 H 399.816 6.12419 2.89739 0
M  V30 4102 H 400.759 6.90109 1.58604 0
M  V30 4103 H 401.167 5.23832 2.10381 0
M  V30 4104 N 400.565 -0.0233959 1.57583 0
M  V30 4105 C 401.79 -0.728376 1.94189 0
M  V30 4106 C 402.215 -1.67793 0.850119 0
M  V30 4107 O 401.573 -1.80262 -0.19371 0
M  V30 4108 C 401.621 -1.45669 3.29868 0
M  V30 4109 O 400.725 -2.57013 3.22518 0
M  V30 4110 H 400.066 -0.195493 0.63457 0
M  V30 4111 H 402.596 0.0228214 2.04587 0
M  V30 4112 H 402.606 -1.82535 3.6489 0
M  V30 4113 H 401.281 -0.760314 4.08891 0
M  V30 4114 H 399.858 -2.22648 2.99136 0
M  V30 4115 N 402.043 -1.548 -0.295768 0
M  V30 4116 C 402.953 -1.89177 -1.38742 0
M  V30 4117 C 403.969 -0.786481 -1.55211 0
M  V30 4118 O 405.145 -1.08344 -1.69775 0
M  V30 4119 C 402.21 -2.13663 -2.73036 0
M  V30 4120 C 401.271 -3.37349 -2.65508 0
M  V30 4121 C 400.504 -3.60658 -3.93398 0
M  V30 4122 O 400.727 -2.86882 -4.93006 0
M  V30 4123 O 399.661 -4.54179 -3.94975 0
M  V30 4124 H 403.487 -2.82059 -1.12589 0
M  V30 4125 H 401.072 -1.41056 -0.492295 0
M  V30 4126 H 402.954 -2.3094 -3.52484 0
M  V30 4127 H 401.629 -1.23967 -2.99022 0
M  V30 4128 H 400.536 -3.25431 -1.84514 0
M  V30 4129 H 401.869 -4.27192 -2.44474 0
M  V30 4130 N 403.521 0.559213 -1.47345 0
M  V30 4131 C 404.749 1.34194 -1.57479 0
M  V30 4132 C 405.164 1.87463 -0.224261 0
M  V30 4133 O 404.521 1.64888 0.782185 0
M  V30 4134 C 404.572 2.51324 -2.59843 0
M  V30 4135 O 404.293 2.00256 -3.89653 0
M  V30 4136 C 405.794 3.43563 -2.80142 0
M  V30 4137 H 403.014 0.409136 -0.531835 0
M  V30 4138 H 405.558 0.677609 -1.92947 0
M  V30 4139 H 403.713 3.13699 -2.27314 0
M  V30 4140 H 404.127 2.76708 -4.4557 0
M  V30 4141 H 405.601 4.2217 -3.55635 0
M  V30 4142 H 406.078 3.9698 -1.87892 0
M  V30 4143 H 406.684 2.87005 -3.1386 0
M  V30 4144 N 404.999 1.35443 0.805782 0
M  V30 4145 C 406.276 1.19325 1.54987 0
M  V30 4146 C 406.656 -0.227294 2.09873 0
M  V30 4147 O 406.004 -1.2309 1.92512 0
M  V30 4148 C 406.214 2.26196 2.65775 0
M  V30 4149 C 407.562 2.62043 3.34094 0
M  V30 4150 O 408.586 2.25115 2.76046 0
M  V30 4151 O 407.445 3.25542 4.38958 0
M  V30 4152 H 404.539 0.463623 0.684823 0
M  V30 4153 H 407.085 1.47127 0.845674 0
M  V30 4154 H 405.857 3.21471 2.23096 0
M  V30 4155 H 405.48 1.99667 3.43829 0
M  V30 4156 N 406.477 -1.02803 1.19454 0
M  V30 4157 C 407.407 -2.12999 0.956758 0
M  V30 4158 C 408.388 -1.69743 -0.110188 0
M  V30 4159 O 409.573 -1.94148 0.0450038 0
M  V30 4160 C 406.703 -3.43746 0.495553 0
M  V30 4161 C 405.657 -4.00688 1.50443 0
M  V30 4162 C 404.983 -5.27067 0.900275 0
M  V30 4163 C 406.283 -4.35397 2.8849 0
M  V30 4164 H 407.977 -2.33148 1.87836 0
M  V30 4165 H 405.523 -1.12045 0.904539 0
M  V30 4166 H 407.476 -4.2021 0.316493 0
M  V30 4167 H 406.2 -3.23321 -0.461646 0
M  V30 4168 H 404.859 -3.2632 1.67065 0
M  V30 4169 H 404.507 -5.02959 -0.064503 0
M  V30 4170 H 404.207 -5.66127 1.57397 0
M  V30 4171 H 405.731 -6.06196 0.73203 0
M  V30 4172 H 407.145 -5.02795 2.75446 0
M  V30 4173 H 405.542 -4.85541 3.52661 0
M  V30 4174 H 406.612 -3.44662 3.41081 0
M  V30 4175 N 407.956 -0.998596 -1.21925 0
M  V30 4176 C 408.919 -0.558679 -2.22287 0
M  V30 4177 C 409.919 0.361525 -1.56683 0
M  V30 4178 O 411.109 0.152695 -1.73529 0
M  V30 4179 C 408.241 0.18661 -3.40389 0
M  V30 4180 H 409.434 -1.4463 -2.62721 0
M  V30 4181 H 406.987 -0.786413 -1.35075 0
M  V30 4182 H 407.722 1.08996 -3.05435 0
M  V30 4183 H 407.507 -0.474188 -3.89222 0
M  V30 4184 H 408.997 0.482367 -4.14805 0
M  V30 4185 N 409.434 1.37368 -0.772513 0
M  V30 4186 C 410.682 1.99279 -0.336516 0
M  V30 4187 C 411.003 1.6163 1.09091 0
M  V30 4188 O 410.273 0.882109 1.74916 0
M  V30 4189 H 408.853 0.737063 -0.121435 0
M  V30 4190 H 411.515 1.67836 -0.990809 0
M  V30 4191 H 410.611 3.09332 -0.414763 0
M  V30 4192 N 410.912 0.523116 1.48665 0
M  V30 4193 C 412.16 -0.0134497 2.02096 0
M  V30 4194 C 412.481 -1.35418 1.40311 0
M  V30 4195 O 411.751 -1.87543 0.566074 0
M  V30 4196 H 410.331 -0.00795915 0.746958 0
M  V30 4197 H 412.993 0.685388 1.82451 0
M  V30 4198 H 412.089 -0.126849 3.11842 0
M  V30 4199 N 412.39 -1.55475 0.257931 0
M  V30 4200 C 413.337 -2.21837 -0.636939 0
M  V30 4201 C 414.307 -1.18596 -1.16294 0
M  V30 4202 O 415.492 -1.47081 -1.21539 0
M  V30 4203 C 412.632 -2.9301 -1.82317 0
M  V30 4204 C 411.745 -4.10931 -1.33265 0
M  V30 4205 C 410.88 -4.69791 -2.47931 0
M  V30 4206 C 409.919 -5.7994 -1.95796 0
M  V30 4207 N 409.056 -6.32935 -3.0387 0
M  V30 4208 H 413.896 -2.9793 -0.0643591 0
M  V30 4209 H 411.433 -1.47086 -0.0200031 0
M  V30 4210 H 413.391 -3.3248 -2.52018 0
M  V30 4211 H 412.021 -2.1937 -2.36805 0
M  V30 4212 H 411.073 -3.76699 -0.52931 0
M  V30 4213 H 412.385 -4.90417 -0.910654 0
M  V30 4214 H 411.539 -5.11892 -3.25656 0
M  V30 4215 H 410.278 -3.89545 -2.93438 0
M  V30 4216 H 409.283 -5.37305 -1.16546 0
M  V30 4217 H 410.508 -6.62043 -1.51246 0
M  V30 4218 H 408.454 -5.55591 -3.48791 0
M  V30 4219 H 408.371 -7.07645 -2.66035 0
M  V30 4220 H 409.639 -6.79695 -3.81621 0
M  V30 4221 N 413.868 0.0150385 -1.57593 0
M  V30 4222 C 415.279 0.559832 -1.78109 0
M  V30 4223 C 415.63 1.74814 -0.890756 0
M  V30 4224 O 414.755 2.16216 -0.0892482 0
M  V30 4225 C 415.35 1.02238 -3.23006 0
M  V30 4226 C 413.909 1.51258 -3.44671 0
M  V30 4227 C 413.056 0.456955 -2.73509 0
M  V30 4228 H 416.007 -0.211169 -1.57289 0
M  V30 4229 H 416.028 1.88912 -3.30292 0
M  V30 4230 H 415.54 0.157302 -3.87781 0
M  V30 4231 H 413.641 2.39905 -2.8509 0
M  V30 4232 H 413.754 1.55042 -4.5332 0
M  V30 4233 H 412.118 0.915196 -2.37689 0
M  V30 4234 H 412.901 -0.398896 -3.40975 0
M  V30 4235 N 415.346 1.54954 0.287554 0
M  V30 4236 C 416.576 1.78622 1.03816 0
M  V30 4237 C 416.984 0.552451 1.80955 0
M  V30 4238 O 416.327 -0.487665 1.77109 0
M  V30 4239 C 416.389 2.94975 2.055 0
M  V30 4240 C 416.053 4.32565 1.47433 0
M  V30 4241 C 417.05 5.12096 0.897436 0
M  V30 4242 C 414.735 4.79195 1.50591 0
M  V30 4243 C 416.729 6.36383 0.359851 0
M  V30 4244 C 414.416 6.03441 0.964459 0
M  V30 4245 C 415.414 6.81872 0.392413 0
M  V30 4246 O 415.102 8.03777 -0.140788 0
M  V30 4247 H 414.834 0.599144 0.313053 0
M  V30 4248 H 417.388 2.02761 0.328225 0
M  V30 4249 H 415.618 2.66493 2.80211 0
M  V30 4250 H 417.307 3.06097 2.6657 0
M  V30 4251 H 418.073 4.77209 0.865841 0
M  V30 4252 H 413.952 4.18167 1.94055 0
M  V30 4253 H 417.496 6.97545 -0.0872951 0
M  V30 4254 H 413.393 6.37813 0.993246 0
M  V30 4255 H 414.161 8.18495 -0.0287617 0
M  V30 4256 N 416.824 -0.551391 1.4764 0
M  V30 4257 C 418.049 -1.33837 1.58437 0
M  V30 4258 C 418.474 -1.866 0.237063 0
M  V30 4259 O 417.832 -1.6328 -0.787994 0
M  V30 4260 C 417.88 -2.48014 2.61766 0
M  V30 4261 O 416.984 -3.50419 2.1744 0
M  V30 4262 H 416.325 -0.397299 0.532024 0
M  V30 4263 H 418.855 -0.665759 1.93465 0
M  V30 4264 H 418.865 -2.94503 2.82369 0
M  V30 4265 H 417.54 -2.08969 3.5959 0
M  V30 4266 H 416.117 -3.10196 2.06961 0
M  V30 4267 N 418.302 -1.35869 -0.798587 0
M  V30 4268 C 419.212 -1.31578 -1.94228 0
M  V30 4269 C 420.228 -0.21939 -1.72611 0
M  V30 4270 O 421.404 -0.450167 -1.96305 0
M  V30 4271 C 418.469 -1.09528 -3.28944 0
M  V30 4272 C 417.53 -2.28556 -3.63402 0
M  V30 4273 C 416.763 -2.07549 -4.9169 0
M  V30 4274 O 416.986 -1.046 -5.60727 0
M  V30 4275 O 415.92 -2.95106 -5.24591 0
M  V30 4276 H 419.746 -2.27847 -2.00796 0
M  V30 4277 H 417.331 -1.16322 -0.937526 0
M  V30 4278 H 419.213 -0.991127 -4.09579 0
M  V30 4279 H 417.888 -0.16315 -3.23289 0
M  V30 4280 H 416.795 -2.44538 -2.83112 0
M  V30 4281 H 418.128 -3.20244 -3.73771 0
M  V30 4282 N 419.78 1.02168 -1.19998 0
M  V30 4283 C 420.743 2.08765 -0.94604 0
M  V30 4284 C 421.743 1.60618 0.0763846 0
M  V30 4285 O 422.933 1.73472 -0.159135 0
M  V30 4286 C 420.065 3.38262 -0.423255 0
M  V30 4287 H 421.258 2.32726 -1.89153 0
M  V30 4288 H 418.811 1.1889 -1.01464 0
M  V30 4289 H 419.546 3.19974 0.527938 0
M  V30 4290 H 419.331 3.74532 -1.16053 0
M  V30 4291 H 420.821 4.16759 -0.264911 0
M  V30 4292 N 421.258 1.00505 1.21394 0
M  V30 4293 C 422.505 0.687774 1.90462 0
M  V30 4294 C 422.833 -0.78147 1.7811 0
M  V30 4295 O 422.088 -1.58208 1.1519 0
M  V30 4296 C 422.387 1.0546 3.41486 0
M  V30 4297 C 422.053 2.51812 3.74034 0
M  V30 4298 C 420.715 2.91804 3.82628 0
M  V30 4299 C 423.067 3.46614 3.8924 0
M  V30 4300 C 420.395 4.2556 4.03876 0
M  V30 4301 C 422.747 4.80044 4.11995 0
M  V30 4302 C 421.411 5.19759 4.18816 0
M  V30 4303 H 420.681 0.251674 0.696951 0
M  V30 4304 H 423.328 1.26349 1.43903 0
M  V30 4305 H 421.633 0.397133 3.89782 0
M  V30 4306 H 423.33 0.786976 3.93202 0
M  V30 4307 H 419.92 2.1982 3.67936 0
M  V30 4308 H 424.104 3.16883 3.81967 0
M  V30 4309 H 419.36 4.55901 4.07387 0
M  V30 4310 H 423.534 5.53439 4.22704 0
M  V30 4311 H 421.161 6.23418 4.35033 0
M  V30 4312 N 422.737 -1.36956 0.779787 0
M  V30 4313 C 424.153 -1.52817 0.460342 0
M  V30 4314 C 424.353 -1.7361 -1.02283 0
M  V30 4315 O 423.409 -1.76207 -1.80852 0
M  V30 4316 C 424.722 -2.71983 1.28241 0
M  V30 4317 C 426.27 -2.85849 1.27512 0
M  V30 4318 C 426.745 -4.08008 2.08072 0
M  V30 4319 N 428.236 -4.15135 2.05467 0
M  V30 4320 C 428.971 -5.08711 2.64577 0
M  V30 4321 N 428.467 -6.07792 3.32506 0
M  V30 4322 N 430.26 -5.01254 2.54363 0
M  V30 4323 H 422.411 -1.21713 1.74068 0
M  V30 4324 H 424.674 -0.593294 0.739396 0
M  V30 4325 H 424.38 -2.63109 2.33381 0
M  V30 4326 H 424.254 -3.65882 0.917088 0
M  V30 4327 H 426.641 -2.94189 0.231686 0
M  V30 4328 H 426.722 -1.92886 1.68014 0
M  V30 4329 H 426.366 -4.00429 3.12441 0
M  V30 4330 H 426.296 -5.001 1.64947 0
M  V30 4331 H 428.787 -3.44189 1.5602 0
M  V30 4332 H 429.1 -6.75739 3.74963 0
M  V30 4333 H 427.445 -6.08047 3.36606 0
M  V30 4334 H 430.636 -4.22795 2.00902 0
M  V30 4335 H 430.809 -5.73995 3.00722 0
M  V30 4336 N 424.215 -0.530993 -1.48385 0
M  V30 4337 C 425.147 0.268353 -2.27624 0
M  V30 4338 C 426.16 0.903525 -1.35426 0
M  V30 4339 O 427.349 0.781796 -1.60469 0
M  V30 4340 C 424.449 1.39535 -3.08842 0
M  V30 4341 C 423.622 0.861913 -4.28824 0
M  V30 4342 C 422.681 1.87016 -4.91845 0
M  V30 4343 O 421.707 1.4267 -5.5103 0
M  V30 4344 N 422.909 3.20238 -4.84178 0
M  V30 4345 H 425.674 -0.41123 -2.96865 0
M  V30 4346 H 423.235 -0.365387 -1.57723 0
M  V30 4347 H 425.227 2.06803 -3.47871 0
M  V30 4348 H 423.797 1.97859 -2.42014 0
M  V30 4349 H 423.017 0.0132126 -3.94198 0
M  V30 4350 H 424.305 0.484415 -5.06489 0
M  V30 4351 H 423.703 3.58932 -4.37246 0
M  V30 4352 H 422.26 3.83136 -5.27305 0
M  V30 4353 N 425.693 1.55336 -0.266172 0
M  V30 4354 C 426.64 2.22172 0.625165 0
M  V30 4355 C 427.61 1.19211 1.15663 0
M  V30 4356 O 428.795 1.47723 1.20758 0
M  V30 4357 C 425.935 2.93972 1.8076 0
M  V30 4358 C 425.048 4.11632 1.31084 0
M  V30 4359 C 424.183 4.71099 2.45436 0
M  V30 4360 C 423.222 5.8097 1.92718 0
M  V30 4361 N 422.359 6.34538 3.00509 0
M  V30 4362 H 427.199 2.9796 0.0485582 0
M  V30 4363 H 424.736 1.47095 0.0122024 0
M  V30 4364 H 426.694 3.33811 2.50251 0
M  V30 4365 H 425.324 2.20623 2.35638 0
M  V30 4366 H 424.376 3.76975 0.509326 0
M  V30 4367 H 425.688 4.90893 0.884633 0
M  V30 4368 H 424.842 5.13612 3.22936 0
M  V30 4369 H 423.581 3.91096 2.91368 0
M  V30 4370 H 422.586 5.37916 1.13695 0
M  V30 4371 H 423.811 6.62836 1.47733 0
M  V30 4372 H 421.757 5.57433 3.45839 0
M  V30 4373 H 421.674 7.09046 2.62279 0
M  V30 4374 H 422.942 6.81709 3.78011 0
M  V30 4375 N 427.171 -0.0066808 1.57599 0
M  V30 4376 C 428.417 -0.693947 1.90558 0
M  V30 4377 C 428.75 -1.73792 0.866594 0
M  V30 4378 O 428.025 -1.94156 -0.115548 0
M  V30 4379 C 428.308 -1.34317 3.34112 0
M  V30 4380 C 428.161 -0.311189 4.48722 0
M  V30 4381 C 429.48 -2.27116 3.7697 0
M  V30 4382 H 426.599 -0.250803 0.693013 0
M  V30 4383 H 429.241 0.043242 1.89951 0
M  V30 4384 H 427.391 -1.9715 3.3476 0
M  V30 4385 H 429.063 0.316944 4.6021 0
M  V30 4386 H 427.306 0.367253 4.32243 0
M  V30 4387 H 427.977 -0.804366 5.46108 0
M  V30 4388 H 430.453 -1.74306 3.77831 0
M  V30 4389 H 429.329 -2.69511 4.78179 0
M  V30 4390 H 429.59 -3.14743 3.10466 0
M  V30 4391 N 428.649 -1.55105 -0.279332 0
M  V30 4392 C 430.065 -1.46803 -0.626187 0
M  V30 4393 C 430.265 -0.676939 -1.89789 0
M  V30 4394 O 429.321 -0.19326 -2.51759 0
M  V30 4395 C 430.634 -2.90962 -0.759034 0
M  V30 4396 C 432.182 -3.01138 -0.853504 0
M  V30 4397 C 432.657 -4.46539 -1.01818 0
M  V30 4398 N 434.148 -4.50341 -1.08386 0
M  V30 4399 C 434.883 -5.60053 -1.22996 0
M  V30 4400 N 434.379 -6.79645 -1.34366 0
M  V30 4401 N 436.172 -5.47783 -1.26056 0
M  V30 4402 H 428.323 -2.04996 0.555921 0
M  V30 4403 H 430.586 -0.929325 0.187239 0
M  V30 4404 H 430.292 -3.51544 0.104852 0
M  V30 4405 H 430.166 -3.39619 -1.64131 0
M  V30 4406 H 432.553 -2.40658 -1.70786 0
M  V30 4407 H 432.634 -2.55745 0.0532466 0
M  V30 4408 H 432.278 -5.0762 -0.168504 0
M  V30 4409 H 432.208 -4.89583 -1.93948 0
M  V30 4410 H 434.699 -3.64191 -1.00864 0
M  V30 4411 H 435.012 -7.59012 -1.4533 0
M  V30 4412 H 433.357 -6.82469 -1.31382 0
M  V30 4413 H 436.548 -4.53294 -1.168 0
M  V30 4414 H 436.721 -6.33331 -1.37098 0
M  V30 4415 N 430.127 0.543554 -1.4793 0
M  V30 4416 C 431.037 1.67657 -1.64098 0
M  V30 4417 C 432.053 1.65934 -0.523622 0
M  V30 4418 O 433.229 1.85133 -0.792943 0
M  V30 4419 C 430.294 3.04146 -1.66421 0
M  V30 4420 C 429.355 3.16831 -2.89684 0
M  V30 4421 C 428.588 4.46809 -2.91886 0
M  V30 4422 O 428.811 5.33095 -2.02895 0
M  V30 4423 O 427.745 4.63573 -3.83906 0
M  V30 4424 H 431.571 1.56957 -2.59997 0
M  V30 4425 H 429.156 0.715116 -1.31173 0
M  V30 4426 H 431.038 3.85346 -1.70548 0
M  V30 4427 H 429.713 3.152 -0.736923 0
M  V30 4428 H 428.62 2.34977 -2.91095 0
M  V30 4429 H 429.953 3.10687 -3.81752 0
M  V30 4430 N 431.605 1.3629 0.791371 0
M  V30 4431 C 433.021 1.16661 1.08914 0
M  V30 4432 C 433.221 -0.0106266 2.01497 0
M  V30 4433 O 432.277 -0.676596 2.43266 0
M  V30 4434 C 433.59 2.47656 1.70549 0
M  V30 4435 C 435.138 2.54002 1.82899 0
M  V30 4436 C 435.613 3.85078 2.47949 0
M  V30 4437 N 437.104 3.86413 2.5542 0
M  V30 4438 C 437.839 4.84572 3.06557 0
M  V30 4439 N 437.335 5.93124 3.58016 0
M  V30 4440 N 439.128 4.71994 3.05251 0
M  V30 4441 H 431.279 2.11668 0.176238 0
M  V30 4442 H 433.542 0.937486 0.140796 0
M  V30 4443 H 433.248 3.34059 1.09989 0
M  V30 4444 H 433.122 2.63319 2.70079 0
M  V30 4445 H 435.509 1.68018 2.42598 0
M  V30 4446 H 435.59 2.42239 0.821808 0
M  V30 4447 H 435.234 4.71467 1.88895 0
M  V30 4448 H 435.164 3.94135 3.49235 0
M  V30 4449 H 437.655 3.07988 2.18979 0
M  V30 4450 H 437.968 6.63999 3.95381 0
M  V30 4451 H 436.313 5.96796 3.56173 0
M  V30 4452 H 439.504 3.86321 2.64336 0
M  V30 4453 H 439.677 5.48653 3.44796 0
M  V30 4454 N 433.083 -1.0153 1.20538 0
M  V30 4455 C 434.33 -1.75149 1.01633 0
M  V30 4456 C 434.658 -1.89189 -0.451399 0
M  V30 4457 O 433.913 -1.41551 -1.35136 0
M  V30 4458 C 434.212 -3.17213 1.64654 0
M  V30 4459 C 433.878 -3.23146 3.14464 0
M  V30 4460 C 432.54 -3.24472 3.55347 0
M  V30 4461 C 434.892 -3.21207 4.10458 0
M  V30 4462 C 432.22 -3.21532 4.90748 0
M  V30 4463 C 434.572 -3.19808 5.45807 0
M  V30 4464 C 433.236 -3.19439 5.86102 0
M  V30 4465 H 432.506 -0.640914 0.3719 0
M  V30 4466 H 435.153 -1.19071 1.49981 0
M  V30 4467 H 433.458 -3.76457 1.08571 0
M  V30 4468 H 435.155 -3.72871 1.4754 0
M  V30 4469 H 431.745 -3.2285 2.81897 0
M  V30 4470 H 435.929 -3.19351 3.79906 0
M  V30 4471 H 431.185 -3.19578 5.21229 0
M  V30 4472 H 435.359 -3.1726 6.19935 0
M  V30 4473 H 432.986 -3.16915 6.90991 0
M  V30 4474 N 434.561 -1.01147 -1.20859 0
M  V30 4475 C 435.511 -0.548247 -2.2131 0
M  V30 4476 C 436.495 0.393646 -1.5601 0
M  V30 4477 O 437.687 0.217445 -1.75659 0
M  V30 4478 C 434.816 0.117252 -3.431 0
M  V30 4479 C 433.902 -0.846043 -4.15575 0
M  V30 4480 N 434.293 -2.00149 -4.64515 0
M  V30 4481 C 432.591 -0.665783 -4.41003 0
M  V30 4482 C 433.292 -2.60764 -5.19978 0
M  V30 4483 N 432.268 -1.88868 -5.09735 0
M  V30 4484 H 436.07 -1.42921 -2.56809 0
M  V30 4485 H 433.584 -0.876142 -1.36739 0
M  V30 4486 H 435.581 0.46662 -4.1428 0
M  V30 4487 H 434.241 0.994115 -3.09107 0
M  V30 4488 H 435.252 -2.38162 -4.5989 0
M  V30 4489 H 431.929 0.163456 -4.1718 0
M  V30 4490 H 433.319 -3.58519 -5.68255 0
M  V30 4491 N 436.039 1.36541 -0.78704 0
M  V30 4492 C 437.287 1.98911 -0.357633 0
M  V30 4493 C 437.608 1.62778 1.07371 0
M  V30 4494 O 436.878 0.900612 1.73971 0
M  V30 4495 H 435.458 0.735734 -0.129246 0
M  V30 4496 H 438.12 1.66776 -1.00855 0
M  V30 4497 H 437.216 3.08874 -0.447549 0
M  V30 4498 N 437.518 0.538854 1.48102 0
M  V30 4499 C 438.764 0.00801365 2.02798 0
M  V30 4500 C 439.097 -1.3309 1.41424 0
M  V30 4501 O 438.372 -1.86169 0.563158 0
M  V30 4502 C 438.655 -0.104589 3.59948 0
M  V30 4503 C 438.508 1.26012 4.31788 0
M  V30 4504 C 439.827 -0.827055 4.32259 0
M  V30 4505 H 436.946 0.00438624 0.736987 0
M  V30 4506 H 439.588 0.6976 1.7673 0
M  V30 4507 H 437.738 -0.691893 3.82289 0
M  V30 4508 H 439.41 1.88922 4.2084 0
M  V30 4509 H 437.653 1.83968 3.92859 0
M  V30 4510 H 438.324 1.13424 5.40221 0
M  V30 4511 H 440.8 -0.328578 4.14801 0
M  V30 4512 H 439.676 -0.87476 5.41885 0
M  V30 4513 H 439.937 -1.87927 4.0017 0
M  V30 4514 N 438.996 -1.55193 0.274407 0
M  V30 4515 C 440.245 -1.98758 -0.343213 0
M  V30 4516 C 440.558 -1.16624 -1.5703 0
M  V30 4517 O 441.764 -1.5033 -2.26082 0
M  V30 4518 C 440.22 -3.53759 -0.661996 0
M  V30 4519 C 439.828 -4.4467 0.54524 0
M  V30 4520 C 441.572 -4.05916 -1.24228 0
M  V30 4521 C 439.479 -5.91058 0.201084 0
M  V30 4522 H 438.409 -0.742353 -0.132014 0
M  V30 4523 H 441.06 -1.79545 0.378948 0
M  V30 4524 H 439.442 -3.68772 -1.44304 0
M  V30 4525 H 440.616 -4.41426 1.32212 0
M  V30 4526 H 438.931 -4.03143 1.04232 0
M  V30 4527 H 441.528 -5.12831 -1.51357 0
M  V30 4528 H 441.871 -3.54908 -2.17592 0
M  V30 4529 H 442.404 -3.9434 -0.523542 0
M  V30 4530 H 439.143 -6.46161 1.10258 0
M  V30 4531 H 438.663 -5.97373 -0.539045 0
M  V30 4532 H 440.342 -6.46669 -0.206954 0
M  V30 4533 N 440.474 -0.00167713 -1.576 0
M  V30 4534 C 441.723 0.682021 -1.89819 0
M  V30 4535 C 442.036 1.74844 -0.876871 0
M  V30 4536 O 443.242 2.48688 -1.08934 0
M  V30 4537 C 441.698 1.26425 -3.36964 0
M  V30 4538 C 441.306 0.232568 -4.47396 0
M  V30 4539 C 443.05 1.92604 -3.78291 0
M  V30 4540 C 440.957 0.824882 -5.85619 0
M  V30 4541 H 439.887 0.258499 -0.708304 0
M  V30 4542 H 442.538 -0.0624957 -1.83394 0
M  V30 4543 H 440.92 2.05949 -3.38232 0
M  V30 4544 H 442.094 -0.5382 -4.57646 0
M  V30 4545 H 440.409 -0.32888 -4.15099 0
M  V30 4546 H 443.006 2.37827 -4.78897 0
M  V30 4547 H 443.349 2.75732 -3.11894 0
M  V30 4548 H 443.882 1.19812 -3.79328 0
M  V30 4549 H 440.621 0.0323542 -6.55492 0
M  V30 4550 H 440.141 1.56477 -5.79029 0
M  V30 4551 H 441.82 1.32301 -6.33329 0
M  V30 4552 N 441.952 1.55251 0.271103 0
M  V30 4553 C 443.2 1.75599 1.00047 0
M  V30 4554 C 443.521 0.561188 1.8675 0
M  V30 4555 O 442.791 -0.423846 1.9126 0
M  V30 4556 H 441.371 0.647562 0.372387 0
M  V30 4557 H 444.033 1.92656 0.294876 0
M  V30 4558 H 443.129 2.65766 1.6363 0
M  V30 4559 N 443.43 -0.535701 1.48216 0
M  V30 4560 C 444.393 -1.623 1.61838 0
M  V30 4561 C 445.393 -1.53087 0.492024 0
M  V30 4562 O 446.583 -1.5686 0.757668 0
M  V30 4563 C 443.715 -3.01907 1.58319 0
M  V30 4564 H 444.908 -1.51564 2.58783 0
M  V30 4565 H 442.461 -0.757317 1.36727 0
M  V30 4566 H 443.196 -3.18155 0.628299 0
M  V30 4567 H 442.981 -3.10003 2.40085 0
M  V30 4568 H 444.471 -3.80969 1.71033 0
M  V30 4569 N 444.908 -1.36708 -0.784132 0
M  V30 4570 C 446.156 -1.30972 -1.53918 0
M  V30 4571 C 446.477 0.109086 -1.94695 0
M  V30 4572 O 445.747 1.05048 -1.65353 0
M  V30 4573 H 444.327 -0.481819 -0.570841 0
M  V30 4574 H 446.989 -1.71063 -0.934002 0
M  V30 4575 H 446.085 -1.94061 -2.44431 0
M  V30 4576 N 446.386 1.0089 -1.21074 0
M  V30 4577 C 447.349 2.0775 -0.968129 0
M  V30 4578 C 448.349 1.6069 0.0593445 0
M  V30 4579 O 449.539 1.73293 -0.177525 0
M  V30 4580 C 446.671 3.37794 -0.459108 0
M  V30 4581 H 447.864 2.30707 -1.9161 0
M  V30 4582 H 445.417 1.17807 -1.02719 0
M  V30 4583 H 446.152 3.20516 0.49397 0
M  V30 4584 H 445.937 3.7328 -1.20019 0
M  V30 4585 H 447.427 4.16454 -0.309099 0
M  V30 4586 N 447.864 1.01787 1.20321 0
M  V30 4587 C 449.094 0.72614 1.93419 0
M  V30 4588 C 449.502 -0.717317 1.75075 0
M  V30 4589 O 448.845 -1.49836 1.06278 0
M  V30 4590 C 448.907 0.983621 3.45782 0
M  V30 4591 C 448.571 2.41645 3.87888 0
M  V30 4592 C 449.568 3.39732 3.93545 0
M  V30 4593 C 447.253 2.75752 4.19841 0
M  V30 4594 C 449.247 4.69988 4.30569 0
M  V30 4595 C 446.934 4.06221 4.56539 0
M  V30 4596 C 447.932 5.0315 4.61876 0
M  V30 4597 O 447.62 6.31284 4.97731 0
M  V30 4598 H 447.352 0.265824 0.621541 0
M  V30 4599 H 449.906 1.3623 1.53722 0
M  V30 4600 H 448.136 0.290301 3.85609 0
M  V30 4601 H 449.825 0.683279 4.00108 0
M  V30 4602 H 450.591 3.14718 3.69022 0
M  V30 4603 H 446.47 2.00993 4.14877 0
M  V30 4604 H 450.014 5.45642 4.3465 0
M  V30 4605 H 445.911 4.31013 4.80518 0
M  V30 4606 H 446.679 6.35591 5.15719 0
M  V30 4607 N 449.342 -1.36122 0.79427 0
M  V30 4608 C 450.57 -2.03362 0.380989 0
M  V30 4609 C 450.985 -1.59881 -1.00416 0
M  V30 4610 O 450.342 -0.790515 -1.6449 0
M  V30 4611 C 450.393 -3.58804 0.440649 0
M  V30 4612 O 450.114 -4.007 1.77118 0
M  V30 4613 C 451.615 -4.43296 0.0186117 0
M  V30 4614 H 448.835 -0.652526 0.156367 0
M  V30 4615 H 451.379 -1.73998 1.07447 0
M  V30 4616 H 449.534 -3.8686 -0.204458 0
M  V30 4617 H 449.948 -4.95309 1.72538 0
M  V30 4618 H 451.422 -5.51887 0.111488 0
M  V30 4619 H 451.899 -4.2684 -1.03461 0
M  V30 4620 H 452.505 -4.20512 0.636395 0
M  V30 4621 N 450.82 -0.546701 -1.47814 0
M  V30 4622 C 451.783 0.196287 -2.28358 0
M  V30 4623 C 452.783 0.852437 -1.36346 0
M  V30 4624 O 453.973 0.709913 -1.59078 0
M  V30 4625 C 451.105 1.28579 -3.15722 0
M  V30 4626 H 452.298 -0.511086 -2.95513 0
M  V30 4627 H 449.851 -0.303248 -1.5333 0
M  V30 4628 H 450.586 2.0259 -2.53235 0
M  V30 4629 H 450.371 0.820229 -3.83425 0
M  V30 4630 H 451.861 1.80793 -3.76435 0
M  V30 4631 N 452.299 1.55045 -0.282633 0
M  V30 4632 C 453.209 2.26491 0.61147 0
M  V30 4633 C 454.225 1.29348 1.16384 0
M  V30 4634 O 455.401 1.62298 1.19253 0
M  V30 4635 C 452.466 2.97779 1.77563 0
M  V30 4636 C 451.527 4.10418 1.25919 0
M  V30 4637 C 450.76 4.78297 2.36786 0
M  V30 4638 O 450.983 4.45426 3.56303 0
M  V30 4639 O 449.917 5.66089 2.04517 0
M  V30 4640 H 453.743 3.03683 0.0324615 0
M  V30 4641 H 451.328 1.49317 -0.0497576 0
M  V30 4642 H 453.21 3.42554 2.45427 0
M  V30 4643 H 451.885 2.23498 2.34159 0
M  V30 4644 H 450.792 3.70082 0.546797 0
M  V30 4645 H 452.125 4.86622 0.738887 0
M  V30 4646 N 453.777 0.010035 1.57597 0
M  V30 4647 C 454.724 -0.978122 2.09049 0
M  V30 4648 C 455.694 -1.33509 0.988159 0
M  V30 4649 O 456.879 -1.43172 1.26121 0
M  V30 4650 C 454.019 -2.26158 2.60666 0
M  V30 4651 C 453.132 -1.96275 3.84838 0
M  V30 4652 C 452.267 -3.18776 4.24918 0
M  V30 4653 C 451.306 -2.84625 5.41899 0
M  V30 4654 N 450.443 -3.99693 5.77226 0
M  V30 4655 H 455.283 -0.532431 2.93205 0
M  V30 4656 H 452.82 -0.251234 1.44939 0
M  V30 4657 H 454.778 -3.01202 2.88675 0
M  V30 4658 H 453.408 -2.68378 1.79369 0
M  V30 4659 H 452.46 -1.11555 3.63675 0
M  V30 4660 H 453.772 -1.67111 4.69974 0
M  V30 4661 H 452.926 -4.02157 4.54262 0
M  V30 4662 H 451.665 -3.51087 3.38511 0
M  V30 4663 H 450.67 -1.99653 5.12268 0
M  V30 4664 H 451.895 -2.53551 6.29991 0
M  V30 4665 H 449.841 -4.31882 4.93776 0
M  V30 4666 H 449.758 -3.74087 6.56959 0
M  V30 4667 H 451.026 -4.83834 6.11167 0
M  V30 4668 N 455.255 -1.55392 -0.262866 0
M  V30 4669 C 456.218 -1.88181 -1.30846 0
M  V30 4670 C 457.218 -0.757079 -1.41862 0
M  V30 4671 O 458.408 -1.02519 -1.40838 0
M  V30 4672 C 455.54 -2.09609 -2.68844 0
M  V30 4673 H 456.733 -2.81659 -1.02997 0
M  V30 4674 H 454.286 -1.48039 -0.501414 0
M  V30 4675 H 455.021 -1.18547 -3.01856 0
M  V30 4676 H 454.806 -2.91508 -2.62231 0
M  V30 4677 H 456.296 -2.36215 -3.44372 0
M  V30 4678 N 456.733 0.527833 -1.48498 0
M  V30 4679 C 457.643 1.65907 -1.65867 0
M  V30 4680 C 458.659 1.6537 -0.541192 0
M  V30 4681 O 459.835 1.84282 -0.812534 0
M  V30 4682 C 456.9 3.02364 -1.69637 0
M  V30 4683 C 455.961 3.1374 -2.93028 0
M  V30 4684 C 455.194 4.43688 -2.96609 0
M  V30 4685 O 455.417 5.30913 -2.08538 0
M  V30 4686 O 454.351 4.59475 -3.88802 0
M  V30 4687 H 458.177 1.5419 -2.61647 0
M  V30 4688 H 455.762 0.701163 -1.31924 0
M  V30 4689 H 457.644 3.83515 -1.74625 0
M  V30 4690 H 456.319 3.14401 -0.770312 0
M  V30 4691 H 455.226 2.31877 -2.93571 0
M  V30 4692 H 456.559 3.06621 -3.85026 0
M  V30 4693 N 458.211 1.37122 0.776871 0
M  V30 4694 C 459.488 1.22586 1.52421 0
M  V30 4695 C 459.868 -0.182726 2.10308 0
M  V30 4696 O 459.216 -1.18979 1.9508 0
M  V30 4697 C 459.426 2.31782 2.60918 0
M  V30 4698 C 460.774 2.69071 3.2846 0
M  V30 4699 O 461.798 2.3092 2.71209 0
M  V30 4700 O 460.657 3.3478 4.31954 0
M  V30 4701 H 457.751 0.478045 0.674835 0
M  V30 4702 H 460.297 1.48888 0.814275 0
M  V30 4703 H 459.069 3.26131 2.16227 0
M  V30 4704 H 458.692 2.06916 3.39517 0
M  V30 4705 N 459.689 -1.00246 1.21608 0
M  V30 4706 C 460.619 -2.10921 1.00172 0
M  V30 4707 C 461.6 -1.69938 -0.0741587 0
M  V30 4708 O 462.785 -1.94009 0.0861753 0
M  V30 4709 C 459.915 -3.42618 0.568355 0
M  V30 4710 C 458.869 -3.97407 1.58909 0
M  V30 4711 C 458.195 -5.25038 1.01187 0
M  V30 4712 C 459.495 -4.2918 2.97661 0
M  V30 4713 H 461.189 -2.29112 1.92739 0
M  V30 4714 H 458.735 -1.10101 0.928102 0
M  V30 4715 H 460.688 -4.19444 0.405555 0
M  V30 4716 H 459.412 -3.24227 -0.392961 0
M  V30 4717 H 458.071 -3.22703 1.73949 0
M  V30 4718 H 457.719 -5.02982 0.0421965 0
M  V30 4719 H 457.419 -5.62661 1.6937 0
M  V30 4720 H 458.943 -6.04507 0.860448 0
M  V30 4721 H 460.357 -4.96839 2.86049 0
M  V30 4722 H 458.754 -4.77952 3.6288 0
M  V30 4723 H 459.824 -3.3735 3.48315 0
M  V30 4724 N 461.167 -1.02423 -1.1978 0
M  V30 4725 C 462.416 -0.713265 -1.88667 0
M  V30 4726 C 462.729 0.7609 -1.80193 0
M  V30 4727 O 463.935 1.18473 -2.44288 0
M  V30 4728 C 462.391 -1.22545 -3.38394 0
M  V30 4729 C 461.999 -2.72706 -3.55437 0
M  V30 4730 C 463.743 -0.990257 -4.12788 0
M  V30 4731 C 461.65 -3.17367 -4.99031 0
M  V30 4732 H 460.58 -0.263105 -0.706606 0
M  V30 4733 H 463.231 -1.23792 -1.35454 0
M  V30 4734 H 461.613 -0.628732 -3.90977 0
M  V30 4735 H 462.787 -3.37993 -3.13205 0
M  V30 4736 H 461.102 -2.94453 -2.94425 0
M  V30 4737 H 463.699 -1.29926 -5.18675 0
M  V30 4738 H 464.042 0.0730761 -4.16236 0
M  V30 4739 H 464.575 -1.55074 -3.66329 0
M  V30 4740 H 461.314 -4.23009 -5.00743 0
M  V30 4741 H 460.834 -2.56805 -5.42044 0
M  V30 4742 H 462.513 -3.10441 -5.67658 0
M  V30 4743 N 462.645 1.35699 -0.801477 0
M  V30 4744 C 463.893 1.9852 -0.37871 0
M  V30 4745 C 464.214 1.63907 1.05638 0
M  V30 4746 O 463.484 0.919013 1.73006 0
M  V30 4747 H 462.064 0.734322 -0.137042 0
M  V30 4748 H 464.726 1.65697 -1.02619 0
M  V30 4749 H 463.822 3.08382 -0.480284 0
M  V30 4750 N 464.123 0.554532 1.47522 0
M  V30 4751 C 465.07 -0.19466 2.29978 0
M  V30 4752 C 466.04 -0.910882 1.38896 0
M  V30 4753 O 467.225 -0.907102 1.67858 0
M  V30 4754 C 464.365 -1.22035 3.22802 0
M  V30 4755 C 463.478 -0.510474 4.28973 0
M  V30 4756 C 462.613 -1.52123 5.08952 0
M  V30 4757 C 461.652 -0.796173 6.069 0
M  V30 4758 N 460.789 -1.75363 6.79847 0
M  V30 4759 H 465.629 0.51461 2.93523 0
M  V30 4760 H 463.166 0.265607 1.44682 0
M  V30 4761 H 465.124 -1.8276 3.7504 0
M  V30 4762 H 463.754 -1.89769 2.61127 0
M  V30 4763 H 462.806 0.211234 3.79813 0
M  V30 4764 H 464.118 0.0576503 4.98767 0
M  V30 4765 H 463.272 -2.20207 5.65326 0
M  V30 4766 H 462.011 -2.12327 4.39054 0
M  V30 4767 H 461.016 -0.101388 5.49707 0
M  V30 4768 H 462.241 -0.199911 6.78806 0
M  V30 4769 H 460.187 -2.3443 6.12682 0
M  V30 4770 H 460.104 -1.23759 7.45801 0
M  V30 4771 H 461.372 -2.4257 7.40797 0
M  V30 4772 N 465.601 -1.54893 0.290851 0
M  V30 4773 C 466.849 -1.99538 -0.320756 0
M  V30 4774 C 467.17 -1.18075 -1.55188 0
M  V30 4775 O 466.44 -0.274162 -1.93972 0
M  V30 4776 H 465.02 -0.737052 -0.121507 0
M  V30 4777 H 467.682 -1.90755 0.399832 0
M  V30 4778 H 466.778 -3.06282 -0.599802 0
M  V30 4779 N 467.08 -0.0183926 -1.57589 0
M  V30 4780 C 468.01 0.965596 -2.12599 0
M  V30 4781 C 468.991 1.34641 -1.0395 0
M  V30 4782 O 470.176 1.42693 -1.31729 0
M  V30 4783 C 467.306 2.25149 -2.64434 0
M  V30 4784 C 466.26 2.01175 -3.77773 0
M  V30 4785 C 465.586 3.35937 -4.15994 0
M  V30 4786 C 466.886 1.35953 -5.04296 0
M  V30 4787 H 468.58 0.507504 -2.95067 0
M  V30 4788 H 466.126 0.242671 -1.41941 0
M  V30 4789 H 468.079 2.94357 -3.01549 0
M  V30 4790 H 466.803 2.73105 -1.79112 0
M  V30 4791 H 465.462 1.34388 -3.4108 0
M  V30 4792 H 465.11 3.81631 -3.27669 0
M  V30 4793 H 464.81 3.20705 -4.92364 0
M  V30 4794 H 466.334 4.0643 -4.55683 0
M  V30 4795 H 467.748 1.95144 -5.39065 0
M  V30 4796 H 466.145 1.31152 -5.85593 0
M  V30 4797 H 467.215 0.331071 -4.83768 0
M  V30 4798 N 468.558 1.5553 0.254621 0
M  V30 4799 C 469.807 1.76202 0.981612 0
M  V30 4800 C 470.12 0.580883 1.86776 0
M  V30 4801 O 471.326 0.670448 2.63092 0
M  V30 4802 C 469.782 3.11921 1.79537 0
M  V30 4803 C 469.39 4.37659 0.956991 0
M  V30 4804 C 471.134 3.41936 2.51555 0
M  V30 4805 C 469.041 5.64411 1.76619 0
M  V30 4806 H 467.971 0.656841 0.370237 0
M  V30 4807 H 470.622 1.81969 0.236556 0
M  V30 4808 H 469.004 3.00241 2.58208 0
M  V30 4809 H 470.178 4.60307 0.21315 0
M  V30 4810 H 468.493 4.14922 0.350497 0
M  V30 4811 H 471.09 4.33849 3.12536 0
M  V30 4812 H 471.433 2.62905 3.22779 0
M  V30 4813 H 471.966 3.54797 1.799 0
M  V30 4814 H 468.705 6.46241 1.09783 0
M  V30 4815 H 468.225 5.45877 2.48551 0
M  V30 4816 H 469.904 6.03386 2.33527 0
M  V30 4817 N 470.036 -0.519951 1.48776 0
M  V30 4818 C 471.313 -1.28123 1.47797 0
M  V30 4819 C 471.693 -2.10196 0.195157 0
M  V30 4820 O 471.041 -2.13167 -0.822925 0
M  V30 4821 C 471.251 -2.15413 2.74587 0
M  V30 4822 C 472.599 -2.75225 3.23321 0
M  V30 4823 O 473.623 -2.25694 2.75574 0
M  V30 4824 O 472.482 -3.65346 4.06429 0
M  V30 4825 H 469.576 -0.578793 0.590701 0
M  V30 4826 H 472.122 -0.535779 1.6102 0
M  V30 4827 H 470.894 -1.54617 3.59457 0
M  V30 4828 H 470.517 -2.97186 2.64132 0
M  V30 4829 N 471.514 -1.37532 -0.769588 0
M  V30 4830 C 472.477 -1.33292 -1.86456 0
M  V30 4831 C 473.477 -0.236537 -1.59051 0
M  V30 4832 O 474.667 -0.492511 -1.67093 0
M  V30 4833 C 471.799 -1.07118 -3.23633 0
M  V30 4834 H 472.992 -2.30692 -1.91628 0
M  V30 4835 H 470.545 -1.22593 -0.969572 0
M  V30 4836 H 471.28 -0.102578 -3.24138 0
M  V30 4837 H 471.065 -1.86479 -3.44917 0
M  V30 4838 H 472.555 -1.06806 -4.03711 0
M  V30 4839 N 472.992 0.995999 -1.22138 0
M  V30 4840 C 474.238 1.73767 -1.04561 0
M  V30 4841 C 474.571 1.89633 0.418698 0
M  V30 4842 O 473.846 1.43723 1.3105 0
M  V30 4843 C 474.129 3.14505 -1.75382 0
M  V30 4844 C 473.982 3.06306 -3.29388 0
M  V30 4845 C 475.301 4.13615 -1.50369 0
M  V30 4846 H 472.42 0.630728 -0.38125 0
M  V30 4847 H 475.062 1.16057 -1.50435 0
M  V30 4848 H 473.212 3.63775 -1.36383 0
M  V30 4849 H 474.884 2.64681 -3.77812 0
M  V30 4850 H 473.127 2.43186 -3.59226 0
M  V30 4851 H 473.798 4.05884 -3.74116 0
M  V30 4852 H 476.274 3.73089 -1.84239 0
M  V30 4853 H 475.15 5.10212 -2.02421 0
M  V30 4854 H 475.411 4.39949 -0.435611 0
M  V30 4855 N 474.47 1.03057 1.19235 0
M  V30 4856 C 475.433 0.617418 2.20727 0
M  V30 4857 C 476.433 -0.319856 1.57587 0
M  V30 4858 O 477.623 -0.106633 1.73873 0
M  V30 4859 C 474.755 -0.096296 3.40764 0
M  V30 4860 H 475.948 1.51544 2.58794 0
M  V30 4861 H 473.501 0.821949 1.32942 0
M  V30 4862 H 474.236 -1.00859 3.08217 0
M  V30 4863 H 474.021 0.577217 3.87828 0
M  V30 4864 H 475.511 -0.372219 4.15938 0
M  V30 4865 N 475.948 -1.35272 0.808662 0
M  V30 4866 C 477.195 -1.98709 0.390003 0
M  V30 4867 C 477.523 -1.64148 -1.04335 0
M  V30 4868 O 476.778 -0.897797 -1.73891 0
M  V30 4869 C 477.077 -3.53556 0.522798 0
M  V30 4870 C 476.743 -4.0799 1.91977 0
M  V30 4871 C 475.405 -4.22568 2.30195 0
M  V30 4872 C 477.757 -4.37442 2.83361 0
M  V30 4873 C 475.085 -4.63918 3.59162 0
M  V30 4874 C 477.437 -4.80232 4.11776 0
M  V30 4875 C 476.101 -4.93016 4.49991 0
M  V30 4876 H 475.371 -0.727127 0.142712 0
M  V30 4877 H 478.018 -1.6145 1.02985 0
M  V30 4878 H 476.323 -3.91287 -0.200494 0
M  V30 4879 H 478.02 -4.00598 0.179608 0
M  V30 4880 H 474.61 -3.97096 1.61284 0
M  V30 4881 H 478.794 -4.25731 2.55083 0
M  V30 4882 H 474.05 -4.72005 3.88615 0
M  V30 4883 H 478.224 -5.01982 4.82687 0
M  V30 4884 H 475.851 -5.24814 5.49976 0
M  V30 4885 N 477.426 -0.562348 -1.47226 0
M  V30 4886 C 478.674 -0.0401371 -2.0206 0
M  V30 4887 C 478.995 1.3165 -1.43852 0
M  V30 4888 O 478.265 1.85976 -0.615599 0
M  V30 4889 H 476.845 -0.0118479 -0.746906 0
M  V30 4890 H 479.507 -0.73352 -1.8057 0
M  V30 4891 H 478.603 0.0441254 -3.12069 0
M  V30 4892 N 478.904 1.54736 -0.299062 0
M  V30 4893 C 480.32 1.59507 0.0543849 0
M  V30 4894 C 480.52 1.31606 1.52585 0
M  V30 4895 O 479.576 1.08853 2.27832 0
M  V30 4896 C 480.889 2.98751 -0.34181 0
M  V30 4897 C 482.437 3.1165 -0.290414 0
M  V30 4898 C 482.912 4.53199 -0.661402 0
M  V30 4899 N 484.403 4.59114 -0.613863 0
M  V30 4900 C 485.138 5.66709 -0.873417 0
M  V30 4901 N 484.634 6.82349 -1.19884 0
M  V30 4902 N 486.427 5.56369 -0.800608 0
M  V30 4903 H 478.578 1.71133 -1.25806 0
M  V30 4904 H 480.841 0.799186 -0.509908 0
M  V30 4905 H 480.547 3.24085 -1.36608 0
M  V30 4906 H 480.421 3.75961 0.305508 0
M  V30 4907 H 482.808 2.86066 0.724605 0
M  V30 4908 H 482.889 2.366 -0.972327 0
M  V30 4909 H 482.533 4.79513 -1.67422 0
M  V30 4910 H 482.463 5.26583 0.0425612 0
M  V30 4911 H 484.954 3.76053 -0.3732 0
M  V30 4912 H 485.267 7.60326 -1.38291 0
M  V30 4913 H 483.612 6.83906 -1.23685 0
M  V30 4914 H 486.803 4.64904 -0.546045 0
M  V30 4915 H 486.976 6.40139 -1.00626 0
M  V30 4916 N 480.382 0.0267497 1.57577 0
M  V30 4917 C 481.659 -0.690926 1.82991 0
M  V30 4918 C 482.039 -1.90471 0.910164 0
M  V30 4919 O 481.387 -2.28474 -0.0347985 0
M  V30 4920 C 481.597 -1.07139 3.32148 0
M  V30 4921 C 482.945 -1.46402 3.98562 0
M  V30 4922 O 483.969 -1.16443 3.36629 0
M  V30 4923 O 482.828 -2.02214 5.07712 0
M  V30 4924 H 479.922 -0.338747 0.75444 0
M  V30 4925 H 482.468 0.0542506 1.69613 0
M  V30 4926 H 481.24 -0.207394 3.9075 0
M  V30 4927 H 480.863 -1.87481 3.50623 0
M  V30 4928 N 481.861 -1.55662 -0.24637 0
M  V30 4929 C 483.091 -1.81312 -0.990438 0
M  V30 4930 C 483.499 -0.600234 -1.79426 0
M  V30 4931 O 482.842 0.440537 -1.78339 0
M  V30 4932 C 482.904 -3.0032 -1.97607 0
M  V30 4933 C 482.568 -4.36322 -1.35912 0
M  V30 4934 C 483.565 -5.14295 -0.761348 0
M  V30 4935 C 481.25 -4.83019 -1.37833 0
M  V30 4936 C 483.244 -6.37114 -0.190998 0
M  V30 4937 C 480.931 -6.05786 -0.804128 0
M  V30 4938 C 481.929 -6.82672 -0.211489 0
M  V30 4939 O 481.617 -8.03121 0.353845 0
M  V30 4940 H 481.349 -0.607233 -0.297058 0
M  V30 4941 H 483.903 -2.0356 -0.274351 0
M  V30 4942 H 482.133 -2.73829 -2.73047 0
M  V30 4943 H 483.822 -3.13057 -2.58361 0
M  V30 4944 H 484.588 -4.79337 -0.739013 0
M  V30 4945 H 480.467 -4.23165 -1.829 0
M  V30 4946 H 484.011 -6.97069 0.272206 0
M  V30 4947 H 479.908 -6.40222 -0.823792 0
M  V30 4948 H 480.676 -8.18131 0.245761 0
M  V30 4949 N 483.339 0.512053 -1.4905 0
M  V30 4950 C 484.588 1.26343 -1.57227 0
M  V30 4951 C 484.901 1.93876 -0.259155 0
M  V30 4952 O 486.107 2.70612 -0.219358 0
M  V30 4953 C 484.563 2.29343 -2.77362 0
M  V30 4954 C 484.171 1.67799 -4.15388 0
M  V30 4955 C 485.915 3.05378 -2.94864 0
M  V30 4956 C 483.822 2.68845 -5.2676 0
M  V30 4957 H 482.752 0.475231 -0.585382 0
M  V30 4958 H 485.403 0.53862 -1.75417 0
M  V30 4959 H 483.785 3.04938 -2.52643 0
M  V30 4960 H 484.959 0.982715 -4.50199 0
M  V30 4961 H 483.274 1.04194 -4.03153 0
M  V30 4962 H 485.871 3.80921 -3.75238 0
M  V30 4963 H 486.214 3.62327 -2.05 0
M  V30 4964 H 486.747 2.36898 -3.19569 0
M  V30 4965 H 483.486 2.16692 -6.18647 0
M  V30 4966 H 483.006 3.36647 -4.96416 0
M  V30 4967 H 484.685 3.31487 -5.5563 0
M  V30 4968 N 484.817 1.37938 0.762283 0
M  V30 4969 C 485.78 1.34279 1.85747 0
M  V30 4970 C 486.78 0.244969 1.58923 0
M  V30 4971 O 487.97 0.501365 1.66829 0
M  V30 4972 C 485.102 1.08833 3.23061 0
M  V30 4973 H 486.295 2.31705 1.90401 0
M  V30 4974 H 483.848 1.23105 0.963057 0
M  V30 4975 H 484.583 0.119767 3.24079 0
M  V30 4976 H 484.368 1.88306 3.43923 0
M  V30 4977 H 485.858 1.08946 4.03138 0
M  V30 4978 N 486.295 -0.989507 1.22664 0
M  V30 4979 C 487.243 -2.10148 0.997035 0
M  V30 4980 C 488.237 -1.6929 -0.0609783 0
M  V30 4981 O 489.443 -1.79766 0.0917523 0
M  V30 4982 H 485.818 -0.687256 0.305259 0
M  V30 4983 H 487.789 -2.26685 1.94053 0
M  V30 4984 C 486.538 -3.4257 0.595085 0
M  V30 4985 H 485.861 -3.74453 1.40089 0
M  V30 4986 H 487.301 -4.21344 0.473869 0
M  V30 4987 C 485.76 -3.29638 -0.695725 0
M  V30 4988 O 486.29 -3.61709 -1.74727 0
M  V30 4989 N 484.496 -2.82814 -0.668173 0
M  V30 4990 H 484.043 -2.56914 0.18787 0
M  V30 4991 H 484.001 -2.74544 -1.5321 0
M  V30 4992 N 487.773 -1.03688 -1.18687 0
M  V30 4993 C 489.184 -0.766488 -1.70241 0
M  V30 4994 C 489.535 0.713052 -1.82784 0
M  V30 4995 O 488.66 1.55529 -1.50465 0
M  V30 4996 C 489.255 -1.38475 -3.09209 0
M  V30 4997 C 487.814 -1.16276 -3.5799 0
M  V30 4998 C 486.961 -1.4778 -2.34641 0
M  V30 4999 H 489.912 -1.20378 -1.03415 0
M  V30 5000 H 489.933 -0.785939 -3.72295 0
M  V30 5001 H 489.445 -2.46157 -3.00048 0
M  V30 5002 H 487.546 -0.104508 -3.72453 0
M  V30 5003 H 487.659 -1.8571 -4.41643 0
M  V30 5004 H 486.023 -0.897366 -2.38368 0
M  V30 5005 H 486.806 -2.56562 -2.28102 0
M  V30 5006 N 489.251 1.34841 -0.815825 0
M  V30 5007 C 490.528 1.92908 -0.323416 0
M  V30 5008 C 490.908 1.74479 1.18828 0
M  V30 5009 O 490.256 1.11928 1.99209 0
M  V30 5010 C 490.466 3.40957 -0.744952 0
M  V30 5011 C 491.814 4.18107 -0.739716 0
M  V30 5012 O 492.838 3.49511 -0.68708 0
M  V30 5013 O 491.697 5.40517 -0.806456 0
M  V30 5014 H 488.791 0.822436 -0.0867646 0
M  V30 5015 H 491.337 1.4386 -0.90014 0
M  V30 5016 H 490.109 3.4814 -1.78646 0
M  V30 5017 H 489.732 3.97341 -0.143535 0
M  V30 5018 N 490.729 0.570148 1.46925 0
M  V30 5019 C 491.659 -0.158274 2.32963 0
M  V30 5020 C 492.64 -0.896093 1.44583 0
M  V30 5021 O 493.825 -0.874022 1.7342 0
M  V30 5022 C 490.955 -1.18055 3.26619 0
M  V30 5023 C 489.909 -0.558379 4.24342 0
M  V30 5024 C 489.235 -1.68623 5.07415 0
M  V30 5025 C 490.535 0.496295 5.19937 0
M  V30 5026 H 492.229 0.560046 2.94115 0
M  V30 5027 H 489.775 0.270775 1.41431 0
M  V30 5028 H 491.728 -1.69841 3.85658 0
M  V30 5029 H 490.452 -1.92899 2.63548 0
M  V30 5030 H 489.111 -0.0617157 3.66548 0
M  V30 5031 H 488.759 -2.42402 4.40738 0
M  V30 5032 H 488.459 -1.27564 5.73586 0
M  V30 5033 H 489.983 -2.20709 5.69315 0
M  V30 5034 H 491.397 0.0640052 5.73264 0
M  V30 5035 H 489.794 0.82649 5.94381 0
M  V30 5036 H 490.864 1.38735 4.6463 0
M  V30 5037 N 492.207 -1.54576 0.307264 0
M  V30 5038 C 493.453 -2.0056 -0.300612 0
M  V30 5039 C 493.786 -1.1953 -1.53057 0
M  V30 5040 O 493.061 -0.27337 -1.92569 0
M  V30 5041 C 493.344 -3.54167 -0.650987 0
M  V30 5042 C 493.197 -4.45933 0.588539 0
M  V30 5043 C 494.516 -4.14645 -1.47506 0
M  V30 5044 H 491.635 -0.729075 -0.107788 0
M  V30 5045 H 494.277 -1.85286 0.420606 0
M  V30 5046 H 492.427 -3.67313 -1.26544 0
M  V30 5047 H 494.099 -4.44683 1.22697 0
M  V30 5048 H 492.342 -4.16274 1.22058 0
M  V30 5049 H 493.013 -5.51189 0.299153 0
M  V30 5050 H 495.489 -4.04973 -0.955821 0
M  V30 5051 H 494.365 -5.22269 -1.68899 0
M  V30 5052 H 494.626 -3.66921 -2.4662 0
M  V30 5053 N 493.685 -0.035106 -1.57561 0
M  V30 5054 C 494.648 0.929819 -2.09492 0
M  V30 5055 C 495.648 1.25026 -1.01119 0
M  V30 5056 O 496.838 1.18961 -1.27255 0
M  V30 5057 C 493.97 2.24457 -2.56577 0
M  V30 5058 H 495.163 0.479935 -2.96035 0
M  V30 5059 H 492.716 0.213033 -1.54841 0
M  V30 5060 H 493.451 2.74061 -1.73382 0
M  V30 5061 H 493.236 2.02508 -3.35757 0
M  V30 5062 H 494.726 2.93607 -2.96959 0
M  V30 5063 N 495.163 1.55791 0.238111 0
M  V30 5064 C 496.579 1.48411 0.587045 0
M  V30 5065 C 496.779 0.72702 1.87927 0
M  V30 5066 O 495.835 0.259942 2.51158 0
M  V30 5067 C 497.148 2.92873 0.681623 0
M  V30 5068 C 498.696 3.03295 0.773363 0
M  V30 5069 C 499.171 4.49082 0.899428 0
M  V30 5070 N 500.662 4.53056 0.964075 0
M  V30 5071 C 501.397 5.63117 1.08104 0
M  V30 5072 N 500.893 6.82969 1.16299 0
M  V30 5073 N 502.686 5.50933 1.11488 0
M  V30 5074 H 494.837 2.0345 -0.610076 0
M  V30 5075 H 497.1 0.924034 -0.211813 0
M  V30 5076 H 496.806 3.51142 -0.19802 0
M  V30 5077 H 496.68 3.43851 1.55069 0
M  V30 5078 H 499.067 2.45101 1.64346 0
M  V30 5079 H 499.148 2.55513 -0.121034 0
M  V30 5080 H 498.792 5.07889 0.0338586 0
M  V30 5081 H 498.722 4.94553 1.809 0
M  V30 5082 H 501.213 3.66737 0.91173 0
M  V30 5083 H 501.526 7.62598 1.25155 0
M  V30 5084 H 499.871 6.85712 1.13241 0
M  V30 5085 H 503.062 4.56231 1.0474 0
M  V30 5086 H 503.235 6.36743 1.20259 0
M  V30 5087 N 496.642 -0.504142 1.49319 0
M  V30 5088 C 497.572 -1.61473 1.68667 0
M  V30 5089 C 498.553 -1.61455 0.535378 0
M  V30 5090 O 499.738 -1.78245 0.770868 0
M  V30 5091 C 496.868 -2.99971 1.75028 0
M  V30 5092 C 495.822 -3.14854 2.89916 0
M  V30 5093 C 495.148 -4.54671 2.81387 0
M  V30 5094 C 496.448 -2.95176 4.30893 0
M  V30 5095 H 498.142 -1.45535 2.61648 0
M  V30 5096 H 495.688 -0.698711 1.25913 0
M  V30 5097 H 497.641 -3.77562 1.8715 0
M  V30 5098 H 496.365 -3.1699 0.786441 0
M  V30 5099 H 495.024 -2.39687 2.77391 0
M  V30 5100 H 494.672 -4.68562 1.82917 0
M  V30 5101 H 494.372 -4.6557 3.58494 0
M  V30 5102 H 495.896 -5.34327 2.95512 0
M  V30 5103 H 497.31 -3.62538 4.44116 0
M  V30 5104 H 495.707 -3.17549 5.09198 0
M  V30 5105 H 496.777 -1.91332 4.45556 0
M  V30 5106 N 498.12 -1.38341 -0.754957 0
M  V30 5107 C 499.052 -1.31347 -1.87831 0
M  V30 5108 C 500.065 -0.225955 -1.61224 0
M  V30 5109 O 501.254 -0.48341 -1.7183 0
M  V30 5110 C 498.354 -1.01201 -3.23437 0
M  V30 5111 C 497.527 -2.20834 -3.77559 0
M  V30 5112 C 496.586 -1.87454 -4.91678 0
M  V30 5113 O 495.612 -2.59934 -5.06382 0
M  V30 5114 N 496.814 -0.828682 -5.74555 0
M  V30 5115 H 499.579 -2.28147 -1.94342 0
M  V30 5116 H 497.14 -1.32184 -0.934828 0
M  V30 5117 H 499.132 -0.769249 -3.97322 0
M  V30 5118 H 497.702 -0.132011 -3.12321 0
M  V30 5119 H 496.922 -2.61184 -2.95256 0
M  V30 5120 H 498.21 -3.00678 -4.10451 0
M  V30 5121 H 497.608 -0.227591 -5.65242 0
M  V30 5122 H 496.165 -0.645802 -6.48593 0
M  V30 5123 N 499.598 0.982988 -1.23187 0
M  V30 5124 C 500.545 2.07491 -1.01075 0
M  V30 5125 C 501.515 1.65949 0.070905 0
M  V30 5126 O 502.7 1.90629 -0.0806822 0
M  V30 5127 C 499.84 3.39751 -0.605261 0
M  V30 5128 C 498.953 3.94578 -1.75876 0
M  V30 5129 C 498.088 5.15039 -1.3003 0
M  V30 5130 C 497.127 5.62027 -2.42472 0
M  V30 5131 N 496.264 6.73719 -1.97602 0
M  V30 5132 H 501.104 2.25739 -1.9454 0
M  V30 5133 H 498.641 1.10659 -0.969179 0
M  V30 5134 H 500.599 4.15719 -0.351279 0
M  V30 5135 H 499.229 3.21473 0.292382 0
M  V30 5136 H 498.281 3.1539 -2.12681 0
M  V30 5137 H 499.593 4.25422 -2.60418 0
M  V30 5138 H 498.747 5.9833 -1.00429 0
M  V30 5139 H 497.486 4.85843 -0.425216 0
M  V30 5140 H 496.491 4.77318 -2.7285 0
M  V30 5141 H 497.716 5.93244 -3.30512 0
M  V30 5142 H 495.662 6.46287 -1.1247 0
M  V30 5143 H 495.579 7.03934 -2.75705 0
M  V30 5144 H 496.847 7.6049 -1.71098 0
M  V30 5145 N 501.076 1.04316 1.18135 0
M  V30 5146 C 502.023 0.636398 2.21853 0
M  V30 5147 C 502.993 -0.357039 1.62217 0
M  V30 5148 O 504.178 -0.250453 1.89149 0
M  V30 5149 C 501.318 0.00812779 3.45099 0
M  V30 5150 C 500.431 1.04933 4.19062 0
M  V30 5151 C 499.566 0.389313 5.29771 0
M  V30 5152 C 498.605 1.41544 5.9551 0
M  V30 5153 N 497.742 0.78021 6.97751 0
M  V30 5154 H 502.582 1.52536 2.56002 0
M  V30 5155 H 500.119 0.76304 1.25762 0
M  V30 5156 H 502.077 -0.373497 4.15525 0
M  V30 5157 H 500.707 -0.844336 3.11562 0
M  V30 5158 H 499.759 1.54888 3.47439 0
M  V30 5159 H 501.071 1.82862 4.64072 0
M  V30 5160 H 500.225 -0.0463805 6.06682 0
M  V30 5161 H 498.964 -0.422038 4.8587 0
M  V30 5162 H 497.969 1.86124 5.17337 0
M  V30 5163 H 499.194 2.22854 6.41493 0
M  V30 5164 H 497.14 -0.0107899 6.55999 0
M  V30 5165 H 497.057 1.49716 7.41027 0
M  V30 5166 H 498.325 0.368996 7.78626 0
M  V30 5167 N 502.554 -1.34406 0.822964 0
M  V30 5168 C 503.517 -2.2783 0.250271 0
M  V30 5169 C 504.517 -1.50288 -0.571854 0
M  V30 5170 O 505.707 -1.69825 -0.387952 0
M  V30 5171 C 502.839 -3.34663 -0.649137 0
M  V30 5172 H 504.032 -2.79992 1.07444 0
M  V30 5173 H 501.585 -1.44539 0.594829 0
M  V30 5174 H 502.32 -2.87714 -1.49637 0
M  V30 5175 H 502.105 -3.92052 -0.0611199 0
M  V30 5176 H 503.595 -4.04349 -1.04363 0
M  V30 5177 N 504.032 -0.577932 -1.46621 0
M  V30 5178 C 504.942 0.160651 -2.34049 0
M  V30 5179 C 505.958 0.890911 -1.49462 0
M  V30 5180 O 507.134 0.855166 -1.82343 0
M  V30 5181 C 504.199 1.16447 -3.26559 0
M  V30 5182 C 503.26 0.4394 -4.27045 0
M  V30 5183 C 502.493 1.3954 -5.15135 0
M  V30 5184 O 502.716 2.63162 -5.06065 0
M  V30 5185 O 501.65 0.908585 -5.95003 0
M  V30 5186 H 505.476 -0.557057 -2.98547 0
M  V30 5187 H 503.061 -0.338369 -1.45518 0
M  V30 5188 H 504.943 1.7434 -3.83645 0
M  V30 5189 H 503.618 1.86373 -2.64663 0
M  V30 5190 H 502.525 -0.181247 -3.73661 0
M  V30 5191 H 503.858 -0.218799 -4.91713 0
M  V30 5192 N 505.51 1.54411 -0.315457 0
M  V30 5193 C 506.44 2.27002 0.547039 0
M  V30 5194 C 507.421 1.27492 1.12605 0
M  V30 5195 O 508.606 1.5629 1.15269 0
M  V30 5196 C 505.736 3.02171 1.71201 0
M  V30 5197 C 504.69 4.0895 1.26268 0
M  V30 5198 C 504.016 4.71915 2.51396 0
M  V30 5199 C 505.316 5.20891 0.383419 0
M  V30 5200 H 507.01 2.99343 -0.0584517 0
M  V30 5201 H 504.556 1.4397 -0.0295527 0
M  V30 5202 H 506.509 3.51681 2.32161 0
M  V30 5203 H 505.233 2.27433 2.34397 0
M  V30 5204 H 503.892 3.60312 0.676062 0
M  V30 5205 H 503.54 3.93801 3.12937 0
M  V30 5206 H 503.24 5.44039 2.22026 0
M  V30 5207 H 504.764 5.24195 3.13133 0
M  V30 5208 H 506.178 5.66206 0.899082 0
M  V30 5209 H 504.575 5.99821 0.182857 0
M  V30 5210 H 505.645 4.81324 -0.587821 0
M  V30 5211 N 506.988 0.0434614 1.5754 0
M  V30 5212 C 507.936 -0.951465 2.1225 0
M  V30 5213 C 508.93 -1.3274 1.05245 0
M  V30 5214 O 510.136 -1.30795 1.23663 0
M  V30 5215 H 506.511 -0.324667 0.678303 0
M  V30 5216 H 508.482 -0.464855 2.94757 0
M  V30 5217 C 507.231 -2.21972 2.67626 0
M  V30 5218 H 506.554 -1.93923 3.4962 0
M  V30 5219 H 507.994 -2.89765 3.09536 0
M  V30 5220 C 506.453 -2.95919 1.61038 0
M  V30 5221 O 506.983 -3.8857 1.01862 0
M  V30 5222 N 505.189 -2.58511 1.32741 0
M  V30 5223 H 504.736 -1.83244 1.81051 0
M  V30 5224 H 504.694 -3.08296 0.616531 0
M  V30 5225 N 508.466 -1.55915 -0.229846 0
M  V30 5226 C 509.877 -1.68809 -0.797531 0
M  V30 5227 C 510.228 -0.643995 -1.8533 0
M  V30 5228 O 509.353 0.206492 -2.15413 0
M  V30 5229 C 509.948 -3.06043 -1.45338 0
M  V30 5230 C 508.507 -3.20819 -1.96856 0
M  V30 5231 C 507.654 -2.6472 -0.825736 0
M  V30 5232 H 510.605 -1.58699 -0.00533733 0
M  V30 5233 H 510.626 -3.01438 -2.32196 0
M  V30 5234 H 510.138 -3.82012 -0.684743 0
M  V30 5235 H 508.239 -2.49704 -2.76548 0
M  V30 5236 H 508.352 -4.27937 -2.15423 0
M  V30 5237 H 506.716 -2.22985 -1.23084 0
M  V30 5238 H 507.499 -3.43229 -0.0699019 0
M  V30 5239 N 509.944 0.496216 -1.49584 0
M  V30 5240 C 510.876 1.61404 -1.62731 0
M  V30 5241 C 511.889 1.54613 -0.50978 0
M  V30 5242 O 513.078 1.60458 -0.782017 0
M  V30 5243 C 510.178 3.00212 -1.57245 0
M  V30 5244 C 509.351 3.32138 -2.84611 0
M  V30 5245 C 508.41 4.5038 -2.72112 0
M  V30 5246 O 507.436 4.51926 -3.46051 0
M  V30 5247 N 508.638 5.50575 -1.83977 0
M  V30 5248 H 511.403 1.50552 -2.59141 0
M  V30 5249 H 508.964 0.684182 -1.46733 0
M  V30 5250 H 510.956 3.77241 -1.4653 0
M  V30 5251 H 509.526 3.04964 -0.686729 0
M  V30 5252 H 508.746 2.4396 -3.09641 0
M  V30 5253 H 510.034 3.50268 -3.69039 0
M  V30 5254 H 509.432 5.52128 -1.23171 0
M  V30 5255 H 507.989 6.26687 -1.79182 0
M  V30 5256 N 511.423 1.38739 0.74761 0
M  V30 5257 C 512.839 1.20067 1.05148 0
M  V30 5258 C 513.039 0.0534835 2.01429 0
M  V30 5259 O 512.095 -0.59886 2.45296 0
M  V30 5260 C 513.408 2.52957 1.62584 0
M  V30 5261 C 514.956 2.59692 1.74726 0
M  V30 5262 C 515.431 3.92772 2.35573 0
M  V30 5263 N 516.922 3.94343 2.42997 0
M  V30 5264 C 517.657 4.9408 2.90985 0
M  V30 5265 N 517.153 6.04214 3.38965 0
M  V30 5266 N 518.946 4.81466 2.9008 0
M  V30 5267 H 511.097 2.12121 0.108808 0
M  V30 5268 H 513.36 0.941491 0.110899 0
M  V30 5269 H 513.066 3.37389 0.993051 0
M  V30 5270 H 512.94 2.71779 2.61565 0
M  V30 5271 H 515.327 1.75651 2.3713 0
M  V30 5272 H 515.408 2.44731 0.744326 0
M  V30 5273 H 515.052 4.77238 1.738 0
M  V30 5274 H 514.982 4.05046 3.36519 0
M  V30 5275 H 517.473 3.14799 2.0907 0
M  V30 5276 H 517.786 6.76241 3.74056 0
M  V30 5277 H 516.131 6.07825 3.37007 0
M  V30 5278 H 519.322 3.94535 2.51912 0
M  V30 5279 H 519.495 5.59344 3.27166 0
M  V30 5280 N 512.901 -0.976442 1.23707 0
M  V30 5281 C 514.312 -1.53284 1.06587 0
M  V30 5282 C 514.663 -1.92765 -0.365526 0
M  V30 5283 O 513.788 -1.7645 -1.25277 0
M  V30 5284 C 514.383 -2.78548 1.92864 0
M  V30 5285 C 512.942 -3.30574 1.79994 0
M  V30 5286 C 512.089 -2.03538 1.88328 0
M  V30 5287 H 515.04 -0.795692 1.37311 0
M  V30 5288 H 515.061 -3.5155 1.45577 0
M  V30 5289 H 514.573 -2.49782 2.97037 0
M  V30 5290 H 512.674 -3.64211 0.786202 0
M  V30 5291 H 512.787 -4.00065 2.636 0
M  V30 5292 H 511.151 -2.17853 1.31954 0
M  V30 5293 H 511.934 -1.77149 2.94063 0
M  V30 5294 N 514.379 -1.04941 -1.1758 0
M  V30 5295 C 515.289 -0.658826 -2.25159 0
M  V30 5296 C 516.305 0.318941 -1.71052 0
M  V30 5297 O 517.481 0.171669 -2.00667 0
M  V30 5298 C 514.546 -0.0369522 -3.4668 0
M  V30 5299 C 513.607 -1.06484 -4.15884 0
M  V30 5300 C 512.84 -0.472551 -5.31604 0
M  V30 5301 O 513.063 0.718736 -5.65854 0
M  V30 5302 O 511.997 -1.20557 -5.89703 0
M  V30 5303 H 515.823 -1.55533 -2.60851 0
M  V30 5304 H 513.408 -0.820819 -1.24832 0
M  V30 5305 H 515.29 0.308784 -4.20267 0
M  V30 5306 H 513.965 0.833238 -3.12792 0
M  V30 5307 H 512.872 -1.46253 -3.44327 0
M  V30 5308 H 514.205 -1.9061 -4.53794 0
M  V30 5309 N 515.857 1.33968 -0.830081 0
M  V30 5310 C 517.082 2.02813 -0.433796 0
M  V30 5311 C 517.507 1.62076 0.954614 0
M  V30 5312 O 516.865 0.808955 1.62252 0
M  V30 5313 C 516.913 3.56348 -0.552115 0
M  V30 5314 O 516.017 4.10202 0.425191 0
M  V30 5315 H 515.358 0.639817 -0.177567 0
M  V30 5316 H 517.888 1.7106 -1.12248 0
M  V30 5317 H 517.898 4.05722 -0.430513 0
M  V30 5318 H 516.573 3.85344 -1.56471 0
M  V30 5319 H 515.15 3.71979 0.261878 0
M  V30 5320 N 517.335 0.585699 1.46312 0
M  V30 5321 C 518.582 0.0724211 2.0237 0
M  V30 5322 C 518.91 -1.28868 1.45683 0
M  V30 5323 O 518.165 -1.85853 0.612945 0
M  V30 5324 C 518.464 -0.0401312 3.57377 0
M  V30 5325 C 518.13 1.25376 4.33119 0
M  V30 5326 C 516.792 1.60824 4.5353 0
M  V30 5327 C 519.144 2.10987 4.76586 0
M  V30 5328 C 516.472 2.81676 5.14661 0
M  V30 5329 C 518.824 3.31068 5.39052 0
M  V30 5330 C 517.488 3.66794 5.5769 0
M  V30 5331 H 516.758 0.0265007 0.740526 0
M  V30 5332 H 519.405 0.762935 1.75646 0
M  V30 5333 H 517.71 -0.813791 3.83255 0
M  V30 5334 H 519.407 -0.453078 3.98432 0
M  V30 5335 H 515.997 0.967808 4.1753 0
M  V30 5336 H 520.181 1.84904 4.60569 0
M  V30 5337 H 515.437 3.0949 5.27282 0
M  V30 5338 H 519.611 3.97672 5.71691 0
M  V30 5339 H 517.238 4.60529 6.04828 0
M  V30 5340 N 518.813 -1.54241 0.323641 0
M  V30 5341 C 520.043 -2.04687 -0.280464 0
M  V30 5342 C 520.451 -1.19939 -1.46326 0
M  V30 5343 O 519.794 -0.222872 -1.82343 0
M  V30 5344 C 519.856 -3.50978 -0.778123 0
M  V30 5345 C 519.52 -4.56127 0.282371 0
M  V30 5346 C 520.517 -5.07726 1.11847 0
M  V30 5347 C 518.202 -5.00451 0.430582 0
M  V30 5348 C 520.196 -6.02212 2.08851 0
M  V30 5349 C 517.883 -5.94752 1.40404 0
M  V30 5350 C 518.881 -6.45519 2.23147 0
M  V30 5351 O 518.569 -7.37968 3.1884 0
M  V30 5352 H 518.301 -0.673192 -0.0615473 0
M  V30 5353 H 520.855 -1.99999 0.467921 0
M  V30 5354 H 519.085 -3.53064 -1.57742 0
M  V30 5355 H 520.774 -3.84499 -1.30058 0
M  V30 5356 H 521.54 -4.74261 1.01496 0
M  V30 5357 H 517.419 -4.6055 -0.203569 0
M  V30 5358 H 520.963 -6.41761 2.73474 0
M  V30 5359 H 516.86 -6.27633 1.5082 0
M  V30 5360 H 517.628 -7.55841 3.14079 0
M  V30 5361 N 520.291 -0.0518155 -1.57515 0
M  V30 5362 C 521.539 0.620595 -1.92336 0
M  V30 5363 C 521.86 1.71345 -0.930907 0
M  V30 5364 O 521.13 1.95885 0.0241341 0
M  V30 5365 H 519.71 0.232226 -0.709986 0
M  V30 5366 H 522.372 -0.104969 -1.94617 0
M  V30 5367 H 521.468 1.05879 -2.93592 0
M  V30 5368 N 521.769 1.56035 0.221574 0
M  V30 5369 C 523.017 1.78693 0.944102 0
M  V30 5370 C 523.338 0.620317 1.8487 0
M  V30 5371 O 522.608 -0.362784 1.92512 0
M  V30 5372 H 521.188 0.659082 0.351597 0
M  V30 5373 H 523.85 1.93497 0.233435 0
M  V30 5374 H 522.946 2.70837 1.55093 0
M  V30 5375 N 523.247 -0.488276 1.49845 0
M  V30 5376 C 524.495 -1.23911 1.59657 0
M  V30 5377 C 524.816 -1.92816 0.291005 0
M  V30 5378 O 524.086 -1.83328 -0.690485 0
M  V30 5379 H 522.666 -0.460357 0.588286 0
M  V30 5380 H 525.328 -0.564794 1.86537 0
M  V30 5381 H 524.424 -1.99625 2.39909 0
M  V30 5382 N 524.725 -1.39134 -0.740242 0
M  V30 5383 C 525.688 -1.37217 -1.83587 0
M  V30 5384 C 526.688 -0.270221 -1.58513 0
M  V30 5385 O 527.878 -0.527843 -1.6601 0
M  V30 5386 C 525.01 -1.13959 -3.21288 0
M  V30 5387 H 526.203 -2.34705 -1.86691 0
M  V30 5388 H 523.756 -1.24622 -0.94335 0
M  V30 5389 H 524.491 -0.17131 -3.23847 0
M  V30 5390 H 524.276 -1.93754 -3.40884 0
M  V30 5391 H 525.766 -1.15346 -4.01354 0
M  V30 5392 N 526.204 0.969867 -1.24223 0
M  V30 5393 C 527.114 2.09806 -1.0497 0
M  V30 5394 C 528.13 1.73998 0.00886455 0
M  V30 5395 O 529.306 2.00513 -0.188848 0
M  V30 5396 C 526.371 3.40467 -0.654452 0
M  V30 5397 C 525.432 3.90236 -1.78926 0
M  V30 5398 C 524.665 5.14662 -1.41277 0
M  V30 5399 O 524.888 5.69602 -0.301632 0
M  V30 5400 O 523.822 5.58761 -2.23763 0
M  V30 5401 H 527.648 2.28942 -1.99548 0
M  V30 5402 H 525.233 1.08197 -1.03023 0
M  V30 5403 H 527.115 4.19039 -0.445452 0
M  V30 5404 H 525.79 3.22636 0.262216 0
M  V30 5405 H 524.697 3.12735 -2.05299 0
M  V30 5406 H 526.03 4.1254 -2.68462 0
M  V30 5407 N 527.682 1.05563 1.17022 0
M  V30 5408 C 528.93 0.76642 1.87004 0
M  V30 5409 C 529.251 -0.708854 1.8166 0
M  V30 5410 O 528.521 -1.51242 1.2451 0
M  V30 5411 H 527.101 0.280516 0.692329 0
M  V30 5412 H 529.763 1.33557 1.41945 0
M  V30 5413 H 528.859 1.08472 2.92644 0
M  V30 5414 N 529.16 -1.33526 0.837174 0
M  V30 5415 C 530.39 -2.01754 0.444848 0
M  V30 5416 C 530.798 -1.63149 -0.958072 0
M  V30 5417 O 530.141 -0.839827 -1.63379 0
M  V30 5418 C 530.203 -3.56228 0.483917 0
M  V30 5419 C 529.867 -4.18205 1.84265 0
M  V30 5420 C 530.864 -4.37699 2.80563 0
M  V30 5421 C 528.549 -4.54667 2.13503 0
M  V30 5422 C 530.543 -4.928 4.04261 0
M  V30 5423 C 528.23 -5.09475 3.37458 0
M  V30 5424 C 529.228 -5.28488 4.32654 0
M  V30 5425 O 528.916 -5.82132 5.54417 0
M  V30 5426 H 528.648 -0.652928 0.175104 0
M  V30 5427 H 531.202 -1.71469 1.13082 0
M  V30 5428 H 529.432 -3.85833 -0.258826 0
M  V30 5429 H 531.121 -4.05752 0.109653 0
M  V30 5430 H 531.887 -4.0988 2.59274 0
M  V30 5431 H 527.766 -4.39164 1.40201 0
M  V30 5432 H 531.31 -5.07555 4.78574 0
M  V30 5433 H 527.207 -5.36725 3.58604 0
M  V30 5434 H 527.975 -6.00548 5.56133 0
M  V30 5435 N 530.638 -0.59345 -1.46 0
M  V30 5436 C 531.866 -0.0890934 -2.06708 0
M  V30 5437 C 532.281 1.2205 -1.44046 0
M  V30 5438 O 531.638 1.74029 -0.549551 0
M  V30 5439 C 531.689 0.0720263 -3.61428 0
M  V30 5440 O 531.41 -1.18574 -4.21748 0
M  V30 5441 C 532.911 0.609487 -4.3909 0
M  V30 5442 H 530.131 -0.0623628 -0.668096 0
M  V30 5443 H 532.675 -0.817171 -1.87464 0
M  V30 5444 H 530.83 0.750369 -3.80063 0
M  V30 5445 H 531.244 -1.0064 -5.14754 0
M  V30 5446 H 532.718 0.671363 -5.47902 0
M  V30 5447 H 533.195 1.62878 -4.07882 0
M  V30 5448 H 533.801 -0.03434 -4.25286 0
M  V30 5449 N 532.116 1.54067 -0.331816 0
M  V30 5450 C 533.393 1.92915 0.322955 0
M  V30 5451 C 533.773 1.26225 1.69205 0
M  V30 5452 O 533.121 0.408919 2.24811 0
M  V30 5453 C 533.331 3.46619 0.406946 0
M  V30 5454 C 534.679 4.19386 0.663339 0
M  V30 5455 O 535.703 3.5282 0.489536 0
M  V30 5456 O 534.562 5.37288 0.999193 0
M  V30 5457 H 531.656 0.805808 0.186016 0
M  V30 5458 H 534.202 1.65342 -0.382135 0
M  V30 5459 H 532.974 3.87354 -0.554287 0
M  V30 5460 H 532.597 3.80324 1.15929 0
M  V30 5461 N 533.594 0.0601682 1.57485 0
M  V30 5462 C 534.824 -0.620037 1.97076 0
M  V30 5463 C 535.232 -1.64381 0.936784 0
M  V30 5464 O 534.575 -1.83497 -0.0863377 0
M  V30 5465 C 534.637 -1.35617 3.32939 0
M  V30 5466 C 534.301 -0.487208 4.54396 0
M  V30 5467 C 535.298 0.250428 5.19297 0
M  V30 5468 C 532.983 -0.415494 5.00579 0
M  V30 5469 C 534.977 1.04812 6.28723 0
M  V30 5470 C 532.664 0.385879 6.0988 0
M  V30 5471 C 533.662 1.11637 6.73815 0
M  V30 5472 O 533.35 1.90454 7.81014 0
M  V30 5473 H 533.082 -0.173664 0.653312 0
M  V30 5474 H 535.636 0.1256 2.05016 0
M  V30 5475 H 533.866 -2.14763 3.2158 0
M  V30 5476 H 535.555 -1.92749 3.57215 0
M  V30 5477 H 536.321 0.204546 4.84568 0
M  V30 5478 H 532.2 -0.973679 4.506 0
M  V30 5479 H 535.744 1.6188 6.78558 0
M  V30 5480 H 531.641 0.433366 6.44044 0
M  V30 5481 H 532.409 1.82762 7.97835 0
M  V30 5482 N 535.072 -1.5615 -0.213296 0
M  V30 5483 C 536.483 -1.69645 -0.779582 0
M  V30 5484 C 536.834 -0.663615 -1.84636 0
M  V30 5485 O 535.959 0.183633 -2.15619 0
M  V30 5486 C 536.554 -3.07567 -1.42084 0
M  V30 5487 C 535.113 -3.22889 -1.93442 0
M  V30 5488 C 534.26 -2.65581 -0.797612 0
M  V30 5489 H 537.211 -1.58696 0.0114951 0
M  V30 5490 H 537.232 -3.03884 -2.28986 0
M  V30 5491 H 536.744 -3.82716 -0.644187 0
M  V30 5492 H 534.845 -2.52623 -2.73884 0
M  V30 5493 H 534.958 -4.30197 -2.10872 0
M  V30 5494 H 533.322 -2.24278 -1.20712 0
M  V30 5495 H 534.105 -3.43284 -0.033494 0
M  V30 5496 N 536.55 0.480323 -1.50102 0
M  V30 5497 C 537.775 1.26126 -1.64642 0
M  V30 5498 C 538.2 1.85257 -0.325823 0
M  V30 5499 O 537.558 1.66854 0.709194 0
M  V30 5500 C 537.606 2.35243 -2.73301 0
M  V30 5501 O 536.71 3.39646 -2.33911 0
M  V30 5502 H 536.051 0.371463 -0.550374 0
M  V30 5503 H 538.581 0.572696 -1.96421 0
M  V30 5504 H 538.591 2.80695 -2.96098 0
M  V30 5505 H 537.266 1.91574 -3.6915 0
M  V30 5506 H 535.843 2.99969 -2.21525 0
M  V30 5507 N 538.028 1.39524 0.732853 0
M  V30 5508 C 538.958 1.41153 1.86005 0
M  V30 5509 C 539.939 0.274614 1.67869 0
M  V30 5510 O 541.124 0.480745 1.88155 0
M  V30 5511 C 538.254 1.25638 3.23778 0
M  V30 5512 C 537.208 2.36752 3.56556 0
M  V30 5513 C 536.534 2.06326 4.93289 0
M  V30 5514 C 537.834 3.79069 3.5931 0
M  V30 5515 H 539.528 2.35484 1.84899 0
M  V30 5516 H 537.074 1.13348 0.888162 0
M  V30 5517 H 539.027 1.25398 4.0231 0
M  V30 5518 H 537.751 0.277772 3.25417 0
M  V30 5519 H 536.41 2.36213 2.80355 0
M  V30 5520 H 536.058 1.06897 4.9151 0
M  V30 5521 H 535.758 2.80757 5.16187 0
M  V30 5522 H 537.282 2.07739 5.74175 0
M  V30 5523 H 538.696 3.81526 4.27914 0
M  V30 5524 H 537.093 4.52878 3.93728 0
M  V30 5525 H 538.163 4.09893 2.59068 0
M  V30 5526 O 539.545 -0.874016 1.35806 0
M  V30 5527 H 540.236 -1.51229 1.21035 0
M  V30 END ATOM
M  V30 BEGIN BOND
M  V30 END BOND
M  V30 END CTAB
M  END
$$$$
