drugbank_target|P72181 Nitrite reductase (DB03309; DB03317; DB03469)
 OpenBabel12092120003D

  0  0  0     0  0            999 V3000
M  V30 BEGIN CTAB
M  V30 COUNTS 9081 9193 0 0 0
M  V30 BEGIN ATOM
M  V30 1 H -0.908 1.98254 -0.117106 0
M  V30 2 N 0 1.576 0 0
M  V30 3 C 0.933 2.03868 1.02534 0
M  V30 4 C 1.911 0.928543 1.3348 0
M  V30 5 O 3.095 1.19667 1.45644 0
M  V30 6 C 0.222 2.43627 2.35294 0
M  V30 7 C -0.732 3.65373 2.2001 0
M  V30 8 S 0.101 5.13292 1.52614 0
M  V30 9 C 1.257 5.56322 2.86805 0
M  V30 10 H 1.49 2.90518 0.631377 0
M  V30 11 H -0.977 1.52953 0.210867 0
M  V30 12 H 0.981 2.67203 3.11629 0
M  V30 13 H -0.358 1.57376 2.7183 0
M  V30 14 H -1.165 3.90944 3.18086 0
M  V30 15 H -1.563 3.418 1.51819 0
M  V30 16 H 0.729 5.58782 3.83104 0
M  V30 17 H 1.672 6.56266 2.65933 0
M  V30 18 H 2.08 4.83886 2.90714 0
M  V30 19 N 1.4781 -0.272755 1.55222 0
M  V30 20 C 2.8941 -0.619959 1.47067 0
M  V30 21 C 3.0941 -1.895 0.684978 0
M  V30 22 O 2.1501 -2.51675 0.203931 0
M  V30 23 C 3.4631 -0.746693 2.91282 0
M  V30 24 C 5.0111 -0.840731 3.01497 0
M  V30 25 C 5.4861 -0.99924 4.46967 0
M  V30 26 N 6.9771 -1.06476 4.50796 0
M  V30 27 C 7.7121 -1.20621 5.6057 0
M  V30 28 N 7.2081 -1.31483 6.80209 0
M  V30 29 N 9.0011 -1.23733 5.48312 0
M  V30 30 H 1.1521 0.564606 2.04758 0
M  V30 31 H 3.4151 0.191177 0.928523 0
M  V30 32 H 3.1211 0.119753 3.51496 0
M  V30 33 H 2.9951 -1.6269 3.40311 0
M  V30 34 H 5.3821 -1.69764 2.41379 0
M  V30 35 H 5.4631 0.0640874 2.5572 0
M  V30 36 H 5.1071 -0.146984 5.07687 0
M  V30 37 H 5.0371 -1.91871 4.90401 0
M  V30 38 H 7.5281 -0.993196 3.64615 0
M  V30 39 H 7.8411 -1.42111 7.59621 0
M  V30 40 H 6.1861 -1.28487 6.8302 0
M  V30 41 H 9.3771 -1.14877 4.53785 0
M  V30 42 H 9.5501 -1.34412 6.33906 0
M  V30 43 N 2.9562 -1.48159 -0.537278 0
M  V30 44 C 3.8882 -1.58218 -1.65831 0
M  V30 45 C 4.9012 -0.466948 -1.5596 0
M  V30 46 O 6.0902 -0.73747 -1.62553 0
M  V30 47 C 3.1902 -1.48906 -3.04434 0
M  V30 48 C 2.3632 -2.75343 -3.3986 0
M  V30 49 C 1.4222 -2.59588 -4.57712 0
M  V30 50 O 0.4482 -3.33457 -4.61297 0
M  V30 51 N 1.6502 -1.68724 -5.55439 0
M  V30 52 H 4.4152 -2.54891 -1.57641 0
M  V30 53 H 1.9762 -1.4479 -0.724386 0
M  V30 54 H 3.9682 -1.36072 -3.81139 0
M  V30 55 H 2.5382 -0.602368 -3.06741 0
M  V30 56 H 1.7582 -3.02795 -2.52406 0
M  V30 57 H 3.0462 -3.5924 -3.60311 0
M  V30 58 H 2.4442 -1.07898 -5.55315 0
M  V30 59 H 1.0012 -1.61832 -6.3139 0
M  V30 60 N 4.4343 0.785586 -1.36625 0
M  V30 61 C 5.8503 1.08419 -1.17122 0
M  V30 62 C 6.0503 2.015 0.00208491 0
M  V30 63 O 5.1063 2.43551 0.666278 0
M  V30 64 C 6.4193 1.69498 -2.48377 0
M  V30 65 C 7.9673 1.81821 -2.54775 0
M  V30 66 C 8.4423 2.46315 -3.86126 0
M  V30 67 N 9.9333 2.53779 -3.87492 0
M  V30 68 C 10.6683 3.045 -4.85868 0
M  V30 69 N 10.1643 3.55499 -5.94637 0
M  V30 70 N 11.9573 3.03247 -4.73284 0
M  V30 71 H 4.1083 0.167264 -2.1174 0
M  V30 72 H 6.3713 0.13682 -0.938075 0
M  V30 73 H 6.0773 1.08571 -3.34522 0
M  V30 74 H 5.9513 2.6896 -2.64462 0
M  V30 75 H 8.3383 2.41884 -1.69045 0
M  V30 76 H 8.4193 0.811532 -2.42586 0
M  V30 77 H 8.0633 1.86895 -4.72263 0
M  V30 78 H 7.9933 3.47561 -3.95612 0
M  V30 79 H 10.4843 2.17672 -3.08913 0
M  V30 80 H 10.7973 3.92562 -6.65669 0
M  V30 81 H 9.1423 3.5364 -5.98301 0
M  V30 82 H 12.3333 2.62696 -3.87438 0
M  V30 83 H 12.5063 3.42467 -5.50109 0
M  V30 84 N 5.9124 1.20967 1.01018 0
M  V30 85 C 7.1404 1.04956 1.78303 0
M  V30 86 C 7.5554 -0.400915 1.84494 0
M  V30 87 O 6.9124 -1.27826 1.30257 0
M  V30 88 C 6.9634 1.63403 3.22462 0
M  V30 89 O 6.6844 3.02775 3.16637 0
M  V30 90 C 8.1854 1.52432 4.16268 0
M  V30 91 H 5.4054 0.368858 0.560522 0
M  V30 92 H 7.9494 1.60193 1.27116 0
M  V30 93 H 6.1044 1.1227 3.70775 0
M  V30 94 H 6.5184 3.30626 4.07169 0
M  V30 95 H 7.9924 1.98078 5.15237 0
M  V30 96 H 8.4694 0.477875 4.36592 0
M  V30 97 H 9.0754 2.02787 3.73841 0
M  V30 98 N 7.3905 -1.2043 1.01659 0
M  V30 99 C 8.8015 -1.71517 0.737482 0
M  V30 100 C 9.1525 -1.81547 -0.743973 0
M  V30 101 O 8.2775 -1.47803 -1.58061 0
M  V30 102 C 8.8725 -3.11515 1.33206 0
M  V30 103 C 7.4315 -3.59912 1.10183 0
M  V30 104 C 6.5785 -2.37116 1.43776 0
M  V30 105 H 9.5295 -1.05444 1.18606 0
M  V30 106 H 9.5505 -3.73575 0.722636 0
M  V30 107 H 9.0625 -3.04182 2.41028 0
M  V30 108 H 7.1635 -3.72577 0.0412756 0
M  V30 109 H 7.2765 -4.44731 1.78188 0
M  V30 110 H 5.6405 -2.39857 0.856778 0
M  V30 111 H 6.4235 -2.32424 2.52654 0
M  V30 112 N 8.8686 -0.792821 -1.36206 0
M  V30 113 C 10.1156 -0.366786 -1.99151 0
M  V30 114 C 10.4436 1.06243 -1.62919 0
M  V30 115 O 9.6986 1.74927 -0.877442 0
M  V30 116 C 9.9976 -0.481501 -3.54142 0
M  V30 117 C 9.6636 -1.87202 -4.10203 0
M  V30 118 C 8.3256 -2.25248 -4.25226 0
M  V30 119 C 10.6776 -2.78237 -4.40719 0
M  V30 120 C 8.0056 -3.53723 -4.68078 0
M  V30 121 C 10.3576 -4.06144 -4.85005 0
M  V30 122 C 9.0216 -4.44207 -4.98234 0
M  V30 123 H 8.2916 -0.134217 -0.728743 0
M  V30 124 H 10.9386 -1.01094 -1.62641 0
M  V30 125 H 9.2436 0.246146 -3.91026 0
M  V30 126 H 10.9406 -0.132844 -4.0078 0
M  V30 127 H 7.5306 -1.56639 -3.98951 0
M  V30 128 H 11.7146 -2.50097 -4.28679 0
M  V30 129 H 6.9706 -3.8308 -4.76508 0
M  V30 130 H 11.1446 -4.76796 -5.07581 0
M  V30 131 H 8.7716 -5.43814 -5.31197 0
M  V30 132 N 10.3467 1.47872 -0.545128 0
M  V30 133 C 11.3097 2.28337 0.198717 0
M  V30 134 C 12.3097 1.36255 0.853888 0
M  V30 135 O 13.4997 1.59003 0.711606 0
M  V30 136 C 10.6317 3.15585 1.28915 0
M  V30 137 H 11.8247 2.95567 -0.507941 0
M  V30 138 H 9.3777 1.53362 -0.301616 0
M  V30 139 H 10.1127 2.53019 2.02859 0
M  V30 140 H 9.8977 3.83337 0.824309 0
M  V30 141 H 11.3877 3.76243 1.81194 0
M  V30 142 N 11.8248 0.280983 1.55075 0
M  V30 143 C 13.2408 -0.0729964 1.59433 0
M  V30 144 C 13.4408 -1.5411 1.29817 0
M  V30 145 O 12.4968 -2.29086 1.06187 0
M  V30 146 C 13.8098 0.306921 2.9913 0
M  V30 147 C 15.3578 0.254023 3.11968 0
M  V30 148 C 15.8328 0.608467 4.5394 0
M  V30 149 N 17.3238 0.560241 4.59799 0
M  V30 150 C 18.0588 0.80722 5.6769 0
M  V30 151 N 17.5548 1.11912 6.83701 0
M  V30 152 N 19.3478 0.735623 5.57266 0
M  V30 153 H 11.4988 1.238 1.7259 0
M  V30 154 H 13.7618 0.500547 0.805082 0
M  V30 155 H 13.4678 1.32816 3.25657 0
M  V30 156 H 13.3418 -0.349363 3.75579 0
M  V30 157 H 15.7288 -0.75794 2.852 0
M  V30 158 H 15.8098 0.944649 2.37718 0
M  V30 159 H 15.4538 1.61814 4.81434 0
M  V30 160 H 15.3838 -0.104013 5.26497 0
M  V30 161 H 17.8748 0.329288 3.76463 0
M  V30 162 H 18.1878 1.29409 7.61888 0
M  V30 163 H 16.5328 1.15695 6.85303 0
M  V30 164 H 19.7238 0.491752 4.6551 0
M  V30 165 H 19.8968 0.931482 6.4127 0
M  V30 166 N 13.3029 -1.57598 0.00835791 0
M  V30 167 C 14.7139 -1.7892 -0.53333 0
M  V30 168 C 15.0649 -0.916609 -1.73473 0
M  V30 169 O 14.1899 -0.121336 -2.1606 0
M  V30 170 C 14.7849 -3.24488 -0.974313 0
M  V30 171 C 13.3439 -3.46878 -1.46125 0
M  V30 172 C 12.4909 -2.74157 -0.416302 0
M  V30 173 H 15.4419 -1.56958 0.234495 0
M  V30 174 H 15.4629 -3.3306 -1.83988 0
M  V30 175 H 14.9749 -3.87972 -0.099718 0
M  V30 176 H 13.0759 -2.8862 -2.35646 0
M  V30 177 H 13.1889 -4.55572 -1.48295 0
M  V30 178 H 11.5529 -2.39022 -0.87981 0
M  V30 179 H 12.3359 -3.40345 0.44947 0
M  V30 180 N 14.781 0.264519 -1.55364 0
M  V30 181 C 16.029 0.993021 -1.76021 0
M  V30 182 C 16.35 1.86511 -0.569099 0
M  V30 183 O 15.62 1.91438 0.415735 0
M  V30 184 H 14.2 0.369639 -0.649135 0
M  V30 185 H 16.862 0.286707 -1.9278 0
M  V30 186 H 15.958 1.62502 -2.66457 0
M  V30 187 N 16.2591 1.48442 0.529413 0
M  V30 188 C 17.1891 1.65902 1.64313 0
M  V30 189 C 18.1701 0.507897 1.6234 0
M  V30 190 O 19.3551 0.740503 1.79528 0
M  V30 191 C 16.4851 1.69911 3.02898 0
M  V30 192 C 15.4391 2.8453 3.19729 0
M  V30 193 C 14.7651 2.73629 4.59381 0
M  V30 194 C 16.0651 4.25821 3.02447 0
M  V30 195 H 17.7591 2.5914 1.49955 0
M  V30 196 H 15.3051 1.24709 0.719982 0
M  V30 197 H 17.2581 1.80715 3.80684 0
M  V30 198 H 15.9821 0.732524 3.18279 0
M  V30 199 H 14.6411 2.73283 2.44361 0
M  V30 200 H 14.2891 1.74938 4.71599 0
M  V30 201 H 13.9891 3.50541 4.71588 0
M  V30 202 H 15.5131 2.86401 5.39265 0
M  V30 203 H 16.9271 4.37898 3.70024 0
M  V30 204 H 15.3241 5.03735 3.26146 0
M  V30 205 H 16.3941 4.42244 1.98867 0
M  V30 206 N 17.7372 -0.778329 1.37039 0
M  V30 207 C 18.6672 -1.90546 1.34962 0
M  V30 208 C 19.6482 -1.68681 0.219274 0
M  V30 209 O 20.8332 -1.89634 0.418624 0
M  V30 210 C 17.9632 -3.27734 1.14925 0
M  V30 211 C 16.9172 -3.64147 2.24902 0
M  V30 212 C 16.2432 -4.99806 1.89996 0
M  V30 213 C 17.5432 -3.71579 3.67051 0
M  V30 214 H 19.2372 -1.92541 2.29277 0
M  V30 215 H 16.7832 -0.924948 1.10366 0
M  V30 216 H 18.7362 -4.06215 1.12104 0
M  V30 217 H 17.4602 -3.26154 0.170631 0
M  V30 218 H 16.1192 -2.8797 2.26868 0
M  V30 219 H 15.7672 -4.94759 0.906796 0
M  V30 220 H 15.4672 -5.25139 2.63634 0
M  V30 221 H 16.9912 -5.80694 1.88749 0
M  V30 222 H 18.4052 -4.40227 3.67251 0
M  V30 223 H 16.8022 -4.08405 4.39688 0
M  V30 224 H 17.8722 -2.72404 4.01154 0
M  V30 225 N 19.2153 -1.21501 -1.00376 0
M  V30 226 C 20.1783 -0.976927 -2.07337 0
M  V30 227 C 21.1783 0.0525322 -1.60714 0
M  V30 228 O 22.3683 -0.184869 -1.73216 0
M  V30 229 C 19.5003 -0.473423 -3.37597 0
M  V30 230 H 20.6933 -1.92587 -2.29892 0
M  V30 231 H 18.2463 -1.03217 -1.17371 0
M  V30 232 H 18.9813 0.480379 -3.20722 0
M  V30 233 H 18.7663 -1.216 -3.72768 0
M  V30 234 H 20.2563 -0.32675 -4.1632 0
M  V30 235 N 20.6934 1.19889 -1.02296 0
M  V30 236 C 21.9184 1.9393 -0.735237 0
M  V30 237 C 22.3434 1.74639 0.698782 0
M  V30 238 O 21.7014 1.04481 1.48167 0
M  V30 239 C 21.7494 3.43916 -1.08417 0
M  V30 240 O 20.8534 4.11917 -0.199446 0
M  V30 241 H 20.1944 0.605645 -0.272196 0
M  V30 242 H 22.7244 1.52137 -1.36804 0
M  V30 243 H 22.7344 3.9456 -1.03856 0
M  V30 244 H 21.4094 3.5728 -2.12894 0
M  V30 245 H 19.9864 3.71666 -0.303136 0
M  V30 246 N 22.1715 0.800033 1.35784 0
M  V30 247 C 23.1345 0.211565 2.28221 0
M  V30 248 C 24.1345 -0.59728 1.49296 0
M  V30 249 O 25.3245 -0.416721 1.69142 0
M  V30 250 C 22.4565 -0.705846 3.33513 0
M  V30 251 H 23.6495 1.02677 2.81776 0
M  V30 252 H 21.2025 0.570211 1.45528 0
M  V30 253 H 21.9375 -1.54498 2.85133 0
M  V30 254 H 21.7225 -0.127655 3.91892 0
M  V30 255 H 23.2125 -1.11211 4.02519 0
M  V30 256 N 23.6496 -1.47581 0.552962 0
M  V30 257 C 24.6126 -2.28439 -0.186605 0
M  V30 258 C 25.6126 -1.36706 -0.84665 0
M  V30 259 O 26.8026 -1.59378 -0.703164 0
M  V30 260 C 23.9346 -3.16264 -1.2724 0
M  V30 261 H 25.1276 -2.95294 0.523609 0
M  V30 262 H 22.6806 -1.532 0.309745 0
M  V30 263 H 23.4156 -2.54091 -2.01514 0
M  V30 264 H 23.2006 -3.83769 -0.803968 0
M  V30 265 H 24.6906 -3.77198 -1.79196 0
M  V30 266 N 25.1277 -0.289203 -1.54924 0
M  V30 267 C 26.0577 0.58549 -2.2604 0
M  V30 268 C 27.0387 1.14753 -1.25562 0
M  V30 269 O 28.2237 1.17906 -1.54311 0
M  V30 270 C 25.3537 1.76305 -2.99222 0
M  V30 271 C 24.3077 1.33191 -4.06748 0
M  V30 272 C 23.6337 2.5937 -4.6758 0
M  V30 273 C 24.9337 0.471775 -5.20165 0
M  V30 274 H 26.6277 -0.00763532 -2.99399 0
M  V30 275 H 24.1737 -0.00511229 -1.43999 0
M  V30 276 H 26.1267 2.38097 -3.47689 0
M  V30 277 H 24.8507 2.38223 -2.23422 0
M  V30 278 H 23.5097 0.737121 -3.59113 0
M  V30 279 H 23.1577 3.19576 -3.88433 0
M  V30 280 H 22.8577 2.31228 -5.40192 0
M  V30 281 H 24.3817 3.21985 -5.18804 0
M  V30 282 H 25.7957 0.995056 -5.64599 0
M  V30 283 H 24.1927 0.284639 -5.99425 0
M  V30 284 H 25.2627 -0.506041 -4.82252 0
M  V30 285 N 26.6058 1.57591 -0.0167156 0
M  V30 286 C 27.5688 2.08393 0.954204 0
M  V30 287 C 28.5688 0.996531 1.26198 0
M  V30 288 O 29.7588 1.25858 1.20438 0
M  V30 289 C 26.8908 2.5394 2.27436 0
M  V30 290 H 28.0838 2.95455 0.514451 0
M  V30 291 H 25.6368 1.54582 0.231089 0
M  V30 292 H 26.3718 1.70171 2.76066 0
M  V30 293 H 26.1568 3.33371 2.06412 0
M  V30 294 H 27.6468 2.93512 2.97053 0
M  V30 295 N 28.0839 -0.256276 1.55502 0
M  V30 296 C 29.0139 -1.32102 1.92539 0
M  V30 297 C 29.9949 -1.50684 0.789194 0
M  V30 298 O 31.1799 -1.63449 1.04872 0
M  V30 299 C 28.3099 -2.67752 2.21192 0
M  V30 300 C 27.2639 -2.63878 3.36975 0
M  V30 301 C 26.5899 -4.03236 3.51147 0
M  V30 302 C 27.8899 -2.21682 4.72921 0
M  V30 303 H 29.5839 -1.01351 2.81724 0
M  V30 304 H 27.1299 -0.486105 1.35547 0
M  V30 305 H 29.0829 -3.42365 2.45691 0
M  V30 306 H 27.8069 -3.0012 1.28824 0
M  V30 307 H 26.4659 -1.91722 3.12471 0
M  V30 308 H 26.1139 -4.32854 2.56216 0
M  V30 309 H 25.8139 -4.01535 4.29003 0
M  V30 310 H 27.3379 -4.79563 3.77957 0
M  V30 311 H 28.7519 -2.86023 4.96854 0
M  V30 312 H 27.1489 -2.3111 5.53812 0
M  V30 313 H 28.2189 -1.16833 4.70615 0
M  V30 314 N 29.562 -1.4872 -0.521534 0
M  V30 315 C 30.808 -1.574 -1.27879 0
M  V30 316 C 31.141 -0.250817 -1.92573 0
M  V30 317 O 30.416 0.743934 -1.79711 0
M  V30 318 C 30.699 -2.71843 -2.36164 0
M  V30 319 C 30.552 -4.13893 -1.76105 0
M  V30 320 C 31.871 -2.82008 -3.37875 0
M  V30 321 H 28.99 -0.572941 -0.463581 0
M  V30 322 H 31.632 -1.80927 -0.580119 0
M  V30 323 H 29.782 -2.51914 -2.95756 0
M  V30 324 H 31.454 -4.45284 -1.20499 0
M  V30 325 H 29.697 -4.20498 -1.06601 0
M  V30 326 H 30.368 -4.89804 -2.5455 0
M  V30 327 H 32.844 -3.00086 -2.88249 0
M  V30 328 H 31.72 -3.63796 -4.11028 0
M  V30 329 H 31.981 -1.90511 -3.98946 0
M  V30 330 N 31.0401 0.771051 -1.3745 0
M  V30 331 C 31.9701 1.89827 -1.3597 0
M  V30 332 C 32.9511 1.68562 -0.228216 0
M  V30 333 O 34.1361 1.8941 -0.428675 0
M  V30 334 C 31.2661 3.2712 -1.16662 0
M  V30 335 C 30.2201 3.6295 -2.2683 0
M  V30 336 C 29.5461 4.98791 -1.92644 0
M  V30 337 C 30.8461 3.69627 -3.69017 0
M  V30 338 H 32.5401 1.91323 -2.30295 0
M  V30 339 H 30.0861 0.919082 -1.10855 0
M  V30 340 H 32.0391 4.05615 -1.14256 0
M  V30 341 H 30.7631 3.26059 -0.187926 0
M  V30 342 H 29.4221 2.86763 -2.28392 0
M  V30 343 H 29.0701 4.94271 -0.933021 0
M  V30 344 H 28.7701 5.23733 -2.66416 0
M  V30 345 H 30.2941 5.79685 -1.91826 0
M  V30 346 H 31.7081 4.38273 -3.69581 0
M  V30 347 H 30.1051 4.06067 -4.41848 0
M  V30 348 H 31.1751 2.70273 -4.02592 0
M  V30 349 N 32.5182 1.22032 0.997298 0
M  V30 350 C 33.7662 1.04016 1.73278 0
M  V30 351 C 34.0872 -0.426255 1.90284 0
M  V30 352 O 33.3572 -1.30694 1.45931 0
M  V30 353 H 31.9372 0.381897 0.642 0
M  V30 354 H 34.5992 1.5347 1.20137 0
M  V30 355 H 33.6952 1.51441 2.72896 0
M  V30 356 N 33.9963 -1.19345 1.0293 0
M  V30 357 C 35.4073 -1.70725 0.755633 0
M  V30 358 C 35.7583 -1.82326 -0.724676 0
M  V30 359 O 34.8833 -1.49471 -1.56484 0
M  V30 360 C 35.4783 -3.10084 1.36503 0
M  V30 361 C 34.0373 -3.58723 1.13994 0
M  V30 362 C 33.1843 -2.35577 1.46283 0
M  V30 363 H 36.1353 -1.0418 1.19718 0
M  V30 364 H 36.1563 -3.72787 0.762217 0
M  V30 365 H 35.6683 -3.01609 2.44241 0
M  V30 366 H 33.7693 -3.72512 0.0807901 0
M  V30 367 H 33.8823 -4.42816 1.82894 0
M  V30 368 H 32.2463 -2.38935 0.88217 0
M  V30 369 H 33.0293 -2.29731 2.55105 0
M  V30 370 N 35.4744 -0.807222 -1.35358 0
M  V30 371 C 36.4044 -0.232509 -2.3234 0
M  V30 372 C 37.3854 0.642386 -1.57504 0
M  V30 373 O 38.5704 0.572526 -1.85569 0
M  V30 374 C 35.7004 0.619238 -3.41735 0
M  V30 375 C 34.6544 -0.157215 -4.27711 0
M  V30 376 C 33.9804 0.816273 -5.28433 0
M  V30 377 C 35.2804 -1.35656 -5.04376 0
M  V30 378 H 36.9744 -1.04276 -2.80654 0
M  V30 379 H 34.5204 -0.50288 -1.34934 0
M  V30 380 H 36.4734 1.03137 -4.08584 0
M  V30 381 H 35.1974 1.46239 -2.92031 0
M  V30 382 H 33.8564 -0.550525 -3.62443 0
M  V30 383 H 33.5044 1.65494 -4.74996 0
M  V30 384 H 33.2044 0.301067 -5.86828 0
M  V30 385 H 34.7284 1.22659 -5.98153 0
M  V30 386 H 36.1424 -1.01927 -5.64166 0
M  V30 387 H 34.5394 -1.8063 -5.7227 0
M  V30 388 H 35.6094 -2.14288 -4.34981 0
M  V30 389 N 36.9525 1.47285 -0.560781 0
M  V30 390 C 37.9155 2.28535 0.174488 0
M  V30 391 C 38.9155 1.37153 0.839388 0
M  V30 392 O 40.1055 1.59748 0.694702 0
M  V30 393 C 37.2375 3.16934 1.25561 0
M  V30 394 H 38.4305 2.95012 -0.539262 0
M  V30 395 H 35.9835 1.53034 -0.317865 0
M  V30 396 H 36.7185 2.55157 2.00164 0
M  V30 397 H 36.5035 3.8419 0.783604 0
M  V30 398 H 37.9935 3.78143 1.77193 0
M  V30 399 N 38.4306 0.297415 1.54768 0
M  V30 400 C 39.3936 -0.567375 2.22066 0
M  V30 401 C 40.3936 -1.06409 1.20556 0
M  V30 402 O 41.5836 -0.960691 1.45315 0
M  V30 403 C 38.7156 -1.78517 2.90421 0
M  V30 404 H 39.9086 0.0205534 2.99893 0
M  V30 405 H 37.4616 0.0482163 1.56226 0
M  V30 406 H 38.1966 -2.41303 2.16664 0
M  V30 407 H 37.9816 -1.43669 3.64831 0
M  V30 408 H 39.4716 -2.39964 3.41771 0
M  V30 409 N 39.9087 -1.5758 0.0250728 0
M  V30 410 C 41.1337 -1.96337 -0.668317 0
M  V30 411 C 41.5587 -0.901314 -1.651 0
M  V30 412 O 40.9167 0.138187 -1.80773 0
M  V30 413 C 40.9647 -3.34191 -1.35457 0
M  V30 414 O 40.0687 -3.30269 -2.46974 0
M  V30 415 H 39.4097 -0.640281 -0.175887 0
M  V30 416 H 41.9397 -2.0442 0.0857224 0
M  V30 417 H 41.9497 -3.70331 -1.71228 0
M  V30 418 H 40.6247 -4.11036 -0.634218 0
M  V30 419 H 39.2017 -3.05841 -2.13344 0
M  V30 420 N 41.3868 0.248026 -1.55636 0
M  V30 421 C 42.3498 1.29044 -1.89421 0
M  V30 422 C 43.3498 1.41134 -0.770581 0
M  V30 423 O 44.5398 1.39854 -1.03858 0
M  V30 424 C 41.6718 2.66831 -2.12165 0
M  V30 425 H 42.8648 1.00305 -2.82629 0
M  V30 426 H 40.4178 0.487265 -1.48511 0
M  V30 427 H 41.1528 3.00711 -1.21422 0
M  V30 428 H 40.9378 2.59438 -2.93997 0
M  V30 429 H 42.4278 3.42103 -2.3949 0
M  V30 430 N 42.8649 1.48995 0.513639 0
M  V30 431 C 43.7969 1.60836 1.63293 0
M  V30 432 C 44.8099 0.491701 1.55197 0
M  V30 433 O 45.9989 0.763238 1.6136 0
M  V30 434 C 43.0989 1.53731 3.02027 0
M  V30 435 C 42.2719 2.80715 3.35437 0
M  V30 436 C 41.3309 2.66837 4.53525 0
M  V30 437 O 40.3569 3.40753 4.55934 0
M  V30 438 N 41.5589 1.77539 5.52684 0
M  V30 439 H 44.3239 2.57366 1.53566 0
M  V30 440 H 41.8849 1.45925 0.701259 0
M  V30 441 H 43.8769 1.42118 3.78926 0
M  V30 442 H 42.4469 0.651092 3.05744 0
M  V30 443 H 41.6669 3.06772 2.47557 0
M  V30 444 H 42.9549 3.64927 3.54551 0
M  V30 445 H 42.3529 1.16719 5.53528 0
M  V30 446 H 40.9099 1.71856 6.28736 0
M  V30 447 N 44.343 -0.763751 1.37857 0
M  V30 448 C 45.253 -1.90817 1.36478 0
M  V30 449 C 46.269 -1.71997 0.263248 0
M  V30 450 O 47.445 -1.95095 0.499979 0
M  V30 451 C 44.51 -3.2605 1.17864 0
M  V30 452 C 43.571 -3.57467 2.3773 0
M  V30 453 C 42.804 -4.86249 2.19995 0
M  V30 454 O 43.027 -5.57884 1.18836 0
M  V30 455 O 41.961 -5.16911 3.08361 0
M  V30 456 H 45.787 -1.94933 2.32884 0
M  V30 457 H 43.372 -0.907619 1.1867 0
M  V30 458 H 45.254 -4.06924 1.09504 0
M  V30 459 H 43.929 -3.22769 0.245372 0
M  V30 460 H 42.836 -2.76796 2.51664 0
M  V30 461 H 44.169 -3.655 3.29652 0
M  V30 462 N 45.8211 -1.22559 -0.990812 0
M  V30 463 C 46.7531 -0.955325 -2.08342 0
M  V30 464 C 47.7661 0.0668408 -1.62663 0
M  V30 465 O 48.9551 -0.167421 -1.77713 0
M  V30 466 C 46.0551 -0.415566 -3.36342 0
M  V30 467 C 45.2281 -1.49544 -4.11042 0
M  V30 468 C 44.2871 -0.962399 -5.17324 0
M  V30 469 O 43.3131 -1.64907 -5.44788 0
M  V30 470 N 44.5151 0.215134 -5.80101 0
M  V30 471 H 47.2801 -1.89596 -2.32106 0
M  V30 472 H 44.8411 -1.13276 -1.15673 0
M  V30 473 H 46.8331 -0.0442386 -4.04676 0
M  V30 474 H 45.4031 0.430232 -3.09625 0
M  V30 475 H 44.6231 -2.04 -3.37309 0
M  V30 476 H 45.9111 -2.22195 -4.57719 0
M  V30 477 H 45.3091 0.789779 -5.6016 0
M  V30 478 H 43.8661 0.527826 -6.49659 0
M  V30 479 N 47.2992 1.18797 -1.03562 0
M  V30 480 C 48.5452 1.8893 -0.737113 0
M  V30 481 C 48.8782 1.79837 0.732956 0
M  V30 482 O 48.1532 1.19525 1.5344 0
M  V30 483 C 48.4362 3.39607 -1.19745 0
M  V30 484 C 48.2892 3.57537 -2.72924 0
M  V30 485 C 49.6082 4.33069 -0.783526 0
M  V30 486 H 46.7272 0.686057 -0.269249 0
M  V30 487 H 49.3692 1.39797 -1.28673 0
M  V30 488 H 47.5192 3.81583 -0.729855 0
M  V30 489 H 49.1912 3.24688 -3.27682 0
M  V30 490 H 47.4342 3.00363 -3.12993 0
M  V30 491 H 48.1052 4.63238 -3.00191 0
M  V30 492 H 50.5812 3.98846 -1.18581 0
M  V30 493 H 49.4572 5.3707 -1.13343 0
M  V30 494 H 49.7182 4.40986 0.313681 0
M  V30 495 N 48.7773 0.814389 1.34928 0
M  V30 496 C 49.7403 0.235759 2.27984 0
M  V30 497 C 50.7403 -0.581412 1.49921 0
M  V30 498 O 51.9303 -0.398758 1.69575 0
M  V30 499 C 49.0623 -0.670433 3.34242 0
M  V30 500 H 50.2553 1.05659 2.80671 0
M  V30 501 H 47.8083 0.585614 1.44915 0
M  V30 502 H 48.5433 -1.51466 2.86755 0
M  V30 503 H 48.3283 -0.0860822 3.92005 0
M  V30 504 H 49.8183 -1.06935 4.03676 0
M  V30 505 N 50.2554 -1.46986 0.568584 0
M  V30 506 C 51.6664 -1.86188 0.138219 0
M  V30 507 C 52.0174 -1.47388 -1.29504 0
M  V30 508 O 51.1424 -0.88219 -1.97602 0
M  V30 509 C 51.7374 -3.3792 0.244065 0
M  V30 510 C 50.2964 -3.76171 -0.131335 0
M  V30 511 C 49.4434 -2.71027 0.586465 0
M  V30 512 H 52.3944 -1.38342 0.777645 0
M  V30 513 H 52.4154 -3.76729 -0.534351 0
M  V30 514 H 51.9274 -3.66128 1.28731 0
M  V30 515 H 50.0284 -3.5358 -1.17526 0
M  V30 516 H 50.1414 -4.78523 0.235146 0
M  V30 517 H 48.5054 -2.54684 0.0282722 0
M  V30 518 H 49.2884 -3.02077 1.63109 0
M  V30 519 N 51.7335 -0.305618 -1.54608 0
M  V30 520 C 53.1445 0.186098 -1.8577 0
M  V30 521 C 53.4955 1.53058 -1.22751 0
M  V30 522 O 52.6205 2.09888 -0.526893 0
M  V30 523 C 53.2155 0.344449 -3.37044 0
M  V30 524 C 51.7745 0.780384 -3.68221 0
M  V30 525 C 50.9215 -0.108554 -2.77087 0
M  V30 526 H 53.8725 -0.526485 -1.49712 0
M  V30 527 H 53.8935 1.17828 -3.61796 0
M  V30 528 H 53.4055 -0.634235 -3.82883 0
M  V30 529 H 51.5065 1.76945 -3.27904 0
M  V30 530 H 51.6195 0.596572 -4.75371 0
M  V30 531 H 49.9835 0.412931 -2.5133 0
M  V30 532 H 50.7665 -1.08368 -3.25747 0
M  V30 533 N 53.2116 1.57565 -0.0334293 0
M  V30 534 C 54.1586 2.10478 0.946981 0
M  V30 535 C 55.1286 1.00787 1.32027 0
M  V30 536 O 56.3136 1.28232 1.41284 0
M  V30 537 C 53.4536 2.63994 2.22263 0
M  V30 538 C 52.5666 3.87709 1.90541 0
M  V30 539 C 51.7016 4.29604 3.12433 0
M  V30 540 C 50.7406 5.46065 2.76549 0
M  V30 541 N 49.8776 5.83096 3.9108 0
M  V30 542 H 54.7176 2.93963 0.488846 0
M  V30 543 H 52.2546 1.45296 0.22969 0
M  V30 544 H 54.2126 2.93114 2.96884 0
M  V30 545 H 52.8426 1.83333 2.65685 0
M  V30 546 H 51.8946 3.65291 1.06144 0
M  V30 547 H 53.2066 4.72403 1.60116 0
M  V30 548 H 52.3606 4.60182 3.9537 0
M  V30 549 H 51.0996 3.43685 3.46023 0
M  V30 550 H 50.1046 5.15176 1.92026 0
M  V30 551 H 51.3296 6.33685 2.44171 0
M  V30 552 H 49.2756 5.00132 4.24504 0
M  V30 553 H 49.1926 6.6244 3.64293 0
M  V30 554 H 50.4606 6.18282 4.74708 0
M  V30 555 N 54.6897 -0.239769 1.55765 0
M  V30 556 C 55.9667 -0.990056 1.68693 0
M  V30 557 C 56.3467 -2.03107 0.5754 0
M  V30 558 O 55.6947 -2.24604 -0.42017 0
M  V30 559 C 55.9047 -1.61696 3.09282 0
M  V30 560 C 57.2527 -2.11613 3.6811 0
M  V30 561 O 58.2767 -1.71624 3.12127 0
M  V30 562 O 57.1357 -2.85057 4.66267 0
M  V30 563 H 54.2297 -0.461299 0.686391 0
M  V30 564 H 56.7757 -0.232991 1.68093 0
M  V30 565 H 55.5477 -0.864357 3.81634 0
M  V30 566 H 55.1707 -2.44005 3.13923 0
M  V30 567 N 56.1678 -1.49265 -0.50573 0
M  V30 568 C 57.5788 -1.51769 -1.08734 0
M  V30 569 C 57.9298 -0.301192 -1.93874 0
M  V30 570 O 57.0548 0.589456 -2.08217 0
M  V30 571 C 57.6498 -2.75017 -1.97867 0
M  V30 572 C 56.2088 -2.80314 -2.51199 0
M  V30 573 C 55.3558 -2.4562 -1.28709 0
M  V30 574 H 58.3068 -1.56031 -0.289855 0
M  V30 575 H 58.3278 -2.5491 -2.82491 0
M  V30 576 H 57.8398 -3.63539 -1.35873 0
M  V30 577 H 55.9408 -1.96061 -3.16845 0
M  V30 578 H 56.0538 -3.82366 -2.88675 0
M  V30 579 H 54.4178 -1.97297 -1.61078 0
M  V30 580 H 55.2008 -3.36411 -0.6843 0
M  V30 581 N 57.6459 0.756429 -1.3826 0
M  V30 582 C 58.6089 1.85176 -1.35065 0
M  V30 583 C 59.6089 1.58818 -0.251703 0
M  V30 584 O 60.7989 1.66615 -0.508433 0
M  V30 585 C 57.9309 3.22596 -1.10201 0
M  V30 586 H 59.1239 1.89417 -2.3251 0
M  V30 587 H 56.6769 0.95783 -1.23512 0
M  V30 588 H 57.4119 3.24025 -0.133504 0
M  V30 589 H 57.1969 3.43122 -1.89762 0
M  V30 590 H 58.6869 4.02673 -1.10654 0
M  V30 591 N 59.124 1.23083 0.984299 0
M  V30 592 C 60.087 1.00979 2.05757 0
M  V30 593 C 61.087 -0.0269573 1.60777 0
M  V30 594 O 62.277 0.212403 1.729 0
M  V30 595 C 59.409 0.527072 3.36801 0
M  V30 596 H 60.602 1.9622 2.26799 0
M  V30 597 H 58.155 1.05072 1.15714 0
M  V30 598 H 58.89 -0.429294 3.21446 0
M  V30 599 H 58.675 1.27515 3.70786 0
M  V30 600 H 60.165 0.392942 4.15747 0
M  V30 601 N 60.6021 -1.18246 1.0419 0
M  V30 602 C 61.5651 -2.20128 0.638452 0
M  V30 603 C 62.5651 -1.57885 -0.304805 0
M  V30 604 O 63.7551 -1.73967 -0.0900369 0
M  V30 605 C 60.8871 -3.4084 -0.0637751 0
M  V30 606 H 62.0801 -2.57336 1.54007 0
M  V30 607 H 59.6331 -1.32152 0.834598 0
M  V30 608 H 60.3681 -3.09166 -0.979136 0
M  V30 609 H 60.1531 -3.8726 0.614198 0
M  V30 610 H 61.6431 -4.16274 -0.332512 0
M  V30 611 N 62.0802 -0.821533 -1.34494 0
M  V30 612 C 63.0102 -0.257138 -2.3208 0
M  V30 613 C 63.9912 0.625645 -1.58176 0
M  V30 614 O 65.1762 0.552811 -1.86166 0
M  V30 615 C 62.3062 0.582958 -3.42372 0
M  V30 616 C 61.2602 -0.202571 -4.2752 0
M  V30 617 C 60.5862 0.760179 -5.29269 0
M  V30 618 C 61.8862 -1.40998 -5.02908 0
M  V30 619 H 63.5802 -1.07247 -2.79532 0
M  V30 620 H 61.1262 -0.517163 -1.34393 0
M  V30 621 H 63.0792 0.987972 -4.09655 0
M  V30 622 H 61.8032 1.43133 -2.93565 0
M  V30 623 H 60.4622 -0.588936 -3.61838 0
M  V30 624 H 60.1102 1.60447 -4.76724 0
M  V30 625 H 59.8102 0.238809 -5.87115 0
M  V30 626 H 61.3342 1.16308 -5.9942 0
M  V30 627 H 62.7482 -1.07905 -5.63054 0
M  V30 628 H 61.1452 -1.86689 -5.70322 0
M  V30 629 H 62.2152 -2.1889 -4.32684 0
M  V30 630 N 63.5583 1.46682 -0.576371 0
M  V30 631 C 64.4683 2.34032 0.163141 0
M  V30 632 C 65.4843 1.49367 0.892501 0
M  V30 633 O 66.6603 1.82252 0.857106 0
M  V30 634 C 63.7253 3.26435 1.16795 0
M  V30 635 C 62.7863 4.26998 0.443944 0
M  V30 636 C 62.0193 5.14986 1.40088 0
M  V30 637 O 62.2423 5.05785 2.637 0
M  V30 638 O 61.1763 5.94906 0.914917 0
M  V30 639 H 65.0023 2.98607 -0.55388 0
M  V30 640 H 62.5873 1.45554 -0.336821 0
M  V30 641 H 64.4693 3.83459 1.74748 0
M  V30 642 H 63.1443 2.64465 1.86655 0
M  V30 643 H 62.0513 3.7368 -0.177271 0
M  V30 644 H 63.3843 4.91736 -0.213566 0
M  V30 645 N 65.0364 0.313813 1.54444 0
M  V30 646 C 66.3134 -0.345447 1.92525 0
M  V30 647 C 66.6934 -1.70667 1.24242 0
M  V30 648 O 66.0414 -2.25273 0.382654 0
M  V30 649 C 66.2514 -0.44737 3.46121 0
M  V30 650 C 67.5994 -0.712238 4.18584 0
M  V30 651 O 68.6234 -0.530678 3.52225 0
M  V30 652 O 67.4824 -1.06183 5.36085 0
M  V30 653 H 64.5764 -0.195407 0.803583 0
M  V30 654 H 67.1224 0.362813 1.65776 0
M  V30 655 H 65.8944 0.509043 3.87975 0
M  V30 656 H 65.5174 -1.20359 3.78945 0
M  V30 657 N 66.5145 -1.57545 0.0417849 0
M  V30 658 C 67.4645 -2.07483 -0.945247 0
M  V30 659 C 68.4485 -0.977983 -1.27767 0
M  V30 660 O 69.6405 -1.24142 -1.26166 0
M  V30 661 C 66.7695 -2.61576 -2.22335 0
M  V30 662 C 65.8555 -3.78213 -1.91874 0
M  V30 663 N 66.2465 -4.88344 -1.31733 0
M  V30 664 C 64.5445 -3.8694 -2.21796 0
M  V30 665 C 65.2455 -5.69462 -1.1869 0
M  V30 666 N 64.2215 -5.16771 -1.68666 0
M  V30 667 H 68.0235 -2.90029 -0.475441 0
M  V30 668 H 65.5375 -1.61581 -0.162911 0
M  V30 669 H 67.5345 -2.95651 -2.93932 0
M  V30 670 H 66.1945 -1.80465 -2.69931 0
M  V30 671 H 67.2055 -5.08335 -0.990729 0
M  V30 672 H 63.8825 -3.16757 -2.71977 0
M  V30 673 H 65.2725 -6.68023 -0.720793 0
M  V30 674 N 67.9926 0.231505 -1.5589 0
M  V30 675 C 68.9396 1.28682 -1.91598 0
M  V30 676 C 69.9096 1.47071 -0.771974 0
M  V30 677 O 71.0946 1.60802 -1.027 0
M  V30 678 C 68.2346 2.6342 -2.22944 0
M  V30 679 C 67.3476 2.52912 -3.50228 0
M  V30 680 C 66.4826 3.80106 -3.7107 0
M  V30 681 C 65.5216 3.64279 -4.91902 0
M  V30 682 N 64.6586 4.834 -5.09184 0
M  V30 683 H 69.4986 0.975305 -2.81588 0
M  V30 684 H 67.0356 0.470299 -1.39379 0
M  V30 685 H 68.9936 3.41869 -2.39126 0
M  V30 686 H 67.6236 2.92687 -1.36139 0
M  V30 687 H 66.6756 1.6595 -3.42294 0
M  V30 688 H 67.9876 2.37133 -4.38827 0
M  V30 689 H 67.1416 4.66999 -3.87295 0
M  V30 690 H 65.8806 3.98799 -2.80733 0
M  V30 691 H 64.8856 2.7577 -4.75637 0
M  V30 692 H 66.1106 3.47067 -5.83714 0
M  V30 693 H 64.0566 5.02425 -4.21788 0
M  V30 694 H 63.9736 4.70311 -5.91898 0
M  V30 695 H 65.2416 5.71747 -5.29835 0
M  V30 696 N 69.4707 1.49531 0.497807 0
M  V30 697 C 70.6987 1.62893 1.27567 0
M  V30 698 C 71.1137 0.301585 1.86376 0
M  V30 699 O 70.4707 -0.713335 1.67982 0
M  V30 700 C 70.5217 2.70013 2.40364 0
M  V30 701 O 70.2427 3.976 1.83972 0
M  V30 702 C 71.7437 2.94109 3.31685 0
M  V30 703 H 68.9637 0.548298 0.386794 0
M  V30 704 H 71.5077 1.95584 0.597245 0
M  V30 705 H 69.6627 2.40092 3.04031 0
M  V30 706 H 70.0767 4.56631 2.58047 0
M  V30 707 H 71.5507 3.72788 4.07104 0
M  V30 708 H 72.0277 2.04147 3.88871 0
M  V30 709 H 72.6337 3.2546 2.73781 0
M  V30 710 N 70.9488 -0.749086 1.3866 0
M  V30 711 C 72.3648 -1.05276 1.19955 0
M  V30 712 C 72.5648 -2.01435 0.05134 0
M  V30 713 O 71.6208 -2.45232 -0.60147 0
M  V30 714 C 72.9338 -1.62853 2.52783 0
M  V30 715 C 74.4818 -1.75002 2.59506 0
M  V30 716 C 74.9568 -2.35991 3.92521 0
M  V30 717 N 76.4478 -2.43416 3.94085 0
M  V30 718 C 77.1828 -2.91511 4.9377 0
M  V30 719 N 76.6788 -3.39608 6.03853 0
M  V30 720 N 78.4718 -2.90592 4.81157 0
M  V30 721 H 70.6228 -0.111066 2.12109 0
M  V30 722 H 72.8858 -0.111901 0.941373 0
M  V30 723 H 72.5918 -0.99664 3.37283 0
M  V30 724 H 72.4658 -2.61854 2.715 0
M  V30 725 H 74.8528 -2.37317 1.75398 0
M  V30 726 H 74.9338 -0.74693 2.44652 0
M  V30 727 H 74.5778 -1.74308 4.77053 0
M  V30 728 H 74.5078 -3.3695 4.04688 0
M  V30 729 H 76.9988 -2.09405 3.14576 0
M  V30 730 H 77.3118 -3.74775 6.75843 0
M  V30 731 H 75.6568 -3.37653 6.07466 0
M  V30 732 H 78.8478 -2.52332 3.94267 0
M  V30 733 H 79.0208 -3.27762 5.58996 0
M  V30 734 N 72.4269 -1.23603 -0.977757 0
M  V30 735 C 73.6549 -1.09646 -1.75458 0
M  V30 736 C 74.0699 0.351859 -1.85492 0
M  V30 737 O 73.4269 1.24327 -1.336 0
M  V30 738 C 73.4779 -1.71895 -3.18016 0
M  V30 739 O 73.1989 -3.11063 -3.08498 0
M  V30 740 C 74.6999 -1.63415 -4.12081 0
M  V30 741 H 71.9199 -0.38359 -0.550545 0
M  V30 742 H 74.4639 -1.63507 -1.22824 0
M  V30 743 H 72.6189 -1.22061 -3.67668 0
M  V30 744 H 73.0329 -3.41305 -3.9826 0
M  V30 745 H 74.5069 -2.11669 -5.09804 0
M  V30 746 H 74.9839 -0.593462 -4.35172 0
M  V30 747 H 75.5899 -2.12628 -3.68334 0
M  V30 748 N 73.905 1.17692 -1.04816 0
M  V30 749 C 75.182 1.83768 -0.669963 0
M  V30 750 C 75.562 1.93232 0.849986 0
M  V30 751 O 74.91 1.46397 1.75443 0
M  V30 752 C 75.12 3.21641 -1.35455 0
M  V30 753 C 76.468 3.97592 -1.49017 0
M  V30 754 O 77.492 3.31107 -1.31326 0
M  V30 755 O 76.351 5.16729 -1.77914 0
M  V30 756 H 73.445 0.792799 -0.235368 0
M  V30 757 H 75.991 1.25021 -1.14751 0
M  V30 758 H 74.763 3.097 -2.39168 0
M  V30 759 H 74.386 3.88052 -0.866107 0
M  V30 760 N 75.3831 0.828654 1.34056 0
M  V30 761 C 76.3311 0.242973 2.31327 0
M  V30 762 C 77.3251 -0.61944 1.57668 0
M  V30 763 O 78.5311 -0.51014 1.7262 0
M  V30 764 H 74.9061 0.059834 0.749616 0
M  V30 765 H 76.8771 1.07809 2.78244 0
M  V30 766 C 75.6261 -0.575733 3.429 0
M  V30 767 H 74.9491 0.0785582 3.99723 0
M  V30 768 H 76.3891 -0.951547 4.13185 0
M  V30 769 C 74.8481 -1.75044 2.87856 0
M  V30 770 O 75.3781 -2.84882 2.83205 0
M  V30 771 N 73.5841 -1.56903 2.44602 0
M  V30 772 H 73.1311 -0.675547 2.48584 0
M  V30 773 H 73.0891 -2.35652 2.08124 0
M  V30 774 N 76.8612 -1.46375 0.584142 0
M  V30 775 C 78.2772 -1.57694 0.245929 0
M  V30 776 C 78.4772 -1.57903 -1.25175 0
M  V30 777 O 77.5332 -1.49676 -2.03355 0
M  V30 778 C 78.8462 -2.87028 0.896402 0
M  V30 779 C 80.3942 -3.00662 0.870127 0
M  V30 780 C 80.8692 -4.32734 1.50017 0
M  V30 781 N 82.3602 -4.39436 1.46458 0
M  V30 782 C 83.0952 -5.40248 1.92144 0
M  V30 783 N 82.5912 -6.47726 2.4581 0
M  V30 784 N 84.3842 -5.31459 1.83052 0
M  V30 785 H 76.5352 -1.44483 1.55687 0
M  V30 786 H 78.7982 -0.689291 0.650831 0
M  V30 787 H 78.5042 -2.9269 1.95002 0
M  V30 788 H 78.3782 -3.75014 0.405486 0
M  V30 789 H 80.7652 -2.94581 -0.174871 0
M  V30 790 H 80.8462 -2.14148 1.39908 0
M  V30 791 H 80.4902 -4.39573 2.54437 0
M  V30 792 H 80.4202 -5.18025 0.946432 0
M  V30 793 H 82.9112 -3.62367 1.07231 0
M  V30 794 H 83.2242 -7.20863 2.78525 0
M  V30 795 H 81.5692 -6.48542 2.49836 0
M  V30 796 H 84.7602 -4.46396 1.40883 0
M  V30 797 H 84.9332 -6.09881 2.18973 0
M  V30 798 N 78.3393 -0.321999 -1.54275 0
M  V30 799 C 79.5693 0.282642 -2.04658 0
M  V30 800 C 79.9773 1.46453 -1.19784 0
M  V30 801 O 79.3203 1.82367 -0.220932 0
M  V30 802 C 79.3823 0.781857 -3.50895 0
M  V30 803 C 79.0463 -0.277517 -4.56157 0
M  V30 804 C 80.0433 -1.11307 -5.07845 0
M  V30 805 C 77.7283 -0.425256 -5.00497 0
M  V30 806 C 79.7223 -2.08211 -6.02434 0
M  V30 807 C 77.4093 -1.39771 -5.94901 0
M  V30 808 C 78.4073 -2.2246 -6.45756 0
M  V30 809 O 78.0953 -3.18054 -7.38307 0
M  V30 810 H 77.8273 0.0622636 -0.673126 0
M  V30 811 H 80.3813 -0.465792 -2.00049 0
M  V30 812 H 78.6113 1.58118 -3.52896 0
M  V30 813 H 80.3003 1.30467 -3.84361 0
M  V30 814 H 81.0663 -1.00991 -4.74369 0
M  V30 815 H 76.9453 0.20847 -4.60528 0
M  V30 816 H 80.4893 -2.72791 -6.42052 0
M  V30 817 H 76.3863 -1.50152 -6.27794 0
M  V30 818 H 77.1543 -3.13275 -7.56175 0
M  V30 819 N 79.8174 1.5752 -0.0501392 0
M  V30 820 C 80.7274 2.14952 0.939827 0
M  V30 821 C 81.7434 1.10706 1.34239 0
M  V30 822 O 82.9194 1.42869 1.41952 0
M  V30 823 C 79.9844 2.68232 2.19665 0
M  V30 824 C 79.0454 3.87272 1.85253 0
M  V30 825 C 78.2784 4.38002 3.04943 0
M  V30 826 O 78.5014 3.87811 4.18281 0
M  V30 827 O 77.4354 5.29602 2.86017 0
M  V30 828 H 81.2614 2.9986 0.481392 0
M  V30 829 H 78.8464 1.4841 0.171699 0
M  V30 830 H 80.7284 3.02475 2.93406 0
M  V30 831 H 79.4034 1.86395 2.64648 0
M  V30 832 H 78.3104 3.5792 1.0883 0
M  V30 833 H 79.6434 4.70336 1.4507 0
M  V30 834 N 81.2955 -0.223234 1.56011 0
M  V30 835 C 82.7065 -0.790368 1.69145 0
M  V30 836 C 83.0575 -1.85055 0.651845 0
M  V30 837 O 82.1825 -2.15498 -0.197359 0
M  V30 838 C 82.7775 -1.4404 3.06656 0
M  V30 839 C 81.3365 -1.95494 3.2165 0
M  V30 840 C 80.4835 -0.814506 2.65068 0
M  V30 841 H 83.4345 0.00139011 1.587 0
M  V30 842 H 83.4555 -2.30916 3.0242 0
M  V30 843 H 82.9675 -0.668543 3.82298 0
M  V30 844 H 81.0685 -2.75487 2.50874 0
M  V30 845 H 81.1815 -2.13607 4.28846 0
M  V30 846 H 79.5455 -1.22137 2.23505 0
M  V30 847 H 80.3285 -0.0553515 3.43255 0
M  V30 848 N 82.7736 -1.49793 -0.48987 0
M  V30 849 C 83.9986 -1.63836 -1.27172 0
M  V30 850 C 84.4236 -0.31402 -1.8546 0
M  V30 851 O 83.7816 0.719803 -1.66399 0
M  V30 852 C 83.8296 -2.71797 -2.36978 0
M  V30 853 O 82.9336 -2.31744 -3.41128 0
M  V30 854 H 82.2746 -0.547997 -0.37496 0
M  V30 855 H 84.8046 -1.96053 -0.585191 0
M  V30 856 H 84.8146 -2.94305 -2.82575 0
M  V30 857 H 83.4896 -3.67923 -1.93921 0
M  V30 858 H 82.0666 -2.1961 -3.01373 0
M  V30 859 N 84.2517 0.741722 -1.39055 0
M  V30 860 C 85.1817 1.869 -1.39966 0
M  V30 861 C 86.1627 1.6804 -0.26392 0
M  V30 862 O 87.3477 1.88458 -0.468755 0
M  V30 863 C 84.4777 3.24572 -1.23574 0
M  V30 864 C 83.4317 3.58056 -2.34477 0
M  V30 865 C 82.7577 4.94593 -2.0318 0
M  V30 866 C 84.0577 3.61716 -3.76774 0
M  V30 867 H 85.7517 1.86395 -2.34302 0
M  V30 868 H 83.2977 0.895361 -1.1278 0
M  V30 869 H 85.2507 4.031 -1.22834 0
M  V30 870 H 83.9747 3.25587 -0.257045 0
M  V30 871 H 82.6337 2.81854 -2.34423 0
M  V30 872 H 82.2817 4.92181 -1.03765 0
M  V30 873 H 81.9817 5.17964 -2.77465 0
M  V30 874 H 83.5057 5.75486 -2.04079 0
M  V30 875 H 84.9197 4.30335 -3.78794 0
M  V30 876 H 83.3167 3.96603 -4.50362 0
M  V30 877 H 84.3867 2.61672 -4.08235 0
M  V30 878 N 85.7298 1.2412 0.971189 0
M  V30 879 C 87.0068 0.986867 1.6888 0
M  V30 880 C 87.3868 -0.491857 2.0529 0
M  V30 881 O 86.7348 -1.46531 1.75331 0
M  V30 882 C 86.9448 1.9063 2.92338 0
M  V30 883 C 88.2928 2.17515 3.64654 0
M  V30 884 O 89.3168 1.88254 3.02388 0
M  V30 885 O 88.1758 2.6719 4.7673 0
M  V30 886 H 85.2698 0.372944 0.738134 0
M  V30 887 H 87.8158 1.35203 1.02559 0
M  V30 888 H 86.5878 2.90552 2.62097 0
M  V30 889 H 86.2108 1.54408 3.66393 0
M  V30 890 N 87.2079 -1.17134 1.05439 0
M  V30 891 C 88.1559 -2.23289 0.651511 0
M  V30 892 C 89.1499 -1.66186 -0.328411 0
M  V30 893 O 90.3559 -1.78949 -0.194206 0
M  V30 894 H 86.7309 -0.726938 0.192523 0
M  V30 895 H 88.7019 -2.54565 1.55689 0
M  V30 896 C 87.4509 -3.47671 0.0448436 0
M  V30 897 H 86.7739 -3.91918 0.78996 0
M  V30 898 H 88.2139 -4.2353 -0.19964 0
M  V30 899 C 86.6729 -3.14453 -1.20918 0
M  V30 900 O 87.2029 -3.29459 -2.29825 0
M  V30 901 N 85.4089 -2.68657 -1.10779 0
M  V30 902 H 84.9559 -2.56646 -0.221526 0
M  V30 903 H 84.9139 -2.46804 -1.9477 0
M  V30 904 N 88.686 -0.835752 -1.33615 0
M  V30 905 C 89.616 -0.281739 -2.31794 0
M  V30 906 C 90.597 0.608833 -1.58831 0
M  V30 907 O 91.782 0.533035 -1.86741 0
M  V30 908 C 88.912 0.546612 -3.42971 0
M  V30 909 C 87.866 -0.247904 -4.27281 0
M  V30 910 C 87.192 0.704001 -5.30045 0
M  V30 911 C 88.492 -1.46324 -5.01385 0
M  V30 912 H 90.186 -1.10206 -2.78379 0
M  V30 913 H 87.732 -0.531388 -1.33837 0
M  V30 914 H 89.685 0.944467 -4.1068 0
M  V30 915 H 88.409 1.40011 -2.95067 0
M  V30 916 H 87.068 -0.627281 -3.61194 0
M  V30 917 H 86.716 1.55381 -4.78399 0
M  V30 918 H 86.416 0.176524 -5.87335 0
M  V30 919 H 87.94 1.09944 -6.0062 0
M  V30 920 H 89.354 -1.13871 -5.61877 0
M  V30 921 H 87.751 -1.92728 -5.6831 0
M  V30 922 H 88.821 -2.23467 -4.30338 0
M  V30 923 N 90.1641 1.46063 -0.591896 0
M  V30 924 C 91.1271 2.28854 0.125973 0
M  V30 925 C 92.1271 1.38903 0.810107 0
M  V30 926 O 93.3171 1.61186 0.66066 0
M  V30 927 C 90.4491 3.19526 1.1881 0
M  V30 928 H 91.6421 2.93802 -0.601717 0
M  V30 929 H 89.1951 1.52325 -0.350254 0
M  V30 930 H 89.9301 2.59345 1.94707 0
M  V30 931 H 89.7151 3.85766 0.701936 0
M  V30 932 H 91.2051 3.81817 1.69132 0
M  V30 933 N 91.6422 0.330177 1.54103 0
M  V30 934 C 92.5742 -0.566902 2.22079 0
M  V30 935 C 93.5872 -1.07462 1.22294 0
M  V30 936 O 94.7762 -0.987065 1.48726 0
M  V30 937 C 91.8762 -1.79138 2.87685 0
M  V30 938 C 91.0492 -1.42123 4.13666 0
M  V30 939 C 90.1082 -2.50394 4.62806 0
M  V30 940 O 89.1342 -2.14261 5.27334 0
M  V30 941 N 90.3362 -3.81433 4.37595 0
M  V30 942 H 93.1012 0.0151844 2.99696 0
M  V30 943 H 90.6622 0.153681 1.61169 0
M  V30 944 H 92.6542 -2.50975 3.1748 0
M  V30 945 H 91.2242 -2.28115 2.13734 0
M  V30 946 H 90.4442 -0.534201 3.90564 0
M  V30 947 H 91.7322 -1.14971 4.9564 0
M  V30 948 H 91.1302 -4.13584 3.8596 0
M  V30 949 H 89.6872 -4.4948 4.72029 0
M  V30 950 N 93.1203 -1.57491 0.0584922 0
M  V30 951 C 94.0523 -2.08916 -0.942694 0
M  V30 952 C 95.0653 -1.0185 -1.27006 0
M  V30 953 O 96.2543 -1.29398 -1.22957 0
M  V30 954 C 93.3543 -2.52341 -2.26224 0
M  V30 955 C 92.5273 -3.82827 -2.1157 0
M  V30 956 C 91.5863 -4.12487 -3.26712 0
M  V30 957 O 90.6123 -4.82295 -3.02292 0
M  V30 958 N 91.8143 -3.64978 -4.5141 0
M  V30 959 H 94.5793 -2.95437 -0.503722 0
M  V30 960 H 92.1403 -1.61397 -0.12757 0
M  V30 961 H 94.1323 -2.69254 -3.02133 0
M  V30 962 H 92.7023 -1.7103 -2.61663 0
M  V30 963 H 91.9223 -3.75425 -1.20208 0
M  V30 964 H 93.2103 -4.68263 -1.99015 0
M  V30 965 H 92.6083 -3.08558 -4.7414 0
M  V30 966 H 91.1653 -3.87115 -5.2439 0
M  V30 967 N 94.5984 0.214957 -1.56127 0
M  V30 968 C 95.8754 0.963093 -1.70247 0
M  V30 969 C 96.2554 2.02166 -0.60764 0
M  V30 970 O 95.6034 2.25244 0.384385 0
M  V30 971 C 95.8134 1.56756 -3.11815 0
M  V30 972 C 97.1614 2.0573 -3.7143 0
M  V30 973 O 98.1854 1.66637 -3.14818 0
M  V30 974 O 97.0444 2.77603 -4.70743 0
M  V30 975 H 94.1384 0.450321 -0.693643 0
M  V30 976 H 96.6844 0.206219 -1.68442 0
M  V30 977 H 95.4564 0.803533 -3.82961 0
M  V30 978 H 95.0794 2.3898 -3.17765 0
M  V30 979 N 96.0765 1.50051 0.48192 0
M  V30 980 C 97.3225 1.60736 1.2366 0
M  V30 981 C 97.6555 0.301786 1.91841 0
M  V30 982 O 96.9305 -0.696025 1.8162 0
M  V30 983 C 97.2135 2.78009 2.28874 0
M  V30 984 C 97.0665 4.18416 1.65069 0
M  V30 985 C 98.3855 2.90867 3.30279 0
M  V30 986 H 95.5045 0.585031 0.448228 0
M  V30 987 H 98.1465 1.82402 0.531946 0
M  V30 988 H 96.2965 2.59667 2.88973 0
M  V30 989 H 97.9685 4.48322 1.0865 0
M  V30 990 H 96.2115 4.23177 0.954148 0
M  V30 991 H 96.8825 4.96381 2.41474 0
M  V30 992 H 99.3585 3.07623 2.80191 0
M  V30 993 H 98.2345 3.74566 4.01238 0
M  V30 994 H 98.4955 2.01021 3.93755 0
M  V30 995 N 97.5546 -0.734337 1.39446 0
M  V30 996 C 98.5176 -1.83004 1.37994 0
M  V30 997 C 99.5176 -1.58397 0.276938 0
M  V30 998 O 100.708 -1.65785 0.534875 0
M  V30 999 C 97.8396 -3.20802 1.1532 0
M  V30 1000 H 99.0326 -1.85694 2.35494 0
M  V30 1001 H 96.5856 -0.938059 1.25021 0
M  V30 1002 H 97.3206 -3.23772 0.185036 0
M  V30 1003 H 97.1056 -3.4006 1.95197 0
M  V30 1004 H 98.5956 -4.00862 1.17046 0
M  V30 1005 N 99.0327 -1.24633 -0.964593 0
M  V30 1006 C 99.9957 -1.0424 -2.04124 0
M  V30 1007 C 100.996 0.00137563 -1.608 0
M  V30 1008 O 102.186 -0.239883 -1.7254 0
M  V30 1009 C 99.3177 -0.580588 -3.3592 0
M  V30 1010 H 100.511 -1.99803 -2.23649 0
M  V30 1011 H 98.0637 -1.06899 -1.14027 0
M  V30 1012 H 98.7987 0.3781 -3.22088 0
M  V30 1013 H 98.5837 -1.33398 -3.6871 0
M  V30 1014 H 100.074 -0.459034 -4.15069 0
M  V30 1015 N 100.511 1.16574 -1.06058 0
M  V30 1016 C 101.922 1.68662 -0.800632 0
M  V30 1017 C 102.273 1.84184 0.67608 0
M  V30 1018 O 101.398 1.53568 1.52466 0
M  V30 1019 C 101.993 3.06356 -1.44676 0
M  V30 1020 C 100.552 3.55575 -1.23465 0
M  V30 1021 C 99.6988 2.31616 -1.52477 0
M  V30 1022 H 102.65 1.00969 -1.22438 0
M  V30 1023 H 102.671 3.70636 -0.860788 0
M  V30 1024 H 102.183 2.95027 -2.52152 0
M  V30 1025 H 100.284 3.72167 -0.179527 0
M  V30 1026 H 100.397 4.37812 -1.94571 0
M  V30 1027 H 98.7608 2.36512 -0.945209 0
M  V30 1028 H 99.5438 2.22887 -2.61106 0
M  V30 1029 N 101.989 0.842826 1.3317 0
M  V30 1030 C 103.237 0.439577 1.97262 0
M  V30 1031 C 103.558 -1.00548 1.67078 0
M  V30 1032 O 102.828 -1.70098 0.971779 0
M  V30 1033 H 101.408 0.159558 0.72976 0
M  V30 1034 H 104.07 1.07665 1.62463 0
M  V30 1035 H 103.166 0.574886 3.0676 0
M  V30 1036 N 103.467 -1.45747 0.599634 0
M  V30 1037 C 104.43 -2.28917 -0.113835 0
M  V30 1038 C 105.43 -1.3933 -0.802729 0
M  V30 1039 O 106.62 -1.61534 -0.652103 0
M  V30 1040 C 103.752 -3.20152 -1.17114 0
M  V30 1041 H 104.945 -2.93478 0.617289 0
M  V30 1042 H 102.498 -1.52137 0.358327 0
M  V30 1043 H 103.233 -2.60374 -1.93329 0
M  V30 1044 H 103.018 -3.86133 -0.681468 0
M  V30 1045 H 104.508 -3.82708 -1.67105 0
M  V30 1046 N 104.945 -0.338344 -1.53925 0
M  V30 1047 C 106.356 0.146651 -1.86123 0
M  V30 1048 C 106.707 1.5042 -1.2597 0
M  V30 1049 O 105.832 2.08723 -0.571294 0
M  V30 1050 C 106.427 0.272879 -3.37699 0
M  V30 1051 C 104.986 0.702103 -3.69794 0
M  V30 1052 C 104.133 -0.167304 -2.76795 0
M  V30 1053 H 107.084 -0.558123 -1.48562 0
M  V30 1054 H 107.105 1.10128 -3.64214 0
M  V30 1055 H 106.617 -0.715307 -3.81451 0
M  V30 1056 H 104.718 1.6995 -3.31584 0
M  V30 1057 H 104.831 0.495604 -4.7653 0
M  V30 1058 H 103.195 0.359527 -2.5215 0
M  V30 1059 H 103.978 -1.15253 -3.23375 0
M  V30 1060 N 106.423 1.57458 -0.0668435 0
M  V30 1061 C 107.333 2.15937 0.916975 0
M  V30 1062 C 108.349 1.12123 1.33058 0
M  V30 1063 O 109.525 1.44366 1.40429 0
M  V30 1064 C 106.59 2.70547 2.16807 0
M  V30 1065 C 105.651 3.89215 1.81135 0
M  V30 1066 C 104.884 4.41211 3.0028 0
M  V30 1067 O 105.107 3.92225 4.14144 0
M  V30 1068 O 104.041 5.32605 2.80384 0
M  V30 1069 H 107.867 3.00354 0.449561 0
M  V30 1070 H 105.452 1.48584 0.155949 0
M  V30 1071 H 107.334 3.0557 2.90181 0
M  V30 1072 H 106.009 1.89192 2.62656 0
M  V30 1073 H 104.916 3.59054 1.05028 0
M  V30 1074 H 106.249 4.71848 1.40073 0
M  V30 1075 N 107.901 -0.206675 1.56239 0
M  V30 1076 C 109.149 -0.927007 1.79586 0
M  V30 1077 C 109.47 -1.8427 0.637929 0
M  V30 1078 O 108.74 -1.92849 -0.344398 0
M  V30 1079 H 107.32 -0.345292 0.662407 0
M  V30 1080 H 109.982 -0.21496 1.93711 0
M  V30 1081 H 109.078 -1.52501 2.72305 0
M  V30 1082 N 109.379 -1.50304 -0.473955 0
M  V30 1083 C 110.625 -1.61389 -1.22806 0
M  V30 1084 C 110.958 -0.311955 -1.91678 0
M  V30 1085 O 110.233 0.686384 -1.81986 0
M  V30 1086 C 110.516 -2.79219 -2.27396 0
M  V30 1087 C 110.369 -4.19286 -1.62848 0
M  V30 1088 C 111.688 -2.92614 -3.28732 0
M  V30 1089 H 108.807 -0.587399 -0.445119 0
M  V30 1090 H 111.449 -1.82681 -0.522265 0
M  V30 1091 H 109.599 -2.61195 -2.87592 0
M  V30 1092 H 111.271 -4.48892 -1.06271 0
M  V30 1093 H 109.514 -4.23677 -0.931693 0
M  V30 1094 H 110.185 -4.97655 -2.38838 0
M  V30 1095 H 112.661 -3.09105 -2.78556 0
M  V30 1096 H 111.537 -3.76688 -3.99246 0
M  V30 1097 H 111.798 -2.03107 -3.92683 0
M  V30 1098 N 110.857 0.726932 -1.39834 0
M  V30 1099 C 112.082 1.52121 -1.40976 0
M  V30 1100 C 112.507 1.88098 -0.00826029 0
M  V30 1101 O 111.865 1.52479 0.980807 0
M  V30 1102 C 111.913 2.78021 -2.29644 0
M  V30 1103 O 111.017 3.74272 -1.73188 0
M  V30 1104 H 110.358 0.45908 -0.479731 0
M  V30 1105 H 112.888 0.896207 -1.83927 0
M  V30 1106 H 112.898 3.26671 -2.44438 0
M  V30 1107 H 111.573 2.51169 -3.31492 0
M  V30 1108 H 110.15 3.33073 -1.6768 0
M  V30 1109 N 112.336 1.25143 0.95797 0
M  V30 1110 C 113.299 1.05321 2.03569 0
M  V30 1111 C 114.299 0.007152 1.60798 0
M  V30 1112 O 115.489 0.24903 1.72411 0
M  V30 1113 C 112.621 0.598394 3.35607 0
M  V30 1114 H 113.814 2.00986 2.22586 0
M  V30 1115 H 111.367 1.07502 1.13459 0
M  V30 1116 H 112.102 -0.361014 3.22284 0
M  V30 1117 H 111.887 1.35351 3.67998 0
M  V30 1118 H 113.377 0.48104 4.1482 0
M  V30 1119 N 113.814 -1.1601 1.06675 0
M  V30 1120 C 114.744 -2.22688 0.702307 0
M  V30 1121 C 115.725 -1.67306 -0.307032 0
M  V30 1122 O 116.91 -1.93352 -0.181305 0
M  V30 1123 C 114.04 -3.47178 0.092038 0
M  V30 1124 C 112.994 -4.15477 1.02777 0
M  V30 1125 C 112.32 -5.33963 0.28061 0
M  V30 1126 C 113.62 -4.66019 2.35846 0
M  V30 1127 H 115.314 -2.53429 1.59419 0
M  V30 1128 H 112.86 -1.21813 0.767961 0
M  V30 1129 H 114.813 -4.21037 -0.174814 0
M  V30 1130 H 113.537 -3.15749 -0.834877 0
M  V30 1131 H 112.196 -3.43549 1.27944 0
M  V30 1132 H 111.844 -4.98788 -0.649545 0
M  V30 1133 H 111.544 -5.806 0.904258 0
M  V30 1134 H 113.068 -6.10596 0.021396 0
M  V30 1135 H 114.482 -5.3144 2.15045 0
M  V30 1136 H 112.879 -5.23293 2.93743 0
M  V30 1137 H 113.949 -3.82023 2.98641 0
M  V30 1138 N 115.292 -0.849877 -1.32721 0
M  V30 1139 C 116.517 -0.463856 -2.02146 0
M  V30 1140 C 116.942 0.930449 -1.63476 0
M  V30 1141 O 116.3 1.61033 -0.832952 0
M  V30 1142 C 116.348 -0.604955 -3.55489 0
M  V30 1143 O 115.452 0.36425 -4.10788 0
M  V30 1144 H 114.793 -0.187046 -0.637111 0
M  V30 1145 H 117.323 -1.14775 -1.69375 0
M  V30 1146 H 117.333 -0.490696 -4.05038 0
M  V30 1147 H 116.008 -1.62174 -3.82978 0
M  V30 1148 H 114.585 0.206628 -3.72327 0
M  V30 1149 N 116.77 1.45427 -0.607355 0
M  V30 1150 C 118.047 1.9557 -0.0344566 0
M  V30 1151 C 118.427 1.54979 1.43334 0
M  V30 1152 O 117.775 0.812241 2.13576 0
M  V30 1153 C 117.985 3.48226 -0.232321 0
M  V30 1154 C 119.333 4.2445 -0.113001 0
M  V30 1155 O 120.357 3.55829 -0.162431 0
M  V30 1156 O 119.216 5.465 0.00209442 0
M  V30 1157 H 116.31 0.826222 0.0358667 0
M  V30 1158 H 118.856 1.55594 -0.6774 0
M  V30 1159 H 117.628 3.70739 -1.25174 0
M  V30 1160 H 117.251 3.95092 0.445896 0
M  V30 1161 N 118.248 0.346503 1.53744 0
M  V30 1162 C 119.211 -0.496439 2.23759 0
M  V30 1163 C 120.211 -1.0252 1.2388 0
M  V30 1164 O 121.401 -0.913974 1.48297 0
M  V30 1165 C 118.533 -1.69187 2.95954 0
M  V30 1166 H 119.726 0.115952 2.99676 0
M  V30 1167 H 117.279 0.0978939 1.55993 0
M  V30 1168 H 118.014 -2.34288 2.24231 0
M  V30 1169 H 117.799 -1.31989 3.69217 0
M  V30 1170 H 119.289 -2.28969 3.49232 0
M  V30 1171 N 119.726 -1.57421 0.075193 0
M  V30 1172 C 120.658 -2.09904 -0.920483 0
M  V30 1173 C 121.671 -1.03191 -1.25918 0
M  V30 1174 O 122.86 -1.30695 -1.21577 0
M  V30 1175 C 119.96 -2.54726 -2.23534 0
M  V30 1176 C 119.133 -3.8505 -2.07498 0
M  V30 1177 C 118.192 -4.15929 -3.22319 0
M  V30 1178 O 117.218 -4.85474 -2.9716 0
M  V30 1179 N 118.42 -3.69745 -4.47514 0
M  V30 1180 H 121.185 -2.95954 -0.472359 0
M  V30 1181 H 118.746 -1.61523 -0.110444 0
M  V30 1182 H 120.738 -2.72443 -2.9926 0
M  V30 1183 H 119.308 -1.73795 -2.59835 0
M  V30 1184 H 118.528 -3.76679 -1.16219 0
M  V30 1185 H 119.816 -4.70348 -1.94038 0
M  V30 1186 H 119.214 -3.13569 -4.7084 0
M  V30 1187 H 117.771 -3.92655 -5.20255 0
M  V30 1188 N 121.204 0.198386 -1.56346 0
M  V30 1189 C 122.434 0.934215 -1.84271 0
M  V30 1190 C 122.842 1.77496 -0.655125 0
M  V30 1191 O 122.185 1.7961 0.385488 0
M  V30 1192 C 122.247 1.88278 -3.06254 0
M  V30 1193 C 121.911 1.22431 -4.40295 0
M  V30 1194 C 122.908 0.602839 -5.16393 0
M  V30 1195 C 120.593 1.22915 -4.87029 0
M  V30 1196 C 122.587 -0.0050083 -6.374 0
M  V30 1197 C 120.274 0.617465 -6.07973 0
M  V30 1198 C 121.272 0.00146341 -6.83 0
M  V30 1199 O 120.96 -0.600642 -8.01653 0
M  V30 1200 H 120.692 0.278245 -0.616081 0
M  V30 1201 H 123.246 0.211626 -2.04307 0
M  V30 1202 H 121.476 2.64498 -2.82095 0
M  V30 1203 H 123.165 2.48612 -3.20853 0
M  V30 1204 H 123.931 0.591265 -4.81382 0
M  V30 1205 H 119.81 1.69801 -4.28589 0
M  V30 1206 H 123.354 -0.48643 -6.95902 0
M  V30 1207 H 119.251 0.62653 -6.42452 0
M  V30 1208 H 120.019 -0.497225 -8.16988 0
M  V30 1209 N 122.682 1.50554 0.465978 0
M  V30 1210 C 123.63 1.70324 1.58406 0
M  V30 1211 C 124.624 0.569139 1.59553 0
M  V30 1212 O 125.83 0.749776 1.63641 0
M  V30 1213 H 122.205 0.537688 0.525734 0
M  V30 1214 H 124.176 2.64104 1.38894 0
M  V30 1215 C 122.925 1.81928 2.96307 0
M  V30 1216 H 122.248 2.68586 2.96144 0
M  V30 1217 H 123.688 1.99784 3.73982 0
M  V30 1218 C 122.147 0.572095 3.32007 0
M  V30 1219 O 122.677 -0.286416 4.00678 0
M  V30 1220 N 120.883 0.424606 2.87481 0
M  V30 1221 H 120.43 1.12427 2.31771 0
M  V30 1222 H 120.388 -0.408697 3.11732 0
M  V30 1223 N 124.16 -0.719506 1.40217 0
M  V30 1224 C 125.07 -1.86378 1.42479 0
M  V30 1225 C 126.086 -1.71073 0.317834 0
M  V30 1226 O 127.262 -1.93406 0.561794 0
M  V30 1227 C 124.327 -3.22136 1.28178 0
M  V30 1228 C 123.388 -3.49723 2.48982 0
M  V30 1229 C 122.621 -4.79004 2.35353 0
M  V30 1230 O 122.844 -5.53821 1.36524 0
M  V30 1231 O 121.778 -5.06839 3.2465 0
M  V30 1232 H 125.604 -1.87425 2.38968 0
M  V30 1233 H 123.189 -0.869405 1.21498 0
M  V30 1234 H 125.071 -4.03234 1.22395 0
M  V30 1235 H 123.746 -3.21825 0.347934 0
M  V30 1236 H 122.653 -2.6865 2.60342 0
M  V30 1237 H 123.986 -3.54828 3.41113 0
M  V30 1238 N 125.638 -1.25649 -0.95132 0
M  V30 1239 C 126.601 -1.06399 -2.03007 0
M  V30 1240 C 127.601 -0.0156794 -1.60792 0
M  V30 1241 O 128.791 -0.25817 -1.72276 0
M  V30 1242 C 125.923 -0.616184 -3.35285 0
M  V30 1243 H 127.116 -2.02164 -2.21517 0
M  V30 1244 H 124.669 -1.08103 -1.12887 0
M  V30 1245 H 125.404 0.343917 -3.22471 0
M  V30 1246 H 125.189 -1.37301 -3.67275 0
M  V30 1247 H 126.679 -0.503032 -4.14559 0
M  V30 1248 N 127.117 1.15442 -1.07289 0
M  V30 1249 C 128.065 2.22225 -0.686952 0
M  V30 1250 C 129.059 1.66688 0.30193 0
M  V30 1251 O 130.265 1.79236 0.165712 0
M  V30 1252 H 126.64 0.723783 -0.204064 0
M  V30 1253 H 128.611 2.52056 -1.5972 0
M  V30 1254 C 127.36 3.47556 -0.100149 0
M  V30 1255 H 126.683 3.90612 -0.852211 0
M  V30 1256 H 128.123 4.23794 0.132235 0
M  V30 1257 C 126.582 3.16337 1.159 0
M  V30 1258 O 127.112 3.33074 2.24555 0
M  V30 1259 N 125.318 2.70385 1.06491 0
M  V30 1260 H 124.865 2.56966 0.180668 0
M  V30 1261 H 124.823 2.49871 1.90819 0
M  V30 1262 N 128.595 0.856903 1.32268 0
M  V30 1263 C 129.542 0.301172 2.28827 0
M  V30 1264 C 130.512 -0.593104 1.5515 0
M  V30 1265 O 131.697 -0.527537 1.83362 0
M  V30 1266 C 128.837 -0.502523 3.41422 0
M  V30 1267 C 127.95 0.417797 4.29975 0
M  V30 1268 C 127.085 -0.398749 5.29701 0
M  V30 1269 C 126.124 0.518827 6.09897 0
M  V30 1270 N 125.261 -0.260674 7.01616 0
M  V30 1271 H 130.101 1.12983 2.75751 0
M  V30 1272 H 127.638 0.568582 1.35667 0
M  V30 1273 H 129.596 -0.984141 4.05426 0
M  V30 1274 H 128.226 -1.29599 2.95642 0
M  V30 1275 H 127.278 1.01781 3.66531 0
M  V30 1276 H 128.59 1.12191 4.86019 0
M  V30 1277 H 127.744 -0.943435 5.9932 0
M  V30 1278 H 126.483 -1.13622 4.7428 0
M  V30 1279 H 125.488 1.07538 5.39181 0
M  V30 1280 H 126.713 1.25495 6.67404 0
M  V30 1281 H 124.659 -0.981198 6.4862 0
M  V30 1282 H 124.576 0.384364 7.55022 0
M  V30 1283 H 125.844 -0.787014 7.75517 0
M  V30 1284 N 130.073 -1.45103 0.615059 0
M  V30 1285 C 131.322 -2.01396 0.110718 0
M  V30 1286 C 131.635 -1.48834 -1.26916 0
M  V30 1287 O 132.841 -1.97152 -1.86664 0
M  V30 1288 C 131.297 -3.59599 0.14723 0
M  V30 1289 C 130.905 -4.21158 1.52743 0
M  V30 1290 C 132.649 -4.23428 -0.30148 0
M  V30 1291 C 130.556 -5.71535 1.51992 0
M  V30 1292 H 129.486 -0.753061 0.0376241 0
M  V30 1293 H 132.137 -1.66494 0.77149 0
M  V30 1294 H 130.519 -3.91724 -0.580339 0
M  V30 1295 H 131.693 -4.00594 2.2773 0
M  V30 1296 H 130.008 -3.69552 1.91886 0
M  V30 1297 H 132.605 -5.33703 -0.326392 0
M  V30 1298 H 132.948 -3.94629 -1.32565 0
M  V30 1299 H 133.481 -3.96047 0.373065 0
M  V30 1300 H 130.22 -6.05044 2.52193 0
M  V30 1301 H 129.74 -5.94268 0.81274 0
M  V30 1302 H 131.419 -6.34873 1.24681 0
M  V30 1303 N 131.551 -0.354651 -1.53558 0
M  V30 1304 C 132.781 0.239167 -2.05211 0
M  V30 1305 C 133.189 1.43879 -1.22863 0
M  V30 1306 O 132.532 1.81857 -0.259565 0
M  V30 1307 C 132.594 0.707251 -3.52474 0
M  V30 1308 C 132.258 -0.374212 -4.55465 0
M  V30 1309 C 133.255 -1.22054 -5.0537 0
M  V30 1310 C 130.94 -0.531323 -4.99482 0
M  V30 1311 C 132.934 -2.20942 -5.97882 0
M  V30 1312 C 130.621 -1.52358 -5.91802 0
M  V30 1313 C 131.619 -2.36108 -6.40892 0
M  V30 1314 O 131.307 -3.33643 -7.31394 0
M  V30 1315 H 131.039 0.0479716 -0.674296 0
M  V30 1316 H 133.593 -0.508121 -1.99016 0
M  V30 1317 H 131.823 1.50596 -3.56171 0
M  V30 1318 H 133.512 1.22285 -3.87042 0
M  V30 1319 H 134.278 -1.1103 -4.7212 0
M  V30 1320 H 130.157 0.110738 -4.60867 0
M  V30 1321 H 133.701 -2.86348 -6.36121 0
M  V30 1322 H 129.598 -1.63434 -6.24467 0
M  V30 1323 H 130.366 -3.29244 -7.4936 0
M  V30 1324 N 133.029 1.57378 -0.0835403 0
M  V30 1325 C 134.276 1.9393 0.58287 0
M  V30 1326 C 134.604 0.964455 1.68904 0
M  V30 1327 O 133.859 -0.0179474 1.95692 0
M  V30 1328 C 134.158 3.37063 1.1884 0
M  V30 1329 C 133.824 4.50424 0.207194 0
M  V30 1330 C 132.486 4.81159 -0.0627115 0
M  V30 1331 C 134.838 5.19136 -0.463426 0
M  V30 1332 C 132.166 5.77939 -1.01012 0
M  V30 1333 C 134.518 6.16931 -1.39924 0
M  V30 1334 C 133.182 6.46078 -1.67749 0
M  V30 1335 H 132.452 0.70964 0.213287 0
M  V30 1336 H 135.099 1.90856 -0.156916 0
M  V30 1337 H 133.404 3.3666 2.00418 0
M  V30 1338 H 135.101 3.6264 1.71153 0
M  V30 1339 H 131.691 4.2646 0.427747 0
M  V30 1340 H 135.875 4.95576 -0.268034 0
M  V30 1341 H 131.131 5.98842 -1.23283 0
M  V30 1342 H 135.305 6.69273 -1.92476 0
M  V30 1343 H 132.932 7.2088 -2.41321 0
M  V30 1344 N 134.507 -0.190092 1.56449 0
M  V30 1345 C 135.417 -1.25591 1.98152 0
M  V30 1346 C 136.433 -1.49519 0.889944 0
M  V30 1347 O 137.609 -1.62036 1.19609 0
M  V30 1348 C 134.674 -2.57916 2.3169 0
M  V30 1349 C 133.735 -2.42015 3.5458 0
M  V30 1350 C 132.968 -3.6803 3.8651 0
M  V30 1351 O 133.191 -4.72413 3.1966 0
M  V30 1352 O 132.125 -3.6326 4.79923 0
M  V30 1353 H 135.951 -0.931988 2.89046 0
M  V30 1354 H 133.536 -0.395488 1.4407 0
M  V30 1355 H 135.418 -3.36008 2.54316 0
M  V30 1356 H 134.093 -2.89925 1.43963 0
M  V30 1357 H 133 -1.62017 3.37196 0
M  V30 1358 H 134.333 -2.14937 4.4279 0
M  V30 1359 N 135.985 -1.50799 -0.457987 0
M  V30 1360 C 137.401 -1.38515 -0.792819 0
M  V30 1361 C 137.601 -0.451409 -1.96379 0
M  V30 1362 O 136.657 0.10112 -2.52297 0
M  V30 1363 C 137.97 -2.80149 -1.09258 0
M  V30 1364 C 139.518 -2.89156 -1.19825 0
M  V30 1365 C 139.993 -4.31651 -1.53106 0
M  V30 1366 N 141.484 -4.34662 -1.60072 0
M  V30 1367 C 142.219 -5.41928 -1.87354 0
M  V30 1368 N 141.715 -6.59384 -2.12568 0
M  V30 1369 N 143.508 -5.29385 -1.88965 0
M  V30 1370 H 135.659 -2.10073 0.313511 0
M  V30 1371 H 137.922 -0.944803 0.0777862 0
M  V30 1372 H 137.628 -3.50374 -0.305084 0
M  V30 1373 H 137.502 -3.18204 -2.02549 0
M  V30 1374 H 139.889 -2.19141 -1.97639 0
M  V30 1375 H 139.97 -2.54626 -0.244821 0
M  V30 1376 H 139.614 -5.02208 -0.758266 0
M  V30 1377 H 139.544 -4.63678 -2.49621 0
M  V30 1378 H 142.035 -3.49973 -1.42573 0
M  V30 1379 H 142.348 -7.36934 -2.32696 0
M  V30 1380 H 140.693 -6.62535 -2.09933 0
M  V30 1381 H 143.884 -4.36616 -1.68772 0
M  V30 1382 H 144.057 -6.13066 -2.09891 0
M  V30 1383 N 137.463 0.71206 -1.40597 0
M  V30 1384 C 138.703 1.48438 -1.40519 0
M  V30 1385 C 139.067 1.91998 -0.00767611 0
M  V30 1386 O 140.268 2.6854 0.118239 0
M  V30 1387 C 138.539 2.67514 -2.37004 0
M  V30 1388 S 140.098 3.56875 -2.55315 0
M  V30 1389 H 136.916 0.507457 -0.498005 0
M  V30 1390 H 139.518 0.832355 -1.76896 0
M  V30 1391 H 138.222 2.33689 -3.37368 0
M  V30 1392 H 137.753 3.37625 -2.01923 0
M  V30 1393 H 139.768 4.62081 -1.8082 0
M  V30 1394 N 138.941 1.26152 0.944643 0
M  V30 1395 C 139.904 1.07474 2.0244 0
M  V30 1396 C 140.904 0.0242064 1.60782 0
M  V30 1397 O 142.094 0.267302 1.72137 0
M  V30 1398 C 139.226 0.633956 3.34953 0
M  V30 1399 H 140.419 2.03336 2.20442 0
M  V30 1400 H 137.972 1.087 1.12312 0
M  V30 1401 H 138.707 -0.326811 3.22649 0
M  V30 1402 H 138.492 1.39247 3.66542 0
M  V30 1403 H 139.982 0.52501 4.14287 0
M  V30 1404 N 140.419 -1.14872 1.07899 0
M  V30 1405 C 141.667 -1.85422 0.803941 0
M  V30 1406 C 141.988 -1.83051 -0.67211 0
M  V30 1407 O 141.258 -1.27532 -1.48703 0
M  V30 1408 H 139.838 -0.686537 0.294408 0
M  V30 1409 H 142.5 -1.39226 1.3639 0
M  V30 1410 H 141.596 -2.90399 1.14346 0
M  V30 1411 N 141.898 -0.863906 -1.31812 0
M  V30 1412 C 143.138 -0.47825 -1.98726 0
M  V30 1413 C 143.502 0.950397 -1.66828 0
M  V30 1414 O 144.703 1.44109 -2.26905 0
M  V30 1415 C 142.974 -0.721134 -3.50049 0
M  V30 1416 S 144.533 -0.434432 -4.36644 0
M  V30 1417 H 141.351 -0.178773 -0.688158 0
M  V30 1418 H 143.953 -1.11862 -1.60334 0
M  V30 1419 H 142.657 -1.75981 -3.70755 0
M  V30 1420 H 142.188 -0.0675315 -3.93342 0
M  V30 1421 H 144.203 0.735786 -4.90714 0
M  V30 1422 N 143.376 1.44774 -0.622745 0
M  V30 1423 C 144.326 2.2774 0.108889 0
M  V30 1424 C 145.31 1.38189 0.824175 0
M  V30 1425 O 146.502 1.62063 0.711664 0
M  V30 1426 C 143.631 3.25353 1.09546 0
M  V30 1427 C 142.717 4.22392 0.380232 0
M  V30 1428 N 143.108 5.02388 -0.586535 0
M  V30 1429 C 141.406 4.41588 0.625792 0
M  V30 1430 C 142.107 5.72894 -1.00834 0
M  V30 1431 N 141.083 5.42479 -0.348878 0
M  V30 1432 H 144.885 2.86993 -0.63341 0
M  V30 1433 H 142.399 1.5611 -0.447589 0
M  V30 1434 H 144.396 3.83538 1.63414 0
M  V30 1435 H 143.056 2.6766 1.83815 0
M  V30 1436 H 144.067 5.0885 -0.963975 0
M  V30 1437 H 140.744 3.95003 1.352 0
M  V30 1438 H 142.134 6.47158 -1.80656 0
M  V30 1439 N 144.854 0.36279 1.53368 0
M  V30 1440 C 146.102 -0.227326 2.00817 0
M  V30 1441 C 146.423 -1.49511 1.25186 0
M  V30 1442 O 145.693 -1.92482 0.364348 0
M  V30 1443 H 144.273 -0.0869923 0.741917 0
M  V30 1444 H 146.935 0.488381 1.88682 0
M  V30 1445 H 146.031 -0.456273 3.08747 0
M  V30 1446 N 146.332 -1.57332 0.0918853 0
M  V30 1447 C 147.578 -1.94524 -0.573425 0
M  V30 1448 C 147.911 -0.973578 -1.68033 0
M  V30 1449 O 147.186 -0.00609226 -1.94499 0
M  V30 1450 C 147.469 -3.41858 -1.13161 0
M  V30 1451 C 147.322 -4.4979 -0.0299747 0
M  V30 1452 C 148.641 -3.90435 -2.03098 0
M  V30 1453 H 145.76 -0.70734 -0.206975 0
M  V30 1454 H 148.402 -1.89309 0.161942 0
M  V30 1455 H 146.552 -3.46433 -1.7583 0
M  V30 1456 H 148.224 -4.57327 0.604112 0
M  V30 1457 H 146.467 -4.291 0.636833 0
M  V30 1458 H 147.138 -5.50069 -0.461287 0
M  V30 1459 H 149.614 -3.87992 -1.50338 0
M  V30 1460 H 148.49 -4.94097 -2.39081 0
M  V30 1461 H 148.751 -3.29541 -2.94712 0
M  V30 1462 N 147.81 0.181792 -1.56548 0
M  V30 1463 C 148.74 1.22765 -1.98623 0
M  V30 1464 C 149.721 1.46747 -0.860189 0
M  V30 1465 O 150.906 1.58259 -1.12551 0
M  V30 1466 C 148.036 2.56894 -2.33715 0
M  V30 1467 C 146.99 2.475 -3.49182 0
M  V30 1468 C 146.316 3.86023 -3.69986 0
M  V30 1469 C 147.616 1.98866 -4.82959 0
M  V30 1470 H 149.31 0.877942 -2.86239 0
M  V30 1471 H 146.856 0.42088 -1.37712 0
M  V30 1472 H 148.809 3.30253 -2.61746 0
M  V30 1473 H 147.533 2.93632 -1.42997 0
M  V30 1474 H 146.192 1.76596 -3.21262 0
M  V30 1475 H 145.84 4.20136 -2.76576 0
M  V30 1476 H 145.54 3.80609 -4.47672 0
M  V30 1477 H 147.064 4.60984 -4.00407 0
M  V30 1478 H 148.478 2.61992 -5.09934 0
M  V30 1479 H 146.875 2.04424 -5.64208 0
M  V30 1480 H 147.945 0.942465 -4.75653 0
M  V30 1481 N 149.288 1.51039 0.449983 0
M  V30 1482 C 150.704 1.38934 0.785462 0
M  V30 1483 C 150.904 0.461817 1.96136 0
M  V30 1484 O 149.96 -0.0877389 2.52348 0
M  V30 1485 C 151.273 2.80724 1.0777 0
M  V30 1486 C 152.821 2.89787 1.1829 0
M  V30 1487 C 153.296 4.32457 1.50815 0
M  V30 1488 N 154.787 4.35505 1.57764 0
M  V30 1489 C 155.522 5.42914 1.84477 0
M  V30 1490 N 155.018 6.60502 2.09068 0
M  V30 1491 N 156.811 5.3038 1.86155 0
M  V30 1492 H 148.962 2.09904 -0.324647 0
M  V30 1493 H 151.225 0.944378 -0.0827957 0
M  V30 1494 H 150.931 3.50531 0.286498 0
M  V30 1495 H 150.805 3.19273 2.00859 0
M  V30 1496 H 153.192 2.20186 1.96474 0
M  V30 1497 H 153.273 2.54752 0.231314 0
M  V30 1498 H 152.917 5.02603 0.731622 0
M  V30 1499 H 152.847 4.64995 2.47158 0
M  V30 1500 H 155.338 3.50724 1.40715 0
M  V30 1501 H 155.651 7.38158 2.28785 0
M  V30 1502 H 153.996 6.63639 2.06416 0
M  V30 1503 H 157.187 4.37505 1.66454 0
M  V30 1504 H 157.36 6.1417 2.06637 0
M  V30 1505 N 150.766 -0.704594 1.40972 0
M  V30 1506 C 151.713 -1.81862 1.42109 0
M  V30 1507 C 152.683 -1.63781 0.276593 0
M  V30 1508 O 153.868 -1.84759 0.4763 0
M  V30 1509 C 151.008 -3.19669 1.30022 0
M  V30 1510 C 150.121 -3.49246 2.54267 0
M  V30 1511 C 149.256 -4.76618 2.3454 0
M  V30 1512 C 148.295 -4.99133 3.54306 0
M  V30 1513 N 147.432 -6.17726 3.33706 0
M  V30 1514 H 152.272 -1.80226 2.37324 0
M  V30 1515 H 149.809 -0.880238 1.17857 0
M  V30 1516 H 151.767 -3.99263 1.21018 0
M  V30 1517 H 150.397 -3.20506 0.384192 0
M  V30 1518 H 149.449 -2.64125 2.73756 0
M  V30 1519 H 150.761 -3.61788 3.43381 0
M  V30 1520 H 149.915 -5.64249 2.22952 0
M  V30 1521 H 148.654 -4.66305 1.42867 0
M  V30 1522 H 147.659 -4.09953 3.66359 0
M  V30 1523 H 148.884 -5.11311 4.4692 0
M  V30 1524 H 146.83 -6.08642 2.44725 0
M  V30 1525 H 146.747 -6.30995 4.16391 0
M  V30 1526 H 148.015 -7.08115 3.25873 0
M  V30 1527 N 152.244 -1.26651 -0.937939 0
M  V30 1528 C 153.492 -1.12165 -1.68118 0
M  V30 1529 C 153.813 0.334983 -1.92101 0
M  V30 1530 O 153.083 1.23583 -1.52 0
M  V30 1531 H 151.663 -0.412093 -0.623048 0
M  V30 1532 H 154.325 -1.59027 -1.12678 0
M  V30 1533 H 153.421 -1.64289 -2.6536 0
M  V30 1534 N 153.722 1.14298 -1.08507 0
M  V30 1535 C 154.685 2.17607 -0.719711 0
M  V30 1536 C 155.685 1.58907 0.245997 0
M  V30 1537 O 156.875 1.74181 0.0254081 0
M  V30 1538 C 154.007 3.40842 -0.0627695 0
M  V30 1539 H 155.2 2.51443 -1.63452 0
M  V30 1540 H 152.753 1.28963 -0.88307 0
M  V30 1541 H 153.488 3.12587 0.863716 0
M  V30 1542 H 153.273 3.84713 -0.757504 0
M  V30 1543 H 154.763 4.17221 0.177786 0
M  V30 1544 N 155.201 0.870884 1.31352 0
M  V30 1545 C 156.429 0.49677 2.00848 0
M  V30 1546 C 156.844 -0.910998 1.65367 0
M  V30 1547 O 156.201 -1.59696 0.883374 0
M  V30 1548 C 156.252 0.645308 3.55694 0
M  V30 1549 O 155.973 1.99764 3.89905 0
M  V30 1550 C 157.474 0.272326 4.42463 0
M  V30 1551 H 154.694 0.193462 0.642506 0
M  V30 1552 H 157.238 1.1723 1.67563 0
M  V30 1553 H 155.393 0.0173176 3.87396 0
M  V30 1554 H 155.807 2.00607 4.84621 0
M  V30 1555 H 157.281 0.427208 5.50344 0
M  V30 1556 H 157.758 -0.788587 4.32062 0
M  V30 1557 H 158.364 0.876054 4.1618 0
M  V30 1558 N 156.679 -1.44442 0.630414 0
M  V30 1559 C 157.927 -2.01653 0.134351 0
M  V30 1560 C 158.248 -1.49836 -1.24796 0
M  V30 1561 O 157.518 -0.701684 -1.82902 0
M  V30 1562 H 156.098 -0.74554 0.0466769 0
M  V30 1563 H 158.76 -1.76952 0.816955 0
M  V30 1564 H 157.856 -3.11935 0.101498 0
M  V30 1565 N 158.157 -0.370918 -1.53173 0
M  V30 1566 C 159.104 0.473035 -2.259 0
M  V30 1567 C 160.074 1.07311 -1.26781 0
M  V30 1568 O 161.259 1.1046 -1.55574 0
M  V30 1569 C 158.399 1.60405 -3.05556 0
M  V30 1570 C 157.512 1.02863 -4.19575 0
M  V30 1571 C 156.647 2.12918 -4.86661 0
M  V30 1572 C 155.686 1.52869 -5.92704 0
M  V30 1573 N 154.823 2.56779 -6.53459 0
M  V30 1574 H 159.663 -0.153649 -2.97604 0
M  V30 1575 H 157.2 -0.0875946 -1.46839 0
M  V30 1576 H 159.158 2.27034 -3.50016 0
M  V30 1577 H 157.788 2.20131 -2.36097 0
M  V30 1578 H 156.84 0.252465 -3.79561 0
M  V30 1579 H 158.152 0.549642 -4.95762 0
M  V30 1580 H 157.306 2.87356 -5.34333 0
M  V30 1581 H 156.045 2.6417 -4.09958 0
M  V30 1582 H 155.05 0.769479 -5.44389 0
M  V30 1583 H 156.275 1.02435 -6.7133 0
M  V30 1584 H 154.221 3.07235 -5.79606 0
M  V30 1585 H 154.138 2.13583 -7.25202 0
M  V30 1586 H 155.406 3.30903 -7.05779 0
M  V30 1587 N 159.635 1.57281 -0.100228 0
M  V30 1588 C 160.598 2.13158 0.842398 0
M  V30 1589 C 161.598 1.06202 1.20738 0
M  V30 1590 O 162.788 1.32066 1.13597 0
M  V30 1591 C 159.92 2.65639 2.13655 0
M  V30 1592 H 161.113 2.97766 0.357114 0
M  V30 1593 H 158.666 1.5559 0.148823 0
M  V30 1594 H 159.401 1.84566 2.66657 0
M  V30 1595 H 159.186 3.43844 1.88451 0
M  V30 1596 H 160.676 3.08846 2.81077 0
M  V30 1597 N 161.113 -0.173488 1.56642 0
M  V30 1598 C 162.043 -1.2171 1.99271 0
M  V30 1599 C 163.024 -1.46289 0.867959 0
M  V30 1600 O 164.209 -1.5766 1.13388 0
M  V30 1601 C 161.339 -2.55651 2.35074 0
M  V30 1602 C 160.293 -2.45645 3.50489 0
M  V30 1603 C 159.619 -3.84056 3.72028 0
M  V30 1604 C 160.919 -1.96302 4.84007 0
M  V30 1605 H 162.613 -0.86275 2.867 0
M  V30 1606 H 160.159 -0.413571 1.37933 0
M  V30 1607 H 162.112 -3.2886 2.63494 0
M  V30 1608 H 160.836 -2.92869 1.44552 0
M  V30 1609 H 159.495 -1.7489 3.22194 0
M  V30 1610 H 159.143 -4.18664 2.788 0
M  V30 1611 H 158.843 -3.7823 4.49684 0
M  V30 1612 H 160.367 -4.58854 4.02846 0
M  V30 1613 H 161.781 -2.59284 5.11317 0
M  V30 1614 H 160.178 -2.01429 5.65284 0
M  V30 1615 H 161.248 -0.917226 4.76146 0
M  V30 1616 N 162.591 -1.51276 -0.441967 0
M  V30 1617 C 163.819 -1.67516 -1.21434 0
M  V30 1618 C 164.234 -0.37055 -1.85128 0
M  V30 1619 O 163.591 0.650498 -1.70513 0
M  V30 1620 C 163.642 -2.78748 -2.30177 0
M  V30 1621 O 163.363 -4.04154 -1.69089 0
M  V30 1622 C 164.864 -3.06217 -3.20541 0
M  V30 1623 H 162.084 -0.562276 -0.366178 0
M  V30 1624 H 164.628 -1.97666 -0.524244 0
M  V30 1625 H 162.783 -2.5121 -2.94911 0
M  V30 1626 H 163.197 -4.65894 -2.40922 0
M  V30 1627 H 164.671 -3.8764 -3.92987 0
M  V30 1628 H 165.148 -2.18439 -3.81026 0
M  V30 1629 H 165.754 -3.35397 -2.61513 0
M  V30 1630 N 164.069 0.697108 -1.41344 0
M  V30 1631 C 165.48 1.27697 -1.36199 0
M  V30 1632 C 165.831 1.9615 -0.0443463 0
M  V30 1633 O 164.956 1.98689 0.857419 0
M  V30 1634 C 165.551 2.32223 -2.46694 0
M  V30 1635 C 164.11 2.8579 -2.44952 0
M  V30 1636 C 163.257 1.59807 -2.26621 0
M  V30 1637 H 166.208 0.491968 -1.50882 0
M  V30 1638 H 166.229 3.1348 -2.15664 0
M  V30 1639 H 165.741 1.82373 -3.42581 0
M  V30 1640 H 163.842 3.3982 -1.52817 0
M  V30 1641 H 163.955 3.36325 -3.41207 0
M  V30 1642 H 162.319 1.8556 -1.7447 0
M  V30 1643 H 163.102 1.11956 -3.24532 0
M  V30 1644 N 165.547 1.27147 0.931209 0
M  V30 1645 C 166.824 1.0401 1.65654 0
M  V30 1646 C 167.204 -0.426297 2.06751 0
M  V30 1647 O 166.552 -1.40879 1.79904 0
M  V30 1648 C 166.762 1.99834 2.86125 0
M  V30 1649 C 168.11 2.29007 3.57549 0
M  V30 1650 O 169.134 1.97779 2.96246 0
M  V30 1651 O 167.993 2.82222 4.67989 0
M  V30 1652 H 165.087 0.396239 0.725895 0
M  V30 1653 H 167.633 1.38397 0.982056 0
M  V30 1654 H 166.405 2.98744 2.52721 0
M  V30 1655 H 166.028 1.65987 3.61295 0
M  V30 1656 N 167.025 -1.13721 1.09112 0
M  V30 1657 C 167.955 -2.21148 0.749385 0
M  V30 1658 C 168.936 -1.6792 -0.271475 0
M  V30 1659 O 170.121 -1.93693 -0.140251 0
M  V30 1660 C 167.251 -3.46905 0.165659 0
M  V30 1661 C 166.205 -4.13203 1.11567 0
M  V30 1662 C 165.531 -5.33248 0.393809 0
M  V30 1663 C 166.831 -4.60912 2.45678 0
M  V30 1664 H 168.525 -2.4999 1.64758 0
M  V30 1665 H 166.071 -1.20156 0.793626 0
M  V30 1666 H 168.024 -4.21313 -0.085466 0
M  V30 1667 H 166.748 -3.17449 -0.767714 0
M  V30 1668 H 165.407 -3.40758 1.35202 0
M  V30 1669 H 165.055 -5.00054 -0.543599 0
M  V30 1670 H 164.755 -5.78552 1.02721 0
M  V30 1671 H 166.279 -6.10413 0.150908 0
M  V30 1672 H 167.693 -5.26759 2.26269 0
M  V30 1673 H 166.09 -5.16944 3.04776 0
M  V30 1674 H 167.16 -3.75603 3.06677 0
M  V30 1675 N 168.503 -0.877838 -1.30888 0
M  V30 1676 C 169.731 -0.507414 -2.00581 0
M  V30 1677 C 170.146 0.902216 -1.65848 0
M  V30 1678 O 169.503 1.59225 -0.891831 0
M  V30 1679 C 169.554 -0.664162 -3.55347 0
M  V30 1680 O 169.275 -2.01829 -3.8884 0
M  V30 1681 C 170.776 -0.295787 -4.42312 0
M  V30 1682 H 167.996 -0.196866 -0.641471 0
M  V30 1683 H 170.54 -1.18117 -1.66939 0
M  V30 1684 H 168.695 -0.0378619 -3.87381 0
M  V30 1685 H 169.109 -2.03174 -4.8355 0
M  V30 1686 H 170.583 -0.456388 -5.5011 0
M  V30 1687 H 171.06 0.765663 -4.32475 0
M  V30 1688 H 171.666 -0.898113 -4.15709 0
M  V30 1689 N 169.982 1.44106 -0.638065 0
M  V30 1690 C 171.398 1.56672 -0.304286 0
M  V30 1691 C 171.598 1.6244 1.19228 0
M  V30 1692 O 170.654 1.57121 1.9766 0
M  V30 1693 C 171.967 2.83503 -1.00231 0
M  V30 1694 C 173.515 2.97226 -0.981116 0
M  V30 1695 C 173.99 4.26868 -1.65974 0
M  V30 1696 N 175.481 4.33698 -1.62666 0
M  V30 1697 C 176.216 5.32745 -2.12063 0
M  V30 1698 N 175.712 6.38157 -2.6968 0
M  V30 1699 N 177.505 5.24299 -2.02651 0
M  V30 1700 H 169.656 1.38605 -1.60942 0
M  V30 1701 H 171.919 0.664661 -0.675965 0
M  V30 1702 H 171.625 2.85251 -2.0573 0
M  V30 1703 H 171.499 3.73251 -0.54439 0
M  V30 1704 H 173.886 2.95027 0.0654188 0
M  V30 1705 H 173.967 2.08808 -1.47759 0
M  V30 1706 H 173.611 4.29826 -2.70576 0
M  V30 1707 H 173.541 5.14156 -1.13804 0
M  V30 1708 H 176.032 3.58138 -1.20606 0
M  V30 1709 H 176.345 7.10029 -3.05087 0
M  V30 1710 H 174.69 6.38823 -2.73734 0
M  V30 1711 H 177.881 4.4086 -1.57353 0
M  V30 1712 H 178.054 6.01334 -2.41457 0
M  V30 1713 N 171.46 0.379036 1.52974 0
M  V30 1714 C 172.737 -0.263479 1.93817 0
M  V30 1715 C 173.117 -1.65244 1.31368 0
M  V30 1716 O 172.465 -2.23448 0.477856 0
M  V30 1717 C 172.675 -0.300166 3.47707 0
M  V30 1718 C 174.023 -0.534061 4.21228 0
M  V30 1719 O 175.047 -0.38081 3.54159 0
M  V30 1720 O 173.906 -0.833501 5.40106 0
M  V30 1721 H 171 -0.161149 0.811147 0
M  V30 1722 H 173.546 0.432798 1.64088 0
M  V30 1723 H 172.318 0.673138 3.85467 0
M  V30 1724 H 171.941 -1.04179 3.83709 0
M  V30 1725 N 172.938 -1.57226 0.108567 0
M  V30 1726 C 173.868 -2.17778 -0.84232 0
M  V30 1727 C 174.849 -1.11487 -1.2847 0
M  V30 1728 O 176.034 -1.39681 -1.34918 0
M  V30 1729 C 173.164 -2.76888 -2.09644 0
M  V30 1730 C 172.118 -3.88669 -1.79221 0
M  V30 1731 C 171.444 -4.34541 -3.11574 0
M  V30 1732 C 172.744 -5.11251 -1.06864 0
M  V30 1733 H 174.438 -2.97489 -0.337774 0
M  V30 1734 H 171.984 -1.43097 -0.161025 0
M  V30 1735 H 173.937 -3.17904 -2.76614 0
M  V30 1736 H 172.661 -1.94451 -2.62405 0
M  V30 1737 H 171.32 -3.48213 -1.14644 0
M  V30 1738 H 170.968 -3.48977 -3.62249 0
M  V30 1739 H 170.668 -5.09914 -2.91996 0
M  V30 1740 H 172.192 -4.782 -3.7968 0
M  V30 1741 H 173.606 -5.49352 -1.63968 0
M  V30 1742 H 172.003 -5.9214 -0.974178 0
M  V30 1743 H 173.073 -4.8487 -0.0536168 0
M  V30 1744 N 174.416 0.165178 -1.56732 0
M  V30 1745 C 175.664 0.879068 -1.8198 0
M  V30 1746 C 175.985 1.82514 -0.686561 0
M  V30 1747 O 175.255 1.93694 0.293146 0
M  V30 1748 H 173.835 0.327608 -0.671329 0
M  V30 1749 H 176.497 0.163526 -1.94213 0
M  V30 1750 H 175.593 1.45228 -2.76252 0
M  V30 1751 N 175.894 1.51508 0.433938 0
M  V30 1752 C 177.141 1.64345 1.18309 0
M  V30 1753 C 177.469 0.361315 1.91115 0
M  V30 1754 O 176.724 -0.654753 1.84422 0
M  V30 1755 C 177.023 2.79928 2.22205 0
M  V30 1756 C 176.689 4.19078 1.66387 0
M  V30 1757 C 175.351 4.56932 1.50887 0
M  V30 1758 C 177.703 5.05894 1.25381 0
M  V30 1759 C 175.031 5.79305 0.928608 0
M  V30 1760 C 177.383 6.2885 0.687823 0
M  V30 1761 C 176.047 6.65473 0.519755 0
M  V30 1762 H 175.317 0.601381 0.432923 0
M  V30 1763 H 177.964 1.85549 0.473676 0
M  V30 1764 H 176.269 2.52959 2.99197 0
M  V30 1765 H 177.966 2.87059 2.79997 0
M  V30 1766 H 174.556 3.89234 1.79428 0
M  V30 1767 H 178.74 4.77253 1.36175 0
M  V30 1768 H 173.996 6.06324 0.786186 0
M  V30 1769 H 178.17 6.95461 0.361581 0
M  V30 1770 H 175.797 7.6017 0.0679979 0
M  V30 1771 N 177.372 -0.689602 1.41712 0
M  V30 1772 C 178.649 -1.44457 1.31877 0
M  V30 1773 C 179.029 -2.11039 -0.0508537 0
M  V30 1774 O 178.377 -2.02138 -1.06547 0
M  V30 1775 C 178.587 -2.45913 2.47645 0
M  V30 1776 C 179.935 -3.10991 2.89084 0
M  V30 1777 O 180.959 -2.56238 2.47428 0
M  V30 1778 O 179.818 -4.10174 3.61137 0
M  V30 1779 H 176.912 -0.64362 0.519309 0
M  V30 1780 H 179.458 -0.719576 1.53689 0
M  V30 1781 H 178.23 -1.95409 3.39015 0
M  V30 1782 H 177.853 -3.25913 2.27742 0
M  V30 1783 N 178.85 -1.27639 -0.924453 0
M  V30 1784 C 180.08 -1.16819 -1.70402 0
M  V30 1785 C 180.488 0.277191 -1.87158 0
M  V30 1786 O 179.831 1.20025 -1.39067 0
M  V30 1787 C 179.893 -1.78305 -3.12166 0
M  V30 1788 C 179.557 -3.27502 -3.18734 0
M  V30 1789 C 180.554 -4.2409 -3.00738 0
M  V30 1790 C 178.239 -3.68269 -3.4159 0
M  V30 1791 C 180.233 -5.59422 -3.05492 0
M  V30 1792 C 177.92 -5.0373 -3.45977 0
M  V30 1793 C 178.918 -5.99116 -3.27946 0
M  V30 1794 O 178.606 -7.32108 -3.32074 0
M  V30 1795 H 178.338 -0.406931 -0.539799 0
M  V30 1796 H 180.892 -1.69078 -1.16626 0
M  V30 1797 H 179.122 -1.20528 -3.67437 0
M  V30 1798 H 180.811 -1.62154 -3.72103 0
M  V30 1799 H 181.577 -3.93931 -2.82919 0
M  V30 1800 H 177.456 -2.94496 -3.54673 0
M  V30 1801 H 181 -6.33852 -2.91337 0
M  V30 1802 H 176.897 -5.33543 -3.63321 0
M  V30 1803 H 177.665 -7.40598 -3.48507 0
M  V30 1804 N 180.328 1.1314 -1.09713 0
M  V30 1805 C 181.258 2.20748 -0.761102 0
M  V30 1806 C 182.239 1.68061 0.262566 0
M  V30 1807 O 183.424 1.93765 0.129977 0
M  V30 1808 C 180.554 3.46812 -0.184054 0
M  V30 1809 C 179.508 4.12606 -1.13757 0
M  V30 1810 C 178.834 5.33031 -0.422083 0
M  V30 1811 C 180.134 4.59603 -2.48118 0
M  V30 1812 H 181.828 2.49113 -1.66082 0
M  V30 1813 H 179.374 1.19734 -0.799987 0
M  V30 1814 H 181.327 4.21353 0.0631215 0
M  V30 1815 H 180.051 3.17851 0.750868 0
M  V30 1816 H 178.71 3.40036 -1.37007 0
M  V30 1817 H 178.358 5.00335 0.517072 0
M  V30 1818 H 178.058 5.77999 -1.05788 0
M  V30 1819 H 179.582 6.10325 -0.183277 0
M  V30 1820 H 180.996 5.25552 -2.29059 0
M  V30 1821 H 179.393 5.15321 -3.07514 0
M  V30 1822 H 180.463 3.73971 -3.08665 0
M  V30 1823 N 181.806 0.884767 1.30421 0
M  V30 1824 C 182.738 0.308655 2.27112 0
M  V30 1825 C 183.751 -0.536655 1.53701 0
M  V30 1826 O 184.94 -0.35624 1.74909 0
M  V30 1827 C 182.04 -0.579782 3.33904 0
M  V30 1828 C 181.213 0.236417 4.36761 0
M  V30 1829 C 180.272 -0.582482 5.22966 0
M  V30 1830 O 179.298 -0.00525502 5.692 0
M  V30 1831 N 180.5 -1.89163 5.48815 0
M  V30 1832 H 183.265 1.13964 2.77186 0
M  V30 1833 H 180.826 0.747731 1.43599 0
M  V30 1834 H 182.818 -1.13366 3.88497 0
M  V30 1835 H 181.388 -1.31144 2.83761 0
M  V30 1836 H 180.608 0.97174 3.82035 0
M  V30 1837 H 181.896 0.795924 5.02536 0
M  V30 1838 H 181.294 -2.38352 5.13035 0
M  V30 1839 H 179.851 -2.39296 6.06284 0
M  V30 1840 N 183.284 -1.43765 0.645699 0
M  V30 1841 C 184.509 -2.06767 0.161883 0
M  V30 1842 C 184.934 -1.48034 -1.16049 0
M  V30 1843 O 184.292 -0.587369 -1.71522 0
M  V30 1844 C 184.34 -3.60519 0.0762003 0
M  V30 1845 O 183.444 -4.00982 -0.963721 0
M  V30 1846 H 182.785 -0.657675 0.091429 0
M  V30 1847 H 185.315 -1.84397 0.886499 0
M  V30 1848 H 185.325 -4.07853 -0.109604 0
M  V30 1849 H 184 -4.02646 1.04157 0
M  V30 1850 H 182.577 -3.65253 -0.751312 0
M  V30 1851 N 184.763 -0.387143 -1.52771 0
M  V30 1852 C 186.01 0.195735 -2.01552 0
M  V30 1853 C 186.338 1.46995 -1.27369 0
M  V30 1854 O 185.593 1.92325 -0.361879 0
M  V30 1855 C 185.892 0.512209 -3.53711 0
M  V30 1856 C 185.558 -0.670202 -4.45891 0
M  V30 1857 C 184.22 -0.994586 -4.70809 0
M  V30 1858 C 186.572 -1.46134 -5.00294 0
M  V30 1859 C 183.9 -2.11169 -5.4738 0
M  V30 1860 C 186.252 -2.56903 -5.78086 0
M  V30 1861 C 184.916 -2.89852 -6.01284 0
M  V30 1862 H 184.186 0.0716246 -0.73753 0
M  V30 1863 H 186.833 -0.524046 -1.8419 0
M  V30 1864 H 185.138 1.31329 -3.69134 0
M  V30 1865 H 186.835 0.975804 -3.88946 0
M  V30 1866 H 183.425 -0.407366 -4.2666 0
M  V30 1867 H 187.609 -1.22397 -4.80971 0
M  V30 1868 H 182.865 -2.3707 -5.63567 0
M  V30 1869 H 187.039 -3.18608 -6.19243 0
M  V30 1870 H 184.666 -3.76533 -6.60399 0
M  V30 1871 N 186.241 1.57166 -0.116904 0
M  V30 1872 C 187.49 1.94298 0.541407 0
M  V30 1873 C 187.803 1.00236 1.67964 0
M  V30 1874 O 189.009 1.26826 2.40057 0
M  V30 1875 C 187.465 3.45306 1.01449 0
M  V30 1876 C 187.073 4.47899 -0.0951738 0
M  V30 1877 C 188.817 3.91361 1.6443 0
M  V30 1878 C 186.724 5.90083 0.394491 0
M  V30 1879 H 185.654 0.725308 0.206019 0
M  V30 1880 H 188.305 1.82446 -0.196419 0
M  V30 1881 H 186.687 3.52385 1.80667 0
M  V30 1882 H 187.861 4.52486 -0.871374 0
M  V30 1883 H 186.176 4.11583 -0.631505 0
M  V30 1884 H 188.773 4.95004 2.02176 0
M  V30 1885 H 189.116 3.3122 2.52189 0
M  V30 1886 H 189.649 3.87073 0.917559 0
M  V30 1887 H 186.388 6.53974 -0.447004 0
M  V30 1888 H 185.908 5.88921 1.13722 0
M  V30 1889 H 187.587 6.41307 0.856399 0
M  V30 1890 N 187.719 -0.156864 1.56817 0
M  V30 1891 C 188.947 -0.886316 1.86955 0
M  V30 1892 C 189.362 -1.75185 0.703975 0
M  V30 1893 O 188.719 -1.79555 -0.326552 0
M  V30 1894 C 188.77 -1.75117 3.16253 0
M  V30 1895 O 188.491 -0.920537 4.2832 0
M  V30 1896 C 189.992 -2.58905 3.59837 0
M  V30 1897 H 187.212 -0.25678 0.619923 0
M  V30 1898 H 189.756 -0.152615 2.0393 0
M  V30 1899 H 187.911 -2.43805 3.01062 0
M  V30 1900 H 188.325 -1.51337 5.02192 0
M  V30 1901 H 189.799 -3.1518 4.53172 0
M  V30 1902 H 190.276 -3.34472 2.84649 0
M  V30 1903 H 190.882 -1.95526 3.7769 0
M  V30 1904 N 189.197 -1.51736 -0.425897 0
M  V30 1905 C 190.427 -1.68549 -1.19476 0
M  V30 1906 C 190.835 -0.387288 -1.85194 0
M  V30 1907 O 190.178 0.645142 -1.71999 0
M  V30 1908 C 190.24 -2.75275 -2.31223 0
M  V30 1909 C 189.904 -4.17534 -1.8578 0
M  V30 1910 C 190.901 -5.01936 -1.35485 0
M  V30 1911 C 188.586 -4.6369 -1.93123 0
M  V30 1912 C 190.58 -6.30559 -0.931347 0
M  V30 1913 C 188.267 -5.92307 -1.50384 0
M  V30 1914 C 189.265 -6.75569 -1.00473 0
M  V30 1915 O 188.953 -8.0178 -0.583452 0
M  V30 1916 H 188.685 -0.568525 -0.365725 0
M  V30 1917 H 191.239 -1.98982 -0.509444 0
M  V30 1918 H 189.469 -2.40182 -3.03067 0
M  V30 1919 H 191.158 -2.80853 -2.93047 0
M  V30 1920 H 191.924 -4.67475 -1.29197 0
M  V30 1921 H 187.803 -3.98997 -2.30916 0
M  V30 1922 H 191.347 -6.95498 -0.541084 0
M  V30 1923 H 187.244 -6.2628 -1.56346 0
M  V30 1924 H 188.012 -8.1543 -0.708275 0
M  V30 1925 N 190.675 0.682077 -1.42076 0
M  V30 1926 C 191.923 1.4393 -1.41876 0
M  V30 1927 C 192.244 1.94971 -0.0335599 0
M  V30 1928 O 191.514 1.72591 0.926773 0
M  V30 1929 H 190.094 0.534085 -0.522267 0
M  V30 1930 H 192.756 0.806427 -1.77434 0
M  V30 1931 H 191.852 2.29588 -2.11414 0
M  V30 1932 N 192.153 1.28127 0.917671 0
M  V30 1933 C 193.378 1.18007 1.70555 0
M  V30 1934 C 193.803 -0.258257 1.86319 0
M  V30 1935 O 193.161 -1.1869 1.37049 0
M  V30 1936 C 193.209 1.87948 3.07746 0
M  V30 1937 O 192.313 1.18427 3.9503 0
M  V30 1938 H 191.654 0.409867 0.522403 0
M  V30 1939 H 194.184 1.69379 1.1477 0
M  V30 1940 H 194.194 1.95701 3.58001 0
M  V30 1941 H 192.869 2.92573 2.95591 0
M  V30 1942 H 191.446 1.18811 3.53466 0
M  V30 1943 N 193.631 -1.12557 1.10312 0
M  V30 1944 C 195.042 -1.65574 0.862678 0
M  V30 1945 C 195.393 -1.86566 -0.607256 0
M  V30 1946 O 194.518 -1.59121 -1.46662 0
M  V30 1947 C 195.113 -3.00776 1.55947 0
M  V30 1948 C 193.672 -3.50748 1.36576 0
M  V30 1949 C 192.819 -2.25797 1.60968 0
M  V30 1950 H 195.77 -0.963552 1.26101 0
M  V30 1951 H 195.791 -3.67185 0.997753 0
M  V30 1952 H 195.303 -2.85465 2.62928 0
M  V30 1953 H 193.404 -3.71245 0.317531 0
M  V30 1954 H 193.517 -4.30289 2.10686 0
M  V30 1955 H 191.881 -2.32841 1.03234 0
M  V30 1956 H 192.664 -2.13043 2.69198 0
M  V30 1957 N 195.109 -0.891671 -1.2995 0
M  V30 1958 C 196.072 -0.36828 -2.26222 0
M  V30 1959 C 197.072 0.493014 -1.53056 0
M  V30 1960 O 198.262 0.299213 -1.71611 0
M  V30 1961 C 195.394 0.47442 -3.37583 0
M  V30 1962 H 196.587 -1.21844 -2.74033 0
M  V30 1963 H 194.14 -0.669107 -1.41254 0
M  V30 1964 H 194.875 1.34489 -2.95099 0
M  V30 1965 H 194.66 -0.142615 -3.91841 0
M  V30 1966 H 196.15 0.83218 -4.09224 0
M  V30 1967 N 196.587 1.43421 -0.653314 0
M  V30 1968 C 197.835 2.01414 -0.166415 0
M  V30 1969 C 198.156 1.51803 1.22397 0
M  V30 1970 O 197.426 0.730693 1.81763 0
M  V30 1971 H 196.006 0.744703 -0.0585319 0
M  V30 1972 H 198.668 1.75629 -0.845003 0
M  V30 1973 H 197.764 3.11734 -0.151111 0
M  V30 1974 N 198.065 0.39524 1.52563 0
M  V30 1975 C 198.998 -0.4813 2.23067 0
M  V30 1976 C 199.976 -1.05927 1.23362 0
M  V30 1977 O 201.16 -1.10979 1.52368 0
M  V30 1978 C 198.287 -1.66676 2.9485 0
M  V30 1979 C 197.333 -1.21348 4.08873 0
M  V30 1980 S 198.166 -0.190102 5.35162 0
M  V30 1981 C 199.322 -1.38121 6.1047 0
M  V30 1982 H 199.555 0.117381 2.97068 0
M  V30 1983 H 197.088 0.179458 1.53354 0
M  V30 1984 H 199.046 -2.3466 3.36816 0
M  V30 1985 H 197.707 -2.23676 2.20518 0
M  V30 1986 H 196.9 -2.09877 4.58222 0
M  V30 1987 H 196.502 -0.612486 3.68951 0
M  V30 1988 H 198.794 -2.30726 6.37002 0
M  V30 1989 H 199.737 -0.928521 7.01986 0
M  V30 1990 H 200.145 -1.60071 5.41329 0
M  V30 1991 N 199.544 -1.57102 0.125237 0
M  V30 1992 C 200.955 -1.82384 -0.399142 0
M  V30 1993 C 201.306 -1.04276 -1.66195 0
M  V30 1994 O 200.431 -0.281269 -2.14564 0
M  V30 1995 C 201.026 -3.30821 -0.730932 0
M  V30 1996 C 199.585 -3.56762 -1.19992 0
M  V30 1997 C 198.732 -2.7649 -0.211792 0
M  V30 1998 H 201.683 -1.54786 0.350277 0
M  V30 1999 H 201.704 -3.4579 -1.58775 0
M  V30 2000 H 201.216 -3.87643 0.188345 0
M  V30 2001 H 199.317 -3.05305 -2.13588 0
M  V30 2002 H 199.43 -4.65317 -1.14093 0
M  V30 2003 H 197.794 -2.4489 -0.700085 0
M  V30 2004 H 198.577 -3.36073 0.700691 0
M  V30 2005 N 201.022 0.148545 -1.56898 0
M  V30 2006 C 201.97 1.20265 -1.99096 0
M  V30 2007 C 202.964 1.44559 -0.883123 0
M  V30 2008 O 204.17 1.4487 -1.0683 0
M  V30 2009 H 200.545 0.404786 -0.63376 0
M  V30 2010 H 202.516 0.82004 -2.86911 0
M  V30 2011 C 201.265 2.52886 -2.3863 0
M  V30 2012 H 200.588 2.35021 -3.23427 0
M  V30 2013 H 202.028 3.25274 -2.7198 0
M  V30 2014 C 200.487 3.13315 -1.23837 0
M  V30 2015 O 201.017 3.98077 -0.538268 0
M  V30 2016 N 199.223 2.72742 -1.00301 0
M  V30 2017 H 198.77 2.03912 -1.5741 0
M  V30 2018 H 198.728 3.13507 -0.236838 0
M  V30 2019 N 202.5 1.5196 0.417844 0
M  V30 2020 C 203.746 1.66793 1.16411 0
M  V30 2021 C 204.101 0.388758 1.88432 0
M  V30 2022 O 203.394 -0.616409 1.81414 0
M  V30 2023 C 203.588 2.82269 2.19223 0
M  V30 2024 C 203.417 4.21293 1.57297 0
M  V30 2025 C 202.187 4.86948 1.34944 0
M  V30 2026 C 204.385 5.03704 1.03858 0
M  V30 2027 N 202.367 6.1003 0.688195 0
M  V30 2028 C 203.738 6.1795 0.503742 0
M  V30 2029 C 205.793 4.89095 0.932203 0
M  V30 2030 C 204.496 7.19188 -0.127034 0
M  V30 2031 C 206.522 5.90559 0.315293 0
M  V30 2032 C 205.884 7.0409 -0.208906 0
M  V30 2033 H 201.983 0.66407 0.412959 0
M  V30 2034 H 204.567 1.89242 0.457772 0
M  V30 2035 H 202.738 2.61451 2.87225 0
M  V30 2036 H 204.47 2.86183 2.86149 0
M  V30 2037 H 201.225 4.45156 1.61657 0
M  V30 2038 H 201.649 6.75964 0.374449 0
M  V30 2039 H 206.291 4.01557 1.32332 0
M  V30 2040 H 204.009 8.06359 -0.530231 0
M  V30 2041 H 207.595 5.81327 0.234625 0
M  V30 2042 H 206.475 7.81257 -0.67875 0
M  V30 2043 N 203.978 -0.674533 1.42435 0
M  V30 2044 C 205.226 -1.43175 1.42637 0
M  V30 2045 C 205.547 -1.94951 0.0438992 0
M  V30 2046 O 204.817 -1.7308 -0.917607 0
M  V30 2047 H 203.397 -0.531307 0.525092 0
M  V30 2048 H 206.059 -0.797006 1.77859 0
M  V30 2049 H 205.155 -2.28463 2.12629 0
M  V30 2050 N 205.456 -1.28612 -0.910864 0
M  V30 2051 C 206.684 -1.18792 -1.69399 0
M  V30 2052 C 207.099 0.253039 -1.87097 0
M  V30 2053 O 206.456 1.17071 -1.40003 0
M  V30 2054 C 206.507 -1.88511 -3.08457 0
M  V30 2055 O 206.228 -3.26979 -2.91576 0
M  V30 2056 C 207.729 -1.85029 -4.02839 0
M  V30 2057 H 204.949 -0.412233 -0.529438 0
M  V30 2058 H 207.493 -1.69788 -1.13984 0
M  V30 2059 H 205.648 -1.41379 -3.60681 0
M  V30 2060 H 206.062 -3.61936 -3.79608 0
M  V30 2061 H 207.536 -2.38395 -4.97867 0
M  V30 2062 H 208.013 -0.823303 -4.31414 0
M  V30 2063 H 208.619 -2.31853 -3.56545 0
M  V30 2064 N 206.934 1.1197 -1.10907 0
M  V30 2065 C 208.159 1.87942 -0.877064 0
M  V30 2066 C 208.584 1.79341 0.567314 0
M  V30 2067 O 207.942 1.15184 1.40009 0
M  V30 2068 C 207.99 3.34926 -1.33629 0
M  V30 2069 O 207.094 4.09303 -0.504447 0
M  V30 2070 H 206.435 0.583785 -0.316371 0
M  V30 2071 H 208.965 1.4157 -1.47712 0
M  V30 2072 H 208.975 3.8577 -1.32837 0
M  V30 2073 H 207.65 3.40504 -2.3881 0
M  V30 2074 H 206.227 3.68393 -0.577993 0
M  V30 2075 N 208.412 0.89855 1.29475 0
M  V30 2076 C 209.66 0.522847 1.9522 0
M  V30 2077 C 209.981 -0.93371 1.71192 0
M  V30 2078 O 209.251 -1.65823 1.04305 0
M  V30 2079 H 207.831 0.190366 0.722336 0
M  V30 2080 H 210.493 1.14459 1.5775 0
M  V30 2081 H 209.589 0.704476 3.04045 0
M  V30 2082 N 209.89 -1.43072 0.660911 0
M  V30 2083 C 210.8 -2.34585 -0.0264163 0
M  V30 2084 C 211.816 -1.54316 -0.803898 0
M  V30 2085 O 212.992 -1.86939 -0.749391 0
M  V30 2086 C 210.057 -3.32689 -0.975639 0
M  V30 2087 C 209.118 -4.2886 -0.194236 0
M  V30 2088 C 208.351 -5.22278 -1.09825 0
M  V30 2089 O 208.574 -5.20299 -2.33763 0
M  V30 2090 O 207.508 -5.99228 -0.566513 0
M  V30 2091 H 211.334 -2.94869 0.727034 0
M  V30 2092 H 208.919 -1.43342 0.42111 0
M  V30 2093 H 210.801 -3.92995 -1.52094 0
M  V30 2094 H 209.476 -2.74898 -1.70918 0
M  V30 2095 H 208.383 -3.72011 0.394835 0
M  V30 2096 H 209.716 -4.89655 0.499899 0
M  V30 2097 N 211.368 -0.403325 -1.52352 0
M  V30 2098 C 212.298 0.416205 -2.29761 0
M  V30 2099 C 213.279 1.05123 -1.33728 0
M  V30 2100 O 214.464 1.06134 -1.62632 0
M  V30 2101 C 211.594 1.53624 -3.11475 0
M  V30 2102 C 210.548 1.02653 -4.15507 0
M  V30 2103 C 209.874 2.23971 -4.85532 0
M  V30 2104 C 211.174 0.08463 -5.22231 0
M  V30 2105 H 212.868 -0.229701 -2.98518 0
M  V30 2106 H 210.414 -0.111913 -1.43564 0
M  V30 2107 H 212.367 2.1165 -3.64393 0
M  V30 2108 H 211.091 2.20994 -2.40477 0
M  V30 2109 H 209.75 0.46871 -3.63591 0
M  V30 2110 H 209.398 2.89883 -4.11068 0
M  V30 2111 H 209.098 1.90521 -5.55856 0
M  V30 2112 H 210.622 2.82614 -5.41259 0
M  V30 2113 H 212.036 0.573509 -5.70424 0
M  V30 2114 H 210.433 -0.160783 -5.99885 0
M  V30 2115 H 211.503 -0.86237 -4.7717 0
M  V30 2116 N 212.846 1.57033 -0.133567 0
M  V30 2117 C 214.071 2.00475 0.531477 0
M  V30 2118 C 214.496 1.01291 1.58499 0
M  V30 2119 O 213.854 -0.0133279 1.81295 0
M  V30 2120 C 213.902 3.42729 1.12113 0
M  V30 2121 O 213.006 3.46498 2.23636 0
M  V30 2122 H 212.347 0.650876 0.131362 0
M  V30 2123 H 214.877 2.03344 -0.22634 0
M  V30 2124 H 214.887 3.81246 1.4531 0
M  V30 2125 H 213.562 4.14428 0.349557 0
M  V30 2126 H 212.139 3.19811 1.91769 0
M  V30 2127 N 214.325 -0.140222 1.56975 0
M  V30 2128 C 215.288 -1.15689 1.97861 0
M  V30 2129 C 216.288 -1.3549 0.865974 0
M  V30 2130 O 217.478 -1.32367 1.13246 0
M  V30 2131 C 214.61 -2.51582 2.30042 0
M  V30 2132 H 215.803 -0.805971 2.88867 0
M  V30 2133 H 213.356 -0.383801 1.51515 0
M  V30 2134 H 214.091 -2.91632 1.41849 0
M  V30 2135 H 213.876 -2.38569 3.11171 0
M  V30 2136 H 215.366 -3.24792 2.62488 0
M  V30 2137 N 215.803 -1.52179 -0.40978 0
M  V30 2138 C 216.713 -1.78364 -1.52392 0
M  V30 2139 C 217.729 -0.669183 -1.60617 0
M  V30 2140 O 218.905 -0.954518 -1.77344 0
M  V30 2141 C 215.97 -1.92822 -2.88133 0
M  V30 2142 C 215.031 -3.16725 -2.898 0
M  V30 2143 C 214.264 -3.30483 -4.19067 0
M  V30 2144 O 214.487 -2.49522 -5.12928 0
M  V30 2145 O 213.421 -4.2363 -4.27576 0
M  V30 2146 H 217.247 -2.72931 -1.33201 0
M  V30 2147 H 214.832 -1.37016 -0.59557 0
M  V30 2148 H 216.714 -2.04157 -3.68643 0
M  V30 2149 H 215.389 -1.01444 -3.07393 0
M  V30 2150 H 214.296 -3.10848 -2.08146 0
M  V30 2151 H 215.629 -4.07881 -2.75489 0
M  V30 2152 N 217.281 0.66697 -1.42791 0
M  V30 2153 C 218.213 1.7925 -1.42836 0
M  V30 2154 C 219.226 1.59496 -0.326333 0
M  V30 2155 O 220.415 1.6847 -0.589916 0
M  V30 2156 C 217.515 3.16476 -1.21229 0
M  V30 2157 C 216.688 3.63011 -2.44013 0
M  V30 2158 C 215.747 4.78993 -2.17834 0
M  V30 2159 O 214.773 4.89137 -2.91091 0
M  V30 2160 N 215.975 5.68248 -1.18635 0
M  V30 2161 H 218.74 1.79695 -2.39854 0
M  V30 2162 H 216.301 0.850338 -1.37771 0
M  V30 2163 H 218.293 3.91734 -1.01621 0
M  V30 2164 H 216.863 3.10884 -0.32706 0
M  V30 2165 H 216.083 2.78346 -2.79137 0
M  V30 2166 H 217.371 3.90845 -3.25757 0
M  V30 2167 H 216.769 5.62712 -0.580615 0
M  V30 2168 H 215.326 6.43285 -1.05013 0
M  V30 2169 N 218.759 1.29093 0.90403 0
M  V30 2170 C 220.005 1.16986 1.65656 0
M  V30 2171 C 220.338 -0.278925 1.92186 0
M  V30 2172 O 219.613 -1.2019 1.5292 0
M  V30 2173 C 219.896 1.97908 3.0084 0
M  V30 2174 C 219.749 3.50903 2.81403 0
M  V30 2175 C 221.068 1.80208 4.01513 0
M  V30 2176 H 218.187 0.426346 0.601164 0
M  V30 2177 H 220.829 1.58518 1.04747 0
M  V30 2178 H 218.979 1.62616 3.52829 0
M  V30 2179 H 220.651 3.96153 2.36348 0
M  V30 2180 H 218.894 3.76045 2.1627 0
M  V30 2181 H 219.565 4.02791 3.77443 0
M  V30 2182 H 222.041 2.11025 3.58619 0
M  V30 2183 H 220.917 2.39184 4.94047 0
M  V30 2184 H 221.178 0.756119 4.35586 0
M  V30 2185 N 220.237 -1.11381 1.11499 0
M  V30 2186 C 221.514 -1.7955 0.775965 0
M  V30 2187 C 221.894 -1.97859 -0.73588 0
M  V30 2188 O 221.242 -1.56376 -1.66609 0
M  V30 2189 C 221.452 -3.13196 1.53977 0
M  V30 2190 C 222.8 -3.88227 1.71944 0
M  V30 2191 O 223.824 -3.22887 1.50407 0
M  V30 2192 O 222.683 -5.05477 2.07738 0
M  V30 2193 H 219.777 -0.777728 0.28119 0
M  V30 2194 H 222.323 -1.18118 1.21845 0
M  V30 2195 H 221.095 -2.95229 2.56818 0
M  V30 2196 H 220.718 -3.82342 1.09088 0
M  V30 2197 N 221.715 -0.905404 -1.28997 0
M  V30 2198 C 222.645 -0.404212 -2.29975 0
M  V30 2199 C 223.626 0.523784 -1.61835 0
M  V30 2200 O 224.811 0.433298 -1.89304 0
M  V30 2201 C 221.941 0.364042 -3.45387 0
M  V30 2202 C 220.895 -0.474048 -4.25367 0
M  V30 2203 C 220.221 0.422045 -5.33032 0
M  V30 2204 C 221.521 -1.72696 -4.92923 0
M  V30 2205 H 223.215 -1.24807 -2.72146 0
M  V30 2206 H 220.761 -0.601585 -1.30832 0
M  V30 2207 H 222.714 0.725447 -4.15109 0
M  V30 2208 H 221.438 1.24174 -3.02074 0
M  V30 2209 H 220.097 -0.81786 -3.57361 0
M  V30 2210 H 219.745 1.29804 -4.85963 0
M  V30 2211 H 219.445 -0.135057 -5.87445 0
M  V30 2212 H 220.969 0.779517 -6.05604 0
M  V30 2213 H 222.383 -1.43495 -5.55051 0
M  V30 2214 H 220.78 -2.22582 -5.57295 0
M  V30 2215 H 221.85 -2.45964 -4.17887 0
M  V30 2216 N 223.193 1.4272 -0.668489 0
M  V30 2217 C 224.126 2.28111 0.0637898 0
M  V30 2218 C 225.104 1.40705 0.814912 0
M  V30 2219 O 226.288 1.70146 0.81134 0
M  V30 2220 C 223.415 3.20429 1.0974 0
M  V30 2221 C 222.461 4.24197 0.442579 0
M  V30 2222 S 223.294 5.29563 -0.795173 0
M  V30 2223 C 224.45 6.25449 0.237516 0
M  V30 2224 H 224.683 2.8987 -0.660521 0
M  V30 2225 H 222.216 1.47456 -0.457821 0
M  V30 2226 H 224.174 3.74158 1.68868 0
M  V30 2227 H 222.835 2.57818 1.79411 0
M  V30 2228 H 222.028 4.88954 1.22227 0
M  V30 2229 H 221.63 3.73925 -0.0749554 0
M  V30 2230 H 223.922 6.68524 1.09915 0
M  V30 2231 H 224.865 7.07104 -0.375421 0
M  V30 2232 H 225.273 5.61511 0.580167 0
M  V30 2233 N 224.671 0.411399 1.52136 0
M  V30 2234 C 225.634 -0.401089 2.25663 0
M  V30 2235 C 226.634 -0.971732 1.28117 0
M  V30 2236 O 227.824 -0.850254 1.52041 0
M  V30 2237 C 224.956 -1.56483 3.02863 0
M  V30 2238 H 226.149 0.24295 2.98914 0
M  V30 2239 H 223.702 0.163968 1.55438 0
M  V30 2240 H 224.437 -2.24567 2.33967 0
M  V30 2241 H 224.222 -1.16211 3.74483 0
M  V30 2242 H 225.712 -2.13951 3.58629 0
M  V30 2243 N 226.149 -1.5696 0.141893 0
M  V30 2244 C 227.097 -2.17784 -0.816874 0
M  V30 2245 C 228.091 -1.1334 -1.25899 0
M  V30 2246 O 229.297 -1.316 -1.22806 0
M  V30 2247 H 225.672 -0.697278 -0.281615 0
M  V30 2248 H 227.643 -2.97087 -0.279621 0
M  V30 2249 C 226.392 -2.80983 -2.04802 0
M  V30 2250 H 225.715 -3.61062 -1.7168 0
M  V30 2251 H 227.155 -3.2705 -2.69841 0
M  V30 2252 C 225.614 -1.79228 -2.8527 0
M  V30 2253 O 226.144 -1.25962 -3.8144 0
M  V30 2254 N 224.35 -1.48647 -2.49704 0
M  V30 2255 H 223.897 -1.92155 -1.71564 0
M  V30 2256 H 223.855 -0.808115 -3.03837 0
M  V30 2257 N 227.627 0.131896 -1.57047 0
M  V30 2258 C 228.857 0.855219 -1.88068 0
M  V30 2259 C 229.265 1.74557 -0.729817 0
M  V30 2260 O 228.608 1.81083 0.308962 0
M  V30 2261 C 228.67 1.75119 -3.13964 0
M  V30 2262 C 228.334 1.03646 -4.45091 0
M  V30 2263 C 229.331 0.383276 -5.18485 0
M  V30 2264 C 227.016 1.02148 -4.91804 0
M  V30 2265 C 229.01 -0.275347 -6.36805 0
M  V30 2266 C 226.697 0.359047 -6.10044 0
M  V30 2267 C 227.695 -0.288222 -6.82392 0
M  V30 2268 O 227.383 -0.94011 -7.98384 0
M  V30 2269 H 227.115 0.251864 -0.627328 0
M  V30 2270 H 229.669 0.124782 -2.05021 0
M  V30 2271 H 227.899 2.52295 -2.9306 0
M  V30 2272 H 229.588 2.3478 -3.31109 0
M  V30 2273 H 230.354 0.386562 -4.83457 0
M  V30 2274 H 226.233 1.5147 -4.35405 0
M  V30 2275 H 229.777 -0.781148 -6.93213 0
M  V30 2276 H 225.674 0.35348 -6.44531 0
M  V30 2277 H 226.442 -0.84329 -8.14144 0
M  V30 2278 N 229.106 1.52395 0.401703 0
M  V30 2279 C 230.036 1.79231 1.49661 0
M  V30 2280 C 231.017 0.643654 1.57452 0
M  V30 2281 O 232.202 0.889989 1.72606 0
M  V30 2282 C 229.332 1.94971 2.87409 0
M  V30 2283 C 228.286 3.10604 2.94465 0
M  V30 2284 C 227.612 3.11577 4.34538 0
M  V30 2285 C 228.912 4.49921 2.6527 0
M  V30 2286 H 230.606 2.70917 1.27454 0
M  V30 2287 H 228.152 1.30362 0.6117 0
M  V30 2288 H 230.105 2.12328 3.63999 0
M  V30 2289 H 228.829 0.999632 3.10926 0
M  V30 2290 H 227.488 2.93009 2.20321 0
M  V30 2291 H 227.136 2.14277 4.55076 0
M  V30 2292 H 226.836 3.89247 4.40183 0
M  V30 2293 H 228.36 3.31073 5.13053 0
M  V30 2294 H 229.774 4.67683 3.31581 0
M  V30 2295 H 228.171 5.29564 2.82281 0
M  V30 2296 H 229.241 4.57507 1.60671 0
M  V30 2297 N 230.584 -0.659388 1.43143 0
M  V30 2298 C 231.514 -1.78422 1.50625 0
M  V30 2299 C 232.495 -1.66216 0.361443 0
M  V30 2300 O 233.68 -1.85404 0.577834 0
M  V30 2301 C 230.81 -3.16815 1.42287 0
M  V30 2302 C 229.764 -3.43777 2.54954 0
M  V30 2303 C 229.09 -4.81905 2.31671 0
M  V30 2304 C 230.39 -3.39134 3.97222 0
M  V30 2305 H 232.084 -1.72417 2.44771 0
M  V30 2306 H 229.63 -0.828084 1.17808 0
M  V30 2307 H 231.583 -3.95253 1.46127 0
M  V30 2308 H 230.307 -3.23534 0.446435 0
M  V30 2309 H 228.966 -2.67707 2.50457 0
M  V30 2310 H 228.614 -4.85294 1.32284 0
M  V30 2311 H 228.314 -5.00906 3.07192 0
M  V30 2312 H 229.838 -5.62609 2.37284 0
M  V30 2313 H 231.252 -4.07518 4.03239 0
M  V30 2314 H 229.649 -3.69671 4.72719 0
M  V30 2315 H 230.719 -2.37426 4.22797 0
M  V30 2316 N 232.062 -1.29571 -0.897171 0
M  V30 2317 C 232.992 -1.17473 -2.01798 0
M  V30 2318 C 233.973 -0.068323 -1.69963 0
M  V30 2319 O 235.158 -0.248239 -1.92607 0
M  V30 2320 C 232.288 -0.853099 -3.36659 0
M  V30 2321 C 231.242 -1.9161 -3.82713 0
M  V30 2322 C 230.568 -1.44773 -5.14728 0
M  V30 2323 C 231.868 -3.32535 -4.02763 0
M  V30 2324 H 233.562 -2.11237 -2.12177 0
M  V30 2325 H 231.108 -1.01699 -1.01948 0
M  V30 2326 H 233.061 -0.755165 -4.14578 0
M  V30 2327 H 231.785 0.120236 -3.26379 0
M  V30 2328 H 230.444 -2.00346 -3.07013 0
M  V30 2329 H 230.092 -0.462995 -5.00865 0
M  V30 2330 H 229.792 -2.15865 -5.46513 0
M  V30 2331 H 231.316 -1.36334 -5.95185 0
M  V30 2332 H 232.73 -3.26626 -4.71156 0
M  V30 2333 H 231.127 -4.01607 -4.45905 0
M  V30 2334 H 232.197 -3.75326 -3.07016 0
M  V30 2335 N 233.54 1.10788 -1.12088 0
M  V30 2336 C 234.817 1.79136 -0.785476 0
M  V30 2337 C 235.197 1.98246 0.725377 0
M  V30 2338 O 234.545 1.57258 1.65778 0
M  V30 2339 C 234.755 3.12375 -1.55636 0
M  V30 2340 C 236.103 3.8731 -1.74001 0
M  V30 2341 O 237.127 3.22085 -1.52117 0
M  V30 2342 O 235.986 5.04369 -2.10415 0
M  V30 2343 H 233.08 0.776226 -0.285311 0
M  V30 2344 H 235.626 1.1747 -1.2247 0
M  V30 2345 H 234.398 2.93863 -2.5838 0
M  V30 2346 H 234.021 3.81758 -1.11114 0
M  V30 2347 N 235.018 0.912232 1.28515 0
M  V30 2348 C 236.429 0.591352 1.77087 0
M  V30 2349 C 236.78 -0.8933 1.74684 0
M  V30 2350 O 235.905 -1.69876 1.34056 0
M  V30 2351 C 236.5 1.06668 3.2157 0
M  V30 2352 C 235.059 0.79675 3.67871 0
M  V30 2353 C 234.206 1.23427 2.48316 0
M  V30 2354 H 237.157 1.09365 1.15 0
M  V30 2355 H 237.178 0.407455 3.78312 0
M  V30 2356 H 236.69 2.14726 3.23287 0
M  V30 2357 H 234.791 -0.270679 3.71616 0
M  V30 2358 H 234.904 1.40343 4.58084 0
M  V30 2359 H 233.268 0.653036 2.46186 0
M  V30 2360 H 234.051 2.32316 2.52753 0
M  V30 2361 N 236.496 -1.42363 0.676048 0
M  V30 2362 C 237.459 -2.29199 0.00766941 0
M  V30 2363 C 238.459 -1.43389 -0.727745 0
M  V30 2364 O 239.649 -1.64764 -0.56556 0
M  V30 2365 C 236.781 -3.2591 -0.999785 0
M  V30 2366 H 237.974 -2.89794 0.771988 0
M  V30 2367 H 235.527 -1.50024 0.438468 0
M  V30 2368 H 236.262 -2.70256 -1.79255 0
M  V30 2369 H 236.047 -3.89202 -0.475829 0
M  V30 2370 H 237.537 -3.91028 -1.46583 0
M  V30 2371 N 237.974 -0.419461 -1.51915 0
M  V30 2372 C 238.937 0.389116 -2.25873 0
M  V30 2373 C 239.937 0.964924 -1.28631 0
M  V30 2374 O 241.127 0.842179 -1.52489 0
M  V30 2375 C 238.259 1.54874 -3.03689 0
M  V30 2376 H 239.452 -0.258799 -2.98781 0
M  V30 2377 H 237.005 -0.172209 -1.55348 0
M  V30 2378 H 237.74 2.23323 -2.35154 0
M  V30 2379 H 237.525 1.14223 -3.75094 0
M  V30 2380 H 239.015 2.12046 -3.59759 0
M  V30 2381 N 239.452 1.56882 -0.150215 0
M  V30 2382 C 240.863 1.82995 0.370076 0
M  V30 2383 C 241.214 1.06907 1.64515 0
M  V30 2384 O 240.339 0.315369 2.1409 0
M  V30 2385 C 240.934 3.31942 0.678208 0
M  V30 2386 C 239.493 3.58625 1.14301 0
M  V30 2387 C 238.64 2.76792 0.167778 0
M  V30 2388 H 241.591 1.54209 -0.374858 0
M  V30 2389 H 241.612 3.48272 1.53254 0
M  V30 2390 H 241.124 3.87294 -0.249991 0
M  V30 2391 H 239.225 3.08664 2.08704 0
M  V30 2392 H 239.338 4.67073 1.06676 0
M  V30 2393 H 237.702 2.45972 0.661037 0
M  V30 2394 H 238.485 3.34916 -0.754069 0
M  V30 2395 N 240.93 -0.123565 1.57115 0
M  V30 2396 C 242.341 -0.681198 1.73829 0
M  V30 2397 C 242.692 -1.80535 0.768214 0
M  V30 2398 O 241.817 -2.16317 -0.0599103 0
M  V30 2399 C 242.412 -1.24246 3.15196 0
M  V30 2400 C 240.971 -1.74643 3.33432 0
M  V30 2401 C 240.118 -0.644284 2.69711 0
M  V30 2402 H 243.069 0.102315 1.5837 0
M  V30 2403 H 243.09 -2.11216 3.16493 0
M  V30 2404 H 242.602 -0.424062 3.85776 0
M  V30 2405 H 240.703 -2.58974 2.67886 0
M  V30 2406 H 240.816 -1.85902 4.41562 0
M  V30 2407 H 239.18 -1.07676 2.3082 0
M  V30 2408 H 239.963 0.163058 3.42913 0
M  V30 2409 N 242.408 -1.52605 -0.393616 0
M  V30 2410 C 243.318 -1.79971 -1.50492 0
M  V30 2411 C 244.334 -0.686181 -1.59899 0
M  V30 2412 O 245.51 -0.973274 -1.76322 0
M  V30 2413 C 242.575 -1.95867 -2.86072 0
M  V30 2414 C 241.636 -3.19781 -2.86424 0
M  V30 2415 C 240.869 -3.34909 -4.15538 0
M  V30 2416 O 241.092 -2.54948 -5.10253 0
M  V30 2417 O 240.026 -4.28141 -4.23059 0
M  V30 2418 H 243.852 -2.74328 -1.30299 0
M  V30 2419 H 241.437 -1.3764 -0.581005 0
M  V30 2420 H 243.319 -2.08056 -3.66457 0
M  V30 2421 H 241.994 -1.04699 -3.063 0
M  V30 2422 H 240.901 -3.13038 -2.04837 0
M  V30 2423 H 242.234 -4.1078 -2.71147 0
M  V30 2424 N 243.887 0.651787 -1.4349 0
M  V30 2425 C 245.134 1.41167 -1.45183 0
M  V30 2426 C 245.462 1.94349 -0.0766601 0
M  V30 2427 O 244.717 1.72804 0.918555 0
M  V30 2428 C 245.016 2.60914 -2.44251 0
M  V30 2429 C 244.682 2.26142 -3.9009 0
M  V30 2430 C 243.344 2.16371 -4.2981 0
M  V30 2431 C 245.696 1.98334 -4.81989 0
M  V30 2432 C 243.024 1.7695 -5.5938 0
M  V30 2433 C 245.376 1.6041 -6.11924 0
M  V30 2434 C 244.04 1.49166 -6.5062 0
M  V30 2435 H 243.31 0.516566 -0.531263 0
M  V30 2436 H 245.957 0.741099 -1.76579 0
M  V30 2437 H 244.262 3.3311 -2.06265 0
M  V30 2438 H 245.959 3.19127 -2.42815 0
M  V30 2439 H 242.549 2.34658 -3.58655 0
M  V30 2440 H 246.733 2.04803 -4.52072 0
M  V30 2441 H 241.989 1.66831 -5.88198 0
M  V30 2442 H 246.163 1.37925 -6.82605 0
M  V30 2443 H 243.79 1.1839 -7.50925 0
M  V30 2444 N 245.365 1.30045 0.890287 0
M  V30 2445 C 246.613 1.18327 1.63839 0
M  V30 2446 C 246.934 -0.263455 1.93212 0
M  V30 2447 O 246.204 -1.17856 1.56482 0
M  V30 2448 H 244.784 0.434933 0.607324 0
M  V30 2449 H 247.446 1.631 1.06698 0
M  V30 2450 H 246.542 1.74024 2.59079 0
M  V30 2451 N 246.843 -1.10192 1.12674 0
M  V30 2452 C 247.776 -2.15847 0.740625 0
M  V30 2453 C 248.754 -1.60352 -0.269421 0
M  V30 2454 O 249.938 -1.87796 -0.16278 0
M  V30 2455 C 247.065 -3.38562 0.096641 0
M  V30 2456 C 246.111 -4.12758 1.07391 0
M  V30 2457 S 246.944 -4.67997 2.60267 0
M  V30 2458 C 248.1 -5.94021 1.97206 0
M  V30 2459 H 248.333 -2.48266 1.63558 0
M  V30 2460 H 245.866 -1.22019 0.946087 0
M  V30 2461 H 247.824 -4.09621 -0.268535 0
M  V30 2462 H 246.485 -3.04377 -0.775462 0
M  V30 2463 H 245.678 -5.00755 0.570997 0
M  V30 2464 H 245.28 -3.47523 1.38216 0
M  V30 2465 H 247.572 -6.64589 1.31634 0
M  V30 2466 H 248.515 -6.48979 2.83253 0
M  V30 2467 H 248.923 -5.46169 1.42686 0
M  V30 2468 N 248.321 -0.919034 -1.28029 0
M  V30 2469 C 249.268 -0.410005 -2.27129 0
M  V30 2470 C 250.238 0.518405 -1.57803 0
M  V30 2471 O 251.423 0.439451 -1.8567 0
M  V30 2472 C 248.563 0.339054 -3.4343 0
M  V30 2473 C 247.676 -0.622468 -4.27492 0
M  V30 2474 C 246.811 0.145567 -5.31001 0
M  V30 2475 C 245.85 -0.809226 -6.06727 0
M  V30 2476 N 244.987 -0.0743728 -7.02061 0
M  V30 2477 H 249.827 -1.26011 -2.70047 0
M  V30 2478 H 247.364 -0.632663 -1.328 0
M  V30 2479 H 249.322 0.789586 -4.0966 0
M  V30 2480 H 247.952 1.15346 -3.01488 0
M  V30 2481 H 247.004 -1.19153 -3.61257 0
M  V30 2482 H 248.316 -1.35252 -4.80113 0
M  V30 2483 H 247.47 0.656417 -6.03139 0
M  V30 2484 H 246.209 0.908643 -4.79161 0
M  V30 2485 H 245.214 -1.3314 -5.33436 0
M  V30 2486 H 246.439 -1.57194 -6.60656 0
M  V30 2487 H 244.385 0.670616 -6.52563 0
M  V30 2488 H 244.302 -0.744157 -7.52329 0
M  V30 2489 H 245.57 0.416109 -7.78389 0
M  V30 2490 N 249.799 1.42003 -0.683588 0
M  V30 2491 C 250.709 2.34597 -0.0109075 0
M  V30 2492 C 251.725 1.55576 0.779245 0
M  V30 2493 O 252.901 1.88107 0.719555 0
M  V30 2494 C 249.966 3.34199 0.922588 0
M  V30 2495 C 249.027 4.29115 0.125984 0
M  V30 2496 C 248.26 5.23959 1.01502 0
M  V30 2497 O 248.483 5.23952 2.25456 0
M  V30 2498 O 247.417 6.00053 0.47111 0
M  V30 2499 H 251.243 2.93675 -0.773853 0
M  V30 2500 H 248.828 1.42654 -0.443861 0
M  V30 2501 H 250.71 3.95365 1.45823 0
M  V30 2502 H 249.385 2.77582 1.66523 0
M  V30 2503 H 248.292 3.71335 -0.453969 0
M  V30 2504 H 249.625 4.88798 -0.577736 0
M  V30 2505 N 251.277 0.427512 1.51691 0
M  V30 2506 C 252.21 -0.433876 2.24037 0
M  V30 2507 C 253.188 -1.03287 1.25581 0
M  V30 2508 O 254.372 -1.07722 1.54688 0
M  V30 2509 C 251.499 -1.60385 2.98319 0
M  V30 2510 C 250.545 -1.12648 4.11355 0
M  V30 2511 S 251.378 -0.076543 5.35445 0
M  V30 2512 C 252.534 -1.25141 6.13262 0
M  V30 2513 H 252.767 0.180367 2.96752 0
M  V30 2514 H 250.3 0.211946 1.52938 0
M  V30 2515 H 252.258 -2.27462 3.41718 0
M  V30 2516 H 250.919 -2.18948 2.25213 0
M  V30 2517 H 250.112 -2.0011 4.62571 0
M  V30 2518 H 249.714 -0.534088 3.70167 0
M  V30 2519 H 252.006 -2.17162 6.41753 0
M  V30 2520 H 252.949 -0.779411 7.03797 0
M  V30 2521 H 253.357 -1.48553 5.44603 0
M  V30 2522 N 252.755 -1.56801 0.158532 0
M  V30 2523 C 254.171 -1.5837 -0.197774 0
M  V30 2524 C 254.371 -1.17334 -1.63814 0
M  V30 2525 O 253.427 -0.878988 -2.36707 0
M  V30 2526 C 254.74 -3.00615 0.0714459 0
M  V30 2527 C 256.288 -3.12999 0.00864533 0
M  V30 2528 C 256.763 -4.57313 0.250685 0
M  V30 2529 N 258.254 -4.62777 0.198014 0
M  V30 2530 C 258.989 -5.72271 0.359642 0
M  V30 2531 N 258.485 -6.90371 0.579625 0
M  V30 2532 N 260.278 -5.61318 0.296438 0
M  V30 2533 H 252.429 -1.81765 1.09887 0
M  V30 2534 H 254.692 -0.841849 0.435884 0
M  V30 2535 H 254.398 -3.35068 1.06874 0
M  V30 2536 H 254.272 -3.71683 -0.642757 0
M  V30 2537 H 256.659 -2.7838 -0.979217 0
M  V30 2538 H 256.74 -2.44393 0.755359 0
M  V30 2539 H 256.384 -4.92639 1.2357 0
M  V30 2540 H 256.314 -5.24061 -0.516489 0
M  V30 2541 H 258.805 -3.77885 0.0331115 0
M  V30 2542 H 259.118 -7.69689 0.69275 0
M  V30 2543 H 257.463 -6.92264 0.616087 0
M  V30 2544 H 260.654 -4.67932 0.125258 0
M  V30 2545 H 260.827 -6.46599 0.425831 0
M  V30 2546 N 254.233 0.115231 -1.57178 0
M  V30 2547 C 255.143 1.15994 -2.03918 0
M  V30 2548 C 256.159 1.45103 -0.960268 0
M  V30 2549 O 257.335 1.56144 -1.27204 0
M  V30 2550 C 254.4 2.46568 -2.43732 0
M  V30 2551 C 253.461 2.24822 -3.65723 0
M  V30 2552 C 252.694 3.4917 -4.03629 0
M  V30 2553 O 252.917 4.56623 -3.41835 0
M  V30 2554 O 251.851 3.39949 -4.96708 0
M  V30 2555 H 255.677 0.793019 -2.93164 0
M  V30 2556 H 253.262 0.3263 -1.45793 0
M  V30 2557 H 255.144 3.23492 -2.70057 0
M  V30 2558 H 253.819 2.82726 -1.57631 0
M  V30 2559 H 252.726 1.45744 -3.44542 0
M  V30 2560 H 254.059 1.93566 -4.52541 0
M  V30 2561 N 255.711 1.52812 0.385517 0
M  V30 2562 C 256.936 1.72207 1.15583 0
M  V30 2563 C 257.361 0.441034 1.82857 0
M  V30 2564 O 256.719 -0.603465 1.70962 0
M  V30 2565 C 256.767 2.87476 2.17692 0
M  V30 2566 O 255.871 2.54693 3.24354 0
M  V30 2567 H 255.212 0.572526 0.336319 0
M  V30 2568 H 257.742 1.99618 0.448744 0
M  V30 2569 H 257.752 3.13072 2.6163 0
M  V30 2570 H 256.427 3.80408 1.68115 0
M  V30 2571 H 255.004 2.3985 2.85529 0
M  V30 2572 N 257.189 -0.644168 1.43834 0
M  V30 2573 C 258.435 -1.40431 1.47141 0
M  V30 2574 C 258.79 -1.92153 0.0975577 0
M  V30 2575 O 258.083 -1.69924 -0.885232 0
M  V30 2576 C 258.277 -2.59615 2.45631 0
M  V30 2577 C 258.106 -2.1956 3.92458 0
M  V30 2578 C 256.876 -2.07456 4.60749 0
M  V30 2579 C 259.074 -1.79281 4.8204 0
M  V30 2580 N 257.056 -1.60827 5.92459 0
M  V30 2581 C 258.427 -1.43801 6.03093 0
M  V30 2582 C 260.482 -1.66545 4.6922 0
M  V30 2583 C 259.185 -0.968599 7.12749 0
M  V30 2584 C 261.211 -1.21008 5.78888 0
M  V30 2585 C 260.573 -0.864711 6.99072 0
M  V30 2586 H 256.672 -0.509182 0.593513 0
M  V30 2587 H 259.256 -0.740351 1.80075 0
M  V30 2588 H 257.427 -3.23658 2.1471 0
M  V30 2589 H 259.159 -3.26357 2.39318 0
M  V30 2590 H 255.914 -2.275 4.1538 0
M  V30 2591 H 256.338 -1.39848 6.62398 0
M  V30 2592 H 260.98 -1.91883 3.7675 0
M  V30 2593 H 258.698 -0.702715 8.05039 0
M  V30 2594 H 262.284 -1.11631 5.7099 0
M  V30 2595 H 261.164 -0.517736 7.82489 0
M  V30 2596 N 258.668 -1.30515 -0.883378 0
M  V30 2597 C 259.615 -1.17032 -1.98927 0
M  V30 2598 C 260.585 -0.0594241 -1.65994 0
M  V30 2599 O 261.77 -0.229895 -1.8941 0
M  V30 2600 C 258.91 -0.869777 -3.33959 0
M  V30 2601 C 258.023 -2.06271 -3.79574 0
M  V30 2602 C 257.158 -1.70011 -5.03259 0
M  V30 2603 C 256.197 -2.8579 -5.41286 0
M  V30 2604 N 255.334 -2.49816 -6.56153 0
M  V30 2605 H 260.174 -2.1164 -2.09792 0
M  V30 2606 H 257.711 -1.05296 -1.02719 0
M  V30 2607 H 259.669 -0.676138 -4.11685 0
M  V30 2608 H 258.299 0.0394332 -3.22776 0
M  V30 2609 H 257.351 -2.36755 -2.97744 0
M  V30 2610 H 258.663 -2.92971 -4.03694 0
M  V30 2611 H 257.817 -1.47032 -5.88614 0
M  V30 2612 H 256.556 -0.804829 -4.81013 0
M  V30 2613 H 255.561 -3.09434 -4.54456 0
M  V30 2614 H 256.786 -3.76008 -5.65504 0
M  V30 2615 H 254.732 -1.62795 -6.35479 0
M  V30 2616 H 254.649 -3.30048 -6.8015 0
M  V30 2617 H 255.917 -2.30197 -7.44735 0
M  V30 2618 N 260.146 1.09593 -1.13257 0
M  V30 2619 C 261.392 1.82003 -0.89458 0
M  V30 2620 C 261.725 1.85402 0.577906 0
M  V30 2621 O 261 1.32099 1.42759 0
M  V30 2622 C 261.283 3.28237 -1.48096 0
M  V30 2623 C 261.136 3.3312 -3.02244 0
M  V30 2624 C 262.455 4.24871 -1.14774 0
M  V30 2625 H 259.574 0.66077 -0.326424 0
M  V30 2626 H 262.216 1.28389 -1.40058 0
M  V30 2627 H 260.366 3.74024 -1.05062 0
M  V30 2628 H 262.038 2.95748 -3.54021 0
M  V30 2629 H 260.281 2.72756 -3.37323 0
M  V30 2630 H 260.952 4.3613 -3.38371 0
M  V30 2631 H 263.428 3.87361 -1.51957 0
M  V30 2632 H 262.304 5.25532 -1.58452 0
M  V30 2633 H 262.565 4.42058 -0.0611849 0
M  V30 2634 N 261.624 0.925811 1.2754 0
M  V30 2635 C 262.574 0.394488 2.24561 0
M  V30 2636 C 263.558 -0.500183 1.52928 0
M  V30 2637 O 264.75 -0.337936 1.73744 0
M  V30 2638 C 261.879 -0.353328 3.41477 0
M  V30 2639 C 260.965 0.557752 4.20416 0
M  V30 2640 N 261.356 1.67674 4.77199 0
M  V30 2641 C 259.654 0.360404 4.44541 0
M  V30 2642 C 260.355 2.24324 5.36706 0
M  V30 2643 N 259.331 1.53305 5.21535 0
M  V30 2644 H 263.133 1.2489 2.66045 0
M  V30 2645 H 260.647 0.779864 1.4245 0
M  V30 2646 H 262.644 -0.7509 4.10082 0
M  V30 2647 H 261.304 -1.20469 3.01525 0
M  V30 2648 H 262.315 2.05915 4.75204 0
M  V30 2649 H 258.992 -0.450454 4.15063 0
M  V30 2650 H 260.382 3.18521 5.91603 0
M  V30 2651 N 263.102 -1.41638 0.69111 0
M  V30 2652 C 264.348 -2.01598 0.220519 0
M  V30 2653 C 264.681 -1.54594 -1.17535 0
M  V30 2654 O 263.956 -0.755177 -1.79241 0
M  V30 2655 C 264.239 -3.59062 0.273243 0
M  V30 2656 C 264.092 -4.16203 1.70573 0
M  V30 2657 C 265.411 -4.38546 -0.369457 0
M  V30 2658 H 262.53 -0.732468 0.0816045 0
M  V30 2659 H 265.172 -1.68445 0.878986 0
M  V30 2660 H 263.322 -3.87435 -0.287411 0
M  V30 2661 H 264.994 -3.98722 2.31989 0
M  V30 2662 H 263.237 -3.71414 2.2413 0
M  V30 2663 H 263.908 -5.25358 1.69419 0
M  V30 2664 H 266.384 -4.1596 0.107977 0
M  V30 2665 H 265.26 -5.48069 -0.302002 0
M  V30 2666 H 265.521 -4.17662 -1.44951 0
M  V30 2667 N 264.58 -0.43555 -1.51462 0
M  V30 2668 C 265.543 0.365137 -2.26273 0
M  V30 2669 C 266.543 0.951227 -1.29647 0
M  V30 2670 O 267.733 0.825958 -1.53374 0
M  V30 2671 C 264.865 1.51645 -3.05314 0
M  V30 2672 H 266.058 -0.290474 -2.9849 0
M  V30 2673 H 263.611 -0.188676 -1.55157 0
M  V30 2674 H 264.346 2.20816 -2.3751 0
M  V30 2675 H 264.131 1.10238 -3.76284 0
M  V30 2676 H 265.621 2.08218 -3.61987 0
M  V30 2677 N 266.058 1.56714 -0.166846 0
M  V30 2678 C 267.469 1.83378 0.350646 0
M  V30 2679 C 267.82 1.08646 1.63372 0
M  V30 2680 O 266.945 0.338058 2.13743 0
M  V30 2681 C 267.54 3.32643 0.642963 0
M  V30 2682 C 266.099 3.59818 1.10491 0
M  V30 2683 C 265.246 2.76954 0.138411 0
M  V30 2684 H 268.197 1.53803 -0.391193 0
M  V30 2685 H 268.218 3.49878 1.49551 0
M  V30 2686 H 267.73 3.87007 -0.291055 0
M  V30 2687 H 265.831 3.1086 2.05418 0
M  V30 2688 H 265.944 4.68178 1.01716 0
M  V30 2689 H 264.308 2.4666 0.634911 0
M  V30 2690 H 265.091 3.34097 -0.789549 0
M  V30 2691 N 267.536 -0.106894 1.57237 0
M  V30 2692 C 268.446 -1.14911 2.0453 0
M  V30 2693 C 269.462 -1.44592 0.96795 0
M  V30 2694 O 270.638 -1.55468 1.2803 0
M  V30 2695 C 267.703 -2.45272 2.45036 0
M  V30 2696 C 266.764 -2.22879 3.66911 0
M  V30 2697 C 265.997 -3.47024 4.05475 0
M  V30 2698 O 266.22 -4.54804 3.44252 0
M  V30 2699 O 265.154 -3.3731 4.98504 0
M  V30 2700 H 268.98 -0.777461 2.9358 0
M  V30 2701 H 266.565 -0.318563 1.45964 0
M  V30 2702 H 268.447 -3.22055 2.71769 0
M  V30 2703 H 267.122 -2.81886 1.59129 0
M  V30 2704 H 266.029 -1.43915 3.45311 0
M  V30 2705 H 267.362 -1.91163 4.53561 0
M  V30 2706 N 269.014 -1.53014 -0.377408 0
M  V30 2707 C 270.291 -1.59215 -1.13622 0
M  V30 2708 C 270.671 -0.392407 -2.07421 0
M  V30 2709 O 270.019 0.618342 -2.19975 0
M  V30 2710 C 270.229 -2.93669 -1.88573 0
M  V30 2711 C 271.577 -3.47822 -2.43526 0
M  V30 2712 O 272.601 -2.9562 -1.98715 0
M  V30 2713 O 271.46 -4.39055 -3.25412 0
M  V30 2714 H 268.554 -0.642625 -0.52054 0
M  V30 2715 H 271.1 -1.65353 -0.381625 0
M  V30 2716 H 269.872 -3.7243 -1.20048 0
M  V30 2717 H 269.495 -2.90968 -2.70968 0
M  V30 2718 N 270.492 0.636531 -1.44174 0
M  V30 2719 C 271.908 0.954104 -1.27941 0
M  V30 2720 C 272.108 2.0039 -0.211248 0
M  V30 2721 O 271.164 2.49236 0.404695 0
M  V30 2722 C 272.477 1.4225 -2.64925 0
M  V30 2723 C 274.025 1.53827 -2.72592 0
M  V30 2724 C 274.5 2.04053 -4.10032 0
M  V30 2725 N 275.991 2.11331 -4.12182 0
M  V30 2726 C 276.726 2.51352 -5.15374 0
M  V30 2727 N 276.222 2.90549 -6.2893 0
M  V30 2728 N 278.015 2.51438 -5.02728 0
M  V30 2729 H 270.166 -0.0578386 -2.12321 0
M  V30 2730 H 272.429 0.0367406 -0.947288 0
M  V30 2731 H 272.135 0.725466 -3.44136 0
M  V30 2732 H 272.009 2.39451 -2.9145 0
M  V30 2733 H 274.396 2.22628 -1.93702 0
M  V30 2734 H 274.477 0.550154 -2.49814 0
M  V30 2735 H 274.121 1.35848 -4.89395 0
M  V30 2736 H 274.051 3.03726 -4.30184 0
M  V30 2737 H 276.542 1.83745 -3.30222 0
M  V30 2738 H 276.855 3.19884 -7.03487 0
M  V30 2739 H 275.2 2.88313 -6.32377 0
M  V30 2740 H 278.391 2.20203 -4.13072 0
M  V30 2741 H 278.564 2.82304 -5.83274 0
M  V30 2742 N 271.97 1.30982 0.876444 0
M  V30 2743 C 273.381 1.18277 1.44456 0
M  V30 2744 C 273.732 -0.213265 1.95037 0
M  V30 2745 O 272.857 -1.11057 1.85729 0
M  V30 2746 C 273.452 2.1411 2.62569 0
M  V30 2747 C 272.011 2.05358 3.15444 0
M  V30 2748 C 271.158 2.03706 1.88146 0
M  V30 2749 H 274.109 1.43127 0.685584 0
M  V30 2750 H 274.13 1.72692 3.39054 0
M  V30 2751 H 273.642 3.15706 2.25724 0
M  V30 2752 H 271.743 1.06934 3.56926 0
M  V30 2753 H 271.856 2.94156 3.78166 0
M  V30 2754 H 270.22 1.48629 2.06837 0
M  V30 2755 H 271.003 3.07047 1.53547 0
M  V30 2756 N 273.449 -1.08991 1.13837 0
M  V30 2757 C 274.677 -1.85011 0.926202 0
M  V30 2758 C 275.092 -1.8135 -0.525127 0
M  V30 2759 O 274.449 -1.21287 -1.36366 0
M  V30 2760 C 274.5 -3.32802 1.41155 0
M  V30 2761 O 274.221 -3.36444 2.80601 0
M  V30 2762 C 275.722 -4.25649 1.23847 0
M  V30 2763 H 272.942 -0.584249 0.32999 0
M  V30 2764 H 275.486 -1.37688 1.51202 0
M  V30 2765 H 273.641 -3.77536 0.868631 0
M  V30 2766 H 274.055 -4.28657 3.02248 0
M  V30 2767 H 275.529 -5.27485 1.62675 0
M  V30 2768 H 276.006 -4.38828 0.18065 0
M  V30 2769 H 276.612 -3.86735 1.76964 0
M  V30 2770 N 274.927 -0.932562 -1.27047 0
M  V30 2771 C 275.859 -0.392734 -2.2581 0
M  V30 2772 C 276.872 0.479241 -1.55586 0
M  V30 2773 O 278.061 0.291078 -1.76111 0
M  V30 2774 C 275.161 0.455456 -3.35826 0
M  V30 2775 C 274.334 -0.398355 -4.35582 0
M  V30 2776 C 273.393 0.387985 -5.24768 0
M  V30 2777 O 272.419 -0.206003 -5.68827 0
M  V30 2778 N 273.621 1.68664 -5.55457 0
M  V30 2779 H 276.386 -1.24173 -2.72766 0
M  V30 2780 H 273.947 -0.800511 -1.40725 0
M  V30 2781 H 275.939 0.988692 -3.92437 0
M  V30 2782 H 274.509 1.20522 -2.88432 0
M  V30 2783 H 273.729 -1.11286 -3.78165 0
M  V30 2784 H 275.017 -0.981889 -4.99236 0
M  V30 2785 H 274.415 2.19147 -5.21528 0
M  V30 2786 H 272.972 2.1663 -6.14748 0
M  V30 2787 N 276.405 1.4127 -0.698611 0
M  V30 2788 C 277.337 2.292 0.00399731 0
M  V30 2789 C 278.35 1.44944 0.741279 0
M  V30 2790 O 279.539 1.68416 0.591477 0
M  V30 2791 C 276.639 3.22875 1.02979 0
M  V30 2792 C 275.812 4.35904 0.36151 0
M  V30 2793 C 274.871 5.10134 1.29033 0
M  V30 2794 O 273.897 5.63809 0.781562 0
M  V30 2795 N 275.099 5.17885 2.6225 0
M  V30 2796 H 277.864 2.9014 -0.750921 0
M  V30 2797 H 275.425 1.52455 -0.544882 0
M  V30 2798 H 277.417 3.69404 1.65296 0
M  V30 2799 H 275.987 2.63221 1.68622 0
M  V30 2800 H 275.207 3.91719 -0.441584 0
M  V30 2801 H 276.495 5.08696 -0.103055 0
M  V30 2802 H 275.893 4.7573 3.061 0
M  V30 2803 H 274.45 5.6798 3.19754 0
M  V30 2804 N 277.883 0.443576 1.51229 0
M  V30 2805 C 278.793 -0.370721 2.31652 0
M  V30 2806 C 279.809 -1.02186 1.40833 0
M  V30 2807 O 280.985 -1.01586 1.73903 0
M  V30 2808 C 278.05 -1.45376 3.14749 0
M  V30 2809 C 277.111 -0.822099 4.21355 0
M  V30 2810 C 276.344 -1.85353 5.0048 0
M  V30 2811 O 276.567 -3.07656 4.80316 0
M  V30 2812 O 275.501 -1.4406 5.84406 0
M  V30 2813 H 279.327 0.286002 3.0235 0
M  V30 2814 H 276.912 0.20598 1.47973 0
M  V30 2815 H 278.794 -2.08173 3.66391 0
M  V30 2816 H 277.469 -2.09445 2.46809 0
M  V30 2817 H 276.376 -0.155909 3.73775 0
M  V30 2818 H 277.709 -0.224797 4.91686 0
M  V30 2819 N 279.361 -1.56624 0.175154 0
M  V30 2820 C 280.309 -2.19468 -0.770495 0
M  V30 2821 C 281.303 -1.15985 -1.23466 0
M  V30 2822 O 282.509 -1.34176 -1.19987 0
M  V30 2823 H 278.884 -0.703095 -0.266761 0
M  V30 2824 H 280.855 -2.97613 -0.216542 0
M  V30 2825 C 279.604 -2.85264 -1.98796 0
M  V30 2826 H 278.927 -3.64623 -1.63983 0
M  V30 2827 H 280.367 -3.327 -2.62843 0
M  V30 2828 C 278.826 -1.85239 -2.81404 0
M  V30 2829 O 279.356 -1.34024 -3.78682 0
M  V30 2830 N 277.562 -1.53911 -2.46495 0
M  V30 2831 H 277.109 -1.95751 -1.67449 0
M  V30 2832 H 277.067 -0.872382 -3.02054 0
M  V30 2833 N 280.839 0.0985539 -1.57292 0
M  V30 2834 C 282.116 0.834155 -1.76921 0
M  V30 2835 C 282.496 1.97101 -0.755928 0
M  V30 2836 O 281.844 2.27474 0.216245 0
M  V30 2837 C 282.054 1.33194 -3.22584 0
M  V30 2838 C 283.402 1.77611 -3.85668 0
M  V30 2839 O 284.426 1.42825 -3.26312 0
M  V30 2840 O 283.285 2.4192 -4.90038 0
M  V30 2841 H 280.379 0.397628 -0.725135 0
M  V30 2842 H 282.925 0.0807044 -1.69508 0
M  V30 2843 H 281.697 0.517248 -3.87866 0
M  V30 2844 H 281.32 2.1475 -3.34616 0
M  V30 2845 N 282.317 1.53212 0.369288 0
M  V30 2846 C 283.563 1.70413 1.11046 0
M  V30 2847 C 283.918 0.448509 1.87099 0
M  V30 2848 O 283.211 -0.558382 1.83283 0
M  V30 2849 C 283.405 2.89101 2.10132 0
M  V30 2850 C 283.234 4.26084 1.43814 0
M  V30 2851 C 282.004 4.90994 1.19384 0
M  V30 2852 C 284.202 5.06754 0.877802 0
M  V30 2853 N 282.184 6.11911 0.49377 0
M  V30 2854 C 283.555 6.1924 0.306891 0
M  V30 2855 C 285.61 4.91814 0.776129 0
M  V30 2856 C 284.313 7.1842 -0.355774 0
M  V30 2857 C 286.339 5.91263 0.127252 0
M  V30 2858 C 285.701 7.03069 -0.432801 0
M  V30 2859 H 281.8 0.676872 0.391623 0
M  V30 2860 H 284.384 1.90603 0.397334 0
M  V30 2861 H 282.555 2.70456 2.78761 0
M  V30 2862 H 284.287 2.95142 2.76899 0
M  V30 2863 H 281.042 4.50074 1.47413 0
M  V30 2864 H 281.466 6.76813 0.159207 0
M  V30 2865 H 286.108 4.05564 1.19489 0
M  V30 2866 H 283.826 8.04264 -0.786499 0
M  V30 2867 H 287.412 5.81779 0.0495613 0
M  V30 2868 H 286.292 7.78702 -0.926958 0
M  V30 2869 N 283.795 -0.628877 1.44509 0
M  V30 2870 C 285.072 -1.38733 1.37886 0
M  V30 2871 C 285.452 -2.11065 0.0387008 0
M  V30 2872 O 284.8 -2.06476 -0.97878 0
M  V30 2873 C 285.01 -2.35188 2.57852 0
M  V30 2874 C 286.358 -2.9845 3.02014 0
M  V30 2875 O 287.382 -2.45513 2.58073 0
M  V30 2876 O 286.241 -3.94487 3.78209 0
M  V30 2877 H 283.335 -0.621015 0.54614 0
M  V30 2878 H 285.881 -0.653744 1.56602 0
M  V30 2879 H 284.653 -1.80855 3.46998 0
M  V30 2880 H 284.276 -3.1596 2.4136 0
M  V30 2881 N 285.273 -1.31445 -0.869486 0
M  V30 2882 C 286.203 -1.21727 -1.99261 0
M  V30 2883 C 287.184 -0.104359 -1.6978 0
M  V30 2884 O 288.369 -0.289038 -1.92037 0
M  V30 2885 C 285.499 -0.924317 -3.34774 0
M  V30 2886 C 284.453 -1.99685 -3.78563 0
M  V30 2887 C 283.779 -1.55658 -5.11541 0
M  V30 2888 C 285.079 -3.41003 -3.95619 0
M  V30 2889 H 286.773 -2.1569 -2.07649 0
M  V30 2890 H 284.319 -1.03839 -0.997675 0
M  V30 2891 H 286.272 -0.842934 -4.12883 0
M  V30 2892 H 284.996 0.0509793 -3.2656 0
M  V30 2893 H 283.655 -2.06813 -3.02694 0
M  V30 2894 H 283.303 -0.569132 -4.9977 0
M  V30 2895 H 283.003 -2.27409 -5.41811 0
M  V30 2896 H 284.527 -1.48928 -5.92159 0
M  V30 2897 H 285.941 -3.36547 -4.64122 0
M  V30 2898 H 284.338 -4.10975 -4.37286 0
M  V30 2899 H 285.408 -3.81754 -2.98985 0
M  V30 2900 N 286.751 1.08385 -1.14413 0
M  V30 2901 C 287.661 2.18856 -0.844951 0
M  V30 2902 C 288.677 1.73121 0.174668 0
M  V30 2903 O 289.853 2.014 0.00312857 0
M  V30 2904 C 286.918 3.45155 -0.32696 0
M  V30 2905 C 285.979 4.05513 -1.40916 0
M  V30 2906 C 285.212 5.25784 -0.915793 0
M  V30 2907 O 285.435 5.69884 0.242651 0
M  V30 2908 O 284.369 5.77545 -1.69487 0
M  V30 2909 H 288.195 2.46919 -1.76818 0
M  V30 2910 H 285.78 1.17524 -0.922411 0
M  V30 2911 H 287.662 4.21377 -0.0440211 0
M  V30 2912 H 286.337 3.18668 0.568539 0
M  V30 2913 H 285.244 3.30879 -1.74556 0
M  V30 2914 H 286.577 4.3625 -2.27919 0
M  V30 2915 N 288.23 0.939286 1.26551 0
M  V30 2916 C 289.178 0.43815 2.28436 0
M  V30 2917 C 290.172 -0.483587 1.62351 0
M  V30 2918 O 291.378 -0.362009 1.76322 0
M  V30 2919 H 287.753 0.123149 0.741848 0
M  V30 2920 H 289.724 1.31002 2.68106 0
M  V30 2921 C 288.473 -0.283052 3.46546 0
M  V30 2922 H 287.796 0.417043 3.97619 0
M  V30 2923 H 289.236 -0.597948 4.19763 0
M  V30 2924 C 287.695 -1.50018 3.01656 0
M  V30 2925 O 288.225 -2.59855 3.0633 0
M  V30 2926 N 286.431 -1.35608 2.57019 0
M  V30 2927 H 285.978 -0.46244 2.53415 0
M  V30 2928 H 285.936 -2.17165 2.27347 0
M  V30 2929 N 289.708 -1.40897 0.706093 0
M  V30 2930 C 290.638 -2.33418 0.0620085 0
M  V30 2931 C 291.619 -1.52385 -0.755827 0
M  V30 2932 O 292.804 -1.80886 -0.706674 0
M  V30 2933 C 289.934 -3.36293 -0.867445 0
M  V30 2934 C 288.888 -4.27716 -0.155932 0
M  V30 2935 C 288.214 -5.2105 -1.20046 0
M  V30 2936 C 289.514 -5.12944 0.984149 0
M  V30 2937 H 291.208 -2.87527 0.83477 0
M  V30 2938 H 288.754 -1.38249 0.402875 0
M  V30 2939 H 290.707 -3.99949 -1.32735 0
M  V30 2940 H 289.431 -2.80556 -1.67199 0
M  V30 2941 H 288.09 -3.65498 0.284047 0
M  V30 2942 H 287.738 -4.61624 -1.99781 0
M  V30 2943 H 287.438 -5.83056 -0.729328 0
M  V30 2944 H 288.962 -5.87584 -1.66066 0
M  V30 2945 H 290.376 -5.70109 0.604048 0
M  V30 2946 H 288.773 -5.83945 1.38304 0
M  V30 2947 H 289.843 -4.49485 1.81911 0
M  V30 2948 N 291.186 -0.45159 -1.50991 0
M  V30 2949 C 292.433 0.110074 -2.02201 0
M  V30 2950 C 292.761 1.4146 -1.33489 0
M  V30 2951 O 292.016 1.90617 -0.443125 0
M  V30 2952 C 292.315 0.361728 -3.55565 0
M  V30 2953 C 291.981 -0.858717 -4.42648 0
M  V30 2954 C 290.643 -1.19338 -4.66167 0
M  V30 2955 C 292.995 -1.67221 -4.93646 0
M  V30 2956 C 290.323 -2.34195 -5.37931 0
M  V30 2957 C 292.675 -2.8119 -5.6667 0
M  V30 2958 C 291.339 -3.15094 -5.88449 0
M  V30 2959 H 290.609 0.040279 -0.739904 0
M  V30 2960 H 293.256 -0.601696 -1.81802 0
M  V30 2961 H 291.561 1.15554 -3.74372 0
M  V30 2962 H 293.258 0.80996 -3.92735 0
M  V30 2963 H 289.848 -0.58796 -4.24548 0
M  V30 2964 H 294.032 -1.42686 -4.75347 0
M  V30 2965 H 289.288 -2.6076 -5.53005 0
M  V30 2966 H 293.462 -3.44585 -6.05173 0
M  V30 2967 H 291.089 -4.04204 -6.43835 0
M  V30 2968 N 292.664 1.56529 -0.183458 0
M  V30 2969 C 293.889 2.02064 0.467428 0
M  V30 2970 C 294.314 1.06282 1.55196 0
M  V30 2971 O 293.672 0.0443565 1.81246 0
M  V30 2972 C 293.72 3.46122 1.01153 0
M  V30 2973 O 292.824 3.53437 2.12499 0
M  V30 2974 H 292.165 0.654726 0.110588 0
M  V30 2975 H 294.695 2.02521 -0.290917 0
M  V30 2976 H 294.705 3.85676 1.33108 0
M  V30 2977 H 293.38 4.15331 0.217533 0
M  V30 2978 H 291.957 3.2575 1.81497 0
M  V30 2979 N 294.142 -0.090211 1.57342 0
M  V30 2980 C 295.388 -0.793982 1.86611 0
M  V30 2981 C 295.721 -1.78142 0.773252 0
M  V30 2982 O 294.996 -1.93271 -0.218304 0
M  V30 2983 C 295.279 -1.51839 3.26523 0
M  V30 2984 C 295.132 -0.548609 4.46442 0
M  V30 2985 C 296.451 -2.46779 3.64401 0
M  V30 2986 H 293.57 -0.287186 0.678744 0
M  V30 2987 H 296.212 -0.0575076 1.89913 0
M  V30 2988 H 294.362 -2.14617 3.23839 0
M  V30 2989 H 296.034 0.0725513 4.61243 0
M  V30 2990 H 294.277 0.137614 4.33582 0
M  V30 2991 H 294.948 -1.09271 5.41076 0
M  V30 2992 H 297.424 -1.94089 3.68061 0
M  V30 2993 H 296.3 -2.94479 4.63221 0
M  V30 2994 H 296.561 -3.30758 2.93346 0
M  V30 2995 N 295.62 -1.53406 -0.361157 0
M  V30 2996 C 296.848 -1.73717 -1.12383 0
M  V30 2997 C 297.263 -0.468161 -1.82904 0
M  V30 2998 O 296.62 0.559198 -1.73722 0
M  V30 2999 C 296.671 -2.90558 -2.15078 0
M  V30 3000 O 296.392 -4.12549 -1.47428 0
M  V30 3001 C 297.893 -3.22777 -3.03858 0
M  V30 3002 H 295.113 -0.580896 -0.335858 0
M  V30 3003 H 297.657 -2.00167 -0.418728 0
M  V30 3004 H 295.812 -2.66489 -2.8118 0
M  V30 3005 H 296.226 -4.78009 -2.15887 0
M  V30 3006 H 297.7 -4.07927 -3.71887 0
M  V30 3007 H 298.177 -2.38329 -3.68912 0
M  V30 3008 H 298.783 -3.48787 -2.43367 0
M  V30 3009 N 297.098 0.621204 -1.44841 0
M  V30 3010 C 298.028 1.74366 -1.55303 0
M  V30 3011 C 299.009 1.65199 -0.405385 0
M  V30 3012 O 300.194 1.83807 -0.626787 0
M  V30 3013 C 297.324 3.12931 -1.50637 0
M  V30 3014 C 296.278 3.36896 -2.63979 0
M  V30 3015 C 295.604 4.75594 -2.44366 0
M  V30 3016 C 296.904 3.28483 -4.06074 0
M  V30 3017 H 298.598 1.65867 -2.49256 0
M  V30 3018 H 296.144 0.796558 -1.19962 0
M  V30 3019 H 298.097 3.9124 -1.56555 0
M  V30 3020 H 296.821 3.22237 -0.532057 0
M  V30 3021 H 295.48 2.60972 -2.57467 0
M  V30 3022 H 295.128 4.81616 -1.45105 0
M  V30 3023 H 294.828 4.92586 -3.20364 0
M  V30 3024 H 296.352 5.5612 -2.52117 0
M  V30 3025 H 297.766 3.96684 -4.13902 0
M  V30 3026 H 296.163 3.57008 -4.82354 0
M  V30 3027 H 297.233 2.26133 -4.28943 0
M  V30 3028 N 298.576 1.31904 0.862503 0
M  V30 3029 C 299.992 1.10724 1.14945 0
M  V30 3030 C 300.192 -0.117421 2.01158 0
M  V30 3031 O 299.248 -0.804595 2.39338 0
M  V30 3032 C 300.561 2.38267 1.83437 0
M  V30 3033 C 302.109 2.43949 1.96106 0
M  V30 3034 C 302.584 3.71394 2.68013 0
M  V30 3035 N 304.075 3.72331 2.75543 0
M  V30 3036 C 304.81 4.67641 3.31812 0
M  V30 3037 N 304.306 5.73313 3.88953 0
M  V30 3038 N 306.099 4.5515 3.29841 0
M  V30 3039 H 298.25 2.10436 0.288191 0
M  V30 3040 H 300.513 0.928705 0.190292 0
M  V30 3041 H 300.219 3.27759 1.27542 0
M  V30 3042 H 300.093 2.48633 2.83657 0
M  V30 3043 H 302.48 1.54922 2.51164 0
M  V30 3044 H 302.561 2.37543 0.949059 0
M  V30 3045 H 302.205 4.60791 2.13621 0
M  V30 3046 H 302.135 3.75069 3.69636 0
M  V30 3047 H 304.626 2.95947 2.34997 0
M  V30 3048 H 304.939 6.42107 4.30022 0
M  V30 3049 H 303.284 5.77077 3.87308 0
M  V30 3050 H 306.475 3.71766 2.84443 0
M  V30 3051 H 306.648 5.29604 3.73394 0
M  V30 3052 N 300.054 -1.07777 1.14986 0
M  V30 3053 C 301.331 -1.7699 0.832695 0
M  V30 3054 C 301.711 -2.001 -0.672561 0
M  V30 3055 O 301.059 -1.61598 -1.6155 0
M  V30 3056 C 301.269 -3.08139 1.63863 0
M  V30 3057 C 302.617 -3.8256 1.84208 0
M  V30 3058 O 303.641 -3.17939 1.60603 0
M  V30 3059 O 302.5 -4.98612 2.23714 0
M  V30 3060 H 299.594 -0.768389 0.305791 0
M  V30 3061 H 302.14 -1.14182 1.25541 0
M  V30 3062 H 300.912 -2.86909 2.6608 0
M  V30 3063 H 300.535 -3.78678 1.21197 0
M  V30 3064 N 301.532 -0.945985 -1.26051 0
M  V30 3065 C 302.495 -0.463897 -2.24456 0
M  V30 3066 C 303.495 0.427655 -1.55009 0
M  V30 3067 O 304.685 0.226157 -1.72726 0
M  V30 3068 C 301.817 0.330812 -3.39291 0
M  V30 3069 H 303.01 -1.33357 -2.68619 0
M  V30 3070 H 300.563 -0.728416 -1.38289 0
M  V30 3071 H 301.298 1.21852 -3.00537 0
M  V30 3072 H 301.083 -0.308679 -3.90883 0
M  V30 3073 H 302.573 0.657865 -4.12386 0
M  V30 3074 N 303.011 1.40521 -0.713556 0
M  V30 3075 C 304.259 2.00527 -0.251692 0
M  V30 3076 C 304.58 1.56857 1.15848 0
M  V30 3077 O 303.85 0.807127 1.785 0
M  V30 3078 H 302.43 0.741551 -0.0900646 0
M  V30 3079 H 305.092 1.71887 -0.918733 0
M  V30 3080 H 304.188 3.10813 -0.283192 0
M  V30 3081 N 304.489 0.459591 1.5075 0
M  V30 3082 C 305.421 -0.37665 2.26084 0
M  V30 3083 C 306.434 -0.967109 1.30961 0
M  V30 3084 O 307.623 -0.857468 1.56556 0
M  V30 3085 C 304.723 -1.54112 3.01832 0
M  V30 3086 C 303.896 -1.06553 4.24223 0
M  V30 3087 C 302.955 -2.1027 4.82362 0
M  V30 3088 O 301.981 -1.68798 5.43595 0
M  V30 3089 N 303.183 -3.42974 4.68347 0
M  V30 3090 H 305.948 0.269124 2.98489 0
M  V30 3091 H 303.509 0.28972 1.59287 0
M  V30 3092 H 305.501 -2.23165 3.37608 0
M  V30 3093 H 304.071 -2.0918 2.32298 0
M  V30 3094 H 303.291 -0.201274 3.93686 0
M  V30 3095 H 304.579 -0.725516 5.03601 0
M  V30 3096 H 303.977 -3.79385 4.19623 0
M  V30 3097 H 302.534 -4.07858 5.08424 0
M  V30 3098 N 305.967 -1.56429 0.191757 0
M  V30 3099 C 307.216 -1.9666 -0.448088 0
M  V30 3100 C 307.529 -1.08136 -1.62991 0
M  V30 3101 O 308.735 -1.38135 -2.33733 0
M  V30 3102 C 307.191 -3.49753 -0.848585 0
M  V30 3103 C 306.799 -4.46935 0.308764 0
M  V30 3104 C 308.543 -3.9876 -1.4557 0
M  V30 3105 C 306.45 -5.91293 -0.112506 0
M  V30 3106 H 305.38 -0.734312 -0.171179 0
M  V30 3107 H 308.031 -1.81301 0.283242 0
M  V30 3108 H 306.413 -3.60604 -1.63649 0
M  V30 3109 H 307.587 -4.47813 1.08627 0
M  V30 3110 H 305.902 -4.08102 0.827158 0
M  V30 3111 H 308.499 -5.04086 -1.78328 0
M  V30 3112 H 308.842 -3.42875 -2.36099 0
M  V30 3113 H 309.375 -3.9101 -0.731836 0
M  V30 3114 H 306.114 -6.51097 0.758514 0
M  V30 3115 H 305.634 -5.93676 -0.854941 0
M  V30 3116 H 307.313 -6.44663 -0.549448 0
M  V30 3117 N 307.445 0.0818655 -1.57387 0
M  V30 3118 C 308.408 1.08265 -2.02018 0
M  V30 3119 C 309.408 1.32183 -0.915664 0
M  V30 3120 O 310.598 1.28073 -1.18081 0
M  V30 3121 C 307.73 2.42871 -2.39221 0
M  V30 3122 H 308.923 0.698204 -2.91659 0
M  V30 3123 H 306.476 0.327303 -1.52835 0
M  V30 3124 H 307.211 2.86167 -1.52575 0
M  V30 3125 H 306.996 2.26855 -3.19811 0
M  V30 3126 H 308.486 3.14826 -2.74362 0
M  V30 3127 N 308.923 1.53595 0.353017 0
M  V30 3128 C 309.853 1.83902 1.43883 0
M  V30 3129 C 310.834 0.693421 1.55324 0
M  V30 3130 O 312.019 0.944452 1.69687 0
M  V30 3131 C 309.149 2.04016 2.8106 0
M  V30 3132 C 308.103 3.19814 2.84434 0
M  V30 3133 C 307.429 3.25244 4.24406 0
M  V30 3134 C 308.729 4.58133 2.50822 0
M  V30 3135 H 310.423 2.74835 1.1877 0
M  V30 3136 H 307.969 1.32242 0.569917 0
M  V30 3137 H 309.922 2.238 3.57059 0
M  V30 3138 H 308.646 1.09804 3.07588 0
M  V30 3139 H 307.305 2.9987 2.10887 0
M  V30 3140 H 306.953 2.28646 4.48029 0
M  V30 3141 H 306.653 4.03054 4.27576 0
M  V30 3142 H 308.177 3.47228 5.0226 0
M  V30 3143 H 309.591 4.77995 3.16534 0
M  V30 3144 H 307.988 5.38276 2.6529 0
M  V30 3145 H 309.058 4.62387 1.46034 0
M  V30 3146 N 310.401 -0.613514 1.45168 0
M  V30 3147 C 311.65 -1.36874 1.4815 0
M  V30 3148 C 311.963 -1.952 0.124982 0
M  V30 3149 O 313.169 -2.71481 0.0324176 0
M  V30 3150 C 311.625 -2.47905 2.60904 0
M  V30 3151 C 311.233 -1.96016 4.02842 0
M  V30 3152 C 312.977 -3.24965 2.73126 0
M  V30 3153 C 310.884 -3.04494 5.06988 0
M  V30 3154 H 309.814 -0.514428 0.551253 0
M  V30 3155 H 312.465 -0.658182 1.7129 0
M  V30 3156 H 310.847 -3.21618 2.31037 0
M  V30 3157 H 312.021 -1.29051 4.4236 0
M  V30 3158 H 310.336 -1.31719 3.95018 0
M  V30 3159 H 312.933 -4.05865 3.48106 0
M  V30 3160 H 313.276 -3.75588 1.79553 0
M  V30 3161 H 313.809 -2.5835 3.0249 0
M  V30 3162 H 310.548 -2.58795 6.0225 0
M  V30 3163 H 310.068 -3.70044 4.72046 0
M  V30 3164 H 311.747 -3.68976 5.31475 0
M  V30 3165 N 311.879 -1.3236 -0.855495 0
M  V30 3166 C 313.156 -1.13491 -1.59309 0
M  V30 3167 C 313.536 0.30503 -2.08885 0
M  V30 3168 O 312.884 1.30151 -1.87811 0
M  V30 3169 C 313.094 -2.16176 -2.73987 0
M  V30 3170 C 314.442 -2.49463 -3.43589 0
M  V30 3171 O 315.466 -2.14715 -2.84211 0
M  V30 3172 O 314.325 -3.09027 -4.50738 0
M  V30 3173 H 311.419 -0.437887 -0.701559 0
M  V30 3174 H 313.965 -1.43887 -0.899696 0
M  V30 3175 H 312.737 -3.1297 -2.34873 0
M  V30 3176 H 312.36 -1.86769 -3.51003 0
M  V30 3177 N 313.357 1.07166 -1.15556 0
M  V30 3178 C 314.605 1.79443 -0.929764 0
M  V30 3179 C 314.926 1.87246 0.544414 0
M  V30 3180 O 314.196 1.37473 1.39564 0
M  V30 3181 H 312.776 0.664625 -0.341003 0
M  V30 3182 H 315.438 1.29499 -1.45657 0
M  V30 3183 H 314.534 2.81832 -1.34079 0
M  V30 3184 N 314.835 0.952656 1.25548 0
M  V30 3185 C 315.798 0.475794 2.24207 0
M  V30 3186 C 316.798 -0.419428 1.55234 0
M  V30 3187 O 317.988 -0.216994 1.72843 0
M  V30 3188 C 315.12 -0.312814 3.39462 0
M  V30 3189 H 316.313 1.34779 2.67908 0
M  V30 3190 H 313.866 0.735739 1.37901 0
M  V30 3191 H 314.601 -1.20257 3.01179 0
M  V30 3192 H 314.386 0.329404 3.90714 0
M  V30 3193 H 315.876 -0.635986 4.12729 0
M  V30 3194 N 316.313 -1.40141 0.720998 0
M  V30 3195 C 317.541 -2.05096 0.272656 0
M  V30 3196 C 317.956 -1.54334 -1.0875 0
M  V30 3197 O 317.313 -0.702211 -1.6845 0
M  V30 3198 C 317.364 -3.60636 0.249835 0
M  V30 3199 O 317.085 -4.09526 1.55629 0
M  V30 3200 C 318.586 -4.42772 -0.216396 0
M  V30 3201 H 315.806 -0.659897 0.121558 0
M  V30 3202 H 318.35 -1.79449 0.980723 0
M  V30 3203 H 316.505 -3.85232 -0.409237 0
M  V30 3204 H 316.919 -5.03758 1.4604 0
M  V30 3205 H 318.393 -5.51702 -0.181212 0
M  V30 3206 H 318.87 -4.20756 -1.25941 0
M  V30 3207 H 319.476 -4.23294 0.412596 0
M  V30 3208 N 317.792 -0.46758 -1.50504 0
M  V30 3209 C 319.022 0.086288 -2.0642 0
M  V30 3210 C 319.43 1.34369 -1.33197 0
M  V30 3211 O 318.773 1.79431 -0.393747 0
M  V30 3212 C 318.835 0.443846 -3.5675 0
M  V30 3213 C 318.499 -0.711035 -4.51435 0
M  V30 3214 C 319.496 -1.59205 -4.94924 0
M  V30 3215 C 317.181 -0.900363 -4.94165 0
M  V30 3216 C 319.175 -2.64683 -5.79846 0
M  V30 3217 C 316.862 -1.95837 -5.7887 0
M  V30 3218 C 317.86 -2.82997 -6.21612 0
M  V30 3219 O 317.548 -3.86977 -7.0463 0
M  V30 3220 H 317.28 -0.00217814 -0.675996 0
M  V30 3221 H 319.834 -0.654346 -1.94698 0
M  V30 3222 H 318.064 1.23762 -3.6636 0
M  V30 3223 H 319.753 0.932386 -3.95046 0
M  V30 3224 H 320.519 -1.45745 -4.62583 0
M  V30 3225 H 316.398 -0.231427 -4.60419 0
M  V30 3226 H 319.942 -3.32745 -6.13128 0
M  V30 3227 H 315.839 -2.09305 -6.10624 0
M  V30 3228 H 316.607 -3.83923 -7.22873 0
M  V30 3229 N 319.27 1.56325 -0.20005 0
M  V30 3230 C 320.18 2.22931 0.730668 0
M  V30 3231 C 321.196 1.22997 1.23076 0
M  V30 3232 O 322.372 1.55748 1.27689 0
M  V30 3233 C 319.437 2.87948 1.93098 0
M  V30 3234 C 318.498 4.03166 1.47497 0
M  V30 3235 C 317.731 4.65073 2.61807 0
M  V30 3236 O 317.954 4.25913 3.79413 0
M  V30 3237 O 316.888 5.54452 2.34237 0
M  V30 3238 H 320.714 3.03084 0.193391 0
M  V30 3239 H 318.299 1.49371 0.0294621 0
M  V30 3240 H 320.181 3.29063 2.6324 0
M  V30 3241 H 318.856 2.10771 2.45677 0
M  V30 3242 H 317.763 3.66664 0.742201 0
M  V30 3243 H 319.096 4.82022 0.995796 0
M  V30 3244 N 320.748 -0.0735177 1.57428 0
M  V30 3245 C 321.997 -0.771809 1.86349 0
M  V30 3246 C 322.31 -1.78828 0.792452 0
M  V30 3247 O 323.516 -2.53602 0.96945 0
M  V30 3248 C 321.972 -1.42358 3.30548 0
M  V30 3249 C 321.58 -0.445761 4.45777 0
M  V30 3250 C 323.324 -2.10434 3.6867 0
M  V30 3251 C 321.231 -1.10335 5.81016 0
M  V30 3252 H 320.161 -0.291999 0.695164 0
M  V30 3253 H 322.812 -0.0250749 1.83483 0
M  V30 3254 H 321.194 -2.21852 3.28021 0
M  V30 3255 H 322.368 0.319239 4.59693 0
M  V30 3256 H 320.683 0.130457 4.16196 0
M  V30 3257 H 323.28 -2.60405 4.67004 0
M  V30 3258 H 323.623 -2.90298 2.98383 0
M  V30 3259 H 324.156 -1.37773 3.7318 0
M  V30 3260 H 320.895 -0.345061 6.54591 0
M  V30 3261 H 320.415 -1.83925 5.70904 0
M  V30 3262 H 322.094 -1.62367 6.26295 0
M  V30 3263 N 322.226 -1.5378 -0.344866 0
M  V30 3264 C 323.173 -1.81676 -1.42346 0
M  V30 3265 C 324.143 -0.662376 -1.52321 0
M  V30 3266 O 325.328 -0.906675 -1.67881 0
M  V30 3267 C 322.468 -2.03087 -2.79015 0
M  V30 3268 C 321.581 -3.30799 -2.77842 0
M  V30 3269 C 320.716 -3.42285 -4.0622 0
M  V30 3270 C 319.755 -4.6395 -3.9927 0
M  V30 3271 N 318.892 -4.72477 -5.19336 0
M  V30 3272 H 323.732 -2.73703 -1.17858 0
M  V30 3273 H 321.269 -1.35568 -0.570949 0
M  V30 3274 H 323.227 -2.1349 -3.58438 0
M  V30 3275 H 321.857 -1.14375 -3.01858 0
M  V30 3276 H 320.909 -3.29244 -1.90533 0
M  V30 3277 H 322.221 -4.20314 -2.68584 0
M  V30 3278 H 321.375 -3.52113 -4.94066 0
M  V30 3279 H 320.114 -2.50823 -4.18258 0
M  V30 3280 H 319.119 -4.54201 -3.09809 0
M  V30 3281 H 320.344 -5.56775 -3.88817 0
M  V30 3282 H 318.29 -3.83924 -5.3192 0
M  V30 3283 H 318.207 -5.55927 -5.12329 0
M  V30 3284 H 319.475 -4.86613 -6.08957 0
M  V30 3285 N 323.704 0.605807 -1.45491 0
M  V30 3286 C 324.929 1.39625 -1.53361 0
M  V30 3287 C 325.354 1.87351 -0.167645 0
M  V30 3288 O 324.712 1.60243 0.848051 0
M  V30 3289 C 324.76 2.57559 -2.5238 0
M  V30 3290 O 323.864 3.58248 -2.04285 0
M  V30 3291 H 323.205 0.416771 -0.516912 0
M  V30 3292 H 325.735 0.737103 -1.90861 0
M  V30 3293 H 325.745 3.0478 -2.71244 0
M  V30 3294 H 324.42 2.22171 -3.51586 0
M  V30 3295 H 322.997 3.17664 -1.95305 0
M  V30 3296 N 325.182 1.32811 0.848464 0
M  V30 3297 C 326.428 1.23907 1.60546 0
M  V30 3298 C 326.761 -0.197161 1.93197 0
M  V30 3299 O 326.036 -1.13596 1.5788 0
M  V30 3300 C 326.319 2.10489 2.92175 0
M  V30 3301 C 326.172 3.62522 2.66266 0
M  V30 3302 C 327.491 1.97075 3.93509 0
M  V30 3303 H 324.61 0.451459 0.58254 0
M  V30 3304 H 327.252 1.62818 0.979296 0
M  V30 3305 H 325.402 1.77434 3.45614 0
M  V30 3306 H 327.074 4.05821 2.19334 0
M  V30 3307 H 325.317 3.84879 2.00126 0
M  V30 3308 H 325.988 4.18437 3.6002 0
M  V30 3309 H 328.464 2.26045 3.49346 0
M  V30 3310 H 327.34 2.59923 4.83457 0
M  V30 3311 H 327.601 0.940186 4.31987 0
M  V30 3312 N 326.66 -1.06551 1.16123 0
M  V30 3313 C 327.59 -2.15935 0.88851 0
M  V30 3314 C 328.571 -1.69306 -0.164135 0
M  V30 3315 O 329.756 -1.94193 -0.0167857 0
M  V30 3316 C 326.886 -3.45149 0.385942 0
M  V30 3317 C 325.84 -4.05271 1.3762 0
M  V30 3318 C 325.166 -5.29664 0.732137 0
M  V30 3319 C 326.466 -4.44355 2.74493 0
M  V30 3320 H 328.16 -2.39006 1.80323 0
M  V30 3321 H 325.706 -1.14866 0.868435 0
M  V30 3322 H 327.659 -4.21004 0.182647 0
M  V30 3323 H 326.383 -3.21689 -0.564274 0
M  V30 3324 H 325.042 -3.3147 1.56599 0
M  V30 3325 H 324.69 -5.02499 -0.224483 0
M  V30 3326 H 324.39 -5.70848 1.39307 0
M  V30 3327 H 325.914 -6.08218 0.538802 0
M  V30 3328 H 327.328 -5.11303 2.59311 0
M  V30 3329 H 325.725 -4.96515 3.37035 0
M  V30 3330 H 326.795 -3.55339 3.29943 0
M  V30 3331 N 328.138 -0.959301 -1.25041 0
M  V30 3332 C 329.415 -0.533805 -1.88175 0
M  V30 3333 C 329.795 0.988994 -1.865 0
M  V30 3334 O 329.143 1.85677 -1.33177 0
M  V30 3335 C 329.353 -1.11575 -3.30684 0
M  V30 3336 C 330.701 -1.19548 -4.07423 0
M  V30 3337 O 331.725 -1.06765 -3.39823 0
M  V30 3338 O 330.584 -1.39656 -5.28354 0
M  V30 3339 H 327.678 -0.176772 -0.807887 0
M  V30 3340 H 330.224 -1.05303 -1.33076 0
M  V30 3341 H 328.996 -2.15884 -3.26358 0
M  V30 3342 H 328.619 -0.580059 -3.93346 0
M  V30 3343 N 329.616 1.39756 -0.72842 0
M  V30 3344 C 330.844 2.04948 -0.283528 0
M  V30 3345 C 331.259 1.54908 1.0793 0
M  V30 3346 O 330.616 0.711135 1.68075 0
M  V30 3347 C 330.667 3.60498 -0.268957 0
M  V30 3348 O 330.388 4.08695 -1.57798 0
M  V30 3349 C 331.889 4.4288 0.192912 0
M  V30 3350 H 329.109 0.659243 -0.125056 0
M  V30 3351 H 331.653 1.78927 -0.990226 0
M  V30 3352 H 329.808 3.85444 0.388801 0
M  V30 3353 H 330.222 5.02977 -1.48709 0
M  V30 3354 H 331.696 5.51791 0.151952 0
M  V30 3355 H 332.173 4.21418 1.23708 0
M  V30 3356 H 332.779 4.23069 -0.435039 0
M  V30 3357 N 331.094 0.475555 1.50254 0
M  V30 3358 C 332.342 -0.077738 2.0195 0
M  V30 3359 C 332.663 -1.39813 1.35931 0
M  V30 3360 O 331.933 -1.89249 0.506123 0
M  V30 3361 H 330.513 -0.031719 0.746326 0
M  V30 3362 H 333.175 0.626995 1.84539 0
M  V30 3363 H 332.271 -0.225995 3.11281 0
M  V30 3364 N 332.573 -1.56217 0.208337 0
M  V30 3365 C 333.803 -2.02043 -0.431523 0
M  V30 3366 C 334.211 -1.08755 -1.54819 0
M  V30 3367 O 333.554 -0.0870009 -1.83494 0
M  V30 3368 C 333.616 -3.44239 -1.03633 0
M  V30 3369 C 333.28 -4.56965 -0.0567502 0
M  V30 3370 C 334.277 -5.14624 0.738773 0
M  V30 3371 C 331.962 -5.02266 0.0581736 0
M  V30 3372 C 333.956 -6.16045 1.63605 0
M  V30 3373 C 331.643 -6.03528 0.959001 0
M  V30 3374 C 332.641 -6.60293 1.7465 0
M  V30 3375 O 332.329 -7.59586 2.6322 0
M  V30 3376 H 332.061 -0.666772 -0.111313 0
M  V30 3377 H 334.615 -2.02919 0.318277 0
M  V30 3378 H 332.845 -3.40391 -1.83497 0
M  V30 3379 H 334.534 -3.73793 -1.58221 0
M  V30 3380 H 335.3 -4.80483 0.660364 0
M  V30 3381 H 331.179 -4.57771 -0.544633 0
M  V30 3382 H 334.723 -6.60279 2.25116 0
M  V30 3383 H 330.62 -6.37092 1.03848 0
M  V30 3384 H 331.388 -7.77057 2.57148 0
M  V30 3385 N 334.051 0.0651679 -1.57465 0
M  V30 3386 C 335.014 1.06117 -2.03155 0
M  V30 3387 C 336.014 1.31204 -0.929632 0
M  V30 3388 O 337.204 1.26813 -1.19432 0
M  V30 3389 C 334.336 2.4032 -2.41783 0
M  V30 3390 H 335.529 0.667231 -2.92383 0
M  V30 3391 H 333.082 0.311075 -1.53173 0
M  V30 3392 H 333.817 2.84532 -1.55601 0
M  V30 3393 H 333.602 2.23451 -3.22199 0
M  V30 3394 H 335.092 3.11898 -2.77685 0
M  V30 3395 N 335.529 1.53961 0.336706 0
M  V30 3396 C 336.775 1.7179 1.07777 0
M  V30 3397 C 337.108 0.483263 1.88091 0
M  V30 3398 O 336.383 -0.519747 1.87427 0
M  V30 3399 C 336.666 2.98558 2.01334 0
M  V30 3400 C 336.519 4.32245 1.24437 0
M  V30 3401 C 337.838 3.21023 3.01052 0
M  V30 3402 H 334.957 0.625089 0.390426 0
M  V30 3403 H 337.599 1.86641 0.35567 0
M  V30 3404 H 335.749 2.86028 2.62908 0
M  V30 3405 H 337.421 4.56637 0.654243 0
M  V30 3406 H 335.664 4.30344 0.546458 0
M  V30 3407 H 336.335 5.17137 1.93063 0
M  V30 3408 H 338.811 3.32929 2.49595 0
M  V30 3409 H 337.687 4.11104 3.6371 0
M  V30 3410 H 337.948 2.37637 3.72802 0
M  V30 3411 N 337.007 -0.598083 1.45811 0
M  V30 3412 C 337.957 -1.70272 1.51629 0
M  V30 3413 C 338.941 -1.56382 0.378629 0
M  V30 3414 O 340.133 -1.65557 0.626087 0
M  V30 3415 C 337.262 -3.09042 1.49493 0
M  V30 3416 C 336.348 -3.28284 2.68496 0
M  V30 3417 N 336.739 -3.17748 3.93535 0
M  V30 3418 C 335.037 -3.59182 2.64394 0
M  V30 3419 C 335.738 -3.38579 4.7301 0
M  V30 3420 N 334.714 -3.63016 4.04624 0
M  V30 3421 H 338.516 -1.60634 2.46118 0
M  V30 3422 H 336.03 -0.801642 1.41235 0
M  V30 3423 H 338.027 -3.88302 1.51747 0
M  V30 3424 H 336.687 -3.19823 0.560683 0
M  V30 3425 H 337.698 -2.95944 4.25014 0
M  V30 3426 H 334.375 -3.76742 1.79922 0
M  V30 3427 H 335.765 -3.35747 5.82 0
M  V30 3428 N 338.485 -1.33259 -0.841409 0
M  V30 3429 C 339.734 -1.23921 -1.59143 0
M  V30 3430 C 340.047 0.1941 -1.94635 0
M  V30 3431 O 341.253 0.409474 -2.68394 0
M  V30 3432 C 339.709 -2.17119 -2.87032 0
M  V30 3433 C 339.317 -3.65606 -2.58914 0
M  V30 3434 C 341.061 -2.16648 -3.65053 0
M  V30 3435 C 338.968 -4.50726 -3.82884 0
M  V30 3436 H 337.898 -0.460264 -0.597221 0
M  V30 3437 H 340.549 -1.58307 -0.927959 0
M  V30 3438 H 338.931 -1.75663 -3.54906 0
M  V30 3439 H 340.105 -4.15487 -1.99267 0
M  V30 3440 H 338.42 -3.68341 -1.942 0
M  V30 3441 H 341.017 -2.77474 -4.57069 0
M  V30 3442 H 341.36 -1.16088 -3.99787 0
M  V30 3443 H 341.893 -2.56453 -3.041 0
M  V30 3444 H 338.632 -5.52151 -3.53283 0
M  V30 3445 H 338.152 -4.0559 -4.41879 0
M  V30 3446 H 339.831 -4.64401 -4.50489 0
M  V30 3447 N 339.963 1.05934 -1.16686 0
M  V30 3448 C 341.188 1.83029 -0.975455 0
M  V30 3449 C 341.613 1.82096 0.471452 0
M  V30 3450 O 340.971 1.22443 1.33706 0
M  V30 3451 C 341.019 3.27372 -1.51195 0
M  V30 3452 O 340.123 4.06054 -0.720701 0
M  V30 3453 H 339.464 0.566194 -0.346872 0
M  V30 3454 H 341.994 1.33541 -1.55009 0
M  V30 3455 H 342.004 3.78186 -1.53099 0
M  V30 3456 H 340.679 3.27366 -2.56523 0
M  V30 3457 H 339.256 3.64812 -0.772458 0
M  V30 3458 N 341.441 0.965919 1.2453 0
M  V30 3459 C 342.857 0.67216 1.44756 0
M  V30 3460 C 343.057 -0.766609 1.86347 0
M  V30 3461 O 342.113 -1.5407 2.00047 0
M  V30 3462 C 343.426 1.65473 2.51076 0
M  V30 3463 C 344.974 1.66716 2.64905 0
M  V30 3464 C 345.449 2.63766 3.74421 0
M  V30 3465 N 346.94 2.62198 3.81846 0
M  V30 3466 C 347.675 3.33966 4.66106 0
M  V30 3467 N 347.171 4.15245 5.54566 0
M  V30 3468 N 348.964 3.22799 4.60171 0
M  V30 3469 H 341.115 1.89553 0.958293 0
M  V30 3470 H 343.378 0.815979 0.482579 0
M  V30 3471 H 343.084 2.68296 2.27399 0
M  V30 3472 H 342.958 1.4261 3.49202 0
M  V30 3473 H 345.345 0.646057 2.87941 0
M  V30 3474 H 345.426 1.93642 1.67142 0
M  V30 3475 H 345.07 3.6601 3.52135 0
M  V30 3476 H 345 2.34121 4.71694 0
M  V30 3477 H 347.491 2.032 3.18619 0
M  V30 3478 H 347.804 4.66898 6.15814 0
M  V30 3479 H 346.149 4.1934 5.54237 0
M  V30 3480 H 349.34 2.58764 3.90075 0
M  V30 3481 H 349.513 3.78994 5.25612 0
M  V30 3482 N 342.919 -1.39368 0.735821 0
M  V30 3483 C 343.849 -2.33234 0.111506 0
M  V30 3484 C 344.83 -1.53954 -0.723334 0
M  V30 3485 O 346.015 -1.82344 -0.668147 0
M  V30 3486 C 343.145 -3.38057 -0.795917 0
M  V30 3487 C 342.099 -4.2795 -0.065172 0
M  V30 3488 C 341.425 -5.23479 -1.08967 0
M  V30 3489 C 342.725 -5.10741 1.09273 0
M  V30 3490 H 344.419 -2.85692 0.895571 0
M  V30 3491 H 341.965 -1.37364 0.432109 0
M  V30 3492 H 343.918 -4.02675 -1.24221 0
M  V30 3493 H 342.642 -2.8404 -1.61211 0
M  V30 3494 H 341.301 -3.64813 0.361511 0
M  V30 3495 H 340.949 -4.65758 -1.89944 0
M  V30 3496 H 340.649 -5.84472 -0.605489 0
M  V30 3497 H 342.173 -5.90974 -1.53565 0
M  V30 3498 H 343.587 -5.68699 0.724841 0
M  V30 3499 H 341.984 -5.8088 1.50659 0
M  V30 3500 H 343.054 -4.45525 1.91404 0
M  V30 3501 N 344.397 -0.483516 -1.5 0
M  V30 3502 C 345.622 0.0667119 -2.07293 0
M  V30 3503 C 346.047 1.3164 -1.3436 0
M  V30 3504 O 345.405 1.76945 -0.394987 0
M  V30 3505 C 345.453 0.321126 -3.59167 0
M  V30 3506 O 344.557 1.39927 -3.87936 0
M  V30 3507 H 343.898 -0.0184758 -0.663743 0
M  V30 3508 H 346.428 -0.678125 -1.93035 0
M  V30 3509 H 346.438 0.557906 -4.04168 0
M  V30 3510 H 345.113 -0.592007 -4.11665 0
M  V30 3511 H 343.69 1.14882 -3.54763 0
M  V30 3512 N 345.875 1.56104 -0.216619 0
M  V30 3513 C 346.838 2.18819 0.681962 0
M  V30 3514 C 347.838 1.14866 1.12528 0
M  V30 3515 O 349.028 1.40128 1.03488 0
M  V30 3516 C 346.16 2.80756 1.93362 0
M  V30 3517 H 347.353 2.99595 0.135254 0
M  V30 3518 H 344.906 1.56265 0.0330003 0
M  V30 3519 H 345.641 2.03837 2.52232 0
M  V30 3520 H 345.426 3.56876 1.62426 0
M  V30 3521 H 346.916 3.28844 2.57393 0
M  V30 3522 N 347.353 -0.0568162 1.57498 0
M  V30 3523 C 348.578 -0.769402 1.92601 0
M  V30 3524 C 349.003 -1.69559 0.814336 0
M  V30 3525 O 348.361 -1.79811 -0.231903 0
M  V30 3526 C 348.409 -1.52634 3.26704 0
M  V30 3527 O 347.513 -2.63797 3.16994 0
M  V30 3528 H 346.854 -0.208909 0.63028 0
M  V30 3529 H 349.384 -0.0205798 2.0459 0
M  V30 3530 H 349.394 -1.90234 3.60936 0
M  V30 3531 H 348.069 -0.846875 4.07186 0
M  V30 3532 H 346.646 -2.28943 2.94346 0
M  V30 3533 N 348.832 -1.54138 -0.328536 0
M  V30 3534 C 350.08 -1.71765 -1.06496 0
M  V30 3535 C 350.401 -0.49149 -1.88704 0
M  V30 3536 O 349.671 0.494539 -1.89555 0
M  V30 3537 H 348.251 -0.633295 -0.396164 0
M  V30 3538 H 350.913 -1.91429 -0.366176 0
M  V30 3539 H 350.009 -2.5951 -1.73381 0
M  V30 3540 N 350.31 0.590341 -1.46126 0
M  V30 3541 C 351.726 0.912917 -1.30912 0
M  V30 3542 C 351.926 1.99616 -0.274893 0
M  V30 3543 O 350.982 2.50397 0.325197 0
M  V30 3544 C 352.295 1.3375 -2.69317 0
M  V30 3545 C 353.843 1.45077 -2.77348 0
M  V30 3546 C 354.318 1.90904 -4.16317 0
M  V30 3547 N 355.809 1.9811 -4.18696 0
M  V30 3548 C 356.544 2.34828 -5.23109 0
M  V30 3549 N 356.04 2.70393 -6.37856 0
M  V30 3550 N 357.833 2.35317 -5.10473 0
M  V30 3551 H 349.984 -0.125358 -2.1203 0
M  V30 3552 H 352.247 0.00658481 -0.947977 0
M  V30 3553 H 351.953 0.615614 -3.4627 0
M  V30 3554 H 351.827 2.30058 -2.9892 0
M  V30 3555 H 354.214 2.16353 -2.00687 0
M  V30 3556 H 354.295 0.4704 -2.51438 0
M  V30 3557 H 353.939 1.20209 -4.9347 0
M  V30 3558 H 353.869 2.89886 -4.39629 0
M  V30 3559 H 356.36 1.73146 -3.359 0
M  V30 3560 H 356.673 2.97341 -7.13308 0
M  V30 3561 H 355.018 2.68048 -6.41229 0
M  V30 3562 H 358.209 2.0695 -4.19868 0
M  V30 3563 H 358.382 2.63605 -5.9196 0
M  V30 3564 N 351.788 1.33704 0.83433 0
M  V30 3565 C 353.018 1.28281 1.6195 0
M  V30 3566 C 353.426 -0.147603 1.88623 0
M  V30 3567 O 352.769 -1.1016 1.47005 0
M  V30 3568 C 352.831 1.99386 2.99141 0
M  V30 3569 C 352.495 3.48681 2.95416 0
M  V30 3570 C 353.492 4.438 2.70809 0
M  V30 3571 C 351.177 3.90925 3.15409 0
M  V30 3572 C 353.171 5.79138 2.66229 0
M  V30 3573 C 350.858 5.26366 3.10454 0
M  V30 3574 C 351.856 6.20284 2.85895 0
M  V30 3575 O 351.544 7.53245 2.80852 0
M  V30 3576 H 351.276 0.44315 0.510484 0
M  V30 3577 H 353.83 1.76711 1.04702 0
M  V30 3578 H 352.06 1.45554 3.58261 0
M  V30 3579 H 353.749 1.87403 3.60049 0
M  V30 3580 H 354.515 4.12485 2.5511 0
M  V30 3581 H 350.394 3.18229 3.33543 0
M  V30 3582 H 353.938 6.52416 2.4698 0
M  V30 3583 H 349.835 5.57304 3.25703 0
M  V30 3584 H 350.603 7.62846 2.96661 0
M  V30 3585 N 353.266 -1.05314 1.17247 0
M  V30 3586 C 354.196 -2.1498 0.911362 0
M  V30 3587 C 355.177 -1.69471 -0.146169 0
M  V30 3588 O 356.362 -1.942 0.003812 0
M  V30 3589 C 353.492 -3.4472 0.422528 0
M  V30 3590 C 352.446 -4.03789 1.4191 0
M  V30 3591 C 351.772 -5.28858 0.788274 0
M  V30 3592 C 353.072 -4.41418 2.7919 0
M  V30 3593 H 354.766 -2.3708 1.82848 0
M  V30 3594 H 352.312 -1.13938 0.880569 0
M  V30 3595 H 354.265 -4.20787 0.227289 0
M  V30 3596 H 352.989 -3.22269 -0.530123 0
M  V30 3597 H 351.648 -3.2979 1.60106 0
M  V30 3598 H 351.296 -5.02709 -0.171173 0
M  V30 3599 H 350.996 -5.69338 1.45353 0
M  V30 3600 H 352.52 -6.07612 0.603282 0
M  V30 3601 H 353.934 -5.08524 2.64719 0
M  V30 3602 H 352.331 -4.92913 3.42282 0
M  V30 3603 H 353.401 -3.51819 3.33693 0
M  V30 3604 N 354.744 -0.972509 -1.24016 0
M  V30 3605 C 355.991 -0.637034 -1.92219 0
M  V30 3606 C 356.319 0.828418 -1.75976 0
M  V30 3607 O 355.574 1.61206 -1.10955 0
M  V30 3608 C 355.873 -0.963694 -3.44162 0
M  V30 3609 C 355.539 -2.41807 -3.80579 0
M  V30 3610 C 354.201 -2.81556 -3.9023 0
M  V30 3611 C 356.553 -3.36172 -3.98293 0
M  V30 3612 C 353.881 -4.14702 -4.15017 0
M  V30 3613 C 356.233 -4.68952 -4.24578 0
M  V30 3614 C 354.897 -5.08472 -4.32449 0
M  V30 3615 H 354.167 -0.233107 -0.703379 0
M  V30 3616 H 356.814 -1.2249 -1.47202 0
M  V30 3617 H 355.119 -0.29365 -3.90698 0
M  V30 3618 H 356.816 -0.682449 -3.9515 0
M  V30 3619 H 353.406 -2.09988 -3.73635 0
M  V30 3620 H 357.59 -3.06644 -3.90234 0
M  V30 3621 H 352.846 -4.4494 -4.19331 0
M  V30 3622 H 357.02 -5.42037 -4.37229 0
M  V30 3623 H 354.647 -6.11665 -4.51409 0
M  V30 3624 N 356.222 1.38976 -0.743202 0
M  V30 3625 C 357.468 2.0064 -0.295189 0
M  V30 3626 C 357.801 1.5885 1.11716 0
M  V30 3627 O 357.076 0.821181 1.76315 0
M  V30 3628 C 357.359 3.578 -0.406318 0
M  V30 3629 C 357.212 4.09586 -1.85903 0
M  V30 3630 C 358.531 4.39616 0.206439 0
M  V30 3631 H 355.65 0.728935 -0.108733 0
M  V30 3632 H 358.292 1.65067 -0.940897 0
M  V30 3633 H 356.442 3.88235 0.143419 0
M  V30 3634 H 358.114 3.89837 -2.46627 0
M  V30 3635 H 356.357 3.6284 -2.3776 0
M  V30 3636 H 357.028 5.18708 -1.888 0
M  V30 3637 H 359.504 4.15273 -0.262283 0
M  V30 3638 H 358.38 5.48812 0.0983819 0
M  V30 3639 H 358.641 4.22754 1.2935 0
M  V30 3640 N 357.7 0.491464 1.49741 0
M  V30 3641 C 358.949 -0.0582189 2.01616 0
M  V30 3642 C 359.262 -1.38927 1.3769 0
M  V30 3643 O 360.468 -2.02509 1.80838 0
M  V30 3644 C 358.924 -0.154235 3.59569 0
M  V30 3645 C 358.532 1.1696 4.32463 0
M  V30 3646 C 360.276 -0.65479 4.1942 0
M  V30 3647 C 358.183 1.03627 5.8225 0
M  V30 3648 H 357.113 -0.0255317 0.753568 0
M  V30 3649 H 359.764 0.629445 1.72367 0
M  V30 3650 H 358.146 -0.906138 3.85493 0
M  V30 3651 H 359.32 1.93405 4.18248 0
M  V30 3652 H 357.635 1.60285 3.84315 0
M  V30 3653 H 360.232 -0.771903 5.29099 0
M  V30 3654 H 360.575 -1.65127 3.8215 0
M  V30 3655 H 361.108 0.040304 3.9778 0
M  V30 3656 H 357.847 2.00672 6.24028 0
M  V30 3657 H 357.367 0.312546 5.98985 0
M  V30 3658 H 359.046 0.711114 6.4308 0
M  V30 3659 N 359.178 -1.55987 0.224894 0
M  V30 3660 C 360.426 -1.97998 -0.405099 0
M  V30 3661 C 360.747 -1.11387 -1.60056 0
M  V30 3662 O 360.017 -0.191645 -1.9496 0
M  V30 3663 H 358.597 -0.731235 -0.152658 0
M  V30 3664 H 361.259 -1.92279 0.318567 0
M  V30 3665 H 360.355 -3.03463 -0.729167 0
M  V30 3666 N 360.656 0.0484629 -1.57525 0
M  V30 3667 C 362.072 0.40375 -1.54409 0
M  V30 3668 C 362.272 1.77786 -0.948384 0
M  V30 3669 O 361.328 2.46189 -0.560983 0
M  V30 3670 C 362.641 0.323394 -2.98956 0
M  V30 3671 C 364.189 0.401892 -3.10409 0
M  V30 3672 C 364.664 0.351195 -4.56652 0
M  V30 3673 N 366.155 0.410576 -4.61377 0
M  V30 3674 C 366.89 0.393933 -5.72045 0
M  V30 3675 N 366.386 0.330724 -6.9201 0
M  V30 3676 N 368.179 0.442227 -5.60358 0
M  V30 3677 H 360.33 -0.851016 -1.94606 0
M  V30 3678 H 362.593 -0.321721 -0.89174 0
M  V30 3679 H 362.299 -0.62011 -3.4619 0
M  V30 3680 H 362.173 1.12463 -3.60044 0
M  V30 3681 H 364.56 1.33582 -2.63134 0
M  V30 3682 H 364.641 -0.428342 -2.52188 0
M  V30 3683 H 364.285 -0.578987 -5.04589 0
M  V30 3684 H 364.215 1.19928 -5.12762 0
M  V30 3685 H 366.706 0.462729 -3.75056 0
M  V30 3686 H 367.019 0.322592 -7.72126 0
M  V30 3687 H 365.364 0.29706 -6.94365 0
M  V30 3688 H 368.555 0.489464 -4.65534 0
M  V30 3689 H 368.728 0.425788 -6.466 0
M  V30 3690 N 362.134 1.5431 0.320358 0
M  V30 3691 C 363.411 1.63322 1.07635 0
M  V30 3692 C 363.791 0.46912 2.05821 0
M  V30 3693 O 363.139 -0.536274 2.22118 0
M  V30 3694 C 363.349 3.00465 1.77544 0
M  V30 3695 C 364.697 3.56621 2.30449 0
M  V30 3696 O 365.721 3.02791 1.87606 0
M  V30 3697 O 364.58 4.5083 3.08892 0
M  V30 3698 H 361.674 0.661502 0.496331 0
M  V30 3699 H 364.22 1.66656 0.319992 0
M  V30 3700 H 362.992 3.76629 1.06143 0
M  V30 3701 H 362.615 3.00824 2.59982 0
M  V30 3702 N 363.613 -0.582584 1.46437 0
M  V30 3703 C 364.861 -1.33814 1.51453 0
M  V30 3704 C 365.182 -1.94277 0.167792 0
M  V30 3705 O 364.452 -1.78566 -0.805677 0
M  V30 3706 H 363.032 -0.496838 0.557818 0
M  V30 3707 H 365.694 -0.682281 1.82568 0
M  V30 3708 H 364.79 -2.14479 2.26728 0
M  V30 3709 N 365.091 -1.34144 -0.827227 0
M  V30 3710 C 366.038 -1.25364 -1.93785 0
M  V30 3711 C 367.008 -0.129774 -1.65592 0
M  V30 3712 O 368.193 -0.310024 -1.88264 0
M  V30 3713 C 365.333 -1.01064 -3.2997 0
M  V30 3714 C 364.446 -2.22185 -3.70484 0
M  V30 3715 C 363.581 -1.91203 -4.95595 0
M  V30 3716 C 362.62 -3.08491 -5.28677 0
M  V30 3717 N 361.757 -2.77421 -6.44967 0
M  V30 3718 H 366.597 -2.20347 -2.00627 0
M  V30 3719 H 364.134 -1.09558 -0.981608 0
M  V30 3720 H 366.092 -0.850139 -4.08446 0
M  V30 3721 H 364.722 -0.0975026 -3.22653 0
M  V30 3722 H 363.774 -2.4917 -2.87434 0
M  V30 3723 H 365.086 -3.0983 -3.90905 0
M  V30 3724 H 364.24 -1.71864 -5.81848 0
M  V30 3725 H 362.979 -1.00812 -4.77167 0
M  V30 3726 H 361.984 -3.28431 -4.40923 0
M  V30 3727 H 363.209 -3.99655 -5.49047 0
M  V30 3728 H 361.155 -1.89601 -6.28003 0
M  V30 3729 H 361.072 -3.58598 -6.6554 0
M  V30 3730 H 362.34 -2.61577 -7.34301 0
M  V30 3731 N 366.569 1.04691 -1.17803 0
M  V30 3732 C 367.815 1.78045 -0.970969 0
M  V30 3733 C 368.148 1.87686 0.498751 0
M  V30 3734 O 367.423 1.38035 1.37027 0
M  V30 3735 C 367.706 3.2166 -1.61884 0
M  V30 3736 C 367.559 3.20001 -3.161 0
M  V30 3737 C 368.878 4.1962 -1.3269 0
M  V30 3738 H 365.997 0.64633 -0.354155 0
M  V30 3739 H 368.639 1.22333 -1.45378 0
M  V30 3740 H 366.789 3.69232 -1.20831 0
M  V30 3741 H 368.461 2.80467 -3.66246 0
M  V30 3742 H 366.704 2.58203 -3.48588 0
M  V30 3743 H 367.375 4.21386 -3.56564 0
M  V30 3744 H 369.851 3.80567 -1.68249 0
M  V30 3745 H 368.727 5.18339 -1.80599 0
M  V30 3746 H 368.988 4.414 -0.248622 0
M  V30 3747 N 368.047 0.979072 1.23499 0
M  V30 3748 C 368.995 0.510604 2.26926 0
M  V30 3749 C 369.989 -0.431691 1.63807 0
M  V30 3750 O 371.195 -0.30573 1.77385 0
M  V30 3751 H 367.57 0.146688 0.737554 0
M  V30 3752 H 369.541 1.39466 2.63803 0
M  V30 3753 C 368.29 -0.172658 3.47271 0
M  V30 3754 H 367.613 0.543331 3.96091 0
M  V30 3755 H 369.053 -0.464101 4.21452 0
M  V30 3756 C 367.512 -1.40345 3.06276 0
M  V30 3757 O 368.042 -2.49978 3.14442 0
M  V30 3758 N 366.248 -1.27362 2.61203 0
M  V30 3759 H 365.795 -0.381584 2.54758 0
M  V30 3760 H 365.753 -2.09822 2.34141 0
M  V30 3761 N 369.525 -1.3858 0.750561 0
M  V30 3762 C 370.458 -2.28095 0.0693139 0
M  V30 3763 C 371.436 -1.45217 -0.731491 0
M  V30 3764 O 372.62 -1.74587 -0.71076 0
M  V30 3765 C 369.747 -3.26282 -0.90871 0
M  V30 3766 C 368.793 -4.26056 -0.194507 0
M  V30 3767 S 369.626 -5.24026 1.10257 0
M  V30 3768 C 370.782 -6.2577 0.127542 0
M  V30 3769 H 371.015 -2.85526 0.8284 0
M  V30 3770 H 368.548 -1.44536 0.543014 0
M  V30 3771 H 370.506 -3.83367 -1.46766 0
M  V30 3772 H 369.167 -2.6784 -1.64075 0
M  V30 3773 H 368.36 -4.95249 -0.93512 0
M  V30 3774 H 367.962 -3.72852 0.292837 0
M  V30 3775 H 370.254 -6.73796 -0.707516 0
M  V30 3776 H 371.197 -7.03712 0.787044 0
M  V30 3777 H 371.605 -5.63938 -0.251803 0
M  V30 3778 N 371.003 -0.499398 -1.49478 0
M  V30 3779 C 372.252 0.0475259 -2.01644 0
M  V30 3780 C 372.565 1.38195 -1.38425 0
M  V30 3781 O 373.771 2.01547 -1.8191 0
M  V30 3782 C 372.227 0.135164 -3.59646 0
M  V30 3783 C 371.835 -1.19252 -4.31837 0
M  V30 3784 C 373.579 0.632538 -4.19761 0
M  V30 3785 C 371.486 -1.06713 -5.81693 0
M  V30 3786 H 370.416 0.0215349 -0.753692 0
M  V30 3787 H 373.067 -0.638577 -1.7203 0
M  V30 3788 H 371.449 0.885681 -3.85969 0
M  V30 3789 H 372.623 -1.9562 -4.17216 0
M  V30 3790 H 370.938 -1.62321 -3.83459 0
M  V30 3791 H 373.535 0.743833 -5.29501 0
M  V30 3792 H 373.878 1.63098 -3.83021 0
M  V30 3793 H 374.411 -0.0613987 -3.97753 0
M  V30 3794 H 371.15 -2.03979 -6.22955 0
M  V30 3795 H 370.67 -0.344307 -5.98811 0
M  V30 3796 H 372.349 -0.745208 -6.42694 0
M  V30 3797 N 372.481 1.55866 -0.233164 0
M  V30 3798 C 373.758 1.90471 0.444988 0
M  V30 3799 C 374.138 1.15209 1.7689 0
M  V30 3800 O 373.486 0.265119 2.26957 0
M  V30 3801 C 373.696 3.4333 0.626559 0
M  V30 3802 C 375.044 4.14319 0.92871 0
M  V30 3803 O 376.068 3.48993 0.712926 0
M  V30 3804 O 374.927 5.29846 1.33887 0
M  V30 3805 H 372.021 0.792347 0.236885 0
M  V30 3806 H 374.567 1.67437 -0.276211 0
M  V30 3807 H 373.339 3.90095 -0.306822 0
M  V30 3808 H 372.962 3.72181 1.39881 0
M  V30 3809 N 373.959 -0.0401083 1.57549 0
M  V30 3810 C 374.889 -1.04384 2.08869 0
M  V30 3811 C 375.87 -1.38407 0.988817 0
M  V30 3812 O 377.055 -1.47483 1.26342 0
M  V30 3813 C 374.185 -2.34808 2.55895 0
M  V30 3814 C 373.139 -2.15057 3.70047 0
M  V30 3815 C 372.465 -3.51145 4.03239 0
M  V30 3816 C 373.765 -1.54576 4.98902 0
M  V30 3817 H 375.459 -0.616666 2.92981 0
M  V30 3818 H 373.005 -0.295184 1.40942 0
M  V30 3819 H 374.958 -3.05346 2.90417 0
M  V30 3820 H 373.682 -2.79565 1.68853 0
M  V30 3821 H 372.341 -1.46954 3.35857 0
M  V30 3822 H 371.989 -3.93529 3.13279 0
M  V30 3823 H 371.689 -3.38758 4.80122 0
M  V30 3824 H 373.213 -4.23062 4.40285 0
M  V30 3825 H 374.627 -2.15017 5.31451 0
M  V30 3826 H 373.024 -1.52796 5.80322 0
M  V30 3827 H 374.094 -0.51039 4.82206 0
M  V30 3828 N 375.437 -1.54477 -0.31217 0
M  V30 3829 C 376.683 -1.74417 -1.04644 0
M  V30 3830 C 377.038 -0.517641 -1.85306 0
M  V30 3831 O 376.331 0.489973 -1.85229 0
M  V30 3832 C 376.525 -2.967 -1.99258 0
M  V30 3833 C 376.354 -4.31128 -1.27901 0
M  V30 3834 C 375.124 -4.95087 -1.01079 0
M  V30 3835 C 377.322 -5.09662 -0.689119 0
M  V30 3836 N 375.304 -6.13322 -0.266323 0
M  V30 3837 C 376.675 -6.19952 -0.0768523 0
M  V30 3838 C 378.73 -4.94355 -0.593061 0
M  V30 3839 C 377.433 -7.16604 0.622165 0
M  V30 3840 C 379.459 -5.91328 0.0922792 0
M  V30 3841 C 378.821 -7.00978 0.693443 0
M  V30 3842 H 374.92 -0.69094 -0.366231 0
M  V30 3843 H 377.504 -1.91946 -0.326319 0
M  V30 3844 H 375.675 -2.80616 -2.68532 0
M  V30 3845 H 377.407 -3.05216 -2.65755 0
M  V30 3846 H 374.162 -4.55235 -1.30607 0
M  V30 3847 H 374.586 -6.76937 0.0920973 0
M  V30 3848 H 379.228 -4.09719 -1.04355 0
M  V30 3849 H 376.946 -8.0079 1.08445 0
M  V30 3850 H 380.532 -5.81562 0.166396 0
M  V30 3851 H 379.412 -7.74725 1.21533 0
M  V30 3852 N 376.915 0.57481 -1.46744 0
M  V30 3853 C 377.848 1.69827 -1.52427 0
M  V30 3854 C 378.826 1.58151 -0.377744 0
M  V30 3855 O 380.01 1.79257 -0.58303 0
M  V30 3856 C 377.137 3.07943 -1.41027 0
M  V30 3857 C 376.183 3.38116 -2.59961 0
M  V30 3858 S 377.016 3.29313 -4.22272 0
M  V30 3859 C 378.172 4.69953 -4.13394 0
M  V30 3860 H 378.405 1.64748 -2.47478 0
M  V30 3861 H 375.938 0.754203 -1.34726 0
M  V30 3862 H 377.896 3.87619 -1.35137 0
M  V30 3863 H 376.557 3.10504 -0.473909 0
M  V30 3864 H 375.75 4.38762 -2.47999 0
M  V30 3865 H 375.352 2.66024 -2.62882 0
M  V30 3866 H 377.644 5.60517 -3.80562 0
M  V30 3867 H 378.587 4.86972 -5.14066 0
M  V30 3868 H 378.995 4.47174 -3.44522 0
M  V30 3869 N 378.394 1.34581 0.820102 0
M  V30 3870 C 379.341 1.2639 1.93117 0
M  V30 3871 C 380.311 0.138554 1.65521 0
M  V30 3872 O 381.496 0.320004 1.88097 0
M  V30 3873 C 378.636 1.02812 3.29429 0
M  V30 3874 C 377.749 2.24146 3.693 0
M  V30 3875 C 376.884 1.93829 4.94574 0
M  V30 3876 C 375.923 3.1129 5.27034 0
M  V30 3877 N 375.06 2.80838 6.43486 0
M  V30 3878 H 379.9 2.21408 1.99455 0
M  V30 3879 H 377.437 1.10077 0.975784 0
M  V30 3880 H 379.395 0.871788 4.0799 0
M  V30 3881 H 378.025 0.114612 3.22596 0
M  V30 3882 H 377.077 2.50691 2.86109 0
M  V30 3883 H 378.389 3.11899 3.89257 0
M  V30 3884 H 377.543 1.74948 5.80929 0
M  V30 3885 H 376.282 1.03341 4.76626 0
M  V30 3886 H 375.287 3.30764 4.39175 0
M  V30 3887 H 376.512 4.02561 5.4692 0
M  V30 3888 H 374.458 1.92929 6.26988 0
M  V30 3889 H 374.375 3.62123 6.63629 0
M  V30 3890 H 375.643 2.65467 7.32903 0
M  V30 3891 N 379.872 -1.04064 1.18357 0
M  V30 3892 C 380.782 -2.15569 0.925596 0
M  V30 3893 C 381.798 -1.7365 -0.110295 0
M  V30 3894 O 382.974 -2.01273 0.0716218 0
M  V30 3895 C 380.039 -3.43704 0.454836 0
M  V30 3896 C 379.1 -4.00004 1.55869 0
M  V30 3897 C 378.333 -5.22023 1.1103 0
M  V30 3898 O 378.556 -5.70392 -0.0309756 0
M  V30 3899 O 377.49 -5.70856 1.90805 0
M  V30 3900 H 381.316 -2.40187 1.8586 0
M  V30 3901 H 378.901 -1.1402 0.965394 0
M  V30 3902 H 380.783 -4.20923 0.200382 0
M  V30 3903 H 379.458 -3.20559 -0.449876 0
M  V30 3904 H 378.365 -3.24172 1.86716 0
M  V30 3905 H 379.698 -4.2749 2.43953 0
M  V30 3906 N 381.35 -0.985608 -1.22978 0
M  V30 3907 C 382.761 -0.693593 -1.73338 0
M  V30 3908 C 383.112 0.789935 -1.79595 0
M  V30 3909 O 382.237 1.61771 -1.43733 0
M  V30 3910 C 382.832 -1.25235 -3.14804 0
M  V30 3911 C 381.391 -1.00987 -3.626 0
M  V30 3912 C 380.538 -1.37695 -2.40698 0
M  V30 3913 H 383.489 -1.15884 -1.08428 0
M  V30 3914 H 383.51 -0.627329 -3.75293 0
M  V30 3915 H 383.022 -2.33209 -3.10218 0
M  V30 3916 H 381.123 0.0535565 -3.72562 0
M  V30 3917 H 381.236 -1.66812 -4.49122 0
M  V30 3918 H 379.6 -0.795459 -2.4196 0
M  V30 3919 H 380.383 -2.46657 -2.38779 0
M  V30 3920 N 382.828 1.3818 -0.7579 0
M  V30 3921 C 384.056 2.04301 -0.326937 0
M  V30 3922 C 384.471 1.57163 1.0462 0
M  V30 3923 O 383.828 0.746626 1.66529 0
M  V30 3924 C 383.879 3.59846 -0.345363 0
M  V30 3925 O 383.6 4.05256 -1.66432 0
M  V30 3926 C 385.101 4.4319 0.098927 0
M  V30 3927 H 382.321 0.656443 -0.139012 0
M  V30 3928 H 384.865 1.76786 -1.02796 0
M  V30 3929 H 383.02 3.86182 0.306955 0
M  V30 3930 H 383.434 4.99709 -1.59345 0
M  V30 3931 H 384.908 5.51989 0.0348745 0
M  V30 3932 H 385.385 4.23947 1.14741 0
M  V30 3933 H 385.991 4.22051 -0.52468 0
M  V30 3934 N 384.306 0.507319 1.49211 0
M  V30 3935 C 385.534 -0.0315749 2.06876 0
M  V30 3936 C 385.949 -1.30241 1.36685 0
M  V30 3937 O 385.306 -1.76937 0.447152 0
M  V30 3938 C 385.357 -0.282627 3.60393 0
M  V30 3939 O 385.078 0.937835 4.27944 0
M  V30 3940 C 386.579 -0.864453 4.3479 0
M  V30 3941 H 383.799 0.0233048 0.670595 0
M  V30 3942 H 386.343 0.706484 1.91909 0
M  V30 3943 H 384.498 -0.97068 3.75042 0
M  V30 3944 H 384.912 0.704567 5.19746 0
M  V30 3945 H 386.386 -0.989664 5.43056 0
M  V30 3946 H 386.863 -1.86382 3.97692 0
M  V30 3947 H 387.469 -0.213672 4.24763 0
M  V30 3948 N 385.784 -1.5574 0.241426 0
M  V30 3949 C 387.03 -1.99104 -0.385406 0
M  V30 3950 C 387.363 -1.1293 -1.57988 0
M  V30 3951 O 386.638 -0.191449 -1.93555 0
M  V30 3952 C 386.921 -3.51087 -0.800616 0
M  V30 3953 C 386.774 -4.48028 0.398874 0
M  V30 3954 C 388.093 -4.08015 -1.64959 0
M  V30 3955 H 385.212 -0.723848 -0.138614 0
M  V30 3956 H 387.854 -1.86903 0.341642 0
M  V30 3957 H 386.004 -3.61615 -1.4201 0
M  V30 3958 H 387.676 -4.49487 1.03726 0
M  V30 3959 H 385.919 -4.21077 1.04293 0
M  V30 3960 H 386.59 -5.51962 0.0651056 0
M  V30 3961 H 389.066 -4.00555 -1.12672 0
M  V30 3962 H 387.942 -5.14635 -1.90898 0
M  V30 3963 H 388.203 -3.56131 -2.61961 0
M  V30 3964 N 387.262 0.0317525 -1.57568 0
M  V30 3965 C 388.225 1.01783 -2.0536 0
M  V30 3966 C 389.225 1.29203 -0.957253 0
M  V30 3967 O 390.415 1.24251 -1.22095 0
M  V30 3968 C 387.547 2.35137 -2.46827 0
M  V30 3969 H 388.74 0.605062 -2.93733 0
M  V30 3970 H 386.293 0.278514 -1.53799 0
M  V30 3971 H 387.028 2.81168 -1.61602 0
M  V30 3972 H 386.813 2.16566 -3.26866 0
M  V30 3973 H 388.303 3.05938 -2.84239 0
M  V30 3974 N 388.74 1.54641 0.303973 0
M  V30 3975 C 389.65 1.88439 1.39743 0
M  V30 3976 C 390.666 0.778239 1.55626 0
M  V30 3977 O 391.842 1.07442 1.70347 0
M  V30 3978 C 388.907 2.12212 2.74166 0
M  V30 3979 C 387.968 3.35936 2.67293 0
M  V30 3980 C 387.201 3.58566 3.95305 0
M  V30 3981 O 387.424 2.84263 4.9452 0
M  V30 3982 O 386.358 4.52078 3.97378 0
M  V30 3983 H 390.184 2.81458 1.14083 0
M  V30 3984 H 387.769 1.40793 0.499768 0
M  V30 3985 H 389.651 2.29067 3.53704 0
M  V30 3986 H 388.326 1.22379 2.99675 0
M  V30 3987 H 387.233 3.24448 1.86237 0
M  V30 3988 H 388.566 4.2589 2.46736 0
M  V30 3989 N 390.218 -0.567019 1.47046 0
M  V30 3990 C 391.467 -1.32091 1.5243 0
M  V30 3991 C 391.78 -1.94704 0.187021 0
M  V30 3992 O 392.986 -2.7124 0.118771 0
M  V30 3993 C 391.442 -2.39479 2.68659 0
M  V30 3994 C 391.05 -1.831 4.08874 0
M  V30 3995 C 392.794 -3.16111 2.83327 0
M  V30 3996 C 390.701 -2.8821 5.16419 0
M  V30 3997 H 389.631 -0.496629 0.56734 0
M  V30 3998 H 392.282 -0.603354 1.73297 0
M  V30 3999 H 390.664 -3.14105 2.41152 0
M  V30 4000 H 391.838 -1.14913 4.46242 0
M  V30 4001 H 390.153 -1.19085 3.99008 0
M  V30 4002 H 392.75 -3.94585 3.60842 0
M  V30 4003 H 393.093 -3.69686 1.91411 0
M  V30 4004 H 393.626 -2.48595 3.10556 0
M  V30 4005 H 390.365 -2.39504 6.10179 0
M  V30 4006 H 389.885 -3.54839 4.8358 0
M  V30 4007 H 391.564 -3.51881 5.42945 0
M  V30 4008 N 391.696 -1.35014 -0.812953 0
M  V30 4009 C 392.643 -1.27412 -1.92444 0
M  V30 4010 C 393.613 -0.14733 -1.65445 0
M  V30 4011 O 394.798 -0.329974 -1.87925 0
M  V30 4012 C 391.938 -1.04558 -3.28879 0
M  V30 4013 C 391.051 -2.26101 -3.68106 0
M  V30 4014 C 390.186 -1.96449 -4.9354 0
M  V30 4015 C 389.225 -3.14081 -5.25376 0
M  V30 4016 N 388.362 -2.84246 -6.41988 0
M  V30 4017 H 393.202 -2.22463 -1.98278 0
M  V30 4018 H 390.739 -1.10593 -0.969933 0
M  V30 4019 H 392.697 -0.893413 -4.07522 0
M  V30 4020 H 391.327 -0.131719 -3.22531 0
M  V30 4021 H 390.379 -2.52204 -2.84775 0
M  V30 4022 H 391.691 -3.13959 -3.87597 0
M  V30 4023 H 390.845 -1.78026 -5.79993 0
M  V30 4024 H 389.584 -1.05867 -4.76071 0
M  V30 4025 H 388.589 -3.33089 -4.37415 0
M  V30 4026 H 389.814 -4.05455 -5.44778 0
M  V30 4027 H 387.76 -1.96252 -6.25956 0
M  V30 4028 H 387.677 -3.65637 -6.61699 0
M  V30 4029 H 388.945 -2.6935 -7.31485 0
M  V30 4030 N 393.175 1.03435 -1.18907 0
M  V30 4031 C 394.424 1.76143 -0.982669 0
M  V30 4032 C 394.737 1.89416 0.487953 0
M  V30 4033 O 395.943 2.59041 0.813036 0
M  V30 4034 C 394.399 3.16722 -1.70924 0
M  V30 4035 C 394.007 3.11522 -3.21959 0
M  V30 4036 C 395.751 3.93764 -1.58588 0
M  V30 4037 C 393.658 4.46999 -3.87228 0
M  V30 4038 H 392.588 0.660292 -0.364047 0
M  V30 4039 H 395.239 1.158 -1.42347 0
M  V30 4040 H 393.621 3.775 -1.19623 0
M  V30 4041 H 394.795 2.60158 -3.80335 0
M  V30 4042 H 393.11 2.47978 -3.34508 0
M  V30 4043 H 395.707 4.93963 -2.04707 0
M  V30 4044 H 396.05 4.12794 -0.539142 0
M  V30 4045 H 396.583 3.39576 -2.07203 0
M  V30 4046 H 393.322 4.33174 -4.91976 0
M  V30 4047 H 392.842 4.98441 -3.33642 0
M  V30 4048 H 394.521 5.15898 -3.90459 0
M  V30 4049 N 394.653 0.992116 1.22453 0
M  V30 4050 C 395.901 0.666215 1.90804 0
M  V30 4051 C 396.222 -0.804152 1.77647 0
M  V30 4052 O 395.492 -1.57629 1.16318 0
M  V30 4053 H 394.072 0.243423 0.706225 0
M  V30 4054 H 396.734 1.25845 1.48825 0
M  V30 4055 H 395.83 0.928069 2.97982 0
M  V30 4056 N 396.131 -1.37776 0.765217 0
M  V30 4057 C 397.356 -2.04651 0.336537 0
M  V30 4058 C 397.781 -1.57337 -1.03086 0
M  V30 4059 O 397.139 -0.730621 -1.65927 0
M  V30 4060 C 397.187 -3.58577 0.381468 0
M  V30 4061 O 396.291 -4.07706 -0.62042 0
M  V30 4062 H 395.632 -0.64756 0.146838 0
M  V30 4063 H 398.162 -1.76221 1.03959 0
M  V30 4064 H 398.172 -4.07314 0.236448 0
M  V30 4065 H 396.847 -3.9237 1.37907 0
M  V30 4066 H 395.424 -3.70306 -0.439056 0
M  V30 4067 N 397.609 -0.515225 -1.4894 0
M  V30 4068 C 398.519 0.259774 -2.33157 0
M  V30 4069 C 399.535 0.953501 -1.45548 0
M  V30 4070 O 400.711 0.931735 -1.78552 0
M  V30 4071 C 397.776 1.30193 -3.21326 0
M  V30 4072 C 396.837 0.620129 -4.24797 0
M  V30 4073 C 396.07 1.61263 -5.08753 0
M  V30 4074 O 396.293 2.84389 -4.94448 0
M  V30 4075 O 395.227 1.16013 -5.90614 0
M  V30 4076 H 399.053 -0.429932 -3.00641 0
M  V30 4077 H 396.638 -0.276346 -1.46822 0
M  V30 4078 H 398.52 1.90455 -3.75905 0
M  V30 4079 H 397.195 1.97431 -2.56521 0
M  V30 4080 H 396.102 -0.0226019 -3.74093 0
M  V30 4081 H 397.435 -0.0100493 -4.92199 0
M  V30 4082 N 399.087 1.5561 -0.249682 0
M  V30 4083 C 400.05 2.20217 0.635394 0
M  V30 4084 C 401.05 1.17227 1.10066 0
M  V30 4085 O 402.24 1.42292 1.00492 0
M  V30 4086 C 399.372 2.84794 1.87363 0
M  V30 4087 H 400.565 2.99814 0.0716752 0
M  V30 4088 H 398.118 1.563 -0.000153234 0
M  V30 4089 H 398.853 2.09142 2.47851 0
M  V30 4090 H 398.638 3.60241 1.5482 0
M  V30 4091 H 400.128 3.3423 2.5036 0
M  V30 4092 N 400.565 -0.0233959 1.57583 0
M  V30 4093 C 401.981 -0.379134 1.55031 0
M  V30 4094 C 402.181 -1.76255 0.976548 0
M  V30 4095 O 401.237 -2.45266 0.600078 0
M  V30 4096 C 402.55 -0.275792 2.99433 0
M  V30 4097 C 404.098 -0.352458 3.11009 0
M  V30 4098 C 404.573 -0.278501 4.57152 0
M  V30 4099 N 406.064 -0.337123 4.61972 0
M  V30 4100 C 406.799 -0.302876 5.726 0
M  V30 4101 N 406.295 -0.220589 6.92449 0
M  V30 4102 N 408.088 -0.353023 5.6099 0
M  V30 4103 H 400.239 0.881869 1.93227 0
M  V30 4104 H 402.502 0.335867 0.886509 0
M  V30 4105 H 402.208 0.675108 3.4516 0
M  V30 4106 H 402.082 -1.06721 3.61788 0
M  V30 4107 H 404.469 -1.29379 2.65226 0
M  V30 4108 H 404.55 0.468409 2.51475 0
M  V30 4109 H 404.194 0.659189 5.03604 0
M  V30 4110 H 404.124 -1.11755 5.14605 0
M  V30 4111 H 406.615 -0.403002 3.75745 0
M  V30 4112 H 406.928 -0.199713 7.72542 0
M  V30 4113 H 405.273 -0.186555 6.9475 0
M  V30 4114 H 408.464 -0.415339 4.66254 0
M  V30 4115 H 408.637 -0.322866 6.47195 0
M  V30 4116 N 402.043 -1.548 -0.295768 0
M  V30 4117 C 403.268 -1.78653 -1.05346 0
M  V30 4118 C 403.693 -0.546894 -1.79974 0
M  V30 4119 O 403.051 0.502763 -1.7419 0
M  V30 4120 C 403.099 -2.99679 -2.00561 0
M  V30 4121 O 402.203 -2.7317 -3.08953 0
M  V30 4122 H 401.544 -0.59116 -0.302367 0
M  V30 4123 H 404.074 -2.01895 -0.331598 0
M  V30 4124 H 404.084 -3.27793 -2.42932 0
M  V30 4125 H 402.759 -3.89562 -1.4565 0
M  V30 4126 H 401.336 -2.56089 -2.71059 0
M  V30 4127 N 403.521 0.559213 -1.47345 0
M  V30 4128 C 404.77 1.31281 -1.53128 0
M  V30 4129 C 405.083 1.94602 -0.197344 0
M  V30 4130 O 406.289 2.71173 -0.133154 0
M  V30 4131 C 404.745 2.38051 -2.69925 0
M  V30 4132 C 404.353 1.8093 -4.0984 0
M  V30 4133 C 406.097 3.14604 -2.84999 0
M  V30 4134 C 404.004 2.85468 -5.1794 0
M  V30 4135 H 402.934 0.493614 -0.569966 0
M  V30 4136 H 405.585 0.594155 -1.73615 0
M  V30 4137 H 403.967 3.12822 -2.42814 0
M  V30 4138 H 405.141 1.12544 -4.46845 0
M  V30 4139 H 403.456 1.16967 -3.99634 0
M  V30 4140 H 406.053 3.92666 -3.62929 0
M  V30 4141 H 406.396 3.68665 -1.93369 0
M  V30 4142 H 406.929 2.46945 -3.1187 0
M  V30 4143 H 403.668 2.36264 -6.1144 0
M  V30 4144 H 403.188 3.52269 -4.85455 0
M  V30 4145 H 404.867 3.48996 -5.44803 0
M  V30 4146 N 404.999 1.35443 0.805782 0
M  V30 4147 C 405.909 1.30546 1.94923 0
M  V30 4148 C 406.925 0.210233 1.72725 0
M  V30 4149 O 408.101 0.43975 1.9654 0
M  V30 4150 C 405.166 1.07782 3.29521 0
M  V30 4151 C 404.227 2.26625 3.64609 0
M  V30 4152 C 403.46 2.04938 4.92784 0
M  V30 4153 O 403.683 1.01624 5.61274 0
M  V30 4154 O 402.617 2.9232 5.26149 0
M  V30 4155 H 406.443 2.26779 2.02002 0
M  V30 4156 H 404.028 1.15823 0.943682 0
M  V30 4157 H 405.91 0.969392 4.10098 0
M  V30 4158 H 404.585 0.146003 3.23371 0
M  V30 4159 H 403.492 2.43033 2.84404 0
M  V30 4160 H 404.825 3.18257 3.75464 0
M  V30 4161 N 406.477 -1.02803 1.19454 0
M  V30 4162 C 407.705 -1.79841 1.02297 0
M  V30 4163 C 408.12 -1.83879 -0.428259 0
M  V30 4164 O 407.477 -1.28345 -1.29745 0
M  V30 4165 C 407.528 -3.24852 1.58598 0
M  V30 4166 O 407.249 -3.21097 2.98041 0
M  V30 4167 C 408.75 -4.18485 1.46236 0
M  V30 4168 H 405.97 -0.565936 0.360496 0
M  V30 4169 H 408.514 -1.2948 1.58288 0
M  V30 4170 H 406.669 -3.72401 1.06753 0
M  V30 4171 H 407.083 -4.12033 3.24545 0
M  V30 4172 H 408.557 -5.18121 1.90407 0
M  V30 4173 H 409.034 -4.37254 0.41301 0
M  V30 4174 H 409.64 -3.76811 1.97215 0
M  V30 4175 N 407.956 -0.998596 -1.21925 0
M  V30 4176 C 409.181 -0.696015 -1.95372 0
M  V30 4177 C 409.606 0.733826 -1.73195 0
M  V30 4178 O 408.964 1.50242 -1.01474 0
M  V30 4179 C 409.012 -1.01466 -3.4603 0
M  V30 4180 O 408.116 -0.116415 -4.12236 0
M  V30 4181 H 407.457 -0.259938 -0.611006 0
M  V30 4182 H 409.987 -1.33711 -1.54863 0
M  V30 4183 H 409.997 -0.958855 -3.96573 0
M  V30 4184 H 408.672 -2.05653 -3.61497 0
M  V30 4185 H 407.249 -0.228193 -3.72201 0
M  V30 4186 N 409.434 1.37368 -0.772513 0
M  V30 4187 C 410.381 2.30262 -0.157488 0
M  V30 4188 C 411.351 1.51137 0.688965 0
M  V30 4189 O 412.536 1.79704 0.641168 0
M  V30 4190 C 409.676 3.37611 0.715045 0
M  V30 4191 C 408.789 4.31746 -0.148098 0
M  V30 4192 C 407.924 5.26171 0.729213 0
M  V30 4193 C 406.963 6.11948 -0.136418 0
M  V30 4194 N 406.1 6.98613 0.698914 0
M  V30 4195 H 410.94 2.82277 -0.955179 0
M  V30 4196 H 408.477 1.38957 -0.482631 0
M  V30 4197 H 410.435 3.98479 1.23575 0
M  V30 4198 H 409.065 2.86959 1.47833 0
M  V30 4199 H 408.117 3.72178 -0.786613 0
M  V30 4200 H 409.429 4.92084 -0.81579 0
M  V30 4201 H 408.583 5.92247 1.31637 0
M  V30 4202 H 407.322 4.66246 1.43059 0
M  V30 4203 H 406.327 5.4485 -0.736102 0
M  V30 4204 H 407.552 6.73945 -0.835134 0
M  V30 4205 H 405.498 6.41215 1.38489 0
M  V30 4206 H 405.415 7.55948 0.0885358 0
M  V30 4207 H 406.683 7.69077 1.27044 0
M  V30 4208 N 410.912 0.523116 1.48665 0
M  V30 4209 C 411.845 -0.290518 2.26343 0
M  V30 4210 C 412.823 -0.950913 1.31895 0
M  V30 4211 O 414.007 -0.976662 1.61225 0
M  V30 4212 C 411.134 -1.41088 3.07915 0
M  V30 4213 C 410.18 -0.862597 4.17686 0
M  V30 4214 S 411.013 0.264135 5.34848 0
M  V30 4215 C 412.169 -0.858864 6.19979 0
M  V30 4216 H 412.402 0.368726 2.95005 0
M  V30 4217 H 409.935 0.30878 1.51281 0
M  V30 4218 H 411.893 -2.0527 3.55492 0
M  V30 4219 H 410.554 -2.04182 2.38681 0
M  V30 4220 H 409.747 -1.70287 4.74361 0
M  V30 4221 H 409.349 -0.297595 3.72814 0
M  V30 4222 H 411.641 -1.7591 6.54264 0
M  V30 4223 H 412.584 -0.330244 7.07329 0
M  V30 4224 H 412.992 -1.13617 5.52948 0
M  V30 4225 N 412.39 -1.55475 0.257931 0
M  V30 4226 C 413.3 -2.2549 -0.647425 0
M  V30 4227 C 414.316 -1.2748 -1.18427 0
M  V30 4228 O 415.492 -1.6038 -1.2182 0
M  V30 4229 C 412.557 -2.94916 -1.82278 0
M  V30 4230 C 411.618 -4.08363 -1.32432 0
M  V30 4231 C 410.851 -4.74469 -2.44366 0
M  V30 4232 O 411.074 -4.39701 -3.63344 0
M  V30 4233 O 410.008 -5.62763 -2.13497 0
M  V30 4234 H 413.834 -3.03593 -0.0807707 0
M  V30 4235 H 411.419 -1.49377 0.0259962 0
M  V30 4236 H 413.301 -3.38606 -2.50846 0
M  V30 4237 H 411.976 -2.19744 -2.37685 0
M  V30 4238 H 410.883 -3.69166 -0.605605 0
M  V30 4239 H 412.216 -4.85385 -0.816211 0
M  V30 4240 N 413.868 0.0150385 -1.57593 0
M  V30 4241 C 415.116 0.701613 -1.8953 0
M  V30 4242 C 415.437 1.75139 -0.857396 0
M  V30 4243 O 414.707 1.95607 0.107194 0
M  V30 4244 H 413.287 0.26213 -0.699498 0
M  V30 4245 H 415.949 -0.0223304 -1.94887 0
M  V30 4246 H 415.045 1.18236 -2.88837 0
M  V30 4247 N 415.346 1.54954 0.287554 0
M  V30 4248 C 416.592 1.76059 1.01856 0
M  V30 4249 C 416.947 0.547056 1.84459 0
M  V30 4250 O 416.24 -0.460442 1.85985 0
M  V30 4251 C 416.434 2.99833 1.94512 0
M  V30 4252 C 416.263 4.33108 1.21026 0
M  V30 4253 C 415.033 4.96632 0.931896 0
M  V30 4254 C 417.231 5.10694 0.607949 0
M  V30 4255 N 415.213 6.13668 0.168716 0
M  V30 4256 C 416.584 6.19996 -0.0217865 0
M  V30 4257 C 418.639 4.95236 0.514338 0
M  V30 4258 C 417.342 7.15524 -0.736092 0
M  V30 4259 C 419.368 5.91106 -0.186343 0
M  V30 4260 C 418.73 6.99786 -0.804875 0
M  V30 4261 H 414.829 0.696679 0.355193 0
M  V30 4262 H 417.413 1.92441 0.295741 0
M  V30 4263 H 415.584 2.84853 2.64033 0
M  V30 4264 H 417.316 3.09405 2.60865 0
M  V30 4265 H 414.071 4.57255 1.23348 0
M  V30 4266 H 414.495 6.76705 -0.199781 0
M  V30 4267 H 419.137 4.11328 0.978234 0
M  V30 4268 H 416.855 7.98964 -1.21172 0
M  V30 4269 H 420.441 5.81224 -0.258897 0
M  V30 4270 H 419.321 7.72694 -1.33843 0
M  V30 4271 N 416.824 -0.551391 1.4764 0
M  V30 4272 C 417.734 -1.68525 1.63207 0
M  V30 4273 C 418.75 -1.6621 0.514815 0
M  V30 4274 O 419.926 -1.85551 0.783113 0
M  V30 4275 C 416.991 -3.05025 1.64805 0
M  V30 4276 C 416.052 -3.18362 2.88 0
M  V30 4277 C 415.285 -4.4835 2.89513 0
M  V30 4278 O 415.508 -5.34163 2.00065 0
M  V30 4279 O 414.442 -4.65602 3.81443 0
M  V30 4280 H 418.268 -1.58333 2.59161 0
M  V30 4281 H 415.853 -0.722063 1.30792 0
M  V30 4282 H 417.735 -3.86245 1.68502 0
M  V30 4283 H 416.41 -3.15587 0.720197 0
M  V30 4284 H 415.317 -2.36518 2.89845 0
M  V30 4285 H 416.65 -3.12707 3.80099 0
M  V30 4286 N 418.302 -1.35869 -0.798587 0
M  V30 4287 C 419.579 -1.20145 -1.54352 0
M  V30 4288 C 419.959 0.216161 -2.0999 0
M  V30 4289 O 419.307 1.22068 -1.93162 0
M  V30 4290 C 419.517 -2.27602 -2.64572 0
M  V30 4291 C 420.865 -2.63811 -3.32699 0
M  V30 4292 O 421.889 -2.26576 -2.74849 0
M  V30 4293 O 420.748 -3.27866 -4.37226 0
M  V30 4294 H 417.842 -0.467248 -0.682355 0
M  V30 4295 H 420.388 -1.47574 -0.837859 0
M  V30 4296 H 419.16 -3.2265 -2.21388 0
M  V30 4297 H 418.783 -2.01488 -3.42766 0
M  V30 4298 N 419.78 1.02168 -1.19998 0
M  V30 4299 C 420.727 2.10601 -0.944228 0
M  V30 4300 C 421.697 1.65639 0.123664 0
M  V30 4301 O 422.882 1.9079 -0.0199941 0
M  V30 4302 C 420.022 3.41504 -0.496865 0
M  V30 4303 C 419.135 3.99973 -1.63234 0
M  V30 4304 C 418.27 5.18915 -1.13579 0
M  V30 4305 C 417.309 5.69456 -2.24468 0
M  V30 4306 N 416.446 6.79665 -1.76068 0
M  V30 4307 H 421.286 2.31814 -1.8726 0
M  V30 4308 H 418.823 1.13686 -0.933483 0
M  V30 4309 H 420.781 4.16626 -0.218843 0
M  V30 4310 H 419.411 3.2038 0.394508 0
M  V30 4311 H 418.463 3.21997 -2.0254 0
M  V30 4312 H 419.775 4.33492 -2.46752 0
M  V30 4313 H 418.929 6.01222 -0.813429 0
M  V30 4314 H 417.668 4.8695 -0.270434 0
M  V30 4315 H 416.673 4.85757 -2.57526 0
M  V30 4316 H 417.898 6.03459 -3.11472 0
M  V30 4317 H 415.844 6.49538 -0.918516 0
M  V30 4318 H 415.761 7.12349 -2.5317 0
M  V30 4319 H 417.029 7.65549 -1.46817 0
M  V30 4320 N 421.258 1.00505 1.21394 0
M  V30 4321 C 422.488 0.705584 1.94178 0
M  V30 4322 C 422.896 -0.735846 1.74304 0
M  V30 4323 O 422.239 -1.50954 1.04683 0
M  V30 4324 C 422.301 0.94689 3.46806 0
M  V30 4325 C 421.965 2.37517 3.90429 0
M  V30 4326 C 422.962 3.35539 3.97127 0
M  V30 4327 C 420.647 2.71284 4.22742 0
M  V30 4328 C 422.641 4.65395 4.3553 0
M  V30 4329 C 420.328 4.01356 4.60822 0
M  V30 4330 C 421.326 4.98223 4.67186 0
M  V30 4331 O 421.014 6.25969 5.04399 0
M  V30 4332 H 420.746 0.259216 0.624326 0
M  V30 4333 H 423.3 1.34592 1.55159 0
M  V30 4334 H 421.53 0.249386 3.85895 0
M  V30 4335 H 423.219 0.640804 4.0081 0
M  V30 4336 H 423.985 3.10786 3.7234 0
M  V30 4337 H 419.864 1.96581 4.16985 0
M  V30 4338 H 423.408 5.41002 4.40412 0
M  V30 4339 H 419.305 4.25893 4.85063 0
M  V30 4340 H 420.073 6.30085 5.22431 0
M  V30 4341 N 422.737 -1.36956 0.779787 0
M  V30 4342 C 423.7 -2.2851 0.177662 0
M  V30 4343 C 424.7 -1.48393 -0.619377 0
M  V30 4344 O 425.89 -1.68505 -0.441785 0
M  V30 4345 C 423.022 -3.32428 -0.755279 0
M  V30 4346 H 424.215 -2.83269 0.984823 0
M  V30 4347 H 421.768 -1.46358 0.548544 0
M  V30 4348 H 422.503 -2.82808 -1.58714 0
M  V30 4349 H 422.288 -3.91659 -0.185817 0
M  V30 4350 H 423.778 -4.00824 -1.17174 0
M  V30 4351 N 424.215 -0.530993 -1.48385 0
M  V30 4352 C 425.464 0.00474348 -2.01699 0
M  V30 4353 C 425.777 1.35227 -1.41325 0
M  V30 4354 O 426.983 1.97643 -1.86144 0
M  V30 4355 C 425.439 0.0588473 -3.59852 0
M  V30 4356 C 425.047 -1.28385 -4.2921 0
M  V30 4357 C 426.791 0.543358 -4.21008 0
M  V30 4358 C 424.698 -1.19028 -5.79298 0
M  V30 4359 H 423.628 0.00554317 -0.75398 0
M  V30 4360 H 426.279 -0.674924 -1.70637 0
M  V30 4361 H 424.661 0.803612 -3.8776 0
M  V30 4362 H 425.835 -2.04426 -4.12973 0
M  V30 4363 H 424.15 -1.70418 -3.7993 0
M  V30 4364 H 426.747 0.631351 -5.3096 0
M  V30 4365 H 427.09 1.54937 -3.86394 0
M  V30 4366 H 427.623 -0.145754 -3.97533 0
M  V30 4367 H 424.362 -2.17147 -6.18488 0
M  V30 4368 H 423.882 -0.471246 -5.97946 0
M  V30 4369 H 425.561 -0.881365 -6.40969 0
M  V30 4370 N 425.693 1.55336 -0.266172 0
M  V30 4371 C 426.656 2.20878 0.612001 0
M  V30 4372 C 427.656 1.18388 1.08816 0
M  V30 4373 O 428.846 1.4335 0.989774 0
M  V30 4374 C 425.978 2.86765 1.84332 0
M  V30 4375 H 427.171 2.99873 0.0398718 0
M  V30 4376 H 424.724 1.56291 -0.0167309 0
M  V30 4377 H 425.459 2.11759 2.45619 0
M  V30 4378 H 425.244 3.61862 1.5099 0
M  V30 4379 H 426.734 3.36867 2.46801 0
M  V30 4380 N 427.171 -0.0066808 1.57599 0
M  V30 4381 C 428.419 -0.691552 1.899 0
M  V30 4382 C 428.74 -1.74682 0.866672 0
M  V30 4383 O 428.01 -1.95661 -0.0968189 0
M  V30 4384 H 426.59 -0.258416 0.700878 0
M  V30 4385 H 429.252 0.0326655 1.94873 0
M  V30 4386 H 428.348 -1.16702 2.8946 0
M  V30 4387 N 428.649 -1.55105 -0.279332 0
M  V30 4388 C 429.612 -1.86783 -1.32834 0
M  V30 4389 C 430.612 -0.74199 -1.42657 0
M  V30 4390 O 431.802 -1.0102 -1.41918 0
M  V30 4391 C 428.934 -2.06746 -2.71052 0
M  V30 4392 H 430.127 -2.8055 -1.05979 0
M  V30 4393 H 427.68 -1.47499 -0.517087 0
M  V30 4394 H 428.415 -1.15339 -3.03097 0
M  V30 4395 H 428.2 -2.88711 -2.65309 0
M  V30 4396 H 429.69 -2.32549 -3.46858 0
M  V30 4397 N 430.127 0.543554 -1.4793 0
M  V30 4398 C 431.357 1.32324 -1.58663 0
M  V30 4399 C 431.765 1.8766 -0.240896 0
M  V30 4400 O 431.108 1.66411 0.778011 0
M  V30 4401 C 431.17 2.52094 -2.56299 0
M  V30 4402 C 430.834 2.17944 -4.01683 0
M  V30 4403 C 431.831 1.74422 -4.89768 0
M  V30 4404 C 429.516 2.28884 -4.47121 0
M  V30 4405 C 431.51 1.42287 -6.21316 0
M  V30 4406 C 429.197 1.96361 -5.78693 0
M  V30 4407 C 430.195 1.53132 -6.65612 0
M  V30 4408 O 429.883 1.21029 -7.94737 0
M  V30 4409 H 429.615 0.409174 -0.538101 0
M  V30 4410 H 432.169 0.663887 -1.94375 0
M  V30 4411 H 430.399 3.20965 -2.15681 0
M  V30 4412 H 432.088 3.14165 -2.57012 0
M  V30 4413 H 432.854 1.65452 -4.55907 0
M  V30 4414 H 428.733 2.61488 -3.79664 0
M  V30 4415 H 432.277 1.08472 -6.89115 0
M  V30 4416 H 428.174 2.04967 -6.12094 0
M  V30 4417 H 428.942 1.34543 -8.07366 0
M  V30 4418 N 431.605 1.3629 0.791371 0
M  V30 4419 C 432.851 1.31613 1.5508 0
M  V30 4420 C 433.206 -0.104372 1.92117 0
M  V30 4421 O 432.499 -1.05845 1.5971 0
M  V30 4422 C 432.693 2.17068 2.8393 0
M  V30 4423 C 432.522 3.67285 2.59484 0
M  V30 4424 C 431.292 4.36469 2.54604 0
M  V30 4425 C 433.49 4.60595 2.28816 0
M  V30 4426 N 431.472 5.7234 2.22036 0
M  V30 4427 C 432.843 5.847 2.06218 0
M  V30 4428 C 434.898 4.4918 2.14806 0
M  V30 4429 C 433.601 6.98671 1.71028 0
M  V30 4430 C 435.627 5.63017 1.81014 0
M  V30 4431 C 434.989 6.86159 1.59263 0
M  V30 4432 H 431.088 0.536878 0.568582 0
M  V30 4433 H 433.672 1.71323 0.925007 0
M  V30 4434 H 431.843 1.79605 3.44378 0
M  V30 4435 H 433.575 2.03795 3.49642 0
M  V30 4436 H 430.33 3.89249 2.69782 0
M  V30 4437 H 430.754 6.44093 2.08503 0
M  V30 4438 H 435.396 3.54564 2.30313 0
M  V30 4439 H 433.114 7.9324 1.54259 0
M  V30 4440 H 436.7 5.56146 1.70861 0
M  V30 4441 H 435.58 7.72753 1.335 0
M  V30 4442 N 433.083 -1.0153 1.20538 0
M  V30 4443 C 434.494 -1.56598 1.01657 0
M  V30 4444 C 434.845 -1.91505 -0.426668 0
M  V30 4445 O 433.97 -1.72375 -1.30827 0
M  V30 4446 C 434.565 -2.84542 1.83905 0
M  V30 4447 C 433.124 -3.36133 1.69386 0
M  V30 4448 C 432.271 -2.09427 1.81757 0
M  V30 4449 H 435.222 -0.838974 1.34711 0
M  V30 4450 H 435.243 -3.56004 1.34319 0
M  V30 4451 H 434.755 -2.59105 2.8894 0
M  V30 4452 H 432.856 -3.66528 0.669933 0
M  V30 4453 H 432.969 -4.08248 2.50739 0
M  V30 4454 H 431.333 -2.21941 1.24957 0
M  V30 4455 H 432.116 -1.86414 2.88279 0
M  V30 4456 N 434.561 -1.01147 -1.20859 0
M  V30 4457 C 435.972 -0.730205 -1.71828 0
M  V30 4458 C 436.323 0.751662 -1.8123 0
M  V30 4459 O 435.448 1.58686 -1.47132 0
M  V30 4460 C 436.043 -1.31885 -3.12077 0
M  V30 4461 C 434.602 -1.08656 -3.60376 0
M  V30 4462 C 433.749 -1.42769 -2.37723 0
M  V30 4463 H 436.7 -1.18158 -1.05945 0
M  V30 4464 H 436.721 -0.706793 -3.73878 0
M  V30 4465 H 436.233 -2.39737 -3.05201 0
M  V30 4466 H 434.334 -0.0254814 -3.72591 0
M  V30 4467 H 434.447 -1.76301 -4.45483 0
M  V30 4468 H 432.811 -0.846603 -2.40218 0
M  V30 4469 H 433.594 -2.51666 -2.33493 0
M  V30 4470 N 436.039 1.36541 -0.78704 0
M  V30 4471 C 436.971 2.28761 -0.141773 0
M  V30 4472 C 437.984 1.49365 0.647599 0
M  V30 4473 O 439.173 1.71836 0.483173 0
M  V30 4474 C 436.273 3.28771 0.822368 0
M  V30 4475 C 435.446 4.3732 0.0835594 0
M  V30 4476 C 434.505 5.17307 0.963296 0
M  V30 4477 O 433.531 5.67638 0.421419 0
M  V30 4478 N 434.733 5.33515 2.28784 0
M  V30 4479 H 437.498 2.84777 -0.933919 0
M  V30 4480 H 435.059 1.48682 -0.640735 0
M  V30 4481 H 437.051 3.79169 1.41468 0
M  V30 4482 H 435.621 2.73412 1.5154 0
M  V30 4483 H 434.841 3.88118 -0.689809 0
M  V30 4484 H 436.129 5.0701 -0.426358 0
M  V30 4485 H 435.527 4.94234 2.75226 0
M  V30 4486 H 434.084 5.87165 2.82985 0
M  V30 4487 N 437.518 0.538854 1.48102 0
M  V30 4488 C 438.748 0.0122958 2.06596 0
M  V30 4489 C 439.156 -1.27861 1.39457 0
M  V30 4490 O 438.499 -1.77348 0.478907 0
M  V30 4491 C 438.561 -0.273131 3.58461 0
M  V30 4492 C 438.225 0.92561 4.47528 0
M  V30 4493 C 439.222 1.82637 4.86765 0
M  V30 4494 C 436.907 1.13511 4.89306 0
M  V30 4495 C 438.901 2.92047 5.66558 0
M  V30 4496 C 436.588 2.23233 5.68868 0
M  V30 4497 C 437.586 3.12333 6.07402 0
M  V30 4498 O 437.274 4.20155 6.85365 0
M  V30 4499 H 437.006 0.0344283 0.675123 0
M  V30 4500 H 439.56 0.746494 1.91355 0
M  V30 4501 H 437.79 -1.06141 3.71848 0
M  V30 4502 H 439.479 -0.742842 3.99045 0
M  V30 4503 H 440.245 1.67649 4.55103 0
M  V30 4504 H 436.124 0.450835 4.5879 0
M  V30 4505 H 439.668 3.6162 5.96554 0
M  V30 4506 H 435.565 2.38201 5.99942 0
M  V30 4507 H 436.333 4.17975 7.03732 0
M  V30 4508 N 438.996 -1.55193 0.274407 0
M  V30 4509 C 440.242 -1.99877 -0.343086 0
M  V30 4510 C 440.575 -1.16256 -1.55558 0
M  V30 4511 O 439.85 -0.232462 -1.93106 0
M  V30 4512 C 440.133 -3.52706 -0.725965 0
M  V30 4513 C 439.986 -4.47081 0.493818 0
M  V30 4514 C 441.305 -4.11422 -1.56268 0
M  V30 4515 H 438.424 -0.726625 -0.123229 0
M  V30 4516 H 441.066 -1.86136 0.38121 0
M  V30 4517 H 439.216 -3.64546 -1.34307 0
M  V30 4518 H 440.888 -4.47186 1.13237 0
M  V30 4519 H 439.131 -4.1877 1.13201 0
M  V30 4520 H 439.802 -5.51699 0.18217 0
M  V30 4521 H 442.278 -4.02855 -1.04151 0
M  V30 4522 H 441.154 -5.18568 -1.79939 0
M  V30 4523 H 441.415 -3.61607 -2.54348 0
M  V30 4524 N 440.474 -0.00167713 -1.576 0
M  V30 4525 C 441.723 0.682021 -1.89819 0
M  V30 4526 C 442.036 1.74844 -0.876871 0
M  V30 4527 O 443.242 2.48688 -1.08934 0
M  V30 4528 C 441.698 1.26425 -3.36964 0
M  V30 4529 C 441.306 0.232568 -4.47396 0
M  V30 4530 C 443.05 1.92604 -3.78291 0
M  V30 4531 C 440.957 0.824882 -5.85619 0
M  V30 4532 H 439.887 0.258499 -0.708304 0
M  V30 4533 H 442.538 -0.0624957 -1.83394 0
M  V30 4534 H 440.92 2.05949 -3.38232 0
M  V30 4535 H 442.094 -0.5382 -4.57646 0
M  V30 4536 H 440.409 -0.32888 -4.15099 0
M  V30 4537 H 443.006 2.37827 -4.78897 0
M  V30 4538 H 443.349 2.75732 -3.11894 0
M  V30 4539 H 443.882 1.19812 -3.79328 0
M  V30 4540 H 440.621 0.0323542 -6.55492 0
M  V30 4541 H 440.141 1.56477 -5.79029 0
M  V30 4542 H 441.82 1.32301 -6.33329 0
M  V30 4543 N 441.952 1.55251 0.271103 0
M  V30 4544 C 442.885 1.83191 1.36075 0
M  V30 4545 C 443.863 0.685091 1.47463 0
M  V30 4546 O 445.047 0.928292 1.64058 0
M  V30 4547 C 442.174 1.99521 2.73696 0
M  V30 4548 C 441.22 3.22081 2.79582 0
M  V30 4549 S 442.053 4.79388 2.38636 0
M  V30 4550 C 443.209 4.98693 3.78228 0
M  V30 4551 H 443.442 2.75327 1.12171 0
M  V30 4552 H 440.975 1.47046 0.470833 0
M  V30 4553 H 442.933 2.09613 3.52948 0
M  V30 4554 H 441.594 1.0827 2.9485 0
M  V30 4555 H 440.787 3.304 3.80594 0
M  V30 4556 H 440.389 3.10589 2.08352 0
M  V30 4557 H 442.681 4.84551 4.73515 0
M  V30 4558 H 443.624 6.00738 3.7486 0
M  V30 4559 H 444.032 4.26665 3.69618 0
M  V30 4560 N 443.43 -0.535701 1.48216 0
M  V30 4561 C 444.707 -1.29683 1.46429 0
M  V30 4562 C 445.087 -2.10391 0.172852 0
M  V30 4563 O 444.435 -2.12282 -0.845488 0
M  V30 4564 C 444.645 -2.18313 2.72287 0
M  V30 4565 C 445.993 -2.78639 3.20383 0
M  V30 4566 O 447.017 -2.28604 2.73164 0
M  V30 4567 O 445.876 -3.69636 4.02531 0
M  V30 4568 H 442.97 -0.585026 0.584529 0
M  V30 4569 H 445.516 -0.552827 1.60443 0
M  V30 4570 H 444.288 -1.58421 3.57797 0
M  V30 4571 H 443.911 -2.99971 2.60966 0
M  V30 4572 N 444.908 -1.36708 -0.784132 0
M  V30 4573 C 446.156 -1.30972 -1.53918 0
M  V30 4574 C 446.477 0.109086 -1.94695 0
M  V30 4575 O 445.747 1.05048 -1.65353 0
M  V30 4576 H 444.327 -0.481819 -0.570841 0
M  V30 4577 H 446.989 -1.71063 -0.934002 0
M  V30 4578 H 446.085 -1.94061 -2.44431 0
M  V30 4579 N 446.386 1.0089 -1.21074 0
M  V30 4580 C 447.296 2.13039 -0.982425 0
M  V30 4581 C 448.312 1.73881 0.0642161 0
M  V30 4582 O 449.488 2.01012 -0.12496 0
M  V30 4583 C 446.553 3.42377 -0.545803 0
M  V30 4584 C 445.614 3.95731 -1.6642 0
M  V30 4585 C 444.847 5.18896 -1.24832 0
M  V30 4586 O 445.07 5.70273 -0.120265 0
M  V30 4587 O 444.004 5.65597 -2.05873 0
M  V30 4588 H 447.83 2.35175 -1.92163 0
M  V30 4589 H 445.415 1.1142 -0.995285 0
M  V30 4590 H 447.297 4.20244 -0.311912 0
M  V30 4591 H 445.972 3.21639 0.364727 0
M  V30 4592 H 444.879 3.19108 -1.95246 0
M  V30 4593 H 446.212 4.20872 -2.55201 0
M  V30 4594 N 447.864 1.01787 1.20321 0
M  V30 4595 C 449.092 0.727194 1.937 0
M  V30 4596 C 449.507 -0.712305 1.74848 0
M  V30 4597 O 448.864 -1.48327 1.06327 0
M  V30 4598 C 448.915 1.05497 3.45764 0
M  V30 4599 O 448.636 2.43794 3.64 0
M  V30 4600 C 450.137 0.785534 4.36285 0
M  V30 4601 H 447.357 0.266939 0.615617 0
M  V30 4602 H 449.901 1.35939 1.52777 0
M  V30 4603 H 448.056 0.468158 3.84561 0
M  V30 4604 H 448.47 2.55656 4.57974 0
M  V30 4605 H 449.944 1.06495 5.4163 0
M  V30 4606 H 450.421 -0.280273 4.38305 0
M  V30 4607 H 451.027 1.35456 4.03152 0
M  V30 4608 N 449.342 -1.36122 0.79427 0
M  V30 4609 C 450.272 -2.32551 0.210328 0
M  V30 4610 C 451.253 -1.56884 -0.657386 0
M  V30 4611 O 452.438 -1.85014 -0.590207 0
M  V30 4612 C 449.568 -3.41128 -0.651819 0
M  V30 4613 C 448.522 -4.27842 0.116395 0
M  V30 4614 C 447.848 -5.2763 -0.86666 0
M  V30 4615 C 449.148 -5.05647 1.30837 0
M  V30 4616 H 450.842 -2.81636 1.01594 0
M  V30 4617 H 448.388 -1.35407 0.489981 0
M  V30 4618 H 450.341 -4.07581 -1.07031 0
M  V30 4619 H 449.065 -2.90622 -1.49019 0
M  V30 4620 H 447.724 -3.62952 0.515915 0
M  V30 4621 H 447.372 -4.73395 -1.70019 0
M  V30 4622 H 447.072 -5.86514 -0.35705 0
M  V30 4623 H 448.596 -5.96955 -1.28361 0
M  V30 4624 H 450.01 -5.65113 0.965393 0
M  V30 4625 H 448.407 -5.73967 1.75161 0
M  V30 4626 H 449.477 -4.37006 2.10128 0
M  V30 4627 N 450.82 -0.546701 -1.47814 0
M  V30 4628 C 451.73 0.21026 -2.33656 0
M  V30 4629 C 452.746 0.922413 -1.47538 0
M  V30 4630 O 453.922 0.893652 -1.80488 0
M  V30 4631 C 450.987 1.23348 -3.24016 0
M  V30 4632 C 450.048 0.529883 -4.26017 0
M  V30 4633 C 449.281 1.50435 -5.12059 0
M  V30 4634 O 449.504 2.73837 -5.00369 0
M  V30 4635 O 448.438 1.03459 -5.92942 0
M  V30 4636 H 452.264 -0.493605 -2.99662 0
M  V30 4637 H 449.849 -0.307427 -1.46203 0
M  V30 4638 H 451.731 1.82438 -3.79861 0
M  V30 4639 H 450.406 1.91945 -2.60651 0
M  V30 4640 H 449.313 -0.101948 -3.73961 0
M  V30 4641 H 450.646 -0.11445 -4.92067 0
M  V30 4642 N 452.299 1.55045 -0.282633 0
M  V30 4643 C 453.71 1.85473 0.213655 0
M  V30 4644 C 454.061 1.20465 1.54863 0
M  V30 4645 O 453.186 0.495676 2.10647 0
M  V30 4646 C 453.781 3.36496 0.394445 0
M  V30 4647 C 452.34 3.67022 0.834961 0
M  V30 4648 C 451.487 2.77218 -0.0674081 0
M  V30 4649 H 454.438 1.50478 -0.504202 0
M  V30 4650 H 454.459 3.60007 1.23186 0
M  V30 4651 H 453.971 3.83782 -0.577326 0
M  V30 4652 H 452.072 3.25241 1.81794 0
M  V30 4653 H 452.185 4.74433 0.667075 0
M  V30 4654 H 450.549 2.5069 0.450196 0
M  V30 4655 H 451.332 3.2732 -1.0352 0
M  V30 4656 N 453.777 0.010035 1.57597 0
M  V30 4657 C 454.724 -0.978122 2.09049 0
M  V30 4658 C 455.694 -1.33509 0.988159 0
M  V30 4659 O 456.879 -1.43172 1.26121 0
M  V30 4660 C 454.019 -2.26158 2.60666 0
M  V30 4661 C 453.132 -1.96275 3.84838 0
M  V30 4662 C 452.267 -3.18776 4.24918 0
M  V30 4663 C 451.306 -2.84625 5.41899 0
M  V30 4664 N 450.443 -3.99693 5.77226 0
M  V30 4665 H 455.283 -0.532431 2.93205 0
M  V30 4666 H 452.82 -0.251234 1.44939 0
M  V30 4667 H 454.778 -3.01202 2.88675 0
M  V30 4668 H 453.408 -2.68378 1.79369 0
M  V30 4669 H 452.46 -1.11555 3.63675 0
M  V30 4670 H 453.772 -1.67111 4.69974 0
M  V30 4671 H 452.926 -4.02157 4.54262 0
M  V30 4672 H 451.665 -3.51087 3.38511 0
M  V30 4673 H 450.67 -1.99653 5.12268 0
M  V30 4674 H 451.895 -2.53551 6.29991 0
M  V30 4675 H 449.841 -4.31882 4.93776 0
M  V30 4676 H 449.758 -3.74087 6.56959 0
M  V30 4677 H 451.026 -4.83834 6.11167 0
M  V30 4678 N 455.255 -1.55392 -0.262866 0
M  V30 4679 C 456.202 -1.88966 -1.32516 0
M  V30 4680 C 457.172 -0.742187 -1.48596 0
M  V30 4681 O 458.357 -0.99439 -1.62839 0
M  V30 4682 C 455.497 -2.17592 -2.67858 0
M  V30 4683 C 454.61 -3.45061 -2.59917 0
M  V30 4684 C 453.745 -3.63336 -3.87505 0
M  V30 4685 C 452.784 -4.84462 -3.74116 0
M  V30 4686 N 451.921 -4.99342 -4.93561 0
M  V30 4687 H 456.761 -2.79566 -1.03184 0
M  V30 4688 H 454.298 -1.38404 -0.498285 0
M  V30 4689 H 456.256 -2.3219 -3.46617 0
M  V30 4690 H 454.886 -1.30215 -2.95371 0
M  V30 4691 H 453.938 -3.38881 -1.72812 0
M  V30 4692 H 455.25 -4.3396 -2.45926 0
M  V30 4693 H 454.404 -3.77807 -4.74707 0
M  V30 4694 H 453.143 -2.72641 -4.04374 0
M  V30 4695 H 452.148 -4.69985 -2.85297 0
M  V30 4696 H 453.373 -5.76603 -3.58757 0
M  V30 4697 H 451.319 -4.1158 -5.10821 0
M  V30 4698 H 451.236 -5.82303 -4.82141 0
M  V30 4699 H 452.504 -5.18208 -5.82306 0
M  V30 4700 N 456.733 0.527833 -1.48498 0
M  V30 4701 C 457.982 1.28003 -1.55878 0
M  V30 4702 C 458.295 1.9414 -0.238577 0
M  V30 4703 O 459.501 2.7083 -0.190643 0
M  V30 4704 C 457.957 2.32272 -2.74914 0
M  V30 4705 C 457.565 1.72196 -4.13585 0
M  V30 4706 C 459.309 3.08488 -2.91608 0
M  V30 4707 C 457.216 2.74417 -5.23879 0
M  V30 4708 H 456.146 0.481413 -0.580308 0
M  V30 4709 H 458.797 0.557195 -1.74836 0
M  V30 4710 H 457.179 3.07601 -2.49395 0
M  V30 4711 H 458.353 1.03041 -4.49132 0
M  V30 4712 H 456.668 1.08464 -4.02025 0
M  V30 4713 H 459.265 3.84879 -3.71177 0
M  V30 4714 H 459.608 3.64481 -2.01145 0
M  V30 4715 H 460.141 2.40274 -3.17038 0
M  V30 4716 H 456.88 2.23242 -6.16314 0
M  V30 4717 H 456.4 3.41893 -4.92818 0
M  V30 4718 H 458.079 3.37362 -5.52083 0
M  V30 4719 N 458.211 1.37122 0.776871 0
M  V30 4720 C 459.143 1.28342 1.89897 0
M  V30 4721 C 460.156 0.200277 1.61563 0
M  V30 4722 O 461.345 0.456012 1.72577 0
M  V30 4723 C 458.445 0.960427 3.25006 0
M  V30 4724 C 457.618 2.148 3.81025 0
M  V30 4725 C 456.677 1.79608 4.94598 0
M  V30 4726 O 455.703 2.51845 5.10454 0
M  V30 4727 N 456.905 0.737171 5.758 0
M  V30 4728 H 459.67 2.25027 1.97947 0
M  V30 4729 H 457.231 1.3068 0.955739 0
M  V30 4730 H 459.223 0.705942 3.98495 0
M  V30 4731 H 457.793 0.0823066 3.12492 0
M  V30 4732 H 457.013 2.56454 2.99374 0
M  V30 4733 H 458.301 2.9411 4.15183 0
M  V30 4734 H 457.699 0.137637 5.65533 0
M  V30 4735 H 456.256 0.542534 6.49538 0
M  V30 4736 N 459.689 -1.00246 1.21608 0
M  V30 4737 C 460.914 -1.78167 1.06167 0
M  V30 4738 C 461.339 -1.84138 -0.384035 0
M  V30 4739 O 460.697 -1.28683 -1.27712 0
M  V30 4740 C 460.745 -3.19786 1.66642 0
M  V30 4741 O 459.849 -4.02153 0.913613 0
M  V30 4742 H 459.19 -0.549 0.37349 0
M  V30 4743 H 461.72 -1.25994 1.61204 0
M  V30 4744 H 461.73 -3.70451 1.70969 0
M  V30 4745 H 460.405 -3.14754 2.7185 0
M  V30 4746 H 458.982 -3.60711 0.945635 0
M  V30 4747 N 461.167 -1.02423 -1.1978 0
M  V30 4748 C 462.395 -0.737456 -1.93311 0
M  V30 4749 C 462.81 0.703023 -1.75223 0
M  V30 4750 O 462.167 1.47761 -1.07112 0
M  V30 4751 C 462.218 -1.0733 -3.45199 0
M  V30 4752 O 461.939 -2.4572 -3.62702 0
M  V30 4753 C 463.44 -0.80866 -4.35862 0
M  V30 4754 H 460.66 -0.2702 -0.614193 0
M  V30 4755 H 463.204 -1.36747 -1.52054 0
M  V30 4756 H 461.359 -0.488545 -3.84307 0
M  V30 4757 H 461.773 -2.58081 -4.56612 0
M  V30 4758 H 463.247 -1.09365 -5.41057 0
M  V30 4759 H 463.724 0.257025 -4.38447 0
M  V30 4760 H 464.33 -1.37592 -4.02428 0
M  V30 4761 N 462.645 1.35699 -0.801477 0
M  V30 4762 C 464.061 1.52065 -0.484596 0
M  V30 4763 C 464.261 1.75215 0.995084 0
M  V30 4764 O 463.317 1.79061 1.78026 0
M  V30 4765 C 464.63 2.69908 -1.32552 0
M  V30 4766 C 466.178 2.83784 -1.32044 0
M  V30 4767 C 466.653 4.04646 -2.14536 0
M  V30 4768 N 468.144 4.11814 -2.12046 0
M  V30 4769 C 468.879 5.04437 -2.72636 0
M  V30 4770 N 468.375 6.02426 -3.42133 0
M  V30 4771 N 470.168 4.97144 -2.62305 0
M  V30 4772 H 462.319 1.18928 -1.75983 0
M  V30 4773 H 464.582 0.581455 -0.748741 0
M  V30 4774 H 464.288 2.59363 -2.37537 0
M  V30 4775 H 464.162 3.64376 -0.975181 0
M  V30 4776 H 466.549 2.93783 -0.27846 0
M  V30 4777 H 466.63 1.90188 -1.71062 0
M  V30 4778 H 466.274 3.95407 -3.18772 0
M  V30 4779 H 466.204 4.97413 -1.72882 0
M  V30 4780 H 468.695 3.41664 -1.61476 0
M  V30 4781 H 469.008 6.69688 -3.85666 0
M  V30 4782 H 467.353 6.02615 -3.46237 0
M  V30 4783 H 470.544 4.19546 -2.07603 0
M  V30 4784 H 470.717 5.69138 -3.09815 0
M  V30 4785 N 464.123 0.554532 1.47522 0
M  V30 4786 C 465.371 0.0294208 2.02079 0
M  V30 4787 C 465.692 -1.32411 1.43151 0
M  V30 4788 O 464.962 -1.863 0.605728 0
M  V30 4789 H 463.542 0.00788672 0.746958 0
M  V30 4790 H 466.204 0.723934 1.80956 0
M  V30 4791 H 465.3 -0.0606745 3.12041 0
M  V30 4792 N 465.601 -1.54893 0.290851 0
M  V30 4793 C 466.534 -2.19289 -0.631489 0
M  V30 4794 C 467.512 -1.15893 -1.14051 0
M  V30 4795 O 468.696 -1.4449 -1.21058 0
M  V30 4796 C 465.823 -2.82866 -1.86291 0
M  V30 4797 C 464.869 -3.997 -1.48801 0
M  V30 4798 S 465.702 -5.32641 -0.552644 0
M  V30 4799 C 466.858 -5.99696 -1.79209 0
M  V30 4800 H 467.091 -2.9718 -0.0843791 0
M  V30 4801 H 464.624 -1.54218 0.075031 0
M  V30 4802 H 466.582 -3.20124 -2.56964 0
M  V30 4803 H 465.243 -2.04839 -2.38117 0
M  V30 4804 H 464.436 -4.42932 -2.40473 0
M  V30 4805 H 464.038 -3.63947 -0.861321 0
M  V30 4806 H 466.33 -6.19886 -2.734 0
M  V30 4807 H 467.273 -6.94071 -1.40251 0
M  V30 4808 H 467.681 -5.29226 -1.96419 0
M  V30 4809 N 467.08 -0.0183926 -1.57589 0
M  V30 4810 C 468.308 0.673046 -1.95647 0
M  V30 4811 C 468.723 1.66275 -0.894312 0
M  V30 4812 O 468.08 1.82072 0.124975 0
M  V30 4813 C 468.131 1.38884 -3.33756 0
M  V30 4814 O 467.852 0.438806 -4.35897 0
M  V30 4815 C 469.353 2.1731 -3.86383 0
M  V30 4816 H 466.573 0.186292 -0.644621 0
M  V30 4817 H 469.117 -0.0749748 -2.04363 0
M  V30 4818 H 467.272 2.08835 -3.26293 0
M  V30 4819 H 467.686 0.945869 -5.15901 0
M  V30 4820 H 469.16 2.62863 -4.85394 0
M  V30 4821 H 469.637 3.00764 -3.20059 0
M  V30 4822 H 470.243 1.52339 -3.97081 0
M  V30 4823 N 468.558 1.5553 0.254621 0
M  V30 4824 C 469.788 1.80784 1.00004 0
M  V30 4825 C 470.196 0.59071 1.79742 0
M  V30 4826 O 469.539 -0.449988 1.78103 0
M  V30 4827 C 469.601 2.99268 1.99196 0
M  V30 4828 C 469.265 4.35595 1.38224 0
M  V30 4829 C 470.262 5.13884 0.788611 0
M  V30 4830 C 467.947 4.82281 1.40393 0
M  V30 4831 C 469.941 6.37004 0.224783 0
M  V30 4832 C 467.628 6.05351 0.836243 0
M  V30 4833 C 468.626 6.82551 0.24769 0
M  V30 4834 O 468.314 8.03297 -0.311249 0
M  V30 4835 H 468.046 0.60565 0.300274 0
M  V30 4836 H 470.6 2.03411 0.285143 0
M  V30 4837 H 468.83 2.72377 2.74496 0
M  V30 4838 H 470.519 3.11682 2.60018 0
M  V30 4839 H 471.285 4.78938 0.764423 0
M  V30 4840 H 467.164 4.22189 1.85142 0
M  V30 4841 H 470.708 6.97203 -0.235235 0
M  V30 4842 H 466.605 6.39776 0.857733 0
M  V30 4843 H 467.373 8.1825 -0.20237 0
M  V30 4844 N 470.036 -0.519951 1.48776 0
M  V30 4845 C 471.313 -1.28123 1.47797 0
M  V30 4846 C 471.693 -2.10196 0.195157 0
M  V30 4847 O 471.041 -2.13167 -0.822925 0
M  V30 4848 C 471.251 -2.15413 2.74587 0
M  V30 4849 C 472.599 -2.75225 3.23321 0
M  V30 4850 O 473.623 -2.25694 2.75574 0
M  V30 4851 O 472.482 -3.65346 4.06429 0
M  V30 4852 H 469.576 -0.578793 0.590701 0
M  V30 4853 H 472.122 -0.535779 1.6102 0
M  V30 4854 H 470.894 -1.54617 3.59457 0
M  V30 4855 H 470.517 -2.97186 2.64132 0
M  V30 4856 N 471.514 -1.37532 -0.769588 0
M  V30 4857 C 472.424 -1.35668 -1.91393 0
M  V30 4858 C 473.44 -0.255954 -1.72107 0
M  V30 4859 O 474.616 -0.491704 -1.95305 0
M  V30 4860 C 471.681 -1.16481 -3.26547 0
M  V30 4861 C 470.742 -2.36212 -3.58472 0
M  V30 4862 C 469.975 -2.17932 -4.87177 0
M  V30 4863 O 470.198 -1.1647 -5.58382 0
M  V30 4864 O 469.132 -3.06167 -5.18214 0
M  V30 4865 H 472.958 -2.32055 -1.95918 0
M  V30 4866 H 470.543 -1.18284 -0.912641 0
M  V30 4867 H 472.425 -1.07778 -4.07384 0
M  V30 4868 H 471.1 -0.231687 -3.2287 0
M  V30 4869 H 470.007 -2.50488 -2.77861 0
M  V30 4870 H 471.34 -3.281 -3.66894 0
M  V30 4871 N 472.992 0.995999 -1.22138 0
M  V30 4872 C 473.924 2.08745 -0.946485 0
M  V30 4873 C 474.937 1.62633 0.0737356 0
M  V30 4874 O 476.126 1.77782 -0.159886 0
M  V30 4875 C 473.226 3.36516 -0.401305 0
M  V30 4876 C 472.399 4.11672 -1.47801 0
M  V30 4877 C 471.458 5.17728 -0.940461 0
M  V30 4878 O 470.484 5.45482 -1.62596 0
M  V30 4879 N 471.686 5.80005 0.239723 0
M  V30 4880 H 474.451 2.32908 -1.88611 0
M  V30 4881 H 472.012 1.16152 -1.12785 0
M  V30 4882 H 474.004 4.04691 -0.0270837 0
M  V30 4883 H 472.574 3.0944 0.443354 0
M  V30 4884 H 471.794 3.38171 -2.02568 0
M  V30 4885 H 473.082 4.58657 -2.20253 0
M  V30 4886 H 472.48 5.5982 0.813518 0
M  V30 4887 H 471.037 6.4943 0.555361 0
M  V30 4888 N 474.47 1.03057 1.19235 0
M  V30 4889 C 475.38 0.622922 2.26179 0
M  V30 4890 C 476.396 -0.346113 1.70523 0
M  V30 4891 O 477.572 -0.203572 2.00369 0
M  V30 4892 C 474.637 -0.0182063 3.46695 0
M  V30 4893 C 473.698 0.998546 4.17526 0
M  V30 4894 C 472.931 0.387917 5.32288 0
M  V30 4895 O 473.154 -0.808668 5.64639 0
M  V30 4896 O 472.088 1.1116 5.91546 0
M  V30 4897 H 475.914 1.51363 2.63292 0
M  V30 4898 H 473.499 0.800856 1.26122 0
M  V30 4899 H 475.381 -0.375606 4.19723 0
M  V30 4900 H 474.056 -0.882895 3.11427 0
M  V30 4901 H 472.963 1.40756 3.4661 0
M  V30 4902 H 474.296 1.83366 4.56769 0
M  V30 4903 N 475.948 -1.35272 0.808662 0
M  V30 4904 C 477.178 -2.02652 0.401953 0
M  V30 4905 C 477.586 -1.6108 -0.992462 0
M  V30 4906 O 476.929 -0.804984 -1.65123 0
M  V30 4907 C 476.991 -3.57174 0.408246 0
M  V30 4908 C 476.655 -4.22019 1.75353 0
M  V30 4909 C 477.652 -4.43552 2.71215 0
M  V30 4910 C 475.337 -4.59093 2.03811 0
M  V30 4911 C 477.331 -5.01264 3.93717 0
M  V30 4912 C 475.018 -5.16519 3.26576 0
M  V30 4913 C 476.016 -5.37546 4.21347 0
M  V30 4914 O 475.704 -5.93761 5.41944 0
M  V30 4915 H 475.436 -0.656495 0.161216 0
M  V30 4916 H 477.99 -1.73829 1.0942 0
M  V30 4917 H 476.22 -3.85197 -0.340608 0
M  V30 4918 H 477.909 -4.05893 0.0235623 0
M  V30 4919 H 478.675 -4.15288 2.50522 0
M  V30 4920 H 474.554 -4.42039 1.30854 0
M  V30 4921 H 478.098 -5.17592 4.67701 0
M  V30 4922 H 473.995 -5.4421 3.47139 0
M  V30 4923 H 474.763 -6.1221 5.43269 0
M  V30 4924 N 477.426 -0.562348 -1.47226 0
M  V30 4925 C 478.376 0.202967 -2.27095 0
M  V30 4926 C 479.36 0.880611 -1.34663 0
M  V30 4927 O 480.552 0.778069 -1.58981 0
M  V30 4928 C 477.681 1.22906 -3.20545 0
M  V30 4929 C 476.767 0.554566 -4.20459 0
M  V30 4930 N 477.158 -0.378295 -5.04383 0
M  V30 4931 C 475.456 0.807854 -4.38623 0
M  V30 4932 C 476.157 -0.770583 -5.76573 0
M  V30 4933 N 475.133 -0.124263 -5.43458 0
M  V30 4934 H 478.935 -0.514196 -2.89367 0
M  V30 4935 H 476.449 -0.382655 -1.57827 0
M  V30 4936 H 478.446 1.79134 -3.76453 0
M  V30 4937 H 477.106 1.94726 -2.59831 0
M  V30 4938 H 478.117 -0.75274 -5.124 0
M  V30 4939 H 474.794 1.51418 -3.89075 0
M  V30 4940 H 476.184 -1.53742 -6.54074 0
M  V30 4941 N 478.904 1.54736 -0.299062 0
M  V30 4942 C 480.315 1.8569 0.193971 0
M  V30 4943 C 480.666 1.22101 1.53577 0
M  V30 4944 O 479.791 0.51799 2.10109 0
M  V30 4945 C 480.386 3.36895 0.358733 0
M  V30 4946 C 478.945 3.67887 0.795986 0
M  V30 4947 C 478.092 2.77131 -0.096807 0
M  V30 4948 H 481.043 1.49934 -0.520134 0
M  V30 4949 H 481.064 3.61294 1.19361 0
M  V30 4950 H 480.576 3.83148 -0.617998 0
M  V30 4951 H 478.677 3.27151 1.78334 0
M  V30 4952 H 478.79 4.75114 0.616718 0
M  V30 4953 H 477.154 2.51153 0.423581 0
M  V30 4954 H 477.937 3.26204 -1.06986 0
M  V30 4955 N 480.382 0.0267497 1.57577 0
M  V30 4956 C 481.292 -0.971633 2.13533 0
M  V30 4957 C 482.308 -1.35868 1.08701 0
M  V30 4958 O 483.484 -1.44058 1.40746 0
M  V30 4959 C 480.549 -2.23622 2.64941 0
M  V30 4960 C 479.61 -1.90982 3.8448 0
M  V30 4961 C 478.843 -3.11411 4.33427 0
M  V30 4962 O 479.066 -4.23992 3.81558 0
M  V30 4963 O 478 -2.93848 5.25297 0
M  V30 4964 H 481.826 -0.525853 2.99113 0
M  V30 4965 H 479.411 -0.193712 1.48139 0
M  V30 4966 H 481.293 -2.97864 2.98086 0
M  V30 4967 H 479.968 -2.67386 1.82446 0
M  V30 4968 H 478.875 -1.14132 3.56265 0
M  V30 4969 H 480.208 -1.52036 4.6813 0
M  V30 4970 N 481.861 -1.55662 -0.24637 0
M  V30 4971 C 483.272 -1.67953 -0.81539 0
M  V30 4972 C 483.623 -0.624302 -1.86002 0
M  V30 4973 O 482.748 0.229328 -2.15181 0
M  V30 4974 C 483.343 -3.04484 -1.48576 0
M  V30 4975 C 481.902 -3.18713 -2.00248 0
M  V30 4976 C 481.049 -2.6383 -0.853766 0
M  V30 4977 H 484 -1.58685 -0.0221692 0
M  V30 4978 H 484.021 -2.98959 -2.3538 0
M  V30 4979 H 483.533 -3.81264 -0.725222 0
M  V30 4980 H 481.634 -2.46757 -2.79181 0
M  V30 4981 H 481.747 -4.25628 -2.1995 0
M  V30 4982 H 480.111 -2.21667 -1.25442 0
M  V30 4983 H 480.894 -3.43135 -0.106302 0
M  V30 4984 N 483.339 0.512053 -1.4905 0
M  V30 4985 C 484.755 0.84224 -1.35567 0
M  V30 4986 C 484.955 1.97878 -0.380319 0
M  V30 4987 O 484.011 2.51769 0.19201 0
M  V30 4988 C 485.324 1.19286 -2.76028 0
M  V30 4989 C 486.872 1.30171 -2.84648 0
M  V30 4990 C 487.347 1.68568 -4.25851 0
M  V30 4991 N 488.838 1.75638 -4.28609 0
M  V30 4992 C 489.573 2.06769 -5.34821 0
M  V30 4993 N 489.069 2.36201 -6.51292 0
M  V30 4994 N 490.862 2.07927 -5.22229 0
M  V30 4995 H 483.013 -0.237574 -2.11067 0
M  V30 4996 H 485.276 -0.0436747 -0.946993 0
M  V30 4997 H 484.982 0.431199 -3.49047 0
M  V30 4998 H 484.856 2.13889 -3.10695 0
M  V30 4999 H 487.243 2.05411 -2.11873 0
M  V30 5000 H 487.324 0.336457 -2.53578 0
M  V30 5001 H 486.968 0.938824 -4.99148 0
M  V30 5002 H 486.898 2.66174 -4.54377 0
M  V30 5003 H 489.389 1.55097 -3.44606 0
M  V30 5004 H 489.702 2.59112 -7.28066 0
M  V30 5005 H 488.047 2.33681 -6.54536 0
M  V30 5006 H 491.238 1.84403 -4.30248 0
M  V30 5007 H 491.411 2.31856 -6.05101 0
M  V30 5008 N 484.817 1.37938 0.762283 0
M  V30 5009 C 486.063 1.33866 1.52341 0
M  V30 5010 C 486.396 -0.0738961 1.94059 0
M  V30 5011 O 485.671 -1.03326 1.64785 0
M  V30 5012 C 485.954 2.28644 2.78197 0
M  V30 5013 C 485.807 3.78722 2.42672 0
M  V30 5014 C 487.126 2.21702 3.80179 0
M  V30 5015 H 484.245 0.487593 0.55265 0
M  V30 5016 H 486.887 1.68717 0.873767 0
M  V30 5017 H 485.037 1.99055 3.33631 0
M  V30 5018 H 486.709 4.18948 1.93081 0
M  V30 5019 H 484.952 3.96827 1.75244 0
M  V30 5020 H 485.623 4.40486 3.3268 0
M  V30 5021 H 488.099 2.47805 3.34263 0
M  V30 5022 H 486.975 2.90143 4.65949 0
M  V30 5023 H 487.236 1.21301 4.25133 0
M  V30 5024 N 486.295 -0.989507 1.22664 0
M  V30 5025 C 487.258 -2.06183 1.00106 0
M  V30 5026 C 488.258 -1.60765 -0.0337726 0
M  V30 5027 O 489.448 -1.72989 0.205072 0
M  V30 5028 C 486.58 -3.37021 0.51279 0
M  V30 5029 H 487.773 -2.27629 1.95256 0
M  V30 5030 H 485.326 -1.16158 1.0458 0
M  V30 5031 H 486.061 -3.21261 -0.442917 0
M  V30 5032 H 485.846 -3.71323 1.25942 0
M  V30 5033 H 487.336 -4.1591 0.375315 0
M  V30 5034 N 487.773 -1.03688 -1.18687 0
M  V30 5035 C 488.736 -0.629115 -2.20397 0
M  V30 5036 C 489.736 0.311495 -1.57754 0
M  V30 5037 O 490.926 0.0974107 -1.73927 0
M  V30 5038 C 488.058 0.0782231 -3.4081 0
M  V30 5039 H 489.251 -1.52915 -2.57987 0
M  V30 5040 H 486.804 -0.828988 -1.32505 0
M  V30 5041 H 487.539 0.992233 -3.08748 0
M  V30 5042 H 487.324 -0.597776 -3.87517 0
M  V30 5043 H 488.814 0.350156 -4.16129 0
M  V30 5044 N 489.251 1.34841 -0.815825 0
M  V30 5045 C 490.5 1.97755 -0.396976 0
M  V30 5046 C 490.813 1.65422 1.04379 0
M  V30 5047 O 492.019 2.21771 1.5662 0
M  V30 5048 C 490.475 3.53818 -0.658869 0
M  V30 5049 C 490.083 3.95051 -2.11278 0
M  V30 5050 C 491.827 4.23397 -0.305834 0
M  V30 5051 C 489.734 5.43997 -2.31994 0
M  V30 5052 H 488.664 0.739985 -0.1447 0
M  V30 5053 H 491.315 1.53781 -1.00118 0
M  V30 5054 H 489.697 3.95997 0.0154112 0
M  V30 5055 H 490.871 3.63998 -2.82564 0
M  V30 5056 H 489.186 3.38388 -2.42657 0
M  V30 5057 H 491.783 5.32899 -0.43854 0
M  V30 5058 H 492.126 4.09508 0.748952 0
M  V30 5059 H 492.659 3.8667 -0.934403 0
M  V30 5060 H 489.398 5.62865 -3.35952 0
M  V30 5061 H 488.918 5.76589 -1.65244 0
M  V30 5062 H 490.597 6.10584 -2.14001 0
M  V30 5063 N 490.729 0.570148 1.46925 0
M  V30 5064 C 491.659 -0.158274 2.32963 0
M  V30 5065 C 492.64 -0.896093 1.44583 0
M  V30 5066 O 493.825 -0.874022 1.7342 0
M  V30 5067 C 490.955 -1.18055 3.26619 0
M  V30 5068 C 489.909 -0.558379 4.24342 0
M  V30 5069 C 489.235 -1.68623 5.07415 0
M  V30 5070 C 490.535 0.496295 5.19937 0
M  V30 5071 H 492.229 0.560046 2.94115 0
M  V30 5072 H 489.775 0.270775 1.41431 0
M  V30 5073 H 491.728 -1.69841 3.85658 0
M  V30 5074 H 490.452 -1.92899 2.63548 0
M  V30 5075 H 489.111 -0.0617157 3.66548 0
M  V30 5076 H 488.759 -2.42402 4.40738 0
M  V30 5077 H 488.459 -1.27564 5.73586 0
M  V30 5078 H 489.983 -2.20709 5.69315 0
M  V30 5079 H 491.397 0.0640052 5.73264 0
M  V30 5080 H 489.794 0.82649 5.94381 0
M  V30 5081 H 490.864 1.38735 4.6463 0
M  V30 5082 N 492.207 -1.54576 0.307264 0
M  V30 5083 C 493.17 -2.22423 -0.553224 0
M  V30 5084 C 494.17 -1.21231 -1.05639 0
M  V30 5085 O 495.36 -1.45923 -0.951419 0
M  V30 5086 C 492.492 -2.91552 -1.76664 0
M  V30 5087 H 493.685 -2.99874 0.0396484 0
M  V30 5088 H 491.238 -1.56192 0.0581629 0
M  V30 5089 H 491.973 -2.18196 -2.39918 0
M  V30 5090 H 491.758 -3.65738 -1.41343 0
M  V30 5091 H 493.248 -3.43292 -2.37783 0
M  V30 5092 N 493.685 -0.035106 -1.57561 0
M  V30 5093 C 494.91 0.655802 -1.96759 0
M  V30 5094 C 495.335 1.64523 -0.911809 0
M  V30 5095 O 494.693 1.80857 0.126673 0
M  V30 5096 C 494.741 1.33326 -3.35047 0
M  V30 5097 O 493.845 2.44866 -3.31835 0
M  V30 5098 H 493.186 0.171807 -0.641388 0
M  V30 5099 H 495.716 -0.0987369 -2.04362 0
M  V30 5100 H 495.726 1.68867 -3.71413 0
M  V30 5101 H 494.401 0.608033 -4.11431 0
M  V30 5102 H 492.978 2.11392 -3.07193 0
M  V30 5103 N 495.163 1.55791 0.238111 0
M  V30 5104 C 496.113 1.87444 1.29803 0
M  V30 5105 C 497.097 0.736043 1.43078 0
M  V30 5106 O 498.289 0.998146 1.46171 0
M  V30 5107 C 495.418 2.18028 2.65177 0
M  V30 5108 C 494.504 3.38217 2.55871 0
M  V30 5109 N 494.895 4.57264 2.16202 0
M  V30 5110 C 493.193 3.41502 2.86866 0
M  V30 5111 C 493.894 5.3941 2.17744 0
M  V30 5112 N 492.87 4.78695 2.57589 0
M  V30 5113 H 496.672 2.7701 0.981965 0
M  V30 5114 H 494.186 1.56135 0.44672 0
M  V30 5115 H 496.183 2.38873 3.4168 0
M  V30 5116 H 494.843 1.29765 2.97643 0
M  V30 5117 H 495.854 4.82727 1.87602 0
M  V30 5118 H 492.531 2.63536 3.23813 0
M  V30 5119 H 493.921 6.44671 1.89339 0
M  V30 5120 N 496.642 -0.504142 1.49319 0
M  V30 5121 C 497.872 -1.28071 1.62116 0
M  V30 5122 C 498.28 -1.86955 0.290566 0
M  V30 5123 O 497.623 -1.68415 -0.733616 0
M  V30 5124 C 497.685 -2.4521 2.62893 0
M  V30 5125 C 497.349 -2.07218 4.0732 0
M  V30 5126 C 498.346 -1.61375 4.94221 0
M  V30 5127 C 496.031 -2.16949 4.53033 0
M  V30 5128 C 498.025 -1.25763 6.2487 0
M  V30 5129 C 495.712 -1.80949 5.83696 0
M  V30 5130 C 496.71 -1.3543 6.69438 0
M  V30 5131 O 496.398 -0.99915 7.97667 0
M  V30 5132 H 496.13 -0.394763 0.54876 0
M  V30 5133 H 498.684 -0.612118 1.96067 0
M  V30 5134 H 496.914 -3.15134 2.24115 0
M  V30 5135 H 498.603 -3.0724 2.65252 0
M  V30 5136 H 499.369 -1.53306 4.60133 0
M  V30 5137 H 495.248 -2.5133 3.86463 0
M  V30 5138 H 498.792 -0.901631 6.91749 0
M  V30 5139 H 494.689 -1.88667 6.17313 0
M  V30 5140 H 495.457 -1.13089 8.1065 0
M  V30 5141 N 498.12 -1.38341 -0.754957 0
M  V30 5142 C 499.536 -1.19508 -1.05783 0
M  V30 5143 C 499.736 -0.0428005 -2.01455 0
M  V30 5144 O 498.792 0.611861 -2.44975 0
M  V30 5145 C 500.105 -2.52091 -1.63923 0
M  V30 5146 C 501.653 -2.58762 -1.76101 0
M  V30 5147 C 502.128 -3.91517 -2.37652 0
M  V30 5148 N 503.619 -3.93049 -2.45085 0
M  V30 5149 C 504.354 -4.9253 -2.93602 0
M  V30 5150 N 503.85 -6.02408 -3.42165 0
M  V30 5151 N 505.643 -4.79921 -2.92629 0
M  V30 5152 H 497.794 -2.1206 -0.120056 0
M  V30 5153 H 500.057 -0.94089 -0.11589 0
M  V30 5154 H 499.763 -3.36858 -1.01093 0
M  V30 5155 H 499.637 -2.70388 -2.63003 0
M  V30 5156 H 502.024 -1.74391 -2.38058 0
M  V30 5157 H 502.105 -2.44333 -0.757294 0
M  V30 5158 H 501.749 -4.76309 -1.76329 0
M  V30 5159 H 501.679 -4.03256 -3.38662 0
M  V30 5160 H 504.17 -3.13685 -2.10736 0
M  V30 5161 H 504.483 -6.74248 -3.77637 0
M  V30 5162 H 502.828 -6.0603 -3.40225 0
M  V30 5163 H 506.019 -3.93194 -2.54001 0
M  V30 5164 H 506.192 -5.57601 -3.30128 0
M  V30 5165 N 499.598 0.982988 -1.23187 0
M  V30 5166 C 501.009 1.53847 -1.05773 0
M  V30 5167 C 501.36 1.92568 0.375744 0
M  V30 5168 O 500.485 1.75783 1.26211 0
M  V30 5169 C 501.08 2.79567 -1.91384 0
M  V30 5170 C 499.639 3.31524 -1.78238 0
M  V30 5171 C 498.786 2.04534 -1.87246 0
M  V30 5172 H 501.737 0.802962 -1.36888 0
M  V30 5173 H 501.758 3.52317 -1.43711 0
M  V30 5174 H 501.27 2.51353 -2.95708 0
M  V30 5175 H 499.371 3.64623 -0.766875 0
M  V30 5176 H 499.484 4.01457 -2.61475 0
M  V30 5177 H 497.848 2.1855 -1.30797 0
M  V30 5178 H 498.631 1.78706 -2.9312 0
M  V30 5179 N 501.076 1.04316 1.18135 0
M  V30 5180 C 501.986 0.646876 2.25505 0
M  V30 5181 C 503.002 -0.328008 1.7088 0
M  V30 5182 O 504.178 -0.182309 2.00573 0
M  V30 5183 C 501.243 0.0185664 3.46695 0
M  V30 5184 C 500.304 1.04277 4.16443 0
M  V30 5185 C 499.537 0.444352 5.31847 0
M  V30 5186 O 499.76 -0.748735 5.65465 0
M  V30 5187 O 498.694 1.17428 5.90334 0
M  V30 5188 H 502.52 1.54147 2.61672 0
M  V30 5189 H 500.105 0.814188 1.25265 0
M  V30 5190 H 501.987 -0.331068 4.20097 0
M  V30 5191 H 500.662 -0.849814 3.12346 0
M  V30 5192 H 499.569 1.44425 3.45098 0
M  V30 5193 H 500.902 1.882 4.54798 0
M  V30 5194 N 502.554 -1.34406 0.822964 0
M  V30 5195 C 503.801 -1.98284 0.411057 0
M  V30 5196 C 504.129 -1.65245 -1.02588 0
M  V30 5197 O 503.384 -0.91619 -1.72929 0
M  V30 5198 C 503.683 -3.52981 0.560268 0
M  V30 5199 C 503.349 -4.05931 1.96293 0
M  V30 5200 C 502.011 -4.20103 2.34664 0
M  V30 5201 C 504.363 -4.34412 2.87985 0
M  V30 5202 C 501.691 -4.60082 3.64062 0
M  V30 5203 C 504.043 -4.75838 4.16847 0
M  V30 5204 C 502.707 -4.88215 4.55195 0
M  V30 5205 H 501.977 -0.725573 0.150416 0
M  V30 5206 H 504.624 -1.60349 1.04692 0
M  V30 5207 H 502.929 -3.91477 -0.158982 0
M  V30 5208 H 504.626 -4.00385 0.222087 0
M  V30 5209 H 501.216 -3.95363 1.65487 0
M  V30 5210 H 505.4 -4.23001 2.59584 0
M  V30 5211 H 500.656 -4.67856 3.93599 0
M  V30 5212 H 504.83 -4.96834 4.87984 0
M  V30 5213 H 502.457 -5.18952 5.55512 0
M  V30 5214 N 504.032 -0.577932 -1.46621 0
M  V30 5215 C 505.281 -0.0594281 -2.01612 0
M  V30 5216 C 505.594 1.30663 -1.45556 0
M  V30 5217 O 506.8 1.91621 -1.92337 0
M  V30 5218 C 505.256 -0.0556666 -3.59857 0
M  V30 5219 C 504.864 -1.41975 -4.24908 0
M  V30 5220 C 506.608 0.409143 -4.22524 0
M  V30 5221 C 504.515 -1.37397 -5.75218 0
M  V30 5222 H 503.445 -0.0184469 -0.753774 0
M  V30 5223 H 506.096 -0.728869 -1.68404 0
M  V30 5224 H 504.478 0.679843 -3.90121 0
M  V30 5225 H 505.652 -2.17461 -4.0626 0
M  V30 5226 H 503.967 -1.82419 -3.74316 0
M  V30 5227 H 506.564 0.46211 -5.32699 0
M  V30 5228 H 506.907 1.42565 -3.91128 0
M  V30 5229 H 507.44 -0.272152 -3.96868 0
M  V30 5230 H 504.179 -2.36714 -6.11267 0
M  V30 5231 H 503.699 -0.661239 -5.96144 0
M  V30 5232 H 505.378 -1.08484 -6.3784 0
M  V30 5233 N 505.51 1.54411 -0.315457 0
M  V30 5234 C 506.756 2.00716 0.289972 0
M  V30 5235 C 507.089 1.2034 1.5242 0
M  V30 5236 O 506.364 0.283579 1.92422 0
M  V30 5237 C 506.647 3.54507 0.632196 0
M  V30 5238 C 506.5 4.45615 -0.61218 0
M  V30 5239 C 507.819 4.15421 1.45305 0
M  V30 5240 H 504.938 0.729637 0.10392 0
M  V30 5241 H 507.58 1.8506 -0.430427 0
M  V30 5242 H 505.73 3.67979 1.24595 0
M  V30 5243 H 507.402 4.44026 -1.25053 0
M  V30 5244 H 505.645 4.15621 -1.24264 0
M  V30 5245 H 506.316 5.51022 -0.328379 0
M  V30 5246 H 508.792 4.05474 0.934331 0
M  V30 5247 H 507.668 5.23157 1.66127 0
M  V30 5248 H 507.929 3.68223 2.44671 0
M  V30 5249 N 506.988 0.0434614 1.5754 0
M  V30 5250 C 507.936 -0.951465 2.1225 0
M  V30 5251 C 508.93 -1.3274 1.05245 0
M  V30 5252 O 510.136 -1.30795 1.23663 0
M  V30 5253 H 506.511 -0.324667 0.678303 0
M  V30 5254 H 508.482 -0.464855 2.94757 0
M  V30 5255 C 507.231 -2.21972 2.67626 0
M  V30 5256 H 506.554 -1.93923 3.4962 0
M  V30 5257 H 507.994 -2.89765 3.09536 0
M  V30 5258 C 506.453 -2.95919 1.61038 0
M  V30 5259 O 506.983 -3.8857 1.01862 0
M  V30 5260 N 505.189 -2.58511 1.32741 0
M  V30 5261 H 504.736 -1.83244 1.81051 0
M  V30 5262 H 504.694 -3.08296 0.616531 0
M  V30 5263 N 508.466 -1.55915 -0.229846 0
M  V30 5264 C 509.712 -1.78807 -0.956868 0
M  V30 5265 C 510.045 -0.611687 -1.84315 0
M  V30 5266 O 509.32 0.389398 -1.90562 0
M  V30 5267 C 509.603 -3.11718 -1.80288 0
M  V30 5268 C 509.456 -4.3979 -0.943649 0
M  V30 5269 C 510.775 -3.40999 -2.78222 0
M  V30 5270 H 507.894 -0.6505 -0.346437 0
M  V30 5271 H 510.536 -1.88648 -0.226252 0
M  V30 5272 H 508.686 -3.03459 -2.42579 0
M  V30 5273 H 510.358 -4.60059 -0.338121 0
M  V30 5274 H 508.601 -4.33086 -0.248705 0
M  V30 5275 H 509.272 -5.29208 -1.5698 0
M  V30 5276 H 511.748 -3.49332 -2.26067 0
M  V30 5277 H 510.624 -4.35183 -3.34526 0
M  V30 5278 H 510.885 -2.62754 -3.55546 0
M  V30 5279 N 509.944 0.496216 -1.49584 0
M  V30 5280 C 510.891 1.59722 -1.66606 0
M  V30 5281 C 511.861 1.58158 -0.507477 0
M  V30 5282 O 513.046 1.76072 -0.735076 0
M  V30 5283 C 510.186 2.97844 -1.74308 0
M  V30 5284 C 509.299 3.09388 -3.01502 0
M  V30 5285 C 508.434 4.38271 -3.00153 0
M  V30 5286 C 507.473 4.43466 -4.21906 0
M  V30 5287 N 506.61 5.63784 -4.1844 0
M  V30 5288 H 511.45 1.44515 -2.60613 0
M  V30 5289 H 508.987 0.703048 -1.29212 0
M  V30 5290 H 510.945 3.77907 -1.76754 0
M  V30 5291 H 509.575 3.11743 -0.837619 0
M  V30 5292 H 508.627 2.22357 -3.08645 0
M  V30 5293 H 509.939 3.09085 -3.91494 0
M  V30 5294 H 509.093 5.2666 -3.01188 0
M  V30 5295 H 507.832 4.41146 -2.07947 0
M  V30 5296 H 506.837 3.53478 -4.21109 0
M  V30 5297 H 508.062 4.42303 -5.1531 0
M  V30 5298 H 506.008 5.67491 -3.29074 0
M  V30 5299 H 505.925 5.65118 -5.02173 0
M  V30 5300 H 507.193 6.54367 -4.23585 0
M  V30 5301 N 511.423 1.38739 0.74761 0
M  V30 5302 C 512.333 1.38696 1.89211 0
M  V30 5303 C 513.349 0.283303 1.71678 0
M  V30 5304 O 514.525 0.522713 1.94498 0
M  V30 5305 C 511.59 1.21662 3.24653 0
M  V30 5306 C 510.651 2.41886 3.54669 0
M  V30 5307 C 509.884 2.25655 4.83648 0
M  V30 5308 O 510.107 1.25339 5.56459 0
M  V30 5309 O 509.041 3.14372 5.13277 0
M  V30 5310 H 512.867 2.35143 1.92202 0
M  V30 5311 H 510.452 1.19721 0.893708 0
M  V30 5312 H 512.334 1.14246 4.05618 0
M  V30 5313 H 511.009 0.283024 3.2246 0
M  V30 5314 H 509.916 2.54877 2.73841 0
M  V30 5315 H 511.249 3.33895 3.61628 0
M  V30 5316 N 512.901 -0.976442 1.23707 0
M  V30 5317 C 514.129 -1.75341 1.09833 0
M  V30 5318 C 514.544 -1.8553 -0.349885 0
M  V30 5319 O 513.901 -1.33732 -1.24185 0
M  V30 5320 C 513.952 -3.17833 1.72233 0
M  V30 5321 O 513.673 -3.08167 3.11391 0
M  V30 5322 C 515.174 -4.11906 1.63853 0
M  V30 5323 H 512.394 -0.550137 0.384175 0
M  V30 5324 H 514.938 -1.2265 1.63638 0
M  V30 5325 H 513.093 -3.67538 1.22452 0
M  V30 5326 H 513.507 -3.97897 3.41729 0
M  V30 5327 H 514.981 -5.09579 2.12211 0
M  V30 5328 H 515.458 -4.35109 0.598092 0
M  V30 5329 H 516.064 -3.68107 2.13019 0
M  V30 5330 N 514.379 -1.04941 -1.1758 0
M  V30 5331 C 515.627 -0.756492 -1.87408 0
M  V30 5332 C 515.948 0.718478 -1.81281 0
M  V30 5333 O 515.218 1.519 -1.23706 0
M  V30 5334 H 513.798 -0.276841 -0.693807 0
M  V30 5335 H 516.46 -1.32803 -1.42652 0
M  V30 5336 H 515.556 -1.06918 -2.93215 0
M  V30 5337 N 515.857 1.33968 -0.830081 0
M  V30 5338 C 516.804 2.29387 -0.255008 0
M  V30 5339 C 517.774 1.53923 0.624243 0
M  V30 5340 O 518.959 1.82262 0.564372 0
M  V30 5341 C 516.099 3.4034 0.571209 0
M  V30 5342 C 515.212 4.30729 -0.331083 0
M  V30 5343 C 514.347 5.2879 0.505389 0
M  V30 5344 C 513.386 6.10819 -0.395843 0
M  V30 5345 N 512.523 7.00948 0.401979 0
M  V30 5346 H 517.363 2.77972 -1.07404 0
M  V30 5347 H 514.9 1.36785 -0.541133 0
M  V30 5348 H 516.858 4.03361 1.06562 0
M  V30 5349 H 515.488 2.9297 1.35529 0
M  V30 5350 H 514.54 3.68507 -0.943759 0
M  V30 5351 H 515.852 4.88181 -1.02377 0
M  V30 5352 H 515.006 5.97297 1.06399 0
M  V30 5353 H 513.745 4.71894 1.23155 0
M  V30 5354 H 512.75 5.41238 -0.966529 0
M  V30 5355 H 513.975 6.69797 -1.12023 0
M  V30 5356 H 511.921 6.46512 1.11168 0
M  V30 5357 H 511.838 7.55643 -0.232167 0
M  V30 5358 H 513.106 7.73774 0.943102 0
M  V30 5359 N 517.335 0.585699 1.46312 0
M  V30 5360 C 518.584 0.0701192 2.01578 0
M  V30 5361 C 518.897 -1.29889 1.46247 0
M  V30 5362 O 520.103 -1.90598 1.93351 0
M  V30 5363 C 518.559 0.0747499 3.59822 0
M  V30 5364 C 518.167 1.44226 4.24149 0
M  V30 5365 C 519.911 -0.38673 4.22735 0
M  V30 5366 C 517.818 1.40446 5.74481 0
M  V30 5367 H 516.748 0.0224441 0.753666 0
M  V30 5368 H 519.399 0.737789 1.68015 0
M  V30 5369 H 517.781 -0.659144 3.90476 0
M  V30 5370 H 518.955 2.19612 4.05101 0
M  V30 5371 H 517.27 1.84401 3.73343 0
M  V30 5372 H 519.867 -0.433853 5.32937 0
M  V30 5373 H 520.21 -1.40489 3.91878 0
M  V30 5374 H 520.743 0.293195 3.96718 0
M  V30 5375 H 517.482 2.39952 6.10003 0
M  V30 5376 H 517.002 0.692845 5.95785 0
M  V30 5377 H 518.681 1.11865 6.37256 0
M  V30 5378 N 518.813 -1.54241 0.323641 0
M  V30 5379 C 519.743 -2.27289 -0.534993 0
M  V30 5380 C 520.724 -1.28087 -1.11927 0
M  V30 5381 O 521.909 -1.56899 -1.14439 0
M  V30 5382 C 519.039 -3.03075 -1.69596 0
M  V30 5383 C 517.993 -4.09614 -1.24098 0
M  V30 5384 C 517.319 -4.73242 -2.4889 0
M  V30 5385 C 518.619 -5.21087 -0.355789 0
M  V30 5386 H 520.313 -2.99308 0.0743257 0
M  V30 5387 H 517.859 -1.43952 0.0371874 0
M  V30 5388 H 519.812 -3.52907 -2.30293 0
M  V30 5389 H 518.536 -2.28673 -2.33187 0
M  V30 5390 H 517.195 -3.60666 -0.656945 0
M  V30 5391 H 516.843 -3.95455 -3.10845 0
M  V30 5392 H 516.543 -5.45209 -2.19138 0
M  V30 5393 H 518.067 -5.25848 -3.10348 0
M  V30 5394 H 519.481 -5.66675 -0.869042 0
M  V30 5395 H 517.878 -5.9991 -0.151045 0
M  V30 5396 H 518.948 -4.81005 0.613339 0
M  V30 5397 N 520.291 -0.0518155 -1.57515 0
M  V30 5398 C 521.221 0.920283 -2.146 0
M  V30 5399 C 522.202 1.32406 -1.06783 0
M  V30 5400 O 523.387 1.39866 -1.34726 0
M  V30 5401 C 520.517 2.1949 -2.6915 0
M  V30 5402 C 519.471 1.93116 -3.81956 0
M  V30 5403 C 518.797 3.27037 -4.23026 0
M  V30 5404 C 520.097 1.25225 -5.07066 0
M  V30 5405 H 521.791 0.444801 -2.96077 0
M  V30 5406 H 519.337 0.212508 -1.42423 0
M  V30 5407 H 521.29 2.87894 -3.07725 0
M  V30 5408 H 520.014 2.69244 -1.84865 0
M  V30 5409 H 518.673 1.27123 -3.43854 0
M  V30 5410 H 518.321 3.74595 -3.3569 0
M  V30 5411 H 518.021 3.10189 -4.99056 0
M  V30 5412 H 519.545 3.96673 -4.64202 0
M  V30 5413 H 520.959 1.83666 -5.43083 0
M  V30 5414 H 519.356 1.18702 -5.88243 0
M  V30 5415 H 520.426 0.228382 -4.84362 0
M  V30 5416 N 521.769 1.56035 0.221574 0
M  V30 5417 C 523.015 1.79312 0.947372 0
M  V30 5418 C 523.348 0.621453 1.83988 0
M  V30 5419 O 522.623 -0.379287 1.90766 0
M  V30 5420 C 522.906 3.1267 1.78633 0
M  V30 5421 C 522.759 4.40284 0.920312 0
M  V30 5422 C 524.078 3.4247 2.7641 0
M  V30 5423 H 521.197 0.652328 0.342982 0
M  V30 5424 H 523.839 1.88765 0.216244 0
M  V30 5425 H 521.989 3.04741 2.40967 0
M  V30 5426 H 523.661 4.60232 0.313718 0
M  V30 5427 H 521.904 4.33212 0.225734 0
M  V30 5428 H 522.575 5.30033 1.54171 0
M  V30 5429 H 525.051 3.50526 2.24211 0
M  V30 5430 H 523.927 4.3695 3.32213 0
M  V30 5431 H 524.188 2.64635 3.54148 0
M  V30 5432 N 523.247 -0.488276 1.49845 0
M  V30 5433 C 524.524 -1.24959 1.50481 0
M  V30 5434 C 524.904 -2.09735 0.239698 0
M  V30 5435 O 524.252 -2.14865 -0.777524 0
M  V30 5436 C 524.462 -2.0954 2.79095 0
M  V30 5437 C 525.81 -2.68305 3.29086 0
M  V30 5438 O 526.834 -2.19797 2.80299 0
M  V30 5439 O 525.693 -3.56643 4.14087 0
M  V30 5440 H 522.787 -0.566133 0.602845 0
M  V30 5441 H 525.333 -0.501504 1.6212 0
M  V30 5442 H 524.105 -1.46958 3.62656 0
M  V30 5443 H 523.728 -2.91517 2.70377 0
M  V30 5444 N 524.725 -1.39134 -0.740242 0
M  V30 5445 C 525.955 -1.39132 -1.52728 0
M  V30 5446 C 526.363 0.0173133 -1.89192 0
M  V30 5447 O 525.706 0.997715 -1.54244 0
M  V30 5448 C 525.768 -2.1952 -2.84695 0
M  V30 5449 C 525.432 -3.68203 -2.70695 0
M  V30 5450 C 526.429 -4.61401 -2.39593 0
M  V30 5451 C 524.114 -4.11724 -2.8773 0
M  V30 5452 C 526.108 -5.96102 -2.25701 0
M  V30 5453 C 523.795 -5.46503 -2.73456 0
M  V30 5454 C 524.793 -6.38506 -2.42486 0
M  V30 5455 O 524.481 -7.70803 -2.28295 0
M  V30 5456 H 524.213 -0.477263 -0.478744 0
M  V30 5457 H 526.767 -1.83504 -0.922799 0
M  V30 5458 H 524.997 -1.69888 -3.47383 0
M  V30 5459 H 526.686 -2.1176 -3.46284 0
M  V30 5460 H 527.452 -4.29079 -2.26088 0
M  V30 5461 H 523.331 -3.4045 -3.10829 0
M  V30 5462 H 526.875 -6.6788 -2.0145 0
M  V30 5463 H 522.772 -5.78417 -2.86538 0
M  V30 5464 H 523.54 -7.8147 -2.43405 0
M  V30 5465 N 526.204 0.969867 -1.24223 0
M  V30 5466 C 527.432 1.74756 -1.10761 0
M  V30 5467 C 527.847 1.85713 0.340041 0
M  V30 5468 O 527.204 1.34389 1.23474 0
M  V30 5469 C 527.255 3.16915 -1.73917 0
M  V30 5470 O 526.976 3.06511 -3.13021 0
M  V30 5471 C 528.477 4.11032 -1.66036 0
M  V30 5472 H 525.697 0.548092 -0.387087 0
M  V30 5473 H 528.241 1.2178 -1.64286 0
M  V30 5474 H 526.396 3.66884 -1.244 0
M  V30 5475 H 526.81 3.96079 -3.43834 0
M  V30 5476 H 528.284 5.08446 -2.14911 0
M  V30 5477 H 528.761 4.34785 -0.621159 0
M  V30 5478 H 529.367 3.66972 -2.14969 0
M  V30 5479 N 527.682 1.05563 1.17022 0
M  V30 5480 C 528.959 0.68165 1.83338 0
M  V30 5481 C 529.339 -0.837665 1.93769 0
M  V30 5482 O 528.687 -1.74507 1.47511 0
M  V30 5483 C 528.897 1.375 3.20772 0
M  V30 5484 C 530.245 1.51545 3.96635 0
M  V30 5485 O 531.269 1.33431 3.30264 0
M  V30 5486 O 530.128 1.812 5.15586 0
M  V30 5487 H 527.222 0.240412 0.791285 0
M  V30 5488 H 529.768 1.15545 1.24288 0
M  V30 5489 H 528.54 2.41135 3.08171 0
M  V30 5490 H 528.163 0.890798 3.87493 0
M  V30 5491 N 529.16 -1.33526 0.837174 0
M  V30 5492 C 530.09 -2.31764 0.284206 0
M  V30 5493 C 531.071 -1.58896 -0.607142 0
M  V30 5494 O 532.256 -1.86798 -0.531047 0
M  V30 5495 C 529.386 -3.43029 -0.542962 0
M  V30 5496 C 528.34 -4.27255 0.252451 0
M  V30 5497 C 527.666 -5.3012 -0.69836 0
M  V30 5498 C 528.966 -5.01229 1.46858 0
M  V30 5499 H 530.66 -2.78262 1.10502 0
M  V30 5500 H 528.206 -1.3378 0.532812 0
M  V30 5501 H 530.159 -4.1078 -0.940096 0
M  V30 5502 H 528.883 -2.95216 -1.39697 0
M  V30 5503 H 527.542 -3.61127 0.631124 0
M  V30 5504 H 527.19 -4.78564 -1.54872 0
M  V30 5505 H 526.89 -5.87353 -0.170274 0
M  V30 5506 H 528.414 -6.00737 -1.09305 0
M  V30 5507 H 529.828 -5.61756 1.14469 0
M  V30 5508 H 528.225 -5.68104 1.93333 0
M  V30 5509 H 529.295 -4.301 2.23924 0
M  V30 5510 N 530.638 -0.59345 -1.46 0
M  V30 5511 C 531.915 -0.0157933 -1.95594 0
M  V30 5512 C 532.295 1.44807 -1.53604 0
M  V30 5513 O 531.643 2.14342 -0.791824 0
M  V30 5514 C 531.853 -0.199081 -3.48432 0
M  V30 5515 C 533.201 -0.0724943 -4.24538 0
M  V30 5516 O 534.225 -0.128469 -3.55968 0
M  V30 5517 O 533.084 0.0542426 -5.46473 0
M  V30 5518 H 530.178 0.043749 -0.825842 0
M  V30 5519 H 532.724 -0.662522 -1.56233 0
M  V30 5520 H 531.496 -1.21631 -3.71916 0
M  V30 5521 H 531.119 0.483576 -3.94648 0
M  V30 5522 N 532.116 1.54067 -0.331816 0
M  V30 5523 C 533.064 2.26105 0.54582 0
M  V30 5524 C 534.058 1.27816 1.11173 0
M  V30 5525 O 535.264 1.45565 1.05882 0
M  V30 5526 H 531.639 0.726363 0.194683 0
M  V30 5527 H 533.61 2.98282 -0.083931 0
M  V30 5528 C 532.359 3.03814 1.69092 0
M  V30 5529 H 531.682 3.79269 1.26473 0
M  V30 5530 H 533.122 3.57453 2.28043 0
M  V30 5531 C 531.581 2.12606 2.61343 0
M  V30 5532 O 532.111 1.71437 3.6328 0
M  V30 5533 N 530.317 1.77925 2.29763 0
M  V30 5534 H 529.864 2.11602 1.46909 0
M  V30 5535 H 529.822 1.1718 2.91747 0
M  V30 5536 N 533.594 0.0601682 1.57485 0
M  V30 5537 C 534.524 -0.90889 2.15085 0
M  V30 5538 C 535.505 -1.31838 1.07484 0
M  V30 5539 O 536.69 -1.3915 1.35466 0
M  V30 5540 C 533.82 -2.18059 2.7031 0
M  V30 5541 C 532.774 -1.91088 3.82974 0
M  V30 5542 C 532.1 -3.24789 4.24754 0
M  V30 5543 C 533.4 -1.22535 5.07723 0
M  V30 5544 H 535.094 -0.429093 2.96309 0
M  V30 5545 H 532.64 -0.204952 1.42534 0
M  V30 5546 H 534.593 -2.86258 3.09248 0
M  V30 5547 H 533.317 -2.6826 1.8629 0
M  V30 5548 H 531.976 -1.25297 3.44523 0
M  V30 5549 H 531.624 -3.72809 3.37672 0
M  V30 5550 H 531.324 -3.07538 5.00694 0
M  V30 5551 H 532.848 -3.94205 4.66299 0
M  V30 5552 H 534.262 -1.80783 5.4405 0
M  V30 5553 H 532.659 -1.1558 5.88864 0
M  V30 5554 H 533.729 -0.202692 4.84476 0
M  V30 5555 N 535.072 -1.5615 -0.213296 0
M  V30 5556 C 536.019 -1.93086 -1.26437 0
M  V30 5557 C 536.989 -0.789086 -1.4616 0
M  V30 5558 O 538.174 -1.04569 -1.59593 0
M  V30 5559 C 535.314 -2.26003 -2.608 0
M  V30 5560 C 534.427 -3.53156 -2.48807 0
M  V30 5561 C 533.562 -3.7548 -3.7575 0
M  V30 5562 C 532.601 -4.96119 -3.58514 0
M  V30 5563 N 531.738 -5.14791 -4.77425 0
M  V30 5564 H 536.578 -2.82707 -0.942376 0
M  V30 5565 H 534.115 -1.39919 -0.454001 0
M  V30 5566 H 536.073 -2.431 -3.39055 0
M  V30 5567 H 534.703 -1.39546 -2.91079 0
M  V30 5568 H 533.755 -3.44207 -1.61944 0
M  V30 5569 H 535.067 -4.41565 -2.31996 0
M  V30 5570 H 534.221 -3.92718 -4.62447 0
M  V30 5571 H 532.96 -2.85368 -3.95495 0
M  V30 5572 H 531.965 -4.78823 -2.70201 0
M  V30 5573 H 533.19 -5.87724 -3.40231 0
M  V30 5574 H 531.136 -4.27623 -4.97468 0
M  V30 5575 H 531.053 -5.97347 -4.63371 0
M  V30 5576 H 532.321 -5.36471 -5.65525 0
M  V30 5577 N 536.55 0.480323 -1.50102 0
M  V30 5578 C 537.778 1.25657 -1.64371 0
M  V30 5579 C 538.193 1.86011 -0.323316 0
M  V30 5580 O 537.55 1.68803 0.693682 0
M  V30 5581 C 537.601 2.37197 -2.728 0
M  V30 5582 O 537.322 1.7932 -3.9972 0
M  V30 5583 C 538.823 3.2823 -2.9796 0
M  V30 5584 H 536.043 0.380369 -0.552775 0
M  V30 5585 H 538.587 0.574379 -1.96268 0
M  V30 5586 H 536.742 3.01208 -2.43623 0
M  V30 5587 H 537.156 2.52701 -4.59611 0
M  V30 5588 H 538.63 4.02725 -3.77513 0
M  V30 5589 H 539.107 3.86462 -2.08671 0
M  V30 5590 H 539.713 2.69964 -3.28633 0
M  V30 5591 N 538.028 1.39524 0.732853 0
M  V30 5592 C 539.256 1.40143 1.52209 0
M  V30 5593 C 539.671 -0.00348836 1.888 0
M  V30 5594 O 539.028 -0.975357 1.5425 0
M  V30 5595 C 539.079 2.27632 2.8083 0
M  V30 5596 O 538.8 3.62654 2.45792 0
M  V30 5597 C 540.301 2.36658 3.74844 0
M  V30 5598 H 537.521 0.478604 0.470297 0
M  V30 5599 H 540.065 1.83366 0.905388 0
M  V30 5600 H 538.22 1.87818 3.38826 0
M  V30 5601 H 538.634 4.08941 3.28431 0
M  V30 5602 H 540.108 3.02118 4.61984 0
M  V30 5603 H 540.585 1.38638 4.16745 0
M  V30 5604 H 541.191 2.76951 3.22766 0
M  V30 5605 N 539.506 -0.963266 1.24736 0
M  V30 5606 C 540.416 -2.09246 1.06082 0
M  V30 5607 C 541.432 -1.74 0.000363101 0
M  V30 5608 O 542.608 -2.0041 0.199479 0
M  V30 5609 C 539.673 -3.40115 0.672498 0
M  V30 5610 C 538.734 -3.89282 1.80993 0
M  V30 5611 C 537.967 -5.13905 1.44004 0
M  V30 5612 O 538.19 -5.69434 0.331835 0
M  V30 5613 O 537.124 -5.57566 2.26723 0
M  V30 5614 H 540.95 -2.27881 2.00759 0
M  V30 5615 H 538.535 -1.07649 1.03595 0
M  V30 5616 H 540.417 -4.18797 0.467668 0
M  V30 5617 H 539.092 -3.22771 -0.245102 0
M  V30 5618 H 537.999 -3.11642 2.06955 0
M  V30 5619 H 539.332 -4.1111 2.70646 0
M  V30 5620 N 540.985 -1.06182 -1.16461 0
M  V30 5621 C 542.234 -0.772927 -1.86303 0
M  V30 5622 C 542.547 0.703187 -1.82523 0
M  V30 5623 O 543.753 1.10641 -2.47933 0
M  V30 5624 C 542.209 -1.33249 -3.34324 0
M  V30 5625 C 541.817 -2.83876 -3.46581 0
M  V30 5626 C 543.561 -1.12108 -4.09429 0
M  V30 5627 C 541.468 -3.33082 -4.88682 0
M  V30 5628 H 540.398 -0.285452 -0.697878 0
M  V30 5629 H 543.049 -1.28039 -1.31447 0
M  V30 5630 H 541.431 -0.7528 -3.88779 0
M  V30 5631 H 542.605 -3.47786 -3.02293 0
M  V30 5632 H 540.92 -3.03671 -2.84909 0
M  V30 5633 H 543.517 -1.46361 -5.14279 0
M  V30 5634 H 543.86 -0.0593832 -4.16258 0
M  V30 5635 H 544.393 -1.6665 -3.6121 0
M  V30 5636 H 541.132 -4.38726 -4.87032 0
M  V30 5637 H 540.652 -2.73919 -5.33599 0
M  V30 5638 H 542.331 -3.28344 -5.57494 0
M  V30 5639 N 542.463 1.3308 -0.844243 0
M  V30 5640 C 543.688 2.02341 -0.455282 0
M  V30 5641 C 544.113 1.6308 0.93737 0
M  V30 5642 O 543.471 0.826118 1.61385 0
M  V30 5643 C 543.519 3.55743 -0.58988 0
M  V30 5644 O 542.623 4.1063 0.38166 0
M  V30 5645 H 541.964 0.637898 -0.184343 0
M  V30 5646 H 544.494 1.6986 -1.14056 0
M  V30 5647 H 544.504 4.05243 -0.473522 0
M  V30 5648 H 543.179 3.83662 -1.60549 0
M  V30 5649 H 541.756 3.72236 0.22241 0
M  V30 5650 N 543.941 0.601185 1.45683 0
M  V30 5651 C 544.904 -0.111398 2.28929 0
M  V30 5652 C 545.904 -0.801246 1.39416 0
M  V30 5653 O 547.094 -0.650383 1.61603 0
M  V30 5654 C 544.226 -1.16773 3.20276 0
M  V30 5655 H 545.419 0.620412 2.93413 0
M  V30 5656 H 542.972 0.359946 1.52099 0
M  V30 5657 H 543.707 -1.93051 2.60579 0
M  V30 5658 H 543.492 -0.677358 3.86205 0
M  V30 5659 H 544.982 -1.66698 3.82886 0
M  V30 5660 N 545.419 -1.53889 0.339982 0
M  V30 5661 C 546.329 -2.28604 -0.526988 0
M  V30 5662 C 547.345 -1.33578 -1.11503 0
M  V30 5663 O 548.521 -1.66612 -1.13148 0
M  V30 5664 C 545.586 -3.04164 -1.66389 0
M  V30 5665 C 544.647 -4.14809 -1.10599 0
M  V30 5666 C 543.88 -4.86756 -2.18871 0
M  V30 5667 O 544.103 -4.58343 -3.39526 0
M  V30 5668 O 543.037 -5.73289 -1.83366 0
M  V30 5669 H 546.863 -3.03594 0.0802707 0
M  V30 5670 H 544.448 -1.4903 0.105141 0
M  V30 5671 H 546.33 -3.51427 -2.32544 0
M  V30 5672 H 545.005 -2.32035 -2.25703 0
M  V30 5673 H 543.912 -3.71857 -0.409067 0
M  V30 5674 H 545.245 -4.89029 -0.557771 0
M  V30 5675 N 546.897 -0.0685191 -1.57451 0
M  V30 5676 C 548.313 0.288101 -1.56978 0
M  V30 5677 C 548.513 1.70262 -1.07765 0
M  V30 5678 O 547.569 2.4135 -0.742054 0
M  V30 5679 C 548.882 0.100745 -3.00531 0
M  V30 5680 C 550.43 0.170531 -3.12535 0
M  V30 5681 C 550.905 0.0114944 -4.57999 0
M  V30 5682 N 552.396 0.0672065 -4.63151 0
M  V30 5683 C 553.131 -0.0314813 -5.73391 0
M  V30 5684 N 552.627 -0.183503 -6.92557 0
M  V30 5685 N 554.42 0.0253489 -5.62094 0
M  V30 5686 H 546.571 -0.993026 -1.87757 0
M  V30 5687 H 548.834 -0.386981 -0.865419 0
M  V30 5688 H 548.54 -0.875197 -3.40636 0
M  V30 5689 H 548.414 0.854457 -3.67395 0
M  V30 5690 H 550.801 1.13696 -2.72318 0
M  V30 5691 H 550.882 -0.614229 -2.48316 0
M  V30 5692 H 550.526 -0.951684 -4.98904 0
M  V30 5693 H 550.456 0.815617 -5.20245 0
M  V30 5694 H 552.947 0.183246 -3.77455 0
M  V30 5695 H 553.26 -0.251041 -7.72392 0
M  V30 5696 H 551.605 -0.218822 -6.94655 0
M  V30 5697 H 554.796 0.142794 -4.67882 0
M  V30 5698 H 554.969 -0.0550166 -6.47977 0
M  V30 5699 N 548.375 1.56261 0.205012 0
M  V30 5700 C 549.622 1.8004 0.926927 0
M  V30 5701 C 549.95 0.640086 1.83666 0
M  V30 5702 O 549.205 -0.374702 1.92079 0
M  V30 5703 C 549.504 3.09722 1.78345 0
M  V30 5704 C 549.17 4.39082 1.02555 0
M  V30 5705 C 547.832 4.74226 0.816256 0
M  V30 5706 C 550.184 5.18877 0.491559 0
M  V30 5707 C 547.512 5.86668 0.0613287 0
M  V30 5708 C 549.864 6.32105 -0.250107 0
M  V30 5709 C 548.528 6.6584 -0.470508 0
M  V30 5710 H 547.798 0.658812 0.339187 0
M  V30 5711 H 550.445 1.90515 0.19395 0
M  V30 5712 H 548.75 2.9444 2.5848 0
M  V30 5713 H 550.447 3.25324 2.34446 0
M  V30 5714 H 547.037 4.11497 1.19868 0
M  V30 5715 H 551.221 4.92147 0.640684 0
M  V30 5716 H 546.477 6.11283 -0.119501 0
M  V30 5717 H 550.651 6.93157 -0.671307 0
M  V30 5718 H 548.278 7.5281 -1.05739 0
M  V30 5719 N 549.853 -0.472356 1.50355 0
M  V30 5720 C 550.783 -1.57859 1.72055 0
M  V30 5721 C 551.764 -1.60283 0.569505 0
M  V30 5722 O 552.949 -1.7657 0.808503 0
M  V30 5723 C 550.079 -2.96191 1.81351 0
M  V30 5724 C 549.033 -3.08633 2.96529 0
M  V30 5725 C 548.359 -4.486 2.90968 0
M  V30 5726 C 549.659 -2.85969 4.37057 0
M  V30 5727 H 551.353 -1.39953 2.64676 0
M  V30 5728 H 548.899 -0.671846 1.27367 0
M  V30 5729 H 550.852 -3.73507 1.95117 0
M  V30 5730 H 549.576 -3.15251 0.853502 0
M  V30 5731 H 548.235 -2.33749 2.82413 0
M  V30 5732 H 547.883 -4.64577 1.92815 0
M  V30 5733 H 547.583 -4.57861 3.68289 0
M  V30 5734 H 549.107 -5.27938 3.0678 0
M  V30 5735 H 550.521 -3.53036 4.51706 0
M  V30 5736 H 548.918 -3.06677 5.15819 0
M  V30 5737 H 549.988 -1.81838 4.49514 0
M  V30 5738 N 551.331 -1.39911 -0.725443 0
M  V30 5739 C 552.281 -1.35878 -1.83088 0
M  V30 5740 C 553.265 -0.237989 -1.5913 0
M  V30 5741 O 554.457 -0.476302 -1.70471 0
M  V30 5742 C 551.586 -1.21403 -3.21117 0
M  V30 5743 C 550.672 -2.38223 -3.50871 0
M  V30 5744 N 551.063 -3.63703 -3.51502 0
M  V30 5745 C 549.361 -2.31388 -3.81281 0
M  V30 5746 C 550.062 -4.4101 -3.79322 0
M  V30 5747 N 549.038 -3.7072 -3.97577 0
M  V30 5748 H 552.84 -2.3085 -1.81895 0
M  V30 5749 H 550.354 -1.33543 -0.924125 0
M  V30 5750 H 552.351 -1.16597 -4.00263 0
M  V30 5751 H 551.011 -0.273902 -3.23543 0
M  V30 5752 H 552.022 -3.96998 -3.32586 0
M  V30 5753 H 548.699 -1.45689 -3.91256 0
M  V30 5754 H 550.089 -5.49819 -3.86198 0
M  V30 5755 N 552.809 0.956637 -1.25245 0
M  V30 5756 C 554.086 1.67716 -1.00651 0
M  V30 5757 C 554.466 2.0585 0.467866 0
M  V30 5758 O 553.814 1.77029 1.44475 0
M  V30 5759 C 554.024 2.90093 -1.94028 0
M  V30 5760 C 555.372 3.6209 -2.21756 0
M  V30 5761 O 556.396 3.00171 -1.9177 0
M  V30 5762 O 555.255 4.7358 -2.72735 0
M  V30 5763 H 552.349 0.733731 -0.381533 0
M  V30 5764 H 554.895 1.00974 -1.3639 0
M  V30 5765 H 553.667 2.58689 -2.93591 0
M  V30 5766 H 553.29 3.64566 -1.58674 0
M  V30 5767 N 554.287 1.06798 1.15896 0
M  V30 5768 C 555.535 0.786211 1.8618 0
M  V30 5769 C 555.856 -0.689547 1.82401 0
M  V30 5770 O 555.126 -1.49913 1.26107 0
M  V30 5771 H 553.706 0.287843 0.689315 0
M  V30 5772 H 556.368 1.35055 1.40521 0
M  V30 5773 H 555.464 1.1157 2.91477 0
M  V30 5774 N 555.766 -1.3263 0.851289 0
M  V30 5775 C 557.014 -1.96978 0.452128 0
M  V30 5776 C 557.335 -1.67715 -0.99482 0
M  V30 5777 O 556.605 -0.98259 -1.69476 0
M  V30 5778 H 555.185 -0.72873 0.164202 0
M  V30 5779 H 557.847 -1.61774 1.08698 0
M  V30 5780 H 556.943 -3.06387 0.594407 0
M  V30 5781 N 557.244 -0.608902 -1.45362 0
M  V30 5782 C 558.174 0.0964526 -2.33301 0
M  V30 5783 C 559.155 0.857444 -1.46908 0
M  V30 5784 O 560.34 0.827735 -1.75676 0
M  V30 5785 C 557.47 1.09354 -3.29635 0
M  V30 5786 C 556.424 0.445676 -4.25673 0
M  V30 5787 C 555.75 1.5511 -5.11708 0
M  V30 5788 C 557.05 -0.633972 -5.18438 0
M  V30 5789 H 558.744 -0.637829 -2.92527 0
M  V30 5790 H 556.29 -0.308178 -1.40664 0
M  V30 5791 H 558.243 1.59556 -3.90025 0
M  V30 5792 H 556.967 1.85843 -2.6857 0
M  V30 5793 H 555.626 -0.0354897 -3.66583 0
M  V30 5794 H 555.274 2.30631 -4.4701 0
M  V30 5795 H 554.974 1.12311 -5.76767 0
M  V30 5796 H 556.498 2.05537 -5.74967 0
M  V30 5797 H 557.912 -0.215974 -5.72893 0
M  V30 5798 H 556.309 -0.983789 -5.91981 0
M  V30 5799 H 557.379 -1.51005 -4.60788 0
M  V30 5800 N 558.722 1.53707 -0.348139 0
M  V30 5801 C 559.999 1.93247 0.302475 0
M  V30 5802 C 560.379 1.28012 1.67857 0
M  V30 5803 O 559.727 0.43274 2.24365 0
M  V30 5804 C 559.937 3.47031 0.370159 0
M  V30 5805 C 561.285 4.20066 0.61882 0
M  V30 5806 O 562.309 3.53319 0.452087 0
M  V30 5807 O 561.168 5.38318 0.94215 0
M  V30 5808 H 558.262 0.807736 0.177458 0
M  V30 5809 H 560.808 1.64927 -0.399651 0
M  V30 5810 H 559.58 3.86745 -0.59534 0
M  V30 5811 H 559.203 3.81532 1.11888 0
M  V30 5812 N 560.2 0.0768682 1.57412 0
M  V30 5813 C 561.448 -0.589918 1.93299 0
M  V30 5814 C 561.769 -1.69842 0.958049 0
M  V30 5815 O 561.039 -1.95899 0.00703261 0
M  V30 5816 H 559.619 -0.220901 0.713591 0
M  V30 5817 H 562.281 0.135917 1.94425 0
M  V30 5818 H 561.377 -1.01195 2.95239 0
M  V30 5819 N 561.678 -1.56367 -0.196722 0
M  V30 5820 C 562.903 -1.84991 -0.937714 0
M  V30 5821 C 563.328 -0.660244 -1.76132 0
M  V30 5822 O 562.686 0.390967 -1.77034 0
M  V30 5823 C 562.734 -3.11828 -1.81096 0
M  V30 5824 O 561.838 -2.92266 -2.90955 0
M  V30 5825 H 561.179 -0.609193 -0.264159 0
M  V30 5826 H 563.709 -2.03595 -0.202529 0
M  V30 5827 H 563.719 -3.42579 -2.21594 0
M  V30 5828 H 562.394 -3.98037 -1.2058 0
M  V30 5829 H 560.971 -2.72809 -2.54224 0
M  V30 5830 N 563.156 0.464375 -1.50603 0
M  V30 5831 C 564.106 1.55929 -1.66343 0
M  V30 5832 C 565.09 1.52338 -0.517887 0
M  V30 5833 O 566.282 1.59248 -0.772601 0
M  V30 5834 C 563.411 2.94327 -1.7671 0
M  V30 5835 C 562.497 3.02777 -2.96962 0
M  V30 5836 N 562.888 2.81026 -4.20545 0
M  V30 5837 C 561.186 3.33919 -2.95659 0
M  V30 5838 C 561.887 2.94618 -5.01573 0
M  V30 5839 N 560.863 3.25112 -4.35664 0
M  V30 5840 H 564.665 1.37822 -2.59581 0
M  V30 5841 H 562.179 0.671227 -1.47879 0
M  V30 5842 H 564.176 3.73063 -1.86091 0
M  V30 5843 H 562.836 3.13476 -0.846353 0
M  V30 5844 H 563.847 2.56477 -4.49933 0
M  V30 5845 H 560.524 3.59013 -2.13111 0
M  V30 5846 H 561.914 2.81984 -6.09865 0
M  V30 5847 N 564.634 1.40294 0.718013 0
M  V30 5848 C 566.05 1.2227 1.02577 0
M  V30 5849 C 566.25 0.0961976 2.0127 0
M  V30 5850 O 565.306 -0.546695 2.46511 0
M  V30 5851 C 566.619 2.56348 1.57182 0
M  V30 5852 C 568.167 2.6334 1.69178 0
M  V30 5853 C 568.642 3.9768 2.27188 0
M  V30 5854 N 570.133 3.99409 2.34578 0
M  V30 5855 C 570.868 5.00141 2.8044 0
M  V30 5856 N 570.364 6.11268 3.26073 0
M  V30 5857 N 572.157 4.87511 2.79802 0
M  V30 5858 H 564.308 2.12304 0.0637899 0
M  V30 5859 H 566.571 0.943632 0.0909036 0
M  V30 5860 H 566.277 3.3942 0.921262 0
M  V30 5861 H 566.151 2.77266 2.55741 0
M  V30 5862 H 568.538 1.80641 2.33351 0
M  V30 5863 H 568.619 2.46255 0.692247 0
M  V30 5864 H 568.263 4.80817 1.63638 0
M  V30 5865 H 568.193 4.12093 3.27852 0
M  V30 5866 H 570.684 3.19162 2.02346 0
M  V30 5867 H 570.997 6.84023 3.59628 0
M  V30 5868 H 569.342 6.14837 3.24038 0
M  V30 5869 H 572.533 3.9979 2.43487 0
M  V30 5870 H 572.706 5.66158 3.15228 0
M  V30 5871 N 566.112 -0.949982 1.2575 0
M  V30 5872 C 567.342 -1.72721 1.13363 0
M  V30 5873 C 567.75 -1.86562 -0.314842 0
M  V30 5874 O 567.093 -1.36621 -1.22803 0
M  V30 5875 C 567.155 -3.15695 1.7198 0
M  V30 5876 C 566.819 -3.25268 3.21014 0
M  V30 5877 C 567.816 -3.09222 4.17945 0
M  V30 5878 C 565.501 -3.4894 3.61312 0
M  V30 5879 C 567.495 -3.16701 5.53154 0
M  V30 5880 C 565.182 -3.56055 4.96657 0
M  V30 5881 C 566.18 -3.3995 5.92387 0
M  V30 5882 O 565.868 -3.46757 7.25269 0
M  V30 5883 H 565.6 -0.547888 0.395973 0
M  V30 5884 H 568.154 -1.20009 1.66694 0
M  V30 5885 H 566.384 -3.69791 1.13101 0
M  V30 5886 H 568.073 -3.75295 1.54624 0
M  V30 5887 H 568.839 -2.90798 3.88151 0
M  V30 5888 H 564.718 -3.60534 2.87291 0
M  V30 5889 H 568.262 -3.04048 6.27854 0
M  V30 5890 H 564.159 -3.73997 5.26115 0
M  V30 5891 H 564.927 -3.63358 7.33426 0
M  V30 5892 N 567.59 -1.07411 -1.15328 0
M  V30 5893 C 568.837 -0.797649 -1.86128 0
M  V30 5894 C 569.165 0.676298 -1.82364 0
M  V30 5895 O 568.42 1.51223 -1.24218 0
M  V30 5896 C 568.719 -1.25191 -3.34757 0
M  V30 5897 C 568.385 -2.73191 -3.58716 0
M  V30 5898 C 567.047 -3.13616 -3.64964 0
M  V30 5899 C 569.399 -3.68718 -3.6837 0
M  V30 5900 C 566.727 -4.48383 -3.78377 0
M  V30 5901 C 569.079 -5.03248 -3.83306 0
M  V30 5902 C 567.743 -5.43293 -3.878 0
M  V30 5903 H 567.013 -0.29188 -0.681092 0
M  V30 5904 H 569.66 -1.34524 -1.36292 0
M  V30 5905 H 567.965 -0.623712 -3.86804 0
M  V30 5906 H 569.662 -1.01489 -3.87945 0
M  V30 5907 H 566.252 -2.40898 -3.54494 0
M  V30 5908 H 570.436 -3.38614 -3.62842 0
M  V30 5909 H 565.692 -4.78877 -3.80114 0
M  V30 5910 H 569.866 -5.77142 -3.89718 0
M  V30 5911 H 567.493 -6.47721 -3.97946 0
M  V30 5912 N 569.068 1.32177 -0.85831 0
M  V30 5913 C 570.317 1.96392 -0.459689 0
M  V30 5914 C 570.63 1.68659 0.990632 0
M  V30 5915 O 571.836 2.26641 1.49485 0
M  V30 5916 C 570.292 3.51542 -0.7711 0
M  V30 5917 C 569.9 3.8813 -2.2374 0
M  V30 5918 C 571.644 4.2221 -0.44038 0
M  V30 5919 C 569.551 5.36341 -2.49183 0
M  V30 5920 H 568.481 0.735007 -0.168169 0
M  V30 5921 H 571.132 1.50518 -1.0496 0
M  V30 5922 H 569.514 3.95846 -0.11058 0
M  V30 5923 H 570.688 3.54824 -2.94001 0
M  V30 5924 H 569.003 3.30497 -2.533 0
M  V30 5925 H 571.6 5.31234 -0.607855 0
M  V30 5926 H 571.943 4.11683 0.618291 0
M  V30 5927 H 572.476 3.83502 -1.05695 0
M  V30 5928 H 569.215 5.51892 -3.53689 0
M  V30 5929 H 568.735 5.7104 -1.83504 0
M  V30 5930 H 570.414 6.03466 -2.33318 0
M  V30 5931 N 570.547 0.616602 1.45037 0
M  V30 5932 C 571.775 0.121968 2.0654 0
M  V30 5933 C 572.19 -1.19743 1.45969 0
M  V30 5934 O 571.547 -1.73133 0.577168 0
M  V30 5935 C 571.598 -0.0145171 3.61497 0
M  V30 5936 O 571.319 1.25269 4.19809 0
M  V30 5937 C 572.82 -0.539555 4.40004 0
M  V30 5938 H 570.04 0.0729837 0.667019 0
M  V30 5939 H 572.584 0.846891 1.8614 0
M  V30 5940 H 570.739 -0.689809 3.81209 0
M  V30 5941 H 571.153 1.08816 5.13088 0
M  V30 5942 H 572.627 -0.584112 5.48901 0
M  V30 5943 H 573.104 -1.56368 4.10421 0
M  V30 5944 H 573.71 0.101995 4.25178 0
M  V30 5945 N 572.025 -1.5352 0.356285 0
M  V30 5946 C 572.988 -2.24071 -0.482182 0
M  V30 5947 C 573.988 -1.24531 -1.01729 0
M  V30 5948 O 575.178 -1.48876 -0.904513 0
M  V30 5949 C 572.31 -2.97025 -1.67299 0
M  V30 5950 H 573.503 -2.99596 0.135031 0
M  V30 5951 H 571.056 -1.55928 0.107825 0
M  V30 5952 H 571.791 -2.25719 -2.32855 0
M  V30 5953 H 571.576 -3.7005 -1.29636 0
M  V30 5954 H 573.066 -3.50683 -2.26741 0
M  V30 5955 N 573.503 -0.0852151 -1.57369 0
M  V30 5956 C 574.466 0.8627 -2.12344 0
M  V30 5957 C 575.466 1.21746 -1.05046 0
M  V30 5958 O 576.656 1.14852 -1.30976 0
M  V30 5959 C 573.788 2.1618 -2.63589 0
M  V30 5960 H 574.981 0.385511 -2.97412 0
M  V30 5961 H 572.534 0.163663 -1.55441 0
M  V30 5962 H 573.269 2.68406 -1.82013 0
M  V30 5963 H 573.054 1.91723 -3.4203 0
M  V30 5964 H 574.544 2.84011 -3.06149 0
M  V30 5965 N 574.981 1.5647 0.188427 0
M  V30 5966 C 575.929 1.95971 1.25293 0
M  V30 5967 C 576.923 0.846047 1.4676 0
M  V30 5968 O 578.129 1.03109 1.47542 0
M  V30 5969 H 574.504 0.623253 0.420784 0
M  V30 5970 H 576.475 2.84731 0.892792 0
M  V30 5971 C 575.224 2.32116 2.58877 0
M  V30 5972 H 574.547 3.17341 2.43176 0
M  V30 5973 H 575.987 2.63613 3.3209 0
M  V30 5974 C 574.446 1.15823 3.16365 0
M  V30 5975 O 574.976 0.436785 3.99318 0
M  V30 5976 N 573.182 0.933278 2.75206 0
M  V30 5977 H 572.729 1.52169 2.07852 0
M  V30 5978 H 572.687 0.156976 3.14008 0
M  V30 5979 N 576.459 -0.456382 1.50847 0
M  V30 5980 C 577.422 -1.53493 1.70213 0
M  V30 5981 C 578.422 -1.50264 0.572481 0
M  V30 5982 O 579.612 -1.52623 0.839751 0
M  V30 5983 C 576.744 -2.93091 1.741 0
M  V30 5984 H 577.937 -1.37633 2.66453 0
M  V30 5985 H 575.49 -0.683776 1.4055 0
M  V30 5986 H 576.225 -3.14378 0.796063 0
M  V30 5987 H 576.01 -2.9684 2.5618 0
M  V30 5988 H 577.5 -3.71368 1.90987 0
M  V30 5989 N 577.937 -1.40673 -0.710563 0
M  V30 5990 C 579.353 -1.22813 -1.01928 0
M  V30 5991 C 579.553 -0.10687 -2.01216 0
M  V30 5992 O 578.609 0.533614 -2.46797 0
M  V30 5993 C 579.922 -2.57178 -1.5582 0
M  V30 5994 C 581.47 -2.64233 -1.67779 0
M  V30 5995 C 581.945 -3.98879 -2.25076 0
M  V30 5996 N 583.436 -4.00647 -2.32456 0
M  V30 5997 C 584.171 -5.01621 -2.77784 0
M  V30 5998 N 583.667 -6.12989 -3.22826 0
M  V30 5999 N 585.46 -4.88988 -2.77213 0
M  V30 6000 H 577.611 -2.12335 -0.05253 0
M  V30 6001 H 579.874 -0.9441 -0.085898 0
M  V30 6002 H 579.58 -3.39903 -0.903249 0
M  V30 6003 H 579.454 -2.78618 -2.54267 0
M  V30 6004 H 581.841 -1.81876 -2.3239 0
M  V30 6005 H 581.922 -2.46619 -0.679178 0
M  V30 6006 H 581.566 -4.81678 -1.61086 0
M  V30 6007 H 581.496 -4.13826 -3.25661 0
M  V30 6008 H 583.987 -3.20231 -2.0065 0
M  V30 6009 H 584.3 -6.85921 -3.55995 0
M  V30 6010 H 582.645 -6.16547 -3.20773 0
M  V30 6011 H 585.836 -4.01075 -2.41363 0
M  V30 6012 H 586.009 -5.67822 -3.12221 0
M  V30 6013 N 579.415 0.9433 -1.26252 0
M  V30 6014 C 580.363 2.06302 -1.07434 0
M  V30 6015 C 581.357 1.694 -0.00189471 0
M  V30 6016 O 582.563 1.79302 -0.158408 0
M  V30 6017 H 578.938 0.675453 -0.330556 0
M  V30 6018 H 580.909 2.19326 -2.02333 0
M  V30 6019 C 579.658 3.40125 -0.721817 0
M  V30 6020 H 578.981 3.68996 -1.5389 0
M  V30 6021 H 580.421 4.19295 -0.629922 0
M  V30 6022 C 578.88 3.31993 0.572902 0
M  V30 6023 O 579.41 3.67945 1.61182 0
M  V30 6024 N 577.616 2.85099 0.562748 0
M  V30 6025 H 577.163 2.5604 -0.283092 0
M  V30 6026 H 577.121 2.80041 1.42915 0
M  V30 6027 N 580.893 1.08022 1.14757 0
M  V30 6028 C 581.84 0.706657 2.19716 0
M  V30 6029 C 582.81 -0.30525 1.63271 0
M  V30 6030 O 583.995 -0.19015 1.8985 0
M  V30 6031 C 581.135 0.117914 3.44898 0
M  V30 6032 C 580.248 1.18212 4.15512 0
M  V30 6033 C 579.383 0.557659 5.28265 0
M  V30 6034 C 578.422 1.60418 5.90705 0
M  V30 6035 N 577.559 1.0018 6.94916 0
M  V30 6036 H 582.399 1.60603 2.51019 0
M  V30 6037 H 579.936 0.802664 1.23271 0
M  V30 6038 H 581.894 -0.241112 4.16503 0
M  V30 6039 H 580.524 -0.744788 3.1409 0
M  V30 6040 H 579.576 1.65863 3.42335 0
M  V30 6041 H 580.888 1.97533 4.5802 0
M  V30 6042 H 580.042 0.146654 6.06523 0
M  V30 6043 H 578.781 -0.267249 4.86967 0
M  V30 6044 H 577.786 2.02489 5.11154 0
M  V30 6045 H 579.011 2.43149 6.34078 0
M  V30 6046 H 576.957 0.197917 6.55701 0
M  V30 6047 H 576.874 1.73216 7.35889 0
M  V30 6048 H 578.142 0.616523 7.77058 0
M  V30 6049 N 582.371 -1.3172 0.865308 0
M  V30 6050 C 583.301 -2.31109 0.333302 0
M  V30 6051 C 584.282 -1.60148 -0.573301 0
M  V30 6052 O 585.467 -1.87882 -0.491305 0
M  V30 6053 C 582.597 -3.44104 -0.470078 0
M  V30 6054 C 581.551 -4.26623 0.343021 0
M  V30 6055 C 580.877 -5.31482 -0.585756 0
M  V30 6056 C 582.177 -4.98001 1.57456 0
M  V30 6057 H 583.871 -2.75855 1.1638 0
M  V30 6058 H 581.417 -1.3262 0.561069 0
M  V30 6059 H 583.37 -4.12682 -0.852752 0
M  V30 6060 H 582.094 -2.98112 -1.33404 0
M  V30 6061 H 580.753 -3.59707 0.707583 0
M  V30 6062 H 580.401 -4.81741 -1.44686 0
M  V30 6063 H 580.101 -5.87582 -0.0456494 0
M  V30 6064 H 581.625 -6.0292 -0.965375 0
M  V30 6065 H 583.039 -5.59201 1.26359 0
M  V30 6066 H 581.436 -5.63876 2.05339 0
M  V30 6067 H 582.506 -4.25253 2.32997 0
M  V30 6068 N 583.85 -0.624285 -1.44708 0
M  V30 6069 C 585.096 -0.126237 -2.02407 0
M  V30 6070 C 585.428 1.24618 -1.48943 0
M  V30 6071 O 584.704 1.82569 -0.670742 0
M  V30 6072 C 584.986 -0.105449 -3.59946 0
M  V30 6073 C 584.84 -1.50972 -4.23707 0
M  V30 6074 C 586.159 0.573629 -4.36346 0
M  V30 6075 H 583.278 -0.0473472 -0.735478 0
M  V30 6076 H 585.92 -0.799452 -1.72362 0
M  V30 6077 H 584.07 0.46783 -3.85673 0
M  V30 6078 H 585.742 -2.13136 -4.0911 0
M  V30 6079 H 583.985 -2.0656 -3.81465 0
M  V30 6080 H 584.656 -1.44727 -5.32689 0
M  V30 6081 H 587.132 0.0861787 -4.16011 0
M  V30 6082 H 586.008 0.557338 -5.46063 0
M  V30 6083 H 586.269 1.64276 -4.10446 0
M  V30 6084 N 585.328 1.53329 -0.364422 0
M  V30 6085 C 586.574 2.01537 0.225969 0
M  V30 6086 C 586.907 1.25128 1.48515 0
M  V30 6087 O 586.182 0.344653 1.91422 0
M  V30 6088 C 586.465 3.56339 0.519092 0
M  V30 6089 C 586.318 4.43441 -0.753639 0
M  V30 6090 C 587.637 4.19833 1.32015 0
M  V30 6091 H 584.756 0.732573 0.0806548 0
M  V30 6092 H 587.398 1.83597 -0.489084 0
M  V30 6093 H 585.548 3.71756 1.12825 0
M  V30 6094 H 587.22 4.39823 -1.39116 0
M  V30 6095 H 585.463 4.11457 -1.37424 0
M  V30 6096 H 586.134 5.49699 -0.503517 0
M  V30 6097 H 588.61 4.08242 0.804859 0
M  V30 6098 H 587.486 5.28177 1.49399 0
M  V30 6099 H 587.747 3.75821 2.32832 0
M  V30 6100 N 586.806 0.0935595 1.57322 0
M  V30 6101 C 588.055 -0.570191 1.93473 0
M  V30 6102 C 588.368 -1.69434 0.977318 0
M  V30 6103 O 589.574 -2.41914 1.23248 0
M  V30 6104 C 588.03 -1.06564 3.43762 0
M  V30 6105 C 587.638 0.0286723 4.47991 0
M  V30 6106 C 589.382 -1.70221 3.88877 0
M  V30 6107 C 587.289 -0.482046 5.89432 0
M  V30 6108 H 586.219 -0.216764 0.72217 0
M  V30 6109 H 588.87 0.169313 1.82717 0
M  V30 6110 H 587.252 -1.85878 3.49664 0
M  V30 6111 H 588.426 0.804106 4.5373 0
M  V30 6112 H 586.741 0.570336 4.12476 0
M  V30 6113 H 589.338 -2.09502 4.91948 0
M  V30 6114 H 589.681 -2.57078 3.27439 0
M  V30 6115 H 590.214 -0.974919 3.85668 0
M  V30 6116 H 586.953 0.349871 6.54566 0
M  V30 6117 H 586.473 -1.22452 5.87167 0
M  V30 6118 H 588.152 -0.951508 6.39965 0
M  V30 6119 N 588.284 -1.56567 -0.180126 0
M  V30 6120 C 589.561 -1.7235 -0.924931 0
M  V30 6121 C 589.941 -0.652523 -2.00762 0
M  V30 6122 O 589.289 0.334115 -2.26044 0
M  V30 6123 C 589.499 -3.1523 -1.49771 0
M  V30 6124 C 590.847 -3.75921 -1.97405 0
M  V30 6125 O 591.871 -3.18452 -1.59583 0
M  V30 6126 O 590.73 -4.7681 -2.67048 0
M  V30 6127 H 587.824 -0.703502 -0.434758 0
M  V30 6128 H 590.37 -1.6886 -0.168647 0
M  V30 6129 H 589.142 -3.84656 -0.718027 0
M  V30 6130 H 588.765 -3.23009 -2.31842 0
M  V30 6131 N 589.762 0.448376 -1.51087 0
M  V30 6132 C 590.99 1.22143 -1.66999 0
M  V30 6133 C 591.405 1.85283 -0.362699 0
M  V30 6134 O 590.762 1.70236 0.65772 0
M  V30 6135 C 590.813 2.31357 -2.7777 0
M  V30 6136 O 590.534 1.70801 -4.03434 0
M  V30 6137 C 592.035 3.21836 -3.04855 0
M  V30 6138 H 589.255 0.368558 -0.560719 0
M  V30 6139 H 591.799 0.532618 -1.97442 0
M  V30 6140 H 589.954 2.95973 -2.49958 0
M  V30 6141 H 590.368 2.42895 -4.64868 0
M  V30 6142 H 591.842 3.94627 -3.85971 0
M  V30 6143 H 592.319 3.81949 -2.16821 0
M  V30 6144 H 592.925 2.62933 -3.34285 0
M  V30 6145 N 591.24 1.41047 0.703093 0
M  V30 6146 C 592.187 1.42302 1.81711 0
M  V30 6147 C 593.157 0.278336 1.63751 0
M  V30 6148 O 594.342 0.478266 1.84709 0
M  V30 6149 C 591.482 1.30362 3.19531 0
M  V30 6150 C 590.595 2.54638 3.48975 0
M  V30 6151 C 589.73 2.35047 4.76368 0
M  V30 6152 C 588.769 3.54837 4.98756 0
M  V30 6153 N 587.906 3.34363 6.1737 0
M  V30 6154 H 592.746 2.37516 1.79973 0
M  V30 6155 H 590.283 1.1795 0.878983 0
M  V30 6156 H 592.241 1.21443 3.99134 0
M  V30 6157 H 590.871 0.387602 3.20464 0
M  V30 6158 H 589.923 2.74037 2.63833 0
M  V30 6159 H 591.235 3.43766 3.61423 0
M  V30 6160 H 590.389 2.23552 5.64012 0
M  V30 6161 H 589.128 1.43363 4.66153 0
M  V30 6162 H 588.133 3.66795 4.09563 0
M  V30 6163 H 589.358 4.47464 5.10835 0
M  V30 6164 H 587.304 2.45373 6.08382 0
M  V30 6165 H 587.221 4.17063 6.30551 0
M  V30 6166 H 588.489 3.26626 7.07768 0
M  V30 6167 N 592.718 -0.936591 1.26751 0
M  V30 6168 C 593.628 -2.06949 1.10496 0
M  V30 6169 C 594.644 -1.7396 0.037271 0
M  V30 6170 O 595.82 -1.99941 0.241944 0
M  V30 6171 C 592.885 -3.38612 0.744491 0
M  V30 6172 C 591.946 -3.85355 1.89209 0
M  V30 6173 C 591.179 -5.10735 1.54873 0
M  V30 6174 O 591.402 -5.68602 0.452546 0
M  V30 6175 O 590.336 -5.52632 2.38499 0
M  V30 6176 H 594.162 -2.23571 2.05547 0
M  V30 6177 H 591.747 -1.05428 1.05855 0
M  V30 6178 H 593.629 -4.17711 0.556396 0
M  V30 6179 H 592.304 -3.23218 -0.176582 0
M  V30 6180 H 591.211 -3.07182 2.13518 0
M  V30 6181 H 592.544 -4.05277 2.79305 0
M  V30 6182 N 594.196 -1.08629 -1.14182 0
M  V30 6183 C 595.444 -0.815731 -1.84906 0
M  V30 6184 C 595.765 0.660441 -1.83475 0
M  V30 6185 O 595.035 1.47888 -1.28476 0
M  V30 6186 H 593.615 -0.298773 -0.684648 0
M  V30 6187 H 596.277 -1.37274 -1.38354 0
M  V30 6188 H 595.373 -1.16193 -2.89665 0
M  V30 6189 N 595.674 1.31259 -0.872281 0
M  V30 6190 C 596.621 2.28459 -0.327857 0
M  V30 6191 C 597.591 1.55831 0.574957 0
M  V30 6192 O 598.776 1.83965 0.506101 0
M  V30 6193 C 595.916 3.41985 0.462644 0
M  V30 6194 C 595.029 4.29458 -0.467949 0
M  V30 6195 C 594.164 5.30131 0.336903 0
M  V30 6196 C 593.203 6.0925 -0.58997 0
M  V30 6197 N 592.34 7.01872 0.178775 0
M  V30 6198 H 597.18 2.74414 -1.16193 0
M  V30 6199 H 594.717 1.34994 -0.584376 0
M  V30 6200 H 596.675 4.06547 0.936759 0
M  V30 6201 H 595.305 2.97134 1.2614 0
M  V30 6202 H 594.357 3.65318 -1.06052 0
M  V30 6203 H 595.669 4.84677 -1.17856 0
M  V30 6204 H 594.823 6.0038 0.873427 0
M  V30 6205 H 593.562 4.75573 1.08079 0
M  V30 6206 H 592.567 5.37889 -1.13823 0
M  V30 6207 H 593.792 6.65894 -1.33275 0
M  V30 6208 H 591.738 6.49721 0.905435 0
M  V30 6209 H 591.655 7.54522 -0.472452 0
M  V30 6210 H 592.923 7.76382 0.696454 0
M  V30 6211 N 597.152 0.631951 1.44375 0
M  V30 6212 C 598.082 -0.0593243 2.33425 0
M  V30 6213 C 599.063 -0.833964 1.48253 0
M  V30 6214 O 600.248 -0.799682 1.76971 0
M  V30 6215 C 597.378 -1.04096 3.31333 0
M  V30 6216 C 596.332 -0.377899 4.26328 0
M  V30 6217 C 595.658 -1.4695 5.14111 0
M  V30 6218 C 596.958 0.716371 5.17364 0
M  V30 6219 H 598.652 0.684287 2.91475 0
M  V30 6220 H 596.198 0.330518 1.40156 0
M  V30 6221 H 598.151 -1.53331 3.92514 0
M  V30 6222 H 596.875 -1.81547 2.71493 0
M  V30 6223 H 595.534 0.0938054 3.6648 0
M  V30 6224 H 595.182 -2.2349 4.50623 0
M  V30 6225 H 594.882 -1.03121 5.78481 0
M  V30 6226 H 596.406 -1.96363 5.78164 0
M  V30 6227 H 597.82 0.307089 5.72477 0
M  V30 6228 H 596.217 1.07784 5.90341 0
M  V30 6229 H 597.287 1.58316 4.58327 0
M  V30 6230 N 598.631 -1.53133 0.372548 0
M  V30 6231 C 599.877 -2.01654 -0.215277 0
M  V30 6232 C 600.21 -1.25914 -1.47849 0
M  V30 6233 O 599.485 -0.3548 -1.91237 0
M  V30 6234 C 599.768 -3.56609 -0.500187 0
M  V30 6235 C 599.621 -4.43036 0.777145 0
M  V30 6236 C 600.94 -4.20528 -1.29786 0
M  V30 6237 H 598.059 -0.732991 -0.0767686 0
M  V30 6238 H 600.701 -1.83335 0.498814 0
M  V30 6239 H 598.851 -3.7235 -1.10852 0
M  V30 6240 H 600.523 -4.39079 1.41447 0
M  V30 6241 H 598.766 -4.10723 1.39604 0
M  V30 6242 H 599.437 -5.49424 0.532662 0
M  V30 6243 H 601.913 -4.08663 -0.783198 0
M  V30 6244 H 600.789 -5.28962 -1.46596 0
M  V30 6245 H 601.05 -3.77051 -2.30836 0
M  V30 6246 N 600.109 -0.101901 -1.5727 0
M  V30 6247 C 601.072 0.840129 -2.13247 0
M  V30 6248 C 602.072 1.20625 -1.06331 0
M  V30 6249 O 603.262 1.13456 -1.32186 0
M  V30 6250 C 600.394 2.13372 -2.65867 0
M  V30 6251 H 601.587 0.353945 -2.97804 0
M  V30 6252 H 599.14 0.147167 -1.55606 0
M  V30 6253 H 599.875 2.66461 -1.84849 0
M  V30 6254 H 599.66 1.88085 -3.44044 0
M  V30 6255 H 601.15 2.80748 -3.09145 0
M  V30 6256 N 601.587 1.56661 0.17182 0
M  V30 6257 C 602.836 1.81158 0.886831 0
M  V30 6258 C 603.149 0.679072 1.83434 0
M  V30 6259 O 604.355 0.808964 2.59168 0
M  V30 6260 C 602.811 3.20999 1.6275 0
M  V30 6261 C 602.419 4.42117 0.723652 0
M  V30 6262 C 604.163 3.5479 2.33076 0
M  V30 6263 C 602.07 5.7298 1.46452 0
M  V30 6264 H 601 0.675543 0.334899 0
M  V30 6265 H 603.651 1.82967 0.139765 0
M  V30 6266 H 602.033 3.13506 2.4193 0
M  V30 6267 H 603.207 4.60789 -0.0311485 0
M  V30 6268 H 601.522 4.16197 0.130063 0
M  V30 6269 H 604.119 4.49806 2.89099 0
M  V30 6270 H 604.462 2.79646 3.08389 0
M  V30 6271 H 604.995 3.63834 1.6084 0
M  V30 6272 H 601.734 6.51152 0.753729 0
M  V30 6273 H 601.254 5.58285 2.19266 0
M  V30 6274 H 602.933 6.14916 2.01214 0
M  V30 6275 N 603.065 -0.440357 1.51323 0
M  V30 6276 C 603.975 -1.55955 1.75258 0
M  V30 6277 C 604.991 -1.61933 0.636687 0
M  V30 6278 O 606.167 -1.79231 0.918593 0
M  V30 6279 C 603.232 -2.9196 1.86977 0
M  V30 6280 C 602.293 -2.96122 3.10822 0
M  V30 6281 C 601.526 -4.2564 3.21973 0
M  V30 6282 O 601.749 -5.17851 2.39137 0
M  V30 6283 O 600.683 -4.36025 4.14929 0
M  V30 6284 H 604.509 -1.38673 2.70191 0
M  V30 6285 H 602.094 -0.623055 1.35788 0
M  V30 6286 H 603.976 -3.72682 1.96688 0
M  V30 6287 H 602.651 -3.09375 0.952307 0
M  V30 6288 H 601.558 -2.14366 3.06591 0
M  V30 6289 H 602.891 -2.83651 4.02247 0
M  V30 6290 N 604.543 -1.41418 -0.695603 0
M  V30 6291 C 605.82 -1.31264 -1.45014 0
M  V30 6292 C 606.2 0.0597994 -2.11015 0
M  V30 6293 O 605.548 1.07403 -2.01685 0
M  V30 6294 C 605.758 -2.466 -2.4696 0
M  V30 6295 C 607.106 -2.87763 -3.12214 0
M  V30 6296 O 608.13 -2.46339 -2.57285 0
M  V30 6297 O 606.989 -3.59395 -4.11701 0
M  V30 6298 H 604.083 -0.516576 -0.645816 0
M  V30 6299 H 606.629 -1.53382 -0.726084 0
M  V30 6300 H 605.401 -3.38183 -1.96845 0
M  V30 6301 H 605.024 -2.26358 -3.26876 0
M  V30 6302 N 606.021 0.929856 -1.27246 0
M  V30 6303 C 607.249 1.71144 -1.16265 0
M  V30 6304 C 607.664 1.867 0.280786 0
M  V30 6305 O 607.021 1.38249 1.19136 0
M  V30 6306 C 607.072 3.11222 -1.83911 0
M  V30 6307 O 606.793 2.96398 -3.22614 0
M  V30 6308 C 608.294 4.05541 -1.79028 0
M  V30 6309 H 605.514 0.535499 -0.404328 0
M  V30 6310 H 608.058 1.16492 -1.68077 0
M  V30 6311 H 606.213 3.6274 -1.36009 0
M  V30 6312 H 606.627 3.8494 -3.56261 0
M  V30 6313 H 608.101 5.01351 -2.30978 0
M  V30 6314 H 608.578 4.32589 -0.759168 0
M  V30 6315 H 609.184 3.59947 -2.26535 0
M  V30 6316 N 607.499 1.09233 1.13605 0
M  V30 6317 C 608.747 0.825525 1.84471 0
M  V30 6318 C 609.068 -0.650702 1.83823 0
M  V30 6319 O 608.338 -1.47204 1.29259 0
M  V30 6320 H 606.918 0.3024 0.683054 0
M  V30 6321 H 609.58 1.38006 1.37624 0
M  V30 6322 H 608.676 1.17727 2.89045 0
M  V30 6323 N 608.977 -1.30795 0.87923 0
M  V30 6324 C 610.225 -1.95974 0.493809 0
M  V30 6325 C 610.546 -1.69787 -0.959021 0
M  V30 6326 O 609.816 -1.01832 -1.67353 0
M  V30 6327 H 608.396 -0.725083 0.179622 0
M  V30 6328 H 611.058 -1.59432 1.12105 0
M  V30 6329 H 610.154 -3.05058 0.659263 0
M  V30 6330 N 610.455 -0.639598 -1.44038 0
M  V30 6331 C 611.387 0.0987684 -2.28987 0
M  V30 6332 C 612.4 0.80058 -1.41755 0
M  V30 6333 O 613.589 0.660611 -1.65826 0
M  V30 6334 C 610.689 1.16242 -3.18341 0
M  V30 6335 C 609.862 0.541447 -4.34036 0
M  V30 6336 C 608.921 1.50017 -5.04362 0
M  V30 6337 O 607.947 1.01403 -5.60095 0
M  V30 6338 N 609.149 2.83441 -5.06598 0
M  V30 6339 H 611.914 -0.630305 -2.92997 0
M  V30 6340 H 609.475 -0.481376 -1.54578 0
M  V30 6341 H 611.467 1.80429 -3.62253 0
M  V30 6342 H 610.037 1.79362 -2.56024 0
M  V30 6343 H 609.257 -0.27923 -3.9321 0
M  V30 6344 H 610.545 0.107379 -5.08687 0
M  V30 6345 H 609.943 3.2551 -4.62666 0
M  V30 6346 H 608.5 3.42966 -5.54272 0
M  V30 6347 N 611.933 1.52934 -0.380664 0
M  V30 6348 C 613.161 2.05886 0.204599 0
M  V30 6349 C 613.576 1.25305 1.41223 0
M  V30 6350 O 612.933 0.297504 1.80059 0
M  V30 6351 C 612.984 3.56764 0.583249 0
M  V30 6352 O 612.705 4.34292 -0.576398 0
M  V30 6353 C 614.206 4.2603 1.2253 0
M  V30 6354 H 611.426 0.670193 0.0328991 0
M  V30 6355 H 613.97 1.97148 -0.543397 0
M  V30 6356 H 612.125 3.65603 1.28115 0
M  V30 6357 H 612.539 5.23819 -0.267119 0
M  V30 6358 H 614.013 5.32868 1.44068 0
M  V30 6359 H 614.49 3.80698 2.19011 0
M  V30 6360 H 615.096 4.21485 0.568407 0
M  V30 6361 N 613.412 0.11024 1.57214 0
M  V30 6362 C 614.823 -0.416527 1.81994 0
M  V30 6363 C 615.174 -1.67183 1.02686 0
M  V30 6364 O 614.299 -2.14823 0.260782 0
M  V30 6365 C 614.894 -0.762466 3.30109 0
M  V30 6366 C 613.453 -1.23391 3.556 0
M  V30 6367 C 612.6 -0.238166 2.76275 0
M  V30 6368 H 615.551 0.335491 1.55113 0
M  V30 6369 H 615.572 -1.62068 3.44259 0
M  V30 6370 H 615.084 0.151346 3.87805 0
M  V30 6371 H 613.185 -2.16492 3.03253 0
M  V30 6372 H 613.298 -1.18528 4.64207 0
M  V30 6373 H 611.662 -0.723421 2.4421 0
M  V30 6374 H 612.445 0.668591 3.36727 0
M  V30 6375 N 614.89 -1.56749 -0.16351 0
M  V30 6376 C 615.84 -1.93424 -1.20712 0
M  V30 6377 C 616.824 -0.803469 -1.39403 0
M  V30 6378 O 618.016 -1.06675 -1.41243 0
M  V30 6379 C 615.145 -2.30431 -2.54473 0
M  V30 6380 C 614.231 -3.5004 -2.39443 0
M  V30 6381 N 614.622 -4.67058 -1.9414 0
M  V30 6382 C 612.92 -3.548 -2.70246 0
M  V30 6383 C 613.621 -5.49184 -1.9176 0
M  V30 6384 N 612.597 -4.9044 -2.34457 0
M  V30 6385 H 616.399 -2.8138 -0.848681 0
M  V30 6386 H 613.913 -1.58089 -0.371717 0
M  V30 6387 H 615.91 -2.54903 -3.29894 0
M  V30 6388 H 614.57 -1.43818 -2.91112 0
M  V30 6389 H 615.581 -4.91128 -1.64357 0
M  V30 6390 H 612.258 -2.78685 -3.10871 0
M  V30 6391 H 613.648 -6.5297 -1.58366 0
M  V30 6392 N 616.368 0.432326 -1.51554 0
M  V30 6393 C 617.779 1.01202 -1.56892 0
M  V30 6394 C 618.13 1.92175 -0.395394 0
M  V30 6395 O 617.255 2.10844 0.487198 0
M  V30 6396 C 617.85 1.84217 -2.8434 0
M  V30 6397 C 616.409 2.37228 -2.92233 0
M  V30 6398 C 615.556 1.16576 -2.51606 0
M  V30 6399 H 618.507 0.213407 -1.57259 0
M  V30 6400 H 618.528 2.69721 -2.68385 0
M  V30 6401 H 618.04 1.17979 -3.69733 0
M  V30 6402 H 616.141 3.06905 -2.11282 0
M  V30 6403 H 616.254 2.69682 -3.95991 0
M  V30 6404 H 614.618 1.51263 -2.04919 0
M  V30 6405 H 615.401 0.519404 -3.39348 0
M  V30 6406 N 617.846 1.41785 0.688094 0
M  V30 6407 C 619.094 1.41264 1.4453 0
M  V30 6408 C 619.415 0.0252946 1.94984 0
M  V30 6409 O 618.685 -0.934081 1.72197 0
M  V30 6410 H 617.265 0.519998 0.536294 0
M  V30 6411 H 619.927 1.7709 0.813941 0
M  V30 6412 H 619.023 2.10439 2.30482 0
M  V30 6413 N 619.324 -0.923095 1.27737 0
M  V30 6414 C 620.74 -1.19985 1.05241 0
M  V30 6415 C 620.94 -2.00391 -0.21113 0
M  V30 6416 O 619.996 -2.35324 -0.915366 0
M  V30 6417 C 621.309 -1.94352 2.29451 0
M  V30 6418 C 622.857 -2.07273 2.34536 0
M  V30 6419 C 623.332 -2.85046 3.58487 0
M  V30 6420 N 624.823 -2.92612 3.59072 0
M  V30 6421 C 625.558 -3.53266 4.51654 0
M  V30 6422 N 625.054 -4.15274 5.54545 0
M  V30 6423 N 626.847 -3.50714 4.39268 0
M  V30 6424 H 618.998 -0.386042 2.08862 0
M  V30 6425 H 621.261 -0.233407 0.918817 0
M  V30 6426 H 620.967 -1.42692 3.21453 0
M  V30 6427 H 620.841 -2.94947 2.3513 0
M  V30 6428 H 623.228 -2.58117 1.43037 0
M  V30 6429 H 623.309 -1.05884 2.32857 0
M  V30 6430 H 622.953 -2.34884 4.50324 0
M  V30 6431 H 622.883 -3.8673 3.57418 0
M  V30 6432 H 625.374 -2.48547 2.84663 0
M  V30 6433 H 625.687 -4.59507 6.21348 0
M  V30 6434 H 624.032 -4.13806 5.58382 0
M  V30 6435 H 627.223 -3.01475 3.58093 0
M  V30 6436 H 627.396 -3.97693 5.1161 0
M  V30 6437 N 620.802 -1.09834 -1.13024 0
M  V30 6438 C 622.05 -0.835297 -1.8403 0
M  V30 6439 C 622.371 0.640944 -1.84165 0
M  V30 6440 O 621.641 1.46517 -1.30037 0
M  V30 6441 H 620.221 -0.306018 -0.681441 0
M  V30 6442 H 622.883 -1.38734 -1.36891 0
M  V30 6443 H 621.979 -1.19258 -2.88416 0
M  V30 6444 N 622.28 1.30327 -0.886154 0
M  V30 6445 C 623.243 2.26376 -0.358687 0
M  V30 6446 C 624.243 1.52845 0.499498 0
M  V30 6447 O 625.433 1.71483 0.306485 0
M  V30 6448 C 622.565 3.37379 0.488726 0
M  V30 6449 H 623.758 2.74547 -1.20681 0
M  V30 6450 H 621.311 1.41536 -0.663113 0
M  V30 6451 H 622.046 2.94526 1.35739 0
M  V30 6452 H 621.831 3.91897 -0.126003 0
M  V30 6453 H 623.321 4.08868 0.84952 0
M  V30 6454 N 623.758 0.647228 1.43697 0
M  V30 6455 C 624.706 -0.0600105 2.32523 0
M  V30 6456 C 625.7 -0.819277 1.48271 0
M  V30 6457 O 626.906 -0.730356 1.64517 0
M  V30 6458 H 623.281 -0.0381872 0.75103 0
M  V30 6459 H 625.252 0.706978 2.89904 0
M  V30 6460 C 624.001 -1.0169 3.32497 0
M  V30 6461 H 623.324 -0.442083 3.97348 0
M  V30 6462 H 624.764 -1.48095 3.97296 0
M  V30 6463 C 623.223 -2.11002 2.6264 0
M  V30 6464 O 623.753 -3.19302 2.4374 0
M  V30 6465 N 621.959 -1.87388 2.22113 0
M  V30 6466 H 621.506 -0.993174 2.37684 0
M  V30 6467 H 621.464 -2.60723 1.75701 0
M  V30 6468 N 625.236 -1.5273 0.388769 0
M  V30 6469 C 626.483 -2.01573 -0.19359 0
M  V30 6470 C 626.811 -1.27525 -1.46859 0
M  V30 6471 O 626.066 -0.363926 -1.92286 0
M  V30 6472 C 626.365 -3.53765 -0.508445 0
M  V30 6473 C 626.031 -4.4582 0.674947 0
M  V30 6474 C 624.693 -4.70703 0.999596 0
M  V30 6475 C 627.045 -5.00138 1.46666 0
M  V30 6476 C 624.373 -5.47155 2.11751 0
M  V30 6477 C 626.725 -5.77812 2.57518 0
M  V30 6478 C 625.389 -6.00975 2.90492 0
M  V30 6479 H 624.659 -0.737606 -0.0708397 0
M  V30 6480 H 627.306 -1.84134 0.526006 0
M  V30 6481 H 625.611 -3.69274 -1.30936 0
M  V30 6482 H 627.308 -3.8905 -0.971664 0
M  V30 6483 H 623.898 -4.26616 0.411906 0
M  V30 6484 H 628.082 -4.8084 1.22909 0
M  V30 6485 H 623.338 -5.63314 2.3767 0
M  V30 6486 H 627.512 -6.18904 3.19267 0
M  V30 6487 H 625.139 -6.59998 3.77236 0
M  V30 6488 N 626.714 -0.118576 -1.57153 0
M  V30 6489 C 627.96 0.540326 -1.95469 0
M  V30 6490 C 628.293 1.66356 -1.00196 0
M  V30 6491 O 627.568 1.94461 -0.039104 0
M  V30 6492 C 627.851 1.07342 -3.43729 0
M  V30 6493 C 627.704 -0.0463732 -4.49776 0
M  V30 6494 C 629.023 1.96442 -3.93826 0
M  V30 6495 H 626.142 0.19494 -0.710751 0
M  V30 6496 H 628.784 -0.19405 -1.89006 0
M  V30 6497 H 626.934 1.69925 -3.49368 0
M  V30 6498 H 628.606 -0.681648 -4.56236 0
M  V30 6499 H 626.849 -0.709574 -4.27957 0
M  V30 6500 H 627.52 0.367856 -5.50773 0
M  V30 6501 H 629.996 1.43731 -3.90488 0
M  V30 6502 H 628.872 2.3066 -4.98084 0
M  V30 6503 H 629.133 2.89077 -3.34495 0
M  V30 6504 N 628.193 1.56834 0.155195 0
M  V30 6505 C 629.143 1.94061 1.19684 0
M  V30 6506 C 630.127 0.810851 1.38975 0
M  V30 6507 O 631.319 1.07422 1.40675 0
M  V30 6508 C 628.448 2.31778 2.53247 0
M  V30 6509 C 627.534 3.51305 2.37583 0
M  V30 6510 N 627.925 4.68081 1.9166 0
M  V30 6511 C 626.223 3.56228 2.6836 0
M  V30 6512 C 626.924 5.50193 1.88845 0
M  V30 6513 N 625.9 4.91676 2.31852 0
M  V30 6514 H 629.702 2.81826 0.833747 0
M  V30 6515 H 627.216 1.58284 0.363328 0
M  V30 6516 H 629.213 2.56649 3.28538 0
M  V30 6517 H 627.873 1.4536 2.90346 0
M  V30 6518 H 628.884 4.91993 1.6175 0
M  V30 6519 H 625.561 2.8033 3.09389 0
M  V30 6520 H 626.951 6.53801 1.54901 0
M  V30 6521 N 629.671 -0.424282 1.51781 0
M  V30 6522 C 631.082 -1.00368 1.57427 0
M  V30 6523 C 631.433 -1.91962 0.40558 0
M  V30 6524 O 630.558 -2.111 -0.47601 0
M  V30 6525 C 631.153 -1.82707 2.85313 0
M  V30 6526 C 629.712 -2.35675 2.93487 0
M  V30 6527 C 628.859 -1.1524 2.5222 0
M  V30 6528 H 631.81 -0.205064 1.5737 0
M  V30 6529 H 631.831 -2.68294 2.69812 0
M  V30 6530 H 631.343 -1.16017 3.70353 0
M  V30 6531 H 629.444 -3.05781 2.12906 0
M  V30 6532 H 629.557 -2.67578 3.97415 0
M  V30 6533 H 627.921 -1.50174 2.05718 0
M  V30 6534 H 628.704 -0.5014 3.39619 0
M  V30 6535 N 631.149 -1.42148 -0.680565 0
M  V30 6536 C 632.377 -1.45696 -1.46902 0
M  V30 6537 C 632.792 -0.0665858 -1.88683 0
M  V30 6538 O 632.149 0.917436 -1.57764 0
M  V30 6539 C 632.2 -2.37898 -2.72188 0
M  V30 6540 O 631.921 -3.71526 -2.32163 0
M  V30 6541 C 633.422 -2.50407 -3.65802 0
M  V30 6542 H 630.642 -0.495729 -0.45221 0
M  V30 6543 H 633.186 -1.866 -0.836709 0
M  V30 6544 H 631.341 -2.00263 -3.31622 0
M  V30 6545 H 631.755 -4.20849 -3.13027 0
M  V30 6546 H 633.229 -3.19056 -4.50452 0
M  V30 6547 H 633.706 -1.5401 -4.11312 0
M  V30 6548 H 634.312 -2.8874 -3.12265 0
M  V30 6549 N 632.627 0.916307 -1.28225 0
M  V30 6550 C 633.874 1.66518 -1.1523 0
M  V30 6551 C 634.202 1.92178 0.299632 0
M  V30 6552 O 633.457 1.51842 1.2346 0
M  V30 6553 C 633.756 3.03125 -1.8934 0
M  V30 6554 C 633.422 2.97135 -3.39148 0
M  V30 6555 C 632.084 2.95208 -3.80007 0
M  V30 6556 C 634.436 2.87574 -4.34685 0
M  V30 6557 C 631.764 2.81518 -5.14747 0
M  V30 6558 C 634.116 2.75424 -5.69495 0
M  V30 6559 C 632.78 2.71854 -6.09632 0
M  V30 6560 H 632.05 0.609334 -0.421655 0
M  V30 6561 H 634.697 1.06776 -1.58969 0
M  V30 6562 H 633.002 3.66639 -1.38143 0
M  V30 6563 H 634.699 3.59968 -1.76704 0
M  V30 6564 H 631.289 2.99428 -3.06661 0
M  V30 6565 H 635.473 2.88152 -4.04082 0
M  V30 6566 H 630.729 2.77148 -5.44976 0
M  V30 6567 H 634.903 2.66993 -6.43185 0
M  V30 6568 H 632.53 2.61003 -7.1399 0
M  V30 6569 N 634.105 1.10431 1.1244 0
M  V30 6570 C 635.353 0.845045 1.83585 0
M  V30 6571 C 635.674 -0.631168 1.84503 0
M  V30 6572 O 634.944 -1.45825 1.30813 0
M  V30 6573 H 633.524 0.309628 0.679809 0
M  V30 6574 H 636.186 1.39458 1.36153 0
M  V30 6575 H 635.282 1.20786 2.8778 0
M  V30 6576 N 635.583 -1.29855 0.893053 0
M  V30 6577 C 636.994 -1.77946 0.564998 0
M  V30 6578 C 637.345 -1.73339 -0.919134 0
M  V30 6579 O 636.47 -1.3152 -1.71847 0
M  V30 6580 C 637.065 -3.23118 1.01883 0
M  V30 6581 C 635.624 -3.69013 0.742051 0
M  V30 6582 C 634.771 -2.50121 1.19727 0
M  V30 6583 H 637.722 -1.16611 1.07646 0
M  V30 6584 H 637.743 -3.78875 0.351249 0
M  V30 6585 H 637.255 -3.26439 2.09903 0
M  V30 6586 H 635.356 -3.71173 -0.325816 0
M  V30 6587 H 635.469 -4.60117 1.33527 0
M  V30 6588 H 633.833 -2.47128 0.616418 0
M  V30 6589 H 634.616 -2.56174 2.28538 0
M  V30 6590 N 637.061 -0.65484 -1.43351 0
M  V30 6591 C 638.307 -0.169142 -2.02093 0
M  V30 6592 C 638.64 1.21431 -1.51553 0
M  V30 6593 O 637.915 1.81105 -0.709317 0
M  V30 6594 C 638.198 -0.181775 -3.59641 0
M  V30 6595 C 638.051 -1.59926 -4.20409 0
M  V30 6596 C 639.37 0.480945 -4.37464 0
M  V30 6597 H 636.489 -0.0629371 -0.734308 0
M  V30 6598 H 639.131 -0.835833 -1.70628 0
M  V30 6599 H 637.281 0.385918 -3.86578 0
M  V30 6600 H 638.953 -2.21766 -4.04497 0
M  V30 6601 H 637.196 -2.14605 -3.76998 0
M  V30 6602 H 637.867 -1.55994 -5.295 0
M  V30 6603 H 640.343 -0.00208273 -4.161 0
M  V30 6604 H 639.219 0.441384 -5.47122 0
M  V30 6605 H 639.48 1.55533 -4.13838 0
M  V30 6606 N 638.539 1.52521 -0.396863 0
M  V30 6607 C 639.785 2.02641 0.175606 0
M  V30 6608 C 640.14 1.27782 1.43839 0
M  V30 6609 O 639.433 0.371921 1.87956 0
M  V30 6610 C 639.627 3.5403 0.489677 0
M  V30 6611 C 639.456 4.43551 -0.741113 0
M  V30 6612 C 638.226 4.8927 -1.26265 0
M  V30 6613 C 640.424 4.88263 -1.61565 0
M  V30 6614 N 638.406 5.62884 -2.4502 0
M  V30 6615 C 639.777 5.60534 -2.64955 0
M  V30 6616 C 641.832 4.70294 -1.63486 0
M  V30 6617 C 640.535 6.16744 -3.70162 0
M  V30 6618 C 642.561 5.27392 -2.67603 0
M  V30 6619 C 641.923 5.99575 -3.69715 0
M  V30 6620 H 638.022 0.781563 0.0261477 0
M  V30 6621 H 640.606 1.86816 -0.548454 0
M  V30 6622 H 638.777 3.69952 1.18279 0
M  V30 6623 H 640.509 3.90843 1.04996 0
M  V30 6624 H 637.264 4.66403 -0.822509 0
M  V30 6625 H 637.688 6.04339 -3.05128 0
M  V30 6626 H 642.33 4.13985 -0.858848 0
M  V30 6627 H 640.048 6.72131 -4.48626 0
M  V30 6628 H 643.634 5.15365 -2.69982 0
M  V30 6629 H 642.514 6.42967 -4.48958 0
M  V30 6630 N 640.017 0.126909 1.57088 0
M  V30 6631 C 640.98 -0.806097 2.14557 0
M  V30 6632 C 641.98 -1.18918 1.08236 0
M  V30 6633 O 643.17 -1.11339 1.33975 0
M  V30 6634 C 640.302 -2.09116 2.69227 0
M  V30 6635 H 641.495 -0.306522 2.98329 0
M  V30 6636 H 639.048 -0.122393 1.5582 0
M  V30 6637 H 639.783 -2.63486 1.89065 0
M  V30 6638 H 639.568 -1.82588 3.46993 0
M  V30 6639 H 641.058 -2.75794 3.13572 0
M  V30 6640 N 641.495 -1.56914 -0.146875 0
M  V30 6641 C 642.723 -1.87515 -0.874394 0
M  V30 6642 C 643.138 -0.715116 -1.74733 0
M  V30 6643 O 642.495 0.315113 -1.79759 0
M  V30 6644 C 642.546 -3.17362 -1.731 0
M  V30 6645 O 642.267 -4.28897 -0.893245 0
M  V30 6646 C 643.768 -3.61479 -2.56609 0
M  V30 6647 H 640.988 -0.621546 -0.252827 0
M  V30 6648 H 643.532 -2.04023 -0.139627 0
M  V30 6649 H 641.687 -3.02608 -2.41883 0
M  V30 6650 H 642.101 -5.03146 -1.48137 0
M  V30 6651 H 643.575 -4.5517 -3.12289 0
M  V30 6652 H 644.052 -2.86773 -3.32653 0
M  V30 6653 H 644.658 -3.78927 -1.93117 0
M  V30 6654 N 642.974 0.416227 -1.52004 0
M  V30 6655 C 644.199 1.19029 -1.69843 0
M  V30 6656 C 644.624 1.83708 -0.404103 0
M  V30 6657 O 643.982 1.69711 0.637787 0
M  V30 6658 C 644.03 2.23439 -2.83032 0
M  V30 6659 O 643.134 3.29419 -2.48106 0
M  V30 6660 H 642.475 0.347785 -0.565634 0
M  V30 6661 H 645.005 0.488871 -1.98674 0
M  V30 6662 H 645.015 2.67884 -3.07737 0
M  V30 6663 H 643.69 1.75745 -3.76944 0
M  V30 6664 H 642.267 2.90303 -2.34048 0
M  V30 6665 N 644.452 1.42507 0.673017 0
M  V30 6666 C 645.402 1.4258 1.77919 0
M  V30 6667 C 646.386 0.296885 1.58137 0
M  V30 6668 O 647.578 0.539243 1.68586 0
M  V30 6669 C 644.707 1.33238 3.1639 0
M  V30 6670 C 643.793 2.51081 3.41788 0
M  V30 6671 N 644.184 3.76498 3.37761 0
M  V30 6672 C 642.482 2.4538 3.72431 0
M  V30 6673 C 643.183 4.54784 3.62693 0
M  V30 6674 N 642.159 3.8522 3.83544 0
M  V30 6675 H 645.961 2.37442 1.73201 0
M  V30 6676 H 643.475 1.36881 0.873924 0
M  V30 6677 H 645.472 1.31372 3.9566 0
M  V30 6678 H 644.132 0.393794 3.22303 0
M  V30 6679 H 645.143 4.09068 3.17622 0
M  V30 6680 H 641.82 1.60109 3.85579 0
M  V30 6681 H 643.21 5.63774 3.65525 0
M  V30 6682 N 645.93 -0.909495 1.28709 0
M  V30 6683 C 646.863 -2.01388 1.07323 0
M  V30 6684 C 647.841 -1.62596 -0.0119757 0
M  V30 6685 O 649.025 -1.88003 0.136796 0
M  V30 6686 C 646.152 -3.32755 0.631797 0
M  V30 6687 C 645.198 -3.90532 1.71428 0
M  V30 6688 S 646.031 -4.20853 3.31124 0
M  V30 6689 C 647.187 -5.55276 2.88825 0
M  V30 6690 H 647.42 -2.19219 2.00824 0
M  V30 6691 H 644.953 -1.05489 1.12745 0
M  V30 6692 H 646.911 -4.08702 0.38381 0
M  V30 6693 H 645.572 -3.12818 -0.283451 0
M  V30 6694 H 644.765 -4.85385 1.35712 0
M  V30 6695 H 644.367 -3.21237 1.91528 0
M  V30 6696 H 646.659 -6.35341 2.3526 0
M  V30 6697 H 647.602 -5.95907 3.82492 0
M  V30 6698 H 648.01 -5.16666 2.27412 0
M  V30 6699 N 647.408 -1.11026 -1.11852 0
M  V30 6700 C 648.656 -0.854769 -1.83134 0
M  V30 6701 C 648.977 0.621375 -1.84835 0
M  V30 6702 O 648.247 1.45129 -1.31584 0
M  V30 6703 H 646.827 -0.313229 -0.678157 0
M  V30 6704 H 649.489 -1.40178 -1.35411 0
M  V30 6705 H 648.585 -1.22311 -2.87135 0
M  V30 6706 N 648.886 1.2938 -0.899927 0
M  V30 6707 C 650.163 1.9046 -0.445443 0
M  V30 6708 C 650.543 1.81683 1.07492 0
M  V30 6709 O 649.891 1.24371 1.91688 0
M  V30 6710 C 650.101 3.35529 -0.960279 0
M  V30 6711 C 651.449 4.12556 -1.00412 0
M  V30 6712 O 652.473 3.44434 -0.907965 0
M  V30 6713 O 651.332 5.34294 -1.14857 0
M  V30 6714 H 648.426 0.815253 -0.138893 0
M  V30 6715 H 650.972 1.37844 -0.989808 0
M  V30 6716 H 649.744 3.36074 -2.00425 0
M  V30 6717 H 649.367 3.95624 -0.395939 0
M  V30 6718 N 650.364 0.662433 1.43002 0
M  V30 6719 C 651.641 0.109096 1.95296 0
M  V30 6720 C 652.021 -1.37313 1.60338 0
M  V30 6721 O 651.369 -2.1032 0.893187 0
M  V30 6722 C 651.579 0.365096 3.47085 0
M  V30 6723 C 652.927 0.274964 4.23709 0
M  V30 6724 O 653.951 0.29816 3.5495 0
M  V30 6725 O 652.81 0.206549 5.4611 0
M  V30 6726 H 649.904 -0.00429724 0.826989 0
M  V30 6727 H 652.45 0.736308 1.52894 0
M  V30 6728 H 651.222 1.39237 3.65689 0
M  V30 6729 H 650.845 -0.294733 3.96506 0
M  V30 6730 N 651.842 -1.52309 0.404946 0
M  V30 6731 C 653.067 -2.06666 -0.1743 0
M  V30 6732 C 653.492 -1.27341 -1.38441 0
M  V30 6733 O 652.85 -0.302539 -1.78758 0
M  V30 6734 C 652.898 -3.57014 -0.507262 0
M  V30 6735 O 652.002 -3.80144 -1.59889 0
M  V30 6736 H 651.343 -0.663807 -0.0160273 0
M  V30 6737 H 653.873 -1.96297 0.576937 0
M  V30 6738 H 653.883 -4.00724 -0.767098 0
M  V30 6739 H 652.558 -4.14184 0.377368 0
M  V30 6740 H 651.135 -3.48316 -1.33155 0
M  V30 6741 N 653.32 -0.135238 -1.57019 0
M  V30 6742 C 654.566 0.519563 -1.96032 0
M  V30 6743 C 654.899 1.65284 -1.01955 0
M  V30 6744 O 654.174 1.94408 -0.059727 0
M  V30 6745 C 654.457 1.0369 -3.44848 0
M  V30 6746 C 654.31 -0.0940754 -4.49702 0
M  V30 6747 C 655.629 1.92254 -3.95887 0
M  V30 6748 H 652.748 0.18739 -0.712779 0
M  V30 6749 H 655.39 -0.214086 -1.8879 0
M  V30 6750 H 653.54 1.66209 -3.5115 0
M  V30 6751 H 655.212 -0.73 -4.55487 0
M  V30 6752 H 653.455 -0.754924 -4.27181 0
M  V30 6753 H 654.126 0.309419 -5.51132 0
M  V30 6754 H 656.602 1.39581 -3.9199 0
M  V30 6755 H 655.478 2.25364 -5.00502 0
M  V30 6756 H 655.739 2.85513 -3.37543 0
M  V30 6757 N 654.798 1.5699 0.138552 0
M  V30 6758 C 655.761 1.97984 1.15478 0
M  V30 6759 C 656.761 0.867416 1.35398 0
M  V30 6760 O 657.951 1.13387 1.32246 0
M  V30 6761 C 655.083 2.3031 2.51337 0
M  V30 6762 H 656.276 2.88953 0.802896 0
M  V30 6763 H 653.829 1.51555 0.382189 0
M  V30 6764 H 654.564 1.42159 2.91481 0
M  V30 6765 H 654.349 3.11425 2.38237 0
M  V30 6766 H 655.839 2.62834 3.24512 0
M  V30 6767 N 656.276 -0.40816 1.52223 0
M  V30 6768 C 657.206 -1.5042 1.78595 0
M  V30 6769 C 658.187 -1.57723 0.636974 0
M  V30 6770 O 659.372 -1.72982 0.882664 0
M  V30 6771 C 656.502 -2.88232 1.93751 0
M  V30 6772 C 655.456 -2.95779 3.09352 0
M  V30 6773 C 654.782 -4.35855 3.09732 0
M  V30 6774 C 656.082 -2.67175 4.48793 0
M  V30 6775 H 657.776 -1.28601 2.70374 0
M  V30 6776 H 655.322 -0.617221 1.30101 0
M  V30 6777 H 657.275 -3.64895 2.10783 0
M  V30 6778 H 655.999 -3.11347 0.986443 0
M  V30 6779 H 654.658 -2.21561 2.92072 0
M  V30 6780 H 654.306 -4.55981 2.12346 0
M  V30 6781 H 654.006 -4.41829 3.87377 0
M  V30 6782 H 655.53 -5.14451 3.28895 0
M  V30 6783 H 656.944 -3.3356 4.66273 0
M  V30 6784 H 655.341 -2.84523 5.28362 0
M  V30 6785 H 656.411 -1.62609 4.56822 0
M  V30 6786 N 657.755 -1.42862 -0.66545 0
M  V30 6787 C 659.004 -1.43119 -1.42126 0
M  V30 6788 C 659.317 -0.0545297 -1.95524 0
M  V30 6789 O 660.523 0.0654747 -2.71421 0
M  V30 6790 C 658.979 -2.51797 -2.5715 0
M  V30 6791 C 658.587 -3.95514 -2.10411 0
M  V30 6792 C 660.331 -2.61233 -3.346 0
M  V30 6793 C 658.238 -4.95682 -3.22573 0
M  V30 6794 H 657.168 -0.532349 -0.533966 0
M  V30 6795 H 659.819 -1.68806 -0.719506 0
M  V30 6796 H 658.201 -2.19292 -3.29738 0
M  V30 6797 H 659.375 -4.3742 -1.44915 0
M  V30 6798 H 657.69 -3.90012 -1.45874 0
M  V30 6799 H 660.287 -3.33248 -4.18151 0
M  V30 6800 H 660.63 -1.65896 -3.81817 0
M  V30 6801 H 661.163 -2.9298 -2.69087 0
M  V30 6802 H 657.902 -5.92529 -2.80338 0
M  V30 6803 H 657.422 -4.58399 -3.86821 0
M  V30 6804 H 659.101 -5.17828 -3.87896 0
M  V30 6805 N 659.233 0.902656 -1.29189 0
M  V30 6806 C 660.481 1.6496 -1.16758 0
M  V30 6807 C 660.802 1.92952 0.28188 0
M  V30 6808 O 660.072 1.55351 1.19344 0
M  V30 6809 H 658.652 0.611447 -0.429118 0
M  V30 6810 H 661.314 1.0825 -1.62074 0
M  V30 6811 H 660.41 2.60728 -1.71544 0
M  V30 6812 N 660.711 1.11618 1.11262 0
M  V30 6813 C 661.939 0.888739 1.8684 0
M  V30 6814 C 662.354 -0.561558 1.80255 0
M  V30 6815 O 661.711 -1.38782 1.18515 0
M  V30 6816 C 661.762 1.34422 3.35579 0
M  V30 6817 O 661.483 2.73766 3.42029 0
M  V30 6818 C 662.984 1.15246 4.28058 0
M  V30 6819 H 660.204 0.318152 0.590779 0
M  V30 6820 H 662.748 1.48398 1.40707 0
M  V30 6821 H 660.903 0.79239 3.7921 0
M  V30 6822 H 661.317 2.9355 4.34659 0
M  V30 6823 H 662.791 1.52015 5.30656 0
M  V30 6824 H 663.268 0.0922007 4.39103 0
M  V30 6825 H 663.874 1.69136 3.90222 0
M  V30 6826 N 662.189 -1.289 0.906776 0
M  V30 6827 C 663.466 -1.90221 0.455537 0
M  V30 6828 C 663.846 -1.82251 -1.06527 0
M  V30 6829 O 663.194 -1.25385 -1.91026 0
M  V30 6830 C 663.404 -3.35015 0.97806 0
M  V30 6831 C 664.752 -4.12018 1.02598 0
M  V30 6832 O 665.776 -3.43947 0.926218 0
M  V30 6833 O 664.635 -5.33677 1.17689 0
M  V30 6834 H 661.729 -0.814505 0.143214 0
M  V30 6835 H 664.275 -1.37317 0.997104 0
M  V30 6836 H 663.047 -3.35006 2.02204 0
M  V30 6837 H 662.67 -3.95408 0.416914 0
M  V30 6838 N 663.667 -0.670007 -1.42649 0
M  V30 6839 C 665.078 -0.268118 -1.84765 0
M  V30 6840 C 665.429 1.18877 -1.56086 0
M  V30 6841 O 664.554 1.90947 -1.01825 0
M  V30 6842 C 665.149 -0.47984 -3.35385 0
M  V30 6843 C 663.708 -0.132116 -3.76168 0
M  V30 6844 C 662.855 -0.774611 -2.66261 0
M  V30 6845 H 665.806 -0.872509 -1.32563 0
M  V30 6846 H 665.827 0.269522 -3.79544 0
M  V30 6847 H 665.339 -1.54026 -3.56227 0
M  V30 6848 H 663.44 0.92505 -3.60934 0
M  V30 6849 H 663.553 -0.569294 -4.75706 0
M  V30 6850 H 661.917 -0.206353 -2.53863 0
M  V30 6851 H 662.7 -1.83839 -2.89928 0
M  V30 6852 N 665.145 1.52092 -0.413018 0
M  V30 6853 C 666.055 2.30858 0.417318 0
M  V30 6854 C 667.071 1.38746 1.05003 0
M  V30 6855 O 668.247 1.71821 1.05069 0
M  V30 6856 C 665.312 3.11756 1.51687 0
M  V30 6857 C 664.373 4.19613 0.906825 0
M  V30 6858 C 663.606 4.96644 1.95399 0
M  V30 6859 O 663.829 4.7402 3.17271 0
M  V30 6860 O 662.763 5.81385 1.55805 0
M  V30 6861 H 666.589 3.02865 -0.225028 0
M  V30 6862 H 664.174 1.48358 -0.176126 0
M  V30 6863 H 666.056 3.62122 2.15512 0
M  V30 6864 H 664.731 2.42539 2.14375 0
M  V30 6865 H 663.638 3.73385 0.231183 0
M  V30 6866 H 664.971 4.91134 0.323814 0
M  V30 6867 N 666.623 0.143563 1.56945 0
M  V30 6868 C 667.871 -0.507402 1.95627 0
M  V30 6869 C 668.192 -1.65626 1.02922 0
M  V30 6870 O 667.462 -1.95693 0.0901136 0
M  V30 6871 H 666.042 -0.190436 0.722318 0
M  V30 6872 H 668.704 0.218257 1.93674 0
M  V30 6873 H 667.8 -0.885816 2.99265 0
M  V30 6874 N 668.101 -1.57061 -0.130224 0
M  V30 6875 C 669.051 -1.95941 -1.16582 0
M  V30 6876 C 670.035 -0.832858 -1.37667 0
M  V30 6877 O 671.227 -1.09647 -1.38948 0
M  V30 6878 C 668.356 -2.35777 -2.49528 0
M  V30 6879 C 667.442 -3.5504 -2.31964 0
M  V30 6880 N 667.833 -4.71071 -1.84189 0
M  V30 6881 C 666.131 -3.60453 -2.62659 0
M  V30 6882 C 666.832 -5.53128 -1.80068 0
M  V30 6883 N 665.808 -4.95303 -2.24001 0
M  V30 6884 H 669.61 -2.83117 -0.788806 0
M  V30 6885 H 667.124 -1.58842 -0.3381 0
M  V30 6886 H 669.121 -2.61843 -3.24413 0
M  V30 6887 H 667.781 -1.49961 -2.87996 0
M  V30 6888 H 668.792 -4.94504 -1.53903 0
M  V30 6889 H 665.469 -2.85217 -3.0489 0
M  V30 6890 H 666.859 -6.56182 -1.4448 0
M  V30 6891 N 669.579 0.400081 -1.52437 0
M  V30 6892 C 670.99 0.97851 -1.59003 0
M  V30 6893 C 671.341 1.91293 -0.436068 0
M  V30 6894 O 670.466 2.1183 0.442365 0
M  V30 6895 C 671.061 1.78145 -2.88184 0
M  V30 6896 C 669.62 2.30976 -2.97199 0
M  V30 6897 C 668.767 1.11212 -2.54022 0
M  V30 6898 H 671.718 0.180002 -1.57676 0
M  V30 6899 H 671.739 2.63968 -2.74046 0
M  V30 6900 H 671.251 1.1011 -3.72152 0
M  V30 6901 H 669.352 3.02355 -2.17744 0
M  V30 6902 H 669.465 2.61221 -4.01622 0
M  V30 6903 H 667.829 1.46882 -2.08081 0
M  V30 6904 H 668.612 0.447307 -3.40373 0
M  V30 6905 N 671.057 1.43213 0.657864 0
M  V30 6906 C 672.334 1.35063 1.41483 0
M  V30 6907 C 672.714 -0.0038314 2.111 0
M  V30 6908 O 672.062 -1.02018 2.04462 0
M  V30 6909 C 672.272 2.53061 2.40335 0
M  V30 6910 C 673.62 2.9594 3.04474 0
M  V30 6911 O 674.644 2.53074 2.50663 0
M  V30 6912 O 673.503 3.70184 4.02027 0
M  V30 6913 H 670.597 0.533517 0.631893 0
M  V30 6914 H 673.143 1.55253 0.685162 0
M  V30 6915 H 671.915 3.43283 1.87809 0
M  V30 6916 H 671.538 2.34945 3.20759 0
M  V30 6917 N 672.536 -0.895792 1.29666 0
M  V30 6918 C 673.484 -2.02173 1.15017 0
M  V30 6919 C 674.478 -1.69276 0.0647651 0
M  V30 6920 O 675.684 -1.7859 0.224846 0
M  V30 6921 H 672.059 -0.662719 0.355397 0
M  V30 6922 H 674.03 -2.11666 2.10334 0
M  V30 6923 C 672.779 -3.37212 0.847555 0
M  V30 6924 H 672.102 -3.6303 1.67479 0
M  V30 6925 H 673.542 -4.16668 0.785106 0
M  V30 6926 C 672.001 -3.33891 -0.44929 0
M  V30 6927 O 672.531 -3.73673 -1.47415 0
M  V30 6928 N 670.737 -2.86991 -0.456547 0
M  V30 6929 H 670.284 -2.54813 0.377925 0
M  V30 6930 H 670.242 -2.85152 -1.32423 0
M  V30 6931 N 674.014 -1.12206 -1.10668 0
M  V30 6932 C 674.977 -0.790867 -2.15123 0
M  V30 6933 C 675.977 0.193618 -1.5963 0
M  V30 6934 O 677.167 -0.0318728 -1.74171 0
M  V30 6935 C 674.299 -0.174797 -3.40452 0
M  V30 6936 H 675.492 -1.7163 -2.45933 0
M  V30 6937 H 673.045 -0.924993 -1.2599 0
M  V30 6938 H 673.78 0.760478 -3.15257 0
M  V30 6939 H 673.565 -0.88358 -3.82015 0
M  V30 6940 H 675.055 0.0405162 -4.1758 0
M  V30 6941 N 675.492 1.28418 -0.913599 0
M  V30 6942 C 676.738 1.95627 -0.556933 0
M  V30 6943 C 677.093 1.706 0.889565 0
M  V30 6944 O 676.386 1.01637 1.6242 0
M  V30 6945 C 676.58 3.48283 -0.802099 0
M  V30 6946 C 676.409 3.88151 -2.27088 0
M  V30 6947 C 675.179 4.1232 -2.92096 0
M  V30 6948 C 677.377 3.98819 -3.24728 0
M  V30 6949 N 675.359 4.3886 -4.29272 0
M  V30 6950 C 676.73 4.29571 -4.47067 0
M  V30 6951 C 678.785 3.81342 -3.20129 0
M  V30 6952 C 677.488 4.44667 -5.65388 0
M  V30 6953 C 679.514 3.97656 -4.37749 0
M  V30 6954 C 678.876 4.2878 -5.58862 0
M  V30 6955 H 674.975 0.739715 -0.253664 0
M  V30 6956 H 677.559 1.55074 -1.1773 0
M  V30 6957 H 675.73 3.87826 -0.211007 0
M  V30 6958 H 677.462 4.02623 -0.409478 0
M  V30 6959 H 674.217 4.06611 -2.42826 0
M  V30 6960 H 674.641 4.56214 -5.00198 0
M  V30 6961 H 679.283 3.56331 -2.2757 0
M  V30 6962 H 677.001 4.68509 -6.58426 0
M  V30 6963 H 680.587 3.85569 -4.35692 0
M  V30 6964 H 679.467 4.41136 -6.48359 0
M  V30 6965 N 676.97 0.677563 1.42291 0
M  V30 6966 C 677.917 0.000947061 2.308 0
M  V30 6967 C 678.887 -0.789889 1.46116 0
M  V30 6968 O 680.072 -0.761578 1.74942 0
M  V30 6969 C 677.212 -0.942387 3.31984 0
M  V30 6970 C 676.325 -0.14508 4.31756 0
M  V30 6971 C 675.46 -1.08442 5.20013 0
M  V30 6972 C 674.499 -0.278958 6.11464 0
M  V30 6973 N 673.636 -1.17115 6.92263 0
M  V30 6974 H 678.476 0.761521 2.88106 0
M  V30 6975 H 676.013 0.38727 1.41911 0
M  V30 6976 H 677.971 -1.50317 3.89179 0
M  V30 6977 H 676.601 -1.66956 2.76271 0
M  V30 6978 H 675.653 0.532368 3.76656 0
M  V30 6979 H 676.965 0.48015 4.96484 0
M  V30 6980 H 676.119 -1.71504 5.81955 0
M  V30 6981 H 674.858 -1.74353 4.55469 0
M  V30 6982 H 673.863 0.364856 5.48588 0
M  V30 6983 H 675.088 0.376099 6.78058 0
M  V30 6984 H 673.034 -1.81661 6.30345 0
M  V30 6985 H 672.951 -0.601063 7.53607 0
M  V30 6986 H 674.219 -1.78915 7.58689 0
M  V30 6987 N 678.448 -1.51871 0.421078 0
M  V30 6988 C 679.697 -2.01125 -0.152206 0
M  V30 6989 C 680.01 -1.3106 -1.45199 0
M  V30 6990 O 681.216 -1.71195 -2.10724 0
M  V30 6991 C 679.672 -3.58458 -0.3218 0
M  V30 6992 C 679.28 -4.37448 0.96659 0
M  V30 6993 C 681.024 -4.15908 -0.84973 0
M  V30 6994 C 678.931 -5.86451 0.763529 0
M  V30 6995 H 677.861 -0.751556 -0.0606565 0
M  V30 6996 H 680.512 -1.75115 0.548354 0
M  V30 6997 H 678.894 -3.80847 -1.08498 0
M  V30 6998 H 680.068 -4.26814 1.73684 0
M  V30 6999 H 678.383 -3.91373 1.42183 0
M  V30 7000 H 680.98 -5.24922 -1.01788 0
M  V30 7001 H 681.323 -3.74031 -1.82774 0
M  V30 7002 H 681.856 -3.97535 -0.145297 0
M  V30 7003 H 678.595 -6.3271 1.71344 0
M  V30 7004 H 678.115 -5.99791 0.0327889 0
M  V30 7005 H 679.794 -6.45697 0.410354 0
M  V30 7006 N 679.926 -0.151884 -1.56866 0
M  V30 7007 C 680.856 0.781943 -2.20018 0
M  V30 7008 C 681.837 1.25347 -1.14987 0
M  V30 7009 O 683.022 1.31015 -1.43348 0
M  V30 7010 C 680.152 2.01928 -2.82564 0
M  V30 7011 C 679.106 1.68434 -3.93464 0
M  V30 7012 C 678.432 2.99472 -4.42968 0
M  V30 7013 C 679.732 0.927244 -5.14003 0
M  V30 7014 H 681.426 0.255607 -2.98307 0
M  V30 7015 H 678.972 0.121502 -1.43486 0
M  V30 7016 H 680.925 2.67741 -3.25411 0
M  V30 7017 H 679.649 2.56943 -2.01614 0
M  V30 7018 H 678.308 1.04998 -3.51242 0
M  V30 7019 H 677.956 3.52488 -3.58834 0
M  V30 7020 H 677.656 2.77823 -5.17772 0
M  V30 7021 H 679.18 3.66348 -4.88489 0
M  V30 7022 H 680.594 1.48756 -5.53665 0
M  V30 7023 H 678.991 0.810513 -5.94601 0
M  V30 7024 H 680.061 -0.0801163 -4.84834 0
M  V30 7025 N 681.404 1.57128 0.121893 0
M  V30 7026 C 682.681 1.75664 0.860327 0
M  V30 7027 C 683.061 0.726585 1.98202 0
M  V30 7028 O 682.409 -0.24999 2.27128 0
M  V30 7029 C 682.619 3.20571 1.37968 0
M  V30 7030 C 683.967 3.82988 1.83317 0
M  V30 7031 O 684.991 3.24156 1.47654 0
M  V30 7032 O 683.85 4.86393 2.49168 0
M  V30 7033 H 680.944 0.719153 0.408348 0
M  V30 7034 H 683.49 1.6937 0.105859 0
M  V30 7035 H 682.262 3.87056 0.57477 0
M  V30 7036 H 681.885 3.31392 2.19694 0
M  V30 7037 N 682.882 -0.391992 1.52647 0
M  V30 7038 C 684.107 -1.16312 1.71716 0
M  V30 7039 C 684.532 -1.83042 0.433279 0
M  V30 7040 O 683.89 -1.70705 -0.610707 0
M  V30 7041 C 683.938 -2.18908 2.86551 0
M  V30 7042 O 683.042 -3.2543 2.53316 0
M  V30 7043 H 682.383 -0.338743 0.571095 0
M  V30 7044 H 684.913 -0.457202 1.99426 0
M  V30 7045 H 684.923 -2.62954 3.1196 0
M  V30 7046 H 683.598 -1.69726 3.79692 0
M  V30 7047 H 682.175 -2.86543 2.38637 0
M  V30 7048 N 684.36 -1.4356 -0.65026 0
M  V30 7049 C 685.607 -1.45333 -1.41012 0
M  V30 7050 C 685.935 -0.0787282 -1.94341 0
M  V30 7051 O 685.19 0.916715 -1.72901 0
M  V30 7052 C 685.489 -2.44528 -2.60654 0
M  V30 7053 C 685.155 -3.90331 -2.25727 0
M  V30 7054 C 683.817 -4.3004 -2.15914 0
M  V30 7055 C 686.169 -4.822 -1.97821 0
M  V30 7056 C 683.497 -5.59568 -1.76354 0
M  V30 7057 C 685.849 -6.12095 -1.59759 0
M  V30 7058 C 684.513 -6.50778 -1.48473 0
M  V30 7059 H 683.783 -0.531813 -0.516 0
M  V30 7060 H 686.43 -1.76657 -0.739219 0
M  V30 7061 H 684.735 -2.06619 -3.3289 0
M  V30 7062 H 686.432 -2.43155 -3.18868 0
M  V30 7063 H 683.022 -3.58905 -2.34276 0
M  V30 7064 H 687.206 -4.5229 -2.04322 0
M  V30 7065 H 682.462 -5.88376 -1.66205 0
M  V30 7066 H 686.636 -6.82751 -1.37198 0
M  V30 7067 H 684.263 -7.5105 -1.17591 0
M  V30 7068 N 685.838 0.888903 -1.30139 0
M  V30 7069 C 687.249 1.45578 -1.16893 0
M  V30 7070 C 687.6 1.94825 0.231866 0
M  V30 7071 O 686.725 1.84661 1.12824 0
M  V30 7072 C 687.32 2.646 -2.11595 0
M  V30 7073 C 685.879 3.17389 -2.02339 0
M  V30 7074 C 685.026 1.90081 -2.01902 0
M  V30 7075 H 687.977 0.69921 -1.42467 0
M  V30 7076 H 687.998 3.40687 -1.69449 0
M  V30 7077 H 687.51 2.28726 -3.13538 0
M  V30 7078 H 685.611 3.5793 -1.03523 0
M  V30 7079 H 685.724 3.80955 -2.90534 0
M  V30 7080 H 684.088 2.08246 -1.46648 0
M  V30 7081 H 684.871 1.5647 -3.05568 0
M  V30 7082 N 687.317 1.12792 1.10072 0
M  V30 7083 C 688.28 0.802264 2.14701 0
M  V30 7084 C 689.28 -0.18515 1.59731 0
M  V30 7085 O 690.47 0.041109 1.74151 0
M  V30 7086 C 687.602 0.19285 3.40354 0
M  V30 7087 H 688.795 1.72932 2.45019 0
M  V30 7088 H 686.348 0.931662 1.25498 0
M  V30 7089 H 687.083 -0.743748 3.15656 0
M  V30 7090 H 686.868 0.903827 3.81541 0
M  V30 7091 H 688.358 -0.0183704 4.17596 0
M  V30 7092 N 688.795 -1.27931 0.920396 0
M  V30 7093 C 689.725 -2.29487 0.431024 0
M  V30 7094 C 690.706 -1.62435 -0.504861 0
M  V30 7095 O 691.891 -1.89797 -0.411176 0
M  V30 7096 C 689.021 -3.45788 -0.323709 0
M  V30 7097 C 687.975 -4.24784 0.523658 0
M  V30 7098 C 687.301 -5.33488 -0.359809 0
M  V30 7099 C 688.601 -4.90874 1.78437 0
M  V30 7100 H 690.295 -2.70671 1.27975 0
M  V30 7101 H 687.841 -1.30121 0.616813 0
M  V30 7102 H 689.794 -4.15927 -0.676952 0
M  V30 7103 H 688.518 -3.03502 -1.2064 0
M  V30 7104 H 687.177 -3.56382 0.85951 0
M  V30 7105 H 686.825 -4.87445 -1.24124 0
M  V30 7106 H 686.525 -5.87247 0.203605 0
M  V30 7107 H 688.049 -6.06472 -0.708787 0
M  V30 7108 H 689.463 -5.53339 1.49963 0
M  V30 7109 H 687.86 -5.54659 2.29071 0
M  V30 7110 H 688.93 -4.14988 2.50824 0
M  V30 7111 N 690.273 -0.685099 -1.4193 0
M  V30 7112 C 691.521 -0.21124 -2.00993 0
M  V30 7113 C 691.842 1.18985 -1.54491 0
M  V30 7114 O 691.112 1.8009 -0.771 0
M  V30 7115 H 689.692 -0.0751059 -0.743215 0
M  V30 7116 H 692.354 -0.883915 -1.73704 0
M  V30 7117 H 691.45 -0.220513 -3.1132 0
M  V30 7118 N 691.751 1.51645 -0.429126 0
M  V30 7119 C 692.999 2.01616 0.139802 0
M  V30 7120 C 693.32 1.31568 1.43927 0
M  V30 7121 O 692.59 0.447688 1.90716 0
M  V30 7122 H 691.17 0.744998 0.054654 0
M  V30 7123 H 693.832 1.8638 -0.569952 0
M  V30 7124 H 692.928 3.10439 0.321609 0
M  V30 7125 N 693.229 0.160201 1.56784 0
M  V30 7126 C 694.477 -0.486625 1.96154 0
M  V30 7127 C 694.798 -1.64525 1.04673 0
M  V30 7128 O 694.068 -1.95586 0.110864 0
M  V30 7129 H 692.648 -0.182764 0.724297 0
M  V30 7130 H 695.31 0.238787 1.93432 0
M  V30 7131 H 694.406 -0.854025 3.00188 0
M  V30 7132 N 694.707 -1.5719 -0.113559 0
M  V30 7133 C 695.932 -1.89702 -0.838336 0
M  V30 7134 C 696.357 -0.752679 -1.72384 0
M  V30 7135 O 695.715 0.296575 -1.78858 0
M  V30 7136 C 695.763 -3.20989 -1.64312 0
M  V30 7137 O 694.867 -3.07278 -2.75053 0
M  V30 7138 H 694.208 -0.622339 -0.231496 0
M  V30 7139 H 696.738 -2.04382 -0.0943228 0
M  V30 7140 H 696.748 -3.53843 -2.03123 0
M  V30 7141 H 695.423 -4.03869 -0.993119 0
M  V30 7142 H 694 -2.85901 -2.39406 0
M  V30 7143 N 696.185 0.383891 -1.52853 0
M  V30 7144 C 697.115 1.47559 -1.80965 0
M  V30 7145 C 698.096 1.5669 -0.661986 0
M  V30 7146 O 699.281 1.71556 -0.910072 0
M  V30 7147 C 696.411 2.85114 -1.98312 0
M  V30 7148 C 695.365 2.9082 -3.14019 0
M  V30 7149 C 694.691 4.30873 -3.16627 0
M  V30 7150 C 695.991 2.60001 -4.52986 0
M  V30 7151 H 697.685 1.24283 -2.72386 0
M  V30 7152 H 695.231 0.596445 -1.31067 0
M  V30 7153 H 697.184 3.61496 -2.16561 0
M  V30 7154 H 695.908 3.09738 -1.03585 0
M  V30 7155 H 694.567 2.16886 -2.9556 0
M  V30 7156 H 694.215 4.52545 -2.19573 0
M  V30 7157 H 693.915 4.3561 -3.94357 0
M  V30 7158 H 695.439 5.09154 -3.37038 0
M  V30 7159 H 696.853 3.261 -4.71521 0
M  V30 7160 H 695.25 2.76081 -5.32822 0
M  V30 7161 H 696.32 1.5532 -4.59351 0
M  V30 7162 N 697.663 1.43903 0.642637 0
M  V30 7163 C 698.91 1.46079 1.40239 0
M  V30 7164 C 699.238 0.0890335 1.94296 0
M  V30 7165 O 698.493 -0.907533 1.73385 0
M  V30 7166 C 698.792 2.45907 2.59354 0
M  V30 7167 C 698.458 3.91522 2.23654 0
M  V30 7168 C 697.12 4.31179 2.1363 0
M  V30 7169 C 699.472 4.83242 1.95261 0
M  V30 7170 C 696.8 5.60495 1.73384 0
M  V30 7171 C 699.152 6.12933 1.56511 0
M  V30 7172 C 697.816 6.51556 1.4502 0
M  V30 7173 H 697.086 0.534542 0.513172 0
M  V30 7174 H 699.733 1.77047 0.72984 0
M  V30 7175 H 698.038 2.08381 3.3179 0
M  V30 7176 H 699.735 2.44842 3.17574 0
M  V30 7177 H 696.325 3.60142 2.32369 0
M  V30 7178 H 700.509 4.53367 2.0192 0
M  V30 7179 H 695.765 5.89249 1.63082 0
M  V30 7180 H 699.939 6.83469 1.33576 0
M  V30 7181 H 697.566 7.51663 1.13606 0
M  V30 7182 N 699.141 -0.881989 1.30609 0
M  V30 7183 C 700.39 -1.62878 1.18969 0
M  V30 7184 C 700.703 -1.93946 -0.253859 0
M  V30 7185 O 701.909 -2.67008 -0.491813 0
M  V30 7186 C 700.365 -2.93573 2.0819 0
M  V30 7187 C 699.973 -2.70034 3.57471 0
M  V30 7188 C 701.717 -3.71543 2.0532 0
M  V30 7189 C 699.624 -3.96563 4.38739 0
M  V30 7190 H 698.554 -0.611092 0.441682 0
M  V30 7191 H 701.205 -0.976201 1.55379 0
M  V30 7192 H 699.587 -3.6014 1.64666 0
M  V30 7193 H 700.761 -2.11949 4.09163 0
M  V30 7194 H 699.076 -2.05435 3.62195 0
M  V30 7195 H 701.673 -4.65386 2.63288 0
M  V30 7196 H 702.016 -4.03167 1.03739 0
M  V30 7197 H 702.549 -3.11842 2.46981 0
M  V30 7198 H 699.288 -3.70095 5.41027 0
M  V30 7199 H 698.808 -4.54142 3.9181 0
M  V30 7200 H 700.487 -4.64557 4.50329 0
M  V30 7201 N 700.619 -1.13374 -1.09472 0
M  V30 7202 C 701.566 -0.810682 -2.16094 0
M  V30 7203 C 702.536 0.227003 -1.64541 0
M  V30 7204 O 703.721 0.0993538 -1.90541 0
M  V30 7205 C 700.861 -0.282336 -3.43943 0
M  V30 7206 C 699.974 -1.37902 -4.09398 0
M  V30 7207 C 699.109 -0.809066 -5.25002 0
M  V30 7208 C 698.148 -1.88419 -5.82379 0
M  V30 7209 N 697.285 -1.33221 -6.89345 0
M  V30 7210 H 702.125 -1.72397 -2.43071 0
M  V30 7211 H 699.662 -0.860564 -1.19301 0
M  V30 7212 H 701.62 0.0421189 -4.17179 0
M  V30 7213 H 700.25 0.594083 -3.17286 0
M  V30 7214 H 699.302 -1.82008 -3.34032 0
M  V30 7215 H 700.614 -2.19161 -4.48074 0
M  V30 7216 H 699.768 -0.435867 -6.05132 0
M  V30 7217 H 698.507 0.0346058 -4.87688 0
M  V30 7218 H 697.512 -2.26646 -5.00911 0
M  V30 7219 H 698.737 -2.73125 -6.21755 0
M  V30 7220 H 696.683 -0.510535 -6.5401 0
M  V30 7221 H 696.6 -2.08129 -7.26786 0
M  V30 7222 H 697.868 -0.986565 -7.73232 0
M  V30 7223 N 702.098 1.27442 -0.927168 0
M  V30 7224 C 703.326 1.98498 -0.583622 0
M  V30 7225 C 703.741 1.69171 0.838241 0
M  V30 7226 O 703.098 0.951969 1.55704 0
M  V30 7227 C 703.149 3.52552 -0.799341 0
M  V30 7228 O 702.87 3.80851 -2.16527 0
M  V30 7229 C 704.371 4.4086 -0.464436 0
M  V30 7230 H 701.591 0.633487 -0.221213 0
M  V30 7231 H 704.135 1.62308 -1.24404 0
M  V30 7232 H 702.29 3.86955 -0.185728 0
M  V30 7233 H 702.704 4.75441 -2.21487 0
M  V30 7234 H 704.178 5.47967 -0.666075 0
M  V30 7235 H 704.655 4.35082 0.599995 0
M  V30 7236 H 705.261 4.11977 -1.05617 0
M  V30 7237 N 703.576 0.692616 1.41565 0
M  V30 7238 C 704.526 0.00231847 2.28 0
M  V30 7239 C 705.51 -0.755793 1.42044 0
M  V30 7240 O 706.702 -0.631772 1.65341 0
M  V30 7241 C 703.831 -0.935468 3.30309 0
M  V30 7242 C 702.917 -0.173761 4.23744 0
M  V30 7243 N 703.308 0.830872 4.98929 0
M  V30 7244 C 701.606 -0.409666 4.44115 0
M  V30 7245 C 702.307 1.28656 5.67294 0
M  V30 7246 N 701.283 0.613053 5.40132 0
M  V30 7247 H 705.085 0.772635 2.83562 0
M  V30 7248 H 702.599 0.523198 1.53741 0
M  V30 7249 H 704.596 -1.44513 3.91052 0
M  V30 7250 H 703.256 -1.70542 2.76307 0
M  V30 7251 H 704.267 1.21101 5.03542 0
M  V30 7252 H 700.944 -1.15773 4.01127 0
M  V30 7253 H 702.334 2.12006 6.37576 0
M  V30 7254 N 705.054 -1.51416 0.437162 0
M  V30 7255 C 706.465 -1.86682 -0.0260005 0
M  V30 7256 C 706.816 -1.35432 -1.4196 0
M  V30 7257 O 705.941 -0.705055 -2.04592 0
M  V30 7258 C 706.536 -3.38757 -0.0539577 0
M  V30 7259 C 705.095 -3.7356 -0.461532 0
M  V30 7260 C 704.242 -2.75134 0.345924 0
M  V30 7261 H 707.193 -1.44642 0.653013 0
M  V30 7262 H 707.214 -3.70573 -0.863478 0
M  V30 7263 H 706.726 -3.76028 0.96045 0
M  V30 7264 H 704.827 -3.41878 -1.48155 0
M  V30 7265 H 704.94 -4.78737 -0.186451 0
M  V30 7266 H 703.304 -2.53947 -0.195739 0
M  V30 7267 H 704.087 -3.15247 1.35921 0
M  V30 7268 N 706.532 -0.168513 -1.56696 0
M  V30 7269 C 707.48 0.779791 -2.19139 0
M  V30 7270 C 708.474 1.23957 -1.1546 0
M  V30 7271 O 709.68 1.20555 -1.33666 0
M  V30 7272 H 706.055 0.269739 -0.701958 0
M  V30 7273 H 708.026 0.229156 -2.97519 0
M  V30 7274 C 706.775 2.00003 -2.84419 0
M  V30 7275 H 706.098 1.65527 -3.63924 0
M  V30 7276 H 707.538 2.64251 -3.31583 0
M  V30 7277 C 705.997 2.82187 -1.84044 0
M  V30 7278 O 706.527 3.79247 -1.32418 0
M  V30 7279 N 704.733 2.47145 -1.52864 0
M  V30 7280 H 704.28 1.68277 -1.9504 0
M  V30 7281 H 704.238 3.02422 -0.859569 0
M  V30 7282 N 708.01 1.57248 0.105221 0
M  V30 7283 C 709.235 1.90143 0.828264 0
M  V30 7284 C 709.66 0.761811 1.71983 0
M  V30 7285 O 709.018 -0.287086 1.79013 0
M  V30 7286 C 709.066 3.21856 1.62608 0
M  V30 7287 O 708.17 3.08732 2.7342 0
M  V30 7288 H 707.511 0.623558 0.228192 0
M  V30 7289 H 710.041 2.0443 0.0834826 0
M  V30 7290 H 710.051 3.54916 2.01243 0
M  V30 7291 H 708.726 4.0439 0.971687 0
M  V30 7292 H 707.303 2.87167 2.37886 0
M  V30 7293 N 709.488 -0.375779 1.53054 0
M  V30 7294 C 710.42 -1.47963 1.75042 0
M  V30 7295 C 711.433 -1.50073 0.631031 0
M  V30 7296 O 712.622 -1.53736 0.907052 0
M  V30 7297 C 709.722 -2.86767 1.80604 0
M  V30 7298 C 708.895 -3.08471 3.10104 0
M  V30 7299 C 707.954 -4.27332 3.07041 0
M  V30 7300 O 706.98 -4.22998 3.80869 0
M  V30 7301 N 708.182 -5.34214 2.27147 0
M  V30 7302 H 710.947 -1.29484 2.70285 0
M  V30 7303 H 708.508 -0.565416 1.51706 0
M  V30 7304 H 710.5 -3.64404 1.76045 0
M  V30 7305 H 709.07 -2.98542 0.926897 0
M  V30 7306 H 708.29 -2.18583 3.28048 0
M  V30 7307 H 709.578 -3.19834 3.95706 0
M  V30 7308 H 708.976 -5.40594 1.66656 0
M  V30 7309 H 707.533 -6.10467 2.28415 0
M  V30 7310 N 710.966 -1.44241 -0.634997 0
M  V30 7311 C 712.196 -1.50078 -1.41987 0
M  V30 7312 C 712.604 -0.123072 -1.88799 0
M  V30 7313 O 711.947 0.880552 -1.6122 0
M  V30 7314 C 712.009 -2.40033 -2.67628 0
M  V30 7315 C 711.673 -3.87268 -2.42637 0
M  V30 7316 C 712.67 -4.77902 -2.04708 0
M  V30 7317 C 710.355 -4.31933 -2.56396 0
M  V30 7318 C 712.349 -6.11202 -1.80862 0
M  V30 7319 C 710.036 -5.65281 -2.32164 0
M  V30 7320 C 711.034 -6.54734 -1.94455 0
M  V30 7321 O 710.722 -7.85613 -1.7049 0
M  V30 7322 H 710.454 -0.51146 -0.442023 0
M  V30 7323 H 713.008 -1.89843 -0.784138 0
M  V30 7324 H 711.238 -1.95188 -3.33824 0
M  V30 7325 H 712.927 -2.36863 -3.29622 0
M  V30 7326 H 713.693 -4.44668 -1.93638 0
M  V30 7327 H 709.572 -3.62569 -2.84719 0
M  V30 7328 H 713.116 -6.80983 -1.51353 0
M  V30 7329 H 709.013 -5.98078 -2.42843 0
M  V30 7330 H 709.781 -7.97373 -1.84767 0
M  V30 7331 N 712.444 0.87505 -1.31075 0
M  V30 7332 C 713.374 1.99775 -1.20881 0
M  V30 7333 C 714.355 1.69822 -0.0971612 0
M  V30 7334 O 715.54 1.92158 -0.280895 0
M  V30 7335 C 712.67 3.35163 -0.910118 0
M  V30 7336 C 711.624 3.79406 -1.98078 0
M  V30 7337 C 710.95 5.12197 -1.53488 0
M  V30 7338 C 712.25 3.97061 -3.39323 0
M  V30 7339 H 713.944 2.08562 -2.14808 0
M  V30 7340 H 711.49 1.00207 -1.03415 0
M  V30 7341 H 713.443 4.13237 -0.825423 0
M  V30 7342 H 712.167 3.26536 0.064822 0
M  V30 7343 H 710.826 3.03568 -2.05528 0
M  V30 7344 H 710.474 5.00007 -0.547941 0
M  V30 7345 H 710.174 5.4277 -2.2511 0
M  V30 7346 H 711.698 5.92785 -1.46417 0
M  V30 7347 H 713.112 4.65545 -3.34576 0
M  V30 7348 H 711.509 4.39025 -4.09118 0
M  V30 7349 H 712.579 3.00601 -3.80483 0
M  V30 7350 N 713.922 1.13953 1.08869 0
M  V30 7351 C 715.152 0.926825 1.84644 0
M  V30 7352 C 715.56 -0.527941 1.81685 0
M  V30 7353 O 714.903 -1.37742 1.21543 0
M  V30 7354 C 714.965 1.34416 3.33426 0
M  V30 7355 C 714.629 2.81351 3.60126 0
M  V30 7356 C 715.626 3.79486 3.55368 0
M  V30 7357 C 713.311 3.1865 3.88288 0
M  V30 7358 C 715.305 5.1293 3.78393 0
M  V30 7359 C 712.992 4.5227 4.10968 0
M  V30 7360 C 713.99 5.4922 4.06013 0
M  V30 7361 O 713.678 6.80429 4.28102 0
M  V30 7362 H 713.41 0.33013 0.589907 0
M  V30 7363 H 715.964 1.51738 1.38436 0
M  V30 7364 H 714.194 0.696901 3.80368 0
M  V30 7365 H 715.883 1.10302 3.90626 0
M  V30 7366 H 716.649 3.52017 3.3363 0
M  V30 7367 H 712.528 2.43785 3.91267 0
M  V30 7368 H 716.072 5.88591 3.74442 0
M  V30 7369 H 711.969 4.79462 4.32188 0
M  V30 7370 H 712.737 6.86617 4.45533 0
M  V30 7371 N 715.4 -1.26948 0.933913 0
M  V30 7372 C 716.646 -1.94374 0.57848 0
M  V30 7373 C 716.979 -1.73166 -0.879048 0
M  V30 7374 O 716.254 -1.06438 -1.62792 0
M  V30 7375 C 716.537 -3.4834 0.912739 0
M  V30 7376 C 716.39 -3.78866 2.42448 0
M  V30 7377 C 717.709 -4.38062 0.423003 0
M  V30 7378 H 714.828 -0.705959 0.211639 0
M  V30 7379 H 717.47 -1.49951 1.16682 0
M  V30 7380 H 715.62 -3.86309 0.412058 0
M  V30 7381 H 717.292 -3.50654 2.99733 0
M  V30 7382 H 715.535 -3.25198 2.87104 0
M  V30 7383 H 716.206 -4.86458 2.60887 0
M  V30 7384 H 718.682 -4.0728 0.852191 0
M  V30 7385 H 717.558 -5.44599 0.685776 0
M  V30 7386 H 717.819 -4.36886 -0.676994 0
M  V30 7387 N 716.879 -0.700114 -1.41195 0
M  V30 7388 C 718.156 -0.160836 -1.94938 0
M  V30 7389 C 718.536 1.33014 -1.63922 0
M  V30 7390 O 717.884 2.07878 -0.948636 0
M  V30 7391 C 718.094 -0.456991 -3.45995 0
M  V30 7392 C 719.442 -0.387207 -4.22831 0
M  V30 7393 O 720.466 -0.392164 -3.54035 0
M  V30 7394 O 719.325 -0.351267 -5.4537 0
M  V30 7395 H 716.419 -0.0176304 -0.826812 0
M  V30 7396 H 718.965 -0.776586 -1.50888 0
M  V30 7397 H 717.737 -1.48884 -3.61869 0
M  V30 7398 H 717.36 0.189503 -3.97148 0
M  V30 7399 N 718.357 1.51182 -0.445186 0
M  V30 7400 C 719.32 2.26501 0.350722 0
M  V30 7401 C 720.32 1.3025 0.942952 0
M  V30 7402 O 721.51 1.53897 0.816175 0
M  V30 7403 C 718.642 3.06274 1.49697 0
M  V30 7404 H 719.835 2.98299 -0.309474 0
M  V30 7405 H 717.388 1.55034 -0.198551 0
M  V30 7406 H 718.123 2.38911 2.19299 0
M  V30 7407 H 717.908 3.76979 1.0784 0
M  V30 7408 H 719.398 3.63306 2.05909 0
M  V30 7409 N 719.835 0.176821 1.56605 0
M  V30 7410 C 721.063 -0.472828 2.01425 0
M  V30 7411 C 721.478 -1.56436 1.05703 0
M  V30 7412 O 720.835 -1.82405 0.058808 0
M  V30 7413 C 720.886 -1.04607 3.46034 0
M  V30 7414 O 720.607 0.00189608 4.381 0
M  V30 7415 C 722.108 -1.7734 4.06282 0
M  V30 7416 H 719.328 -0.120503 0.660091 0
M  V30 7417 H 721.872 0.280166 2.02572 0
M  V30 7418 H 720.027 -1.74953 3.45645 0
M  V30 7419 H 720.441 -0.422118 5.22799 0
M  V30 7420 H 721.915 -2.12703 5.09374 0
M  V30 7421 H 722.392 -2.67043 3.4869 0
M  V30 7422 H 722.998 -1.11623 4.10391 0
M  V30 7423 N 721.313 -1.57302 -0.09688 0
M  V30 7424 C 722.243 -2.0497 -1.11846 0
M  V30 7425 C 723.224 -0.938278 -1.41882 0
M  V30 7426 O 724.409 -1.20943 -1.51942 0
M  V30 7427 C 721.539 -2.47264 -2.43881 0
M  V30 7428 C 720.493 -3.62053 -2.28257 0
M  V30 7429 C 719.819 -3.90318 -3.65453 0
M  V30 7430 C 721.119 -4.93005 -1.72461 0
M  V30 7431 H 722.813 -2.90567 -0.721888 0
M  V30 7432 H 720.359 -1.39786 -0.345803 0
M  V30 7433 H 722.312 -2.7922 -3.15617 0
M  V30 7434 H 721.036 -1.58664 -2.8547 0
M  V30 7435 H 719.695 -3.30341 -1.58967 0
M  V30 7436 H 719.343 -2.98889 -4.04567 0
M  V30 7437 H 719.043 -4.67597 -3.55846 0
M  V30 7438 H 720.567 -4.24747 -4.3866 0
M  V30 7439 H 721.981 -5.23354 -2.34036 0
M  V30 7440 H 720.378 -5.74436 -1.73618 0
M  V30 7441 H 721.448 -4.80053 -0.683898 0
M  V30 7442 N 722.791 0.367657 -1.53252 0
M  V30 7443 C 723.739 1.47061 -1.8021 0
M  V30 7444 C 724.733 1.55539 -0.671112 0
M  V30 7445 O 725.939 1.58451 -0.854014 0
M  V30 7446 H 722.314 0.489868 -0.570555 0
M  V30 7447 H 724.285 1.21527 -2.72532 0
M  V30 7448 C 723.034 2.83924 -2.00706 0
M  V30 7449 H 722.357 2.78158 -2.87172 0
M  V30 7450 H 723.797 3.60281 -2.23547 0
M  V30 7451 C 722.256 3.27613 -0.785568 0
M  V30 7452 O 722.786 4.01691 0.0267459 0
M  V30 7453 N 720.992 2.84134 -0.609597 0
M  V30 7454 H 720.539 2.24017 -1.27178 0
M  V30 7455 H 720.497 3.13723 0.206281 0
M  V30 7456 N 724.269 1.44576 0.627338 0
M  V30 7457 C 725.68 1.42266 1.20902 0
M  V30 7458 C 726.031 0.139964 1.957 0
M  V30 7459 O 725.156 -0.759489 2.02634 0
M  V30 7460 C 725.751 2.57727 2.19914 0
M  V30 7461 C 724.31 2.58599 2.73502 0
M  V30 7462 C 723.457 2.34145 1.48564 0
M  V30 7463 H 726.408 1.53102 0.417791 0
M  V30 7464 H 726.429 2.30697 3.02588 0
M  V30 7465 H 725.941 3.51068 1.65447 0
M  V30 7466 H 724.042 1.6921 3.31962 0
M  V30 7467 H 724.155 3.57205 3.19282 0
M  V30 7468 H 722.519 1.83313 1.76829 0
M  V30 7469 H 723.302 3.29606 0.959935 0
M  V30 7470 N 725.747 -0.868086 1.31537 0
M  V30 7471 C 726.657 -2.00801 1.21311 0
M  V30 7472 C 727.673 -1.73518 0.129431 0
M  V30 7473 O 728.849 -1.98378 0.347588 0
M  V30 7474 C 725.914 -3.3419 0.922935 0
M  V30 7475 C 724.975 -3.74783 2.0937 0
M  V30 7476 C 724.208 -5.01807 1.81728 0
M  V30 7477 O 724.431 -5.65404 0.753313 0
M  V30 7478 O 723.365 -5.39213 2.67457 0
M  V30 7479 H 727.191 -2.12361 2.17109 0
M  V30 7480 H 724.776 -0.996684 1.11295 0
M  V30 7481 H 726.658 -4.14174 0.777033 0
M  V30 7482 H 725.333 -3.237 -0.00500301 0
M  V30 7483 H 724.24 -2.95432 2.29501 0
M  V30 7484 H 725.573 -3.89902 3.00396 0
M  V30 7485 N 727.225 -1.14528 -1.08264 0
M  V30 7486 C 728.188 -0.83632 -2.13397 0
M  V30 7487 C 729.188 0.159715 -1.60005 0
M  V30 7488 O 730.378 -0.0688098 -1.74064 0
M  V30 7489 C 727.51 -0.246973 -3.40004 0
M  V30 7490 H 728.703 -1.76808 -2.42237 0
M  V30 7491 H 726.256 -0.951509 -1.24 0
M  V30 7492 H 726.991 0.693436 -3.168 0
M  V30 7493 H 726.776 -0.964412 -3.80055 0
M  V30 7494 H 728.266 -0.0480679 -4.17572 0
M  V30 7495 N 728.703 1.26451 -0.940633 0
M  V30 7496 C 729.613 2.30128 -0.455881 0
M  V30 7497 C 730.629 1.67536 0.469867 0
M  V30 7498 O 731.805 1.98344 0.349529 0
M  V30 7499 C 728.87 3.45634 0.271648 0
M  V30 7500 C 727.931 4.23709 -0.690594 0
M  V30 7501 C 727.164 5.337 0.00231047 0
M  V30 7502 O 727.387 5.57215 1.21935 0
M  V30 7503 O 726.321 5.98091 -0.676111 0
M  V30 7504 H 730.147 2.73655 -1.31707 0
M  V30 7505 H 727.732 1.3164 -0.706497 0
M  V30 7506 H 729.614 4.15853 0.681486 0
M  V30 7507 H 728.289 3.04138 1.10824 0
M  V30 7508 H 727.196 3.55974 -1.15037 0
M  V30 7509 H 728.529 4.68953 -1.49478 0
M  V30 7510 N 730.181 0.707592 1.40822 0
M  V30 7511 C 731.43 0.240705 2.00259 0
M  V30 7512 C 731.743 -1.17027 1.56729 0
M  V30 7513 O 732.949 -1.73526 2.08809 0
M  V30 7514 C 731.405 0.379432 3.57894 0
M  V30 7515 C 731.013 1.79654 4.104 0
M  V30 7516 C 732.757 -0.0270684 4.24491 0
M  V30 7517 C 730.664 1.88628 5.60512 0
M  V30 7518 H 729.594 0.0862369 0.749052 0
M  V30 7519 H 732.245 0.877528 1.61157 0
M  V30 7520 H 730.627 -0.325842 3.94657 0
M  V30 7521 H 731.801 2.53155 3.85032 0
M  V30 7522 H 730.116 2.15379 3.56372 0
M  V30 7523 H 732.713 0.0193743 5.34696 0
M  V30 7524 H 733.056 -1.06772 4.02375 0
M  V30 7525 H 733.589 0.628361 3.92806 0
M  V30 7526 H 730.328 2.90787 5.87472 0
M  V30 7527 H 729.848 1.19528 5.8777 0
M  V30 7528 H 731.527 1.6547 6.25483 0
M  V30 7529 N 731.66 -1.50943 0.453197 0
M  V30 7530 C 732.885 -2.07116 -0.108463 0
M  V30 7531 C 733.31 -1.31681 -1.3432 0
M  V30 7532 O 732.668 -0.359256 -1.77705 0
M  V30 7533 C 732.716 -3.58447 -0.393424 0
M  V30 7534 O 731.82 -3.85038 -1.47714 0
M  V30 7535 H 731.161 -0.66398 0.0050993 0
M  V30 7536 H 733.691 -1.94362 0.639095 0
M  V30 7537 H 733.701 -4.02961 -0.639222 0
M  V30 7538 H 732.376 -4.12774 0.508946 0
M  V30 7539 H 730.953 -3.52376 -1.22006 0
M  V30 7540 N 733.138 -0.185124 -1.56509 0
M  V30 7541 C 734.386 0.455357 -1.96903 0
M  V30 7542 C 734.707 1.62839 -1.07277 0
M  V30 7543 O 733.977 1.95385 -0.141966 0
M  V30 7544 H 732.557 0.171218 -0.727113 0
M  V30 7545 H 735.219 -0.26953 -1.93027 0
M  V30 7546 H 734.315 0.80616 -3.01509 0
M  V30 7547 N 734.616 1.57351 0.0885366 0
M  V30 7548 C 735.841 1.91011 0.80805 0
M  V30 7549 C 736.266 0.780009 1.71165 0
M  V30 7550 O 735.624 -0.268083 1.79307 0
M  V30 7551 C 735.672 3.23562 1.59185 0
M  V30 7552 O 734.776 3.11615 2.7013 0
M  V30 7553 H 734.117 0.625943 0.221565 0
M  V30 7554 H 736.647 2.04507 0.0617954 0
M  V30 7555 H 736.657 3.5703 1.97468 0
M  V30 7556 H 735.332 4.05398 0.928741 0
M  V30 7557 H 733.909 2.89673 2.34827 0
M  V30 7558 N 736.094 -0.359525 1.53444 0
M  V30 7559 C 737.34 -1.10315 1.70172 0
M  V30 7560 C 737.673 -1.88788 0.455287 0
M  V30 7561 O 736.948 -1.86635 -0.547514 0
M  V30 7562 C 737.231 -2.05744 2.95536 0
M  V30 7563 C 737.084 -1.3084 4.3035 0
M  V30 7564 C 738.403 -3.05784 3.16518 0
M  V30 7565 H 735.522 -0.399662 0.619225 0
M  V30 7566 H 738.164 -0.383338 1.86093 0
M  V30 7567 H 736.314 -2.67125 2.82093 0
M  V30 7568 H 737.986 -0.721959 4.55615 0
M  V30 7569 H 736.229 -0.610283 4.29486 0
M  V30 7570 H 736.9 -2.00718 5.14214 0
M  V30 7571 H 739.376 -2.5451 3.29187 0
M  V30 7572 H 738.252 -3.69772 4.05659 0
M  V30 7573 H 738.513 -3.76289 2.32076 0
M  V30 7574 N 737.572 -1.44907 -0.619662 0
M  V30 7575 C 738.535 -1.52282 -1.71297 0
M  V30 7576 C 739.535 -0.40359 -1.55653 0
M  V30 7577 O 740.725 -0.666638 -1.6094 0
M  V30 7578 C 737.857 -1.40778 -3.10474 0
M  V30 7579 H 739.05 -2.49683 -1.66128 0
M  V30 7580 H 736.603 -1.32168 -0.834339 0
M  V30 7581 H 737.338 -0.445156 -3.2123 0
M  V30 7582 H 737.123 -2.21947 -3.23237 0
M  V30 7583 H 738.613 -1.48946 -3.90135 0
M  V30 7584 N 739.05 0.861098 -1.31996 0
M  V30 7585 C 740.296 1.61721 -1.22369 0
M  V30 7586 C 740.629 1.93 0.215587 0
M  V30 7587 O 739.904 1.56789 1.15098 0
M  V30 7588 C 740.187 2.9417 -2.07691 0
M  V30 7589 C 740.04 2.69714 -3.59965 0
M  V30 7590 C 741.359 3.95372 -1.93312 0
M  V30 7591 H 738.478 0.586822 -0.44588 0
M  V30 7592 H 741.12 0.994788 -1.61876 0
M  V30 7593 H 739.27 3.47292 -1.74128 0
M  V30 7594 H 740.942 2.23196 -4.03709 0
M  V30 7595 H 739.185 2.03789 -3.82952 0
M  V30 7596 H 739.856 3.63996 -4.14983 0
M  V30 7597 H 742.332 3.51487 -2.22701 0
M  V30 7598 H 741.208 4.85916 -2.55298 0
M  V30 7599 H 741.469 4.32865 -0.898922 0
M  V30 7600 N 740.528 1.15101 1.07655 0
M  V30 7601 C 741.775 0.923974 1.80191 0
M  V30 7602 C 742.103 -0.549065 1.86589 0
M  V30 7603 O 741.358 -1.42307 1.3434 0
M  V30 7604 C 741.657 1.47954 3.25337 0
M  V30 7605 C 741.323 2.97253 3.39044 0
M  V30 7606 C 739.985 3.38012 3.42493 0
M  V30 7607 C 742.337 3.93219 3.42094 0
M  V30 7608 C 739.665 4.73384 3.4659 0
M  V30 7609 C 742.017 5.28458 3.47728 0
M  V30 7610 C 740.681 5.68717 3.49453 0
M  V30 7611 H 739.951 0.338106 0.659367 0
M  V30 7612 H 742.598 1.43594 1.26701 0
M  V30 7613 H 740.903 0.888691 3.81588 0
M  V30 7614 H 742.6 1.27972 3.80032 0
M  V30 7615 H 739.19 2.64746 3.37057 0
M  V30 7616 H 743.374 3.62805 3.38654 0
M  V30 7617 H 738.63 5.03925 3.46222 0
M  V30 7618 H 742.804 6.02618 3.49034 0
M  V30 7619 H 740.431 6.73596 3.5238 0
M  V30 7620 N 742.006 -1.2595 0.947325 0
M  V30 7621 C 743.283 -1.88676 0.515824 0
M  V30 7622 C 743.663 -1.85547 -1.00675 0
M  V30 7623 O 743.011 -1.31399 -1.8694 0
M  V30 7624 C 743.221 -3.31734 1.08415 0
M  V30 7625 C 744.569 -4.08545 1.15654 0
M  V30 7626 O 745.593 -3.40826 1.03517 0
M  V30 7627 O 744.452 -5.29663 1.34608 0
M  V30 7628 H 741.546 -0.809537 0.169055 0
M  V30 7629 H 744.092 -1.34075 1.04029 0
M  V30 7630 H 742.864 -3.28404 2.1276 0
M  V30 7631 H 742.487 -3.93882 0.542499 0
M  V30 7632 N 743.484 -0.715051 -1.40445 0
M  V30 7633 C 744.733 -0.251322 -2.00128 0
M  V30 7634 C 745.046 1.16194 -1.57347 0
M  V30 7635 O 746.252 1.72416 -2.09726 0
M  V30 7636 C 744.708 -0.398407 -3.57688 0
M  V30 7637 C 744.316 -1.81828 -4.09442 0
M  V30 7638 C 746.06 0.00455625 -4.245 0
M  V30 7639 C 743.967 -1.91598 -5.59503 0
M  V30 7640 H 742.897 -0.0902081 -0.748584 0
M  V30 7641 H 745.548 -0.886062 -1.6069 0
M  V30 7642 H 743.93 0.304908 -3.94824 0
M  V30 7643 H 745.104 -2.55193 -3.83684 0
M  V30 7644 H 743.419 -2.17266 -3.55225 0
M  V30 7645 H 746.016 -0.0477303 -5.34679 0
M  V30 7646 H 746.359 1.04636 -4.02935 0
M  V30 7647 H 746.892 -0.649184 -3.92467 0
M  V30 7648 H 743.631 -2.93898 -5.85922 0
M  V30 7649 H 743.151 -1.22644 -5.87127 0
M  V30 7650 H 744.83 -1.68785 -6.24596 0
M  V30 7651 N 744.962 1.50701 -0.461195 0
M  V30 7652 C 745.909 2.2831 0.338094 0
M  V30 7653 C 746.879 1.32928 0.995957 0
M  V30 7654 O 748.064 1.61857 1.0103 0
M  V30 7655 C 745.204 3.14539 1.41983 0
M  V30 7656 C 744.317 4.24942 0.77773 0
M  V30 7657 C 743.452 4.98443 1.83652 0
M  V30 7658 C 742.491 6.00733 1.17413 0
M  V30 7659 N 741.628 6.6755 2.17533 0
M  V30 7660 H 746.468 2.96167 -0.330051 0
M  V30 7661 H 744.005 1.4606 -0.174611 0
M  V30 7662 H 745.963 3.62877 2.05855 0
M  V30 7663 H 744.593 2.48749 2.05727 0
M  V30 7664 H 743.645 3.80391 0.0266924 0
M  V30 7665 H 744.957 4.98151 0.254362 0
M  V30 7666 H 744.111 5.50449 2.55129 0
M  V30 7667 H 742.85 4.24917 2.39367 0
M  V30 7668 H 741.855 5.47997 0.444944 0
M  V30 7669 H 743.08 6.76227 0.624006 0
M  V30 7670 H 741.026 5.96823 2.72284 0
M  V30 7671 H 740.943 7.36603 1.70154 0
M  V30 7672 H 742.211 7.24178 2.88421 0
M  V30 7673 N 746.441 0.193421 1.56409 0
M  V30 7674 C 747.404 -0.714371 2.17783 0
M  V30 7675 C 748.404 -1.1422 1.13183 0
M  V30 7676 O 749.594 -1.05557 1.38576 0
M  V30 7677 C 746.726 -1.97509 2.77855 0
M  V30 7678 H 747.919 -0.179714 2.99361 0
M  V30 7679 H 745.472 -0.0561944 1.56199 0
M  V30 7680 H 746.207 -2.5523 2.0007 0
M  V30 7681 H 745.992 -1.67706 3.54425 0
M  V30 7682 H 747.482 -2.62246 3.24987 0
M  V30 7683 N 747.919 -1.57396 -0.0801906 0
M  V30 7684 C 748.852 -1.98386 -1.12774 0
M  V30 7685 C 749.83 -0.859423 -1.38031 0
M  V30 7686 O 751.014 -1.12101 -1.51544 0
M  V30 7687 C 748.141 -2.3134 -2.47386 0
M  V30 7688 C 747.187 -3.53706 -2.38316 0
M  V30 7689 S 748.02 -5.04862 -1.78534 0
M  V30 7690 C 749.176 -5.41008 -3.1474 0
M  V30 7691 H 749.409 -2.86929 -0.778382 0
M  V30 7692 H 746.942 -1.51682 -0.28842 0
M  V30 7693 H 748.9 -2.51 -3.24822 0
M  V30 7694 H 747.561 -1.4334 -2.79486 0
M  V30 7695 H 746.754 -3.74253 -3.37566 0
M  V30 7696 H 746.356 -3.33632 -1.69014 0
M  V30 7697 H 748.648 -5.38565 -4.1104 0
M  V30 7698 H 749.591 -6.41885 -2.98981 0
M  V30 7699 H 749.999 -4.68467 -3.14958 0
M  V30 7700 N 749.397 0.351382 -1.53633 0
M  V30 7701 C 750.625 1.11275 -1.74429 0
M  V30 7702 C 751.04 1.82602 -0.479798 0
M  V30 7703 O 750.397 1.74074 0.548125 0
M  V30 7704 C 750.448 2.13223 -2.91921 0
M  V30 7705 O 750.169 1.44798 -4.13479 0
M  V30 7706 C 751.67 3.01797 -3.24706 0
M  V30 7707 H 748.89 0.332153 -0.583023 0
M  V30 7708 H 751.434 0.405974 -2.0043 0
M  V30 7709 H 749.589 2.79477 -2.68274 0
M  V30 7710 H 750.003 2.12839 -4.79374 0
M  V30 7711 H 751.477 3.69282 -4.10286 0
M  V30 7712 H 751.954 3.67387 -2.40673 0
M  V30 7713 H 752.56 2.41141 -3.5033 0
M  V30 7714 N 750.875 1.45233 0.611969 0
M  V30 7715 C 752.123 1.48727 1.36838 0
M  V30 7716 C 752.444 0.128616 1.94575 0
M  V30 7717 O 751.714 -0.84149 1.76906 0
M  V30 7718 H 750.294 0.547695 0.507976 0
M  V30 7719 H 752.956 1.81156 0.718925 0
M  V30 7720 H 752.052 2.2236 2.19003 0
M  V30 7721 N 752.353 -0.854086 1.3245 0
M  V30 7722 C 753.63 -1.59188 1.1366 0
M  V30 7723 C 754.01 -2.08917 -0.302807 0
M  V30 7724 O 753.358 -1.8795 -1.29951 0
M  V30 7725 C 753.568 -2.73757 2.16467 0
M  V30 7726 C 754.916 -3.43323 2.49829 0
M  V30 7727 O 755.94 -2.83983 2.15017 0
M  V30 7728 O 754.799 -4.50409 3.09506 0
M  V30 7729 H 751.893 -0.701092 0.438633 0
M  V30 7730 H 754.439 -0.898165 1.43983 0
M  V30 7731 H 753.211 -2.3454 3.1322 0
M  V30 7732 H 752.834 -3.50804 1.87142 0
M  V30 7733 N 753.831 -1.1567 -1.07043 0
M  V30 7734 C 755.079 -0.931673 -1.79344 0
M  V30 7735 C 755.4 0.542421 -1.87304 0
M  V30 7736 O 754.67 1.39418 -1.37621 0
M  V30 7737 H 753.25 -0.34171 -0.664262 0
M  V30 7738 H 755.912 -1.45795 -1.29344 0
M  V30 7739 H 755.008 -1.34379 -2.81689 0
M  V30 7740 N 755.309 1.25446 -0.953992 0
M  V30 7741 C 756.534 1.97755 -0.625129 0
M  V30 7742 C 756.959 1.70437 0.795787 0
M  V30 7743 O 756.317 0.95992 1.53803 0
M  V30 7744 C 756.365 3.49463 -0.889251 0
M  V30 7745 O 755.469 4.12387 0.0322757 0
M  V30 7746 H 754.81 0.61998 -0.237742 0
M  V30 7747 H 757.34 1.59582 -1.28041 0
M  V30 7748 H 757.35 3.99772 -0.815263 0
M  V30 7749 H 756.025 3.68676 -1.92487 0
M  V30 7750 H 754.602 3.72782 -0.0938625 0
M  V30 7751 N 756.787 0.722489 1.40064 0
M  V30 7752 C 758.064 0.191829 1.94657 0
M  V30 7753 C 758.444 -1.30389 1.66018 0
M  V30 7754 O 757.792 -2.06342 0.981588 0
M  V30 7755 C 758.002 0.511978 3.45224 0
M  V30 7756 C 759.35 0.454426 4.22161 0
M  V30 7757 O 760.374 0.448438 3.53366 0
M  V30 7758 O 759.233 0.437986 5.44742 0
M  V30 7759 H 756.327 0.0307821 0.826427 0
M  V30 7760 H 758.873 0.800493 1.49634 0
M  V30 7761 H 757.645 1.54622 3.59455 0
M  V30 7762 H 757.268 -0.126296 3.97399 0
M  V30 7763 N 758.265 -1.50454 0.469181 0
M  V30 7764 C 759.676 -1.86695 0.0136034 0
M  V30 7765 C 760.027 -1.38413 -1.39055 0
M  V30 7766 O 759.152 -0.748294 -2.03051 0
M  V30 7767 C 759.747 -3.38795 0.0179098 0
M  V30 7768 C 758.306 -3.74455 -0.382191 0
M  V30 7769 C 757.453 -2.74338 0.404207 0
M  V30 7770 H 760.404 -1.43225 0.683547 0
M  V30 7771 H 760.425 -3.72321 -0.78468 0
M  V30 7772 H 759.937 -3.73906 1.04 0
M  V30 7773 H 758.038 -3.44944 -1.4087 0
M  V30 7774 H 758.151 -4.79025 -0.084862 0
M  V30 7775 H 756.515 -2.54305 -0.141829 0
M  V30 7776 H 757.298 -3.12293 1.42577 0
M  V30 7777 N 759.743 -0.201713 -1.56304 0
M  V30 7778 C 760.653 0.728296 -2.23009 0
M  V30 7779 C 761.669 1.22945 -1.23128 0
M  V30 7780 O 762.845 1.27523 -1.55884 0
M  V30 7781 C 759.91 1.92792 -2.88153 0
M  V30 7782 C 758.971 1.47068 -4.03323 0
M  V30 7783 C 758.204 2.61312 -4.65351 0
M  V30 7784 O 758.427 3.7896 -4.26317 0
M  V30 7785 O 757.361 2.33646 -5.54701 0
M  V30 7786 H 761.187 0.190166 -3.03104 0
M  V30 7787 H 758.772 0.0278725 -1.49374 0
M  V30 7788 H 760.654 2.6289 -3.29343 0
M  V30 7789 H 759.329 2.45452 -2.11033 0
M  V30 7790 H 758.236 0.738299 -3.66742 0
M  V30 7791 H 759.569 0.990666 -4.82127 0
M  V30 7792 N 761.222 1.57436 0.0718424 0
M  V30 7793 C 762.469 1.87248 0.771007 0
M  V30 7794 C 762.797 0.793441 1.7758 0
M  V30 7795 O 762.052 -0.210565 1.94564 0
M  V30 7796 C 762.351 3.23723 1.51455 0
M  V30 7797 C 762.017 4.46194 0.649736 0
M  V30 7798 C 760.679 4.79438 0.411409 0
M  V30 7799 C 763.031 5.21176 0.05004 0
M  V30 7800 C 760.359 5.85077 -0.436096 0
M  V30 7801 C 762.711 6.27712 -0.784919 0
M  V30 7802 C 761.375 6.59457 -1.03312 0
M  V30 7803 H 760.645 0.685188 0.282132 0
M  V30 7804 H 763.292 1.91474 0.0317896 0
M  V30 7805 H 761.597 3.15287 2.32597 0
M  V30 7806 H 763.294 3.44023 2.06031 0
M  V30 7807 H 759.884 4.20175 0.84562 0
M  V30 7808 H 764.068 4.95806 0.221282 0
M  V30 7809 H 759.324 6.08071 -0.637136 0
M  V30 7810 H 763.498 6.84974 -1.25635 0
M  V30 7811 H 761.125 7.4114 -1.6916 0
M  V30 7812 N 762.7 -0.34323 1.53817 0
M  V30 7813 C 763.647 -1.42153 1.81827 0
M  V30 7814 C 764.617 -1.52251 0.663996 0
M  V30 7815 O 765.802 -1.67784 0.908461 0
M  V30 7816 C 762.942 -2.78799 2.03384 0
M  V30 7817 C 762.055 -2.7749 3.31094 0
M  V30 7818 C 761.19 -4.05856 3.42717 0
M  V30 7819 C 760.229 -3.98776 4.64375 0
M  V30 7820 N 759.366 -5.18833 4.73029 0
M  V30 7821 H 764.206 -1.17567 2.73829 0
M  V30 7822 H 761.743 -0.569506 1.35628 0
M  V30 7823 H 763.701 -3.58211 2.13872 0
M  V30 7824 H 762.331 -3.01736 1.14696 0
M  V30 7825 H 761.383 -1.90182 3.29446 0
M  V30 7826 H 762.695 -2.68137 4.206 0
M  V30 7827 H 761.849 -4.93691 3.52638 0
M  V30 7828 H 760.588 -4.1799 2.51267 0
M  V30 7829 H 759.593 -3.09325 4.5453 0
M  V30 7830 H 760.818 -3.88224 5.57189 0
M  V30 7831 H 758.764 -5.31511 3.84489 0
M  V30 7832 H 758.681 -5.11737 5.56472 0
M  V30 7833 H 759.949 -6.08439 4.87261 0
M  V30 7834 N 764.178 -1.45556 -0.604258 0
M  V30 7835 C 765.406 -1.53278 -1.38973 0
M  V30 7836 C 765.821 -0.166509 -1.88064 0
M  V30 7837 O 765.178 0.832519 -1.62405 0
M  V30 7838 C 765.229 -2.51992 -2.59195 0
M  V30 7839 O 764.95 -3.8331 -2.12143 0
M  V30 7840 C 766.451 -2.69445 -3.52015 0
M  V30 7841 H 763.671 -0.519003 -0.425297 0
M  V30 7842 H 766.215 -1.90773 -0.736621 0
M  V30 7843 H 764.37 -2.17561 -3.2054 0
M  V30 7844 H 764.784 -4.3685 -2.90279 0
M  V30 7845 H 766.258 -3.42485 -4.32907 0
M  V30 7846 H 766.735 -1.75596 -4.0257 0
M  V30 7847 H 767.341 -3.04886 -2.9652 0
M  V30 7848 N 765.656 0.84705 -1.32902 0
M  V30 7849 C 766.586 1.97166 -1.25091 0
M  V30 7850 C 767.567 1.69578 -0.133161 0
M  V30 7851 O 768.752 1.91519 -0.321591 0
M  V30 7852 C 765.882 3.33157 -0.981006 0
M  V30 7853 C 764.836 3.75119 -2.06082 0
M  V30 7854 C 764.162 5.08826 -1.64318 0
M  V30 7855 C 765.462 3.89774 -3.47669 0
M  V30 7856 H 767.156 2.03958 -2.19184 0
M  V30 7857 H 764.702 0.979907 -1.05517 0
M  V30 7858 H 766.655 4.11393 -0.912891 0
M  V30 7859 H 765.379 3.266 -0.00445559 0
M  V30 7860 H 764.038 2.9914 -2.11921 0
M  V30 7861 H 763.686 4.98732 -0.653876 0
M  V30 7862 H 763.386 5.37873 -2.36572 0
M  V30 7863 H 764.91 5.89546 -1.58958 0
M  V30 7864 H 766.324 4.58343 -3.44376 0
M  V30 7865 H 764.721 4.30248 -4.18338 0
M  V30 7866 H 765.791 2.92463 -3.86773 0
M  V30 7867 N 767.134 1.16236 1.06428 0
M  V30 7868 C 768.545 0.950942 1.60667 0
M  V30 7869 C 768.896 -0.505491 1.89576 0
M  V30 7870 O 768.021 -1.37843 1.66818 0
M  V30 7871 C 768.616 1.71982 2.91904 0
M  V30 7872 C 767.175 1.55342 3.4285 0
M  V30 7873 C 766.322 1.72942 2.16763 0
M  V30 7874 H 769.273 1.31126 0.893959 0
M  V30 7875 H 769.294 1.19483 3.61253 0
M  V30 7876 H 768.806 2.77978 2.70831 0
M  V30 7877 H 766.907 0.5178 3.68985 0
M  V30 7878 H 767.02 2.33643 4.18267 0
M  V30 7879 H 765.384 1.15673 2.26918 0
M  V30 7880 H 766.167 2.80324 1.98175 0
M  V30 7881 N 768.612 -1.24939 0.960631 0
M  V30 7882 C 769.861 -1.92118 0.614298 0
M  V30 7883 C 770.174 -1.75998 -0.853474 0
M  V30 7884 O 771.38 -2.37804 -1.31003 0
M  V30 7885 C 769.836 -3.44303 1.04801 0
M  V30 7886 C 769.444 -3.69123 2.53875 0
M  V30 7887 C 771.188 -4.17375 0.774497 0
M  V30 7888 C 769.095 -5.14843 2.91016 0
M  V30 7889 H 768.025 -0.719319 0.226045 0
M  V30 7890 H 770.676 -1.41701 1.16589 0
M  V30 7891 H 769.058 -3.93715 0.42479 0
M  V30 7892 H 770.232 -3.30339 3.21267 0
M  V30 7893 H 768.547 -3.09323 2.78762 0
M  V30 7894 H 771.144 -5.24723 1.02808 0
M  V30 7895 H 771.487 -4.15294 -0.289192 0
M  V30 7896 H 772.02 -3.7389 1.35835 0
M  V30 7897 H 768.759 -5.2204 3.96427 0
M  V30 7898 H 768.279 -5.54652 2.28302 0
M  V30 7899 H 769.958 -5.83017 2.80535 0
M  V30 7900 N 770.09 -0.729906 -1.39679 0
M  V30 7901 C 771.053 -0.0951668 -2.29002 0
M  V30 7902 C 772.053 0.672471 -1.46063 0
M  V30 7903 O 773.243 0.502245 -1.66803 0
M  V30 7904 C 770.375 0.874631 -3.29489 0
M  V30 7905 H 771.568 -0.882062 -2.86635 0
M  V30 7906 H 769.121 -0.495424 -1.4824 0
M  V30 7907 H 769.856 1.68807 -2.76902 0
M  V30 7908 H 769.641 0.326893 -3.90735 0
M  V30 7909 H 771.131 1.31548 -3.96339 0
M  V30 7910 N 771.568 1.50203 -0.477153 0
M  V30 7911 C 772.478 2.32421 0.319027 0
M  V30 7912 C 773.494 1.43075 0.990233 0
M  V30 7913 O 774.67 1.76123 0.976873 0
M  V30 7914 C 771.735 3.17909 1.38328 0
M  V30 7915 C 770.796 4.23082 0.728036 0
M  V30 7916 C 770.029 5.04484 1.74158 0
M  V30 7917 O 770.252 4.8705 2.96881 0
M  V30 7918 O 769.186 5.8747 1.31006 0
M  V30 7919 H 773.012 3.01638 -0.353281 0
M  V30 7920 H 770.597 1.47478 -0.238891 0
M  V30 7921 H 772.479 3.70937 1.9996 0
M  V30 7922 H 771.154 2.51413 2.03895 0
M  V30 7923 H 770.061 3.7403 0.07261 0
M  V30 7924 H 771.394 4.92065 0.115216 0
M  V30 7925 N 773.046 0.209999 1.56195 0
M  V30 7926 C 774.292 -0.418742 1.99043 0
M  V30 7927 C 774.647 -1.58201 1.095 0
M  V30 7928 O 773.94 -1.91069 0.1425 0
M  V30 7929 C 774.134 -0.91312 3.45539 0
M  V30 7930 C 773.963 0.200706 4.49252 0
M  V30 7931 C 772.733 0.663287 5.00928 0
M  V30 7932 C 774.931 1.01493 5.04186 0
M  V30 7933 N 772.913 1.75338 5.88328 0
M  V30 7934 C 774.284 1.95411 5.884 0
M  V30 7935 C 776.339 1.05567 4.8658 0
M  V30 7936 C 775.042 2.93069 6.56889 0
M  V30 7937 C 777.068 2.02037 5.55819 0
M  V30 7938 C 776.43 2.94697 6.39791 0
M  V30 7939 H 772.529 -0.120226 0.772703 0
M  V30 7940 H 775.113 0.319119 1.92067 0
M  V30 7941 H 773.284 -1.62038 3.52985 0
M  V30 7942 H 775.016 -1.51371 3.75325 0
M  V30 7943 H 771.771 0.253945 4.72919 0
M  V30 7944 H 772.195 2.30007 6.3673 0
M  V30 7945 H 776.837 0.353242 4.21322 0
M  V30 7946 H 774.555 3.6428 7.21336 0
M  V30 7947 H 778.141 2.05849 5.44167 0
M  V30 7948 H 777.021 3.68128 6.92425 0
M  V30 7949 N 774.524 -1.57472 -0.0634922 0
M  V30 7950 C 775.487 -2.03268 -1.059 0
M  V30 7951 C 776.487 -0.931028 -1.31105 0
M  V30 7952 O 777.677 -1.19567 -1.26686 0
M  V30 7953 C 774.809 -2.42039 -2.40062 0
M  V30 7954 H 776.002 -2.92454 -0.664119 0
M  V30 7955 H 773.555 -1.53206 -0.309444 0
M  V30 7956 H 774.29 -1.55904 -2.84367 0
M  V30 7957 H 774.075 -3.22437 -2.23108 0
M  V30 7958 H 775.565 -2.78017 -3.11603 0
M  V30 7959 N 776.003 0.335068 -1.53997 0
M  V30 7960 C 777.251 1.07223 -1.71312 0
M  V30 7961 C 777.572 1.88911 -0.483486 0
M  V30 7962 O 776.842 1.89344 0.50257 0
M  V30 7963 H 775.422 0.398846 -0.63161 0
M  V30 7964 H 778.084 0.374288 -1.91272 0
M  V30 7965 H 777.18 1.7448 -2.58772 0
M  V30 7966 N 777.481 1.45874 0.596531 0
M  V30 7967 C 778.73 1.49737 1.35135 0
M  V30 7968 C 779.043 0.147755 1.95041 0
M  V30 7969 O 780.249 0.0640984 2.71424 0
M  V30 7970 C 778.705 2.6378 2.44843 0
M  V30 7971 C 778.313 4.05102 1.91301 0
M  V30 7972 C 780.057 2.769 3.21755 0
M  V30 7973 C 777.964 5.10508 2.98557 0
M  V30 7974 H 776.894 0.557219 0.507959 0
M  V30 7975 H 779.545 1.72046 0.638147 0
M  V30 7976 H 777.927 2.34774 3.189 0
M  V30 7977 H 779.101 4.43836 1.2388 0
M  V30 7978 H 777.416 3.96528 1.271 0
M  V30 7979 H 780.013 3.52819 4.01775 0
M  V30 7980 H 780.356 1.83924 3.73467 0
M  V30 7981 H 780.889 3.05485 2.54802 0
M  V30 7982 H 777.628 6.0523 2.51749 0
M  V30 7983 H 777.148 4.76332 3.6451 0
M  V30 7984 H 778.827 5.35745 3.62748 0
M  V30 7985 N 778.959 -0.83999 1.33349 0
M  V30 7986 C 780.187 -1.62728 1.27778 0
M  V30 7987 C 780.602 -1.88191 -0.151505 0
M  V30 7988 O 779.959 -1.46128 -1.09329 0
M  V30 7989 C 780.01 -2.97813 2.04913 0
M  V30 7990 O 779.731 -2.73469 3.42266 0
M  V30 7991 C 781.232 -3.92245 2.0654 0
M  V30 7992 H 778.452 -0.506374 0.440257 0
M  V30 7993 H 780.996 -1.04637 1.75703 0
M  V30 7994 H 779.151 -3.52509 1.60674 0
M  V30 7995 H 779.565 -3.59483 3.81932 0
M  V30 7996 H 781.039 -4.84249 2.64966 0
M  V30 7997 H 781.516 -4.26332 1.05537 0
M  V30 7998 H 782.122 -3.43487 2.50793 0
M  V30 7999 N 780.437 -1.16799 -1.0581 0
M  V30 8000 C 781.347 -0.893492 -2.16919 0
M  V30 8001 C 782.363 0.136061 -1.73467 0
M  V30 8002 O 783.539 -0.0417348 -2.01357 0
M  V30 8003 C 780.604 -0.403763 -3.44341 0
M  V30 8004 C 779.665 -1.49914 -4.02274 0
M  V30 8005 C 778.898 -1.03269 -5.23614 0
M  V30 8006 O 779.121 0.115647 -5.70283 0
M  V30 8007 O 778.055 -1.8231 -5.73626 0
M  V30 8008 H 781.881 -1.82274 -2.42919 0
M  V30 8009 H 779.466 -0.948361 -1.1544 0
M  V30 8010 H 781.348 -0.137874 -4.21174 0
M  V30 8011 H 780.023 0.497413 -3.19855 0
M  V30 8012 H 778.93 -1.81883 -3.26909 0
M  V30 8013 H 780.263 -2.3758 -4.31064 0
M  V30 8014 N 781.915 1.24427 -0.967243 0
M  V30 8015 C 783.163 1.92107 -0.627638 0
M  V30 8016 C 783.484 1.75991 0.83978 0
M  V30 8017 O 782.754 1.13118 1.59941 0
M  V30 8018 H 781.334 0.710986 -0.229145 0
M  V30 8019 H 783.996 1.51331 -1.22821 0
M  V30 8020 H 783.092 2.99791 -0.867844 0
M  V30 8021 N 783.393 0.737304 1.3929 0
M  V30 8022 C 784.325 0.0592106 2.29124 0
M  V30 8023 C 785.338 -0.701026 1.46934 0
M  V30 8024 O 786.527 -0.544808 1.69983 0
M  V30 8025 C 783.627 -0.940358 3.25592 0
M  V30 8026 C 782.8 -0.241163 4.36735 0
M  V30 8027 C 781.859 -1.14916 5.13498 0
M  V30 8028 O 780.885 -0.625783 5.6575 0
M  V30 8029 N 782.087 -2.47869 5.2492 0
M  V30 8030 H 784.852 0.830647 2.87959 0
M  V30 8031 H 782.413 0.586718 1.50895 0
M  V30 8032 H 784.405 -1.55046 3.73822 0
M  V30 8033 H 782.975 -1.61299 2.67771 0
M  V30 8034 H 782.195 0.549441 3.90352 0
M  V30 8035 H 783.483 0.243299 5.08218 0
M  V30 8036 H 782.881 -2.92864 4.83991 0
M  V30 8037 H 781.438 -3.03969 5.76581 0
M  V30 8038 N 784.871 -1.49948 0.485112 0
M  V30 8039 C 786.282 -1.8667 0.0334041 0
M  V30 8040 C 786.633 -1.3988 -1.37579 0
M  V30 8041 O 785.758 -0.769788 -2.02245 0
M  V30 8042 C 786.353 -3.38757 0.0538426 0
M  V30 8043 C 784.912 -3.74839 -0.342453 0
M  V30 8044 C 784.059 -2.73894 0.433281 0
M  V30 8045 H 787.01 -1.42492 0.698699 0
M  V30 8046 H 787.031 -3.73132 -0.745146 0
M  V30 8047 H 786.543 -3.72782 1.07959 0
M  V30 8048 H 784.644 -3.46419 -1.37203 0
M  V30 8049 H 784.757 -4.79088 -0.0340503 0
M  V30 8050 H 783.121 -2.54441 -0.114849 0
M  V30 8051 H 783.904 -3.10763 1.45881 0
M  V30 8052 N 786.349 -0.21828 -1.56081 0
M  V30 8053 C 787.765 0.137168 -1.59009 0
M  V30 8054 C 787.965 1.59215 -1.23503 0
M  V30 8055 O 787.021 2.33178 -0.968716 0
M  V30 8056 C 788.334 -0.186162 -3.00123 0
M  V30 8057 C 789.882 -0.128135 -3.12738 0
M  V30 8058 C 790.357 -0.425094 -4.56023 0
M  V30 8059 N 791.848 -0.374547 -4.61683 0
M  V30 8060 C 792.583 -0.57786 -5.70481 0
M  V30 8061 N 792.079 -0.842771 -6.87655 0
M  V30 8062 N 793.872 -0.510521 -5.59777 0
M  V30 8063 H 786.023 -1.16746 -1.77437 0
M  V30 8064 H 788.286 -0.467706 -0.824594 0
M  V30 8065 H 787.992 -1.19589 -3.30744 0
M  V30 8066 H 787.866 0.500388 -3.73866 0
M  V30 8067 H 790.253 0.872224 -2.81915 0
M  V30 8068 H 790.334 -0.848112 -2.41331 0
M  V30 8069 H 789.978 -1.42288 -4.87562 0
M  V30 8070 H 789.908 0.316038 -5.25651 0
M  V30 8071 H 792.399 -0.177356 -3.77484 0
M  V30 8072 H 792.712 -0.986095 -7.66483 0
M  V30 8073 H 791.057 -0.879929 -6.89407 0
M  V30 8074 H 794.248 -0.303813 -4.67113 0
M  V30 8075 H 794.421 -0.672378 -6.44502 0
M  V30 8076 N 787.827 1.57504 0.0551401 0
M  V30 8077 C 789.073 1.88334 0.752216 0
M  V30 8078 C 789.406 0.812742 1.76375 0
M  V30 8079 O 788.681 -0.175198 1.93709 0
M  V30 8080 C 788.964 3.29824 1.44528 0
M  V30 8081 C 788.817 4.47553 0.449026 0
M  V30 8082 C 790.136 3.69808 2.38601 0
M  V30 8083 H 787.255 0.684973 0.271995 0
M  V30 8084 H 789.897 1.89994 0.0151895 0
M  V30 8085 H 788.047 3.28539 2.07351 0
M  V30 8086 H 789.719 4.60967 -0.175277 0
M  V30 8087 H 787.962 4.33168 -0.234162 0
M  V30 8088 H 788.633 5.43376 0.971917 0
M  V30 8089 H 791.109 3.72293 1.85842 0
M  V30 8090 H 789.985 4.69665 2.84088 0
M  V30 8091 H 790.246 3.00641 3.24141 0
M  V30 8092 N 789.305 -0.326896 1.54172 0
M  V30 8093 C 790.551 -1.06681 1.72473 0
M  V30 8094 C 790.884 -1.87779 0.49523 0
M  V30 8095 O 790.159 -1.87754 -0.507803 0
M  V30 8096 C 790.442 -1.99429 2.99834 0
M  V30 8097 C 790.295 -1.21682 4.33028 0
M  V30 8098 C 791.614 -2.99002 3.22933 0
M  V30 8099 H 788.733 -0.386438 0.627563 0
M  V30 8100 H 791.375 -0.343779 1.86864 0
M  V30 8101 H 789.525 -2.61081 2.87696 0
M  V30 8102 H 791.197 -0.625153 4.57044 0
M  V30 8103 H 789.44 -0.519045 4.30684 0
M  V30 8104 H 790.111 -1.89766 5.18356 0
M  V30 8105 H 792.587 -2.4747 3.34511 0
M  V30 8106 H 791.463 -3.61085 4.13412 0
M  V30 8107 H 791.724 -3.71281 2.40006 0
M  V30 8108 N 790.784 -1.46188 -0.588786 0
M  V30 8109 C 791.716 -1.52319 -1.71265 0
M  V30 8110 C 792.729 -0.412096 -1.57498 0
M  V30 8111 O 793.918 -0.680146 -1.65034 0
M  V30 8112 C 791.018 -1.38164 -3.09458 0
M  V30 8113 C 790.191 -2.63284 -3.49286 0
M  V30 8114 C 789.25 -2.43415 -4.66514 0
M  V30 8115 O 788.276 -3.17113 -4.72682 0
M  V30 8116 N 789.478 -1.49187 -5.61002 0
M  V30 8117 H 792.243 -2.49219 -1.66463 0
M  V30 8118 H 789.804 -1.42167 -0.774601 0
M  V30 8119 H 791.796 -1.22653 -3.85666 0
M  V30 8120 H 790.366 -0.494678 -3.08661 0
M  V30 8121 H 789.586 -2.93779 -2.62845 0
M  V30 8122 H 790.874 -3.46413 -3.7266 0
M  V30 8123 H 790.272 -0.884027 -5.5875 0
M  V30 8124 H 788.829 -1.39642 -6.36666 0
M  V30 8125 N 792.262 0.832906 -1.33792 0
M  V30 8126 C 793.51 1.58539 -1.25338 0
M  V30 8127 C 793.831 1.94175 0.179204 0
M  V30 8128 O 793.101 1.61458 1.10941 0
M  V30 8129 H 791.681 0.58784 -0.460926 0
M  V30 8130 H 794.343 0.995064 -1.67584 0
M  V30 8131 H 793.439 2.51268 -1.85123 0
M  V30 8132 N 793.74 1.17359 1.05189 0
M  V30 8133 C 794.65 0.904984 2.16442 0
M  V30 8134 C 795.666 -0.12686 1.73537 0
M  V30 8135 O 796.842 0.0524127 2.01332 0
M  V30 8136 C 793.907 0.422019 3.44122 0
M  V30 8137 C 792.968 1.52045 4.01473 0
M  V30 8138 C 792.201 1.06044 5.23059 0
M  V30 8139 O 792.424 -0.0854023 5.70336 0
M  V30 8140 O 791.358 1.85349 5.72651 0
M  V30 8141 H 795.184 1.8356 2.41949 0
M  V30 8142 H 792.769 0.95447 1.14936 0
M  V30 8143 H 794.651 0.160208 4.21095 0
M  V30 8144 H 793.326 -0.480444 3.20115 0
M  V30 8145 H 792.233 1.83615 3.25939 0
M  V30 8146 H 793.566 2.39863 4.29798 0
M  V30 8147 N 795.218 -1.23913 0.973828 0
M  V30 8148 C 796.465 -1.92151 0.639079 0
M  V30 8149 C 796.793 -1.76064 -0.826545 0
M  V30 8150 O 796.048 -1.11126 -1.61088 0
M  V30 8151 C 796.347 -3.4406 0.967356 0
M  V30 8152 C 796.013 -3.80321 2.42212 0
M  V30 8153 C 794.675 -3.8993 2.81971 0
M  V30 8154 C 797.027 -3.97935 3.36596 0
M  V30 8155 C 794.355 -4.14575 4.15144 0
M  V30 8156 C 796.707 -4.24079 4.69404 0
M  V30 8157 C 795.371 -4.31908 5.08932 0
M  V30 8158 H 794.641 -0.70313 0.233856 0
M  V30 8159 H 797.288 -1.47072 1.22646 0
M  V30 8160 H 795.593 -3.90667 0.297807 0
M  V30 8161 H 797.29 -3.95077 0.686654 0
M  V30 8162 H 793.88 -3.73411 2.10385 0
M  V30 8163 H 798.064 -3.89908 3.07059 0
M  V30 8164 H 793.32 -4.18858 4.45385 0
M  V30 8165 H 797.494 -4.36652 5.42502 0
M  V30 8166 H 795.121 -4.50758 6.12145 0
M  V30 8167 N 796.696 -0.74468 -1.38897 0
M  V30 8168 C 797.644 -0.100312 -2.32384 0
M  V30 8169 C 798.638 0.715191 -1.53562 0
M  V30 8170 O 799.844 0.615288 -1.69157 0
M  V30 8171 H 796.219 -0.0136403 -0.751876 0
M  V30 8172 H 798.19 -0.905007 -2.84345 0
M  V30 8173 C 796.939 0.785432 -3.38713 0
M  V30 8174 H 796.262 0.167308 -3.9945 0
M  V30 8175 H 797.702 1.20374 -4.06554 0
M  V30 8176 C 796.161 1.92408 -2.76552 0
M  V30 8177 O 796.691 3.01752 -2.65157 0
M  V30 8178 N 794.897 1.71642 -2.34494 0
M  V30 8179 H 794.444 0.827079 -2.43961 0
M  V30 8180 H 794.402 2.48 -1.93244 0
M  V30 8181 N 798.174 1.49689 -0.493057 0
M  V30 8182 C 799.121 2.28976 0.28959 0
M  V30 8183 C 800.091 1.35011 0.967536 0
M  V30 8184 O 801.276 1.63964 0.975736 0
M  V30 8185 C 798.416 3.1748 1.35279 0
M  V30 8186 C 797.529 4.26496 0.687418 0
M  V30 8187 C 796.664 5.02226 1.73038 0
M  V30 8188 C 795.703 6.03089 1.04645 0
M  V30 8189 N 794.84 6.72014 2.03325 0
M  V30 8190 H 799.68 2.954 -0.392798 0
M  V30 8191 H 797.217 1.45657 -0.205554 0
M  V30 8192 H 799.175 3.67162 1.98111 0
M  V30 8193 H 797.805 2.53057 2.00405 0
M  V30 8194 H 796.857 3.80362 -0.0540001 0
M  V30 8195 H 798.169 4.98578 0.14864 0
M  V30 8196 H 797.323 5.55737 2.43395 0
M  V30 8197 H 796.062 4.29899 2.303 0
M  V30 8198 H 795.067 5.48817 0.328606 0
M  V30 8199 H 796.292 6.77398 0.480428 0
M  V30 8200 H 794.238 6.02464 2.59564 0
M  V30 8201 H 794.155 7.40046 1.54492 0
M  V30 8202 H 795.423 7.30133 2.72995 0
M  V30 8203 N 799.652 0.226554 1.55963 0
M  V30 8204 C 800.929 -0.453058 1.90281 0
M  V30 8205 C 801.309 -1.77377 1.14458 0
M  V30 8206 O 800.657 -2.27067 0.255496 0
M  V30 8207 C 800.867 -0.641108 3.43061 0
M  V30 8208 C 802.215 -0.946265 4.13921 0
M  V30 8209 O 803.239 -0.727713 3.48687 0
M  V30 8210 O 802.098 -1.36131 5.29274 0
M  V30 8211 H 799.192 -0.240242 0.791336 0
M  V30 8212 H 801.738 0.26911 1.67553 0
M  V30 8213 H 800.51 0.290283 3.90222 0
M  V30 8214 H 800.133 -1.41458 3.71585 0
M  V30 8215 N 801.13 -1.57531 -0.0467866 0
M  V30 8216 C 802.378 -1.88078 -0.739656 0
M  V30 8217 C 802.699 -0.821936 -1.76831 0
M  V30 8218 O 801.969 0.146582 -1.95351 0
M  V30 8219 H 800.549 -0.694075 -0.276169 0
M  V30 8220 H 803.211 -1.94893 -0.0169391 0
M  V30 8221 H 802.307 -2.86396 -1.24031 0
M  V30 8222 N 802.608 0.318715 -1.54344 0
M  V30 8223 C 803.836 1.0755 -1.7675 0
M  V30 8224 C 804.251 1.81543 -0.518422 0
M  V30 8225 O 803.608 1.75198 0.511078 0
M  V30 8226 C 803.659 2.06983 -2.96378 0
M  V30 8227 O 803.38 1.35995 -4.16458 0
M  V30 8228 C 804.881 2.94841 -3.31034 0
M  V30 8229 H 802.101 0.319711 -0.589937 0
M  V30 8230 H 804.645 0.363369 -2.01246 0
M  V30 8231 H 802.8 2.73724 -2.74142 0
M  V30 8232 H 803.214 2.02623 -4.83781 0
M  V30 8233 H 804.688 3.60496 -4.18027 0
M  V30 8234 H 805.165 3.62199 -2.48412 0
M  V30 8235 H 805.771 2.33656 -3.55366 0
M  V30 8236 N 804.086 1.46499 0.581025 0
M  V30 8237 C 804.996 1.59778 1.71779 0
M  V30 8238 C 806.012 0.481223 1.67213 0
M  V30 8239 O 807.188 0.74557 1.87091 0
M  V30 8240 C 804.253 1.58626 3.08283 0
M  V30 8241 C 803.314 2.81527 3.241 0
M  V30 8242 C 802.547 2.80421 4.54092 0
M  V30 8243 O 802.77 1.89262 5.38085 0
M  V30 8244 O 801.704 3.71984 4.73193 0
M  V30 8245 H 805.53 2.55918 1.63523 0
M  V30 8246 H 803.115 1.29311 0.748267 0
M  V30 8247 H 804.997 1.60686 3.89561 0
M  V30 8248 H 803.672 0.656467 3.16973 0
M  V30 8249 H 802.579 2.85021 2.42309 0
M  V30 8250 H 803.912 3.73721 3.20302 0
M  V30 8251 N 805.565 -0.825799 1.34232 0
M  V30 8252 C 806.811 -1.58419 1.26614 0
M  V30 8253 C 807.144 -1.93503 -0.164341 0
M  V30 8254 O 806.419 -1.59785 -1.109 0
M  V30 8255 C 806.702 -2.8856 2.15418 0
M  V30 8256 C 806.555 -2.60075 3.66989 0
M  V30 8257 C 807.874 -3.90107 2.03726 0
M  V30 8258 H 804.993 -0.574794 0.461282 0
M  V30 8259 H 807.635 -0.951519 1.64457 0
M  V30 8260 H 805.785 -3.42553 1.83275 0
M  V30 8261 H 807.457 -2.12414 4.09485 0
M  V30 8262 H 805.7 -1.93565 3.88221 0
M  V30 8263 H 806.371 -3.52866 4.24488 0
M  V30 8264 H 808.847 -3.45459 2.31942 0
M  V30 8265 H 807.723 -4.78976 2.68092 0
M  V30 8266 H 807.984 -4.30329 1.01337 0
M  V30 8267 N 807.043 -1.17915 -1.04565 0
M  V30 8268 C 808.289 -0.982872 -1.78076 0
M  V30 8269 C 808.644 0.482843 -1.86243 0
M  V30 8270 O 807.937 1.35383 -1.3558 0
M  V30 8271 C 808.131 -1.56528 -3.213 0
M  V30 8272 C 807.96 -3.0861 -3.27093 0
M  V30 8273 C 806.73 -3.77389 -3.36014 0
M  V30 8274 C 808.928 -4.06146 -3.15515 0
M  V30 8275 N 806.91 -5.1702 -3.31004 0
M  V30 8276 C 808.281 -5.32268 -3.17948 0
M  V30 8277 C 810.336 -3.97732 -2.99522 0
M  V30 8278 C 809.039 -6.50951 -3.06031 0
M  V30 8279 C 811.065 -5.16007 -2.88948 0
M  V30 8280 C 810.427 -6.41018 -2.9202 0
M  V30 8281 H 806.526 -0.413617 -0.66366 0
M  V30 8282 H 809.11 -1.49607 -1.24603 0
M  V30 8283 H 807.281 -1.07833 -3.73131 0
M  V30 8284 H 809.013 -1.30501 -3.83082 0
M  V30 8285 H 805.768 -3.28098 -3.41538 0
M  V30 8286 H 806.192 -5.90031 -3.31952 0
M  V30 8287 H 810.834 -3.01919 -2.95981 0
M  V30 8288 H 808.552 -7.46968 -3.08326 0
M  V30 8289 H 812.138 -5.11283 -2.77635 0
M  V30 8290 H 811.018 -7.30999 -2.83919 0
M  V30 8291 N 808.521 1.23394 -0.980386 0
M  V30 8292 C 809.768 1.91809 -0.649261 0
M  V30 8293 C 810.096 1.765 0.817197 0
M  V30 8294 O 809.351 1.11979 1.60497 0
M  V30 8295 C 809.65 3.43542 -0.985588 0
M  V30 8296 C 809.316 3.79031 -2.44225 0
M  V30 8297 C 807.978 3.88429 -2.84035 0
M  V30 8298 C 810.33 3.96145 -3.38702 0
M  V30 8299 C 807.658 4.12368 -4.17336 0
M  V30 8300 C 810.01 4.21583 -4.71646 0
M  V30 8301 C 808.674 4.29203 -5.11215 0
M  V30 8302 H 807.944 0.70188 -0.237581 0
M  V30 8303 H 810.591 1.4642 -1.23424 0
M  V30 8304 H 808.896 3.90503 -0.318521 0
M  V30 8305 H 810.593 3.94708 -0.707596 0
M  V30 8306 H 807.183 3.7229 -2.12362 0
M  V30 8307 H 811.367 3.88274 -3.09123 0
M  V30 8308 H 806.623 4.1649 -4.47601 0
M  V30 8309 H 810.797 4.33769 -5.4481 0
M  V30 8310 H 808.424 4.47505 -6.14527 0
M  V30 8311 N 809.999 0.752036 1.385 0
M  V30 8312 C 811.224 0.316993 2.04963 0
M  V30 8313 C 811.649 -1.04582 1.56346 0
M  V30 8314 O 811.007 -1.66616 0.714755 0
M  V30 8315 C 811.055 0.347235 3.58924 0
M  V30 8316 O 810.159 -0.659296 4.07096 0
M  V30 8317 H 809.5 0.140652 0.648932 0
M  V30 8318 H 812.03 1.02272 1.77205 0
M  V30 8319 H 812.04 0.19757 4.07521 0
M  V30 8320 H 810.715 1.34157 3.93668 0
M  V30 8321 H 809.292 -0.474371 3.6987 0
M  V30 8322 N 811.477 -1.49425 0.500989 0
M  V30 8323 C 812.723 -2.02753 -0.0436 0
M  V30 8324 C 813.056 -1.37991 -1.36646 0
M  V30 8325 O 812.331 -0.515597 -1.87542 0
M  V30 8326 C 812.614 -3.59565 -0.19616 0
M  V30 8327 C 812.467 -4.34855 1.14982 0
M  V30 8328 C 813.786 -4.30014 -0.936795 0
M  V30 8329 H 810.905 -0.73686 -0.0143711 0
M  V30 8330 H 813.547 -1.78448 0.652397 0
M  V30 8331 H 811.697 -3.80405 -0.788959 0
M  V30 8332 H 813.369 -4.25512 1.7815 0
M  V30 8333 H 811.612 -3.97414 1.73911 0
M  V30 8334 H 812.283 -5.42933 0.996385 0
M  V30 8335 H 814.759 -4.1383 -0.434036 0
M  V30 8336 H 813.635 -5.39483 -1.01238 0
M  V30 8337 H 813.896 -3.95257 -1.9805 0
M  V30 8338 N 812.955 -0.234822 -1.55841 0
M  V30 8339 C 814.201 0.387023 -1.99684 0
M  V30 8340 C 814.556 1.56439 -1.12003 0
M  V30 8341 O 813.849 1.90818 -0.172879 0
M  V30 8342 C 814.043 0.858032 -3.46947 0
M  V30 8343 C 813.872 -0.272152 -4.48876 0
M  V30 8344 C 812.642 -0.742896 -4.99809 0
M  V30 8345 C 814.84 -1.09501 -5.02508 0
M  V30 8346 N 812.822 -1.84675 -5.85464 0
M  V30 8347 C 814.193 -2.04748 -5.85217 0
M  V30 8348 C 816.248 -1.13295 -4.84839 0
M  V30 8349 C 814.951 -3.03483 -6.52143 0
M  V30 8350 C 816.977 -2.10854 -5.52535 0
M  V30 8351 C 816.339 -3.04838 -6.35022 0
M  V30 8352 H 812.438 0.107918 -0.774518 0
M  V30 8353 H 815.022 -0.349635 -1.91535 0
M  V30 8354 H 813.193 1.56401 -3.55518 0
M  V30 8355 H 814.925 1.45381 -3.77686 0
M  V30 8356 H 811.68 -0.32915 -4.72455 0
M  V30 8357 H 812.104 -2.40108 -6.32991 0
M  V30 8358 H 816.746 -0.420226 -4.20706 0
M  V30 8359 H 814.464 -3.7571 -7.15449 0
M  V30 8360 H 818.05 -2.1448 -5.40823 0
M  V30 8361 H 816.93 -3.79097 -6.8648 0
M  V30 8362 N 814.433 1.57553 0.0384317 0
M  V30 8363 C 815.381 2.07021 1.06043 0
M  V30 8364 C 816.375 0.982078 1.38028 0
M  V30 8365 O 817.581 1.16702 1.37042 0
M  V30 8366 H 813.956 0.660522 0.359464 0
M  V30 8367 H 815.927 2.91944 0.617339 0
M  V30 8368 C 814.676 2.55734 2.35574 0
M  V30 8369 H 813.999 3.39074 2.11822 0
M  V30 8370 H 815.439 2.94066 3.05452 0
M  V30 8371 C 813.898 1.45449 3.03885 0
M  V30 8372 O 814.428 0.815402 3.93337 0
M  V30 8373 N 812.634 1.19134 2.65058 0
M  V30 8374 H 812.181 1.71288 1.92401 0
M  V30 8375 H 812.139 0.455554 3.11082 0
M  V30 8376 N 815.911 -0.310526 1.54511 0
M  V30 8377 C 817.159 -1.04484 1.72996 0
M  V30 8378 C 817.48 -1.88118 0.513479 0
M  V30 8379 O 816.75 -1.90119 -0.472384 0
M  V30 8380 H 815.33 -0.388747 0.637875 0
M  V30 8381 H 817.992 -0.343811 1.91844 0
M  V30 8382 H 817.088 -1.70341 2.61515 0
M  V30 8383 N 817.389 -1.46805 -0.573248 0
M  V30 8384 C 818.336 -1.58084 -1.68161 0
M  V30 8385 C 819.306 -0.424636 -1.6058 0
M  V30 8386 O 820.491 -0.642623 -1.79652 0
M  V30 8387 C 817.631 -1.58601 -3.06496 0
M  V30 8388 C 816.744 -2.85023 -3.24632 0
M  V30 8389 C 815.879 -2.76981 -4.53271 0
M  V30 8390 C 814.918 -3.983 -4.64783 0
M  V30 8391 N 814.055 -3.88589 -5.84759 0
M  V30 8392 H 818.895 -2.52755 -1.57858 0
M  V30 8393 H 816.432 -1.25385 -0.769218 0
M  V30 8394 H 818.39 -1.56885 -3.86579 0
M  V30 8395 H 817.02 -0.674553 -3.15673 0
M  V30 8396 H 816.072 -2.96678 -2.38089 0
M  V30 8397 H 817.384 -3.7491 -3.29004 0
M  V30 8398 H 816.538 -2.73424 -5.41594 0
M  V30 8399 H 815.277 -1.84751 -4.51352 0
M  V30 8400 H 814.282 -4.02179 -3.74876 0
M  V30 8401 H 815.507 -4.91639 -4.68474 0
M  V30 8402 H 813.453 -2.99151 -5.83819 0
M  V30 8403 H 813.37 -4.7214 -5.90441 0
M  V30 8404 H 814.638 -3.89022 -6.75486 0
M  V30 8405 N 818.867 0.818669 -1.34668 0
M  V30 8406 C 820.144 1.56118 -1.17841 0
M  V30 8407 C 820.524 2.09646 0.24731 0
M  V30 8408 O 819.872 1.91329 1.24922 0
M  V30 8409 C 820.082 2.67922 -2.23649 0
M  V30 8410 C 821.43 3.36579 -2.58843 0
M  V30 8411 O 822.454 2.78182 -2.22471 0
M  V30 8412 O 821.313 4.42045 -3.21339 0
M  V30 8413 H 818.407 0.689216 -0.457067 0
M  V30 8414 H 820.953 0.859674 -1.46314 0
M  V30 8415 H 819.725 2.26153 -3.19328 0
M  V30 8416 H 819.348 3.45719 -1.96377 0
M  V30 8417 N 820.346 1.18468 1.03938 0
M  V30 8418 C 821.278 0.870615 2.12021 0
M  V30 8419 C 822.291 -0.132318 1.62261 0
M  V30 8420 O 823.48 0.0956901 1.78243 0
M  V30 8421 C 820.58 0.279727 3.37744 0
M  V30 8422 C 819.753 1.32863 4.16733 0
M  V30 8423 C 818.812 0.753204 5.20781 0
M  V30 8424 O 817.838 1.42825 5.5099 0
M  V30 8425 N 819.04 -0.448664 5.78764 0
M  V30 8426 H 821.805 1.80091 2.39556 0
M  V30 8427 H 819.366 1.08524 1.20142 0
M  V30 8428 H 821.358 -0.118829 4.04526 0
M  V30 8429 H 819.928 -0.554621 3.07641 0
M  V30 8430 H 819.148 1.90245 3.45254 0
M  V30 8431 H 820.436 2.03574 4.66299 0
M  V30 8432 H 819.834 -1.01481 5.56523 0
M  V30 8433 H 818.391 -0.789125 6.47005 0
M  V30 8434 N 821.824 -1.22873 0.986916 0
M  V30 8435 C 822.734 -2.28277 0.540978 0
M  V30 8436 C 823.75 -1.69164 -0.407363 0
M  V30 8437 O 824.926 -1.99504 -0.275674 0
M  V30 8438 C 821.991 -3.46404 -0.143181 0
M  V30 8439 C 821.052 -4.20854 0.847375 0
M  V30 8440 C 820.285 -5.33341 0.19577 0
M  V30 8441 O 820.508 -5.61356 -1.0117 0
M  V30 8442 O 819.442 -5.95169 0.897623 0
M  V30 8443 H 823.268 -2.68578 1.41773 0
M  V30 8444 H 820.853 -1.28927 0.754867 0
M  V30 8445 H 822.735 -4.18096 -0.526676 0
M  V30 8446 H 821.41 -3.08041 -0.994593 0
M  V30 8447 H 820.317 -3.51459 1.28169 0
M  V30 8448 H 821.65 -4.63082 1.6678 0
M  V30 8449 N 823.302 -0.75937 -1.38099 0
M  V30 8450 C 824.527 -0.327859 -2.04792 0
M  V30 8451 C 824.952 1.03752 -1.56899 0
M  V30 8452 O 824.31 1.66235 -0.723581 0
M  V30 8453 C 824.358 -0.366264 -3.58735 0
M  V30 8454 O 823.462 0.637697 -4.0744 0
M  V30 8455 H 822.803 -0.144092 -0.648177 0
M  V30 8456 H 825.333 -1.03211 -1.7666 0
M  V30 8457 H 825.343 -0.219179 -4.07411 0
M  V30 8458 H 824.018 -1.36243 -3.92951 0
M  V30 8459 H 822.595 0.454749 -3.70117 0
M  V30 8460 N 824.78 1.49157 -0.508906 0
M  V30 8461 C 825.743 2.27784 0.25434 0
M  V30 8462 C 826.743 1.34132 0.88686 0
M  V30 8463 O 827.933 1.5722 0.750168 0
M  V30 8464 C 825.065 3.12347 1.36573 0
M  V30 8465 H 826.258 2.96718 -0.435714 0
M  V30 8466 H 823.811 1.54052 -0.264128 0
M  V30 8467 H 824.546 2.47997 2.08969 0
M  V30 8468 H 824.331 3.81213 0.917543 0
M  V30 8469 H 825.821 3.71712 1.90315 0
M  V30 8470 N 826.258 0.243083 1.55714 0
M  V30 8471 C 827.188 -0.652336 2.24203 0
M  V30 8472 C 828.169 -1.1843 1.221 0
M  V30 8473 O 829.354 -1.22435 1.50743 0
M  V30 8474 C 826.484 -1.85111 2.93856 0
M  V30 8475 C 825.438 -1.45208 4.02615 0
M  V30 8476 C 824.764 -2.73137 4.59674 0
M  V30 8477 C 826.064 -0.625988 5.18535 0
M  V30 8478 H 827.758 -0.0812504 2.9929 0
M  V30 8479 H 825.304 -0.0376388 1.43951 0
M  V30 8480 H 827.257 -2.48314 3.40468 0
M  V30 8481 H 825.981 -2.44751 2.16251 0
M  V30 8482 H 824.64 -0.843406 3.56766 0
M  V30 8483 H 824.288 -3.30967 3.78774 0
M  V30 8484 H 823.988 -2.47163 5.33089 0
M  V30 8485 H 825.512 -3.37245 5.09017 0
M  V30 8486 H 826.926 -1.16223 5.61396 0
M  V30 8487 H 825.323 -0.462465 5.98315 0
M  V30 8488 H 826.393 0.362652 4.83542 0
M  V30 8489 N 827.736 -1.57571 -0.0300757 0
M  V30 8490 C 828.982 -1.89506 -0.722159 0
M  V30 8491 C 829.315 -0.840699 -1.7506 0
M  V30 8492 O 828.59 0.144358 -1.93964 0
M  V30 8493 C 828.873 -3.32081 -1.39262 0
M  V30 8494 C 828.726 -4.48211 -0.377768 0
M  V30 8495 C 830.045 -3.73557 -2.32687 0
M  V30 8496 H 827.164 -0.689213 -0.261064 0
M  V30 8497 H 829.806 -1.89994 0.0150388 0
M  V30 8498 H 827.956 -3.31796 -2.02098 0
M  V30 8499 H 829.628 -4.6063 0.248591 0
M  V30 8500 H 827.871 -4.3274 0.303045 0
M  V30 8501 H 828.542 -5.44854 -0.885347 0
M  V30 8502 H 831.018 -3.75202 -1.79896 0
M  V30 8503 H 829.894 -4.74125 -2.7658 0
M  V30 8504 H 830.155 -3.05759 -3.19317 0
M  V30 8505 N 829.214 0.302327 -1.54673 0
M  V30 8506 C 830.46 1.03924 -1.74149 0
M  V30 8507 C 830.793 1.86968 -0.525041 0
M  V30 8508 O 830.068 1.88538 0.477868 0
M  V30 8509 C 830.351 1.94633 -3.02969 0
M  V30 8510 C 830.204 1.14778 -4.34909 0
M  V30 8511 C 831.523 2.93826 -3.27649 0
M  V30 8512 H 828.642 0.376405 -0.633631 0
M  V30 8513 H 831.284 0.314007 -1.87387 0
M  V30 8514 H 829.434 2.56471 -2.91813 0
M  V30 8515 H 831.106 0.552363 -4.57981 0
M  V30 8516 H 829.349 0.450462 -4.31455 0
M  V30 8517 H 830.02 1.81495 -5.21309 0
M  V30 8518 H 832.496 2.42117 -3.38406 0
M  V30 8519 H 831.372 3.54462 -4.19104 0
M  V30 8520 H 831.633 3.67416 -2.45882 0
M  V30 8521 N 830.692 1.47107 0.565454 0
M  V30 8522 C 831.938 1.53535 1.32495 0
M  V30 8523 C 832.271 0.193537 1.93233 0
M  V30 8524 O 831.546 -0.796956 1.77423 0
M  V30 8525 C 831.829 2.64712 2.4413 0
M  V30 8526 C 831.682 4.08482 1.88314 0
M  V30 8527 C 833.001 2.71853 3.46098 0
M  V30 8528 H 830.12 0.558926 0.480386 0
M  V30 8529 H 832.762 1.79125 0.633575 0
M  V30 8530 H 830.912 2.43023 3.03104 0
M  V30 8531 H 832.584 4.4151 1.33665 0
M  V30 8532 H 830.827 4.17148 1.19037 0
M  V30 8533 H 831.498 4.82032 2.68978 0
M  V30 8534 H 833.974 2.91397 2.97031 0
M  V30 8535 H 832.85 3.51433 4.21646 0
M  V30 8536 H 833.111 1.78584 4.04426 0
M  V30 8537 N 832.17 -0.811516 1.35101 0
M  V30 8538 C 833.447 -1.55491 1.18667 0
M  V30 8539 C 833.827 -2.09775 -0.236189 0
M  V30 8540 O 833.175 -1.91989 -1.23905 0
M  V30 8541 C 833.385 -2.66732 2.25067 0
M  V30 8542 C 834.733 -3.35201 2.60625 0
M  V30 8543 O 835.757 -2.76998 2.23943 0
M  V30 8544 O 834.616 -4.40334 3.23679 0
M  V30 8545 H 831.71 -0.686783 0.460716 0
M  V30 8546 H 834.256 -0.851903 1.46768 0
M  V30 8547 H 833.028 -2.24457 3.20523 0
M  V30 8548 H 832.651 -3.44673 1.98208 0
M  V30 8549 N 833.648 -1.19017 -1.03309 0
M  V30 8550 C 834.925 -0.899659 -1.73682 0
M  V30 8551 C 835.305 0.595677 -2.02521 0
M  V30 8552 O 834.653 1.55263 -1.67648 0
M  V30 8553 C 834.863 -1.75508 -3.01659 0
M  V30 8554 C 836.211 -1.98679 -3.75249 0
M  V30 8555 O 837.235 -1.72624 -3.11576 0
M  V30 8556 O 836.094 -2.42587 -4.89708 0
M  V30 8557 H 833.188 -0.334903 -0.756154 0
M  V30 8558 H 835.734 -1.29809 -1.09305 0
M  V30 8559 H 834.506 -2.7684 -2.76542 0
M  V30 8560 H 834.129 -1.35565 -3.73775 0
M  V30 8561 N 835.127 1.22348 -0.993418 0
M  V30 8562 C 836.074 2.24294 -0.544118 0
M  V30 8563 C 837.044 1.60602 0.42381 0
M  V30 8564 O 838.229 1.87952 0.328453 0
M  V30 8565 C 835.369 3.44837 0.134578 0
M  V30 8566 C 834.482 4.23043 -0.875151 0
M  V30 8567 C 833.617 5.30928 -0.169919 0
M  V30 8568 C 832.656 6.00853 -1.16798 0
M  V30 8569 N 831.793 7.00381 -0.491021 0
M  V30 8570 H 836.633 2.6209 -1.4182 0
M  V30 8571 H 834.17 1.2881 -0.710384 0
M  V30 8572 H 836.128 4.13625 0.544998 0
M  V30 8573 H 834.758 3.07804 0.972446 0
M  V30 8574 H 833.81 3.53546 -1.40389 0
M  V30 8575 H 835.122 4.71237 -1.63516 0
M  V30 8576 H 834.276 6.05972 0.297205 0
M  V30 8577 H 833.015 4.8371 0.622586 0
M  V30 8578 H 832.02 5.24591 -1.64573 0
M  V30 8579 H 833.245 6.50159 -1.96137 0
M  V30 8580 H 831.191 6.55393 0.282037 0
M  V30 8581 H 831.108 7.46584 -1.18947 0
M  V30 8582 H 832.376 7.79486 -0.0467169 0
M  V30 8583 N 836.605 0.766683 1.37694 0
M  V30 8584 C 837.833 0.339939 2.04088 0
M  V30 8585 C 838.248 -1.03617 1.57826 0
M  V30 8586 O 837.605 -1.6605 0.757214 0
M  V30 8587 C 837.656 0.368269 3.59619 0
M  V30 8588 O 837.377 1.69009 4.04188 0
M  V30 8589 C 838.878 -0.0707053 4.43244 0
M  V30 8590 H 836.098 0.143189 0.655544 0
M  V30 8591 H 838.642 1.03919 1.76128 0
M  V30 8592 H 836.797 -0.282359 3.8637 0
M  V30 8593 H 837.211 1.62523 4.98685 0
M  V30 8594 H 838.685 0.000273538 5.52 0
M  V30 8595 H 839.162 -1.1204 4.24669 0
M  V30 8596 H 839.768 0.551543 4.21709 0
M  V30 8597 N 838.083 -1.48885 0.516809 0
M  V30 8598 C 839.013 -2.32241 -0.242157 0
M  V30 8599 C 839.994 -1.41258 -0.947633 0
M  V30 8600 O 841.179 -1.70156 -0.935973 0
M  V30 8601 C 838.309 -3.22151 -1.29754 0
M  V30 8602 C 837.263 -4.22053 -0.710995 0
M  V30 8603 C 836.589 -5.01007 -1.86806 0
M  V30 8604 C 837.889 -5.21388 0.30853 0
M  V30 8605 H 839.583 -2.95943 0.453651 0
M  V30 8606 H 837.129 -1.42316 0.219612 0
M  V30 8607 H 839.082 -3.79284 -1.83634 0
M  V30 8608 H 837.806 -2.56423 -2.02274 0
M  V30 8609 H 836.465 -3.66087 -0.193819 0
M  V30 8610 H 836.113 -4.31713 -2.58133 0
M  V30 8611 H 835.813 -5.68615 -1.48159 0
M  V30 8612 H 837.337 -5.60989 -2.4109 0
M  V30 8613 H 838.751 -5.73122 -0.142703 0
M  V30 8614 H 837.148 -5.96975 0.611673 0
M  V30 8615 H 838.218 -4.69329 1.21894 0
M  V30 8616 N 839.561 -0.251338 -1.55583 0
M  V30 8617 C 840.471 0.656978 -2.25213 0
M  V30 8618 C 841.487 1.18966 -1.26977 0
M  V30 8619 O 842.663 1.22499 -1.59862 0
M  V30 8620 C 839.728 1.83527 -2.94141 0
M  V30 8621 C 838.789 1.34162 -4.07798 0
M  V30 8622 C 838.022 2.46375 -4.73429 0
M  V30 8623 O 838.245 3.65205 -4.38157 0
M  V30 8624 O 837.179 2.15881 -5.61853 0
M  V30 8625 H 841.005 0.0936395 -3.03556 0
M  V30 8626 H 838.59 -0.0196638 -1.49387 0
M  V30 8627 H 840.472 2.52279 -3.3754 0
M  V30 8628 H 839.147 2.38614 -2.18735 0
M  V30 8629 H 838.054 0.621249 -3.68906 0
M  V30 8630 H 839.387 0.836779 -4.85035 0
M  V30 8631 N 841.039 1.57585 0.0217189 0
M  V30 8632 C 841.969 2.10073 1.01939 0
M  V30 8633 C 842.95 1.0049 1.37243 0
M  V30 8634 O 844.135 1.28055 1.45999 0
M  V30 8635 C 841.265 2.58618 2.31806 0
M  V30 8636 C 840.219 3.72531 2.10724 0
M  V30 8637 C 839.545 4.07309 3.46415 0
M  V30 8638 C 840.845 5.00672 1.48743 0
M  V30 8639 H 842.539 2.9368 0.582432 0
M  V30 8640 H 840.085 1.41277 0.278715 0
M  V30 8641 H 842.038 2.9396 3.01936 0
M  V30 8642 H 840.762 1.72104 2.77575 0
M  V30 8643 H 839.421 3.37549 1.43025 0
M  V30 8644 H 839.069 3.17851 3.89846 0
M  V30 8645 H 838.769 4.84042 3.33132 0
M  V30 8646 H 840.293 4.45192 4.17895 0
M  V30 8647 H 841.707 5.33925 2.088 0
M  V30 8648 H 840.104 5.82065 1.46013 0
M  V30 8649 H 841.174 4.82769 0.45408 0
M  V30 8650 N 842.517 -0.29412 1.54831 0
M  V30 8651 C 843.464 -1.36296 1.86258 0
M  V30 8652 C 844.434 -1.50061 0.712097 0
M  V30 8653 O 845.619 -1.64809 0.961381 0
M  V30 8654 C 842.759 -2.72187 2.12151 0
M  V30 8655 C 841.872 -2.66816 3.39755 0
M  V30 8656 C 841.007 -3.94747 3.55455 0
M  V30 8657 C 840.046 -3.838 4.76827 0
M  V30 8658 N 839.183 -5.03521 4.89296 0
M  V30 8659 H 844.023 -1.08796 2.7743 0
M  V30 8660 H 841.56 -0.526069 1.37371 0
M  V30 8661 H 843.518 -3.51225 2.25159 0
M  V30 8662 H 842.148 -2.97934 1.24237 0
M  V30 8663 H 841.2 -1.79605 3.3533 0
M  V30 8664 H 842.512 -2.5462 4.28917 0
M  V30 8665 H 841.666 -4.82223 3.68166 0
M  V30 8666 H 840.405 -4.09785 2.64438 0
M  V30 8667 H 839.41 -2.94708 4.64141 0
M  V30 8668 H 840.635 -3.70301 5.69258 0
M  V30 8669 H 838.581 -5.1901 4.01204 0
M  V30 8670 H 838.498 -4.93775 5.72471 0
M  V30 8671 H 839.766 -5.92629 5.06371 0
M  V30 8672 N 843.995 -1.47404 -0.557645 0
M  V30 8673 C 844.945 -1.56267 -1.66026 0
M  V30 8674 C 845.929 -0.42161 -1.55278 0
M  V30 8675 O 847.121 -0.671505 -1.63768 0
M  V30 8676 C 844.25 -1.57958 -3.04802 0
M  V30 8677 C 843.336 -2.77447 -3.20755 0
M  V30 8678 N 843.727 -4.02148 -3.06775 0
M  V30 8679 C 842.025 -2.74199 -3.51754 0
M  V30 8680 C 842.726 -4.82168 -3.25406 0
M  V30 8681 N 841.702 -4.14481 -3.5172 0
M  V30 8682 H 845.504 -2.50454 -1.53785 0
M  V30 8683 H 843.018 -1.43392 -0.762388 0
M  V30 8684 H 845.015 -1.62397 -3.8397 0
M  V30 8685 H 843.675 -0.648667 -3.18155 0
M  V30 8686 H 844.686 -4.33014 -2.84111 0
M  V30 8687 H 841.363 -1.90243 -3.71637 0
M  V30 8688 H 842.753 -5.91037 -3.19569 0
M  V30 8689 N 845.473 0.80434 -1.35529 0
M  V30 8690 C 846.719 1.56385 -1.29118 0
M  V30 8691 C 847.052 1.9374 0.133536 0
M  V30 8692 O 846.327 1.6153 1.08344 0
M  V30 8693 C 846.61 2.85097 -2.19981 0
M  V30 8694 C 846.463 2.54204 -3.7108 0
M  V30 8695 C 847.782 3.86817 -2.09907 0
M  V30 8696 H 844.901 0.567382 -0.470368 0
M  V30 8697 H 847.543 0.925235 -1.6595 0
M  V30 8698 H 845.693 3.39594 -1.88701 0
M  V30 8699 H 847.365 2.05872 -4.12813 0
M  V30 8700 H 845.608 1.87364 -3.91251 0
M  V30 8701 H 846.279 3.46068 -4.30048 0
M  V30 8702 H 848.755 3.41725 -2.37409 0
M  V30 8703 H 847.631 4.7465 -2.75678 0
M  V30 8704 H 847.892 4.28663 -1.08171 0
M  V30 8705 N 846.951 1.19563 1.02676 0
M  V30 8706 C 848.2 0.993864 1.75514 0
M  V30 8707 C 848.513 -0.475882 1.89723 0
M  V30 8708 O 849.719 -0.796525 2.59553 0
M  V30 8709 C 848.175 1.72937 3.15628 0
M  V30 8710 C 847.783 3.23937 3.09466 0
M  V30 8711 C 849.527 1.61092 3.92746 0
M  V30 8712 C 847.434 3.90067 4.44524 0
M  V30 8713 H 846.364 0.368244 0.657961 0
M  V30 8714 H 849.015 1.43081 1.14891 0
M  V30 8715 H 847.397 1.22025 3.76731 0
M  V30 8716 H 848.571 3.81983 2.57731 0
M  V30 8717 H 846.886 3.3608 2.45843 0
M  V30 8718 H 849.483 2.07848 4.92649 0
M  V30 8719 H 849.826 0.565415 4.12442 0
M  V30 8720 H 850.359 2.09361 3.3825 0
M  V30 8721 H 847.098 4.94725 4.30032 0
M  V30 8722 H 846.618 3.36809 4.96306 0
M  V30 8723 H 848.297 3.93736 5.13401 0
M  V30 8724 N 848.429 -1.21819 0.999893 0
M  V30 8725 C 849.376 -2.24003 0.556005 0
M  V30 8726 C 850.346 -1.60825 -0.415287 0
M  V30 8727 O 851.531 -1.88123 -0.318481 0
M  V30 8728 C 848.671 -3.44904 -0.116289 0
M  V30 8729 C 847.784 -4.22573 0.897574 0
M  V30 8730 C 846.919 -5.30831 0.198073 0
M  V30 8731 C 845.958 -6.00225 1.19983 0
M  V30 8732 N 845.095 -7.00111 0.528157 0
M  V30 8733 H 849.935 -2.61334 1.43208 0
M  V30 8734 H 847.472 -1.28431 0.717205 0
M  V30 8735 H 849.43 -4.13908 -0.523055 0
M  V30 8736 H 848.06 -3.08315 -0.956108 0
M  V30 8737 H 847.112 -3.52797 1.42262 0
M  V30 8738 H 848.424 -4.70363 1.66013 0
M  V30 8739 H 847.578 -6.06121 -0.265065 0
M  V30 8740 H 846.317 -4.84033 -0.596924 0
M  V30 8741 H 845.322 -5.23711 1.67353 0
M  V30 8742 H 846.547 -6.4911 1.99582 0
M  V30 8743 H 844.493 -6.55534 -0.247276 0
M  V30 8744 H 844.41 -7.45943 1.22904 0
M  V30 8745 H 845.678 -7.7945 0.0880543 0
M  V30 8746 N 849.908 -0.773975 -1.37286 0
M  V30 8747 C 851.185 -0.263942 -1.93811 0
M  V30 8748 C 851.565 1.24138 -1.70743 0
M  V30 8749 O 850.913 2.02557 -1.05749 0
M  V30 8750 C 851.123 -0.639753 -3.43086 0
M  V30 8751 C 852.471 -0.610796 -4.20184 0
M  V30 8752 O 853.495 -0.579278 -3.51458 0
M  V30 8753 O 852.354 -0.639862 -5.42741 0
M  V30 8754 H 849.448 -0.0614331 -0.824715 0
M  V30 8755 H 851.994 -0.855477 -1.46559 0
M  V30 8756 H 850.766 -1.67856 -3.53469 0
M  V30 8757 H 850.389 -0.0212827 -3.97594 0
M  V30 8758 N 851.386 1.48609 -0.524698 0
M  V30 8759 C 852.296 2.33318 0.244923 0
M  V30 8760 C 853.312 1.46153 0.944214 0
M  V30 8761 O 854.488 1.79141 0.920347 0
M  V30 8762 C 851.553 3.22149 1.28144 0
M  V30 8763 C 850.614 4.25184 0.593068 0
M  V30 8764 C 849.847 5.0977 1.5802 0
M  V30 8765 O 850.07 4.96249 2.81235 0
M  V30 8766 O 849.004 5.9134 1.1225 0
M  V30 8767 H 852.83 3.00362 -0.449066 0
M  V30 8768 H 850.415 1.46643 -0.285689 0
M  V30 8769 H 852.297 3.77111 1.88057 0
M  V30 8770 H 850.972 2.57772 1.95793 0
M  V30 8771 H 849.879 3.74071 -0.0464214 0
M  V30 8772 H 851.212 4.92183 -0.0413893 0
M  V30 8773 N 852.864 0.259585 1.55447 0
M  V30 8774 C 854.28 -0.094961 1.59317 0
M  V30 8775 C 854.48 -1.55884 1.2768 0
M  V30 8776 O 853.536 -2.30528 1.0302 0
M  V30 8777 C 854.849 0.265669 2.99524 0
M  V30 8778 C 856.397 0.211007 3.12288 0
M  V30 8779 C 856.872 0.545851 4.54736 0
M  V30 8780 N 858.363 0.496823 4.60528 0
M  V30 8781 C 859.098 0.728909 5.68748 0
M  V30 8782 N 858.594 1.02479 6.85179 0
M  V30 8783 N 860.387 0.658756 5.58226 0
M  V30 8784 H 852.538 1.2141 1.7428 0
M  V30 8785 H 854.801 0.489404 0.811904 0
M  V30 8786 H 854.507 1.28316 3.27457 0
M  V30 8787 H 854.381 -0.401089 3.75061 0
M  V30 8788 H 856.768 -0.797172 2.84129 0
M  V30 8789 H 856.849 0.911799 2.38998 0
M  V30 8790 H 856.493 1.55164 4.83618 0
M  V30 8791 H 856.423 -0.17656 5.26304 0
M  V30 8792 H 858.914 0.277376 3.76881 0
M  V30 8793 H 859.227 1.18897 7.63599 0
M  V30 8794 H 857.572 1.0624 6.86832 0
M  V30 8795 H 860.763 0.427553 4.66143 0
M  V30 8796 H 860.936 0.84302 6.42493 0
M  V30 8797 N 854.342 -1.57594 -0.0133615 0
M  V30 8798 C 855.272 -2.10611 -1.00823 0
M  V30 8799 C 856.253 -1.01217 -1.36708 0
M  V30 8800 O 857.438 -1.28827 -1.45318 0
M  V30 8801 C 854.568 -2.59844 -2.30431 0
M  V30 8802 C 853.522 -3.73644 -2.08745 0
M  V30 8803 C 852.848 -4.09141 -3.4425 0
M  V30 8804 C 854.148 -5.01454 -1.46086 0
M  V30 8805 H 855.842 -2.93985 -0.566849 0
M  V30 8806 H 853.388 -1.41423 -0.271219 0
M  V30 8807 H 855.341 -2.95557 -3.00373 0
M  V30 8808 H 854.065 -1.73573 -2.76658 0
M  V30 8809 H 852.724 -3.38303 -1.41232 0
M  V30 8810 H 852.372 -3.19914 -3.88155 0
M  V30 8811 H 852.072 -4.85802 -3.3056 0
M  V30 8812 H 853.596 -4.47402 -4.15528 0
M  V30 8813 H 855.01 -5.35024 -2.05966 0
M  V30 8814 H 853.407 -5.82832 -1.42924 0
M  V30 8815 H 854.477 -4.83003 -0.428471 0
M  V30 8816 N 855.82 0.285905 -1.54985 0
M  V30 8817 C 857.066 1.02071 -1.75241 0
M  V30 8818 C 857.399 1.864 -0.544842 0
M  V30 8819 O 856.674 1.89034 0.457844 0
M  V30 8820 C 856.957 1.91409 -3.05016 0
M  V30 8821 C 856.81 1.10158 -4.36102 0
M  V30 8822 C 858.129 2.90335 -3.30747 0
M  V30 8823 H 855.248 0.369663 -0.637588 0
M  V30 8824 H 857.89 0.294114 -1.8771 0
M  V30 8825 H 856.04 2.53362 -2.94517 0
M  V30 8826 H 857.712 0.503756 -4.58541 0
M  V30 8827 H 855.955 0.404675 -4.31908 0
M  V30 8828 H 856.626 1.75956 -5.23205 0
M  V30 8829 H 859.102 2.38514 -3.40955 0
M  V30 8830 H 857.978 3.49997 -4.2284 0
M  V30 8831 H 858.239 3.64787 -2.49765 0
M  V30 8832 N 857.298 1.47698 0.54982 0
M  V30 8833 C 858.526 1.5833 1.33188 0
M  V30 8834 C 858.941 0.236193 1.87317 0
M  V30 8835 O 858.298 -0.77167 1.65383 0
M  V30 8836 C 858.349 2.61438 2.49664 0
M  V30 8837 O 858.07 3.9092 1.97771 0
M  V30 8838 C 859.571 2.82324 3.41772 0
M  V30 8839 H 856.791 0.53443 0.405741 0
M  V30 8840 H 859.335 1.93375 0.665309 0
M  V30 8841 H 857.49 2.29307 3.12245 0
M  V30 8842 H 857.904 4.47323 2.73866 0
M  V30 8843 H 859.378 3.58316 4.19897 0
M  V30 8844 H 859.855 1.90416 3.95776 0
M  V30 8845 H 860.461 3.15682 2.85 0
M  V30 8846 N 858.776 -0.797141 1.35954 0
M  V30 8847 C 860.187 -1.37179 1.26644 0
M  V30 8848 C 860.538 -1.9596 -0.0971046 0
M  V30 8849 O 859.663 -1.91994 -0.998355 0
M  V30 8850 C 860.258 -2.49395 2.2932 0
M  V30 8851 C 858.817 -3.02697 2.23722 0
M  V30 8852 C 857.964 -1.75721 2.14517 0
M  V30 8853 H 860.915 -0.599407 1.46945 0
M  V30 8854 H 860.936 -3.28204 1.92515 0
M  V30 8855 H 860.448 -2.06584 3.2855 0
M  V30 8856 H 858.549 -3.49948 1.27934 0
M  V30 8857 H 858.662 -3.60036 3.16087 0
M  V30 8858 H 857.026 -1.97649 1.60646 0
M  V30 8859 H 857.809 -1.35049 3.15621 0
M  V30 8860 N 860.254 -1.20106 -1.0204 0
M  V30 8861 C 861.482 -1.0344 -1.79186 0
M  V30 8862 C 861.897 0.416542 -1.84148 0
M  V30 8863 O 861.254 1.28925 -1.29168 0
M  V30 8864 C 861.305 -1.60663 -3.23836 0
M  V30 8865 O 861.026 -3.00079 -3.19193 0
M  V30 8866 C 862.527 -1.48897 -4.17546 0
M  V30 8867 H 859.747 -0.364093 -0.563629 0
M  V30 8868 H 862.291 -1.5911 -1.28469 0
M  V30 8869 H 860.446 -1.09122 -3.71714 0
M  V30 8870 H 860.86 -3.27162 -4.09958 0
M  V30 8871 H 862.334 -1.93703 -5.16898 0
M  V30 8872 H 862.811 -0.440843 -4.36982 0
M  V30 8873 H 863.417 -1.9961 -3.75547 0
M  V30 8874 N 861.732 1.21287 -1.00634 0
M  V30 8875 C 862.98 1.90013 -0.688438 0
M  V30 8876 C 863.301 1.78573 0.783365 0
M  V30 8877 O 862.571 1.1815 1.56261 0
M  V30 8878 H 861.151 0.703336 -0.251648 0
M  V30 8879 H 863.813 1.47346 -1.27574 0
M  V30 8880 H 862.909 2.96879 -0.962781 0
M  V30 8881 N 863.21 0.781244 1.36873 0
M  V30 8882 C 864.157 0.172146 2.30157 0
M  V30 8883 C 865.127 -0.679328 1.51573 0
M  V30 8884 O 866.312 -0.629713 1.80109 0
M  V30 8885 C 863.452 -0.693534 3.38059 0
M  V30 8886 C 862.565 0.175586 4.31643 0
M  V30 8887 C 861.7 -0.695695 5.26625 0
M  V30 8888 C 860.739 0.17538 6.11849 0
M  V30 8889 N 859.876 -0.654416 6.99043 0
M  V30 8890 H 864.716 0.973133 2.81663 0
M  V30 8891 H 862.253 0.491469 1.38647 0
M  V30 8892 H 864.211 -1.21035 3.99257 0
M  V30 8893 H 862.841 -1.46003 2.87894 0
M  V30 8894 H 861.893 0.810295 3.7167 0
M  V30 8895 H 863.205 0.847107 4.91554 0
M  V30 8896 H 862.359 -1.27863 5.93073 0
M  V30 8897 H 861.098 -1.40087 4.67148 0
M  V30 8898 H 860.103 0.77078 5.4437 0
M  V30 8899 H 861.328 0.87803 6.734 0
M  V30 8900 H 859.274 -1.34403 6.42084 0
M  V30 8901 H 859.191 -0.0403998 7.55989 0
M  V30 8902 H 860.459 -1.22144 7.69871 0
M  V30 8903 N 864.689 -1.48329 0.532571 0
M  V30 8904 C 865.936 -2.025 -0.000582356 0
M  V30 8905 C 866.264 -1.40942 -1.34036 0
M  V30 8906 O 865.519 -0.545545 -1.87942 0
M  V30 8907 C 865.818 -3.57 -0.168943 0
M  V30 8908 C 865.484 -4.37357 1.0968 0
M  V30 8909 C 864.146 -4.59033 1.44369 0
M  V30 8910 C 866.498 -4.83882 1.93669 0
M  V30 8911 C 863.826 -5.24481 2.62939 0
M  V30 8912 C 866.178 -5.50637 3.11419 0
M  V30 8913 C 864.842 -5.70551 3.46451 0
M  V30 8914 H 864.112 -0.741 -0.000213099 0
M  V30 8915 H 866.759 -1.78282 0.699117 0
M  V30 8916 H 865.064 -3.80072 -0.951429 0
M  V30 8917 H 866.761 -3.9654 -0.596422 0
M  V30 8918 H 863.351 -4.20748 0.816655 0
M  V30 8919 H 867.535 -4.66936 1.6818 0
M  V30 8920 H 862.791 -5.38096 2.9028 0
M  V30 8921 H 866.965 -5.85655 3.76803 0
M  V30 8922 H 864.592 -6.21037 4.38425 0
M  V30 8923 N 866.167 -0.267825 -1.55308 0
M  V30 8924 C 867.115 0.638848 -2.23655 0
M  V30 8925 C 868.109 1.16363 -1.2311 0
M  V30 8926 O 869.315 1.1181 -1.41062 0
M  V30 8927 H 865.69 0.224551 -0.717691 0
M  V30 8928 H 867.661 0.0394809 -2.98374 0
M  V30 8929 C 866.41 1.8151 -2.96562 0
M  V30 8930 H 865.733 1.42048 -3.73715 0
M  V30 8931 H 867.173 2.42629 -3.47717 0
M  V30 8932 C 865.632 2.69911 -2.01618 0
M  V30 8933 O 866.162 3.70058 -1.56268 0
M  V30 8934 N 864.368 2.36924 -1.68272 0
M  V30 8935 H 863.915 1.55533 -2.05347 0
M  V30 8936 H 863.873 2.96343 -1.05016 0
M  V30 8937 N 867.645 1.57599 0.00500368 0
M  V30 8938 C 868.891 1.90631 0.691919 0
M  V30 8939 C 869.224 0.868443 1.737 0
M  V30 8940 O 868.499 -0.113482 1.94169 0
M  V30 8941 C 868.782 3.34255 1.33961 0
M  V30 8942 C 868.635 4.48755 0.306413 0
M  V30 8943 C 869.954 3.77211 2.26715 0
M  V30 8944 H 867.073 0.693279 0.250066 0
M  V30 8945 H 869.715 1.89946 -0.0452634 0
M  V30 8946 H 867.865 3.3497 1.96793 0
M  V30 8947 H 869.537 4.60176 -0.321841 0
M  V30 8948 H 867.78 4.32203 -0.371852 0
M  V30 8949 H 868.451 5.46193 0.798554 0
M  V30 8950 H 870.927 3.78017 1.73904 0
M  V30 8951 H 869.803 4.78466 2.69002 0
M  V30 8952 H 870.064 3.10801 3.14413 0
M  V30 8953 N 869.123 -0.277682 1.55134 0
M  V30 8954 C 870.353 -1.02677 1.79279 0
M  V30 8955 C 870.761 -1.80599 0.563962 0
M  V30 8956 O 870.104 -1.77416 -0.476378 0
M  V30 8957 C 870.166 -2.03617 2.96277 0
M  V30 8958 C 869.83 -1.44676 4.33495 0
M  V30 8959 C 870.827 -0.864811 5.12657 0
M  V30 8960 C 868.512 -1.47537 4.80144 0
M  V30 8961 C 870.506 -0.319322 6.366 0
M  V30 8962 C 868.193 -0.926016 6.04043 0
M  V30 8963 C 869.191 -0.348988 6.82108 0
M  V30 8964 O 868.879 0.191964 8.03671 0
M  V30 8965 H 868.611 -0.309232 0.601125 0
M  V30 8966 H 871.165 -0.315308 2.02965 0
M  V30 8967 H 869.395 -2.78509 2.68272 0
M  V30 8968 H 871.084 -2.64616 3.07788 0
M  V30 8969 H 871.85 -0.835438 4.7775 0
M  V30 8970 H 867.729 -1.91389 4.19394 0
M  V30 8971 H 871.273 0.131709 6.97476 0
M  V30 8972 H 867.17 -0.952613 6.38432 0
M  V30 8973 H 867.938 0.0808779 8.1846 0
M  V30 8974 N 870.601 -1.47988 -0.541979 0
M  V30 8975 C 871.549 -1.62044 -1.66867 0
M  V30 8976 C 872.543 -0.487217 -1.62242 0
M  V30 8977 O 873.749 -0.66554 -1.67244 0
M  V30 8978 H 870.124 -0.51024 -0.552412 0
M  V30 8979 H 872.095 -2.56695 -1.52153 0
M  V30 8980 C 870.844 -1.66615 -3.0518 0
M  V30 8981 H 870.167 -2.5317 -3.09427 0
M  V30 8982 H 871.607 -1.80496 -3.83663 0
M  V30 8983 C 870.066 -0.402421 -3.34488 0
M  V30 8984 O 870.596 0.48992 -3.98701 0
M  V30 8985 N 868.802 -0.277778 -2.89269 0
M  V30 8986 H 868.349 -1.00488 -2.37192 0
M  V30 8987 H 868.307 0.566784 -3.09249 0
M  V30 8988 N 872.079 0.78992 -1.36375 0
M  V30 8989 C 873.307 1.57873 -1.3373 0
M  V30 8990 C 873.722 1.88624 0.0815544 0
M  V30 8991 O 873.079 1.50085 1.03831 0
M  V30 8992 C 873.13 2.90003 -2.15825 0
M  V30 8993 O 872.851 2.60578 -3.5218 0
M  V30 8994 C 874.352 3.84309 -2.20955 0
M  V30 8995 H 871.572 0.489685 -0.458748 0
M  V30 8996 H 874.116 0.980436 -1.79465 0
M  V30 8997 H 872.271 3.46303 -1.73646 0
M  V30 8998 H 872.685 3.4506 -3.95011 0
M  V30 8999 H 874.159 4.74081 -2.82756 0
M  V30 9000 H 874.636 4.22121 -1.21287 0
M  V30 9001 H 875.242 3.33942 -2.63368 0
M  V30 9002 N 873.557 1.20646 1.01402 0
M  V30 9003 C 874.49 0.900926 2.09663 0
M  V30 9004 C 875.468 -0.14801 1.61925 0
M  V30 9005 O 876.652 -0.0210235 1.88488 0
M  V30 9006 C 873.779 0.351097 3.36875 0
M  V30 9007 C 872.825 1.38142 4.03508 0
M  V30 9008 S 873.658 2.94741 4.47089 0
M  V30 9009 C 874.814 2.41341 5.77499 0
M  V30 9010 H 875.047 1.81773 2.35257 0
M  V30 9011 H 872.58 1.03521 1.14555 0
M  V30 9012 H 874.538 0.0404201 4.1048 0
M  V30 9013 H 873.199 -0.544255 3.09349 0
M  V30 9014 H 872.392 0.94614 4.9504 0
M  V30 9015 H 871.994 1.63971 3.36139 0
M  V30 9016 H 874.286 1.81263 6.52802 0
M  V30 9017 H 875.229 3.31278 6.25828 0
M  V30 9018 H 875.637 1.83374 5.33886 0
M  V30 9019 N 875.035 -1.20752 1.01276 0
M  V30 9020 C 876.263 -1.94006 0.718976 0
M  V30 9021 C 876.678 -1.74544 -0.719711 0
M  V30 9022 O 876.035 -1.05697 -1.48776 0
M  V30 9023 C 876.086 -3.46208 1.04031 0
M  V30 9024 O 875.807 -3.65031 2.42248 0
M  V30 9025 C 877.308 -4.36614 0.767032 0
M  V30 9026 H 874.528 -0.616743 0.264327 0
M  V30 9027 H 877.072 -1.53352 1.3529 0
M  V30 9028 H 875.227 -3.84756 0.451852 0
M  V30 9029 H 875.641 -4.59054 2.53712 0
M  V30 9030 H 877.115 -5.42076 1.04198 0
M  V30 9031 H 877.592 -4.38182 -0.298851 0
M  V30 9032 H 878.198 -4.03723 1.33746 0
M  V30 9033 N 876.513 -0.788492 -1.36457 0
M  V30 9034 C 877.79 -0.284484 -1.9352 0
M  V30 9035 C 878.17 1.2232 -1.7205 0
M  V30 9036 O 877.518 2.01424 -1.07892 0
M  V30 9037 C 877.728 -0.676106 -3.42388 0
M  V30 9038 C 879.076 -0.655327 -4.19512 0
M  V30 9039 O 880.1 -0.616523 -3.50824 0
M  V30 9040 O 878.959 -0.697391 -5.42032 0
M  V30 9041 H 876.053 -0.0701769 -0.824017 0
M  V30 9042 H 878.599 -0.870974 -1.45644 0
M  V30 9043 H 877.371 -1.71596 -3.51668 0
M  V30 9044 H 876.994 -0.0634517 -3.97549 0
M  V30 9045 N 877.991 1.48044 -0.54043 0
M  V30 9046 C 879.219 2.06895 -0.0145153 0
M  V30 9047 C 879.634 1.39552 1.27164 0
M  V30 9048 O 878.991 0.486454 1.75897 0
M  V30 9049 C 879.042 3.60934 0.202278 0
M  V30 9050 O 878.763 4.25749 -1.03293 0
M  V30 9051 C 880.264 4.36607 0.767387 0
M  V30 9052 H 877.484 0.66991 -0.0382368 0
M  V30 9053 H 880.028 1.90288 -0.749057 0
M  V30 9054 H 878.183 3.77111 0.886897 0
M  V30 9055 H 878.597 5.18048 -0.820167 0
M  V30 9056 H 880.071 5.45126 0.86845 0
M  V30 9057 H 880.548 4.01745 1.77477 0
M  V30 9058 H 881.154 4.25133 0.119002 0
M  V30 9059 N 879.47 0.276058 1.55163 0
M  V30 9060 C 880.7 -0.343274 2.03728 0
M  V30 9061 C 881.108 -1.49945 1.15383 0
M  V30 9062 O 880.451 -1.82942 0.166696 0
M  V30 9063 C 880.513 -0.885683 3.48419 0
M  V30 9064 C 880.177 0.141976 4.56779 0
M  V30 9065 C 881.174 0.961816 5.10926 0
M  V30 9066 C 878.859 0.276487 5.01538 0
M  V30 9067 C 880.853 1.90234 6.0835 0
M  V30 9068 C 878.54 1.22049 5.98788 0
M  V30 9069 C 879.538 2.03192 6.52075 0
M  V30 9070 O 879.226 2.95996 7.47423 0
M  V30 9071 H 878.958 -0.0822192 0.670981 0
M  V30 9072 H 881.512 0.406199 2.01343 0
M  V30 9073 H 879.742 -1.68524 3.48047 0
M  V30 9074 H 881.431 -1.4182 3.80318 0
M  V30 9075 H 882.197 0.868637 4.77158 0
M  V30 9076 H 878.076 -0.345095 4.59707 0
M  V30 9077 H 881.62 2.5361 6.49867 0
M  V30 9078 H 877.517 1.31448 6.31974 0
M  V30 9079 H 878.285 2.90688 7.65142 0
M  V30 9080 O 880.987 -1.60877 0.141725 0
M  V30 9081 H 881.678 -1.88325 -0.453148 0
M  V30 END ATOM
M  V30 BEGIN BOND
M  V30 END BOND
M  V30 END CTAB
M  END
$$$$
