drugbank_target|P72161 D-alanyl-D-alanine endopeptidase (DB00438)
 OpenBabel12092120573D

  0  0  0     0  0            999 V3000
M  V30 BEGIN CTAB
M  V30 COUNTS 4873 4915 0 0 0
M  V30 BEGIN ATOM
M  V30 1 H -0.908 1.98254 -0.117106 0
M  V30 2 N 0 1.576 0 0
M  V30 3 C 0.933 2.03868 1.02534 0
M  V30 4 C 1.911 0.928543 1.3348 0
M  V30 5 O 3.095 1.19667 1.45644 0
M  V30 6 C 0.222 2.43627 2.35294 0
M  V30 7 C -0.732 3.65373 2.2001 0
M  V30 8 S 0.101 5.13292 1.52614 0
M  V30 9 C 1.257 5.56322 2.86805 0
M  V30 10 H 1.49 2.90518 0.631377 0
M  V30 11 H -0.977 1.52953 0.210867 0
M  V30 12 H 0.981 2.67203 3.11629 0
M  V30 13 H -0.358 1.57376 2.7183 0
M  V30 14 H -1.165 3.90944 3.18086 0
M  V30 15 H -1.563 3.418 1.51819 0
M  V30 16 H 0.729 5.58782 3.83104 0
M  V30 17 H 1.672 6.56266 2.65933 0
M  V30 18 H 2.08 4.83886 2.90714 0
M  V30 19 N 1.4781 -0.272755 1.55222 0
M  V30 20 C 2.8941 -0.619959 1.47067 0
M  V30 21 C 3.0941 -1.895 0.684978 0
M  V30 22 O 2.1501 -2.51675 0.203931 0
M  V30 23 C 3.4631 -0.746693 2.91282 0
M  V30 24 C 5.0111 -0.840731 3.01497 0
M  V30 25 C 5.4861 -0.99924 4.46967 0
M  V30 26 N 6.9771 -1.06476 4.50796 0
M  V30 27 C 7.7121 -1.20621 5.6057 0
M  V30 28 N 7.2081 -1.31483 6.80209 0
M  V30 29 N 9.0011 -1.23733 5.48312 0
M  V30 30 H 1.1521 0.564606 2.04758 0
M  V30 31 H 3.4151 0.191177 0.928523 0
M  V30 32 H 3.1211 0.119753 3.51496 0
M  V30 33 H 2.9951 -1.6269 3.40311 0
M  V30 34 H 5.3821 -1.69764 2.41379 0
M  V30 35 H 5.4631 0.0640874 2.5572 0
M  V30 36 H 5.1071 -0.146984 5.07687 0
M  V30 37 H 5.0371 -1.91871 4.90401 0
M  V30 38 H 7.5281 -0.993196 3.64615 0
M  V30 39 H 7.8411 -1.42111 7.59621 0
M  V30 40 H 6.1861 -1.28487 6.8302 0
M  V30 41 H 9.3771 -1.14877 4.53785 0
M  V30 42 H 9.5501 -1.34412 6.33906 0
M  V30 43 N 2.9562 -1.48159 -0.537278 0
M  V30 44 C 3.9042 -1.62573 -1.66352 0
M  V30 45 C 4.8982 -0.492366 -1.62087 0
M  V30 46 O 6.1042 -0.670847 -1.67032 0
M  V30 47 H 2.4792 -0.511992 -0.550789 0
M  V30 48 H 4.4502 -2.57176 -1.51337 0
M  V30 49 C 3.1992 -1.67583 -3.04649 0
M  V30 50 H 2.5222 -2.54151 -3.08622 0
M  V30 51 H 3.9622 -1.81713 -3.83088 0
M  V30 52 C 2.4212 -0.413039 -3.34358 0
M  V30 53 O 2.9512 0.477259 -3.98855 0
M  V30 54 N 1.1572 -0.286961 -2.8918 0
M  V30 55 H 0.7042 -1.01241 -2.36871 0
M  V30 56 H 0.6622 0.556963 -3.09427 0
M  V30 57 N 4.4343 0.785586 -1.36625 0
M  V30 58 C 5.8503 1.08419 -1.17122 0
M  V30 59 C 6.0503 2.015 0.00208491 0
M  V30 60 O 5.1063 2.43551 0.666278 0
M  V30 61 C 6.4193 1.69498 -2.48377 0
M  V30 62 C 7.9673 1.81821 -2.54775 0
M  V30 63 C 8.4423 2.46315 -3.86126 0
M  V30 64 N 9.9333 2.53779 -3.87492 0
M  V30 65 C 10.6683 3.045 -4.85868 0
M  V30 66 N 10.1643 3.55499 -5.94637 0
M  V30 67 N 11.9573 3.03247 -4.73284 0
M  V30 68 H 4.1083 0.167264 -2.1174 0
M  V30 69 H 6.3713 0.13682 -0.938075 0
M  V30 70 H 6.0773 1.08571 -3.34522 0
M  V30 71 H 5.9513 2.6896 -2.64462 0
M  V30 72 H 8.3383 2.41884 -1.69045 0
M  V30 73 H 8.4193 0.811532 -2.42586 0
M  V30 74 H 8.0633 1.86895 -4.72263 0
M  V30 75 H 7.9933 3.47561 -3.95612 0
M  V30 76 H 10.4843 2.17672 -3.08913 0
M  V30 77 H 10.7973 3.92562 -6.65669 0
M  V30 78 H 9.1423 3.5364 -5.98301 0
M  V30 79 H 12.3333 2.62696 -3.87438 0
M  V30 80 H 12.5063 3.42467 -5.50109 0
M  V30 81 N 5.9124 1.20967 1.01018 0
M  V30 82 C 6.8424 0.988272 2.11555 0
M  V30 83 C 7.8234 -0.0849778 1.69888 0
M  V30 84 O 9.0084 0.0738202 1.9406 0
M  V30 85 C 6.1384 0.546528 3.42973 0
M  V30 86 C 5.0924 1.56375 3.9841 0
M  V30 87 C 4.4184 0.97842 5.25672 0
M  V30 88 C 5.7184 2.94922 4.31066 0
M  V30 89 H 7.4124 1.91276 2.30334 0
M  V30 90 H 4.9584 0.921073 1.1069 0
M  V30 91 H 6.9114 0.378839 4.19694 0
M  V30 92 H 5.6354 -0.413598 3.23971 0
M  V30 93 H 4.2944 1.71891 3.23804 0
M  V30 94 H 3.9424 0.0101688 5.02999 0
M  V30 95 H 3.6424 1.65784 5.63728 0
M  V30 96 H 5.1664 0.821939 6.05043 0
M  V30 97 H 6.5804 2.8288 4.9865 0
M  V30 98 H 4.9774 3.5983 4.80253 0
M  V30 99 H 6.0474 3.4616 3.39561 0
M  V30 100 N 7.3905 -1.2043 1.01659 0
M  V30 101 C 8.3205 -2.25466 0.607226 0
M  V30 102 C 9.3015 -1.65853 -0.377716 0
M  V30 103 O 10.4865 -1.92409 -0.263149 0
M  V30 104 C 7.6165 -3.47256 -0.0552949 0
M  V30 105 C 6.5705 -4.19462 0.850632 0
M  V30 106 C 5.8965 -5.34673 0.0538859 0
M  V30 107 C 7.1965 -4.75603 2.15868 0
M  V30 108 H 8.8905 -2.59962 1.48526 0
M  V30 109 H 6.4365 -1.2496 0.715605 0
M  V30 110 H 8.3895 -4.19917 -0.353233 0
M  V30 111 H 7.1135 -3.11924 -0.968045 0
M  V30 112 H 5.7725 -3.48667 1.13257 0
M  V30 113 H 5.4205 -4.95585 -0.860514 0
M  V30 114 H 5.1205 -5.83913 0.657192 0
M  V30 115 H 6.6445 -6.10138 -0.237598 0
M  V30 116 H 8.0585 -5.40083 1.92311 0
M  V30 117 H 6.4555 -5.3528 2.71284 0
M  V30 118 H 7.5255 -3.94346 2.82169 0
M  V30 119 N 8.8686 -0.792821 -1.36206 0
M  V30 120 C 10.0936 -0.377701 -2.03932 0
M  V30 121 C 10.5186 0.998947 -1.59382 0
M  V30 122 O 9.8766 1.64421 -0.763903 0
M  V30 123 C 9.9246 -0.453635 -3.57735 0
M  V30 124 O 9.0286 0.538151 -4.08874 0
M  V30 125 H 8.3696 -0.159855 -0.644471 0
M  V30 126 H 10.8996 -1.07488 -1.7409 0
M  V30 127 H 10.9096 -0.318464 -4.06755 0
M  V30 128 H 9.5846 -1.45784 -3.89512 0
M  V30 129 H 8.1616 0.364359 -3.71116 0
M  V30 130 N 10.3467 1.47872 -0.545128 0
M  V30 131 C 11.2767 2.32661 0.197793 0
M  V30 132 C 12.2577 1.43041 0.920504 0
M  V30 133 O 13.4427 1.71912 0.90333 0
M  V30 134 C 10.5727 3.24569 1.23582 0
M  V30 135 C 9.5267 4.23333 0.630323 0
M  V30 136 C 8.8527 5.0448 1.77211 0
M  V30 137 C 10.1527 5.20704 -0.407974 0
M  V30 138 H 11.8467 2.95024 -0.510045 0
M  V30 139 H 9.3927 1.4187 -0.246731 0
M  V30 140 H 11.3457 3.8272 1.76362 0
M  V30 141 H 10.0697 2.60236 1.97344 0
M  V30 142 H 8.7287 3.6639 0.123922 0
M  V30 143 H 8.3767 4.36561 2.49847 0
M  V30 144 H 8.0767 5.71339 1.37281 0
M  V30 145 H 9.6007 5.65487 2.3034 0
M  V30 146 H 11.0147 5.7329 0.033305 0
M  V30 147 H 9.4117 5.95699 -0.725486 0
M  V30 148 H 10.4817 4.66917 -1.30828 0
M  V30 149 N 11.8248 0.280983 1.55075 0
M  V30 150 C 13.0708 -0.33461 2.00021 0
M  V30 151 C 13.4038 -1.55063 1.16915 0
M  V30 152 O 12.6788 -1.93006 0.240646 0
M  V30 153 C 12.9618 -0.711007 3.53011 0
M  V30 154 C 12.8148 0.512766 4.46868 0
M  V30 155 C 14.1338 -1.54522 4.12081 0
M  V30 156 H 11.2528 -0.120147 0.727141 0
M  V30 157 H 13.8948 0.389097 1.85973 0
M  V30 158 H 12.0448 -1.32761 3.65112 0
M  V30 159 H 13.7168 1.15131 4.46702 0
M  V30 160 H 11.9598 1.14975 4.18286 0
M  V30 161 H 12.6308 0.205556 5.51617 0
M  V30 162 H 15.1068 -1.02442 4.03293 0
M  V30 163 H 13.9828 -1.77739 5.19327 0
M  V30 164 H 14.2438 -2.52813 3.62682 0
M  V30 165 N 13.3029 -1.57598 0.00835791 0
M  V30 166 C 14.5309 -1.95214 -0.68549 0
M  V30 167 C 14.9459 -0.883706 -1.66841 0
M  V30 168 O 14.3029 0.136565 -1.81988 0
M  V30 169 C 14.3539 -3.32865 -1.41007 0
M  V30 170 O 14.0749 -4.35609 -0.466552 0
M  V30 171 C 15.5759 -3.84991 -2.19765 0
M  V30 172 H 12.7959 -0.643422 -0.190392 0
M  V30 173 H 15.3399 -2.04406 0.0619607 0
M  V30 174 H 13.4949 -3.24956 -2.10908 0
M  V30 175 H 13.9089 -5.15288 -0.978699 0
M  V30 176 H 15.3829 -4.8371 -2.65948 0
M  V30 177 H 15.8599 -3.18137 -3.02796 0
M  V30 178 H 16.4659 -3.96103 -1.54864 0
M  V30 179 N 14.781 0.264519 -1.55364 0
M  V30 180 C 15.711 1.33121 -1.91836 0
M  V30 181 C 16.692 1.51101 -0.781192 0
M  V30 182 O 17.877 1.64003 -1.04003 0
M  V30 183 C 15.007 2.68921 -2.19769 0
M  V30 184 C 13.961 2.65661 -3.35571 0
M  V30 185 C 13.287 4.05093 -3.49004 0
M  V30 186 C 14.587 2.24187 -4.71739 0
M  V30 187 H 16.281 1.02844 -2.81182 0
M  V30 188 H 13.827 0.493286 -1.35287 0
M  V30 189 H 15.78 3.43663 -2.43872 0
M  V30 190 H 14.504 3.00799 -1.27231 0
M  V30 191 H 13.163 1.93377 -3.1145 0
M  V30 192 H 12.811 4.34206 -2.53917 0
M  V30 193 H 12.511 4.03804 -4.26868 0
M  V30 194 H 14.035 4.81561 -3.75408 0
M  V30 195 H 15.449 2.88654 -4.9533 0
M  V30 196 H 13.846 2.34044 -5.52579 0
M  V30 197 H 14.916 1.19327 -4.69988 0
M  V30 198 N 16.2591 1.48442 0.529413 0
M  V30 199 C 17.5061 1.56488 1.28521 0
M  V30 200 C 17.8341 0.239042 1.93025 0
M  V30 201 O 17.0891 -0.770713 1.79885 0
M  V30 202 C 17.3881 2.6523 2.39558 0
M  V30 203 C 17.0541 4.07648 1.92702 0
M  V30 204 C 15.7161 4.46411 1.79641 0
M  V30 205 C 18.0681 4.96896 1.573 0
M  V30 206 C 15.3961 5.72226 1.29514 0
M  V30 207 C 17.7481 6.23202 1.08636 0
M  V30 208 C 16.4121 6.60821 0.941919 0
M  V30 209 H 15.6821 0.572631 0.470292 0
M  V30 210 H 18.3291 1.82161 0.59072 0
M  V30 211 H 16.6341 2.33419 3.14679 0
M  V30 212 H 18.3311 2.68671 2.97686 0
M  V30 213 H 14.9211 3.77036 2.03819 0
M  V30 214 H 19.1051 4.67626 1.66251 0
M  V30 215 H 14.3611 6.00097 1.17019 0
M  V30 216 H 18.5351 6.91753 0.803136 0
M  V30 217 H 16.1621 7.58198 0.5513 0
M  V30 218 N 17.7372 -0.778329 1.37039 0
M  V30 219 C 18.6672 -1.90546 1.34962 0
M  V30 220 C 19.6482 -1.68681 0.219274 0
M  V30 221 O 20.8332 -1.89634 0.418624 0
M  V30 222 C 17.9632 -3.27734 1.14925 0
M  V30 223 C 16.9172 -3.64147 2.24902 0
M  V30 224 C 16.2432 -4.99806 1.89996 0
M  V30 225 C 17.5432 -3.71579 3.67051 0
M  V30 226 H 19.2372 -1.92541 2.29277 0
M  V30 227 H 16.7832 -0.924948 1.10366 0
M  V30 228 H 18.7362 -4.06215 1.12104 0
M  V30 229 H 17.4602 -3.26154 0.170631 0
M  V30 230 H 16.1192 -2.8797 2.26868 0
M  V30 231 H 15.7672 -4.94759 0.906796 0
M  V30 232 H 15.4672 -5.25139 2.63634 0
M  V30 233 H 16.9912 -5.80694 1.88749 0
M  V30 234 H 18.4052 -4.40227 3.67251 0
M  V30 235 H 16.8022 -4.08405 4.39688 0
M  V30 236 H 17.8722 -2.72404 4.01154 0
M  V30 237 N 19.2153 -1.21501 -1.00376 0
M  V30 238 C 20.4403 -1.05977 -1.78279 0
M  V30 239 C 20.8653 0.385994 -1.84097 0
M  V30 240 O 20.2233 1.27849 -1.28547 0
M  V30 241 C 20.2713 -1.66302 -3.19963 0
M  V30 242 O 19.3753 -0.909333 -4.0225 0
M  V30 243 H 18.7163 -0.372906 -0.549397 0
M  V30 244 H 21.2463 -1.6107 -1.26165 0
M  V30 245 H 21.2563 -1.70574 -3.70632 0
M  V30 246 H 19.9313 -2.71515 -3.15043 0
M  V30 247 H 18.5083 -0.941795 -3.60811 0
M  V30 248 N 20.6934 1.19889 -1.02296 0
M  V30 249 C 21.6234 2.25141 -0.619174 0
M  V30 250 C 22.6044 1.66051 0.368915 0
M  V30 251 O 23.7894 1.92546 0.252941 0
M  V30 252 C 20.9194 3.4728 0.0368783 0
M  V30 253 C 19.8734 4.19005 -0.872865 0
M  V30 254 C 19.1994 5.34637 -0.0822402 0
M  V30 255 C 20.4994 4.74452 -2.18387 0
M  V30 256 H 22.1934 2.59171 -1.49903 0
M  V30 257 H 19.7394 1.24579 -0.722222 0
M  V30 258 H 21.6924 4.20098 0.330958 0
M  V30 259 H 20.4164 3.12433 0.95149 0
M  V30 260 H 19.0754 3.48061 -1.15105 0
M  V30 261 H 18.7234 4.96034 0.83422 0
M  V30 262 H 18.4234 5.83557 -0.688149 0
M  V30 263 H 19.9474 6.10255 0.205238 0
M  V30 264 H 21.3614 5.39055 -1.95172 0
M  V30 265 H 19.7584 5.33834 -2.74119 0
M  V30 266 H 20.8284 3.92844 -2.84257 0
M  V30 267 N 22.1715 0.800033 1.35784 0
M  V30 268 C 23.3965 0.388511 2.03729 0
M  V30 269 C 23.8215 -0.990481 1.5991 0
M  V30 270 O 23.1795 -1.64013 0.772612 0
M  V30 271 C 23.2275 0.4726 3.5749 0
M  V30 272 O 22.3315 -0.51646 4.09153 0
M  V30 273 H 21.6725 0.163271 0.643614 0
M  V30 274 H 24.2025 1.0841 1.73518 0
M  V30 275 H 24.2125 0.34003 4.06581 0
M  V30 276 H 22.8875 1.47848 3.88734 0
M  V30 277 H 21.4645 -0.344673 3.71304 0
M  V30 278 N 23.6496 -1.47581 0.552962 0
M  V30 279 C 24.8956 -2.02782 0.0273648 0
M  V30 280 C 25.2286 -1.42687 -1.31734 0
M  V30 281 O 24.5036 -0.580897 -1.85623 0
M  V30 282 C 24.7866 -3.60031 -0.0702371 0
M  V30 283 C 24.6396 -4.30566 1.30126 0
M  V30 284 C 25.9586 -4.33028 -0.785771 0
M  V30 285 H 23.0776 -0.736912 0.0114185 0
M  V30 286 H 25.7196 -1.76056 0.714432 0
M  V30 287 H 23.8696 -3.82932 -0.655382 0
M  V30 288 H 25.5416 -4.19018 1.92929 0
M  V30 289 H 23.7846 -3.91086 1.87709 0
M  V30 290 H 24.4556 -5.39114 1.18573 0
M  V30 291 H 26.9316 -4.15095 -0.288982 0
M  V30 292 H 25.8076 -5.42695 -0.823013 0
M  V30 293 H 26.0686 -4.01945 -1.841 0
M  V30 294 N 25.1277 -0.289203 -1.54924 0
M  V30 295 C 26.0907 0.579144 -2.21762 0
M  V30 296 C 27.0907 1.07047 -1.1999 0
M  V30 297 O 28.2807 0.968384 -1.44803 0
M  V30 298 C 25.4127 1.80055 -2.8947 0
M  V30 299 H 26.6057 -0.00464908 -2.999 0
M  V30 300 H 24.1587 -0.0399306 -1.56249 0
M  V30 301 H 24.8937 2.42449 -2.15381 0
M  V30 302 H 24.6787 1.45602 -3.64064 0
M  V30 303 H 26.1687 2.41773 -3.40493 0
M  V30 304 N 26.6058 1.57591 -0.0167156 0
M  V30 305 C 27.8338 1.95575 0.675128 0
M  V30 306 C 28.2488 0.892542 1.6637 0
M  V30 307 O 27.6058 -0.126912 1.82058 0
M  V30 308 C 27.6568 3.33608 1.39239 0
M  V30 309 O 27.3778 4.3585 0.443444 0
M  V30 310 C 28.8788 3.86151 2.17721 0
M  V30 311 H 26.0988 0.644423 0.186978 0
M  V30 312 H 28.6428 2.0437 -0.0728 0
M  V30 313 H 26.7978 3.2607 2.09182 0
M  V30 314 H 27.2118 5.158 0.951358 0
M  V30 315 H 28.6858 4.85114 2.63379 0
M  V30 316 H 29.1628 3.19738 3.01105 0
M  V30 317 H 29.7688 3.96918 1.52761 0
M  V30 318 N 28.0839 -0.256276 1.55502 0
M  V30 319 C 29.0469 -1.30047 1.88734 0
M  V30 320 C 30.0469 -1.4154 0.763086 0
M  V30 321 O 31.2369 -1.40403 1.03115 0
M  V30 322 C 28.3689 -2.67953 2.10747 0
M  V30 323 H 29.5619 -1.01802 2.82093 0
M  V30 324 H 27.1149 -0.495134 1.4825 0
M  V30 325 H 27.8499 -3.01351 1.19825 0
M  V30 326 H 27.6349 -2.60993 2.92617 0
M  V30 327 H 29.1249 -3.43368 2.37673 0
M  V30 328 N 29.562 -1.4872 -0.521534 0
M  V30 329 C 30.808 -1.574 -1.27879 0
M  V30 330 C 31.141 -0.250817 -1.92573 0
M  V30 331 O 30.416 0.743934 -1.79711 0
M  V30 332 C 30.699 -2.71843 -2.36164 0
M  V30 333 C 30.552 -4.13893 -1.76105 0
M  V30 334 C 31.871 -2.82008 -3.37875 0
M  V30 335 H 28.99 -0.572941 -0.463581 0
M  V30 336 H 31.632 -1.80927 -0.580119 0
M  V30 337 H 29.782 -2.51914 -2.95756 0
M  V30 338 H 31.454 -4.45284 -1.20499 0
M  V30 339 H 29.697 -4.20498 -1.06601 0
M  V30 340 H 30.368 -4.89804 -2.5455 0
M  V30 341 H 32.844 -3.00086 -2.88249 0
M  V30 342 H 31.72 -3.63796 -4.11028 0
M  V30 343 H 31.981 -1.90511 -3.98946 0
M  V30 344 N 31.0401 0.771051 -1.3745 0
M  V30 345 C 32.2651 1.56529 -1.36065 0
M  V30 346 C 32.6901 1.88029 0.0515859 0
M  V30 347 O 32.0481 1.49282 1.02882 0
M  V30 348 C 32.0961 2.85187 -2.20683 0
M  V30 349 O 31.2001 3.79593 -1.61193 0
M  V30 350 H 30.5411 0.47411 -0.464883 0
M  V30 351 H 33.0711 0.954269 -1.80983 0
M  V30 352 H 33.0811 3.34283 -2.33921 0
M  V30 353 H 31.7561 2.61588 -3.23334 0
M  V30 354 H 30.3331 3.38239 -1.56999 0
M  V30 355 N 32.5182 1.22032 0.997298 0
M  V30 356 C 33.4812 0.987909 2.06816 0
M  V30 357 C 34.4812 -0.0440084 1.6074 0
M  V30 358 O 35.6712 0.194053 1.73116 0
M  V30 359 C 32.8032 0.49132 3.37341 0
M  V30 360 H 33.9962 1.93803 2.28868 0
M  V30 361 H 31.5492 1.03838 1.16822 0
M  V30 362 H 32.2842 -0.463364 3.20973 0
M  V30 363 H 32.0692 1.23575 3.72118 0
M  V30 364 H 33.5592 0.348824 4.16141 0
M  V30 365 N 33.9963 -1.19345 1.0293 0
M  V30 366 C 35.2213 -1.93538 0.745511 0
M  V30 367 C 35.6463 -1.75007 -0.689511 0
M  V30 368 O 35.0043 -1.05265 -1.47611 0
M  V30 369 C 35.0523 -3.43336 1.10239 0
M  V30 370 O 34.1563 -4.11806 0.221289 0
M  V30 371 H 33.4973 -0.604193 0.275404 0
M  V30 372 H 36.0273 -1.5141 1.37609 0
M  V30 373 H 36.0373 -3.94004 1.05947 0
M  V30 374 H 34.7123 -3.56146 2.14786 0
M  V30 375 H 33.2893 -3.715 0.322842 0
M  V30 376 N 35.4744 -0.807222 -1.35358 0
M  V30 377 C 36.8854 -0.44876 -1.81226 0
M  V30 378 C 37.2364 1.02929 -1.67033 0
M  V30 379 O 36.3614 1.79991 -1.20133 0
M  V30 380 C 36.9564 -0.807774 -3.2903 0
M  V30 381 C 35.5154 -0.501901 -3.73039 0
M  V30 382 C 34.6624 -1.03304 -2.57339 0
M  V30 383 H 37.6134 -0.998808 -1.23327 0
M  V30 384 H 37.6344 -0.10554 -3.80354 0
M  V30 385 H 37.1464 -1.88357 -3.39328 0
M  V30 386 H 35.2474 0.565128 -3.68289 0
M  V30 387 H 35.3604 -1.03497 -4.67787 0
M  V30 388 H 33.7244 -0.455339 -2.50597 0
M  V30 389 H 34.5074 -2.11496 -2.70415 0
M  V30 390 N 36.9525 1.47285 -0.560781 0
M  V30 391 C 38.3635 1.86258 -0.128343 0
M  V30 392 C 38.7145 1.46699 1.30284 0
M  V30 393 O 37.8395 0.871698 1.98067 0
M  V30 394 C 38.4345 3.38044 -0.22614 0
M  V30 395 C 36.9935 3.76096 0.151283 0
M  V30 396 C 36.1405 2.71335 -0.572084 0
M  V30 397 H 39.0915 1.38752 -0.770297 0
M  V30 398 H 39.1125 3.76441 0.554322 0
M  V30 399 H 38.6245 3.66806 -1.26788 0
M  V30 400 H 36.7255 3.52951 1.19399 0
M  V30 401 H 36.8385 4.78641 -0.209765 0
M  V30 402 H 35.2025 2.54696 -0.0147653 0
M  V30 403 H 35.9855 3.02938 -1.61504 0
M  V30 404 N 38.4306 0.297415 1.54768 0
M  V30 405 C 39.8416 -0.195947 1.85669 0
M  V30 406 C 40.1926 -1.53707 1.21937 0
M  V30 407 O 39.3176 -2.10164 0.515754 0
M  V30 408 C 39.9126 -0.362318 3.36857 0
M  V30 409 C 38.4716 -0.799901 3.67802 0
M  V30 410 C 37.6186 0.0938578 2.77141 0
M  V30 411 H 40.5696 0.518538 1.4999 0
M  V30 412 H 40.5906 -1.19745 3.61167 0
M  V30 413 H 40.1026 0.613921 3.83214 0
M  V30 414 H 38.2036 -1.78682 3.26961 0
M  V30 415 H 38.3166 -0.621773 4.75048 0
M  V30 416 H 36.6806 -0.426254 2.51108 0
M  V30 417 H 37.4636 1.06639 3.26318 0
M  V30 418 N 39.9087 -1.5758 0.0250728 0
M  V30 419 C 40.8557 -2.09973 -0.958129 0
M  V30 420 C 41.8257 -1.00085 -1.3256 0
M  V30 421 O 43.0107 -1.27481 -1.41962 0
M  V30 422 C 40.1507 -2.62812 -2.2366 0
M  V30 423 C 39.2637 -3.86693 -1.92594 0
M  V30 424 C 38.3987 -4.27941 -3.14707 0
M  V30 425 C 37.4377 -5.44591 -2.79442 0
M  V30 426 N 36.5747 -5.81014 -3.94167 0
M  V30 427 H 41.4147 -2.937 -0.504428 0
M  V30 428 H 38.9517 -1.45172 -0.237392 0
M  V30 429 H 40.9097 -2.91536 -2.98434 0
M  V30 430 H 39.5397 -1.81922 -2.66654 0
M  V30 431 H 38.5917 -3.64723 -1.0808 0
M  V30 432 H 39.9037 -4.71547 -1.62619 0
M  V30 433 H 39.0577 -4.58079 -3.97804 0
M  V30 434 H 37.7967 -3.41845 -3.4784 0
M  V30 435 H 36.8017 -5.1415 -1.94755 0
M  V30 436 H 38.0267 -6.32382 -2.47528 0
M  V30 437 H 35.9727 -4.97874 -4.2715 0
M  V30 438 H 35.8897 -6.60498 -3.67801 0
M  V30 439 H 37.1577 -6.15756 -4.7798 0
M  V30 440 N 41.3868 0.248026 -1.55636 0
M  V30 441 C 42.3498 1.29044 -1.89421 0
M  V30 442 C 43.3498 1.41134 -0.770581 0
M  V30 443 O 44.5398 1.39854 -1.03858 0
M  V30 444 C 41.6718 2.66831 -2.12165 0
M  V30 445 H 42.8648 1.00305 -2.82629 0
M  V30 446 H 40.4178 0.487265 -1.48511 0
M  V30 447 H 41.1528 3.00711 -1.21422 0
M  V30 448 H 40.9378 2.59438 -2.93997 0
M  V30 449 H 42.4278 3.42103 -2.3949 0
M  V30 450 N 42.8649 1.48995 0.513639 0
M  V30 451 C 44.1129 1.57531 1.26604 0
M  V30 452 C 44.4339 0.258236 1.93283 0
M  V30 453 O 43.7039 -0.721502 1.8213 0
M  V30 454 H 42.2839 0.580387 0.470276 0
M  V30 455 H 44.9459 1.85552 0.596373 0
M  V30 456 H 44.0419 2.36486 2.03669 0
M  V30 457 N 44.343 -0.763751 1.37857 0
M  V30 458 C 45.273 -1.89103 1.36975 0
M  V30 459 C 46.254 -1.68439 0.237152 0
M  V30 460 O 47.439 -1.8918 0.438713 0
M  V30 461 C 44.569 -3.26496 1.18395 0
M  V30 462 C 43.523 -3.61741 2.28751 0
M  V30 463 C 42.849 -4.97762 1.95286 0
M  V30 464 C 44.149 -3.67665 3.70972 0
M  V30 465 H 45.843 -1.90099 2.31307 0
M  V30 466 H 43.389 -0.91319 1.11341 0
M  V30 467 H 45.342 -4.05003 1.16406 0
M  V30 468 H 44.066 -3.25955 0.205215 0
M  V30 469 H 42.725 -2.85547 2.29909 0
M  V30 470 H 42.373 -4.93769 0.959221 0
M  V30 471 H 42.073 -5.22313 2.69189 0
M  V30 472 H 43.597 -5.7866 1.94898 0
M  V30 473 H 45.011 -4.36307 3.719 0
M  V30 474 H 43.408 -4.03718 4.43995 0
M  V30 475 H 44.478 -2.68134 4.0402 0
M  V30 476 N 45.8211 -1.22559 -0.990812 0
M  V30 477 C 47.2321 -1.04791 -1.54518 0
M  V30 478 C 47.5831 0.387998 -1.92325 0
M  V30 479 O 46.7081 1.27328 -1.74976 0
M  V30 480 C 47.3031 -1.896 -2.80779 0
M  V30 481 C 45.8621 -1.76124 -3.32652 0
M  V30 482 C 45.0091 -1.8594 -2.05722 0
M  V30 483 H 47.9601 -1.36374 -0.811662 0
M  V30 484 H 47.9811 -1.41464 -3.53225 0
M  V30 485 H 47.4931 -2.94101 -2.53231 0
M  V30 486 H 45.5941 -0.743643 -3.65104 0
M  V30 487 H 45.7071 -2.58913 -4.03114 0
M  V30 488 H 44.0711 -1.29403 -2.19379 0
M  V30 489 H 44.8541 -2.91976 -1.80568 0
M  V30 490 N 47.2992 1.18797 -1.03562 0
M  V30 491 C 48.2292 2.24472 -0.643019 0
M  V30 492 C 49.2102 1.66433 0.351283 0
M  V30 493 O 50.3952 1.92803 0.232505 0
M  V30 494 C 47.5252 3.473 4.24935e-05 0
M  V30 495 C 46.4792 4.18055 -0.917257 0
M  V30 496 C 45.8052 5.34519 -0.138941 0
M  V30 497 C 47.1052 4.72109 -2.23407 0
M  V30 498 H 48.7992 2.57566 -1.52643 0
M  V30 499 H 46.3452 1.23806 -0.735394 0
M  V30 500 H 48.2982 4.20426 0.286383 0
M  V30 501 H 47.0222 3.13424 0.918299 0
M  V30 502 H 45.6812 3.46821 -1.1879 0
M  V30 503 H 45.3292 4.96891 0.781562 0
M  V30 504 H 45.0292 5.82794 -0.750005 0
M  V30 505 H 46.5532 6.10438 0.1405 0
M  V30 506 H 47.9672 5.36955 -2.00879 0
M  V30 507 H 46.3642 5.30897 -2.79765 0
M  V30 508 H 47.4342 3.89807 -2.88407 0
M  V30 509 N 48.7773 0.814389 1.34928 0
M  V30 510 C 49.7093 0.187834 2.28429 0
M  V30 511 C 50.7223 -0.617374 1.5064 0
M  V30 512 O 51.9113 -0.448454 1.72775 0
M  V30 513 C 49.0113 -0.755962 3.30361 0
M  V30 514 C 48.1843 0.00456686 4.374 0
M  V30 515 C 47.2433 -0.858876 5.19143 0
M  V30 516 O 46.2693 -0.306968 5.68372 0
M  V30 517 N 47.4713 -2.17988 5.38016 0
M  V30 518 H 50.2363 0.991105 2.82838 0
M  V30 519 H 47.7973 0.670561 1.4736 0
M  V30 520 H 49.7893 -1.338 3.81942 0
M  V30 521 H 48.3593 -1.46001 2.7641 0
M  V30 522 H 47.5793 0.767865 3.86649 0
M  V30 523 H 48.8673 0.528422 5.06049 0
M  V30 524 H 48.2653 -2.65212 4.99679 0
M  V30 525 H 46.8223 -2.71098 5.92747 0
M  V30 526 N 50.2554 -1.46986 0.568584 0
M  V30 527 C 51.1874 -2.28233 -0.210337 0
M  V30 528 C 52.2004 -1.37682 -0.868767 0
M  V30 529 O 53.3894 -1.62406 -0.740705 0
M  V30 530 C 50.4894 -3.12293 -1.3163 0
M  V30 531 C 49.6624 -4.30878 -0.7525 0
M  V30 532 C 48.7214 -4.96445 -1.74439 0
M  V30 533 O 47.7474 -5.54482 -1.286 0
M  V30 534 N 48.9494 -4.92171 -3.07812 0
M  V30 535 H 51.7144 -2.95723 0.486648 0
M  V30 536 H 49.2754 -1.56742 0.405409 0
M  V30 537 H 51.2674 -3.53022 -1.97883 0
M  V30 538 H 49.8374 -2.46971 -1.91636 0
M  V30 539 H 49.0574 -3.94104 0.0871128 0
M  V30 540 H 50.3454 -5.07558 -0.35536 0
M  V30 541 H 49.7434 -4.46239 -3.47688 0
M  V30 542 H 48.3004 -5.36884 -3.69592 0
M  V30 543 N 51.7335 -0.305618 -1.54608 0
M  V30 544 C 52.6435 0.57778 -2.27374 0
M  V30 545 C 53.6595 1.14451 -1.31061 0
M  V30 546 O 54.8355 1.16831 -1.6405 0
M  V30 547 C 51.9005 1.73123 -3.00382 0
M  V30 548 C 50.9615 1.19812 -4.12242 0
M  V30 549 C 50.1945 2.2966 -4.81759 0
M  V30 550 O 50.4175 3.49651 -4.50666 0
M  V30 551 O 49.3515 1.96091 -5.69062 0
M  V30 552 H 53.1775 -0.012624 -3.03697 0
M  V30 553 H 50.7625 -0.0719184 -1.49227 0
M  V30 554 H 52.6445 2.40315 -3.4616 0
M  V30 555 H 51.3195 2.30815 -2.26949 0
M  V30 556 H 50.2265 0.491798 -3.70853 0
M  V30 557 H 51.5595 0.666566 -4.87666 0
M  V30 558 N 53.2116 1.57565 -0.0334293 0
M  V30 559 C 54.1416 2.13511 0.945265 0
M  V30 560 C 55.1226 1.05231 1.33643 0
M  V30 561 O 56.3076 1.33084 1.41429 0
M  V30 562 C 53.4376 2.6657 2.22616 0
M  V30 563 C 52.3916 3.79676 1.97561 0
M  V30 564 C 51.7176 4.1918 3.31952 0
M  V30 565 C 53.0176 5.0557 1.31135 0
M  V30 566 H 54.7116 2.95538 0.479325 0
M  V30 567 H 52.2576 1.42166 0.229115 0
M  V30 568 H 54.2106 3.04344 2.91466 0
M  V30 569 H 52.9346 1.8171 2.71384 0
M  V30 570 H 51.5936 3.42347 1.31127 0
M  V30 571 H 51.2416 3.31296 3.78487 0
M  V30 572 H 50.9416 4.95402 3.15992 0
M  V30 573 H 52.4656 4.59541 4.02063 0
M  V30 574 H 53.8796 5.40903 1.89992 0
M  V30 575 H 52.2766 5.86818 1.25559 0
M  V30 576 H 53.3466 4.84062 0.284894 0
M  V30 577 N 54.6897 -0.239769 1.55765 0
M  V30 578 C 55.6527 -1.28038 1.90103 0
M  V30 579 C 56.6527 -1.40723 0.778055 0
M  V30 580 O 57.8427 -1.39301 1.04599 0
M  V30 581 C 54.9747 -2.65702 2.13577 0
M  V30 582 H 56.1677 -0.988048 2.83157 0
M  V30 583 H 53.7207 -0.479382 1.48767 0
M  V30 584 H 54.4557 -3.00063 1.23015 0
M  V30 585 H 54.2407 -2.57875 2.95369 0
M  V30 586 H 55.7307 -3.40828 2.41301 0
M  V30 587 N 56.1678 -1.49265 -0.50573 0
M  V30 588 C 57.3928 -1.62478 -1.28902 0
M  V30 589 C 57.8178 -0.294332 -1.85783 0
M  V30 590 O 57.1758 0.737412 -1.65626 0
M  V30 591 C 57.2238 -2.69268 -2.39848 0
M  V30 592 O 56.3278 -2.28113 -3.43567 0
M  V30 593 H 55.6688 -0.54399 -0.380751 0
M  V30 594 H 58.1988 -1.95421 -0.605952 0
M  V30 595 H 58.2088 -2.91291 -2.85681 0
M  V30 596 H 56.8838 -3.65846 -1.97812 0
M  V30 597 H 55.4608 -2.16401 -3.03685 0
M  V30 598 N 57.6459 0.756429 -1.3826 0
M  V30 599 C 58.8939 1.51248 -1.34047 0
M  V30 600 C 59.2149 1.94875 0.0698372 0
M  V30 601 O 58.4849 1.67436 1.01696 0
M  V30 602 H 57.0649 0.561018 -0.493222 0
M  V30 603 H 59.7269 0.899347 -1.7291 0
M  V30 604 H 58.8229 2.40472 -1.98947 0
M  V30 605 N 59.124 1.23083 0.984299 0
M  V30 606 C 60.349 1.088 1.76571 0
M  V30 607 C 60.774 -0.356657 1.84688 0
M  V30 608 O 60.132 -1.25788 1.30565 0
M  V30 609 C 60.18 1.71371 3.17277 0
M  V30 610 O 59.284 0.973213 4.00752 0
M  V30 611 H 58.625 0.381599 0.543395 0
M  V30 612 H 61.155 1.63057 1.23587 0
M  V30 613 H 61.165 1.76449 3.67872 0
M  V30 614 H 59.84 2.76493 3.10684 0
M  V30 615 H 58.417 0.999078 3.59267 0
M  V30 616 N 60.6021 -1.18246 1.0419 0
M  V30 617 C 61.5651 -2.20128 0.638452 0
M  V30 618 C 62.5651 -1.57885 -0.304805 0
M  V30 619 O 63.7551 -1.73967 -0.0900369 0
M  V30 620 C 60.8871 -3.4084 -0.0637751 0
M  V30 621 H 62.0801 -2.57336 1.54007 0
M  V30 622 H 59.6331 -1.32152 0.834598 0
M  V30 623 H 60.3681 -3.09166 -0.979136 0
M  V30 624 H 60.1531 -3.8726 0.614198 0
M  V30 625 H 61.6431 -4.16274 -0.332512 0
M  V30 626 N 62.0802 -0.821533 -1.34494 0
M  V30 627 C 63.0102 -0.257138 -2.3208 0
M  V30 628 C 63.9912 0.625645 -1.58176 0
M  V30 629 O 65.1762 0.552811 -1.86166 0
M  V30 630 C 62.3062 0.582958 -3.42372 0
M  V30 631 C 61.2602 -0.202571 -4.2752 0
M  V30 632 C 60.5862 0.760179 -5.29269 0
M  V30 633 C 61.8862 -1.40998 -5.02908 0
M  V30 634 H 63.5802 -1.07247 -2.79532 0
M  V30 635 H 61.1262 -0.517163 -1.34393 0
M  V30 636 H 63.0792 0.987972 -4.09655 0
M  V30 637 H 61.8032 1.43133 -2.93565 0
M  V30 638 H 60.4622 -0.588936 -3.61838 0
M  V30 639 H 60.1102 1.60447 -4.76724 0
M  V30 640 H 59.8102 0.238809 -5.87115 0
M  V30 641 H 61.3342 1.16308 -5.9942 0
M  V30 642 H 62.7482 -1.07905 -5.63054 0
M  V30 643 H 61.1452 -1.86689 -5.70322 0
M  V30 644 H 62.2152 -2.1889 -4.32684 0
M  V30 645 N 63.5583 1.46682 -0.576371 0
M  V30 646 C 64.8043 2.02712 -0.0596221 0
M  V30 647 C 65.1373 1.44765 1.29448 0
M  V30 648 O 64.4123 0.610355 1.84675 0
M  V30 649 C 64.6953 3.60098 0.0129503 0
M  V30 650 C 64.5483 4.28441 -1.3696 0
M  V30 651 C 65.8673 4.34224 0.71678 0
M  V30 652 H 62.9863 0.736637 -0.0231407 0
M  V30 653 H 65.6283 1.74898 -0.742351 0
M  V30 654 H 63.7783 3.83926 0.594378 0
M  V30 655 H 65.4503 4.15896 -1.9957 0
M  V30 656 H 63.6933 3.8805 -1.93907 0
M  V30 657 H 64.3643 5.3716 -1.27135 0
M  V30 658 H 66.8403 4.15503 0.222908 0
M  V30 659 H 65.7163 5.43936 0.73657 0
M  V30 660 H 65.9773 4.04823 1.77682 0
M  V30 661 N 65.0364 0.313813 1.54444 0
M  V30 662 C 66.2644 -0.293918 2.04802 0
M  V30 663 C 66.6794 -1.46537 1.19047 0
M  V30 664 O 66.0364 -1.81182 0.218939 0
M  V30 665 C 66.0874 -0.737806 3.53891 0
M  V30 666 O 65.8084 0.387038 4.36387 0
M  V30 667 C 67.3094 -1.40936 4.203 0
M  V30 668 H 64.5294 -0.0620057 0.668129 0
M  V30 669 H 67.0734 0.457169 1.99324 0
M  V30 670 H 65.2284 -1.43889 3.59687 0
M  V30 671 H 65.6424 0.0391274 5.24485 0
M  V30 672 H 67.1164 -1.67099 5.26101 0
M  V30 673 H 67.5934 -2.35355 3.70816 0
M  V30 674 H 68.1994 -0.751117 4.18615 0
M  V30 675 N 66.5145 -1.57545 0.0417849 0
M  V30 676 C 67.7915 -1.83642 -0.673433 0
M  V30 677 C 68.1715 -0.928298 -1.89594 0
M  V30 678 O 67.5195 0.0129955 -2.28496 0
M  V30 679 C 67.7295 -3.33155 -1.03964 0
M  V30 680 C 69.0775 -3.99941 -1.42592 0
M  V30 681 O 70.1015 -3.37725 -1.13226 0
M  V30 682 O 68.9605 -5.09619 -1.9736 0
M  V30 683 H 66.0545 -0.757638 -0.331533 0
M  V30 684 H 68.6005 -1.69554 0.070433 0
M  V30 685 H 67.3725 -3.9093 -0.170098 0
M  V30 686 H 66.9955 -3.52396 -1.84126 0
M  V30 687 N 67.9926 0.231505 -1.5589 0
M  V30 688 C 68.9246 1.31006 -1.8807 0
M  V30 689 C 69.9376 1.43539 -0.768145 0
M  V30 690 O 71.1266 1.44614 -1.04638 0
M  V30 691 C 68.2266 2.68688 -2.06543 0
M  V30 692 C 67.3996 2.78228 -3.37502 0
M  V30 693 C 66.4586 3.96857 -3.4553 0
M  V30 694 O 65.4846 3.85662 -4.18633 0
M  V30 695 N 66.6866 5.1072 -2.75944 0
M  V30 696 H 69.4516 1.03731 -2.81176 0
M  V30 697 H 67.0126 0.421573 -1.56315 0
M  V30 698 H 69.0046 3.46412 -2.09239 0
M  V30 699 H 67.5746 2.88605 -1.20109 0
M  V30 700 H 66.7946 1.87059 -3.46991 0
M  V30 701 H 68.0826 2.81564 -4.23791 0
M  V30 702 H 67.4806 5.2271 -2.16311 0
M  V30 703 H 66.0376 5.86523 -2.84314 0
M  V30 704 N 69.4707 1.49531 0.497807 0
M  V30 705 C 70.4187 1.66926 1.61983 0
M  V30 706 C 71.4127 0.535167 1.60724 0
M  V30 707 O 72.6187 0.714896 1.65195 0
M  V30 708 H 68.9937 0.526415 0.537021 0
M  V30 709 H 70.9647 2.61098 1.44465 0
M  V30 710 C 69.7137 1.75602 3.00099 0
M  V30 711 H 69.0367 2.62244 3.01775 0
M  V30 712 H 70.4767 1.91807 3.78135 0
M  V30 713 C 68.9357 0.501543 3.33146 0
M  V30 714 O 69.4657 -0.371342 3.9998 0
M  V30 715 N 67.6717 0.363531 2.88317 0
M  V30 716 H 67.2187 1.07485 2.34104 0
M  V30 717 H 67.1767 -0.474728 3.10795 0
M  V30 718 N 70.9488 -0.749086 1.3866 0
M  V30 719 C 72.1768 -1.53834 1.38358 0
M  V30 720 C 72.5918 -1.88783 -0.0255219 0
M  V30 721 O 71.9488 -1.53101 -0.993292 0
M  V30 722 C 71.9998 -2.83468 2.2434 0
M  V30 723 O 71.7208 -2.50008 3.5976 0
M  V30 724 C 73.2218 -3.7758 2.32267 0
M  V30 725 H 70.4418 -0.47585 0.473083 0
M  V30 726 H 72.9858 -0.926726 1.82297 0
M  V30 727 H 71.1408 -3.40995 1.83851 0
M  V30 728 H 71.5548 -3.33182 4.05081 0
M  V30 729 H 73.0288 -4.65478 2.96706 0
M  V30 730 H 73.5058 -4.18334 1.33765 0
M  V30 731 H 74.1118 -3.25976 2.73166 0
M  V30 732 N 72.4269 -1.23603 -0.977757 0
M  V30 733 C 73.6749 -1.06759 -1.71601 0
M  V30 734 C 73.9959 0.395929 -1.90938 0
M  V30 735 O 73.2659 1.28356 -1.47992 0
M  V30 736 H 71.8459 -0.392062 -0.635843 0
M  V30 737 H 74.5079 -1.55362 -1.1768 0
M  V30 738 H 73.6039 -1.55763 -2.70452 0
M  V30 739 N 73.905 1.17692 -1.04816 0
M  V30 740 C 74.852 2.21581 -0.645797 0
M  V30 741 C 75.822 1.62367 0.350159 0
M  V30 742 O 77.007 1.89254 0.242433 0
M  V30 743 C 74.147 3.45092 -0.0227568 0
M  V30 744 C 73.26 4.18613 -1.06709 0
M  V30 745 C 72.395 5.29602 -0.411767 0
M  V30 746 C 71.434 5.94904 -1.44067 0
M  V30 747 N 70.571 6.97414 -0.809781 0
M  V30 748 H 75.411 2.55353 -1.5362 0
M  V30 749 H 72.948 1.25438 -0.768364 0
M  V30 750 H 74.906 4.15679 0.35588 0
M  V30 751 H 73.536 3.11917 0.831122 0
M  V30 752 H 72.588 3.46779 -1.5636 0
M  V30 753 H 73.9 4.63293 -1.84827 0
M  V30 754 H 73.054 6.06696 0.0206623 0
M  V30 755 H 71.793 4.86045 0.401438 0
M  V30 756 H 70.798 5.16544 -1.88316 0
M  V30 757 H 72.023 6.40542 -2.25571 0
M  V30 758 H 69.969 6.55998 -0.0170186 0
M  V30 759 H 69.886 7.40386 -1.52856 0
M  V30 760 H 71.154 7.78463 -0.401999 0
M  V30 761 N 75.3831 0.828654 1.34056 0
M  V30 762 C 76.6291 0.42008 1.98402 0
M  V30 763 C 76.9621 -1.01564 1.65525 0
M  V30 764 O 76.2371 -1.70834 0.929831 0
M  V30 765 C 76.5201 0.62927 3.54559 0
M  V30 766 C 76.3731 2.11152 3.97159 0
M  V30 767 C 77.6921 0.0688756 4.40046 0
M  V30 768 H 74.8111 0.154104 0.720709 0
M  V30 769 H 77.4531 1.04228 1.5886 0
M  V30 770 H 75.6031 0.0996418 3.88372 0
M  V30 771 H 77.2751 2.70522 3.73651 0
M  V30 772 H 75.5181 2.59985 3.47261 0
M  V30 773 H 76.1891 2.20868 5.05887 0
M  V30 774 H 78.6651 0.521458 4.1282 0
M  V30 775 H 77.5411 0.245006 5.48353 0
M  V30 776 H 77.8021 -1.0266 4.30015 0
M  V30 777 N 76.8612 -1.46375 0.584142 0
M  V30 778 C 77.7912 -2.33103 -0.136037 0
M  V30 779 C 78.7722 -1.45431 -0.882255 0
M  V30 780 O 79.9572 -1.74246 -0.857434 0
M  V30 781 C 77.0872 -3.27731 -1.14933 0
M  V30 782 C 76.0412 -4.24855 -0.517862 0
M  V30 783 C 75.3672 -5.09001 -1.63773 0
M  V30 784 C 76.6672 -5.19439 0.545886 0
M  V30 785 H 78.3612 -2.93568 0.588086 0
M  V30 786 H 75.9072 -1.41166 0.284259 0
M  V30 787 H 77.8602 -3.87261 -1.66153 0
M  V30 788 H 76.5842 -2.65377 -1.90375 0
M  V30 789 H 75.2432 -3.6659 -0.0267361 0
M  V30 790 H 74.8912 -4.43031 -2.38185 0
M  V30 791 H 74.5912 -5.74777 -1.22085 0
M  V30 792 H 76.1152 -5.71396 -2.15266 0
M  V30 793 H 77.5292 -5.73177 0.118704 0
M  V30 794 H 75.9262 -5.93566 0.88317 0
M  V30 795 H 76.9962 -4.63285 1.43162 0
M  V30 796 N 78.3393 -0.321999 -1.54275 0
M  V30 797 C 79.5693 0.282642 -2.04658 0
M  V30 798 C 79.9773 1.46453 -1.19784 0
M  V30 799 O 79.3203 1.82367 -0.220932 0
M  V30 800 C 79.3823 0.781857 -3.50895 0
M  V30 801 C 79.0463 -0.277517 -4.56157 0
M  V30 802 C 80.0433 -1.11307 -5.07845 0
M  V30 803 C 77.7283 -0.425256 -5.00497 0
M  V30 804 C 79.7223 -2.08211 -6.02434 0
M  V30 805 C 77.4093 -1.39771 -5.94901 0
M  V30 806 C 78.4073 -2.2246 -6.45756 0
M  V30 807 O 78.0953 -3.18054 -7.38307 0
M  V30 808 H 77.8273 0.0622636 -0.673126 0
M  V30 809 H 80.3813 -0.465792 -2.00049 0
M  V30 810 H 78.6113 1.58118 -3.52896 0
M  V30 811 H 80.3003 1.30467 -3.84361 0
M  V30 812 H 81.0663 -1.00991 -4.74369 0
M  V30 813 H 76.9453 0.20847 -4.60528 0
M  V30 814 H 80.4893 -2.72791 -6.42052 0
M  V30 815 H 76.3863 -1.50152 -6.27794 0
M  V30 816 H 77.1543 -3.13275 -7.56175 0
M  V30 817 N 79.8174 1.5752 -0.0501392 0
M  V30 818 C 81.0424 1.97376 0.636997 0
M  V30 819 C 81.4674 0.927466 1.63645 0
M  V30 820 O 80.8254 -0.10941 1.8097 0
M  V30 821 C 80.8734 3.36304 1.30123 0
M  V30 822 O 79.9774 3.34156 2.41689 0
M  V30 823 H 79.3184 0.642998 0.165679 0
M  V30 824 H 81.8484 2.04258 -0.118233 0
M  V30 825 H 81.8584 3.73008 1.65315 0
M  V30 826 H 80.5334 4.11993 0.568746 0
M  V30 827 H 79.1104 3.09196 2.08451 0
M  V30 828 N 81.2955 -0.223234 1.56011 0
M  V30 829 C 82.7115 -0.572856 1.48965 0
M  V30 830 C 82.9115 -1.87225 0.74492 0
M  V30 831 O 81.9675 -2.50899 0.283896 0
M  V30 832 C 83.2805 -0.653646 2.9351 0
M  V30 833 C 84.8285 -0.744386 3.0402 0
M  V30 834 C 85.3035 -0.856535 4.49919 0
M  V30 835 N 86.7945 -0.9208 4.53955 0
M  V30 836 C 87.5295 -1.02726 5.64123 0
M  V30 837 N 87.0255 -1.09777 6.84047 0
M  V30 838 N 88.8185 -1.06226 5.51971 0
M  V30 839 H 80.9695 0.629462 2.02858 0
M  V30 840 H 83.2325 0.220621 0.921971 0
M  V30 841 H 82.9385 0.231518 3.50937 0
M  V30 842 H 82.8125 -1.51781 3.45315 0
M  V30 843 H 85.1995 -1.61999 2.46658 0
M  V30 844 H 85.2805 0.14541 2.55386 0
M  V30 845 H 84.9245 0.0146069 5.07898 0
M  V30 846 H 84.8545 -1.76172 4.96257 0
M  V30 847 H 87.3455 -0.876694 3.6759 0
M  V30 848 H 87.6585 -1.17872 7.63758 0
M  V30 849 H 86.0035 -1.06693 6.86762 0
M  V30 850 H 89.1945 -1.00382 4.5721 0
M  V30 851 H 89.3675 -1.14177 6.37862 0
M  V30 852 N 82.7736 -1.49793 -0.48987 0
M  V30 853 C 83.7216 -1.67783 -1.61095 0
M  V30 854 C 84.7156 -0.543683 -1.60438 0
M  V30 855 O 85.9216 -0.723647 -1.64813 0
M  V30 856 H 82.2966 -0.529255 -0.534222 0
M  V30 857 H 84.2676 -2.61861 -1.43078 0
M  V30 858 C 83.0166 -1.77191 -2.99164 0
M  V30 859 H 82.3396 -2.63841 -3.0038 0
M  V30 860 H 83.7796 -1.93809 -3.77113 0
M  V30 861 C 82.2386 -0.519203 -3.32875 0
M  V30 862 O 82.7686 0.350124 -4.00171 0
M  V30 863 N 80.9746 -0.378816 -2.8812 0
M  V30 864 H 80.5216 -1.08725 -2.33531 0
M  V30 865 H 80.4796 0.458239 -3.11043 0
M  V30 866 N 84.2517 0.741722 -1.39055 0
M  V30 867 C 85.6627 1.31966 -1.32068 0
M  V30 868 C 86.0137 1.96192 0.0180797 0
M  V30 869 O 85.1387 1.95861 0.920196 0
M  V30 870 C 85.7337 2.39954 -2.39181 0
M  V30 871 C 84.2927 2.93438 -2.35735 0
M  V30 872 C 83.4397 1.66936 -2.21422 0
M  V30 873 H 86.3907 0.539721 -1.4924 0
M  V30 874 H 86.4117 3.20182 -2.05581 0
M  V30 875 H 85.9237 1.9318 -3.36605 0
M  V30 876 H 84.0247 3.4451 -1.41929 0
M  V30 877 H 84.1377 3.4701 -3.30335 0
M  V30 878 H 82.5017 1.91016 -1.68478 0
M  V30 879 H 83.2847 1.22224 -3.20806 0
M  V30 880 N 85.7298 1.2412 0.971189 0
M  V30 881 C 87.0068 0.986867 1.6888 0
M  V30 882 C 87.3868 -0.491857 2.0529 0
M  V30 883 O 86.7348 -1.46531 1.75331 0
M  V30 884 C 86.9448 1.9063 2.92338 0
M  V30 885 C 88.2928 2.17515 3.64654 0
M  V30 886 O 89.3168 1.88254 3.02388 0
M  V30 887 O 88.1758 2.6719 4.7673 0
M  V30 888 H 85.2698 0.372944 0.738134 0
M  V30 889 H 87.8158 1.35203 1.02559 0
M  V30 890 H 86.5878 2.90552 2.62097 0
M  V30 891 H 86.2108 1.54408 3.66393 0
M  V30 892 N 87.2079 -1.17134 1.05439 0
M  V30 893 C 88.1379 -2.2342 0.678649 0
M  V30 894 C 89.1189 -1.66971 -0.32476 0
M  V30 895 O 90.3039 -1.93149 -0.201802 0
M  V30 896 C 87.4339 -3.47256 0.0552099 0
M  V30 897 C 86.3879 -4.16543 0.98365 0
M  V30 898 C 85.7139 -5.34231 0.223961 0
M  V30 899 C 87.0139 -4.68495 2.3089 0
M  V30 900 H 88.7079 -2.55105 1.56722 0
M  V30 901 H 86.2539 -1.2262 0.754998 0
M  V30 902 H 88.2069 -4.20828 -0.21946 0
M  V30 903 H 86.9309 -3.14846 -0.868319 0
M  V30 904 H 85.5899 -3.44887 1.24293 0
M  V30 905 H 85.2379 -4.98071 -0.702412 0
M  V30 906 H 84.9379 -5.81527 0.842627 0
M  V30 907 H 86.4619 -6.10585 -0.0433671 0
M  V30 908 H 87.8759 -5.33691 2.09396 0
M  V30 909 H 86.2729 -5.26379 2.88176 0
M  V30 910 H 87.3429 -3.85169 2.94572 0
M  V30 911 N 88.686 -0.835752 -1.33615 0
M  V30 912 C 89.932 -0.430596 -1.98176 0
M  V30 913 C 90.265 1.00684 -1.66061 0
M  V30 914 O 89.54 1.70339 -0.938877 0
M  V30 915 C 89.823 -0.648065 -3.5422 0
M  V30 916 C 89.676 -2.13255 -3.96033 0
M  V30 917 C 90.995 -0.0922113 -4.40003 0
M  V30 918 H 88.114 -0.157924 -0.719881 0
M  V30 919 H 90.756 -1.05069 -1.58305 0
M  V30 920 H 88.906 -0.120237 -3.88314 0
M  V30 921 H 90.578 -2.725 -3.72211 0
M  V30 922 H 88.821 -2.61823 -3.45878 0
M  V30 923 H 89.492 -2.23547 -5.04708 0
M  V30 924 H 91.968 -0.543343 -4.12537 0
M  V30 925 H 90.844 -0.274083 -5.48215 0
M  V30 926 H 91.105 1.00378 -4.30554 0
M  V30 927 N 90.1641 1.46063 -0.591896 0
M  V30 928 C 91.4101 2.02638 -0.0811191 0
M  V30 929 C 91.7431 1.4613 1.27905 0
M  V30 930 O 91.0181 0.629908 1.84017 0
M  V30 931 C 91.3011 3.60091 -0.0252436 0
M  V30 932 C 91.1541 4.26965 -1.41496 0
M  V30 933 C 92.4731 4.3496 0.670685 0
M  V30 934 H 89.5921 0.73635 -0.0309524 0
M  V30 935 H 92.2341 1.741 -0.760859 0
M  V30 936 H 90.3841 3.84535 0.553624 0
M  V30 937 H 92.0561 4.13756 -2.0397 0
M  V30 938 H 90.2991 3.85971 -1.98011 0
M  V30 939 H 90.9701 5.35781 -1.32825 0
M  V30 940 H 93.4461 4.15716 0.178825 0
M  V30 941 H 92.3221 5.44686 0.678837 0
M  V30 942 H 92.5831 4.06685 1.73379 0
M  V30 943 N 91.6422 0.330177 1.54103 0
M  V30 944 C 93.0532 -0.15652 1.86043 0
M  V30 945 C 93.4042 -1.51086 1.2517 0
M  V30 946 O 92.5292 -2.09023 0.560217 0
M  V30 947 C 93.1242 -0.290784 3.3755 0
M  V30 948 C 91.6832 -0.721705 3.69416 0
M  V30 949 C 90.8302 0.152622 2.7688 0
M  V30 950 H 93.7812 0.550237 1.48856 0
M  V30 951 H 93.8022 -1.12058 3.63625 0
M  V30 952 H 93.3142 0.695068 3.81825 0
M  V30 953 H 91.4152 -1.71706 3.30678 0
M  V30 954 H 91.5282 -0.520869 4.7626 0
M  V30 955 H 89.8922 -0.372894 2.51956 0
M  V30 956 H 90.6752 1.13536 3.23982 0
M  V30 957 N 93.1203 -1.57491 0.0584922 0
M  V30 958 C 94.3693 -1.92155 -0.613146 0
M  V30 959 C 94.6823 -0.939334 -1.71569 0
M  V30 960 O 95.8883 -1.17829 -2.44599 0
M  V30 961 C 94.3443 -3.41303 -1.14195 0
M  V30 962 C 93.9523 -4.47944 -0.0711265 0
M  V30 963 C 95.6963 -3.84988 -1.78841 0
M  V30 964 C 93.6033 -5.88212 -0.613225 0
M  V30 965 H 92.5333 -0.717162 -0.232796 0
M  V30 966 H 95.1843 -1.83049 0.12857 0
M  V30 967 H 93.5663 -3.45437 -1.93621 0
M  V30 968 H 94.7403 -4.55408 0.702836 0
M  V30 969 H 93.0553 -4.13644 0.478313 0
M  V30 970 H 95.6523 -4.87159 -2.20408 0
M  V30 971 H 95.9953 -3.21632 -2.64308 0
M  V30 972 H 96.5283 -3.83401 -1.06059 0
M  V30 973 H 93.2673 -6.55183 0.203978 0
M  V30 974 H 92.7873 -5.84294 -1.35501 0
M  V30 975 H 94.4663 -6.37687 -1.09383 0
M  V30 976 N 94.5984 0.214957 -1.56127 0
M  V30 977 C 95.5614 1.24997 -1.92116 0
M  V30 978 C 96.5614 1.39467 -0.800344 0
M  V30 979 O 97.7514 1.37619 -1.06802 0
M  V30 980 C 94.8834 2.62271 -2.17777 0
M  V30 981 H 96.0764 0.942875 -2.84693 0
M  V30 982 H 93.6294 0.455654 -1.49511 0
M  V30 983 H 94.3644 2.98068 -1.27773 0
M  V30 984 H 94.1494 2.53143 -2.99434 0
M  V30 985 H 95.6394 3.36946 -2.46693 0
M  V30 986 N 96.0765 1.50051 0.48192 0
M  V30 987 C 97.3015 1.64508 1.26301 0
M  V30 988 C 97.7265 0.323851 1.85291 0
M  V30 989 O 97.0845 -0.710969 1.66778 0
M  V30 990 C 97.1325 2.7305 2.35533 0
M  V30 991 O 96.2365 2.3355 3.39895 0
M  V30 992 H 95.5775 0.549978 0.372048 0
M  V30 993 H 98.1075 1.9636 0.574786 0
M  V30 994 H 98.1175 2.95799 2.8101 0
M  V30 995 H 96.7925 3.68946 1.91967 0
M  V30 996 H 95.3695 2.21205 3.00204 0
M  V30 997 N 97.5546 -0.734337 1.39446 0
M  V30 998 C 98.8036 -1.48937 1.36017 0
M  V30 999 C 99.1166 -1.95557 -0.0409005 0
M  V30 1000 O 100.323 -2.70779 -0.19778 0
M  V30 1001 C 98.7786 -2.69125 2.38955 0
M  V30 1002 C 98.3866 -2.29452 3.8478 0
M  V30 1003 C 100.131 -3.46944 2.44603 0
M  V30 1004 C 98.0376 -3.46366 4.79358 0
M  V30 1005 H 96.9676 -0.559296 0.505672 0
M  V30 1006 H 99.6186 -0.800983 1.65095 0
M  V30 1007 H 98.0006 -3.40041 2.02948 0
M  V30 1008 H 99.1746 -1.66077 4.29831 0
M  V30 1009 H 97.4896 -1.64723 3.82433 0
M  V30 1010 H 100.087 -4.33907 3.12456 0
M  V30 1011 H 100.43 -3.89454 1.47076 0
M  V30 1012 H 100.963 -2.83056 2.79507 0
M  V30 1013 H 97.7016 -3.08905 5.78151 0
M  V30 1014 H 97.2216 -4.08719 4.38986 0
M  V30 1015 H 98.9006 -4.12691 4.98292 0
M  V30 1016 N 99.0327 -1.24633 -0.964593 0
M  V30 1017 C 100.261 -1.11501 -1.74285 0
M  V30 1018 C 100.676 0.332165 -1.85855 0
M  V30 1019 O 100.033 1.22903 -1.34911 0
M  V30 1020 C 100.084 -1.75258 -3.16175 0
M  V30 1021 O 99.8047 -3.14318 -3.05182 0
M  V30 1022 C 101.306 -1.67776 -4.10324 0
M  V30 1023 H 98.5257 -0.389407 -0.546446 0
M  V30 1024 H 101.07 -1.64801 -1.21083 0
M  V30 1025 H 99.2247 -1.25954 -3.66353 0
M  V30 1026 H 99.6387 -3.4551 -3.94618 0
M  V30 1027 H 101.113 -2.17064 -5.0753 0
M  V30 1028 H 101.59 -0.639584 -4.34518 0
M  V30 1029 H 102.196 -2.16522 -3.66058 0
M  V30 1030 N 100.511 1.16574 -1.06058 0
M  V30 1031 C 101.458 2.20883 -0.669263 0
M  V30 1032 C 102.428 1.62729 0.332918 0
M  V30 1033 O 103.613 1.895 0.222346 0
M  V30 1034 C 100.753 3.45049 -0.0593572 0
M  V30 1035 C 99.8658 4.17458 -1.11143 0
M  V30 1036 C 99.0008 5.29135 -0.467916 0
M  V30 1037 C 98.0398 5.93343 -1.50369 0
M  V30 1038 N 97.1768 6.96516 -0.883706 0
M  V30 1039 H 102.017 2.53709 -1.5632 0
M  V30 1040 H 99.5538 1.24616 -0.781625 0
M  V30 1041 H 101.512 4.16033 0.311771 0
M  V30 1042 H 100.142 3.12781 0.797992 0
M  V30 1043 H 99.1938 3.45101 -1.60029 0
M  V30 1044 H 100.506 4.61307 -1.89731 0
M  V30 1045 H 99.6598 6.06684 -0.0436871 0
M  V30 1046 H 98.3988 4.86443 0.349864 0
M  V30 1047 H 97.4038 5.14517 -1.93784 0
M  V30 1048 H 98.6288 6.38114 -2.32352 0
M  V30 1049 H 96.5748 6.55943 -0.086595 0
M  V30 1050 H 96.4918 7.38723 -1.607 0
M  V30 1051 H 97.7598 7.77993 -0.484543 0
M  V30 1052 N 101.989 0.842826 1.3317 0
M  V30 1053 C 102.919 0.294028 2.31641 0
M  V30 1054 C 103.9 -0.600401 1.59151 0
M  V30 1055 O 105.085 -0.523124 1.87022 0
M  V30 1056 C 102.215 -0.528416 3.43257 0
M  V30 1057 C 101.169 0.27056 4.27144 0
M  V30 1058 C 100.495 -0.675881 5.30411 0
M  V30 1059 C 101.795 1.48981 5.00602 0
M  V30 1060 H 103.489 1.11681 2.77791 0
M  V30 1061 H 101.035 0.538478 1.33553 0
M  V30 1062 H 102.988 -0.922674 4.11175 0
M  V30 1063 H 101.712 -1.38445 2.95805 0
M  V30 1064 H 100.371 0.646427 3.60856 0
M  V30 1065 H 100.019 -1.52842 4.79216 0
M  V30 1066 H 99.7189 -0.145374 5.8742 0
M  V30 1067 H 101.243 -1.06757 6.01195 0
M  V30 1068 H 102.657 1.16849 5.61266 0
M  V30 1069 H 101.054 1.95739 5.6728 0
M  V30 1070 H 102.124 2.25746 4.29147 0
M  V30 1071 N 103.467 -1.45747 0.599634 0
M  V30 1072 C 104.4 -2.27547 -0.172552 0
M  V30 1073 C 105.378 -1.36657 -0.881116 0
M  V30 1074 O 106.562 -1.66081 -0.891595 0
M  V30 1075 C 103.689 -3.14829 -1.24903 0
M  V30 1076 C 102.735 -4.21603 -0.644465 0
M  V30 1077 S 103.568 -5.32754 0.541606 0
M  V30 1078 C 104.724 -6.23604 -0.535656 0
M  V30 1079 H 104.957 -2.92691 0.521468 0
M  V30 1080 H 102.49 -1.49473 0.386947 0
M  V30 1081 H 104.448 -3.65675 -1.86527 0
M  V30 1082 H 103.109 -2.48965 -1.91508 0
M  V30 1083 H 102.302 -4.82566 -1.45417 0
M  V30 1084 H 101.904 -3.73857 -0.103534 0
M  V30 1085 H 104.196 -6.62519 -1.41686 0
M  V30 1086 H 105.139 -7.0809 0.0376246 0
M  V30 1087 H 105.547 -5.58103 -0.84741 0
M  V30 1088 N 104.945 -0.338344 -1.53925 0
M  V30 1089 C 106.173 0.261298 -2.05243 0
M  V30 1090 C 106.588 1.44625 -1.21363 0
M  V30 1091 O 105.945 1.80811 -0.247736 0
M  V30 1092 C 105.996 0.681412 -3.5502 0
M  V30 1093 O 105.717 -0.456414 -4.35716 0
M  V30 1094 C 107.218 1.34232 -4.22489 0
M  V30 1095 H 104.438 0.0513685 -0.669031 0
M  V30 1096 H 106.982 -0.488822 -1.98572 0
M  V30 1097 H 105.137 1.38148 -3.61931 0
M  V30 1098 H 105.551 -0.122564 -5.24357 0
M  V30 1099 H 107.025 1.58708 -5.28693 0
M  V30 1100 H 107.502 2.29426 -3.74514 0
M  V30 1101 H 108.108 0.684424 -4.19757 0
M  V30 1102 N 106.423 1.57458 -0.0668435 0
M  V30 1103 C 107.386 2.11323 0.887422 0
M  V30 1104 C 108.386 1.03618 1.22964 0
M  V30 1105 O 109.576 1.29626 1.16373 0
M  V30 1106 C 106.708 2.61048 2.19242 0
M  V30 1107 H 107.901 2.96942 0.420194 0
M  V30 1108 H 105.454 1.55239 0.181793 0
M  V30 1109 H 106.189 1.78868 2.70512 0
M  V30 1110 H 105.974 3.39769 1.95702 0
M  V30 1111 H 107.464 3.02814 2.87565 0
M  V30 1112 N 107.901 -0.206675 1.56239 0
M  V30 1113 C 108.834 -1.28383 1.88661 0
M  V30 1114 C 109.812 -1.44504 0.745481 0
M  V30 1115 O 110.996 -1.60079 0.995336 0
M  V30 1116 C 108.123 -2.65211 2.10667 0
M  V30 1117 C 107.169 -2.66025 3.33366 0
M  V30 1118 S 108.002 -2.18609 4.88846 0
M  V30 1119 C 109.158 -3.57283 5.13906 0
M  V30 1120 H 109.391 -1.00691 2.7973 0
M  V30 1121 H 106.924 -0.409627 1.48867 0
M  V30 1122 H 108.882 -3.43979 2.24029 0
M  V30 1123 H 107.543 -2.90121 1.20369 0
M  V30 1124 H 106.736 -3.66607 3.45855 0
M  V30 1125 H 106.338 -1.95331 3.18938 0
M  V30 1126 H 108.63 -4.53074 5.03717 0
M  V30 1127 H 109.573 -3.49699 6.15724 0
M  V30 1128 H 109.981 -3.51659 4.41583 0
M  V30 1129 N 109.379 -1.50304 -0.473955 0
M  V30 1130 C 110.625 -1.61389 -1.22806 0
M  V30 1131 C 110.958 -0.311955 -1.91678 0
M  V30 1132 O 110.233 0.686384 -1.81986 0
M  V30 1133 C 110.516 -2.79219 -2.27396 0
M  V30 1134 C 110.369 -4.19286 -1.62848 0
M  V30 1135 C 111.688 -2.92614 -3.28732 0
M  V30 1136 H 108.807 -0.587399 -0.445119 0
M  V30 1137 H 111.449 -1.82681 -0.522265 0
M  V30 1138 H 109.599 -2.61195 -2.87592 0
M  V30 1139 H 111.271 -4.48892 -1.06271 0
M  V30 1140 H 109.514 -4.23677 -0.931693 0
M  V30 1141 H 110.185 -4.97655 -2.38838 0
M  V30 1142 H 112.661 -3.09105 -2.78556 0
M  V30 1143 H 111.537 -3.76688 -3.99246 0
M  V30 1144 H 111.798 -2.03107 -3.92683 0
M  V30 1145 N 110.857 0.726932 -1.39834 0
M  V30 1146 C 112.103 1.48884 -1.377 0
M  V30 1147 C 112.436 1.94185 0.0244852 0
M  V30 1148 O 111.711 1.67361 0.990986 0
M  V30 1149 C 111.994 2.72288 -2.3565 0
M  V30 1150 C 111.847 2.32956 -3.84775 0
M  V30 1151 C 113.166 3.74414 -2.31306 0
M  V30 1152 H 110.285 0.540062 -0.5015 0
M  V30 1153 H 112.927 0.830547 -1.70886 0
M  V30 1154 H 111.077 3.28457 -2.07481 0
M  V30 1155 H 112.749 1.82356 -4.23726 0
M  V30 1156 H 110.992 1.65088 -4.01159 0
M  V30 1157 H 111.663 3.21362 -4.4881 0
M  V30 1158 H 114.139 3.27849 -2.56231 0
M  V30 1159 H 113.015 4.58414 -3.01907 0
M  V30 1160 H 113.276 4.21909 -1.32081 0
M  V30 1161 N 112.336 1.25143 0.95797 0
M  V30 1162 C 113.266 1.07711 2.07173 0
M  V30 1163 C 114.247 -0.0128462 1.70095 0
M  V30 1164 O 115.432 0.156061 1.93572 0
M  V30 1165 C 112.562 0.691503 3.40346 0
M  V30 1166 C 111.516 1.73132 3.9142 0
M  V30 1167 C 110.842 1.20049 5.21049 0
M  V30 1168 C 112.142 3.1294 4.1817 0
M  V30 1169 H 113.836 2.00873 2.22014 0
M  V30 1170 H 111.382 0.967191 1.06684 0
M  V30 1171 H 113.335 0.556505 4.17709 0
M  V30 1172 H 112.059 -0.275819 3.25433 0
M  V30 1173 H 110.718 1.8547 3.16222 0
M  V30 1174 H 110.366 0.223499 5.02503 0
M  V30 1175 H 110.066 1.89545 5.56189 0
M  V30 1176 H 111.59 1.07782 6.01012 0
M  V30 1177 H 113.004 3.03775 4.86203 0
M  V30 1178 H 111.401 3.79875 4.64559 0
M  V30 1179 H 112.471 3.6025 3.24573 0
M  V30 1180 N 113.814 -1.1601 1.06675 0
M  V30 1181 C 115.091 -1.82679 0.699114 0
M  V30 1182 C 115.471 -1.94559 -0.819137 0
M  V30 1183 O 114.819 -1.49169 -1.73092 0
M  V30 1184 C 115.029 -3.19445 1.40555 0
M  V30 1185 C 116.377 -3.95171 1.55323 0
M  V30 1186 O 117.401 -3.28976 1.36577 0
M  V30 1187 O 116.26 -5.13833 1.86112 0
M  V30 1188 H 113.354 -0.788954 0.247951 0
M  V30 1189 H 115.9 -1.23179 1.16726 0
M  V30 1190 H 114.672 -3.05856 2.44065 0
M  V30 1191 H 114.295 -3.86625 0.927733 0
M  V30 1192 N 115.292 -0.849877 -1.32721 0
M  V30 1193 C 116.517 -0.463856 -2.02146 0
M  V30 1194 C 116.942 0.930449 -1.63476 0
M  V30 1195 O 116.3 1.61033 -0.832952 0
M  V30 1196 C 116.348 -0.604955 -3.55489 0
M  V30 1197 O 115.452 0.36425 -4.10788 0
M  V30 1198 H 114.793 -0.187046 -0.637111 0
M  V30 1199 H 117.323 -1.14775 -1.69375 0
M  V30 1200 H 117.333 -0.490696 -4.05038 0
M  V30 1201 H 116.008 -1.62174 -3.82978 0
M  V30 1202 H 114.585 0.206628 -3.72327 0
M  V30 1203 N 116.77 1.45427 -0.607355 0
M  V30 1204 C 117.717 2.3053 0.111625 0
M  V30 1205 C 118.687 1.4209 0.860216 0
M  V30 1206 O 119.872 1.71019 0.845998 0
M  V30 1207 C 117.012 3.26992 1.10319 0
M  V30 1208 C 116.125 4.30535 0.355493 0
M  V30 1209 C 115.26 5.14105 1.33676 0
M  V30 1210 C 114.299 6.09376 0.576862 0
M  V30 1211 N 113.436 6.85727 1.5074 0
M  V30 1212 H 118.276 2.91477 -0.620093 0
M  V30 1213 H 115.813 1.43631 -0.317594 0
M  V30 1214 H 117.771 3.81385 1.6912 0
M  V30 1215 H 116.401 2.67799 1.80232 0
M  V30 1216 H 115.453 3.78805 -0.348023 0
M  V30 1217 H 116.765 4.98235 -0.237423 0
M  V30 1218 H 115.919 5.72897 1.99684 0
M  V30 1219 H 114.658 4.46423 1.9636 0
M  V30 1220 H 113.663 5.49715 -0.0968519 0
M  V30 1221 H 114.888 6.79085 -0.0449341 0
M  V30 1222 H 112.834 6.20735 2.12189 0
M  V30 1223 H 112.751 7.49778 0.967913 0
M  V30 1224 H 114.019 7.4906 2.15706 0
M  V30 1225 N 118.248 0.346503 1.53744 0
M  V30 1226 C 119.178 -0.501193 2.28058 0
M  V30 1227 C 120.159 -1.10014 1.29734 0
M  V30 1228 O 121.344 -1.12097 1.58581 0
M  V30 1229 C 118.474 -1.65078 3.05559 0
M  V30 1230 C 117.428 -1.18003 4.11411 0
M  V30 1231 C 116.754 -2.41837 4.76884 0
M  V30 1232 C 118.054 -0.278394 5.21558 0
M  V30 1233 H 119.748 0.11875 2.99164 0
M  V30 1234 H 117.294 0.0585531 1.43881 0
M  V30 1235 H 119.247 -2.25028 3.56287 0
M  V30 1236 H 117.971 -2.29767 2.32109 0
M  V30 1237 H 116.63 -0.603331 3.61601 0
M  V30 1238 H 116.278 -3.0494 4.00026 0
M  V30 1239 H 115.978 -2.1102 5.48402 0
M  V30 1240 H 117.502 -3.02508 5.30397 0
M  V30 1241 H 118.916 -0.784823 5.67903 0
M  V30 1242 H 117.313 -0.0619707 6.00068 0
M  V30 1243 H 118.383 0.684677 4.80042 0
M  V30 1244 N 119.726 -1.57421 0.075193 0
M  V30 1245 C 121.137 -1.81021 -0.456964 0
M  V30 1246 C 121.488 -0.98936 -1.69429 0
M  V30 1247 O 120.613 -0.212865 -2.15351 0
M  V30 1248 C 121.208 -3.28329 -0.83581 0
M  V30 1249 C 119.767 -3.52764 -1.31281 0
M  V30 1250 C 118.914 -2.75676 -0.299648 0
M  V30 1251 H 121.865 -1.55822 0.300856 0
M  V30 1252 H 121.886 -3.40564 -1.69696 0
M  V30 1253 H 121.398 -3.88046 0.0649238 0
M  V30 1254 H 119.499 -2.98355 -2.23193 0
M  V30 1255 H 119.612 -4.61451 -1.28839 0
M  V30 1256 H 117.976 -2.42538 -0.777641 0
M  V30 1257 H 118.759 -3.38132 0.593417 0
M  V30 1258 N 121.204 0.198386 -1.56346 0
M  V30 1259 C 122.134 1.24865 -1.9731 0
M  V30 1260 C 123.115 1.47651 -0.844576 0
M  V30 1261 O 124.3 1.59444 -1.10866 0
M  V30 1262 C 121.43 2.59358 -2.30977 0
M  V30 1263 C 120.384 2.5119 -3.46537 0
M  V30 1264 C 119.71 3.89926 -3.65871 0
M  V30 1265 C 121.01 2.03977 -4.80823 0
M  V30 1266 H 122.704 0.908252 -2.85291 0
M  V30 1267 H 120.25 0.435462 -1.37258 0
M  V30 1268 H 122.203 3.33011 -2.58228 0
M  V30 1269 H 120.927 2.95132 -1.39874 0
M  V30 1270 H 119.586 1.79993 -3.19371 0
M  V30 1271 H 119.234 4.23046 -2.72105 0
M  V30 1272 H 118.934 3.85336 -4.4361 0
M  V30 1273 H 120.458 4.65205 -3.95495 0
M  V30 1274 H 121.872 2.67386 -5.07127 0
M  V30 1275 H 120.269 2.10397 -5.62008 0
M  V30 1276 H 121.339 0.992861 -4.74626 0
M  V30 1277 N 122.682 1.50554 0.465978 0
M  V30 1278 C 123.959 1.5232 1.22712 0
M  V30 1279 C 124.339 0.270807 2.09356 0
M  V30 1280 O 123.687 -0.745541 2.15995 0
M  V30 1281 C 123.897 2.82175 2.05374 0
M  V30 1282 C 125.245 3.33033 2.6339 0
M  V30 1283 O 126.269 2.83531 2.15612 0
M  V30 1284 O 125.128 4.19336 3.50456 0
M  V30 1285 H 122.222 0.611183 0.557122 0
M  V30 1286 H 124.768 1.62847 0.477381 0
M  V30 1287 H 123.54 3.64797 1.41558 0
M  V30 1288 H 123.163 2.74675 2.87471 0
M  V30 1289 N 124.16 -0.719506 1.40217 0
M  V30 1290 C 125.07 -1.86378 1.42479 0
M  V30 1291 C 126.086 -1.71073 0.317834 0
M  V30 1292 O 127.262 -1.93406 0.561794 0
M  V30 1293 C 124.327 -3.22136 1.28178 0
M  V30 1294 C 123.388 -3.49723 2.48982 0
M  V30 1295 C 122.621 -4.79004 2.35353 0
M  V30 1296 O 122.844 -5.53821 1.36524 0
M  V30 1297 O 121.778 -5.06839 3.2465 0
M  V30 1298 H 125.604 -1.87425 2.38968 0
M  V30 1299 H 123.189 -0.869405 1.21498 0
M  V30 1300 H 125.071 -4.03234 1.22395 0
M  V30 1301 H 123.746 -3.21825 0.347934 0
M  V30 1302 H 122.653 -2.6865 2.60342 0
M  V30 1303 H 123.986 -3.54828 3.41113 0
M  V30 1304 N 125.638 -1.25649 -0.95132 0
M  V30 1305 C 126.884 -1.10757 -1.69884 0
M  V30 1306 C 127.217 0.350061 -1.91019 0
M  V30 1307 O 126.492 1.25783 -1.48354 0
M  V30 1308 C 126.775 -1.86606 -3.07978 0
M  V30 1309 C 126.628 -3.40217 -2.94232 0
M  V30 1310 C 127.947 -1.65182 -4.07925 0
M  V30 1311 H 125.066 -0.40374 -0.616574 0
M  V30 1312 H 127.708 -1.54521 -1.10558 0
M  V30 1313 H 125.858 -1.49409 -3.58621 0
M  V30 1314 H 127.53 -3.87108 -2.50889 0
M  V30 1315 H 125.773 -3.67759 -2.30078 0
M  V30 1316 H 126.444 -3.88505 -3.92133 0
M  V30 1317 H 128.92 -1.9757 -3.66204 0
M  V30 1318 H 127.796 -2.20683 -5.02583 0
M  V30 1319 H 128.057 -0.593933 -4.38092 0
M  V30 1320 N 127.117 1.15442 -1.07289 0
M  V30 1321 C 128.047 2.22312 -0.714107 0
M  V30 1322 C 129.028 1.67467 0.298155 0
M  V30 1323 O 130.213 1.93445 0.171048 0
M  V30 1324 C 127.343 3.47124 -0.110448 0
M  V30 1325 C 126.297 4.14926 -1.04979 0
M  V30 1326 C 125.623 5.33807 -0.308924 0
M  V30 1327 C 126.923 4.64762 -2.38314 0
M  V30 1328 H 128.617 2.5258 -1.6076 0
M  V30 1329 H 126.163 1.21404 -0.77441 0
M  V30 1330 H 128.116 4.21124 0.152482 0
M  V30 1331 H 126.84 3.16187 0.81812 0
M  V30 1332 H 125.499 3.42866 -1.29764 0
M  V30 1333 H 125.147 4.99126 0.623084 0
M  V30 1334 H 124.847 5.80113 -0.935036 0
M  V30 1335 H 126.371 6.10576 -0.0537771 0
M  V30 1336 H 127.785 5.30292 -2.1786 0
M  V30 1337 H 126.182 5.21728 -2.96514 0
M  V30 1338 H 127.252 3.80434 -3.00663 0
M  V30 1339 N 128.595 0.856903 1.32268 0
M  V30 1340 C 130.006 0.515711 1.79436 0
M  V30 1341 C 130.357 -0.966586 1.70738 0
M  V30 1342 O 129.482 -1.75409 1.26731 0
M  V30 1343 C 130.077 0.929335 3.25805 0
M  V30 1344 C 128.636 0.640006 3.70919 0
M  V30 1345 C 127.783 1.12784 2.53328 0
M  V30 1346 H 130.734 1.04389 1.19535 0
M  V30 1347 H 130.755 0.246633 3.797 0
M  V30 1348 H 130.267 2.00821 3.32103 0
M  V30 1349 H 128.368 -0.428051 3.70133 0
M  V30 1350 H 128.481 1.20788 4.63624 0
M  V30 1351 H 126.845 0.548033 2.48734 0
M  V30 1352 H 127.628 2.21387 2.62379 0
M  V30 1353 N 130.073 -1.45103 0.615059 0
M  V30 1354 C 131.322 -2.01396 0.110718 0
M  V30 1355 C 131.635 -1.48834 -1.26916 0
M  V30 1356 O 132.841 -1.97152 -1.86664 0
M  V30 1357 C 131.297 -3.59599 0.14723 0
M  V30 1358 C 130.905 -4.21158 1.52743 0
M  V30 1359 C 132.649 -4.23428 -0.30148 0
M  V30 1360 C 130.556 -5.71535 1.51992 0
M  V30 1361 H 129.486 -0.753061 0.0376241 0
M  V30 1362 H 132.137 -1.66494 0.77149 0
M  V30 1363 H 130.519 -3.91724 -0.580339 0
M  V30 1364 H 131.693 -4.00594 2.2773 0
M  V30 1365 H 130.008 -3.69552 1.91886 0
M  V30 1366 H 132.605 -5.33703 -0.326392 0
M  V30 1367 H 132.948 -3.94629 -1.32565 0
M  V30 1368 H 133.481 -3.96047 0.373065 0
M  V30 1369 H 130.22 -6.05044 2.52193 0
M  V30 1370 H 129.74 -5.94268 0.81274 0
M  V30 1371 H 131.419 -6.34873 1.24681 0
M  V30 1372 N 131.551 -0.354651 -1.53558 0
M  V30 1373 C 132.514 0.484566 -2.24019 0
M  V30 1374 C 133.514 1.01861 -1.24422 0
M  V30 1375 O 134.704 0.906097 -1.4878 0
M  V30 1376 C 131.836 1.67615 -2.96847 0
M  V30 1377 H 133.029 -0.131843 -2.9961 0
M  V30 1378 H 130.582 -0.106165 -1.55939 0
M  V30 1379 H 131.317 2.33095 -2.25471 0
M  V30 1380 H 131.102 1.30029 -3.69912 0
M  V30 1381 H 132.592 2.27114 -3.50441 0
M  V30 1382 N 133.029 1.57378 -0.0835403 0
M  V30 1383 C 134.278 1.93106 0.582498 0
M  V30 1384 C 134.591 0.96651 1.70053 0
M  V30 1385 O 135.797 1.21705 2.42693 0
M  V30 1386 C 134.253 3.43076 1.08751 0
M  V30 1387 C 133.861 4.48 -0.000146404 0
M  V30 1388 C 135.605 3.87785 1.72694 0
M  V30 1389 C 133.512 5.89113 0.519568 0
M  V30 1390 H 132.442 0.720775 0.221358 0
M  V30 1391 H 135.093 1.82821 -0.157675 0
M  V30 1392 H 133.475 3.48474 1.88101 0
M  V30 1393 H 134.649 4.54233 -0.775199 0
M  V30 1394 H 132.964 4.1283 -0.54406 0
M  V30 1395 H 135.561 4.90604 2.1263 0
M  V30 1396 H 135.904 3.25796 2.59158 0
M  V30 1397 H 136.437 3.8504 0.999457 0
M  V30 1398 H 133.176 6.54775 -0.308186 0
M  V30 1399 H 132.696 5.86376 1.26188 0
M  V30 1400 H 134.375 6.39346 0.992237 0
M  V30 1401 N 134.507 -0.190092 1.56449 0
M  V30 1402 C 135.732 -0.929864 1.85387 0
M  V30 1403 C 136.157 -1.7585 0.667704 0
M  V30 1404 O 135.515 -1.77198 -0.383459 0
M  V30 1405 C 135.563 -1.79773 3.12593 0
M  V30 1406 O 134.667 -2.89713 2.93496 0
M  V30 1407 H 134.008 -0.261574 0.610307 0
M  V30 1408 H 136.538 -0.193896 2.03679 0
M  V30 1409 H 136.548 -2.20139 3.43515 0
M  V30 1410 H 135.223 -1.18892 3.98544 0
M  V30 1411 H 133.8 -2.53065 2.73884 0
M  V30 1412 N 135.985 -1.50799 -0.457987 0
M  V30 1413 C 136.895 -1.73426 -1.57989 0
M  V30 1414 C 137.911 -0.617745 -1.62665 0
M  V30 1415 O 139.087 -0.897614 -1.80291 0
M  V30 1416 C 136.152 -1.83557 -2.94122 0
M  V30 1417 C 135.213 -3.07345 -2.99729 0
M  V30 1418 C 134.446 -3.16983 -4.29368 0
M  V30 1419 O 134.669 -2.33077 -5.20607 0
M  V30 1420 O 133.603 -4.09812 -4.40837 0
M  V30 1421 H 137.429 -2.68555 -1.41817 0
M  V30 1422 H 135.014 -1.35052 -0.638859 0
M  V30 1423 H 136.896 -1.92326 -3.74952 0
M  V30 1424 H 135.571 -0.916137 -3.10465 0
M  V30 1425 H 134.478 -3.04068 -2.1793 0
M  V30 1426 H 135.811 -3.9891 -2.88326 0
M  V30 1427 N 137.463 0.71206 -1.40597 0
M  V30 1428 C 138.691 1.50111 -1.42388 0
M  V30 1429 C 139.106 1.88784 -0.0245395 0
M  V30 1430 O 138.463 1.55681 0.952351 0
M  V30 1431 C 138.514 2.7742 -2.31776 0
M  V30 1432 O 138.235 2.40382 -3.66262 0
M  V30 1433 C 139.736 3.7129 -2.42196 0
M  V30 1434 H 136.956 0.46314 -0.485533 0
M  V30 1435 H 139.5 0.878068 -1.8469 0
M  V30 1436 H 137.655 3.36001 -1.92827 0
M  V30 1437 H 138.069 3.22324 -4.13772 0
M  V30 1438 H 139.543 4.57448 -3.08943 0
M  V30 1439 H 140.02 4.14641 -1.44809 0
M  V30 1440 H 140.626 3.18619 -2.81712 0
M  V30 1441 N 138.941 1.26152 0.944643 0
M  V30 1442 C 140.166 1.14363 1.7302 0
M  V30 1443 C 140.591 -0.29772 1.85729 0
M  V30 1444 O 139.949 -1.2157 1.34501 0
M  V30 1445 C 139.997 1.81378 3.11664 0
M  V30 1446 O 139.101 1.10022 3.97453 0
M  V30 1447 H 138.442 0.398694 0.53098 0
M  V30 1448 H 140.972 1.66906 1.18337 0
M  V30 1449 H 140.982 1.88064 3.62072 0
M  V30 1450 H 139.657 2.86237 3.0173 0
M  V30 1451 H 138.234 1.11287 3.55907 0
M  V30 1452 N 140.419 -1.14872 1.07899 0
M  V30 1453 C 141.329 -2.2341 0.715915 0
M  V30 1454 C 142.345 -1.71808 -0.275306 0
M  V30 1455 O 143.521 -2.01039 -0.120545 0
M  V30 1456 C 140.586 -3.46474 0.125168 0
M  V30 1457 C 139.647 -4.13039 1.17034 0
M  V30 1458 C 138.88 -5.30229 0.607688 0
M  V30 1459 O 139.103 -5.675 -0.574497 0
M  V30 1460 O 138.037 -5.86444 1.35526 0
M  V30 1461 H 141.863 -2.56808 1.62121 0
M  V30 1462 H 139.448 -1.22702 0.852322 0
M  V30 1463 H 141.33 -4.20917 -0.201729 0
M  V30 1464 H 140.005 -3.14811 -0.753364 0
M  V30 1465 H 138.912 -3.40493 1.54968 0
M  V30 1466 H 140.245 -4.48796 2.02097 0
M  V30 1467 N 141.898 -0.863906 -1.31812 0
M  V30 1468 C 142.831 -0.259963 -2.26714 0
M  V30 1469 C 143.809 0.607392 -1.50829 0
M  V30 1470 O 144.993 0.562155 -1.79922 0
M  V30 1471 C 142.12 0.632456 -3.32743 0
M  V30 1472 C 141.166 -0.162743 -4.26189 0
M  V30 1473 S 141.999 -1.53726 -5.12961 0
M  V30 1474 C 143.155 -0.650803 -6.22507 0
M  V30 1475 H 143.388 -1.06445 -2.77591 0
M  V30 1476 H 140.921 -0.662071 -1.39485 0
M  V30 1477 H 142.879 1.14167 -3.94305 0
M  V30 1478 H 141.54 1.41083 -2.80632 0
M  V30 1479 H 140.733 0.517366 -5.01338 0
M  V30 1480 H 140.335 -0.60385 -3.69093 0
M  V30 1481 H 142.627 0.141134 -6.77353 0
M  V30 1482 H 143.57 -1.37322 -6.94657 0
M  V30 1483 H 143.978 -0.221041 -5.64067 0
M  V30 1484 N 143.376 1.44774 -0.622745 0
M  V30 1485 C 144.792 1.56986 -0.287652 0
M  V30 1486 C 144.992 1.61167 1.20944 0
M  V30 1487 O 144.048 1.55015 1.99315 0
M  V30 1488 C 145.361 2.84551 -0.972188 0
M  V30 1489 C 146.909 2.9825 -0.949536 0
M  V30 1490 C 147.384 4.28605 -1.61437 0
M  V30 1491 N 148.875 4.35399 -1.58057 0
M  V30 1492 C 149.61 5.34964 -2.064 0
M  V30 1493 N 149.106 6.40981 -2.62897 0
M  V30 1494 N 150.899 5.26419 -1.97078 0
M  V30 1495 H 143.05 1.40304 -1.59463 0
M  V30 1496 H 145.313 0.671794 -0.668878 0
M  V30 1497 H 145.019 2.87417 -2.02693 0
M  V30 1498 H 144.893 3.73807 -0.504771 0
M  V30 1499 H 147.28 2.94941 0.0967067 0
M  V30 1500 H 147.361 2.10364 -1.45536 0
M  V30 1501 H 147.005 4.32672 -2.66002 0
M  V30 1502 H 146.935 5.15334 -1.08344 0
M  V30 1503 H 149.426 3.59397 -1.16801 0
M  V30 1504 H 149.739 7.13225 -2.97539 0
M  V30 1505 H 148.084 6.4169 -2.66943 0
M  V30 1506 H 151.275 4.42504 -1.52669 0
M  V30 1507 H 151.448 6.03861 -2.35066 0
M  V30 1508 N 144.854 0.36279 1.53368 0
M  V30 1509 C 146.102 -0.227326 2.00817 0
M  V30 1510 C 146.423 -1.49511 1.25186 0
M  V30 1511 O 145.693 -1.92482 0.364348 0
M  V30 1512 H 144.273 -0.0869923 0.741917 0
M  V30 1513 H 146.935 0.488381 1.88682 0
M  V30 1514 H 146.031 -0.456273 3.08747 0
M  V30 1515 N 146.332 -1.57332 0.0918853 0
M  V30 1516 C 147.578 -1.94524 -0.573425 0
M  V30 1517 C 147.911 -0.973578 -1.68033 0
M  V30 1518 O 147.186 -0.00609226 -1.94499 0
M  V30 1519 C 147.469 -3.41858 -1.13161 0
M  V30 1520 C 147.322 -4.4979 -0.0299747 0
M  V30 1521 C 148.641 -3.90435 -2.03098 0
M  V30 1522 H 145.76 -0.70734 -0.206975 0
M  V30 1523 H 148.402 -1.89309 0.161942 0
M  V30 1524 H 146.552 -3.46433 -1.7583 0
M  V30 1525 H 148.224 -4.57327 0.604112 0
M  V30 1526 H 146.467 -4.291 0.636833 0
M  V30 1527 H 147.138 -5.50069 -0.461287 0
M  V30 1528 H 149.614 -3.87992 -1.50338 0
M  V30 1529 H 148.49 -4.94097 -2.39081 0
M  V30 1530 H 148.751 -3.29541 -2.94712 0
M  V30 1531 N 147.81 0.181792 -1.56548 0
M  V30 1532 C 149.057 0.900097 -1.81396 0
M  V30 1533 C 149.385 1.82695 -0.667281 0
M  V30 1534 O 148.64 1.92614 0.346146 0
M  V30 1535 C 148.939 1.73728 -3.12335 0
M  V30 1536 C 148.605 0.960255 -4.40556 0
M  V30 1537 C 147.267 0.745766 -4.75386 0
M  V30 1538 C 149.619 0.414477 -5.19549 0
M  V30 1539 C 146.947 -0.0257694 -5.86694 0
M  V30 1540 C 149.299 -0.343916 -6.31664 0
M  V30 1541 C 147.963 -0.569301 -6.65068 0
M  V30 1542 H 147.233 0.329369 -0.663775 0
M  V30 1543 H 149.88 0.165647 -1.90782 0
M  V30 1544 H 148.185 2.54081 -2.98245 0
M  V30 1545 H 149.882 2.29591 -3.28769 0
M  V30 1546 H 146.472 1.13746 -4.13231 0
M  V30 1547 H 150.656 0.567554 -4.93044 0
M  V30 1548 H 145.912 -0.210233 -6.11038 0
M  V30 1549 H 150.086 -0.774133 -6.92084 0
M  V30 1550 H 147.713 -1.16903 -7.51158 0
M  V30 1551 N 149.288 1.51039 0.449983 0
M  V30 1552 C 150.513 1.6715 1.22783 0
M  V30 1553 C 150.938 0.363081 1.84563 0
M  V30 1554 O 150.296 -0.675433 1.68249 0
M  V30 1555 C 150.344 2.77985 2.29689 0
M  V30 1556 O 149.448 2.40707 3.34864 0
M  V30 1557 H 148.789 0.557746 0.360299 0
M  V30 1558 H 151.319 1.97535 0.533005 0
M  V30 1559 H 151.329 3.01693 2.74673 0
M  V30 1560 H 150.004 3.72935 1.84098 0
M  V30 1561 H 148.581 2.27523 2.95445 0
M  V30 1562 N 150.766 -0.704594 1.40972 0
M  V30 1563 C 152.182 -1.01406 1.23244 0
M  V30 1564 C 152.382 -2.01169 0.115399 0
M  V30 1565 O 151.438 -2.47021 -0.523147 0
M  V30 1566 C 152.751 -1.54728 2.57836 0
M  V30 1567 C 154.299 -1.66658 2.64942 0
M  V30 1568 C 154.774 -2.23383 3.9983 0
M  V30 1569 N 156.265 -2.30756 4.01629 0
M  V30 1570 C 157 -2.75655 5.02794 0
M  V30 1571 N 156.496 -3.20225 6.14352 0
M  V30 1572 N 158.289 -2.75138 4.90159 0
M  V30 1573 H 150.44 -0.0435285 2.12355 0
M  V30 1574 H 152.703 -0.0818951 0.944456 0
M  V30 1575 H 152.409 -0.888832 3.40283 0
M  V30 1576 H 152.283 -2.53084 2.79693 0
M  V30 1577 H 154.67 -2.31617 1.8286 0
M  V30 1578 H 154.751 -0.668717 2.46904 0
M  V30 1579 H 154.395 -1.59043 4.82357 0
M  V30 1580 H 154.325 -3.23904 4.15203 0
M  V30 1581 H 156.816 -1.99291 3.21079 0
M  V30 1582 H 157.129 -3.53084 6.87424 0
M  V30 1583 H 155.474 -3.18156 6.17901 0
M  V30 1584 H 158.665 -2.39661 4.02095 0
M  V30 1585 H 158.838 -3.09812 5.6914 0
M  V30 1586 N 152.244 -1.26651 -0.937939 0
M  V30 1587 C 153.49 -1.12553 -1.687 0
M  V30 1588 C 153.823 0.329782 -1.91379 0
M  V30 1589 O 153.098 1.24202 -1.4968 0
M  V30 1590 C 153.381 -1.89862 -3.05981 0
M  V30 1591 C 153.234 -3.43318 -2.90607 0
M  V30 1592 C 154.553 -1.69499 -4.0615 0
M  V30 1593 H 151.672 -0.410257 -0.612257 0
M  V30 1594 H 154.314 -1.55685 -1.08913 0
M  V30 1595 H 152.464 -1.53204 -3.57017 0
M  V30 1596 H 154.136 -3.89747 -2.46769 0
M  V30 1597 H 152.379 -3.70179 -2.26164 0
M  V30 1598 H 153.05 -3.92642 -3.8799 0
M  V30 1599 H 155.526 -2.01442 -3.64088 0
M  V30 1600 H 154.402 -2.26002 -5.00214 0
M  V30 1601 H 154.663 -0.640365 -4.37438 0
M  V30 1602 N 153.722 1.14298 -1.08507 0
M  V30 1603 C 155.138 1.37347 -0.812901 0
M  V30 1604 C 155.338 1.93052 0.577325 0
M  V30 1605 O 154.394 2.14389 1.33393 0
M  V30 1606 C 155.707 2.33359 -1.89642 0
M  V30 1607 C 157.255 2.46996 -1.92255 0
M  V30 1608 C 157.73 3.46309 -2.99724 0
M  V30 1609 N 159.221 3.53853 -2.98902 0
M  V30 1610 C 159.956 4.3055 -3.787 0
M  V30 1611 N 159.452 5.10482 -4.6838 0
M  V30 1612 N 161.245 4.25757 -3.66998 0
M  V30 1613 H 153.396 0.764867 -1.9815 0
M  V30 1614 H 155.659 0.398966 -0.859959 0
M  V30 1615 H 155.365 1.99565 -2.89597 0
M  V30 1616 H 155.239 3.33274 -1.76659 0
M  V30 1617 H 157.626 2.80081 -0.929445 0
M  V30 1618 H 157.707 1.47039 -2.09316 0
M  V30 1619 H 157.351 3.13957 -3.99241 0
M  V30 1620 H 157.281 4.46049 -2.79907 0
M  V30 1621 H 159.772 2.96812 -2.33904 0
M  V30 1622 H 160.085 5.66284 -5.25873 0
M  V30 1623 H 158.43 5.09747 -4.72422 0
M  V30 1624 H 161.621 3.62383 -2.96304 0
M  V30 1625 H 161.794 4.85279 -4.29427 0
M  V30 1626 N 155.201 0.870884 1.31352 0
M  V30 1627 C 156.447 0.482987 1.96965 0
M  V30 1628 C 156.78 -0.962462 1.68672 0
M  V30 1629 O 156.055 -1.6779 0.98371 0
M  V30 1630 C 156.338 0.741752 3.52378 0
M  V30 1631 C 156.191 2.2368 3.9024 0
M  V30 1632 C 157.51 0.208838 4.39604 0
M  V30 1633 H 154.629 0.176955 0.715441 0
M  V30 1634 H 157.271 1.09229 1.55464 0
M  V30 1635 H 155.421 0.223149 3.87859 0
M  V30 1636 H 157.093 2.82273 3.64856 0
M  V30 1637 H 155.336 2.70901 3.38814 0
M  V30 1638 H 156.007 2.3685 4.98604 0
M  V30 1639 H 158.483 0.652529 4.10952 0
M  V30 1640 H 157.359 0.419336 5.47296 0
M  V30 1641 H 157.62 -0.889275 4.33064 0
M  V30 1642 N 156.679 -1.44442 0.630414 0
M  V30 1643 C 157.927 -2.01653 0.134351 0
M  V30 1644 C 158.248 -1.49836 -1.24796 0
M  V30 1645 O 157.518 -0.701684 -1.82902 0
M  V30 1646 H 156.098 -0.74554 0.0466769 0
M  V30 1647 H 158.76 -1.76952 0.816955 0
M  V30 1648 H 157.856 -3.11935 0.101498 0
M  V30 1649 N 158.157 -0.370918 -1.53173 0
M  V30 1650 C 159.382 0.220293 -2.06227 0
M  V30 1651 C 159.807 1.41243 -1.24225 0
M  V30 1652 O 159.165 1.79387 -0.262645 0
M  V30 1653 C 159.213 0.586663 -3.55796 0
M  V30 1654 O 158.317 1.68317 -3.76488 0
M  V30 1655 H 157.658 0.0308099 -0.663285 0
M  V30 1656 H 160.188 -0.533068 -1.97534 0
M  V30 1657 H 160.198 0.85617 -3.98916 0
M  V30 1658 H 158.873 -0.285013 -4.14922 0
M  V30 1659 H 157.45 1.40881 -3.45264 0
M  V30 1660 N 159.635 1.57281 -0.100228 0
M  V30 1661 C 160.567 2.11342 0.886972 0
M  V30 1662 C 161.58 1.05182 1.24261 0
M  V30 1663 O 162.769 1.32613 1.19483 0
M  V30 1664 C 159.869 2.5825 2.19454 0
M  V30 1665 C 159.042 3.88302 2.01346 0
M  V30 1666 C 158.101 4.21004 3.15661 0
M  V30 1667 O 157.127 4.9014 2.89398 0
M  V30 1668 N 158.329 3.76818 4.41575 0
M  V30 1669 H 161.094 2.96668 0.425216 0
M  V30 1670 H 158.655 1.61678 0.0847334 0
M  V30 1671 H 160.647 2.7717 2.94888 0
M  V30 1672 H 159.217 1.77907 2.57037 0
M  V30 1673 H 158.437 3.7848 1.10212 0
M  V30 1674 H 159.725 4.73375 1.8653 0
M  V30 1675 H 159.123 3.2102 4.65792 0
M  V30 1676 H 157.68 4.00882 5.13942 0
M  V30 1677 N 161.113 -0.173488 1.56642 0
M  V30 1678 C 162.362 -0.888758 1.81063 0
M  V30 1679 C 162.675 -1.83506 0.67712 0
M  V30 1680 O 163.881 -2.59254 0.806206 0
M  V30 1681 C 162.337 -1.63091 3.20826 0
M  V30 1682 C 161.945 -0.728357 4.4204 0
M  V30 1683 C 163.689 -2.33454 3.54541 0
M  V30 1684 C 161.596 -1.47062 5.72823 0
M  V30 1685 H 160.526 -0.335618 0.675186 0
M  V30 1686 H 163.177 -0.141712 1.82952 0
M  V30 1687 H 161.559 -2.42263 3.13248 0
M  V30 1688 H 162.733 0.0262449 4.60793 0
M  V30 1689 H 161.048 -0.134492 4.16183 0
M  V30 1690 H 163.645 -2.89578 4.49498 0
M  V30 1691 H 163.988 -3.08687 2.79317 0
M  V30 1692 H 164.521 -1.61227 3.63663 0
M  V30 1693 H 161.26 -0.760658 6.51072 0
M  V30 1694 H 160.78 -2.1986 5.58052 0
M  V30 1695 H 162.459 -2.01868 6.14702 0
M  V30 1696 N 162.591 -1.51276 -0.441967 0
M  V30 1697 C 163.816 -1.67799 -1.21895 0
M  V30 1698 C 164.241 -0.372864 -1.84367 0
M  V30 1699 O 163.599 0.666501 -1.68604 0
M  V30 1700 C 163.647 -2.79199 -2.28211 0
M  V30 1701 O 162.751 -2.42479 -3.33583 0
M  V30 1702 H 162.092 -0.559649 -0.357336 0
M  V30 1703 H 164.622 -1.97815 -0.522522 0
M  V30 1704 H 164.632 -3.03146 -2.73069 0
M  V30 1705 H 163.307 -3.73906 -1.82118 0
M  V30 1706 H 161.884 -2.29087 -2.94234 0
M  V30 1707 N 164.069 0.697108 -1.41344 0
M  V30 1708 C 165.485 1.00751 -1.2378 0
M  V30 1709 C 165.685 2.01105 -0.126066 0
M  V30 1710 O 164.741 2.47295 0.51004 0
M  V30 1711 C 166.054 1.53359 -2.58653 0
M  V30 1712 C 167.602 1.6525 -2.65822 0
M  V30 1713 C 168.077 2.2126 -4.01009 0
M  V30 1714 N 169.568 2.28622 -4.02847 0
M  V30 1715 C 170.303 2.72984 -5.04249 0
M  V30 1716 N 169.799 3.16962 -6.16041 0
M  V30 1717 N 171.592 2.72534 -4.91611 0
M  V30 1718 H 163.743 0.0322662 -2.12375 0
M  V30 1719 H 166.006 0.0768853 -0.944877 0
M  V30 1720 H 165.712 0.870773 -3.4075 0
M  V30 1721 H 165.586 2.51597 -2.81032 0
M  V30 1722 H 167.973 2.30644 -1.84086 0
M  V30 1723 H 168.054 0.655614 -2.47256 0
M  V30 1724 H 167.698 1.56482 -4.83193 0
M  V30 1725 H 167.628 3.21698 -4.16915 0
M  V30 1726 H 170.119 1.97585 -3.22131 0
M  V30 1727 H 170.432 3.49434 -6.89287 0
M  V30 1728 H 168.777 3.14875 -6.1958 0
M  V30 1729 H 171.968 2.37525 -4.0336 0
M  V30 1730 H 172.141 3.06789 -5.70775 0
M  V30 1731 N 165.547 1.27147 0.931209 0
M  V30 1732 C 166.963 1.04475 1.20653 0
M  V30 1733 C 167.163 -0.223885 2.00252 0
M  V30 1734 O 166.219 -0.930332 2.34736 0
M  V30 1735 C 167.532 2.28209 1.95809 0
M  V30 1736 C 169.08 2.33211 2.08762 0
M  V30 1737 C 169.555 3.56665 2.87323 0
M  V30 1738 N 171.046 3.57201 2.94892 0
M  V30 1739 C 171.781 4.49395 3.56134 0
M  V30 1740 N 171.277 5.51889 4.18796 0
M  V30 1741 N 173.07 4.37026 3.53504 0
M  V30 1742 H 165.221 2.08612 0.399333 0
M  V30 1743 H 167.484 0.917312 0.239253 0
M  V30 1744 H 167.19 3.20538 1.44736 0
M  V30 1745 H 167.064 2.33247 2.96438 0
M  V30 1746 H 169.451 1.41391 2.59023 0
M  V30 1747 H 169.532 2.32178 1.07364 0
M  V30 1748 H 169.176 4.4882 2.37746 0
M  V30 1749 H 169.106 3.54948 3.88998 0
M  V30 1750 H 171.597 2.83074 2.50354 0
M  V30 1751 H 171.91 6.18409 4.63454 0
M  V30 1752 H 170.255 5.55735 4.17353 0
M  V30 1753 H 173.446 3.56166 3.03749 0
M  V30 1754 H 173.619 5.09067 4.00942 0
M  V30 1755 N 167.025 -1.13721 1.09112 0
M  V30 1756 C 168.302 -1.81155 0.737706 0
M  V30 1757 C 168.682 -1.96253 -0.777683 0
M  V30 1758 O 168.03 -1.52807 -1.69889 0
M  V30 1759 C 168.24 -3.16392 1.47299 0
M  V30 1760 C 169.588 -3.91787 1.63671 0
M  V30 1761 O 170.612 -3.26005 1.43524 0
M  V30 1762 O 169.471 -5.0977 1.96969 0
M  V30 1763 H 166.565 -0.783518 0.26463 0
M  V30 1764 H 169.111 -1.20676 1.19312 0
M  V30 1765 H 167.883 -3.0061 2.50498 0
M  V30 1766 H 167.506 -3.8457 1.00953 0
M  V30 1767 N 168.503 -0.877838 -1.30888 0
M  V30 1768 C 169.436 -0.283995 -2.26426 0
M  V30 1769 C 170.414 0.591361 -1.51465 0
M  V30 1770 O 171.598 0.54304 -1.80509 0
M  V30 1771 C 168.725 0.597129 -3.33395 0
M  V30 1772 C 167.771 -0.207937 -4.25993 0
M  V30 1773 S 168.604 -1.59158 -5.11301 0
M  V30 1774 C 169.76 -0.716791 -6.21782 0
M  V30 1775 H 169.993 -1.09383 -2.76446 0
M  V30 1776 H 167.526 -0.676828 -1.38775 0
M  V30 1777 H 169.484 1.09978 -3.95493 0
M  V30 1778 H 168.145 1.38099 -2.82113 0
M  V30 1779 H 167.338 0.464163 -5.01858 0
M  V30 1780 H 166.94 -0.642963 -3.68432 0
M  V30 1781 H 169.232 0.0692833 -6.77465 0
M  V30 1782 H 170.175 -1.44682 -6.93161 0
M  V30 1783 H 170.583 -0.280855 -5.63801 0
M  V30 1784 N 169.982 1.44106 -0.638065 0
M  V30 1785 C 170.912 2.33448 0.0494287 0
M  V30 1786 C 171.893 1.48606 0.827672 0
M  V30 1787 O 173.078 1.77308 0.792173 0
M  V30 1788 C 170.208 3.31771 1.02691 0
M  V30 1789 C 169.162 4.26485 0.359823 0
M  V30 1790 C 168.488 5.14729 1.44769 0
M  V30 1791 C 169.788 5.17056 -0.738296 0
M  V30 1792 H 171.482 2.91183 -0.696636 0
M  V30 1793 H 169.028 1.40014 -0.336456 0
M  V30 1794 H 170.981 3.93161 1.51666 0
M  V30 1795 H 169.705 2.7226 1.80395 0
M  V30 1796 H 168.364 3.66437 -0.10934 0
M  V30 1797 H 168.012 4.51566 2.21578 0
M  V30 1798 H 167.712 5.78913 1.00668 0
M  V30 1799 H 169.236 5.78991 1.93911 0
M  V30 1800 H 170.65 5.72342 -0.331354 0
M  V30 1801 H 169.047 5.89879 -1.10286 0
M  V30 1802 H 170.117 4.57652 -1.60258 0
M  V30 1803 N 171.46 0.379036 1.52974 0
M  V30 1804 C 172.39 -0.452706 2.29069 0
M  V30 1805 C 173.371 -1.07237 1.32039 0
M  V30 1806 O 174.556 -1.08708 1.60923 0
M  V30 1807 C 171.686 -1.5856 3.08992 0
M  V30 1808 C 170.64 -1.0925 4.13822 0
M  V30 1809 C 169.966 -2.31668 4.81907 0
M  V30 1810 C 171.266 -0.167702 5.22031 0
M  V30 1811 H 172.96 0.182181 2.98845 0
M  V30 1812 H 170.506 0.0890592 1.43724 0
M  V30 1813 H 172.459 -2.1742 3.6098 0
M  V30 1814 H 171.183 -2.24792 2.36931 0
M  V30 1815 H 169.842 -0.526494 3.628 0
M  V30 1816 H 169.49 -2.96386 4.06404 0
M  V30 1817 H 169.19 -1.9934 5.52754 0
M  V30 1818 H 170.714 -2.91189 5.36695 0
M  V30 1819 H 172.128 -0.664186 5.6944 0
M  V30 1820 H 170.525 0.0653265 6.00064 0
M  V30 1821 H 171.595 0.786347 4.78482 0
M  V30 1822 N 172.938 -1.57226 0.108567 0
M  V30 1823 C 173.868 -2.17778 -0.84232 0
M  V30 1824 C 174.849 -1.11487 -1.2847 0
M  V30 1825 O 176.034 -1.39681 -1.34918 0
M  V30 1826 C 173.164 -2.76888 -2.09644 0
M  V30 1827 C 172.118 -3.88669 -1.79221 0
M  V30 1828 C 171.444 -4.34541 -3.11574 0
M  V30 1829 C 172.744 -5.11251 -1.06864 0
M  V30 1830 H 174.438 -2.97489 -0.337774 0
M  V30 1831 H 171.984 -1.43097 -0.161025 0
M  V30 1832 H 173.937 -3.17904 -2.76614 0
M  V30 1833 H 172.661 -1.94451 -2.62405 0
M  V30 1834 H 171.32 -3.48213 -1.14644 0
M  V30 1835 H 170.968 -3.48977 -3.62249 0
M  V30 1836 H 170.668 -5.09914 -2.91996 0
M  V30 1837 H 172.192 -4.782 -3.7968 0
M  V30 1838 H 173.606 -5.49352 -1.63968 0
M  V30 1839 H 172.003 -5.9214 -0.974178 0
M  V30 1840 H 173.073 -4.8487 -0.0536168 0
M  V30 1841 N 174.416 0.165178 -1.56732 0
M  V30 1842 C 175.379 1.18822 -1.95995 0
M  V30 1843 C 176.379 1.3685 -0.84431 0
M  V30 1844 O 177.569 1.34152 -1.11126 0
M  V30 1845 C 174.701 2.5521 -2.26011 0
M  V30 1846 H 175.894 0.851825 -2.87548 0
M  V30 1847 H 173.447 0.407857 -1.50885 0
M  V30 1848 H 174.182 2.93852 -1.37191 0
M  V30 1849 H 173.967 2.43489 -3.07336 0
M  V30 1850 H 175.457 3.28927 -2.57288 0
M  V30 1851 N 175.894 1.51508 0.433938 0
M  V30 1852 C 176.824 1.76016 1.53429 0
M  V30 1853 C 177.805 0.610112 1.58782 0
M  V30 1854 O 178.99 0.853177 1.74455 0
M  V30 1855 C 176.12 1.88831 2.9148 0
M  V30 1856 C 175.074 3.04288 3.00987 0
M  V30 1857 C 174.4 3.0229 4.4105 0
M  V30 1858 C 175.7 4.44193 2.74754 0
M  V30 1859 H 177.394 2.68152 1.33171 0
M  V30 1860 H 174.94 1.29035 0.639214 0
M  V30 1861 H 176.893 2.04559 3.6842 0
M  V30 1862 H 175.617 0.933455 3.12976 0
M  V30 1863 H 174.276 2.8827 2.26486 0
M  V30 1864 H 173.924 2.04576 4.59519 0
M  V30 1865 H 173.624 3.79822 4.4834 0
M  V30 1866 H 175.148 3.20116 5.1996 0
M  V30 1867 H 176.562 4.60544 3.41426 0
M  V30 1868 H 174.959 5.23457 2.9345 0
M  V30 1869 H 176.029 4.53996 1.70339 0
M  V30 1870 N 177.372 -0.689602 1.41712 0
M  V30 1871 C 178.305 -1.81403 1.3845 0
M  V30 1872 C 179.283 -1.60653 0.250874 0
M  V30 1873 O 180.467 -1.83323 0.43874 0
M  V30 1874 C 177.594 -3.18176 1.1611 0
M  V30 1875 C 176.64 -3.57705 2.3227 0
M  V30 1876 S 177.473 -3.61827 3.94767 0
M  V30 1877 C 178.629 -5.01318 3.74742 0
M  V30 1878 H 178.862 -1.83893 2.33603 0
M  V30 1879 H 176.395 -0.858878 1.28307 0
M  V30 1880 H 178.353 -3.97132 1.03907 0
M  V30 1881 H 177.014 -3.13288 0.225668 0
M  V30 1882 H 176.207 -4.57082 2.12349 0
M  V30 1883 H 175.809 -2.86073 2.40911 0
M  V30 1884 H 178.101 -5.88986 3.34817 0
M  V30 1885 H 179.044 -5.26283 4.73743 0
M  V30 1886 H 179.452 -4.73138 3.07898 0
M  V30 1887 N 178.85 -1.27639 -0.924453 0
M  V30 1888 C 180.075 -1.17101 -1.71179 0
M  V30 1889 C 180.5 0.268134 -1.86179 0
M  V30 1890 O 179.858 1.19415 -1.36418 0
M  V30 1891 C 179.906 -1.86313 -3.08739 0
M  V30 1892 O 179.01 -1.16331 -3.95652 0
M  V30 1893 H 178.351 -0.407091 -0.524569 0
M  V30 1894 H 180.881 -1.68767 -1.15666 0
M  V30 1895 H 180.891 -1.938 -3.59034 0
M  V30 1896 H 179.566 -2.91001 -2.97138 0
M  V30 1897 H 178.143 -1.16935 -3.54091 0
M  V30 1898 N 180.328 1.1314 -1.09713 0
M  V30 1899 C 181.553 1.88862 -0.857081 0
M  V30 1900 C 181.978 1.78729 0.586304 0
M  V30 1901 O 181.336 1.13692 1.41222 0
M  V30 1902 C 181.384 3.36325 -1.30069 0
M  V30 1903 O 180.488 4.09815 -0.461007 0
M  V30 1904 H 179.829 0.587108 -0.310162 0
M  V30 1905 H 182.359 1.43129 -1.46203 0
M  V30 1906 H 182.369 3.87157 -1.28738 0
M  V30 1907 H 181.044 3.43017 -2.35185 0
M  V30 1908 H 179.621 3.68986 -0.538888 0
M  V30 1909 N 181.806 0.884767 1.30421 0
M  V30 1910 C 182.716 0.355398 2.31892 0
M  V30 1911 C 183.732 -0.542261 1.65335 0
M  V30 1912 O 184.908 -0.435432 1.96637 0
M  V30 1913 C 181.973 -0.421661 3.44126 0
M  V30 1914 C 181.034 0.505727 4.26311 0
M  V30 1915 C 180.267 -0.234343 5.33185 0
M  V30 1916 O 180.49 -1.46045 5.51386 0
M  V30 1917 O 179.424 0.415443 6.00465 0
M  V30 1918 H 183.25 1.19685 2.79122 0
M  V30 1919 H 180.835 0.648596 1.34587 0
M  V30 1920 H 182.717 -0.861641 4.12497 0
M  V30 1921 H 181.392 -1.23942 2.99032 0
M  V30 1922 H 180.299 0.994513 3.60639 0
M  V30 1923 H 181.632 1.28948 4.75009 0
M  V30 1924 N 183.284 -1.43765 0.645699 0
M  V30 1925 C 184.232 -2.32516 -0.0624849 0
M  V30 1926 C 185.226 -1.48183 -0.820855 0
M  V30 1927 O 186.432 -1.64439 -0.732106 0
M  V30 1928 H 182.807 -0.750989 -0.0389864 0
M  V30 1929 H 184.778 -2.89979 0.703892 0
M  V30 1930 C 183.527 -3.32389 -1.02044 0
M  V30 1931 H 182.85 -3.97301 -0.446312 0
M  V30 1932 H 184.29 -3.97138 -1.48517 0
M  V30 1933 C 182.749 -2.62416 -2.11281 0
M  V30 1934 O 183.279 -2.434 -3.19561 0
M  V30 1935 N 181.485 -2.21913 -1.87624 0
M  V30 1936 H 181.032 -2.37578 -0.995703 0
M  V30 1937 H 180.99 -1.75424 -2.6091 0
M  V30 1938 N 184.763 -0.387143 -1.52771 0
M  V30 1939 C 186.179 -0.037007 -1.59557 0
M  V30 1940 C 186.379 1.44801 -1.40124 0
M  V30 1941 O 185.435 2.21227 -1.21716 0
M  V30 1942 C 186.748 -0.512256 -2.96305 0
M  V30 1943 C 188.296 -0.468328 -3.09476 0
M  V30 1944 C 188.771 -0.919731 -4.4867 0
M  V30 1945 N 190.262 -0.875656 -4.54848 0
M  V30 1946 C 190.997 -1.19637 -5.6078 0
M  V30 1947 N 190.493 -1.58745 -6.74368 0
M  V30 1948 N 192.286 -1.11776 -5.50874 0
M  V30 1949 H 184.437 -1.35395 -1.63652 0
M  V30 1950 H 186.7 -0.554818 -0.768688 0
M  V30 1951 H 186.406 -1.54935 -3.15734 0
M  V30 1952 H 186.28 0.089805 -3.77093 0
M  V30 1953 H 188.667 0.559671 -2.89744 0
M  V30 1954 H 188.748 -1.10616 -2.30646 0
M  V30 1955 H 188.392 -1.94595 -4.69143 0
M  V30 1956 H 188.322 -0.258927 -5.25963 0
M  V30 1957 H 190.813 -0.587843 -3.733 0
M  V30 1958 H 191.126 -1.81586 -7.51163 0
M  V30 1959 H 189.471 -1.6263 -6.75705 0
M  V30 1960 H 192.662 -0.811264 -4.61016 0
M  V30 1961 H 192.835 -1.37103 -6.3333 0
M  V30 1962 N 186.241 1.57166 -0.116904 0
M  V30 1963 C 187.204 2.14039 0.819742 0
M  V30 1964 C 188.204 1.07477 1.19605 0
M  V30 1965 O 189.394 1.33263 1.1219 0
M  V30 1966 C 186.526 2.67891 2.10826 0
M  V30 1967 H 187.719 2.98128 0.325511 0
M  V30 1968 H 185.272 1.55739 0.132312 0
M  V30 1969 H 186.007 1.87384 2.64685 0
M  V30 1970 H 185.792 3.45823 1.84793 0
M  V30 1971 H 187.282 3.11809 2.77785 0
M  V30 1972 N 187.719 -0.156864 1.56817 0
M  V30 1973 C 188.682 -1.17781 1.96622 0
M  V30 1974 C 189.682 -1.36401 0.851555 0
M  V30 1975 O 190.872 -1.33561 1.11836 0
M  V30 1976 C 188.004 -2.54008 2.27361 0
M  V30 1977 H 189.197 -0.836564 2.87996 0
M  V30 1978 H 186.75 -0.39985 1.51099 0
M  V30 1979 H 187.485 -2.9312 1.38748 0
M  V30 1980 H 187.27 -2.41856 3.08623 0
M  V30 1981 H 188.76 -3.27558 2.59029 0
M  V30 1982 N 189.197 -1.51736 -0.425897 0
M  V30 1983 C 190.16 -1.73271 -1.50032 0
M  V30 1984 C 191.16 -0.602639 -1.4908 0
M  V30 1985 O 192.35 -0.87033 -1.509 0
M  V30 1986 C 189.482 -1.79969 -2.89523 0
M  V30 1987 H 190.675 -2.69172 -1.32237 0
M  V30 1988 H 188.228 -1.41899 -0.65532 0
M  V30 1989 H 188.963 -0.859241 -3.1271 0
M  V30 1990 H 188.748 -2.62109 -2.91619 0
M  V30 1991 H 190.238 -1.9843 -3.67444 0
M  V30 1992 N 190.675 0.682077 -1.42076 0
M  V30 1993 C 191.9 1.47558 -1.45744 0
M  V30 1994 C 192.325 1.87977 -0.0680981 0
M  V30 1995 O 191.683 1.55522 0.9318 0
M  V30 1996 C 191.731 2.70575 -2.38373 0
M  V30 1997 O 190.835 3.68573 -1.85007 0
M  V30 1998 H 190.176 0.443585 -0.494093 0
M  V30 1999 H 192.706 0.837238 -1.86686 0
M  V30 2000 H 192.716 3.18729 -2.54707 0
M  V30 2001 H 191.391 2.40495 -3.39315 0
M  V30 2002 H 189.968 3.2757 -1.78192 0
M  V30 2003 N 192.153 1.28127 0.917671 0
M  V30 2004 C 193.083 1.14248 2.03641 0
M  V30 2005 C 194.064 0.0412748 1.7005 0
M  V30 2006 O 195.249 0.217566 1.92977 0
M  V30 2007 C 192.379 0.799431 3.37974 0
M  V30 2008 C 191.333 1.85497 3.85713 0
M  V30 2009 C 190.659 1.36565 5.16966 0
M  V30 2010 C 191.959 3.26085 4.08002 0
M  V30 2011 H 193.653 2.07835 2.15511 0
M  V30 2012 H 191.199 1.00064 1.03553 0
M  V30 2013 H 193.152 0.689114 4.15727 0
M  V30 2014 H 191.876 -0.172145 3.26146 0
M  V30 2015 H 190.535 1.95437 3.10161 0
M  V30 2016 H 190.183 0.383253 5.01538 0
M  V30 2017 H 189.883 2.07143 5.49878 0
M  V30 2018 H 191.407 1.26848 5.97279 0
M  V30 2019 H 192.821 3.19089 4.76293 0
M  V30 2020 H 191.218 3.94462 4.52238 0
M  V30 2021 H 192.288 3.70394 3.12948 0
M  V30 2022 N 193.631 -1.12557 1.10312 0
M  V30 2023 C 194.594 -2.16434 0.75424 0
M  V30 2024 C 195.594 -1.59278 -0.220685 0
M  V30 2025 O 196.784 -1.742 0.00230591 0
M  V30 2026 C 193.916 -3.40699 0.116987 0
M  V30 2027 H 195.109 -2.48811 1.67431 0
M  V30 2028 H 192.662 -1.27542 0.903475 0
M  V30 2029 H 193.397 -3.13921 -0.813877 0
M  V30 2030 H 193.182 -3.83459 0.818613 0
M  V30 2031 H 194.672 -4.17451 -0.111387 0
M  V30 2032 N 195.109 -0.891671 -1.2995 0
M  V30 2033 C 196.041 -0.320695 -2.26945 0
M  V30 2034 C 197.054 0.528497 -1.53983 0
M  V30 2035 O 198.243 0.346959 -1.75096 0
M  V30 2036 C 195.343 0.562066 -3.34207 0
M  V30 2037 C 194.516 -0.259576 -4.36629 0
M  V30 2038 C 193.575 0.554739 -5.23268 0
M  V30 2039 O 192.601 -0.0249311 -5.69195 0
M  V30 2040 N 193.803 1.8625 -5.4981 0
M  V30 2041 H 196.568 -1.15432 -2.76578 0
M  V30 2042 H 194.129 -0.755336 -1.432 0
M  V30 2043 H 196.121 1.11304 -3.89093 0
M  V30 2044 H 194.691 1.29637 -2.84452 0
M  V30 2045 H 193.911 -0.991986 -3.81514 0
M  V30 2046 H 195.199 -0.822564 -5.02107 0
M  V30 2047 H 194.597 2.35628 -5.14292 0
M  V30 2048 H 193.154 2.36078 -6.07545 0
M  V30 2049 N 196.587 1.43421 -0.653314 0
M  V30 2050 C 197.535 2.32546 0.0501531 0
M  V30 2051 C 198.529 1.48617 0.812985 0
M  V30 2052 O 199.735 1.64825 0.723375 0
M  V30 2053 H 196.11 0.751185 0.0350032 0
M  V30 2054 H 198.081 2.89602 -0.719261 0
M  V30 2055 C 196.83 3.32925 1.00279 0
M  V30 2056 H 196.153 3.97532 0.425236 0
M  V30 2057 H 197.593 3.9792 1.46409 0
M  V30 2058 C 196.052 2.63532 2.09886 0
M  V30 2059 O 196.582 2.45092 3.18265 0
M  V30 2060 N 194.788 2.22905 1.86445 0
M  V30 2061 H 194.335 2.38103 0.98309 0
M  V30 2062 H 194.293 1.76805 2.59976 0
M  V30 2063 N 198.065 0.39524 1.52563 0
M  V30 2064 C 199.295 -0.184675 2.05773 0
M  V30 2065 C 199.703 -1.40571 1.26635 0
M  V30 2066 O 199.046 -1.81105 0.30769 0
M  V30 2067 C 199.108 -0.613551 3.54226 0
M  V30 2068 C 198.772 0.49484 4.54313 0
M  V30 2069 C 199.769 1.3541 5.01956 0
M  V30 2070 C 197.454 0.663565 4.97898 0
M  V30 2071 C 199.448 2.36716 5.91814 0
M  V30 2072 C 197.135 1.67996 5.87555 0
M  V30 2073 C 198.133 2.53017 6.34406 0
M  V30 2074 O 197.821 3.52917 7.22291 0
M  V30 2075 H 197.553 -0.030077 0.675331 0
M  V30 2076 H 200.107 0.560708 1.97599 0
M  V30 2077 H 198.337 -1.411 3.60038 0
M  V30 2078 H 200.026 -1.11981 3.90148 0
M  V30 2079 H 200.792 1.23509 4.6901 0
M  V30 2080 H 196.671 0.0114913 4.60999 0
M  V30 2081 H 200.215 3.03113 6.28306 0
M  V30 2082 H 196.112 1.79933 6.19915 0
M  V30 2083 H 196.88 3.48996 7.40367 0
M  V30 2084 N 199.544 -1.57102 0.125237 0
M  V30 2085 C 200.955 -1.82384 -0.399142 0
M  V30 2086 C 201.306 -1.04276 -1.66195 0
M  V30 2087 O 200.431 -0.281269 -2.14564 0
M  V30 2088 C 201.026 -3.30821 -0.730932 0
M  V30 2089 C 199.585 -3.56762 -1.19992 0
M  V30 2090 C 198.732 -2.7649 -0.211792 0
M  V30 2091 H 201.683 -1.54786 0.350277 0
M  V30 2092 H 201.704 -3.4579 -1.58775 0
M  V30 2093 H 201.216 -3.87643 0.188345 0
M  V30 2094 H 199.317 -3.05305 -2.13588 0
M  V30 2095 H 199.43 -4.65317 -1.14093 0
M  V30 2096 H 197.794 -2.4489 -0.700085 0
M  V30 2097 H 198.577 -3.36073 0.700691 0
M  V30 2098 N 201.022 0.148545 -1.56898 0
M  V30 2099 C 202.27 0.859717 -1.82902 0
M  V30 2100 C 202.591 1.81775 -0.70588 0
M  V30 2101 O 201.861 1.93994 0.272586 0
M  V30 2102 H 200.441 0.320469 -0.674766 0
M  V30 2103 H 203.103 0.142918 -1.94375 0
M  V30 2104 H 202.199 1.4229 -2.77777 0
M  V30 2105 N 202.5 1.5196 0.417844 0
M  V30 2106 C 203.748 1.65263 1.16329 0
M  V30 2107 C 204.069 0.380634 1.91249 0
M  V30 2108 O 203.339 -0.604214 1.86349 0
M  V30 2109 H 201.919 0.60912 0.432414 0
M  V30 2110 H 204.581 1.88969 0.477162 0
M  V30 2111 H 203.677 2.4896 1.88217 0
M  V30 2112 N 203.978 -0.674533 1.42435 0
M  V30 2113 C 204.925 -1.78807 1.45934 0
M  V30 2114 C 205.895 -1.63157 0.311271 0
M  V30 2115 O 207.08 -1.83707 0.515383 0
M  V30 2116 C 204.22 -3.16839 1.36773 0
M  V30 2117 C 203.333 -3.43774 2.61617 0
M  V30 2118 C 202.468 -4.71536 2.44597 0
M  V30 2119 C 201.507 -4.91505 3.64814 0
M  V30 2120 N 200.644 -6.10508 3.46734 0
M  V30 2121 H 205.484 -1.75151 2.41093 0
M  V30 2122 H 203.021 -0.85504 1.19697 0
M  V30 2123 H 204.979 -3.96606 1.29459 0
M  V30 2124 H 203.609 -3.19619 0.452089 0
M  V30 2125 H 202.661 -2.58259 2.79297 0
M  V30 2126 H 203.973 -3.54423 3.50978 0
M  V30 2127 H 203.127 -5.59393 2.3487 0
M  V30 2128 H 201.866 -4.6317 1.52726 0
M  V30 2129 H 200.871 -4.0209 3.74972 0
M  V30 2130 H 202.096 -5.01716 4.57665 0
M  V30 2131 H 200.042 -6.03315 2.5758 0
M  V30 2132 H 199.959 -6.2202 4.29682 0
M  V30 2133 H 201.227 -7.01044 3.40819 0
M  V30 2134 N 205.456 -1.28612 -0.910864 0
M  V30 2135 C 206.404 -1.1265 -2.03501 0
M  V30 2136 C 207.398 -0.0450054 -1.6934 0
M  V30 2137 O 208.604 -0.203988 -1.7884 0
M  V30 2138 H 204.979 -0.347639 -0.666822 0
M  V30 2139 H 206.95 -2.07849 -2.14106 0
M  V30 2140 C 205.699 -0.808143 -3.38178 0
M  V30 2141 H 205.022 -1.63231 -3.6496 0
M  V30 2142 H 206.462 -0.736426 -4.17556 0
M  V30 2143 C 204.921 0.488226 -3.33344 0
M  V30 2144 O 205.451 1.51766 -3.71927 0
M  V30 2145 N 203.657 0.490009 -2.86439 0
M  V30 2146 H 203.204 -0.348161 -2.55236 0
M  V30 2147 H 203.162 1.35741 -2.83587 0
M  V30 2148 N 206.934 1.1197 -1.10907 0
M  V30 2149 C 207.897 2.16031 -0.765707 0
M  V30 2150 C 208.897 1.59393 0.212235 0
M  V30 2151 O 210.087 1.74196 -0.0115441 0
M  V30 2152 C 207.219 3.40632 -0.135053 0
M  V30 2153 H 208.412 2.47919 -1.68748 0
M  V30 2154 H 205.965 1.27061 -0.910226 0
M  V30 2155 H 206.7 3.14348 0.797218 0
M  V30 2156 H 206.485 3.8302 -0.838937 0
M  V30 2157 H 207.975 4.17505 0.0892469 0
M  V30 2158 N 208.412 0.89855 1.29475 0
M  V30 2159 C 209.659 0.523882 1.95606 0
M  V30 2160 C 209.987 -0.929608 1.70847 0
M  V30 2161 O 209.242 -1.67401 1.01367 0
M  V30 2162 C 209.541 0.761398 3.49195 0
M  V30 2163 C 209.207 2.19207 3.94029 0
M  V30 2164 C 207.869 2.58326 4.05982 0
M  V30 2165 C 210.221 3.12379 4.17216 0
M  V30 2166 C 207.549 3.898 4.38489 0
M  V30 2167 C 209.901 4.43401 4.51197 0
M  V30 2168 C 208.565 4.82394 4.61359 0
M  V30 2169 H 207.835 0.191702 0.715773 0
M  V30 2170 H 210.482 1.13699 1.54094 0
M  V30 2171 H 208.787 0.0653622 3.91745 0
M  V30 2172 H 210.484 0.450904 3.98457 0
M  V30 2173 H 207.074 1.87846 3.85242 0
M  V30 2174 H 211.258 2.83371 4.07449 0
M  V30 2175 H 206.514 4.19734 4.44559 0
M  V30 2176 H 210.688 5.15623 4.68087 0
M  V30 2177 H 208.315 5.84306 4.86303 0
M  V30 2178 N 209.89 -1.43072 0.660911 0
M  V30 2179 C 211.136 -2.0202 0.177708 0
M  V30 2180 C 211.469 -1.52066 -1.20787 0
M  V30 2181 O 210.744 -0.716987 -1.80802 0
M  V30 2182 C 211.027 -3.59561 0.197019 0
M  V30 2183 C 210.88 -4.19727 1.61706 0
M  V30 2184 C 212.199 -4.37664 -0.462396 0
M  V30 2185 H 209.318 -0.734034 0.0660494 0
M  V30 2186 H 211.96 -1.70272 0.843058 0
M  V30 2187 H 210.11 -3.86739 -0.369527 0
M  V30 2188 H 211.782 -4.03553 2.23479 0
M  V30 2189 H 210.025 -3.76084 2.16201 0
M  V30 2190 H 210.696 -5.28834 1.58237 0
M  V30 2191 H 213.172 -4.16095 0.0197215 0
M  V30 2192 H 212.048 -5.47305 -0.418188 0
M  V30 2193 H 212.309 -4.14493 -1.53778 0
M  V30 2194 N 211.368 -0.403325 -1.52352 0
M  V30 2195 C 212.315 0.425011 -2.26853 0
M  V30 2196 C 213.285 1.04598 -1.29029 0
M  V30 2197 O 214.47 1.07135 -1.57882 0
M  V30 2198 C 211.61 1.53888 -3.08889 0
M  V30 2199 C 210.723 0.939396 -4.21663 0
M  V30 2200 C 209.858 2.02547 -4.91068 0
M  V30 2201 C 208.897 1.40263 -5.95813 0
M  V30 2202 N 208.034 2.4286 -6.58759 0
M  V30 2203 H 212.874 -0.21674 -2.97211 0
M  V30 2204 H 210.411 -0.118722 -1.4662 0
M  V30 2205 H 212.369 2.19558 -3.54753 0
M  V30 2206 H 210.999 2.15074 -2.40714 0
M  V30 2207 H 210.051 0.171898 -3.80011 0
M  V30 2208 H 211.363 0.44436 -4.96817 0
M  V30 2209 H 210.517 2.75958 -5.40308 0
M  V30 2210 H 209.256 2.55415 -4.15469 0
M  V30 2211 H 208.261 0.653833 -5.45898 0
M  V30 2212 H 209.486 0.881719 -6.73352 0
M  V30 2213 H 207.432 2.94871 -5.85992 0
M  V30 2214 H 207.349 1.98152 -7.2957 0
M  V30 2215 H 208.617 3.15858 -7.12639 0
M  V30 2216 N 212.846 1.57033 -0.133567 0
M  V30 2217 C 213.809 2.14897 0.796995 0
M  V30 2218 C 214.809 1.0874 1.18458 0
M  V30 2219 O 215.999 1.34446 1.1077 0
M  V30 2220 C 213.131 2.70112 2.07973 0
M  V30 2221 H 214.324 2.98457 0.293873 0
M  V30 2222 H 211.877 1.55871 0.115787 0
M  V30 2223 H 212.612 1.9018 2.62682 0
M  V30 2224 H 212.397 3.47764 1.81115 0
M  V30 2225 H 213.887 3.14738 2.74462 0
M  V30 2226 N 214.325 -0.140222 1.56975 0
M  V30 2227 C 215.258 -1.20266 1.93936 0
M  V30 2228 C 216.236 -1.41212 0.806099 0
M  V30 2229 O 217.42 -1.55713 1.06234 0
M  V30 2230 C 214.547 -2.56037 2.21726 0
M  V30 2231 C 213.593 -2.51646 3.44349 0
M  V30 2232 S 214.426 -1.97678 4.97678 0
M  V30 2233 C 215.582 -3.35165 5.28597 0
M  V30 2234 H 215.815 -0.887358 2.83749 0
M  V30 2235 H 213.348 -0.346119 1.50471 0
M  V30 2236 H 215.306 -3.34167 2.38416 0
M  V30 2237 H 213.967 -2.84755 1.32566 0
M  V30 2238 H 213.16 -3.51608 3.61092 0
M  V30 2239 H 212.762 -1.81628 3.26936 0
M  V30 2240 H 215.054 -4.31302 5.2248 0
M  V30 2241 H 215.997 -3.23269 6.30002 0
M  V30 2242 H 216.405 -3.32614 4.56101 0
M  V30 2243 N 215.803 -1.52179 -0.40978 0
M  V30 2244 C 216.751 -1.76086 -1.51975 0
M  V30 2245 C 217.745 -0.627964 -1.57331 0
M  V30 2246 O 218.951 -0.809993 -1.60745 0
M  V30 2247 H 215.326 -0.556829 -0.505416 0
M  V30 2248 H 217.297 -2.69077 -1.28996 0
M  V30 2249 C 216.046 -1.92799 -2.8935 0
M  V30 2250 H 215.369 -2.79392 -2.85972 0
M  V30 2251 H 216.809 -2.13527 -3.66309 0
M  V30 2252 C 215.268 -0.694923 -3.29655 0
M  V30 2253 O 215.798 0.13751 -4.01465 0
M  V30 2254 N 214.004 -0.53101 -2.85707 0
M  V30 2255 H 213.551 -1.20952 -2.27439 0
M  V30 2256 H 213.509 0.292718 -3.13034 0
M  V30 2257 N 217.281 0.66697 -1.42791 0
M  V30 2258 C 218.244 1.76211 -1.46568 0
M  V30 2259 C 219.244 1.56896 -0.352196 0
M  V30 2260 O 220.434 1.63044 -0.613364 0
M  V30 2261 C 217.566 3.14935 -1.30494 0
M  V30 2262 H 218.759 1.74247 -2.44086 0
M  V30 2263 H 216.312 0.877342 -1.29354 0
M  V30 2264 H 217.047 3.2252 -0.339301 0
M  V30 2265 H 216.832 3.30359 -2.11199 0
M  V30 2266 H 218.322 3.94821 -1.36038 0
M  V30 2267 N 218.759 1.29093 0.90403 0
M  V30 2268 C 219.706 1.13853 2.00764 0
M  V30 2269 C 220.676 0.0330084 1.66067 0
M  V30 2270 O 221.861 0.199733 1.89752 0
M  V30 2271 C 219.001 0.816537 3.35301 0
M  V30 2272 C 218.114 2.00206 3.82807 0
M  V30 2273 C 217.249 1.61983 5.059 0
M  V30 2274 C 216.288 2.77143 5.45764 0
M  V30 2275 N 215.425 2.39346 6.60044 0
M  V30 2276 H 220.265 2.08276 2.13132 0
M  V30 2277 H 217.802 1.03648 1.04381 0
M  V30 2278 H 219.76 0.610557 4.12708 0
M  V30 2279 H 218.39 -0.090779 3.22672 0
M  V30 2280 H 217.442 2.31988 3.01473 0
M  V30 2281 H 218.754 2.86512 4.08304 0
M  V30 2282 H 217.908 1.37649 5.90879 0
M  V30 2283 H 216.647 0.728202 4.82233 0
M  V30 2284 H 215.652 3.02165 4.59322 0
M  V30 2285 H 216.877 3.66964 5.71414 0
M  V30 2286 H 214.823 1.52665 6.37989 0
M  V30 2287 H 214.74 3.19185 6.85315 0
M  V30 2288 H 216.008 2.1832 7.48303 0
M  V30 2289 N 220.237 -1.11381 1.11499 0
M  V30 2290 C 221.2 -2.15622 0.777153 0
M  V30 2291 C 222.2 -1.59504 -0.203779 0
M  V30 2292 O 223.39 -1.74188 0.020782 0
M  V30 2293 C 220.522 -3.40556 0.153116 0
M  V30 2294 H 221.715 -2.47021 1.70061 0
M  V30 2295 H 219.268 -1.26577 0.916952 0
M  V30 2296 H 220.003 -3.14767 -0.780536 0
M  V30 2297 H 219.788 -3.8257 0.859238 0
M  V30 2298 H 221.278 -4.17546 -0.0671044 0
M  V30 2299 N 221.715 -0.905404 -1.28997 0
M  V30 2300 C 222.665 -0.358713 -2.25161 0
M  V30 2301 C 223.649 0.524449 -1.52113 0
M  V30 2302 O 224.841 0.365534 -1.73184 0
M  V30 2303 C 221.97 0.407609 -3.40872 0
M  V30 2304 C 221.056 -0.490797 -4.21251 0
M  V30 2305 N 221.447 -1.60061 -4.79806 0
M  V30 2306 C 219.745 -0.289636 -4.45059 0
M  V30 2307 C 220.446 -2.15757 -5.40207 0
M  V30 2308 N 219.422 -1.44988 -5.23908 0
M  V30 2309 H 223.224 -1.20642 -2.67998 0
M  V30 2310 H 220.738 -0.757103 -1.43672 0
M  V30 2311 H 222.735 0.816046 -4.08835 0
M  V30 2312 H 221.395 1.25251 -2.9957 0
M  V30 2313 H 222.406 -1.98329 -4.7842 0
M  V30 2314 H 219.083 0.51643 -4.14294 0
M  V30 2315 H 220.473 -3.09069 -5.96595 0
M  V30 2316 N 223.193 1.4272 -0.668489 0
M  V30 2317 C 224.156 2.292 0.00448567 0
M  V30 2318 C 225.156 1.43001 0.735339 0
M  V30 2319 O 226.346 1.64461 0.57429 0
M  V30 2320 C 223.478 3.25375 1.01705 0
M  V30 2321 H 224.671 2.90199 -0.756608 0
M  V30 2322 H 222.224 1.50254 -0.430506 0
M  V30 2323 H 222.959 2.69301 1.80686 0
M  V30 2324 H 222.744 3.88944 0.496463 0
M  V30 2325 H 224.234 3.90245 1.48655 0
M  V30 2326 N 224.671 0.411399 1.52136 0
M  V30 2327 C 225.601 -0.404015 2.29978 0
M  V30 2328 C 226.582 -1.04412 1.34284 0
M  V30 2329 O 227.767 -1.0527 1.63192 0
M  V30 2330 C 224.897 -1.5197 3.12286 0
M  V30 2331 C 223.851 -1.00448 4.16046 0
M  V30 2332 C 223.177 -2.21393 4.86712 0
M  V30 2333 C 224.477 -0.0569336 5.22269 0
M  V30 2334 H 226.171 0.245529 2.98392 0
M  V30 2335 H 223.717 0.119525 1.43503 0
M  V30 2336 H 225.67 -2.09715 3.6551 0
M  V30 2337 H 224.394 -2.19716 2.41646 0
M  V30 2338 H 223.053 -0.449421 3.63835 0
M  V30 2339 H 222.701 -2.87699 4.12599 0
M  V30 2340 H 222.401 -1.87571 5.56858 0
M  V30 2341 H 223.925 -2.7974 5.4275 0
M  V30 2342 H 225.339 -0.54325 5.7072 0
M  V30 2343 H 223.736 0.192594 5.99791 0
M  V30 2344 H 224.806 0.887663 4.76706 0
M  V30 2345 N 226.149 -1.5696 0.141893 0
M  V30 2346 C 227.397 -1.95573 -0.509484 0
M  V30 2347 C 227.718 -1.02746 -1.65736 0
M  V30 2348 O 226.988 -0.0880311 -1.95702 0
M  V30 2349 H 225.568 -0.722115 -0.191205 0
M  V30 2350 H 228.23 -1.93697 0.216196 0
M  V30 2351 H 227.326 -2.99171 -0.889 0
M  V30 2352 N 227.627 0.131896 -1.57047 0
M  V30 2353 C 228.56 1.19236 -1.94571 0
M  V30 2354 C 229.538 1.40782 -0.813576 0
M  V30 2355 O 230.722 1.55148 -1.07058 0
M  V30 2356 C 227.849 2.54858 -2.23081 0
M  V30 2357 C 226.895 2.49817 -3.45679 0
M  V30 2358 S 227.728 1.95036 -4.98719 0
M  V30 2359 C 228.884 3.32357 -5.30367 0
M  V30 2360 H 229.117 0.872297 -2.84215 0
M  V30 2361 H 226.65 0.338134 -1.50652 0
M  V30 2362 H 228.608 3.32898 -2.40185 0
M  V30 2363 H 227.269 2.84047 -1.34074 0
M  V30 2364 H 226.462 3.49688 -3.62952 0
M  V30 2365 H 226.064 1.79892 -3.27895 0
M  V30 2366 H 228.356 4.28525 -5.2476 0
M  V30 2367 H 229.299 3.19923 -6.31708 0
M  V30 2368 H 229.707 3.3019 -4.57859 0
M  V30 2369 N 229.106 1.52395 0.401703 0
M  V30 2370 C 230.053 1.76268 1.48991 0
M  V30 2371 C 231.023 0.605386 1.54675 0
M  V30 2372 O 232.208 0.843742 1.7113 0
M  V30 2373 C 229.348 1.92592 2.86361 0
M  V30 2374 C 228.461 3.20259 2.89928 0
M  V30 2375 C 227.596 3.26972 4.18644 0
M  V30 2376 C 226.635 4.48812 4.16214 0
M  V30 2377 N 225.772 4.52877 5.36514 0
M  V30 2378 H 230.612 2.6914 1.27935 0
M  V30 2379 H 228.149 1.33355 0.620871 0
M  V30 2380 H 230.107 2.0004 3.66115 0
M  V30 2381 H 228.737 1.03093 3.05895 0
M  V30 2382 H 227.789 3.21945 2.02621 0
M  V30 2383 H 229.101 4.10056 2.83999 0
M  V30 2384 H 228.255 3.33533 5.06794 0
M  V30 2385 H 226.994 2.35126 4.27278 0
M  V30 2386 H 225.999 4.4239 3.26453 0
M  V30 2387 H 227.224 5.41961 4.09213 0
M  V30 2388 H 225.17 3.63917 5.45802 0
M  V30 2389 H 225.087 5.36529 5.32609 0
M  V30 2390 H 226.355 4.63676 6.26597 0
M  V30 2391 N 230.584 -0.659388 1.43143 0
M  V30 2392 C 231.532 -1.79374 1.4808 0
M  V30 2393 C 232.526 -1.65639 0.354988 0
M  V30 2394 O 233.732 -1.7206 0.528704 0
M  V30 2395 H 230.107 -0.591705 0.4641 0
M  V30 2396 H 232.078 -1.72329 2.43609 0
M  V30 2397 C 230.827 -3.17606 1.41499 0
M  V30 2398 H 230.15 -3.28809 2.27431 0
M  V30 2399 H 231.59 -3.96951 1.49015 0
M  V30 2400 C 230.049 -3.36642 0.131765 0
M  V30 2401 O 230.579 -3.93461 -0.809386 0
M  V30 2402 N 228.785 -2.90567 0.0439396 0
M  V30 2403 H 228.332 -2.44513 0.810619 0
M  V30 2404 H 228.29 -3.03681 -0.813969 0
M  V30 2405 N 232.062 -1.29571 -0.897171 0
M  V30 2406 C 233.29 -1.20583 -1.68129 0
M  V30 2407 C 233.705 0.233181 -1.87354 0
M  V30 2408 O 233.062 1.15579 -1.41236 0
M  V30 2409 C 233.113 -1.91772 -3.06441 0
M  V30 2410 O 232.834 -3.30053 -2.88091 0
M  V30 2411 C 234.335 -1.89291 -4.00854 0
M  V30 2412 H 231.555 -0.417826 -0.525036 0
M  V30 2413 H 234.099 -1.70987 -1.12177 0
M  V30 2414 H 232.254 -1.45196 -3.59161 0
M  V30 2415 H 232.668 -3.65942 -3.75748 0
M  V30 2416 H 234.142 -2.43662 -4.95311 0
M  V30 2417 H 234.619 -0.869014 -4.30517 0
M  V30 2418 H 235.225 -2.35622 -3.54066 0
M  V30 2419 N 233.54 1.10788 -1.12088 0
M  V30 2420 C 234.956 1.34691 -0.856186 0
M  V30 2421 C 235.156 1.94791 0.515615 0
M  V30 2422 O 234.212 2.18524 1.26505 0
M  V30 2423 C 235.525 2.27208 -1.9697 0
M  V30 2424 C 237.073 2.40755 -2.00016 0
M  V30 2425 C 237.548 3.36598 -3.1059 0
M  V30 2426 N 239.039 3.44164 -3.10008 0
M  V30 2427 C 239.774 4.18284 -3.92206 0
M  V30 2428 N 239.27 4.95322 -4.84384 0
M  V30 2429 N 241.063 4.13865 -3.80357 0
M  V30 2430 H 233.214 0.70144 -2.00483 0
M  V30 2431 H 235.477 0.371405 -0.872217 0
M  V30 2432 H 235.183 1.90251 -2.958 0
M  V30 2433 H 235.057 3.27485 -1.87172 0
M  V30 2434 H 237.444 2.76982 -1.01808 0
M  V30 2435 H 237.525 1.40305 -2.13888 0
M  V30 2436 H 237.169 3.01096 -4.09028 0
M  V30 2437 H 237.099 4.36918 -2.93956 0
M  V30 2438 H 239.59 2.8922 -2.43228 0
M  V30 2439 H 239.903 5.49267 -5.43623 0
M  V30 2440 H 238.248 4.94459 -4.884 0
M  V30 2441 H 241.439 3.52773 -3.07683 0
M  V30 2442 H 241.612 4.71372 -4.44649 0
M  V30 2443 N 235.018 0.912232 1.28515 0
M  V30 2444 C 236.248 0.559604 1.98877 0
M  V30 2445 C 236.656 -0.863113 1.68366 0
M  V30 2446 O 235.999 -1.58304 0.931969 0
M  V30 2447 C 236.061 0.68703 3.52874 0
M  V30 2448 C 235.725 2.07901 4.06972 0
M  V30 2449 C 236.722 3.05157 4.20922 0
M  V30 2450 C 234.407 2.39178 4.417 0
M  V30 2451 C 236.401 4.31806 4.68852 0
M  V30 2452 C 234.088 3.66068 4.89324 0
M  V30 2453 C 235.086 4.62195 5.02856 0
M  V30 2454 O 234.774 5.86829 5.49442 0
M  V30 2455 H 234.506 0.212191 0.641834 0
M  V30 2456 H 237.06 1.22712 1.64715 0
M  V30 2457 H 235.29 -0.0375486 3.86682 0
M  V30 2458 H 236.979 0.341727 4.04459 0
M  V30 2459 H 237.745 2.82311 3.94367 0
M  V30 2460 H 233.624 1.65109 4.30418 0
M  V30 2461 H 237.168 5.06842 4.79329 0
M  V30 2462 H 233.065 3.88739 5.15318 0
M  V30 2463 H 233.833 5.89597 5.6773 0
M  V30 2464 N 236.496 -1.42363 0.676048 0
M  V30 2465 C 237.742 -2.0182 0.199125 0
M  V30 2466 C 238.075 -1.53339 -1.19168 0
M  V30 2467 O 237.35 -0.736124 -1.80032 0
M  V30 2468 C 237.633 -3.59331 0.235144 0
M  V30 2469 C 237.486 -4.17989 1.66149 0
M  V30 2470 C 238.805 -4.3813 -0.41595 0
M  V30 2471 H 235.924 -0.733293 0.0738311 0
M  V30 2472 H 238.566 -1.69368 0.86107 0
M  V30 2473 H 236.716 -3.87109 -0.328487 0
M  V30 2474 H 238.388 -4.0116 2.27747 0
M  V30 2475 H 236.631 -3.7377 2.20178 0
M  V30 2476 H 237.302 -5.27126 1.63837 0
M  V30 2477 H 239.778 -4.16051 0.0638529 0
M  V30 2478 H 238.654 -5.47717 -0.360115 0
M  V30 2479 H 238.915 -4.16101 -1.49373 0
M  V30 2480 N 237.974 -0.419461 -1.51915 0
M  V30 2481 C 238.884 0.407528 -2.31033 0
M  V30 2482 C 239.9 1.04413 -1.3919 0
M  V30 2483 O 241.076 1.0434 -1.72265 0
M  V30 2484 C 238.141 1.50365 -3.12396 0
M  V30 2485 C 237.202 0.889029 -4.19994 0
M  V30 2486 C 236.435 1.93291 -4.97468 0
M  V30 2487 O 236.658 3.15259 -4.75361 0
M  V30 2488 O 235.592 1.53339 -5.8204 0
M  V30 2489 H 239.418 -0.237865 -3.02767 0
M  V30 2490 H 237.003 -0.182413 -1.48282 0
M  V30 2491 H 238.885 2.13975 -3.63032 0
M  V30 2492 H 237.56 2.13345 -2.43445 0
M  V30 2493 H 236.467 0.215353 -3.7348 0
M  V30 2494 H 237.8 0.302991 -4.91267 0
M  V30 2495 N 239.452 1.56882 -0.150215 0
M  V30 2496 C 240.863 1.82995 0.370076 0
M  V30 2497 C 241.214 1.06907 1.64515 0
M  V30 2498 O 240.339 0.315369 2.1409 0
M  V30 2499 C 240.934 3.31942 0.678208 0
M  V30 2500 C 239.493 3.58625 1.14301 0
M  V30 2501 C 238.64 2.76792 0.167778 0
M  V30 2502 H 241.591 1.54209 -0.374858 0
M  V30 2503 H 241.612 3.48272 1.53254 0
M  V30 2504 H 241.124 3.87294 -0.249991 0
M  V30 2505 H 239.225 3.08664 2.08704 0
M  V30 2506 H 239.338 4.67073 1.06676 0
M  V30 2507 H 237.702 2.45972 0.661037 0
M  V30 2508 H 238.485 3.34916 -0.754069 0
M  V30 2509 N 240.93 -0.123565 1.57115 0
M  V30 2510 C 242.158 -0.846461 1.88793 0
M  V30 2511 C 242.573 -1.73652 0.740976 0
M  V30 2512 O 241.93 -1.80207 -0.288393 0
M  V30 2513 C 241.981 -1.6837 3.19897 0
M  V30 2514 O 241.702 -0.829477 4.30176 0
M  V30 2515 C 243.203 -2.51214 3.65248 0
M  V30 2516 H 240.423 -0.243573 0.625231 0
M  V30 2517 H 242.967 -0.109324 2.04208 0
M  V30 2518 H 241.122 -2.37364 3.06165 0
M  V30 2519 H 241.536 -1.40651 5.0529 0
M  V30 2520 H 243.01 -3.05497 4.59756 0
M  V30 2521 H 243.487 -3.28359 2.9168 0
M  V30 2522 H 244.093 -1.8747 3.81752 0
M  V30 2523 N 242.408 -1.52605 -0.393616 0
M  V30 2524 C 243.656 -1.67093 -1.13685 0
M  V30 2525 C 243.977 -0.411011 -1.90619 0
M  V30 2526 O 243.247 0.574491 -1.87287 0
M  V30 2527 H 241.827 -0.615923 -0.422668 0
M  V30 2528 H 244.489 -1.89704 -0.447039 0
M  V30 2529 H 243.585 -2.51922 -1.84232 0
M  V30 2530 N 243.887 0.651787 -1.4349 0
M  V30 2531 C 244.817 1.77621 -1.51569 0
M  V30 2532 C 245.798 1.66022 -0.370253 0
M  V30 2533 O 246.983 1.85095 -0.587658 0
M  V30 2534 C 244.113 3.16056 -1.43966 0
M  V30 2535 C 243.067 3.4242 -2.56774 0
M  V30 2536 C 242.393 4.8067 -2.34223 0
M  V30 2537 C 243.693 3.37023 -3.99015 0
M  V30 2538 H 245.387 1.71117 -2.45681 0
M  V30 2539 H 242.933 0.821825 -1.18246 0
M  V30 2540 H 244.886 3.94472 -1.48221 0
M  V30 2541 H 243.61 3.23293 -0.463586 0
M  V30 2542 H 242.269 2.66375 -2.51873 0
M  V30 2543 H 241.917 4.84585 -1.34856 0
M  V30 2544 H 241.617 4.9927 -3.09844 0
M  V30 2545 H 243.141 5.61342 -2.40265 0
M  V30 2546 H 244.555 4.05374 -4.05395 0
M  V30 2547 H 242.952 3.67159 -4.74673 0
M  V30 2548 H 244.022 2.3518 -4.2405 0
M  V30 2549 N 245.365 1.30045 0.890287 0
M  V30 2550 C 246.59 1.21598 1.68014 0
M  V30 2551 C 247.015 -0.218678 1.86825 0
M  V30 2552 O 246.373 -1.15756 1.39536 0
M  V30 2553 C 246.421 1.94434 3.03691 0
M  V30 2554 O 245.525 1.2678 3.92429 0
M  V30 2555 H 244.866 0.420856 0.513592 0
M  V30 2556 H 247.396 1.71775 1.11151 0
M  V30 2557 H 247.406 2.03251 3.5377 0
M  V30 2558 H 246.081 2.98777 2.89318 0
M  V30 2559 H 244.658 1.26282 3.50866 0
M  V30 2560 N 246.843 -1.10192 1.12674 0
M  V30 2561 C 247.773 -2.18652 0.819362 0
M  V30 2562 C 248.754 -1.68698 -0.217915 0
M  V30 2563 O 249.939 -1.94041 -0.0785581 0
M  V30 2564 C 247.069 -3.46202 0.27594 0
M  V30 2565 C 246.023 -4.09444 1.24656 0
M  V30 2566 C 245.349 -5.31725 0.563258 0
M  V30 2567 C 246.649 -4.52863 2.60217 0
M  V30 2568 H 248.343 -2.44622 1.72628 0
M  V30 2569 H 245.889 -1.17571 0.831451 0
M  V30 2570 H 247.842 -4.21372 0.0486149 0
M  V30 2571 H 246.566 -3.1973 -0.666331 0
M  V30 2572 H 245.225 -3.36284 1.45974 0
M  V30 2573 H 244.873 -5.0153 -0.384235 0
M  V30 2574 H 244.573 -5.74991 1.21075 0
M  V30 2575 H 246.097 -6.09624 0.34503 0
M  V30 2576 H 247.511 -5.19294 2.42913 0
M  V30 2577 H 245.908 -5.06986 3.21068 0
M  V30 2578 H 246.978 -3.65656 3.18471 0
M  V30 2579 N 248.321 -0.919034 -1.28029 0
M  V30 2580 C 249.271 -0.382574 -2.24767 0
M  V30 2581 C 250.255 0.508286 -1.52661 0
M  V30 2582 O 251.447 0.347145 -1.73562 0
M  V30 2583 C 248.576 0.371432 -3.41285 0
M  V30 2584 C 247.662 -0.535449 -4.20706 0
M  V30 2585 N 248.053 -1.65141 -4.78082 0
M  V30 2586 C 246.351 -0.336824 -4.44726 0
M  V30 2587 C 247.052 -2.21475 -5.37888 0
M  V30 2588 N 246.028 -1.50537 -5.22341 0
M  V30 2589 H 249.83 -1.23477 -2.66703 0
M  V30 2590 H 247.344 -0.772299 -1.42861 0
M  V30 2591 H 249.341 0.772638 -4.09678 0
M  V30 2592 H 248.001 1.22066 -3.00882 0
M  V30 2593 H 249.012 -2.03392 -4.7629 0
M  V30 2594 H 245.689 0.47246 -4.14818 0
M  V30 2595 H 247.079 -3.15379 -5.93284 0
M  V30 2596 N 249.799 1.42003 -0.683588 0
M  V30 2597 C 250.747 2.326 0.000815408 0
M  V30 2598 C 251.741 1.50308 0.781278 0
M  V30 2599 O 252.947 1.66322 0.688251 0
M  V30 2600 H 249.322 0.751758 0.0190616 0
M  V30 2601 H 251.293 2.88011 -0.780528 0
M  V30 2602 C 250.042 3.34978 0.93195 0
M  V30 2603 H 249.365 3.98345 0.340817 0
M  V30 2604 H 250.805 4.00936 1.37936 0
M  V30 2605 C 249.264 2.67925 2.04249 0
M  V30 2606 O 249.794 2.51788 3.12995 0
M  V30 2607 N 248 2.2681 1.81675 0
M  V30 2608 H 247.547 2.40135 0.932363 0
M  V30 2609 H 247.505 1.8228 2.56167 0
M  V30 2610 N 251.277 0.427512 1.51691 0
M  V30 2611 C 252.523 -0.142439 2.02299 0
M  V30 2612 C 252.856 -1.43214 1.31162 0
M  V30 2613 O 252.131 -1.89833 0.423511 0
M  V30 2614 C 252.414 -0.371301 3.58181 0
M  V30 2615 C 252.267 0.936358 4.39946 0
M  V30 2616 C 253.586 -1.14542 4.24933 0
M  V30 2617 H 250.705 -0.0502937 0.735282 0
M  V30 2618 H 253.347 0.564584 1.81418 0
M  V30 2619 H 251.497 -0.973559 3.76104 0
M  V30 2620 H 253.169 1.57184 4.33694 0
M  V30 2621 H 251.412 1.5432 4.05423 0
M  V30 2622 H 252.083 0.730388 5.47147 0
M  V30 2623 H 254.559 -0.635362 4.11221 0
M  V30 2624 H 253.435 -1.27431 5.33903 0
M  V30 2625 H 253.696 -2.17093 3.85127 0
M  V30 2626 N 252.755 -1.56801 0.158532 0
M  V30 2627 C 253.98 -2.01295 -0.499516 0
M  V30 2628 C 254.405 -1.03799 -1.56867 0
M  V30 2629 O 253.763 -0.0155162 -1.81293 0
M  V30 2630 C 253.811 -3.44469 -1.06647 0
M  V30 2631 O 252.915 -3.50012 -2.18095 0
M  V30 2632 H 252.256 -0.652884 -0.12099 0
M  V30 2633 H 254.786 -2.02958 0.258661 0
M  V30 2634 H 254.796 -3.8351 -1.39227 0
M  V30 2635 H 253.471 -4.14932 -0.283581 0
M  V30 2636 H 252.048 -3.22822 -1.86656 0
M  V30 2637 N 254.233 0.115231 -1.57178 0
M  V30 2638 C 255.461 0.836437 -1.89239 0
M  V30 2639 C 255.876 1.73256 -0.750175 0
M  V30 2640 O 255.233 1.80357 0.278832 0
M  V30 2641 C 255.284 1.66671 -3.20785 0
M  V30 2642 O 255.005 0.806652 -4.3061 0
M  V30 2643 C 256.506 2.49274 -3.66575 0
M  V30 2644 H 253.726 0.240253 -0.626514 0
M  V30 2645 H 256.27 0.0984932 -2.04263 0
M  V30 2646 H 254.425 2.35737 -3.0742 0
M  V30 2647 H 254.839 1.37969 -5.06028 0
M  V30 2648 H 256.313 3.03055 -4.6137 0
M  V30 2649 H 256.79 3.26807 -2.93417 0
M  V30 2650 H 257.396 1.85443 -3.82741 0
M  V30 2651 N 255.711 1.52812 0.385517 0
M  V30 2652 C 256.674 1.77188 1.45386 0
M  V30 2653 C 257.674 0.641953 1.4743 0
M  V30 2654 O 258.864 0.910033 1.4854 0
M  V30 2655 C 255.996 1.87582 2.8465 0
M  V30 2656 H 257.189 2.72583 1.25054 0
M  V30 2657 H 254.742 1.43586 0.617467 0
M  V30 2658 H 255.477 0.941849 3.10322 0
M  V30 2659 H 255.262 2.69748 2.84567 0
M  V30 2660 H 256.752 2.08102 3.62054 0
M  V30 2661 N 257.189 -0.644168 1.43834 0
M  V30 2662 C 258.605 -0.960875 1.27434 0
M  V30 2663 C 258.805 -2.00499 0.200618 0
M  V30 2664 O 257.861 -2.49018 -0.417906 0
M  V30 2665 C 259.174 -1.43653 2.64167 0
M  V30 2666 C 260.722 -1.55271 2.71772 0
M  V30 2667 C 261.197 -2.06224 4.08944 0
M  V30 2668 N 262.688 -2.13513 4.11055 0
M  V30 2669 C 263.423 -2.54081 5.14033 0
M  V30 2670 N 262.919 -2.9388 6.27381 0
M  V30 2671 N 264.712 -2.54101 5.01387 0
M  V30 2672 H 256.863 0.0465779 2.12349 0
M  V30 2673 H 259.126 -0.0417638 0.94708 0
M  V30 2674 H 258.832 -0.743706 3.43747 0
M  V30 2675 H 258.706 -2.40993 2.90176 0
M  V30 2676 H 261.093 -2.23653 1.92519 0
M  V30 2677 H 261.174 -0.563395 2.49519 0
M  V30 2678 H 260.818 -1.38441 4.88668 0
M  V30 2679 H 260.748 -3.06003 4.28567 0
M  V30 2680 H 263.239 -1.85493 3.29242 0
M  V30 2681 H 263.552 -3.2361 7.01781 0
M  V30 2682 H 261.897 -2.91663 6.30839 0
M  V30 2683 H 265.088 -2.22391 4.11898 0
M  V30 2684 H 265.261 -2.85394 5.81768 0
M  V30 2685 N 258.668 -1.30515 -0.883378 0
M  V30 2686 C 259.945 -1.10086 -1.6168 0
M  V30 2687 C 260.325 0.349269 -2.08191 0
M  V30 2688 O 259.673 1.34105 -1.85008 0
M  V30 2689 C 259.883 -2.10315 -2.78511 0
M  V30 2690 C 261.231 -2.42119 -3.48803 0
M  V30 2691 O 262.255 -2.08638 -2.88702 0
M  V30 2692 O 261.114 -2.99396 -4.57192 0
M  V30 2693 H 258.208 -0.422907 -0.710689 0
M  V30 2694 H 260.754 -1.41947 -0.930015 0
M  V30 2695 H 259.526 -3.07917 -2.41459 0
M  V30 2696 H 259.149 -1.79282 -3.54886 0
M  V30 2697 N 260.146 1.09593 -1.13257 0
M  V30 2698 C 261.076 2.18214 -0.830946 0
M  V30 2699 C 262.057 1.68812 0.208966 0
M  V30 2700 O 263.242 1.9408 0.0682666 0
M  V30 2701 C 260.372 3.46051 -0.294296 0
M  V30 2702 C 259.326 4.08778 -1.26826 0
M  V30 2703 C 258.652 5.31419 -0.591449 0
M  V30 2704 C 259.952 4.51476 -2.62615 0
M  V30 2705 H 261.646 2.43703 -1.73923 0
M  V30 2706 H 259.192 1.17128 -0.837675 0
M  V30 2707 H 261.145 4.2134 -0.0709606 0
M  V30 2708 H 259.869 3.20079 0.649366 0
M  V30 2709 H 258.528 3.35505 -1.47756 0
M  V30 2710 H 258.176 5.01727 0.357633 0
M  V30 2711 H 257.876 5.74341 -1.24123 0
M  V30 2712 H 259.4 6.09433 -0.377355 0
M  V30 2713 H 260.814 5.17999 -2.45663 0
M  V30 2714 H 259.211 5.05277 -3.23752 0
M  V30 2715 H 260.281 3.63962 -3.20406 0
M  V30 2716 N 261.624 0.925811 1.2754 0
M  V30 2717 C 262.852 0.581509 1.9856 0
M  V30 2718 C 263.267 -0.840041 1.69082 0
M  V30 2719 O 262.624 -1.55805 0.950312 0
M  V30 2720 C 262.675 0.795589 3.52637 0
M  V30 2721 O 262.396 2.16121 3.81082 0
M  V30 2722 C 263.897 0.459744 4.4091 0
M  V30 2723 H 261.117 0.220538 0.633722 0
M  V30 2724 H 263.661 1.24232 1.6244 0
M  V30 2725 H 261.816 0.18161 3.86974 0
M  V30 2726 H 262.23 2.2098 4.75676 0
M  V30 2727 H 263.704 0.660244 5.48037 0
M  V30 2728 H 264.181 -0.604625 4.35018 0
M  V30 2729 H 264.787 1.05178 4.12089 0
M  V30 2730 N 263.102 -1.41638 0.69111 0
M  V30 2731 C 264.518 -1.55435 0.362224 0
M  V30 2732 C 264.718 -1.66754 -1.13117 0
M  V30 2733 O 263.774 -1.64348 -1.91692 0
M  V30 2734 C 265.087 -2.79588 1.10684 0
M  V30 2735 C 266.635 -2.9338 1.09075 0
M  V30 2736 C 267.11 -4.20414 1.81703 0
M  V30 2737 N 268.601 -4.27362 1.7865 0
M  V30 2738 C 269.336 -5.24507 2.31689 0
M  V30 2739 N 268.832 -6.27708 2.93179 0
M  V30 2740 N 270.625 -5.16416 2.2197 0
M  V30 2741 H 262.776 -1.32536 1.65976 0
M  V30 2742 H 265.039 -0.639115 0.700168 0
M  V30 2743 H 264.745 -2.77419 2.16175 0
M  V30 2744 H 264.619 -3.70973 0.682545 0
M  V30 2745 H 267.006 -2.95067 0.0441238 0
M  V30 2746 H 267.087 -2.0318 1.55407 0
M  V30 2747 H 266.731 -4.19488 2.86343 0
M  V30 2748 H 266.661 -5.09578 1.32808 0
M  V30 2749 H 269.152 -3.53415 1.33815 0
M  V30 2750 H 269.465 -6.98217 3.31229 0
M  V30 2751 H 267.81 -6.28223 2.97255 0
M  V30 2752 H 271.001 -4.34716 1.73607 0
M  V30 2753 H 271.174 -5.91958 2.63609 0
M  V30 2754 N 264.58 -0.43555 -1.51462 0
M  V30 2755 C 265.51 0.367376 -2.30592 0
M  V30 2756 C 266.491 1.02263 -1.35928 0
M  V30 2757 O 267.676 1.02661 -1.64847 0
M  V30 2758 C 264.806 1.46983 -3.14664 0
M  V30 2759 C 263.76 0.938161 -4.17591 0
M  V30 2760 C 263.086 2.13622 -4.90173 0
M  V30 2761 C 264.386 -0.0261621 -5.22293 0
M  V30 2762 H 266.08 -0.292969 -2.97963 0
M  V30 2763 H 263.626 -0.14234 -1.43295 0
M  V30 2764 H 265.579 2.03873 -3.688 0
M  V30 2765 H 264.303 2.15843 -2.4511 0
M  V30 2766 H 262.962 0.391481 -3.64504 0
M  V30 2767 H 262.61 2.81098 -4.17124 0
M  V30 2768 H 262.31 1.78688 -5.59772 0
M  V30 2769 H 263.834 2.7107 -5.47132 0
M  V30 2770 H 265.248 0.452384 -5.71512 0
M  V30 2771 H 263.645 -0.287992 -5.99409 0
M  V30 2772 H 264.715 -0.963391 -4.75233 0
M  V30 2773 N 266.058 1.56714 -0.166846 0
M  V30 2774 C 266.988 2.20754 0.760913 0
M  V30 2775 C 267.969 1.16178 1.24244 0
M  V30 2776 O 269.154 1.44592 1.29641 0
M  V30 2777 C 266.284 2.84478 1.99223 0
M  V30 2778 C 265.238 3.95053 1.64672 0
M  V30 2779 C 264.564 4.45805 2.95232 0
M  V30 2780 C 265.864 5.14865 0.878155 0
M  V30 2781 H 267.558 2.98537 0.22713 0
M  V30 2782 H 265.104 1.43596 0.107805 0
M  V30 2783 H 267.057 3.27951 2.64624 0
M  V30 2784 H 265.781 2.04056 2.55007 0
M  V30 2785 H 264.44 3.52228 1.01641 0
M  V30 2786 H 264.088 3.62181 3.49047 0
M  V30 2787 H 263.788 5.204 2.7287 0
M  V30 2788 H 265.312 4.91962 3.6167 0
M  V30 2789 H 266.726 5.55059 1.43466 0
M  V30 2790 H 265.123 5.95348 0.753738 0
M  V30 2791 H 266.193 4.84735 -0.126377 0
M  V30 2792 N 267.536 -0.106894 1.57237 0
M  V30 2793 C 268.782 -0.81373 1.85759 0
M  V30 2794 C 269.115 -1.78952 0.754315 0
M  V30 2795 O 268.39 -1.93029 -0.23879 0
M  V30 2796 C 268.673 -1.55293 3.24894 0
M  V30 2797 C 268.526 -0.595929 4.45835 0
M  V30 2798 C 269.845 -2.5063 3.61763 0
M  V30 2799 H 266.964 -0.294369 0.67566 0
M  V30 2800 H 269.606 -0.0776472 1.89841 0
M  V30 2801 H 267.756 -2.1804 3.21544 0
M  V30 2802 H 269.428 0.0236262 4.61294 0
M  V30 2803 H 267.671 0.0916191 4.33703 0
M  V30 2804 H 268.342 -1.15004 5.39887 0
M  V30 2805 H 270.818 -1.97982 3.65981 0
M  V30 2806 H 269.694 -2.99376 4.60071 0
M  V30 2807 H 269.955 -3.3385 2.89821 0
M  V30 2808 N 269.014 -1.53014 -0.377408 0
M  V30 2809 C 269.977 -1.77957 -1.44444 0
M  V30 2810 C 270.977 -0.649763 -1.47087 0
M  V30 2811 O 272.167 -0.917897 -1.48055 0
M  V30 2812 C 269.299 -1.89089 -2.83651 0
M  V30 2813 H 270.492 -2.73243 -1.23606 0
M  V30 2814 H 268.045 -1.43912 -0.609844 0
M  V30 2815 H 268.78 -0.958293 -3.09818 0
M  V30 2816 H 268.565 -2.71254 -2.83132 0
M  V30 2817 H 270.055 -2.1002 -3.60945 0
M  V30 2818 N 270.492 0.636531 -1.44174 0
M  V30 2819 C 271.717 1.42847 -1.50364 0
M  V30 2820 C 272.142 1.87665 -0.127867 0
M  V30 2821 O 271.5 1.58408 0.88185 0
M  V30 2822 C 271.548 2.62854 -2.4686 0
M  V30 2823 O 270.652 3.62501 -1.9664 0
M  V30 2824 H 269.993 0.427642 -0.507955 0
M  V30 2825 H 272.523 0.777422 -1.89255 0
M  V30 2826 H 272.533 3.10465 -2.64718 0
M  V30 2827 H 271.208 2.29578 -3.46795 0
M  V30 2828 H 269.785 3.21735 -1.88523 0
M  V30 2829 N 271.97 1.30982 0.876444 0
M  V30 2830 C 273.386 1.09498 1.16113 0
M  V30 2831 C 273.586 -0.13875 2.01022 0
M  V30 2832 O 272.642 -0.829935 2.38471 0
M  V30 2833 C 273.955 2.36308 1.85954 0
M  V30 2834 C 275.503 2.41856 1.98683 0
M  V30 2835 C 275.978 3.6853 2.71937 0
M  V30 2836 N 277.469 3.69387 2.79477 0
M  V30 2837 C 278.204 4.64096 3.36753 0
M  V30 2838 N 277.7 5.69155 3.95012 0
M  V30 2839 N 279.493 4.51626 3.3465 0
M  V30 2840 H 271.644 2.10118 0.310494 0
M  V30 2841 H 273.907 0.926634 0.200131 0
M  V30 2842 H 273.613 3.26388 1.31011 0
M  V30 2843 H 273.487 2.4561 2.86278 0
M  V30 2844 H 275.874 1.52249 2.52793 0
M  V30 2845 H 275.955 2.36523 0.9742 0
M  V30 2846 H 275.599 4.58499 2.18496 0
M  V30 2847 H 275.529 3.71127 3.73593 0
M  V30 2848 H 278.02 2.93438 2.38123 0
M  V30 2849 H 278.333 6.3751 4.36808 0
M  V30 2850 H 276.678 5.72937 3.93406 0
M  V30 2851 H 279.869 3.68728 2.8837 0
M  V30 2852 H 280.042 5.25614 3.7899 0
M  V30 2853 N 273.449 -1.08991 1.13837 0
M  V30 2854 C 274.381 -2.15606 0.777612 0
M  V30 2855 C 275.394 -1.61533 -0.202739 0
M  V30 2856 O 276.583 -1.78491 0.0181055 0
M  V30 2857 C 273.683 -3.3864 0.132623 0
M  V30 2858 C 272.856 -4.22115 1.1462 0
M  V30 2859 C 271.915 -5.23564 0.526074 0
M  V30 2860 O 270.941 -5.56678 1.18735 0
M  V30 2861 N 272.143 -5.76266 -0.699866 0
M  V30 2862 H 274.908 -2.47159 1.69506 0
M  V30 2863 H 272.469 -1.24747 1.03198 0
M  V30 2864 H 274.461 -4.03626 -0.29459 0
M  V30 2865 H 273.031 -3.04938 -0.687849 0
M  V30 2866 H 272.251 -3.53199 1.75055 0
M  V30 2867 H 273.539 -4.74709 1.83109 0
M  V30 2868 H 272.937 -5.51585 -1.25581 0
M  V30 2869 H 271.494 -6.42963 -1.06968 0
M  V30 2870 N 274.927 -0.932562 -1.27047 0
M  V30 2871 C 276.157 -0.591173 -1.97961 0
M  V30 2872 C 276.565 0.836219 -1.69717 0
M  V30 2873 O 275.908 1.56801 -0.957036 0
M  V30 2874 C 275.97 -0.743082 -3.51736 0
M  V30 2875 C 275.634 -2.1435 -4.03613 0
M  V30 2876 C 276.631 -3.11815 -4.16014 0
M  V30 2877 C 274.316 -2.46175 -4.37839 0
M  V30 2878 C 276.31 -4.39211 -4.61923 0
M  V30 2879 C 273.997 -3.73806 -4.83438 0
M  V30 2880 C 274.995 -4.70137 -4.95439 0
M  V30 2881 O 274.683 -5.95496 -5.40037 0
M  V30 2882 H 274.415 -0.222375 -0.638377 0
M  V30 2883 H 276.969 -1.25317 -1.62742 0
M  V30 2884 H 275.199 -0.0239739 -3.86693 0
M  V30 2885 H 276.888 -0.40603 -4.03864 0
M  V30 2886 H 277.654 -2.88549 -3.89826 0
M  V30 2887 H 273.533 -1.71936 -4.27737 0
M  V30 2888 H 277.077 -5.14404 -4.71205 0
M  V30 2889 H 272.974 -3.96888 -5.09068 0
M  V30 2890 H 273.742 -5.98554 -5.58279 0
M  V30 2891 N 276.405 1.4127 -0.698611 0
M  V30 2892 C 277.816 1.84187 -0.305289 0
M  V30 2893 C 278.167 1.58449 1.15708 0
M  V30 2894 O 277.292 1.05651 1.88856 0
M  V30 2895 C 277.887 3.3435 -0.547314 0
M  V30 2896 C 276.446 3.75826 -0.207878 0
M  V30 2897 C 275.593 2.64647 -0.828099 0
M  V30 2898 H 278.544 1.30778 -0.89904 0
M  V30 2899 H 278.565 3.8001 0.192998 0
M  V30 2900 H 278.077 3.53051 -1.61172 0
M  V30 2901 H 276.178 3.62725 0.852143 0
M  V30 2902 H 276.291 4.74462 -0.665021 0
M  V30 2903 H 274.655 2.53395 -0.257458 0
M  V30 2904 H 275.438 2.86165 -1.89643 0
M  V30 2905 N 277.883 0.443576 1.51229 0
M  V30 2906 C 278.813 -0.355142 2.30783 0
M  V30 2907 C 279.794 -1.0154 1.36468 0
M  V30 2908 O 280.979 -1.01785 1.65389 0
M  V30 2909 C 278.109 -1.45312 3.15439 0
M  V30 2910 C 277.063 -0.916002 4.18083 0
M  V30 2911 C 276.389 -2.1102 4.91299 0
M  V30 2912 C 277.689 0.0538602 5.22272 0
M  V30 2913 H 279.383 0.308767 2.97804 0
M  V30 2914 H 276.929 0.149937 1.43217 0
M  V30 2915 H 278.882 -2.01914 3.69876 0
M  V30 2916 H 277.606 -2.14541 2.46252 0
M  V30 2917 H 276.265 -0.372145 3.64706 0
M  V30 2918 H 275.913 -2.78882 4.18609 0
M  V30 2919 H 275.613 -1.75717 5.60712 0
M  V30 2920 H 277.137 -2.68164 5.48562 0
M  V30 2921 H 278.551 -0.422069 5.71744 0
M  V30 2922 H 276.948 0.319776 5.99247 0
M  V30 2923 H 278.018 0.98858 4.74716 0
M  V30 2924 N 279.361 -1.56624 0.175154 0
M  V30 2925 C 280.291 -2.21155 -0.749195 0
M  V30 2926 C 281.272 -1.16836 -1.23626 0
M  V30 2927 O 282.457 -1.45277 -1.28873 0
M  V30 2928 C 279.587 -2.8553 -1.97711 0
M  V30 2929 C 278.541 -3.95921 -1.62575 0
M  V30 2930 C 277.867 -4.47365 -2.92864 0
M  V30 2931 C 279.167 -5.15323 -0.850838 0
M  V30 2932 H 280.861 -2.98653 -0.211295 0
M  V30 2933 H 278.407 -1.43651 -0.100188 0
M  V30 2934 H 280.36 -3.2935 -2.62881 0
M  V30 2935 H 279.084 -2.05406 -2.53921 0
M  V30 2936 H 277.743 -3.52762 -0.997719 0
M  V30 2937 H 277.391 -3.64027 -3.47122 0
M  V30 2938 H 277.091 -5.21839 -2.70106 0
M  V30 2939 H 278.615 -4.93873 -3.59056 0
M  V30 2940 H 280.029 -5.55812 -1.40521 0
M  V30 2941 H 278.426 -5.95739 -0.722154 0
M  V30 2942 H 279.496 -4.84661 0.152082 0
M  V30 2943 N 280.839 0.0985539 -1.57292 0
M  V30 2944 C 282.064 0.820196 -1.90493 0
M  V30 2945 C 282.489 1.71658 -0.769094 0
M  V30 2946 O 281.847 1.79133 0.279495 0
M  V30 2947 C 281.895 1.61242 -3.22542 0
M  V30 2948 O 280.999 2.72108 -3.09888 0
M  V30 2949 H 280.34 0.225547 -0.62452 0
M  V30 2950 H 282.87 0.0748159 -2.04463 0
M  V30 2951 H 282.88 1.99737 -3.55766 0
M  V30 2952 H 281.555 0.954535 -4.04798 0
M  V30 2953 H 280.132 2.36667 -2.88172 0
M  V30 2954 N 282.317 1.53212 0.369288 0
M  V30 2955 C 283.249 1.75668 1.47219 0
M  V30 2956 C 284.262 0.637387 1.49804 0
M  V30 2957 O 285.451 0.913561 1.5335 0
M  V30 2958 C 282.551 1.81818 2.85999 0
M  V30 2959 C 281.724 3.11409 3.07153 0
M  V30 2960 C 280.783 3.08849 4.26026 0
M  V30 2961 O 279.809 3.82659 4.2138 0
M  V30 2962 N 281.011 2.29409 5.33246 0
M  V30 2963 H 283.776 2.70832 1.28337 0
M  V30 2964 H 281.337 1.51944 0.55898 0
M  V30 2965 H 283.329 1.77588 3.63655 0
M  V30 2966 H 281.899 0.939544 2.98146 0
M  V30 2967 H 281.119 3.28971 2.1719 0
M  V30 2968 H 282.407 3.97059 3.18154 0
M  V30 2969 H 281.805 1.68946 5.39883 0
M  V30 2970 H 280.362 2.31001 6.09493 0
M  V30 2971 N 283.795 -0.628877 1.44509 0
M  V30 2972 C 285.041 -1.38863 1.48623 0
M  V30 2973 C 285.396 -1.92038 0.117933 0
M  V30 2974 O 284.689 -1.70853 -0.86716 0
M  V30 2975 C 284.883 -2.56995 2.48371 0
M  V30 2976 C 284.712 -2.15385 3.94765 0
M  V30 2977 C 283.482 -2.02558 4.62924 0
M  V30 2978 C 285.68 -1.74158 4.83915 0
M  V30 2979 N 283.662 -1.54534 5.94132 0
M  V30 2980 C 285.033 -1.37396 6.04584 0
M  V30 2981 C 287.088 -1.61559 4.7096 0
M  V30 2982 C 285.791 -0.892948 7.13736 0
M  V30 2983 C 287.817 -1.14862 5.80139 0
M  V30 2984 C 287.179 -0.790516 6.9995 0
M  V30 2985 H 283.278 -0.502858 0.59888 0
M  V30 2986 H 285.862 -0.72121 1.8085 0
M  V30 2987 H 284.033 -3.21362 2.1813 0
M  V30 2988 H 285.765 -3.23801 2.42766 0
M  V30 2989 H 282.52 -2.23082 4.1777 0
M  V30 2990 H 282.944 -1.32815 6.63844 0
M  V30 2991 H 287.586 -1.87876 3.78764 0
M  V30 2992 H 285.304 -0.617291 8.05739 0
M  V30 2993 H 288.89 -1.05569 5.72142 0
M  V30 2994 H 287.77 -0.434713 7.82994 0
M  V30 2995 N 285.273 -1.31445 -0.869486 0
M  V30 2996 C 286.498 -1.24256 -1.66058 0
M  V30 2997 C 286.923 0.188928 -1.87149 0
M  V30 2998 O 286.281 1.13522 -1.4136 0
M  V30 2999 C 286.329 -1.9924 -3.00559 0
M  V30 3000 O 285.433 -1.33007 -3.90362 0
M  V30 3001 H 284.774 -0.428973 -0.506831 0
M  V30 3002 H 287.304 -1.73521 -1.08404 0
M  V30 3003 H 287.314 -2.08854 -3.50491 0
M  V30 3004 H 285.989 -3.03342 -2.84528 0
M  V30 3005 H 284.566 -1.31848 -3.48813 0
M  V30 3006 N 286.751 1.08385 -1.14413 0
M  V30 3007 C 287.979 1.84517 -0.936001 0
M  V30 3008 C 288.394 1.81626 0.515503 0
M  V30 3009 O 287.751 1.22008 1.35721 0
M  V30 3010 C 287.802 3.32049 -1.42918 0
M  V30 3011 O 287.523 3.34951 -2.82381 0
M  V30 3012 C 289.024 4.24986 -1.26103 0
M  V30 3013 H 286.244 0.582491 -0.333084 0
M  V30 3014 H 288.788 1.36885 -1.5193 0
M  V30 3015 H 286.943 3.7707 -0.888641 0
M  V30 3016 H 287.357 4.27048 -3.04517 0
M  V30 3017 H 288.831 5.26615 -1.6547 0
M  V30 3018 H 289.308 4.38726 -0.20392 0
M  V30 3019 H 289.914 3.85791 -1.79012 0
M  V30 3020 N 288.23 0.939286 1.26551 0
M  V30 3021 C 289.458 0.602536 1.97932 0
M  V30 3022 C 289.873 -0.82206 1.69964 0
M  V30 3023 O 289.23 -1.54789 0.966784 0
M  V30 3024 C 289.281 0.832946 3.51773 0
M  V30 3025 O 289.002 2.20151 3.78768 0
M  V30 3026 C 290.503 0.506483 4.40397 0
M  V30 3027 H 287.723 0.227248 0.631347 0
M  V30 3028 H 290.267 1.25948 1.61113 0
M  V30 3029 H 288.422 0.222644 3.8676 0
M  V30 3030 H 288.836 2.26013 4.73306 0
M  V30 3031 H 290.31 0.718333 5.47306 0
M  V30 3032 H 290.787 -0.558451 4.35635 0
M  V30 3033 H 291.393 1.09543 4.10951 0
M  V30 3034 N 289.708 -1.40897 0.706093 0
M  V30 3035 C 291.119 -1.84023 0.315052 0
M  V30 3036 C 291.47 -1.5906 -1.14866 0
M  V30 3037 O 290.595 -1.06651 -1.88293 0
M  V30 3038 C 291.19 -3.34055 0.565038 0
M  V30 3039 C 289.749 -3.7571 0.227806 0
M  V30 3040 C 288.896 -2.64204 0.842122 0
M  V30 3041 H 291.847 -1.303 0.905963 0
M  V30 3042 H 291.868 -3.80107 -0.172843 0
M  V30 3043 H 291.38 -3.52192 1.63042 0
M  V30 3044 H 289.481 -3.63172 -0.832895 0
M  V30 3045 H 289.594 -4.74103 0.690174 0
M  V30 3046 H 287.958 -2.53255 0.270893 0
M  V30 3047 H 288.741 -2.85155 1.91158 0
M  V30 3048 N 291.186 -0.45159 -1.50991 0
M  V30 3049 C 292.096 0.358431 -2.31846 0
M  V30 3050 C 293.112 1.01438 -1.41373 0
M  V30 3051 O 294.288 1.00663 -1.74439 0
M  V30 3052 C 291.353 1.43704 -3.15515 0
M  V30 3053 C 290.414 0.799742 -4.21785 0
M  V30 3054 C 289.647 1.82696 -5.01456 0
M  V30 3055 O 289.87 3.05105 -4.81941 0
M  V30 3056 O 288.804 1.40958 -5.85162 0
M  V30 3057 H 292.63 -0.302032 -3.02194 0
M  V30 3058 H 290.215 -0.213825 -1.47862 0
M  V30 3059 H 292.097 2.06227 -3.67489 0
M  V30 3060 H 290.772 2.08133 -2.47916 0
M  V30 3061 H 289.679 0.136084 -3.73852 0
M  V30 3062 H 291.012 0.198718 -4.91799 0
M  V30 3063 N 292.664 1.56529 -0.183458 0
M  V30 3064 C 293.611 2.18546 0.742055 0
M  V30 3065 C 294.581 1.12912 1.2182 0
M  V30 3066 O 295.766 1.41115 1.28418 0
M  V30 3067 C 292.906 2.83977 1.96089 0
M  V30 3068 C 292.019 4.04105 1.52719 0
M  V30 3069 C 291.154 4.57427 2.70063 0
M  V30 3070 C 290.193 5.69938 2.23243 0
M  V30 3071 N 289.33 6.17717 3.33722 0
M  V30 3072 H 294.17 2.97284 0.206432 0
M  V30 3073 H 291.707 1.46823 0.0901571 0
M  V30 3074 H 293.665 3.20077 2.67594 0
M  V30 3075 H 292.295 2.07822 2.47002 0
M  V30 3076 H 291.347 3.73745 0.708436 0
M  V30 3077 H 292.659 4.85513 1.1436 0
M  V30 3078 H 291.813 4.95772 3.49708 0
M  V30 3079 H 290.552 3.75101 3.11689 0
M  V30 3080 H 289.557 5.31133 1.42048 0
M  V30 3081 H 290.782 6.54073 1.82661 0
M  V30 3082 H 288.728 5.38317 3.74902 0
M  V30 3083 H 288.645 6.94146 2.99495 0
M  V30 3084 H 289.913 6.60713 4.13616 0
M  V30 3085 N 294.142 -0.090211 1.57342 0
M  V30 3086 C 295.37 -0.806224 1.90546 0
M  V30 3087 C 295.785 -1.72041 0.777644 0
M  V30 3088 O 295.142 -1.80778 -0.250103 0
M  V30 3089 C 295.193 -1.61546 3.23396 0
M  V30 3090 O 294.914 -0.738043 4.31839 0
M  V30 3091 C 296.415 -2.4341 3.70495 0
M  V30 3092 H 293.635 -0.230256 0.630257 0
M  V30 3093 H 296.179 -0.0659843 2.04394 0
M  V30 3094 H 294.334 -2.30816 3.11131 0
M  V30 3095 H 294.748 -1.29901 5.08159 0
M  V30 3096 H 296.222 -2.95676 4.66133 0
M  V30 3097 H 296.699 -3.22098 2.98579 0
M  V30 3098 H 297.305 -1.79331 3.85643 0
M  V30 3099 N 295.62 -1.53406 -0.361157 0
M  V30 3100 C 296.866 -1.70054 -1.10496 0
M  V30 3101 C 297.199 -0.453278 -1.88836 0
M  V30 3102 O 296.474 0.5495 -1.86576 0
M  V30 3103 C 296.757 -2.95317 -2.06058 0
M  V30 3104 C 296.61 -4.3021 -1.31298 0
M  V30 3105 C 297.929 -3.16193 -3.06121 0
M  V30 3106 H 295.048 -0.618799 -0.400321 0
M  V30 3107 H 297.69 -1.86052 -0.385318 0
M  V30 3108 H 295.84 -2.81809 -2.67425 0
M  V30 3109 H 297.512 -4.55538 -0.726807 0
M  V30 3110 H 295.755 -4.29421 -0.614853 0
M  V30 3111 H 296.426 -5.14 -2.01265 0
M  V30 3112 H 298.902 -3.28916 -2.5486 0
M  V30 3113 H 297.778 -4.05266 -3.70204 0
M  V30 3114 H 298.039 -2.31676 -3.76535 0
M  V30 3115 N 297.098 0.621204 -1.44841 0
M  V30 3116 C 298.061 1.71459 -1.521 0
M  V30 3117 C 299.061 1.55696 -0.401933 0
M  V30 3118 O 300.251 1.61011 -0.664925 0
M  V30 3119 C 297.383 3.10624 -1.40447 0
M  V30 3120 H 298.576 1.66394 -2.49506 0
M  V30 3121 H 296.129 0.835745 -1.3208 0
M  V30 3122 H 296.864 3.21277 -0.441737 0
M  V30 3123 H 296.649 3.23473 -2.21602 0
M  V30 3124 H 298.139 3.90293 -1.4853 0
M  V30 3125 N 298.576 1.31904 0.862503 0
M  V30 3126 C 299.823 1.22017 1.61611 0
M  V30 3127 C 300.151 -0.21991 1.93253 0
M  V30 3128 O 299.406 -1.17076 1.56817 0
M  V30 3129 C 299.705 2.01713 2.95037 0
M  V30 3130 C 299.371 3.51145 2.82857 0
M  V30 3131 C 298.033 3.91889 2.79243 0
M  V30 3132 C 300.385 4.46204 2.69353 0
M  V30 3133 C 297.713 5.25947 2.59993 0
M  V30 3134 C 300.065 5.80397 2.5164 0
M  V30 3135 C 298.729 6.20352 2.46413 0
M  V30 3136 H 297.999 0.44649 0.591378 0
M  V30 3137 H 300.646 1.63248 1.00111 0
M  V30 3138 H 298.951 1.53185 3.60613 0
M  V30 3139 H 300.648 1.91437 3.52353 0
M  V30 3140 H 297.238 3.1878 2.86491 0
M  V30 3141 H 301.422 4.15652 2.71196 0
M  V30 3142 H 296.678 5.5597 2.54376 0
M  V30 3143 H 300.852 6.53676 2.40169 0
M  V30 3144 H 298.479 7.24172 2.31256 0
M  V30 3145 N 300.054 -1.07777 1.14986 0
M  V30 3146 C 301.47 -1.32373 0.891596 0
M  V30 3147 C 301.67 -1.9609 -0.463788 0
M  V30 3148 O 300.726 -2.21801 -1.20667 0
M  V30 3149 C 302.039 -2.21905 2.02925 0
M  V30 3150 C 303.587 -2.35367 2.06329 0
M  V30 3151 C 304.062 -3.28245 3.19405 0
M  V30 3152 N 305.553 -3.35824 3.19024 0
M  V30 3153 C 306.288 -4.07739 4.03158 0
M  V30 3154 N 305.784 -4.82306 4.97346 0
M  V30 3155 N 307.577 -4.03635 3.91197 0
M  V30 3156 H 299.728 -0.648039 2.02273 0
M  V30 3157 H 301.991 -0.348149 0.881757 0
M  V30 3158 H 301.697 -1.82342 3.0074 0
M  V30 3159 H 301.571 -3.22407 1.95789 0
M  V30 3160 H 303.958 -2.74186 1.09116 0
M  V30 3161 H 304.039 -1.34585 2.17533 0
M  V30 3162 H 303.683 -2.90146 4.16867 0
M  V30 3163 H 303.613 -4.28971 3.05437 0
M  V30 3164 H 306.104 -2.8267 2.50811 0
M  V30 3165 H 306.417 -5.34661 5.57994 0
M  V30 3166 H 304.762 -4.81337 5.01338 0
M  V30 3167 H 307.953 -3.44491 3.16928 0
M  V30 3168 H 308.126 -4.59417 4.5699 0
M  V30 3169 N 301.532 -0.945985 -1.26051 0
M  V30 3170 C 302.482 -0.430164 -2.23905 0
M  V30 3171 C 303.466 0.47579 -1.53704 0
M  V30 3172 O 304.658 0.310252 -1.7426 0
M  V30 3173 C 301.787 0.298957 -3.41996 0
M  V30 3174 C 300.873 -0.624566 -4.19476 0
M  V30 3175 N 301.264 -1.75245 -4.74471 0
M  V30 3176 C 299.562 -0.431082 -4.43912 0
M  V30 3177 C 300.263 -2.32834 -5.3307 0
M  V30 3178 N 299.239 -1.61583 -5.1903 0
M  V30 3179 H 303.041 -1.29107 -2.64024 0
M  V30 3180 H 300.555 -0.802428 -1.41191 0
M  V30 3181 H 302.552 0.685565 -4.11225 0
M  V30 3182 H 301.212 1.15657 -3.03403 0
M  V30 3183 H 302.223 -2.13449 -4.71868 0
M  V30 3184 H 298.9 0.384364 -4.15727 0
M  V30 3185 H 300.29 -3.27893 -5.86461 0
M  V30 3186 N 303.011 1.40521 -0.713556 0
M  V30 3187 C 304.422 1.83853 -0.324807 0
M  V30 3188 C 304.773 1.59667 1.14021 0
M  V30 3189 O 303.898 1.07649 1.87725 0
M  V30 3190 C 304.493 3.33751 -0.582746 0
M  V30 3191 C 303.052 3.75584 -0.247727 0
M  V30 3192 C 302.199 2.63753 -0.856121 0
M  V30 3193 H 305.15 1.29817 -0.91286 0
M  V30 3194 H 305.171 3.80194 0.152682 0
M  V30 3195 H 304.683 3.51322 -1.64908 0
M  V30 3196 H 302.784 3.63608 0.813624 0
M  V30 3197 H 302.897 4.7373 -0.715307 0
M  V30 3198 H 301.261 2.53108 -0.28432 0
M  V30 3199 H 302.044 2.84137 -1.92668 0
M  V30 3200 N 304.489 0.459591 1.5075 0
M  V30 3201 C 305.437 -0.354678 2.2988 0
M  V30 3202 C 306.431 -1.00086 1.36672 0
M  V30 3203 O 307.637 -0.933277 1.53915 0
M  V30 3204 H 304.012 -0.13321 0.740107 0
M  V30 3205 H 305.983 0.333269 2.96533 0
M  V30 3206 C 304.732 -1.43073 3.169 0
M  V30 3207 H 304.055 -0.942882 3.88523 0
M  V30 3208 H 305.495 -1.97328 3.75284 0
M  V30 3209 C 303.954 -2.42633 2.33732 0
M  V30 3210 O 304.484 -3.47658 2.01238 0
M  V30 3211 N 302.69 -2.14066 1.9653 0
M  V30 3212 H 302.237 -1.28685 2.23155 0
M  V30 3213 H 302.195 -2.80917 1.41185 0
M  V30 3214 N 305.967 -1.56429 0.191757 0
M  V30 3215 C 307.197 -2.01574 -0.452928 0
M  V30 3216 C 307.605 -1.07107 -1.55964 0
M  V30 3217 O 306.948 -0.067534 -1.83576 0
M  V30 3218 C 307.01 -3.43121 -1.07278 0
M  V30 3219 C 306.674 -4.56879 -0.105214 0
M  V30 3220 C 307.671 -5.15379 0.684149 0
M  V30 3221 C 305.356 -5.023 0.00489824 0
M  V30 3222 C 307.35 -6.17746 1.57062 0
M  V30 3223 C 305.037 -6.04511 0.894935 0
M  V30 3224 C 306.035 -6.62108 1.67637 0
M  V30 3225 O 305.723 -7.62335 2.55149 0
M  V30 3226 H 305.455 -0.665554 -0.118379 0
M  V30 3227 H 308.009 -2.03245 0.296737 0
M  V30 3228 H 306.239 -3.38425 -1.87097 0
M  V30 3229 H 307.928 -3.72093 -1.62177 0
M  V30 3230 H 308.694 -4.81157 0.609365 0
M  V30 3231 H 304.573 -4.57168 -0.593156 0
M  V30 3232 H 308.117 -6.6263 2.181 0
M  V30 3233 H 304.014 -6.38157 0.970847 0
M  V30 3234 H 304.782 -7.79741 2.48892 0
M  V30 3235 N 307.445 0.0818655 -1.57387 0
M  V30 3236 C 308.673 0.796108 -1.9097 0
M  V30 3237 C 309.088 1.71626 -0.786757 0
M  V30 3238 O 308.445 1.80908 0.240513 0
M  V30 3239 C 308.496 1.59829 -3.24248 0
M  V30 3240 O 308.217 0.715131 -4.32224 0
M  V30 3241 C 309.718 2.41442 -3.7178 0
M  V30 3242 H 306.938 0.22691 -0.631469 0
M  V30 3243 H 309.482 0.0551439 -2.04426 0
M  V30 3244 H 307.637 2.29163 -3.12351 0
M  V30 3245 H 308.051 1.27205 -5.08841 0
M  V30 3246 H 309.525 2.932 -4.67694 0
M  V30 3247 H 310.002 3.2051 -3.00283 0
M  V30 3248 H 310.608 1.77283 -3.86589 0
M  V30 3249 N 308.923 1.53595 0.353017 0
M  V30 3250 C 309.853 1.83902 1.43883 0
M  V30 3251 C 310.834 0.693421 1.55324 0
M  V30 3252 O 312.019 0.944452 1.69687 0
M  V30 3253 C 309.149 2.04016 2.8106 0
M  V30 3254 C 308.103 3.19814 2.84434 0
M  V30 3255 C 307.429 3.25244 4.24406 0
M  V30 3256 C 308.729 4.58133 2.50822 0
M  V30 3257 H 310.423 2.74835 1.1877 0
M  V30 3258 H 307.969 1.32242 0.569917 0
M  V30 3259 H 309.922 2.238 3.57059 0
M  V30 3260 H 308.646 1.09804 3.07588 0
M  V30 3261 H 307.305 2.9987 2.10887 0
M  V30 3262 H 306.953 2.28646 4.48029 0
M  V30 3263 H 306.653 4.03054 4.27576 0
M  V30 3264 H 308.177 3.47228 5.0226 0
M  V30 3265 H 309.591 4.77995 3.16534 0
M  V30 3266 H 307.988 5.38276 2.6529 0
M  V30 3267 H 309.058 4.62387 1.46034 0
M  V30 3268 N 310.401 -0.613514 1.45168 0
M  V30 3269 C 311.649 -1.36997 1.48581 0
M  V30 3270 C 311.97 -1.94589 0.126545 0
M  V30 3271 O 311.24 -1.76816 -0.843372 0
M  V30 3272 H 309.82 -0.508558 0.547154 0
M  V30 3273 H 312.482 -0.720853 1.81079 0
M  V30 3274 H 311.578 -2.1924 2.22127 0
M  V30 3275 N 311.879 -1.3236 -0.855495 0
M  V30 3276 C 313.126 -1.22872 -1.60962 0
M  V30 3277 C 313.454 0.209658 -1.93367 0
M  V30 3278 O 312.709 1.16243 -1.57436 0
M  V30 3279 C 313.008 -2.03275 -2.93963 0
M  V30 3280 C 312.674 -3.5264 -2.80991 0
M  V30 3281 C 311.336 -3.93364 -2.7716 0
M  V30 3282 C 313.688 -4.47626 -2.66983 0
M  V30 3283 C 311.016 -5.27319 -2.572 0
M  V30 3284 C 313.368 -5.81723 -2.48558 0
M  V30 3285 C 312.032 -6.2165 -2.4312 0
M  V30 3286 H 311.302 -0.44962 -0.589001 0
M  V30 3287 H 313.949 -1.63777 -0.992442 0
M  V30 3288 H 312.254 -1.55095 -3.59795 0
M  V30 3289 H 313.951 -1.93303 -3.51333 0
M  V30 3290 H 310.541 -3.20295 -2.84797 0
M  V30 3291 H 314.725 -4.17084 -2.68988 0
M  V30 3292 H 309.981 -5.57311 -2.51424 0
M  V30 3293 H 314.155 -6.5494 -2.36699 0
M  V30 3294 H 311.782 -7.25388 -2.27412 0
M  V30 3295 N 313.357 1.07166 -1.15556 0
M  V30 3296 C 314.773 1.31899 -0.898603 0
M  V30 3297 C 314.973 1.96333 0.453383 0
M  V30 3298 O 314.029 2.22438 1.19489 0
M  V30 3299 C 315.342 2.20826 -2.04099 0
M  V30 3300 C 316.89 2.34269 -2.07574 0
M  V30 3301 C 317.365 3.26546 -3.21141 0
M  V30 3302 N 318.856 3.34127 -3.20801 0
M  V30 3303 C 319.591 4.05595 -4.05315 0
M  V30 3304 N 319.087 4.79661 -4.99897 0
M  V30 3305 N 320.88 4.01555 -3.93332 0
M  V30 3306 H 313.031 0.637302 -2.02613 0
M  V30 3307 H 315.294 0.343468 -0.883591 0
M  V30 3308 H 315 1.80744 -3.01703 0
M  V30 3309 H 314.874 3.21364 -1.97496 0
M  V30 3310 H 317.261 2.73603 -1.10568 0
M  V30 3311 H 317.342 1.33429 -2.18244 0
M  V30 3312 H 316.986 2.87931 -4.184 0
M  V30 3313 H 316.916 4.27345 -3.07708 0
M  V30 3314 H 319.407 2.81336 -2.52306 0
M  V30 3315 H 319.72 5.31694 -5.60822 0
M  V30 3316 H 318.065 4.78671 -5.03884 0
M  V30 3317 H 321.256 3.42806 -3.18751 0
M  V30 3318 H 321.429 4.56987 -4.5942 0
M  V30 3319 N 314.835 0.952656 1.25548 0
M  V30 3320 C 315.783 0.462354 2.27958 0
M  V30 3321 C 316.777 -0.46634 1.62855 0
M  V30 3322 O 317.983 -0.343287 1.76696 0
M  V30 3323 H 314.358 0.13101 0.7405 0
M  V30 3324 H 316.329 1.33839 2.66702 0
M  V30 3325 C 315.078 -0.24628 3.46827 0
M  V30 3326 H 314.401 0.459192 3.97154 0
M  V30 3327 H 315.841 -0.553393 4.20373 0
M  V30 3328 C 314.3 -1.4681 3.0323 0
M  V30 3329 O 314.83 -2.56591 3.09069 0
M  V30 3330 N 313.036 -1.32874 2.58443 0
M  V30 3331 H 312.583 -0.435536 2.53891 0
M  V30 3332 H 312.541 -2.14742 2.29637 0
M  V30 3333 N 316.313 -1.40141 0.720998 0
M  V30 3334 C 317.541 -2.05096 0.272656 0
M  V30 3335 C 317.956 -1.54334 -1.0875 0
M  V30 3336 O 317.313 -0.702211 -1.6845 0
M  V30 3337 C 317.364 -3.60636 0.249835 0
M  V30 3338 O 317.085 -4.09526 1.55629 0
M  V30 3339 C 318.586 -4.42772 -0.216396 0
M  V30 3340 H 315.806 -0.659897 0.121558 0
M  V30 3341 H 318.35 -1.79449 0.980723 0
M  V30 3342 H 316.505 -3.85232 -0.409237 0
M  V30 3343 H 316.919 -5.03758 1.4604 0
M  V30 3344 H 318.393 -5.51702 -0.181212 0
M  V30 3345 H 318.87 -4.20756 -1.25941 0
M  V30 3346 H 319.476 -4.23294 0.412596 0
M  V30 3347 N 317.792 -0.46758 -1.50504 0
M  V30 3348 C 318.74 0.342482 -2.30065 0
M  V30 3349 C 319.734 0.993596 -1.37201 0
M  V30 3350 O 320.94 0.925102 -1.54408 0
M  V30 3351 H 317.315 0.129283 -0.740803 0
M  V30 3352 H 319.286 -0.34899 -2.96352 0
M  V30 3353 C 318.035 1.4139 -3.17654 0
M  V30 3354 H 317.358 0.922264 -3.89017 0
M  V30 3355 H 318.798 1.95335 -3.76325 0
M  V30 3356 C 317.257 2.4139 -2.35016 0
M  V30 3357 O 317.787 3.46586 -2.03079 0
M  V30 3358 N 315.993 2.13021 -1.97662 0
M  V30 3359 H 315.54 1.27499 -2.23834 0
M  V30 3360 H 315.498 2.80164 -1.42673 0
M  V30 3361 N 319.27 1.56325 -0.20005 0
M  V30 3362 C 320.22 2.15939 0.731743 0
M  V30 3363 C 321.204 1.10154 1.17281 0
M  V30 3364 O 322.396 1.36203 1.13038 0
M  V30 3365 C 319.525 2.82614 1.94895 0
M  V30 3366 C 318.611 3.95596 1.52855 0
M  V30 3367 N 319.002 4.99118 0.819418 0
M  V30 3368 C 317.3 4.07288 1.81748 0
M  V30 3369 C 318.001 5.78513 0.608053 0
M  V30 3370 N 316.977 5.31117 1.15828 0
M  V30 3371 H 320.779 2.9334 0.181285 0
M  V30 3372 H 318.293 1.624 -0.000452172 0
M  V30 3373 H 320.29 3.23718 2.62702 0
M  V30 3374 H 318.95 2.06702 2.50408 0
M  V30 3375 H 319.961 5.15723 0.47436 0
M  V30 3376 H 316.638 3.42509 2.38734 0
M  V30 3377 H 318.028 6.71885 0.0451619 0
M  V30 3378 N 320.748 -0.0735177 1.57428 0
M  V30 3379 C 321.678 -1.0879 2.06608 0
M  V30 3380 C 322.659 -1.40473 0.959237 0
M  V30 3381 O 323.844 -1.5013 1.23185 0
M  V30 3382 C 320.974 -2.40183 2.50857 0
M  V30 3383 C 319.928 -2.22858 3.65402 0
M  V30 3384 C 319.254 -3.59619 3.957 0
M  V30 3385 C 320.554 -1.65123 4.95511 0
M  V30 3386 H 322.248 -0.678673 2.91607 0
M  V30 3387 H 319.794 -0.325013 1.40284 0
M  V30 3388 H 321.747 -3.11437 2.83874 0
M  V30 3389 H 320.471 -2.83083 1.62885 0
M  V30 3390 H 319.13 -1.54045 3.32664 0
M  V30 3391 H 318.778 -4.00086 3.04861 0
M  V30 3392 H 318.478 -3.48866 4.72828 0
M  V30 3393 H 320.002 -4.32306 4.31212 0
M  V30 3394 H 321.416 -2.26241 5.26771 0
M  V30 3395 H 319.813 -1.65071 5.7695 0
M  V30 3396 H 320.883 -0.612559 4.81015 0
M  V30 3397 N 322.226 -1.5378 -0.344866 0
M  V30 3398 C 323.475 -1.7018 -1.08267 0
M  V30 3399 C 323.788 -0.471 -1.89845 0
M  V30 3400 O 324.994 -0.515917 -2.66553 0
M  V30 3401 C 323.45 -3.00923 -1.97417 0
M  V30 3402 C 323.058 -4.31335 -1.21053 0
M  V30 3403 C 324.802 -3.26688 -2.71063 0
M  V30 3404 C 322.709 -5.53153 -2.09225 0
M  V30 3405 H 321.639 -0.634138 -0.407903 0
M  V30 3406 H 324.29 -1.8028 -0.342246 0
M  V30 3407 H 322.672 -2.84676 -2.75274 0
M  V30 3408 H 323.846 -4.58281 -0.481159 0
M  V30 3409 H 322.161 -4.12173 -0.591813 0
M  V30 3410 H 324.758 -4.1489 -3.37299 0
M  V30 3411 H 325.101 -2.43639 -3.37558 0
M  V30 3412 H 325.634 -3.43705 -2.0028 0
M  V30 3413 H 322.373 -6.38741 -1.47274 0
M  V30 3414 H 321.893 -5.30458 -2.79955 0
M  V30 3415 H 323.572 -5.88744 -2.68308 0
M  V30 3416 N 323.704 0.605807 -1.45491 0
M  V30 3417 C 324.652 1.73754 -1.54636 0
M  V30 3418 C 325.646 1.64207 -0.416219 0
M  V30 3419 O 326.852 1.69979 -0.592199 0
M  V30 3420 H 323.227 0.574073 -0.485741 0
M  V30 3421 H 325.198 1.63169 -2.49837 0
M  V30 3422 C 323.947 3.12135 -1.53189 0
M  V30 3423 H 323.27 3.20141 -2.39478 0
M  V30 3424 H 324.71 3.91147 -1.63645 0
M  V30 3425 C 323.169 3.35921 -0.256616 0
M  V30 3426 O 323.699 3.96194 0.662798 0
M  V30 3427 N 321.905 2.90204 -0.151751 0
M  V30 3428 H 321.452 2.41336 -0.90081 0
M  V30 3429 H 321.41 3.06492 0.700699 0
M  V30 3430 N 325.182 1.32811 0.848464 0
M  V30 3431 C 326.13 1.22231 1.97895 0
M  V30 3432 C 327.124 0.125749 1.68933 0
M  V30 3433 O 328.33 0.289083 1.77663 0
M  V30 3434 H 324.705 0.379058 0.649476 0
M  V30 3435 H 326.676 2.17828 2.03945 0
M  V30 3436 C 325.425 0.968572 3.33937 0
M  V30 3437 H 324.748 1.80458 3.56756 0
M  V30 3438 H 326.188 0.934808 4.13567 0
M  V30 3439 C 324.647 -0.328628 3.35293 0
M  V30 3440 O 325.177 -1.33848 3.78745 0
M  V30 3441 N 323.383 -0.352788 2.88451 0
M  V30 3442 H 322.93 0.469541 2.53285 0
M  V30 3443 H 322.888 -1.22057 2.89741 0
M  V30 3444 N 326.66 -1.06551 1.16123 0
M  V30 3445 C 327.607 -2.13961 0.865414 0
M  V30 3446 C 328.577 -1.65066 -0.185055 0
M  V30 3447 O 329.762 -1.90732 -0.05083 0
M  V30 3448 C 326.902 -3.43113 0.369776 0
M  V30 3449 C 326.015 -4.05756 1.48276 0
M  V30 3450 C 325.15 -5.22773 0.942414 0
M  V30 3451 C 324.189 -5.77395 2.03179 0
M  V30 3452 N 323.326 -6.85731 1.50721 0
M  V30 3453 H 328.166 -2.38605 1.78527 0
M  V30 3454 H 325.703 -1.17072 0.890646 0
M  V30 3455 H 327.661 -4.17151 0.0640643 0
M  V30 3456 H 326.291 -3.18695 -0.513143 0
M  V30 3457 H 325.343 -3.29292 1.9045 0
M  V30 3458 H 326.655 -4.42351 2.30493 0
M  V30 3459 H 325.809 -6.03827 0.589729 0
M  V30 3460 H 324.548 -4.87618 0.0895191 0
M  V30 3461 H 323.553 -4.94981 2.3932 0
M  V30 3462 H 324.778 -6.14603 2.8886 0
M  V30 3463 H 322.724 -6.52499 0.676811 0
M  V30 3464 H 322.641 -7.21254 2.26557 0
M  V30 3465 H 323.909 -7.7047 1.18303 0
M  V30 3466 N 328.138 -0.959301 -1.25041 0
M  V30 3467 C 329.366 -0.633949 -1.96948 0
M  V30 3468 C 329.781 0.794916 -1.7125 0
M  V30 3469 O 329.138 1.53231 -0.991287 0
M  V30 3470 C 329.189 -0.888805 -3.50403 0
M  V30 3471 O 328.91 -2.26149 -3.75218 0
M  V30 3472 C 330.411 -0.576482 -4.39536 0
M  V30 3473 H 327.631 -0.237263 -0.627652 0
M  V30 3474 H 330.175 -1.28495 -1.59089 0
M  V30 3475 H 328.33 -0.284145 -3.86357 0
M  V30 3476 H 328.744 -2.33514 -4.6965 0
M  V30 3477 H 330.218 -0.805314 -5.46094 0
M  V30 3478 H 330.695 0.489075 -4.36468 0
M  V30 3479 H 331.301 -1.16067 -4.09156 0
M  V30 3480 N 329.616 1.39756 -0.72842 0
M  V30 3481 C 330.862 2.01425 -0.282761 0
M  V30 3482 C 331.217 1.56754 1.11561 0
M  V30 3483 O 330.51 0.783482 1.74849 0
M  V30 3484 C 330.704 3.56002 -0.315776 0
M  V30 3485 C 330.533 4.1568 -1.71582 0
M  V30 3486 C 329.303 4.48555 -2.32651 0
M  V30 3487 C 331.501 4.39667 -2.66829 0
M  V30 3488 N 329.483 4.93698 -3.64877 0
M  V30 3489 C 330.854 4.86942 -3.8378 0
M  V30 3490 C 332.909 4.21724 -2.64675 0
M  V30 3491 C 331.612 5.18158 -4.98904 0
M  V30 3492 C 333.638 4.54049 -3.78937 0
M  V30 3493 C 333 5.01525 -4.94623 0
M  V30 3494 H 329.099 0.76756 -0.149583 0
M  V30 3495 H 331.683 1.69784 -0.952976 0
M  V30 3496 H 329.854 3.87046 0.324057 0
M  V30 3497 H 331.586 4.0443 0.147808 0
M  V30 3498 H 328.341 4.36128 -1.84633 0
M  V30 3499 H 328.765 5.20635 -4.32744 0
M  V30 3500 H 333.407 3.84228 -1.76433 0
M  V30 3501 H 331.125 5.54562 -5.87781 0
M  V30 3502 H 334.711 4.41795 -3.78561 0
M  V30 3503 H 333.591 5.26065 -5.81572 0
M  V30 3504 N 331.094 0.475555 1.50254 0
M  V30 3505 C 332.042 -0.330276 2.30243 0
M  V30 3506 C 333.036 -0.986306 1.37726 0
M  V30 3507 O 334.242 -0.9169 1.54897 0
M  V30 3508 H 330.617 -0.125353 0.741479 0
M  V30 3509 H 332.588 0.364702 2.96163 0
M  V30 3510 C 331.337 -1.39704 3.18399 0
M  V30 3511 H 330.66 -0.901621 3.89501 0
M  V30 3512 H 332.1 -1.93336 3.77355 0
M  V30 3513 C 330.559 -2.4014 2.36293 0
M  V30 3514 O 331.089 -3.45504 2.04914 0
M  V30 3515 N 329.295 -2.1197 1.98789 0
M  V30 3516 H 328.842 -1.2631 2.24507 0
M  V30 3517 H 328.8 -2.79403 1.44157 0
M  V30 3518 N 332.573 -1.56217 0.208337 0
M  V30 3519 C 333.822 -1.97124 -0.427204 0
M  V30 3520 C 334.135 -1.09859 -1.61835 0
M  V30 3521 O 335.341 -1.40606 -2.32255 0
M  V30 3522 C 333.797 -3.50633 -0.811442 0
M  V30 3523 C 333.405 -4.46582 0.35615 0
M  V30 3524 C 335.149 -4.00282 -1.41332 0
M  V30 3525 C 333.056 -5.91379 -0.0497852 0
M  V30 3526 H 331.986 -0.736086 -0.163381 0
M  V30 3527 H 334.637 -1.8099 0.302456 0
M  V30 3528 H 333.019 -3.62319 -1.59815 0
M  V30 3529 H 334.193 -4.46636 1.1337 0
M  V30 3530 H 332.508 -4.07202 0.870396 0
M  V30 3531 H 335.105 -5.0595 -1.72972 0
M  V30 3532 H 335.448 -3.45359 -2.32449 0
M  V30 3533 H 335.981 -3.91764 -0.690323 0
M  V30 3534 H 332.72 -6.50255 0.827529 0
M  V30 3535 H 332.24 -5.94549 -0.791926 0
M  V30 3536 H 333.919 -6.45209 -0.481042 0
M  V30 3537 N 334.051 0.0651679 -1.57465 0
M  V30 3538 C 334.983 1.10359 -2.00882 0
M  V30 3539 C 335.996 1.346 -0.915788 0
M  V30 3540 O 337.185 1.32723 -1.1936 0
M  V30 3541 C 334.285 2.45312 -2.33828 0
M  V30 3542 C 333.458 2.40934 -3.65061 0
M  V30 3543 C 332.517 3.58047 -3.85602 0
M  V30 3544 O 331.543 3.39175 -4.57109 0
M  V30 3545 N 332.745 4.78637 -3.28462 0
M  V30 3546 H 335.51 0.733807 -2.90578 0
M  V30 3547 H 333.071 0.253719 -1.599 0
M  V30 3548 H 335.063 3.22314 -2.44737 0
M  V30 3549 H 333.633 2.74267 -1.49988 0
M  V30 3550 H 332.853 1.49273 -3.64844 0
M  V30 3551 H 334.141 2.35117 -4.51218 0
M  V30 3552 H 333.539 4.96872 -2.70433 0
M  V30 3553 H 332.096 5.53127 -3.44809 0
M  V30 3554 N 335.529 1.53961 0.336706 0
M  V30 3555 C 336.459 1.85417 1.41925 0
M  V30 3556 C 337.44 0.709856 1.5458 0
M  V30 3557 O 338.625 0.962396 1.68676 0
M  V30 3558 C 335.755 2.06985 2.78881 0
M  V30 3559 C 334.709 3.22813 2.81026 0
M  V30 3560 C 334.035 3.29727 4.20932 0
M  V30 3561 C 335.335 4.60767 2.45949 0
M  V30 3562 H 337.029 2.76079 1.15848 0
M  V30 3563 H 334.575 1.32839 0.555859 0
M  V30 3564 H 336.528 2.27575 3.54665 0
M  V30 3565 H 335.252 1.13061 3.06406 0
M  V30 3566 H 333.911 3.0209 2.07695 0
M  V30 3567 H 333.559 2.33385 4.45579 0
M  V30 3568 H 333.259 4.07566 4.23277 0
M  V30 3569 H 334.783 3.52536 4.98549 0
M  V30 3570 H 336.197 4.81325 3.11446 0
M  V30 3571 H 334.594 5.4106 2.59566 0
M  V30 3572 H 335.664 4.6391 1.41122 0
M  V30 3573 N 337.007 -0.598083 1.45811 0
M  V30 3574 C 338.235 -1.38322 1.53866 0
M  V30 3575 C 338.65 -1.87992 0.174479 0
M  V30 3576 O 338.007 -1.62756 -0.825627 0
M  V30 3577 C 338.058 -2.58125 2.53089 0
M  V30 3578 O 337.779 -2.10516 3.84206 0
M  V30 3579 C 339.28 -3.50869 2.70935 0
M  V30 3580 H 336.5 -0.423093 0.520801 0
M  V30 3581 H 339.044 -0.728527 1.91083 0
M  V30 3582 H 337.199 -3.19615 2.18917 0
M  V30 3583 H 337.613 -2.88425 4.38077 0
M  V30 3584 H 339.087 -4.31451 3.44317 0
M  V30 3585 H 339.564 -4.01822 1.77301 0
M  V30 3586 H 340.17 -2.95225 3.06141 0
M  V30 3587 N 338.485 -1.33259 -0.841409 0
M  V30 3588 C 339.432 -1.23302 -1.95103 0
M  V30 3589 C 340.402 -0.112204 -1.65721 0
M  V30 3590 O 341.587 -0.290038 -1.88583 0
M  V30 3591 C 338.727 -0.975583 -3.31023 0
M  V30 3592 C 337.84 -2.18243 -3.72819 0
M  V30 3593 C 336.975 -1.85936 -4.97595 0
M  V30 3594 C 336.014 -3.02866 -5.3192 0
M  V30 3595 N 335.151 -2.70565 -6.47873 0
M  V30 3596 H 339.991 -2.18207 -2.02952 0
M  V30 3597 H 337.528 -1.0851 -0.993173 0
M  V30 3598 H 339.486 -0.80677 -4.09325 0
M  V30 3599 H 338.116 -0.0632755 -3.22738 0
M  V30 3600 H 337.168 -2.46107 -2.90061 0
M  V30 3601 H 338.48 -3.05666 -3.94169 0
M  V30 3602 H 337.634 -1.65684 -5.83638 0
M  V30 3603 H 336.373 -0.957452 -4.78209 0
M  V30 3604 H 335.378 -3.23736 -4.44382 0
M  V30 3605 H 336.603 -3.93809 -5.53255 0
M  V30 3606 H 334.549 -1.8293 -6.29978 0
M  V30 3607 H 334.466 -3.51519 -6.69306 0
M  V30 3608 H 335.734 -2.53774 -7.37034 0
M  V30 3609 N 339.963 1.05934 -1.16686 0
M  V30 3610 C 341.191 1.8249 -0.974929 0
M  V30 3611 C 341.606 1.82679 0.476861 0
M  V30 3612 O 340.963 1.2486 1.33103 0
M  V30 3613 C 341.014 3.28943 -1.49929 0
M  V30 3614 O 340.735 3.28886 -2.89423 0
M  V30 3615 C 342.236 4.22215 -1.35089 0
M  V30 3616 H 339.456 0.575295 -0.345365 0
M  V30 3617 H 342 1.33631 -1.548 0
M  V30 3618 H 340.155 3.751 -0.968423 0
M  V30 3619 H 340.569 4.20493 -3.13506 0
M  V30 3620 H 342.043 5.22987 -1.76603 0
M  V30 3621 H 342.52 4.38195 -0.296935 0
M  V30 3622 H 343.126 3.81907 -1.87155 0
M  V30 3623 N 341.441 0.965919 1.2453 0
M  V30 3624 C 342.689 0.625593 1.92174 0
M  V30 3625 C 343.01 -0.841652 1.75901 0
M  V30 3626 O 342.28 -1.60061 1.12948 0
M  V30 3627 H 340.86 0.228388 0.71123 0
M  V30 3628 H 343.522 1.2266 1.51461 0
M  V30 3629 H 342.618 0.864653 2.99884 0
M  V30 3630 N 342.919 -1.39368 0.735821 0
M  V30 3631 C 344.166 -2.00497 0.284123 0
M  V30 3632 C 344.494 -1.58387 -1.12889 0
M  V30 3633 O 343.749 -0.804359 -1.78406 0
M  V30 3634 C 344.048 -3.5583 0.334651 0
M  V30 3635 C 343.714 -4.17593 1.7008 0
M  V30 3636 C 342.376 -4.34176 2.07472 0
M  V30 3637 C 344.728 -4.51848 2.59775 0
M  V30 3638 C 342.056 -4.82304 3.34065 0
M  V30 3639 C 344.408 -5.01384 3.85741 0
M  V30 3640 C 343.072 -5.16175 4.23225 0
M  V30 3641 H 342.342 -0.73367 0.103968 0
M  V30 3642 H 344.989 -1.66683 0.942825 0
M  V30 3643 H 343.294 -3.89674 -0.407625 0
M  V30 3644 H 344.991 -4.00986 -0.0329927 0
M  V30 3645 H 341.581 -4.05087 1.40008 0
M  V30 3646 H 345.765 -4.38653 2.32157 0
M  V30 3647 H 341.021 -4.91941 3.63049 0
M  V30 3648 H 345.195 -5.26863 4.55399 0
M  V30 3649 H 342.822 -5.5323 5.21384 0
M  V30 3650 N 344.397 -0.483516 -1.5 0
M  V30 3651 C 345.625 0.0644831 -2.06799 0
M  V30 3652 C 346.04 1.32399 -1.34596 0
M  V30 3653 O 345.397 1.77626 -0.418946 0
M  V30 3654 C 345.448 0.339927 -3.59898 0
M  V30 3655 O 345.169 -0.869635 -4.29382 0
M  V30 3656 C 346.67 0.933515 -4.33359 0
M  V30 3657 H 343.89 -0.0126333 -0.670881 0
M  V30 3658 H 346.434 -0.675864 -1.93009 0
M  V30 3659 H 344.589 1.03022 -3.7345 0
M  V30 3660 H 345.003 -0.62179 -5.20801 0
M  V30 3661 H 346.477 1.07593 -5.41413 0
M  V30 3662 H 346.954 1.92685 -3.94676 0
M  V30 3663 H 347.56 0.281221 -4.24369 0
M  V30 3664 N 345.875 1.56104 -0.216619 0
M  V30 3665 C 346.823 2.21434 0.712036 0
M  V30 3666 C 347.817 1.19218 1.20348 0
M  V30 3667 O 349.023 1.3731 1.16387 0
M  V30 3668 H 345.398 0.70992 0.248026 0
M  V30 3669 H 347.369 2.98083 0.137558 0
M  V30 3670 C 346.118 2.90434 1.91163 0
M  V30 3671 H 345.441 3.68842 1.54258 0
M  V30 3672 H 346.881 3.39552 2.5393 0
M  V30 3673 C 345.34 1.92635 2.76394 0
M  V30 3674 O 345.87 1.44017 3.74996 0
M  V30 3675 N 344.076 1.60392 2.42328 0
M  V30 3676 H 343.623 2.00122 1.622 0
M  V30 3677 H 343.581 0.952159 2.99635 0
M  V30 3678 N 347.353 -0.0568162 1.57498 0
M  V30 3679 C 348.263 -1.08346 2.08083 0
M  V30 3680 C 349.279 -1.41439 1.01346 0
M  V30 3681 O 350.455 -1.51316 1.32912 0
M  V30 3682 C 347.52 -2.37352 2.52715 0
M  V30 3683 C 346.581 -2.11093 3.73816 0
M  V30 3684 C 345.814 -3.33949 4.1631 0
M  V30 3685 O 346.037 -4.43622 3.58547 0
M  V30 3686 O 344.971 -3.21279 5.08983 0
M  V30 3687 H 348.797 -0.683667 2.95905 0
M  V30 3688 H 346.382 -0.271965 1.46904 0
M  V30 3689 H 348.264 -3.13246 2.81877 0
M  V30 3690 H 346.939 -2.76681 1.68016 0
M  V30 3691 H 345.846 -1.32856 3.49714 0
M  V30 3692 H 347.179 -1.76637 4.59413 0
M  V30 3693 N 348.832 -1.54138 -0.328536 0
M  V30 3694 C 349.795 -1.82462 -1.38709 0
M  V30 3695 C 350.795 -0.696229 -1.44946 0
M  V30 3696 O 351.985 -0.964535 -1.4506 0
M  V30 3697 C 349.117 -1.98018 -2.77492 0
M  V30 3698 H 350.31 -2.77037 -1.14851 0
M  V30 3699 H 347.863 -1.45779 -0.563751 0
M  V30 3700 H 348.598 -1.05637 -3.06613 0
M  V30 3701 H 348.383 -2.80124 -2.74359 0
M  V30 3702 H 349.873 -2.21396 -3.54081 0
M  V30 3703 N 350.31 0.590341 -1.46126 0
M  V30 3704 C 351.558 1.34616 -1.50742 0
M  V30 3705 C 351.879 1.94363 -0.157486 0
M  V30 3706 O 351.149 1.78136 0.815136 0
M  V30 3707 H 349.729 0.499789 -0.555175 0
M  V30 3708 H 352.391 0.691953 -1.82203 0
M  V30 3709 H 351.487 2.15678 -2.25587 0
M  V30 3710 N 351.788 1.33704 0.83433 0
M  V30 3711 C 352.738 1.20899 1.93306 0
M  V30 3712 C 353.722 0.110783 1.60518 0
M  V30 3713 O 354.914 0.339331 1.73717 0
M  V30 3714 C 352.043 0.955018 3.29749 0
M  V30 3715 C 351.129 2.09587 3.68692 0
M  V30 3716 N 351.52 3.34621 3.79292 0
M  V30 3717 C 349.818 2.00358 3.98463 0
M  V30 3718 C 350.519 4.09472 4.13167 0
M  V30 3719 N 349.495 3.37954 4.25779 0
M  V30 3720 H 353.297 2.15665 1.99664 0
M  V30 3721 H 350.811 1.25777 1.02732 0
M  V30 3722 H 352.808 0.844208 4.08263 0
M  V30 3723 H 351.468 0.0159317 3.24696 0
M  V30 3724 H 352.479 3.69313 3.63082 0
M  V30 3725 H 349.156 1.14137 4.01596 0
M  V30 3726 H 350.546 5.17391 4.28668 0
M  V30 3727 N 353.266 -1.05314 1.17247 0
M  V30 3728 C 354.506 -1.79869 0.970898 0
M  V30 3729 C 354.87 -1.85594 -0.491808 0
M  V30 3730 O 356.071 -2.56229 -0.812409 0
M  V30 3731 C 354.342 -3.19937 1.59295 0
M  V30 3732 S 355.901 -4.10986 1.53741 0
M  V30 3733 H 352.719 -0.61949 0.348931 0
M  V30 3734 H 355.321 -1.26368 1.49169 0
M  V30 3735 H 354.025 -3.13372 2.65003 0
M  V30 3736 H 353.556 -3.78515 1.07191 0
M  V30 3737 H 355.571 -4.93203 0.544537 0
M  V30 3738 N 354.744 -0.972509 -1.24016 0
M  V30 3739 C 355.674 -0.525548 -2.27509 0
M  V30 3740 C 356.655 0.437262 -1.64384 0
M  V30 3741 O 357.84 0.332343 -1.91335 0
M  V30 3742 C 354.97 0.180448 -3.46831 0
M  V30 3743 C 353.924 -0.698859 -4.22256 0
M  V30 3744 C 353.25 0.138903 -5.3452 0
M  V30 3745 C 354.55 -1.98582 -4.83076 0
M  V30 3746 H 356.244 -1.39058 -2.65148 0
M  V30 3747 H 353.79 -0.67009 -1.27459 0
M  V30 3748 H 355.743 0.504387 -4.18371 0
M  V30 3749 H 354.467 1.07987 -3.08231 0
M  V30 3750 H 353.126 -1.00614 -3.52523 0
M  V30 3751 H 352.774 1.03862 -4.9216 0
M  V30 3752 H 352.474 -0.446259 -5.85903 0
M  V30 3753 H 353.998 0.457404 -6.08884 0
M  V30 3754 H 355.412 -1.72715 -5.46665 0
M  V30 3755 H 353.809 -2.5181 -5.44713 0
M  V30 3756 H 354.879 -2.67769 -4.04262 0
M  V30 3757 N 356.222 1.38976 -0.743202 0
M  V30 3758 C 357.468 2.0064 -0.295189 0
M  V30 3759 C 357.801 1.5885 1.11716 0
M  V30 3760 O 357.076 0.821181 1.76315 0
M  V30 3761 C 357.359 3.578 -0.406318 0
M  V30 3762 C 357.212 4.09586 -1.85903 0
M  V30 3763 C 358.531 4.39616 0.206439 0
M  V30 3764 H 355.65 0.728935 -0.108733 0
M  V30 3765 H 358.292 1.65067 -0.940897 0
M  V30 3766 H 356.442 3.88235 0.143419 0
M  V30 3767 H 358.114 3.89837 -2.46627 0
M  V30 3768 H 356.357 3.6284 -2.3776 0
M  V30 3769 H 357.028 5.18708 -1.888 0
M  V30 3770 H 359.504 4.15273 -0.262283 0
M  V30 3771 H 358.38 5.48812 0.0983819 0
M  V30 3772 H 358.641 4.22754 1.2935 0
M  V30 3773 N 357.7 0.491464 1.49741 0
M  V30 3774 C 358.633 -0.338464 2.25676 0
M  V30 3775 C 359.611 -0.978676 1.29849 0
M  V30 3776 O 360.795 -1.01064 1.59117 0
M  V30 3777 C 357.922 -1.47588 3.04853 0
M  V30 3778 C 356.968 -0.951 4.15762 0
M  V30 3779 S 357.801 0.150626 5.35288 0
M  V30 3780 C 358.957 -0.990178 6.18018 0
M  V30 3781 H 359.19 0.306068 2.9572 0
M  V30 3782 H 356.723 0.276622 1.51902 0
M  V30 3783 H 358.681 -2.12764 3.51058 0
M  V30 3784 H 357.342 -2.09199 2.34296 0
M  V30 3785 H 356.535 -1.80311 4.70642 0
M  V30 3786 H 356.137 -0.376607 3.72099 0
M  V30 3787 H 358.429 -1.89748 6.50386 0
M  V30 3788 H 359.372 -0.480205 7.0647 0
M  V30 3789 H 359.78 -1.25321 5.50413 0
M  V30 3790 N 359.178 -1.55987 0.224894 0
M  V30 3791 C 360.594 -1.59066 -0.130426 0
M  V30 3792 C 360.794 -1.24176 -1.5869 0
M  V30 3793 O 359.85 -0.978592 -2.32766 0
M  V30 3794 C 361.163 -3.00042 0.198883 0
M  V30 3795 C 362.711 -3.1268 0.141391 0
M  V30 3796 C 363.186 -4.55839 0.444422 0
M  V30 3797 N 364.677 -4.6152 0.394115 0
M  V30 3798 C 365.412 -5.70231 0.602038 0
M  V30 3799 N 364.908 -6.87291 0.871914 0
M  V30 3800 N 366.701 -5.59555 0.534245 0
M  V30 3801 H 358.852 -1.76941 1.17497 0
M  V30 3802 H 361.115 -0.822604 0.471197 0
M  V30 3803 H 360.821 -3.30234 1.2099 0
M  V30 3804 H 360.695 -3.74075 -0.484535 0
M  V30 3805 H 363.082 -2.82283 -0.860265 0
M  V30 3806 H 363.163 -2.40969 0.858335 0
M  V30 3807 H 362.807 -4.86954 1.44353 0
M  V30 3808 H 362.737 -5.2578 -0.293752 0
M  V30 3809 H 365.228 -3.77405 0.193356 0
M  V30 3810 H 365.541 -7.66058 1.01858 0
M  V30 3811 H 363.886 -6.89028 0.909145 0
M  V30 3812 H 367.077 -4.6698 0.323612 0
M  V30 3813 H 367.25 -6.44211 0.699693 0
M  V30 3814 N 360.656 0.0484629 -1.57525 0
M  V30 3815 C 361.884 0.755421 -1.92616 0
M  V30 3816 C 362.299 1.69919 -0.822984 0
M  V30 3817 O 361.656 1.81378 0.202085 0
M  V30 3818 C 361.707 1.52915 -3.27566 0
M  V30 3819 O 361.428 0.62329 -4.33644 0
M  V30 3820 C 362.929 2.33502 -3.76818 0
M  V30 3821 H 360.149 0.213465 -0.63614 0
M  V30 3822 H 362.693 0.0117698 -2.04497 0
M  V30 3823 H 360.848 2.22486 -3.17142 0
M  V30 3824 H 361.262 1.16383 -5.11425 0
M  V30 3825 H 362.736 2.83214 -4.73808 0
M  V30 3826 H 363.213 3.14068 -3.07014 0
M  V30 3827 H 363.819 1.69043 -3.90262 0
M  V30 3828 N 362.134 1.5431 0.320358 0
M  V30 3829 C 363.362 1.76636 1.07738 0
M  V30 3830 C 363.777 0.51649 1.81598 0
M  V30 3831 O 363.134 -0.512942 1.75143 0
M  V30 3832 C 363.185 2.96158 2.07299 0
M  V30 3833 O 362.906 4.16313 1.36438 0
M  V30 3834 C 364.407 3.3072 2.95193 0
M  V30 3835 H 361.627 0.589597 0.320339 0
M  V30 3836 H 364.171 2.01207 0.36551 0
M  V30 3837 H 362.326 2.73851 2.74016 0
M  V30 3838 H 362.74 4.83565 2.03138 0
M  V30 3839 H 364.214 4.17643 3.60941 0
M  V30 3840 H 364.691 2.48026 3.62463 0
M  V30 3841 H 365.297 3.55117 2.34034 0
M  V30 3842 N 363.613 -0.582584 1.46437 0
M  V30 3843 C 364.862 -1.337 1.5102 0
M  V30 3844 C 365.175 -1.94891 0.166359 0
M  V30 3845 O 366.381 -2.71351 0.0899954 0
M  V30 3846 C 364.837 -2.42315 2.66104 0
M  V30 3847 C 364.445 -1.87427 4.06909 0
M  V30 3848 C 366.189 -3.19099 2.79958 0
M  V30 3849 C 364.096 -2.93672 5.13333 0
M  V30 3850 H 363.026 -0.502619 0.562041 0
M  V30 3851 H 365.677 -0.621701 1.72647 0
M  V30 3852 H 364.059 -3.16645 2.37807 0
M  V30 3853 H 365.233 -1.19639 4.44998 0
M  V30 3854 H 363.548 -1.2331 3.97723 0
M  V30 3855 H 366.145 -3.9839 3.56636 0
M  V30 3856 H 366.488 -3.71695 1.87479 0
M  V30 3857 H 367.021 -2.51875 3.07902 0
M  V30 3858 H 363.76 -2.45962 6.07604 0
M  V30 3859 H 363.28 -3.59948 4.79789 0
M  V30 3860 H 364.959 -3.5762 5.39182 0
M  V30 3861 N 365.091 -1.34144 -0.827227 0
M  V30 3862 C 366.039 -1.25364 -1.95925 0
M  V30 3863 C 367.033 -0.152608 -1.68711 0
M  V30 3864 O 368.239 -0.317311 -1.77181 0
M  V30 3865 H 364.614 -0.389342 -0.643364 0
M  V30 3866 H 366.585 -2.21045 -2.00454 0
M  V30 3867 C 365.334 -1.02158 -3.32354 0
M  V30 3868 H 364.657 -1.86111 -3.5384 0
M  V30 3869 H 366.097 -1.00048 -4.12027 0
M  V30 3870 C 364.556 0.275244 -3.35774 0
M  V30 3871 O 365.086 1.27806 -3.80826 0
M  V30 3872 N 363.292 0.306853 -2.88975 0
M  V30 3873 H 362.839 -0.509777 -2.52506 0
M  V30 3874 H 362.797 1.17432 -2.91646 0
M  V30 3875 N 366.569 1.04691 -1.17803 0
M  V30 3876 C 367.985 1.29963 -0.926379 0
M  V30 3877 C 368.185 1.97251 0.411635 0
M  V30 3878 O 367.241 2.24922 1.14744 0
M  V30 3879 C 368.554 2.16447 -2.08737 0
M  V30 3880 C 370.102 2.29814 -2.12496 0
M  V30 3881 C 370.577 3.19661 -3.27995 0
M  V30 3882 N 372.068 3.27247 -3.27816 0
M  V30 3883 C 372.803 3.96906 -4.13827 0
M  V30 3884 N 372.299 4.6895 -5.09959 0
M  V30 3885 N 374.092 3.93122 -4.01761 0
M  V30 3886 H 366.243 0.594182 -2.0392 0
M  V30 3887 H 368.506 0.324649 -0.890678 0
M  V30 3888 H 368.212 1.74304 -3.05469 0
M  V30 3889 H 368.086 3.17103 -2.04268 0
M  V30 3890 H 370.473 2.71196 -1.16347 0
M  V30 3891 H 370.554 1.2877 -2.21025 0
M  V30 3892 H 370.198 2.78991 -4.24413 0
M  V30 3893 H 370.128 4.20722 -3.16703 0
M  V30 3894 H 372.619 2.75921 -2.58217 0
M  V30 3895 H 372.932 5.19679 -5.71974 0
M  V30 3896 H 371.277 4.67875 -5.13924 0
M  V30 3897 H 374.468 3.35967 -3.2595 0
M  V30 3898 H 374.641 4.47139 -4.6901 0
M  V30 3899 N 368.047 0.979072 1.23499 0
M  V30 3900 C 369.272 0.664845 1.96455 0
M  V30 3901 C 369.697 -0.761287 1.72006 0
M  V30 3902 O 369.055 -1.51837 0.990713 0
M  V30 3903 C 369.103 0.959479 3.47601 0
M  V30 3904 O 368.207 0.0508168 4.12369 0
M  V30 3905 H 367.548 0.250185 0.615064 0
M  V30 3906 H 370.078 1.31231 1.5697 0
M  V30 3907 H 370.088 0.895642 3.98048 0
M  V30 3908 H 368.763 1.99876 3.64723 0
M  V30 3909 H 367.34 0.16895 3.72517 0
M  V30 3910 N 369.525 -1.3858 0.750561 0
M  V30 3911 C 370.936 -1.82927 0.373438 0
M  V30 3912 C 371.287 -1.62634 -1.09748 0
M  V30 3913 O 370.412 -1.12588 -1.84805 0
M  V30 3914 C 371.007 -3.32088 0.671029 0
M  V30 3915 C 369.566 -3.74795 0.34722 0
M  V30 3916 C 368.713 -2.61391 0.92575 0
M  V30 3917 H 371.664 -1.27351 0.946958 0
M  V30 3918 H 371.685 -3.80465 -0.0518269 0
M  V30 3919 H 371.197 -3.46826 1.74164 0
M  V30 3920 H 369.298 -3.65638 -0.716933 0
M  V30 3921 H 369.411 -4.71667 0.840656 0
M  V30 3922 H 367.775 -2.52265 0.351327 0
M  V30 3923 H 368.558 -2.78929 2.00133 0
M  V30 3924 N 371.003 -0.499398 -1.49478 0
M  V30 3925 C 372.249 0.0457576 -2.02748 0
M  V30 3926 C 372.582 1.36793 -1.37846 0
M  V30 3927 O 371.857 1.87596 -0.513601 0
M  V30 3928 C 372.14 0.199986 -3.59544 0
M  V30 3929 C 371.993 -1.1452 -4.34977 0
M  V30 3930 C 373.312 0.94137 -4.29914 0
M  V30 3931 H 370.431 0.0151552 -0.736844 0
M  V30 3932 H 373.073 -0.650498 -1.78518 0
M  V30 3933 H 371.223 0.793007 -3.8032 0
M  V30 3934 H 372.895 -1.77697 -4.25701 0
M  V30 3935 H 371.138 -1.73488 -3.97598 0
M  V30 3936 H 371.809 -0.990607 -5.43039 0
M  V30 3937 H 374.285 0.43844 -4.13784 0
M  V30 3938 H 373.161 1.01812 -5.39375 0
M  V30 3939 H 373.422 1.98471 -3.95046 0
M  V30 3940 N 372.481 1.55866 -0.233164 0
M  V30 3941 C 373.429 2.22176 0.68851 0
M  V30 3942 C 374.423 1.20487 1.19076 0
M  V30 3943 O 375.629 1.38536 1.14925 0
M  V30 3944 H 372.004 0.712511 0.240483 0
M  V30 3945 H 373.975 2.98212 0.105935 0
M  V30 3946 C 372.724 2.92446 1.88071 0
M  V30 3947 H 372.047 3.70458 1.50337 0
M  V30 3948 H 373.487 3.42226 2.50314 0
M  V30 3949 C 371.946 1.95555 2.74335 0
M  V30 3950 O 372.476 1.47986 3.73447 0
M  V30 3951 N 370.682 1.62953 2.40613 0
M  V30 3952 H 370.229 2.01831 1.60069 0
M  V30 3953 H 370.187 0.983886 2.98609 0
M  V30 3954 N 373.959 -0.0401083 1.57549 0
M  V30 3955 C 374.889 -1.04384 2.08869 0
M  V30 3956 C 375.87 -1.38407 0.988817 0
M  V30 3957 O 377.055 -1.47483 1.26342 0
M  V30 3958 C 374.185 -2.34808 2.55895 0
M  V30 3959 C 373.139 -2.15057 3.70047 0
M  V30 3960 C 372.465 -3.51145 4.03239 0
M  V30 3961 C 373.765 -1.54576 4.98902 0
M  V30 3962 H 375.459 -0.616666 2.92981 0
M  V30 3963 H 373.005 -0.295184 1.40942 0
M  V30 3964 H 374.958 -3.05346 2.90417 0
M  V30 3965 H 373.682 -2.79565 1.68853 0
M  V30 3966 H 372.341 -1.46954 3.35857 0
M  V30 3967 H 371.989 -3.93529 3.13279 0
M  V30 3968 H 371.689 -3.38758 4.80122 0
M  V30 3969 H 373.213 -4.23062 4.40285 0
M  V30 3970 H 374.627 -2.15017 5.31451 0
M  V30 3971 H 373.024 -1.52796 5.80322 0
M  V30 3972 H 374.094 -0.51039 4.82206 0
M  V30 3973 N 375.437 -1.54477 -0.31217 0
M  V30 3974 C 376.683 -1.73483 -1.0503 0
M  V30 3975 C 377.016 -0.513125 -1.87298 0
M  V30 3976 O 376.291 0.489864 -1.8823 0
M  V30 3977 C 376.574 -3.01723 -1.96558 0
M  V30 3978 C 376.427 -4.3417 -1.17545 0
M  V30 3979 C 377.746 -3.25772 -2.95907 0
M  V30 3980 H 374.865 -0.631222 -0.380432 0
M  V30 3981 H 377.507 -1.87184 -0.325932 0
M  V30 3982 H 375.657 -2.90174 -2.58324 0
M  V30 3983 H 377.329 -4.5762 -0.581513 0
M  V30 3984 H 375.572 -4.31159 -0.477925 0
M  V30 3985 H 376.243 -5.20143 -1.84811 0
M  V30 3986 H 378.719 -3.36857 -2.44267 0
M  V30 3987 H 377.595 -4.16838 -3.57123 0
M  V30 3988 H 377.856 -2.43537 -3.68974 0
M  V30 3989 N 376.915 0.57481 -1.46744 0
M  V30 3990 C 378.161 1.3347 -1.52688 0
M  V30 3991 C 378.494 1.93353 -0.181229 0
M  V30 3992 O 377.769 1.76912 0.808237 0
M  V30 3993 C 378.052 2.45811 -2.63152 0
M  V30 3994 C 377.905 1.90912 -4.07275 0
M  V30 3995 C 379.224 3.47822 -2.69644 0
M  V30 3996 H 376.343 0.483935 -0.555856 0
M  V30 3997 H 378.985 0.644968 -1.78718 0
M  V30 3998 H 377.135 3.04646 -2.41088 0
M  V30 3999 H 378.807 1.36473 -4.4065 0
M  V30 4000 H 377.05 1.21691 -4.16382 0
M  V30 4001 H 377.721 2.72042 -4.80309 0
M  V30 4002 H 380.197 2.9888 -2.895 0
M  V30 4003 H 379.073 4.23876 -3.48742 0
M  V30 4004 H 379.334 4.05555 -1.76005 0
M  V30 4005 N 378.394 1.34581 0.820102 0
M  V30 4006 C 379.324 1.29038 1.94606 0
M  V30 4007 C 380.305 0.1673 1.69275 0
M  V30 4008 O 381.49 0.360112 1.90832 0
M  V30 4009 C 378.62 1.04793 3.31113 0
M  V30 4010 C 377.574 2.13597 3.70891 0
M  V30 4011 C 376.9 1.74537 5.05412 0
M  V30 4012 C 378.2 3.55451 3.8269 0
M  V30 4013 H 379.894 2.23248 1.99501 0
M  V30 4014 H 377.44 1.0747 0.958449 0
M  V30 4015 H 379.393 0.995592 4.0947 0
M  V30 4016 H 378.117 0.0702565 3.26524 0
M  V30 4017 H 376.776 2.17905 2.9481 0
M  V30 4018 H 376.424 0.754226 4.97313 0
M  V30 4019 H 376.124 2.47361 5.32997 0
M  V30 4020 H 377.648 1.70803 5.86224 0
M  V30 4021 H 379.062 3.5354 4.51312 0
M  V30 4022 H 377.459 4.26922 4.21732 0
M  V30 4023 H 378.529 3.92587 2.84611 0
M  V30 4024 N 379.872 -1.04064 1.18357 0
M  V30 4025 C 381.149 -1.74252 0.888581 0
M  V30 4026 C 381.529 -2.02138 -0.60856 0
M  V30 4027 O 380.877 -1.66656 -1.56327 0
M  V30 4028 C 381.087 -3.0277 1.73584 0
M  V30 4029 C 382.435 -3.76506 1.96286 0
M  V30 4030 O 383.459 -3.12668 1.70637 0
M  V30 4031 O 382.318 -4.91243 2.39464 0
M  V30 4032 H 379.412 -0.758271 0.330082 0
M  V30 4033 H 381.958 -1.1013 1.2911 0
M  V30 4034 H 380.73 -2.78299 2.75073 0
M  V30 4035 H 380.353 -3.74631 1.33183 0
M  V30 4036 N 381.35 -0.985608 -1.22978 0
M  V30 4037 C 382.313 -0.535071 -2.22867 0
M  V30 4038 C 383.313 0.378123 -1.56291 0
M  V30 4039 O 384.503 0.171092 -1.73358 0
M  V30 4040 C 381.635 0.222702 -3.40172 0
M  V30 4041 H 382.828 -1.41835 -2.6424 0
M  V30 4042 H 380.381 -0.772042 -1.35901 0
M  V30 4043 H 381.116 1.12229 -3.04262 0
M  V30 4044 H 380.901 -0.43288 -3.89703 0
M  V30 4045 H 382.391 0.526335 -4.1427 0
M  V30 4046 N 382.828 1.3818 -0.7579 0
M  V30 4047 C 384.075 2.00019 -0.315985 0
M  V30 4048 C 384.403 1.60163 1.10355 0
M  V30 4049 O 383.658 0.83264 1.77103 0
M  V30 4050 C 383.957 3.55252 -0.391218 0
M  V30 4051 C 383.623 4.14834 -1.76702 0
M  V30 4052 C 382.285 4.30821 -2.14353 0
M  V30 4053 C 384.637 4.47658 -2.66931 0
M  V30 4054 C 381.965 4.76928 -3.41696 0
M  V30 4055 C 384.317 4.95184 -3.93669 0
M  V30 4056 C 382.981 5.09377 -4.31383 0
M  V30 4057 H 382.251 0.731923 -0.115627 0
M  V30 4058 H 384.898 1.65161 -0.969223 0
M  V30 4059 H 383.203 3.90273 0.34558 0
M  V30 4060 H 384.9 4.00988 -0.030805 0
M  V30 4061 H 381.49 4.02808 -1.46435 0
M  V30 4062 H 385.674 4.34904 -2.39106 0
M  V30 4063 H 380.93 4.86103 -3.70829 0
M  V30 4064 H 385.104 5.19551 -4.63724 0
M  V30 4065 H 382.731 5.44865 -5.30119 0
M  V30 4066 N 384.306 0.507319 1.49211 0
M  V30 4067 C 385.554 -0.0348839 2.0207 0
M  V30 4068 C 385.875 -1.36898 1.38866 0
M  V30 4069 O 385.145 -1.88133 0.546151 0
M  V30 4070 H 383.725 -0.0158812 0.746831 0
M  V30 4071 H 386.387 0.665998 1.83168 0
M  V30 4072 H 385.483 -0.159917 3.1169 0
M  V30 4073 N 385.784 -1.5574 0.241426 0
M  V30 4074 C 386.731 -2.21149 -0.660432 0
M  V30 4075 C 387.701 -1.17356 -1.17545 0
M  V30 4076 O 388.886 -1.45784 -1.23093 0
M  V30 4077 C 386.026 -2.91059 -1.85414 0
M  V30 4078 C 385.139 -4.09495 -1.37616 0
M  V30 4079 C 384.274 -4.67135 -2.529 0
M  V30 4080 C 383.313 -5.77831 -2.01936 0
M  V30 4081 N 382.45 -6.29677 -3.10566 0
M  V30 4082 H 387.29 -2.97845 -0.095955 0
M  V30 4083 H 384.827 -1.47057 -0.0356024 0
M  V30 4084 H 386.785 -3.29788 -2.5553 0
M  V30 4085 H 385.415 -2.16846 -2.39118 0
M  V30 4086 H 384.467 -3.76117 -0.569235 0
M  V30 4087 H 385.779 -4.89423 -0.962618 0
M  V30 4088 H 384.933 -5.08409 -3.31067 0
M  V30 4089 H 383.672 -3.86411 -2.97553 0
M  V30 4090 H 382.677 -5.36039 -1.22238 0
M  V30 4091 H 383.902 -6.60402 -1.58259 0
M  V30 4092 H 381.848 -5.5186 -3.54664 0
M  V30 4093 H 381.765 -7.04783 -2.73526 0
M  V30 4094 H 383.033 -6.75609 -3.88809 0
M  V30 4095 N 387.262 0.0317525 -1.57568 0
M  V30 4096 C 388.492 0.733884 -1.93126 0
M  V30 4097 C 388.9 1.69563 -0.839352 0
M  V30 4098 O 388.243 1.82681 0.193175 0
M  V30 4099 C 388.305 1.54798 -3.24465 0
M  V30 4100 C 387.969 0.751304 -4.50782 0
M  V30 4101 C 388.966 0.0527632 -5.19873 0
M  V30 4102 C 386.651 0.706639 -4.97305 0
M  V30 4103 C 388.645 -0.679774 -6.33765 0
M  V30 4104 C 386.332 -0.0296449 -6.11093 0
M  V30 4105 C 387.33 -0.721614 -6.79177 0
M  V30 4106 O 387.018 -1.44595 -7.90789 0
M  V30 4107 H 386.75 0.211459 -0.642076 0
M  V30 4108 H 389.304 -0.00585615 -2.05399 0
M  V30 4109 H 387.534 2.33147 -3.08512 0
M  V30 4110 H 389.223 2.13247 -3.4537 0
M  V30 4111 H 389.989 0.0783188 -4.84937 0
M  V30 4112 H 385.868 1.23474 -4.44157 0
M  V30 4113 H 389.412 -1.22042 -6.86842 0
M  V30 4114 H 385.309 -0.0571331 -6.45475 0
M  V30 4115 H 386.077 -1.35935 -8.07133 0
M  V30 4116 N 388.74 1.54641 0.303973 0
M  V30 4117 C 389.968 1.77768 1.05858 0
M  V30 4118 C 390.383 0.535722 1.8104 0
M  V30 4119 O 389.74 -0.494337 1.75677 0
M  V30 4120 C 389.791 2.9834 2.04146 0
M  V30 4121 O 389.512 4.17736 1.32015 0
M  V30 4122 C 391.013 3.33832 2.91669 0
M  V30 4123 H 388.233 0.592961 0.314067 0
M  V30 4124 H 390.777 2.01583 0.344149 0
M  V30 4125 H 388.932 2.76742 2.71096 0
M  V30 4126 H 389.346 4.85693 1.97998 0
M  V30 4127 H 390.82 4.21448 3.56491 0
M  V30 4128 H 391.297 2.51857 3.59812 0
M  V30 4129 H 391.903 3.57579 2.30254 0
M  V30 4130 N 390.218 -0.567019 1.47046 0
M  V30 4131 C 391.168 -1.67018 1.55207 0
M  V30 4132 C 392.152 -1.55543 0.411714 0
M  V30 4133 O 393.344 -1.64192 0.661064 0
M  V30 4134 C 390.473 -3.05801 1.56014 0
M  V30 4135 C 389.559 -3.22515 2.75399 0
M  V30 4136 N 389.95 -3.09329 4.00186 0
M  V30 4137 C 388.248 -3.53493 2.71954 0
M  V30 4138 C 388.949 -3.2847 4.80086 0
M  V30 4139 N 387.925 -3.54352 4.12233 0
M  V30 4140 H 391.727 -1.55377 2.4947 0
M  V30 4141 H 389.241 -0.771503 1.42904 0
M  V30 4142 H 391.238 -3.84996 1.59949 0
M  V30 4143 H 389.898 -3.18561 0.628396 0
M  V30 4144 H 390.909 -2.86863 4.31196 0
M  V30 4145 H 387.586 -3.7284 1.87873 0
M  V30 4146 H 388.976 -3.23326 5.88991 0
M  V30 4147 N 391.696 -1.35014 -0.812953 0
M  V30 4148 C 392.943 -1.27931 -1.56971 0
M  V30 4149 C 393.271 0.148034 -1.93936 0
M  V30 4150 O 392.526 1.11175 -1.61054 0
M  V30 4151 C 392.825 -2.12524 -2.87347 0
M  V30 4152 C 392.491 -3.61401 -2.6963 0
M  V30 4153 C 391.153 -4.01983 -2.64506 0
M  V30 4154 C 393.505 -4.55894 -2.52607 0
M  V30 4155 C 390.833 -5.35235 -2.40293 0
M  V30 4156 C 393.185 -5.89336 -2.29925 0
M  V30 4157 C 391.849 -6.2907 -2.23219 0
M  V30 4158 H 391.119 -0.468131 -0.574399 0
M  V30 4159 H 393.766 -1.66851 -0.939836 0
M  V30 4160 H 392.071 -1.66463 -3.54679 0
M  V30 4161 H 393.768 -2.04383 -3.45005 0
M  V30 4162 H 390.358 -3.29193 -2.74463 0
M  V30 4163 H 394.542 -4.25431 -2.55583 0
M  V30 4164 H 389.798 -5.65028 -2.33566 0
M  V30 4165 H 393.972 -6.62139 -2.15743 0
M  V30 4166 H 391.599 -7.32256 -2.04219 0
M  V30 4167 N 393.175 1.03435 -1.18907 0
M  V30 4168 C 394.138 2.09756 -0.923844 0
M  V30 4169 C 395.138 1.60528 0.093416 0
M  V30 4170 O 396.328 1.73631 -0.140727 0
M  V30 4171 C 393.46 3.38692 -0.387354 0
M  V30 4172 H 394.653 2.34719 -1.86674 0
M  V30 4173 H 392.206 1.19959 -1.00197 0
M  V30 4174 H 392.941 3.19396 0.561845 0
M  V30 4175 H 392.726 3.75742 -1.12074 0
M  V30 4176 H 394.216 4.17016 -0.220694 0
M  V30 4177 N 394.653 0.992116 1.22453 0
M  V30 4178 C 395.93 0.583508 1.86694 0
M  V30 4179 C 396.31 -0.9392 1.89056 0
M  V30 4180 O 395.658 -1.82081 1.38053 0
M  V30 4181 C 395.868 1.20304 3.2761 0
M  V30 4182 C 397.216 1.30308 4.0411 0
M  V30 4183 O 398.24 1.15737 3.36873 0
M  V30 4184 O 397.099 1.53615 5.24466 0
M  V30 4185 H 394.193 0.198129 0.802916 0
M  V30 4186 H 396.739 1.08794 1.30238 0
M  V30 4187 H 395.511 2.24461 3.2052 0
M  V30 4188 H 395.134 0.684144 3.9167 0
M  V30 4189 N 396.131 -1.37776 0.765217 0
M  V30 4190 C 397.094 -2.28686 0.153416 0
M  V30 4191 C 398.094 -1.47727 -0.635081 0
M  V30 4192 O 399.284 -1.68027 -0.459632 0
M  V30 4193 C 396.416 -3.31608 -0.790495 0
M  V30 4194 H 397.609 -2.84297 0.954723 0
M  V30 4195 H 395.162 -1.46932 0.53299 0
M  V30 4196 H 395.897 -2.81109 -1.61705 0
M  V30 4197 H 395.682 -3.9144 -0.227348 0
M  V30 4198 H 397.172 -3.99559 -1.21419 0
M  V30 4199 N 397.609 -0.515225 -1.4894 0
M  V30 4200 C 398.837 0.0206034 -2.0689 0
M  V30 4201 C 399.252 1.29514 -1.37374 0
M  V30 4202 O 398.609 1.76698 -0.456529 0
M  V30 4203 C 398.66 0.26351 -3.60538 0
M  V30 4204 O 398.381 -0.960517 -4.27441 0
M  V30 4205 C 399.882 0.841383 -4.35242 0
M  V30 4206 H 397.102 -0.0268608 -0.670462 0
M  V30 4207 H 399.646 -0.716651 -1.91532 0
M  V30 4208 H 397.801 0.950777 -3.75552 0
M  V30 4209 H 398.215 -0.73212 -5.19365 0
M  V30 4210 H 399.689 0.96085 -5.43573 0
M  V30 4211 H 400.166 1.8427 -3.98674 0
M  V30 4212 H 400.772 0.191143 -4.2487 0
M  V30 4213 N 399.087 1.5561 -0.249682 0
M  V30 4214 C 400.503 1.59254 0.105103 0
M  V30 4215 C 400.703 1.26685 1.56694 0
M  V30 4216 O 399.759 1.0155 2.31179 0
M  V30 4217 C 401.072 2.99687 -0.246592 0
M  V30 4218 C 402.62 3.12416 -0.191118 0
M  V30 4219 C 403.095 4.55074 -0.516885 0
M  V30 4220 N 404.586 4.60835 -0.467489 0
M  V30 4221 C 405.321 5.69201 -0.69268 0
M  V30 4222 N 404.817 6.85817 -0.981146 0
M  V30 4223 N 406.61 5.58635 -0.623198 0
M  V30 4224 H 398.761 1.75049 -1.20298 0
M  V30 4225 H 401.024 0.815003 -0.484225 0
M  V30 4226 H 400.73 3.28267 -1.26228 0
M  V30 4227 H 400.604 3.74798 0.424962 0
M  V30 4228 H 402.991 2.83615 0.815247 0
M  V30 4229 H 403.072 2.39573 -0.896563 0
M  V30 4230 H 402.716 4.84596 -1.52082 0
M  V30 4231 H 402.646 5.26181 0.210068 0
M  V30 4232 H 405.137 3.7705 -0.253373 0
M  V30 4233 H 405.45 7.64341 -1.14032 0
M  V30 4234 H 403.795 6.87494 -1.01865 0
M  V30 4235 H 406.986 4.66406 -0.397863 0
M  V30 4236 H 407.159 6.43017 -0.802093 0
M  V30 4237 N 400.565 -0.0233959 1.57583 0
M  V30 4238 C 401.495 -1.02162 2.09965 0
M  V30 4239 C 402.476 -1.3735 1.00344 0
M  V30 4240 O 403.661 -1.46135 1.27899 0
M  V30 4241 C 400.791 -2.32081 2.58371 0
M  V30 4242 C 399.745 -2.1112 3.72307 0
M  V30 4243 C 399.071 -3.46848 4.06941 0
M  V30 4244 C 400.371 -1.49276 5.00514 0
M  V30 4245 H 402.065 -0.585557 2.93618 0
M  V30 4246 H 399.611 -0.280218 1.41247 0
M  V30 4247 H 401.564 -3.02249 2.93639 0
M  V30 4248 H 400.288 -2.77758 1.71808 0
M  V30 4249 H 398.947 -1.43384 3.37397 0
M  V30 4250 H 398.595 -3.90184 3.17436 0
M  V30 4251 H 398.295 -3.33646 4.83688 0
M  V30 4252 H 399.819 -4.18369 4.44747 0
M  V30 4253 H 401.233 -2.09368 5.33702 0
M  V30 4254 H 399.63 -1.46632 5.8191 0
M  V30 4255 H 400.7 -0.459217 4.82721 0
M  V30 4256 N 402.043 -1.548 -0.295768 0
M  V30 4257 C 403.459 -1.4613 -0.641722 0
M  V30 4258 C 403.659 -0.656771 -1.90496 0
M  V30 4259 O 402.715 -0.166547 -2.5195 0
M  V30 4260 C 404.028 -2.90141 -0.789852 0
M  V30 4261 C 405.576 -3.00216 -0.885396 0
M  V30 4262 C 406.051 -4.45434 -1.06548 0
M  V30 4263 N 407.542 -4.49166 -1.13156 0
M  V30 4264 C 408.277 -5.58717 -1.28929 0
M  V30 4265 N 407.773 -6.78182 -1.41567 0
M  V30 4266 N 409.566 -5.46415 -1.31859 0
M  V30 4267 H 401.717 -2.05574 0.534147 0
M  V30 4268 H 403.98 -0.931259 0.177372 0
M  V30 4269 H 403.686 -3.51635 0.0675598 0
M  V30 4270 H 403.56 -3.37859 -1.67724 0
M  V30 4271 H 405.947 -2.38833 -1.73329 0
M  V30 4272 H 406.028 -2.55787 0.0261185 0
M  V30 4273 H 405.672 -5.07413 -0.222335 0
M  V30 4274 H 405.602 -4.87499 -1.9913 0
M  V30 4275 H 408.093 -3.631 -1.04721 0
M  V30 4276 H 408.406 -7.57428 -1.53372 0
M  V30 4277 H 406.751 -6.81037 -1.38613 0
M  V30 4278 H 409.942 -4.5203 -1.21601 0
M  V30 4279 H 410.115 -6.31841 -1.43808 0
M  V30 4280 N 403.521 0.559213 -1.47345 0
M  V30 4281 C 404.937 0.884943 -1.32819 0
M  V30 4282 C 405.137 1.98988 -0.317173 0
M  V30 4283 O 404.193 2.51031 0.272011 0
M  V30 4284 C 405.506 1.28007 -2.72093 0
M  V30 4285 C 407.054 1.39161 -2.80363 0
M  V30 4286 C 407.529 1.82031 -4.20272 0
M  V30 4287 N 409.02 1.89185 -4.22804 0
M  V30 4288 C 409.755 2.2368 -5.27973 0
M  V30 4289 N 409.251 2.56802 -6.43447 0
M  V30 4290 N 411.044 2.24436 -5.15349 0
M  V30 4291 H 403.195 -0.170304 -2.11716 0
M  V30 4292 H 405.458 -0.0135247 -0.947904 0
M  V30 4293 H 405.164 0.542027 -3.47498 0
M  V30 4294 H 405.038 2.23665 -3.03733 0
M  V30 4295 H 407.425 2.12048 -2.05231 0
M  V30 4296 H 407.506 0.41696 -2.52379 0
M  V30 4297 H 407.15 1.09715 -4.95908 0
M  V30 4298 H 407.08 2.80495 -4.45679 0
M  V30 4299 H 409.571 1.65982 -3.39497 0
M  V30 4300 H 409.884 2.82144 -7.19454 0
M  V30 4301 H 408.229 2.54387 -6.46771 0
M  V30 4302 H 411.42 1.97998 -4.24163 0
M  V30 4303 H 411.593 2.50989 -5.97418 0
M  V30 4304 N 404.999 1.35443 0.805782 0
M  V30 4305 C 406.245 1.2996 1.56467 0
M  V30 4306 C 406.6 -0.124742 1.91995 0
M  V30 4307 O 405.893 -1.07533 1.58579 0
M  V30 4308 C 406.087 2.14045 2.86216 0
M  V30 4309 C 405.916 3.64512 2.63365 0
M  V30 4310 C 404.686 4.33744 2.59219 0
M  V30 4311 C 406.884 4.58142 2.33688 0
M  V30 4312 N 404.866 5.69953 2.28094 0
M  V30 4313 C 406.237 5.8248 2.12408 0
M  V30 4314 C 408.292 4.46877 2.19558 0
M  V30 4315 C 406.995 6.96818 1.78429 0
M  V30 4316 C 409.021 5.61065 1.86976 0
M  V30 4317 C 408.383 6.84431 1.66532 0
M  V30 4318 H 404.482 0.530817 0.574245 0
M  V30 4319 H 407.066 1.70333 0.943126 0
M  V30 4320 H 405.237 1.75942 3.46264 0
M  V30 4321 H 406.969 2.00075 3.51784 0
M  V30 4322 H 403.724 3.86365 2.73896 0
M  V30 4323 H 404.148 6.41845 2.15323 0
M  V30 4324 H 408.79 3.52102 2.34061 0
M  V30 4325 H 406.508 7.91559 1.62664 0
M  V30 4326 H 410.094 5.54302 1.7675 0
M  V30 4327 H 408.974 7.71294 1.41688 0
M  V30 4328 N 406.477 -1.02803 1.19454 0
M  V30 4329 C 407.407 -2.12999 0.956758 0
M  V30 4330 C 408.388 -1.69743 -0.110188 0
M  V30 4331 O 409.573 -1.94148 0.0450038 0
M  V30 4332 C 406.703 -3.43746 0.495553 0
M  V30 4333 C 405.657 -4.00688 1.50443 0
M  V30 4334 C 404.983 -5.27067 0.900275 0
M  V30 4335 C 406.283 -4.35397 2.8849 0
M  V30 4336 H 407.977 -2.33148 1.87836 0
M  V30 4337 H 405.523 -1.12045 0.904539 0
M  V30 4338 H 407.476 -4.2021 0.316493 0
M  V30 4339 H 406.2 -3.23321 -0.461646 0
M  V30 4340 H 404.859 -3.2632 1.67065 0
M  V30 4341 H 404.507 -5.02959 -0.064503 0
M  V30 4342 H 404.207 -5.66127 1.57397 0
M  V30 4343 H 405.731 -6.06196 0.73203 0
M  V30 4344 H 407.145 -5.02795 2.75446 0
M  V30 4345 H 405.542 -4.85541 3.52661 0
M  V30 4346 H 406.612 -3.44662 3.41081 0
M  V30 4347 N 407.956 -0.998596 -1.21925 0
M  V30 4348 C 408.866 -0.562736 -2.27751 0
M  V30 4349 C 409.882 0.391203 -1.69545 0
M  V30 4350 O 411.058 0.256625 -1.99758 0
M  V30 4351 C 408.123 0.11012 -3.46525 0
M  V30 4352 C 407.184 -0.887495 -4.20026 0
M  V30 4353 C 406.417 -0.246654 -5.3313 0
M  V30 4354 O 406.64 0.958088 -5.62296 0
M  V30 4355 O 405.574 -0.954374 -5.94286 0
M  V30 4356 H 409.4 -1.44329 -2.67213 0
M  V30 4357 H 406.985 -0.767135 -1.28201 0
M  V30 4358 H 408.867 0.486756 -4.18579 0
M  V30 4359 H 407.542 0.965154 -3.08976 0
M  V30 4360 H 406.449 -1.31517 -3.5022 0
M  V30 4361 H 407.782 -1.71191 -4.6147 0
M  V30 4362 N 409.434 1.37368 -0.772513 0
M  V30 4363 C 410.662 2.03942 -0.348588 0
M  V30 4364 C 411.077 1.58264 1.02947 0
M  V30 4365 O 410.434 0.764246 1.65727 0
M  V30 4366 C 410.485 3.5946 -0.38351 0
M  V30 4367 O 410.206 4.03468 -1.70721 0
M  V30 4368 C 411.707 4.4327 0.0519152 0
M  V30 4369 H 408.927 0.654931 -0.145966 0
M  V30 4370 H 411.471 1.75686 -1.04665 0
M  V30 4371 H 409.626 3.86486 0.265978 0
M  V30 4372 H 410.04 4.97991 -1.64636 0
M  V30 4373 H 411.514 5.51995 -0.0236733 0
M  V30 4374 H 411.991 4.2514 1.10238 0
M  V30 4375 H 412.597 4.21471 -0.569415 0
M  V30 4376 N 410.912 0.523116 1.48665 0
M  V30 4377 C 412.16 -0.0134497 2.02096 0
M  V30 4378 C 412.481 -1.35418 1.40311 0
M  V30 4379 O 411.751 -1.87543 0.566074 0
M  V30 4380 H 410.331 -0.00795915 0.746958 0
M  V30 4381 H 412.993 0.685388 1.82451 0
M  V30 4382 H 412.089 -0.126849 3.11842 0
M  V30 4383 N 412.39 -1.55475 0.257931 0
M  V30 4384 C 413.322 -2.19192 -0.669881 0
M  V30 4385 C 414.335 -1.17148 -1.1305 0
M  V30 4386 O 415.524 -1.43959 -1.05537 0
M  V30 4387 C 412.624 -2.79016 -1.92363 0
M  V30 4388 C 411.797 -4.06586 -1.61265 0
M  V30 4389 C 410.856 -4.50622 -2.7171 0
M  V30 4390 O 409.882 -5.16765 -2.38627 0
M  V30 4391 N 411.084 -4.19325 -4.01431 0
M  V30 4392 H 413.849 -2.99441 -0.124635 0
M  V30 4393 H 411.41 -1.6171 0.0783311 0
M  V30 4394 H 413.402 -3.05427 -2.65511 0
M  V30 4395 H 411.972 -2.0286 -2.37837 0
M  V30 4396 H 411.192 -3.87646 -0.715811 0
M  V30 4397 H 412.48 -4.89737 -1.37967 0
M  V30 4398 H 411.878 -3.66247 -4.31138 0
M  V30 4399 H 410.435 -4.50547 -4.7101 0
M  V30 4400 N 413.868 0.0150385 -1.57593 0
M  V30 4401 C 415.114 0.704043 -1.90187 0
M  V30 4402 C 415.447 1.74249 -0.857366 0
M  V30 4403 O 414.722 1.94092 0.125843 0
M  V30 4404 C 415.005 1.36087 -3.33395 0
M  V30 4405 C 414.858 0.334981 -4.48551 0
M  V30 4406 C 416.177 2.29112 -3.7576 0
M  V30 4407 H 413.296 0.254475 -0.691673 0
M  V30 4408 H 415.938 -0.0331678 -1.89971 0
M  V30 4409 H 414.088 1.98922 -3.3371 0
M  V30 4410 H 415.76 -0.292534 -4.60372 0
M  V30 4411 H 414.003 -0.344325 -4.32431 0
M  V30 4412 H 414.674 0.833316 -5.45674 0
M  V30 4413 H 417.15 1.76308 -3.76902 0
M  V30 4414 H 416.026 2.72043 -4.76743 0
M  V30 4415 H 416.287 3.16385 -3.08793 0
M  V30 4416 N 415.346 1.54954 0.287554 0
M  V30 4417 C 416.574 1.78881 1.03967 0
M  V30 4418 C 416.989 0.554894 1.80462 0
M  V30 4419 O 416.346 -0.475676 1.76192 0
M  V30 4420 C 416.397 3.00488 2.0097 0
M  V30 4421 O 416.118 4.19113 1.27577 0
M  V30 4422 C 417.619 3.36907 2.88112 0
M  V30 4423 H 414.839 0.596259 0.307761 0
M  V30 4424 H 417.383 2.01937 0.322749 0
M  V30 4425 H 415.538 2.79601 2.68145 0
M  V30 4426 H 415.952 4.87765 1.92835 0
M  V30 4427 H 417.426 4.25205 3.52001 0
M  V30 4428 H 417.903 2.55659 3.57121 0
M  V30 4429 H 418.509 3.60001 2.26449 0
M  V30 4430 N 416.824 -0.551391 1.4764 0
M  V30 4431 C 417.787 -1.64007 1.60107 0
M  V30 4432 C 418.787 -1.53601 0.47576 0
M  V30 4433 O 419.977 -1.57655 0.740988 0
M  V30 4434 C 417.109 -3.03569 1.55108 0
M  V30 4435 H 418.302 -1.543 2.57161 0
M  V30 4436 H 415.855 -0.771776 1.35917 0
M  V30 4437 H 416.59 -3.18804 0.594519 0
M  V30 4438 H 416.375 -3.12532 2.36783 0
M  V30 4439 H 417.865 -3.82762 1.66982 0
M  V30 4440 N 418.302 -1.35869 -0.798587 0
M  V30 4441 C 419.551 -1.28921 -1.5512 0
M  V30 4442 C 419.864 0.13208 -1.95154 0
M  V30 4443 O 421.07 0.323879 -2.69561 0
M  V30 4444 C 419.526 -2.26141 -2.79979 0
M  V30 4445 C 419.134 -3.73658 -2.47151 0
M  V30 4446 C 420.878 -2.28152 -3.57976 0
M  V30 4447 C 418.785 -4.62679 -3.6835 0
M  V30 4448 H 417.715 -0.479031 -0.582276 0
M  V30 4449 H 420.366 -1.61179 -0.877125 0
M  V30 4450 H 418.748 -1.86865 -3.49138 0
M  V30 4451 H 419.922 -4.21616 -1.85947 0
M  V30 4452 H 418.237 -3.74333 -1.82383 0
M  V30 4453 H 420.834 -2.91875 -4.4801 0
M  V30 4454 H 421.177 -1.28748 -3.95891 0
M  V30 4455 H 421.71 -2.65998 -2.95787 0
M  V30 4456 H 418.449 -5.63111 -3.35538 0
M  V30 4457 H 417.969 -4.19442 -4.28752 0
M  V30 4458 H 419.648 -4.78498 -4.35487 0
M  V30 4459 N 419.78 1.02168 -1.19998 0
M  V30 4460 C 421.191 1.57135 -1.00825 0
M  V30 4461 C 421.542 1.91276 0.436818 0
M  V30 4462 O 420.667 1.71679 1.3174 0
M  V30 4463 C 421.262 2.85514 -1.82393 0
M  V30 4464 C 419.821 3.37027 -1.67601 0
M  V30 4465 C 418.968 2.10388 -1.80644 0
M  V30 4466 H 421.919 0.846106 -1.34264 0
M  V30 4467 H 421.94 3.56711 -1.32429 0
M  V30 4468 H 421.452 2.60634 -2.87561 0
M  V30 4469 H 419.553 3.66878 -0.650485 0
M  V30 4470 H 419.666 4.09572 -2.4857 0
M  V30 4471 H 418.03 2.22601 -1.23778 0
M  V30 4472 H 418.813 1.8794 -2.87286 0
M  V30 4473 N 421.258 1.00505 1.21394 0
M  V30 4474 C 422.221 0.570459 2.21987 0
M  V30 4475 C 423.221 -0.353211 1.56873 0
M  V30 4476 O 424.411 -0.14349 1.73608 0
M  V30 4477 C 421.543 -0.168555 3.40483 0
M  V30 4478 H 422.736 1.46021 2.6195 0
M  V30 4479 H 420.289 0.793565 1.34656 0
M  V30 4480 H 421.024 -1.07374 3.06009 0
M  V30 4481 H 420.809 0.494823 3.88965 0
M  V30 4482 H 422.299 -0.460362 4.15055 0
M  V30 4483 N 422.737 -1.36956 0.779787 0
M  V30 4484 C 423.7 -2.2851 0.177662 0
M  V30 4485 C 424.7 -1.48393 -0.619377 0
M  V30 4486 O 425.89 -1.68505 -0.441785 0
M  V30 4487 C 423.022 -3.32428 -0.755279 0
M  V30 4488 H 424.215 -2.83269 0.984823 0
M  V30 4489 H 421.768 -1.46358 0.548544 0
M  V30 4490 H 422.503 -2.82808 -1.58714 0
M  V30 4491 H 422.288 -3.91659 -0.185817 0
M  V30 4492 H 423.778 -4.00824 -1.17174 0
M  V30 4493 N 424.215 -0.530993 -1.48385 0
M  V30 4494 C 425.178 0.220497 -2.28137 0
M  V30 4495 C 426.178 0.866851 -1.35434 0
M  V30 4496 O 427.368 0.726746 -1.58316 0
M  V30 4497 C 424.5 1.31921 -3.1434 0
M  V30 4498 H 425.693 -0.479714 -2.96038 0
M  V30 4499 H 423.246 -0.286968 -1.53643 0
M  V30 4500 H 423.981 2.05264 -2.51072 0
M  V30 4501 H 423.766 0.86085 -3.82533 0
M  V30 4502 H 425.256 1.84776 -3.74497 0
M  V30 4503 N 425.693 1.55336 -0.266172 0
M  V30 4504 C 426.64 2.22172 0.625165 0
M  V30 4505 C 427.61 1.19211 1.15663 0
M  V30 4506 O 428.795 1.47723 1.20758 0
M  V30 4507 C 425.935 2.93972 1.8076 0
M  V30 4508 C 425.048 4.11632 1.31084 0
M  V30 4509 C 424.183 4.71099 2.45436 0
M  V30 4510 C 423.222 5.8097 1.92718 0
M  V30 4511 N 422.359 6.34538 3.00509 0
M  V30 4512 H 427.199 2.9796 0.0485582 0
M  V30 4513 H 424.736 1.47095 0.0122024 0
M  V30 4514 H 426.694 3.33811 2.50251 0
M  V30 4515 H 425.324 2.20623 2.35638 0
M  V30 4516 H 424.376 3.76975 0.509326 0
M  V30 4517 H 425.688 4.90893 0.884633 0
M  V30 4518 H 424.842 5.13612 3.22936 0
M  V30 4519 H 423.581 3.91096 2.91368 0
M  V30 4520 H 422.586 5.37916 1.13695 0
M  V30 4521 H 423.811 6.62836 1.47733 0
M  V30 4522 H 421.757 5.57433 3.45839 0
M  V30 4523 H 421.674 7.09046 2.62279 0
M  V30 4524 H 422.942 6.81709 3.78011 0
M  V30 4525 N 427.171 -0.0066808 1.57599 0
M  V30 4526 C 428.134 -0.985035 2.06953 0
M  V30 4527 C 429.134 -1.27663 0.977687 0
M  V30 4528 O 430.324 -1.22293 1.24057 0
M  V30 4529 C 427.456 -2.3118 2.50536 0
M  V30 4530 H 428.649 -0.558255 2.94658 0
M  V30 4531 H 426.202 -0.254011 1.54222 0
M  V30 4532 H 426.937 -2.78561 1.66054 0
M  V30 4533 H 426.722 -2.11338 3.3027 0
M  V30 4534 H 428.212 -3.01377 2.8907 0
M  V30 4535 N 428.649 -1.55105 -0.279332 0
M  V30 4536 C 429.879 -1.7917 -1.02867 0
M  V30 4537 C 430.287 -0.56204 -1.80659 0
M  V30 4538 O 429.63 0.478266 -1.77365 0
M  V30 4539 C 429.692 -2.96061 -2.03932 0
M  V30 4540 C 429.356 -4.33341 -1.45137 0
M  V30 4541 C 430.353 -5.12565 -0.870266 0
M  V30 4542 C 428.038 -4.79987 -1.48048 0
M  V30 4543 C 430.032 -6.36565 -0.326097 0
M  V30 4544 C 427.719 -6.03944 -0.932443 0
M  V30 4545 C 428.717 -6.8207 -0.356247 0
M  V30 4546 O 428.405 -8.03691 0.183412 0
M  V30 4547 H 428.137 -0.600796 -0.309872 0
M  V30 4548 H 430.691 -2.02932 -0.317468 0
M  V30 4549 H 428.921 -2.67975 -2.78794 0
M  V30 4550 H 430.61 -3.07506 -2.64943 0
M  V30 4551 H 431.376 -4.77661 -0.840521 0
M  V30 4552 H 427.255 -4.1919 -1.91835 0
M  V30 4553 H 430.799 -6.97489 0.124286 0
M  V30 4554 H 426.696 -6.3833 -0.959407 0
M  V30 4555 H 427.464 -8.18468 0.0721681 0
M  V30 4556 N 430.127 0.543554 -1.4793 0
M  V30 4557 C 431.543 0.870806 -1.3375 0
M  V30 4558 C 431.743 1.9864 -0.338261 0
M  V30 4559 O 430.799 2.51305 0.245371 0
M  V30 4560 C 432.112 1.25114 -2.73435 0
M  V30 4561 C 433.66 1.3618 -2.81823 0
M  V30 4562 C 434.135 1.77563 -4.22179 0
M  V30 4563 N 435.626 1.8469 -4.24787 0
M  V30 4564 C 436.361 2.18067 -5.30315 0
M  V30 4565 N 435.857 2.49963 -6.46135 0
M  V30 4566 N 437.65 2.18958 -5.17701 0
M  V30 4567 H 429.801 -0.19275 -2.11524 0
M  V30 4568 H 432.064 -0.0235777 -0.947707 0
M  V30 4569 H 431.77 0.50514 -3.48053 0
M  V30 4570 H 431.644 2.20431 -3.06088 0
M  V30 4571 H 434.031 2.09859 -2.07468 0
M  V30 4572 H 434.112 0.390169 -2.52807 0
M  V30 4573 H 433.756 1.04449 -4.97044 0
M  V30 4574 H 433.686 2.75753 -4.48629 0
M  V30 4575 H 436.177 1.62372 -3.41239 0
M  V30 4576 H 436.49 2.74497 -7.22406 0
M  V30 4577 H 434.835 2.47513 -6.49432 0
M  V30 4578 H 438.026 1.93488 -4.2624 0
M  V30 4579 H 438.199 2.44639 -6.00047 0
M  V30 4580 N 431.605 1.3629 0.791371 0
M  V30 4581 C 432.535 1.33137 1.91825 0
M  V30 4582 C 433.516 0.203168 1.68882 0
M  V30 4583 O 434.701 0.400509 1.90025 0
M  V30 4584 C 431.831 1.11793 3.28816 0
M  V30 4585 C 430.785 2.21417 3.66277 0
M  V30 4586 C 430.111 1.85218 5.01596 0
M  V30 4587 C 431.411 3.63489 3.75064 0
M  V30 4588 H 433.105 2.2743 1.9472 0
M  V30 4589 H 430.651 1.09479 0.935437 0
M  V30 4590 H 432.604 1.08222 4.07266 0
M  V30 4591 H 431.328 0.139501 3.26302 0
M  V30 4592 H 429.987 2.2411 2.90121 0
M  V30 4593 H 429.635 0.859544 4.95602 0
M  V30 4594 H 429.335 2.58611 5.27631 0
M  V30 4595 H 430.859 1.832 5.82469 0
M  V30 4596 H 432.273 3.63034 4.43711 0
M  V30 4597 H 430.67 4.35771 4.12582 0
M  V30 4598 H 431.74 3.98536 2.76219 0
M  V30 4599 N 433.083 -1.0153 1.20538 0
M  V30 4600 C 434.015 -2.10224 0.913155 0
M  V30 4601 C 435.028 -1.62495 -0.0995998 0
M  V30 4602 O 436.217 -1.78014 0.131582 0
M  V30 4603 C 433.317 -3.37111 0.347717 0
M  V30 4604 C 432.49 -4.13971 1.41233 0
M  V30 4605 C 431.549 -5.19158 0.857976 0
M  V30 4606 O 430.575 -5.48 1.53897 0
M  V30 4607 N 431.777 -5.7955 -0.331966 0
M  V30 4608 H 434.542 -2.35879 1.84881 0
M  V30 4609 H 432.103 -1.17931 1.10923 0
M  V30 4610 H 434.095 -4.04683 -0.0373026 0
M  V30 4611 H 432.665 -3.08696 -0.492527 0
M  V30 4612 H 431.885 -3.41351 1.97163 0
M  V30 4613 H 433.173 -4.62103 2.12928 0
M  V30 4614 H 432.571 -5.58455 -0.902478 0
M  V30 4615 H 431.128 -6.48464 -0.65861 0
M  V30 4616 N 434.561 -1.01147 -1.20859 0
M  V30 4617 C 435.977 -0.725422 -1.42161 0
M  V30 4618 C 436.177 0.696919 -1.89064 0
M  V30 4619 O 435.233 1.46539 -2.05627 0
M  V30 4620 C 436.546 -1.74678 -2.44761 0
M  V30 4621 C 438.094 -1.76433 -2.58535 0
M  V30 4622 C 438.569 -2.77481 -3.64374 0
M  V30 4623 N 440.06 -2.76189 -3.71852 0
M  V30 4624 C 440.795 -3.51035 -4.53389 0
M  V30 4625 N 440.291 -4.35541 -5.38773 0
M  V30 4626 N 442.084 -3.39655 -4.47873 0
M  V30 4627 H 434.235 -1.92979 -0.887282 0
M  V30 4628 H 436.498 -0.833327 -0.451962 0
M  V30 4629 H 436.204 -2.76551 -2.17285 0
M  V30 4630 H 436.078 -1.55472 -3.43669 0
M  V30 4631 H 438.465 -0.75248 -2.85345 0
M  V30 4632 H 438.546 -1.99712 -1.5984 0
M  V30 4633 H 438.19 -3.78827 -3.38308 0
M  V30 4634 H 438.12 -2.51466 -4.6268 0
M  V30 4635 H 440.611 -2.14885 -3.10858 0
M  V30 4636 H 440.924 -4.89432 -5.98061 0
M  V30 4637 H 439.269 -4.39621 -5.38292 0
M  V30 4638 H 442.46 -2.73063 -3.80203 0
M  V30 4639 H 442.633 -3.9824 -5.11184 0
M  V30 4640 N 436.039 1.36541 -0.78704 0
M  V30 4641 C 437.316 1.9355 -0.282424 0
M  V30 4642 C 437.696 1.71919 1.22503 0
M  V30 4643 O 437.044 1.07677 2.01539 0
M  V30 4644 C 437.254 3.4246 -0.672462 0
M  V30 4645 C 438.602 4.19582 -0.650863 0
M  V30 4646 O 439.626 3.50889 -0.612789 0
M  V30 4647 O 438.485 5.42106 -0.691623 0
M  V30 4648 H 435.579 0.824091 -0.0693 0
M  V30 4649 H 438.125 1.45736 -0.869423 0
M  V30 4650 H 436.897 3.51851 -1.71221 0
M  V30 4651 H 436.52 3.97556 -0.0592211 0
M  V30 4652 N 437.518 0.538854 1.48102 0
M  V30 4653 C 438.934 0.19732 1.58376 0
M  V30 4654 C 439.134 -1.29971 1.5398 0
M  V30 4655 O 438.19 -2.07861 1.43352 0
M  V30 4656 C 439.503 0.807716 2.89649 0
M  V30 4657 C 441.051 0.77726 3.03196 0
M  V30 4658 C 441.526 1.36639 4.37143 0
M  V30 4659 N 443.017 1.32875 4.43732 0
M  V30 4660 C 443.752 1.7544 5.45901 0
M  V30 4661 N 443.248 2.25776 6.54979 0
M  V30 4662 N 445.041 1.66623 5.36836 0
M  V30 4663 H 437.192 1.5117 1.49202 0
M  V30 4664 H 439.455 0.629327 0.708979 0
M  V30 4665 H 439.161 1.85909 2.98548 0
M  V30 4666 H 439.035 0.289975 3.76084 0
M  V30 4667 H 441.422 -0.265374 2.93904 0
M  V30 4668 H 441.503 1.33256 2.18349 0
M  V30 4669 H 441.147 2.408 4.47189 0
M  V30 4670 H 441.077 0.786689 5.20691 0
M  V30 4671 H 443.568 0.96037 3.65493 0
M  V30 4672 H 443.881 2.56226 7.29087 0
M  V30 4673 H 442.226 2.29775 6.55918 0
M  V30 4674 H 445.417 1.27089 4.50517 0
M  V30 4675 H 445.59 2.00115 6.16326 0
M  V30 4676 N 438.996 -1.55193 0.274407 0
M  V30 4677 C 439.906 -2.26164 -0.623473 0
M  V30 4678 C 440.922 -1.28729 -1.17068 0
M  V30 4679 O 442.098 -1.61663 -1.20112 0
M  V30 4680 C 439.163 -2.96833 -1.7914 0
M  V30 4681 C 438.224 -4.09745 -1.28093 0
M  V30 4682 C 437.457 -4.77034 -2.3932 0
M  V30 4683 O 437.68 -4.4353 -3.5866 0
M  V30 4684 O 436.614 -5.64996 -2.07516 0
M  V30 4685 H 440.44 -3.03661 -0.0485661 0
M  V30 4686 H 438.025 -1.49341 0.0418382 0
M  V30 4687 H 439.907 -3.41248 -2.4724 0
M  V30 4688 H 438.582 -2.22253 -2.35341 0
M  V30 4689 H 437.489 -3.69787 -0.566416 0
M  V30 4690 H 438.822 -4.86224 -0.764683 0
M  V30 4691 N 440.474 -0.00167713 -1.576 0
M  V30 4692 C 441.89 0.354422 -1.55615 0
M  V30 4693 C 442.09 1.74679 -1.00447 0
M  V30 4694 O 441.146 2.4428 -0.639022 0
M  V30 4695 C 442.459 0.22812 -2.99833 0
M  V30 4696 C 444.007 0.302934 -3.11531 0
M  V30 4697 C 444.482 0.205737 -4.57538 0
M  V30 4698 N 445.973 0.263584 -4.62449 0
M  V30 4699 C 446.708 0.211742 -5.73009 0
M  V30 4700 N 446.204 0.110399 -6.92712 0
M  V30 4701 N 447.997 0.263729 -5.61481 0
M  V30 4702 H 440.148 -0.912498 -1.918 0
M  V30 4703 H 442.411 -0.349928 -0.881053 0
M  V30 4704 H 442.117 -0.729934 -3.44042 0
M  V30 4705 H 441.991 1.00951 -3.6344 0
M  V30 4706 H 444.378 1.25143 -2.67251 0
M  V30 4707 H 444.459 -0.508357 -2.50698 0
M  V30 4708 H 444.103 -0.739225 -5.02492 0
M  V30 4709 H 444.033 1.03554 -5.16318 0
M  V30 4710 H 446.524 0.343173 -3.76339 0
M  V30 4711 H 446.837 0.0767828 -7.72762 0
M  V30 4712 H 445.182 0.0760025 -6.94958 0
M  V30 4713 H 448.373 0.34111 -4.66855 0
M  V30 4714 H 448.546 0.219862 -6.47627 0
M  V30 4715 N 441.952 1.55251 0.271103 0
M  V30 4716 C 443.2 1.75599 1.00047 0
M  V30 4717 C 443.521 0.561188 1.8675 0
M  V30 4718 O 442.791 -0.423846 1.9126 0
M  V30 4719 H 441.371 0.647562 0.372387 0
M  V30 4720 H 444.033 1.92656 0.294876 0
M  V30 4721 H 443.129 2.65766 1.6363 0
M  V30 4722 N 443.43 -0.535701 1.48216 0
M  V30 4723 C 444.36 -1.65014 1.65204 0
M  V30 4724 C 445.341 -1.62554 0.501011 0
M  V30 4725 O 446.526 -1.7984 0.732886 0
M  V30 4726 C 443.656 -3.03616 1.68626 0
M  V30 4727 C 442.61 -3.20932 2.83172 0
M  V30 4728 C 441.936 -4.60537 2.71679 0
M  V30 4729 C 443.236 -3.04249 4.24535 0
M  V30 4730 H 444.93 -1.51053 2.58502 0
M  V30 4731 H 442.476 -0.725262 1.24402 0
M  V30 4732 H 444.429 -3.81446 1.79099 0
M  V30 4733 H 443.153 -3.18587 0.719026 0
M  V30 4734 H 441.812 -2.45517 2.72244 0
M  V30 4735 H 441.46 -4.72336 1.72937 0
M  V30 4736 H 441.16 -4.73069 3.48538 0
M  V30 4737 H 442.684 -5.40475 2.84112 0
M  V30 4738 H 444.098 -3.71877 4.36326 0
M  V30 4739 H 442.495 -3.28278 5.02348 0
M  V30 4740 H 443.565 -2.00739 4.41397 0
M  V30 4741 N 444.908 -1.36708 -0.784132 0
M  V30 4742 C 446.156 -1.30972 -1.53918 0
M  V30 4743 C 446.477 0.109086 -1.94695 0
M  V30 4744 O 445.747 1.05048 -1.65353 0
M  V30 4745 H 444.327 -0.481819 -0.570841 0
M  V30 4746 H 446.989 -1.71063 -0.934002 0
M  V30 4747 H 446.085 -1.94061 -2.44431 0
M  V30 4748 N 446.386 1.0089 -1.21074 0
M  V30 4749 C 447.318 2.09737 -0.924291 0
M  V30 4750 C 448.331 1.62546 0.0909809 0
M  V30 4751 O 449.52 1.77942 -0.141021 0
M  V30 4752 C 446.62 3.36922 -0.36559 0
M  V30 4753 C 445.793 4.13216 -1.43426 0
M  V30 4754 C 444.852 5.18696 -0.885496 0
M  V30 4755 O 443.878 5.47176 -1.56801 0
M  V30 4756 N 445.08 5.79718 0.301227 0
M  V30 4757 H 447.845 2.34895 -1.8613 0
M  V30 4758 H 445.406 1.17341 -1.11546 0
M  V30 4759 H 447.398 4.04697 0.0158407 0
M  V30 4760 H 445.968 3.08952 0.476149 0
M  V30 4761 H 445.188 3.40301 -1.9897 0
M  V30 4762 H 446.476 4.60967 -2.15376 0
M  V30 4763 H 445.874 5.58926 0.872849 0
M  V30 4764 H 444.431 6.48804 0.624211 0
M  V30 4765 N 447.864 1.01787 1.20321 0
M  V30 4766 C 449.275 0.739307 1.71438 0
M  V30 4767 C 449.626 -0.742041 1.81627 0
M  V30 4768 O 448.751 -1.57903 1.47971 0
M  V30 4769 C 449.346 1.33538 3.11373 0
M  V30 4770 C 447.905 1.10566 3.59795 0
M  V30 4771 C 447.052 1.44028 2.36962 0
M  V30 4772 H 450.003 1.18718 1.05317 0
M  V30 4773 H 450.024 0.726611 3.73498 0
M  V30 4774 H 449.536 2.41352 3.03926 0
M  V30 4775 H 447.637 0.0452405 3.72573 0
M  V30 4776 H 447.75 1.78661 4.44542 0
M  V30 4777 H 446.114 0.85933 2.39766 0
M  V30 4778 H 446.897 2.52901 2.32155 0
M  V30 4779 N 449.342 -1.36122 0.79427 0
M  V30 4780 C 450.588 -1.99406 0.369452 0
M  V30 4781 C 450.921 -1.62886 -1.05743 0
M  V30 4782 O 450.196 -0.886053 -1.73145 0
M  V30 4783 C 450.479 -3.56046 0.538833 0
M  V30 4784 C 450.332 -4.02404 2.00976 0
M  V30 4785 C 451.651 -4.40079 -0.0431359 0
M  V30 4786 H 448.77 -0.724397 0.135712 0
M  V30 4787 H 451.412 -1.61461 1.00151 0
M  V30 4788 H 449.562 -3.885 0.000771004 0
M  V30 4789 H 451.234 -3.80415 2.60926 0
M  V30 4790 H 449.477 -3.53765 2.51063 0
M  V30 4791 H 450.148 -5.11344 2.07922 0
M  V30 4792 H 452.624 -4.14013 0.416228 0
M  V30 4793 H 451.5 -5.48799 0.105374 0
M  V30 4794 H 451.761 -4.27264 -1.13571 0
M  V30 4795 N 450.82 -0.546701 -1.47814 0
M  V30 4796 C 451.783 0.196287 -2.28358 0
M  V30 4797 C 452.783 0.852437 -1.36346 0
M  V30 4798 O 453.973 0.709913 -1.59078 0
M  V30 4799 C 451.105 1.28579 -3.15722 0
M  V30 4800 H 452.298 -0.511086 -2.95513 0
M  V30 4801 H 449.851 -0.303248 -1.5333 0
M  V30 4802 H 450.586 2.0259 -2.53235 0
M  V30 4803 H 450.371 0.820229 -3.83425 0
M  V30 4804 H 451.861 1.80793 -3.76435 0
M  V30 4805 N 452.299 1.55045 -0.282633 0
M  V30 4806 C 453.231 2.2023 0.634924 0
M  V30 4807 C 454.244 1.18931 1.11172 0
M  V30 4808 O 455.433 1.4562 1.03233 0
M  V30 4809 C 452.533 2.82041 1.87899 0
M  V30 4810 C 451.706 4.091 1.54776 0
M  V30 4811 C 450.765 4.54887 2.64507 0
M  V30 4812 O 449.791 5.20496 2.30375 0
M  V30 4813 N 450.993 4.25659 3.94709 0
M  V30 4814 H 453.758 2.99601 0.0769811 0
M  V30 4815 H 451.319 1.61565 -0.104048 0
M  V30 4816 H 453.311 3.09613 2.60619 0
M  V30 4817 H 451.881 2.06618 2.3458 0
M  V30 4818 H 451.101 3.88736 0.654049 0
M  V30 4819 H 452.389 4.9187 1.30158 0
M  V30 4820 H 451.787 3.7306 4.25256 0
M  V30 4821 H 450.344 4.57984 4.63782 0
M  V30 4822 N 453.777 0.010035 1.57597 0
M  V30 4823 C 454.74 -0.963029 2.07986 0
M  V30 4824 C 455.74 -1.26619 0.991173 0
M  V30 4825 O 456.93 -1.2097 1.25347 0
M  V30 4826 C 454.062 -2.2851 2.52974 0
M  V30 4827 H 455.255 -0.526971 2.95234 0
M  V30 4828 H 452.808 -0.237639 1.54483 0
M  V30 4829 H 453.543 -2.76784 1.69 0
M  V30 4830 H 453.328 -2.07824 3.32493 0
M  V30 4831 H 454.818 -2.98294 2.9225 0
M  V30 4832 N 455.255 -1.55392 -0.262866 0
M  V30 4833 C 456.501 -1.76737 -0.99458 0
M  V30 4834 C 456.834 -0.572453 -1.85571 0
M  V30 4835 O 456.109 0.429732 -1.89693 0
M  V30 4836 C 456.392 -3.07824 -1.8686 0
M  V30 4837 C 456.245 -4.3769 -1.03672 0
M  V30 4838 C 457.564 -3.35021 -2.85393 0
M  V30 4839 H 454.683 -0.643005 -0.360157 0
M  V30 4840 H 457.325 -1.88126 -0.266216 0
M  V30 4841 H 455.475 -2.98245 -2.48962 0
M  V30 4842 H 457.147 -4.59238 -0.43563 0
M  V30 4843 H 455.39 -4.32461 -0.340513 0
M  V30 4844 H 456.061 -5.25759 -1.6817 0
M  V30 4845 H 458.537 -3.44458 -2.33426 0
M  V30 4846 H 457.413 -4.27989 -3.43681 0
M  V30 4847 H 457.674 -2.55153 -3.61039 0
M  V30 4848 N 456.733 0.527833 -1.48498 0
M  V30 4849 C 458.149 0.856571 -1.34666 0
M  V30 4850 C 458.349 1.98271 -0.35931 0
M  V30 4851 O 457.405 2.51551 0.218703 0
M  V30 4852 C 458.718 1.22207 -2.74747 0
M  V30 4853 C 460.266 1.33183 -2.83251 0
M  V30 4854 C 460.741 1.73075 -4.24039 0
M  V30 4855 N 462.232 1.80174 -4.26722 0
M  V30 4856 C 462.967 2.1243 -5.32598 0
M  V30 4857 N 462.463 2.43096 -6.4875 0
M  V30 4858 N 464.256 2.13454 -5.19994 0
M  V30 4859 H 456.407 -0.215174 -2.11307 0
M  V30 4860 H 458.67 -0.0336281 -0.947403 0
M  V30 4861 H 458.376 0.468195 -3.4857 0
M  V30 4862 H 458.25 2.17173 -3.08409 0
M  V30 4863 H 460.637 2.07647 -2.09683 0
M  V30 4864 H 460.718 0.363333 -2.53206 0
M  V30 4865 H 460.362 0.991712 -4.98124 0
M  V30 4866 H 460.292 2.70979 -4.51529 0
M  V30 4867 H 462.783 1.58744 -3.42942 0
M  V30 4868 H 463.096 2.6682 -7.25277 0
M  V30 4869 H 461.441 2.40611 -6.52021 0
M  V30 4870 H 464.632 1.88956 -4.28268 0
M  V30 4871 H 464.805 2.38261 -6.02608 0
M  V30 4872 O 458.25 1.46817 0.672841 0
M  V30 4873 H 458.941 1.41236 1.3256 0
M  V30 END ATOM
M  V30 BEGIN BOND
M  V30 END BOND
M  V30 END CTAB
M  END
$$$$
