drugbank_target|P72355 Penicillin-binding protein 4 (DB01598; DB06211)
 OpenBabel12092121043D

  0  0  0     0  0            999 V3000
M  V30 BEGIN CTAB
M  V30 COUNTS 6834 6898 0 0 0
M  V30 BEGIN ATOM
M  V30 1 H -0.908 1.98254 -0.117106 0
M  V30 2 N 0 1.576 0 0
M  V30 3 C 0.933 2.03868 1.02534 0
M  V30 4 C 1.911 0.928543 1.3348 0
M  V30 5 O 3.095 1.19667 1.45644 0
M  V30 6 C 0.222 2.43627 2.35294 0
M  V30 7 C -0.732 3.65373 2.2001 0
M  V30 8 S 0.101 5.13292 1.52614 0
M  V30 9 C 1.257 5.56322 2.86805 0
M  V30 10 H 1.49 2.90518 0.631377 0
M  V30 11 H -0.977 1.52953 0.210867 0
M  V30 12 H 0.981 2.67203 3.11629 0
M  V30 13 H -0.358 1.57376 2.7183 0
M  V30 14 H -1.165 3.90944 3.18086 0
M  V30 15 H -1.563 3.418 1.51819 0
M  V30 16 H 0.729 5.58782 3.83104 0
M  V30 17 H 1.672 6.56266 2.65933 0
M  V30 18 H 2.08 4.83886 2.90714 0
M  V30 19 N 1.4781 -0.272755 1.55222 0
M  V30 20 C 2.4251 -1.33716 1.88119 0
M  V30 21 C 3.3951 -1.49066 0.73271 0
M  V30 22 O 4.5801 -1.63469 0.984002 0
M  V30 23 C 1.7201 -2.69238 2.15882 0
M  V30 24 C 0.8331 -2.62108 3.43399 0
M  V30 25 C -0.0319 -3.89811 3.60861 0
M  V30 26 C -0.9929 -3.77193 4.8207 0
M  V30 27 N -1.8559 -4.9673 4.96189 0
M  V30 28 H 2.9841 -1.04962 2.78903 0
M  V30 29 H 0.5211 -0.507088 1.38083 0
M  V30 30 H 2.4791 -3.48089 2.29978 0
M  V30 31 H 1.1091 -2.96194 1.28331 0
M  V30 32 H 0.1611 -1.74967 3.37773 0
M  V30 33 H 1.4731 -2.48685 4.32386 0
M  V30 34 H 0.6271 -4.77103 3.74777 0
M  V30 35 H -0.6339 -4.06102 2.7006 0
M  V30 36 H -1.6289 -2.88284 4.68159 0
M  V30 37 H -0.4039 -3.62421 5.74307 0
M  V30 38 H -2.4579 -5.13431 4.08319 0
M  V30 39 H -2.5409 -4.85839 5.79221 0
M  V30 40 H -1.2729 -5.85594 5.1449 0
M  V30 41 N 2.9562 -1.48159 -0.537278 0
M  V30 42 C 3.9042 -1.62573 -1.66352 0
M  V30 43 C 4.8982 -0.492366 -1.62087 0
M  V30 44 O 6.1042 -0.670847 -1.67032 0
M  V30 45 H 2.4792 -0.511992 -0.550789 0
M  V30 46 H 4.4502 -2.57176 -1.51337 0
M  V30 47 C 3.1992 -1.67583 -3.04649 0
M  V30 48 H 2.5222 -2.54151 -3.08622 0
M  V30 49 H 3.9622 -1.81713 -3.83088 0
M  V30 50 C 2.4212 -0.413039 -3.34358 0
M  V30 51 O 2.9512 0.477259 -3.98855 0
M  V30 52 N 1.1572 -0.286961 -2.8918 0
M  V30 53 H 0.7042 -1.01241 -2.36871 0
M  V30 54 H 0.6622 0.556963 -3.09427 0
M  V30 55 N 4.4343 0.785586 -1.36625 0
M  V30 56 C 5.3643 1.91259 -1.33949 0
M  V30 57 C 6.3453 1.68795 -0.210325 0
M  V30 58 O 7.5303 1.89854 -0.408561 0
M  V30 59 C 4.6603 3.28339 -1.13186 0
M  V30 60 C 3.6143 3.65335 -2.22967 0
M  V30 61 C 2.9403 5.00806 -1.87342 0
M  V30 62 C 4.2403 3.7352 -3.65075 0
M  V30 63 H 5.9343 1.93755 -2.28253 0
M  V30 64 H 3.4803 0.930788 -1.09874 0
M  V30 65 H 5.4333 4.06804 -1.09948 0
M  V30 66 H 4.1573 3.2624 -0.153332 0
M  V30 67 H 2.8163 2.89169 -2.25337 0
M  V30 68 H 2.4643 4.95233 -0.880545 0
M  V30 69 H 2.1643 5.26529 -2.60846 0
M  V30 70 H 3.6883 5.81687 -1.85667 0
M  V30 71 H 5.1023 4.42168 -3.64911 0
M  V30 72 H 3.4993 4.10731 -4.37516 0
M  V30 73 H 4.5693 2.74527 -3.99703 0
M  V30 74 N 5.9124 1.20967 1.01018 0
M  V30 75 C 7.1614 1.01796 1.74128 0
M  V30 76 C 7.4744 -0.449691 1.90361 0
M  V30 77 O 8.6804 -0.76068 2.60626 0
M  V30 78 C 7.1364 1.7727 3.13215 0
M  V30 79 C 6.7444 3.28171 3.04972 0
M  V30 80 C 8.4884 1.66489 3.90489 0
M  V30 81 C 6.3954 3.96156 4.39107 0
M  V30 82 H 5.3254 0.377276 0.652824 0
M  V30 83 H 7.9764 1.44651 1.12909 0
M  V30 84 H 6.3584 1.27205 3.75013 0
M  V30 85 H 7.5324 3.85499 2.52443 0
M  V30 86 H 5.8474 3.39437 2.41188 0
M  V30 87 H 8.4444 2.14617 4.89738 0
M  V30 88 H 8.7874 0.6222 4.11624 0
M  V30 89 H 9.3204 2.14003 3.35332 0
M  V30 90 H 6.0594 5.00604 4.23174 0
M  V30 91 H 5.5794 3.43617 4.91617 0
M  V30 92 H 7.2584 4.00774 5.07926 0
M  V30 93 N 7.3905 -1.2043 1.01659 0
M  V30 94 C 8.6155 -1.94318 0.724942 0
M  V30 95 C 9.0405 -1.74266 -0.708034 0
M  V30 96 O 8.3985 -1.03694 -1.48719 0
M  V30 97 C 8.4465 -3.44486 1.06591 0
M  V30 98 O 7.5505 -4.12017 0.177599 0
M  V30 99 H 6.8915 -0.60708 0.26898 0
M  V30 100 H 9.4215 -1.52861 1.35995 0
M  V30 101 H 9.4315 -3.95106 1.01762 0
M  V30 102 H 8.1065 -3.58404 2.10997 0
M  V30 103 H 6.6835 -3.71821 0.283421 0
M  V30 104 N 8.8686 -0.792821 -1.36206 0
M  V30 105 C 10.1176 -0.363353 -1.984 0
M  V30 106 C 10.4306 1.07172 -1.63626 0
M  V30 107 O 11.6366 1.60362 -2.19081 0
M  V30 108 C 10.0926 -0.59872 -3.54885 0
M  V30 109 C 9.7006 -2.04543 -3.9858 0
M  V30 110 C 11.4446 -0.233926 -4.23855 0
M  V30 111 C 9.3516 -2.22727 -5.47856 0
M  V30 112 H 8.2816 -0.13212 -0.742334 0
M  V30 113 H 10.9326 -0.974935 -1.55458 0
M  V30 114 H 9.3146 0.0826222 -3.95914 0
M  V30 115 H 10.4886 -2.76345 -3.68741 0
M  V30 116 H 8.8036 -2.36879 -3.42458 0
M  V30 117 H 11.4006 -0.348027 -5.33566 0
M  V30 118 H 11.7436 0.818351 -4.08177 0
M  V30 119 H 12.2766 -0.868639 -3.882 0
M  V30 120 H 9.0156 -3.2635 -5.68486 0
M  V30 121 H 8.5356 -1.55434 -5.7931 0
M  V30 122 H 10.2146 -2.03607 -6.14128 0
M  V30 123 N 10.3467 1.47872 -0.545128 0
M  V30 124 C 11.5957 2.01695 -0.0145033 0
M  V30 125 C 11.9087 1.42609 1.33873 0
M  V30 126 O 13.1147 1.88021 1.95858 0
M  V30 127 C 11.5707 3.59892 0.0245068 0
M  V30 128 C 11.1787 4.27966 -1.32475 0
M  V30 129 C 12.9227 4.21507 0.50316 0
M  V30 130 C 10.8297 5.78136 -1.2455 0
M  V30 131 H 9.7597 0.753998 -0.00165172 0
M  V30 132 H 12.4107 1.69985 -0.691175 0
M  V30 133 H 10.7927 3.88509 0.766575 0
M  V30 134 H 11.9667 4.11003 -2.08357 0
M  V30 135 H 10.2817 3.78286 -1.74036 0
M  V30 136 H 12.8787 5.31538 0.580656 0
M  V30 137 H 13.2217 3.87855 1.51243 0
M  V30 138 H 13.7547 3.97376 -0.183681 0
M  V30 139 H 10.4937 6.16388 -2.23039 0
M  V30 140 H 10.0137 5.97469 -0.528282 0
M  V30 141 H 11.6927 6.40099 -0.942488 0
M  V30 142 N 11.8248 0.280983 1.55075 0
M  V30 143 C 13.0738 -0.334784 1.98902 0
M  V30 144 C 13.3868 -1.56534 1.17288 0
M  V30 145 O 14.5928 -2.25443 1.51287 0
M  V30 146 C 13.0488 -0.646994 3.54037 0
M  V30 147 C 12.6568 0.564085 4.44435 0
M  V30 148 C 14.4008 -1.22506 4.06439 0
M  V30 149 C 12.3078 0.226137 5.90967 0
M  V30 150 H 11.2378 -0.128866 0.742906 0
M  V30 151 H 13.8888 0.386556 1.79382 0
M  V30 152 H 12.2708 -1.42739 3.6938 0
M  V30 153 H 13.4448 1.34082 4.40861 0
M  V30 154 H 11.7598 1.0594 4.02698 0
M  V30 155 H 14.3568 -1.49182 5.13468 0
M  V30 156 H 14.6998 -2.16085 3.55827 0
M  V30 157 H 15.2328 -0.50682 3.94558 0
M  V30 158 H 11.9718 1.12996 6.45687 0
M  V30 159 H 11.4918 -0.513717 5.97596 0
M  V30 160 H 13.1708 -0.179539 6.46751 0
M  V30 161 N 13.3029 -1.57598 0.00835791 0
M  V30 162 C 14.5519 -1.90107 -0.673968 0
M  V30 163 C 14.8649 -0.884275 -1.7447 0
M  V30 164 O 16.0709 -1.09987 -2.48224 0
M  V30 165 C 14.5269 -3.37497 -1.24995 0
M  V30 166 C 14.1349 -4.47491 -0.2136 0
M  V30 167 C 15.8789 -3.79104 -1.90999 0
M  V30 168 C 13.7859 -5.85963 -0.80005 0
M  V30 169 H 12.7159 -0.709393 -0.255495 0
M  V30 170 H 15.3669 -1.83365 0.0702693 0
M  V30 171 H 13.7489 -3.39102 -2.04513 0
M  V30 172 H 14.9229 -4.57414 0.557596 0
M  V30 173 H 13.2379 -4.14956 0.346474 0
M  V30 174 H 15.8349 -4.79901 -2.35795 0
M  V30 175 H 16.1779 -3.1306 -2.74407 0
M  V30 176 H 16.7109 -3.79833 -1.18203 0
M  V30 177 H 13.4499 -6.555 -0.00456708 0
M  V30 178 H 12.9699 -5.79687 -1.54021 0
M  V30 179 H 14.6489 -6.33884 -1.29615 0
M  V30 180 N 14.781 0.264519 -1.55364 0
M  V30 181 C 15.711 1.33121 -1.91836 0
M  V30 182 C 16.692 1.51101 -0.781192 0
M  V30 183 O 17.877 1.64003 -1.04003 0
M  V30 184 C 15.007 2.68921 -2.19769 0
M  V30 185 C 13.961 2.65661 -3.35571 0
M  V30 186 C 13.287 4.05093 -3.49004 0
M  V30 187 C 14.587 2.24187 -4.71739 0
M  V30 188 H 16.281 1.02844 -2.81182 0
M  V30 189 H 13.827 0.493286 -1.35287 0
M  V30 190 H 15.78 3.43663 -2.43872 0
M  V30 191 H 14.504 3.00799 -1.27231 0
M  V30 192 H 13.163 1.93377 -3.1145 0
M  V30 193 H 12.811 4.34206 -2.53917 0
M  V30 194 H 12.511 4.03804 -4.26868 0
M  V30 195 H 14.035 4.81561 -3.75408 0
M  V30 196 H 15.449 2.88654 -4.9533 0
M  V30 197 H 13.846 2.34044 -5.52579 0
M  V30 198 H 14.916 1.19327 -4.69988 0
M  V30 199 N 16.2591 1.48442 0.529413 0
M  V30 200 C 17.4991 1.58086 1.29569 0
M  V30 201 C 17.8631 0.249302 1.90375 0
M  V30 202 O 19.0641 0.220738 2.67892 0
M  V30 203 C 17.3351 2.68793 2.35552 0
M  V30 204 S 18.8941 2.98207 3.21898 0
M  V30 205 H 15.7121 0.557922 0.440732 0
M  V30 206 H 18.3141 1.85966 0.603059 0
M  V30 207 H 17.0181 3.64102 1.89363 0
M  V30 208 H 16.5491 2.42817 3.09522 0
M  V30 209 H 18.5641 2.37548 4.35644 0
M  V30 210 N 17.7372 -0.778329 1.37039 0
M  V30 211 C 18.6672 -1.90546 1.34962 0
M  V30 212 C 19.6482 -1.68681 0.219274 0
M  V30 213 O 20.8332 -1.89634 0.418624 0
M  V30 214 C 17.9632 -3.27734 1.14925 0
M  V30 215 C 16.9172 -3.64147 2.24902 0
M  V30 216 C 16.2432 -4.99806 1.89996 0
M  V30 217 C 17.5432 -3.71579 3.67051 0
M  V30 218 H 19.2372 -1.92541 2.29277 0
M  V30 219 H 16.7832 -0.924948 1.10366 0
M  V30 220 H 18.7362 -4.06215 1.12104 0
M  V30 221 H 17.4602 -3.26154 0.170631 0
M  V30 222 H 16.1192 -2.8797 2.26868 0
M  V30 223 H 15.7672 -4.94759 0.906796 0
M  V30 224 H 15.4672 -5.25139 2.63634 0
M  V30 225 H 16.9912 -5.80694 1.88749 0
M  V30 226 H 18.4052 -4.40227 3.67251 0
M  V30 227 H 16.8022 -4.08405 4.39688 0
M  V30 228 H 17.8722 -2.72404 4.01154 0
M  V30 229 N 19.2153 -1.21501 -1.00376 0
M  V30 230 C 20.4433 -1.059 -1.77744 0
M  V30 231 C 20.8583 0.391125 -1.84704 0
M  V30 232 O 20.2153 1.27133 -1.30933 0
M  V30 233 C 20.2663 -1.65111 -3.21591 0
M  V30 234 O 19.9873 -3.0445 -3.15027 0
M  V30 235 C 21.4883 -1.54637 -4.15454 0
M  V30 236 H 18.7083 -0.371825 -0.558558 0
M  V30 237 H 21.2523 -1.60865 -1.26264 0
M  V30 238 H 19.4073 -1.14235 -3.70175 0
M  V30 239 H 19.8213 -3.3278 -4.0541 0
M  V30 240 H 21.2953 -2.00808 -5.14179 0
M  V30 241 H 21.7723 -0.501022 -4.36333 0
M  V30 242 H 22.3783 -2.04767 -3.72761 0
M  V30 243 N 20.6934 1.19889 -1.02296 0
M  V30 244 C 21.6234 2.25141 -0.619174 0
M  V30 245 C 22.6044 1.66051 0.368915 0
M  V30 246 O 23.7894 1.92546 0.252941 0
M  V30 247 C 20.9194 3.4728 0.0368783 0
M  V30 248 C 19.8734 4.19005 -0.872865 0
M  V30 249 C 19.1994 5.34637 -0.0822402 0
M  V30 250 C 20.4994 4.74452 -2.18387 0
M  V30 251 H 22.1934 2.59171 -1.49903 0
M  V30 252 H 19.7394 1.24579 -0.722222 0
M  V30 253 H 21.6924 4.20098 0.330958 0
M  V30 254 H 20.4164 3.12433 0.95149 0
M  V30 255 H 19.0754 3.48061 -1.15105 0
M  V30 256 H 18.7234 4.96034 0.83422 0
M  V30 257 H 18.4234 5.83557 -0.688149 0
M  V30 258 H 19.9474 6.10255 0.205238 0
M  V30 259 H 21.3614 5.39055 -1.95172 0
M  V30 260 H 19.7584 5.33834 -2.74119 0
M  V30 261 H 20.8284 3.92844 -2.84257 0
M  V30 262 N 22.1715 0.800033 1.35784 0
M  V30 263 C 23.3965 0.388511 2.03729 0
M  V30 264 C 23.8215 -0.990481 1.5991 0
M  V30 265 O 23.1795 -1.64013 0.772612 0
M  V30 266 C 23.2275 0.4726 3.5749 0
M  V30 267 O 22.3315 -0.51646 4.09153 0
M  V30 268 H 21.6725 0.163271 0.643614 0
M  V30 269 H 24.2025 1.0841 1.73518 0
M  V30 270 H 24.2125 0.34003 4.06581 0
M  V30 271 H 22.8875 1.47848 3.88734 0
M  V30 272 H 21.4645 -0.344673 3.71304 0
M  V30 273 N 23.6496 -1.47581 0.552962 0
M  V30 274 C 24.8986 -2.01684 0.0251995 0
M  V30 275 C 25.2116 -1.43317 -1.33115 0
M  V30 276 O 26.4176 -1.89057 -1.94858 0
M  V30 277 C 24.8736 -3.599 -0.00542052 0
M  V30 278 C 24.4816 -4.27257 1.34742 0
M  V30 279 C 26.2256 -4.21768 -0.4808 0
M  V30 280 C 24.1326 -5.77467 1.27614 0
M  V30 281 H 23.0626 -0.753979 0.00565033 0
M  V30 282 H 25.7136 -1.69616 0.70018 0
M  V30 283 H 24.0956 -3.88911 -0.745961 0
M  V30 284 H 25.2696 -4.09893 2.10534 0
M  V30 285 H 23.5846 -3.77358 1.76039 0
M  V30 286 H 26.1816 -5.31838 -0.55246 0
M  V30 287 H 26.5246 -3.88651 -1.49184 0
M  V30 288 H 27.0576 -3.97273 0.204752 0
M  V30 289 H 23.7966 -6.15196 2.26304 0
M  V30 290 H 23.3166 -5.9718 0.55996 0
M  V30 291 H 24.9956 -6.3959 0.976421 0
M  V30 292 N 25.1277 -0.289203 -1.54924 0
M  V30 293 C 26.0607 0.633823 -2.19221 0
M  V30 294 C 27.0387 1.14174 -1.15772 0
M  V30 295 O 28.2227 1.21211 -1.44361 0
M  V30 296 C 25.3497 1.86592 -2.82668 0
M  V30 297 C 24.3957 1.49227 -3.99542 0
M  V30 298 S 25.2287 0.558312 -5.32582 0
M  V30 299 C 26.3847 1.79847 -5.99505 0
M  V30 300 H 26.6177 0.0875416 -2.97171 0
M  V30 301 H 24.1507 -0.0733899 -1.54225 0
M  V30 302 H 26.1087 2.57305 -3.19851 0
M  V30 303 H 24.7697 2.38335 -2.04585 0
M  V30 304 H 23.9627 2.40945 -4.42676 0
M  V30 305 H 23.5647 0.865193 -3.63855 0
M  V30 306 H 25.8567 2.7406 -6.19595 0
M  V30 307 H 26.7997 1.4099 -6.93922 0
M  V30 308 H 27.2077 1.96982 -5.29016 0
M  V30 309 N 26.6058 1.57591 -0.0167156 0
M  V30 310 C 27.8338 1.95575 0.675128 0
M  V30 311 C 28.2488 0.892542 1.6637 0
M  V30 312 O 27.6058 -0.126912 1.82058 0
M  V30 313 C 27.6568 3.33608 1.39239 0
M  V30 314 O 27.3778 4.3585 0.443444 0
M  V30 315 C 28.8788 3.86151 2.17721 0
M  V30 316 H 26.0988 0.644423 0.186978 0
M  V30 317 H 28.6428 2.0437 -0.0728 0
M  V30 318 H 26.7978 3.2607 2.09182 0
M  V30 319 H 27.2118 5.158 0.951358 0
M  V30 320 H 28.6858 4.85114 2.63379 0
M  V30 321 H 29.1628 3.19738 3.01105 0
M  V30 322 H 29.7688 3.96918 1.52761 0
M  V30 323 N 28.0839 -0.256276 1.55502 0
M  V30 324 C 29.4949 -0.826068 1.67431 0
M  V30 325 C 29.8459 -1.86396 0.612446 0
M  V30 326 O 28.9709 -2.15031 -0.243025 0
M  V30 327 C 29.5659 -1.50512 3.03532 0
M  V30 328 C 28.1249 -2.02273 3.17431 0
M  V30 329 C 27.2719 -0.870548 2.63281 0
M  V30 330 H 30.2229 -0.0322728 1.58667 0
M  V30 331 H 30.2439 -2.37279 2.97454 0
M  V30 332 H 29.7559 -0.749484 3.80794 0
M  V30 333 H 27.8569 -2.80746 2.44974 0
M  V30 334 H 27.9699 -2.22655 4.24219 0
M  V30 335 H 26.3339 -1.26851 2.20864 0
M  V30 336 H 27.1169 -0.128149 3.43061 0
M  V30 337 N 29.562 -1.4872 -0.521534 0
M  V30 338 C 30.792 -1.6061 -1.29954 0
M  V30 339 C 31.2 -0.268728 -1.87282 0
M  V30 340 O 30.543 0.753221 -1.67548 0
M  V30 341 C 30.605 -2.60013 -2.48261 0
M  V30 342 C 30.269 -4.04874 -2.11957 0
M  V30 343 C 31.266 -4.92304 -1.67132 0
M  V30 344 C 28.951 -4.5047 -2.22221 0
M  V30 345 C 30.945 -6.2336 -1.33047 0
M  V30 346 C 28.632 -5.81544 -1.87748 0
M  V30 347 C 29.63 -6.67812 -1.43234 0
M  V30 348 O 29.318 -7.96446 -1.09217 0
M  V30 349 H 29.05 -0.544116 -0.401141 0
M  V30 350 H 31.604 -1.95339 -0.634958 0
M  V30 351 H 29.834 -2.20422 -3.17728 0
M  V30 352 H 31.523 -2.61648 -3.10315 0
M  V30 353 H 32.289 -4.58312 -1.58665 0
M  V30 354 H 28.168 -3.83504 -2.55823 0
M  V30 355 H 31.712 -6.90649 -0.982299 0
M  V30 356 H 27.609 -6.15069 -1.95858 0
M  V30 357 H 28.377 -8.09275 -1.22542 0
M  V30 358 N 31.0401 0.771051 -1.3745 0
M  V30 359 C 32.0031 1.86598 -1.33093 0
M  V30 360 C 33.0031 1.59076 -0.234845 0
M  V30 361 O 34.1931 1.67145 -0.490732 0
M  V30 362 C 31.3251 3.23747 -1.06773 0
M  V30 363 H 32.5181 1.91873 -2.30488 0
M  V30 364 H 30.0711 0.970876 -1.2249 0
M  V30 365 H 30.8061 3.24148 -0.099129 0
M  V30 366 H 30.5911 3.45115 -1.86112 0
M  V30 367 H 32.0811 4.03824 -1.06377 0
M  V30 368 N 32.5182 1.22032 0.997298 0
M  V30 369 C 33.4502 0.944263 2.08845 0
M  V30 370 C 34.4632 -0.0754663 1.62625 0
M  V30 371 O 35.6522 0.157994 1.77799 0
M  V30 372 C 32.7522 0.397723 3.36558 0
M  V30 373 C 31.9252 1.47362 4.11829 0
M  V30 374 C 30.9842 0.934951 5.17827 0
M  V30 375 O 30.0102 1.62016 5.45655 0
M  V30 376 N 31.2122 -0.245895 5.79979 0
M  V30 377 H 33.9772 1.88363 2.33109 0
M  V30 378 H 31.5382 1.12661 1.16272 0
M  V30 379 H 33.5302 0.0227771 4.04694 0
M  V30 380 H 32.1002 -0.446646 3.09393 0
M  V30 381 H 31.3202 2.02208 3.38386 0
M  V30 382 H 32.6082 2.19764 4.58891 0
M  V30 383 H 32.0062 -0.819475 5.59733 0
M  V30 384 H 30.5632 -0.562272 6.4937 0
M  V30 385 N 33.9963 -1.19345 1.0293 0
M  V30 386 C 34.9593 -2.20793 0.615069 0
M  V30 387 C 35.9593 -1.57553 -0.321533 0
M  V30 388 O 37.1493 -1.73862 -0.108483 0
M  V30 389 C 34.2813 -3.40754 -0.0999222 0
M  V30 390 H 35.4743 -2.58955 1.51269 0
M  V30 391 H 33.0273 -1.3303 0.820534 0
M  V30 392 H 33.7623 -3.0811 -1.01187 0
M  V30 393 H 33.5473 -3.87889 0.57309 0
M  V30 394 H 35.0373 -4.15898 -0.376645 0
M  V30 395 N 35.4744 -0.807222 -1.35358 0
M  V30 396 C 36.7024 -0.400377 -2.02989 0
M  V30 397 C 37.1174 0.988859 -1.60832 0
M  V30 398 O 36.4744 1.63729 -0.806175 0
M  V30 399 C 36.5254 -0.474867 -3.58368 0
M  V30 400 O 36.2464 -1.80933 -3.98992 0
M  V30 401 C 37.7474 -0.0609112 -4.43258 0
M  V30 402 H 34.9674 -0.162587 -0.651004 0
M  V30 403 H 37.5114 -1.09102 -1.72965 0
M  V30 404 H 35.6664 0.167534 -3.87038 0
M  V30 405 H 36.0804 -1.77256 -4.9364 0
M  V30 406 H 37.5544 -0.164145 -5.51756 0
M  V30 407 H 38.0314 0.993831 -4.27808 0
M  V30 408 H 38.6374 -0.676492 -4.19885 0
M  V30 409 N 36.9525 1.47285 -0.560781 0
M  V30 410 C 37.9005 2.31756 0.197942 0
M  V30 411 C 38.8945 1.43146 0.905854 0
M  V30 412 O 40.1005 1.59891 0.826733 0
M  V30 413 H 36.4755 0.747438 0.0827049 0
M  V30 414 H 38.4465 2.9359 -0.533629 0
M  V30 415 C 37.1955 3.25874 1.21249 0
M  V30 416 H 36.5185 3.94023 0.67719 0
M  V30 417 H 37.9585 3.87803 1.71419 0
M  V30 418 C 36.4175 2.49651 2.26221 0
M  V30 419 O 36.9475 2.24355 3.33208 0
M  V30 420 N 35.1535 2.10597 2.00243 0
M  V30 421 H 34.7005 2.31369 1.13252 0
M  V30 422 H 34.6585 1.59913 2.70694 0
M  V30 423 N 38.4306 0.297415 1.54768 0
M  V30 424 C 39.6556 -0.318435 2.04941 0
M  V30 425 C 40.0806 -1.4701 1.17345 0
M  V30 426 O 39.4386 -1.80436 0.176758 0
M  V30 427 C 39.4866 -0.755749 3.52592 0
M  V30 428 O 38.5906 -1.86088 3.68028 0
M  V30 429 H 37.9316 -0.062421 0.661059 0
M  V30 430 H 40.4616 0.438215 1.99852 0
M  V30 431 H 40.4716 -1.04552 3.94376 0
M  V30 432 H 39.1466 0.0867233 4.1581 0
M  V30 433 H 37.7236 -1.57193 3.38149 0
M  V30 434 N 39.9087 -1.5758 0.0250728 0
M  V30 435 C 41.1857 -1.82917 -0.692873 0
M  V30 436 C 41.5657 -0.908137 -1.90568 0
M  V30 437 O 40.9137 0.0372298 -2.2847 0
M  V30 438 C 41.1237 -3.32034 -1.07492 0
M  V30 439 C 42.4717 -3.98406 -1.46826 0
M  V30 440 O 43.4957 -3.36505 -1.16801 0
M  V30 441 O 42.3547 -5.07497 -2.02754 0
M  V30 442 H 39.4487 -0.754079 -0.33955 0
M  V30 443 H 41.9947 -1.69619 0.0524456 0
M  V30 444 H 40.7667 -3.90728 -0.211552 0
M  V30 445 H 40.3897 -3.50424 -1.87854 0
M  V30 446 N 41.3868 0.248026 -1.55636 0
M  V30 447 C 42.6328 0.97767 -1.77678 0
M  V30 448 C 42.9658 1.85016 -0.590135 0
M  V30 449 O 42.2408 1.90095 0.411611 0
M  V30 450 C 42.5238 1.83914 -3.09593 0
M  V30 451 C 42.3768 0.99491 -4.38659 0
M  V30 452 C 43.6958 2.82183 -3.37729 0
M  V30 453 H 40.8148 0.354005 -0.646413 0
M  V30 454 H 43.4568 0.248253 -1.88371 0
M  V30 455 H 41.6068 2.46104 -3.00608 0
M  V30 456 H 43.2788 0.391789 -4.59633 0
M  V30 457 H 41.5218 0.299231 -4.32767 0
M  V30 458 H 42.1928 1.63145 -5.2734 0
M  V30 459 H 44.6688 2.30129 -3.4667 0
M  V30 460 H 43.5448 3.39582 -4.31249 0
M  V30 461 H 43.8058 3.58588 -2.58586 0
M  V30 462 N 42.8649 1.48995 0.513639 0
M  V30 463 C 44.0929 1.61531 1.29288 0
M  V30 464 C 44.5079 0.281801 1.86685 0
M  V30 465 O 43.8649 -0.731111 1.67215 0
M  V30 466 C 43.9159 2.67449 2.43215 0
M  V30 467 O 43.6369 3.95626 1.88179 0
M  V30 468 C 45.1379 2.90575 3.34785 0
M  V30 469 H 42.3579 0.544165 0.392588 0
M  V30 470 H 44.9019 1.9494 0.617956 0
M  V30 471 H 43.0569 2.36853 3.0656 0
M  V30 472 H 43.4709 4.53868 2.62876 0
M  V30 473 H 44.9449 3.68449 4.11035 0
M  V30 474 H 45.4219 2.00011 3.91015 0
M  V30 475 H 46.0279 3.22538 2.77218 0
M  V30 476 N 44.343 -0.763751 1.37857 0
M  V30 477 C 45.754 -1.3405 1.29952 0
M  V30 478 C 46.105 -1.96138 -0.0492898 0
M  V30 479 O 45.23 -1.94372 -0.951239 0
M  V30 480 C 45.825 -2.43729 2.35333 0
M  V30 481 C 44.384 -2.97151 2.31037 0
M  V30 482 C 43.531 -1.70438 2.18738 0
M  V30 483 H 46.482 -0.563396 1.48363 0
M  V30 484 H 46.503 -3.23412 2.00462 0
M  V30 485 H 46.015 -1.9851 3.33489 0
M  V30 486 H 44.116 -3.46724 1.3643 0
M  V30 487 H 44.229 -3.52221 3.24772 0
M  V30 488 H 42.593 -1.93673 1.65418 0
M  V30 489 H 43.376 -1.27312 3.18821 0
M  V30 490 N 45.8211 -1.22559 -0.990812 0
M  V30 491 C 47.0671 -1.05297 -1.73322 0
M  V30 492 C 47.4001 0.410655 -1.89808 0
M  V30 493 O 46.6751 1.30439 -1.44277 0
M  V30 494 C 46.9581 -1.76713 -3.13759 0
M  V30 495 C 46.8111 -3.30684 -3.04907 0
M  V30 496 C 48.1301 -1.52121 -4.12974 0
M  V30 497 H 45.2491 -0.38392 -0.629106 0
M  V30 498 H 47.8911 -1.50926 -1.15418 0
M  V30 499 H 46.0411 -1.37924 -3.63193 0
M  V30 500 H 47.7131 -3.7893 -2.63077 0
M  V30 501 H 45.9561 -3.60253 -2.41661 0
M  V30 502 H 46.6271 -3.75833 -4.04294 0
M  V30 503 H 49.1031 -1.85819 -3.72304 0
M  V30 504 H 47.9791 -2.04582 -5.0935 0
M  V30 505 H 48.2401 -0.454257 -4.3976 0
M  V30 506 N 47.2992 1.18797 -1.03562 0
M  V30 507 C 48.2312 2.21731 -0.580337 0
M  V30 508 C 49.2442 1.59051 0.347349 0
M  V30 509 O 50.4332 1.77929 0.142669 0
M  V30 510 C 47.5332 3.38459 0.172805 0
M  V30 511 C 46.7062 4.3072 -0.761496 0
M  V30 512 C 45.7652 5.26174 -0.0525547 0
M  V30 513 O 44.7912 5.65108 -0.681333 0
M  V30 514 N 45.9932 5.67624 1.21586 0
M  V30 515 H 48.7582 2.61417 -1.46565 0
M  V30 516 H 46.3192 1.33531 -0.915476 0
M  V30 517 H 48.3112 3.99335 0.656793 0
M  V30 518 H 46.8812 2.97507 0.959602 0
M  V30 519 H 46.1012 3.67525 -1.42544 0
M  V30 520 H 47.3892 4.89267 -1.39626 0
M  V30 521 H 46.7872 5.38038 1.74732 0
M  V30 522 H 45.3442 6.30721 1.64421 0
M  V30 523 N 48.7773 0.814389 1.34928 0
M  V30 524 C 49.7403 0.235759 2.27984 0
M  V30 525 C 50.7403 -0.581412 1.49921 0
M  V30 526 O 51.9303 -0.398758 1.69575 0
M  V30 527 C 49.0623 -0.670433 3.34242 0
M  V30 528 H 50.2553 1.05659 2.80671 0
M  V30 529 H 47.8083 0.585614 1.44915 0
M  V30 530 H 48.5433 -1.51466 2.86755 0
M  V30 531 H 48.3283 -0.0860822 3.92005 0
M  V30 532 H 49.8183 -1.06935 4.03676 0
M  V30 533 N 50.2554 -1.46986 0.568584 0
M  V30 534 C 51.2184 -2.28624 -0.162366 0
M  V30 535 C 52.2184 -1.37596 -0.832103 0
M  V30 536 O 53.4084 -1.60115 -0.68622 0
M  V30 537 C 50.5404 -3.17596 -1.23878 0
M  V30 538 H 51.7334 -2.94722 0.554899 0
M  V30 539 H 49.2864 -1.52863 0.325976 0
M  V30 540 H 50.0214 -2.56214 -1.98808 0
M  V30 541 H 49.8064 -3.846 -0.763219 0
M  V30 542 H 51.2964 -3.79078 -1.75185 0
M  V30 543 N 51.7335 -0.305618 -1.54608 0
M  V30 544 C 52.6815 0.584119 -2.25146 0
M  V30 545 C 53.6755 1.13326 -1.25911 0
M  V30 546 O 54.8815 1.08337 -1.43747 0
M  V30 547 H 51.2565 0.206983 -0.722954 0
M  V30 548 H 53.2275 -0.033291 -2.98381 0
M  V30 549 C 51.9765 1.74225 -3.009 0
M  V30 550 H 51.2995 1.32892 -3.77067 0
M  V30 551 H 52.7395 2.34077 -3.53531 0
M  V30 552 C 51.1985 2.64914 -2.0814 0
M  V30 553 O 51.7285 3.66137 -1.65246 0
M  V30 554 N 49.9345 2.3275 -1.74 0
M  V30 555 H 49.4815 1.50479 -2.09078 0
M  V30 556 H 49.4395 2.93694 -1.12211 0
M  V30 557 N 53.2116 1.57565 -0.0334293 0
M  V30 558 C 54.1436 2.0739 0.975811 0
M  V30 559 C 55.1566 0.998166 1.2861 0
M  V30 560 O 56.3456 1.27426 1.25 0
M  V30 561 C 53.4456 2.4871 2.30209 0
M  V30 562 C 52.6186 3.79413 2.17634 0
M  V30 563 C 51.6776 4.07237 3.33233 0
M  V30 564 O 50.7036 4.77425 3.09927 0
M  V30 565 N 51.9056 3.5775 4.5716 0
M  V30 566 H 54.6706 2.94598 0.55066 0
M  V30 567 H 52.2316 1.61173 0.15323 0
M  V30 568 H 54.2236 2.64413 3.06378 0
M  V30 569 H 52.7936 1.66845 2.64351 0
M  V30 570 H 52.0136 3.73465 1.26165 0
M  V30 571 H 53.3016 4.65038 2.0644 0
M  V30 572 H 52.6996 3.00976 4.78989 0
M  V30 573 H 51.2566 3.78724 5.30482 0
M  V30 574 N 54.6897 -0.239769 1.55765 0
M  V30 575 C 55.9197 -0.982743 1.8173 0
M  V30 576 C 56.3277 -1.7917 0.607835 0
M  V30 577 O 55.6707 -1.78525 -0.432973 0
M  V30 578 C 55.7327 -1.96332 3.01155 0
M  V30 579 C 55.3967 -1.34062 4.36894 0
M  V30 580 C 56.3937 -0.739539 5.14613 0
M  V30 581 C 54.0787 -1.35784 4.83599 0
M  V30 582 C 56.0727 -0.163989 6.37189 0
M  V30 583 C 53.7597 -0.778441 6.06122 0
M  V30 584 C 54.7577 -0.182548 6.82756 0
M  V30 585 O 54.4457 0.387887 8.02964 0
M  V30 586 H 54.1777 -0.294481 0.608487 0
M  V30 587 H 56.7317 -0.26572 2.03674 0
M  V30 588 H 54.9617 -2.71884 2.74984 0
M  V30 589 H 56.6507 -2.57032 3.14149 0
M  V30 590 H 57.4167 -0.718687 4.79646 0
M  V30 591 H 53.2957 -1.81105 4.23936 0
M  V30 592 H 56.8397 0.301753 6.96947 0
M  V30 593 H 52.7367 -0.796645 6.40565 0
M  V30 594 H 53.5047 0.28044 8.18019 0
M  V30 595 N 56.1678 -1.49265 -0.50573 0
M  V30 596 C 57.4158 -1.582 -1.25766 0
M  V30 597 C 57.7368 -0.268482 -1.93143 0
M  V30 598 O 57.0068 0.711833 -1.8251 0
M  V30 599 H 55.5868 -0.582873 -0.467191 0
M  V30 600 H 58.2488 -1.85865 -0.586525 0
M  V30 601 H 57.3448 -2.37563 -2.02412 0
M  V30 602 N 57.6459 0.756429 -1.3826 0
M  V30 603 C 58.8759 1.54341 -1.3734 0
M  V30 604 C 59.2839 1.89159 0.0393917 0
M  V30 605 O 58.6269 1.5307 1.01565 0
M  V30 606 C 58.6889 2.87238 -2.16182 0
M  V30 607 C 58.3529 2.74973 -3.65019 0
M  V30 608 C 59.3499 2.44962 -4.58574 0
M  V30 609 C 57.0349 2.92515 -4.08338 0
M  V30 610 C 59.0289 2.32642 -5.93428 0
M  V30 611 C 56.7159 2.79815 -5.43274 0
M  V30 612 C 57.7139 2.49921 -6.35632 0
M  V30 613 O 57.4019 2.37275 -7.68086 0
M  V30 614 H 57.1339 0.484281 -0.471643 0
M  V30 615 H 59.6879 0.944152 -1.82414 0
M  V30 616 H 57.9179 3.49342 -1.65822 0
M  V30 617 H 59.6069 3.48731 -2.07705 0
M  V30 618 H 60.3729 2.31081 -4.26412 0
M  V30 619 H 56.2519 3.14781 -3.368 0
M  V30 620 H 59.7959 2.0923 -6.65484 0
M  V30 621 H 55.6929 2.93269 -5.75034 0
M  V30 622 H 56.4609 2.52509 -7.78577 0
M  V30 623 N 59.124 1.23083 0.984299 0
M  V30 624 C 60.087 1.00979 2.05757 0
M  V30 625 C 61.087 -0.0269573 1.60777 0
M  V30 626 O 62.277 0.212403 1.729 0
M  V30 627 C 59.409 0.527072 3.36801 0
M  V30 628 H 60.602 1.9622 2.26799 0
M  V30 629 H 58.155 1.05072 1.15714 0
M  V30 630 H 58.89 -0.429294 3.21446 0
M  V30 631 H 58.675 1.27515 3.70786 0
M  V30 632 H 60.165 0.392942 4.15747 0
M  V30 633 N 60.6021 -1.18246 1.0419 0
M  V30 634 C 61.8501 -1.87886 0.744543 0
M  V30 635 C 62.1711 -1.8082 -0.730006 0
M  V30 636 O 61.4411 -1.22736 -1.52685 0
M  V30 637 H 60.0211 -0.695556 0.272417 0
M  V30 638 H 62.6831 -1.43494 1.31892 0
M  V30 639 H 61.7791 -2.9389 1.05049 0
M  V30 640 N 62.0802 -0.821533 -1.34494 0
M  V30 641 C 63.0102 -0.257138 -2.3208 0
M  V30 642 C 63.9912 0.625645 -1.58176 0
M  V30 643 O 65.1762 0.552811 -1.86166 0
M  V30 644 C 62.3062 0.582958 -3.42372 0
M  V30 645 C 61.2602 -0.202571 -4.2752 0
M  V30 646 C 60.5862 0.760179 -5.29269 0
M  V30 647 C 61.8862 -1.40998 -5.02908 0
M  V30 648 H 63.5802 -1.07247 -2.79532 0
M  V30 649 H 61.1262 -0.517163 -1.34393 0
M  V30 650 H 63.0792 0.987972 -4.09655 0
M  V30 651 H 61.8032 1.43133 -2.93565 0
M  V30 652 H 60.4622 -0.588936 -3.61838 0
M  V30 653 H 60.1102 1.60447 -4.76724 0
M  V30 654 H 59.8102 0.238809 -5.87115 0
M  V30 655 H 61.3342 1.16308 -5.9942 0
M  V30 656 H 62.7482 -1.07905 -5.63054 0
M  V30 657 H 61.1452 -1.86689 -5.70322 0
M  V30 658 H 62.2152 -2.1889 -4.32684 0
M  V30 659 N 63.5583 1.46682 -0.576371 0
M  V30 660 C 64.7833 2.07304 -0.0630475 0
M  V30 661 C 65.2083 1.42329 1.2298 0
M  V30 662 O 64.5663 0.504865 1.74129 0
M  V30 663 C 64.6143 3.60472 0.095895 0
M  V30 664 O 63.7183 3.95927 1.15394 0
M  V30 665 H 63.0593 0.661288 -0.0599463 0
M  V30 666 H 65.5893 1.88417 -0.797511 0
M  V30 667 H 65.5993 4.06865 0.304071 0
M  V30 668 H 64.2743 4.07157 -0.84828 0
M  V30 669 H 62.8513 3.61252 0.924724 0
M  V30 670 N 65.0364 0.313813 1.54444 0
M  V30 671 C 65.9994 -0.54379 2.22656 0
M  V30 672 C 66.9994 -1.05124 1.21678 0
M  V30 673 O 68.1894 -0.945225 1.46325 0
M  V30 674 C 65.3214 -1.75427 2.92298 0
M  V30 675 H 66.5144 0.0523599 2.99854 0
M  V30 676 H 64.0674 0.0647834 1.56166 0
M  V30 677 H 64.8024 -2.38991 2.19211 0
M  V30 678 H 64.5874 -1.39791 3.66334 0
M  V30 679 H 66.0774 -2.36325 3.44297 0
M  V30 680 N 66.5145 -1.57545 0.0417849 0
M  V30 681 C 67.4775 -2.09885 -0.92093 0
M  V30 682 C 68.4775 -1.01648 -1.24596 0
M  V30 683 O 69.6675 -1.27759 -1.1842 0
M  V30 684 C 66.7995 -2.57527 -2.23367 0
M  V30 685 H 67.9925 -2.96236 -0.467382 0
M  V30 686 H 65.5455 -1.5493 -0.206467 0
M  V30 687 H 66.2805 -1.74542 -2.73323 0
M  V30 688 H 66.0655 -3.36613 -2.01083 0
M  V30 689 H 67.5555 -2.98201 -2.92346 0
M  V30 690 N 67.9926 0.231505 -1.5589 0
M  V30 691 C 69.2226 0.973092 -1.82248 0
M  V30 692 C 69.6306 1.78845 -0.617328 0
M  V30 693 O 68.9736 1.78752 0.423499 0
M  V30 694 C 69.0356 1.94732 -3.02192 0
M  V30 695 C 68.6996 1.31743 -4.37599 0
M  V30 696 C 69.6966 0.712238 -5.14998 0
M  V30 697 C 67.3816 1.33218 -4.84312 0
M  V30 698 C 69.3756 0.130195 -6.37267 0
M  V30 699 C 67.0626 0.746286 -6.06526 0
M  V30 700 C 68.0606 0.146337 -6.82843 0
M  V30 701 O 67.7486 -0.430465 -8.02747 0
M  V30 702 H 67.4806 0.29125 -0.61004 0
M  V30 703 H 70.0346 0.254915 -2.03812 0
M  V30 704 H 68.2646 2.70422 -2.76422 0
M  V30 705 H 69.9536 2.55362 -3.15508 0
M  V30 706 H 70.7196 0.69324 -4.8002 0
M  V30 707 H 66.5986 1.78854 -4.24891 0
M  V30 708 H 70.1426 -0.33871 -6.96777 0
M  V30 709 H 66.0396 0.762663 -6.40979 0
M  V30 710 H 66.8076 -0.323818 -8.17859 0
M  V30 711 N 69.4707 1.49531 0.497807 0
M  V30 712 C 70.3807 1.69176 1.62532 0
M  V30 713 C 71.3967 0.5744 1.64246 0
M  V30 714 O 72.5727 0.849497 1.82608 0
M  V30 715 C 69.6377 1.75695 2.98885 0
M  V30 716 C 68.6987 2.9929 3.07773 0
M  V30 717 C 67.9317 3.05488 4.37622 0
M  V30 718 O 68.1547 2.19192 5.26603 0
M  V30 719 O 67.0887 3.9798 4.51548 0
M  V30 720 H 70.9147 2.647 1.48887 0
M  V30 721 H 68.4997 1.3331 0.674441 0
M  V30 722 H 70.3817 1.82317 3.79919 0
M  V30 723 H 69.0567 0.8335 3.12785 0
M  V30 724 H 67.9637 2.98183 2.25915 0
M  V30 725 H 69.2967 3.91125 2.98801 0
M  V30 726 N 70.9488 -0.749086 1.3866 0
M  V30 727 C 72.3598 -1.32664 1.31366 0
M  V30 728 C 72.7108 -1.96179 -0.028484 0
M  V30 729 O 71.8358 -1.9537 -0.93057 0
M  V30 730 C 72.4308 -2.41219 2.37905 0
M  V30 731 C 70.9898 -2.94684 2.34176 0
M  V30 732 C 70.1368 -1.68108 2.20533 0
M  V30 733 H 73.0878 -0.547628 1.48952 0
M  V30 734 H 73.1088 -3.21268 2.0388 0
M  V30 735 H 72.6208 -1.94962 3.35576 0
M  V30 736 H 70.7218 -3.45258 1.401 0
M  V30 737 H 70.8348 -3.48757 3.2849 0
M  V30 738 H 69.1988 -1.91907 1.67463 0
M  V30 739 H 69.9818 -1.23923 3.20153 0
M  V30 740 N 72.4269 -1.23603 -0.977757 0
M  V30 741 C 73.6549 -1.09646 -1.75458 0
M  V30 742 C 74.0699 0.351859 -1.85492 0
M  V30 743 O 73.4269 1.24327 -1.336 0
M  V30 744 C 73.4779 -1.71895 -3.18016 0
M  V30 745 O 73.1989 -3.11063 -3.08498 0
M  V30 746 C 74.6999 -1.63415 -4.12081 0
M  V30 747 H 71.9199 -0.38359 -0.550545 0
M  V30 748 H 74.4639 -1.63507 -1.22824 0
M  V30 749 H 72.6189 -1.22061 -3.67668 0
M  V30 750 H 73.0329 -3.41305 -3.9826 0
M  V30 751 H 74.5069 -2.11669 -5.09804 0
M  V30 752 H 74.9839 -0.593462 -4.35172 0
M  V30 753 H 75.5899 -2.12628 -3.68334 0
M  V30 754 N 73.905 1.17692 -1.04816 0
M  V30 755 C 75.13 1.92327 -0.776207 0
M  V30 756 C 75.555 1.76082 0.661581 0
M  V30 757 O 74.913 1.076 1.45917 0
M  V30 758 C 74.961 3.41539 -1.15687 0
M  V30 759 O 74.065 4.11402 -0.286775 0
M  V30 760 H 73.406 0.599735 -0.284981 0
M  V30 761 H 75.936 1.49201 -1.4 0
M  V30 762 H 75.946 3.92269 -1.12202 0
M  V30 763 H 74.621 3.52684 -2.20425 0
M  V30 764 H 73.198 3.70939 -0.381903 0
M  V30 765 N 75.3831 0.828654 1.34056 0
M  V30 766 C 76.3461 0.259927 2.27721 0
M  V30 767 C 77.3461 -0.565478 1.50529 0
M  V30 768 O 78.5361 -0.38075 1.69988 0
M  V30 769 C 75.6681 -0.634944 3.34935 0
M  V30 770 H 76.8611 1.0863 2.79534 0
M  V30 771 H 74.4141 0.600951 1.44285 0
M  V30 772 H 75.1491 -1.48416 2.88346 0
M  V30 773 H 74.9341 -0.0444999 3.92075 0
M  V30 774 H 76.4241 -1.02648 4.04788 0
M  V30 775 N 76.8612 -1.46375 0.584142 0
M  V30 776 C 78.1072 -2.02678 0.0703716 0
M  V30 777 C 78.4402 -1.4545 -1.28678 0
M  V30 778 O 77.7152 -0.62014 -1.84349 0
M  V30 779 C 77.9982 -3.60099 0.00614674 0
M  V30 780 C 77.8512 -4.27709 1.3923 0
M  V30 781 C 79.1702 -4.34598 -0.693742 0
M  V30 782 H 76.2892 -0.736504 0.027047 0
M  V30 783 H 78.9312 -1.74501 0.751615 0
M  V30 784 H 77.0812 -3.84236 -0.574009 0
M  V30 785 H 78.7532 -4.14832 2.01773 0
M  V30 786 H 76.9962 -3.87016 1.95962 0
M  V30 787 H 77.6672 -5.36478 1.29982 0
M  V30 788 H 80.1432 -4.15615 -0.200869 0
M  V30 789 H 79.0192 -5.44318 -0.707714 0
M  V30 790 H 79.2802 -4.05759 -1.75533 0
M  V30 791 N 78.3393 -0.321999 -1.54275 0
M  V30 792 C 79.2873 0.560206 -2.25753 0
M  V30 793 C 80.2813 1.11984 -1.27106 0
M  V30 794 O 81.4873 1.06806 -1.44888 0
M  V30 795 H 77.8623 0.199304 -0.725108 0
M  V30 796 H 79.8333 -0.0649365 -2.98329 0
M  V30 797 C 78.5823 1.71023 -3.02731 0
M  V30 798 H 77.9053 1.28885 -3.78456 0
M  V30 799 H 79.3453 2.30314 -3.55993 0
M  V30 800 C 77.8043 2.62692 -2.10938 0
M  V30 801 O 78.3343 3.64364 -1.6912 0
M  V30 802 N 76.5403 2.30891 -1.76459 0
M  V30 803 H 76.0873 1.48253 -2.10663 0
M  V30 804 H 76.0453 2.92487 -1.1532 0
M  V30 805 N 79.8174 1.5752 -0.0501392 0
M  V30 806 C 81.0634 1.92936 0.624798 0
M  V30 807 C 81.3964 0.928685 1.70555 0
M  V30 808 O 80.6714 -0.0454779 1.94447 0
M  V30 809 C 80.9544 3.38737 1.22185 0
M  V30 810 C 80.8074 4.49552 0.149218 0
M  V30 811 C 82.1264 3.84913 2.13378 0
M  V30 812 H 79.2454 0.701604 0.225657 0
M  V30 813 H 81.8874 1.89671 -0.111693 0
M  V30 814 H 80.0374 3.4165 1.84953 0
M  V30 815 H 81.7094 4.58768 -0.482648 0
M  V30 816 H 79.9524 4.30638 -0.522841 0
M  V30 817 H 80.6234 5.48653 0.606966 0
M  V30 818 H 83.0994 3.8387 1.60572 0
M  V30 819 H 81.9754 4.87584 2.52097 0
M  V30 820 H 82.2364 3.21611 3.03346 0
M  V30 821 N 81.2955 -0.223234 1.56011 0
M  V30 822 C 82.5205 -0.968978 1.83373 0
M  V30 823 C 82.9455 -1.77227 0.630254 0
M  V30 824 O 82.3035 -1.76345 -0.420959 0
M  V30 825 C 82.3515 -1.86363 3.08709 0
M  V30 826 O 81.4555 -2.95873 2.87285 0
M  V30 827 H 80.7965 -0.274461 0.604622 0
M  V30 828 H 83.3265 -0.237056 2.03222 0
M  V30 829 H 83.3365 -2.27376 3.38768 0
M  V30 830 H 82.0115 -1.27319 3.95933 0
M  V30 831 H 80.5885 -2.58818 2.68454 0
M  V30 832 N 82.7736 -1.49793 -0.48987 0
M  V30 833 C 83.7056 -1.63413 -1.60713 0
M  V30 834 C 84.7186 -0.516329 -1.54395 0
M  V30 835 O 85.9076 -0.788812 -1.60125 0
M  V30 836 C 83.0076 -1.58516 -2.99543 0
M  V30 837 C 82.1806 -2.86016 -3.30928 0
M  V30 838 C 81.2396 -2.74018 -4.49222 0
M  V30 839 O 80.2656 -3.47964 -4.50455 0
M  V30 840 N 81.4676 -1.86309 -5.4979 0
M  V30 841 H 84.2326 -2.59777 -1.49452 0
M  V30 842 H 81.7936 -1.47022 -0.677955 0
M  V30 843 H 83.7856 -1.48128 -3.76617 0
M  V30 844 H 82.3556 -0.69965 -3.0467 0
M  V30 845 H 81.5756 -3.10672 -2.42645 0
M  V30 846 H 82.8636 -3.70521 -3.487 0
M  V30 847 H 82.2616 -1.2551 -5.51601 0
M  V30 848 H 80.8186 -1.81837 -6.25922 0
M  V30 849 N 84.2517 0.741722 -1.39055 0
M  V30 850 C 85.4797 1.53098 -1.39171 0
M  V30 851 C 85.8947 1.88794 0.0155099 0
M  V30 852 O 85.2517 1.53626 0.985159 0
M  V30 853 C 85.3027 2.82274 -2.2584 0
M  V30 854 O 85.0237 2.48097 -3.61081 0
M  V30 855 C 86.5247 3.76343 -2.34266 0
M  V30 856 H 83.7447 0.473335 -0.4756 0
M  V30 857 H 86.2887 0.917045 -1.82785 0
M  V30 858 H 84.4437 3.40015 -1.85656 0
M  V30 859 H 84.8577 3.31029 -4.06842 0
M  V30 860 H 86.3317 4.63898 -2.9917 0
M  V30 861 H 86.8087 4.17619 -1.35982 0
M  V30 862 H 87.4147 3.24523 -2.74891 0
M  V30 863 N 85.7298 1.2412 0.971189 0
M  V30 864 C 86.9778 1.07668 1.71032 0
M  V30 865 C 87.2988 -0.385797 1.91146 0
M  V30 866 O 86.5688 -1.27569 1.4867 0
M  V30 867 H 85.1488 0.395429 0.633755 0
M  V30 868 H 87.8108 1.55984 1.16855 0
M  V30 869 H 86.9068 1.57195 2.69622 0
M  V30 870 N 87.2079 -1.17134 1.05439 0
M  V30 871 C 88.1399 -2.2078 0.615539 0
M  V30 872 C 89.1529 -1.59584 -0.322001 0
M  V30 873 O 90.3419 -1.78133 -0.114344 0
M  V30 874 C 87.4419 -3.38691 -0.118938 0
M  V30 875 C 86.6149 -4.29454 0.829924 0
M  V30 876 C 85.6739 -5.26024 0.136258 0
M  V30 877 O 84.6999 -5.63952 0.77115 0
M  V30 878 N 85.9019 -5.69487 -1.1254 0
M  V30 879 H 88.6669 -2.59052 1.50705 0
M  V30 880 H 86.2279 -1.32058 0.936603 0
M  V30 881 H 88.2199 -4.00329 -0.593179 0
M  V30 882 H 86.7899 -2.98996 -0.91215 0
M  V30 883 H 86.0099 -3.65211 1.48373 0
M  V30 884 H 87.2979 -4.86984 1.47392 0
M  V30 885 H 86.6959 -5.4075 -1.6615 0
M  V30 886 H 85.2529 -6.33257 -1.54366 0
M  V30 887 N 88.686 -0.835752 -1.33615 0
M  V30 888 C 89.616 -0.281739 -2.31794 0
M  V30 889 C 90.597 0.608833 -1.58831 0
M  V30 890 O 91.782 0.533035 -1.86741 0
M  V30 891 C 88.912 0.546612 -3.42971 0
M  V30 892 C 87.866 -0.247904 -4.27281 0
M  V30 893 C 87.192 0.704001 -5.30045 0
M  V30 894 C 88.492 -1.46324 -5.01385 0
M  V30 895 H 90.186 -1.10206 -2.78379 0
M  V30 896 H 87.732 -0.531388 -1.33837 0
M  V30 897 H 89.685 0.944467 -4.1068 0
M  V30 898 H 88.409 1.40011 -2.95067 0
M  V30 899 H 87.068 -0.627281 -3.61194 0
M  V30 900 H 86.716 1.55381 -4.78399 0
M  V30 901 H 86.416 0.176524 -5.87335 0
M  V30 902 H 87.94 1.09944 -6.0062 0
M  V30 903 H 89.354 -1.13871 -5.61877 0
M  V30 904 H 87.751 -1.92728 -5.6831 0
M  V30 905 H 88.821 -2.23467 -4.30338 0
M  V30 906 N 90.1641 1.46063 -0.591896 0
M  V30 907 C 91.0941 2.33172 0.123673 0
M  V30 908 C 92.0751 1.45897 0.87453 0
M  V30 909 O 93.2601 1.74698 0.848181 0
M  V30 910 C 90.3901 3.28336 1.13194 0
M  V30 911 C 89.3441 4.25124 0.495324 0
M  V30 912 C 88.6701 5.09863 1.61071 0
M  V30 913 C 89.9701 5.19143 -0.573425 0
M  V30 914 H 91.6641 2.93252 -0.603646 0
M  V30 915 H 89.2101 1.41014 -0.291741 0
M  V30 916 H 91.1631 3.88137 1.64097 0
M  V30 917 H 89.8871 2.66383 1.88965 0
M  V30 918 H 88.5461 3.66599 0.00729452 0
M  V30 919 H 88.1941 4.44288 2.35832 0
M  V30 920 H 87.8941 5.75417 1.19035 0
M  V30 921 H 89.4181 5.72529 2.12233 0
M  V30 922 H 90.8321 5.73106 -0.1491 0
M  V30 923 H 89.2291 5.93089 -0.914636 0
M  V30 924 H 90.2991 4.62519 -1.45617 0
M  V30 925 N 91.6422 0.330177 1.54103 0
M  V30 926 C 92.8722 -0.271784 2.04805 0
M  V30 927 C 93.2802 -1.45816 1.20559 0
M  V30 928 O 92.6232 -1.82247 0.2306 0
M  V30 929 C 92.6852 -0.763238 3.51305 0
M  V30 930 C 92.3492 0.301705 4.56003 0
M  V30 931 C 93.3462 1.13999 5.07248 0
M  V30 932 C 91.0312 0.451793 5.00264 0
M  V30 933 C 93.0252 2.11402 6.01322 0
M  V30 934 C 90.7122 1.42924 5.94151 0
M  V30 935 C 91.7102 2.25882 6.44567 0
M  V30 936 O 91.3982 3.21965 7.3661 0
M  V30 937 H 91.1302 -0.058693 0.673447 0
M  V30 938 H 93.6842 0.476395 1.99799 0
M  V30 939 H 91.9142 -1.56244 3.5373 0
M  V30 940 H 93.6032 -1.28427 3.85047 0
M  V30 941 H 94.3692 1.03505 4.73827 0
M  V30 942 H 90.2482 -0.184044 4.60632 0
M  V30 943 H 93.7922 2.76192 6.40596 0
M  V30 944 H 89.6892 1.53479 6.26988 0
M  V30 945 H 90.4572 3.17281 7.54503 0
M  V30 946 N 93.1203 -1.57491 0.0584922 0
M  V30 947 C 94.0523 -2.08916 -0.942694 0
M  V30 948 C 95.0653 -1.0185 -1.27006 0
M  V30 949 O 96.2543 -1.29398 -1.22957 0
M  V30 950 C 93.3543 -2.52341 -2.26224 0
M  V30 951 C 92.5273 -3.82827 -2.1157 0
M  V30 952 C 91.5863 -4.12487 -3.26712 0
M  V30 953 O 90.6123 -4.82295 -3.02292 0
M  V30 954 N 91.8143 -3.64978 -4.5141 0
M  V30 955 H 94.5793 -2.95437 -0.503722 0
M  V30 956 H 92.1403 -1.61397 -0.12757 0
M  V30 957 H 94.1323 -2.69254 -3.02133 0
M  V30 958 H 92.7023 -1.7103 -2.61663 0
M  V30 959 H 91.9223 -3.75425 -1.20208 0
M  V30 960 H 93.2103 -4.68263 -1.99015 0
M  V30 961 H 92.6083 -3.08558 -4.7414 0
M  V30 962 H 91.1653 -3.87115 -5.2439 0
M  V30 963 N 94.5984 0.214957 -1.56127 0
M  V30 964 C 95.8284 0.953707 -1.8327 0
M  V30 965 C 96.2364 1.78181 -0.636262 0
M  V30 966 O 95.5794 1.79191 0.404516 0
M  V30 967 C 95.6414 1.91516 -3.0424 0
M  V30 968 C 95.3054 1.27094 -4.38972 0
M  V30 969 C 96.3024 0.657575 -5.15725 0
M  V30 970 C 93.9874 1.28073 -4.85698 0
M  V30 971 C 95.9814 0.0625968 -6.37369 0
M  V30 972 C 93.6684 0.681914 -6.07283 0
M  V30 973 C 94.6664 0.0739046 -6.8296 0
M  V30 974 O 94.3544 -0.515582 -8.02245 0
M  V30 975 H 94.0864 0.284764 -0.613095 0
M  V30 976 H 96.6404 0.233283 -2.04071 0
M  V30 977 H 94.8704 2.67475 -2.79274 0
M  V30 978 H 96.5594 2.52001 -3.18198 0
M  V30 979 H 97.3254 0.642288 -4.80728 0
M  V30 980 H 93.2044 1.74337 -4.26764 0
M  V30 981 H 96.7484 -0.412593 -6.96379 0
M  V30 982 H 92.6454 0.694636 -6.41752 0
M  V30 983 H 93.4134 -0.410544 -8.1747 0
M  V30 984 N 96.0765 1.50051 0.48192 0
M  V30 985 C 97.0245 1.68635 1.60203 0
M  V30 986 C 98.0185 0.552184 1.60148 0
M  V30 987 O 99.2245 0.732377 1.64427 0
M  V30 988 H 95.5995 0.532081 0.531407 0
M  V30 989 H 97.5705 2.62616 1.41688 0
M  V30 990 C 96.3195 1.78775 2.9822 0
M  V30 991 H 95.6425 2.6543 2.98976 0
M  V30 992 H 97.0825 1.95806 3.7608 0
M  V30 993 C 95.5415 0.536849 3.32595 0
M  V30 994 O 96.0715 -0.328897 4.00351 0
M  V30 995 N 94.2775 0.394091 2.87915 0
M  V30 996 H 93.8245 1.09962 2.32951 0
M  V30 997 H 93.7825 -0.441737 3.11281 0
M  V30 998 N 97.5546 -0.734337 1.39446 0
M  V30 999 C 98.8036 -1.48937 1.36017 0
M  V30 1000 C 99.1166 -1.95557 -0.0409005 0
M  V30 1001 O 100.323 -2.70779 -0.19778 0
M  V30 1002 C 98.7786 -2.69125 2.38955 0
M  V30 1003 C 98.3866 -2.29452 3.8478 0
M  V30 1004 C 100.131 -3.46944 2.44603 0
M  V30 1005 C 98.0376 -3.46366 4.79358 0
M  V30 1006 H 96.9676 -0.559296 0.505672 0
M  V30 1007 H 99.6186 -0.800983 1.65095 0
M  V30 1008 H 98.0006 -3.40041 2.02948 0
M  V30 1009 H 99.1746 -1.66077 4.29831 0
M  V30 1010 H 97.4896 -1.64723 3.82433 0
M  V30 1011 H 100.087 -4.33907 3.12456 0
M  V30 1012 H 100.43 -3.89454 1.47076 0
M  V30 1013 H 100.963 -2.83056 2.79507 0
M  V30 1014 H 97.7016 -3.08905 5.78151 0
M  V30 1015 H 97.2216 -4.08719 4.38986 0
M  V30 1016 H 98.9006 -4.12691 4.98292 0
M  V30 1017 N 99.0327 -1.24633 -0.964593 0
M  V30 1018 C 100.31 -0.995809 -1.68354 0
M  V30 1019 C 100.69 0.480964 -2.05548 0
M  V30 1020 O 100.038 1.45599 -1.76105 0
M  V30 1021 C 100.248 -1.92177 -2.91323 0
M  V30 1022 C 101.596 -2.19446 -3.63495 0
M  V30 1023 O 102.62 -1.89855 -3.01386 0
M  V30 1024 O 101.479 -2.69714 -4.75307 0
M  V30 1025 H 98.5727 -0.376854 -0.736146 0
M  V30 1026 H 101.119 -1.35745 -1.0184 0
M  V30 1027 H 99.8907 -2.91938 -2.60553 0
M  V30 1028 H 99.5137 -1.56349 -3.65569 0
M  V30 1029 N 100.511 1.16574 -1.06058 0
M  V30 1030 C 101.739 1.90952 -0.796552 0
M  V30 1031 C 102.154 1.77302 0.648808 0
M  V30 1032 O 101.511 1.11605 1.44397 0
M  V30 1033 C 101.562 3.41736 -1.17894 0
M  V30 1034 O 101.283 3.54975 -2.56758 0
M  V30 1035 C 102.784 4.33169 -0.942308 0
M  V30 1036 H 100.004 0.605594 -0.288959 0
M  V30 1037 H 102.548 1.47777 -1.41358 0
M  V30 1038 H 100.703 3.82623 -0.606491 0
M  V30 1039 H 101.117 4.4846 -2.72 0
M  V30 1040 H 102.591 5.37439 -1.25952 0
M  V30 1041 H 103.068 4.3903 0.122078 0
M  V30 1042 H 103.674 3.98007 -1.49902 0
M  V30 1043 N 101.989 0.842826 1.3317 0
M  V30 1044 C 102.936 0.276885 2.29133 0
M  V30 1045 C 103.906 -0.609527 1.54512 0
M  V30 1046 O 105.091 -0.546955 1.82792 0
M  V30 1047 C 102.231 -0.538707 3.40869 0
M  V30 1048 C 101.344 0.372169 4.30394 0
M  V30 1049 C 100.479 -0.454908 5.29249 0
M  V30 1050 C 99.5179 0.45411 6.10413 0
M  V30 1051 N 98.6549 -0.335075 7.013 0
M  V30 1052 H 103.495 1.10052 2.76934 0
M  V30 1053 H 101.032 0.554161 1.36262 0
M  V30 1054 H 102.99 -1.02709 4.0436 0
M  V30 1055 H 101.62 -1.32727 2.9425 0
M  V30 1056 H 100.672 0.97888 3.6759 0
M  V30 1057 H 101.984 1.0703 4.87182 0
M  V30 1058 H 101.138 -1.00695 5.98285 0
M  V30 1059 H 99.8769 -1.18646 4.73048 0
M  V30 1060 H 98.8819 1.01813 5.40291 0
M  V30 1061 H 100.107 1.18409 6.68697 0
M  V30 1062 H 98.0529 -1.04994 6.47543 0
M  V30 1063 H 97.9699 0.304262 7.55387 0
M  V30 1064 H 99.2379 -0.869224 7.74638 0
M  V30 1065 N 103.467 -1.45747 0.599634 0
M  V30 1066 C 104.713 -2.03153 0.100263 0
M  V30 1067 C 105.068 -1.46073 -1.25221 0
M  V30 1068 O 104.361 -0.622878 -1.81193 0
M  V30 1069 C 104.555 -3.57399 -0.00602758 0
M  V30 1070 C 104.384 -4.2944 1.3346 0
M  V30 1071 C 103.154 -4.6768 1.91321 0
M  V30 1072 C 105.352 -4.61905 2.2616 0
M  V30 1073 N 103.334 -5.24544 3.18946 0
M  V30 1074 C 104.705 -5.19518 3.3838 0
M  V30 1075 C 106.76 -4.43841 2.25631 0
M  V30 1076 C 105.463 -5.60972 4.50226 0
M  V30 1077 C 107.489 -4.86322 3.36518 0
M  V30 1078 C 106.851 -5.44021 4.4746 0
M  V30 1079 H 102.95 -0.777911 0.0798696 0
M  V30 1080 H 105.534 -1.77674 0.796244 0
M  V30 1081 H 103.705 -3.82556 -0.671212 0
M  V30 1082 H 105.437 -4.01457 -0.51133 0
M  V30 1083 H 102.192 -4.5098 1.44617 0
M  V30 1084 H 102.616 -5.57483 3.84112 0
M  V30 1085 H 107.258 -3.98552 1.41123 0
M  V30 1086 H 104.976 -6.0523 5.35464 0
M  V30 1087 H 108.562 -4.74084 3.37247 0
M  V30 1088 H 107.442 -5.76289 5.31846 0
M  V30 1089 N 104.945 -0.338344 -1.53925 0
M  V30 1090 C 105.893 0.536231 -2.26335 0
M  V30 1091 C 106.887 1.1063 -1.28286 0
M  V30 1092 O 108.093 1.05264 -1.46012 0
M  V30 1093 H 104.468 0.191602 -0.727181 0
M  V30 1094 H 106.439 -0.0965747 -2.98244 0
M  V30 1095 C 105.188 1.67803 -3.04528 0
M  V30 1096 H 104.511 1.24864 -3.79801 0
M  V30 1097 H 105.951 2.26526 -3.58416 0
M  V30 1098 C 104.41 2.60439 -2.13712 0
M  V30 1099 O 104.94 3.6255 -1.72975 0
M  V30 1100 N 103.146 2.29006 -1.78898 0
M  V30 1101 H 102.693 1.46011 -2.12223 0
M  V30 1102 H 102.651 2.91248 -1.18416 0
M  V30 1103 N 106.423 1.57458 -0.0668435 0
M  V30 1104 C 107.834 1.80776 0.466558 0
M  V30 1105 C 108.185 0.980361 1.69951 0
M  V30 1106 O 107.31 0.201441 2.1546 0
M  V30 1107 C 107.905 3.27881 0.85321 0
M  V30 1108 C 106.464 3.52062 1.3315 0
M  V30 1109 C 105.611 2.75513 0.314264 0
M  V30 1110 H 108.562 1.5598 -0.292588 0
M  V30 1111 H 108.583 3.39659 1.715 0
M  V30 1112 H 108.095 3.88075 -0.0443439 0
M  V30 1113 H 106.196 2.97167 2.24772 0
M  V30 1114 H 106.309 4.60762 1.31285 0
M  V30 1115 H 104.673 2.42123 0.790492 0
M  V30 1116 H 105.456 3.38442 -0.575477 0
M  V30 1117 N 107.901 -0.206675 1.56239 0
M  V30 1118 C 108.864 -1.23976 1.92776 0
M  V30 1119 C 109.864 -1.39041 0.807729 0
M  V30 1120 O 111.054 -1.37051 1.0753 0
M  V30 1121 C 108.186 -2.61112 2.19165 0
M  V30 1122 H 109.379 -0.927764 2.85189 0
M  V30 1123 H 106.932 -0.447718 1.4975 0
M  V30 1124 H 107.667 -2.97386 1.29352 0
M  V30 1125 H 107.452 -2.51552 3.00772 0
M  V30 1126 H 108.942 -3.35633 2.48476 0
M  V30 1127 N 109.379 -1.50304 -0.473955 0
M  V30 1128 C 110.604 -1.65175 -1.25427 0
M  V30 1129 C 111.029 -0.333673 -1.85117 0
M  V30 1130 O 110.387 0.702114 -1.67153 0
M  V30 1131 C 110.435 -2.74295 -2.34082 0
M  V30 1132 O 109.539 -2.35349 -3.38651 0
M  V30 1133 H 108.88 -0.551944 -0.369126 0
M  V30 1134 H 111.41 -1.96662 -0.564364 0
M  V30 1135 H 111.42 -2.97285 -2.79438 0
M  V30 1136 H 110.095 -3.69959 -1.90008 0
M  V30 1137 H 108.672 -2.22794 -2.99027 0
M  V30 1138 N 110.857 0.726932 -1.39834 0
M  V30 1139 C 111.79 1.8501 -1.33592 0
M  V30 1140 C 112.768 1.61262 -0.208191 0
M  V30 1141 O 113.952 1.84422 -0.389981 0
M  V30 1142 C 111.079 3.21143 -1.07633 0
M  V30 1143 C 110.125 3.63737 -2.22705 0
M  V30 1144 S 110.958 3.72167 -3.85035 0
M  V30 1145 C 112.114 5.11077 -3.61318 0
M  V30 1146 H 112.347 1.90022 -2.28646 0
M  V30 1147 H 109.88 0.892595 -1.25985 0
M  V30 1148 H 111.838 3.99747 -0.933415 0
M  V30 1149 H 110.499 3.13776 -0.142526 0
M  V30 1150 H 109.692 4.62551 -2.00155 0
M  V30 1151 H 109.294 2.9236 -2.33242 0
M  V30 1152 H 111.586 5.97656 -3.19083 0
M  V30 1153 H 112.529 5.38658 -4.59623 0
M  V30 1154 H 112.937 4.81135 -2.95245 0
M  V30 1155 N 112.336 1.25143 0.95797 0
M  V30 1156 C 113.564 1.12424 1.73691 0
M  V30 1157 C 113.979 -0.322304 1.86029 0
M  V30 1158 O 113.336 -1.22186 1.35561 0
M  V30 1159 C 113.387 1.76933 3.15241 0
M  V30 1160 O 113.108 3.15932 3.03511 0
M  V30 1161 C 114.609 1.6995 4.09429 0
M  V30 1162 H 111.829 0.3923 0.544373 0
M  V30 1163 H 114.373 1.6544 1.20207 0
M  V30 1164 H 112.528 1.27895 3.6568 0
M  V30 1165 H 112.942 3.47598 3.9278 0
M  V30 1166 H 114.416 2.19753 5.06372 0
M  V30 1167 H 114.893 0.662619 4.34173 0
M  V30 1168 H 115.499 2.18461 3.64904 0
M  V30 1169 N 113.814 -1.1601 1.06675 0
M  V30 1170 C 114.761 -2.20525 0.680967 0
M  V30 1171 C 115.731 -1.62904 -0.324283 0
M  V30 1172 O 116.916 -1.89615 -0.212294 0
M  V30 1173 C 114.056 -3.45013 0.0776551 0
M  V30 1174 C 113.169 -4.16863 1.13355 0
M  V30 1175 C 112.304 -5.2888 0.49597 0
M  V30 1176 C 111.343 -5.92537 1.53513 0
M  V30 1177 N 110.48 -6.96038 0.920631 0
M  V30 1178 H 115.32 -2.52876 1.57663 0
M  V30 1179 H 112.857 -1.24199 0.788223 0
M  V30 1180 H 114.815 -4.16193 -0.289704 0
M  V30 1181 H 113.445 -3.132 -0.781393 0
M  V30 1182 H 112.497 -3.44248 1.61857 0
M  V30 1183 H 113.809 -4.60294 1.92174 0
M  V30 1184 H 112.963 -6.06653 0.0758604 0
M  V30 1185 H 111.702 -4.86622 -0.324062 0
M  V30 1186 H 110.707 -5.13482 1.9651 0
M  V30 1187 H 111.932 -6.36873 2.35733 0
M  V30 1188 H 109.878 -6.55888 0.12138 0
M  V30 1189 H 109.795 -7.3786 1.64616 0
M  V30 1190 H 111.063 -7.77725 0.525795 0
M  V30 1191 N 115.292 -0.849877 -1.32721 0
M  V30 1192 C 116.222 -0.306308 -2.31482 0
M  V30 1193 C 117.203 0.591952 -1.59468 0
M  V30 1194 O 118.388 0.513199 -1.87296 0
M  V30 1195 C 115.518 0.510204 -3.43532 0
M  V30 1196 C 114.472 -0.293209 -4.26994 0
M  V30 1197 C 113.798 0.647743 -5.30762 0
M  V30 1198 C 115.098 -1.51634 -4.99804 0
M  V30 1199 H 116.792 -1.13153 -2.77195 0
M  V30 1200 H 114.338 -0.545553 -1.33266 0
M  V30 1201 H 116.291 0.900856 -4.11658 0
M  V30 1202 H 115.015 1.36874 -2.96535 0
M  V30 1203 H 113.674 -0.665555 -3.60508 0
M  V30 1204 H 113.322 1.50299 -4.8002 0
M  V30 1205 H 113.022 0.11422 -5.87489 0
M  V30 1206 H 114.546 1.03567 -6.01753 0
M  V30 1207 H 115.96 -1.19824 -5.60638 0
M  V30 1208 H 114.357 -1.98745 -5.66234 0
M  V30 1209 H 115.427 -2.28018 -4.27943 0
M  V30 1210 N 116.77 1.45427 -0.607355 0
M  V30 1211 C 117.703 2.27635 0.160482 0
M  V30 1212 C 118.681 1.37122 0.873857 0
M  V30 1213 O 119.865 1.66551 0.882775 0
M  V30 1214 C 116.992 3.15486 1.23231 0
M  V30 1215 C 116.038 4.21939 0.622097 0
M  V30 1216 S 116.871 5.32459 -0.569852 0
M  V30 1217 C 118.027 6.23879 0.502577 0
M  V30 1218 H 118.26 2.9241 -0.536983 0
M  V30 1219 H 115.793 1.49265 -0.394868 0
M  V30 1220 H 117.751 3.66659 1.84585 0
M  V30 1221 H 116.412 2.49977 1.90185 0
M  V30 1222 H 115.605 4.8333 1.42856 0
M  V30 1223 H 115.207 3.73906 0.0837063 0
M  V30 1224 H 117.499 6.63261 1.38171 0
M  V30 1225 H 118.442 7.0806 -0.0751759 0
M  V30 1226 H 118.85 5.58545 0.8178 0
M  V30 1227 N 118.248 0.346503 1.53744 0
M  V30 1228 C 119.476 -0.25041 2.05379 0
M  V30 1229 C 119.891 -1.43979 1.22129 0
M  V30 1230 O 119.248 -1.80677 0.257321 0
M  V30 1231 C 119.299 -0.662575 3.55376 0
M  V30 1232 O 119.02 0.479515 4.35468 0
M  V30 1233 C 120.521 -1.31989 4.23195 0
M  V30 1234 H 117.741 -0.0478198 0.669294 0
M  V30 1235 H 120.285 0.499346 1.9831 0
M  V30 1236 H 118.44 -1.36227 3.62658 0
M  V30 1237 H 118.854 0.15037 5.24284 0
M  V30 1238 H 120.328 -1.55902 5.29527 0
M  V30 1239 H 120.805 -2.27436 3.75725 0
M  V30 1240 H 121.411 -0.662154 4.20114 0
M  V30 1241 N 119.726 -1.57421 0.075193 0
M  V30 1242 C 120.659 -2.08528 -0.926904 0
M  V30 1243 C 121.637 -0.991171 -1.28898 0
M  V30 1244 O 122.821 -1.26479 -1.39769 0
M  V30 1245 C 119.948 -2.54576 -2.23402 0
M  V30 1246 C 118.994 -3.75454 -2.02327 0
M  V30 1247 S 119.827 -5.19989 -1.27951 0
M  V30 1248 C 120.983 -5.69372 -2.59935 0
M  V30 1249 H 121.216 -2.932 -0.492048 0
M  V30 1250 H 118.749 -1.53785 -0.137651 0
M  V30 1251 H 120.707 -2.81767 -2.98526 0
M  V30 1252 H 119.368 -1.70166 -2.64012 0
M  V30 1253 H 118.561 -4.05675 -2.99071 0
M  V30 1254 H 118.163 -3.48654 -1.35339 0
M  V30 1255 H 120.455 -5.76424 -3.56008 0
M  V30 1256 H 121.398 -6.68207 -2.34319 0
M  V30 1257 H 121.806 -4.97205 -2.67296 0
M  V30 1258 N 121.204 0.198386 -1.56346 0
M  V30 1259 C 122.434 0.934215 -1.84271 0
M  V30 1260 C 122.842 1.77496 -0.655125 0
M  V30 1261 O 122.185 1.7961 0.385488 0
M  V30 1262 C 122.247 1.88278 -3.06254 0
M  V30 1263 C 121.911 1.22431 -4.40295 0
M  V30 1264 C 122.908 0.602839 -5.16393 0
M  V30 1265 C 120.593 1.22915 -4.87029 0
M  V30 1266 C 122.587 -0.0050083 -6.374 0
M  V30 1267 C 120.274 0.617465 -6.07973 0
M  V30 1268 C 121.272 0.00146341 -6.83 0
M  V30 1269 O 120.96 -0.600642 -8.01653 0
M  V30 1270 H 120.692 0.278245 -0.616081 0
M  V30 1271 H 123.246 0.211626 -2.04307 0
M  V30 1272 H 121.476 2.64498 -2.82095 0
M  V30 1273 H 123.165 2.48612 -3.20853 0
M  V30 1274 H 123.931 0.591265 -4.81382 0
M  V30 1275 H 119.81 1.69801 -4.28589 0
M  V30 1276 H 123.354 -0.48643 -6.95902 0
M  V30 1277 H 119.251 0.62653 -6.42452 0
M  V30 1278 H 120.019 -0.497225 -8.16988 0
M  V30 1279 N 122.682 1.50554 0.465978 0
M  V30 1280 C 123.612 1.72722 1.57128 0
M  V30 1281 C 124.593 0.576294 1.6004 0
M  V30 1282 O 125.778 0.81598 1.76225 0
M  V30 1283 C 122.908 1.82605 2.95419 0
M  V30 1284 C 121.862 2.97835 3.07373 0
M  V30 1285 C 121.188 2.92867 4.47363 0
M  V30 1286 C 122.488 4.38265 2.84114 0
M  V30 1287 H 124.182 2.65267 1.38829 0
M  V30 1288 H 121.728 1.2765 0.666441 0
M  V30 1289 H 123.681 1.96698 3.72677 0
M  V30 1290 H 122.405 0.866858 3.14886 0
M  V30 1291 H 121.064 2.83401 2.3255 0
M  V30 1292 H 120.712 1.94783 4.63755 0
M  V30 1293 H 120.412 3.70227 4.56296 0
M  V30 1294 H 121.936 3.09015 5.26633 0
M  V30 1295 H 123.35 4.53198 3.51118 0
M  V30 1296 H 121.747 5.17115 3.04487 0
M  V30 1297 H 122.817 4.50281 1.7993 0
M  V30 1298 N 124.16 -0.719506 1.40217 0
M  V30 1299 C 125.388 -1.50864 1.41589 0
M  V30 1300 C 125.803 -1.88794 0.0145275 0
M  V30 1301 O 125.16 -1.55174 -0.960594 0
M  V30 1302 C 125.211 -2.78646 2.30302 0
M  V30 1303 O 124.932 -2.42321 3.64983 0
M  V30 1304 C 126.433 -3.72569 2.40224 0
M  V30 1305 H 123.653 -0.465709 0.48307 0
M  V30 1306 H 126.197 -0.88785 1.84221 0
M  V30 1307 H 124.352 -3.37019 1.91042 0
M  V30 1308 H 124.766 -3.24514 4.12057 0
M  V30 1309 H 126.24 -4.5908 3.06512 0
M  V30 1310 H 126.717 -4.15403 1.42608 0
M  V30 1311 H 127.323 -3.20109 2.80019 0
M  V30 1312 N 125.638 -1.25649 -0.95132 0
M  V30 1313 C 126.568 -1.08808 -2.06599 0
M  V30 1314 C 127.549 0.00382547 -1.701 0
M  V30 1315 O 128.734 -0.166325 -1.93486 0
M  V30 1316 C 125.864 -0.709542 -3.39975 0
M  V30 1317 C 124.818 -1.75206 -3.90496 0
M  V30 1318 C 124.144 -1.22811 -5.20405 0
M  V30 1319 C 125.444 -3.15153 -4.16504 0
M  V30 1320 H 127.138 -2.02048 -2.20946 0
M  V30 1321 H 124.684 -0.972835 -1.06169 0
M  V30 1322 H 126.637 -0.578649 -4.17408 0
M  V30 1323 H 125.361 0.258556 -3.25575 0
M  V30 1324 H 124.02 -1.87145 -3.15234 0
M  V30 1325 H 123.668 -0.250145 -5.02378 0
M  V30 1326 H 123.368 -1.92492 -5.55176 0
M  V30 1327 H 124.892 -1.10968 -6.00432 0
M  V30 1328 H 126.306 -3.06349 -4.84586 0
M  V30 1329 H 124.703 -3.82333 -4.62538 0
M  V30 1330 H 125.773 -3.61966 -3.22658 0
M  V30 1331 N 127.117 1.15442 -1.07289 0
M  V30 1332 C 128.027 2.23786 -0.704057 0
M  V30 1333 C 129.043 1.7166 0.284413 0
M  V30 1334 O 130.219 2.00972 0.131205 0
M  V30 1335 C 127.284 3.46535 -0.106792 0
M  V30 1336 C 126.345 4.13654 -1.14842 0
M  V30 1337 C 125.578 5.30544 -0.57956 0
M  V30 1338 O 125.801 5.67187 0.604585 0
M  V30 1339 O 124.735 5.87154 -1.32414 0
M  V30 1340 H 128.561 2.57664 -1.60757 0
M  V30 1341 H 126.146 1.23152 -0.845803 0
M  V30 1342 H 128.028 4.20804 0.224048 0
M  V30 1343 H 126.703 3.14407 0.770049 0
M  V30 1344 H 125.61 3.4131 -1.5316 0
M  V30 1345 H 126.943 4.49861 -1.99714 0
M  V30 1346 N 128.595 0.856903 1.32268 0
M  V30 1347 C 129.558 0.308171 2.27119 0
M  V30 1348 C 130.558 -0.533421 1.51695 0
M  V30 1349 O 131.748 -0.344607 1.70757 0
M  V30 1350 C 128.88 -0.563757 3.36206 0
M  V30 1351 H 130.073 1.14535 2.77167 0
M  V30 1352 H 127.626 0.631421 1.42978 0
M  V30 1353 H 128.361 -1.42266 2.91429 0
M  V30 1354 H 128.146 0.0386749 3.92081 0
M  V30 1355 H 129.636 -0.940386 4.06874 0
M  V30 1356 N 130.073 -1.45103 0.615059 0
M  V30 1357 C 131.319 -2.02483 0.113347 0
M  V30 1358 C 131.652 -1.48146 -1.25564 0
M  V30 1359 O 130.927 -0.659104 -1.82992 0
M  V30 1360 C 131.21 -3.60005 0.0825278 0
M  V30 1361 C 131.063 -4.2466 1.48271 0
M  V30 1362 C 132.382 -4.35972 -0.601401 0
M  V30 1363 H 129.501 -0.735764 0.0426632 0
M  V30 1364 H 132.143 -1.72868 0.788461 0
M  V30 1365 H 130.293 -3.85367 -0.492378 0
M  V30 1366 H 131.965 -4.10458 2.10527 0
M  V30 1367 H 130.208 -3.82772 2.04127 0
M  V30 1368 H 130.879 -5.336 1.41332 0
M  V30 1369 H 133.355 -4.15947 -0.112666 0
M  V30 1370 H 132.231 -5.45697 -0.592097 0
M  V30 1371 H 132.492 -4.09391 -1.66887 0
M  V30 1372 N 131.551 -0.354651 -1.53558 0
M  V30 1373 C 132.499 0.512195 -2.26891 0
M  V30 1374 C 133.493 1.09263 -1.29452 0
M  V30 1375 O 134.699 1.03709 -1.47121 0
M  V30 1376 H 131.074 0.183878 -0.729173 0
M  V30 1377 H 133.045 -0.128202 -2.98124 0
M  V30 1378 C 131.794 1.64563 -3.06291 0
M  V30 1379 H 131.117 1.20829 -3.81104 0
M  V30 1380 H 132.557 2.22711 -3.60799 0
M  V30 1381 C 131.016 2.58158 -2.16462 0
M  V30 1382 O 131.546 3.60695 -1.76811 0
M  V30 1383 N 129.752 2.27096 -1.81317 0
M  V30 1384 H 129.299 1.43751 -2.1376 0
M  V30 1385 H 129.257 2.89975 -1.21498 0
M  V30 1386 N 133.029 1.57378 -0.0835403 0
M  V30 1387 C 133.976 2.13384 0.879539 0
M  V30 1388 C 134.946 1.04936 1.28754 0
M  V30 1389 O 136.131 1.32662 1.37133 0
M  V30 1390 C 133.271 2.70932 2.13752 0
M  V30 1391 C 132.384 3.93575 1.7811 0
M  V30 1392 C 131.519 4.39326 2.98607 0
M  V30 1393 C 130.558 5.54587 2.59037 0
M  V30 1394 N 129.695 5.95243 3.72331 0
M  V30 1395 H 134.535 2.9537 0.395076 0
M  V30 1396 H 132.072 1.45953 0.183349 0
M  V30 1397 H 134.03 3.02411 2.87408 0
M  V30 1398 H 132.66 1.91693 2.59718 0
M  V30 1399 H 131.712 3.68483 0.94469 0
M  V30 1400 H 133.024 4.77258 1.45005 0
M  V30 1401 H 132.178 4.72528 3.80529 0
M  V30 1402 H 130.917 3.5452 3.34913 0
M  V30 1403 H 129.922 5.21024 1.75539 0
M  V30 1404 H 131.147 6.41133 2.23887 0
M  V30 1405 H 129.093 5.13385 4.08378 0
M  V30 1406 H 129.01 6.73694 3.43034 0
M  V30 1407 H 130.278 6.33072 4.54797 0
M  V30 1408 N 134.507 -0.190092 1.56449 0
M  V30 1409 C 135.755 -0.907908 1.80559 0
M  V30 1410 C 136.076 -1.83583 0.657438 0
M  V30 1411 O 135.346 -1.93203 -0.323924 0
M  V30 1412 H 133.926 -0.338247 0.666032 0
M  V30 1413 H 136.588 -0.194403 1.93928 0
M  V30 1414 H 135.684 -1.49604 2.73907 0
M  V30 1415 N 135.985 -1.50799 -0.457987 0
M  V30 1416 C 136.917 -1.66786 -1.57211 0
M  V30 1417 C 137.93 -0.548962 -1.53265 0
M  V30 1418 O 139.119 -0.8226 -1.58416 0
M  V30 1419 C 136.219 -1.64834 -2.96113 0
M  V30 1420 C 135.392 -2.92971 -3.24787 0
M  V30 1421 C 134.451 -2.83485 -4.43309 0
M  V30 1422 O 133.477 -3.5744 -4.42973 0
M  V30 1423 N 134.679 -1.97929 -5.45714 0
M  V30 1424 H 137.444 -2.62889 -1.43909 0
M  V30 1425 H 135.005 -1.48427 -0.646617 0
M  V30 1426 H 136.997 -1.56084 -3.7339 0
M  V30 1427 H 135.567 -0.764118 -3.03117 0
M  V30 1428 H 134.787 -3.15749 -2.36 0
M  V30 1429 H 136.075 -3.77834 -3.40762 0
M  V30 1430 H 135.473 -1.37182 -5.48815 0
M  V30 1431 H 134.03 -1.95073 -6.21924 0
M  V30 1432 N 137.463 0.71206 -1.40597 0
M  V30 1433 C 138.393 1.83889 -1.43899 0
M  V30 1434 C 139.374 1.67442 -0.299504 0
M  V30 1435 O 140.559 1.87421 -0.508624 0
M  V30 1436 C 137.689 3.21877 -1.30431 0
M  V30 1437 C 136.643 3.53002 -2.42019 0
M  V30 1438 C 135.969 4.90172 -2.13626 0
M  V30 1439 C 137.269 3.53643 -3.84362 0
M  V30 1440 H 138.963 1.81383 -2.38203 0
M  V30 1441 H 136.509 0.871237 -1.14654 0
M  V30 1442 H 138.462 4.00404 -1.31357 0
M  V30 1443 H 137.186 3.24968 -0.326049 0
M  V30 1444 H 135.845 2.76818 -2.40349 0
M  V30 1445 H 135.493 4.89869 -1.14182 0
M  V30 1446 H 135.193 5.11962 -2.88389 0
M  V30 1447 H 136.717 5.71028 -2.1624 0
M  V30 1448 H 138.131 4.22203 -3.87837 0
M  V30 1449 H 136.528 3.86961 -4.58673 0
M  V30 1450 H 137.598 2.52954 -4.13693 0
M  V30 1451 N 138.941 1.26152 0.944643 0
M  V30 1452 C 140.166 1.14363 1.7302 0
M  V30 1453 C 140.591 -0.29772 1.85729 0
M  V30 1454 O 139.949 -1.2157 1.34501 0
M  V30 1455 C 139.997 1.81378 3.11664 0
M  V30 1456 O 139.101 1.10022 3.97453 0
M  V30 1457 H 138.442 0.398694 0.53098 0
M  V30 1458 H 140.972 1.66906 1.18337 0
M  V30 1459 H 140.982 1.88064 3.62072 0
M  V30 1460 H 139.657 2.86237 3.0173 0
M  V30 1461 H 138.234 1.11287 3.55907 0
M  V30 1462 N 140.419 -1.14872 1.07899 0
M  V30 1463 C 141.349 -2.2193 0.725887 0
M  V30 1464 C 142.33 -1.67622 -0.28927 0
M  V30 1465 O 143.515 -1.93533 -0.160787 0
M  V30 1466 C 140.645 -3.47061 0.128856 0
M  V30 1467 C 139.599 -4.14363 1.07178 0
M  V30 1468 C 138.925 -5.33636 0.337229 0
M  V30 1469 C 140.225 -4.63492 2.40775 0
M  V30 1470 H 141.919 -2.51724 1.62097 0
M  V30 1471 H 139.465 -1.20991 0.780838 0
M  V30 1472 H 141.418 -4.21199 -0.130147 0
M  V30 1473 H 140.142 -3.16617 -0.80134 0
M  V30 1474 H 138.801 -3.42173 1.3158 0
M  V30 1475 H 138.449 -4.99449 -0.596606 0
M  V30 1476 H 138.149 -5.79609 0.965788 0
M  V30 1477 H 139.673 -6.10539 0.0861567 0
M  V30 1478 H 141.087 -5.2913 2.20669 0
M  V30 1479 H 139.484 -5.20148 2.99276 0
M  V30 1480 H 140.554 -3.78834 3.02676 0
M  V30 1481 N 141.898 -0.863906 -1.31812 0
M  V30 1482 C 143.175 -0.39275 -1.91616 0
M  V30 1483 C 143.555 1.12461 -1.7865 0
M  V30 1484 O 142.903 1.95045 -1.19037 0
M  V30 1485 C 143.113 -0.867385 -3.38049 0
M  V30 1486 C 144.461 -0.889966 -4.15168 0
M  V30 1487 O 145.485 -0.812635 -3.46806 0
M  V30 1488 O 144.344 -1.00079 -5.37258 0
M  V30 1489 H 141.438 -0.116358 -0.818773 0
M  V30 1490 H 143.984 -0.951418 -1.40521 0
M  V30 1491 H 142.756 -1.91081 -3.41473 0
M  V30 1492 H 142.379 -0.286687 -3.96565 0
M  V30 1493 N 143.376 1.44774 -0.622745 0
M  V30 1494 C 144.653 1.95522 -0.0551974 0
M  V30 1495 C 145.033 1.5649 1.41683 0
M  V30 1496 O 144.381 0.834848 2.12703 0
M  V30 1497 C 144.591 3.4796 -0.269242 0
M  V30 1498 C 145.939 4.24306 -0.158014 0
M  V30 1499 O 146.963 3.55637 -0.200162 0
M  V30 1500 O 145.822 5.46471 -0.0558693 0
M  V30 1501 H 142.916 0.826556 0.0271015 0
M  V30 1502 H 145.462 1.54866 -0.693864 0
M  V30 1503 H 144.234 3.6939 -1.29099 0
M  V30 1504 H 143.857 3.95543 0.403966 0
M  V30 1505 N 144.854 0.36279 1.53368 0
M  V30 1506 C 146.082 -0.228613 2.05633 0
M  V30 1507 C 146.497 -1.42676 1.23649 0
M  V30 1508 O 145.854 -1.80394 0.27647 0
M  V30 1509 C 145.905 -0.624845 3.56059 0
M  V30 1510 O 145.626 0.525675 4.34935 0
M  V30 1511 C 147.127 -1.27493 4.24571 0
M  V30 1512 H 144.347 -0.0407183 0.669763 0
M  V30 1513 H 146.891 0.520352 1.97769 0
M  V30 1514 H 145.046 -1.32373 3.64083 0
M  V30 1515 H 145.46 0.205969 5.24095 0
M  V30 1516 H 146.934 -1.50277 5.31151 0
M  V30 1517 H 147.411 -2.23439 3.78116 0
M  V30 1518 H 148.017 -0.617558 4.20792 0
M  V30 1519 N 146.332 -1.57332 0.0918853 0
M  V30 1520 C 147.578 -1.94524 -0.573425 0
M  V30 1521 C 147.911 -0.973578 -1.68033 0
M  V30 1522 O 147.186 -0.00609226 -1.94499 0
M  V30 1523 C 147.469 -3.41858 -1.13161 0
M  V30 1524 C 147.322 -4.4979 -0.0299747 0
M  V30 1525 C 148.641 -3.90435 -2.03098 0
M  V30 1526 H 145.76 -0.70734 -0.206975 0
M  V30 1527 H 148.402 -1.89309 0.161942 0
M  V30 1528 H 146.552 -3.46433 -1.7583 0
M  V30 1529 H 148.224 -4.57327 0.604112 0
M  V30 1530 H 146.467 -4.291 0.636833 0
M  V30 1531 H 147.138 -5.50069 -0.461287 0
M  V30 1532 H 149.614 -3.87992 -1.50338 0
M  V30 1533 H 148.49 -4.94097 -2.39081 0
M  V30 1534 H 148.751 -3.29541 -2.94712 0
M  V30 1535 N 147.81 0.181792 -1.56548 0
M  V30 1536 C 149.038 0.915947 -1.85521 0
M  V30 1537 C 149.453 1.76282 -0.676016 0
M  V30 1538 O 148.81 1.79012 0.355077 0
M  V30 1539 C 148.861 1.80126 -3.13427 0
M  V30 1540 O 148.582 0.988562 -4.26801 0
M  V30 1541 C 150.083 2.64597 -3.55673 0
M  V30 1542 H 147.303 0.26661 -0.61576 0
M  V30 1543 H 149.847 0.185039 -2.03661 0
M  V30 1544 H 148.002 2.48563 -2.97145 0
M  V30 1545 H 148.416 1.59308 -4.99721 0
M  V30 1546 H 149.89 3.2235 -4.48101 0
M  V30 1547 H 150.367 3.38958 -2.79292 0
M  V30 1548 H 150.973 2.0151 -3.74532 0
M  V30 1549 N 149.288 1.51039 0.449983 0
M  V30 1550 C 150.221 1.66105 1.56474 0
M  V30 1551 C 151.199 0.508776 1.54435 0
M  V30 1552 O 152.383 0.731005 1.73749 0
M  V30 1553 C 149.51 1.66304 2.9506 0
M  V30 1554 C 148.556 2.87346 3.15174 0
M  V30 1555 S 149.389 4.4835 2.92818 0
M  V30 1556 C 150.545 4.51274 4.33708 0
M  V30 1557 H 150.778 2.60397 1.43459 0
M  V30 1558 H 148.311 1.40565 0.638805 0
M  V30 1559 H 150.269 1.67103 3.74949 0
M  V30 1560 H 148.93 0.732108 3.05449 0
M  V30 1561 H 148.123 2.83849 4.16468 0
M  V30 1562 H 147.725 2.84223 2.43091 0
M  V30 1563 H 150.017 4.26136 5.26701 0
M  V30 1564 H 150.96 5.53017 4.42242 0
M  V30 1565 H 151.368 3.80738 4.16772 0
M  V30 1566 N 150.766 -0.704594 1.40972 0
M  V30 1567 C 151.994 -1.49354 1.43182 0
M  V30 1568 C 152.409 -1.88768 0.0345508 0
M  V30 1569 O 151.766 -1.56184 -0.944081 0
M  V30 1570 C 151.817 -2.76187 2.33244 0
M  V30 1571 O 151.538 -2.38436 3.67532 0
M  V30 1572 C 153.039 -3.7 2.44162 0
M  V30 1573 H 150.259 -0.460559 0.487982 0
M  V30 1574 H 152.803 -0.868261 1.85153 0
M  V30 1575 H 150.958 -3.34974 1.94606 0
M  V30 1576 H 151.372 -3.20126 4.15475 0
M  V30 1577 H 152.846 -4.55803 3.11364 0
M  V30 1578 H 153.323 -4.13867 1.47006 0
M  V30 1579 H 153.929 -3.17121 2.83398 0
M  V30 1580 N 152.244 -1.26651 -0.937939 0
M  V30 1581 C 153.192 -1.08308 -2.05845 0
M  V30 1582 C 154.186 -0.0090757 -1.69398 0
M  V30 1583 O 155.392 -0.166007 -1.79233 0
M  V30 1584 H 151.767 -0.333416 -0.674046 0
M  V30 1585 H 153.738 -2.03261 -2.18467 0
M  V30 1586 C 152.487 -0.736229 -3.39816 0
M  V30 1587 H 151.81 -1.55453 -3.6834 0
M  V30 1588 H 153.25 -0.64769 -4.19024 0
M  V30 1589 C 151.709 0.558824 -3.32233 0
M  V30 1590 O 152.239 1.59621 -3.68624 0
M  V30 1591 N 150.445 0.550657 -2.85335 0
M  V30 1592 H 149.992 -0.293943 -2.55917 0
M  V30 1593 H 149.95 1.41726 -2.80644 0
M  V30 1594 N 153.722 1.14298 -1.08507 0
M  V30 1595 C 154.669 2.19414 -0.715965 0
M  V30 1596 C 155.639 1.63399 0.298326 0
M  V30 1597 O 156.824 1.89929 0.182101 0
M  V30 1598 C 153.964 3.44845 -0.132534 0
M  V30 1599 C 153.077 4.15007 -1.19973 0
M  V30 1600 C 152.212 5.28024 -0.580048 0
M  V30 1601 C 151.251 5.9002 -1.62921 0
M  V30 1602 N 150.388 6.94485 -1.03125 0
M  V30 1603 H 155.228 2.50336 -1.61666 0
M  V30 1604 H 152.765 1.2293 -0.807882 0
M  V30 1605 H 154.723 4.16601 0.223454 0
M  V30 1606 H 153.353 3.14403 0.731467 0
M  V30 1607 H 152.405 3.41629 -1.67313 0
M  V30 1608 H 153.717 4.57178 -1.99473 0
M  V30 1609 H 152.871 6.06455 -0.172364 0
M  V30 1610 H 151.61 4.87076 0.246603 0
M  V30 1611 H 150.615 5.10291 -2.04654 0
M  V30 1612 H 151.84 6.33042 -2.45835 0
M  V30 1613 H 149.786 6.55612 -0.225711 0
M  V30 1614 H 149.703 7.35148 -1.76334 0
M  V30 1615 H 150.971 7.7679 -0.649458 0
M  V30 1616 N 155.201 0.870884 1.31352 0
M  V30 1617 C 156.111 0.330783 2.32256 0
M  V30 1618 C 157.127 -0.559767 1.6475 0
M  V30 1619 O 158.303 -0.456263 1.96164 0
M  V30 1620 C 155.368 -0.458137 3.4366 0
M  V30 1621 C 154.429 0.460482 4.26823 0
M  V30 1622 C 153.662 -0.290881 5.32907 0
M  V30 1623 O 153.885 -1.51885 5.49806 0
M  V30 1624 O 152.819 0.351732 6.00871 0
M  V30 1625 H 156.645 1.16718 2.80376 0
M  V30 1626 H 154.23 0.634285 1.35267 0
M  V30 1627 H 156.112 -0.905343 4.1156 0
M  V30 1628 H 154.787 -1.27106 2.97701 0
M  V30 1629 H 153.694 0.956207 3.61673 0
M  V30 1630 H 155.027 1.23903 4.7635 0
M  V30 1631 N 156.679 -1.44442 0.630414 0
M  V30 1632 C 157.909 -2.06115 0.141465 0
M  V30 1633 C 158.317 -1.47179 -1.1889 0
M  V30 1634 O 157.66 -0.588873 -1.74006 0
M  V30 1635 C 157.722 -3.59467 -0.0484355 0
M  V30 1636 C 157.386 -4.40864 1.20366 0
M  V30 1637 C 158.383 -4.74391 2.12719 0
M  V30 1638 C 156.068 -4.8125 1.43887 0
M  V30 1639 C 158.062 -5.47186 3.26904 0
M  V30 1640 C 155.749 -5.53795 2.5837 0
M  V30 1641 C 156.747 -5.86682 3.49705 0
M  V30 1642 O 156.435 -6.57749 4.62191 0
M  V30 1643 H 156.167 -0.671648 0.0765792 0
M  V30 1644 H 158.721 -1.86312 0.864695 0
M  V30 1645 H 156.951 -3.77758 -0.826803 0
M  V30 1646 H 158.64 -4.02909 -0.491849 0
M  V30 1647 H 159.406 -4.43728 1.95781 0
M  V30 1648 H 155.285 -4.55073 0.736853 0
M  V30 1649 H 158.829 -5.72773 3.98217 0
M  V30 1650 H 154.726 -5.83872 2.75251 0
M  V30 1651 H 155.494 -6.76217 4.61164 0
M  V30 1652 N 158.157 -0.370918 -1.53173 0
M  V30 1653 C 159.406 0.218249 -2.00516 0
M  V30 1654 C 159.719 1.49429 -1.26215 0
M  V30 1655 O 160.925 2.16239 -1.64174 0
M  V30 1656 C 159.381 0.43948 -3.57207 0
M  V30 1657 C 158.989 -0.822244 -4.4039 0
M  V30 1658 C 160.733 0.986012 -4.1289 0
M  V30 1659 C 158.64 -0.570304 -5.88644 0
M  V30 1660 H 157.57 0.0853333 -0.749156 0
M  V30 1661 H 160.221 -0.490483 -1.76823 0
M  V30 1662 H 158.603 1.20961 -3.77074 0
M  V30 1663 H 159.777 -1.59557 -4.32294 0
M  V30 1664 H 158.092 -1.29238 -3.95836 0
M  V30 1665 H 160.689 1.18991 -5.21292 0
M  V30 1666 H 161.032 1.94972 -3.6782 0
M  V30 1667 H 161.565 0.27592 -3.96842 0
M  V30 1668 H 158.304 -1.50449 -6.38001 0
M  V30 1669 H 157.824 0.164427 -5.99575 0
M  V30 1670 H 159.503 -0.19784 -6.46697 0
M  V30 1671 N 159.635 1.57281 -0.100228 0
M  V30 1672 C 160.568 2.09976 0.893612 0
M  V30 1673 C 161.546 1.01155 1.27304 0
M  V30 1674 O 162.73 1.28687 1.37739 0
M  V30 1675 C 159.857 2.58098 2.19324 0
M  V30 1676 C 158.903 3.78626 1.96328 0
M  V30 1677 S 159.736 5.21959 1.19662 0
M  V30 1678 C 160.892 5.73435 2.50844 0
M  V30 1679 H 161.125 2.93946 0.44534 0
M  V30 1680 H 158.658 1.53985 0.113167 0
M  V30 1681 H 160.616 2.8648 2.94005 0
M  V30 1682 H 159.277 1.74344 2.61272 0
M  V30 1683 H 158.47 4.10382 2.92579 0
M  V30 1684 H 158.072 3.50763 1.29775 0
M  V30 1685 H 160.364 5.82015 3.46792 0
M  V30 1686 H 161.307 6.7185 2.23659 0
M  V30 1687 H 161.715 5.01395 2.59352 0
M  V30 1688 N 161.113 -0.173488 1.56642 0
M  V30 1689 C 162.338 -0.910149 1.86363 0
M  V30 1690 C 162.763 -1.75132 0.686318 0
M  V30 1691 O 162.121 -1.77595 -0.364643 0
M  V30 1692 C 162.169 -1.76447 3.14482 0
M  V30 1693 O 161.273 -2.86584 2.96553 0
M  V30 1694 H 160.614 -0.255086 0.613047 0
M  V30 1695 H 163.144 -0.172283 2.03873 0
M  V30 1696 H 163.154 -2.16483 3.45831 0
M  V30 1697 H 161.829 -1.14658 3.99783 0
M  V30 1698 H 160.406 -2.50146 2.76553 0
M  V30 1699 N 162.591 -1.51276 -0.441967 0
M  V30 1700 C 163.819 -1.67516 -1.21434 0
M  V30 1701 C 164.234 -0.37055 -1.85128 0
M  V30 1702 O 163.591 0.650498 -1.70513 0
M  V30 1703 C 163.642 -2.78748 -2.30177 0
M  V30 1704 O 163.363 -4.04154 -1.69089 0
M  V30 1705 C 164.864 -3.06217 -3.20541 0
M  V30 1706 H 162.084 -0.562276 -0.366178 0
M  V30 1707 H 164.628 -1.97666 -0.524244 0
M  V30 1708 H 162.783 -2.5121 -2.94911 0
M  V30 1709 H 163.197 -4.65894 -2.40922 0
M  V30 1710 H 164.671 -3.8764 -3.92987 0
M  V30 1711 H 165.148 -2.18439 -3.81026 0
M  V30 1712 H 165.754 -3.35397 -2.61513 0
M  V30 1713 N 164.069 0.697108 -1.41344 0
M  V30 1714 C 164.999 1.82353 -1.45841 0
M  V30 1715 C 165.98 1.67115 -0.317247 0
M  V30 1716 O 167.165 1.86871 -0.528474 0
M  V30 1717 C 164.295 3.20476 -1.33838 0
M  V30 1718 C 163.249 3.50415 -2.4575 0
M  V30 1719 C 162.575 4.87878 -2.18813 0
M  V30 1720 C 163.875 3.49546 -3.88091 0
M  V30 1721 H 165.569 1.78846 -2.40113 0
M  V30 1722 H 163.115 0.859028 -1.15571 0
M  V30 1723 H 165.068 3.98988 -1.35596 0
M  V30 1724 H 163.792 3.24604 -0.360498 0
M  V30 1725 H 162.451 2.74253 -2.43271 0
M  V30 1726 H 162.099 4.8863 -1.19371 0
M  V30 1727 H 161.799 5.08875 -2.93803 0
M  V30 1728 H 163.323 5.68702 -2.22284 0
M  V30 1729 H 164.737 4.18066 -3.92293 0
M  V30 1730 H 163.134 3.82075 -4.62751 0
M  V30 1731 H 164.204 2.48552 -4.16353 0
M  V30 1732 N 165.547 1.27147 0.931209 0
M  V30 1733 C 166.958 1.12044 1.49342 0
M  V30 1734 C 167.309 -0.295795 1.93957 0
M  V30 1735 O 166.434 -1.18835 1.80852 0
M  V30 1736 C 167.029 2.02781 2.71414 0
M  V30 1737 C 165.588 1.91794 3.2387 0
M  V30 1738 C 164.735 1.95543 1.96617 0
M  V30 1739 H 167.686 1.40091 0.745672 0
M  V30 1740 H 167.707 1.58156 3.46074 0
M  V30 1741 H 167.219 3.05848 2.38911 0
M  V30 1742 H 165.32 0.916992 3.6114 0
M  V30 1743 H 165.433 2.77852 3.90302 0
M  V30 1744 H 163.797 1.39722 2.12955 0
M  V30 1745 H 164.58 3.00259 1.66432 0
M  V30 1746 N 167.025 -1.13721 1.09112 0
M  V30 1747 C 167.935 -2.22638 0.73957 0
M  V30 1748 C 168.951 -1.72091 -0.257068 0
M  V30 1749 O 170.127 -2.01155 -0.0992154 0
M  V30 1750 C 167.192 -3.46322 0.16191 0
M  V30 1751 C 166.253 -4.11775 1.21408 0
M  V30 1752 C 165.486 -5.29555 0.663891 0
M  V30 1753 O 165.709 -5.68077 -0.514274 0
M  V30 1754 O 164.643 -5.84973 1.41738 0
M  V30 1755 H 168.469 -2.55074 1.64836 0
M  V30 1756 H 166.054 -1.21791 0.865289 0
M  V30 1757 H 167.936 -4.21107 -0.157073 0
M  V30 1758 H 166.611 -3.15593 -0.719932 0
M  V30 1759 H 165.518 -3.3883 1.58571 0
M  V30 1760 H 166.851 -4.46627 2.06845 0
M  V30 1761 N 168.503 -0.877838 -1.30888 0
M  V30 1762 C 169.433 -0.35534 -2.3078 0
M  V30 1763 C 170.414 0.557994 -1.60687 0
M  V30 1764 O 171.599 0.473355 -1.88343 0
M  V30 1765 C 168.729 0.437221 -3.44537 0
M  V30 1766 C 167.683 -0.383715 -4.26276 0
M  V30 1767 C 167.009 0.535014 -5.32017 0
M  V30 1768 C 168.309 -1.62201 -4.96476 0
M  V30 1769 H 170.003 -1.19007 -2.74732 0
M  V30 1770 H 167.549 -0.573698 -1.32078 0
M  V30 1771 H 169.502 0.813334 -4.13477 0
M  V30 1772 H 168.226 1.30553 -2.99372 0
M  V30 1773 H 166.885 -0.741874 -3.59015 0
M  V30 1774 H 166.533 1.40083 -4.831 0
M  V30 1775 H 166.233 -0.0104211 -5.87599 0
M  V30 1776 H 167.757 0.907799 -6.03814 0
M  V30 1777 H 169.171 -1.31689 -5.5797 0
M  V30 1778 H 167.568 -2.10711 -5.61891 0
M  V30 1779 H 168.638 -2.37044 -4.23011 0
M  V30 1780 N 169.982 1.44106 -0.638065 0
M  V30 1781 C 171.207 2.0685 -0.150916 0
M  V30 1782 C 171.632 1.47417 1.16833 0
M  V30 1783 O 170.99 0.578264 1.71831 0
M  V30 1784 C 171.038 3.60555 -0.05708 0
M  V30 1785 O 170.142 4.00465 0.984972 0
M  V30 1786 H 169.483 0.658151 -0.0879399 0
M  V30 1787 H 172.013 1.84865 -0.876707 0
M  V30 1788 H 172.023 4.07789 0.131232 0
M  V30 1789 H 170.698 4.03193 -1.02021 0
M  V30 1790 H 169.275 3.64849 0.770672 0
M  V30 1791 N 171.46 0.379036 1.52974 0
M  V30 1792 C 172.408 -0.476033 2.27677 0
M  V30 1793 C 173.402 -1.0719 1.31174 0
M  V30 1794 O 174.608 -1.01355 1.48752 0
M  V30 1795 H 170.983 -0.172255 0.732006 0
M  V30 1796 H 172.954 0.175615 2.97883 0
M  V30 1797 C 171.703 -1.5967 3.0887 0
M  V30 1798 H 171.026 -1.1475 3.82978 0
M  V30 1799 H 172.466 -2.16943 3.64296 0
M  V30 1800 C 170.925 -2.54682 2.20542 0
M  V30 1801 O 171.455 -3.57836 1.82527 0
M  V30 1802 N 169.661 -2.24183 1.84907 0
M  V30 1803 H 169.208 -1.40333 2.1602 0
M  V30 1804 H 169.166 -2.88006 1.26096 0
M  V30 1805 N 172.938 -1.57226 0.108567 0
M  V30 1806 C 174.166 -1.99179 -0.559954 0
M  V30 1807 C 174.581 -0.988022 -1.60884 0
M  V30 1808 O 173.938 0.0205512 -1.82488 0
M  V30 1809 C 173.989 -3.41159 -1.19552 0
M  V30 1810 O 173.71 -4.37694 -0.188577 0
M  V30 1811 C 175.211 -3.98188 -1.94837 0
M  V30 1812 H 172.431 -0.654228 -0.149088 0
M  V30 1813 H 174.975 -2.03598 0.19183 0
M  V30 1814 H 173.13 -3.37711 -1.89815 0
M  V30 1815 H 173.544 -5.20469 -0.649014 0
M  V30 1816 H 175.018 -4.99644 -2.34648 0
M  V30 1817 H 175.495 -3.3675 -2.81951 0
M  V30 1818 H 176.101 -4.0515 -1.2936 0
M  V30 1819 N 174.416 0.165178 -1.56732 0
M  V30 1820 C 175.363 1.2044 -1.96883 0
M  V30 1821 C 176.333 1.43664 -0.833657 0
M  V30 1822 O 177.518 1.56302 -1.09427 0
M  V30 1823 C 174.658 2.53727 -2.33916 0
M  V30 1824 C 173.771 2.3783 -3.6064 0
M  V30 1825 C 172.906 3.64026 -3.86857 0
M  V30 1826 C 171.945 3.43088 -5.06909 0
M  V30 1827 N 171.082 4.61369 -5.29229 0
M  V30 1828 H 175.922 0.854996 -2.85471 0
M  V30 1829 H 173.459 0.41076 -1.41249 0
M  V30 1830 H 175.417 3.31419 -2.53411 0
M  V30 1831 H 174.047 2.8665 -1.48431 0
M  V30 1832 H 173.099 1.51282 -3.49024 0
M  V30 1833 H 174.411 2.18308 -4.4849 0
M  V30 1834 H 173.565 4.50152 -4.06753 0
M  V30 1835 H 172.304 3.86533 -2.97394 0
M  V30 1836 H 171.309 2.55349 -4.86906 0
M  V30 1837 H 172.534 3.21997 -5.97909 0
M  V30 1838 H 170.48 4.84084 -4.42718 0
M  V30 1839 H 170.397 4.44783 -6.11313 0
M  V30 1840 H 171.665 5.48761 -5.53608 0
M  V30 1841 N 175.894 1.51508 0.433938 0
M  V30 1842 C 176.824 1.76016 1.53429 0
M  V30 1843 C 177.805 0.610112 1.58782 0
M  V30 1844 O 178.99 0.853177 1.74455 0
M  V30 1845 C 176.12 1.88831 2.9148 0
M  V30 1846 C 175.074 3.04288 3.00987 0
M  V30 1847 C 174.4 3.0229 4.4105 0
M  V30 1848 C 175.7 4.44193 2.74754 0
M  V30 1849 H 177.394 2.68152 1.33171 0
M  V30 1850 H 174.94 1.29035 0.639214 0
M  V30 1851 H 176.893 2.04559 3.6842 0
M  V30 1852 H 175.617 0.933455 3.12976 0
M  V30 1853 H 174.276 2.8827 2.26486 0
M  V30 1854 H 173.924 2.04576 4.59519 0
M  V30 1855 H 173.624 3.79822 4.4834 0
M  V30 1856 H 175.148 3.20116 5.1996 0
M  V30 1857 H 176.562 4.60544 3.41426 0
M  V30 1858 H 174.959 5.23457 2.9345 0
M  V30 1859 H 176.029 4.53996 1.70339 0
M  V30 1860 N 177.372 -0.689602 1.41712 0
M  V30 1861 C 178.602 -1.47613 1.44548 0
M  V30 1862 C 179.01 -1.89132 0.0509034 0
M  V30 1863 O 178.353 -1.57741 -0.94146 0
M  V30 1864 C 178.415 -2.76596 2.2964 0
M  V30 1865 C 178.079 -2.57245 3.77722 0
M  V30 1866 C 179.076 -2.22804 4.69739 0
M  V30 1867 C 176.761 -2.727 4.2183 0
M  V30 1868 C 178.755 -2.04064 6.03851 0
M  V30 1869 C 176.442 -2.53576 5.56006 0
M  V30 1870 C 177.44 -2.1931 6.46832 0
M  V30 1871 O 177.128 -2.00359 7.78532 0
M  V30 1872 H 176.86 -0.461227 0.494212 0
M  V30 1873 H 179.414 -0.856045 1.86711 0
M  V30 1874 H 177.644 -3.41033 1.82301 0
M  V30 1875 H 179.333 -3.38424 2.24107 0
M  V30 1876 H 180.099 -2.10473 4.36951 0
M  V30 1877 H 175.978 -2.98353 3.51435 0
M  V30 1878 H 179.522 -1.77241 6.74708 0
M  V30 1879 H 175.419 -2.65499 5.88371 0
M  V30 1880 H 176.187 -2.15075 7.89737 0
M  V30 1881 N 178.85 -1.27639 -0.924453 0
M  V30 1882 C 180.261 -1.12834 -1.48746 0
M  V30 1883 C 180.612 0.285505 -1.94112 0
M  V30 1884 O 179.737 1.17874 -1.81479 0
M  V30 1885 C 180.332 -2.04217 -2.70334 0
M  V30 1886 C 178.891 -1.93509 -3.22848 0
M  V30 1887 C 178.038 -1.96583 -1.95577 0
M  V30 1888 H 180.989 -1.40484 -0.738233 0
M  V30 1889 H 181.01 -1.59989 -3.4523 0
M  V30 1890 H 180.522 -3.07111 -2.37285 0
M  V30 1891 H 178.623 -0.936131 -3.60649 0
M  V30 1892 H 178.736 -2.79917 -3.88823 0
M  V30 1893 H 177.1 -1.4085 -2.12211 0
M  V30 1894 H 177.883 -3.01137 -1.64837 0
M  V30 1895 N 180.328 1.1314 -1.09713 0
M  V30 1896 C 181.576 1.84119 -0.833338 0
M  V30 1897 C 181.897 1.84097 0.642904 0
M  V30 1898 O 181.167 1.29881 1.46655 0
M  V30 1899 H 179.747 0.681766 -0.305293 0
M  V30 1900 H 182.409 1.37038 -1.38588 0
M  V30 1901 H 181.505 2.88543 -1.18951 0
M  V30 1902 N 181.806 0.884767 1.30421 0
M  V30 1903 C 182.738 0.308655 2.27112 0
M  V30 1904 C 183.751 -0.536655 1.53701 0
M  V30 1905 O 184.94 -0.35624 1.74909 0
M  V30 1906 C 182.04 -0.579782 3.33904 0
M  V30 1907 C 181.213 0.236417 4.36761 0
M  V30 1908 C 180.272 -0.582482 5.22966 0
M  V30 1909 O 179.298 -0.00525502 5.692 0
M  V30 1910 N 180.5 -1.89163 5.48815 0
M  V30 1911 H 183.265 1.13964 2.77186 0
M  V30 1912 H 180.826 0.747731 1.43599 0
M  V30 1913 H 182.818 -1.13366 3.88497 0
M  V30 1914 H 181.388 -1.31144 2.83761 0
M  V30 1915 H 180.608 0.97174 3.82035 0
M  V30 1916 H 181.896 0.795924 5.02536 0
M  V30 1917 H 181.294 -2.38352 5.13035 0
M  V30 1918 H 179.851 -2.39296 6.06284 0
M  V30 1919 N 183.284 -1.43765 0.645699 0
M  V30 1920 C 184.53 -2.02197 0.156271 0
M  V30 1921 C 184.863 -1.50776 -1.22393 0
M  V30 1922 O 184.138 -0.697771 -1.81553 0
M  V30 1923 C 184.421 -3.59749 0.158872 0
M  V30 1924 C 184.274 -4.21419 1.57245 0
M  V30 1925 C 185.593 -4.37149 -0.50879 0
M  V30 1926 H 182.712 -0.734694 0.0582602 0
M  V30 1927 H 185.354 -1.71157 0.824951 0
M  V30 1928 H 183.504 -3.86325 -0.410525 0
M  V30 1929 H 185.176 -4.059 2.19186 0
M  V30 1930 H 183.419 -3.78356 2.122 0
M  V30 1931 H 184.09 -5.30482 1.52619 0
M  V30 1932 H 186.566 -4.16093 -0.024412 0
M  V30 1933 H 185.442 -5.4683 -0.476213 0
M  V30 1934 H 185.703 -4.12839 -1.58165 0
M  V30 1935 N 184.763 -0.387143 -1.52771 0
M  V30 1936 C 186.009 0.188506 -2.02525 0
M  V30 1937 C 186.364 1.44649 -1.26864 0
M  V30 1938 O 185.657 1.88189 -0.359945 0
M  V30 1939 C 185.851 0.512209 -3.53711 0
M  V30 1940 C 185.68 -0.712855 -4.44014 0
M  V30 1941 C 184.45 -1.23147 -4.90064 0
M  V30 1942 C 186.648 -1.58453 -4.89282 0
M  V30 1943 N 184.63 -2.41431 -5.64433 0
M  V30 1944 C 186.001 -2.61381 -5.6221 0
M  V30 1945 C 188.056 -1.60488 -4.71326 0
M  V30 1946 C 186.759 -3.66227 -6.19088 0
M  V30 1947 C 188.785 -2.6424 -5.29085 0
M  V30 1948 C 188.147 -3.6589 -6.01917 0
M  V30 1949 H 184.246 0.0311236 -0.78138 0
M  V30 1950 H 186.83 -0.536548 -1.87161 0
M  V30 1951 H 185.001 1.20632 -3.69192 0
M  V30 1952 H 186.733 1.07482 -3.90166 0
M  V30 1953 H 183.488 -0.792795 -4.66917 0
M  V30 1954 H 183.912 -3.01274 -6.0627 0
M  V30 1955 H 188.554 -0.83247 -4.14524 0
M  V30 1956 H 186.272 -4.44337 -6.74974 0
M  V30 1957 H 189.858 -2.66695 -5.17074 0
M  V30 1958 H 188.738 -4.44855 -6.45813 0
M  V30 1959 N 186.241 1.57166 -0.116904 0
M  V30 1960 C 187.469 1.99473 0.549383 0
M  V30 1961 C 187.884 0.996541 1.60357 0
M  V30 1962 O 187.241 -0.0108731 1.82497 0
M  V30 1963 C 187.292 3.41788 1.17741 0
M  V30 1964 O 187.013 4.37788 0.165362 0
M  V30 1965 C 188.514 3.99216 1.92722 0
M  V30 1966 H 185.734 0.655009 0.145616 0
M  V30 1967 H 188.278 2.03494 -0.202625 0
M  V30 1968 H 186.433 3.38713 1.88021 0
M  V30 1969 H 186.847 5.20806 0.621403 0
M  V30 1970 H 188.321 5.00882 2.31995 0
M  V30 1971 H 188.798 3.3824 2.80161 0
M  V30 1972 H 189.404 4.0583 1.27209 0
M  V30 1973 N 187.719 -0.156864 1.56817 0
M  V30 1974 C 188.968 -0.869504 1.81996 0
M  V30 1975 C 189.281 -1.82777 0.696545 0
M  V30 1976 O 190.487 -2.58384 0.833658 0
M  V30 1977 C 188.943 -1.59679 3.22538 0
M  V30 1978 C 188.551 -0.681431 4.42787 0
M  V30 1979 C 190.295 -2.2968 3.56997 0
M  V30 1980 C 188.202 -1.40978 5.74351 0
M  V30 1981 H 187.132 -0.328438 0.678708 0
M  V30 1982 H 189.783 -0.1223 1.83092 0
M  V30 1983 H 188.165 -2.38927 3.158 0
M  V30 1984 H 189.339 0.0751166 4.60739 0
M  V30 1985 H 187.654 -0.0903431 4.16302 0
M  V30 1986 H 190.251 -2.84794 4.52544 0
M  V30 1987 H 190.594 -3.05707 2.82576 0
M  V30 1988 H 191.127 -1.57361 3.65352 0
M  V30 1989 H 187.866 -0.691561 6.51842 0
M  V30 1990 H 187.386 -2.13929 5.60352 0
M  V30 1991 H 189.065 -1.95337 6.16808 0
M  V30 1992 N 189.197 -1.51736 -0.425897 0
M  V30 1993 C 190.16 -1.73271 -1.50032 0
M  V30 1994 C 191.16 -0.602639 -1.4908 0
M  V30 1995 O 192.35 -0.87033 -1.509 0
M  V30 1996 C 189.482 -1.79969 -2.89523 0
M  V30 1997 H 190.675 -2.69172 -1.32237 0
M  V30 1998 H 188.228 -1.41899 -0.65532 0
M  V30 1999 H 188.963 -0.859241 -3.1271 0
M  V30 2000 H 188.748 -2.62109 -2.91619 0
M  V30 2001 H 190.238 -1.9843 -3.67444 0
M  V30 2002 N 190.675 0.682077 -1.42076 0
M  V30 2003 C 191.952 1.43755 -1.32642 0
M  V30 2004 C 192.332 2.11063 0.0396611 0
M  V30 2005 O 191.68 2.02701 1.05474 0
M  V30 2006 C 191.89 2.44596 -2.48946 0
M  V30 2007 C 193.238 3.09454 -2.9073 0
M  V30 2008 O 194.262 2.54922 -2.48783 0
M  V30 2009 O 193.121 4.08253 -3.63307 0
M  V30 2010 H 190.215 0.640857 -0.522715 0
M  V30 2011 H 192.761 0.711415 -1.54068 0
M  V30 2012 H 191.533 1.93609 -3.40046 0
M  V30 2013 H 191.156 3.24701 -2.29467 0
M  V30 2014 N 192.153 1.28127 0.917671 0
M  V30 2015 C 193.083 1.14248 2.03641 0
M  V30 2016 C 194.064 0.0412748 1.7005 0
M  V30 2017 O 195.249 0.217566 1.92977 0
M  V30 2018 C 192.379 0.799431 3.37974 0
M  V30 2019 C 191.333 1.85497 3.85713 0
M  V30 2020 C 190.659 1.36565 5.16966 0
M  V30 2021 C 191.959 3.26085 4.08002 0
M  V30 2022 H 193.653 2.07835 2.15511 0
M  V30 2023 H 191.199 1.00064 1.03553 0
M  V30 2024 H 193.152 0.689114 4.15727 0
M  V30 2025 H 191.876 -0.172145 3.26146 0
M  V30 2026 H 190.535 1.95437 3.10161 0
M  V30 2027 H 190.183 0.383253 5.01538 0
M  V30 2028 H 189.883 2.07143 5.49878 0
M  V30 2029 H 191.407 1.26848 5.97279 0
M  V30 2030 H 192.821 3.19089 4.76293 0
M  V30 2031 H 191.218 3.94462 4.52238 0
M  V30 2032 H 192.288 3.70394 3.12948 0
M  V30 2033 N 193.631 -1.12557 1.10312 0
M  V30 2034 C 194.561 -2.20341 0.772798 0
M  V30 2035 C 195.542 -1.68198 -0.25365 0
M  V30 2036 O 196.727 -1.93831 -0.119699 0
M  V30 2037 C 193.857 -3.46709 0.202443 0
M  V30 2038 C 192.811 -4.11996 1.15943 0
M  V30 2039 C 192.137 -5.328 0.450345 0
M  V30 2040 C 193.437 -4.5828 2.50552 0
M  V30 2041 H 195.131 -2.48229 1.674 0
M  V30 2042 H 192.677 -1.19308 0.806326 0
M  V30 2043 H 194.63 -4.2138 -0.0407752 0
M  V30 2044 H 193.354 -3.18245 -0.734001 0
M  V30 2045 H 192.013 -3.39305 1.38808 0
M  V30 2046 H 191.661 -5.00602 -0.490531 0
M  V30 2047 H 191.361 -5.7743 1.08851 0
M  V30 2048 H 192.885 -6.10219 0.215642 0
M  V30 2049 H 194.299 -5.2433 2.31843 0
M  V30 2050 H 192.696 -5.13683 3.10242 0
M  V30 2051 H 193.766 -3.72329 3.10643 0
M  V30 2052 N 195.109 -0.891671 -1.2995 0
M  V30 2053 C 196.041 -0.320695 -2.26945 0
M  V30 2054 C 197.054 0.528497 -1.53983 0
M  V30 2055 O 198.243 0.346959 -1.75096 0
M  V30 2056 C 195.343 0.562066 -3.34207 0
M  V30 2057 C 194.516 -0.259576 -4.36629 0
M  V30 2058 C 193.575 0.554739 -5.23268 0
M  V30 2059 O 192.601 -0.0249311 -5.69195 0
M  V30 2060 N 193.803 1.8625 -5.4981 0
M  V30 2061 H 196.568 -1.15432 -2.76578 0
M  V30 2062 H 194.129 -0.755336 -1.432 0
M  V30 2063 H 196.121 1.11304 -3.89093 0
M  V30 2064 H 194.691 1.29637 -2.84452 0
M  V30 2065 H 193.911 -0.991986 -3.81514 0
M  V30 2066 H 195.199 -0.822564 -5.02107 0
M  V30 2067 H 194.597 2.35628 -5.14292 0
M  V30 2068 H 193.154 2.36078 -6.07545 0
M  V30 2069 N 196.587 1.43421 -0.653314 0
M  V30 2070 C 197.836 2.01032 -0.164076 0
M  V30 2071 C 198.149 1.52147 1.22926 0
M  V30 2072 O 199.355 2.02031 1.81371 0
M  V30 2073 C 197.811 3.59082 -0.24252 0
M  V30 2074 C 197.419 4.1696 -1.63855 0
M  V30 2075 C 199.163 4.24079 0.18911 0
M  V30 2076 C 197.07 5.67304 -1.67092 0
M  V30 2077 H 196 0.751798 -0.0575769 0
M  V30 2078 H 198.651 1.6439 -0.815362 0
M  V30 2079 H 197.033 3.93125 0.476276 0
M  V30 2080 H 198.207 3.94416 -2.38271 0
M  V30 2081 H 196.522 3.64335 -2.01616 0
M  V30 2082 H 199.119 5.34381 0.184775 0
M  V30 2083 H 199.462 3.98005 1.22056 0
M  V30 2084 H 199.995 3.94918 -0.477938 0
M  V30 2085 H 196.734 5.98145 -2.68146 0
M  V30 2086 H 196.254 5.91904 -0.970014 0
M  V30 2087 H 197.933 6.31344 -1.4147 0
M  V30 2088 N 198.065 0.39524 1.52563 0
M  V30 2089 C 199.293 -0.184943 2.06072 0
M  V30 2090 C 199.708 -1.40021 1.26647 0
M  V30 2091 O 199.065 -1.79767 0.314672 0
M  V30 2092 C 199.116 -0.549179 3.57304 0
M  V30 2093 O 198.837 0.617813 4.33722 0
M  V30 2094 C 200.338 -1.18459 4.2718 0
M  V30 2095 H 197.558 -0.0265025 0.670476 0
M  V30 2096 H 200.102 0.562184 1.96621 0
M  V30 2097 H 198.257 -1.2462 3.66809 0
M  V30 2098 H 198.671 0.317091 5.23541 0
M  V30 2099 H 200.145 -1.38976 5.34219 0
M  V30 2100 H 200.622 -2.15368 3.82771 0
M  V30 2101 H 201.228 -0.528163 4.22008 0
M  V30 2102 N 199.544 -1.57102 0.125237 0
M  V30 2103 C 200.79 -1.95697 -0.532035 0
M  V30 2104 C 201.123 -1.009 -1.6593 0
M  V30 2105 O 200.398 -0.047347 -1.94442 0
M  V30 2106 C 200.681 -3.44181 -1.05884 0
M  V30 2107 C 200.534 -4.49752 0.0654392 0
M  V30 2108 C 201.853 -3.94655 -1.9477 0
M  V30 2109 H 198.972 -0.711571 -0.191925 0
M  V30 2110 H 201.614 -1.88923 0.20206 0
M  V30 2111 H 199.764 -3.50085 -1.68442 0
M  V30 2112 H 201.436 -4.55943 0.700982 0
M  V30 2113 H 199.679 -4.27653 0.727709 0
M  V30 2114 H 200.35 -5.50924 -0.344505 0
M  V30 2115 H 202.826 -3.91094 -1.42074 0
M  V30 2116 H 201.702 -4.99057 -2.28546 0
M  V30 2117 H 201.963 -3.35718 -2.87656 0
M  V30 2118 N 201.022 0.148545 -1.56898 0
M  V30 2119 C 202.247 0.880385 -1.87787 0
M  V30 2120 C 202.672 1.74018 -0.714093 0
M  V30 2121 O 202.03 1.78153 0.336343 0
M  V30 2122 C 202.078 1.71422 -3.17249 0
M  V30 2123 O 201.182 2.8183 -3.01074 0
M  V30 2124 H 200.523 0.245301 -0.617028 0
M  V30 2125 H 203.053 0.139826 -2.04122 0
M  V30 2126 H 203.063 2.10954 -3.49231 0
M  V30 2127 H 201.738 1.08284 -4.01556 0
M  V30 2128 H 200.315 2.45715 -2.80497 0
M  V30 2129 N 202.5 1.5196 0.417844 0
M  V30 2130 C 203.448 1.75278 1.52907 0
M  V30 2131 C 204.442 0.619611 1.57662 0
M  V30 2132 O 205.648 0.801457 1.61173 0
M  V30 2133 H 202.023 0.554141 0.508362 0
M  V30 2134 H 203.994 2.68389 1.30422 0
M  V30 2135 C 202.743 1.91262 2.90369 0
M  V30 2136 H 202.066 2.77872 2.8745 0
M  V30 2137 H 203.506 2.11581 3.67436 0
M  V30 2138 C 201.965 0.677431 3.30019 0
M  V30 2139 O 202.495 -0.158799 4.01386 0
M  V30 2140 N 200.701 0.515851 2.85985 0
M  V30 2141 H 200.248 1.19744 2.28077 0
M  V30 2142 H 200.206 -0.309315 3.12875 0
M  V30 2143 N 203.978 -0.674533 1.42435 0
M  V30 2144 C 205.203 -1.46784 1.46524 0
M  V30 2145 C 205.628 -1.87938 0.078066 0
M  V30 2146 O 204.986 -1.56014 -0.92354 0
M  V30 2147 C 205.034 -2.69307 2.39805 0
M  V30 2148 O 204.138 -3.67587 1.86959 0
M  V30 2149 H 203.479 -0.440959 0.496439 0
M  V30 2150 H 206.009 -0.827326 1.87127 0
M  V30 2151 H 206.019 -3.17374 2.56393 0
M  V30 2152 H 204.694 -2.38692 3.40586 0
M  V30 2153 H 203.271 -3.2662 1.79927 0
M  V30 2154 N 205.456 -1.28612 -0.910864 0
M  V30 2155 C 206.681 -1.1891 -1.69927 0
M  V30 2156 C 207.106 0.248372 -1.86453 0
M  V30 2157 O 206.464 1.17961 -1.37676 0
M  V30 2158 C 206.512 -1.89578 -3.06745 0
M  V30 2159 O 205.616 -1.20521 -3.94396 0
M  V30 2160 H 204.957 -0.412632 -0.520222 0
M  V30 2161 H 207.487 -1.69985 -1.1387 0
M  V30 2162 H 207.497 -1.97597 -3.56958 0
M  V30 2163 H 206.172 -2.94136 -2.94035 0
M  V30 2164 H 204.749 -1.20684 -3.52831 0
M  V30 2165 N 206.934 1.1197 -1.10907 0
M  V30 2166 C 207.882 2.19927 -0.757303 0
M  V30 2167 C 208.876 1.67564 0.248747 0
M  V30 2168 O 210.082 1.79672 0.108605 0
M  V30 2169 H 206.457 0.716925 -0.226987 0
M  V30 2170 H 208.428 2.46847 -1.67658 0
M  V30 2171 C 207.177 3.47061 -0.210671 0
M  V30 2172 H 206.5 3.87703 -0.976049 0
M  V30 2173 H 207.94 4.24 -0.0026584 0
M  V30 2174 C 206.399 3.19864 1.05777 0
M  V30 2175 O 206.929 3.40049 2.13845 0
M  V30 2176 N 205.135 2.73636 0.978349 0
M  V30 2177 H 204.682 2.5741 0.0988246 0
M  V30 2178 H 204.64 2.55815 1.82773 0
M  V30 2179 N 208.412 0.89855 1.29475 0
M  V30 2180 C 209.375 0.380272 2.26023 0
M  V30 2181 C 210.375 -0.484891 1.53315 0
M  V30 2182 O 211.565 -0.290108 1.71767 0
M  V30 2183 C 208.697 -0.45651 3.3783 0
M  V30 2184 H 209.89 1.23295 2.73383 0
M  V30 2185 H 207.443 0.676589 1.40897 0
M  V30 2186 H 208.178 -1.32922 2.95808 0
M  V30 2187 H 207.963 0.163393 3.91759 0
M  V30 2188 H 209.453 -0.810466 4.0966 0
M  V30 2189 N 209.89 -1.43072 0.660911 0
M  V30 2190 C 210.853 -2.29194 -0.0166406 0
M  V30 2191 C 211.853 -1.42609 -0.742912 0
M  V30 2192 O 213.043 -1.64155 -0.583004 0
M  V30 2193 C 210.175 -3.24831 -1.0343 0
M  V30 2194 H 211.368 -2.90596 0.741208 0
M  V30 2195 H 208.921 -1.5048 0.422532 0
M  V30 2196 H 209.656 -2.68339 -1.82111 0
M  V30 2197 H 209.441 -3.88676 -0.517082 0
M  V30 2198 H 210.931 -3.89451 -1.50723 0
M  V30 2199 N 211.368 -0.403325 -1.52352 0
M  V30 2200 C 212.331 0.413051 -2.25447 0
M  V30 2201 C 213.331 0.978513 -1.276 0
M  V30 2202 O 214.521 0.858305 -1.51587 0
M  V30 2203 C 211.653 1.58087 -3.02029 0
M  V30 2204 H 212.846 -0.227094 -2.99039 0
M  V30 2205 H 210.399 -0.155722 -1.55522 0
M  V30 2206 H 211.134 2.25804 -2.32772 0
M  V30 2207 H 210.919 1.18195 -3.73861 0
M  V30 2208 H 212.409 2.1585 -3.57489 0
M  V30 2209 N 212.846 1.57033 -0.133567 0
M  V30 2210 C 213.776 2.1909 0.807567 0
M  V30 2211 C 214.757 1.13517 1.26681 0
M  V30 2212 O 215.942 1.41809 1.32679 0
M  V30 2213 C 213.072 2.80188 2.05212 0
M  V30 2214 C 212.026 3.91471 1.73015 0
M  V30 2215 C 211.352 4.39443 3.04622 0
M  V30 2216 C 212.652 5.12886 0.987168 0
M  V30 2217 H 214.346 2.97988 0.290403 0
M  V30 2218 H 211.892 1.43335 0.138239 0
M  V30 2219 H 213.845 3.22264 2.71521 0
M  V30 2220 H 212.569 1.98601 2.59278 0
M  V30 2221 H 211.228 3.49993 1.0909 0
M  V30 2222 H 210.876 3.54695 3.56651 0
M  V30 2223 H 210.576 5.14495 2.83847 0
M  V30 2224 H 212.1 4.8418 3.72024 0
M  V30 2225 H 213.514 5.51891 1.55208 0
M  V30 2226 H 211.911 5.93615 0.87985 0
M  V30 2227 H 212.981 4.84894 -0.0235286 0
M  V30 2228 N 214.325 -0.140222 1.56975 0
M  V30 2229 C 215.574 -0.850152 1.82908 0
M  V30 2230 C 215.887 -1.82028 0.715892 0
M  V30 2231 O 217.093 -2.57485 0.861016 0
M  V30 2232 C 215.549 -1.5625 3.24213 0
M  V30 2233 C 215.157 -0.63443 4.43485 0
M  V30 2234 C 216.901 -2.25881 3.59413 0
M  V30 2235 C 214.808 -1.34879 5.75814 0
M  V30 2236 H 213.738 -0.321221 0.682153 0
M  V30 2237 H 216.389 -0.102874 1.83211 0
M  V30 2238 H 214.771 -2.35565 3.18316 0
M  V30 2239 H 215.945 0.12398 4.60633 0
M  V30 2240 H 214.26 -0.0461836 4.16374 0
M  V30 2241 H 216.857 -2.79978 4.5554 0
M  V30 2242 H 217.2 -3.02693 2.85802 0
M  V30 2243 H 217.733 -1.53477 3.67001 0
M  V30 2244 H 214.472 -0.622385 6.52539 0
M  V30 2245 H 213.992 -2.07974 5.6259 0
M  V30 2246 H 215.671 -1.88784 6.18845 0
M  V30 2247 N 215.803 -1.52179 -0.40978 0
M  V30 2248 C 216.733 -1.78435 -1.5061 0
M  V30 2249 C 217.714 -0.635295 -1.57791 0
M  V30 2250 O 218.899 -0.880823 -1.73076 0
M  V30 2251 C 216.029 -1.93444 -2.88439 0
M  V30 2252 C 214.983 -3.09038 -2.96108 0
M  V30 2253 C 214.309 -3.09268 -4.36185 0
M  V30 2254 C 215.609 -4.48508 -2.67652 0
M  V30 2255 H 217.303 -2.70237 -1.28889 0
M  V30 2256 H 214.849 -1.30036 -0.618605 0
M  V30 2257 H 216.802 -2.10394 -3.65119 0
M  V30 2258 H 215.526 -0.983129 -3.11452 0
M  V30 2259 H 214.185 -2.91837 -2.21872 0
M  V30 2260 H 213.833 -2.11861 -4.56206 0
M  V30 2261 H 213.533 -3.86907 -4.42241 0
M  V30 2262 H 215.057 -3.28348 -5.14801 0
M  V30 2263 H 216.471 -4.65918 -3.34056 0
M  V30 2264 H 214.868 -5.28059 -2.85085 0
M  V30 2265 H 215.938 -4.56649 -1.63095 0
M  V30 2266 N 217.281 0.66697 -1.42791 0
M  V30 2267 C 218.244 1.76211 -1.46568 0
M  V30 2268 C 219.244 1.56896 -0.352196 0
M  V30 2269 O 220.434 1.63044 -0.613364 0
M  V30 2270 C 217.566 3.14935 -1.30494 0
M  V30 2271 H 218.759 1.74247 -2.44086 0
M  V30 2272 H 216.312 0.877342 -1.29354 0
M  V30 2273 H 217.047 3.2252 -0.339301 0
M  V30 2274 H 216.832 3.30359 -2.11199 0
M  V30 2275 H 218.322 3.94821 -1.36038 0
M  V30 2276 N 218.759 1.29093 0.90403 0
M  V30 2277 C 219.706 1.13853 2.00764 0
M  V30 2278 C 220.676 0.0330084 1.66067 0
M  V30 2279 O 221.861 0.199733 1.89752 0
M  V30 2280 C 219.001 0.816537 3.35301 0
M  V30 2281 C 218.114 2.00206 3.82807 0
M  V30 2282 C 217.249 1.61983 5.059 0
M  V30 2283 C 216.288 2.77143 5.45764 0
M  V30 2284 N 215.425 2.39346 6.60044 0
M  V30 2285 H 220.265 2.08276 2.13132 0
M  V30 2286 H 217.802 1.03648 1.04381 0
M  V30 2287 H 219.76 0.610557 4.12708 0
M  V30 2288 H 218.39 -0.090779 3.22672 0
M  V30 2289 H 217.442 2.31988 3.01473 0
M  V30 2290 H 218.754 2.86512 4.08304 0
M  V30 2291 H 217.908 1.37649 5.90879 0
M  V30 2292 H 216.647 0.728202 4.82233 0
M  V30 2293 H 215.652 3.02165 4.59322 0
M  V30 2294 H 216.877 3.66964 5.71414 0
M  V30 2295 H 214.823 1.52665 6.37989 0
M  V30 2296 H 214.74 3.19185 6.85315 0
M  V30 2297 H 216.008 2.1832 7.48303 0
M  V30 2298 N 220.237 -1.11381 1.11499 0
M  V30 2299 C 221.184 -2.17439 0.773887 0
M  V30 2300 C 222.154 -1.64132 -0.254899 0
M  V30 2301 O 223.339 -1.90345 -0.13168 0
M  V30 2302 C 220.479 -3.44373 0.223917 0
M  V30 2303 C 219.592 -4.1168 1.30934 0
M  V30 2304 C 218.727 -5.263 0.71984 0
M  V30 2305 C 217.766 -5.85493 1.78507 0
M  V30 2306 N 216.903 -6.91507 1.21502 0
M  V30 2307 H 221.743 -2.45962 1.68246 0
M  V30 2308 H 219.28 -1.20744 0.840191 0
M  V30 2309 H 221.238 -4.17047 -0.112921 0
M  V30 2310 H 219.868 -3.16232 -0.647851 0
M  V30 2311 H 218.92 -3.37073 1.76312 0
M  V30 2312 H 220.232 -4.51729 2.11524 0
M  V30 2313 H 219.386 -6.05785 0.333094 0
M  V30 2314 H 218.125 -4.87559 -0.117377 0
M  V30 2315 H 217.13 -5.04686 2.18111 0
M  V30 2316 H 218.355 -6.26301 2.62533 0
M  V30 2317 H 216.301 -6.54783 0.399455 0
M  V30 2318 H 216.218 -7.30214 1.95763 0
M  V30 2319 H 217.486 -7.74795 0.855181 0
M  V30 2320 N 221.715 -0.905404 -1.28997 0
M  V30 2321 C 222.961 -0.535039 -1.95615 0
M  V30 2322 C 223.294 0.917404 -1.71165 0
M  V30 2323 O 222.569 1.65123 -1.02785 0
M  V30 2324 C 222.852 -0.834918 -3.50287 0
M  V30 2325 C 222.705 -2.33948 -3.84172 0
M  V30 2326 C 224.024 -0.325318 -4.38896 0
M  V30 2327 H 221.143 -0.195861 -0.710498 0
M  V30 2328 H 223.785 -1.13313 -1.52513 0
M  V30 2329 H 221.935 -0.325904 -3.87131 0
M  V30 2330 H 223.607 -2.91847 -3.57243 0
M  V30 2331 H 221.85 -2.79789 -3.31513 0
M  V30 2332 H 222.521 -2.49987 -4.92149 0
M  V30 2333 H 224.997 -0.761256 -4.09077 0
M  V30 2334 H 223.873 -0.564295 -5.45992 0
M  V30 2335 H 224.134 0.774144 -4.35269 0
M  V30 2336 N 223.193 1.4272 -0.668489 0
M  V30 2337 C 224.418 2.06484 -0.194758 0
M  V30 2338 C 224.843 1.49862 1.13679 0
M  V30 2339 O 224.201 0.614582 1.70565 0
M  V30 2340 C 224.249 3.60353 -0.133546 0
M  V30 2341 O 223.353 4.02464 0.899806 0
M  V30 2342 H 222.694 0.656137 -0.10188 0
M  V30 2343 H 225.224 1.82964 -0.915722 0
M  V30 2344 H 225.234 4.07976 0.0447041 0
M  V30 2345 H 223.909 4.00938 -1.1055 0
M  V30 2346 H 222.486 3.66402 0.693109 0
M  V30 2347 N 224.671 0.411399 1.52136 0
M  V30 2348 C 225.618 -0.412975 2.27075 0
M  V30 2349 C 226.588 -1.03912 1.29582 0
M  V30 2350 O 227.773 -1.06296 1.58448 0
M  V30 2351 C 224.913 -1.52247 3.09701 0
M  V30 2352 C 224.026 -0.917021 4.22155 0
M  V30 2353 C 223.161 -1.9994 4.92135 0
M  V30 2354 C 222.2 -1.37101 5.96548 0
M  V30 2355 N 221.337 -2.39364 6.60038 0
M  V30 2356 H 226.177 0.232499 2.97092 0
M  V30 2357 H 223.714 0.126496 1.46555 0
M  V30 2358 H 225.672 -2.17674 3.55913 0
M  V30 2359 H 224.302 -2.13794 2.41851 0
M  V30 2360 H 223.354 -0.151742 3.80097 0
M  V30 2361 H 224.666 -0.418006 4.97045 0
M  V30 2362 H 223.82 -2.73088 5.41763 0
M  V30 2363 H 222.559 -2.53208 4.16818 0
M  V30 2364 H 221.564 -0.624873 5.46237 0
M  V30 2365 H 222.789 -0.845998 6.7381 0
M  V30 2366 H 220.735 -2.91759 5.87548 0
M  V30 2367 H 220.652 -1.9428 7.3061 0
M  V30 2368 H 221.92 -3.12074 7.14304 0
M  V30 2369 N 226.149 -1.5696 0.141893 0
M  V30 2370 C 227.097 -2.17784 -0.816874 0
M  V30 2371 C 228.091 -1.1334 -1.25899 0
M  V30 2372 O 229.297 -1.316 -1.22806 0
M  V30 2373 H 225.672 -0.697278 -0.281615 0
M  V30 2374 H 227.643 -2.97087 -0.279621 0
M  V30 2375 C 226.392 -2.80983 -2.04802 0
M  V30 2376 H 225.715 -3.61062 -1.7168 0
M  V30 2377 H 227.155 -3.2705 -2.69841 0
M  V30 2378 C 225.614 -1.79228 -2.8527 0
M  V30 2379 O 226.144 -1.25962 -3.8144 0
M  V30 2380 N 224.35 -1.48647 -2.49704 0
M  V30 2381 H 223.897 -1.92155 -1.71564 0
M  V30 2382 H 223.855 -0.808115 -3.03837 0
M  V30 2383 N 227.627 0.131896 -1.57047 0
M  V30 2384 C 228.855 0.856461 -1.88341 0
M  V30 2385 C 229.27 1.74042 -0.731757 0
M  V30 2386 O 228.627 1.80051 0.297945 0
M  V30 2387 C 228.678 1.70064 -3.18999 0
M  V30 2388 O 228.399 0.852278 -4.2973 0
M  V30 2389 C 229.9 2.53148 -3.63911 0
M  V30 2390 H 227.12 0.246885 -0.62393 0
M  V30 2391 H 229.664 0.120152 -2.04147 0
M  V30 2392 H 227.819 2.38984 -3.04902 0
M  V30 2393 H 228.233 1.43329 -5.04537 0
M  V30 2394 H 229.707 3.07931 -4.58129 0
M  V30 2395 H 230.184 3.29901 -2.89935 0
M  V30 2396 H 230.79 1.89492 -3.80753 0
M  V30 2397 N 229.106 1.52395 0.401703 0
M  V30 2398 C 230.331 1.70972 1.17403 0
M  V30 2399 C 230.756 0.421615 1.83314 0
M  V30 2400 O 230.114 -0.621564 1.70312 0
M  V30 2401 C 230.162 2.85151 2.20728 0
M  V30 2402 O 229.266 2.51238 3.27037 0
M  V30 2403 H 228.607 0.568927 0.342372 0
M  V30 2404 H 231.137 1.99131 0.469891 0
M  V30 2405 H 231.147 3.10279 2.64936 0
M  V30 2406 H 229.822 3.78603 1.7214 0
M  V30 2407 H 228.399 2.36808 2.88057 0
M  V30 2408 N 230.584 -0.659388 1.43143 0
M  V30 2409 C 231.861 -1.41627 1.34912 0
M  V30 2410 C 232.241 -2.11099 -0.00607785 0
M  V30 2411 O 231.589 -2.04353 -1.02236 0
M  V30 2412 C 231.799 -2.40604 2.52805 0
M  V30 2413 C 233.147 -3.04789 2.95616 0
M  V30 2414 O 234.171 -2.50932 2.52807 0
M  V30 2415 O 233.03 -4.02421 3.69756 0
M  V30 2416 H 230.124 -0.63246 0.532844 0
M  V30 2417 H 232.67 -0.686814 1.5518 0
M  V30 2418 H 231.442 -1.88174 3.43083 0
M  V30 2419 H 231.065 -3.21009 2.34604 0
M  V30 2420 N 232.062 -1.29571 -0.897171 0
M  V30 2421 C 233.309 -1.17689 -1.6479 0
M  V30 2422 C 233.637 0.27107 -1.92602 0
M  V30 2423 O 232.892 1.21193 -1.53658 0
M  V30 2424 C 233.191 -1.9382 -3.00281 0
M  V30 2425 C 232.857 -3.43522 -2.92068 0
M  V30 2426 C 231.519 -3.84348 -2.89535 0
M  V30 2427 C 233.871 -4.38906 -2.81089 0
M  V30 2428 C 231.199 -5.18869 -2.73846 0
M  V30 2429 C 233.551 -5.73521 -2.66939 0
M  V30 2430 C 232.215 -6.13601 -2.62774 0
M  V30 2431 H 231.485 -0.430654 -0.603008 0
M  V30 2432 H 234.132 -1.60536 -1.04404 0
M  V30 2433 H 232.437 -1.4357 -3.64547 0
M  V30 2434 H 234.134 -1.82028 -3.57305 0
M  V30 2435 H 230.724 -3.11072 -2.94842 0
M  V30 2436 H 234.908 -4.08315 -2.82121 0
M  V30 2437 H 230.164 -5.4903 -2.69027 0
M  V30 2438 H 234.338 -6.47078 -2.57416 0
M  V30 2439 H 231.965 -7.17786 -2.50375 0
M  V30 2440 N 233.54 1.10788 -1.12088 0
M  V30 2441 C 234.786 1.82942 -0.875226 0
M  V30 2442 C 235.119 1.84779 0.597538 0
M  V30 2443 O 234.394 1.30578 1.44152 0
M  V30 2444 C 234.677 3.29789 -1.44606 0
M  V30 2445 C 234.53 3.36307 -2.98693 0
M  V30 2446 C 235.849 4.26064 -1.10261 0
M  V30 2447 H 232.968 0.664195 -0.319397 0
M  V30 2448 H 235.61 1.29867 -1.38689 0
M  V30 2449 H 233.76 3.75118 -1.01089 0
M  V30 2450 H 235.432 2.99487 -3.50864 0
M  V30 2451 H 233.675 2.76318 -3.34411 0
M  V30 2452 H 234.346 4.39694 -3.33726 0
M  V30 2453 H 236.822 3.88951 -1.4784 0
M  V30 2454 H 235.698 5.27183 -1.52869 0
M  V30 2455 H 235.959 4.42098 -0.0142953 0
M  V30 2456 N 235.018 0.912232 1.28515 0
M  V30 2457 C 236.295 0.463597 1.90027 0
M  V30 2458 C 236.675 -1.05753 1.82701 0
M  V30 2459 O 236.023 -1.90492 1.26194 0
M  V30 2460 C 236.233 0.992253 3.34597 0
M  V30 2461 C 237.581 1.04344 4.11579 0
M  V30 2462 O 238.605 0.94079 3.43551 0
M  V30 2463 O 237.464 1.1995 5.33174 0
M  V30 2464 H 234.558 0.146666 0.813891 0
M  V30 2465 H 237.104 1.00292 1.36893 0
M  V30 2466 H 235.876 2.03623 3.34146 0
M  V30 2467 H 235.499 0.433672 3.95228 0
M  V30 2468 N 236.496 -1.42363 0.676048 0
M  V30 2469 C 237.426 -2.33497 0.0124832 0
M  V30 2470 C 238.407 -1.50748 -0.787981 0
M  V30 2471 O 239.592 -1.79346 -0.744884 0
M  V30 2472 C 236.722 -3.34377 -0.938582 0
M  V30 2473 C 235.676 -4.27289 -0.246622 0
M  V30 2474 C 235.002 -5.18386 -1.31071 0
M  V30 2475 C 236.302 -5.14916 0.875125 0
M  V30 2476 H 237.996 -2.89233 0.773593 0
M  V30 2477 H 235.542 -1.39073 0.37346 0
M  V30 2478 H 237.495 -3.97044 -1.41188 0
M  V30 2479 H 236.219 -2.76947 -1.73113 0
M  V30 2480 H 234.878 -3.66018 0.206456 0
M  V30 2481 H 234.526 -4.57282 -2.09528 0
M  V30 2482 H 234.226 -5.81378 -0.852839 0
M  V30 2483 H 235.75 -5.83929 -1.78492 0
M  V30 2484 H 237.164 -5.71262 0.482983 0
M  V30 2485 H 235.561 -5.86747 1.25887 0
M  V30 2486 H 236.631 -4.53242 1.72335 0
M  V30 2487 N 237.974 -0.419461 -1.51915 0
M  V30 2488 C 238.907 0.445751 -2.23804 0
M  V30 2489 C 239.885 1.03951 -1.25031 0
M  V30 2490 O 241.069 1.08541 -1.54114 0
M  V30 2491 C 238.196 1.61964 -2.97465 0
M  V30 2492 C 237.242 1.14828 -4.10751 0
M  V30 2493 S 238.075 0.104938 -5.35397 0
M  V30 2494 C 239.231 1.28391 -6.1259 0
M  V30 2495 H 239.464 -0.164627 -2.96844 0
M  V30 2496 H 236.997 -0.203833 -1.53049 0
M  V30 2497 H 238.955 2.29271 -3.40507 0
M  V30 2498 H 237.616 2.20139 -2.24048 0
M  V30 2499 H 236.809 2.02561 -4.61503 0
M  V30 2500 H 236.411 0.553712 -3.69878 0
M  V30 2501 H 238.703 2.20563 -6.40592 0
M  V30 2502 H 239.646 0.816724 -7.03374 0
M  V30 2503 H 240.054 1.51439 -5.43807 0
M  V30 2504 N 239.452 1.56882 -0.150215 0
M  V30 2505 C 240.4 2.18214 0.805313 0
M  V30 2506 C 241.394 1.14006 1.25296 0
M  V30 2507 O 242.6 1.3225 1.22107 0
M  V30 2508 H 238.975 0.698762 0.277913 0
M  V30 2509 H 240.946 2.97231 0.263862 0
M  V30 2510 C 239.695 2.82065 2.03309 0
M  V30 2511 H 239.018 3.61968 1.69763 0
M  V30 2512 H 240.458 3.28477 2.68103 0
M  V30 2513 C 238.917 1.80739 2.84315 0
M  V30 2514 O 239.447 1.27983 3.80767 0
M  V30 2515 N 237.653 1.4997 2.48913 0
M  V30 2516 H 237.2 1.93062 1.70542 0
M  V30 2517 H 237.158 0.824217 3.03404 0
M  V30 2518 N 240.93 -0.123565 1.57115 0
M  V30 2519 C 241.878 -1.17082 2.00984 0
M  V30 2520 C 242.872 -1.43136 0.906009 0
M  V30 2521 O 244.078 -1.43152 1.09121 0
M  V30 2522 H 240.453 -0.394653 0.64012 0
M  V30 2523 H 242.424 -0.774292 2.88179 0
M  V30 2524 C 241.173 -2.49057 2.42623 0
M  V30 2525 H 240.496 -2.29846 3.27125 0
M  V30 2526 H 241.936 -3.20906 2.7712 0
M  V30 2527 C 240.395 -3.11305 1.28805 0
M  V30 2528 O 240.925 -3.97171 0.60153 0
M  V30 2529 N 239.131 -2.71111 1.04628 0
M  V30 2530 H 238.678 -2.01382 1.60634 0
M  V30 2531 H 238.636 -3.1309 0.286685 0
M  V30 2532 N 242.408 -1.52605 -0.393616 0
M  V30 2533 C 243.355 -1.77055 -1.48054 0
M  V30 2534 C 244.325 -0.61358 -1.54352 0
M  V30 2535 O 245.51 -0.852806 -1.70681 0
M  V30 2536 C 242.65 -1.94108 -2.85335 0
M  V30 2537 C 241.763 -3.21792 -2.88226 0
M  V30 2538 C 240.898 -3.29188 -4.16904 0
M  V30 2539 C 239.937 -4.51013 -4.13828 0
M  V30 2540 N 239.074 -4.55716 -5.34105 0
M  V30 2541 H 243.914 -2.69815 -1.26506 0
M  V30 2542 H 241.451 -1.33683 -0.61379 0
M  V30 2543 H 243.409 -2.01979 -3.65049 0
M  V30 2544 H 242.039 -1.04713 -3.05344 0
M  V30 2545 H 241.091 -3.23015 -2.00911 0
M  V30 2546 H 242.403 -4.11557 -2.8182 0
M  V30 2547 H 241.557 -3.36216 -5.05018 0
M  V30 2548 H 240.296 -2.37389 -4.26026 0
M  V30 2549 H 239.301 -4.44115 -3.24102 0
M  V30 2550 H 240.526 -5.44123 -4.06333 0
M  V30 2551 H 238.472 -3.66807 -5.43865 0
M  V30 2552 H 238.389 -5.39346 -5.29756 0
M  V30 2553 H 239.657 -4.66993 -6.2413 0
M  V30 2554 N 243.887 0.651787 -1.4349 0
M  V30 2555 C 244.85 1.74647 -1.48429 0
M  V30 2556 C 245.85 1.56513 -0.368817 0
M  V30 2557 O 247.04 1.62385 -0.630623 0
M  V30 2558 C 244.172 3.13533 -1.33827 0
M  V30 2559 H 245.365 1.71649 -2.4592 0
M  V30 2560 H 242.918 0.863573 -1.30277 0
M  V30 2561 H 243.653 3.22142 -0.37349 0
M  V30 2562 H 243.438 3.28101 -2.14691 0
M  V30 2563 H 244.928 3.93356 -1.40218 0
M  V30 2564 N 245.365 1.30045 0.890287 0
M  V30 2565 C 246.312 1.15976 1.99545 0
M  V30 2566 C 247.282 0.0506202 1.66023 0
M  V30 2567 O 248.467 0.219847 1.89529 0
M  V30 2568 C 245.607 0.852054 3.34416 0
M  V30 2569 C 244.72 2.04255 3.80662 0
M  V30 2570 C 243.855 1.6734 5.04154 0
M  V30 2571 C 242.894 2.82916 5.42794 0
M  V30 2572 N 242.031 2.46333 6.57468 0
M  V30 2573 H 246.871 2.10524 2.10911 0
M  V30 2574 H 244.408 1.04749 1.03276 0
M  V30 2575 H 246.366 0.654296 4.12037 0
M  V30 2576 H 244.996 -0.0565502 3.2275 0
M  V30 2577 H 244.048 2.35172 2.98995 0
M  V30 2578 H 245.36 2.90826 4.05242 0
M  V30 2579 H 244.514 1.43908 5.89386 0
M  V30 2580 H 243.253 0.779308 4.81433 0
M  V30 2581 H 242.258 3.0702 4.56091 0
M  V30 2582 H 243.483 3.73004 5.6749 0
M  V30 2583 H 241.429 1.59423 6.36334 0
M  V30 2584 H 241.346 3.26436 6.81891 0
M  V30 2585 H 242.614 2.26244 7.45945 0
M  V30 2586 N 246.843 -1.10192 1.12674 0
M  V30 2587 C 247.806 -2.14786 0.799979 0
M  V30 2588 C 248.806 -1.59711 -0.18685 0
M  V30 2589 O 249.996 -1.74156 0.0392558 0
M  V30 2590 C 247.128 -3.40374 0.189228 0
M  V30 2591 H 248.321 -2.45203 1.72671 0
M  V30 2592 H 245.874 -1.25597 0.930326 0
M  V30 2593 H 246.609 -3.15577 -0.747107 0
M  V30 2594 H 246.394 -3.81637 0.899766 0
M  V30 2595 H 247.884 -4.17594 -0.0228143 0
M  V30 2596 N 248.321 -0.919034 -1.28029 0
M  V30 2597 C 249.57 -0.550802 -1.94034 0
M  V30 2598 C 249.883 0.910877 -1.73096 0
M  V30 2599 O 251.089 1.3875 -2.33368 0
M  V30 2600 C 249.545 -0.934249 -3.47563 0
M  V30 2601 C 249.153 -2.41602 -3.7727 0
M  V30 2602 C 250.897 -0.636854 -4.19696 0
M  V30 2603 C 248.804 -2.73932 -5.24133 0
M  V30 2604 H 247.734 -0.202273 -0.726362 0
M  V30 2605 H 250.385 -1.11867 -1.45458 0
M  V30 2606 H 248.767 -0.295115 -3.94899 0
M  V30 2607 H 249.941 -3.10233 -3.40723 0
M  V30 2608 H 248.256 -2.68441 -3.18321 0
M  V30 2609 H 250.853 -0.855005 -5.2782 0
M  V30 2610 H 251.196 0.425575 -4.14119 0
M  V30 2611 H 251.729 -1.23469 -3.78154 0
M  V30 2612 H 248.468 -3.79049 -5.34792 0
M  V30 2613 H 247.988 -2.09942 -5.61858 0
M  V30 2614 H 249.667 -2.61215 -5.91925 0
M  V30 2615 N 249.799 1.42003 -0.683588 0
M  V30 2616 C 251.047 2.01015 -0.209101 0
M  V30 2617 C 251.368 1.54365 1.19149 0
M  V30 2618 O 250.638 0.769083 1.80172 0
M  V30 2619 H 249.218 0.743294 -0.074315 0
M  V30 2620 H 251.88 1.73798 -0.882066 0
M  V30 2621 H 250.976 3.11343 -0.2172 0
M  V30 2622 N 251.277 0.427512 1.51691 0
M  V30 2623 C 252.21 -0.433876 2.24037 0
M  V30 2624 C 253.188 -1.03287 1.25581 0
M  V30 2625 O 254.372 -1.07722 1.54688 0
M  V30 2626 C 251.499 -1.60385 2.98319 0
M  V30 2627 C 250.545 -1.12648 4.11355 0
M  V30 2628 S 251.378 -0.076543 5.35445 0
M  V30 2629 C 252.534 -1.25141 6.13262 0
M  V30 2630 H 252.767 0.180367 2.96752 0
M  V30 2631 H 250.3 0.211946 1.52938 0
M  V30 2632 H 252.258 -2.27462 3.41718 0
M  V30 2633 H 250.919 -2.18948 2.25213 0
M  V30 2634 H 250.112 -2.0011 4.62571 0
M  V30 2635 H 249.714 -0.534088 3.70167 0
M  V30 2636 H 252.006 -2.17162 6.41753 0
M  V30 2637 H 252.949 -0.779411 7.03797 0
M  V30 2638 H 253.357 -1.48553 5.44603 0
M  V30 2639 N 252.755 -1.56801 0.158532 0
M  V30 2640 C 253.702 -2.17337 -0.776729 0
M  V30 2641 C 254.672 -1.1096 -1.23601 0
M  V30 2642 O 255.857 -1.39054 -1.30647 0
M  V30 2643 C 252.997 -2.80822 -2.00582 0
M  V30 2644 C 252.11 -4.01624 -1.59129 0
M  V30 2645 C 251.245 -4.53072 -2.77306 0
M  V30 2646 C 250.284 -5.66314 -2.32282 0
M  V30 2647 N 249.421 -6.12329 -3.43508 0
M  V30 2648 H 254.261 -2.96918 -0.253701 0
M  V30 2649 H 251.798 -1.46661 -0.113504 0
M  V30 2650 H 253.756 -3.15779 -2.72652 0
M  V30 2651 H 252.386 -2.03866 -2.50277 0
M  V30 2652 H 251.438 -3.72571 -0.767806 0
M  V30 2653 H 252.75 -4.83633 -1.2207 0
M  V30 2654 H 251.904 -4.90145 -3.57551 0
M  V30 2655 H 250.643 -3.70095 -3.17617 0
M  V30 2656 H 249.648 -5.28806 -1.5048 0
M  V30 2657 H 250.873 -6.51085 -1.93043 0
M  V30 2658 H 248.819 -5.32284 -3.83418 0
M  V30 2659 H 248.736 -6.89293 -3.105 0
M  V30 2660 H 250.004 -6.5405 -4.24075 0
M  V30 2661 N 254.233 0.115231 -1.57178 0
M  V30 2662 C 255.181 1.16014 -2.01602 0
M  V30 2663 C 256.175 1.42653 -0.913587 0
M  V30 2664 O 257.381 1.42571 -1.09879 0
M  V30 2665 H 253.756 0.391252 -0.642204 0
M  V30 2666 H 255.727 0.758998 -2.88586 0
M  V30 2667 C 254.476 2.47767 -2.4394 0
M  V30 2668 H 253.799 2.28108 -3.28339 0
M  V30 2669 H 255.239 3.19432 -2.78818 0
M  V30 2670 C 253.698 3.10617 -1.30455 0
M  V30 2671 O 254.228 3.96846 -0.622585 0
M  V30 2672 N 252.434 2.70553 -1.06064 0
M  V30 2673 H 251.981 2.00527 -1.61699 0
M  V30 2674 H 251.939 3.12934 -0.303284 0
M  V30 2675 N 255.711 1.52812 0.385517 0
M  V30 2676 C 256.939 1.71907 1.15133 0
M  V30 2677 C 257.354 0.439004 1.83625 0
M  V30 2678 O 256.711 -0.586765 1.7281 0
M  V30 2679 C 256.762 2.87099 2.19673 0
M  V30 2680 O 256.483 4.10151 1.53973 0
M  V30 2681 C 257.984 3.17902 3.08955 0
M  V30 2682 H 255.204 0.575479 0.345057 0
M  V30 2683 H 257.748 1.99476 0.45052 0
M  V30 2684 H 255.903 2.61982 2.85384 0
M  V30 2685 H 256.317 4.74514 2.23465 0
M  V30 2686 H 257.791 4.01959 3.7833 0
M  V30 2687 H 258.268 2.3243 3.72657 0
M  V30 2688 H 258.874 3.44871 2.48885 0
M  V30 2689 N 257.189 -0.644168 1.43834 0
M  V30 2690 C 258.139 -1.7501 1.46135 0
M  V30 2691 C 259.123 -1.57507 0.328685 0
M  V30 2692 O 260.315 -1.67465 0.5731 0
M  V30 2693 C 257.444 -3.13641 1.39585 0
M  V30 2694 C 256.53 -3.3666 2.57916 0
M  V30 2695 N 256.921 -3.30107 3.83227 0
M  V30 2696 C 255.219 -3.67411 2.52834 0
M  V30 2697 C 255.92 -3.53456 4.61999 0
M  V30 2698 N 254.896 -3.75705 3.9287 0
M  V30 2699 H 258.698 -1.68382 2.40883 0
M  V30 2700 H 256.212 -0.846169 1.38614 0
M  V30 2701 H 258.209 -3.92933 1.39317 0
M  V30 2702 H 256.869 -3.21444 0.45865 0
M  V30 2703 H 257.88 -3.09316 4.15384 0
M  V30 2704 H 254.557 -3.82275 1.67845 0
M  V30 2705 H 255.947 -3.54093 5.71024 0
M  V30 2706 N 258.668 -1.30515 -0.883378 0
M  V30 2707 C 259.915 -1.1943 -1.63532 0
M  V30 2708 C 260.243 0.250627 -1.92878 0
M  V30 2709 O 259.498 1.19556 -1.54935 0
M  V30 2710 C 259.797 -1.96994 -2.98209 0
M  V30 2711 C 259.463 -3.466 -2.88408 0
M  V30 2712 C 258.125 -3.87397 -2.85442 0
M  V30 2713 C 260.477 -4.41863 -2.76418 0
M  V30 2714 C 257.805 -5.21745 -2.68327 0
M  V30 2715 C 260.157 -5.7632 -2.60841 0
M  V30 2716 C 258.821 -6.16354 -2.56251 0
M  V30 2717 H 258.091 -0.437025 -0.598406 0
M  V30 2718 H 260.738 -1.61635 -1.02696 0
M  V30 2719 H 259.043 -1.47429 -3.63004 0
M  V30 2720 H 260.74 -1.85808 -3.55354 0
M  V30 2721 H 257.33 -3.14182 -2.91527 0
M  V30 2722 H 261.514 -4.11285 -2.77775 0
M  V30 2723 H 256.77 -5.51853 -2.63189 0
M  V30 2724 H 260.944 -6.49772 -2.50538 0
M  V30 2725 H 258.571 -7.20401 -2.42748 0
M  V30 2726 N 260.146 1.09593 -1.13257 0
M  V30 2727 C 261.392 1.82003 -0.89458 0
M  V30 2728 C 261.725 1.85402 0.577906 0
M  V30 2729 O 261 1.32099 1.42759 0
M  V30 2730 C 261.283 3.28237 -1.48096 0
M  V30 2731 C 261.136 3.3312 -3.02244 0
M  V30 2732 C 262.455 4.24871 -1.14774 0
M  V30 2733 H 259.574 0.66077 -0.326424 0
M  V30 2734 H 262.216 1.28389 -1.40058 0
M  V30 2735 H 260.366 3.74024 -1.05062 0
M  V30 2736 H 262.038 2.95748 -3.54021 0
M  V30 2737 H 260.281 2.72756 -3.37323 0
M  V30 2738 H 260.952 4.3613 -3.38371 0
M  V30 2739 H 263.428 3.87361 -1.51957 0
M  V30 2740 H 262.304 5.25532 -1.58452 0
M  V30 2741 H 262.565 4.42058 -0.0611849 0
M  V30 2742 N 261.624 0.925811 1.2754 0
M  V30 2743 C 262.572 0.413897 2.28888 0
M  V30 2744 C 263.566 -0.500779 1.61829 0
M  V30 2745 O 264.772 -0.38069 1.75928 0
M  V30 2746 H 261.147 0.115274 0.743112 0
M  V30 2747 H 263.118 1.28151 2.69481 0
M  V30 2748 C 261.867 -0.319792 3.46226 0
M  V30 2749 H 261.19 0.374846 3.98039 0
M  V30 2750 H 262.63 -0.642435 4.19105 0
M  V30 2751 C 261.089 -1.53209 3.00048 0
M  V30 2752 O 261.619 -2.6309 3.03557 0
M  V30 2753 N 259.825 -1.38326 2.55566 0
M  V30 2754 H 259.372 -0.489292 2.5291 0
M  V30 2755 H 259.33 -2.19564 2.25031 0
M  V30 2756 N 263.102 -1.41638 0.69111 0
M  V30 2757 C 264.513 -1.84346 0.295517 0
M  V30 2758 C 264.864 -1.57833 -1.16547 0
M  V30 2759 O 263.989 -1.04648 -1.89414 0
M  V30 2760 C 264.584 -3.34636 0.529575 0
M  V30 2761 C 263.143 -3.7593 0.187944 0
M  V30 2762 C 262.29 -2.65082 0.814052 0
M  V30 2763 H 265.241 -1.31253 0.892092 0
M  V30 2764 H 265.262 -3.79903 -0.213148 0
M  V30 2765 H 264.774 -3.53901 1.59297 0
M  V30 2766 H 262.875 -3.62268 -0.871367 0
M  V30 2767 H 262.988 -4.74808 0.63985 0
M  V30 2768 H 261.352 -2.53528 0.244017 0
M  V30 2769 H 262.135 -2.87167 1.88123 0
M  V30 2770 N 264.58 -0.43555 -1.51462 0
M  V30 2771 C 265.808 0.130242 -2.0649 0
M  V30 2772 C 266.223 1.36614 -1.30315 0
M  V30 2773 O 265.58 1.78869 -0.362223 0
M  V30 2774 C 265.631 0.454253 -3.58635 0
M  V30 2775 O 265.352 -0.73259 -4.31931 0
M  V30 2776 C 266.853 1.07091 -4.3017 0
M  V30 2777 H 264.073 0.00871669 -0.670943 0
M  V30 2778 H 266.617 -0.614117 -1.95061 0
M  V30 2779 H 264.772 1.14851 -3.69984 0
M  V30 2780 H 265.186 -0.455787 -5.22516 0
M  V30 2781 H 266.66 1.24764 -5.37716 0
M  V30 2782 H 267.137 2.05144 -3.88346 0
M  V30 2783 H 267.743 0.416089 -4.2326 0
M  V30 2784 N 266.058 1.56714 -0.166846 0
M  V30 2785 C 267.306 1.96358 0.478305 0
M  V30 2786 C 267.627 1.0537 1.6408 0
M  V30 2787 O 266.897 0.119154 1.95537 0
M  V30 2788 H 265.477 0.725065 0.179692 0
M  V30 2789 H 268.139 1.93329 -0.246985 0
M  V30 2790 H 267.235 3.00547 0.841292 0
M  V30 2791 N 267.536 -0.106894 1.57237 0
M  V30 2792 C 268.499 -1.11466 2.0027 0
M  V30 2793 C 269.499 -1.33623 0.894519 0
M  V30 2794 O 270.689 -1.29935 1.16028 0
M  V30 2795 C 267.821 -2.46646 2.35327 0
M  V30 2796 H 269.014 -0.744516 2.90512 0
M  V30 2797 H 266.567 -0.351576 1.52295 0
M  V30 2798 H 267.302 -2.88558 1.48003 0
M  V30 2799 H 267.087 -2.31915 3.16161 0
M  V30 2800 H 268.577 -3.19151 2.69318 0
M  V30 2801 N 269.014 -1.53014 -0.377408 0
M  V30 2802 C 269.924 -1.81557 -1.48574 0
M  V30 2803 C 270.94 -0.703102 -1.59162 0
M  V30 2804 O 272.116 -0.99192 -1.75279 0
M  V30 2805 C 269.181 -1.9889 -2.83978 0
M  V30 2806 C 268.242 -3.22801 -2.83016 0
M  V30 2807 C 267.475 -3.39298 -4.11962 0
M  V30 2808 O 267.698 -2.60345 -5.0752 0
M  V30 2809 O 266.632 -4.32604 -4.18494 0
M  V30 2810 H 270.458 -2.75695 -1.27382 0
M  V30 2811 H 268.043 -1.38248 -0.566373 0
M  V30 2812 H 269.925 -2.11931 -3.6423 0
M  V30 2813 H 268.6 -1.07942 -3.05172 0
M  V30 2814 H 267.507 -3.15193 -2.01505 0
M  V30 2815 H 268.84 -4.13632 -2.66775 0
M  V30 2816 N 270.492 0.636531 -1.44174 0
M  V30 2817 C 271.44 1.76995 -1.50915 0
M  V30 2818 C 272.434 1.65053 -0.381295 0
M  V30 2819 O 273.64 1.71197 -0.55601 0
M  V30 2820 H 270.015 0.584247 -0.473455 0
M  V30 2821 H 271.986 1.68432 -2.4632 0
M  V30 2822 C 270.735 3.15314 -1.46534 0
M  V30 2823 H 270.058 3.25149 -2.32633 0
M  V30 2824 H 271.498 3.9453 -1.55312 0
M  V30 2825 C 269.957 3.3639 -0.185305 0
M  V30 2826 O 270.487 3.94699 0.746688 0
M  V30 2827 N 268.693 2.9046 -0.0901606 0
M  V30 2828 H 268.24 2.43193 -0.849416 0
M  V30 2829 H 268.198 3.04937 0.765553 0
M  V30 2830 N 271.97 1.30982 0.876444 0
M  V30 2831 C 273.195 1.23373 1.66715 0
M  V30 2832 C 273.62 -0.19885 1.87046 0
M  V30 2833 O 272.978 -1.1427 1.40756 0
M  V30 2834 C 273.026 1.97644 3.01611 0
M  V30 2835 O 272.13 1.30935 3.91062 0
M  V30 2836 H 271.471 0.426279 0.509099 0
M  V30 2837 H 274.001 1.72944 1.09323 0
M  V30 2838 H 274.011 2.06992 3.51594 0
M  V30 2839 H 272.686 3.01829 2.86133 0
M  V30 2840 H 271.263 1.29996 3.49507 0
M  V30 2841 N 273.449 -1.08991 1.13837 0
M  V30 2842 C 274.865 -1.33312 0.877506 0
M  V30 2843 C 275.065 -1.95587 -0.48456 0
M  V30 2844 O 274.121 -2.20509 -1.23013 0
M  V30 2845 C 275.434 -2.24045 2.0056 0
M  V30 2846 C 276.982 -2.37542 2.03821 0
M  V30 2847 C 277.457 -3.31614 3.15905 0
M  V30 2848 N 278.948 -3.39189 3.15445 0
M  V30 2849 C 279.683 -4.11992 3.98811 0
M  V30 2850 N 279.179 -4.87553 4.92203 0
M  V30 2851 N 280.972 -4.07762 3.86894 0
M  V30 2852 H 273.123 -0.669456 2.01574 0
M  V30 2853 H 275.386 -0.357482 0.878015 0
M  V30 2854 H 275.092 -1.85521 2.98789 0
M  V30 2855 H 274.966 -3.24466 1.92359 0
M  V30 2856 H 277.353 -2.75327 1.06202 0
M  V30 2857 H 277.434 -1.36884 2.16093 0
M  V30 2858 H 277.078 -2.94551 4.13766 0
M  V30 2859 H 277.008 -4.32186 3.0087 0
M  V30 2860 H 279.499 -2.85314 2.47799 0
M  V30 2861 H 279.812 -5.40549 5.52292 0
M  V30 2862 H 278.157 -4.86627 4.96205 0
M  V30 2863 H 281.348 -3.47833 3.13257 0
M  V30 2864 H 281.521 -4.64238 4.52092 0
M  V30 2865 N 274.927 -0.932562 -1.27047 0
M  V30 2866 C 275.857 -0.452902 -2.29066 0
M  V30 2867 C 276.838 0.489338 -1.62909 0
M  V30 2868 O 278.023 0.393046 -1.90181 0
M  V30 2869 C 275.153 0.290698 -3.46081 0
M  V30 2870 C 274.107 -0.564168 -4.24265 0
M  V30 2871 C 273.433 0.308886 -5.33807 0
M  V30 2872 C 274.733 -1.83112 -4.89149 0
M  V30 2873 H 276.427 -1.30552 -2.69437 0
M  V30 2874 H 273.973 -0.629201 -1.29526 0
M  V30 2875 H 275.926 0.637233 -4.16554 0
M  V30 2876 H 274.65 1.17738 -3.0464 0
M  V30 2877 H 273.309 -0.893477 -3.55545 0
M  V30 2878 H 272.957 1.19467 -4.88607 0
M  V30 2879 H 272.657 -0.259633 -5.87026 0
M  V30 2880 H 274.181 0.650884 -6.07121 0
M  V30 2881 H 275.595 -1.55236 -5.51883 0
M  V30 2882 H 273.992 -2.34353 -5.52448 0
M  V30 2883 H 275.062 -2.54772 -4.12576 0
M  V30 2884 N 276.405 1.4127 -0.698611 0
M  V30 2885 C 277.821 1.55241 -0.370462 0
M  V30 2886 C 278.021 1.67351 1.12231 0
M  V30 2887 O 277.077 1.65363 1.90818 0
M  V30 2888 C 278.39 2.78997 -1.12165 0
M  V30 2889 C 279.938 2.92797 -1.1063 0
M  V30 2890 C 280.413 4.19445 -1.8393 0
M  V30 2891 N 281.904 4.26409 -1.80914 0
M  V30 2892 C 282.639 5.23271 -2.34467 0
M  V30 2893 N 282.135 6.26145 -2.96504 0
M  V30 2894 N 283.928 5.15232 -2.24706 0
M  V30 2895 H 276.079 1.31654 -1.66676 0
M  V30 2896 H 278.342 0.635393 -0.703548 0
M  V30 2897 H 278.048 2.76268 -2.17644 0
M  V30 2898 H 277.922 3.70606 -0.702209 0
M  V30 2899 H 280.309 2.95039 -0.0597713 0
M  V30 2900 H 280.39 2.02353 -1.56483 0
M  V30 2901 H 280.034 4.17964 -2.88563 0
M  V30 2902 H 279.964 5.08866 -1.35509 0
M  V30 2903 H 282.455 3.527 -1.35687 0
M  V30 2904 H 282.768 6.96451 -3.34927 0
M  V30 2905 H 281.113 6.26638 -3.00583 0
M  V30 2906 H 284.304 4.33789 -1.7591 0
M  V30 2907 H 284.477 5.90552 -2.66745 0
M  V30 2908 N 277.883 0.443576 1.51229 0
M  V30 2909 C 279.111 -0.11929 2.06556 0
M  V30 2910 C 279.526 -1.35921 1.31038 0
M  V30 2911 O 278.883 -1.78675 0.371704 0
M  V30 2912 C 278.934 -0.435228 3.5887 0
M  V30 2913 O 278.655 0.755486 4.31537 0
M  V30 2914 C 280.156 -1.04808 4.30732 0
M  V30 2915 H 277.376 -0.0051584 0.67098 0
M  V30 2916 H 279.92 0.624453 1.94733 0
M  V30 2917 H 278.075 -1.12887 3.70588 0
M  V30 2918 H 278.489 0.483491 5.22267 0
M  V30 2919 H 279.963 -1.2191 5.3837 0
M  V30 2920 H 280.44 -2.03081 3.89429 0
M  V30 2921 H 281.046 -0.393637 4.23474 0
M  V30 2922 N 279.361 -1.56624 0.175154 0
M  V30 2923 C 280.608 -1.96999 -0.468811 0
M  V30 2924 C 280.936 -1.06129 -1.62994 0
M  V30 2925 O 280.191 -0.0961771 -1.95464 0
M  V30 2926 C 280.49 -3.43419 -0.989864 0
M  V30 2927 C 280.156 -4.50866 0.0557687 0
M  V30 2928 C 278.818 -4.79975 0.343134 0
M  V30 2929 C 281.17 -5.15551 0.765308 0
M  V30 2930 C 278.498 -5.71066 1.34536 0
M  V30 2931 C 280.85 -6.07724 1.75654 0
M  V30 2932 C 279.514 -6.35199 2.05132 0
M  V30 2933 H 278.784 -0.720869 -0.17155 0
M  V30 2934 H 281.431 -1.89616 0.267924 0
M  V30 2935 H 279.736 -3.47772 -1.80449 0
M  V30 2936 H 281.433 -3.72002 -1.49719 0
M  V30 2937 H 278.023 -4.28229 -0.178381 0
M  V30 2938 H 282.207 -4.9317 0.556513 0
M  V30 2939 H 277.463 -5.90635 1.57988 0
M  V30 2940 H 281.637 -6.56912 2.31169 0
M  V30 2941 H 279.264 -7.05584 2.8294 0
M  V30 2942 N 280.839 0.0985539 -1.57292 0
M  V30 2943 C 281.802 1.10402 -2.00858 0
M  V30 2944 C 282.802 1.33146 -0.901593 0
M  V30 2945 O 283.992 1.29318 -1.16716 0
M  V30 2946 C 281.124 2.45394 -2.36632 0
M  V30 2947 H 282.317 0.729099 -2.90902 0
M  V30 2948 H 279.87 0.343495 -1.52479 0
M  V30 2949 H 280.605 2.87769 -1.49531 0
M  V30 2950 H 280.39 2.30235 -3.17387 0
M  V30 2951 H 281.88 3.17718 -2.71007 0
M  V30 2952 N 282.317 1.53212 0.369288 0
M  V30 2953 C 283.728 1.60943 0.946276 0
M  V30 2954 C 284.079 0.47452 1.90375 0
M  V30 2955 O 283.204 -0.399597 2.12679 0
M  V30 2956 C 283.799 2.91715 1.72302 0
M  V30 2957 C 282.358 3.01792 2.24941 0
M  V30 2958 C 281.505 2.56211 1.06072 0
M  V30 2959 H 284.456 1.58007 0.148198 0
M  V30 2960 H 284.477 2.79309 2.58393 0
M  V30 2961 H 283.989 3.74295 1.0259 0
M  V30 2962 H 282.09 2.23791 2.97906 0
M  V30 2963 H 282.203 4.06803 2.53077 0
M  V30 2964 H 280.567 2.10998 1.4266 0
M  V30 2965 H 281.35 3.41206 0.378639 0
M  V30 2966 N 283.795 -0.628877 1.44509 0
M  V30 2967 C 285.023 -1.41554 1.50897 0
M  V30 2968 C 285.438 -1.8832 0.134564 0
M  V30 2969 O 284.795 -1.60969 -0.859965 0
M  V30 2970 C 284.846 -2.63435 2.47556 0
M  V30 2971 O 284.567 -2.18619 3.79654 0
M  V30 2972 C 286.068 -3.56537 2.63431 0
M  V30 2973 H 283.288 -0.434044 0.511709 0
M  V30 2974 H 285.832 -0.768895 1.89495 0
M  V30 2975 H 283.987 -3.24187 2.12089 0
M  V30 2976 H 284.401 -2.97652 4.31861 0
M  V30 2977 H 285.875 -4.38657 3.35088 0
M  V30 2978 H 286.352 -4.05493 1.68738 0
M  V30 2979 H 286.958 -3.01653 2.9981 0
M  V30 2980 N 285.273 -1.31445 -0.869486 0
M  V30 2981 C 286.22 -1.19135 -1.97675 0
M  V30 2982 C 287.19 -0.0770266 -1.65921 0
M  V30 2983 O 288.375 -0.249972 -1.89155 0
M  V30 2984 C 285.515 -0.905149 -3.33018 0
M  V30 2985 C 284.628 -2.10285 -3.77365 0
M  V30 2986 C 283.763 -1.75339 -5.01427 0
M  V30 2987 C 282.802 -2.91515 -5.38224 0
M  V30 2988 N 281.939 -2.56762 -6.53466 0
M  V30 2989 H 286.779 -2.13853 -2.07535 0
M  V30 2990 H 284.316 -1.06379 -1.01597 0
M  V30 2991 H 286.274 -0.719765 -4.10944 0
M  V30 2992 H 284.904 0.00519624 -3.228 0
M  V30 2993 H 283.956 -2.39899 -2.95216 0
M  V30 2994 H 285.268 -2.97237 -4.00564 0
M  V30 2995 H 284.422 -1.53266 -5.87022 0
M  V30 2996 H 283.161 -0.855801 -4.80133 0
M  V30 2997 H 282.166 -3.14237 -4.51149 0
M  V30 2998 H 283.391 -3.81985 -5.61484 0
M  V30 2999 H 281.337 -1.69526 -6.33717 0
M  V30 3000 H 281.254 -3.37243 -6.76612 0
M  V30 3001 H 282.522 -2.38083 -7.42251 0
M  V30 3002 N 286.751 1.08385 -1.14413 0
M  V30 3003 C 287.981 1.8425 -0.934644 0
M  V30 3004 C 288.389 1.81907 0.520234 0
M  V30 3005 O 287.732 1.22126 1.37226 0
M  V30 3006 C 287.794 3.32853 -1.35828 0
M  V30 3007 C 287.458 3.5893 -2.82875 0
M  V30 3008 C 288.455 3.53756 -3.80989 0
M  V30 3009 C 286.14 3.86934 -3.20293 0
M  V30 3010 C 288.134 3.76216 -5.14529 0
M  V30 3011 C 285.821 4.09047 -4.54008 0
M  V30 3012 C 286.819 4.03682 -5.50936 0
M  V30 3013 O 286.507 4.25214 -6.82238 0
M  V30 3014 H 286.239 0.588502 -0.332628 0
M  V30 3015 H 288.793 1.37792 -1.52324 0
M  V30 3016 H 287.023 3.8007 -0.713019 0
M  V30 3017 H 288.712 3.90154 -1.11957 0
M  V30 3018 H 289.478 3.32135 -3.53428 0
M  V30 3019 H 285.357 3.9023 -2.45442 0
M  V30 3020 H 288.901 3.71943 -5.90173 0
M  V30 3021 H 284.798 4.30151 -4.8129 0
M  V30 3022 H 285.566 4.42619 -6.88499 0
M  V30 3023 N 288.23 0.939286 1.26551 0
M  V30 3024 C 289.177 0.446088 2.26448 0
M  V30 3025 C 290.147 -0.493234 1.58608 0
M  V30 3026 O 291.332 -0.409857 1.86346 0
M  V30 3027 C 288.472 -0.284375 3.43926 0
M  V30 3028 C 287.585 0.690399 4.26448 0
M  V30 3029 C 286.72 -0.0610712 5.31165 0
M  V30 3030 C 285.759 0.905649 6.05363 0
M  V30 3031 N 284.896 0.186055 7.01853 0
M  V30 3032 H 289.736 1.30291 2.68008 0
M  V30 3033 H 287.273 0.65371 1.31776 0
M  V30 3034 H 289.231 -0.724313 4.10864 0
M  V30 3035 H 287.861 -1.10535 3.03285 0
M  V30 3036 H 286.913 1.24885 3.59316 0
M  V30 3037 H 288.225 1.42873 4.779 0
M  V30 3038 H 287.379 -0.56038 6.04106 0
M  V30 3039 H 286.118 -0.832297 4.80546 0
M  V30 3040 H 285.123 1.4161 5.3125 0
M  V30 3041 H 286.348 1.67685 6.58072 0
M  V30 3042 H 284.294 -0.566714 6.53548 0
M  V30 3043 H 284.211 0.863752 7.51049 0
M  V30 3044 H 285.479 -0.292221 7.78952 0
M  V30 3045 N 289.708 -1.40897 0.706093 0
M  V30 3046 C 290.985 -1.94868 0.169099 0
M  V30 3047 C 291.365 -1.64485 -1.32318 0
M  V30 3048 O 290.713 -0.95744 -2.07474 0
M  V30 3049 C 290.923 -3.45798 0.471654 0
M  V30 3050 C 292.271 -4.22663 0.405127 0
M  V30 3051 O 293.295 -3.53865 0.407168 0
M  V30 3052 O 292.154 -5.45216 0.374383 0
M  V30 3053 H 289.248 -0.82673 0.0211352 0
M  V30 3054 H 291.794 -1.50558 0.782976 0
M  V30 3055 H 290.566 -3.61235 1.50416 0
M  V30 3056 H 290.189 -3.97225 -0.172666 0
M  V30 3057 N 291.186 -0.45159 -1.50991 0
M  V30 3058 C 292.118 0.388634 -2.25881 0
M  V30 3059 C 293.131 0.974041 -1.30446 0
M  V30 3060 O 294.32 0.865758 -1.56099 0
M  V30 3061 C 291.42 1.5571 -3.01011 0
M  V30 3062 C 290.593 1.08801 -4.23652 0
M  V30 3063 C 289.652 2.12825 -4.8124 0
M  V30 3064 O 288.678 1.71678 -5.42693 0
M  V30 3065 N 289.88 3.45453 -4.66522 0
M  V30 3066 H 292.645 -0.25329 -2.98628 0
M  V30 3067 H 290.206 -0.281268 -1.59438 0
M  V30 3068 H 292.198 2.24952 -3.3642 0
M  V30 3069 H 290.768 2.10409 -2.31186 0
M  V30 3070 H 289.988 0.22215 -3.93574 0
M  V30 3071 H 291.276 0.752213 -5.03209 0
M  V30 3072 H 290.674 3.81605 -4.17605 0
M  V30 3073 H 289.231 4.10549 -5.06254 0
M  V30 3074 N 292.664 1.56529 -0.183458 0
M  V30 3075 C 293.574 2.22144 0.754272 0
M  V30 3076 C 294.59 1.21684 1.24374 0
M  V30 3077 O 295.766 1.54385 1.29333 0
M  V30 3078 C 292.831 2.85884 1.96141 0
M  V30 3079 C 291.892 4.01579 1.51765 0
M  V30 3080 C 291.125 4.6227 2.66725 0
M  V30 3081 O 291.348 4.21865 3.83909 0
M  V30 3082 O 290.282 5.51936 2.40104 0
M  V30 3083 H 294.108 3.02861 0.225527 0
M  V30 3084 H 291.693 1.49331 0.0453032 0
M  V30 3085 H 293.575 3.26253 2.66715 0
M  V30 3086 H 292.25 2.08154 2.47899 0
M  V30 3087 H 291.157 3.65856 0.781049 0
M  V30 3088 H 292.49 4.80938 1.04686 0
M  V30 3089 N 294.142 -0.090211 1.57342 0
M  V30 3090 C 295.558 -0.444547 1.53284 0
M  V30 3091 C 295.758 -1.80238 0.900914 0
M  V30 3092 O 294.814 -2.4759 0.495513 0
M  V30 3093 C 296.127 -0.402543 2.97993 0
M  V30 3094 C 297.675 -0.48405 3.09234 0
M  V30 3095 C 298.15 -0.472144 4.5556 0
M  V30 3096 N 299.641 -0.532757 4.60126 0
M  V30 3097 C 300.376 -0.545462 5.708 0
M  V30 3098 N 299.872 -0.514082 6.9089 0
M  V30 3099 N 301.665 -0.59064 5.58988 0
M  V30 3100 H 293.816 0.799121 1.96794 0
M  V30 3101 H 296.079 0.297965 0.899956 0
M  V30 3102 H 295.785 0.528106 3.47712 0
M  V30 3103 H 295.659 -1.21969 3.56936 0
M  V30 3104 H 298.046 -1.40512 2.595 0
M  V30 3105 H 298.127 0.361328 2.53235 0
M  V30 3106 H 297.771 0.445 5.05947 0
M  V30 3107 H 297.701 -1.3348 5.09402 0
M  V30 3108 H 300.192 -0.562006 3.73698 0
M  V30 3109 H 300.505 -0.527195 7.71 0
M  V30 3110 H 298.85 -0.481054 6.93333 0
M  V30 3111 H 302.041 -0.61272 4.64073 0
M  V30 3112 H 302.214 -0.597073 6.45243 0
M  V30 3113 N 295.62 -1.53406 -0.361157 0
M  V30 3114 C 296.848 -1.73717 -1.12383 0
M  V30 3115 C 297.263 -0.468161 -1.82904 0
M  V30 3116 O 296.62 0.559198 -1.73722 0
M  V30 3117 C 296.671 -2.90558 -2.15078 0
M  V30 3118 O 296.392 -4.12549 -1.47428 0
M  V30 3119 C 297.893 -3.22777 -3.03858 0
M  V30 3120 H 295.113 -0.580896 -0.335858 0
M  V30 3121 H 297.657 -2.00167 -0.418728 0
M  V30 3122 H 295.812 -2.66489 -2.8118 0
M  V30 3123 H 296.226 -4.78009 -2.15887 0
M  V30 3124 H 297.7 -4.07927 -3.71887 0
M  V30 3125 H 298.177 -2.38329 -3.68912 0
M  V30 3126 H 298.783 -3.48787 -2.43367 0
M  V30 3127 N 297.098 0.621204 -1.44841 0
M  V30 3128 C 298.344 1.3826 -1.48365 0
M  V30 3129 C 298.677 1.93831 -0.119624 0
M  V30 3130 O 297.952 1.74251 0.864111 0
M  V30 3131 C 298.235 2.54058 -2.55199 0
M  V30 3132 C 298.088 2.03772 -4.00995 0
M  V30 3133 C 299.407 3.56225 -2.58442 0
M  V30 3134 H 296.526 0.501374 -0.540179 0
M  V30 3135 H 299.168 0.7015 -1.76576 0
M  V30 3136 H 297.318 3.12162 -2.31274 0
M  V30 3137 H 298.99 1.50423 -4.36086 0
M  V30 3138 H 297.233 1.34876 -4.12299 0
M  V30 3139 H 297.904 2.87185 -4.71411 0
M  V30 3140 H 300.38 3.07939 -2.79844 0
M  V30 3141 H 299.256 4.34756 -3.3508 0
M  V30 3142 H 299.517 4.10949 -1.63013 0
M  V30 3143 N 298.576 1.31904 0.862503 0
M  V30 3144 C 299.804 1.24998 1.64873 0
M  V30 3145 C 300.219 -0.183425 1.87907 0
M  V30 3146 O 299.576 -1.11794 1.44251 0
M  V30 3147 C 299.627 1.99829 3.01248 0
M  V30 3148 O 299.348 3.37575 2.79239 0
M  V30 3149 C 300.849 1.99852 3.95694 0
M  V30 3150 H 298.069 0.431599 0.513773 0
M  V30 3151 H 300.613 1.73901 1.07604 0
M  V30 3152 H 298.768 1.54668 3.55185 0
M  V30 3153 H 299.182 3.75776 3.65914 0
M  V30 3154 H 300.656 2.56709 4.88676 0
M  V30 3155 H 301.133 0.982852 4.28062 0
M  V30 3156 H 301.739 2.44926 3.47694 0
M  V30 3157 N 300.054 -1.07777 1.14986 0
M  V30 3158 C 301.282 -1.84018 0.945773 0
M  V30 3159 C 301.697 -1.81897 -0.505863 0
M  V30 3160 O 301.054 -1.22726 -1.35072 0
M  V30 3161 C 301.105 -3.31287 1.44677 0
M  V30 3162 O 300.826 -3.33449 2.84154 0
M  V30 3163 C 302.327 -4.24311 1.28355 0
M  V30 3164 H 299.547 -0.580716 0.336169 0
M  V30 3165 H 302.091 -1.36077 1.52654 0
M  V30 3166 H 300.246 -3.76594 0.908625 0
M  V30 3167 H 300.66 -4.25427 3.06777 0
M  V30 3168 H 302.134 -5.2573 1.68261 0
M  V30 3169 H 302.611 -4.38612 0.227184 0
M  V30 3170 H 303.217 -3.84836 1.81056 0
M  V30 3171 N 301.532 -0.945985 -1.26051 0
M  V30 3172 C 302.495 -0.463897 -2.24456 0
M  V30 3173 C 303.495 0.427655 -1.55009 0
M  V30 3174 O 304.685 0.226157 -1.72726 0
M  V30 3175 C 301.817 0.330812 -3.39291 0
M  V30 3176 H 303.01 -1.33357 -2.68619 0
M  V30 3177 H 300.563 -0.728416 -1.38289 0
M  V30 3178 H 301.298 1.21852 -3.00537 0
M  V30 3179 H 301.083 -0.308679 -3.90883 0
M  V30 3180 H 302.573 0.657865 -4.12386 0
M  V30 3181 N 303.011 1.40521 -0.713556 0
M  V30 3182 C 304.427 1.54839 -0.386907 0
M  V30 3183 C 304.627 1.68532 1.1045 0
M  V30 3184 O 303.683 1.67377 1.89053 0
M  V30 3185 C 304.996 2.77792 -1.15118 0
M  V30 3186 C 306.544 2.91607 -1.13729 0
M  V30 3187 C 307.019 4.1747 -1.88368 0
M  V30 3188 N 308.51 4.24466 -1.85427 0
M  V30 3189 C 309.245 5.20755 -2.40004 0
M  V30 3190 N 308.741 6.22965 -3.03129 0
M  V30 3191 N 310.534 5.1282 -2.30158 0
M  V30 3192 H 302.685 1.29879 -1.68063 0
M  V30 3193 H 304.948 0.627896 -0.710247 0
M  V30 3194 H 304.654 2.73944 -2.20561 0
M  V30 3195 H 304.528 3.6984 -0.741477 0
M  V30 3196 H 306.915 2.94959 -0.0910608 0
M  V30 3197 H 306.996 2.00682 -1.5862 0
M  V30 3198 H 306.64 4.1488 -2.9298 0
M  V30 3199 H 306.57 5.074 -1.40898 0
M  V30 3200 H 309.061 3.51241 -1.3942 0
M  V30 3201 H 309.374 6.92859 -3.42295 0
M  V30 3202 H 307.719 6.23415 -3.07212 0
M  V30 3203 H 310.91 4.31899 -1.80501 0
M  V30 3204 H 311.083 5.87689 -2.72993 0
M  V30 3205 N 304.489 0.459591 1.5075 0
M  V30 3206 C 305.766 -0.160371 1.94941 0
M  V30 3207 C 306.146 -1.58048 1.39943 0
M  V30 3208 O 305.494 -2.206 0.595629 0
M  V30 3209 C 305.704 -0.115432 3.48809 0
M  V30 3210 C 307.052 -0.310026 4.23467 0
M  V30 3211 O 308.076 -0.192543 3.55679 0
M  V30 3212 O 306.935 -0.546031 5.43765 0
M  V30 3213 H 304.029 -0.117925 0.818549 0
M  V30 3214 H 306.575 0.519169 1.61563 0
M  V30 3215 H 305.347 0.87652 3.81357 0
M  V30 3216 H 304.97 -0.836928 3.88692 0
M  V30 3217 N 305.967 -1.56429 0.191757 0
M  V30 3218 C 307.197 -2.01574 -0.452928 0
M  V30 3219 C 307.605 -1.07107 -1.55964 0
M  V30 3220 O 306.948 -0.067534 -1.83576 0
M  V30 3221 C 307.01 -3.43121 -1.07278 0
M  V30 3222 C 306.674 -4.56879 -0.105214 0
M  V30 3223 C 307.671 -5.15379 0.684149 0
M  V30 3224 C 305.356 -5.023 0.00489824 0
M  V30 3225 C 307.35 -6.17746 1.57062 0
M  V30 3226 C 305.037 -6.04511 0.894935 0
M  V30 3227 C 306.035 -6.62108 1.67637 0
M  V30 3228 O 305.723 -7.62335 2.55149 0
M  V30 3229 H 305.455 -0.665554 -0.118379 0
M  V30 3230 H 308.009 -2.03245 0.296737 0
M  V30 3231 H 306.239 -3.38425 -1.87097 0
M  V30 3232 H 307.928 -3.72093 -1.62177 0
M  V30 3233 H 308.694 -4.81157 0.609365 0
M  V30 3234 H 304.573 -4.57168 -0.593156 0
M  V30 3235 H 308.117 -6.6263 2.181 0
M  V30 3236 H 304.014 -6.38157 0.970847 0
M  V30 3237 H 304.782 -7.79741 2.48892 0
M  V30 3238 N 307.445 0.0818655 -1.57387 0
M  V30 3239 C 308.408 1.08265 -2.02018 0
M  V30 3240 C 309.408 1.32183 -0.915664 0
M  V30 3241 O 310.598 1.28073 -1.18081 0
M  V30 3242 C 307.73 2.42871 -2.39221 0
M  V30 3243 H 308.923 0.698204 -2.91659 0
M  V30 3244 H 306.476 0.327303 -1.52835 0
M  V30 3245 H 307.211 2.86167 -1.52575 0
M  V30 3246 H 306.996 2.26855 -3.19811 0
M  V30 3247 H 308.486 3.14826 -2.74362 0
M  V30 3248 N 308.923 1.53595 0.353017 0
M  V30 3249 C 310.172 1.69603 1.09168 0
M  V30 3250 C 310.485 0.460925 1.90092 0
M  V30 3251 O 311.691 0.501774 2.66823 0
M  V30 3252 C 310.147 2.99872 1.9901 0
M  V30 3253 C 309.755 4.30687 1.23339 0
M  V30 3254 C 311.499 3.25246 2.72792 0
M  V30 3255 C 309.406 5.52036 2.12156 0
M  V30 3256 H 308.336 0.631966 0.411261 0
M  V30 3257 H 310.987 1.80096 0.351802 0
M  V30 3258 H 309.369 2.83212 2.7678 0
M  V30 3259 H 310.543 4.58019 0.505456 0
M  V30 3260 H 308.858 4.11853 0.613663 0
M  V30 3261 H 311.455 4.13095 3.39495 0
M  V30 3262 H 311.798 2.41846 3.38846 0
M  V30 3263 H 312.331 3.42638 2.021 0
M  V30 3264 H 309.07 6.37951 1.50659 0
M  V30 3265 H 308.59 5.28966 2.82764 0
M  V30 3266 H 310.269 5.87313 2.71427 0
M  V30 3267 N 310.401 -0.613514 1.45168 0
M  V30 3268 C 311.331 -1.7354 1.56225 0
M  V30 3269 C 312.312 -1.64981 0.41414 0
M  V30 3270 O 313.497 -1.83472 0.636526 0
M  V30 3271 C 310.627 -3.12128 1.52295 0
M  V30 3272 C 309.581 -3.35491 2.65762 0
M  V30 3273 C 308.907 -4.74291 2.46885 0
M  V30 3274 C 310.207 -3.26325 4.0781 0
M  V30 3275 H 311.901 -1.64543 2.50132 0
M  V30 3276 H 309.447 -0.790185 1.20383 0
M  V30 3277 H 311.4 -3.90404 1.58628 0
M  V30 3278 H 310.124 -3.2195 0.549139 0
M  V30 3279 H 308.783 -2.59603 2.58847 0
M  V30 3280 H 308.431 -4.80839 1.47657 0
M  V30 3281 H 308.131 -4.9088 3.22972 0
M  V30 3282 H 309.655 -5.54775 2.55063 0
M  V30 3283 H 311.069 -3.94483 4.16 0
M  V30 3284 H 309.466 -3.54445 4.8424 0
M  V30 3285 H 310.536 -2.23855 4.30136 0
M  V30 3286 N 311.879 -1.3236 -0.855495 0
M  V30 3287 C 313.156 -1.13491 -1.59309 0
M  V30 3288 C 313.536 0.30503 -2.08885 0
M  V30 3289 O 312.884 1.30151 -1.87811 0
M  V30 3290 C 313.094 -2.16176 -2.73987 0
M  V30 3291 C 314.442 -2.49463 -3.43589 0
M  V30 3292 O 315.466 -2.14715 -2.84211 0
M  V30 3293 O 314.325 -3.09027 -4.50738 0
M  V30 3294 H 311.419 -0.437887 -0.701559 0
M  V30 3295 H 313.965 -1.43887 -0.899696 0
M  V30 3296 H 312.737 -3.1297 -2.34873 0
M  V30 3297 H 312.36 -1.86769 -3.51003 0
M  V30 3298 N 313.357 1.07166 -1.15556 0
M  V30 3299 C 314.287 2.16403 -0.877046 0
M  V30 3300 C 315.268 1.69217 0.173111 0
M  V30 3301 O 316.453 1.94181 0.027084 0
M  V30 3302 C 313.583 3.45349 -0.367632 0
M  V30 3303 C 312.537 4.05995 -1.35468 0
M  V30 3304 C 311.863 5.30045 -0.704038 0
M  V30 3305 C 313.163 4.45804 -2.72132 0
M  V30 3306 H 314.857 2.39959 -1.79053 0
M  V30 3307 H 312.403 1.15325 -0.862331 0
M  V30 3308 H 314.356 4.21095 -0.160317 0
M  V30 3309 H 313.08 3.21385 0.581326 0
M  V30 3310 H 311.739 3.32296 -1.54839 0
M  V30 3311 H 311.387 5.02373 0.251128 0
M  V30 3312 H 311.087 5.71579 -1.36277 0
M  V30 3313 H 312.611 6.08495 -0.50654 0
M  V30 3314 H 314.025 5.12671 -2.56595 0
M  V30 3315 H 312.422 4.98296 -3.34397 0
M  V30 3316 H 313.492 3.57083 -3.28054 0
M  V30 3317 N 314.835 0.952656 1.25548 0
M  V30 3318 C 315.785 0.442033 2.23674 0
M  V30 3319 C 316.769 -0.467632 1.53955 0
M  V30 3320 O 317.961 -0.301006 1.74422 0
M  V30 3321 C 315.09 -0.280816 3.4215 0
M  V30 3322 C 314.176 0.646803 4.19139 0
M  V30 3323 N 314.567 1.77759 4.73535 0
M  V30 3324 C 312.865 0.454617 4.43677 0
M  V30 3325 C 313.566 2.35658 5.31827 0
M  V30 3326 N 312.542 1.64333 5.18166 0
M  V30 3327 H 316.344 1.30505 2.63336 0
M  V30 3328 H 313.858 0.809904 1.40763 0
M  V30 3329 H 315.855 -0.663747 4.11582 0
M  V30 3330 H 314.515 -1.14046 3.04012 0
M  V30 3331 H 315.526 2.15949 4.7073 0
M  V30 3332 H 312.203 -0.362312 4.15925 0
M  V30 3333 H 313.593 3.30998 5.84713 0
M  V30 3334 N 316.313 -1.40141 0.720998 0
M  V30 3335 C 317.559 -2.01084 0.263231 0
M  V30 3336 C 317.892 -1.57052 -1.14229 0
M  V30 3337 O 317.167 -0.793027 -1.77599 0
M  V30 3338 C 317.45 -3.58401 0.349344 0
M  V30 3339 C 317.303 -4.12491 1.79363 0
M  V30 3340 C 318.622 -4.39231 -0.276351 0
M  V30 3341 H 315.741 -0.730572 0.0971228 0
M  V30 3342 H 318.383 -1.66543 0.914518 0
M  V30 3343 H 316.533 -3.87958 -0.205165 0
M  V30 3344 H 318.205 -3.93711 2.40394 0
M  V30 3345 H 316.448 -3.66576 2.31958 0
M  V30 3346 H 317.119 -5.21646 1.80524 0
M  V30 3347 H 319.595 -4.15637 0.196184 0
M  V30 3348 H 318.471 -5.48586 -0.185681 0
M  V30 3349 H 318.732 -4.20643 -1.36059 0
M  V30 3350 N 317.792 -0.46758 -1.50504 0
M  V30 3351 C 319.041 0.0902868 -2.01498 0
M  V30 3352 C 319.354 1.411 -1.35463 0
M  V30 3353 O 320.56 2.0536 -1.77594 0
M  V30 3354 C 319.016 0.21142 -3.59278 0
M  V30 3355 C 318.624 -1.10065 -4.34269 0
M  V30 3356 C 320.368 0.721433 -4.18325 0
M  V30 3357 C 318.275 -0.943505 -5.83825 0
M  V30 3358 H 317.205 0.037517 -0.753066 0
M  V30 3359 H 319.856 -0.601943 -1.73346 0
M  V30 3360 H 318.238 0.967352 -3.84003 0
M  V30 3361 H 319.412 -1.86726 -4.21272 0
M  V30 3362 H 317.727 -1.5415 -3.86816 0
M  V30 3363 H 320.324 0.85598 -5.27804 0
M  V30 3364 H 320.667 1.71186 -3.79475 0
M  V30 3365 H 321.2 0.0229843 -3.97793 0
M  V30 3366 H 317.939 -1.90719 -6.27141 0
M  V30 3367 H 317.459 -0.217213 -5.99407 0
M  V30 3368 H 319.138 -0.608715 -6.4413 0
M  V30 3369 N 319.27 1.56325 -0.20005 0
M  V30 3370 C 320.217 2.1932 0.718833 0
M  V30 3371 C 321.187 1.14198 1.20615 0
M  V30 3372 O 322.372 1.42469 1.26914 0
M  V30 3373 C 319.512 2.86041 1.93066 0
M  V30 3374 C 318.625 4.05702 1.48425 0
M  V30 3375 C 317.76 4.60266 2.65196 0
M  V30 3376 C 316.799 5.72273 2.17185 0
M  V30 3377 N 315.936 6.21221 3.27152 0
M  V30 3378 H 320.776 2.97486 0.17489 0
M  V30 3379 H 318.313 1.46911 0.0745794 0
M  V30 3380 H 320.271 3.22897 2.64184 0
M  V30 3381 H 318.901 2.1043 2.44783 0
M  V30 3382 H 317.953 3.74475 0.668755 0
M  V30 3383 H 319.265 4.86699 1.09204 0
M  V30 3384 H 318.419 4.99453 3.4443 0
M  V30 3385 H 317.158 3.78386 3.07693 0
M  V30 3386 H 316.163 5.3261 1.36407 0
M  V30 3387 H 317.388 6.55974 1.75713 0
M  V30 3388 H 315.334 5.42263 3.69171 0
M  V30 3389 H 315.251 6.97284 2.92116 0
M  V30 3390 H 316.519 6.65063 4.06585 0
M  V30 3391 N 320.748 -0.0735177 1.57428 0
M  V30 3392 C 321.658 -1.10547 2.06922 0
M  V30 3393 C 322.674 -1.42506 0.998402 0
M  V30 3394 O 323.85 -1.52717 1.31299 0
M  V30 3395 C 320.915 -2.40019 2.50184 0
M  V30 3396 C 319.976 -2.15046 3.71556 0
M  V30 3397 C 319.209 -3.38345 4.12745 0
M  V30 3398 O 319.432 -4.47399 3.53822 0
M  V30 3399 O 318.366 -3.2666 5.05546 0
M  V30 3400 H 322.192 -0.715013 2.95163 0
M  V30 3401 H 319.777 -0.287531 1.46607 0
M  V30 3402 H 321.659 -3.16218 2.78539 0
M  V30 3403 H 320.334 -2.78447 1.65072 0
M  V30 3404 H 319.241 -1.36558 3.48285 0
M  V30 3405 H 320.574 -1.81499 4.57514 0
M  V30 3406 N 322.226 -1.5378 -0.344866 0
M  V30 3407 C 323.454 -1.74899 -1.10534 0
M  V30 3408 C 323.869 -0.487534 -1.82397 0
M  V30 3409 O 323.226 0.540741 -1.74305 0
M  V30 3410 C 323.277 -2.92822 -2.11984 0
M  V30 3411 O 322.998 -4.14089 -1.43044 0
M  V30 3412 C 324.499 -3.25982 -3.00417 0
M  V30 3413 H 321.719 -0.584426 -0.329678 0
M  V30 3414 H 324.263 -2.006 -0.397474 0
M  V30 3415 H 322.418 -2.69457 -2.78338 0
M  V30 3416 H 322.832 -4.80272 -2.10805 0
M  V30 3417 H 324.306 -4.11848 -3.67539 0
M  V30 3418 H 324.783 -2.42228 -3.66363 0
M  V30 3419 H 325.389 -3.51349 -2.39654 0
M  V30 3420 N 323.704 0.605807 -1.45491 0
M  V30 3421 C 325.115 1.18777 -1.44045 0
M  V30 3422 C 325.466 1.95471 -0.169001 0
M  V30 3423 O 324.591 2.0374 0.729324 0
M  V30 3424 C 325.186 2.16064 -2.60963 0
M  V30 3425 C 323.745 2.69633 -2.62631 0
M  V30 3426 C 322.892 1.45072 -2.36325 0
M  V30 3427 H 325.843 0.395017 -1.53705 0
M  V30 3428 H 325.864 2.9913 -2.35163 0
M  V30 3429 H 325.376 1.60217 -3.53486 0
M  V30 3430 H 323.477 3.29414 -1.74119 0
M  V30 3431 H 323.59 3.13944 -3.61906 0
M  V30 3432 H 321.954 1.74089 -1.85917 0
M  V30 3433 H 322.737 0.910899 -3.30995 0
M  V30 3434 N 325.182 1.32811 0.848464 0
M  V30 3435 C 326.129 1.22265 1.95755 0
M  V30 3436 C 327.099 0.103413 1.65778 0
M  V30 3437 O 328.284 0.280033 1.88734 0
M  V30 3438 C 325.424 0.958014 3.31536 0
M  V30 3439 C 324.537 2.16262 3.73971 0
M  V30 3440 C 323.672 1.83295 4.98575 0
M  V30 3441 C 322.711 3.00041 5.33518 0
M  V30 3442 N 321.848 2.67125 6.49299 0
M  V30 3443 H 326.688 2.17128 2.04107 0
M  V30 3444 H 324.225 1.07982 0.998913 0
M  V30 3445 H 326.183 0.785052 4.09747 0
M  V30 3446 H 324.813 0.046159 3.22767 0
M  V30 3447 H 323.865 2.44565 2.91362 0
M  V30 3448 H 325.177 3.03572 3.95785 0
M  V30 3449 H 324.331 1.62586 5.84509 0
M  V30 3450 H 323.07 0.932078 4.7871 0
M  V30 3451 H 322.075 3.21374 4.46093 0
M  V30 3452 H 323.3 3.90869 5.55336 0
M  V30 3453 H 321.246 1.79586 6.3094 0
M  V30 3454 H 321.163 3.47965 6.71161 0
M  V30 3455 H 322.431 2.49861 7.3837 0
M  V30 3456 N 326.66 -1.06551 1.16123 0
M  V30 3457 C 327.909 -1.78687 0.935622 0
M  V30 3458 C 328.222 -1.88056 -0.538001 0
M  V30 3459 O 329.428 -2.56794 -0.88143 0
M  V30 3460 C 327.884 -3.21143 1.62466 0
M  V30 3461 C 327.492 -3.19949 3.13587 0
M  V30 3462 C 329.236 -3.9783 1.48092 0
M  V30 3463 C 327.143 -4.57108 3.75241 0
M  V30 3464 H 326.073 -0.669712 0.346412 0
M  V30 3465 H 328.724 -1.19534 1.39226 0
M  V30 3466 H 327.106 -3.80539 1.09572 0
M  V30 3467 H 328.28 -2.70151 3.73303 0
M  V30 3468 H 326.595 -2.5676 3.27816 0
M  V30 3469 H 329.192 -4.99217 1.91538 0
M  V30 3470 H 329.535 -4.14078 0.429507 0
M  V30 3471 H 330.068 -3.4495 1.98127 0
M  V30 3472 H 326.807 -4.46065 4.80319 0
M  V30 3473 H 326.327 -5.07111 3.20309 0
M  V30 3474 H 328.006 -5.26069 3.76644 0
M  V30 3475 N 328.138 -0.959301 -1.25041 0
M  V30 3476 C 329.068 -0.501388 -2.28053 0
M  V30 3477 C 330.049 0.454673 -1.63911 0
M  V30 3478 O 331.234 0.352618 -1.90972 0
M  V30 3479 C 328.364 0.217224 -3.4662 0
M  V30 3480 C 327.318 -0.654034 -4.22973 0
M  V30 3481 C 326.644 0.195589 -5.34342 0
M  V30 3482 C 327.944 -1.93447 -4.85155 0
M  V30 3483 H 329.638 -1.36238 -2.66608 0
M  V30 3484 H 327.184 -0.656534 -1.28163 0
M  V30 3485 H 329.137 0.548732 -4.17812 0
M  V30 3486 H 327.861 1.1125 -3.07068 0
M  V30 3487 H 326.52 -0.968693 -3.5357 0
M  V30 3488 H 326.168 1.09076 -4.91031 0
M  V30 3489 H 325.868 -0.384091 -5.86343 0
M  V30 3490 H 327.392 0.521958 -6.08365 0
M  V30 3491 H 328.806 -1.66908 -5.48466 0
M  V30 3492 H 327.203 -2.46018 -5.47353 0
M  V30 3493 H 328.273 -2.63466 -4.07079 0
M  V30 3494 N 329.616 1.39756 -0.72842 0
M  V30 3495 C 330.893 1.94574 -0.200079 0
M  V30 3496 C 331.273 1.66569 1.29684 0
M  V30 3497 O 330.621 0.990326 2.05924 0
M  V30 3498 C 330.831 3.45004 -0.526608 0
M  V30 3499 C 332.179 4.21965 -0.472318 0
M  V30 3500 O 333.203 3.53173 -0.463413 0
M  V30 3501 O 332.062 5.44552 -0.461075 0
M  V30 3502 H 329.156 0.826289 -0.0342851 0
M  V30 3503 H 331.702 1.49293 -0.806829 0
M  V30 3504 H 330.474 3.58796 -1.56144 0
M  V30 3505 H 330.097 3.97449 0.109449 0
M  V30 3506 N 331.094 0.475555 1.50254 0
M  V30 3507 C 332.341 -0.0778919 2.0235 0
M  V30 3508 C 332.669 -1.39319 1.35722 0
M  V30 3509 O 331.924 -1.89888 0.473395 0
M  V30 3510 C 332.223 -0.305114 3.56095 0
M  V30 3511 C 331.889 0.92903 4.41225 0
M  V30 3512 C 330.551 1.26739 4.6421 0
M  V30 3513 C 332.903 1.75054 4.90923 0
M  V30 3514 C 330.231 2.42724 5.34137 0
M  V30 3515 C 332.583 2.9017 5.62125 0
M  V30 3516 C 331.247 3.24416 5.83362 0
M  V30 3517 H 330.517 -0.0285027 0.740452 0
M  V30 3518 H 333.164 0.630543 1.80821 0
M  V30 3519 H 331.469 -1.09584 3.76163 0
M  V30 3520 H 333.166 -0.747377 3.93974 0
M  V30 3521 H 329.756 0.655428 4.23559 0
M  V30 3522 H 333.94 1.50231 4.73016 0
M  V30 3523 H 329.196 2.69525 5.48786 0
M  V30 3524 H 333.37 3.54169 5.99614 0
M  V30 3525 H 330.997 4.14396 6.37323 0
M  V30 3526 N 332.573 -1.56217 0.208337 0
M  V30 3527 C 333.801 -2.02337 -0.43215 0
M  V30 3528 C 334.216 -1.08834 -1.54275 0
M  V30 3529 O 333.573 -0.0955462 -1.8225 0
M  V30 3530 C 333.624 -3.48072 -0.976138 0
M  V30 3531 O 333.345 -4.38007 0.0901621 0
M  V30 3532 C 334.846 -4.09773 -1.69119 0
M  V30 3533 H 332.066 -0.662385 -0.10718 0
M  V30 3534 H 334.61 -2.01966 0.320923 0
M  V30 3535 H 332.765 -3.49099 -1.67954 0
M  V30 3536 H 333.179 -5.23543 -0.316701 0
M  V30 3537 H 334.653 -5.13556 -2.02397 0
M  V30 3538 H 335.13 -3.53999 -2.59964 0
M  V30 3539 H 335.736 -4.12556 -1.03332 0
M  V30 3540 N 334.051 0.0651679 -1.57465 0
M  V30 3541 C 334.998 1.07675 -2.04144 0
M  V30 3542 C 335.968 1.38071 -0.923335 0
M  V30 3543 O 337.153 1.49026 -1.19146 0
M  V30 3544 C 334.293 2.38337 -2.49579 0
M  V30 3545 C 333.406 2.14413 -3.75035 0
M  V30 3546 C 332.541 3.38686 -4.09225 0
M  V30 3547 C 331.58 3.10156 -5.27702 0
M  V30 3548 N 330.717 4.26778 -5.57499 0
M  V30 3549 H 335.557 0.671716 -2.90331 0
M  V30 3550 H 333.094 0.3201 -1.43575 0
M  V30 3551 H 335.052 3.14632 -2.73975 0
M  V30 3552 H 333.682 2.7663 -1.6636 0
M  V30 3553 H 332.734 1.2878 -3.57939 0
M  V30 3554 H 334.046 1.89344 -4.61466 0
M  V30 3555 H 333.2 4.23373 -4.34558 0
M  V30 3556 H 331.939 3.66837 -3.21374 0
M  V30 3557 H 330.944 2.23866 -5.02159 0
M  V30 3558 H 332.169 2.8332 -6.17176 0
M  V30 3559 H 330.115 4.54948 -4.72608 0
M  V30 3560 H 330.032 4.05005 -6.38362 0
M  V30 3561 H 331.3 5.12443 -5.87386 0
M  V30 3562 N 335.529 1.53961 0.336706 0
M  V30 3563 C 336.461 1.78751 1.4346 0
M  V30 3564 C 337.474 0.669019 1.48418 0
M  V30 3565 O 338.663 0.945884 1.51378 0
M  V30 3566 C 335.763 1.87844 2.82078 0
M  V30 3567 C 334.936 3.17854 3.00479 0
M  V30 3568 C 333.995 3.17816 4.19379 0
M  V30 3569 O 333.021 3.91511 4.13168 0
M  V30 3570 N 334.223 2.40669 5.2826 0
M  V30 3571 H 336.988 2.73493 1.22563 0
M  V30 3572 H 334.549 1.53096 0.526625 0
M  V30 3573 H 336.541 1.85261 3.59806 0
M  V30 3574 H 335.111 1.00257 2.96086 0
M  V30 3575 H 334.331 3.33504 2.10163 0
M  V30 3576 H 335.619 4.03718 3.0966 0
M  V30 3577 H 335.017 1.8036 5.36178 0
M  V30 3578 H 333.574 2.43877 6.04456 0
M  V30 3579 N 337.007 -0.598083 1.45811 0
M  V30 3580 C 337.937 -1.71873 1.58057 0
M  V30 3581 C 338.918 -1.64533 0.431615 0
M  V30 3582 O 340.103 -1.82787 0.65595 0
M  V30 3583 C 337.233 -3.10495 1.55597 0
M  V30 3584 C 336.187 -3.32654 2.69305 0
M  V30 3585 C 335.513 -4.71646 2.51902 0
M  V30 3586 C 336.813 -3.21981 4.11248 0
M  V30 3587 H 338.507 -1.61881 2.51863 0
M  V30 3588 H 336.053 -0.777372 1.21214 0
M  V30 3589 H 338.006 -3.88699 1.6276 0
M  V30 3590 H 336.73 -3.2135 0.583255 0
M  V30 3591 H 335.389 -2.56843 2.61586 0
M  V30 3592 H 335.037 -4.79246 1.52748 0
M  V30 3593 H 334.737 -4.87426 3.2816 0
M  V30 3594 H 336.261 -5.52038 2.60933 0
M  V30 3595 H 337.675 -3.90049 4.20161 0
M  V30 3596 H 336.072 -3.49289 4.87972 0
M  V30 3597 H 337.142 -2.1928 4.32486 0
M  V30 3598 N 338.485 -1.33259 -0.841409 0
M  V30 3599 C 339.448 -1.23221 -1.9326 0
M  V30 3600 C 340.448 -0.151895 -1.60081 0
M  V30 3601 O 341.638 -0.403246 -1.69468 0
M  V30 3602 C 338.77 -0.898123 -3.28856 0
M  V30 3603 H 339.963 -2.2021 -2.03587 0
M  V30 3604 H 337.516 -1.17281 -1.03319 0
M  V30 3605 H 338.251 0.0693841 -3.24226 0
M  V30 3606 H 338.036 -1.67934 -3.54317 0
M  V30 3607 H 339.526 -0.852563 -4.08805 0
M  V30 3608 N 339.963 1.05934 -1.16686 0
M  V30 3609 C 341.374 1.60263 -0.957745 0
M  V30 3610 C 341.725 1.89789 0.49745 0
M  V30 3611 O 340.85 1.67401 1.37135 0
M  V30 3612 C 341.445 2.91172 -1.73218 0
M  V30 3613 C 340.004 3.42188 -1.56794 0
M  V30 3614 C 339.151 2.16028 -1.73859 0
M  V30 3615 H 342.102 0.888392 -1.31504 0
M  V30 3616 H 342.123 3.60744 -1.21014 0
M  V30 3617 H 341.635 2.6965 -2.79124 0
M  V30 3618 H 339.736 3.68762 -0.533437 0
M  V30 3619 H 339.849 4.17273 -2.35414 0
M  V30 3620 H 338.213 2.26426 -1.16633 0
M  V30 3621 H 338.996 1.96985 -2.81161 0
M  V30 3622 N 341.441 0.965919 1.2453 0
M  V30 3623 C 342.669 0.644385 1.96609 0
M  V30 3624 C 343.084 -0.785823 1.71669 0
M  V30 3625 O 342.441 -1.52703 0.999399 0
M  V30 3626 C 342.492 0.907375 3.49927 0
M  V30 3627 O 342.213 2.28136 3.74013 0
M  V30 3628 C 343.714 0.599784 4.39224 0
M  V30 3629 H 340.934 0.240588 0.626385 0
M  V30 3630 H 343.478 1.29337 1.58405 0
M  V30 3631 H 341.633 0.304631 3.862 0
M  V30 3632 H 342.047 2.36002 4.68405 0
M  V30 3633 H 343.521 0.834263 5.45659 0
M  V30 3634 H 343.998 -0.465921 4.36722 0
M  V30 3635 H 344.604 1.18235 4.08535 0
M  V30 3636 N 342.919 -1.39368 0.735821 0
M  V30 3637 C 344.147 -2.04795 0.294393 0
M  V30 3638 C 344.562 -1.55478 -1.07107 0
M  V30 3639 O 343.919 -0.720038 -1.67695 0
M  V30 3640 C 343.97 -3.6035 0.288071 0
M  V30 3641 O 343.691 -4.07852 1.59963 0
M  V30 3642 C 345.192 -4.42976 -0.169422 0
M  V30 3643 H 342.412 -0.658571 0.128551 0
M  V30 3644 H 344.956 -1.78399 0.999701 0
M  V30 3645 H 343.111 -3.85645 -0.368355 0
M  V30 3646 H 343.525 -5.02181 1.51375 0
M  V30 3647 H 344.999 -5.51864 -0.122687 0
M  V30 3648 H 345.476 -4.22068 -1.21472 0
M  V30 3649 H 346.082 -4.22832 0.457469 0
M  V30 3650 N 344.397 -0.483516 -1.5 0
M  V30 3651 C 345.327 0.293829 -2.31644 0
M  V30 3652 C 346.308 0.978864 -1.39112 0
M  V30 3653 O 347.493 0.973644 -1.68029 0
M  V30 3654 C 344.623 1.36897 -3.19181 0
M  V30 3655 C 343.577 0.804833 -4.20365 0
M  V30 3656 C 342.903 1.9792 -4.96721 0
M  V30 3657 C 344.203 -0.192313 -5.21946 0
M  V30 3658 H 345.897 -0.387616 -2.9688 0
M  V30 3659 H 343.443 -0.187856 -1.42769 0
M  V30 3660 H 345.396 1.92037 -3.751 0
M  V30 3661 H 344.12 2.07936 -2.51853 0
M  V30 3662 H 342.779 0.275319 -3.65565 0
M  V30 3663 H 342.427 2.67686 -4.25856 0
M  V30 3664 H 342.127 1.60789 -5.65173 0
M  V30 3665 H 343.651 2.53526 -5.55479 0
M  V30 3666 H 345.065 0.270333 -5.72662 0
M  V30 3667 H 343.462 -0.478543 -5.98189 0
M  V30 3668 H 344.532 -1.11409 -4.71928 0
M  V30 3669 N 345.875 1.56104 -0.216619 0
M  V30 3670 C 346.838 2.18819 0.681962 0
M  V30 3671 C 347.838 1.14866 1.12528 0
M  V30 3672 O 349.028 1.40128 1.03488 0
M  V30 3673 C 346.16 2.80756 1.93362 0
M  V30 3674 H 347.353 2.99595 0.135254 0
M  V30 3675 H 344.906 1.56265 0.0330003 0
M  V30 3676 H 345.641 2.03837 2.52232 0
M  V30 3677 H 345.426 3.56876 1.62426 0
M  V30 3678 H 346.916 3.28844 2.57393 0
M  V30 3679 N 347.353 -0.0568162 1.57498 0
M  V30 3680 C 348.599 -0.75422 1.88253 0
M  V30 3681 C 348.932 -1.76461 0.810865 0
M  V30 3682 O 348.207 -1.93691 -0.177259 0
M  V30 3683 C 348.49 -1.44878 3.2967 0
M  V30 3684 C 348.343 -0.453789 4.47505 0
M  V30 3685 C 349.662 -2.38994 3.69554 0
M  V30 3686 H 346.781 -0.272724 0.684683 0
M  V30 3687 H 349.423 -0.0172113 1.89992 0
M  V30 3688 H 347.573 -2.077 3.28318 0
M  V30 3689 H 349.245 0.170371 4.60985 0
M  V30 3690 H 347.488 0.229552 4.33192 0
M  V30 3691 H 348.159 -0.977699 5.43273 0
M  V30 3692 H 350.635 -1.86239 3.72095 0
M  V30 3693 H 349.511 -2.84587 4.69363 0
M  V30 3694 H 349.772 -3.24461 3.00296 0
M  V30 3695 N 348.832 -1.54138 -0.328536 0
M  V30 3696 C 350.06 -1.76062 -1.08673 0
M  V30 3697 C 350.475 -0.506852 -1.81869 0
M  V30 3698 O 349.832 0.522223 -1.74869 0
M  V30 3699 C 349.883 -2.95054 -2.08866 0
M  V30 3700 O 349.604 -4.15583 -1.38644 0
M  V30 3701 C 351.105 -3.2915 -2.96943 0
M  V30 3702 H 348.325 -0.587889 -0.323461 0
M  V30 3703 H 350.869 -2.0101 -0.376175 0
M  V30 3704 H 349.024 -2.72394 -2.75464 0
M  V30 3705 H 349.438 -4.82481 -2.05699 0
M  V30 3706 H 350.912 -4.15723 -3.63151 0
M  V30 3707 H 351.389 -2.461 -3.63774 0
M  V30 3708 H 351.995 -3.53871 -2.35914 0
M  V30 3709 N 350.31 0.590341 -1.46126 0
M  V30 3710 C 351.54 1.37304 -1.54373 0
M  V30 3711 C 351.948 1.88332 -0.181071 0
M  V30 3712 O 351.291 1.63852 0.830559 0
M  V30 3713 C 351.353 2.6012 -2.48149 0
M  V30 3714 C 351.017 2.30613 -3.94546 0
M  V30 3715 C 352.014 1.89915 -4.83971 0
M  V30 3716 C 349.699 2.42993 -4.39613 0
M  V30 3717 C 351.693 1.61981 -6.16475 0
M  V30 3718 C 349.38 2.14672 -5.72153 0
M  V30 3719 C 350.378 1.7423 -6.60404 0
M  V30 3720 O 350.066 1.46251 -7.90485 0
M  V30 3721 H 349.798 0.426086 -0.524811 0
M  V30 3722 H 352.352 0.72539 -1.92165 0
M  V30 3723 H 350.582 3.27664 -2.05361 0
M  V30 3724 H 352.271 3.22182 -2.46887 0
M  V30 3725 H 353.037 1.79872 -4.50412 0
M  V30 3726 H 348.916 2.73435 -3.71153 0
M  V30 3727 H 352.46 1.30341 -6.85315 0
M  V30 3728 H 348.357 2.24337 -6.05263 0
M  V30 3729 H 349.125 1.6016 -8.02677 0
M  V30 3730 N 351.788 1.33704 0.83433 0
M  V30 3731 C 353.018 1.28281 1.6195 0
M  V30 3732 C 353.426 -0.147603 1.88623 0
M  V30 3733 O 352.769 -1.1016 1.47005 0
M  V30 3734 C 352.831 1.99386 2.99141 0
M  V30 3735 C 352.495 3.48681 2.95416 0
M  V30 3736 C 353.492 4.438 2.70809 0
M  V30 3737 C 351.177 3.90925 3.15409 0
M  V30 3738 C 353.171 5.79138 2.66229 0
M  V30 3739 C 350.858 5.26366 3.10454 0
M  V30 3740 C 351.856 6.20284 2.85895 0
M  V30 3741 O 351.544 7.53245 2.80852 0
M  V30 3742 H 351.276 0.44315 0.510484 0
M  V30 3743 H 353.83 1.76711 1.04702 0
M  V30 3744 H 352.06 1.45554 3.58261 0
M  V30 3745 H 353.749 1.87403 3.60049 0
M  V30 3746 H 354.515 4.12485 2.5511 0
M  V30 3747 H 350.394 3.18229 3.33543 0
M  V30 3748 H 353.938 6.52416 2.4698 0
M  V30 3749 H 349.835 5.57304 3.25703 0
M  V30 3750 H 350.603 7.62846 2.96661 0
M  V30 3751 N 353.266 -1.05314 1.17247 0
M  V30 3752 C 354.494 -1.81971 0.984593 0
M  V30 3753 C 354.909 -1.82929 -0.467166 0
M  V30 3754 O 354.266 -1.25564 -1.32438 0
M  V30 3755 C 354.317 -3.28143 1.51672 0
M  V30 3756 O 354.038 -3.27347 2.91163 0
M  V30 3757 C 355.539 -4.21493 1.37326 0
M  V30 3758 H 352.759 -0.573455 0.348411 0
M  V30 3759 H 355.303 -1.32808 1.55506 0
M  V30 3760 H 353.458 -3.74582 0.988302 0
M  V30 3761 H 353.872 -4.18824 3.15732 0
M  V30 3762 H 355.346 -5.22043 1.79375 0
M  V30 3763 H 355.823 -4.38031 0.320169 0
M  V30 3764 H 356.429 -3.80909 1.89178 0
M  V30 3765 N 354.744 -0.972509 -1.24016 0
M  V30 3766 C 355.991 -0.637034 -1.92219 0
M  V30 3767 C 356.319 0.828418 -1.75976 0
M  V30 3768 O 355.574 1.61206 -1.10955 0
M  V30 3769 C 355.873 -0.963694 -3.44162 0
M  V30 3770 C 355.539 -2.41807 -3.80579 0
M  V30 3771 C 354.201 -2.81556 -3.9023 0
M  V30 3772 C 356.553 -3.36172 -3.98293 0
M  V30 3773 C 353.881 -4.14702 -4.15017 0
M  V30 3774 C 356.233 -4.68952 -4.24578 0
M  V30 3775 C 354.897 -5.08472 -4.32449 0
M  V30 3776 H 354.167 -0.233107 -0.703379 0
M  V30 3777 H 356.814 -1.2249 -1.47202 0
M  V30 3778 H 355.119 -0.29365 -3.90698 0
M  V30 3779 H 356.816 -0.682449 -3.9515 0
M  V30 3780 H 353.406 -2.09988 -3.73635 0
M  V30 3781 H 357.59 -3.06644 -3.90234 0
M  V30 3782 H 352.846 -4.4494 -4.19331 0
M  V30 3783 H 357.02 -5.42037 -4.37229 0
M  V30 3784 H 354.647 -6.11665 -4.51409 0
M  V30 3785 N 356.222 1.38976 -0.743202 0
M  V30 3786 C 357.17 2.32394 -0.0978389 0
M  V30 3787 C 358.164 1.53486 0.716824 0
M  V30 3788 O 359.37 1.69092 0.617088 0
M  V30 3789 H 355.745 0.75189 -0.0128402 0
M  V30 3790 H 357.716 2.84441 -0.901981 0
M  V30 3791 C 356.465 3.38629 0.789036 0
M  V30 3792 H 355.788 3.99432 0.171559 0
M  V30 3793 H 357.228 4.06426 1.20807 0
M  V30 3794 C 355.687 2.76347 1.92702 0
M  V30 3795 O 356.217 2.64836 3.02034 0
M  V30 3796 N 354.423 2.34311 1.71891 0
M  V30 3797 H 353.97 2.43873 0.829675 0
M  V30 3798 H 353.928 1.9298 2.48205 0
M  V30 3799 N 357.7 0.491464 1.49741 0
M  V30 3800 C 358.947 -0.0564256 2.02421 0
M  V30 3801 C 359.275 -1.37872 1.37192 0
M  V30 3802 O 358.53 -1.89375 0.493508 0
M  V30 3803 C 358.829 -0.267329 3.56399 0
M  V30 3804 C 358.495 0.975775 4.40215 0
M  V30 3805 C 357.157 1.31655 4.62839 0
M  V30 3806 C 359.509 1.80251 4.89039 0
M  V30 3807 C 356.837 2.48375 5.31532 0
M  V30 3808 C 359.189 2.96116 5.59015 0
M  V30 3809 C 357.853 3.30585 5.79888 0
M  V30 3810 H 357.123 -0.0206476 0.740712 0
M  V30 3811 H 359.77 0.649686 1.80143 0
M  V30 3812 H 358.075 -1.05588 3.77304 0
M  V30 3813 H 359.772 -0.705549 3.94744 0
M  V30 3814 H 356.362 0.700315 4.2284 0
M  V30 3815 H 360.546 1.55239 4.71396 0
M  V30 3816 H 355.802 2.7533 5.45897 0
M  V30 3817 H 359.976 3.60509 5.95824 0
M  V30 3818 H 357.603 4.21132 6.32892 0
M  V30 3819 N 359.178 -1.55987 0.224894 0
M  V30 3820 C 360.403 -2.03232 -0.41369 0
M  V30 3821 C 360.828 -1.10359 -1.52323 0
M  V30 3822 O 360.186 -0.092395 -1.81064 0
M  V30 3823 C 360.234 -3.48682 -0.919405 0
M  V30 3824 O 359.338 -3.58947 -2.03054 0
M  V30 3825 H 358.679 -0.657428 -0.0931903 0
M  V30 3826 H 361.209 -2.01679 0.34451 0
M  V30 3827 H 361.219 -3.8907 -1.22835 0
M  V30 3828 H 359.894 -4.15761 -0.107339 0
M  V30 3829 H 358.471 -3.30448 -1.72796 0
M  V30 3830 N 360.656 0.0484629 -1.57525 0
M  V30 3831 C 361.586 1.0549 -2.08313 0
M  V30 3832 C 362.567 1.38929 -0.981463 0
M  V30 3833 O 363.752 1.48151 -1.25558 0
M  V30 3834 C 360.882 2.36162 -2.54646 0
M  V30 3835 C 359.836 2.17016 -3.68901 0
M  V30 3836 C 359.162 3.53278 -4.01371 0
M  V30 3837 C 360.462 1.57219 -4.98076 0
M  V30 3838 H 362.156 0.632195 -2.92649 0
M  V30 3839 H 359.702 0.302654 -1.40784 0
M  V30 3840 H 361.655 3.06882 -2.88793 0
M  V30 3841 H 360.379 2.80456 -1.67368 0
M  V30 3842 H 359.038 1.48733 -3.35073 0
M  V30 3843 H 358.686 3.95185 -3.11188 0
M  V30 3844 H 358.386 3.41299 -4.78318 0
M  V30 3845 H 359.91 4.25391 -4.38035 0
M  V30 3846 H 361.324 2.17832 -5.30304 0
M  V30 3847 H 359.721 1.55871 -5.79503 0
M  V30 3848 H 360.791 0.535956 -4.81929 0
M  V30 3849 N 362.134 1.5431 0.320358 0
M  V30 3850 C 363.044 1.86946 1.41734 0
M  V30 3851 C 364.06 0.761689 1.56443 0
M  V30 3852 O 365.236 1.05629 1.71477 0
M  V30 3853 C 362.301 2.09293 2.76401 0
M  V30 3854 C 361.362 3.33082 2.70841 0
M  V30 3855 C 360.595 3.54353 3.99086 0
M  V30 3856 O 360.818 2.79002 4.97508 0
M  V30 3857 O 359.752 4.47838 4.0215 0
M  V30 3858 H 363.578 2.80232 1.17062 0
M  V30 3859 H 361.163 1.40255 0.514673 0
M  V30 3860 H 363.045 2.25303 3.56113 0
M  V30 3861 H 361.72 1.19194 3.00956 0
M  V30 3862 H 360.627 3.22454 1.89668 0
M  V30 3863 H 361.96 4.23249 2.5124 0
M  V30 3864 N 363.613 -0.582584 1.46437 0
M  V30 3865 C 364.861 -1.33814 1.51453 0
M  V30 3866 C 365.182 -1.94277 0.167792 0
M  V30 3867 O 364.452 -1.78566 -0.805677 0
M  V30 3868 H 363.032 -0.496838 0.557818 0
M  V30 3869 H 365.694 -0.682281 1.82568 0
M  V30 3870 H 364.79 -2.14479 2.26728 0
M  V30 3871 N 365.091 -1.34144 -0.827227 0
M  V30 3872 C 366.054 -1.25264 -1.91942 0
M  V30 3873 C 367.054 -0.168866 -1.59911 0
M  V30 3874 O 368.244 -0.421198 -1.69031 0
M  V30 3875 C 365.376 -0.932952 -3.27885 0
M  V30 3876 H 366.569 -2.22357 -2.0124 0
M  V30 3877 H 364.122 -1.1837 -1.0207 0
M  V30 3878 H 364.857 0.0349917 -3.24281 0
M  V30 3879 H 364.642 -1.71682 -3.52516 0
M  V30 3880 H 366.132 -0.895874 -4.07877 0
M  V30 3881 N 366.569 1.04691 -1.17803 0
M  V30 3882 C 367.516 2.12557 -0.899343 0
M  V30 3883 C 368.486 1.65339 0.158771 0
M  V30 3884 O 369.671 1.90789 0.0204797 0
M  V30 3885 C 366.811 3.42481 -0.424315 0
M  V30 3886 C 365.924 4.03346 -1.54713 0
M  V30 3887 C 365.059 5.21208 -1.02546 0
M  V30 3888 C 364.098 5.74089 -2.12339 0
M  V30 3889 N 363.235 6.83247 -1.61612 0
M  V30 3890 H 368.075 2.35734 -1.823 0
M  V30 3891 H 365.612 1.1564 -0.909159 0
M  V30 3892 H 367.57 4.16996 -0.130421 0
M  V30 3893 H 366.2 3.19471 0.462377 0
M  V30 3894 H 365.252 3.2622 -1.95664 0
M  V30 3895 H 366.564 4.38628 -2.37501 0
M  V30 3896 H 365.718 6.02812 -0.685718 0
M  V30 3897 H 364.457 4.87414 -0.167084 0
M  V30 3898 H 363.462 4.91111 -2.47165 0
M  V30 3899 H 364.687 6.0993 -2.98601 0
M  V30 3900 H 362.633 6.5134 -0.780533 0
M  V30 3901 H 362.55 7.17559 -2.38003 0
M  V30 3902 H 363.818 7.68491 -1.30545 0
M  V30 3903 N 368.047 0.979072 1.23499 0
M  V30 3904 C 368.98 0.463027 2.23453 0
M  V30 3905 C 369.958 -0.469128 1.55685 0
M  V30 3906 O 371.142 -0.397882 1.84253 0
M  V30 3907 C 368.269 -0.330308 3.37086 0
M  V30 3908 C 367.315 0.545795 4.22993 0
M  V30 3909 S 368.148 1.99285 4.97037 0
M  V30 3910 C 369.304 1.20862 6.1412 0
M  V30 3911 H 369.537 1.31005 2.6688 0
M  V30 3912 H 367.07 0.784965 1.32957 0
M  V30 3913 H 369.028 -0.782027 4.02982 0
M  V30 3914 H 367.689 -1.15244 2.92194 0
M  V30 3915 H 366.882 -0.0638928 5.03959 0
M  V30 3916 H 366.484 0.933705 3.62157 0
M  V30 3917 H 368.776 0.469284 6.75873 0
M  V30 3918 H 369.719 1.99307 6.79472 0
M  V30 3919 H 370.127 0.727992 5.59786 0
M  V30 3920 N 369.525 -1.3858 0.750561 0
M  V30 3921 C 370.75 -2.04997 0.314812 0
M  V30 3922 C 371.175 -1.56235 -1.04749 0
M  V30 3923 O 370.533 -0.712981 -1.66692 0
M  V30 3924 C 370.581 -3.58961 0.343415 0
M  V30 3925 O 369.685 -4.07025 -0.663628 0
M  V30 3926 H 369.026 -0.649081 0.139962 0
M  V30 3927 H 371.556 -1.77313 1.02084 0
M  V30 3928 H 371.566 -4.07542 0.193233 0
M  V30 3929 H 370.241 -3.93811 1.33738 0
M  V30 3930 H 368.818 -3.6982 -0.478307 0
M  V30 3931 N 371.003 -0.499398 -1.49478 0
M  V30 3932 C 371.933 0.269244 -2.31943 0
M  V30 3933 C 372.914 0.964054 -1.40143 0
M  V30 3934 O 374.099 0.955767 -1.69052 0
M  V30 3935 C 371.229 1.33504 -3.20615 0
M  V30 3936 C 370.183 0.760202 -4.21195 0
M  V30 3937 C 369.509 1.9264 -4.98792 0
M  V30 3938 C 370.809 -0.247661 -5.21712 0
M  V30 3939 H 372.503 -0.419082 -2.96452 0
M  V30 3940 H 370.049 -0.202988 -1.42562 0
M  V30 3941 H 372.002 1.88048 -3.77115 0
M  V30 3942 H 370.726 2.05253 -2.54045 0
M  V30 3943 H 369.385 0.23653 -3.65836 0
M  V30 3944 H 369.033 2.63154 -4.28671 0
M  V30 3945 H 368.733 1.54785 -5.66847 0
M  V30 3946 H 370.257 2.4762 -5.58137 0
M  V30 3947 H 371.671 0.209579 -5.72917 0
M  V30 3948 H 370.068 -0.541962 -5.97648 0
M  V30 3949 H 371.138 -1.16409 -4.7072 0
M  V30 3950 N 372.481 1.55866 -0.233164 0
M  V30 3951 C 373.892 1.847 0.272554 0
M  V30 3952 C 374.243 1.15477 1.58617 0
M  V30 3953 O 373.368 0.42841 2.12117 0
M  V30 3954 C 373.963 3.35071 0.501299 0
M  V30 3955 C 372.522 3.6418 0.951304 0
M  V30 3956 C 371.669 2.77292 0.0208209 0
M  V30 3957 H 374.62 1.52005 -0.456074 0
M  V30 3958 H 374.641 3.55906 1.34577 0
M  V30 3959 H 374.153 3.85424 -0.454936 0
M  V30 3960 H 372.254 3.19293 1.92049 0
M  V30 3961 H 372.367 4.72071 0.817675 0
M  V30 3962 H 370.731 2.49131 0.529723 0
M  V30 3963 H 371.514 3.30448 -0.93054 0
M  V30 3964 N 373.959 -0.0401083 1.57549 0
M  V30 3965 C 375.207 -0.731677 1.8839 0
M  V30 3966 C 375.528 -1.76481 0.829425 0
M  V30 3967 O 374.798 -1.95411 -0.1383 0
M  V30 3968 H 373.378 -0.273225 0.695239 0
M  V30 3969 H 376.04 -0.00867725 1.94898 0
M  V30 3970 H 375.136 -1.22816 2.86919 0
M  V30 3971 N 375.437 -1.54477 -0.31217 0
M  V30 3972 C 376.665 -1.77205 -1.068 0
M  V30 3973 C 377.08 -0.526114 -1.81321 0
M  V30 3974 O 376.437 0.503647 -1.75413 0
M  V30 3975 C 376.488 -2.97253 -2.05725 0
M  V30 3976 O 376.209 -4.1703 -1.34228 0
M  V30 3977 C 377.71 -3.32281 -2.93435 0
M  V30 3978 H 374.93 -0.591287 -0.317208 0
M  V30 3979 H 377.474 -2.01398 -0.354834 0
M  V30 3980 H 375.629 -2.753 -2.72559 0
M  V30 3981 H 376.043 -4.84636 -2.00571 0
M  V30 3982 H 377.517 -4.19551 -3.58721 0
M  V30 3983 H 377.994 -2.49945 -3.61143 0
M  V30 3984 H 378.6 -3.56353 -2.32147 0
M  V30 3985 N 376.915 0.57481 -1.46744 0
M  V30 3986 C 378.192 1.3352 -1.4294 0
M  V30 3987 C 378.572 2.10775 -0.117009 0
M  V30 3988 O 377.92 2.09966 0.901474 0
M  V30 3989 C 378.13 2.25456 -2.66403 0
M  V30 3990 C 379.478 2.87035 -3.12883 0
M  V30 3991 O 380.502 2.35766 -2.67007 0
M  V30 3992 O 379.361 3.80179 -3.92589 0
M  V30 3993 H 376.455 0.600318 -0.568812 0
M  V30 3994 H 379.001 0.595171 -1.58921 0
M  V30 3995 H 377.773 1.67851 -3.53471 0
M  V30 3996 H 377.396 3.06785 -2.52921 0
M  V30 3997 N 378.394 1.34581 0.820102 0
M  V30 3998 C 379.642 1.26845 1.57336 0
M  V30 3999 C 379.963 -0.160667 1.94337 0
M  V30 4000 O 379.233 -1.09396 1.6251 0
M  V30 4001 H 377.813 0.466514 0.583415 0
M  V30 4002 H 380.475 1.68526 0.979027 0
M  V30 4003 H 379.571 1.87513 2.4949 0
M  V30 4004 N 379.872 -1.04064 1.18357 0
M  V30 4005 C 380.802 -2.14001 0.934113 0
M  V30 4006 C 381.783 -1.69616 -0.128186 0
M  V30 4007 O 382.968 -1.94185 0.0244093 0
M  V30 4008 C 380.098 -3.44253 0.459066 0
M  V30 4009 C 379.052 -4.02261 1.46185 0
M  V30 4010 C 378.378 -5.27992 0.844322 0
M  V30 4011 C 379.678 -4.38432 2.83856 0
M  V30 4012 H 381.372 -2.35127 1.85352 0
M  V30 4013 H 378.918 -1.12998 0.892604 0
M  V30 4014 H 380.871 -4.20522 0.271907 0
M  V30 4015 H 379.595 -3.22813 -0.495912 0
M  V30 4016 H 378.254 -3.28074 1.63595 0
M  V30 4017 H 377.902 -5.02862 -0.117845 0
M  V30 4018 H 377.602 -5.67765 1.51384 0
M  V30 4019 H 379.126 -6.06938 0.667693 0
M  V30 4020 H 380.54 -5.05688 2.70098 0
M  V30 4021 H 378.937 -4.89254 3.47491 0
M  V30 4022 H 380.007 -3.4826 3.37406 0
M  V30 4023 N 381.35 -0.985608 -1.22978 0
M  V30 4024 C 382.297 -0.529825 -2.24636 0
M  V30 4025 C 383.267 0.434028 -1.60329 0
M  V30 4026 O 384.452 0.340414 -1.87739 0
M  V30 4027 C 381.592 0.156533 -3.44745 0
M  V30 4028 C 380.705 -0.848197 -4.23591 0
M  V30 4029 C 379.84 -0.136109 -5.31026 0
M  V30 4030 C 378.879 -1.1297 -6.01585 0
M  V30 4031 N 378.016 -0.446415 -7.00679 0
M  V30 4032 H 382.856 -1.40148 -2.62988 0
M  V30 4033 H 380.393 -0.702168 -1.29259 0
M  V30 4034 H 382.351 0.571324 -4.1327 0
M  V30 4035 H 380.981 0.992025 -3.07179 0
M  V30 4036 H 380.033 -1.38135 -3.54433 0
M  V30 4037 H 381.345 -1.60512 -4.72268 0
M  V30 4038 H 380.499 0.335784 -6.0577 0
M  V30 4039 H 379.238 0.653373 -4.83304 0
M  V30 4040 H 378.243 -1.6123 -5.25628 0
M  V30 4041 H 379.468 -1.91993 -6.51395 0
M  V30 4042 H 377.414 0.323763 -6.55201 0
M  V30 4043 H 377.331 -1.1419 -7.47326 0
M  V30 4044 H 378.599 0.00291697 -7.795 0
M  V30 4045 N 382.828 1.3818 -0.7579 0
M  V30 4046 C 384.056 2.04301 -0.326937 0
M  V30 4047 C 384.471 1.57163 1.0462 0
M  V30 4048 O 383.828 0.746626 1.66529 0
M  V30 4049 C 383.879 3.59846 -0.345363 0
M  V30 4050 O 383.6 4.05256 -1.66432 0
M  V30 4051 C 385.101 4.4319 0.098927 0
M  V30 4052 H 382.321 0.656443 -0.139012 0
M  V30 4053 H 384.865 1.76786 -1.02796 0
M  V30 4054 H 383.02 3.86182 0.306955 0
M  V30 4055 H 383.434 4.99709 -1.59345 0
M  V30 4056 H 384.908 5.51989 0.0348745 0
M  V30 4057 H 385.385 4.23947 1.14741 0
M  V30 4058 H 385.991 4.22051 -0.52468 0
M  V30 4059 N 384.306 0.507319 1.49211 0
M  V30 4060 C 385.554 -0.0348839 2.0207 0
M  V30 4061 C 385.875 -1.36898 1.38866 0
M  V30 4062 O 385.145 -1.88133 0.546151 0
M  V30 4063 H 383.725 -0.0158812 0.746831 0
M  V30 4064 H 386.387 0.665998 1.83168 0
M  V30 4065 H 385.483 -0.159917 3.1169 0
M  V30 4066 N 385.784 -1.5574 0.241426 0
M  V30 4067 C 387.009 -2.0366 -0.392111 0
M  V30 4068 C 387.434 -1.11969 -1.51144 0
M  V30 4069 O 386.792 -0.111594 -1.80956 0
M  V30 4070 C 386.84 -3.49638 -0.882371 0
M  V30 4071 O 385.944 -3.6108 -1.99235 0
M  V30 4072 H 385.285 -0.658379 -0.0862122 0
M  V30 4073 H 387.815 -2.01302 0.365881 0
M  V30 4074 H 387.825 -3.90351 -1.18702 0
M  V30 4075 H 386.5 -4.15852 -0.0632361 0
M  V30 4076 H 385.077 -3.32262 -1.69282 0
M  V30 4077 N 387.262 0.0317525 -1.57568 0
M  V30 4078 C 388.487 0.738664 -1.938 0
M  V30 4079 C 388.912 1.68242 -0.841208 0
M  V30 4080 O 388.27 1.80157 0.203267 0
M  V30 4081 C 388.318 1.47417 -3.29091 0
M  V30 4082 O 387.422 2.5872 -3.2115 0
M  V30 4083 H 386.763 0.198856 -0.633524 0
M  V30 4084 H 389.293 -0.0119713 -2.04596 0
M  V30 4085 H 389.303 1.84468 -3.63917 0
M  V30 4086 H 387.978 0.781988 -4.08482 0
M  V30 4087 H 386.555 2.24231 -2.97951 0
M  V30 4088 N 388.74 1.54641 0.303973 0
M  V30 4089 C 390.017 1.64455 1.05896 0
M  V30 4090 C 390.397 0.490923 2.05312 0
M  V30 4091 O 389.745 -0.512685 2.22674 0
M  V30 4092 C 389.955 3.02331 1.74347 0
M  V30 4093 C 391.303 3.59045 2.26653 0
M  V30 4094 O 392.327 3.04764 1.84384 0
M  V30 4095 O 391.186 4.54081 3.04093 0
M  V30 4096 H 388.28 0.666729 0.489287 0
M  V30 4097 H 390.826 1.66986 0.302298 0
M  V30 4098 H 389.598 3.77734 1.02142 0
M  V30 4099 H 389.221 3.03565 2.56777 0
M  V30 4100 N 390.218 -0.567019 1.47046 0
M  V30 4101 C 391.446 -1.35027 1.56765 0
M  V30 4102 C 391.861 -1.8758 0.214316 0
M  V30 4103 O 391.218 -1.64471 -0.790919 0
M  V30 4104 C 391.269 -2.52698 2.58507 0
M  V30 4105 O 390.99 -2.0232 3.88585 0
M  V30 4106 C 392.491 -3.45043 2.78316 0
M  V30 4107 H 389.711 -0.41195 0.529658 0
M  V30 4108 H 392.255 -0.687832 1.92585 0
M  V30 4109 H 390.41 -3.149 2.25648 0
M  V30 4110 H 390.824 -2.79068 4.44096 0
M  V30 4111 H 392.298 -4.2405 3.53391 0
M  V30 4112 H 392.775 -3.97971 1.85784 0
M  V30 4113 H 393.381 -2.88665 3.12334 0
M  V30 4114 N 391.696 -1.35014 -0.812953 0
M  V30 4115 C 392.659 -1.27292 -1.90602 0
M  V30 4116 C 393.659 -0.185817 -1.59723 0
M  V30 4117 O 394.849 -0.439102 -1.68575 0
M  V30 4118 C 391.981 -0.967676 -3.26877 0
M  V30 4119 H 393.174 -2.24479 -1.9887 0
M  V30 4120 H 390.727 -1.19446 -1.00808 0
M  V30 4121 H 391.462 0.0005954 -3.243 0
M  V30 4122 H 391.247 -1.75412 -3.50675 0
M  V30 4123 H 392.737 -0.939085 -4.06904 0
M  V30 4124 N 393.175 1.03435 -1.18907 0
M  V30 4125 C 394.123 2.13703 -0.918353 0
M  V30 4126 C 395.117 1.68947 0.123767 0
M  V30 4127 O 396.323 1.79983 -0.0249701 0
M  V30 4128 H 392.698 0.698112 -0.279542 0
M  V30 4129 H 394.669 2.33731 -1.85506 0
M  V30 4130 C 393.418 3.44542 -0.467532 0
M  V30 4131 H 392.741 3.79394 -1.26095 0
M  V30 4132 H 394.181 4.22812 -0.317164 0
M  V30 4133 C 392.64 3.26829 0.817588 0
M  V30 4134 O 393.17 3.54975 1.88031 0
M  V30 4135 N 391.376 2.80139 0.772677 0
M  V30 4136 H 390.923 2.57434 -0.0923883 0
M  V30 4137 H 390.881 2.68668 1.63294 0
M  V30 4138 N 394.653 0.992116 1.22453 0
M  V30 4139 C 395.883 0.684949 1.94915 0
M  V30 4140 C 396.291 -0.754292 1.73514 0
M  V30 4141 O 395.634 -1.52056 1.03076 0
M  V30 4142 C 395.696 0.910054 3.47791 0
M  V30 4143 C 395.36 2.33363 3.92926 0
M  V30 4144 C 396.357 3.31308 4.00663 0
M  V30 4145 C 394.042 2.66785 4.25595 0
M  V30 4146 C 396.036 4.6075 4.40441 0
M  V30 4147 C 393.723 3.96446 4.65053 0
M  V30 4148 C 394.721 4.9324 4.72444 0
M  V30 4149 O 394.409 6.20584 5.1101 0
M  V30 4150 H 394.141 0.25258 0.62704 0
M  V30 4151 H 396.695 1.32939 1.56577 0
M  V30 4152 H 394.925 0.208443 3.86138 0
M  V30 4153 H 396.614 0.598257 4.01467 0
M  V30 4154 H 397.38 3.0682 3.75615 0
M  V30 4155 H 393.259 1.92148 4.19047 0
M  V30 4156 H 396.803 5.363 4.46126 0
M  V30 4157 H 392.7 4.20724 4.89552 0
M  V30 4158 H 393.468 6.24509 5.29085 0
M  V30 4159 N 396.131 -1.37776 0.765217 0
M  V30 4160 C 397.079 -2.32209 0.134798 0
M  V30 4161 C 398.073 -1.54607 -0.692315 0
M  V30 4162 O 399.279 -1.70052 -0.590109 0
M  V30 4163 H 395.654 -0.751591 0.0248005 0
M  V30 4164 H 397.625 -2.8297 0.947119 0
M  V30 4165 C 396.374 -3.39841 -0.735063 0
M  V30 4166 H 395.697 -3.99654 -0.107991 0
M  V30 4167 H 397.137 -4.08296 -1.14326 0
M  V30 4168 C 395.596 -2.79378 -1.88281 0
M  V30 4169 O 396.126 -2.69608 -2.97783 0
M  V30 4170 N 394.332 -2.37016 -1.68142 0
M  V30 4171 H 393.879 -2.45162 -0.790772 0
M  V30 4172 H 393.837 -1.96905 -2.45104 0
M  V30 4173 N 397.609 -0.515225 -1.4894 0
M  V30 4174 C 398.559 0.275113 -2.26334 0
M  V30 4175 C 399.543 0.923007 -1.31793 0
M  V30 4176 O 400.735 0.828254 -1.56426 0
M  V30 4177 C 397.864 1.33041 -3.16473 0
M  V30 4178 C 396.95 0.688051 -4.18481 0
M  V30 4179 N 397.341 -0.217638 -5.05332 0
M  V30 4180 C 395.639 0.94699 -4.3583 0
M  V30 4181 C 396.34 -0.58676 -5.78733 0
M  V30 4182 N 395.316 0.0486966 -5.43578 0
M  V30 4183 H 399.118 -0.421876 -2.90856 0
M  V30 4184 H 396.632 -0.332249 -1.58965 0
M  V30 4185 H 398.629 1.9102 -3.70563 0
M  V30 4186 H 397.289 2.02894 -2.53504 0
M  V30 4187 H 398.3 -0.589343 -5.14536 0
M  V30 4188 H 394.977 1.63719 -3.8406 0
M  V30 4189 H 396.367 -1.32855 -6.58634 0
M  V30 4190 N 399.087 1.5561 -0.249682 0
M  V30 4191 C 400.315 2.03411 0.378352 0
M  V30 4192 C 400.73 1.12886 1.51335 0
M  V30 4193 O 400.087 0.143833 1.81932 0
M  V30 4194 C 400.138 3.50537 0.88351 0
M  V30 4195 O 399.859 4.37614 -0.20626 0
M  V30 4196 C 401.36 4.14113 1.58195 0
M  V30 4197 H 398.58 0.664994 0.08958 0
M  V30 4198 H 401.124 2.01044 -0.374357 0
M  V30 4199 H 399.279 3.5343 1.58639 0
M  V30 4200 H 399.693 5.24199 0.177782 0
M  V30 4201 H 401.167 5.18741 1.8871 0
M  V30 4202 H 401.644 3.60767 2.50487 0
M  V30 4203 H 402.25 4.15151 0.923573 0
M  V30 4204 N 400.565 -0.0233959 1.57583 0
M  V30 4205 C 401.814 -0.712133 1.8871 0
M  V30 4206 C 402.127 -1.76217 0.848944 0
M  V30 4207 O 403.333 -2.50389 1.04964 0
M  V30 4208 C 401.789 -1.3177 3.3491 0
M  V30 4209 C 401.397 -0.303715 4.46969 0
M  V30 4210 C 403.141 -1.98598 3.75179 0
M  V30 4211 C 401.048 -0.917945 5.84233 0
M  V30 4212 H 399.978 -0.269735 0.704101 0
M  V30 4213 H 402.629 0.0333114 1.8347 0
M  V30 4214 H 401.011 -2.11304 3.34913 0
M  V30 4215 H 402.185 0.465325 4.58445 0
M  V30 4216 H 400.5 0.2628 4.1557 0
M  V30 4217 H 403.097 -2.45416 4.75053 0
M  V30 4218 H 403.44 -2.80659 3.07468 0
M  V30 4219 H 403.973 -1.25831 3.77374 0
M  V30 4220 H 400.712 -0.136633 6.55358 0
M  V30 4221 H 400.232 -1.65669 5.76467 0
M  V30 4222 H 401.911 -1.4236 6.31144 0
M  V30 4223 N 402.043 -1.548 -0.295768 0
M  V30 4224 C 403.271 -1.78327 -1.04914 0
M  V30 4225 C 403.686 -0.545316 -1.80753 0
M  V30 4226 O 403.043 0.485013 -1.75937 0
M  V30 4227 C 403.094 -2.99418 -2.02561 0
M  V30 4228 O 402.815 -4.18431 -1.29798 0
M  V30 4229 C 404.316 -3.35375 -2.89895 0
M  V30 4230 H 401.536 -0.594618 -0.310918 0
M  V30 4231 H 404.08 -2.01763 -0.333454 0
M  V30 4232 H 402.235 -2.78175 -2.69624 0
M  V30 4233 H 402.649 -4.86736 -1.95419 0
M  V30 4234 H 404.123 -4.23332 -3.54251 0
M  V30 4235 H 404.6 -2.53761 -3.58472 0
M  V30 4236 H 405.206 -3.58796 -2.28355 0
M  V30 4237 N 403.521 0.559213 -1.47345 0
M  V30 4238 C 404.749 1.34194 -1.57479 0
M  V30 4239 C 405.164 1.87463 -0.224261 0
M  V30 4240 O 404.521 1.64888 0.782185 0
M  V30 4241 C 404.572 2.51324 -2.59843 0
M  V30 4242 O 404.293 2.00256 -3.89653 0
M  V30 4243 C 405.794 3.43563 -2.80142 0
M  V30 4244 H 403.014 0.409136 -0.531835 0
M  V30 4245 H 405.558 0.677609 -1.92947 0
M  V30 4246 H 403.713 3.13699 -2.27314 0
M  V30 4247 H 404.127 2.76708 -4.4557 0
M  V30 4248 H 405.601 4.2217 -3.55635 0
M  V30 4249 H 406.078 3.9698 -1.87892 0
M  V30 4250 H 406.684 2.87005 -3.1386 0
M  V30 4251 N 404.999 1.35443 0.805782 0
M  V30 4252 C 405.946 1.28431 1.91766 0
M  V30 4253 C 406.916 0.156102 1.65365 0
M  V30 4254 O 408.101 0.339936 1.87747 0
M  V30 4255 C 405.241 1.06301 3.2832 0
M  V30 4256 C 404.354 2.2805 3.66902 0
M  V30 4257 C 403.489 1.99064 4.92491 0
M  V30 4258 C 402.528 3.16863 5.23703 0
M  V30 4259 N 401.665 2.87647 6.40471 0
M  V30 4260 H 406.505 2.23511 1.97096 0
M  V30 4261 H 404.042 1.11105 0.964054 0
M  V30 4262 H 406 0.915012 4.07042 0
M  V30 4263 H 404.63 0.148822 3.22457 0
M  V30 4264 H 403.682 2.53711 2.83434 0
M  V30 4265 H 404.994 3.1601 3.85927 0
M  V30 4266 H 404.148 1.81099 5.7904 0
M  V30 4267 H 402.887 1.0839 4.75503 0
M  V30 4268 H 401.892 3.35404 4.35642 0
M  V30 4269 H 403.117 4.08339 5.4262 0
M  V30 4270 H 401.063 1.99568 6.24907 0
M  V30 4271 H 400.98 3.69141 6.59751 0
M  V30 4272 H 402.248 2.73226 7.30047 0
M  V30 4273 N 406.477 -1.02803 1.19454 0
M  V30 4274 C 407.893 -1.28473 0.946937 0
M  V30 4275 C 408.093 -1.97881 -0.380202 0
M  V30 4276 O 407.149 -2.26719 -1.11151 0
M  V30 4277 C 408.462 -2.13099 2.12154 0
M  V30 4278 C 410.01 -2.26404 2.16126 0
M  V30 4279 C 410.485 -3.14402 3.33039 0
M  V30 4280 N 411.976 -3.21991 3.32981 0
M  V30 4281 C 412.711 -3.90272 4.20089 0
M  V30 4282 N 412.207 -4.60777 5.17355 0
M  V30 4283 N 414 -3.8668 4.07964 0
M  V30 4284 H 406.151 -0.561665 2.04839 0
M  V30 4285 H 408.414 -0.310438 0.89573 0
M  V30 4286 H 408.12 -1.69422 3.08203 0
M  V30 4287 H 407.994 -3.13813 2.09287 0
M  V30 4288 H 410.381 -2.69311 1.20647 0
M  V30 4289 H 410.462 -1.25237 2.23045 0
M  V30 4290 H 410.106 -2.72204 4.28798 0
M  V30 4291 H 410.036 -4.1563 3.23356 0
M  V30 4292 H 412.527 -2.71778 2.62574 0
M  V30 4293 H 412.84 -5.10513 5.80169 0
M  V30 4294 H 411.185 -4.5964 5.21302 0
M  V30 4295 H 414.376 -3.30739 3.31254 0
M  V30 4296 H 414.549 -4.39621 4.76064 0
M  V30 4297 N 407.956 -0.998596 -1.21925 0
M  V30 4298 C 409.204 -0.676325 -1.90448 0
M  V30 4299 C 409.525 0.794719 -1.78071 0
M  V30 4300 O 408.795 1.5701 -1.17152 0
M  V30 4301 H 407.375 -0.247165 -0.704925 0
M  V30 4302 H 410.037 -1.26633 -1.48156 0
M  V30 4303 H 409.133 -0.943858 -2.97486 0
M  V30 4304 N 409.434 1.37368 -0.772513 0
M  V30 4305 C 410.381 2.30262 -0.157488 0
M  V30 4306 C 411.351 1.51137 0.688965 0
M  V30 4307 O 412.536 1.79704 0.641168 0
M  V30 4308 C 409.676 3.37611 0.715045 0
M  V30 4309 C 408.789 4.31746 -0.148098 0
M  V30 4310 C 407.924 5.26171 0.729213 0
M  V30 4311 C 406.963 6.11948 -0.136418 0
M  V30 4312 N 406.1 6.98613 0.698914 0
M  V30 4313 H 410.94 2.82277 -0.955179 0
M  V30 4314 H 408.477 1.38957 -0.482631 0
M  V30 4315 H 410.435 3.98479 1.23575 0
M  V30 4316 H 409.065 2.86959 1.47833 0
M  V30 4317 H 408.117 3.72178 -0.786613 0
M  V30 4318 H 409.429 4.92084 -0.81579 0
M  V30 4319 H 408.583 5.92247 1.31637 0
M  V30 4320 H 407.322 4.66246 1.43059 0
M  V30 4321 H 406.327 5.4485 -0.736102 0
M  V30 4322 H 407.552 6.73945 -0.835134 0
M  V30 4323 H 405.498 6.41215 1.38489 0
M  V30 4324 H 405.415 7.55948 0.0885358 0
M  V30 4325 H 406.683 7.69077 1.27044 0
M  V30 4326 N 410.912 0.523116 1.48665 0
M  V30 4327 C 412.159 -0.0134763 2.02496 0
M  V30 4328 C 412.487 -1.3493 1.40086 0
M  V30 4329 O 411.742 -1.88286 0.533567 0
M  V30 4330 C 412.041 -0.191671 3.56886 0
M  V30 4331 C 411.707 1.06893 4.38046 0
M  V30 4332 C 410.369 1.41443 4.59943 0
M  V30 4333 C 412.721 1.90584 4.85106 0
M  V30 4334 C 410.049 2.59594 5.26144 0
M  V30 4335 C 412.401 3.07907 5.52609 0
M  V30 4336 C 411.065 3.42811 5.72745 0
M  V30 4337 H 410.335 -0.00493133 0.740984 0
M  V30 4338 H 412.982 0.687751 1.78724 0
M  V30 4339 H 411.287 -0.97561 3.79459 0
M  V30 4340 H 412.984 -0.621659 3.96152 0
M  V30 4341 H 409.574 0.789848 4.21259 0
M  V30 4342 H 413.758 1.65203 4.67997 0
M  V30 4343 H 409.014 2.86847 5.39934 0
M  V30 4344 H 413.188 3.73066 5.88043 0
M  V30 4345 H 410.815 4.34462 6.23816 0
M  V30 4346 N 412.39 -1.55475 0.257931 0
M  V30 4347 C 413.806 -1.59307 -0.0966563 0
M  V30 4348 C 414.006 -1.27514 -1.5602 0
M  V30 4349 O 413.062 -1.02774 -2.30637 0
M  V30 4350 C 414.375 -2.99552 0.262481 0
M  V30 4351 C 415.923 -3.1231 0.207683 0
M  V30 4352 C 416.398 -4.54793 0.541012 0
M  V30 4353 N 417.889 -4.6058 0.491921 0
M  V30 4354 C 418.624 -5.68825 0.722857 0
M  V30 4355 N 418.12 -6.85287 1.0175 0
M  V30 4356 N 419.913 -5.58296 0.652815 0
M  V30 4357 H 412.064 -1.74409 1.21224 0
M  V30 4358 H 414.327 -0.812424 0.48854 0
M  V30 4359 H 414.033 -3.27593 1.27967 0
M  V30 4360 H 413.907 -3.75019 -0.40508 0
M  V30 4361 H 416.294 -2.84044 -0.800195 0
M  V30 4362 H 416.375 -2.39095 0.909255 0
M  V30 4363 H 416.019 -4.83783 1.5465 0
M  V30 4364 H 415.949 -5.26285 -0.18216 0
M  V30 4365 H 418.44 -3.7691 0.273366 0
M  V30 4366 H 418.753 -7.63725 1.18084 0
M  V30 4367 H 417.098 -6.86945 1.05509 0
M  V30 4368 H 420.289 -4.66189 0.422592 0
M  V30 4369 H 420.462 -6.42582 0.836182 0
M  V30 4370 N 413.868 0.0150385 -1.57593 0
M  V30 4371 C 415.117 0.702115 -1.89085 0
M  V30 4372 C 415.43 1.75764 -0.858277 0
M  V30 4373 O 416.636 2.49829 -1.0629 0
M  V30 4374 C 415.092 1.29992 -3.35604 0
M  V30 4375 C 414.7 0.280007 -4.47124 0
M  V30 4376 C 416.444 1.96606 -3.76227 0
M  V30 4377 C 414.351 0.886949 -5.84711 0
M  V30 4378 H 413.281 0.265997 -0.705522 0
M  V30 4379 H 415.932 -0.0430408 -1.8345 0
M  V30 4380 H 414.314 2.09525 -3.36029 0
M  V30 4381 H 415.488 -0.489631 -4.58191 0
M  V30 4382 H 413.803 -0.284835 -4.15425 0
M  V30 4383 H 416.4 2.42893 -4.76347 0
M  V30 4384 H 416.743 2.79024 -3.08952 0
M  V30 4385 H 417.276 1.23828 -3.78036 0
M  V30 4386 H 414.015 0.101876 -6.55421 0
M  V30 4387 H 413.535 1.6261 -5.77337 0
M  V30 4388 H 415.214 1.39011 -6.3189 0
M  V30 4389 N 415.346 1.54954 0.287554 0
M  V30 4390 C 416.294 1.87606 1.37502 0
M  V30 4391 C 417.288 0.751001 1.51843 0
M  V30 4392 O 418.494 0.935169 1.53801 0
M  V30 4393 H 414.869 0.595231 0.459569 0
M  V30 4394 H 416.84 2.78477 1.07206 0
M  V30 4395 C 415.589 2.15183 2.73115 0
M  V30 4396 H 414.912 3.01234 2.62866 0
M  V30 4397 H 416.352 2.4196 3.48183 0
M  V30 4398 C 414.811 0.954686 3.2309 0
M  V30 4399 O 415.341 0.181949 4.01288 0
M  V30 4400 N 413.547 0.756368 2.80584 0
M  V30 4401 H 413.094 1.38643 2.17108 0
M  V30 4402 H 413.052 -0.0430391 3.14371 0
M  V30 4403 N 416.824 -0.551391 1.4764 0
M  V30 4404 C 417.756 -1.67333 1.56628 0
M  V30 4405 C 418.769 -1.56398 0.452045 0
M  V30 4406 O 419.958 -1.6325 0.721926 0
M  V30 4407 C 417.058 -3.05841 1.45994 0
M  V30 4408 C 416.231 -3.42472 2.72088 0
M  V30 4409 C 415.29 -4.60168 2.55209 0
M  V30 4410 O 414.316 -4.64458 3.2904 0
M  V30 4411 N 415.518 -5.57024 1.63416 0
M  V30 4412 H 418.283 -1.60066 2.53375 0
M  V30 4413 H 415.844 -0.738169 1.44093 0
M  V30 4414 H 417.836 -3.8242 1.32428 0
M  V30 4415 H 416.406 -3.07302 0.573071 0
M  V30 4416 H 415.626 -2.55284 3.00373 0
M  V30 4417 H 416.914 -3.63723 3.55785 0
M  V30 4418 H 416.312 -5.56319 1.02594 0
M  V30 4419 H 414.869 -6.32906 1.558 0
M  V30 4420 N 418.302 -1.35869 -0.798587 0
M  V30 4421 C 419.548 -1.2978 -1.55836 0
M  V30 4422 C 419.881 0.125322 -1.93795 0
M  V30 4423 O 419.156 1.07658 -1.61987 0
M  V30 4424 C 419.439 -2.21188 -2.84162 0
M  V30 4425 C 419.292 -3.72155 -2.52628 0
M  V30 4426 C 420.611 -2.11545 -3.85923 0
M  V30 4427 H 417.73 -0.472769 -0.565383 0
M  V30 4428 H 420.372 -1.66341 -0.918192 0
M  V30 4429 H 418.522 -1.90139 -3.38791 0
M  V30 4430 H 420.194 -4.13682 -2.04121 0
M  V30 4431 H 418.437 -3.92042 -1.85704 0
M  V30 4432 H 419.108 -4.31511 -3.44242 0
M  V30 4433 H 421.584 -2.38855 -3.40716 0
M  V30 4434 H 420.46 -2.77688 -4.73477 0
M  V30 4435 H 420.721 -1.09987 -4.282 0
M  V30 4436 N 419.78 1.02168 -1.19998 0
M  V30 4437 C 421.029 1.75091 -1.0013 0
M  V30 4438 C 421.342 1.89923 0.467835 0
M  V30 4439 O 422.548 2.59888 0.785515 0
M  V30 4440 C 421.004 3.14892 -1.74273 0
M  V30 4441 C 420.612 3.0809 -3.25245 0
M  V30 4442 C 422.356 3.9206 -1.62755 0
M  V30 4443 C 420.263 4.42867 -3.91948 0
M  V30 4444 H 419.193 0.656394 -0.37103 0
M  V30 4445 H 421.844 1.14284 -1.43567 0
M  V30 4446 H 420.226 3.7621 -1.2362 0
M  V30 4447 H 421.4 2.5611 -3.83072 0
M  V30 4448 H 419.715 2.44416 -3.3712 0
M  V30 4449 H 422.312 4.91764 -2.09934 0
M  V30 4450 H 422.655 4.12199 -0.582894 0
M  V30 4451 H 423.188 3.37359 -2.10793 0
M  V30 4452 H 419.927 4.27931 -4.96543 0
M  V30 4453 H 419.447 4.94874 -3.3891 0
M  V30 4454 H 421.126 5.11728 -3.95909 0
M  V30 4455 N 421.258 1.00505 1.21394 0
M  V30 4456 C 422.191 0.51032 2.22421 0
M  V30 4457 C 423.169 -0.436 1.56645 0
M  V30 4458 O 424.353 -0.358709 1.85055 0
M  V30 4459 C 421.48 -0.258733 3.3771 0
M  V30 4460 C 420.526 0.635395 4.2174 0
M  V30 4461 S 421.359 2.09783 4.92698 0
M  V30 4462 C 422.515 1.33862 6.11418 0
M  V30 4463 H 422.748 1.36637 2.64041 0
M  V30 4464 H 420.281 0.812991 1.31262 0
M  V30 4465 H 422.239 -0.696372 4.0455 0
M  V30 4466 H 420.9 -1.0902 2.94573 0
M  V30 4467 H 420.093 0.0430189 5.03982 0
M  V30 4468 H 419.695 1.01031 3.60095 0
M  V30 4469 H 421.987 0.612541 6.74725 0
M  V30 4470 H 422.93 2.13675 6.75092 0
M  V30 4471 H 423.338 0.846568 5.58116 0
M  V30 4472 N 422.737 -1.36956 0.779787 0
M  V30 4473 C 423.985 -1.99097 0.347079 0
M  V30 4474 C 424.306 -1.62206 -1.08232 0
M  V30 4475 O 423.576 -0.891373 -1.74446 0
M  V30 4476 H 422.156 -0.736409 0.125342 0
M  V30 4477 H 424.818 -1.67308 0.999696 0
M  V30 4478 H 423.914 -3.09107 0.431162 0
M  V30 4479 N 424.215 -0.530993 -1.48385 0
M  V30 4480 C 425.178 0.220497 -2.28137 0
M  V30 4481 C 426.178 0.866851 -1.35434 0
M  V30 4482 O 427.368 0.726746 -1.58316 0
M  V30 4483 C 424.5 1.31921 -3.1434 0
M  V30 4484 H 425.693 -0.479714 -2.96038 0
M  V30 4485 H 423.246 -0.286968 -1.53643 0
M  V30 4486 H 423.981 2.05264 -2.51072 0
M  V30 4487 H 423.766 0.86085 -3.82533 0
M  V30 4488 H 425.256 1.84776 -3.74497 0
M  V30 4489 N 425.693 1.55336 -0.266172 0
M  V30 4490 C 426.941 1.99003 0.35246 0
M  V30 4491 C 427.262 1.15591 1.57047 0
M  V30 4492 O 426.532 0.243268 1.94384 0
M  V30 4493 H 425.112 0.735025 0.133217 0
M  V30 4494 H 427.774 1.91367 -0.369434 0
M  V30 4495 H 426.87 3.05289 0.648453 0
M  V30 4496 N 427.171 -0.0066808 1.57599 0
M  V30 4497 C 428.448 -0.729586 1.81484 0
M  V30 4498 C 428.828 -1.92359 0.869558 0
M  V30 4499 O 428.176 -2.28348 -0.0832533 0
M  V30 4500 C 428.386 -1.1416 3.29801 0
M  V30 4501 C 429.734 -1.54823 3.95367 0
M  V30 4502 O 430.758 -1.23558 3.34084 0
M  V30 4503 O 429.617 -2.12937 5.03309 0
M  V30 4504 H 426.711 -0.354674 0.747085 0
M  V30 4505 H 429.257 0.0182609 1.6969 0
M  V30 4506 H 428.029 -0.290231 3.90222 0
M  V30 4507 H 427.652 -1.94876 3.46568 0
M  V30 4508 N 428.649 -1.55105 -0.279332 0
M  V30 4509 C 429.879 -1.7917 -1.02867 0
M  V30 4510 C 430.287 -0.56204 -1.80659 0
M  V30 4511 O 429.63 0.478266 -1.77365 0
M  V30 4512 C 429.692 -2.96061 -2.03932 0
M  V30 4513 C 429.356 -4.33341 -1.45137 0
M  V30 4514 C 430.353 -5.12565 -0.870266 0
M  V30 4515 C 428.038 -4.79987 -1.48048 0
M  V30 4516 C 430.032 -6.36565 -0.326097 0
M  V30 4517 C 427.719 -6.03944 -0.932443 0
M  V30 4518 C 428.717 -6.8207 -0.356247 0
M  V30 4519 O 428.405 -8.03691 0.183412 0
M  V30 4520 H 428.137 -0.600796 -0.309872 0
M  V30 4521 H 430.691 -2.02932 -0.317468 0
M  V30 4522 H 428.921 -2.67975 -2.78794 0
M  V30 4523 H 430.61 -3.07506 -2.64943 0
M  V30 4524 H 431.376 -4.77661 -0.840521 0
M  V30 4525 H 427.255 -4.1919 -1.91835 0
M  V30 4526 H 430.799 -6.97489 0.124286 0
M  V30 4527 H 426.696 -6.3833 -0.959407 0
M  V30 4528 H 427.464 -8.18468 0.0721681 0
M  V30 4529 N 430.127 0.543554 -1.4793 0
M  V30 4530 C 431.074 1.64942 -1.6144 0
M  V30 4531 C 432.044 1.59692 -0.456903 0
M  V30 4532 O 433.229 1.78321 -0.678688 0
M  V30 4533 C 430.369 3.03238 -1.64744 0
M  V30 4534 C 429.482 3.18823 -2.91506 0
M  V30 4535 C 428.617 4.47599 -2.86057 0
M  V30 4536 C 427.656 4.56664 -4.07584 0
M  V30 4537 N 426.793 5.76811 -4.00292 0
M  V30 4538 H 431.633 1.52733 -2.55884 0
M  V30 4539 H 429.17 0.7438 -1.2691 0
M  V30 4540 H 431.128 3.83339 -1.64641 0
M  V30 4541 H 429.758 3.1425 -0.738017 0
M  V30 4542 H 428.81 2.32064 -3.01414 0
M  V30 4543 H 430.122 3.21384 -3.81463 0
M  V30 4544 H 429.276 5.35975 -2.84281 0
M  V30 4545 H 428.015 4.47538 -1.93807 0
M  V30 4546 H 427.02 3.66697 -4.09651 0
M  V30 4547 H 428.245 4.58474 -5.00978 0
M  V30 4548 H 426.191 5.77673 -3.10853 0
M  V30 4549 H 426.108 5.80808 -4.8394 0
M  V30 4550 H 427.376 6.67512 -4.02553 0
M  V30 4551 N 431.605 1.3629 0.791371 0
M  V30 4552 C 432.553 1.30514 1.92533 0
M  V30 4553 C 433.547 0.197285 1.68247 0
M  V30 4554 O 434.753 0.364176 1.76278 0
M  V30 4555 H 431.128 0.406263 0.632815 0
M  V30 4556 H 433.099 2.26282 1.94523 0
M  V30 4557 C 431.848 1.10933 3.29529 0
M  V30 4558 H 431.171 1.95427 3.48781 0
M  V30 4559 H 432.611 1.10937 4.0923 0
M  V30 4560 C 431.07 -0.186123 3.36385 0
M  V30 4561 O 431.6 -1.17664 3.84081 0
M  V30 4562 N 429.806 -0.230128 2.89687 0
M  V30 4563 H 429.353 0.576545 2.51065 0
M  V30 4564 H 429.311 -1.09658 2.94657 0
M  V30 4565 N 433.083 -1.0153 1.20538 0
M  V30 4566 C 434.013 -2.11972 0.979295 0
M  V30 4567 C 434.994 -1.6985 -0.0921787 0
M  V30 4568 O 436.179 -1.94089 0.0655932 0
M  V30 4569 C 433.309 -3.43201 0.531984 0
M  V30 4570 C 432.263 -3.9907 1.54685 0
M  V30 4571 C 431.589 -5.26082 0.956127 0
M  V30 4572 C 432.889 -4.32313 2.93092 0
M  V30 4573 H 434.583 -2.31143 1.90298 0
M  V30 4574 H 432.129 -1.11079 0.916372 0
M  V30 4575 H 434.082 -4.1985 0.361044 0
M  V30 4576 H 432.806 -3.23792 -0.427327 0
M  V30 4577 H 431.465 -3.2453 1.70517 0
M  V30 4578 H 431.113 -5.02999 -0.0111538 0
M  V30 4579 H 430.813 -5.64426 1.63393 0
M  V30 4580 H 432.337 -6.05386 0.796284 0
M  V30 4581 H 433.751 -4.99845 2.80763 0
M  V30 4582 H 432.148 -4.81774 3.57791 0
M  V30 4583 H 433.218 -3.41025 3.44717 0
M  V30 4584 N 434.561 -1.01147 -1.20859 0
M  V30 4585 C 435.809 -0.696486 -1.89719 0
M  V30 4586 C 436.13 0.775788 -1.78904 0
M  V30 4587 O 435.4 1.55759 -1.18811 0
M  V30 4588 H 433.98 -0.254628 -0.702263 0
M  V30 4589 H 436.642 -1.28197 -1.46804 0
M  V30 4590 H 435.738 -0.975357 -2.96468 0
M  V30 4591 N 436.039 1.36541 -0.78704 0
M  V30 4592 C 437.287 1.98911 -0.357633 0
M  V30 4593 C 437.608 1.62778 1.07371 0
M  V30 4594 O 436.878 0.900612 1.73971 0
M  V30 4595 H 435.458 0.735734 -0.129246 0
M  V30 4596 H 438.12 1.66776 -1.00855 0
M  V30 4597 H 437.216 3.08874 -0.447549 0
M  V30 4598 N 437.518 0.538854 1.48102 0
M  V30 4599 C 438.428 -0.222648 2.33541 0
M  V30 4600 C 439.444 -0.930225 1.47047 0
M  V30 4601 O 440.62 -0.903211 1.80011 0
M  V30 4602 C 437.685 -1.25064 3.23357 0
M  V30 4603 C 436.746 -0.552469 4.2573 0
M  V30 4604 C 435.979 -1.53149 5.11254 0
M  V30 4605 O 436.202 -2.76487 4.9891 0
M  V30 4606 O 435.136 -1.06602 5.92385 0
M  V30 4607 H 438.962 0.477707 2.99919 0
M  V30 4608 H 436.547 0.299669 1.46364 0
M  V30 4609 H 438.429 -1.8445 3.78888 0
M  V30 4610 H 437.104 -1.93325 2.59629 0
M  V30 4611 H 436.011 0.082114 3.7401 0
M  V30 4612 H 437.344 0.0883526 4.92121 0
M  V30 4613 N 438.996 -1.55193 0.274407 0
M  V30 4614 C 439.943 -2.225 -0.613374 0
M  V30 4615 C 440.913 -1.19823 -1.15029 0
M  V30 4616 O 442.098 -1.48362 -1.19973 0
M  V30 4617 C 439.238 -2.94927 -1.79199 0
M  V30 4618 C 438.351 -4.12322 -1.28899 0
M  V30 4619 C 437.486 -4.72394 -2.42934 0
M  V30 4620 C 436.525 -5.81984 -1.89634 0
M  V30 4621 N 435.662 -6.36123 -2.9714 0
M  V30 4622 H 440.502 -2.97982 -0.032756 0
M  V30 4623 H 438.039 -1.47099 -0.00440146 0
M  V30 4624 H 439.997 -3.35134 -2.48478 0
M  V30 4625 H 438.627 -2.2187 -2.34465 0
M  V30 4626 H 437.679 -3.7724 -0.489327 0
M  V30 4627 H 438.991 -4.91355 -0.858587 0
M  V30 4628 H 438.145 -5.15317 -3.20208 0
M  V30 4629 H 436.884 -3.92636 -2.8929 0
M  V30 4630 H 435.889 -5.38511 -1.1084 0
M  V30 4631 H 437.114 -6.6361 -1.44215 0
M  V30 4632 H 435.06 -5.59259 -3.42878 0
M  V30 4633 H 434.977 -7.10427 -2.58515 0
M  V30 4634 H 436.245 -6.83704 -3.74391 0
M  V30 4635 N 440.474 -0.00167713 -1.576 0
M  V30 4636 C 441.406 1.0174 -2.05382 0
M  V30 4637 C 442.419 1.30595 -0.972052 0
M  V30 4638 O 443.608 1.27542 -1.24882 0
M  V30 4639 C 440.708 2.35174 -2.44022 0
M  V30 4640 C 439.881 2.25234 -3.74951 0
M  V30 4641 C 438.94 3.4137 -4.00441 0
M  V30 4642 O 437.966 3.19483 -4.71083 0
M  V30 4643 N 439.168 4.64275 -3.48467 0
M  V30 4644 H 441.933 0.609902 -2.93428 0
M  V30 4645 H 439.494 0.185672 -1.60832 0
M  V30 4646 H 441.486 3.11643 -2.58187 0
M  V30 4647 H 440.056 2.67659 -1.61485 0
M  V30 4648 H 439.276 1.33664 -3.70847 0
M  V30 4649 H 440.564 2.15767 -4.60784 0
M  V30 4650 H 439.962 4.84955 -2.91264 0
M  V30 4651 H 438.519 5.38005 -3.67959 0
M  V30 4652 N 441.952 1.55251 0.271103 0
M  V30 4653 C 443.368 1.47133 0.618393 0
M  V30 4654 C 443.568 0.686994 1.89427 0
M  V30 4655 O 442.624 0.206609 2.51653 0
M  V30 4656 C 443.937 2.91361 0.743593 0
M  V30 4657 C 445.485 3.01587 0.837522 0
M  V30 4658 C 445.96 4.47073 0.994483 0
M  V30 4659 N 447.451 4.50909 1.05996 0
M  V30 4660 C 448.186 5.60698 1.20024 0
M  V30 4661 N 447.682 6.80348 1.30759 0
M  V30 4662 N 449.475 5.48444 1.23149 0
M  V30 4663 H 441.626 2.04698 -0.566784 0
M  V30 4664 H 443.889 0.928319 -0.192165 0
M  V30 4665 H 443.595 3.51483 -0.123493 0
M  V30 4666 H 443.469 3.40484 1.62328 0
M  V30 4667 H 445.856 2.4156 1.69507 0
M  V30 4668 H 445.937 2.55713 -0.0668086 0
M  V30 4669 H 445.581 5.07703 0.141582 0
M  V30 4670 H 445.511 4.90605 1.91349 0
M  V30 4671 H 448.002 3.6472 0.989316 0
M  V30 4672 H 448.315 7.59772 1.41303 0
M  V30 4673 H 446.66 6.83156 1.27761 0
M  V30 4674 H 449.851 4.53907 1.14394 0
M  V30 4675 H 450.024 6.34049 1.33738 0
M  V30 4676 N 443.43 -0.535701 1.48216 0
M  V30 4677 C 444.378 -1.66179 1.62749 0
M  V30 4678 C 445.372 -1.62034 0.49409 0
M  V30 4679 O 446.578 -1.6696 0.672624 0
M  V30 4680 H 442.953 -0.550244 0.512578 0
M  V30 4681 H 444.924 -1.51063 2.57337 0
M  V30 4682 C 443.673 -3.04471 1.67907 0
M  V30 4683 H 442.996 -3.08351 2.54479 0
M  V30 4684 H 444.436 -3.82894 1.82121 0
M  V30 4685 C 442.895 -3.34314 0.416596 0
M  V30 4686 O 443.425 -3.98905 -0.473014 0
M  V30 4687 N 441.631 -2.89149 0.290038 0
M  V30 4688 H 441.178 -2.36764 1.01493 0
M  V30 4689 H 441.136 -3.09486 -0.55367 0
M  V30 4690 N 444.908 -1.36708 -0.784132 0
M  V30 4691 C 445.841 -1.25827 -1.90375 0
M  V30 4692 C 446.819 -0.141331 -1.61985 0
M  V30 4693 O 448.003 -0.313389 -1.85877 0
M  V30 4694 C 445.13 -0.942621 -3.25319 0
M  V30 4695 C 444.176 -2.07474 -3.72635 0
M  V30 4696 S 445.009 -3.69317 -3.8777 0
M  V30 4697 C 446.165 -3.39876 -5.25581 0
M  V30 4698 H 446.398 -2.20593 -1.99314 0
M  V30 4699 H 443.931 -1.22186 -0.943926 0
M  V30 4700 H 445.889 -0.767321 -4.03265 0
M  V30 4701 H 444.55 -0.0126566 -3.14097 0
M  V30 4702 H 443.743 -1.80858 -4.70432 0
M  V30 4703 H 443.345 -2.20953 -3.01754 0
M  V30 4704 H 445.637 -2.94097 -6.10339 0
M  V30 4705 H 446.58 -4.36956 -5.57203 0
M  V30 4706 H 446.988 -2.75098 -4.92931 0
M  V30 4707 N 446.386 1.0089 -1.21074 0
M  V30 4708 C 447.319 2.09279 -0.909806 0
M  V30 4709 C 448.297 1.61986 0.141145 0
M  V30 4710 O 449.481 1.88495 0.0130332 0
M  V30 4711 C 446.608 3.36723 -0.365374 0
M  V30 4712 C 445.654 4.02919 -1.39852 0
M  V30 4713 S 446.487 4.45835 -2.96633 0
M  V30 4714 C 447.643 5.76471 -2.43786 0
M  V30 4715 H 447.876 2.34484 -1.82769 0
M  V30 4716 H 445.409 1.14115 -1.04006 0
M  V30 4717 H 447.367 4.10459 -0.0578203 0
M  V30 4718 H 446.028 3.09577 0.531136 0
M  V30 4719 H 445.221 4.94634 -0.967117 0
M  V30 4720 H 444.823 3.35441 -1.65395 0
M  V30 4721 H 447.115 6.52027 -1.84029 0
M  V30 4722 H 448.058 6.24418 -3.33928 0
M  V30 4723 H 448.466 5.33104 -1.85636 0
M  V30 4724 N 447.864 1.01787 1.20321 0
M  V30 4725 C 449.112 0.706538 1.89347 0
M  V30 4726 C 449.433 -0.766289 1.79313 0
M  V30 4727 O 448.703 -1.55126 1.19635 0
M  V30 4728 H 447.283 0.258348 0.700903 0
M  V30 4729 H 449.945 1.28974 1.46122 0
M  V30 4730 H 449.041 0.991066 2.95946 0
M  V30 4731 N 449.342 -1.36122 0.79427 0
M  V30 4732 C 450.29 -2.31871 0.184023 0
M  V30 4733 C 451.284 -1.56041 -0.659365 0
M  V30 4734 O 452.49 -1.71266 -0.553906 0
M  V30 4735 H 448.865 -0.750896 0.0407373 0
M  V30 4736 H 450.836 -2.80898 1.00693 0
M  V30 4737 C 449.585 -3.41324 -0.662813 0
M  V30 4738 H 448.908 -3.99793 -0.0231944 0
M  V30 4739 H 450.348 -4.10629 -1.05639 0
M  V30 4740 C 448.807 -2.83308 -1.82313 0
M  V30 4741 O 449.337 -2.75863 -2.91997 0
M  V30 4742 N 447.543 -2.40529 -1.63077 0
M  V30 4743 H 447.09 -2.46785 -0.738591 0
M  V30 4744 H 447.048 -2.02059 -2.40872 0
M  V30 4745 N 450.82 -0.546701 -1.47814 0
M  V30 4746 C 451.783 0.196287 -2.28358 0
M  V30 4747 C 452.783 0.852437 -1.36346 0
M  V30 4748 O 453.973 0.709913 -1.59078 0
M  V30 4749 C 451.105 1.28579 -3.15722 0
M  V30 4750 H 452.298 -0.511086 -2.95513 0
M  V30 4751 H 449.851 -0.303248 -1.5333 0
M  V30 4752 H 450.586 2.0259 -2.53235 0
M  V30 4753 H 450.371 0.820229 -3.83425 0
M  V30 4754 H 451.861 1.80793 -3.76435 0
M  V30 4755 N 452.299 1.55045 -0.282633 0
M  V30 4756 C 453.229 2.2579 0.595066 0
M  V30 4757 C 454.21 1.25074 1.15284 0
M  V30 4758 O 455.395 1.5381 1.18559 0
M  V30 4759 C 452.525 2.98472 1.77572 0
M  V30 4760 C 451.479 4.0618 1.34914 0
M  V30 4761 C 450.805 4.66477 2.6135 0
M  V30 4762 C 452.105 5.1996 0.493821 0
M  V30 4763 H 453.799 2.994 0.00505653 0
M  V30 4764 H 451.345 1.44 0.000992001 0
M  V30 4765 H 453.298 3.46677 2.39568 0
M  V30 4766 H 452.022 2.2241 2.39168 0
M  V30 4767 H 450.681 3.58797 0.752338 0
M  V30 4768 H 450.329 3.87074 3.2122 0
M  V30 4769 H 450.029 5.39207 2.33516 0
M  V30 4770 H 451.553 5.17435 3.24181 0
M  V30 4771 H 452.967 5.64172 1.01898 0
M  V30 4772 H 451.364 5.99299 0.310047 0
M  V30 4773 H 452.434 4.82462 -0.485593 0
M  V30 4774 N 453.777 0.010035 1.57597 0
M  V30 4775 C 454.71 -1.01234 2.04516 0
M  V30 4776 C 455.688 -1.32886 0.937024 0
M  V30 4777 O 456.872 -1.44879 1.20592 0
M  V30 4778 C 453.999 -2.33738 2.45121 0
M  V30 4779 C 453.045 -2.17679 3.66767 0
M  V30 4780 S 453.878 -1.49343 5.14254 0
M  V30 4781 C 455.034 -2.83256 5.58137 0
M  V30 4782 H 455.267 -0.612866 2.90914 0
M  V30 4783 H 452.8 -0.201124 1.53084 0
M  V30 4784 H 454.758 -3.09922 2.69182 0
M  V30 4785 H 453.419 -2.70823 1.59103 0
M  V30 4786 H 452.612 -3.1559 3.92962 0
M  V30 4787 H 452.214 -1.4964 3.42759 0
M  V30 4788 H 454.506 -3.79538 5.6121 0
M  V30 4789 H 455.449 -2.61749 6.57946 0
M  V30 4790 H 455.857 -2.87627 4.85727 0
M  V30 4791 N 455.255 -1.55392 -0.262866 0
M  V30 4792 C 456.165 -1.92077 -1.34698 0
M  V30 4793 C 457.181 -0.819227 -1.53508 0
M  V30 4794 O 458.357 -1.11921 -1.67439 0
M  V30 4795 C 455.422 -2.19407 -2.68443 0
M  V30 4796 C 454.483 -3.42905 -2.58292 0
M  V30 4797 C 453.716 -3.68921 -3.85659 0
M  V30 4798 O 453.939 -2.97275 -4.8681 0
M  V30 4799 O 452.873 -4.62455 -3.85252 0
M  V30 4800 H 456.699 -2.84384 -1.06581 0
M  V30 4801 H 454.284 -1.42069 -0.462264 0
M  V30 4802 H 456.166 -2.38365 -3.47506 0
M  V30 4803 H 454.841 -1.30282 -2.96325 0
M  V30 4804 H 453.748 -3.29272 -1.7757 0
M  V30 4805 H 455.081 -4.32282 -2.35358 0
M  V30 4806 N 456.733 0.527833 -1.48498 0
M  V30 4807 C 458.149 0.856571 -1.34666 0
M  V30 4808 C 458.349 1.98271 -0.35931 0
M  V30 4809 O 457.405 2.51551 0.218703 0
M  V30 4810 C 458.718 1.22207 -2.74747 0
M  V30 4811 C 460.266 1.33183 -2.83251 0
M  V30 4812 C 460.741 1.73075 -4.24039 0
M  V30 4813 N 462.232 1.80174 -4.26722 0
M  V30 4814 C 462.967 2.1243 -5.32598 0
M  V30 4815 N 462.463 2.43096 -6.4875 0
M  V30 4816 N 464.256 2.13454 -5.19994 0
M  V30 4817 H 456.407 -0.215174 -2.11307 0
M  V30 4818 H 458.67 -0.0336281 -0.947403 0
M  V30 4819 H 458.376 0.468195 -3.4857 0
M  V30 4820 H 458.25 2.17173 -3.08409 0
M  V30 4821 H 460.637 2.07647 -2.09683 0
M  V30 4822 H 460.718 0.363333 -2.53206 0
M  V30 4823 H 460.362 0.991712 -4.98124 0
M  V30 4824 H 460.292 2.70979 -4.51529 0
M  V30 4825 H 462.783 1.58744 -3.42942 0
M  V30 4826 H 463.096 2.6682 -7.25277 0
M  V30 4827 H 461.441 2.40611 -6.52021 0
M  V30 4828 H 464.632 1.88956 -4.28268 0
M  V30 4829 H 464.805 2.38261 -6.02608 0
M  V30 4830 N 458.211 1.37122 0.776871 0
M  V30 4831 C 459.436 1.354 1.57104 0
M  V30 4832 C 459.861 -0.0595562 1.88006 0
M  V30 4833 O 459.219 -1.03514 1.48844 0
M  V30 4834 C 459.267 2.19472 2.8612 0
M  V30 4835 O 458.371 1.59582 3.80273 0
M  V30 4836 H 457.712 0.462869 0.476076 0
M  V30 4837 H 460.242 1.80577 0.961932 0
M  V30 4838 H 460.252 2.32502 3.35271 0
M  V30 4839 H 458.927 3.22222 2.62956 0
M  V30 4840 H 457.504 1.55564 3.38902 0
M  V30 4841 N 459.689 -1.00246 1.21608 0
M  V30 4842 C 460.936 -1.74061 1.03485 0
M  V30 4843 C 461.264 -1.89658 -0.431308 0
M  V30 4844 O 460.519 -1.42976 -1.33627 0
M  V30 4845 C 460.818 -3.15448 1.68009 0
M  V30 4846 C 460.484 -3.19792 3.17874 0
M  V30 4847 C 459.146 -3.20685 3.58768 0
M  V30 4848 C 461.498 -3.16835 4.13842 0
M  V30 4849 C 458.826 -3.16309 4.94131 0
M  V30 4850 C 461.178 -3.14001 5.49169 0
M  V30 4851 C 459.842 -3.13204 5.89457 0
M  V30 4852 H 459.112 -0.636934 0.378677 0
M  V30 4853 H 461.759 -1.17473 1.51236 0
M  V30 4854 H 460.064 -3.75284 1.12557 0
M  V30 4855 H 461.761 -3.71285 1.51487 0
M  V30 4856 H 458.351 -3.19842 2.85305 0
M  V30 4857 H 462.535 -3.15303 3.83272 0
M  V30 4858 H 457.791 -3.14032 5.24589 0
M  V30 4859 H 461.965 -3.10667 6.23265 0
M  V30 4860 H 459.592 -3.09568 6.94314 0
M  V30 4861 N 461.167 -1.02423 -1.1978 0
M  V30 4862 C 462.444 -0.632802 -1.85081 0
M  V30 4863 C 462.824 0.888745 -1.9148 0
M  V30 4864 O 462.172 1.78357 -1.42832 0
M  V30 4865 C 462.382 -1.28947 -3.24305 0
M  V30 4866 C 463.73 -1.40976 -4.00513 0
M  V30 4867 O 464.754 -1.24628 -3.33686 0
M  V30 4868 O 463.613 -1.67467 -5.20209 0
M  V30 4869 H 460.707 -0.219348 -0.79738 0
M  V30 4870 H 463.253 -1.12209 -1.27307 0
M  V30 4871 H 462.025 -2.3288 -3.14456 0
M  V30 4872 H 461.648 -0.787748 -3.89718 0
M  V30 4873 N 462.645 1.35699 -0.801477 0
M  V30 4874 C 463.577 2.28598 -0.166028 0
M  V30 4875 C 464.59 1.50044 0.631721 0
M  V30 4876 O 465.779 1.72339 0.464921 0
M  V30 4877 C 462.879 3.29625 0.787451 0
M  V30 4878 C 462.052 4.37384 0.037171 0
M  V30 4879 C 461.111 5.183 0.908375 0
M  V30 4880 O 460.137 5.68053 0.361189 0
M  V30 4881 N 461.339 5.35912 2.23112 0
M  V30 4882 H 464.104 2.83771 -0.964071 0
M  V30 4883 H 461.665 1.47994 -0.656469 0
M  V30 4884 H 463.657 3.80648 1.37439 0
M  V30 4885 H 462.227 2.75004 1.48632 0
M  V30 4886 H 461.447 3.87364 -0.730935 0
M  V30 4887 H 462.735 5.0653 -0.480109 0
M  V30 4888 H 462.133 4.97125 2.69968 0
M  V30 4889 H 460.69 5.90133 2.76741 0
M  V30 4890 N 464.123 0.554532 1.47522 0
M  V30 4891 C 465.353 0.0342074 2.06572 0
M  V30 4892 C 465.761 -1.26375 1.40805 0
M  V30 4893 O 465.104 -1.7683 0.49769 0
M  V30 4894 C 465.166 -0.235096 3.5873 0
M  V30 4895 C 464.83 0.973024 4.46521 0
M  V30 4896 C 465.827 1.8779 4.848 0
M  V30 4897 C 463.512 1.18694 4.88075 0
M  V30 4898 C 465.506 2.98039 5.63428 0
M  V30 4899 C 463.193 2.29254 5.66468 0
M  V30 4900 C 464.191 3.18757 6.04055 0
M  V30 4901 O 463.879 4.27401 6.8087 0
M  V30 4902 H 463.611 0.041587 0.67472 0
M  V30 4903 H 466.165 0.766748 1.90552 0
M  V30 4904 H 464.395 -1.02191 3.72953 0
M  V30 4905 H 466.084 -0.700477 3.9981 0
M  V30 4906 H 466.85 1.72467 4.53299 0
M  V30 4907 H 462.729 0.49947 4.58286 0
M  V30 4908 H 466.273 3.67926 5.92685 0
M  V30 4909 H 462.17 2.4455 5.97382 0
M  V30 4910 H 462.938 4.25415 6.9926 0
M  V30 4911 N 465.601 -1.54893 0.290851 0
M  V30 4912 C 466.548 -2.23138 -0.58974 0
M  V30 4913 C 467.518 -1.21036 -1.13752 0
M  V30 4914 O 468.703 -1.49626 -1.18392 0
M  V30 4915 C 465.843 -2.96811 -1.76061 0
M  V30 4916 C 464.956 -4.13665 -1.24519 0
M  V30 4917 C 464.091 -4.74944 -2.3791 0
M  V30 4918 C 463.13 -5.83963 -1.83451 0
M  V30 4919 N 462.267 -6.39239 -2.90376 0
M  V30 4920 H 467.107 -2.98 -0.00114915 0
M  V30 4921 H 464.644 -1.47096 0.0112006 0
M  V30 4922 H 466.602 -3.37751 -2.44909 0
M  V30 4923 H 465.232 -2.24344 -2.32098 0
M  V30 4924 H 464.284 -3.77737 -0.449288 0
M  V30 4925 H 465.596 -4.92238 -0.806424 0
M  V30 4926 H 464.75 -5.18684 -3.14724 0
M  V30 4927 H 463.489 -3.95682 -2.85109 0
M  V30 4928 H 462.494 -5.39657 -1.05122 0
M  V30 4929 H 463.719 -6.65103 -1.37169 0
M  V30 4930 H 461.665 -5.62864 -3.36927 0
M  V30 4931 H 461.582 -7.13129 -2.50965 0
M  V30 4932 H 462.85 -6.87637 -3.67118 0
M  V30 4933 N 467.08 -0.0183926 -1.57589 0
M  V30 4934 C 468.31 0.67207 -1.95363 0
M  V30 4935 C 468.718 1.66807 -0.892872 0
M  V30 4936 O 468.061 1.83204 0.134958 0
M  V30 4937 C 468.123 1.44397 -3.29226 0
M  V30 4938 C 467.787 0.607511 -4.52944 0
M  V30 4939 C 468.784 -0.112657 -5.19778 0
M  V30 4940 C 466.469 0.548068 -4.99301 0
M  V30 4941 C 468.463 -0.881057 -6.31281 0
M  V30 4942 C 466.15 -0.224044 -6.10689 0
M  V30 4943 C 467.148 -0.937323 -6.76538 0
M  V30 4944 O 466.836 -1.6968 -7.85789 0
M  V30 4945 H 466.568 0.190925 -0.648478 0
M  V30 4946 H 469.122 -0.0711994 -2.05277 0
M  V30 4947 H 467.352 2.23214 -3.15773 0
M  V30 4948 H 469.041 2.02152 -3.51979 0
M  V30 4949 H 469.807 -0.0759998 -4.8494 0
M  V30 4950 H 465.686 1.09281 -4.4786 0
M  V30 4951 H 469.23 -1.43832 -6.82611 0
M  V30 4952 H 465.127 -0.262457 -6.44966 0
M  V30 4953 H 465.895 -1.61544 -8.024 0
M  V30 4954 N 468.558 1.5553 0.254621 0
M  V30 4955 C 469.804 1.77262 0.985193 0
M  V30 4956 C 470.137 0.582286 1.85265 0
M  V30 4957 O 469.412 -0.419666 1.89919 0
M  V30 4958 C 469.695 3.0881 1.85225 0
M  V30 4959 C 469.548 4.38233 1.0135 0
M  V30 4960 C 470.867 3.3653 2.83612 0
M  V30 4961 H 467.986 0.644906 0.356742 0
M  V30 4962 H 470.628 1.88264 0.256236 0
M  V30 4963 H 468.778 2.99562 2.47376 0
M  V30 4964 H 470.45 4.59463 0.411269 0
M  V30 4965 H 468.693 4.32636 0.317574 0
M  V30 4966 H 469.364 5.26644 1.65379 0
M  V30 4967 H 471.84 3.45691 2.31596 0
M  V30 4968 H 470.716 4.29805 3.41407 0
M  V30 4969 H 470.977 2.57064 3.59681 0
M  V30 4970 N 470.036 -0.519951 1.48776 0
M  V30 4971 C 470.983 -1.62352 1.64044 0
M  V30 4972 C 471.953 -1.58945 0.482251 0
M  V30 4973 O 473.138 -1.77219 0.706971 0
M  V30 4974 C 470.278 -3.00579 1.69547 0
M  V30 4975 C 469.391 -3.14145 2.96541 0
M  V30 4976 C 468.526 -4.42991 2.93142 0
M  V30 4977 C 467.565 -4.50122 4.14797 0
M  V30 4978 N 466.702 -5.7037 4.09418 0
M  V30 4979 H 471.542 -1.48643 2.58281 0
M  V30 4980 H 469.079 -0.723516 1.28077 0
M  V30 4981 H 471.037 -3.80671 1.70719 0
M  V30 4982 H 469.667 -3.13036 0.787918 0
M  V30 4983 H 468.719 -2.27239 3.05068 0
M  V30 4984 H 470.031 -3.15275 3.86527 0
M  V30 4985 H 469.185 -5.31385 2.92772 0
M  V30 4986 H 467.924 -4.44398 2.00902 0
M  V30 4987 H 466.929 -3.60133 4.15433 0
M  V30 4988 H 468.154 -4.50445 5.08208 0
M  V30 4989 H 466.1 -5.72655 3.20004 0
M  V30 4990 H 466.017 -5.73036 4.93119 0
M  V30 4991 H 467.285 -6.61023 4.13121 0
M  V30 4992 N 471.514 -1.37532 -0.769588 0
M  V30 4993 C 472.763 -1.32183 -1.5235 0
M  V30 4994 C 473.076 0.0906555 -1.9539 0
M  V30 4995 O 474.282 0.266628 -2.70188 0
M  V30 4996 C 472.738 -2.32029 -2.75119 0
M  V30 4997 C 472.346 -3.78816 -2.3917 0
M  V30 4998 C 474.09 -2.35694 -3.53056 0
M  V30 4999 C 471.997 -4.70388 -3.58453 0
M  V30 5000 H 470.927 -0.491275 -0.571984 0
M  V30 5001 H 473.578 -1.63004 -0.842739 0
M  V30 5002 H 471.96 -1.94229 -3.45096 0
M  V30 5003 H 473.134 -4.25466 -1.76962 0
M  V30 5004 H 471.449 -3.78117 -1.74402 0
M  V30 5005 H 474.046 -3.01312 -4.41718 0
M  V30 5006 H 474.389 -1.37117 -3.93071 0
M  V30 5007 H 474.922 -2.72212 -2.90078 0
M  V30 5008 H 471.661 -5.70102 -3.23518 0
M  V30 5009 H 471.181 -4.28442 -4.19758 0
M  V30 5010 H 472.86 -4.87628 -4.25239 0
M  V30 5011 N 472.992 0.995999 -1.22138 0
M  V30 5012 C 473.922 2.10387 -1.01289 0
M  V30 5013 C 474.903 1.69975 0.0651454 0
M  V30 5014 O 476.088 1.9396 -0.0964628 0
M  V30 5015 C 473.218 3.42312 -0.586517 0
M  V30 5016 C 472.172 3.96558 -1.61014 0
M  V30 5017 C 471.498 5.24494 -1.0397 0
M  V30 5018 C 472.798 4.27595 -2.99933 0
M  V30 5019 H 474.492 2.28086 -1.93951 0
M  V30 5020 H 472.038 1.09607 -0.933928 0
M  V30 5021 H 473.991 4.19223 -0.427793 0
M  V30 5022 H 472.715 3.24431 0.375761 0
M  V30 5023 H 471.374 3.21776 -1.75658 0
M  V30 5024 H 471.022 5.02953 -0.0688703 0
M  V30 5025 H 470.722 5.61755 -1.72352 0
M  V30 5026 H 472.246 6.04042 -0.892494 0
M  V30 5027 H 473.66 4.95315 -2.8868 0
M  V30 5028 H 472.057 4.76021 -3.6541 0
M  V30 5029 H 473.127 3.35498 -3.50099 0
M  V30 5030 N 474.47 1.03057 1.19235 0
M  V30 5031 C 475.695 0.74757 1.93458 0
M  V30 5032 C 476.12 -0.687648 1.7508 0
M  V30 5033 O 475.478 -1.47499 1.05422 0
M  V30 5034 C 475.526 1.10604 3.43219 0
M  V30 5035 O 474.63 0.225671 4.11782 0
M  V30 5036 H 473.971 0.276047 0.603899 0
M  V30 5037 H 476.501 1.3777 1.51263 0
M  V30 5038 H 476.511 1.06366 3.93891 0
M  V30 5039 H 475.186 2.15165 3.55917 0
M  V30 5040 H 473.763 0.326795 3.71465 0
M  V30 5041 N 475.948 -1.35272 0.808662 0
M  V30 5042 C 476.895 -2.29764 0.218482 0
M  V30 5043 C 477.865 -1.52911 -0.648652 0
M  V30 5044 O 479.05 -1.81341 -0.593297 0
M  V30 5045 C 476.19 -3.39388 -0.625282 0
M  V30 5046 C 475.303 -4.31202 0.262516 0
M  V30 5047 C 474.438 -5.27919 -0.589451 0
M  V30 5048 C 473.477 -6.11371 0.298617 0
M  V30 5049 N 472.614 -7.0022 -0.513443 0
M  V30 5050 H 477.454 -2.79645 1.02968 0
M  V30 5051 H 474.991 -1.37629 0.519303 0
M  V30 5052 H 476.949 -4.01615 -1.12966 0
M  V30 5053 H 475.579 -2.90777 -1.40173 0
M  V30 5054 H 474.631 -3.69962 0.885013 0
M  V30 5055 H 475.943 -4.89748 0.945971 0
M  V30 5056 H 475.097 -5.95529 -1.15888 0
M  V30 5057 H 473.836 -4.69875 -1.30647 0
M  V30 5058 H 472.841 -5.42707 0.880301 0
M  V30 5059 H 474.066 -6.71494 1.01352 0
M  V30 5060 H 472.012 -6.44662 -1.21439 0
M  V30 5061 H 471.929 -7.55917 0.111922 0
M  V30 5062 H 473.197 -7.72175 -1.06608 0
M  V30 5063 N 477.426 -0.562348 -1.47226 0
M  V30 5064 C 478.674 -0.0401371 -2.0206 0
M  V30 5065 C 478.995 1.3165 -1.43852 0
M  V30 5066 O 478.265 1.85976 -0.615599 0
M  V30 5067 H 476.845 -0.0118479 -0.746906 0
M  V30 5068 H 479.507 -0.73352 -1.8057 0
M  V30 5069 H 478.603 0.0441254 -3.12069 0
M  V30 5070 N 478.904 1.54736 -0.299062 0
M  V30 5071 C 479.814 2.27127 0.587413 0
M  V30 5072 C 480.83 1.30575 1.15005 0
M  V30 5073 O 482.006 1.63554 1.17525 0
M  V30 5074 C 479.071 2.99645 1.74395 0
M  V30 5075 C 478.132 4.11731 1.21559 0
M  V30 5076 C 477.365 4.80781 2.317 0
M  V30 5077 O 477.588 4.4918 3.51558 0
M  V30 5078 O 476.522 5.68226 1.98501 0
M  V30 5079 H 480.348 3.037 0.000250109 0
M  V30 5080 H 477.933 1.49256 -0.0655919 0
M  V30 5081 H 479.815 3.45138 2.4178 0
M  V30 5082 H 478.49 2.25969 2.31775 0
M  V30 5083 H 477.397 3.70641 0.507514 0
M  V30 5084 H 478.73 4.87379 0.687233 0
M  V30 5085 N 480.382 0.0267497 1.57577 0
M  V30 5086 C 481.314 -0.984594 2.06974 0
M  V30 5087 C 482.327 -1.29032 0.992705 0
M  V30 5088 O 483.516 -1.25539 1.26895 0
M  V30 5089 C 480.616 -2.31262 2.47732 0
M  V30 5090 C 479.789 -2.1924 3.78487 0
M  V30 5091 C 478.848 -3.34956 4.05821 0
M  V30 5092 O 477.874 -3.11948 4.76106 0
M  V30 5093 N 479.076 -4.58672 3.55809 0
M  V30 5094 H 481.841 -0.563143 2.94362 0
M  V30 5095 H 479.402 -0.160061 1.61107 0
M  V30 5096 H 481.394 -3.07496 2.63112 0
M  V30 5097 H 479.964 -2.65056 1.65723 0
M  V30 5098 H 479.184 -1.27747 3.72927 0
M  V30 5099 H 480.472 -2.08409 4.64158 0
M  V30 5100 H 479.87 -4.8026 2.98942 0
M  V30 5101 H 478.427 -5.32083 3.76472 0
M  V30 5102 N 481.861 -1.55662 -0.24637 0
M  V30 5103 C 483.277 -1.48098 -0.594907 0
M  V30 5104 C 483.477 -0.717044 -1.8831 0
M  V30 5105 O 482.533 -0.246618 -2.51293 0
M  V30 5106 C 483.846 -2.92507 -0.697146 0
M  V30 5107 C 485.394 -3.02881 -0.789436 0
M  V30 5108 C 485.869 -4.48598 -0.923232 0
M  V30 5109 N 487.36 -4.52538 -0.988088 0
M  V30 5110 C 488.095 -5.62536 -1.11089 0
M  V30 5111 N 487.591 -6.82342 -1.19919 0
M  V30 5112 N 489.384 -5.50334 -1.14408 0
M  V30 5113 H 481.535 -2.0377 0.599278 0
M  V30 5114 H 483.798 -0.925145 0.20691 0
M  V30 5115 H 483.504 -3.51242 0.179396 0
M  V30 5116 H 483.378 -3.43024 -1.5689 0
M  V30 5117 H 485.765 -2.44226 -1.65643 0
M  V30 5118 H 485.846 -2.55574 0.107482 0
M  V30 5119 H 485.49 -5.07864 -0.0607927 0
M  V30 5120 H 485.42 -4.93587 -1.8352 0
M  V30 5121 H 487.911 -3.66248 -0.931167 0
M  V30 5122 H 488.224 -7.61924 -1.29197 0
M  V30 5123 H 486.569 -6.85102 -1.16876 0
M  V30 5124 H 489.76 -4.5567 -1.07158 0
M  V30 5125 H 489.933 -6.36096 -1.23634 0
M  V30 5126 N 483.339 0.512053 -1.4905 0
M  V30 5127 C 484.588 1.26343 -1.57227 0
M  V30 5128 C 484.901 1.93876 -0.259155 0
M  V30 5129 O 486.107 2.70612 -0.219358 0
M  V30 5130 C 484.563 2.29343 -2.77362 0
M  V30 5131 C 484.171 1.67799 -4.15388 0
M  V30 5132 C 485.915 3.05378 -2.94864 0
M  V30 5133 C 483.822 2.68845 -5.2676 0
M  V30 5134 H 482.752 0.475231 -0.585382 0
M  V30 5135 H 485.403 0.53862 -1.75417 0
M  V30 5136 H 483.785 3.04938 -2.52643 0
M  V30 5137 H 484.959 0.982715 -4.50199 0
M  V30 5138 H 483.274 1.04194 -4.03153 0
M  V30 5139 H 485.871 3.80921 -3.75238 0
M  V30 5140 H 486.214 3.62327 -2.05 0
M  V30 5141 H 486.747 2.36898 -3.19569 0
M  V30 5142 H 483.486 2.16692 -6.18647 0
M  V30 5143 H 483.006 3.36647 -4.96416 0
M  V30 5144 H 484.685 3.31487 -5.5563 0
M  V30 5145 N 484.817 1.37938 0.762283 0
M  V30 5146 C 485.765 1.34569 1.89721 0
M  V30 5147 C 486.759 0.232929 1.67791 0
M  V30 5148 O 487.965 0.401485 1.75465 0
M  V30 5149 H 484.34 0.419594 0.624055 0
M  V30 5150 H 486.311 2.30357 1.8968 0
M  V30 5151 C 485.06 1.17898 3.27101 0
M  V30 5152 H 484.383 2.02781 3.44558 0
M  V30 5153 H 485.823 1.19593 4.06784 0
M  V30 5154 C 484.282 -0.114728 3.36705 0
M  V30 5155 O 484.812 -1.0949 3.8649 0
M  V30 5156 N 483.018 -0.16863 2.9011 0
M  V30 5157 H 482.565 0.62967 2.49786 0
M  V30 5158 H 482.523 -1.03383 2.96916 0
M  V30 5159 N 486.295 -0.989507 1.22664 0
M  V30 5160 C 487.543 -1.72612 1.05117 0
M  V30 5161 C 487.864 -1.90552 -0.414131 0
M  V30 5162 O 487.134 -1.4676 -1.29762 0
M  V30 5163 H 485.714 -0.639555 0.385977 0
M  V30 5164 H 488.376 -1.19158 1.54232 0
M  V30 5165 H 487.472 -2.71926 1.53175 0
M  V30 5166 N 487.773 -1.03688 -1.18687 0
M  V30 5167 C 488.72 -0.624624 -2.22187 0
M  V30 5168 C 489.69 0.365636 -1.62026 0
M  V30 5169 O 490.875 0.260481 -1.89014 0
M  V30 5170 C 488.015 0.0101738 -3.45099 0
M  V30 5171 C 487.128 -1.02709 -4.19613 0
M  V30 5172 C 486.263 -0.361213 -5.2997 0
M  V30 5173 C 485.302 -1.38384 -5.96252 0
M  V30 5174 N 484.439 -0.743196 -6.98155 0
M  V30 5175 H 489.279 -1.51176 -2.56807 0
M  V30 5176 H 486.816 -0.75636 -1.26165 0
M  V30 5177 H 488.774 0.395528 -4.15321 0
M  V30 5178 H 487.404 0.860848 -3.1111 0
M  V30 5179 H 486.456 -1.53043 -3.48256 0
M  V30 5180 H 487.768 -1.80398 -4.65036 0
M  V30 5181 H 486.922 0.0785537 -6.06649 0
M  V30 5182 H 485.661 0.447799 -4.8564 0
M  V30 5183 H 484.666 -1.83378 -5.18317 0
M  V30 5184 H 485.891 -2.19448 -6.42666 0
M  V30 5185 H 483.837 0.0455789 -6.55984 0
M  V30 5186 H 483.754 -1.45784 -7.41811 0
M  V30 5187 H 485.022 -0.327698 -7.78811 0
M  V30 5188 N 489.251 1.34841 -0.815825 0
M  V30 5189 C 490.198 2.29644 -0.230664 0
M  V30 5190 C 491.168 1.53253 0.640533 0
M  V30 5191 O 492.353 1.81653 0.583672 0
M  V30 5192 C 489.493 3.39715 0.607275 0
M  V30 5193 C 488.606 4.31056 -0.28538 0
M  V30 5194 C 487.741 5.28225 0.561446 0
M  V30 5195 C 486.78 6.11204 -0.331035 0
M  V30 5196 N 485.917 7.00483 0.476302 0
M  V30 5197 H 490.757 2.79095 -1.0445 0
M  V30 5198 H 488.294 1.37351 -0.526595 0
M  V30 5199 H 490.252 4.02208 1.10835 0
M  V30 5200 H 488.882 2.91517 1.38629 0
M  V30 5201 H 487.934 3.69487 -0.904621 0
M  V30 5202 H 489.246 4.89239 -0.97193 0
M  V30 5203 H 488.4 5.96135 1.12728 0
M  V30 5204 H 487.139 4.70562 1.28153 0
M  V30 5205 H 486.144 5.42232 -0.909069 0
M  V30 5206 H 487.369 6.70947 -1.04912 0
M  V30 5207 H 485.315 6.45296 1.18019 0
M  V30 5208 H 485.232 7.55847 -0.152008 0
M  V30 5209 H 486.5 7.7273 1.02512 0
M  V30 5210 N 490.729 0.570148 1.46925 0
M  V30 5211 C 491.959 0.0561151 2.06524 0
M  V30 5212 C 492.367 -1.24874 1.42137 0
M  V30 5213 O 491.71 -1.76292 0.516417 0
M  V30 5214 C 491.772 -0.197035 3.5896 0
M  V30 5215 C 491.436 1.02033 4.45464 0
M  V30 5216 C 492.433 1.92921 4.82781 0
M  V30 5217 C 490.118 1.23864 4.86788 0
M  V30 5218 C 492.112 3.03999 5.60235 0
M  V30 5219 C 489.799 2.35249 5.64004 0
M  V30 5220 C 490.797 3.25146 6.0064 0
M  V30 5221 O 490.485 4.34598 6.76299 0
M  V30 5222 H 490.217 0.0487409 0.674241 0
M  V30 5223 H 492.771 0.786915 1.89728 0
M  V30 5224 H 491.001 -0.982299 3.74016 0
M  V30 5225 H 492.69 -0.658032 4.00531 0
M  V30 5226 H 493.456 1.77265 4.51444 0
M  V30 5227 H 489.335 0.54805 4.57731 0
M  V30 5228 H 492.879 3.74192 5.8875 0
M  V30 5229 H 488.776 2.50873 5.94755 0
M  V30 5230 H 489.544 4.32808 6.94708 0
M  V30 5231 N 492.207 -1.54576 0.307264 0
M  V30 5232 C 493.437 -2.04378 -0.302158 0
M  V30 5233 C 493.845 -1.18381 -1.47589 0
M  V30 5234 O 493.188 -0.20352 -1.82569 0
M  V30 5235 C 493.25 -3.50133 -0.815305 0
M  V30 5236 C 492.914 -4.56401 0.233977 0
M  V30 5237 C 493.911 -5.08884 1.06456 0
M  V30 5238 C 491.596 -5.0088 0.377478 0
M  V30 5239 C 493.59 -6.04394 2.02452 0
M  V30 5240 C 491.277 -5.96208 1.34088 0
M  V30 5241 C 492.275 -6.47849 2.16288 0
M  V30 5242 O 491.963 -7.41308 3.10994 0
M  V30 5243 H 491.695 -0.672502 -0.0686839 0
M  V30 5244 H 494.249 -2.00484 0.446682 0
M  V30 5245 H 492.479 -3.51371 -1.61478 0
M  V30 5246 H 494.168 -3.83098 -1.34129 0
M  V30 5247 H 494.934 -4.75311 0.964596 0
M  V30 5248 H 490.813 -4.60309 -0.252405 0
M  V30 5249 H 494.357 -6.44626 2.66652 0
M  V30 5250 H 490.254 -6.29198 1.44154 0
M  V30 5251 H 491.022 -7.5913 3.06045 0
M  V30 5252 N 493.685 -0.035106 -1.57561 0
M  V30 5253 C 494.931 0.64318 -1.92331 0
M  V30 5254 C 495.264 1.71434 -0.912368 0
M  V30 5255 O 494.539 1.94395 0.0640303 0
M  V30 5256 C 494.822 1.25411 -3.37556 0
M  V30 5257 C 494.675 0.192109 -4.4939 0
M  V30 5258 C 495.994 2.17041 -3.82859 0
M  V30 5259 H 493.113 0.232341 -0.699419 0
M  V30 5260 H 495.755 -0.0935889 -1.89769 0
M  V30 5261 H 493.905 1.88205 -3.39869 0
M  V30 5262 H 495.577 -0.438849 -4.59208 0
M  V30 5263 H 493.82 -0.481725 -4.31117 0
M  V30 5264 H 494.491 0.659292 -5.48049 0
M  V30 5265 H 496.967 1.64228 -3.8232 0
M  V30 5266 H 495.843 2.56738 -4.85157 0
M  V30 5267 H 496.104 3.06401 -3.18702 0
M  V30 5268 N 495.163 1.55791 0.238111 0
M  V30 5269 C 496.073 1.94196 1.31625 0
M  V30 5270 C 497.089 0.843545 1.52185 0
M  V30 5271 O 498.265 1.1457 1.65637 0
M  V30 5272 C 495.33 2.2365 2.64918 0
M  V30 5273 C 494.391 3.46971 2.52804 0
M  V30 5274 C 493.624 3.7501 3.79741 0
M  V30 5275 O 493.847 3.04982 4.82019 0
M  V30 5276 O 492.781 4.68525 3.77846 0
M  V30 5277 H 496.607 2.86044 1.02043 0
M  V30 5278 H 494.192 1.42786 0.439603 0
M  V30 5279 H 496.074 2.43863 3.4367 0
M  V30 5280 H 494.749 1.34979 2.94215 0
M  V30 5281 H 493.656 3.32055 1.72309 0
M  V30 5282 H 494.989 4.35971 2.28451 0
M  V30 5283 N 496.642 -0.504142 1.49319 0
M  V30 5284 C 497.59 -1.62689 1.66238 0
M  V30 5285 C 498.584 -1.6095 0.528349 0
M  V30 5286 O 499.79 -1.65496 0.707887 0
M  V30 5287 H 496.165 -0.539247 0.524134 0
M  V30 5288 H 498.136 -1.45571 2.60484 0
M  V30 5289 C 496.885 -3.00841 1.74328 0
M  V30 5290 H 496.208 -3.02884 2.60963 0
M  V30 5291 H 497.648 -3.78945 1.90202 0
M  V30 5292 C 496.107 -3.33355 0.487416 0
M  V30 5293 O 496.637 -3.99819 -0.388294 0
M  V30 5294 N 494.843 -2.88469 0.351306 0
M  V30 5295 H 494.39 -2.34557 1.06492 0
M  V30 5296 H 494.348 -3.10591 -0.487899 0
M  V30 5297 N 498.12 -1.38341 -0.754957 0
M  V30 5298 C 499.397 -1.24995 -1.50451 0
M  V30 5299 C 499.777 0.149244 -2.10572 0
M  V30 5300 O 499.125 1.15861 -1.96948 0
M  V30 5301 C 499.335 -2.35904 -2.57197 0
M  V30 5302 C 500.683 -2.74262 -3.24138 0
M  V30 5303 O 501.707 -2.35205 -2.67501 0
M  V30 5304 O 500.566 -3.4161 -4.26574 0
M  V30 5305 H 497.66 -0.48872 -0.667144 0
M  V30 5306 H 500.206 -1.50165 -0.790486 0
M  V30 5307 H 498.978 -3.2953 -2.11011 0
M  V30 5308 H 498.601 -2.12291 -3.36182 0
M  V30 5309 N 499.598 0.982988 -1.23187 0
M  V30 5310 C 500.528 2.09301 -1.03515 0
M  V30 5311 C 501.509 1.70035 0.0471136 0
M  V30 5312 O 502.694 1.93847 -0.117029 0
M  V30 5313 C 499.824 3.4167 -0.622791 0
M  V30 5314 C 498.778 3.94828 -1.65211 0
M  V30 5315 C 498.104 5.23362 -1.09527 0
M  V30 5316 C 499.404 4.2439 -3.04451 0
M  V30 5317 H 501.098 2.26016 -1.96359 0
M  V30 5318 H 498.644 1.08611 -0.945501 0
M  V30 5319 H 500.597 4.18746 -0.472233 0
M  V30 5320 H 499.321 3.24811 0.341329 0
M  V30 5321 H 497.98 3.19895 -1.79061 0
M  V30 5322 H 497.628 5.02852 -0.122211 0
M  V30 5323 H 497.328 5.59895 -1.783 0
M  V30 5324 H 498.852 6.03062 -0.956511 0
M  V30 5325 H 500.266 4.92225 -2.93917 0
M  V30 5326 H 498.663 4.72118 -3.70438 0
M  V30 5327 H 499.733 3.31765 -3.53638 0
M  V30 5328 N 501.076 1.04316 1.18135 0
M  V30 5329 C 502.306 0.767003 1.91835 0
M  V30 5330 C 502.714 -0.68002 1.76557 0
M  V30 5331 O 502.057 -1.47548 1.09432 0
M  V30 5332 C 502.119 1.05674 3.43618 0
M  V30 5333 C 501.783 2.49818 3.82675 0
M  V30 5334 C 502.78 3.48003 3.86251 0
M  V30 5335 C 500.465 2.84596 4.13897 0
M  V30 5336 C 502.459 4.79016 4.20503 0
M  V30 5337 C 500.146 4.15813 4.4782 0
M  V30 5338 C 501.144 5.12834 4.51099 0
M  V30 5339 O 500.832 6.41699 4.84229 0
M  V30 5340 H 500.564 0.278948 0.615763 0
M  V30 5341 H 503.118 1.3946 1.50798 0
M  V30 5342 H 501.348 0.372029 3.84906 0
M  V30 5343 H 503.037 0.767994 3.98568 0
M  V30 5344 H 503.803 3.22475 3.62264 0
M  V30 5345 H 499.682 2.09748 4.1052 0
M  V30 5346 H 503.226 5.54739 4.22978 0
M  V30 5347 H 499.123 4.41109 4.71268 0
M  V30 5348 H 499.891 6.46387 5.02121 0
M  V30 5349 N 502.554 -1.34406 0.822964 0
M  V30 5350 C 503.831 -1.92733 0.333641 0
M  V30 5351 C 504.211 -1.75107 -1.17901 0
M  V30 5352 O 503.559 -1.12983 -1.98613 0
M  V30 5353 C 503.769 -3.40557 0.763023 0
M  V30 5354 C 505.117 -4.17709 0.761879 0
M  V30 5355 O 506.141 -3.49141 0.705606 0
M  V30 5356 O 505 -5.40082 0.835109 0
M  V30 5357 H 502.094 -0.821964 0.0911249 0
M  V30 5358 H 504.64 -1.4338 0.907757 0
M  V30 5359 H 503.412 -3.47187 1.8049 0
M  V30 5360 H 503.035 -3.97259 0.164605 0
M  V30 5361 N 504.032 -0.577932 -1.46621 0
M  V30 5362 C 505.278 -0.0617793 -2.02706 0
M  V30 5363 C 505.611 1.29294 -1.44903 0
M  V30 5364 O 504.886 1.8461 -0.61232 0
M  V30 5365 C 505.169 0.00911824 -3.60099 0
M  V30 5366 C 505.022 -1.37416 -4.28295 0
M  V30 5367 C 506.341 0.712159 -4.343 0
M  V30 5368 H 503.46 -0.0239246 -0.736612 0
M  V30 5369 H 506.102 -0.744211 -1.74818 0
M  V30 5370 H 504.252 0.590292 -3.83989 0
M  V30 5371 H 505.924 -2.00013 -4.15683 0
M  V30 5372 H 504.167 -1.94319 -3.87843 0
M  V30 5373 H 504.838 -1.27707 -5.37024 0
M  V30 5374 H 507.314 0.218486 -4.15526 0
M  V30 5375 H 506.19 0.730782 -5.44014 0
M  V30 5376 H 506.451 1.77251 -4.05012 0
M  V30 5377 N 505.51 1.54411 -0.315457 0
M  V30 5378 C 506.44 2.27002 0.547039 0
M  V30 5379 C 507.421 1.27492 1.12605 0
M  V30 5380 O 508.606 1.5629 1.15269 0
M  V30 5381 C 505.736 3.02171 1.71201 0
M  V30 5382 C 504.69 4.0895 1.26268 0
M  V30 5383 C 504.016 4.71915 2.51396 0
M  V30 5384 C 505.316 5.20891 0.383419 0
M  V30 5385 H 507.01 2.99343 -0.0584517 0
M  V30 5386 H 504.556 1.4397 -0.0295527 0
M  V30 5387 H 506.509 3.51681 2.32161 0
M  V30 5388 H 505.233 2.27433 2.34397 0
M  V30 5389 H 503.892 3.60312 0.676062 0
M  V30 5390 H 503.54 3.93801 3.12937 0
M  V30 5391 H 503.24 5.44039 2.22026 0
M  V30 5392 H 504.764 5.24195 3.13133 0
M  V30 5393 H 506.178 5.66206 0.899082 0
M  V30 5394 H 504.575 5.99821 0.182857 0
M  V30 5395 H 505.645 4.81324 -0.587821 0
M  V30 5396 N 506.988 0.0434614 1.5754 0
M  V30 5397 C 508.399 -0.493343 1.80064 0
M  V30 5398 C 508.75 -1.71388 0.955023 0
M  V30 5399 O 507.875 -2.15736 0.169434 0
M  V30 5400 C 508.47 -0.90179 3.26578 0
M  V30 5401 C 507.029 -1.38362 3.50047 0
M  V30 5402 C 506.176 -0.355129 2.75017 0
M  V30 5403 H 509.127 0.2694 1.56397 0
M  V30 5404 H 509.148 -1.76523 3.37075 0
M  V30 5405 H 508.66 -0.013271 3.88098 0
M  V30 5406 H 506.761 -2.29159 2.93798 0
M  V30 5407 H 506.874 -1.3811 4.58762 0
M  V30 5408 H 505.238 -0.826348 2.40922 0
M  V30 5409 H 506.021 0.525172 3.39259 0
M  V30 5410 N 508.466 -1.55915 -0.229846 0
M  V30 5411 C 509.691 -1.8296 -0.976743 0
M  V30 5412 C 510.116 -0.622735 -1.77493 0
M  V30 5413 O 509.474 0.428431 -1.76165 0
M  V30 5414 C 509.522 -3.07916 -1.8767 0
M  V30 5415 O 508.626 -2.86028 -2.97088 0
M  V30 5416 H 507.967 -0.603453 -0.277021 0
M  V30 5417 H 510.497 -2.0312 -0.245669 0
M  V30 5418 H 510.507 -3.37802 -2.2881 0
M  V30 5419 H 509.182 -3.95389 -1.28996 0
M  V30 5420 H 507.759 -2.67355 -2.59954 0
M  V30 5421 N 509.944 0.496216 -1.49584 0
M  V30 5422 C 511.221 1.25755 -1.49816 0
M  V30 5423 C 511.601 2.09859 -0.228572 0
M  V30 5424 O 510.949 2.14449 0.788908 0
M  V30 5425 C 511.159 2.11017 -2.7798 0
M  V30 5426 C 512.507 2.70047 -3.27658 0
M  V30 5427 O 513.531 2.21281 -2.79129 0
M  V30 5428 O 512.39 3.58834 -4.1219 0
M  V30 5429 H 509.484 0.569322 -0.599834 0
M  V30 5430 H 512.03 0.510094 -1.61852 0
M  V30 5431 H 510.802 1.48879 -3.61871 0
M  V30 5432 H 510.425 2.92947 -2.68827 0
M  V30 5433 N 511.423 1.38739 0.74761 0
M  V30 5434 C 512.67 1.35274 1.50689 0
M  V30 5435 C 512.998 -0.0553359 1.94421 0
M  V30 5436 O 512.253 -1.03365 1.66175 0
M  V30 5437 C 512.552 2.25992 2.7688 0
M  V30 5438 C 512.218 3.73854 2.5208 0
M  V30 5439 C 510.88 4.14145 2.45025 0
M  V30 5440 C 513.232 4.67427 2.30568 0
M  V30 5441 C 510.56 5.4609 2.14483 0
M  V30 5442 C 512.912 5.99635 2.01545 0
M  V30 5443 C 511.576 6.39004 1.92951 0
M  V30 5444 H 510.846 0.495003 0.55141 0
M  V30 5445 H 513.493 1.71145 0.859158 0
M  V30 5446 H 511.798 1.83196 3.46333 0
M  V30 5447 H 513.495 2.20611 3.34861 0
M  V30 5448 H 510.085 3.41913 2.58444 0
M  V30 5449 H 514.269 4.3714 2.34994 0
M  V30 5450 H 509.525 5.75528 2.06342 0
M  V30 5451 H 513.699 6.71678 1.83906 0
M  V30 5452 H 511.326 7.41165 1.6905 0
M  V30 5453 N 512.901 -0.976442 1.23707 0
M  V30 5454 C 514.126 -1.75875 1.09922 0
M  V30 5455 C 514.551 -1.84911 -0.34489 0
M  V30 5456 O 513.909 -1.31363 -1.24954 0
M  V30 5457 C 513.957 -3.16179 1.73388 0
M  V30 5458 O 513.061 -4.00124 0.99871 0
M  V30 5459 H 512.402 -0.540954 0.385052 0
M  V30 5460 H 514.932 -1.22546 1.6384 0
M  V30 5461 H 514.942 -3.66741 1.78788 0
M  V30 5462 H 513.617 -3.08917 2.78466 0
M  V30 5463 H 512.194 -3.58624 1.02193 0
M  V30 5464 N 514.379 -1.04941 -1.1758 0
M  V30 5465 C 515.326 -0.648155 -2.21512 0
M  V30 5466 C 516.296 0.348431 -1.62404 0
M  V30 5467 O 517.481 0.240419 -1.89279 0
M  V30 5468 C 514.621 -0.0264291 -3.4509 0
M  V30 5469 C 513.734 -1.07154 -4.185 0
M  V30 5470 C 512.869 -0.417403 -5.29558 0
M  V30 5471 C 511.908 -1.447 -5.94751 0
M  V30 5472 N 511.045 -0.817203 -6.97328 0
M  V30 5473 H 515.885 -1.53891 -2.55189 0
M  V30 5474 H 513.422 -0.769699 -1.25356 0
M  V30 5475 H 515.38 0.351456 -4.15717 0
M  V30 5476 H 514.01 0.827802 -3.12005 0
M  V30 5477 H 513.062 -1.56728 -3.46613 0
M  V30 5478 H 514.374 -1.8532 -4.63096 0
M  V30 5479 H 513.528 0.0142061 -6.06698 0
M  V30 5480 H 512.267 0.396265 -4.86087 0
M  V30 5481 H 511.272 -1.88865 -5.16343 0
M  V30 5482 H 512.497 -2.26252 -6.40302 0
M  V30 5483 H 510.443 -0.0239995 -6.55996 0
M  V30 5484 H 510.36 -1.53644 -7.40223 0
M  V30 5485 H 511.628 -0.410283 -7.7842 0
M  V30 5486 N 515.857 1.33968 -0.830081 0
M  V30 5487 C 516.804 2.29387 -0.255008 0
M  V30 5488 C 517.774 1.53923 0.624243 0
M  V30 5489 O 518.959 1.82262 0.564372 0
M  V30 5490 C 516.099 3.4034 0.571209 0
M  V30 5491 C 515.212 4.30729 -0.331083 0
M  V30 5492 C 514.347 5.2879 0.505389 0
M  V30 5493 C 513.386 6.10819 -0.395843 0
M  V30 5494 N 512.523 7.00948 0.401979 0
M  V30 5495 H 517.363 2.77972 -1.07404 0
M  V30 5496 H 514.9 1.36785 -0.541133 0
M  V30 5497 H 516.858 4.03361 1.06562 0
M  V30 5498 H 515.488 2.9297 1.35529 0
M  V30 5499 H 514.54 3.68507 -0.943759 0
M  V30 5500 H 515.852 4.88181 -1.02377 0
M  V30 5501 H 515.006 5.97297 1.06399 0
M  V30 5502 H 513.745 4.71894 1.23155 0
M  V30 5503 H 512.75 5.41238 -0.966529 0
M  V30 5504 H 513.975 6.69797 -1.12023 0
M  V30 5505 H 511.921 6.46512 1.11168 0
M  V30 5506 H 511.838 7.55643 -0.232167 0
M  V30 5507 H 513.106 7.73774 0.943102 0
M  V30 5508 N 517.335 0.585699 1.46312 0
M  V30 5509 C 518.612 0.00542031 1.95599 0
M  V30 5510 C 518.992 -1.45619 1.52834 0
M  V30 5511 O 518.34 -2.14759 0.780446 0
M  V30 5512 C 518.55 0.180601 3.48532 0
M  V30 5513 C 519.898 0.049979 4.24571 0
M  V30 5514 O 520.922 0.109589 3.56031 0
M  V30 5515 O 519.781 -0.0832226 5.46437 0
M  V30 5516 H 516.875 -0.0481281 0.825598 0
M  V30 5517 H 519.421 0.654227 1.56582 0
M  V30 5518 H 518.193 1.19657 3.72556 0
M  V30 5519 H 517.816 -0.504498 3.94386 0
M  V30 5520 N 518.813 -1.54241 0.323641 0
M  V30 5521 C 520.043 -2.04687 -0.280464 0
M  V30 5522 C 520.451 -1.19939 -1.46326 0
M  V30 5523 O 519.794 -0.222872 -1.82343 0
M  V30 5524 C 519.856 -3.50978 -0.778123 0
M  V30 5525 C 519.52 -4.56127 0.282371 0
M  V30 5526 C 520.517 -5.07726 1.11847 0
M  V30 5527 C 518.202 -5.00451 0.430582 0
M  V30 5528 C 520.196 -6.02212 2.08851 0
M  V30 5529 C 517.883 -5.94752 1.40404 0
M  V30 5530 C 518.881 -6.45519 2.23147 0
M  V30 5531 O 518.569 -7.37968 3.1884 0
M  V30 5532 H 518.301 -0.673192 -0.0615473 0
M  V30 5533 H 520.855 -1.99999 0.467921 0
M  V30 5534 H 519.085 -3.53064 -1.57742 0
M  V30 5535 H 520.774 -3.84499 -1.30058 0
M  V30 5536 H 521.54 -4.74261 1.01496 0
M  V30 5537 H 517.419 -4.6055 -0.203569 0
M  V30 5538 H 520.963 -6.41761 2.73474 0
M  V30 5539 H 516.86 -6.27633 1.5082 0
M  V30 5540 H 517.628 -7.55841 3.14079 0
M  V30 5541 N 520.291 -0.0518155 -1.57515 0
M  V30 5542 C 521.238 0.922352 -2.11569 0
M  V30 5543 C 522.208 1.30842 -1.02321 0
M  V30 5544 O 523.393 1.39778 -1.29872 0
M  V30 5545 C 520.533 2.19167 -2.6657 0
M  V30 5546 C 519.646 1.86003 -3.89906 0
M  V30 5547 C 518.781 3.07398 -4.33221 0
M  V30 5548 C 517.82 2.70158 -5.49255 0
M  V30 5549 N 516.957 3.84248 -5.8762 0
M  V30 5550 H 521.797 0.454506 -2.94514 0
M  V30 5551 H 519.334 0.212718 -1.45554 0
M  V30 5552 H 521.292 2.93443 -2.96559 0
M  V30 5553 H 519.922 2.63528 -1.86421 0
M  V30 5554 H 518.974 1.01874 -3.66505 0
M  V30 5555 H 520.286 1.54592 -4.74239 0
M  V30 5556 H 519.44 3.89972 -4.64765 0
M  V30 5557 H 518.179 3.41988 -3.477 0
M  V30 5558 H 517.184 1.86001 -5.17382 0
M  V30 5559 H 518.409 2.36759 -6.36492 0
M  V30 5560 H 516.355 4.18638 -5.05053 0
M  V30 5561 H 516.272 3.56538 -6.66646 0
M  V30 5562 H 517.54 4.6746 -6.2378 0
M  V30 5563 N 521.769 1.56035 0.221574 0
M  V30 5564 C 522.699 1.95434 1.2778 0
M  V30 5565 C 523.68 0.822564 1.48889 0
M  V30 5566 O 524.865 1.08486 1.61072 0
M  V30 5567 C 521.995 2.27102 2.62759 0
M  V30 5568 C 520.949 3.4277 2.56306 0
M  V30 5569 C 520.275 3.60043 3.95314 0
M  V30 5570 C 521.575 4.77742 2.11093 0
M  V30 5571 H 523.269 2.83912 0.950504 0
M  V30 5572 H 520.815 1.36596 0.455791 0
M  V30 5573 H 522.768 2.53256 3.36807 0
M  V30 5574 H 521.492 1.35478 2.97176 0
M  V30 5575 H 520.151 3.16664 1.84715 0
M  V30 5576 H 519.799 2.65794 4.27039 0
M  V30 5577 H 519.499 4.37841 3.91879 0
M  V30 5578 H 521.023 3.88545 4.71025 0
M  V30 5579 H 522.437 5.03102 2.74885 0
M  V30 5580 H 520.834 5.58823 2.18716 0
M  V30 5581 H 521.904 4.731 1.06321 0
M  V30 5582 N 523.247 -0.488276 1.49845 0
M  V30 5583 C 524.493 -1.24341 1.6021 0
M  V30 5584 C 524.826 -1.91967 0.293651 0
M  V30 5585 O 524.101 -1.81323 -0.703718 0
M  V30 5586 C 524.384 -2.3005 2.77036 0
M  V30 5587 C 524.237 -1.66842 4.17713 0
M  V30 5588 C 525.556 -3.31509 2.89464 0
M  V30 5589 H 522.675 -0.450704 0.583125 0
M  V30 5590 H 525.317 -0.539673 1.82174 0
M  V30 5591 H 523.467 -2.90071 2.58439 0
M  V30 5592 H 525.139 -1.1055 4.47858 0
M  V30 5593 H 523.382 -0.972079 4.22768 0
M  V30 5594 H 524.053 -2.43576 4.95353 0
M  V30 5595 H 526.529 -2.81493 3.06433 0
M  V30 5596 H 525.405 -4.02822 3.72861 0
M  V30 5597 H 525.666 -3.94603 1.99351 0
M  V30 5598 N 524.725 -1.39134 -0.740242 0
M  V30 5599 C 525.971 -1.36273 -1.50192 0
M  V30 5600 C 526.304 0.0430136 -1.94152 0
M  V30 5601 O 525.579 1.00691 -1.66408 0
M  V30 5602 C 525.862 -2.33041 -2.74525 0
M  V30 5603 C 525.715 -3.82535 -2.36617 0
M  V30 5604 C 527.034 -2.27723 -3.76604 0
M  V30 5605 H 524.153 -0.496323 -0.544823 0
M  V30 5606 H 526.795 -1.70085 -0.846815 0
M  V30 5607 H 524.945 -2.04337 -3.30422 0
M  V30 5608 H 526.617 -4.21967 -1.86391 0
M  V30 5609 H 524.86 -3.99565 -1.68909 0
M  V30 5610 H 525.531 -4.45723 -3.2563 0
M  V30 5611 H 528.007 -2.53091 -3.30279 0
M  V30 5612 H 526.883 -2.97519 -4.61274 0
M  V30 5613 H 527.144 -1.28049 -4.2315 0
M  V30 5614 N 526.204 0.969867 -1.24223 0
M  V30 5615 C 527.114 2.09806 -1.0497 0
M  V30 5616 C 528.13 1.73998 0.00886455 0
M  V30 5617 O 529.306 2.00513 -0.188848 0
M  V30 5618 C 526.371 3.40467 -0.654452 0
M  V30 5619 C 525.432 3.90236 -1.78926 0
M  V30 5620 C 524.665 5.14662 -1.41277 0
M  V30 5621 O 524.888 5.69602 -0.301632 0
M  V30 5622 O 523.822 5.58761 -2.23763 0
M  V30 5623 H 527.648 2.28942 -1.99548 0
M  V30 5624 H 525.233 1.08197 -1.03023 0
M  V30 5625 H 527.115 4.19039 -0.445452 0
M  V30 5626 H 525.79 3.22636 0.262216 0
M  V30 5627 H 524.697 3.12735 -2.05299 0
M  V30 5628 H 526.03 4.1254 -2.68462 0
M  V30 5629 N 527.682 1.05563 1.17022 0
M  V30 5630 C 528.959 0.68165 1.83338 0
M  V30 5631 C 529.339 -0.837665 1.93769 0
M  V30 5632 O 528.687 -1.74507 1.47511 0
M  V30 5633 C 528.897 1.375 3.20772 0
M  V30 5634 C 530.245 1.51545 3.96635 0
M  V30 5635 O 531.269 1.33431 3.30264 0
M  V30 5636 O 530.128 1.812 5.15586 0
M  V30 5637 H 527.222 0.240412 0.791285 0
M  V30 5638 H 529.768 1.15545 1.24288 0
M  V30 5639 H 528.54 2.41135 3.08171 0
M  V30 5640 H 528.163 0.890798 3.87493 0
M  V30 5641 N 529.16 -1.33526 0.837174 0
M  V30 5642 C 530.408 -1.97446 0.431211 0
M  V30 5643 C 530.729 -1.6665 -1.01255 0
M  V30 5644 O 529.999 -0.964559 -1.70508 0
M  V30 5645 H 528.579 -0.73043 0.156463 0
M  V30 5646 H 531.241 -1.62918 1.06976 0
M  V30 5647 H 530.337 -3.07001 0.561877 0
M  V30 5648 N 530.638 -0.59345 -1.46 0
M  V30 5649 C 531.585 0.133618 -2.30413 0
M  V30 5650 C 532.555 0.873736 -1.41262 0
M  V30 5651 O 533.74 0.862279 -1.70204 0
M  V30 5652 C 530.88 1.13434 -3.25924 0
M  V30 5653 C 529.993 0.39656 -4.30176 0
M  V30 5654 C 529.128 1.38575 -5.12806 0
M  V30 5655 C 528.167 0.634984 -6.08797 0
M  V30 5656 N 527.304 1.57276 -6.84258 0
M  V30 5657 H 532.144 -0.592252 -2.92055 0
M  V30 5658 H 529.681 -0.303874 -1.43927 0
M  V30 5659 H 531.639 1.72752 -3.79753 0
M  V30 5660 H 530.269 1.82779 -2.66067 0
M  V30 5661 H 529.321 -0.311861 -3.79119 0
M  V30 5662 H 530.633 -0.189869 -4.98438 0
M  V30 5663 H 529.787 2.05141 -5.70966 0
M  V30 5664 H 528.526 2.00611 -4.44529 0
M  V30 5665 H 527.531 -0.0443925 -5.49782 0
M  V30 5666 H 528.756 0.0198678 -6.79097 0
M  V30 5667 H 526.702 2.18103 -6.18682 0
M  V30 5668 H 526.619 1.03941 -7.48821 0
M  V30 5669 H 527.887 2.22844 -7.46968 0
M  V30 5670 N 532.116 1.54067 -0.331816 0
M  V30 5671 C 533.362 2.01012 0.268667 0
M  V30 5672 C 533.695 1.2195 1.51136 0
M  V30 5673 O 532.97 0.303972 1.9211 0
M  V30 5674 C 533.253 3.55158 0.59456 0
M  V30 5675 C 533.106 4.4494 -0.659409 0
M  V30 5676 C 534.425 4.16939 1.4089 0
M  V30 5677 H 531.544 0.730698 0.0961756 0
M  V30 5678 H 534.186 1.84593 -0.450031 0
M  V30 5679 H 532.336 3.6928 1.20685 0
M  V30 5680 H 534.008 4.42675 -1.29756 0
M  V30 5681 H 532.251 4.1428 -1.28665 0
M  V30 5682 H 532.922 5.50643 -0.386804 0
M  V30 5683 H 535.398 4.06443 0.891272 0
M  V30 5684 H 534.274 5.24889 1.60569 0
M  V30 5685 H 534.535 3.70798 2.40752 0
M  V30 5686 N 533.594 0.0601682 1.57485 0
M  V30 5687 C 534.544 -0.920969 2.08572 0
M  V30 5688 C 535.528 -1.26617 0.992827 0
M  V30 5689 O 536.72 -1.24708 1.25606 0
M  V30 5690 C 533.849 -2.19267 2.64153 0
M  V30 5691 C 532.935 -1.87447 3.80427 0
M  V30 5692 N 533.326 -1.26025 4.89848 0
M  V30 5693 C 531.624 -2.17265 3.89502 0
M  V30 5694 C 532.325 -1.12036 5.70809 0
M  V30 5695 N 531.301 -1.62624 5.18705 0
M  V30 5696 H 535.103 -0.441561 2.90564 0
M  V30 5697 H 532.617 -0.144043 1.6176 0
M  V30 5698 H 534.614 -2.90462 2.99061 0
M  V30 5699 H 533.274 -2.67806 1.83603 0
M  V30 5700 H 534.285 -0.931336 5.09457 0
M  V30 5701 H 530.962 -2.68262 3.19909 0
M  V30 5702 H 532.352 -0.642783 6.68818 0
M  V30 5703 N 535.072 -1.5615 -0.213296 0
M  V30 5704 C 536.035 -1.92249 -1.24792 0
M  V30 5705 C 537.035 -0.801828 -1.39382 0
M  V30 5706 O 538.225 -1.06948 -1.37506 0
M  V30 5707 C 535.357 -2.18056 -2.62039 0
M  V30 5708 H 536.55 -2.84793 -0.939845 0
M  V30 5709 H 534.103 -1.49559 -0.454062 0
M  V30 5710 H 534.838 -1.2809 -2.97932 0
M  V30 5711 H 534.623 -2.99703 -2.52825 0
M  V30 5712 H 536.113 -2.47051 -3.36683 0
M  V30 5713 N 536.55 0.480323 -1.50102 0
M  V30 5714 C 537.827 1.24159 -1.51142 0
M  V30 5715 C 538.207 2.09605 -0.250818 0
M  V30 5716 O 537.555 2.15274 0.766118 0
M  V30 5717 C 537.765 2.08057 -2.80202 0
M  V30 5718 C 539.113 2.66556 -3.30504 0
M  V30 5719 O 540.137 2.18308 -2.81461 0
M  V30 5720 O 538.996 3.54442 -4.15973 0
M  V30 5721 H 536.09 0.562928 -0.605839 0
M  V30 5722 H 538.636 0.492899 -1.62384 0
M  V30 5723 H 537.408 1.45032 -3.6343 0
M  V30 5724 H 537.031 2.90079 -2.71919 0
M  V30 5725 N 538.028 1.39524 0.732853 0
M  V30 5726 C 539.258 1.3994 1.51988 0
M  V30 5727 C 539.666 -0.00727973 1.89199 0
M  V30 5728 O 539.009 -0.989521 1.54771 0
M  V30 5729 C 539.071 2.21026 2.83527 0
M  V30 5730 C 538.735 3.69633 2.68738 0
M  V30 5731 C 539.732 4.62665 2.37143 0
M  V30 5732 C 537.417 4.13244 2.85542 0
M  V30 5733 C 539.411 5.97291 2.22536 0
M  V30 5734 C 537.098 5.47945 2.70554 0
M  V30 5735 C 538.096 6.39783 2.39097 0
M  V30 5736 O 537.784 7.72002 2.24204 0
M  V30 5737 H 537.516 0.479795 0.476206 0
M  V30 5738 H 540.07 1.8399 0.913054 0
M  V30 5739 H 538.3 1.71728 3.46477 0
M  V30 5740 H 539.989 2.13594 3.45156 0
M  V30 5741 H 540.755 4.30272 2.2381 0
M  V30 5742 H 536.634 3.42094 3.09019 0
M  V30 5743 H 540.178 6.68939 1.97905 0
M  V30 5744 H 536.075 5.79928 2.83466 0
M  V30 5745 H 536.843 7.8275 2.39258 0
M  V30 5746 N 539.506 -0.963266 1.24736 0
M  V30 5747 C 540.917 -1.52145 1.08207 0
M  V30 5748 C 541.268 -1.93142 -0.345061 0
M  V30 5749 O 540.393 -1.77769 -1.23399 0
M  V30 5750 C 540.988 -2.76486 1.95808 0
M  V30 5751 C 539.547 -3.28646 1.8349 0
M  V30 5752 C 538.694 -2.01529 1.90476 0
M  V30 5753 H 541.645 -0.781083 1.38148 0
M  V30 5754 H 541.666 -3.49986 1.49297 0
M  V30 5755 H 541.178 -2.46617 2.99669 0
M  V30 5756 H 539.279 -3.63357 0.824787 0
M  V30 5757 H 539.392 -3.97246 2.67829 0
M  V30 5758 H 537.756 -2.16442 1.34258 0
M  V30 5759 H 538.539 -1.7402 2.95926 0
M  V30 5760 N 540.985 -1.06182 -1.16461 0
M  V30 5761 C 542.401 -0.785065 -1.38956 0
M  V30 5762 C 542.601 0.616103 -1.9185 0
M  V30 5763 O 541.657 1.37686 -2.11657 0
M  V30 5764 C 542.97 -1.84902 -2.37132 0
M  V30 5765 C 544.518 -1.8724 -2.50819 0
M  V30 5766 C 544.993 -2.92686 -3.52277 0
M  V30 5767 N 546.484 -2.91712 -3.59803 0
M  V30 5768 C 547.219 -3.69949 -4.38093 0
M  V30 5769 N 546.715 -4.58 -5.19815 0
M  V30 5770 N 548.508 -3.58346 -4.33064 0
M  V30 5771 H 540.659 -1.96569 -0.804634 0
M  V30 5772 H 542.922 -0.851747 -0.416211 0
M  V30 5773 H 542.628 -2.85518 -2.0536 0
M  V30 5774 H 542.502 -1.69908 -3.36766 0
M  V30 5775 H 544.889 -0.872827 -2.81897 0
M  V30 5776 H 544.97 -2.06311 -1.51226 0
M  V30 5777 H 544.614 -3.92835 -3.21937 0
M  V30 5778 H 544.544 -2.70864 -4.51598 0
M  V30 5779 H 547.035 -2.27876 -3.01464 0
M  V30 5780 H 547.348 -5.14357 -5.76764 0
M  V30 5781 H 545.693 -4.62056 -5.19162 0
M  V30 5782 H 548.884 -2.88943 -3.68279 0
M  V30 5783 H 549.057 -4.19563 -4.93833 0
M  V30 5784 N 542.463 1.3308 -0.844243 0
M  V30 5785 C 543.373 2.32876 -0.283922 0
M  V30 5786 C 544.389 1.63589 0.592846 0
M  V30 5787 O 545.565 1.95205 0.495693 0
M  V30 5788 C 542.63 3.42667 0.527283 0
M  V30 5789 C 541.691 4.27664 -0.374394 0
M  V30 5790 C 540.924 5.32212 0.39819 0
M  V30 5791 O 541.147 5.46635 1.62932 0
M  V30 5792 O 540.081 6.01458 -0.2306 0
M  V30 5793 H 543.907 2.82671 -1.11045 0
M  V30 5794 H 541.492 1.36518 -0.606903 0
M  V30 5795 H 543.374 4.09652 0.988078 0
M  V30 5796 H 542.049 2.95079 1.33078 0
M  V30 5797 H 540.956 3.63526 -0.883144 0
M  V30 5798 H 542.289 4.78749 -1.1428 0
M  V30 5799 N 543.941 0.601185 1.45683 0
M  V30 5800 C 545.188 0.0938811 2.02282 0
M  V30 5801 C 545.516 -1.27315 1.47041 0
M  V30 5802 O 544.771 -1.85193 0.632623 0
M  V30 5803 C 545.07 -0.00222425 3.574 0
M  V30 5804 C 544.736 1.29963 4.31764 0
M  V30 5805 C 543.398 1.65625 4.51798 0
M  V30 5806 C 545.75 2.1603 4.74321 0
M  V30 5807 C 543.078 2.87119 5.11644 0
M  V30 5808 C 545.43 3.36766 5.3551 0
M  V30 5809 C 544.094 3.72689 5.53768 0
M  V30 5810 H 543.364 0.0343535 0.740203 0
M  V30 5811 H 546.011 0.781522 1.74827 0
M  V30 5812 H 544.316 -0.773096 3.84097 0
M  V30 5813 H 546.013 -0.410794 3.9889 0
M  V30 5814 H 542.603 1.01204 4.1648 0
M  V30 5815 H 546.787 1.89778 4.58582 0
M  V30 5816 H 542.043 3.15065 5.2397 0
M  V30 5817 H 546.217 4.03713 5.67441 0
M  V30 5818 H 543.844 4.66918 5.99909 0
M  V30 5819 N 545.419 -1.53889 0.339982 0
M  V30 5820 C 546.668 -2.00035 -0.258604 0
M  V30 5821 C 546.981 -1.23179 -1.51942 0
M  V30 5822 O 548.187 -1.59784 -2.19503 0
M  V30 5823 C 546.643 -3.56249 -0.511359 0
M  V30 5824 C 546.251 -4.41957 0.733349 0
M  V30 5825 C 547.995 -4.1082 -1.069 0
M  V30 5826 C 545.902 -5.89673 0.451591 0
M  V30 5827 H 544.832 -0.747284 -0.10041 0
M  V30 5828 H 547.483 -1.77776 0.454758 0
M  V30 5829 H 545.865 -3.7456 -1.28533 0
M  V30 5830 H 547.039 -4.35421 1.50815 0
M  V30 5831 H 545.354 -3.9836 1.21237 0
M  V30 5832 H 547.951 -5.18789 -1.2947 0
M  V30 5833 H 548.294 -3.63817 -2.02343 0
M  V30 5834 H 548.827 -3.96205 -0.355817 0
M  V30 5835 H 545.566 -6.40903 1.37565 0
M  V30 5836 H 545.086 -5.99122 -0.285193 0
M  V30 5837 H 546.765 -6.46965 0.0675067 0
M  V30 5838 N 546.897 -0.0685191 -1.57451 0
M  V30 5839 C 547.845 0.917577 -2.13736 0
M  V30 5840 C 548.839 1.31049 -1.07344 0
M  V30 5841 O 550.045 1.28811 -1.25728 0
M  V30 5842 H 546.42 0.313835 -0.683382 0
M  V30 5843 H 548.391 0.417903 -2.95459 0
M  V30 5844 C 547.14 2.17686 -2.71123 0
M  V30 5845 H 546.463 1.88336 -3.52661 0
M  V30 5846 H 547.903 2.84803 -3.14107 0
M  V30 5847 C 546.362 2.9332 -1.65726 0
M  V30 5848 O 546.892 3.86901 -1.08031 0
M  V30 5849 N 545.098 2.56367 -1.36837 0
M  V30 5850 H 544.645 1.80341 -1.83943 0
M  V30 5851 H 544.603 3.07276 -0.665501 0
M  V30 5852 N 548.375 1.56261 0.205012 0
M  V30 5853 C 549.322 1.93754 1.25411 0
M  V30 5854 C 550.292 0.796826 1.45739 0
M  V30 5855 O 551.477 1.05414 1.59036 0
M  V30 5856 C 548.617 2.27383 2.59598 0
M  V30 5857 C 547.73 3.5447 2.46931 0
M  V30 5858 C 546.865 3.77468 3.73753 0
M  V30 5859 C 545.904 4.98014 3.55877 0
M  V30 5860 N 545.041 5.17316 4.74688 0
M  V30 5861 H 549.881 2.83203 0.92737 0
M  V30 5862 H 547.418 1.40158 0.446574 0
M  V30 5863 H 549.376 2.44895 3.37761 0
M  V30 5864 H 548.006 1.41088 2.90335 0
M  V30 5865 H 547.058 3.45061 1.60116 0
M  V30 5866 H 548.37 4.42789 2.29651 0
M  V30 5867 H 547.524 3.95165 4.60358 0
M  V30 5868 H 546.263 2.87461 3.93976 0
M  V30 5869 H 545.268 4.80249 2.67657 0
M  V30 5870 H 546.493 5.8952 3.37109 0
M  V30 5871 H 544.439 4.30255 4.95194 0
M  V30 5872 H 544.356 5.99796 4.60197 0
M  V30 5873 H 545.624 5.39463 5.62672 0
M  V30 5874 N 549.853 -0.472356 1.50355 0
M  V30 5875 C 551.13 -1.23356 1.51798 0
M  V30 5876 C 551.51 -2.09469 0.26193 0
M  V30 5877 O 550.858 -2.15677 -0.754691 0
M  V30 5878 C 551.068 -2.06568 2.81302 0
M  V30 5879 C 552.416 -2.648 3.31913 0
M  V30 5880 O 553.44 -2.16812 2.82614 0
M  V30 5881 O 552.299 -3.52231 4.17846 0
M  V30 5882 H 549.393 -0.559707 0.608816 0
M  V30 5883 H 551.939 -0.48428 1.62643 0
M  V30 5884 H 550.711 -1.43103 3.64194 0
M  V30 5885 H 550.334 -2.88633 2.73454 0
M  V30 5886 N 551.331 -1.39911 -0.725443 0
M  V30 5887 C 552.561 -1.40744 -1.51244 0
M  V30 5888 C 552.969 -0.00275403 -1.892 0
M  V30 5889 O 552.312 0.981299 -1.55294 0
M  V30 5890 C 552.374 -2.22527 -2.82351 0
M  V30 5891 C 552.038 -3.71053 -2.66774 0
M  V30 5892 C 553.035 -4.63916 -2.34686 0
M  V30 5893 C 550.72 -4.14753 -2.83347 0
M  V30 5894 C 552.714 -5.98463 -2.19366 0
M  V30 5895 C 550.401 -5.49372 -2.67644 0
M  V30 5896 C 551.399 -6.41042 -2.357 0
M  V30 5897 O 551.087 -7.73181 -2.20107 0
M  V30 5898 H 550.819 -0.482314 -0.473655 0
M  V30 5899 H 553.373 -1.84472 -0.903284 0
M  V30 5900 H 551.603 -1.73563 -3.45562 0
M  V30 5901 H 553.292 -2.15421 -3.44018 0
M  V30 5902 H 554.058 -4.31453 -2.21525 0
M  V30 5903 H 549.937 -3.43728 -3.072 0
M  V30 5904 H 553.481 -6.69979 -1.94354 0
M  V30 5905 H 549.378 -5.81424 -2.80387 0
M  V30 5906 H 550.146 -7.84008 -2.35103 0
M  V30 5907 N 552.809 0.956637 -1.25245 0
M  V30 5908 C 554.057 1.69764 -1.09657 0
M  V30 5909 C 554.378 1.91583 0.363464 0
M  V30 5910 O 553.648 1.50149 1.25825 0
M  V30 5911 H 552.228 0.629097 -0.402798 0
M  V30 5912 H 554.89 1.15026 -1.57337 0
M  V30 5913 H 553.986 2.67769 -1.60331 0
M  V30 5914 N 554.287 1.06798 1.15896 0
M  V30 5915 C 555.698 0.811355 1.68149 0
M  V30 5916 C 556.049 -0.664339 1.8461 0
M  V30 5917 O 555.174 -1.51485 1.54535 0
M  V30 5918 C 555.769 1.46624 3.05429 0
M  V30 5919 C 554.328 1.25726 3.54781 0
M  V30 5920 C 553.475 1.53949 2.3064 0
M  V30 5921 H 556.426 1.23078 1.00187 0
M  V30 5922 H 556.447 0.88437 3.7008 0
M  V30 5923 H 555.959 2.54025 2.93416 0
M  V30 5924 H 554.06 0.20322 3.72045 0
M  V30 5925 H 554.173 1.97354 4.36564 0
M  V30 5926 H 552.537 0.96025 2.35905 0
M  V30 5927 H 553.32 2.6252 2.2122 0
M  V30 5928 N 555.766 -1.3263 0.851289 0
M  V30 5929 C 557.177 -1.79653 0.5081 0
M  V30 5930 C 557.528 -1.70327 -0.973815 0
M  V30 5931 O 556.653 -1.25986 -1.75944 0
M  V30 5932 C 557.248 -3.26196 0.915515 0
M  V30 5933 C 555.807 -3.71187 0.624277 0
M  V30 5934 C 554.954 -2.53804 1.11709 0
M  V30 5935 H 557.905 -1.19976 1.03882 0
M  V30 5936 H 557.926 -3.79801 0.230535 0
M  V30 5937 H 557.438 -3.32952 1.99411 0
M  V30 5938 H 555.539 -3.69948 -0.443737 0
M  V30 5939 H 555.652 -4.64132 1.18821 0
M  V30 5940 H 554.016 -2.48964 0.537484 0
M  V30 5941 H 554.799 -2.63315 2.20272 0
M  V30 5942 N 557.244 -0.608902 -1.45362 0
M  V30 5943 C 558.472 -0.111013 -2.06602 0
M  V30 5944 C 558.887 1.20516 -1.45332 0
M  V30 5945 O 558.244 1.73437 -0.567978 0
M  V30 5946 C 558.295 0.033688 -3.61484 0
M  V30 5947 O 558.016 -1.23041 -4.20467 0
M  V30 5948 C 559.517 0.562882 -4.39712 0
M  V30 5949 H 556.737 -0.0694453 -0.667397 0
M  V30 5950 H 559.281 -0.837008 -1.86586 0
M  V30 5951 H 557.436 0.710016 -3.80838 0
M  V30 5952 H 557.85 -1.06094 -5.13658 0
M  V30 5953 H 559.324 0.613213 -5.48583 0
M  V30 5954 H 559.801 1.58543 -4.09586 0
M  V30 5955 H 560.407 -0.0794454 -4.25226 0
M  V30 5956 N 558.722 1.53707 -0.348139 0
M  V30 5957 C 559.968 2.01286 0.247332 0
M  V30 5958 C 560.301 1.23546 1.49834 0
M  V30 5959 O 559.576 0.324331 1.91777 0
M  V30 5960 C 559.859 3.55768 0.556858 0
M  V30 5961 C 559.712 4.44216 -0.706564 0
M  V30 5962 C 561.031 4.1841 1.3646 0
M  V30 5963 H 558.15 0.731677 0.0884201 0
M  V30 5964 H 560.792 1.84106 -0.469584 0
M  V30 5965 H 558.942 3.70539 1.16761 0
M  V30 5966 H 560.614 4.41274 -1.34444 0
M  V30 5967 H 558.857 4.12892 -1.33052 0
M  V30 5968 H 559.528 5.50202 -0.445186 0
M  V30 5969 H 562.004 4.07365 0.848113 0
M  V30 5970 H 560.88 5.26563 1.54992 0
M  V30 5971 H 561.141 3.7333 2.36805 0
M  V30 5972 N 560.2 0.0768682 1.57412 0
M  V30 5973 C 561.11 -0.903207 2.16516 0
M  V30 5974 C 562.126 -1.32341 1.12968 0
M  V30 5975 O 563.302 -1.39507 1.45258 0
M  V30 5976 C 560.367 -2.1508 2.71922 0
M  V30 5977 C 559.428 -1.78653 3.90361 0
M  V30 5978 C 558.661 -2.97465 4.43114 0
M  V30 5979 O 558.884 -4.11638 3.94854 0
M  V30 5980 O 557.818 -2.76987 5.3438 0
M  V30 5981 H 561.644 -0.430427 3.00634 0
M  V30 5982 H 559.229 -0.146485 1.4868 0
M  V30 5983 H 561.111 -2.8823 3.07411 0
M  V30 5984 H 559.786 -2.61446 1.9086 0
M  V30 5985 H 558.693 -1.0274 3.59716 0
M  V30 5986 H 560.026 -1.37066 4.7273 0
M  V30 5987 N 561.678 -1.56367 -0.196722 0
M  V30 5988 C 562.924 -1.80796 -0.918725 0
M  V30 5989 C 563.257 -0.650645 -1.82976 0
M  V30 5990 O 562.532 0.348889 -1.91345 0
M  V30 5991 C 562.815 -3.15472 -1.73636 0
M  V30 5992 C 562.668 -4.41693 -0.85015 0
M  V30 5993 C 563.987 -3.46824 -2.70927 0
M  V30 5994 H 561.106 -0.657702 -0.332561 0
M  V30 5995 H 563.748 -1.89086 -0.186186 0
M  V30 5996 H 561.898 -3.08536 -2.36088 0
M  V30 5997 H 563.57 -4.60673 -0.240459 0
M  V30 5998 H 561.813 -4.33517 -0.156785 0
M  V30 5999 H 562.484 -5.32419 -1.45719 0
M  V30 6000 H 564.96 -3.54049 -2.18607 0
M  V30 6001 H 563.836 -4.4218 -3.25219 0
M  V30 6002 H 564.097 -2.70236 -3.49893 0
M  V30 6003 N 563.156 0.464375 -1.50603 0
M  V30 6004 C 564.106 1.55929 -1.66343 0
M  V30 6005 C 565.09 1.52338 -0.517887 0
M  V30 6006 O 566.282 1.59248 -0.772601 0
M  V30 6007 C 563.411 2.94327 -1.7671 0
M  V30 6008 C 562.497 3.02777 -2.96962 0
M  V30 6009 N 562.888 2.81026 -4.20545 0
M  V30 6010 C 561.186 3.33919 -2.95659 0
M  V30 6011 C 561.887 2.94618 -5.01573 0
M  V30 6012 N 560.863 3.25112 -4.35664 0
M  V30 6013 H 564.665 1.37822 -2.59581 0
M  V30 6014 H 562.179 0.671227 -1.47879 0
M  V30 6015 H 564.176 3.73063 -1.86091 0
M  V30 6016 H 562.836 3.13476 -0.846353 0
M  V30 6017 H 563.847 2.56477 -4.49933 0
M  V30 6018 H 560.524 3.59013 -2.13111 0
M  V30 6019 H 561.914 2.81984 -6.09865 0
M  V30 6020 N 564.634 1.40294 0.718013 0
M  V30 6021 C 565.566 1.36281 1.84283 0
M  V30 6022 C 566.579 0.268621 1.60569 0
M  V30 6023 O 567.768 0.528798 1.70487 0
M  V30 6024 C 564.868 1.09741 3.2064 0
M  V30 6025 C 564.041 2.30767 3.71571 0
M  V30 6026 C 563.1 2.00424 4.86535 0
M  V30 6027 O 562.126 2.73268 4.99313 0
M  V30 6028 N 563.328 0.980724 5.72156 0
M  V30 6029 H 566.093 2.3322 1.88225 0
M  V30 6030 H 563.654 1.34616 0.899453 0
M  V30 6031 H 565.646 0.874322 3.95143 0
M  V30 6032 H 564.216 0.214771 3.11861 0
M  V30 6033 H 563.436 2.68921 2.88228 0
M  V30 6034 H 564.724 3.11455 4.02335 0
M  V30 6035 H 564.122 0.377375 5.6444 0
M  V30 6036 H 562.679 0.817538 6.46653 0
M  V30 6037 N 566.112 -0.949982 1.2575 0
M  V30 6038 C 567.523 -1.50989 1.09815 0
M  V30 6039 C 567.874 -1.93497 -0.324556 0
M  V30 6040 O 566.999 -1.79068 -1.21506 0
M  V30 6041 C 567.594 -2.74394 1.98729 0
M  V30 6042 C 566.153 -3.26682 1.86965 0
M  V30 6043 C 565.3 -1.99498 1.92603 0
M  V30 6044 H 568.251 -0.766387 1.38968 0
M  V30 6045 H 568.272 -3.48383 1.53001 0
M  V30 6046 H 567.784 -2.43425 3.02268 0
M  V30 6047 H 565.885 -3.62461 0.863279 0
M  V30 6048 H 565.998 -3.94383 2.72027 0
M  V30 6049 H 564.362 -2.15005 1.36546 0
M  V30 6050 H 565.145 -1.70871 2.97755 0
M  V30 6051 N 567.59 -1.07411 -1.15328 0
M  V30 6052 C 568.839 -0.792643 -1.85473 0
M  V30 6053 C 569.152 0.683789 -1.83259 0
M  V30 6054 O 570.358 1.08005 -2.49093 0
M  V30 6055 C 568.814 -1.36787 -3.32892 0
M  V30 6056 C 568.422 -2.87536 -3.43551 0
M  V30 6057 C 570.166 -1.16444 -4.08217 0
M  V30 6058 C 568.073 -3.38247 -4.85122 0
M  V30 6059 H 567.003 -0.292838 -0.694811 0
M  V30 6060 H 569.654 -1.29426 -1.30082 0
M  V30 6061 H 568.036 -0.793993 -3.87958 0
M  V30 6062 H 569.21 -3.50973 -2.98588 0
M  V30 6063 H 567.525 -3.06676 -2.81672 0
M  V30 6064 H 570.122 -1.51808 -5.12697 0
M  V30 6065 H 570.465 -0.10353 -4.16171 0
M  V30 6066 H 570.998 -1.70472 -3.59422 0
M  V30 6067 H 567.737 -4.43866 -4.82351 0
M  V30 6068 H 567.257 -2.79564 -5.30664 0
M  V30 6069 H 568.936 -3.34238 -5.5398 0
M  V30 6070 N 569.068 1.32177 -0.85831 0
M  V30 6071 C 570.317 1.96392 -0.459689 0
M  V30 6072 C 570.63 1.68659 0.990632 0
M  V30 6073 O 571.836 2.26641 1.49485 0
M  V30 6074 C 570.292 3.51542 -0.7711 0
M  V30 6075 C 569.9 3.8813 -2.2374 0
M  V30 6076 C 571.644 4.2221 -0.44038 0
M  V30 6077 C 569.551 5.36341 -2.49183 0
M  V30 6078 H 568.481 0.735007 -0.168169 0
M  V30 6079 H 571.132 1.50518 -1.0496 0
M  V30 6080 H 569.514 3.95846 -0.11058 0
M  V30 6081 H 570.688 3.54824 -2.94001 0
M  V30 6082 H 569.003 3.30497 -2.533 0
M  V30 6083 H 571.6 5.31234 -0.607855 0
M  V30 6084 H 571.943 4.11683 0.618291 0
M  V30 6085 H 572.476 3.83502 -1.05695 0
M  V30 6086 H 569.215 5.51892 -3.53689 0
M  V30 6087 H 568.735 5.7104 -1.83504 0
M  V30 6088 H 570.414 6.03466 -2.33318 0
M  V30 6089 N 570.547 0.616602 1.45037 0
M  V30 6090 C 571.479 -0.135186 2.28801 0
M  V30 6091 C 572.492 -0.82303 1.40464 0
M  V30 6092 O 573.681 -0.686909 1.64754 0
M  V30 6093 C 570.781 -1.21292 3.16451 0
M  V30 6094 C 569.954 -0.61043 4.3312 0
M  V30 6095 C 569.013 -1.58022 5.01912 0
M  V30 6096 O 568.039 -1.10301 5.58411 0
M  V30 6097 N 569.241 -2.91464 5.02025 0
M  V30 6098 H 572.006 0.583612 2.93963 0
M  V30 6099 H 569.567 0.456723 1.55324 0
M  V30 6100 H 571.559 -1.86169 3.59337 0
M  V30 6101 H 570.129 -1.83412 2.53138 0
M  V30 6102 H 569.349 0.216638 3.93604 0
M  V30 6103 H 570.637 -0.188293 5.08451 0
M  V30 6104 H 570.035 -3.32829 4.57429 0
M  V30 6105 H 568.592 -3.51741 5.48745 0
M  V30 6106 N 572.025 -1.5352 0.356285 0
M  V30 6107 C 572.972 -2.25439 -0.494569 0
M  V30 6108 C 573.942 -1.25752 -1.08516 0
M  V30 6109 O 575.127 -1.54513 -1.1194 0
M  V30 6110 C 572.267 -3.04011 -1.63313 0
M  V30 6111 C 571.38 -4.18574 -1.06862 0
M  V30 6112 C 570.515 -4.84607 -2.17552 0
M  V30 6113 C 569.554 -5.91218 -1.58518 0
M  V30 6114 N 568.691 -6.50979 -2.63003 0
M  V30 6115 H 573.531 -2.97737 0.125244 0
M  V30 6116 H 571.068 -1.46916 0.0735789 0
M  V30 6117 H 573.026 -3.47834 -2.30363 0
M  V30 6118 H 571.656 -2.33986 -2.22374 0
M  V30 6119 H 570.708 -3.79303 -0.288672 0
M  V30 6120 H 572.02 -4.95215 -0.596924 0
M  V30 6121 H 571.174 -5.31566 -2.92442 0
M  V30 6122 H 569.913 -4.07418 -2.6807 0
M  V30 6123 H 568.918 -5.4363 -0.821391 0
M  V30 6124 H 570.143 -6.70322 -1.08836 0
M  V30 6125 H 568.089 -5.76648 -3.12751 0
M  V30 6126 H 568.006 -7.23131 -2.20493 0
M  V30 6127 H 569.274 -7.02589 -3.37623 0
M  V30 6128 N 573.503 -0.0852151 -1.57369 0
M  V30 6129 C 574.466 0.8627 -2.12344 0
M  V30 6130 C 575.466 1.21746 -1.05046 0
M  V30 6131 O 576.656 1.14852 -1.30976 0
M  V30 6132 C 573.788 2.1618 -2.63589 0
M  V30 6133 H 574.981 0.385511 -2.97412 0
M  V30 6134 H 572.534 0.163663 -1.55441 0
M  V30 6135 H 573.269 2.68406 -1.82013 0
M  V30 6136 H 573.054 1.91723 -3.4203 0
M  V30 6137 H 574.544 2.84011 -3.06149 0
M  V30 6138 N 574.981 1.5647 0.188427 0
M  V30 6139 C 575.929 1.95971 1.25293 0
M  V30 6140 C 576.923 0.846047 1.4676 0
M  V30 6141 O 578.129 1.03109 1.47542 0
M  V30 6142 H 574.504 0.623253 0.420784 0
M  V30 6143 H 576.475 2.84731 0.892792 0
M  V30 6144 C 575.224 2.32116 2.58877 0
M  V30 6145 H 574.547 3.17341 2.43176 0
M  V30 6146 H 575.987 2.63613 3.3209 0
M  V30 6147 C 574.446 1.15823 3.16365 0
M  V30 6148 O 574.976 0.436785 3.99318 0
M  V30 6149 N 573.182 0.933278 2.75206 0
M  V30 6150 H 572.729 1.52169 2.07852 0
M  V30 6151 H 572.687 0.156976 3.14008 0
M  V30 6152 N 576.459 -0.456382 1.50847 0
M  V30 6153 C 577.687 -1.23026 1.66349 0
M  V30 6154 C 578.102 -1.85473 0.352868 0
M  V30 6155 O 577.459 -1.69885 -0.666739 0
M  V30 6156 C 577.51 -2.32827 2.76539 0
M  V30 6157 O 577.231 -1.72938 4.02522 0
M  V30 6158 C 578.732 -3.23448 3.03144 0
M  V30 6159 H 575.952 -0.371527 0.558756 0
M  V30 6160 H 578.496 -0.543082 1.97157 0
M  V30 6161 H 576.651 -2.97294 2.48384 0
M  V30 6162 H 577.065 -2.45357 4.63573 0
M  V30 6163 H 578.539 -3.96669 3.83872 0
M  V30 6164 H 579.016 -3.83094 2.14793 0
M  V30 6165 H 579.622 -2.64702 3.32886 0
M  V30 6166 N 577.937 -1.40673 -0.710563 0
M  V30 6167 C 579.183 -1.39428 -1.47267 0
M  V30 6168 C 579.516 0.00182129 -1.942 0
M  V30 6169 O 578.791 0.971387 -1.68506 0
M  V30 6170 C 579.074 -2.38812 -2.6952 0
M  V30 6171 C 578.927 -3.87467 -2.28449 0
M  V30 6172 C 580.246 -2.3566 -3.71689 0
M  V30 6173 H 577.365 -0.507768 -0.534173 0
M  V30 6174 H 580.007 -1.71843 -0.810547 0
M  V30 6175 H 578.157 -2.113 -3.26013 0
M  V30 6176 H 579.829 -4.25825 -1.77399 0
M  V30 6177 H 578.072 -4.03058 -1.60395 0
M  V30 6178 H 578.743 -4.5253 -3.16103 0
M  V30 6179 H 581.219 -2.6004 -3.24836 0
M  V30 6180 H 580.095 -3.07237 -4.54859 0
M  V30 6181 H 580.356 -1.36996 -4.20339 0
M  V30 6182 N 579.415 0.9433 -1.26252 0
M  V30 6183 C 580.378 2.02326 -1.07689 0
M  V30 6184 C 581.378 1.60779 -0.0259174 0
M  V30 6185 O 582.568 1.72108 -0.269134 0
M  V30 6186 C 579.7 3.34886 -0.63752 0
M  V30 6187 H 580.893 2.20225 -2.0357 0
M  V30 6188 H 578.446 1.12197 -1.08819 0
M  V30 6189 H 579.181 3.22684 0.323377 0
M  V30 6190 H 578.966 3.66393 -1.39637 0
M  V30 6191 H 580.456 4.14231 -0.529418 0
M  V30 6192 N 580.893 1.08022 1.14757 0
M  V30 6193 C 581.84 0.706657 2.19716 0
M  V30 6194 C 582.81 -0.30525 1.63271 0
M  V30 6195 O 583.995 -0.19015 1.8985 0
M  V30 6196 C 581.135 0.117914 3.44898 0
M  V30 6197 C 580.248 1.18212 4.15512 0
M  V30 6198 C 579.383 0.557659 5.28265 0
M  V30 6199 C 578.422 1.60418 5.90705 0
M  V30 6200 N 577.559 1.0018 6.94916 0
M  V30 6201 H 582.399 1.60603 2.51019 0
M  V30 6202 H 579.936 0.802664 1.23271 0
M  V30 6203 H 581.894 -0.241112 4.16503 0
M  V30 6204 H 580.524 -0.744788 3.1409 0
M  V30 6205 H 579.576 1.65863 3.42335 0
M  V30 6206 H 580.888 1.97533 4.5802 0
M  V30 6207 H 580.042 0.146654 6.06523 0
M  V30 6208 H 578.781 -0.267249 4.86967 0
M  V30 6209 H 577.786 2.02489 5.11154 0
M  V30 6210 H 579.011 2.43149 6.34078 0
M  V30 6211 H 576.957 0.197917 6.55701 0
M  V30 6212 H 576.874 1.73216 7.35889 0
M  V30 6213 H 578.142 0.616523 7.77058 0
M  V30 6214 N 582.371 -1.3172 0.865308 0
M  V30 6215 C 583.596 -2.01591 0.487415 0
M  V30 6216 C 584.021 -1.6455 -0.911307 0
M  V30 6217 O 583.379 -0.851689 -1.6005 0
M  V30 6218 C 583.427 -3.54759 0.646401 0
M  V30 6219 O 582.531 -4.11185 -0.316284 0
M  V30 6220 H 581.872 -0.634884 0.194468 0
M  V30 6221 H 584.402 -1.68024 1.16744 0
M  V30 6222 H 584.412 -4.04438 0.537932 0
M  V30 6223 H 583.087 -3.8106 1.66632 0
M  V30 6224 H 581.664 -3.72543 -0.163162 0
M  V30 6225 N 583.85 -0.624285 -1.44708 0
M  V30 6226 C 584.783 0.133905 -2.27807 0
M  V30 6227 C 585.76 0.857794 -1.38133 0
M  V30 6228 O 586.945 0.863277 -1.6757 0
M  V30 6229 C 584.072 1.19541 -3.16903 0
M  V30 6230 C 583.118 0.572813 -4.22636 0
M  V30 6231 S 583.951 -0.631953 -5.31758 0
M  V30 6232 C 585.106 0.429733 -6.24423 0
M  V30 6233 H 585.34 -0.571072 -2.91764 0
M  V30 6234 H 582.873 -0.412261 -1.48794 0
M  V30 6235 H 584.831 1.80293 -3.68788 0
M  V30 6236 H 583.492 1.87255 -2.5218 0
M  V30 6237 H 582.685 1.37205 -4.84965 0
M  V30 6238 H 582.287 0.0400641 -3.73979 0
M  V30 6239 H 584.579 1.30421 -6.64828 0
M  V30 6240 H 585.522 -0.157804 -7.07924 0
M  V30 6241 H 585.93 0.75256 -5.59461 0
M  V30 6242 N 585.328 1.53329 -0.364422 0
M  V30 6243 C 586.574 2.02222 0.21855 0
M  V30 6244 C 586.929 1.24702 1.46517 0
M  V30 6245 O 586.222 0.331969 1.88702 0
M  V30 6246 C 586.416 3.52911 0.564661 0
M  V30 6247 C 586.245 4.45023 -0.646862 0
M  V30 6248 C 585.015 4.91838 -1.15858 0
M  V30 6249 C 587.213 4.91581 -1.51172 0
M  V30 6250 N 585.195 5.67955 -2.33025 0
M  V30 6251 C 586.566 5.66028 -2.53006 0
M  V30 6252 C 588.621 4.73656 -1.53473 0
M  V30 6253 C 587.324 6.24457 -3.56996 0
M  V30 6254 C 589.35 5.3295 -2.56356 0
M  V30 6255 C 588.712 6.07282 -3.56914 0
M  V30 6256 H 584.811 0.780832 0.0427199 0
M  V30 6257 H 587.395 1.87937 -0.508704 0
M  V30 6258 H 585.566 3.6736 1.26099 0
M  V30 6259 H 587.298 3.88528 1.13262 0
M  V30 6260 H 584.053 4.68043 -0.723393 0
M  V30 6261 H 584.477 6.10675 -2.92241 0
M  V30 6262 H 589.119 4.15714 -0.770842 0
M  V30 6263 H 586.837 6.81496 -4.34268 0
M  V30 6264 H 590.423 5.20976 -2.58989 0
M  V30 6265 H 589.303 6.52345 -4.35218 0
M  V30 6266 N 586.806 0.0935595 1.57322 0
M  V30 6267 C 587.716 -0.880192 2.17462 0
M  V30 6268 C 588.732 -1.31135 1.14366 0
M  V30 6269 O 589.908 -1.37958 1.46729 0
M  V30 6270 C 586.973 -2.12184 2.74188 0
M  V30 6271 C 586.034 -1.74503 3.92234 0
M  V30 6272 C 585.267 -2.92748 4.46245 0
M  V30 6273 O 585.49 -4.07427 3.99198 0
M  V30 6274 O 584.424 -2.71303 5.37288 0
M  V30 6275 H 588.25 -0.398516 3.01074 0
M  V30 6276 H 585.835 -0.130707 1.48827 0
M  V30 6277 H 587.717 -2.84953 3.10451 0
M  V30 6278 H 586.392 -2.59407 1.93623 0
M  V30 6279 H 585.299 -0.989186 3.60785 0
M  V30 6280 H 586.632 -1.32044 4.74157 0
M  V30 6281 N 588.284 -1.56567 -0.180126 0
M  V30 6282 C 589.194 -1.98947 -1.24327 0
M  V30 6283 C 590.21 -0.899446 -1.4895 0
M  V30 6284 O 591.386 -1.20639 -1.61271 0
M  V30 6285 C 588.451 -2.33328 -2.56435 0
M  V30 6286 C 587.512 -3.56114 -2.39752 0
M  V30 6287 C 586.745 -3.88845 -3.65561 0
M  V30 6288 O 586.968 -3.22662 -4.70368 0
M  V30 6289 O 585.902 -4.82226 -3.60197 0
M  V30 6290 H 589.728 -2.89634 -0.913565 0
M  V30 6291 H 587.313 -1.44319 -0.386306 0
M  V30 6292 H 589.195 -2.5645 -3.34382 0
M  V30 6293 H 587.87 -1.45806 -2.89002 0
M  V30 6294 H 586.777 -3.38221 -1.59866 0
M  V30 6295 H 588.11 -4.4415 -2.12113 0
M  V30 6296 N 589.762 0.448376 -1.51087 0
M  V30 6297 C 590.712 1.54156 -1.67988 0
M  V30 6298 C 591.696 1.5178 -0.534015 0
M  V30 6299 O 592.888 1.58419 -0.789448 0
M  V30 6300 C 590.017 2.92437 -1.79822 0
M  V30 6301 C 589.103 2.99611 -3.00157 0
M  V30 6302 N 589.494 2.7655 -4.23502 0
M  V30 6303 C 587.792 3.30764 -2.99184 0
M  V30 6304 C 588.493 2.89281 -5.0467 0
M  V30 6305 N 587.469 3.20473 -4.39088 0
M  V30 6306 H 591.271 1.35061 -2.61028 0
M  V30 6307 H 588.785 0.655504 -1.48583 0
M  V30 6308 H 590.782 3.71068 -1.90037 0
M  V30 6309 H 589.442 3.1256 -0.879554 0
M  V30 6310 H 590.453 2.5169 -4.52628 0
M  V30 6311 H 587.13 3.56732 -2.16907 0
M  V30 6312 H 588.52 2.75499 -6.12821 0
M  V30 6313 N 591.24 1.41047 0.703093 0
M  V30 6314 C 592.651 1.35657 1.28274 0
M  V30 6315 C 593.002 0.0360309 1.96167 0
M  V30 6316 O 592.127 -0.865833 1.98324 0
M  V30 6317 C 592.722 2.45707 2.33267 0
M  V30 6318 C 591.281 2.43738 2.86825 0
M  V30 6319 C 590.428 2.25941 1.60767 0
M  V30 6320 H 593.379 1.50672 0.49836 0
M  V30 6321 H 593.4 2.14333 3.14391 0
M  V30 6322 H 592.912 3.41805 1.83824 0
M  V30 6323 H 591.013 1.51375 3.40465 0
M  V30 6324 H 591.126 3.39779 3.37768 0
M  V30 6325 H 589.49 1.73681 1.86298 0
M  V30 6326 H 590.273 3.24054 1.1333 0
M  V30 6327 N 592.718 -0.936591 1.26751 0
M  V30 6328 C 593.648 -2.05315 1.11212 0
M  V30 6329 C 594.629 -1.70092 0.0160262 0
M  V30 6330 O 595.814 -1.93279 0.188894 0
M  V30 6331 C 592.944 -3.39123 0.749171 0
M  V30 6332 C 591.898 -3.88425 1.79751 0
M  V30 6333 C 591.224 -5.18936 1.28876 0
M  V30 6334 C 592.524 -4.12798 3.19992 0
M  V30 6335 H 594.218 -2.18573 2.04613 0
M  V30 6336 H 591.764 -1.05027 0.985159 0
M  V30 6337 H 593.717 -4.16704 0.627323 0
M  V30 6338 H 592.441 -3.25855 -0.220543 0
M  V30 6339 H 591.1 -3.13028 1.90811 0
M  V30 6340 H 590.748 -5.02051 0.308757 0
M  V30 6341 H 590.448 -5.52892 1.98958 0
M  V30 6342 H 591.972 -5.99096 1.17967 0
M  V30 6343 H 593.386 -4.80977 3.11983 0
M  V30 6344 H 591.783 -4.58044 3.87705 0
M  V30 6345 H 592.853 -3.18412 3.65707 0
M  V30 6346 N 594.196 -1.08629 -1.14182 0
M  V30 6347 C 595.443 -0.817345 -1.85272 0
M  V30 6348 C 595.771 0.656917 -1.83071 0
M  V30 6349 O 595.026 1.49897 -1.25815 0
M  V30 6350 C 595.325 -1.28734 -3.3341 0
M  V30 6351 C 594.991 -2.76981 -3.55798 0
M  V30 6352 C 593.653 -3.17469 -3.61617 0
M  V30 6353 C 596.005 -3.72605 -3.64438 0
M  V30 6354 C 593.333 -4.52371 -3.736 0
M  V30 6355 C 595.685 -5.07286 -3.77947 0
M  V30 6356 C 594.349 -5.47376 -3.82016 0
M  V30 6357 H 593.619 -0.299088 -0.677958 0
M  V30 6358 H 596.266 -1.35962 -1.34857 0
M  V30 6359 H 594.571 -0.664702 -3.8612 0
M  V30 6360 H 596.268 -1.05598 -3.86846 0
M  V30 6361 H 592.858 -2.44644 -3.51919 0
M  V30 6362 H 597.042 -3.42443 -3.5923 0
M  V30 6363 H 592.298 -4.82882 -3.75013 0
M  V30 6364 H 596.472 -5.81243 -3.83575 0
M  V30 6365 H 594.099 -6.51906 -3.91054 0
M  V30 6366 N 595.674 1.31259 -0.872281 0
M  V30 6367 C 596.902 2.00795 -0.498907 0
M  V30 6368 C 597.317 1.65464 0.909238 0
M  V30 6369 O 596.674 0.885073 1.59602 0
M  V30 6370 C 596.725 3.55625 -0.649092 0
M  V30 6371 O 596.446 3.89692 -2.00179 0
M  V30 6372 C 597.947 4.42434 -0.277034 0
M  V30 6373 H 595.167 0.642299 -0.194145 0
M  V30 6374 H 597.711 1.67438 -1.17408 0
M  V30 6375 H 595.866 3.87394 -0.0214402 0
M  V30 6376 H 596.28 4.84407 -2.01122 0
M  V30 6377 H 597.754 5.50299 -0.433064 0
M  V30 6378 H 598.231 4.32146 0.783989 0
M  V30 6379 H 598.837 4.16086 -0.880483 0
M  V30 6380 N 597.152 0.631951 1.44375 0
M  V30 6381 C 598.401 0.134214 2.01253 0
M  V30 6382 C 598.714 -1.25171 1.50305 0
M  V30 6383 O 599.92 -1.8435 1.99317 0
M  V30 6384 C 598.376 0.189187 3.59402 0
M  V30 6385 C 597.984 1.57647 4.19346 0
M  V30 6386 C 599.728 -0.252044 4.23751 0
M  V30 6387 C 597.635 1.58651 5.69722 0
M  V30 6388 H 596.565 0.0464101 0.75257 0
M  V30 6389 H 599.216 0.790868 1.65582 0
M  V30 6390 H 597.598 -0.534584 3.92375 0
M  V30 6391 H 598.772 2.32389 3.97909 0
M  V30 6392 H 597.087 1.96186 3.67288 0
M  V30 6393 H 599.684 -0.264084 5.34047 0
M  V30 6394 H 600.027 -1.27951 3.96149 0
M  V30 6395 H 600.56 0.41926 3.95584 0
M  V30 6396 H 597.299 2.59237 6.0206 0
M  V30 6397 H 596.819 0.882039 5.93279 0
M  V30 6398 H 598.498 1.32082 6.33375 0
M  V30 6399 N 598.631 -1.53133 0.372548 0
M  V30 6400 C 599.88 -2.00539 -0.216115 0
M  V30 6401 C 600.193 -1.26374 -1.49295 0
M  V30 6402 O 601.399 -1.64404 -2.16064 0
M  V30 6403 C 599.855 -3.57253 -0.435678 0
M  V30 6404 C 599.463 -4.40302 0.82693 0
M  V30 6405 C 601.207 -4.12995 -0.981618 0
M  V30 6406 C 599.114 -5.88583 0.576567 0
M  V30 6407 H 598.044 -0.749246 -0.084536 0
M  V30 6408 H 600.695 -1.76771 0.492364 0
M  V30 6409 H 599.077 -3.77202 -1.20559 0
M  V30 6410 H 600.251 -4.32124 1.60017 0
M  V30 6411 H 598.566 -3.95699 1.29659 0
M  V30 6412 H 601.163 -5.21418 -1.18436 0
M  V30 6413 H 601.506 -3.68027 -1.94581 0
M  V30 6414 H 602.039 -3.96871 -0.271696 0
M  V30 6415 H 598.778 -6.37841 1.51128 0
M  V30 6416 H 598.298 -5.99592 -0.158047 0
M  V30 6417 H 599.977 -6.46676 0.204722 0
M  V30 6418 N 600.109 -0.101901 -1.5727 0
M  V30 6419 C 601.357 0.559091 -1.94213 0
M  V30 6420 C 601.678 1.68297 -0.984948 0
M  V30 6421 O 600.948 1.95863 -0.0381975 0
M  V30 6422 H 599.528 0.20952 -0.717015 0
M  V30 6423 H 602.19 -0.166831 -1.94185 0
M  V30 6424 H 601.286 0.96485 -2.96811 0
M  V30 6425 N 601.587 1.56661 0.17182 0
M  V30 6426 C 602.835 1.81606 0.886774 0
M  V30 6427 C 603.156 0.678818 1.82803 0
M  V30 6428 O 602.426 -0.301354 1.93568 0
M  V30 6429 H 601.006 0.669934 0.330451 0
M  V30 6430 H 603.668 1.94142 0.171757 0
M  V30 6431 H 602.764 2.75634 1.46398 0
M  V30 6432 N 603.065 -0.440357 1.51323 0
M  V30 6433 C 604.293 -1.21255 1.67645 0
M  V30 6434 C 604.708 -1.85088 0.37252 0
M  V30 6435 O 604.065 -1.70582 -0.648683 0
M  V30 6436 C 604.116 -2.29881 2.78993 0
M  V30 6437 O 603.837 -1.68659 4.04334 0
M  V30 6438 C 605.338 -3.20214 3.06558 0
M  V30 6439 H 602.558 -0.36558 0.562666 0
M  V30 6440 H 605.102 -0.52214 1.97722 0
M  V30 6441 H 603.257 -2.94643 2.51524 0
M  V30 6442 H 603.671 -2.40426 4.6615 0
M  V30 6443 H 605.145 -3.92575 3.88058 0
M  V30 6444 H 605.622 -3.80794 2.18844 0
M  V30 6445 H 606.228 -2.61156 3.35675 0
M  V30 6446 N 604.543 -1.41418 -0.695603 0
M  V30 6447 C 605.783 -1.42241 -1.46788 0
M  V30 6448 C 606.147 -0.0300827 -1.91976 0
M  V30 6449 O 607.348 0.0868914 -2.6866 0
M  V30 6450 C 605.619 -2.4011 -2.6473 0
M  V30 6451 S 607.178 -2.59462 -3.53871 0
M  V30 6452 H 603.996 -0.503893 -0.50161 0
M  V30 6453 H 606.598 -1.77855 -0.811654 0
M  V30 6454 H 605.302 -3.40073 -2.29736 0
M  V30 6455 H 604.833 -2.05849 -3.35246 0
M  V30 6456 H 606.848 -1.862 -4.59939 0
M  V30 6457 N 606.021 0.929856 -1.27246 0
M  V30 6458 C 606.951 2.04722 -1.12299 0
M  V30 6459 C 607.932 1.70082 -0.0250464 0
M  V30 6460 O 609.117 1.93176 -0.199141 0
M  V30 6461 C 606.247 3.38721 -0.767145 0
M  V30 6462 C 605.201 3.87466 -1.81808 0
M  V30 6463 C 604.527 5.18246 -1.31626 0
M  V30 6464 C 605.827 4.11095 -3.22177 0
M  V30 6465 H 607.521 2.17485 -2.05769 0
M  V30 6466 H 605.067 1.04503 -0.990715 0
M  V30 6467 H 607.02 4.16366 -0.649413 0
M  V30 6468 H 605.744 3.25967 0.203259 0
M  V30 6469 H 604.403 3.12012 -1.92468 0
M  V30 6470 H 604.051 5.01881 -0.335378 0
M  V30 6471 H 603.751 5.51829 -2.01887 0
M  V30 6472 H 605.275 5.98462 -1.21143 0
M  V30 6473 H 606.689 4.79316 -3.1453 0
M  V30 6474 H 605.086 4.55982 -3.90129 0
M  V30 6475 H 606.156 3.16468 -3.67391 0
M  V30 6476 N 607.499 1.09233 1.13605 0
M  V30 6477 C 608.745 0.828385 1.8511 0
M  V30 6478 C 609.078 -0.64437 1.83198 0
M  V30 6479 O 608.353 -1.47428 1.26867 0
M  V30 6480 C 608.636 1.36167 3.33363 0
M  V30 6481 C 608.489 2.90038 3.438 0
M  V30 6482 C 609.808 0.993819 4.28732 0
M  V30 6483 H 606.927 0.30239 0.672108 0
M  V30 6484 H 609.569 1.35339 1.33355 0
M  V30 6485 H 607.719 0.9151 3.77569 0
M  V30 6486 H 609.391 3.43128 3.08319 0
M  V30 6487 H 607.634 3.27271 2.84739 0
M  V30 6488 H 608.305 3.22428 4.48045 0
M  V30 6489 H 610.781 1.37893 3.92587 0
M  V30 6490 H 609.657 1.39403 5.30903 0
M  V30 6491 H 609.918 -0.0982206 4.41991 0
M  V30 6492 N 608.977 -1.30795 0.87923 0
M  V30 6493 C 609.94 -2.26563 0.346676 0
M  V30 6494 C 610.94 -1.52578 -0.507597 0
M  V30 6495 O 612.13 -1.71318 -0.315575 0
M  V30 6496 C 609.262 -3.37115 -0.506611 0
M  V30 6497 H 610.455 -2.75183 1.19223 0
M  V30 6498 H 608.008 -1.41886 0.655598 0
M  V30 6499 H 608.743 -2.93802 -1.37299 0
M  V30 6500 H 608.528 -3.91959 0.105218 0
M  V30 6501 H 610.018 -4.08412 -0.871192 0
M  V30 6502 N 610.455 -0.639598 -1.44038 0
M  V30 6503 C 611.703 -0.147188 -2.01563 0
M  V30 6504 C 612.024 1.2384 -1.50628 0
M  V30 6505 O 611.294 1.82452 -0.713316 0
M  V30 6506 H 609.874 -0.0514231 -0.745228 0
M  V30 6507 H 612.536 -0.828205 -1.76428 0
M  V30 6508 H 611.632 -0.121358 -3.11864 0
M  V30 6509 N 611.933 1.52934 -0.380664 0
M  V30 6510 C 612.863 2.29118 0.450268 0
M  V30 6511 C 613.844 1.32153 1.07096 0
M  V30 6512 O 615.029 1.61038 1.08537 0
M  V30 6513 C 612.159 3.09161 1.58231 0
M  V30 6514 C 611.113 4.13938 1.0881 0
M  V30 6515 C 610.439 4.82153 2.31155 0
M  V30 6516 C 611.739 5.22048 0.162146 0
M  V30 6517 H 613.433 2.98826 -0.185361 0
M  V30 6518 H 610.979 1.43715 -0.0905886 0
M  V30 6519 H 612.932 3.61211 2.17036 0
M  V30 6520 H 611.656 2.3717 2.2454 0
M  V30 6521 H 610.315 3.62855 0.522633 0
M  V30 6522 H 609.963 4.06719 2.95953 0
M  V30 6523 H 609.663 5.52966 1.98752 0
M  V30 6524 H 611.187 5.37004 2.90618 0
M  V30 6525 H 612.601 5.6951 0.658126 0
M  V30 6526 H 610.998 6.00057 -0.0717122 0
M  V30 6527 H 612.068 4.78398 -0.791438 0
M  V30 6528 N 613.412 0.11024 1.57214 0
M  V30 6529 C 614.375 -0.828808 2.1369 0
M  V30 6530 C 615.375 -1.20059 1.06969 0
M  V30 6531 O 616.565 -1.12754 1.32786 0
M  V30 6532 C 613.697 -2.11959 2.66994 0
M  V30 6533 H 614.89 -0.338146 2.97988 0
M  V30 6534 H 612.443 -0.138913 1.55681 0
M  V30 6535 H 613.178 -2.65476 1.8626 0
M  V30 6536 H 612.963 -1.86258 3.45037 0
M  V30 6537 H 614.453 -2.79105 3.10629 0
M  V30 6538 N 614.89 -1.56749 -0.16351 0
M  V30 6539 C 615.82 -2.00042 -1.20438 0
M  V30 6540 C 616.801 -0.877256 -1.45733 0
M  V30 6541 O 617.986 -1.1439 -1.56935 0
M  V30 6542 C 615.116 -2.36697 -2.54149 0
M  V30 6543 C 614.07 -3.52046 -2.43408 0
M  V30 6544 C 613.396 -3.74466 -3.81679 0
M  V30 6545 C 614.696 -4.85247 -1.93216 0
M  V30 6546 H 616.39 -2.87244 -0.844477 0
M  V30 6547 H 613.936 -1.38194 -0.40478 0
M  V30 6548 H 615.889 -2.65582 -3.27176 0
M  V30 6549 H 614.613 -1.46414 -2.91943 0
M  V30 6550 H 613.272 -3.23301 -1.72834 0
M  V30 6551 H 612.92 -2.81461 -4.1688 0
M  V30 6552 H 612.62 -4.52084 -3.75359 0
M  V30 6553 H 614.144 -4.0576 -4.5628 0
M  V30 6554 H 615.558 -5.12957 -2.56023 0
M  V30 6555 H 613.955 -5.66556 -1.97825 0
M  V30 6556 H 615.025 -4.7672 -0.88689 0
M  V30 6557 N 616.368 0.432326 -1.51554 0
M  V30 6558 C 617.617 1.17831 -1.63703 0
M  V30 6559 C 617.93 1.92229 -0.36156 0
M  V30 6560 O 619.136 2.69069 -0.362495 0
M  V30 6561 C 617.592 2.14318 -2.89129 0
M  V30 6562 C 617.2 1.45544 -4.23699 0
M  V30 6563 C 618.944 2.89319 -3.10636 0
M  V30 6564 C 616.851 2.40545 -5.4027 0
M  V30 6565 H 615.781 0.443533 -0.60975 0
M  V30 6566 H 618.432 0.444878 -1.78026 0
M  V30 6567 H 616.814 2.91117 -2.68452 0
M  V30 6568 H 617.988 0.742693 -4.54775 0
M  V30 6569 H 616.303 0.826772 -4.0811 0
M  V30 6570 H 618.9 3.60495 -3.94902 0
M  V30 6571 H 619.243 3.50951 -2.23918 0
M  V30 6572 H 619.776 2.19625 -3.31677 0
M  V30 6573 H 616.515 1.83594 -6.29264 0
M  V30 6574 H 616.035 3.09859 -5.13563 0
M  V30 6575 H 617.714 3.01569 -5.72421 0
M  V30 6576 N 617.846 1.41785 0.688094 0
M  V30 6577 C 619.092 1.41753 1.4503 0
M  V30 6578 C 619.425 0.0290745 1.94178 0
M  V30 6579 O 618.7 -0.944456 1.7003 0
M  V30 6580 C 618.983 2.43069 2.65686 0
M  V30 6581 C 618.836 3.91053 2.22256 0
M  V30 6582 C 620.155 2.41543 3.67893 0
M  V30 6583 H 617.274 0.516202 0.526027 0
M  V30 6584 H 619.916 1.73111 0.783105 0
M  V30 6585 H 618.066 2.1646 3.2261 0
M  V30 6586 H 619.738 4.28594 1.70602 0
M  V30 6587 H 617.981 4.05559 1.53963 0
M  V30 6588 H 618.652 4.57501 3.08863 0
M  V30 6589 H 621.128 2.65175 3.20658 0
M  V30 6590 H 620.004 3.14434 4.49914 0
M  V30 6591 H 620.265 1.43666 4.18106 0
M  V30 6592 N 619.324 -0.923095 1.27737 0
M  V30 6593 C 620.274 -2.01061 1.0751 0
M  V30 6594 C 621.258 -1.609 0.00165451 0
M  V30 6595 O 622.45 -1.75618 0.220724 0
M  V30 6596 C 619.579 -3.35467 0.729162 0
M  V30 6597 C 618.665 -3.82059 1.84098 0
M  V30 6598 N 619.056 -4.01115 3.08124 0
M  V30 6599 C 617.354 -4.11135 1.7287 0
M  V30 6600 C 618.055 -4.39989 3.80506 0
M  V30 6601 N 617.031 -4.47721 3.08297 0
M  V30 6602 H 620.833 -2.13832 2.01626 0
M  V30 6603 H 618.347 -1.11027 1.18519 0
M  V30 6604 H 620.344 -4.13049 0.565355 0
M  V30 6605 H 619.004 -3.24056 -0.204334 0
M  V30 6606 H 620.015 -3.87294 3.43836 0
M  V30 6607 H 616.692 -4.08412 0.866352 0
M  V30 6608 H 618.082 -4.62773 4.87125 0
M  V30 6609 N 620.802 -1.09834 -1.13024 0
M  V30 6610 C 621.735 -0.685453 -2.17662 0
M  V30 6611 C 622.713 0.310142 -1.59615 0
M  V30 6612 O 623.897 0.21052 -1.87321 0
M  V30 6613 C 621.024 -0.0104476 -3.38698 0
M  V30 6614 C 620.07 -0.968522 -4.15358 0
M  V30 6615 S 620.903 -2.48272 -4.74469 0
M  V30 6616 C 622.059 -1.82025 -5.98847 0
M  V30 6617 H 622.292 -1.57187 -2.52348 0
M  V30 6618 H 619.825 -0.914728 -1.24387 0
M  V30 6619 H 621.783 0.372694 -4.08805 0
M  V30 6620 H 620.444 0.852673 -3.02305 0
M  V30 6621 H 619.637 -0.443373 -5.02046 0
M  V30 6622 H 619.239 -1.29327 -3.50928 0
M  V30 6623 H 621.531 -1.14678 -6.67724 0
M  V30 6624 H 622.474 -2.66645 -6.55977 0
M  V30 6625 H 622.882 -1.2874 -5.49624 0
M  V30 6626 N 622.28 1.30327 -0.886154 0
M  V30 6627 C 623.529 1.95373 -0.501243 0
M  V30 6628 C 623.842 1.70722 0.954634 0
M  V30 6629 O 625.048 2.29761 1.44644 0
M  V30 6630 C 623.504 3.49828 -0.845493 0
M  V30 6631 C 623.112 3.83296 -2.31922 0
M  V30 6632 C 624.856 4.2118 -0.529838 0
M  V30 6633 C 622.763 5.30935 -2.60504 0
M  V30 6634 H 621.693 0.731274 -0.183722 0
M  V30 6635 H 624.344 1.48258 -1.08129 0
M  V30 6636 H 622.726 3.95522 -0.19452 0
M  V30 6637 H 623.9 3.48508 -3.01461 0
M  V30 6638 H 622.215 3.2505 -2.60253 0
M  V30 6639 H 624.812 5.29825 -0.720401 0
M  V30 6640 H 625.155 4.12902 0.530828 0
M  V30 6641 H 625.688 3.81173 -1.13806 0
M  V30 6642 H 622.427 5.44265 -3.65316 0
M  V30 6643 H 621.947 5.67019 -1.95575 0
M  V30 6644 H 623.626 5.98381 -2.46066 0
M  V30 6645 N 623.758 0.647228 1.43697 0
M  V30 6646 C 625.007 0.155552 2.01099 0
M  V30 6647 C 625.32 -1.23569 1.51624 0
M  V30 6648 O 626.526 -1.82226 2.01261 0
M  V30 6649 C 624.982 0.227296 3.59182 0
M  V30 6650 C 624.59 1.62086 4.17651 0
M  V30 6651 C 626.334 -0.207085 4.23995 0
M  V30 6652 C 624.241 1.64685 5.68008 0
M  V30 6653 H 623.171 0.0543895 0.752036 0
M  V30 6654 H 625.822 0.808386 1.64734 0
M  V30 6655 H 624.204 -0.492937 3.9292 0
M  V30 6656 H 625.378 2.36597 3.95422 0
M  V30 6657 H 623.693 2.0007 3.65186 0
M  V30 6658 H 626.29 -0.207426 5.34298 0
M  V30 6659 H 626.633 -1.23742 3.97484 0
M  V30 6660 H 627.166 0.461193 3.95118 0
M  V30 6661 H 623.905 2.65608 5.99277 0
M  V30 6662 H 623.425 0.944914 5.9231 0
M  V30 6663 H 625.104 1.38792 6.31938 0
M  V30 6664 N 625.236 -1.5273 0.388769 0
M  V30 6665 C 626.184 -2.27975 -0.461527 0
M  V30 6666 C 627.178 -1.31854 -1.06352 0
M  V30 6667 O 628.384 -1.49394 -1.00406 0
M  V30 6668 H 624.759 -0.733088 -0.16759 0
M  V30 6669 H 626.73 -2.97765 0.194579 0
M  V30 6670 C 625.479 -3.09881 -1.577 0
M  V30 6671 H 624.802 -3.83701 -1.12309 0
M  V30 6672 H 626.242 -3.6567 -2.14619 0
M  V30 6673 C 624.701 -2.22159 -2.53272 0
M  V30 6674 O 625.231 -1.84802 -3.56667 0
M  V30 6675 N 623.437 -1.8633 -2.23001 0
M  V30 6676 H 622.984 -2.16909 -1.38954 0
M  V30 6677 H 622.942 -1.27927 -2.87197 0
M  V30 6678 N 626.714 -0.118576 -1.57153 0
M  V30 6679 C 628.13 0.238014 -1.57815 0
M  V30 6680 C 628.33 1.66747 -1.13127 0
M  V30 6681 O 627.386 2.38867 -0.818462 0
M  V30 6682 C 628.699 0.00508207 -3.007 0
M  V30 6683 C 630.247 0.0710139 -3.12919 0
M  V30 6684 C 630.722 -0.13422 -4.57803 0
M  V30 6685 N 632.213 -0.0801755 -4.63131 0
M  V30 6686 C 632.948 -0.213885 -5.73001 0
M  V30 6687 N 632.444 -0.403742 -6.91623 0
M  V30 6688 N 634.237 -0.15349 -5.6189 0
M  V30 6689 H 626.388 -1.05226 -1.84503 0
M  V30 6690 H 628.651 -0.414318 -0.852669 0
M  V30 6691 H 628.357 -0.983125 -3.3768 0
M  V30 6692 H 628.231 0.73714 -3.69927 0
M  V30 6693 H 630.618 1.04975 -2.75798 0
M  V30 6694 H 630.699 -0.692918 -2.46236 0
M  V30 6695 H 630.343 -1.10992 -4.95624 0
M  V30 6696 H 630.273 0.649692 -5.22577 0
M  V30 6697 H 632.764 0.0630689 -3.77847 0
M  V30 6698 H 633.077 -0.496645 -7.71202 0
M  V30 6699 H 631.422 -0.43971 -6.93608 0
M  V30 6700 H 634.613 -0.00613174 -4.681 0
M  V30 6701 H 634.786 -0.261138 -6.47474 0
M  V30 6702 N 628.193 1.56834 0.155195 0
M  V30 6703 C 629.123 2.00678 1.19376 0
M  V30 6704 C 630.104 0.884973 1.45266 0
M  V30 6705 O 631.289 1.1522 1.56326 0
M  V30 6706 C 628.419 2.38042 2.5289 0
M  V30 6707 C 627.373 3.53332 2.41538 0
M  V30 6708 C 626.699 3.76485 3.79688 0
M  V30 6709 C 627.999 4.86265 1.9064 0
M  V30 6710 H 629.693 2.87688 0.829232 0
M  V30 6711 H 627.239 1.38407 0.397445 0
M  V30 6712 H 629.192 2.67314 3.25763 0
M  V30 6713 H 627.916 1.4796 2.91162 0
M  V30 6714 H 626.575 3.24213 1.71117 0
M  V30 6715 H 626.223 2.83667 4.15382 0
M  V30 6716 H 625.923 4.54068 3.72956 0
M  V30 6717 H 627.447 4.08174 4.54122 0
M  V30 6718 H 628.861 5.14308 2.53299 0
M  V30 6719 H 627.258 5.67597 1.94818 0
M  V30 6720 H 628.328 4.77184 0.861596 0
M  V30 6721 N 629.671 -0.424282 1.51781 0
M  V30 6722 C 630.918 -1.1726 1.65095 0
M  V30 6723 C 631.246 -1.90881 0.373477 0
M  V30 6724 O 630.501 -1.84835 -0.642997 0
M  V30 6725 C 630.8 -2.20418 2.81337 0
M  V30 6726 C 630.466 -1.63715 4.20129 0
M  V30 6727 C 629.128 -1.47975 4.57883 0
M  V30 6728 C 631.48 -1.22157 5.06682 0
M  V30 6729 C 628.808 -0.891703 5.79884 0
M  V30 6730 C 631.16 -0.647767 6.29275 0
M  V30 6731 C 629.824 -0.477371 6.65791 0
M  V30 6732 H 629.094 -0.429085 0.604125 0
M  V30 6733 H 631.741 -0.461852 1.85847 0
M  V30 6734 H 630.046 -2.97581 2.54859 0
M  V30 6735 H 631.743 -2.78163 2.88836 0
M  V30 6736 H 628.333 -1.76946 3.90369 0
M  V30 6737 H 632.517 -1.33133 4.7811 0
M  V30 6738 H 627.773 -0.747563 6.06813 0
M  V30 6739 H 631.947 -0.317291 6.95677 0
M  V30 6740 H 629.574 -0.0195936 7.60197 0
M  V30 6741 N 631.149 -1.42148 -0.680565 0
M  V30 6742 C 632.565 -1.24947 -0.992995 0
M  V30 6743 C 632.765 -0.149527 -2.00944 0
M  V30 6744 O 631.821 0.481145 -2.47873 0
M  V30 6745 C 633.134 -2.60426 -1.5033 0
M  V30 6746 C 634.682 -2.67733 -1.62137 0
M  V30 6747 C 635.157 -4.03564 -2.16565 0
M  V30 6748 N 636.648 -4.05488 -2.23905 0
M  V30 6749 C 637.383 -5.07401 -2.67081 0
M  V30 6750 N 636.879 -6.19698 -3.09751 0
M  V30 6751 N 638.672 -4.94758 -2.66778 0
M  V30 6752 H 630.823 -2.12399 -0.0074788 0
M  V30 6753 H 633.086 -0.94571 -0.0658529 0
M  V30 6754 H 632.792 -3.41743 -0.830947 0
M  V30 6755 H 632.666 -2.83949 -2.483 0
M  V30 6756 H 635.053 -1.86765 -2.2848 0
M  V30 6757 H 635.134 -2.48004 -0.626713 0
M  V30 6758 H 634.778 -4.84987 -1.50833 0
M  V30 6759 H 634.708 -4.20641 -3.1681 0
M  V30 6760 H 637.199 -3.24415 -1.93812 0
M  V30 6761 H 637.512 -6.93318 -3.41365 0
M  V30 6762 H 635.857 -6.23212 -3.07623 0
M  V30 6763 H 639.048 -4.06105 -2.32801 0
M  V30 6764 H 639.221 -5.74317 -3.00107 0
M  V30 6765 N 632.627 0.916307 -1.28225 0
M  V30 6766 C 633.574 2.01841 -1.11932 0
M  V30 6767 C 634.544 1.66091 -0.0171604 0
M  V30 6768 O 635.729 1.89934 -0.181617 0
M  V30 6769 C 632.869 3.36065 -0.784504 0
M  V30 6770 C 631.982 3.847 -1.96544 0
M  V30 6771 C 631.117 5.07423 -1.57149 0
M  V30 6772 C 630.156 5.48384 -2.71922 0
M  V30 6773 N 629.293 6.62298 -2.33037 0
M  V30 6774 H 634.133 2.1511 -2.06232 0
M  V30 6775 H 631.67 1.05366 -1.02647 0
M  V30 6776 H 633.628 4.13272 -0.571148 0
M  V30 6777 H 632.258 3.22571 0.121565 0
M  V30 6778 H 631.31 3.03673 -2.291 0
M  V30 6779 H 632.622 4.1102 -2.82603 0
M  V30 6780 H 631.776 5.92165 -1.32004 0
M  V30 6781 H 630.515 4.82906 -0.682153 0
M  V30 6782 H 629.52 4.62184 -2.97768 0
M  V30 6783 H 630.745 5.7489 -3.61494 0
M  V30 6784 H 628.691 6.39416 -1.4657 0
M  V30 6785 H 628.608 6.8833 -3.12631 0
M  V30 6786 H 629.876 7.50352 -2.11169 0
M  V30 6787 N 634.105 1.10431 1.1244 0
M  V30 6788 C 635.521 0.836096 1.35947 0
M  V30 6789 C 635.721 -0.544475 1.94004 0
M  V30 6790 O 634.777 -1.29735 2.16622 0
M  V30 6791 C 636.09 1.93575 2.30107 0
M  V30 6792 C 637.638 1.9642 2.43697 0
M  V30 6793 C 638.113 3.05559 3.41171 0
M  V30 6794 N 639.604 3.04865 3.48728 0
M  V30 6795 C 640.339 3.85954 4.24061 0
M  V30 6796 N 639.835 4.76977 5.02458 0
M  V30 6797 N 641.628 3.74172 4.19466 0
M  V30 6798 H 633.779 1.9942 0.731124 0
M  V30 6799 H 636.042 0.866607 0.384312 0
M  V30 6800 H 635.748 2.92943 1.94621 0
M  V30 6801 H 635.622 1.8229 3.30227 0
M  V30 6802 H 638.009 0.97685 2.78463 0
M  V30 6803 H 638.09 2.11782 1.43465 0
M  V30 6804 H 637.734 4.04513 3.07135 0
M  V30 6805 H 637.664 2.87438 4.41234 0
M  V30 6806 H 640.155 2.38908 2.92799 0
M  V30 6807 H 640.468 5.35409 5.57277 0
M  V30 6808 H 638.813 4.81006 5.01655 0
M  V30 6809 H 642.004 3.02412 3.57302 0
M  V30 6810 H 642.177 4.37602 4.77921 0
M  V30 6811 N 635.583 -1.29855 0.893053 0
M  V30 6812 C 636.53 -2.27909 0.364161 0
M  V30 6813 C 637.5 -1.56726 -0.550093 0
M  V30 6814 O 638.685 -1.84747 -0.47677 0
M  V30 6815 C 635.825 -3.42678 -0.408178 0
M  V30 6816 C 634.938 -4.28659 0.536212 0
M  V30 6817 C 634.073 -5.30599 -0.252521 0
M  V30 6818 C 633.112 -6.08234 0.686822 0
M  V30 6819 N 632.249 -7.02068 -0.0670902 0
M  V30 6820 H 637.089 -2.72531 1.20544 0
M  V30 6821 H 634.626 -1.34047 0.605779 0
M  V30 6822 H 636.584 -4.07986 -0.871962 0
M  V30 6823 H 635.214 -2.99103 -1.21397 0
M  V30 6824 H 634.266 -3.63584 1.1185 0
M  V30 6825 H 635.578 -4.8274 1.25552 0
M  V30 6826 H 634.732 -6.01694 -0.777801 0
M  V30 6827 H 633.471 -4.77233 -1.005 0
M  V30 6828 H 632.476 -5.3601 1.22366 0
M  V30 6829 H 633.701 -6.63689 1.43852 0
M  V30 6830 H 631.647 -6.5108 -0.801955 0
M  V30 6831 H 631.564 -7.53675 0.59243 0
M  V30 6832 H 632.832 -7.77392 -0.572851 0
M  V30 6833 O 637.1 -0.794376 -1.40613 0
M  V30 6834 H 637.791 -0.366277 -1.90205 0
M  V30 END ATOM
M  V30 BEGIN BOND
M  V30 END BOND
M  V30 END CTAB
M  END
$$$$
