drugbank_target|P74334 Apocarotenoid-15,15'-oxygenase (DB02253; DB04233)
 OpenBabel12092120243D

  0  0  0     0  0            999 V3000
M  V30 BEGIN CTAB
M  V30 COUNTS 7577 7693 0 0 0
M  V30 BEGIN ATOM
M  V30 1 H -0.908 1.98254 -0.117106 0
M  V30 2 N 0 1.576 0 0
M  V30 3 C 0.933 2.03868 1.02534 0
M  V30 4 C 1.911 0.928543 1.3348 0
M  V30 5 O 3.095 1.19667 1.45644 0
M  V30 6 C 0.222 2.43627 2.35294 0
M  V30 7 C -0.732 3.65373 2.2001 0
M  V30 8 S 0.101 5.13292 1.52614 0
M  V30 9 C 1.257 5.56322 2.86805 0
M  V30 10 H 1.49 2.90518 0.631377 0
M  V30 11 H -0.977 1.52953 0.210867 0
M  V30 12 H 0.981 2.67203 3.11629 0
M  V30 13 H -0.358 1.57376 2.7183 0
M  V30 14 H -1.165 3.90944 3.18086 0
M  V30 15 H -1.563 3.418 1.51819 0
M  V30 16 H 0.729 5.58782 3.83104 0
M  V30 17 H 1.672 6.56266 2.65933 0
M  V30 18 H 2.08 4.83886 2.90714 0
M  V30 19 N 1.4781 -0.272755 1.55222 0
M  V30 20 C 2.7241 -1.00581 1.761 0
M  V30 21 C 3.0571 -1.85932 0.560625 0
M  V30 22 O 2.3321 -1.89416 -0.441801 0
M  V30 23 C 2.6151 -1.88816 3.06628 0
M  V30 24 C 2.4681 -1.06457 4.37021 0
M  V30 25 C 3.7871 -2.8752 3.33197 0
M  V30 26 H 0.9061 -0.364244 0.640699 0
M  V30 27 H 3.5481 -0.278189 1.87952 0
M  V30 28 H 1.6981 -2.50856 2.96654 0
M  V30 29 H 3.3701 -0.464863 4.58952 0
M  V30 30 H 1.6131 -0.368043 4.32236 0
M  V30 31 H 2.2841 -1.71514 5.24678 0
M  V30 32 H 4.7601 -2.35615 3.42965 0
M  V30 33 H 3.6361 -3.46399 4.25792 0
M  V30 34 H 3.8971 -3.62657 2.52849 0
M  V30 35 N 2.9562 -1.48159 -0.537278 0
M  V30 36 C 4.1842 -1.59454 -1.31841 0
M  V30 37 C 4.5992 -0.252065 -1.8711 0
M  V30 38 O 3.9562 0.757621 -1.66031 0
M  V30 39 C 4.0072 -2.63546 -2.47439 0
M  V30 40 O 3.7282 -3.92583 -1.94449 0
M  V30 41 C 5.2292 -2.85212 -3.39366 0
M  V30 42 H 2.4492 -0.53785 -0.401196 0
M  V30 43 H 4.9932 -1.93932 -0.648891 0
M  V30 44 H 3.1482 -2.31946 -3.1029 0
M  V30 45 H 3.5622 -4.49629 -2.70063 0
M  V30 46 H 5.0362 -3.61863 -4.16844 0
M  V30 47 H 5.5132 -1.93765 -3.94147 0
M  V30 48 H 6.1192 -3.18086 -2.82314 0
M  V30 49 N 4.4343 0.785586 -1.36625 0
M  V30 50 C 5.6593 1.57963 -1.34397 0
M  V30 51 C 6.0843 1.87964 0.071526 0
M  V30 52 O 5.4423 1.48182 1.0446 0
M  V30 53 C 5.4903 2.87511 -2.17646 0
M  V30 54 O 4.5943 3.81281 -1.57158 0
M  V30 55 H 3.9353 0.479014 -0.459828 0
M  V30 56 H 6.4653 0.973411 -1.79961 0
M  V30 57 H 6.4753 3.36745 -2.30362 0
M  V30 58 H 5.1503 2.65002 -3.20541 0
M  V30 59 H 3.7273 3.39885 -1.53403 0
M  V30 60 N 5.9124 1.20967 1.01018 0
M  V30 61 C 7.3234 1.02319 1.56165 0
M  V30 62 C 7.6744 -0.418546 1.91684 0
M  V30 63 O 6.7994 -1.30096 1.72928 0
M  V30 64 C 7.3944 1.85109 2.8376 0
M  V30 65 C 5.9534 1.70809 3.35412 0
M  V30 66 C 5.1004 1.82643 2.08655 0
M  V30 67 H 8.0514 1.35065 0.833255 0
M  V30 68 H 8.0724 1.35827 3.55431 0
M  V30 69 H 7.5844 2.90035 2.57878 0
M  V30 70 H 5.6854 0.685464 3.66241 0
M  V30 71 H 5.7984 2.52467 4.07182 0
M  V30 72 H 4.1624 1.25896 2.21409 0
M  V30 73 H 4.9454 2.89066 1.85191 0
M  V30 74 N 7.3905 -1.2043 1.01659 0
M  V30 75 C 8.8015 -1.71517 0.737482 0
M  V30 76 C 9.1525 -1.81547 -0.743973 0
M  V30 77 O 8.2775 -1.47803 -1.58061 0
M  V30 78 C 8.8725 -3.11515 1.33206 0
M  V30 79 C 7.4315 -3.59912 1.10183 0
M  V30 80 C 6.5785 -2.37116 1.43776 0
M  V30 81 H 9.5295 -1.05444 1.18606 0
M  V30 82 H 9.5505 -3.73575 0.722636 0
M  V30 83 H 9.0625 -3.04182 2.41028 0
M  V30 84 H 7.1635 -3.72577 0.0412756 0
M  V30 85 H 7.2765 -4.44731 1.78188 0
M  V30 86 H 5.6405 -2.39857 0.856778 0
M  V30 87 H 6.4235 -2.32424 2.52654 0
M  V30 88 N 8.8686 -0.792821 -1.36206 0
M  V30 89 C 10.0966 -0.378825 -2.03402 0
M  V30 90 C 10.5116 1.00586 -1.59774 0
M  V30 91 O 9.8686 1.64574 -0.788764 0
M  V30 92 C 9.9196 -0.43683 -3.58851 0
M  V30 93 O 9.6406 -1.76691 -4.00889 0
M  V30 94 C 11.1416 -0.0138943 -4.43298 0
M  V30 95 H 8.3616 -0.155673 -0.652692 0
M  V30 96 H 10.9056 -1.07261 -1.74113 0
M  V30 97 H 9.0606 0.208575 -3.86838 0
M  V30 98 H 9.4746 -1.72011 -4.95492 0
M  V30 99 H 10.9486 -0.105615 -5.51899 0
M  V30 100 H 11.4256 1.03915 -4.2673 0
M  V30 101 H 12.0316 -0.63192 -4.20579 0
M  V30 102 N 10.3467 1.47872 -0.545128 0
M  V30 103 C 11.5717 2.07391 -0.0190611 0
M  V30 104 C 11.9967 1.39688 1.25971 0
M  V30 105 O 11.3547 0.467816 1.7516 0
M  V30 106 C 11.4027 3.60188 0.172335 0
M  V30 107 O 10.5067 3.9339 1.23766 0
M  V30 108 H 9.8477 0.662411 -0.0459059 0
M  V30 109 H 12.3777 1.90066 -0.757365 0
M  V30 110 H 12.3877 4.06129 0.390305 0
M  V30 111 H 11.0627 4.08865 -0.761725 0
M  V30 112 H 9.6397 3.5921 1.00114 0
M  V30 113 N 11.8248 0.280983 1.55075 0
M  V30 114 C 13.0498 -0.340154 2.04592 0
M  V30 115 C 13.4748 -1.48246 1.15779 0
M  V30 116 O 12.8328 -1.80614 0.15761 0
M  V30 117 C 12.8808 -0.793104 3.5177 0
M  V30 118 O 11.9848 -1.89981 3.66034 0
M  V30 119 H 11.3258 -0.0694289 0.66036 0
M  V30 120 H 13.8558 0.416993 2.00306 0
M  V30 121 H 13.8658 -1.08729 3.93245 0
M  V30 122 H 12.5408 0.0426163 4.15878 0
M  V30 123 H 11.1178 -1.60771 3.36463 0
M  V30 124 N 13.3029 -1.57598 0.00835791 0
M  V30 125 C 14.7139 -1.7892 -0.53333 0
M  V30 126 C 15.0649 -0.916609 -1.73473 0
M  V30 127 O 14.1899 -0.121336 -2.1606 0
M  V30 128 C 14.7849 -3.24488 -0.974313 0
M  V30 129 C 13.3439 -3.46878 -1.46125 0
M  V30 130 C 12.4909 -2.74157 -0.416302 0
M  V30 131 H 15.4419 -1.56958 0.234495 0
M  V30 132 H 15.4629 -3.3306 -1.83988 0
M  V30 133 H 14.9749 -3.87972 -0.099718 0
M  V30 134 H 13.0759 -2.8862 -2.35646 0
M  V30 135 H 13.1889 -4.55572 -1.48295 0
M  V30 136 H 11.5529 -2.39022 -0.87981 0
M  V30 137 H 12.3359 -3.40345 0.44947 0
M  V30 138 N 14.781 0.264519 -1.55364 0
M  V30 139 C 16.006 1.01726 -1.80739 0
M  V30 140 C 16.431 1.78836 -0.583044 0
M  V30 141 O 15.789 1.75167 0.467566 0
M  V30 142 C 15.837 1.94482 -3.03659 0
M  V30 143 O 14.941 3.03386 -2.7934 0
M  V30 144 H 14.282 0.290395 -0.597132 0
M  V30 145 H 16.812 0.290854 -2.02522 0
M  V30 146 H 16.822 2.36278 -3.32621 0
M  V30 147 H 15.497 1.37772 -3.92418 0
M  V30 148 H 14.074 2.65844 -2.61498 0
M  V30 149 N 16.2591 1.48442 0.529413 0
M  V30 150 C 17.1911 1.59095 1.64989 0
M  V30 151 C 18.2041 0.475212 1.5571 0
M  V30 152 O 19.3931 0.746081 1.6216 0
M  V30 153 C 16.4931 1.50518 3.0364 0
M  V30 154 C 15.6661 2.77142 3.38395 0
M  V30 155 C 14.7251 2.62012 4.56329 0
M  V30 156 O 13.7511 3.35898 4.59522 0
M  V30 157 N 14.9531 1.71667 5.54536 0
M  V30 158 H 17.7181 2.55723 1.56287 0
M  V30 159 H 15.2791 1.45173 0.716697 0
M  V30 160 H 17.2711 1.38091 3.80412 0
M  V30 161 H 15.8411 0.618627 3.06418 0
M  V30 162 H 15.0611 3.0413 2.50796 0
M  V30 163 H 16.3491 3.61146 3.58401 0
M  V30 164 H 15.7471 1.10841 5.54735 0
M  V30 165 H 14.3041 1.65178 6.30523 0
M  V30 166 N 17.7372 -0.778329 1.37039 0
M  V30 167 C 19.1532 -1.07796 1.17695 0
M  V30 168 C 19.3532 -2.01498 0.00860115 0
M  V30 169 O 18.4092 -2.43901 -0.653352 0
M  V30 170 C 19.7222 -1.68178 2.49272 0
M  V30 171 C 21.2702 -1.80467 2.55735 0
M  V30 172 C 21.7452 -2.44263 3.87427 0
M  V30 173 N 23.2362 -2.51721 3.88833 0
M  V30 174 C 23.9712 -3.01919 4.87476 0
M  V30 175 N 23.4672 -3.5234 5.96513 0
M  V30 176 N 25.2602 -3.00733 4.74885 0
M  V30 177 H 17.4112 -0.156032 2.11826 0
M  V30 178 H 19.6742 -0.131844 0.938787 0
M  V30 179 H 19.3802 -1.06796 3.35093 0
M  V30 180 H 19.2542 -2.67554 2.65885 0
M  V30 181 H 21.6412 -2.40984 1.70325 0
M  V30 182 H 21.7222 -0.798656 2.43013 0
M  V30 183 H 21.3662 -1.84388 4.73248 0
M  V30 184 H 21.2962 -3.45458 3.9745 0
M  V30 185 H 23.7872 -2.1603 3.10063 0
M  V30 186 H 24.1002 -3.89027 6.67741 0
M  V30 187 H 22.4452 -3.50462 6.00168 0
M  V30 188 H 25.6362 -2.60638 3.88826 0
M  V30 189 H 25.8092 -3.39545 5.51918 0
M  V30 190 N 19.2153 -1.21501 -1.00376 0
M  V30 191 C 20.4403 -1.05977 -1.78279 0
M  V30 192 C 20.8653 0.385994 -1.84097 0
M  V30 193 O 20.2233 1.27849 -1.28547 0
M  V30 194 C 20.2713 -1.66302 -3.19963 0
M  V30 195 O 19.3753 -0.909333 -4.0225 0
M  V30 196 H 18.7163 -0.372906 -0.549397 0
M  V30 197 H 21.2463 -1.6107 -1.26165 0
M  V30 198 H 21.2563 -1.70574 -3.70632 0
M  V30 199 H 19.9313 -2.71515 -3.15043 0
M  V30 200 H 18.5083 -0.941795 -3.60811 0
M  V30 201 N 20.6934 1.19889 -1.02296 0
M  V30 202 C 21.9234 1.93109 -0.734332 0
M  V30 203 C 22.3314 1.75377 0.709889 0
M  V30 204 O 21.6744 1.06912 1.49384 0
M  V30 205 C 21.7364 3.45362 -0.99827 0
M  V30 206 C 21.4004 3.8686 -2.43287 0
M  V30 207 C 22.3974 3.92102 -3.41397 0
M  V30 208 C 20.0824 4.18668 -2.77529 0
M  V30 209 C 22.0764 4.28573 -4.71809 0
M  V30 210 C 19.7634 4.54813 -4.08153 0
M  V30 211 C 20.7614 4.59739 -5.05103 0
M  V30 212 O 20.4494 4.95051 -6.33388 0
M  V30 213 H 20.1814 0.620409 -0.268456 0
M  V30 214 H 22.7354 1.53144 -1.3688 0
M  V30 215 H 20.9654 3.85482 -0.306645 0
M  V30 216 H 22.6544 3.99814 -0.700234 0
M  V30 217 H 23.4204 3.67685 -3.1628 0
M  V30 218 H 19.2994 4.14021 -2.0275 0
M  V30 219 H 22.8434 4.32333 -5.4748 0
M  V30 220 H 18.7404 4.78687 -4.33047 0
M  V30 221 H 19.5084 5.1302 -6.37772 0
M  V30 222 N 22.1715 0.800033 1.35784 0
M  V30 223 C 23.3965 0.388511 2.03729 0
M  V30 224 C 23.8215 -0.990481 1.5991 0
M  V30 225 O 23.1795 -1.64013 0.772612 0
M  V30 226 C 23.2275 0.4726 3.5749 0
M  V30 227 O 22.3315 -0.51646 4.09153 0
M  V30 228 H 21.6725 0.163271 0.643614 0
M  V30 229 H 24.2025 1.0841 1.73518 0
M  V30 230 H 24.2125 0.34003 4.06581 0
M  V30 231 H 22.8875 1.47848 3.88734 0
M  V30 232 H 21.4645 -0.344673 3.71304 0
M  V30 233 N 23.6496 -1.47581 0.552962 0
M  V30 234 C 25.0606 -1.86324 0.118463 0
M  V30 235 C 25.4116 -1.46006 -1.3106 0
M  V30 236 O 24.5366 -0.861182 -1.98526 0
M  V30 237 C 25.1316 -3.3816 0.20821 0
M  V30 238 C 23.6906 -3.7601 -0.171226 0
M  V30 239 C 22.8376 -2.71634 0.557686 0
M  V30 240 H 25.7886 -1.39159 0.762928 0
M  V30 241 H 25.8096 -3.76141 -0.574278 0
M  V30 242 H 25.3216 -3.67473 1.24841 0
M  V30 243 H 23.4226 -3.52313 -1.21269 0
M  V30 244 H 23.5356 -4.78745 0.184379 0
M  V30 245 H 21.8996 -2.547 0.00125792 0
M  V30 246 H 22.6826 -3.0379 1.59896 0
M  V30 247 N 25.1277 -0.289203 -1.54924 0
M  V30 248 C 26.0597 0.625583 -2.20497 0
M  V30 249 C 27.0727 1.10667 -1.19402 0
M  V30 250 O 28.2617 1.02615 -1.46056 0
M  V30 251 C 25.3617 1.86702 -2.82835 0
M  V30 252 C 24.5347 1.5304 -4.09753 0
M  V30 253 C 23.5937 2.62576 -4.56005 0
M  V30 254 O 22.6197 2.28167 -5.21468 0
M  V30 255 N 23.8217 3.92901 -4.27328 0
M  V30 256 H 26.5867 0.0642801 -2.99631 0
M  V30 257 H 24.1477 -0.110896 -1.6152 0
M  V30 258 H 26.1397 2.59304 -3.10715 0
M  V30 259 H 24.7097 2.33702 -2.07611 0
M  V30 260 H 23.9297 0.637564 -3.8901 0
M  V30 261 H 25.2177 1.28072 -4.92418 0
M  V30 262 H 24.6157 4.23671 -3.74859 0
M  V30 263 H 23.1727 4.61837 -4.59946 0
M  V30 264 N 26.6058 1.57591 -0.0167156 0
M  V30 265 C 27.8828 1.82547 0.702564 0
M  V30 266 C 28.2628 0.898018 1.91047 0
M  V30 267 O 27.6108 -0.0493456 2.28447 0
M  V30 268 C 27.8208 3.31459 1.09251 0
M  V30 269 C 29.1688 3.97622 1.48937 0
M  V30 270 O 30.1928 3.35881 1.18584 0
M  V30 271 O 29.0518 5.06415 2.05442 0
M  V30 272 H 26.1458 0.752268 0.343544 0
M  V30 273 H 28.6918 1.69644 -0.0434495 0
M  V30 274 H 27.4638 3.9061 0.23227 0
M  V30 275 H 27.0868 3.49422 1.89709 0
M  V30 276 N 28.0839 -0.256276 1.55502 0
M  V30 277 C 29.3299 -0.982884 1.78076 0
M  V30 278 C 29.6849 -1.83319 0.584109 0
M  V30 279 O 28.9779 -1.86875 -0.422877 0
M  V30 280 C 29.1719 -1.88432 3.03691 0
M  V30 281 C 29.0009 -1.12276 4.35459 0
M  V30 282 C 27.7709 -0.831647 4.98409 0
M  V30 283 C 29.9689 -0.504933 5.11815 0
M  V30 284 N 27.9509 -0.0450423 6.13883 0
M  V30 285 C 29.3219 0.146696 6.19826 0
M  V30 286 C 31.3769 -0.414455 4.96172 0
M  V30 287 C 30.0799 0.880103 7.13895 0
M  V30 288 C 32.1059 0.305398 5.90611 0
M  V30 289 C 31.4679 0.945701 6.98023 0
M  V30 290 H 27.5669 -0.341084 0.703694 0
M  V30 291 H 30.1509 -0.256909 1.92998 0
M  V30 292 H 28.3219 -2.58241 2.90114 0
M  V30 293 H 30.0539 -2.54579 3.14598 0
M  V30 294 H 26.8089 -1.14111 4.59647 0
M  V30 295 H 27.2329 0.336079 6.76165 0
M  V30 296 H 31.8749 -0.895163 4.13215 0
M  V30 297 H 29.5929 1.37244 7.9636 0
M  V30 298 H 33.1789 0.375946 5.80584 0
M  V30 299 H 32.0589 1.49383 7.6984 0
M  V30 300 N 29.562 -1.4872 -0.521534 0
M  V30 301 C 30.492 -1.66771 -1.63431 0
M  V30 302 C 31.473 -0.516499 -1.62069 0
M  V30 303 O 32.658 -0.750013 -1.79132 0
M  V30 304 C 29.788 -1.71515 -3.01993 0
M  V30 305 C 28.742 -2.86222 -3.18216 0
M  V30 306 C 28.068 -2.76061 -4.57924 0
M  V30 307 C 29.368 -4.27419 -3.00184 0
M  V30 308 H 31.062 -2.59932 -1.48579 0
M  V30 309 H 28.608 -1.25089 -0.713358 0
M  V30 310 H 30.561 -1.82731 -3.7972 0
M  V30 311 H 29.285 -0.749393 -3.17886 0
M  V30 312 H 27.944 -2.74575 -2.42908 0
M  V30 313 H 27.592 -1.77437 -4.70665 0
M  V30 314 H 27.292 -3.53037 -4.69722 0
M  V30 315 H 28.816 -2.89256 -5.37739 0
M  V30 316 H 30.23 -4.39855 -3.67697 0
M  V30 317 H 28.627 -5.05458 -3.2347 0
M  V30 318 H 29.697 -4.43293 -1.96518 0
M  V30 319 N 31.0401 0.771051 -1.3745 0
M  V30 320 C 32.4561 1.07171 -1.18265 0
M  V30 321 C 32.6561 2.01491 -0.019287 0
M  V30 322 O 31.7121 2.44244 0.640408 0
M  V30 323 C 33.0251 1.66854 -2.50161 0
M  V30 324 C 34.5731 1.79109 -2.56689 0
M  V30 325 C 35.0481 2.42205 -3.88717 0
M  V30 326 N 36.5391 2.49655 -3.90162 0
M  V30 327 C 37.2741 2.9933 -4.8907 0
M  V30 328 N 36.7701 3.49172 -5.98374 0
M  V30 329 N 38.5631 2.9821 -4.76474 0
M  V30 330 H 30.7141 0.144796 -2.11906 0
M  V30 331 H 32.9771 0.126863 -0.939473 0
M  V30 332 H 32.6831 1.05017 -3.35655 0
M  V30 333 H 32.5571 2.6614 -2.673 0
M  V30 334 H 34.9441 2.40077 -1.71601 0
M  V30 335 H 35.0251 0.785757 -2.43433 0
M  V30 336 H 34.6691 1.81875 -4.74219 0
M  V30 337 H 34.5991 3.43345 -3.99276 0
M  V30 338 H 37.0901 2.14383 -3.11205 0
M  V30 339 H 37.4031 3.8548 -6.69795 0
M  V30 340 H 35.7481 3.47275 -6.02018 0
M  V30 341 H 38.9391 2.58572 -3.90203 0
M  V30 342 H 39.1121 3.36613 -5.53711 0
M  V30 343 N 32.5182 1.22032 0.997298 0
M  V30 344 C 33.7662 1.04016 1.73278 0
M  V30 345 C 34.0872 -0.426255 1.90284 0
M  V30 346 O 33.3572 -1.30694 1.45931 0
M  V30 347 H 31.9372 0.381897 0.642 0
M  V30 348 H 34.5992 1.5347 1.20137 0
M  V30 349 H 33.6952 1.51441 2.72896 0
M  V30 350 N 33.9963 -1.19345 1.0293 0
M  V30 351 C 35.2263 -1.92717 0.744563 0
M  V30 352 C 35.6343 -1.75751 -0.700579 0
M  V30 353 O 34.9773 -1.07703 -1.48815 0
M  V30 354 C 35.0393 -3.44828 1.01657 0
M  V30 355 C 34.7033 -3.85564 2.45335 0
M  V30 356 C 35.7003 -3.90286 3.43472 0
M  V30 357 C 33.3853 -4.1719 2.79746 0
M  V30 358 C 35.3793 -4.26065 4.74075 0
M  V30 359 C 33.0663 -4.52642 4.10559 0
M  V30 360 C 34.0643 -4.57054 5.07534 0
M  V30 361 O 33.7523 -4.91685 6.36004 0
M  V30 362 H 33.4843 -0.618977 0.271742 0
M  V30 363 H 36.0383 -1.52415 1.37691 0
M  V30 364 H 34.2683 -3.85314 0.327084 0
M  V30 365 H 35.9573 -3.99437 0.721427 0
M  V30 366 H 36.7233 -3.66002 3.18225 0
M  V30 367 H 32.6023 -4.1294 2.04943 0
M  V30 368 H 36.1463 -4.29423 5.49765 0
M  V30 369 H 32.0433 -4.76383 4.35579 0
M  V30 370 H 32.8113 -5.09631 6.40483 0
M  V30 371 N 35.4744 -0.807222 -1.35358 0
M  V30 372 C 36.4064 -0.175717 -2.28525 0
M  V30 373 C 37.4194 0.625354 -1.5031 0
M  V30 374 O 38.6084 0.457611 -1.72535 0
M  V30 375 C 35.7084 0.773471 -3.29956 0
M  V30 376 C 34.8814 0.0186296 -4.37396 0
M  V30 377 C 33.9404 0.886395 -5.18681 0
M  V30 378 O 32.9664 0.337106 -5.68201 0
M  V30 379 N 34.1684 2.20839 -5.36852 0
M  V30 380 H 36.9334 -0.976091 -2.83359 0
M  V30 381 H 34.4944 -0.662737 -1.47714 0
M  V30 382 H 36.4864 1.35824 -3.81227 0
M  V30 383 H 35.0564 1.47465 -2.75632 0
M  V30 384 H 34.2764 -0.747349 -3.87051 0
M  V30 385 H 35.5644 -0.501577 -5.06322 0
M  V30 386 H 34.9624 2.67858 -4.98265 0
M  V30 387 H 33.5194 2.74237 -5.91301 0
M  V30 388 N 36.9525 1.47285 -0.560781 0
M  V30 389 C 38.1775 2.07359 -0.0410566 0
M  V30 390 C 38.6025 1.41017 1.24483 0
M  V30 391 O 37.9605 0.486368 1.74654 0
M  V30 392 C 38.0085 3.6035 0.134123 0
M  V30 393 O 37.1125 3.94681 1.19587 0
M  V30 394 H 36.4535 0.661887 -0.0529291 0
M  V30 395 H 38.9835 1.89252 -0.777482 0
M  V30 396 H 38.9935 4.0652 0.347207 0
M  V30 397 H 37.6685 4.08034 -0.805047 0
M  V30 398 H 36.2455 3.60251 0.962987 0
M  V30 399 N 38.4306 0.297415 1.54768 0
M  V30 400 C 39.3626 -0.613881 2.20826 0
M  V30 401 C 40.3756 -1.10032 1.19987 0
M  V30 402 O 41.5646 -1.01839 1.46598 0
M  V30 403 C 38.6646 -1.852 2.83821 0
M  V30 404 C 37.8376 -1.50865 4.10559 0
M  V30 405 C 36.8966 -2.60154 4.57391 0
M  V30 406 O 35.9226 -2.25398 5.2267 0
M  V30 407 N 37.1246 -3.90629 4.29406 0
M  V30 408 H 39.8896 -0.048389 2.99661 0
M  V30 409 H 37.4506 0.11946 1.61459 0
M  V30 410 H 39.4426 -2.57652 3.12086 0
M  V30 411 H 38.0126 -2.32597 2.08847 0
M  V30 412 H 37.2326 -0.616925 3.89343 0
M  V30 413 H 38.5206 -1.25458 4.9309 0
M  V30 414 H 37.9186 -4.21677 3.77101 0
M  V30 415 H 36.4756 -4.59391 4.62388 0
M  V30 416 N 39.9087 -1.5758 0.0250728 0
M  V30 417 C 41.3197 -1.79476 -0.514323 0
M  V30 418 C 41.6707 -0.934956 -1.72491 0
M  V30 419 O 40.7957 -0.144245 -2.15919 0
M  V30 420 C 41.3907 -3.25503 -0.939842 0
M  V30 421 C 39.9497 -3.48408 -1.42438 0
M  V30 422 C 39.0967 -2.74583 -0.387201 0
M  V30 423 H 42.0477 -1.567 0.25113 0
M  V30 424 H 42.0687 -3.34992 -1.80445 0
M  V30 425 H 41.5807 -3.88056 -0.0585628 0
M  V30 426 H 39.6817 -2.91103 -2.32572 0
M  V30 427 H 39.7947 -4.57119 -1.43455 0
M  V30 428 H 38.1587 -2.39942 -0.854409 0
M  V30 429 H 38.9417 -3.39849 0.485543 0
M  V30 430 N 41.3868 0.248026 -1.55636 0
M  V30 431 C 42.3188 1.32993 -1.8667 0
M  V30 432 C 43.3318 1.44345 -0.752877 0
M  V30 433 O 44.5208 1.45715 -1.03098 0
M  V30 434 C 41.6208 2.70863 -2.03682 0
M  V30 435 C 40.7938 2.81792 -3.34532 0
M  V30 436 C 39.8528 4.005 -3.41301 0
M  V30 437 O 38.8788 3.9008 -4.14519 0
M  V30 438 N 40.0808 5.13618 -2.70512 0
M  V30 439 H 42.8458 1.06707 -2.8006 0
M  V30 440 H 40.4068 0.438129 -1.55859 0
M  V30 441 H 42.3988 3.48612 -2.05553 0
M  V30 442 H 40.9688 2.89862 -1.17041 0
M  V30 443 H 40.1888 1.90729 -3.44987 0
M  V30 444 H 41.4768 2.86043 -4.20781 0
M  V30 445 H 40.8748 5.24975 -2.10755 0
M  V30 446 H 39.4318 5.89505 -2.78077 0
M  V30 447 N 42.8649 1.48995 0.513639 0
M  V30 448 C 43.7749 1.67443 1.64317 0
M  V30 449 C 44.7909 0.556947 1.64846 0
M  V30 450 O 45.9669 0.830082 1.83498 0
M  V30 451 C 43.0319 1.72515 3.00732 0
M  V30 452 C 42.0929 2.96009 3.1093 0
M  V30 453 C 41.3259 3.00829 4.40837 0
M  V30 454 O 41.5489 2.13594 5.28898 0
M  V30 455 O 40.4829 3.93168 4.55744 0
M  V30 456 H 44.3089 2.63106 1.51687 0
M  V30 457 H 41.8939 1.32588 0.688543 0
M  V30 458 H 43.7759 1.78277 3.81831 0
M  V30 459 H 42.4509 0.800278 3.13651 0
M  V30 460 H 41.3579 2.9577 2.29065 0
M  V30 461 H 42.6909 3.87934 3.02933 0
M  V30 462 N 44.343 -0.763751 1.37857 0
M  V30 463 C 45.589 -1.52396 1.3471 0
M  V30 464 C 45.944 -1.92288 -0.0656435 0
M  V30 465 O 45.237 -1.6181 -1.02606 0
M  V30 466 C 45.431 -2.79499 2.22745 0
M  V30 467 C 45.26 -2.52031 3.72438 0
M  V30 468 C 44.03 -2.45759 4.4151 0
M  V30 469 C 46.228 -2.19489 4.65112 0
M  V30 470 N 44.21 -2.1046 5.76697 0
M  V30 471 C 45.581 -1.94396 5.88736 0
M  V30 472 C 47.636 -2.05712 4.53417 0
M  V30 473 C 46.339 -1.56917 7.01975 0
M  V30 474 C 48.365 -1.69634 5.66549 0
M  V30 475 C 47.727 -1.45407 6.89229 0
M  V30 476 H 43.826 -0.55765 0.548225 0
M  V30 477 H 46.41 -0.890302 1.73152 0
M  V30 478 H 44.581 -3.4069 1.86507 0
M  V30 479 H 46.313 -3.45465 2.10798 0
M  V30 480 H 43.068 -2.61885 3.94605 0
M  V30 481 H 43.492 -1.95484 6.48163 0
M  V30 482 H 48.134 -2.23123 3.59133 0
M  V30 483 H 45.852 -1.38246 7.96187 0
M  V30 484 H 49.438 -1.59621 5.59475 0
M  V30 485 H 48.318 -1.17904 7.75286 0
M  V30 486 N 45.8211 -1.22559 -0.990812 0
M  V30 487 C 47.0981 -0.959875 -1.70428 0
M  V30 488 C 47.4781 0.524455 -2.04481 0
M  V30 489 O 46.8261 1.49302 -1.72977 0
M  V30 490 C 47.0361 -1.85955 -2.95333 0
M  V30 491 C 48.3841 -2.11687 -3.68068 0
M  V30 492 O 49.4081 -1.8342 -3.05345 0
M  V30 493 O 48.2671 -2.59572 -4.80921 0
M  V30 494 H 45.3611 -0.361154 -0.743974 0
M  V30 495 H 47.9071 -1.33554 -1.04697 0
M  V30 496 H 46.6791 -2.86346 -2.66687 0
M  V30 497 H 46.3021 -1.4856 -3.68803 0
M  V30 498 N 47.2992 1.18797 -1.03562 0
M  V30 499 C 48.5292 1.92319 -0.754773 0
M  V30 500 C 48.9372 1.7612 0.691248 0
M  V30 501 O 48.2802 1.08491 1.48241 0
M  V30 502 C 48.3422 3.44284 -1.03484 0
M  V30 503 C 48.0062 3.84258 -2.47376 0
M  V30 504 C 49.0032 3.88459 -3.45537 0
M  V30 505 C 46.6882 4.15701 -2.81954 0
M  V30 506 C 48.6822 4.23545 -4.76328 0
M  V30 507 C 46.3692 4.50458 -4.12954 0
M  V30 508 C 47.3672 4.54356 -5.09951 0
M  V30 509 O 47.0552 4.88305 -6.38603 0
M  V30 510 H 46.7872 0.617527 -0.275021 0
M  V30 511 H 49.3412 1.51683 -1.38497 0
M  V30 512 H 47.5712 3.85135 -0.347513 0
M  V30 513 H 49.2602 3.99049 -0.7426 0
M  V30 514 H 50.0262 3.6431 -3.20162 0
M  V30 515 H 45.9052 4.11847 -2.0713 0
M  V30 516 H 49.4492 4.26502 -5.52035 0
M  V30 517 H 45.3462 4.74067 -4.38099 0
M  V30 518 H 46.1142 5.06227 -6.43177 0
M  V30 519 N 48.7773 0.814389 1.34928 0
M  V30 520 C 50.0233 0.408167 1.99263 0
M  V30 521 C 50.3783 -1.0154 1.63424 0
M  V30 522 O 49.6713 -1.69607 0.891289 0
M  V30 523 C 49.8653 0.537781 3.53331 0
M  V30 524 C 49.6943 1.9724 4.04137 0
M  V30 525 C 48.4643 2.60245 4.33129 0
M  V30 526 C 50.6623 2.93801 4.2212 0
M  V30 527 N 48.6443 3.95036 4.69914 0
M  V30 528 C 50.0153 4.1348 4.6199 0
M  V30 529 C 52.0703 2.9053 4.04348 0
M  V30 530 C 50.7733 5.3033 4.85945 0
M  V30 531 C 52.7993 4.06589 4.29464 0
M  V30 532 C 52.1613 5.25017 4.69613 0
M  V30 533 H 48.2603 0.197289 0.756704 0
M  V30 534 H 50.8443 1.05728 1.63492 0
M  V30 535 H 49.0153 -0.0813868 3.88315 0
M  V30 536 H 50.7473 0.105389 4.04563 0
M  V30 537 H 47.5023 2.11545 4.23728 0
M  V30 538 H 47.9263 4.64455 4.92555 0
M  V30 539 H 52.5683 2.00115 3.72443 0
M  V30 540 H 50.2863 6.21309 5.16721 0
M  V30 541 H 53.8723 4.05447 4.17257 0
M  V30 542 H 52.7523 6.1333 4.88667 0
M  V30 543 N 50.2554 -1.46986 0.568584 0
M  V30 544 C 51.5014 -2.02741 0.0488709 0
M  V30 545 C 51.8344 -1.44077 -1.30214 0
M  V30 546 O 51.1094 -0.600552 -1.84996 0
M  V30 547 C 51.3924 -3.60086 -0.032047 0
M  V30 548 C 51.2454 -4.29162 1.34686 0
M  V30 549 C 52.5644 -4.33838 -0.739798 0
M  V30 550 H 49.6834 -0.736749 0.0192338 0
M  V30 551 H 52.3254 -1.75289 0.733065 0
M  V30 552 H 50.4754 -3.83606 -0.61473 0
M  V30 553 H 52.1474 -4.16948 1.97362 0
M  V30 554 H 50.3904 -3.89073 1.91846 0
M  V30 555 H 51.0614 -5.37826 1.24285 0
M  V30 556 H 53.5374 -4.15378 -0.244939 0
M  V30 557 H 52.4134 -5.43537 -0.765406 0
M  V30 558 H 52.6744 -4.03875 -1.79827 0
M  V30 559 N 51.7335 -0.305618 -1.54608 0
M  V30 560 C 52.6435 0.57778 -2.27374 0
M  V30 561 C 53.6595 1.14451 -1.31061 0
M  V30 562 O 54.8355 1.16831 -1.6405 0
M  V30 563 C 51.9005 1.73123 -3.00382 0
M  V30 564 C 50.9615 1.19812 -4.12242 0
M  V30 565 C 50.1945 2.2966 -4.81759 0
M  V30 566 O 50.4175 3.49651 -4.50666 0
M  V30 567 O 49.3515 1.96091 -5.69062 0
M  V30 568 H 53.1775 -0.012624 -3.03697 0
M  V30 569 H 50.7625 -0.0719184 -1.49227 0
M  V30 570 H 52.6445 2.40315 -3.4616 0
M  V30 571 H 51.3195 2.30815 -2.26949 0
M  V30 572 H 50.2265 0.491798 -3.70853 0
M  V30 573 H 51.5595 0.666566 -4.87666 0
M  V30 574 N 53.2116 1.57565 -0.0334293 0
M  V30 575 C 54.4886 1.83282 0.683163 0
M  V30 576 C 54.8686 0.91823 1.90084 0
M  V30 577 O 54.2166 -0.025113 2.28486 0
M  V30 578 C 54.4266 3.32599 1.0573 0
M  V30 579 C 55.7746 3.99179 1.44711 0
M  V30 580 O 56.7986 3.3712 1.15015 0
M  V30 581 O 55.6576 5.08565 2.0006 0
M  V30 582 H 52.7516 0.755869 0.335546 0
M  V30 583 H 55.2976 1.69589 -0.0614402 0
M  V30 584 H 54.0696 3.90834 0.190828 0
M  V30 585 H 53.6926 3.51415 1.85993 0
M  V30 586 N 54.6897 -0.239769 1.55765 0
M  V30 587 C 55.9357 -0.968234 1.78194 0
M  V30 588 C 56.2687 -1.84701 0.599938 0
M  V30 589 O 55.5437 -1.9031 -0.401524 0
M  V30 590 C 55.8267 -1.8227 3.10564 0
M  V30 591 C 55.6797 -0.971633 4.3918 0
M  V30 592 C 56.9987 -2.80388 3.39221 0
M  V30 593 H 54.1177 -0.350572 0.648281 0
M  V30 594 H 56.7597 -0.238259 1.885 0
M  V30 595 H 54.9097 -2.44507 3.01908 0
M  V30 596 H 56.5817 -0.367408 4.59835 0
M  V30 597 H 54.8247 -0.276276 4.32919 0
M  V30 598 H 55.4957 -1.60346 5.28198 0
M  V30 599 H 57.9717 -2.28287 3.47885 0
M  V30 600 H 56.8477 -3.3729 4.33044 0
M  V30 601 H 57.1087 -3.57212 2.60484 0
M  V30 602 N 56.1678 -1.49265 -0.50573 0
M  V30 603 C 57.0778 -1.68312 -1.63427 0
M  V30 604 C 58.0938 -0.565682 -1.64548 0
M  V30 605 O 59.2698 -0.839801 -1.83055 0
M  V30 606 C 56.3348 -1.74107 -2.99813 0
M  V30 607 C 55.3958 -2.97653 -3.09356 0
M  V30 608 C 54.6288 -3.03163 -4.39236 0
M  V30 609 O 54.8518 -2.16396 -5.27758 0
M  V30 610 O 53.7858 -3.9558 -4.53652 0
M  V30 611 H 57.6118 -2.63907 -1.50289 0
M  V30 612 H 55.1968 -1.32951 -0.681502 0
M  V30 613 H 57.0788 -1.803 -3.80881 0
M  V30 614 H 55.7538 -0.816901 -3.13223 0
M  V30 615 H 54.6608 -2.96981 -2.27493 0
M  V30 616 H 55.9938 -3.89535 -3.00871 0
M  V30 617 N 57.6459 0.756429 -1.3826 0
M  V30 618 C 58.8939 1.51248 -1.34047 0
M  V30 619 C 59.2149 1.94875 0.0698372 0
M  V30 620 O 58.4849 1.67436 1.01696 0
M  V30 621 H 57.0649 0.561018 -0.493222 0
M  V30 622 H 59.7269 0.899347 -1.7291 0
M  V30 623 H 58.8229 2.40472 -1.98947 0
M  V30 624 N 59.124 1.23083 0.984299 0
M  V30 625 C 60.349 1.088 1.76571 0
M  V30 626 C 60.774 -0.356657 1.84688 0
M  V30 627 O 60.132 -1.25788 1.30565 0
M  V30 628 C 60.18 1.71371 3.17277 0
M  V30 629 O 59.284 0.973213 4.00752 0
M  V30 630 H 58.625 0.381599 0.543395 0
M  V30 631 H 61.155 1.63057 1.23587 0
M  V30 632 H 61.165 1.76449 3.67872 0
M  V30 633 H 59.84 2.76493 3.10684 0
M  V30 634 H 58.417 0.999078 3.59267 0
M  V30 635 N 60.6021 -1.18246 1.0419 0
M  V30 636 C 61.8511 -1.87588 0.741194 0
M  V30 637 C 62.1641 -1.81303 -0.734066 0
M  V30 638 O 63.3701 -2.46019 -1.14834 0
M  V30 639 C 61.8261 -3.36538 1.27555 0
M  V30 640 C 61.4341 -3.51349 2.77953 0
M  V30 641 C 63.1781 -4.11273 1.05143 0
M  V30 642 C 61.0851 -4.94265 3.2474 0
M  V30 643 H 60.0151 -0.702622 0.273565 0
M  V30 644 H 62.6661 -1.33601 1.25789 0
M  V30 645 H 61.0481 -3.9 0.686703 0
M  V30 646 H 62.2221 -3.08153 3.42605 0
M  V30 647 H 60.5371 -2.90022 2.98791 0
M  V30 648 H 63.1341 -5.16689 1.37611 0
M  V30 649 H 63.4771 -4.16298 -0.0112774 0
M  V30 650 H 64.0101 -3.63987 1.60495 0
M  V30 651 H 60.7491 -4.94408 4.30396 0
M  V30 652 H 60.2691 -5.38172 2.64823 0
M  V30 653 H 61.9481 -5.62987 3.18834 0
M  V30 654 N 62.0802 -0.821533 -1.34494 0
M  V30 655 C 63.4912 -0.467956 -1.8074 0
M  V30 656 C 63.8422 1.01151 -1.68116 0
M  V30 657 O 62.9672 1.78707 -1.22036 0
M  V30 658 C 63.5622 -0.842627 -3.28154 0
M  V30 659 C 62.1212 -0.541439 -3.72485 0
M  V30 660 C 61.2682 -1.06028 -2.56229 0
M  V30 661 H 64.2192 -1.01183 -1.22261 0
M  V30 662 H 64.2402 -0.145876 -3.8022 0
M  V30 663 H 63.7522 -1.91945 -3.37311 0
M  V30 664 H 61.8532 0.526034 -3.68868 0
M  V30 665 H 61.9662 -1.08453 -4.66663 0
M  V30 666 H 60.3302 -0.481892 -2.501 0
M  V30 667 H 61.1132 -2.14352 -2.68157 0
M  V30 668 N 63.5583 1.46682 -0.576371 0
M  V30 669 C 64.9693 1.86112 -0.148091 0
M  V30 670 C 65.3203 1.48073 1.2872 0
M  V30 671 O 64.4453 0.892656 1.97131 0
M  V30 672 C 65.0403 3.37786 -0.261982 0
M  V30 673 C 63.5993 3.76235 0.111384 0
M  V30 674 C 62.7463 2.70713 -0.60083 0
M  V30 675 H 65.6973 1.37927 -0.78497 0
M  V30 676 H 65.7183 3.77007 0.514364 0
M  V30 677 H 65.2303 3.6544 -1.30671 0
M  V30 678 H 63.3313 3.54198 1.15649 0
M  V30 679 H 63.4443 4.78391 -0.26052 0
M  V30 680 H 61.8083 2.54666 -0.0417783 0
M  V30 681 H 62.5913 3.01208 -1.64708 0
M  V30 682 N 65.0364 0.313813 1.54444 0
M  V30 683 C 66.3134 -0.345447 1.92525 0
M  V30 684 C 66.6934 -1.70667 1.24242 0
M  V30 685 O 66.0414 -2.25273 0.382654 0
M  V30 686 C 66.2514 -0.44737 3.46121 0
M  V30 687 C 67.5994 -0.712238 4.18584 0
M  V30 688 O 68.6234 -0.530678 3.52225 0
M  V30 689 O 67.4824 -1.06183 5.36085 0
M  V30 690 H 64.5764 -0.195407 0.803583 0
M  V30 691 H 67.1224 0.362813 1.65776 0
M  V30 692 H 65.8944 0.509043 3.87975 0
M  V30 693 H 65.5174 -1.20359 3.78945 0
M  V30 694 N 66.5145 -1.57545 0.0417849 0
M  V30 695 C 67.4445 -2.14009 -0.933929 0
M  V30 696 C 68.4255 -1.05938 -1.33083 0
M  V30 697 O 69.6105 -1.33833 -1.40721 0
M  V30 698 C 66.7405 -2.67747 -2.21199 0
M  V30 699 C 65.6945 -3.80718 -1.95544 0
M  V30 700 C 65.0205 -4.20935 -3.29724 0
M  V30 701 C 66.3205 -5.06258 -1.28452 0
M  V30 702 H 68.0145 -2.95788 -0.463645 0
M  V30 703 H 65.5605 -1.42285 -0.221573 0
M  V30 704 H 67.5135 -3.05886 -2.89848 0
M  V30 705 H 66.2375 -1.83147 -2.70416 0
M  V30 706 H 64.8965 -3.43037 -1.2931 0
M  V30 707 H 64.5445 -3.33298 -3.76724 0
M  V30 708 H 64.2445 -4.9707 -3.13361 0
M  V30 709 H 65.7685 -4.61666 -3.9962 0
M  V30 710 H 67.1825 -5.41903 -1.8712 0
M  V30 711 H 65.5795 -5.87475 -1.22445 0
M  V30 712 H 66.6495 -4.84207 -0.259219 0
M  V30 713 N 67.9926 0.231505 -1.5589 0
M  V30 714 C 68.9246 1.31006 -1.8807 0
M  V30 715 C 69.9376 1.43539 -0.768145 0
M  V30 716 O 71.1266 1.44614 -1.04638 0
M  V30 717 C 68.2266 2.68688 -2.06543 0
M  V30 718 C 67.3996 2.78228 -3.37502 0
M  V30 719 C 66.4586 3.96857 -3.4553 0
M  V30 720 O 65.4846 3.85662 -4.18633 0
M  V30 721 N 66.6866 5.1072 -2.75944 0
M  V30 722 H 69.4516 1.03731 -2.81176 0
M  V30 723 H 67.0126 0.421573 -1.56315 0
M  V30 724 H 69.0046 3.46412 -2.09239 0
M  V30 725 H 67.5746 2.88605 -1.20109 0
M  V30 726 H 66.7946 1.87059 -3.46991 0
M  V30 727 H 68.0826 2.81564 -4.23791 0
M  V30 728 H 67.4806 5.2271 -2.16311 0
M  V30 729 H 66.0376 5.86523 -2.84314 0
M  V30 730 N 69.4707 1.49531 0.497807 0
M  V30 731 C 70.7187 1.58865 1.24926 0
M  V30 732 C 71.0397 0.278721 1.92998 0
M  V30 733 O 70.3097 -0.702144 1.82885 0
M  V30 734 H 68.8897 0.585343 0.464094 0
M  V30 735 H 71.5517 1.86174 0.57666 0
M  V30 736 H 70.6477 2.38633 2.01149 0
M  V30 737 N 70.9488 -0.749086 1.3866 0
M  V30 738 C 72.1768 -1.53834 1.38358 0
M  V30 739 C 72.5918 -1.88783 -0.0255219 0
M  V30 740 O 71.9488 -1.53101 -0.993292 0
M  V30 741 C 71.9998 -2.83468 2.2434 0
M  V30 742 O 71.7208 -2.50008 3.5976 0
M  V30 743 C 73.2218 -3.7758 2.32267 0
M  V30 744 H 70.4418 -0.47585 0.473083 0
M  V30 745 H 72.9858 -0.926726 1.82297 0
M  V30 746 H 71.1408 -3.40995 1.83851 0
M  V30 747 H 71.5548 -3.33182 4.05081 0
M  V30 748 H 73.0288 -4.65478 2.96706 0
M  V30 749 H 73.5058 -4.18334 1.33765 0
M  V30 750 H 74.1118 -3.25976 2.73166 0
M  V30 751 N 72.4269 -1.23603 -0.977757 0
M  V30 752 C 73.3569 -1.04401 -2.0886 0
M  V30 753 C 74.3379 0.0399052 -1.70053 0
M  V30 754 O 75.5229 -0.125246 -1.93796 0
M  V30 755 C 72.6529 -0.637269 -3.41403 0
M  V30 756 C 71.6069 -1.66883 -3.94124 0
M  V30 757 C 70.9329 -1.11745 -5.22893 0
M  V30 758 C 72.2329 -3.06247 -4.23096 0
M  V30 759 H 73.9269 -1.97316 -2.25182 0
M  V30 760 H 71.4729 -0.950096 -1.08209 0
M  V30 761 H 73.4259 -0.48998 -4.18542 0
M  V30 762 H 72.1499 0.327557 -3.24953 0
M  V30 763 H 70.8089 -1.80416 -3.19133 0
M  V30 764 H 70.4569 -0.143527 -5.02795 0
M  V30 765 H 70.1569 -1.80672 -5.59134 0
M  V30 766 H 71.6809 -0.982067 -6.02651 0
M  V30 767 H 73.0949 -2.96001 -4.90975 0
M  V30 768 H 71.4919 -3.72436 -4.70544 0
M  V30 769 H 72.5619 -3.55041 -3.30263 0
M  V30 770 N 73.905 1.17692 -1.04816 0
M  V30 771 C 75.135 1.91508 -0.775128 0
M  V30 772 C 75.543 1.76844 0.67253 0
M  V30 773 O 74.886 1.10057 1.47082 0
M  V30 774 C 74.948 3.43167 -1.0713 0
M  V30 775 C 74.612 3.81612 -2.51438 0
M  V30 776 C 75.609 3.84772 -3.49638 0
M  V30 777 C 73.294 4.12687 -2.86348 0
M  V30 778 C 75.288 4.18469 -4.80794 0
M  V30 779 C 72.975 4.46053 -4.17708 0
M  V30 780 C 73.973 4.48921 -5.14741 0
M  V30 781 O 73.661 4.81504 -6.43746 0
M  V30 782 H 73.393 0.614575 -0.281555 0
M  V30 783 H 75.947 1.50206 -1.40098 0
M  V30 784 H 74.177 3.84745 -0.388342 0
M  V30 785 H 75.866 3.98239 -0.784883 0
M  V30 786 H 76.632 3.60893 -3.24008 0
M  V30 787 H 72.511 4.09627 -2.11486 0
M  V30 788 H 76.055 4.20623 -5.56527 0
M  V30 789 H 71.952 4.69393 -4.43103 0
M  V30 790 H 72.72 4.99377 -6.4851 0
M  V30 791 N 75.3831 0.828654 1.34056 0
M  V30 792 C 76.7991 0.515135 1.51058 0
M  V30 793 C 76.9991 -0.959581 1.77184 0
M  V30 794 O 76.0551 -1.74382 1.82612 0
M  V30 795 C 77.3681 1.37963 2.67183 0
M  V30 796 C 78.9161 1.37735 2.81066 0
M  V30 797 C 79.3911 2.22645 4.00241 0
M  V30 798 N 80.8821 2.203 4.07458 0
M  V30 799 C 81.6171 2.82744 4.98842 0
M  V30 800 N 81.1131 3.54201 5.9541 0
M  V30 801 N 82.9061 2.72268 4.91759 0
M  V30 802 H 75.0571 1.78343 1.15358 0
M  V30 803 H 77.3201 0.760304 0.566252 0
M  V30 804 H 77.0261 2.42714 2.54525 0
M  V30 805 H 76.9001 1.0484 3.62338 0
M  V30 806 H 79.2871 0.337593 2.93163 0
M  V30 807 H 79.3681 1.74859 1.86703 0
M  V30 808 H 79.0121 3.26674 3.88905 0
M  V30 809 H 78.9421 1.82869 4.93829 0
M  V30 810 H 81.4331 1.68327 3.38341 0
M  V30 811 H 81.7461 3.9908 6.61782 0
M  V30 812 H 80.0911 3.58308 5.95517 0
M  V30 813 H 83.2821 2.16014 4.15278 0
M  V30 814 H 83.4551 3.21219 5.62781 0
M  V30 815 N 76.8612 -1.46375 0.584142 0
M  V30 816 C 77.8092 -2.32042 -0.161047 0
M  V30 817 C 78.8032 -1.44569 -0.882966 0
M  V30 818 O 80.0092 -1.61186 -0.801191 0
M  V30 819 H 76.3842 -0.748659 -0.0708033 0
M  V30 820 H 78.3552 -2.92704 0.580269 0
M  V30 821 C 77.1042 -3.27762 -1.1605 0
M  V30 822 H 76.4272 -3.95051 -0.614419 0
M  V30 823 H 77.8672 -3.90481 -1.65228 0
M  V30 824 C 76.3262 -2.53218 -2.22221 0
M  V30 825 O 76.8562 -2.29628 -3.29597 0
M  V30 826 N 75.0622 -2.13756 -1.96868 0
M  V30 827 H 74.6092 -2.33142 -1.09557 0
M  V30 828 H 74.5672 -1.642 -2.68115 0
M  V30 829 N 78.3393 -0.321999 -1.54275 0
M  V30 830 C 79.5873 0.280489 -2.00144 0
M  V30 831 C 79.9083 1.52777 -1.21178 0
M  V30 832 O 79.1783 1.9338 -0.313187 0
M  V30 833 H 77.7583 0.106632 -0.73935 0
M  V30 834 H 80.4203 -0.438184 -1.8991 0
M  V30 835 H 79.5163 0.537972 -3.07428 0
M  V30 836 N 79.8174 1.5752 -0.0501392 0
M  V30 837 C 81.2284 1.80271 0.485705 0
M  V30 838 C 81.5794 0.96228 1.70981 0
M  V30 839 O 80.7044 0.178578 2.15662 0
M  V30 840 C 81.2994 3.26957 0.887938 0
M  V30 841 C 79.8584 3.5063 1.36877 0
M  V30 842 C 79.0054 2.75165 0.343468 0
M  V30 843 H 81.9564 1.56281 -0.276028 0
M  V30 844 H 81.9774 3.37821 1.75093 0
M  V30 845 H 81.4894 3.881 -0.0031809 0
M  V30 846 H 79.5904 2.94766 2.27911 0
M  V30 847 H 79.7034 4.59343 1.36164 0
M  V30 848 H 78.0674 2.4127 0.816128 0
M  V30 849 H 78.8504 3.39034 -0.539548 0
M  V30 850 N 81.2955 -0.223234 1.56011 0
M  V30 851 C 82.5435 -0.946003 1.78592 0
M  V30 852 C 82.8645 -1.84936 0.618349 0
M  V30 853 O 82.1345 -1.92473 -0.364833 0
M  V30 854 H 80.7145 -0.352298 0.658707 0
M  V30 855 H 83.3765 -0.235494 1.93472 0
M  V30 856 H 82.4725 -1.55381 2.70672 0
M  V30 857 N 82.7736 -1.49793 -0.48987 0
M  V30 858 C 83.7036 -1.70201 -1.59856 0
M  V30 859 C 84.6846 -0.55076 -1.60937 0
M  V30 860 O 85.8696 -0.787841 -1.77501 0
M  V30 861 C 82.9996 -1.77882 -2.98287 0
M  V30 862 C 81.9536 -2.92907 -3.12073 0
M  V30 863 C 81.2796 -2.85712 -4.51965 0
M  V30 864 C 82.5796 -4.3369 -2.91051 0
M  V30 865 H 84.2736 -2.63025 -1.43032 0
M  V30 866 H 81.8196 -1.26574 -0.686664 0
M  V30 867 H 83.7726 -1.90744 -3.75759 0
M  V30 868 H 82.4966 -0.816653 -3.16225 0
M  V30 869 H 81.1556 -2.79665 -2.37029 0
M  V30 870 H 80.8036 -1.8738 -4.66795 0
M  V30 871 H 80.5036 -3.62921 -4.62128 0
M  V30 872 H 82.0276 -3.00598 -5.31482 0
M  V30 873 H 83.4416 -4.47555 -3.58284 0
M  V30 874 H 81.8386 -5.12205 -3.12675 0
M  V30 875 H 82.9086 -4.47362 -1.87071 0
M  V30 876 N 84.2517 0.741722 -1.39055 0
M  V30 877 C 85.1817 1.869 -1.39966 0
M  V30 878 C 86.1627 1.6804 -0.26392 0
M  V30 879 O 87.3477 1.88458 -0.468755 0
M  V30 880 C 84.4777 3.24572 -1.23574 0
M  V30 881 C 83.4317 3.58056 -2.34477 0
M  V30 882 C 82.7577 4.94593 -2.0318 0
M  V30 883 C 84.0577 3.61716 -3.76774 0
M  V30 884 H 85.7517 1.86395 -2.34302 0
M  V30 885 H 83.2977 0.895361 -1.1278 0
M  V30 886 H 85.2507 4.031 -1.22834 0
M  V30 887 H 83.9747 3.25587 -0.257045 0
M  V30 888 H 82.6337 2.81854 -2.34423 0
M  V30 889 H 82.2817 4.92181 -1.03765 0
M  V30 890 H 81.9817 5.17964 -2.77465 0
M  V30 891 H 83.5057 5.75486 -2.04079 0
M  V30 892 H 84.9197 4.30335 -3.78794 0
M  V30 893 H 83.3167 3.96603 -4.50362 0
M  V30 894 H 84.3867 2.61672 -4.08235 0
M  V30 895 N 85.7298 1.2412 0.971189 0
M  V30 896 C 86.6398 1.04747 2.09917 0
M  V30 897 C 87.6558 -0.0107162 1.73997 0
M  V30 898 O 88.8318 0.186714 2.00533 0
M  V30 899 C 85.8968 0.650828 3.40537 0
M  V30 900 C 84.9578 1.7851 3.90426 0
M  V30 901 C 84.1908 1.40729 5.14812 0
M  V30 902 O 84.4138 0.29557 5.69634 0
M  V30 903 O 83.3478 2.23168 5.58999 0
M  V30 904 H 87.1738 1.99304 2.29154 0
M  V30 905 H 84.7588 1.02908 1.08307 0
M  V30 906 H 86.6408 0.440992 4.19086 0
M  V30 907 H 85.3158 -0.265649 3.22608 0
M  V30 908 H 84.2228 2.04966 3.12953 0
M  V30 909 H 85.5558 2.68023 4.12825 0
M  V30 910 N 87.2079 -1.17134 1.05439 0
M  V30 911 C 88.4569 -1.86791 0.761049 0
M  V30 912 C 88.7699 -1.82072 -0.714795 0
M  V30 913 O 89.9759 -2.47223 -1.12218 0
M  V30 914 C 88.4319 -3.35166 1.31117 0
M  V30 915 C 88.0399 -3.48381 2.81664 0
M  V30 916 C 89.7839 -4.10134 1.09499 0
M  V30 917 C 87.6909 -4.90793 3.29964 0
M  V30 918 H 86.6209 -0.699681 0.281002 0
M  V30 919 H 89.2719 -1.3226 1.27199 0
M  V30 920 H 87.6539 -3.8925 0.72803 0
M  V30 921 H 88.8279 -3.04502 3.45855 0
M  V30 922 H 87.1429 -2.86836 3.01851 0
M  V30 923 H 89.7399 -5.152 1.43084 0
M  V30 924 H 90.0829 -4.16287 0.0328772 0
M  V30 925 H 90.6159 -3.62264 1.64346 0
M  V30 926 H 87.3549 -4.89816 4.35616 0
M  V30 927 H 86.8749 -5.35333 2.70516 0
M  V30 928 H 88.5539 -5.59573 3.24787 0
M  V30 929 N 88.686 -0.835752 -1.33615 0
M  V30 930 C 89.934 -0.429109 -1.97492 0
M  V30 931 C 90.255 1.01433 -1.66543 0
M  V30 932 O 89.525 1.70611 -0.962744 0
M  V30 933 H 88.105 -0.155686 -0.730596 0
M  V30 934 H 90.767 -1.06802 -1.63031 0
M  V30 935 H 89.863 -0.55861 -3.0706 0
M  V30 936 N 90.1641 1.46063 -0.591896 0
M  V30 937 C 91.4411 1.95595 -0.0137119 0
M  V30 938 C 91.8211 1.5345 1.4497 0
M  V30 939 O 91.1691 0.789543 2.14426 0
M  V30 940 C 91.3791 3.48453 -0.195373 0
M  V30 941 C 92.7271 4.24546 -0.0679765 0
M  V30 942 O 93.7511 3.55982 -0.124681 0
M  V30 943 O 92.6101 5.46467 0.0600579 0
M  V30 944 H 89.7041 0.825795 0.0446279 0
M  V30 945 H 92.2501 1.56303 -0.660859 0
M  V30 946 H 91.0221 3.72045 -1.21235 0
M  V30 947 H 90.6451 3.94597 0.487775 0
M  V30 948 N 91.6422 0.330177 1.54103 0
M  V30 949 C 93.0582 -0.0222371 1.59585 0
M  V30 950 C 93.2582 -1.49902 1.34654 0
M  V30 951 O 92.3142 -2.25592 1.13421 0
M  V30 952 C 93.6272 0.401932 2.98002 0
M  V30 953 C 95.1752 0.353145 3.11001 0
M  V30 954 C 95.6502 0.752576 4.51775 0
M  V30 955 N 97.1412 0.706239 4.57784 0
M  V30 956 C 97.8762 0.987417 5.64834 0
M  V30 957 N 97.3722 1.33607 6.79795 0
M  V30 958 N 99.1652 0.91254 5.54643 0
M  V30 959 H 91.3162 1.29228 1.68564 0
M  V30 960 H 93.5792 0.525906 0.78875 0
M  V30 961 H 93.2852 1.4311 3.21267 0
M  V30 962 H 93.1592 -0.229699 3.765 0
M  V30 963 H 95.5462 -0.666822 2.87467 0
M  V30 964 H 95.6272 1.0198 2.34593 0
M  V30 965 H 95.2712 1.77049 4.76042 0
M  V30 966 H 95.2012 0.0635409 5.26562 0
M  V30 967 H 97.6922 0.44889 3.75224 0
M  V30 968 H 98.0052 1.53582 7.57385 0
M  V30 969 H 96.3502 1.37439 6.81275 0
M  V30 970 H 99.5412 0.639601 4.6371 0
M  V30 971 H 99.7142 1.13503 6.37982 0
M  V30 972 N 93.1203 -1.57491 0.0584922 0
M  V30 973 C 94.5313 -1.80526 -0.476138 0
M  V30 974 C 94.8823 -0.971334 -1.70469 0
M  V30 975 O 94.0073 -0.190012 -2.15564 0
M  V30 976 C 94.6023 -3.27424 -0.870587 0
M  V30 977 C 93.1613 -3.51351 -1.35015 0
M  V30 978 C 92.3083 -2.75343 -0.32887 0
M  V30 979 H 95.2593 -1.56133 0.284312 0
M  V30 980 H 95.2803 -3.38745 -1.73299 0
M  V30 981 H 94.7923 -3.88093 0.0237627 0
M  V30 982 H 92.8933 -2.95971 -2.26345 0
M  V30 983 H 93.0063 -4.60059 -1.33726 0
M  V30 984 H 91.3703 -2.417 -0.803321 0
M  V30 985 H 92.1533 -3.38743 0.557521 0
M  V30 986 N 94.5984 0.214957 -1.56127 0
M  V30 987 C 95.5284 1.2695 -1.95974 0
M  V30 988 C 96.5094 1.48539 -0.828868 0
M  V30 989 O 97.6944 1.60611 -1.09168 0
M  V30 990 C 94.8244 2.61794 -2.28214 0
M  V30 991 C 93.7784 2.54851 -3.43853 0
M  V30 992 C 93.1044 3.93785 -3.61715 0
M  V30 993 C 94.4044 2.09065 -4.78632 0
M  V30 994 H 96.0984 0.93846 -2.84312 0
M  V30 995 H 93.6444 0.449996 -1.36788 0
M  V30 996 H 95.5974 3.35731 -2.54682 0
M  V30 997 H 94.3214 2.96599 -1.36736 0
M  V30 998 H 92.9804 1.8337 -3.17444 0
M  V30 999 H 92.6284 4.25908 -2.67602 0
M  V30 1000 H 92.3284 3.90019 -4.39498 0
M  V30 1001 H 93.8524 4.69374 -3.90539 0
M  V30 1002 H 95.2664 2.7275 -5.04262 0
M  V30 1003 H 93.6634 2.16346 -5.59745 0
M  V30 1004 H 94.7334 1.04315 -4.73547 0
M  V30 1005 N 96.0765 1.50051 0.48192 0
M  V30 1006 C 97.0235 1.68122 1.58125 0
M  V30 1007 C 97.9935 0.522545 1.57666 0
M  V30 1008 O 99.1785 0.751844 1.75362 0
M  V30 1009 C 96.3185 1.77142 2.96167 0
M  V30 1010 C 95.4315 3.0444 3.06497 0
M  V30 1011 C 94.5665 3.04321 4.35387 0
M  V30 1012 C 93.6055 4.26118 4.3942 0
M  V30 1013 N 92.7425 4.238 5.59766 0
M  V30 1014 H 97.5825 2.6198 1.42022 0
M  V30 1015 H 95.1195 1.29877 0.690687 0
M  V30 1016 H 97.0775 1.80352 3.76203 0
M  V30 1017 H 95.7075 0.867329 3.1093 0
M  V30 1018 H 94.7595 3.10752 2.19402 0
M  V30 1019 H 96.0715 3.94426 3.05336 0
M  V30 1020 H 95.2255 3.062 5.23762 0
M  V30 1021 H 93.9645 2.12147 4.39141 0
M  V30 1022 H 92.9695 4.24463 3.49444 0
M  V30 1023 H 94.1945 5.19507 4.37366 0
M  V30 1024 H 92.1405 3.34474 5.64326 0
M  V30 1025 H 92.0575 5.07542 5.60301 0
M  V30 1026 H 93.3255 4.2981 6.50295 0
M  V30 1027 N 97.5546 -0.734337 1.39446 0
M  V30 1028 C 98.5046 -1.83949 1.34709 0
M  V30 1029 C 99.4886 -1.59279 0.227851 0
M  V30 1030 O 100.681 -1.70771 0.465438 0
M  V30 1031 C 97.8096 -3.21884 1.19356 0
M  V30 1032 C 96.8956 -3.52381 2.35984 0
M  V30 1033 N 97.2866 -3.53811 3.61457 0
M  V30 1034 C 95.5846 -3.82747 2.28956 0
M  V30 1035 C 96.2856 -3.82122 4.38586 0
M  V30 1036 N 95.2616 -3.9993 3.68181 0
M  V30 1037 H 99.0636 -1.83361 2.29687 0
M  V30 1038 H 96.5776 -0.932609 1.32952 0
M  V30 1039 H 98.5746 -4.00998 1.14046 0
M  V30 1040 H 97.2346 -3.23711 0.253295 0
M  V30 1041 H 98.2456 -3.35107 3.94872 0
M  V30 1042 H 94.9226 -3.92175 1.43194 0
M  V30 1043 H 96.3126 -3.89691 5.47349 0
M  V30 1044 N 99.0327 -1.24633 -0.964593 0
M  V30 1045 C 100.444 -1.08045 -1.5226 0
M  V30 1046 C 100.795 0.347116 -1.93105 0
M  V30 1047 O 99.9197 1.23588 -1.77637 0
M  V30 1048 C 100.515 -1.95514 -2.76695 0
M  V30 1049 C 99.0737 -1.8314 -3.28841 0
M  V30 1050 C 98.2207 -1.90262 -2.01732 0
M  V30 1051 H 101.172 -1.38064 -0.782553 0
M  V30 1052 H 101.193 -1.48925 -3.50145 0
M  V30 1053 H 100.705 -2.99407 -2.46936 0
M  V30 1054 H 98.8057 -0.82092 -3.63444 0
M  V30 1055 H 98.9187 -2.67406 -3.97531 0
M  V30 1056 H 97.2827 -1.34027 -2.16584 0
M  V30 1057 H 98.0657 -2.9574 -1.74334 0
M  V30 1058 N 100.511 1.16574 -1.06058 0
M  V30 1059 C 101.758 1.87047 -0.775873 0
M  V30 1060 C 102.086 1.81562 0.697534 0
M  V30 1061 O 101.341 1.22445 1.52662 0
M  V30 1062 C 101.64 3.36195 -1.21275 0
M  V30 1063 C 101.306 3.6188 -2.68986 0
M  V30 1064 C 99.9678 3.68599 -3.09335 0
M  V30 1065 C 102.32 3.72648 -3.64394 0
M  V30 1066 C 99.6478 3.83584 -4.43937 0
M  V30 1067 C 102 3.89154 -4.98741 0
M  V30 1068 C 100.664 3.94114 -5.3873 0
M  V30 1069 H 99.9338 0.684452 -0.283912 0
M  V30 1070 H 102.581 1.37853 -1.32925 0
M  V30 1071 H 100.886 3.87505 -0.578528 0
M  V30 1072 H 102.583 3.89103 -0.969542 0
M  V30 1073 H 99.1728 3.57281 -2.36744 0
M  V30 1074 H 103.357 3.66769 -3.34356 0
M  V30 1075 H 98.6128 3.85677 -4.74409 0
M  V30 1076 H 102.787 3.96427 -5.72554 0
M  V30 1077 H 100.414 4.05478 -6.43033 0
M  V30 1078 N 101.989 0.842826 1.3317 0
M  V30 1079 C 103.266 0.362216 1.92217 0
M  V30 1080 C 103.646 -1.15289 1.76838 0
M  V30 1081 O 102.994 -1.96914 1.15919 0
M  V30 1082 C 103.204 0.813495 3.39387 0
M  V30 1083 C 104.552 0.823804 4.16532 0
M  V30 1084 O 105.576 0.757358 3.48055 0
M  V30 1085 O 104.435 0.915193 5.38782 0
M  V30 1086 H 101.529 0.103317 0.820521 0
M  V30 1087 H 104.075 0.928942 1.42017 0
M  V30 1088 H 102.847 1.85624 3.4447 0
M  V30 1089 H 102.47 0.223561 3.96971 0
M  V30 1090 N 103.467 -1.45747 0.599634 0
M  V30 1091 C 104.715 -2.01893 0.0915472 0
M  V30 1092 C 105.036 -1.47155 -1.27946 0
M  V30 1093 O 104.306 -0.66273 -1.84349 0
M  V30 1094 H 102.886 -0.746363 0.0308524 0
M  V30 1095 H 105.548 -1.78645 0.779237 0
M  V30 1096 H 104.644 -3.1208 0.0353086 0
M  V30 1097 N 104.945 -0.338344 -1.53925 0
M  V30 1098 C 106.222 0.314774 -1.93051 0
M  V30 1099 C 106.602 1.68669 -1.26941 0
M  V30 1100 O 105.95 2.24636 -0.418445 0
M  V30 1101 C 106.16 0.392249 -3.46789 0
M  V30 1102 C 107.508 0.645554 -4.19664 0
M  V30 1103 O 108.532 0.474575 -3.53024 0
M  V30 1104 O 107.391 0.976408 -5.37707 0
M  V30 1105 H 104.485 0.182598 -0.80659 0
M  V30 1106 H 107.031 -0.389141 -1.65178 0
M  V30 1107 H 105.803 -0.570702 -3.87116 0
M  V30 1108 H 105.426 1.14316 -3.80812 0
M  V30 1109 N 106.423 1.57458 -0.0668435 0
M  V30 1110 C 107.671 1.92919 0.602214 0
M  V30 1111 C 107.992 0.947215 1.70449 0
M  V30 1112 O 107.262 -0.00544117 1.95899 0
M  V30 1113 H 105.842 0.71217 0.22544 0
M  V30 1114 H 108.504 1.94508 -0.123535 0
M  V30 1115 H 107.6 2.94589 1.03073 0
M  V30 1116 N 107.901 -0.206675 1.56239 0
M  V30 1117 C 108.834 -1.28383 1.88661 0
M  V30 1118 C 109.812 -1.44504 0.745481 0
M  V30 1119 O 110.996 -1.60079 0.995336 0
M  V30 1120 C 108.123 -2.65211 2.10667 0
M  V30 1121 C 107.169 -2.66025 3.33366 0
M  V30 1122 S 108.002 -2.18609 4.88846 0
M  V30 1123 C 109.158 -3.57283 5.13906 0
M  V30 1124 H 109.391 -1.00691 2.7973 0
M  V30 1125 H 106.924 -0.409627 1.48867 0
M  V30 1126 H 108.882 -3.43979 2.24029 0
M  V30 1127 H 107.543 -2.90121 1.20369 0
M  V30 1128 H 106.736 -3.66607 3.45855 0
M  V30 1129 H 106.338 -1.95331 3.18938 0
M  V30 1130 H 108.63 -4.53074 5.03717 0
M  V30 1131 H 109.573 -3.49699 6.15724 0
M  V30 1132 H 109.981 -3.51659 4.41583 0
M  V30 1133 N 109.379 -1.50304 -0.473955 0
M  V30 1134 C 110.625 -1.61389 -1.22806 0
M  V30 1135 C 110.958 -0.311955 -1.91678 0
M  V30 1136 O 110.233 0.686384 -1.81986 0
M  V30 1137 C 110.516 -2.79219 -2.27396 0
M  V30 1138 C 110.369 -4.19286 -1.62848 0
M  V30 1139 C 111.688 -2.92614 -3.28732 0
M  V30 1140 H 108.807 -0.587399 -0.445119 0
M  V30 1141 H 111.449 -1.82681 -0.522265 0
M  V30 1142 H 109.599 -2.61195 -2.87592 0
M  V30 1143 H 111.271 -4.48892 -1.06271 0
M  V30 1144 H 109.514 -4.23677 -0.931693 0
M  V30 1145 H 110.185 -4.97655 -2.38838 0
M  V30 1146 H 112.661 -3.09105 -2.78556 0
M  V30 1147 H 111.537 -3.76688 -3.99246 0
M  V30 1148 H 111.798 -2.03107 -3.92683 0
M  V30 1149 N 110.857 0.726932 -1.39834 0
M  V30 1150 C 112.085 1.51613 -1.40787 0
M  V30 1151 C 112.5 1.88799 -0.00451505 0
M  V30 1152 O 111.857 1.54662 0.968809 0
M  V30 1153 C 111.908 2.79863 -2.28821 0
M  V30 1154 O 111.629 2.44253 -3.63692 0
M  V30 1155 C 113.13 3.73837 -2.38245 0
M  V30 1156 H 110.35 0.468264 -0.480593 0
M  V30 1157 H 112.894 0.897607 -1.83748 0
M  V30 1158 H 111.049 3.38027 -1.89252 0
M  V30 1159 H 111.463 3.26695 -4.1033 0
M  V30 1160 H 112.937 4.60699 -3.04073 0
M  V30 1161 H 113.414 4.16153 -1.40403 0
M  V30 1162 H 114.02 3.21589 -2.78317 0
M  V30 1163 N 112.336 1.25143 0.95797 0
M  V30 1164 C 113.299 1.05321 2.03569 0
M  V30 1165 C 114.299 0.007152 1.60798 0
M  V30 1166 O 115.489 0.24903 1.72411 0
M  V30 1167 C 112.621 0.598394 3.35607 0
M  V30 1168 H 113.814 2.00986 2.22586 0
M  V30 1169 H 111.367 1.07502 1.13459 0
M  V30 1170 H 112.102 -0.361014 3.22284 0
M  V30 1171 H 111.887 1.35351 3.67998 0
M  V30 1172 H 113.377 0.48104 4.1482 0
M  V30 1173 N 113.814 -1.1601 1.06675 0
M  V30 1174 C 115.061 -1.86633 0.785781 0
M  V30 1175 C 115.389 -1.81929 -0.687896 0
M  V30 1176 O 114.644 -1.23253 -1.52011 0
M  V30 1177 C 114.943 -3.35547 1.23057 0
M  V30 1178 C 114.609 -3.60448 2.70902 0
M  V30 1179 C 113.271 -3.66954 3.11285 0
M  V30 1180 C 115.623 -3.7071 3.66365 0
M  V30 1181 C 112.951 -3.81225 4.45965 0
M  V30 1182 C 115.303 -3.86503 5.00797 0
M  V30 1183 C 113.967 -3.91252 5.40813 0
M  V30 1184 H 113.237 -0.682937 0.287538 0
M  V30 1185 H 115.884 -1.37146 1.33654 0
M  V30 1186 H 114.189 -3.87193 0.59907 0
M  V30 1187 H 115.886 -3.88583 0.990163 0
M  V30 1188 H 112.476 -3.56021 2.38636 0
M  V30 1189 H 116.66 -3.64991 3.36296 0
M  V30 1190 H 111.916 -3.83155 4.76447 0
M  V30 1191 H 116.09 -3.93385 5.74649 0
M  V30 1192 H 113.717 -4.02062 6.45174 0
M  V30 1193 N 115.292 -0.849877 -1.32721 0
M  V30 1194 C 116.239 -0.289033 -2.28983 0
M  V30 1195 C 117.209 0.601324 -1.54833 0
M  V30 1196 O 118.394 0.537253 -1.8308 0
M  V30 1197 C 115.534 0.520623 -3.4115 0
M  V30 1198 C 114.647 -0.394989 -4.3019 0
M  V30 1199 C 113.782 0.426834 -5.29482 0
M  V30 1200 C 112.821 -0.486476 -6.10164 0
M  V30 1201 N 111.958 0.297879 -7.01468 0
M  V30 1202 H 116.798 -1.11519 -2.76347 0
M  V30 1203 H 114.335 -0.56138 -1.35967 0
M  V30 1204 H 116.293 1.00563 -4.04899 0
M  V30 1205 H 114.923 1.31165 -2.9495 0
M  V30 1206 H 113.975 -0.99836 -3.67065 0
M  V30 1207 H 115.287 -1.09612 -4.86607 0
M  V30 1208 H 114.441 0.975205 -5.98811 0
M  V30 1209 H 113.18 1.16136 -4.73671 0
M  V30 1210 H 112.185 -1.04677 -5.39743 0
M  V30 1211 H 113.41 -1.21953 -6.6806 0
M  V30 1212 H 111.356 1.01558 -6.48091 0
M  V30 1213 H 111.273 -0.344318 -7.55216 0
M  V30 1214 H 112.541 0.828131 -7.75089 0
M  V30 1215 N 116.77 1.45427 -0.607355 0
M  V30 1216 C 118.017 2.02241 -0.102455 0
M  V30 1217 C 118.345 1.4758 1.26691 0
M  V30 1218 O 117.6 0.640468 1.84923 0
M  V30 1219 C 117.899 3.57398 -0.0129263 0
M  V30 1220 C 117.565 4.3121 -1.31792 0
M  V30 1221 C 116.227 4.51092 -1.67539 0
M  V30 1222 C 118.579 4.73401 -2.18039 0
M  V30 1223 C 115.907 5.10422 -2.89285 0
M  V30 1224 C 118.259 5.34078 -3.39034 0
M  V30 1225 C 116.923 5.52184 -3.75033 0
M  V30 1226 H 116.193 0.740051 -0.037491 0
M  V30 1227 H 118.84 1.74494 -0.788926 0
M  V30 1228 H 117.145 3.84421 0.756806 0
M  V30 1229 H 118.842 3.99061 0.393881 0
M  V30 1230 H 115.432 4.16047 -1.02968 0
M  V30 1231 H 119.616 4.57774 -1.91721 0
M  V30 1232 H 114.872 5.22629 -3.17283 0
M  V30 1233 H 119.046 5.65724 -4.06115 0
M  V30 1234 H 116.673 5.97925 -4.69457 0
M  V30 1235 N 118.248 0.346503 1.53744 0
M  V30 1236 C 119.659 -0.136779 1.86198 0
M  V30 1237 C 120.01 -1.49749 1.26766 0
M  V30 1238 O 119.135 -2.08417 0.582355 0
M  V30 1239 C 119.73 -0.254966 3.37839 0
M  V30 1240 C 118.289 -0.682482 3.70161 0
M  V30 1241 C 117.436 0.181981 2.76702 0
M  V30 1242 H 120.387 0.565994 1.48264 0
M  V30 1243 H 120.408 -1.08195 3.64793 0
M  V30 1244 H 119.92 0.735526 3.81066 0
M  V30 1245 H 118.021 -1.68189 3.3248 0
M  V30 1246 H 118.134 -0.470326 4.76786 0
M  V30 1247 H 116.498 -0.34615 2.52337 0
M  V30 1248 H 117.281 1.16966 3.2276 0
M  V30 1249 N 119.726 -1.57421 0.075193 0
M  V30 1250 C 120.974 -1.93236 -0.591974 0
M  V30 1251 C 121.295 -0.956241 -1.69944 0
M  V30 1252 O 120.565 -0.00494792 -1.95899 0
M  V30 1253 H 119.145 -0.713355 -0.22166 0
M  V30 1254 H 121.807 -1.9444 0.133848 0
M  V30 1255 H 120.903 -2.95131 -1.01509 0
M  V30 1256 N 121.204 0.198386 -1.56346 0
M  V30 1257 C 122.481 0.944982 -1.71258 0
M  V30 1258 C 122.861 2.0151 -0.629048 0
M  V30 1259 O 122.209 2.25639 0.360473 0
M  V30 1260 C 122.419 1.5344 -3.1346 0
M  V30 1261 C 123.767 2.01778 -3.73591 0
M  V30 1262 O 124.791 1.63288 -3.16568 0
M  V30 1263 O 123.65 2.72594 -4.73661 0
M  V30 1264 H 120.744 0.442939 -0.69838 0
M  V30 1265 H 123.29 0.188342 -1.68652 0
M  V30 1266 H 122.062 0.762869 -3.83792 0
M  V30 1267 H 121.685 2.35596 -3.20282 0
M  V30 1268 N 122.682 1.50554 0.465978 0
M  V30 1269 C 123.93 1.61479 1.21528 0
M  V30 1270 C 124.251 0.319596 1.92363 0
M  V30 1271 O 123.521 -0.663194 1.84333 0
M  V30 1272 H 122.101 0.595055 0.451573 0
M  V30 1273 H 124.763 1.87355 0.53704 0
M  V30 1274 H 123.859 2.42846 1.96042 0
M  V30 1275 N 124.16 -0.719506 1.40217 0
M  V30 1276 C 125.576 -1.02707 1.22161 0
M  V30 1277 C 125.776 -2.0128 0.0940557 0
M  V30 1278 O 124.832 -2.46452 -0.549318 0
M  V30 1279 C 126.145 -1.57454 2.56181 0
M  V30 1280 C 127.693 -1.69458 2.63159 0
M  V30 1281 C 128.168 -2.27611 3.97438 0
M  V30 1282 N 129.659 -2.35002 3.99159 0
M  V30 1283 C 130.394 -2.80972 4.99842 0
M  V30 1284 N 129.89 -3.26723 6.10921 0
M  V30 1285 N 131.683 -2.80321 4.87213 0
M  V30 1286 H 123.834 -0.0660492 2.12297 0
M  V30 1287 H 126.097 -0.0919077 0.943534 0
M  V30 1288 H 125.803 -0.924873 3.39321 0
M  V30 1289 H 125.677 -2.56036 2.76993 0
M  V30 1290 H 128.064 -2.33543 1.80393 0
M  V30 1291 H 128.145 -0.694867 2.46181 0
M  V30 1292 H 127.789 -1.6415 4.80643 0
M  V30 1293 H 127.719 -3.2829 4.11744 0
M  V30 1294 H 130.21 -2.02685 3.18947 0
M  V30 1295 H 130.523 -3.60355 6.8364 0
M  V30 1296 H 128.868 -3.24692 6.14492 0
M  V30 1297 H 132.059 -2.43912 3.9953 0
M  V30 1298 H 132.232 -3.15831 5.65822 0
M  V30 1299 N 125.638 -1.25649 -0.95132 0
M  V30 1300 C 126.884 -1.10757 -1.69884 0
M  V30 1301 C 127.217 0.350061 -1.91019 0
M  V30 1302 O 126.492 1.25783 -1.48354 0
M  V30 1303 C 126.775 -1.86606 -3.07978 0
M  V30 1304 C 126.628 -3.40217 -2.94232 0
M  V30 1305 C 127.947 -1.65182 -4.07925 0
M  V30 1306 H 125.066 -0.40374 -0.616574 0
M  V30 1307 H 127.708 -1.54521 -1.10558 0
M  V30 1308 H 125.858 -1.49409 -3.58621 0
M  V30 1309 H 127.53 -3.87108 -2.50889 0
M  V30 1310 H 125.773 -3.67759 -2.30078 0
M  V30 1311 H 126.444 -3.88505 -3.92133 0
M  V30 1312 H 128.92 -1.9757 -3.66204 0
M  V30 1313 H 127.796 -2.20683 -5.02583 0
M  V30 1314 H 128.057 -0.593933 -4.38092 0
M  V30 1315 N 127.117 1.15442 -1.07289 0
M  V30 1316 C 128.067 2.18164 -0.662467 0
M  V30 1317 C 129.051 1.57845 0.312074 0
M  V30 1318 O 130.243 1.76552 0.125905 0
M  V30 1319 C 127.372 3.43246 -0.0611295 0
M  V30 1320 C 126.458 4.1062 -1.06077 0
M  V30 1321 N 126.849 4.53491 -2.24008 0
M  V30 1322 C 125.147 4.36949 -0.893964 0
M  V30 1323 C 125.848 5.05731 -2.87422 0
M  V30 1324 N 124.824 4.99236 -2.15091 0
M  V30 1325 H 128.626 2.49038 -1.56068 0
M  V30 1326 H 126.14 1.32003 -0.945988 0
M  V30 1327 H 128.137 4.16145 0.250792 0
M  V30 1328 H 126.797 3.13854 0.832207 0
M  V30 1329 H 127.808 4.46898 -2.6173 0
M  V30 1330 H 124.485 4.17466 -0.0534693 0
M  V30 1331 H 125.875 5.48865 -3.87553 0
M  V30 1332 N 128.595 0.856903 1.32268 0
M  V30 1333 C 129.842 0.461386 1.97174 0
M  V30 1334 C 130.17 -0.983491 1.67803 0
M  V30 1335 O 129.425 -1.70541 0.959903 0
M  V30 1336 C 129.724 0.649919 3.51441 0
M  V30 1337 C 129.39 2.0656 4.00804 0
M  V30 1338 C 128.052 2.45279 4.13995 0
M  V30 1339 C 130.404 2.98947 4.26943 0
M  V30 1340 C 127.732 3.75653 4.50668 0
M  V30 1341 C 130.084 4.28822 4.65075 0
M  V30 1342 C 128.748 4.67472 4.76472 0
M  V30 1343 H 128.018 0.168833 0.72151 0
M  V30 1344 H 130.665 1.08739 1.57633 0
M  V30 1345 H 128.97 -0.0593018 3.91755 0
M  V30 1346 H 130.667 0.32391 3.9969 0
M  V30 1347 H 127.257 1.75495 3.91024 0
M  V30 1348 H 131.441 2.70265 4.16258 0
M  V30 1349 H 126.697 4.05379 4.57688 0
M  V30 1350 H 130.871 5.0047 4.84255 0
M  V30 1351 H 128.498 5.68539 5.04646 0
M  V30 1352 N 130.073 -1.45103 0.615059 0
M  V30 1353 C 131.005 -2.28786 -0.13762 0
M  V30 1354 C 132.018 -1.40376 -0.824525 0
M  V30 1355 O 133.207 -1.64681 -0.688662 0
M  V30 1356 C 130.307 -3.16322 -1.21628 0
M  V30 1357 C 129.48 -4.33054 -0.615039 0
M  V30 1358 C 128.539 -5.01743 -1.58556 0
M  V30 1359 O 127.565 -5.58293 -1.10895 0
M  V30 1360 N 128.767 -5.01714 -2.91998 0
M  V30 1361 H 131.532 -2.94025 0.580483 0
M  V30 1362 H 129.093 -1.55373 0.45507 0
M  V30 1363 H 131.085 -3.59139 -1.86552 0
M  V30 1364 H 129.655 -2.52943 -1.83681 0
M  V30 1365 H 128.875 -3.93627 0.21245 0
M  V30 1366 H 130.163 -5.08431 -0.193704 0
M  V30 1367 H 129.561 -4.57075 -3.33316 0
M  V30 1368 H 128.118 -5.48371 -3.52325 0
M  V30 1369 N 131.551 -0.354651 -1.53558 0
M  V30 1370 C 132.776 0.242153 -2.05981 0
M  V30 1371 C 133.201 1.42553 -1.2272 0
M  V30 1372 O 132.559 1.79656 -0.243604 0
M  V30 1373 C 132.607 0.624367 -3.55154 0
M  V30 1374 O 131.711 1.72301 -3.74681 0
M  V30 1375 H 131.052 0.0378432 -0.662921 0
M  V30 1376 H 133.582 -0.512087 -1.98088 0
M  V30 1377 H 133.592 0.898433 -3.97985 0
M  V30 1378 H 132.267 -0.240989 -4.15201 0
M  V30 1379 H 130.844 1.44535 -3.4375 0
M  V30 1380 N 133.029 1.57378 -0.0835403 0
M  V30 1381 C 133.976 2.13384 0.879539 0
M  V30 1382 C 134.946 1.04936 1.28754 0
M  V30 1383 O 136.131 1.32662 1.37133 0
M  V30 1384 C 133.271 2.70932 2.13752 0
M  V30 1385 C 132.384 3.93575 1.7811 0
M  V30 1386 C 131.519 4.39326 2.98607 0
M  V30 1387 C 130.558 5.54587 2.59037 0
M  V30 1388 N 129.695 5.95243 3.72331 0
M  V30 1389 H 134.535 2.9537 0.395076 0
M  V30 1390 H 132.072 1.45953 0.183349 0
M  V30 1391 H 134.03 3.02411 2.87408 0
M  V30 1392 H 132.66 1.91693 2.59718 0
M  V30 1393 H 131.712 3.68483 0.94469 0
M  V30 1394 H 133.024 4.77258 1.45005 0
M  V30 1395 H 132.178 4.72528 3.80529 0
M  V30 1396 H 130.917 3.5452 3.34913 0
M  V30 1397 H 129.922 5.21024 1.75539 0
M  V30 1398 H 131.147 6.41133 2.23887 0
M  V30 1399 H 129.093 5.13385 4.08378 0
M  V30 1400 H 129.01 6.73694 3.43034 0
M  V30 1401 H 130.278 6.33072 4.54797 0
M  V30 1402 N 134.507 -0.190092 1.56449 0
M  V30 1403 C 135.754 -0.909705 1.80916 0
M  V30 1404 C 136.082 -1.83047 0.657583 0
M  V30 1405 O 135.337 -1.92428 -0.356356 0
M  V30 1406 C 135.636 -1.75382 3.1141 0
M  V30 1407 C 135.302 -0.983606 4.40041 0
M  V30 1408 C 133.964 -0.770967 4.74984 0
M  V30 1409 C 136.316 -0.442024 5.19322 0
M  V30 1410 C 133.644 -0.0053448 5.867 0
M  V30 1411 C 135.996 0.310412 6.31838 0
M  V30 1412 C 134.66 0.534023 6.6536 0
M  V30 1413 H 133.93 -0.332885 0.662019 0
M  V30 1414 H 136.577 -0.175762 1.90692 0
M  V30 1415 H 134.882 -2.55659 2.96893 0
M  V30 1416 H 136.579 -2.31331 3.27547 0
M  V30 1417 H 133.169 -1.15936 4.12622 0
M  V30 1418 H 137.353 -0.593693 4.92736 0
M  V30 1419 H 132.609 0.177825 6.11141 0
M  V30 1420 H 136.783 0.737419 6.92485 0
M  V30 1421 H 134.41 1.12918 7.51767 0
M  V30 1422 N 135.985 -1.50799 -0.457987 0
M  V30 1423 C 137.231 -1.62683 -1.21088 0
M  V30 1424 C 137.564 -0.332268 -1.91336 0
M  V30 1425 O 136.839 0.667043 -1.82704 0
M  V30 1426 C 137.122 -2.81615 -2.24422 0
M  V30 1427 C 136.975 -4.20989 -1.58392 0
M  V30 1428 C 138.294 -2.96085 -3.2561 0
M  V30 1429 H 135.413 -0.592087 -0.438864 0
M  V30 1430 H 138.055 -1.83225 -0.50286 0
M  V30 1431 H 136.205 -2.64231 -2.84806 0
M  V30 1432 H 137.877 -4.49994 -1.01504 0
M  V30 1433 H 136.12 -4.24641 -0.886704 0
M  V30 1434 H 136.791 -5.0016 -2.33547 0
M  V30 1435 H 139.267 -3.12042 -2.75262 0
M  V30 1436 H 138.143 -3.80902 -3.95228 0
M  V30 1437 H 138.404 -2.0726 -3.90507 0
M  V30 1438 N 137.463 0.71206 -1.40597 0
M  V30 1439 C 138.879 1.02058 -1.22704 0
M  V30 1440 C 139.079 2.01228 -0.104729 0
M  V30 1441 O 138.135 2.4674 0.53624 0
M  V30 1442 C 139.448 1.56094 -2.57012 0
M  V30 1443 C 140.996 1.6806 -2.64054 0
M  V30 1444 C 141.471 2.25501 -3.9864 0
M  V30 1445 N 142.962 2.32882 -4.004 0
M  V30 1446 C 143.697 2.78317 -5.01325 0
M  V30 1447 N 143.193 3.23478 -6.12645 0
M  V30 1448 N 144.986 2.77733 -4.88693 0
M  V30 1449 H 137.137 0.0547896 -2.12329 0
M  V30 1450 H 139.4 0.0869027 -0.944008 0
M  V30 1451 H 139.106 0.906865 -3.39807 0
M  V30 1452 H 138.98 2.54564 -2.78347 0
M  V30 1453 H 141.367 2.32583 -1.81629 0
M  V30 1454 H 141.448 0.681802 -2.46546 0
M  V30 1455 H 141.092 1.61598 -4.81506 0
M  V30 1456 H 141.022 3.26102 -4.13479 0
M  V30 1457 H 143.513 2.00991 -3.20017 0
M  V30 1458 H 143.826 3.56725 -6.85542 0
M  V30 1459 H 142.171 3.21429 -6.16205 0
M  V30 1460 H 145.362 2.4179 -4.00818 0
M  V30 1461 H 145.535 3.12826 -5.67489 0
M  V30 1462 N 138.941 1.26152 0.944643 0
M  V30 1463 C 140.169 1.14259 1.72489 0
M  V30 1464 C 140.584 -0.302555 1.8636 0
M  V30 1465 O 139.941 -1.20741 1.36849 0
M  V30 1466 C 139.992 1.80266 3.13347 0
M  V30 1467 O 139.713 3.19133 3.00143 0
M  V30 1468 C 141.214 1.74283 4.07603 0
M  V30 1469 H 138.434 0.398051 0.540181 0
M  V30 1470 H 140.978 1.66706 1.18446 0
M  V30 1471 H 139.133 1.31766 3.64303 0
M  V30 1472 H 139.547 3.51744 3.89071 0
M  V30 1473 H 141.021 2.25111 5.04013 0
M  V30 1474 H 141.498 0.708631 4.33446 0
M  V30 1475 H 142.104 2.22319 3.62567 0
M  V30 1476 N 140.419 -1.14872 1.07899 0
M  V30 1477 C 141.351 -2.19425 0.662231 0
M  V30 1478 C 142.364 -1.60231 -0.288079 0
M  V30 1479 O 143.553 -1.78336 -0.076534 0
M  V30 1480 C 140.653 -3.38867 -0.0470695 0
M  V30 1481 C 139.826 -4.27597 0.920831 0
M  V30 1482 C 138.885 -5.25616 0.247805 0
M  V30 1483 O 137.911 -5.62189 0.890599 0
M  V30 1484 N 139.113 -5.71746 -1.00435 0
M  V30 1485 H 141.878 -2.55797 1.56166 0
M  V30 1486 H 139.439 -1.30042 0.964404 0
M  V30 1487 H 141.431 -4.01497 -0.50813 0
M  V30 1488 H 140.001 -3.00864 -0.848523 0
M  V30 1489 H 139.221 -3.61982 1.56087 0
M  V30 1490 H 140.509 -4.83748 1.57688 0
M  V30 1491 H 139.907 -5.44153 -1.54642 0
M  V30 1492 H 138.464 -6.36389 -1.40899 0
M  V30 1493 N 141.898 -0.863906 -1.31812 0
M  V30 1494 C 143.146 -0.470904 -1.96537 0
M  V30 1495 C 143.467 0.978771 -1.68657 0
M  V30 1496 O 142.737 1.6853 -0.998717 0
M  V30 1497 H 141.317 -0.171148 -0.72713 0
M  V30 1498 H 143.979 -1.10236 -1.60729 0
M  V30 1499 H 143.075 -0.623616 -3.05806 0
M  V30 1500 N 143.376 1.44774 -0.622745 0
M  V30 1501 C 144.606 2.06187 -0.130532 0
M  V30 1502 C 145.014 1.46547 1.19669 0
M  V30 1503 O 144.357 0.579636 1.74316 0
M  V30 1504 C 144.419 3.59437 0.0674983 0
M  V30 1505 C 144.083 4.41496 -1.18026 0
M  V30 1506 C 145.08 4.75512 -2.102 0
M  V30 1507 C 142.765 4.82007 -1.41333 0
M  V30 1508 C 144.759 5.48912 -3.23998 0
M  V30 1509 C 142.446 5.55157 -2.55429 0
M  V30 1510 C 143.444 5.88528 -3.46589 0
M  V30 1511 O 143.132 6.60191 -4.58697 0
M  V30 1512 H 142.864 0.672045 -0.0730162 0
M  V30 1513 H 145.418 1.86768 -0.854802 0
M  V30 1514 H 143.648 3.77314 0.846825 0
M  V30 1515 H 145.337 4.02642 0.513209 0
M  V30 1516 H 146.103 4.4476 -1.93425 0
M  V30 1517 H 141.982 4.55457 -0.712709 0
M  V30 1518 H 145.526 5.74877 -3.95174 0
M  V30 1519 H 141.423 5.85324 -2.72151 0
M  V30 1520 H 142.191 6.78654 -4.57571 0
M  V30 1521 N 144.854 0.36279 1.53368 0
M  V30 1522 C 146.1 -0.228113 2.01513 0
M  V30 1523 C 146.433 -1.48648 1.2497 0
M  V30 1524 O 145.708 -1.91459 0.342616 0
M  V30 1525 C 145.991 -0.522884 3.56284 0
M  V30 1526 C 145.844 0.74892 4.43521 0
M  V30 1527 C 147.163 -1.32461 4.19693 0
M  V30 1528 H 144.282 -0.0814343 0.732487 0
M  V30 1529 H 146.924 0.48713 1.83649 0
M  V30 1530 H 145.074 -1.1322 3.71636 0
M  V30 1531 H 146.746 1.38648 4.39971 0
M  V30 1532 H 144.989 1.36986 4.11603 0
M  V30 1533 H 145.66 0.497667 5.49752 0
M  V30 1534 H 148.136 -0.809203 4.08156 0
M  V30 1535 H 147.012 -1.49961 5.28018 0
M  V30 1536 H 147.273 -2.33232 3.75573 0
M  V30 1537 N 146.332 -1.57332 0.0918853 0
M  V30 1538 C 147.242 -2.17368 -0.882505 0
M  V30 1539 C 148.258 -1.14226 -1.31257 0
M  V30 1540 O 149.434 -1.46582 -1.38115 0
M  V30 1541 C 146.499 -2.73962 -2.12476 0
M  V30 1542 C 145.56 -3.92048 -1.7492 0
M  V30 1543 C 144.793 -4.45933 -2.93223 0
M  V30 1544 O 145.016 -3.98764 -4.07852 0
M  V30 1545 O 143.95 -5.36999 -2.71875 0
M  V30 1546 H 147.776 -3.01031 -0.40172 0
M  V30 1547 H 145.361 -1.48813 -0.132291 0
M  V30 1548 H 147.243 -3.10147 -2.85283 0
M  V30 1549 H 145.918 -1.93347 -2.59613 0
M  V30 1550 H 144.825 -3.6068 -0.993025 0
M  V30 1551 H 146.158 -4.74017 -1.32548 0
M  V30 1552 N 147.81 0.181792 -1.56548 0
M  V30 1553 C 148.72 1.24538 -1.98815 0
M  V30 1554 C 149.736 1.49045 -0.897861 0
M  V30 1555 O 150.912 1.61399 -1.20467 0
M  V30 1556 C 147.977 2.56683 -2.33055 0
M  V30 1557 C 147.038 2.40131 -3.55859 0
M  V30 1558 C 146.271 3.65975 -3.88456 0
M  V30 1559 O 146.494 4.70711 -3.22161 0
M  V30 1560 O 145.428 3.6071 -4.81842 0
M  V30 1561 H 149.254 0.916647 -2.89536 0
M  V30 1562 H 146.839 0.387842 -1.44278 0
M  V30 1563 H 148.721 3.34655 -2.56094 0
M  V30 1564 H 147.396 2.89157 -1.45498 0
M  V30 1565 H 146.303 1.60226 -3.38051 0
M  V30 1566 H 147.636 2.12585 -4.43924 0
M  V30 1567 N 149.288 1.51039 0.449983 0
M  V30 1568 C 150.22 1.67617 1.56324 0
M  V30 1569 C 151.233 0.557083 1.52972 0
M  V30 1570 O 152.422 0.830989 1.57977 0
M  V30 1571 C 149.522 1.66402 2.95235 0
M  V30 1572 C 148.695 2.9469 3.23229 0
M  V30 1573 C 147.754 2.85832 4.41799 0
M  V30 1574 O 146.78 3.59785 4.41071 0
M  V30 1575 N 147.982 2.00821 5.44657 0
M  V30 1576 H 150.747 2.63648 1.42512 0
M  V30 1577 H 148.308 1.48767 0.638737 0
M  V30 1578 H 150.3 1.58062 3.72557 0
M  V30 1579 H 148.87 0.780182 3.02708 0
M  V30 1580 H 148.09 3.16996 2.34323 0
M  V30 1581 H 149.378 3.79636 3.38754 0
M  V30 1582 H 148.776 1.40091 5.48079 0
M  V30 1583 H 147.333 1.98368 6.20881 0
M  V30 1584 N 150.766 -0.704594 1.40972 0
M  V30 1585 C 151.713 -1.81862 1.42109 0
M  V30 1586 C 152.683 -1.63781 0.276593 0
M  V30 1587 O 153.868 -1.84759 0.4763 0
M  V30 1588 C 151.008 -3.19669 1.30022 0
M  V30 1589 C 150.121 -3.49246 2.54267 0
M  V30 1590 C 149.256 -4.76618 2.3454 0
M  V30 1591 C 148.295 -4.99133 3.54306 0
M  V30 1592 N 147.432 -6.17726 3.33706 0
M  V30 1593 H 152.272 -1.80226 2.37324 0
M  V30 1594 H 149.809 -0.880238 1.17857 0
M  V30 1595 H 151.767 -3.99263 1.21018 0
M  V30 1596 H 150.397 -3.20506 0.384192 0
M  V30 1597 H 149.449 -2.64125 2.73756 0
M  V30 1598 H 150.761 -3.61788 3.43381 0
M  V30 1599 H 149.915 -5.64249 2.22952 0
M  V30 1600 H 148.654 -4.66305 1.42867 0
M  V30 1601 H 147.659 -4.09953 3.66359 0
M  V30 1602 H 148.884 -5.11311 4.4692 0
M  V30 1603 H 146.83 -6.08642 2.44725 0
M  V30 1604 H 146.747 -6.30995 4.16391 0
M  V30 1605 H 148.015 -7.08115 3.25873 0
M  V30 1606 N 152.244 -1.26651 -0.937939 0
M  V30 1607 C 153.207 -1.08546 -2.01867 0
M  V30 1608 C 154.207 -0.0327327 -1.60767 0
M  V30 1609 O 155.397 -0.276427 -1.71993 0
M  V30 1610 C 152.529 -0.651711 -3.34613 0
M  V30 1611 H 153.722 -2.04502 -2.1936 0
M  V30 1612 H 151.275 -1.09294 -1.11734 0
M  V30 1613 H 152.01 0.309696 -3.22818 0
M  V30 1614 H 151.795 -1.41189 -3.65798 0
M  V30 1615 H 153.285 -0.546973 -4.14002 0
M  V30 1616 N 153.722 1.14298 -1.08507 0
M  V30 1617 C 154.97 1.84993 -0.813763 0
M  V30 1618 C 155.291 1.83405 0.662393 0
M  V30 1619 O 154.561 1.28319 1.48024 0
M  V30 1620 H 153.141 0.684966 -0.298045 0
M  V30 1621 H 155.803 1.385 -1.37126 0
M  V30 1622 H 154.899 2.89788 -1.15884 0
M  V30 1623 N 155.201 0.870884 1.31352 0
M  V30 1624 C 156.148 0.325425 2.28494 0
M  V30 1625 C 157.118 -0.576615 1.5577 0
M  V30 1626 O 158.303 -0.508059 1.83911 0
M  V30 1627 C 155.443 -0.466283 3.41935 0
M  V30 1628 C 154.556 0.463378 4.29508 0
M  V30 1629 C 153.691 -0.342544 5.30094 0
M  V30 1630 C 152.73 0.583486 6.09313 0
M  V30 1631 N 151.867 -0.186244 7.01853 0
M  V30 1632 H 156.707 1.15901 2.74538 0
M  V30 1633 H 154.244 0.58294 1.35056 0
M  V30 1634 H 156.202 -0.941085 4.06447 0
M  V30 1635 H 154.832 -1.26456 2.97 0
M  V30 1636 H 153.884 1.05663 3.65431 0
M  V30 1637 H 155.196 1.1734 4.84802 0
M  V30 1638 H 154.35 -0.879816 6.00287 0
M  V30 1639 H 153.089 -1.08585 4.75458 0
M  V30 1640 H 152.094 1.13251 5.3801 0
M  V30 1641 H 153.319 1.32566 6.66035 0
M  V30 1642 H 151.265 -0.912348 6.49625 0
M  V30 1643 H 151.182 0.464422 7.54572 0
M  V30 1644 H 152.45 -0.704716 7.76308 0
M  V30 1645 N 156.679 -1.44442 0.630414 0
M  V30 1646 C 157.612 -2.27862 -0.124247 0
M  V30 1647 C 158.59 -1.38495 -0.851931 0
M  V30 1648 O 159.774 -1.67935 -0.856166 0
M  V30 1649 C 156.901 -3.17407 -1.18197 0
M  V30 1650 C 155.947 -4.22875 -0.554892 0
M  V30 1651 S 156.78 -5.31485 0.654489 0
M  V30 1652 C 157.936 -6.246 -0.40326 0
M  V30 1653 H 158.169 -2.91519 0.583435 0
M  V30 1654 H 155.702 -1.48618 0.418565 0
M  V30 1655 H 157.66 -3.69549 -1.78728 0
M  V30 1656 H 156.321 -2.52971 -1.86184 0
M  V30 1657 H 155.514 -4.85542 -1.35148 0
M  V30 1658 H 155.116 -3.73992 -0.0242105 0
M  V30 1659 H 157.408 -6.65375 -1.27602 0
M  V30 1660 H 158.351 -7.07851 0.187813 0
M  V30 1661 H 158.759 -5.59775 -0.728837 0
M  V30 1662 N 158.157 -0.370918 -1.53173 0
M  V30 1663 C 159.406 0.218249 -2.00516 0
M  V30 1664 C 159.719 1.49429 -1.26215 0
M  V30 1665 O 160.925 2.16239 -1.64174 0
M  V30 1666 C 159.381 0.43948 -3.57207 0
M  V30 1667 C 158.989 -0.822244 -4.4039 0
M  V30 1668 C 160.733 0.986012 -4.1289 0
M  V30 1669 C 158.64 -0.570304 -5.88644 0
M  V30 1670 H 157.57 0.0853333 -0.749156 0
M  V30 1671 H 160.221 -0.490483 -1.76823 0
M  V30 1672 H 158.603 1.20961 -3.77074 0
M  V30 1673 H 159.777 -1.59557 -4.32294 0
M  V30 1674 H 158.092 -1.29238 -3.95836 0
M  V30 1675 H 160.689 1.18991 -5.21292 0
M  V30 1676 H 161.032 1.94972 -3.6782 0
M  V30 1677 H 161.565 0.27592 -3.96842 0
M  V30 1678 H 158.304 -1.50449 -6.38001 0
M  V30 1679 H 157.824 0.164427 -5.99575 0
M  V30 1680 H 159.503 -0.19784 -6.46697 0
M  V30 1681 N 159.635 1.57281 -0.100228 0
M  V30 1682 C 160.865 1.98591 0.569681 0
M  V30 1683 C 161.273 0.978315 1.61943 0
M  V30 1684 O 160.616 -0.0396108 1.83657 0
M  V30 1685 C 160.678 3.36282 1.271 0
M  V30 1686 C 160.342 4.55488 0.371409 0
M  V30 1687 C 161.339 5.18491 -0.382504 0
M  V30 1688 C 159.024 5.01474 0.287965 0
M  V30 1689 C 161.018 6.25852 -1.20779 0
M  V30 1690 C 158.705 6.08701 -0.540965 0
M  V30 1691 C 159.703 6.70755 -1.28749 0
M  V30 1692 O 159.391 7.75914 -2.10269 0
M  V30 1693 H 159.123 0.65752 0.156982 0
M  V30 1694 H 161.677 2.0463 -0.177734 0
M  V30 1695 H 159.907 3.26941 2.0651 0
M  V30 1696 H 161.596 3.62005 1.83595 0
M  V30 1697 H 162.362 4.83891 -0.3278 0
M  V30 1698 H 158.241 4.52932 0.858689 0
M  V30 1699 H 161.785 6.74218 -1.79096 0
M  V30 1700 H 157.682 6.42732 -0.597131 0
M  V30 1701 H 158.45 7.92925 -2.03007 0
M  V30 1702 N 161.113 -0.173488 1.56642 0
M  V30 1703 C 162.529 -0.525174 1.50712 0
M  V30 1704 C 162.729 -1.8476 0.804107 0
M  V30 1705 O 161.785 -2.49869 0.363574 0
M  V30 1706 C 163.098 -0.559937 2.95441 0
M  V30 1707 C 164.646 -0.647288 3.06234 0
M  V30 1708 C 165.121 -0.712963 4.52417 0
M  V30 1709 N 166.612 -0.775911 4.56655 0
M  V30 1710 C 167.347 -0.847264 5.67106 0
M  V30 1711 N 166.843 -0.879585 6.87194 0
M  V30 1712 N 168.636 -0.886117 5.55071 0
M  V30 1713 H 160.787 0.693681 2.00753 0
M  V30 1714 H 163.05 0.249841 0.914485 0
M  V30 1715 H 162.756 0.343049 3.50023 0
M  V30 1716 H 162.63 -1.40718 3.49969 0
M  V30 1717 H 165.017 -1.5407 2.51687 0
M  V30 1718 H 165.098 0.226586 2.54794 0
M  V30 1719 H 164.742 0.176183 5.07594 0
M  V30 1720 H 164.672 -1.60295 5.0161 0
M  V30 1721 H 167.163 -0.759304 3.70193 0
M  V30 1722 H 167.476 -0.935144 7.67121 0
M  V30 1723 H 165.821 -0.847898 6.89808 0
M  V30 1724 H 169.012 -0.857853 4.60172 0
M  V30 1725 H 169.185 -0.938263 6.41171 0
M  V30 1726 N 162.591 -1.51276 -0.441967 0
M  V30 1727 C 163.839 -1.63392 -1.18943 0
M  V30 1728 C 164.16 -0.350159 -1.9183 0
M  V30 1729 O 163.43 0.633784 -1.85364 0
M  V30 1730 H 162.01 -0.602164 -0.442049 0
M  V30 1731 H 164.672 -1.88186 -0.507165 0
M  V30 1732 H 163.768 -2.45934 -1.92154 0
M  V30 1733 N 164.069 0.697108 -1.41344 0
M  V30 1734 C 165.315 1.4593 -1.40827 0
M  V30 1735 C 165.648 1.94193 -0.0167098 0
M  V30 1736 O 164.923 1.69425 0.955263 0
M  V30 1737 C 165.206 2.67229 -2.41373 0
M  V30 1738 C 165.059 2.24741 -3.8963 0
M  V30 1739 C 166.378 3.69423 -2.39196 0
M  V30 1740 H 163.497 0.529303 -0.512842 0
M  V30 1741 H 166.139 0.794112 -1.72609 0
M  V30 1742 H 164.289 3.23982 -2.14401 0
M  V30 1743 H 165.961 1.73327 -4.27499 0
M  V30 1744 H 164.204 1.56542 -4.0457 0
M  V30 1745 H 164.875 3.1177 -4.55525 0
M  V30 1746 H 167.351 3.2234 -2.63128 0
M  V30 1747 H 166.227 4.51907 -3.11563 0
M  V30 1748 H 166.488 4.19012 -1.41001 0
M  V30 1749 N 165.547 1.27147 0.931209 0
M  V30 1750 C 166.794 1.13278 1.67852 0
M  V30 1751 C 167.122 -0.32204 1.91815 0
M  V30 1752 O 166.377 -1.25224 1.50391 0
M  V30 1753 C 166.676 1.8579 3.05314 0
M  V30 1754 C 166.342 3.35657 3.01073 0
M  V30 1755 C 165.004 3.76536 2.99623 0
M  V30 1756 C 167.356 4.31299 2.92627 0
M  V30 1757 C 164.684 5.11426 2.87506 0
M  V30 1758 C 167.036 5.66242 2.82051 0
M  V30 1759 C 165.7 6.06418 2.7895 0
M  V30 1760 H 164.97 0.414515 0.614214 0
M  V30 1761 H 167.617 1.57712 1.08624 0
M  V30 1762 H 165.922 1.33854 3.68226 0
M  V30 1763 H 167.619 1.72491 3.62005 0
M  V30 1764 H 164.209 3.03146 3.02986 0
M  V30 1765 H 168.393 4.00692 2.92848 0
M  V30 1766 H 163.649 5.41705 2.83489 0
M  V30 1767 H 167.823 6.40026 2.74481 0
M  V30 1768 H 165.45 7.10895 2.69318 0
M  V30 1769 N 167.025 -1.13721 1.09112 0
M  V30 1770 C 168.273 -1.84559 0.823562 0
M  V30 1771 C 168.594 -1.83754 -0.652658 0
M  V30 1772 O 167.864 -1.29102 -1.47342 0
M  V30 1773 H 166.444 -0.683376 0.301673 0
M  V30 1774 H 169.106 -1.37771 1.37859 0
M  V30 1775 H 168.202 -2.8917 1.17419 0
M  V30 1776 N 168.503 -0.877838 -1.30888 0
M  V30 1777 C 169.728 -0.506629 -2.01117 0
M  V30 1778 C 170.153 0.895564 -1.65412 0
M  V30 1779 O 169.511 1.5923 -0.866922 0
M  V30 1780 C 169.559 -0.680223 -3.54126 0
M  V30 1781 O 168.663 0.277033 -4.11468 0
M  V30 1782 H 168.004 -0.200518 -0.633 0
M  V30 1783 H 170.534 -1.18342 -1.66902 0
M  V30 1784 H 170.544 -0.5765 -4.03907 0
M  V30 1785 H 169.219 -1.70261 -3.79452 0
M  V30 1786 H 167.796 0.127606 -3.72682 0
M  V30 1787 N 169.982 1.44106 -0.638065 0
M  V30 1788 C 170.914 2.28976 0.101205 0
M  V30 1789 C 171.927 1.4167 0.802088 0
M  V30 1790 O 173.116 1.65755 0.662375 0
M  V30 1791 C 170.216 3.18217 1.16581 0
M  V30 1792 C 169.389 4.33978 0.546066 0
M  V30 1793 C 168.448 5.04202 1.50554 0
M  V30 1794 O 167.474 5.59986 1.01999 0
M  V30 1795 N 168.676 5.06296 2.8398 0
M  V30 1796 H 171.441 2.93064 -0.627186 0
M  V30 1797 H 169.002 1.54629 -0.479731 0
M  V30 1798 H 170.994 3.62061 1.80815 0
M  V30 1799 H 169.564 2.55833 1.79634 0
M  V30 1800 H 168.784 3.93239 -0.275046 0
M  V30 1801 H 170.072 5.08675 0.112793 0
M  V30 1802 H 169.47 4.62319 3.26002 0
M  V30 1803 H 168.027 5.53907 3.43556 0
M  V30 1804 N 171.46 0.379036 1.52974 0
M  V30 1805 C 172.871 -0.0972525 1.86447 0
M  V30 1806 C 173.222 -1.47027 1.29914 0
M  V30 1807 O 172.347 -2.07135 0.626433 0
M  V30 1808 C 172.942 -0.183248 3.38304 0
M  V30 1809 C 171.501 -0.603812 3.71525 0
M  V30 1810 C 170.648 0.240632 2.76254 0
M  V30 1811 H 173.599 0.597316 1.4703 0
M  V30 1812 H 173.62 -1.00432 3.67006 0
M  V30 1813 H 173.132 0.816191 3.79421 0
M  V30 1814 H 171.233 -1.61099 3.35973 0
M  V30 1815 H 171.346 -0.369086 4.77676 0
M  V30 1816 H 169.71 -0.292548 2.53014 0
M  V30 1817 H 170.493 1.23786 3.20206 0
M  V30 1818 N 172.938 -1.57226 0.108567 0
M  V30 1819 C 173.901 -2.13602 -0.831082 0
M  V30 1820 C 174.901 -1.06841 -1.20173 0
M  V30 1821 O 176.091 -1.32666 -1.12895 0
M  V30 1822 C 173.223 -2.66769 -2.12243 0
M  V30 1823 H 174.416 -2.97951 -0.341317 0
M  V30 1824 H 171.969 -1.55667 -0.14057 0
M  V30 1825 H 172.704 -1.85977 -2.65675 0
M  V30 1826 H 172.489 -3.44839 -1.86625 0
M  V30 1827 H 173.979 -3.10332 -2.79435 0
M  V30 1828 N 174.416 0.165178 -1.56732 0
M  V30 1829 C 175.664 0.879068 -1.8198 0
M  V30 1830 C 175.985 1.82514 -0.686561 0
M  V30 1831 O 175.255 1.93694 0.293146 0
M  V30 1832 H 173.835 0.327608 -0.671329 0
M  V30 1833 H 176.497 0.163526 -1.94213 0
M  V30 1834 H 175.593 1.45228 -2.76252 0
M  V30 1835 N 175.894 1.51508 0.433938 0
M  V30 1836 C 177.142 1.6402 1.18075 0
M  V30 1837 C 177.463 0.360328 1.91642 0
M  V30 1838 O 176.733 -0.623945 1.85698 0
M  V30 1839 H 175.313 0.6045 0.43885 0
M  V30 1840 H 177.975 1.88452 0.497178 0
M  V30 1841 H 177.071 2.46949 1.90847 0
M  V30 1842 N 177.372 -0.689602 1.41712 0
M  V30 1843 C 178.618 -1.45041 1.42599 0
M  V30 1844 C 178.973 -1.92366 0.0363764 0
M  V30 1845 O 178.266 -1.67022 -0.938844 0
M  V30 1846 C 178.46 -2.67298 2.37247 0
M  V30 1847 C 178.289 -2.31935 3.85274 0
M  V30 1848 C 177.059 -2.2201 4.53916 0
M  V30 1849 C 179.257 -1.94526 4.76093 0
M  V30 1850 N 177.239 -1.79594 5.87043 0
M  V30 1851 C 178.61 -1.62915 5.98213 0
M  V30 1852 C 180.665 -1.81388 4.63684 0
M  V30 1853 C 179.368 -1.19486 7.09306 0
M  V30 1854 C 181.394 -1.39364 5.74745 0
M  V30 1855 C 180.756 -1.08668 6.95967 0
M  V30 1856 H 176.855 -0.527806 0.577014 0
M  V30 1857 H 179.439 -0.797266 1.77628 0
M  V30 1858 H 177.61 -3.30325 2.04304 0
M  V30 1859 H 179.342 -3.33806 2.28814 0
M  V30 1860 H 176.097 -2.406 4.07932 0
M  V30 1861 H 176.521 -1.60851 6.57614 0
M  V30 1862 H 181.163 -2.03772 3.70455 0
M  V30 1863 H 178.881 -0.958477 8.02396 0
M  V30 1864 H 182.467 -1.2974 5.6715 0
M  V30 1865 H 181.347 -0.766417 7.80446 0
M  V30 1866 N 178.85 -1.27639 -0.924453 0
M  V30 1867 C 179.78 -1.13166 -2.04244 0
M  V30 1868 C 180.761 -0.032256 -1.70069 0
M  V30 1869 O 181.946 -0.207328 -1.9309 0
M  V30 1870 C 179.076 -0.781496 -3.38393 0
M  V30 1871 C 178.03 -1.83449 -3.86692 0
M  V30 1872 C 177.356 -1.33822 -5.17683 0
M  V30 1873 C 178.656 -3.23917 -4.09726 0
M  V30 1874 H 180.35 -2.06689 -2.1661 0
M  V30 1875 H 177.896 -0.995136 -1.04082 0
M  V30 1876 H 179.849 -0.667057 -4.16087 0
M  V30 1877 H 178.573 0.189439 -3.2605 0
M  V30 1878 H 177.232 -1.93789 -3.11193 0
M  V30 1879 H 176.88 -0.35665 -5.01734 0
M  V30 1880 H 176.58 -2.04224 -5.50968 0
M  V30 1881 H 178.104 -1.23679 -5.97943 0
M  V30 1882 H 179.518 -3.16559 -4.77978 0
M  V30 1883 H 177.915 -3.92059 -4.54324 0
M  V30 1884 H 178.985 -3.68729 -3.14908 0
M  V30 1885 N 180.328 1.1314 -1.09713 0
M  V30 1886 C 181.275 2.18642 -0.739196 0
M  V30 1887 C 182.245 1.63706 0.280978 0
M  V30 1888 O 183.43 1.90111 0.161946 0
M  V30 1889 C 180.57 3.44685 -0.169102 0
M  V30 1890 C 179.683 4.13711 -1.24367 0
M  V30 1891 C 178.818 5.27379 -0.636019 0
M  V30 1892 C 177.857 5.88259 -1.69169 0
M  V30 1893 N 176.994 6.93352 -1.10485 0
M  V30 1894 H 181.834 2.48607 -1.64312 0
M  V30 1895 H 179.371 1.22066 -0.820875 0
M  V30 1896 H 181.329 4.16815 0.179256 0
M  V30 1897 H 179.959 3.15161 0.698079 0
M  V30 1898 H 179.011 3.39835 -1.70927 0
M  V30 1899 H 180.323 4.55037 -2.04311 0
M  V30 1900 H 179.477 6.06238 -0.236677 0
M  V30 1901 H 178.216 4.8731 0.194928 0
M  V30 1902 H 177.221 5.08092 -2.10055 0
M  V30 1903 H 178.446 6.30399 -2.52536 0
M  V30 1904 H 176.392 6.55335 -0.295234 0
M  V30 1905 H 176.309 7.33236 -1.84121 0
M  V30 1906 H 177.577 7.76057 -0.73181 0
M  V30 1907 N 181.806 0.884767 1.30421 0
M  V30 1908 C 183.034 0.518044 2.0031 0
M  V30 1909 C 183.449 -0.893408 1.66324 0
M  V30 1910 O 182.806 -1.5875 0.900262 0
M  V30 1911 C 182.857 0.682997 3.54989 0
M  V30 1912 O 182.578 2.03888 3.87764 0
M  V30 1913 C 184.079 0.31924 4.42149 0
M  V30 1914 H 181.299 0.200265 0.640418 0
M  V30 1915 H 183.843 1.19001 1.6631 0
M  V30 1916 H 181.998 0.0584052 3.87356 0
M  V30 1917 H 182.412 2.05735 4.82466 0
M  V30 1918 H 183.886 0.485555 5.4986 0
M  V30 1919 H 184.363 -0.742717 4.32875 0
M  V30 1920 H 184.969 0.920147 4.15227 0
M  V30 1921 N 183.284 -1.43765 0.645699 0
M  V30 1922 C 184.533 -2.01116 0.153412 0
M  V30 1923 C 184.846 -1.51493 -1.23731 0
M  V30 1924 O 186.052 -2.01067 -1.8244 0
M  V30 1925 C 184.508 -3.59206 0.223473 0
M  V30 1926 C 184.116 -4.17823 1.61642 0
M  V30 1927 C 185.86 -4.23972 -0.211597 0
M  V30 1928 C 183.767 -5.68183 1.64081 0
M  V30 1929 H 182.697 -0.752093 0.0535891 0
M  V30 1930 H 185.348 -1.6482 0.806633 0
M  V30 1931 H 183.73 -3.92867 -0.497118 0
M  V30 1932 H 184.904 -3.95674 2.36176 0
M  V30 1933 H 183.219 -3.65399 1.99681 0
M  V30 1934 H 185.816 -5.34275 -0.213112 0
M  V30 1935 H 186.159 -3.97352 -1.24165 0
M  V30 1936 H 186.692 -3.95166 0.456988 0
M  V30 1937 H 183.431 -5.99559 2.64971 0
M  V30 1938 H 182.951 -5.9241 0.938611 0
M  V30 1939 H 184.63 -6.32085 1.3812 0
M  V30 1940 N 184.763 -0.387143 -1.52771 0
M  V30 1941 C 186.01 0.195735 -2.01552 0
M  V30 1942 C 186.338 1.46995 -1.27369 0
M  V30 1943 O 185.593 1.92325 -0.361879 0
M  V30 1944 C 185.892 0.512209 -3.53711 0
M  V30 1945 C 185.558 -0.670202 -4.45891 0
M  V30 1946 C 184.22 -0.994586 -4.70809 0
M  V30 1947 C 186.572 -1.46134 -5.00294 0
M  V30 1948 C 183.9 -2.11169 -5.4738 0
M  V30 1949 C 186.252 -2.56903 -5.78086 0
M  V30 1950 C 184.916 -2.89852 -6.01284 0
M  V30 1951 H 184.186 0.0716246 -0.73753 0
M  V30 1952 H 186.833 -0.524046 -1.8419 0
M  V30 1953 H 185.138 1.31329 -3.69134 0
M  V30 1954 H 186.835 0.975804 -3.88946 0
M  V30 1955 H 183.425 -0.407366 -4.2666 0
M  V30 1956 H 187.609 -1.22397 -4.80971 0
M  V30 1957 H 182.865 -2.3707 -5.63567 0
M  V30 1958 H 187.039 -3.18608 -6.19243 0
M  V30 1959 H 184.666 -3.76533 -6.60399 0
M  V30 1960 N 186.241 1.57166 -0.116904 0
M  V30 1961 C 187.518 1.86645 0.585049 0
M  V30 1962 C 187.898 1.0177 1.84949 0
M  V30 1963 O 187.246 0.0960379 2.28298 0
M  V30 1964 C 187.456 3.37736 0.879507 0
M  V30 1965 C 188.804 4.06289 1.23348 0
M  V30 1966 O 189.828 3.42743 0.969836 0
M  V30 1967 O 188.687 5.18455 1.7282 0
M  V30 1968 H 185.781 0.772593 0.295007 0
M  V30 1969 H 188.327 1.69025 -0.151249 0
M  V30 1970 H 187.099 3.91296 -0.0166136 0
M  V30 1971 H 186.722 3.6078 1.67103 0
M  V30 1972 N 187.719 -0.156864 1.56817 0
M  V30 1973 C 188.649 -1.19589 2.00551 0
M  V30 1974 C 189.63 -1.4536 0.883426 0
M  V30 1975 O 190.815 -1.56449 1.15054 0
M  V30 1976 C 187.945 -2.53143 2.37773 0
M  V30 1977 C 186.899 -2.41913 3.53075 0
M  V30 1978 C 186.225 -3.80088 3.76081 0
M  V30 1979 C 187.525 -1.91157 4.86062 0
M  V30 1980 H 189.219 -0.832293 2.87599 0
M  V30 1981 H 186.765 -0.398918 1.38364 0
M  V30 1982 H 188.718 -3.26047 2.66967 0
M  V30 1983 H 187.442 -2.91319 1.4765 0
M  V30 1984 H 186.101 -1.71462 3.24031 0
M  V30 1985 H 185.749 -4.15683 2.83225 0
M  V30 1986 H 185.449 -3.73439 4.53671 0
M  V30 1987 H 186.973 -4.54556 4.0769 0
M  V30 1988 H 188.387 -2.53846 5.14038 0
M  V30 1989 H 186.784 -1.95422 5.67389 0
M  V30 1990 H 187.854 -0.866673 4.77092 0
M  V30 1991 N 189.197 -1.51736 -0.425897 0
M  V30 1992 C 190.613 -1.40166 -0.76326 0
M  V30 1993 C 190.813 -0.492962 -1.95377 0
M  V30 1994 O 189.869 0.0475815 -2.52455 0
M  V30 1995 C 191.182 -2.82403 -1.03291 0
M  V30 1996 C 192.73 -2.91632 -1.13665 0
M  V30 1997 C 193.205 -4.34801 -1.43916 0
M  V30 1998 N 194.696 -4.3796 -1.50816 0
M  V30 1999 C 195.431 -5.4578 -1.75817 0
M  V30 2000 N 194.927 -6.63744 -1.98534 0
M  V30 2001 N 196.72 -5.33274 -1.77694 0
M  V30 2002 H 188.871 -2.09361 0.358 0
M  V30 2003 H 191.134 -0.942941 0.0978094 0
M  V30 2004 H 190.84 -3.50943 -0.230696 0
M  V30 2005 H 190.714 -3.22428 -1.95754 0
M  V30 2006 H 193.101 -2.23284 -1.92947 0
M  V30 2007 H 193.182 -2.55088 -0.190756 0
M  V30 2008 H 192.826 -5.03703 -0.65157 0
M  V30 2009 H 192.756 -4.68868 -2.39729 0
M  V30 2010 H 195.247 -3.52919 -1.35118 0
M  V30 2011 H 195.56 -7.41704 -2.17013 0
M  V30 2012 H 193.905 -6.66839 -1.95832 0
M  V30 2013 H 197.096 -4.40098 -1.59473 0
M  V30 2014 H 197.269 -6.1738 -1.9684 0
M  V30 2015 N 190.675 0.682077 -1.42076 0
M  V30 2016 C 191.605 1.80796 -1.47767 0
M  V30 2017 C 192.586 1.6677 -0.334954 0
M  V30 2018 O 193.771 1.863 -0.548264 0
M  V30 2019 C 190.901 3.19038 -1.37229 0
M  V30 2020 C 189.855 3.47789 -2.49453 0
M  V30 2021 C 189.181 4.8553 -2.23975 0
M  V30 2022 C 190.481 3.45411 -3.91776 0
M  V30 2023 H 192.175 1.7629 -2.41997 0
M  V30 2024 H 189.721 0.846721 -1.16476 0
M  V30 2025 H 191.674 3.97528 -1.39821 0
M  V30 2026 H 190.398 3.24204 -0.394907 0
M  V30 2027 H 189.057 2.71657 -2.46166 0
M  V30 2028 H 188.705 4.87337 -1.24547 0
M  V30 2029 H 188.405 5.0573 -2.99184 0
M  V30 2030 H 189.929 5.66312 -2.28304 0
M  V30 2031 H 191.343 4.13882 -3.96705 0
M  V30 2032 H 189.74 3.77145 -4.66778 0
M  V30 2033 H 190.81 2.44122 -4.18966 0
M  V30 2034 N 192.153 1.28127 0.917671 0
M  V30 2035 C 193.1 1.11717 2.0196 0
M  V30 2036 C 194.07 0.0153929 1.66093 0
M  V30 2037 O 195.255 0.179596 1.89953 0
M  V30 2038 C 192.395 0.780927 3.36148 0
M  V30 2039 C 191.508 1.96135 3.84909 0
M  V30 2040 C 190.643 1.56609 5.0759 0
M  V30 2041 C 189.682 2.71339 5.48673 0
M  V30 2042 N 188.819 2.32332 6.62545 0
M  V30 2043 H 193.659 2.06003 2.15329 0
M  V30 2044 H 191.196 1.02535 1.05475 0
M  V30 2045 H 193.154 0.56675 4.13333 0
M  V30 2046 H 191.784 -0.124998 3.22558 0
M  V30 2047 H 190.836 2.28777 3.03916 0
M  V30 2048 H 192.148 2.82165 4.1132 0
M  V30 2049 H 191.302 1.31374 5.92305 0
M  V30 2050 H 190.041 0.677014 4.82978 0
M  V30 2051 H 189.046 2.97276 4.62501 0
M  V30 2052 H 190.271 3.60882 5.75274 0
M  V30 2053 H 188.217 1.45889 6.39572 0
M  V30 2054 H 188.134 3.11899 6.88662 0
M  V30 2055 H 189.402 2.10371 7.50576 0
M  V30 2056 N 193.631 -1.12557 1.10312 0
M  V30 2057 C 194.579 -2.20325 0.745629 0
M  V30 2058 C 195.573 -1.67429 -0.25763 0
M  V30 2059 O 196.779 -1.79612 -0.118132 0
M  V30 2060 H 193.154 -0.718118 0.223182 0
M  V30 2061 H 195.125 -2.47733 1.66346 0
M  V30 2062 C 193.874 -3.47168 0.192262 0
M  V30 2063 H 193.197 -3.88215 0.955475 0
M  V30 2064 H 194.637 -4.23995 -0.0198274 0
M  V30 2065 C 193.096 -3.19298 -1.07472 0
M  V30 2066 O 193.626 -3.3891 -2.15645 0
M  V30 2067 N 191.832 -2.73113 -0.992847 0
M  V30 2068 H 191.379 -2.57354 -0.112474 0
M  V30 2069 H 191.337 -2.54842 -1.84127 0
M  V30 2070 N 195.109 -0.891671 -1.2995 0
M  V30 2071 C 196.358 -0.509521 -1.95158 0
M  V30 2072 C 196.671 0.947388 -1.71125 0
M  V30 2073 O 197.877 1.43669 -2.30372 0
M  V30 2074 C 196.333 -0.860315 -3.49466 0
M  V30 2075 C 195.941 -2.33545 -3.8231 0
M  V30 2076 C 197.685 -0.547687 -4.20952 0
M  V30 2077 C 195.592 -2.62752 -5.29826 0
M  V30 2078 H 194.522 -0.18682 -0.730489 0
M  V30 2079 H 197.173 -1.08756 -1.47798 0
M  V30 2080 H 195.555 -0.211285 -3.95436 0
M  V30 2081 H 196.729 -3.02936 -3.47227 0
M  V30 2082 H 195.044 -2.61629 -3.23944 0
M  V30 2083 H 197.641 -0.742854 -5.29515 0
M  V30 2084 H 197.984 0.51332 -4.13123 0
M  V30 2085 H 198.517 -1.1542 -3.80688 0
M  V30 2086 H 195.256 -3.6762 -5.42712 0
M  V30 2087 H 194.776 -1.97977 -5.66185 0
M  V30 2088 H 196.455 -2.48601 -5.97333 0
M  V30 2089 N 196.587 1.43421 -0.653314 0
M  V30 2090 C 197.55 2.29182 0.0287951 0
M  V30 2091 C 198.55 1.42213 0.750465 0
M  V30 2092 O 199.74 1.63843 0.591701 0
M  V30 2093 C 196.872 3.24278 1.05151 0
M  V30 2094 H 198.065 2.90985 -0.725786 0
M  V30 2095 H 195.618 1.50702 -0.414545 0
M  V30 2096 H 196.353 2.6737 1.83532 0
M  V30 2097 H 196.138 3.88396 0.537687 0
M  V30 2098 H 197.628 3.88647 1.52786 0
M  V30 2099 N 198.065 0.39524 1.52563 0
M  V30 2100 C 199.013 -0.451859 2.28169 0
M  V30 2101 C 200.007 -1.05792 1.32304 0
M  V30 2102 O 201.213 -0.997718 1.49818 0
M  V30 2103 H 197.588 -0.164481 0.733792 0
M  V30 2104 H 199.559 0.207199 2.9768 0
M  V30 2105 C 198.308 -1.56385 3.10546 0
M  V30 2106 H 197.631 -1.10682 3.84174 0
M  V30 2107 H 199.071 -2.13067 3.66577 0
M  V30 2108 C 197.53 -2.52328 2.23231 0
M  V30 2109 O 198.06 -3.5588 1.86312 0
M  V30 2110 N 196.266 -2.22209 1.87274 0
M  V30 2111 H 195.813 -1.38033 2.17496 0
M  V30 2112 H 195.771 -2.86652 1.29143 0
M  V30 2113 N 199.544 -1.57102 0.125237 0
M  V30 2114 C 200.772 -1.99761 -0.538797 0
M  V30 2115 C 201.187 -1.00503 -1.59827 0
M  V30 2116 O 200.544 0.00119474 -1.825 0
M  V30 2117 C 200.595 -3.42408 -1.15927 0
M  V30 2118 O 200.316 -4.37869 -0.142143 0
M  V30 2119 C 201.817 -4.00232 -1.90602 0
M  V30 2120 H 199.037 -0.655772 -0.14214 0
M  V30 2121 H 201.581 -2.03383 0.213413 0
M  V30 2122 H 199.736 -3.39706 -1.86223 0
M  V30 2123 H 200.15 -5.21128 -0.593775 0
M  V30 2124 H 201.624 -5.02105 -2.29335 0
M  V30 2125 H 202.101 -3.39721 -2.78363 0
M  V30 2126 H 202.707 -4.06499 -1.25055 0
M  V30 2127 N 201.022 0.148545 -1.56898 0
M  V30 2128 C 201.97 1.20265 -1.99096 0
M  V30 2129 C 202.964 1.44559 -0.883123 0
M  V30 2130 O 204.17 1.4487 -1.0683 0
M  V30 2131 H 200.545 0.404786 -0.63376 0
M  V30 2132 H 202.516 0.82004 -2.86911 0
M  V30 2133 C 201.265 2.52886 -2.3863 0
M  V30 2134 H 200.588 2.35021 -3.23427 0
M  V30 2135 H 202.028 3.25274 -2.7198 0
M  V30 2136 C 200.487 3.13315 -1.23837 0
M  V30 2137 O 201.017 3.98077 -0.538268 0
M  V30 2138 N 199.223 2.72742 -1.00301 0
M  V30 2139 H 198.77 2.03912 -1.5741 0
M  V30 2140 H 198.728 3.13507 -0.236838 0
M  V30 2141 N 202.5 1.5196 0.417844 0
M  V30 2142 C 203.749 1.6482 1.16264 0
M  V30 2143 C 204.062 0.379886 1.91876 0
M  V30 2144 O 205.268 0.388154 2.68711 0
M  V30 2145 C 203.724 2.91161 2.1155 0
M  V30 2146 C 203.332 4.25068 1.41495 0
M  V30 2147 C 205.076 3.13383 2.86341 0
M  V30 2148 C 202.983 5.42541 2.35379 0
M  V30 2149 H 201.913 0.613954 0.437694 0
M  V30 2150 H 204.564 1.78442 0.427871 0
M  V30 2151 H 202.946 2.71218 2.88543 0
M  V30 2152 H 204.12 4.55463 0.699263 0
M  V30 2153 H 202.435 4.0888 0.787792 0
M  V30 2154 H 205.032 3.98324 3.5671 0
M  V30 2155 H 205.375 2.27256 3.48798 0
M  V30 2156 H 205.908 3.33757 2.1645 0
M  V30 2157 H 202.647 6.30987 1.77582 0
M  V30 2158 H 202.167 5.16497 3.04945 0
M  V30 2159 H 203.846 5.75272 2.96093 0
M  V30 2160 N 203.978 -0.674533 1.42435 0
M  V30 2161 C 205.206 -1.46283 1.46317 0
M  V30 2162 C 205.621 -1.88653 0.0745836 0
M  V30 2163 O 204.978 -1.58151 -0.91074 0
M  V30 2164 C 205.029 -2.71178 2.3905 0
M  V30 2165 O 204.75 -2.30586 3.72507 0
M  V30 2166 C 206.251 -3.64738 2.51955 0
M  V30 2167 H 203.471 -0.450104 0.497642 0
M  V30 2168 H 206.015 -0.828792 1.86953 0
M  V30 2169 H 204.17 -3.3077 2.01667 0
M  V30 2170 H 204.584 -3.11241 4.22172 0
M  V30 2171 H 206.058 -4.49096 3.20962 0
M  V30 2172 H 206.535 -4.10656 1.55752 0
M  V30 2173 H 207.141 -3.11038 2.90061 0
M  V30 2174 N 205.456 -1.28612 -0.910864 0
M  V30 2175 C 206.686 -1.1862 -1.69153 0
M  V30 2176 C 207.094 0.257324 -1.87442 0
M  V30 2177 O 206.437 1.18543 -1.40332 0
M  V30 2178 C 206.499 -1.81606 -3.10257 0
M  V30 2179 C 206.163 -3.30864 -3.15243 0
M  V30 2180 C 207.16 -4.27256 -2.96223 0
M  V30 2181 C 204.845 -3.71871 -3.37664 0
M  V30 2182 C 206.839 -5.62631 -2.99541 0
M  V30 2183 C 204.526 -5.07371 -3.40614 0
M  V30 2184 C 205.524 -6.02561 -3.21573 0
M  V30 2185 O 205.212 -7.35589 -3.2429 0
M  V30 2186 H 204.944 -0.412633 -0.535453 0
M  V30 2187 H 207.498 -1.70306 -1.14827 0
M  V30 2188 H 205.728 -1.24418 -3.66138 0
M  V30 2189 H 207.417 -1.66092 -3.70362 0
M  V30 2190 H 208.183 -3.9691 -2.78725 0
M  V30 2191 H 204.062 -2.98241 -3.5153 0
M  V30 2192 H 207.606 -6.36907 -2.84597 0
M  V30 2193 H 203.503 -5.37366 -3.57642 0
M  V30 2194 H 204.271 -7.44252 -3.40633 0
M  V30 2195 N 206.934 1.1197 -1.10907 0
M  V30 2196 C 208.18 1.84059 -0.865674 0
M  V30 2197 C 208.535 1.82731 0.602254 0
M  V30 2198 O 207.828 1.26543 1.43866 0
M  V30 2199 C 208.022 3.30749 -1.35425 0
M  V30 2200 C 207.851 3.46363 -2.86815 0
M  V30 2201 C 206.621 3.59712 -3.54874 0
M  V30 2202 C 208.819 3.41116 -3.84895 0
M  V30 2203 N 206.801 3.63741 -4.94536 0
M  V30 2204 C 208.172 3.51698 -5.10596 0
M  V30 2205 C 210.227 3.24612 -3.77533 0
M  V30 2206 C 208.93 3.4748 -6.29802 0
M  V30 2207 C 210.956 3.21708 -4.96244 0
M  V30 2208 C 210.318 3.32856 -6.20795 0
M  V30 2209 H 206.417 0.689015 -0.369841 0
M  V30 2210 H 209.001 1.34016 -1.41237 0
M  V30 2211 H 207.172 3.79322 -0.834814 0
M  V30 2212 H 208.904 3.90718 -1.05458 0
M  V30 2213 H 205.659 3.62038 -3.05329 0
M  V30 2214 H 206.083 3.69408 -5.67333 0
M  V30 2215 H 210.725 3.14883 -2.8215 0
M  V30 2216 H 208.443 3.55978 -7.25469 0
M  V30 2217 H 212.029 3.10113 -4.92261 0
M  V30 2218 H 210.909 3.3059 -7.11112 0
M  V30 2219 N 208.412 0.89855 1.29475 0
M  V30 2220 C 209.66 0.522847 1.9522 0
M  V30 2221 C 209.981 -0.93371 1.71192 0
M  V30 2222 O 209.251 -1.65823 1.04305 0
M  V30 2223 H 207.831 0.190366 0.722336 0
M  V30 2224 H 210.493 1.14459 1.5775 0
M  V30 2225 H 209.589 0.704476 3.04045 0
M  V30 2226 N 209.89 -1.43072 0.660911 0
M  V30 2227 C 211.167 -1.95307 0.107017 0
M  V30 2228 C 211.547 -1.60192 -1.37484 0
M  V30 2229 O 210.895 -0.890949 -2.10415 0
M  V30 2230 C 211.105 -3.47124 0.361402 0
M  V30 2231 C 212.453 -4.23738 0.270455 0
M  V30 2232 O 213.477 -3.54981 0.294382 0
M  V30 2233 O 212.336 -5.46131 0.200737 0
M  V30 2234 H 209.43 -0.826984 -0.00517729 0
M  V30 2235 H 211.976 -1.52972 0.734681 0
M  V30 2236 H 210.748 -3.65837 1.38848 0
M  V30 2237 H 210.371 -3.96475 -0.298953 0
M  V30 2238 N 211.368 -0.403325 -1.52352 0
M  V30 2239 C 212.784 -0.0539281 -1.59509 0
M  V30 2240 C 212.984 1.43307 -1.41652 0
M  V30 2241 O 212.04 2.19924 -1.24056 0
M  V30 2242 C 213.353 -0.543654 -2.95745 0
M  V30 2243 C 214.901 -0.501125 -3.08962 0
M  V30 2244 C 215.376 -0.967267 -4.47669 0
M  V30 2245 N 216.867 -0.923849 -4.53893 0
M  V30 2246 C 217.602 -1.25578 -5.5948 0
M  V30 2247 N 217.098 -1.65889 -6.72646 0
M  V30 2248 N 218.891 -1.17613 -5.49658 0
M  V30 2249 H 211.042 -1.37123 -1.62206 0
M  V30 2250 H 213.305 -0.56294 -0.76276 0
M  V30 2251 H 213.011 -1.58275 -3.14073 0
M  V30 2252 H 212.885 0.0498042 -3.77167 0
M  V30 2253 H 215.272 0.528909 -2.90321 0
M  V30 2254 H 215.353 -1.13056 -2.2946 0
M  V30 2255 H 214.997 -1.9956 -4.67053 0
M  V30 2256 H 214.927 -0.314698 -5.25659 0
M  V30 2257 H 217.418 -0.627403 -3.72655 0
M  V30 2258 H 217.731 -1.89543 -7.49195 0
M  V30 2259 H 216.076 -1.69787 -6.73942 0
M  V30 2260 H 219.267 -0.860115 -4.6013 0
M  V30 2261 H 219.44 -1.43812 -6.3184 0
M  V30 2262 N 212.846 1.57033 -0.133567 0
M  V30 2263 C 213.776 2.1909 0.807567 0
M  V30 2264 C 214.757 1.13517 1.26681 0
M  V30 2265 O 215.942 1.41809 1.32679 0
M  V30 2266 C 213.072 2.80188 2.05212 0
M  V30 2267 C 212.026 3.91471 1.73015 0
M  V30 2268 C 211.352 4.39443 3.04622 0
M  V30 2269 C 212.652 5.12886 0.987168 0
M  V30 2270 H 214.346 2.97988 0.290403 0
M  V30 2271 H 211.892 1.43335 0.138239 0
M  V30 2272 H 213.845 3.22264 2.71521 0
M  V30 2273 H 212.569 1.98601 2.59278 0
M  V30 2274 H 211.228 3.49993 1.0909 0
M  V30 2275 H 210.876 3.54695 3.56651 0
M  V30 2276 H 210.576 5.14495 2.83847 0
M  V30 2277 H 212.1 4.8418 3.72024 0
M  V30 2278 H 213.514 5.51891 1.55208 0
M  V30 2279 H 211.911 5.93615 0.87985 0
M  V30 2280 H 212.981 4.84894 -0.0235286 0
M  V30 2281 N 214.325 -0.140222 1.56975 0
M  V30 2282 C 215.255 -1.17456 2.01808 0
M  V30 2283 C 216.236 -1.44415 0.898794 0
M  V30 2284 O 217.421 -1.5522 1.16707 0
M  V30 2285 C 214.551 -2.50607 2.40444 0
M  V30 2286 C 213.505 -2.38155 3.55621 0
M  V30 2287 C 212.831 -3.76078 3.80091 0
M  V30 2288 C 214.131 -1.85991 4.88062 0
M  V30 2289 H 215.825 -0.801743 2.88466 0
M  V30 2290 H 213.371 -0.38422 1.38779 0
M  V30 2291 H 215.324 -3.23197 2.7041 0
M  V30 2292 H 214.048 -2.89737 1.50732 0
M  V30 2293 H 212.707 -1.68016 3.25832 0
M  V30 2294 H 212.355 -4.12656 2.87618 0
M  V30 2295 H 212.055 -3.68606 4.57606 0
M  V30 2296 H 213.579 -4.50206 4.12488 0
M  V30 2297 H 214.993 -2.4838 5.16701 0
M  V30 2298 H 213.39 -1.89393 5.6943 0
M  V30 2299 H 214.46 -0.816023 4.77984 0
M  V30 2300 N 215.803 -1.52179 -0.40978 0
M  V30 2301 C 216.766 -1.74853 -1.48186 0
M  V30 2302 C 217.766 -0.618417 -1.48433 0
M  V30 2303 O 218.956 -0.886286 -1.49969 0
M  V30 2304 C 216.088 -1.8303 -2.87598 0
M  V30 2305 H 217.281 -2.70559 -1.29374 0
M  V30 2306 H 214.834 -1.42586 -0.640233 0
M  V30 2307 H 215.569 -0.89236 -3.11781 0
M  V30 2308 H 215.354 -2.65187 -2.88822 0
M  V30 2309 H 216.844 -2.02316 -3.65319 0
M  V30 2310 N 217.281 0.66697 -1.42791 0
M  V30 2311 C 218.211 1.79218 -1.49677 0
M  V30 2312 C 219.192 1.66405 -0.352623 0
M  V30 2313 O 220.377 1.85708 -0.567993 0
M  V30 2314 C 217.507 3.17565 -1.40605 0
M  V30 2315 C 216.461 3.45124 -2.53127 0
M  V30 2316 C 215.787 4.83127 -2.29112 0
M  V30 2317 C 217.087 3.41236 -3.95418 0
M  V30 2318 H 218.781 1.73713 -2.43853 0
M  V30 2319 H 216.327 0.83432 -1.17367 0
M  V30 2320 H 218.28 3.96022 -1.44029 0
M  V30 2321 H 217.004 3.23767 -0.429271 0
M  V30 2322 H 215.663 2.69031 -2.49034 0
M  V30 2323 H 215.311 4.85988 -1.29709 0
M  V30 2324 H 215.011 5.02528 -3.04531 0
M  V30 2325 H 216.535 5.63859 -2.34297 0
M  V30 2326 H 217.949 4.09651 -4.01073 0
M  V30 2327 H 216.346 3.72173 -4.70752 0
M  V30 2328 H 217.416 2.39665 -4.21532 0
M  V30 2329 N 218.759 1.29093 0.90403 0
M  V30 2330 C 220.005 1.17996 1.65676 0
M  V30 2331 C 220.36 -0.266816 1.90541 0
M  V30 2332 O 219.653 -1.19 1.50165 0
M  V30 2333 C 219.847 1.92224 3.01305 0
M  V30 2334 C 219.676 3.43972 2.89678 0
M  V30 2335 C 218.446 4.1332 2.90679 0
M  V30 2336 C 220.644 4.39546 2.67028 0
M  V30 2337 N 218.626 5.51463 2.69743 0
M  V30 2338 C 219.997 5.65119 2.5503 0
M  V30 2339 C 222.052 4.29359 2.52101 0
M  V30 2340 C 220.755 6.81663 2.29626 0
M  V30 2341 C 222.781 5.4565 2.28079 0
M  V30 2342 C 222.143 6.70193 2.16843 0
M  V30 2343 H 218.242 0.486759 0.612037 0
M  V30 2344 H 220.826 1.62868 1.06688 0
M  V30 2345 H 218.997 1.49773 3.58361 0
M  V30 2346 H 220.729 1.73429 3.65656 0
M  V30 2347 H 217.484 3.64984 3.01801 0
M  V30 2348 H 217.908 6.24105 2.6234 0
M  V30 2349 H 222.55 3.33769 2.59534 0
M  V30 2350 H 220.268 7.77313 2.20932 0
M  V30 2351 H 223.854 5.39664 2.1738 0
M  V30 2352 H 222.734 7.58659 1.98511 0
M  V30 2353 N 220.237 -1.11381 1.11499 0
M  V30 2354 C 221.147 -2.21019 0.786628 0
M  V30 2355 C 222.163 -1.72597 -0.220507 0
M  V30 2356 O 223.339 -2.01321 -0.0565251 0
M  V30 2357 C 220.404 -3.459 0.235333 0
M  V30 2358 C 219.465 -4.09107 1.30115 0
M  V30 2359 C 218.698 -5.28027 0.776068 0
M  V30 2360 O 218.921 -5.6904 -0.393661 0
M  V30 2361 O 217.855 -5.81835 1.54114 0
M  V30 2362 H 221.681 -2.51521 1.70209 0
M  V30 2363 H 219.266 -1.19928 0.890928 0
M  V30 2364 H 221.148 -4.21346 -0.067715 0
M  V30 2365 H 219.823 -3.17049 -0.652828 0
M  V30 2366 H 218.73 -3.35391 1.65722 0
M  V30 2367 H 220.063 -4.42139 2.16273 0
M  V30 2368 N 221.715 -0.905404 -1.28997 0
M  V30 2369 C 222.963 -0.533192 -1.9494 0
M  V30 2370 C 223.284 0.924618 -1.71685 0
M  V30 2371 O 222.554 1.65268 -1.05183 0
M  V30 2372 H 221.134 -0.194194 -0.721317 0
M  V30 2373 H 223.796 -1.15294 -1.57141 0
M  V30 2374 H 222.892 -0.72059 -3.03667 0
M  V30 2375 N 223.193 1.4272 -0.668489 0
M  V30 2376 C 224.441 2.01226 -0.187769 0
M  V30 2377 C 224.762 1.53092 1.2078 0
M  V30 2378 O 224.032 0.74993 1.80977 0
M  V30 2379 H 222.612 0.744041 -0.0664272 0
M  V30 2380 H 225.274 1.74723 -0.863583 0
M  V30 2381 H 224.37 3.11556 -0.184166 0
M  V30 2382 N 224.671 0.411399 1.52136 0
M  V30 2383 C 225.603 -0.448386 2.24771 0
M  V30 2384 C 226.616 -1.00828 1.27818 0
M  V30 2385 O 227.805 -0.906841 1.53749 0
M  V30 2386 C 224.905 -1.63636 2.96777 0
M  V30 2387 C 224.078 -1.19995 4.20618 0
M  V30 2388 C 223.137 -2.25509 4.75428 0
M  V30 2389 O 222.163 -1.86007 5.3795 0
M  V30 2390 N 223.365 -3.577 4.57199 0
M  V30 2391 H 226.13 0.174025 2.99194 0
M  V30 2392 H 223.691 0.238897 1.60128 0
M  V30 2393 H 225.683 -2.33793 3.30338 0
M  V30 2394 H 224.253 -2.16465 2.25526 0
M  V30 2395 H 223.473 -0.326421 3.92846 0
M  V30 2396 H 224.761 -0.885365 5.01038 0
M  V30 2397 H 224.159 -3.92543 4.07341 0
M  V30 2398 H 222.716 -4.23827 4.95191 0
M  V30 2399 N 226.149 -1.5696 0.141893 0
M  V30 2400 C 227.56 -1.82797 -0.379776 0
M  V30 2401 C 227.911 -1.06033 -1.6508 0
M  V30 2402 O 227.036 -0.304011 -2.14254 0
M  V30 2403 C 227.631 -3.31578 -0.695802 0
M  V30 2404 C 226.19 -3.58014 -1.16201 0
M  V30 2405 C 225.337 -2.76699 -0.182455 0
M  V30 2406 H 228.288 -1.54406 0.366675 0
M  V30 2407 H 228.309 -3.47454 -1.55099 0
M  V30 2408 H 227.821 -3.87421 0.229449 0
M  V30 2409 H 225.922 -3.07553 -2.10338 0
M  V30 2410 H 226.035 -4.66501 -1.09151 0
M  V30 2411 H 224.399 -2.45618 -0.674072 0
M  V30 2412 H 225.182 -3.35311 0.736297 0
M  V30 2413 N 227.627 0.131896 -1.57047 0
M  V30 2414 C 228.577 1.1679 -1.95816 0
M  V30 2415 C 229.561 1.37756 -0.831393 0
M  V30 2416 O 230.753 1.39065 -1.09499 0
M  V30 2417 C 227.882 2.49778 -2.35512 0
M  V30 2418 C 226.968 2.32342 -3.54793 0
M  V30 2419 N 227.359 1.8469 -4.70875 0
M  V30 2420 C 225.657 2.63043 -3.60173 0
M  V30 2421 C 226.358 1.80656 -5.52936 0
M  V30 2422 N 225.334 2.24528 -4.95064 0
M  V30 2423 H 229.136 0.791818 -2.83033 0
M  V30 2424 H 226.65 0.339791 -1.58805 0
M  V30 2425 H 228.647 3.24692 -2.61498 0
M  V30 2426 H 227.307 2.88156 -1.49654 0
M  V30 2427 H 228.318 1.54429 -4.9434 0
M  V30 2428 H 224.995 3.05193 -2.84892 0
M  V30 2429 H 226.385 1.45178 -6.56028 0
M  V30 2430 N 229.106 1.52395 0.401703 0
M  V30 2431 C 230.522 1.41363 0.740864 0
M  V30 2432 C 230.722 0.523982 1.94568 0
M  V30 2433 O 229.778 -0.00741204 2.52499 0
M  V30 2434 C 231.091 2.84011 0.987847 0
M  V30 2435 C 232.639 2.93404 1.09011 0
M  V30 2436 C 233.114 4.37036 1.3698 0
M  V30 2437 N 234.605 4.40304 1.43829 0
M  V30 2438 C 235.34 5.48508 1.67112 0
M  V30 2439 N 234.836 6.66819 1.87949 0
M  V30 2440 N 236.629 5.36034 1.69187 0
M  V30 2441 H 228.78 2.08765 -0.391262 0
M  V30 2442 H 231.043 0.941265 -0.112798 0
M  V30 2443 H 230.749 3.51265 0.174835 0
M  V30 2444 H 230.623 3.25502 1.906 0
M  V30 2445 H 233.01 2.26325 1.8937 0
M  V30 2446 H 233.091 2.55359 0.15015 0
M  V30 2447 H 232.735 5.04676 0.571353 0
M  V30 2448 H 232.665 4.72623 2.3224 0
M  V30 2449 H 235.156 3.55024 1.29486 0
M  V30 2450 H 235.469 7.45063 2.05185 0
M  V30 2451 H 233.814 6.6987 1.85199 0
M  V30 2452 H 237.005 4.42579 1.52451 0
M  V30 2453 H 237.178 6.20434 1.86993 0
M  V30 2454 N 230.584 -0.659388 1.43143 0
M  V30 2455 C 231.514 -1.78422 1.50625 0
M  V30 2456 C 232.495 -1.66216 0.361443 0
M  V30 2457 O 233.68 -1.85404 0.577834 0
M  V30 2458 C 230.81 -3.16815 1.42287 0
M  V30 2459 C 229.764 -3.43777 2.54954 0
M  V30 2460 C 229.09 -4.81905 2.31671 0
M  V30 2461 C 230.39 -3.39134 3.97222 0
M  V30 2462 H 232.084 -1.72417 2.44771 0
M  V30 2463 H 229.63 -0.828084 1.17808 0
M  V30 2464 H 231.583 -3.95253 1.46127 0
M  V30 2465 H 230.307 -3.23534 0.446435 0
M  V30 2466 H 228.966 -2.67707 2.50457 0
M  V30 2467 H 228.614 -4.85294 1.32284 0
M  V30 2468 H 228.314 -5.00906 3.07192 0
M  V30 2469 H 229.838 -5.62609 2.37284 0
M  V30 2470 H 231.252 -4.07518 4.03239 0
M  V30 2471 H 229.649 -3.69671 4.72719 0
M  V30 2472 H 230.719 -2.37426 4.22797 0
M  V30 2473 N 232.062 -1.29571 -0.897171 0
M  V30 2474 C 232.972 -1.16808 -2.03453 0
M  V30 2475 C 233.988 -0.0907471 -1.73763 0
M  V30 2476 O 235.164 -0.303312 -1.99103 0
M  V30 2477 C 232.229 -0.848264 -3.36163 0
M  V30 2478 C 231.29 -2.0097 -3.79354 0
M  V30 2479 C 230.523 -1.70505 -5.05731 0
M  V30 2480 O 230.746 -0.62718 -5.66941 0
M  V30 2481 O 229.68 -2.5538 -5.45036 0
M  V30 2482 H 233.506 -2.12325 -2.17144 0
M  V30 2483 H 231.091 -1.09047 -1.02123 0
M  V30 2484 H 232.973 -0.684581 -4.15802 0
M  V30 2485 H 231.648 0.0771071 -3.23608 0
M  V30 2486 H 230.555 -2.22863 -3.00471 0
M  V30 2487 H 231.888 -2.91636 -3.96496 0
M  V30 2488 N 233.54 1.10788 -1.12088 0
M  V30 2489 C 234.951 1.64181 -0.88891 0
M  V30 2490 C 235.302 1.87508 0.577498 0
M  V30 2491 O 234.427 1.61434 1.44112 0
M  V30 2492 C 235.022 2.98257 -1.60712 0
M  V30 2493 C 233.581 3.4853 -1.42139 0
M  V30 2494 C 232.728 2.23208 -1.6454 0
M  V30 2495 H 235.679 0.943368 -1.27618 0
M  V30 2496 H 235.7 3.65552 -1.05604 0
M  V30 2497 H 235.212 2.81246 -2.67436 0
M  V30 2498 H 233.313 3.70692 -0.376552 0
M  V30 2499 H 233.426 4.26882 -2.17505 0
M  V30 2500 H 231.79 2.31169 -1.06925 0
M  V30 2501 H 232.573 2.08733 -2.72554 0
M  V30 2502 N 235.018 0.912232 1.28515 0
M  V30 2503 C 236.243 0.559774 1.99703 0
M  V30 2504 C 236.668 -0.851393 1.67729 0
M  V30 2505 O 236.026 -1.56875 0.908834 0
M  V30 2506 C 236.074 0.773874 3.52198 0
M  V30 2507 O 235.178 -0.167842 4.12058 0
M  V30 2508 H 234.519 0.21723 0.627461 0
M  V30 2509 H 237.049 1.22725 1.63706 0
M  V30 2510 H 237.059 0.683386 4.02236 0
M  V30 2511 H 235.734 1.80261 3.74805 0
M  V30 2512 H 234.311 -0.0287509 3.72889 0
M  V30 2513 N 236.496 -1.42363 0.676048 0
M  V30 2514 C 237.444 -2.32596 -0.0131507 0
M  V30 2515 C 238.438 -1.49891 -0.789238 0
M  V30 2516 O 239.644 -1.65955 -0.697061 0
M  V30 2517 H 236.019 -0.751647 -0.0230481 0
M  V30 2518 H 237.99 -2.88421 0.765243 0
M  V30 2519 C 236.739 -3.34479 -0.949702 0
M  V30 2520 H 236.062 -3.98158 -0.361938 0
M  V30 2521 H 237.502 -4.00199 -1.4006 0
M  V30 2522 C 235.961 -2.66838 -2.05667 0
M  V30 2523 O 236.491 -2.50124 -3.14326 0
M  V30 2524 N 234.697 -2.25843 -1.82875 0
M  V30 2525 H 234.244 -2.39637 -0.945085 0
M  V30 2526 H 234.202 -1.80918 -2.5713 0
M  V30 2527 N 237.974 -0.419461 -1.51915 0
M  V30 2528 C 238.904 0.391813 -2.30189 0
M  V30 2529 C 239.885 1.03699 -1.34836 0
M  V30 2530 O 241.07 1.04403 -1.63748 0
M  V30 2531 C 238.2 1.50312 -3.13087 0
M  V30 2532 C 237.154 0.9824 -4.16573 0
M  V30 2533 C 236.48 2.18809 -4.8788 0
M  V30 2534 C 237.78 0.0292356 -5.22292 0
M  V30 2535 H 239.474 -0.26135 -2.98257 0
M  V30 2536 H 237.02 -0.127134 -1.43438 0
M  V30 2537 H 238.973 2.07773 -3.66617 0
M  V30 2538 H 237.697 2.18431 -2.42807 0
M  V30 2539 H 236.356 0.430119 -3.64068 0
M  V30 2540 H 236.004 2.85507 -4.14119 0
M  V30 2541 H 235.704 1.84615 -5.57845 0
M  V30 2542 H 237.228 2.76858 -5.44226 0
M  V30 2543 H 238.642 0.512976 -5.71 0
M  V30 2544 H 237.039 -0.2244 -5.9968 0
M  V30 2545 H 238.109 -0.912931 -4.76228 0
M  V30 2546 N 239.452 1.56882 -0.150215 0
M  V30 2547 C 240.415 2.1573 0.774157 0
M  V30 2548 C 241.415 1.0999 1.17298 0
M  V30 2549 O 242.605 1.35613 1.09338 0
M  V30 2550 C 239.737 2.72302 2.05096 0
M  V30 2551 H 240.93 2.98752 0.262201 0
M  V30 2552 H 238.483 1.55985 0.099248 0
M  V30 2553 H 239.218 1.92956 2.6065 0
M  V30 2554 H 239.003 3.49665 1.77416 0
M  V30 2555 H 240.493 3.17632 2.71109 0
M  V30 2556 N 240.93 -0.123565 1.57115 0
M  V30 2557 C 242.158 -0.846461 1.88793 0
M  V30 2558 C 242.573 -1.73652 0.740976 0
M  V30 2559 O 241.93 -1.80207 -0.288393 0
M  V30 2560 C 241.981 -1.6837 3.19897 0
M  V30 2561 O 241.702 -0.829477 4.30176 0
M  V30 2562 C 243.203 -2.51214 3.65248 0
M  V30 2563 H 240.423 -0.243573 0.625231 0
M  V30 2564 H 242.967 -0.109324 2.04208 0
M  V30 2565 H 241.122 -2.37364 3.06165 0
M  V30 2566 H 241.536 -1.40651 5.0529 0
M  V30 2567 H 243.01 -3.05497 4.59756 0
M  V30 2568 H 243.487 -3.28359 2.9168 0
M  V30 2569 H 244.093 -1.8747 3.81752 0
M  V30 2570 N 242.408 -1.52605 -0.393616 0
M  V30 2571 C 243.657 -1.66649 -1.13627 0
M  V30 2572 C 243.97 -0.410364 -1.91247 0
M  V30 2573 O 245.176 -0.430854 -2.68059 0
M  V30 2574 C 243.632 -2.9449 -2.06891 0
M  V30 2575 C 243.24 -4.27266 -1.34714 0
M  V30 2576 C 244.984 -3.17899 -2.81319 0
M  V30 2577 C 242.891 -5.46217 -2.26717 0
M  V30 2578 H 241.821 -0.62084 -0.427871 0
M  V30 2579 H 244.472 -1.791 -0.399428 0
M  V30 2580 H 242.854 -2.75774 -2.84191 0
M  V30 2581 H 244.028 -4.56518 -0.626714 0
M  V30 2582 H 242.343 -4.10081 -0.722643 0
M  V30 2583 H 244.94 -4.03949 -3.50328 0
M  V30 2584 H 245.283 -2.32777 -3.45139 0
M  V30 2585 H 245.816 -3.37159 -2.11113 0
M  V30 2586 H 242.555 -6.33733 -1.67521 0
M  V30 2587 H 242.075 -5.21283 -2.96689 0
M  V30 2588 H 243.754 -5.7991 -2.86903 0
M  V30 2589 N 243.887 0.651787 -1.4349 0
M  V30 2590 C 245.135 1.40888 -1.44897 0
M  V30 2591 C 245.456 1.94856 -0.0749086 0
M  V30 2592 O 244.726 1.74518 0.889956 0
M  V30 2593 H 243.306 0.522887 -0.533478 0
M  V30 2594 H 245.968 0.768609 -1.79104 0
M  V30 2595 H 245.064 2.25052 -2.16236 0
M  V30 2596 N 245.365 1.30045 0.890287 0
M  V30 2597 C 246.295 1.18541 2.01172 0
M  V30 2598 C 247.276 0.0773356 1.69924 0
M  V30 2599 O 248.461 0.25845 1.92473 0
M  V30 2600 C 245.591 0.870941 3.36202 0
M  V30 2601 C 244.545 1.93637 3.81692 0
M  V30 2602 C 243.871 1.475 5.13953 0
M  V30 2603 C 245.171 3.34666 4.00994 0
M  V30 2604 H 246.865 2.12359 2.11054 0
M  V30 2605 H 244.411 1.02238 1.01407 0
M  V30 2606 H 246.364 0.777141 4.14172 0
M  V30 2607 H 245.088 -0.102926 3.26438 0
M  V30 2608 H 243.747 2.01972 3.05946 0
M  V30 2609 H 243.395 0.489551 5.00612 0
M  V30 2610 H 243.095 2.1876 5.4536 0
M  V30 2611 H 244.619 1.39489 5.94454 0
M  V30 2612 H 246.033 3.2912 4.69417 0
M  V30 2613 H 244.43 4.03966 4.43769 0
M  V30 2614 H 245.5 3.76949 3.05021 0
M  V30 2615 N 246.843 -1.10192 1.12674 0
M  V30 2616 C 248.12 -1.78717 0.794965 0
M  V30 2617 C 248.5 -1.98628 -0.714853 0
M  V30 2618 O 247.848 -1.58135 -1.64941 0
M  V30 2619 C 248.058 -3.11546 1.5729 0
M  V30 2620 C 249.406 -3.86382 1.76052 0
M  V30 2621 O 250.43 -3.21274 1.53823 0
M  V30 2622 O 249.289 -5.03246 2.13087 0
M  V30 2623 H 246.383 -0.774702 0.289423 0
M  V30 2624 H 248.929 -1.16819 1.23091 0
M  V30 2625 H 247.701 -2.92489 2.59935 0
M  V30 2626 H 247.324 -3.81164 1.13137 0
M  V30 2627 N 248.321 -0.919034 -1.28029 0
M  V30 2628 C 249.598 -0.473668 -1.89778 0
M  V30 2629 C 249.978 1.04783 -1.83259 0
M  V30 2630 O 249.326 1.8982 -1.27202 0
M  V30 2631 C 249.536 -1.00998 -3.34066 0
M  V30 2632 C 250.884 -1.06525 -4.1102 0
M  V30 2633 O 251.908 -0.958996 -3.43048 0
M  V30 2634 O 250.767 -1.22776 -5.3253 0
M  V30 2635 H 247.861 -0.15098 -0.813101 0
M  V30 2636 H 250.407 -1.01016 -1.36359 0
M  V30 2637 H 249.179 -2.05392 -3.33061 0
M  V30 2638 H 248.802 -0.454626 -3.94992 0
M  V30 2639 N 249.799 1.42003 -0.683588 0
M  V30 2640 C 250.729 2.33487 -0.024866 0
M  V30 2641 C 251.71 1.51163 0.779975 0
M  V30 2642 O 252.895 1.79739 0.735362 0
M  V30 2643 C 250.025 3.3487 0.920836 0
M  V30 2644 C 248.979 4.27414 0.223958 0
M  V30 2645 C 248.305 5.19074 1.2832 0
M  V30 2646 C 249.605 5.14445 -0.90242 0
M  V30 2647 H 251.299 2.88819 -0.788921 0
M  V30 2648 H 248.845 1.38873 -0.38083 0
M  V30 2649 H 250.798 3.97787 1.39081 0
M  V30 2650 H 249.522 2.77861 1.71642 0
M  V30 2651 H 248.181 3.65904 -0.225864 0
M  V30 2652 H 247.829 4.58387 2.071 0
M  V30 2653 H 247.529 5.81822 0.821995 0
M  V30 2654 H 249.053 5.84867 1.75392 0
M  V30 2655 H 250.467 5.70998 -0.513272 0
M  V30 2656 H 248.864 5.86072 -1.28997 0
M  V30 2657 H 249.934 4.52322 -1.74737 0
M  V30 2658 N 251.277 0.427512 1.51691 0
M  V30 2659 C 252.525 -0.141948 2.01601 0
M  V30 2660 C 252.846 -1.44067 1.31414 0
M  V30 2661 O 252.116 -1.90763 0.445658 0
M  V30 2662 H 250.696 -0.0554468 0.744939 0
M  V30 2663 H 253.358 0.567968 1.86441 0
M  V30 2664 H 252.454 -0.324913 3.10404 0
M  V30 2665 N 252.755 -1.56801 0.158532 0
M  V30 2666 C 254.003 -1.96102 -0.488712 0
M  V30 2667 C 254.324 -1.04498 -1.64636 0
M  V30 2668 O 253.594 -0.108783 -1.95598 0
M  V30 2669 H 252.174 -0.724102 -0.183535 0
M  V30 2670 H 254.836 -1.93457 0.236728 0
M  V30 2671 H 253.932 -3.00097 -0.857219 0
M  V30 2672 N 254.233 0.115231 -1.57178 0
M  V30 2673 C 255.482 0.820945 -1.84237 0
M  V30 2674 C 255.795 1.80866 -0.744761 0
M  V30 2675 O 257.001 2.56083 -0.901871 0
M  V30 2676 C 255.457 1.51072 -3.26658 0
M  V30 2677 C 255.065 0.563795 -4.44438 0
M  V30 2678 C 256.809 2.20134 -3.62962 0
M  V30 2679 C 254.716 1.25701 -5.77887 0
M  V30 2680 H 253.646 0.310328 -0.687177 0
M  V30 2681 H 256.297 0.0737134 -1.83352 0
M  V30 2682 H 254.679 2.30471 -3.22024 0
M  V30 2683 H 255.853 -0.197247 -4.60378 0
M  V30 2684 H 254.168 -0.0200638 -4.16395 0
M  V30 2685 H 256.765 2.72696 -4.59936 0
M  V30 2686 H 257.108 2.98107 -2.90582 0
M  V30 2687 H 257.641 1.47619 -3.69396 0
M  V30 2688 H 254.38 0.518493 -6.53446 0
M  V30 2689 H 253.9 1.98997 -5.65827 0
M  V30 2690 H 255.579 1.78915 -6.2177 0
M  V30 2691 N 255.711 1.52812 0.385517 0
M  V30 2692 C 256.641 1.80808 1.47752 0
M  V30 2693 C 257.622 0.660318 1.5676 0
M  V30 2694 O 258.807 0.908246 1.71652 0
M  V30 2695 C 255.937 1.98008 2.85324 0
M  V30 2696 C 254.891 3.13709 2.91154 0
M  V30 2697 C 254.217 3.16169 4.31209 0
M  V30 2698 C 255.517 4.52709 2.60483 0
M  V30 2699 H 257.211 2.72253 1.24573 0
M  V30 2700 H 254.757 1.31003 0.597839 0
M  V30 2701 H 256.71 2.16176 3.61726 0
M  V30 2702 H 255.434 1.03255 3.09848 0
M  V30 2703 H 254.093 2.95329 2.17201 0
M  V30 2704 H 253.741 2.19092 4.52778 0
M  V30 2705 H 253.441 3.93894 4.36029 0
M  V30 2706 H 254.965 3.36496 5.09512 0
M  V30 2707 H 256.379 4.71173 3.26602 0
M  V30 2708 H 254.776 5.32528 2.76648 0
M  V30 2709 H 255.846 4.59186 1.55809 0
M  V30 2710 N 257.189 -0.644168 1.43834 0
M  V30 2711 C 258.152 -1.73857 1.49353 0
M  V30 2712 C 259.152 -1.56315 0.377112 0
M  V30 2713 O 260.342 -1.62048 0.639226 0
M  V30 2714 C 257.474 -3.12819 1.35488 0
M  V30 2715 H 258.667 -1.70342 2.46827 0
M  V30 2716 H 256.22 -0.856652 1.30733 0
M  V30 2717 H 256.955 -3.2194 0.390569 0
M  V30 2718 H 256.74 -3.26958 2.16428 0
M  V30 2719 H 258.23 -3.92606 1.42302 0
M  V30 2720 N 258.668 -1.30515 -0.883378 0
M  V30 2721 C 259.578 -1.18959 -2.02203 0
M  V30 2722 C 260.594 -0.109172 -1.73657 0
M  V30 2723 O 261.77 -0.324413 -1.9877 0
M  V30 2724 C 258.835 -0.883871 -3.35244 0
M  V30 2725 C 257.896 -2.04982 -3.77201 0
M  V30 2726 C 257.129 -1.75859 -5.03894 0
M  V30 2727 O 257.352 -0.687276 -5.66244 0
M  V30 2728 O 256.286 -2.61146 -5.42297 0
M  V30 2729 H 260.112 -2.14616 -2.1488 0
M  V30 2730 H 257.697 -1.10124 -1.0096 0
M  V30 2731 H 259.579 -0.728644 -4.15053 0
M  V30 2732 H 258.254 0.0427798 -3.23672 0
M  V30 2733 H 257.161 -2.26038 -2.9809 0
M  V30 2734 H 258.494 -2.95825 -3.93381 0
M  V30 2735 N 260.146 1.09593 -1.13257 0
M  V30 2736 C 261.394 1.81375 -0.891492 0
M  V30 2737 C 261.715 1.86049 0.584009 0
M  V30 2738 O 260.985 1.34481 1.42449 0
M  V30 2739 H 259.565 0.671708 -0.326828 0
M  V30 2740 H 262.227 1.3256 -1.42877 0
M  V30 2741 H 261.323 2.84612 -1.28071 0
M  V30 2742 N 261.624 0.925811 1.2754 0
M  V30 2743 C 262.556 0.380753 2.26015 0
M  V30 2744 C 263.569 -0.487485 1.5533 0
M  V30 2745 O 264.758 -0.300413 1.75954 0
M  V30 2746 C 261.858 -0.473259 3.35579 0
M  V30 2747 C 261.031 0.375249 4.35787 0
M  V30 2748 C 260.09 -0.415809 5.24555 0
M  V30 2749 O 259.116 0.175834 5.68928 0
M  V30 2750 N 260.318 -1.71607 5.54555 0
M  V30 2751 H 263.083 1.22725 2.73421 0
M  V30 2752 H 260.644 0.793037 1.41147 0
M  V30 2753 H 262.636 -1.00949 3.91907 0
M  V30 2754 H 261.206 -1.2205 2.87789 0
M  V30 2755 H 260.426 1.09279 3.7875 0
M  V30 2756 H 261.714 0.955399 4.99749 0
M  V30 2757 H 261.112 -2.2191 5.20358 0
M  V30 2758 H 259.669 -2.19887 6.1359 0
M  V30 2759 N 263.102 -1.41638 0.69111 0
M  V30 2760 C 264.513 -1.84346 0.295517 0
M  V30 2761 C 264.864 -1.57833 -1.16547 0
M  V30 2762 O 263.989 -1.04648 -1.89414 0
M  V30 2763 C 264.584 -3.34636 0.529575 0
M  V30 2764 C 263.143 -3.7593 0.187944 0
M  V30 2765 C 262.29 -2.65082 0.814052 0
M  V30 2766 H 265.241 -1.31253 0.892092 0
M  V30 2767 H 265.262 -3.79903 -0.213148 0
M  V30 2768 H 264.774 -3.53901 1.59297 0
M  V30 2769 H 262.875 -3.62268 -0.871367 0
M  V30 2770 H 262.988 -4.74808 0.63985 0
M  V30 2771 H 261.352 -2.53528 0.244017 0
M  V30 2772 H 262.135 -2.87167 1.88123 0
M  V30 2773 N 264.58 -0.43555 -1.51462 0
M  V30 2774 C 265.51 0.367376 -2.30592 0
M  V30 2775 C 266.491 1.02263 -1.35928 0
M  V30 2776 O 267.676 1.02661 -1.64847 0
M  V30 2777 C 264.806 1.46983 -3.14664 0
M  V30 2778 C 263.76 0.938161 -4.17591 0
M  V30 2779 C 263.086 2.13622 -4.90173 0
M  V30 2780 C 264.386 -0.0261621 -5.22293 0
M  V30 2781 H 266.08 -0.292969 -2.97963 0
M  V30 2782 H 263.626 -0.14234 -1.43295 0
M  V30 2783 H 265.579 2.03873 -3.688 0
M  V30 2784 H 264.303 2.15843 -2.4511 0
M  V30 2785 H 262.962 0.391481 -3.64504 0
M  V30 2786 H 262.61 2.81098 -4.17124 0
M  V30 2787 H 262.31 1.78688 -5.59772 0
M  V30 2788 H 263.834 2.7107 -5.47132 0
M  V30 2789 H 265.248 0.452384 -5.71512 0
M  V30 2790 H 263.645 -0.287992 -5.99409 0
M  V30 2791 H 264.715 -0.963391 -4.75233 0
M  V30 2792 N 266.058 1.56714 -0.166846 0
M  V30 2793 C 267.283 2.01557 0.488833 0
M  V30 2794 C 267.708 1.0463 1.56314 0
M  V30 2795 O 267.066 0.0251304 1.81283 0
M  V30 2796 C 267.114 3.4503 1.04818 0
M  V30 2797 O 266.218 3.51163 2.16236 0
M  V30 2798 H 265.559 0.653516 0.117526 0
M  V30 2799 H 268.089 2.02818 -0.269421 0
M  V30 2800 H 268.099 3.84243 1.37191 0
M  V30 2801 H 266.774 4.15077 0.261572 0
M  V30 2802 H 265.351 3.23807 1.84942 0
M  V30 2803 N 267.536 -0.106894 1.57237 0
M  V30 2804 C 268.499 -1.11466 2.0027 0
M  V30 2805 C 269.499 -1.33623 0.894519 0
M  V30 2806 O 270.689 -1.29935 1.16028 0
M  V30 2807 C 267.821 -2.46646 2.35327 0
M  V30 2808 H 269.014 -0.744516 2.90512 0
M  V30 2809 H 266.567 -0.351576 1.52295 0
M  V30 2810 H 267.302 -2.88558 1.48003 0
M  V30 2811 H 267.087 -2.31915 3.16161 0
M  V30 2812 H 268.577 -3.19151 2.69318 0
M  V30 2813 N 269.014 -1.53014 -0.377408 0
M  V30 2814 C 269.964 -1.74996 -1.46152 0
M  V30 2815 C 270.948 -0.604236 -1.49123 0
M  V30 2816 O 272.14 -0.862489 -1.54564 0
M  V30 2817 C 269.269 -1.93267 -2.8373 0
M  V30 2818 C 268.355 -3.13807 -2.85283 0
M  V30 2819 N 268.746 -4.35941 -2.56493 0
M  V30 2820 C 267.044 -3.14288 -3.16448 0
M  V30 2821 C 267.745 -5.17615 -2.65424 0
M  V30 2822 N 266.721 -4.53559 -2.99641 0
M  V30 2823 H 270.523 -2.67044 -1.22738 0
M  V30 2824 H 268.037 -1.51479 -0.585479 0
M  V30 2825 H 270.034 -2.0714 -3.61799 0
M  V30 2826 H 268.694 -1.0244 -3.08117 0
M  V30 2827 H 269.705 -4.63876 -2.30302 0
M  V30 2828 H 266.382 -2.33312 -3.46225 0
M  V30 2829 H 267.772 -6.25006 -2.46612 0
M  V30 2830 N 270.492 0.636531 -1.44174 0
M  V30 2831 C 271.903 1.21806 -1.41493 0
M  V30 2832 C 272.254 1.95785 -0.1275 0
M  V30 2833 O 271.379 2.02147 0.772376 0
M  V30 2834 C 271.974 2.21551 -2.56321 0
M  V30 2835 C 270.533 2.75143 -2.56853 0
M  V30 2836 C 269.68 1.50052 -2.33195 0
M  V30 2837 H 272.631 0.427531 -1.52833 0
M  V30 2838 H 272.652 3.0405 -2.28765 0
M  V30 2839 H 272.164 1.67679 -3.50008 0
M  V30 2840 H 270.265 3.33033 -1.67093 0
M  V30 2841 H 270.378 3.2155 -3.55165 0
M  V30 2842 H 268.742 1.77993 -1.82183 0
M  V30 2843 H 269.525 0.980903 -3.28988 0
M  V30 2844 N 271.97 1.30982 0.876444 0
M  V30 2845 C 273.386 1.09498 1.16113 0
M  V30 2846 C 273.586 -0.13875 2.01022 0
M  V30 2847 O 272.642 -0.829935 2.38471 0
M  V30 2848 C 273.955 2.36308 1.85954 0
M  V30 2849 C 275.503 2.41856 1.98683 0
M  V30 2850 C 275.978 3.6853 2.71937 0
M  V30 2851 N 277.469 3.69387 2.79477 0
M  V30 2852 C 278.204 4.64096 3.36753 0
M  V30 2853 N 277.7 5.69155 3.95012 0
M  V30 2854 N 279.493 4.51626 3.3465 0
M  V30 2855 H 271.644 2.10118 0.310494 0
M  V30 2856 H 273.907 0.926634 0.200131 0
M  V30 2857 H 273.613 3.26388 1.31011 0
M  V30 2858 H 273.487 2.4561 2.86278 0
M  V30 2859 H 275.874 1.52249 2.52793 0
M  V30 2860 H 275.955 2.36523 0.9742 0
M  V30 2861 H 275.599 4.58499 2.18496 0
M  V30 2862 H 275.529 3.71127 3.73593 0
M  V30 2863 H 278.02 2.93438 2.38123 0
M  V30 2864 H 278.333 6.3751 4.36808 0
M  V30 2865 H 276.678 5.72937 3.93406 0
M  V30 2866 H 279.869 3.68728 2.8837 0
M  V30 2867 H 280.042 5.25614 3.7899 0
M  V30 2868 N 273.449 -1.08991 1.13837 0
M  V30 2869 C 274.698 -1.80631 0.897509 0
M  V30 2870 C 275.011 -1.86872 -0.57777 0
M  V30 2871 O 276.217 -2.54866 -0.935701 0
M  V30 2872 C 274.673 -3.24517 1.55618 0
M  V30 2873 C 274.281 -3.26529 3.0673 0
M  V30 2874 C 276.025 -4.00882 1.3962 0
M  V30 2875 C 273.932 -4.64965 3.65461 0
M  V30 2876 H 272.862 -0.67691 0.332129 0
M  V30 2877 H 275.513 -1.2246 1.3666 0
M  V30 2878 H 273.895 -3.82778 1.01476 0
M  V30 2879 H 275.069 -2.78008 3.67489 0
M  V30 2880 H 273.384 -2.63656 3.22296 0
M  V30 2881 H 275.981 -5.03167 1.80906 0
M  V30 2882 H 276.324 -4.14896 0.341578 0
M  V30 2883 H 276.857 -3.49075 1.90766 0
M  V30 2884 H 273.596 -4.56153 4.70749 0
M  V30 2885 H 273.116 -5.13792 3.09481 0
M  V30 2886 H 274.795 -5.3394 3.654 0
M  V30 2887 N 274.927 -0.932562 -1.27047 0
M  V30 2888 C 276.204 -0.49377 -1.89265 0
M  V30 2889 C 276.584 1.02833 -1.8436 0
M  V30 2890 O 275.932 1.88461 -1.29209 0
M  V30 2891 C 276.142 -1.04536 -3.32976 0
M  V30 2892 C 277.49 -1.10879 -4.09867 0
M  V30 2893 O 278.514 -0.995327 -3.42011 0
M  V30 2894 O 277.373 -1.28417 -5.31198 0
M  V30 2895 H 274.467 -0.159596 -0.811454 0
M  V30 2896 H 277.013 -1.02457 -1.3528 0
M  V30 2897 H 275.785 -2.08913 -3.30864 0
M  V30 2898 H 275.408 -0.496494 -3.94488 0
M  V30 2899 N 276.405 1.4127 -0.698611 0
M  V30 2900 C 277.816 1.84187 -0.305289 0
M  V30 2901 C 278.167 1.58449 1.15708 0
M  V30 2902 O 277.292 1.05651 1.88856 0
M  V30 2903 C 277.887 3.3435 -0.547314 0
M  V30 2904 C 276.446 3.75826 -0.207878 0
M  V30 2905 C 275.593 2.64647 -0.828099 0
M  V30 2906 H 278.544 1.30778 -0.89904 0
M  V30 2907 H 278.565 3.8001 0.192998 0
M  V30 2908 H 278.077 3.53051 -1.61172 0
M  V30 2909 H 276.178 3.62725 0.852143 0
M  V30 2910 H 276.291 4.74462 -0.665021 0
M  V30 2911 H 274.655 2.53395 -0.257458 0
M  V30 2912 H 275.438 2.86165 -1.89643 0
M  V30 2913 N 277.883 0.443576 1.51229 0
M  V30 2914 C 278.846 -0.353132 2.26463 0
M  V30 2915 C 279.846 -0.944338 1.3015 0
M  V30 2916 O 281.036 -0.817813 1.5381 0
M  V30 2917 C 278.168 -1.50023 3.06114 0
M  V30 2918 H 279.361 0.3063 2.98332 0
M  V30 2919 H 276.914 0.196902 1.55055 0
M  V30 2920 H 277.649 -2.19553 2.38677 0
M  V30 2921 H 277.434 -1.08241 3.76864 0
M  V30 2922 H 278.924 -2.06296 3.63087 0
M  V30 2923 N 279.361 -1.56624 0.175154 0
M  V30 2924 C 280.586 -2.01813 -0.478137 0
M  V30 2925 C 281.011 -1.05457 -1.55757 0
M  V30 2926 O 280.369 -0.0347439 -1.81267 0
M  V30 2927 C 280.417 -3.45581 -1.02987 0
M  V30 2928 O 279.521 -3.52305 -2.14371 0
M  V30 2929 H 278.862 -0.65413 -0.114059 0
M  V30 2930 H 281.392 -2.02673 0.280173 0
M  V30 2931 H 281.402 -3.84965 -1.35151 0
M  V30 2932 H 280.077 -4.1521 -0.239556 0
M  V30 2933 H 278.654 -3.24783 -1.83222 0
M  V30 2934 N 280.839 0.0985539 -1.57292 0
M  V30 2935 C 282.067 0.816318 -1.90115 0
M  V30 2936 C 282.482 1.72451 -0.768509 0
M  V30 2937 O 281.839 1.80643 0.259687 0
M  V30 2938 C 281.89 1.63259 -3.22535 0
M  V30 2939 O 281.611 0.760934 -4.31441 0
M  V30 2940 C 283.112 2.45372 -3.69199 0
M  V30 2941 H 280.332 0.233595 -0.629027 0
M  V30 2942 H 282.876 0.0768229 -2.04356 0
M  V30 2943 H 281.031 2.32463 -3.09903 0
M  V30 2944 H 281.445 1.32595 -5.07463 0
M  V30 2945 H 282.919 2.98144 -4.64558 0
M  V30 2946 H 283.396 3.23677 -2.96867 0
M  V30 2947 H 284.002 1.81373 -3.84687 0
M  V30 2948 N 282.317 1.53212 0.369288 0
M  V30 2949 C 283.564 1.69215 1.11232 0
M  V30 2950 C 283.892 0.442048 1.8941 0
M  V30 2951 O 283.147 -0.575944 1.87033 0
M  V30 2952 C 283.446 2.89101 2.10132 0
M  V30 2953 C 283.112 4.25758 1.48463 0
M  V30 2954 C 281.774 4.6292 1.31372 0
M  V30 2955 C 284.126 5.10757 1.03811 0
M  V30 2956 C 281.454 5.82722 0.68207 0
M  V30 2957 C 283.806 6.31201 0.420487 0
M  V30 2958 C 282.47 6.67079 0.237038 0
M  V30 2959 H 281.74 0.619201 0.407027 0
M  V30 2960 H 284.387 1.87391 0.394552 0
M  V30 2961 H 282.692 2.65421 2.88199 0
M  V30 2962 H 284.389 2.98676 2.6757 0
M  V30 2963 H 280.979 3.96494 1.62758 0
M  V30 2964 H 285.163 4.82599 1.1581 0
M  V30 2965 H 280.419 6.09113 0.528316 0
M  V30 2966 H 284.593 6.96368 0.0662874 0
M  V30 2967 H 282.22 7.59774 -0.254477 0
M  V30 2968 N 283.795 -0.628877 1.44509 0
M  V30 2969 C 285.072 -1.38733 1.37886 0
M  V30 2970 C 285.452 -2.11065 0.0387008 0
M  V30 2971 O 284.8 -2.06476 -0.97878 0
M  V30 2972 C 285.01 -2.35188 2.57852 0
M  V30 2973 C 286.358 -2.9845 3.02014 0
M  V30 2974 O 287.382 -2.45513 2.58073 0
M  V30 2975 O 286.241 -3.94487 3.78209 0
M  V30 2976 H 283.335 -0.621015 0.54614 0
M  V30 2977 H 285.881 -0.653744 1.56602 0
M  V30 2978 H 284.653 -1.80855 3.46998 0
M  V30 2979 H 284.276 -3.1596 2.4136 0
M  V30 2980 N 285.273 -1.31445 -0.869486 0
M  V30 2981 C 286.521 -1.20918 -1.61936 0
M  V30 2982 C 286.842 0.232683 -1.93607 0
M  V30 2983 O 286.112 1.15352 -1.58338 0
M  V30 2984 H 284.692 -0.44454 -0.600328 0
M  V30 2985 H 287.354 -1.64776 -1.0409 0
M  V30 2986 H 286.45 -1.78124 -2.56278 0
M  V30 2987 N 286.751 1.08385 -1.14413 0
M  V30 2988 C 287.999 1.80419 -0.910679 0
M  V30 2989 C 288.32 1.86658 0.564243 0
M  V30 2990 O 287.59 1.35985 1.41014 0
M  V30 2991 H 286.17 0.668204 -0.333934 0
M  V30 2992 H 288.832 1.31037 -1.44275 0
M  V30 2993 H 287.928 2.83238 -1.31082 0
M  V30 2994 N 288.23 0.939286 1.26551 0
M  V30 2995 C 289.162 0.404704 2.25599 0
M  V30 2996 C 290.175 -0.470983 1.55838 0
M  V30 2997 O 291.364 -0.281734 1.76263 0
M  V30 2998 C 288.464 -0.43764 3.36062 0
M  V30 2999 C 287.637 0.421449 4.35365 0
M  V30 3000 C 286.696 -0.36015 5.24966 0
M  V30 3001 O 285.722 0.236167 5.6871 0
M  V30 3002 N 286.924 -1.65715 5.56344 0
M  V30 3003 H 289.689 1.25618 2.72103 0
M  V30 3004 H 287.25 0.807963 1.40298 0
M  V30 3005 H 289.242 -0.967866 3.92956 0
M  V30 3006 H 287.812 -1.18991 2.89067 0
M  V30 3007 H 287.032 1.1329 3.7757 0
M  V30 3008 H 288.32 1.00835 4.98708 0
M  V30 3009 H 287.718 -2.16378 5.22682 0
M  V30 3010 H 286.275 -2.13366 6.15888 0
M  V30 3011 N 289.708 -1.40897 0.706093 0
M  V30 3012 C 291.119 -1.84023 0.315052 0
M  V30 3013 C 291.47 -1.5906 -1.14866 0
M  V30 3014 O 290.595 -1.06651 -1.88293 0
M  V30 3015 C 291.19 -3.34055 0.565038 0
M  V30 3016 C 289.749 -3.7571 0.227806 0
M  V30 3017 C 288.896 -2.64204 0.842122 0
M  V30 3018 H 291.847 -1.303 0.905963 0
M  V30 3019 H 291.868 -3.80107 -0.172843 0
M  V30 3020 H 291.38 -3.52192 1.63042 0
M  V30 3021 H 289.481 -3.63172 -0.832895 0
M  V30 3022 H 289.594 -4.74103 0.690174 0
M  V30 3023 H 287.958 -2.53255 0.270893 0
M  V30 3024 H 288.741 -2.85155 1.91158 0
M  V30 3025 N 291.186 -0.45159 -1.50991 0
M  V30 3026 C 292.426 0.109066 -2.04109 0
M  V30 3027 C 292.79 1.38716 -1.32747 0
M  V30 3028 O 293.991 2.02896 -1.76314 0
M  V30 3029 C 292.262 0.308354 -3.56067 0
M  V30 3030 S 293.821 0.830369 -4.30872 0
M  V30 3031 H 290.639 0.0251531 -0.710555 0
M  V30 3032 H 293.241 -0.614264 -1.85599 0
M  V30 3033 H 291.945 -0.627962 -4.05567 0
M  V30 3034 H 291.476 1.05836 -3.78896 0
M  V30 3035 H 293.491 2.10626 -4.49279 0
M  V30 3036 N 292.664 1.56529 -0.183458 0
M  V30 3037 C 293.894 2.01331 0.463612 0
M  V30 3038 C 294.302 1.06278 1.5653 0
M  V30 3039 O 293.645 0.0577976 1.83609 0
M  V30 3040 C 293.707 3.42547 1.09096 0
M  V30 3041 C 293.371 4.56817 0.129442 0
M  V30 3042 C 294.368 5.15734 -0.656807 0
M  V30 3043 C 292.053 5.02295 0.02174 0
M  V30 3044 C 294.047 6.1857 -1.53784 0
M  V30 3045 C 291.734 6.04978 -0.862864 0
M  V30 3046 C 292.732 6.62988 -1.64123 0
M  V30 3047 O 292.42 7.63677 -2.51103 0
M  V30 3048 H 292.152 0.664917 0.121907 0
M  V30 3049 H 294.706 2.034 -0.285954 0
M  V30 3050 H 292.936 3.37428 1.88889 0
M  V30 3051 H 294.625 3.71228 1.64148 0
M  V30 3052 H 295.391 4.81473 -0.583839 0
M  V30 3053 H 291.27 4.56847 0.617392 0
M  V30 3054 H 294.814 6.63777 -2.14583 0
M  V30 3055 H 290.711 6.38663 -0.93699 0
M  V30 3056 H 291.479 7.81049 -2.44753 0
M  V30 3057 N 294.142 -0.090211 1.57342 0
M  V30 3058 C 295.388 -0.793982 1.86611 0
M  V30 3059 C 295.721 -1.78142 0.773252 0
M  V30 3060 O 294.996 -1.93271 -0.218304 0
M  V30 3061 C 295.279 -1.51839 3.26523 0
M  V30 3062 C 295.132 -0.548609 4.46442 0
M  V30 3063 C 296.451 -2.46779 3.64401 0
M  V30 3064 H 293.57 -0.287186 0.678744 0
M  V30 3065 H 296.212 -0.0575076 1.89913 0
M  V30 3066 H 294.362 -2.14617 3.23839 0
M  V30 3067 H 296.034 0.0725513 4.61243 0
M  V30 3068 H 294.277 0.137614 4.33582 0
M  V30 3069 H 294.948 -1.09271 5.41076 0
M  V30 3070 H 297.424 -1.94089 3.68061 0
M  V30 3071 H 296.3 -2.94479 4.63221 0
M  V30 3072 H 296.561 -3.30758 2.93346 0
M  V30 3073 N 295.62 -1.53406 -0.361157 0
M  V30 3074 C 296.848 -1.73717 -1.12383 0
M  V30 3075 C 297.263 -0.468161 -1.82904 0
M  V30 3076 O 296.62 0.559198 -1.73722 0
M  V30 3077 C 296.671 -2.90558 -2.15078 0
M  V30 3078 O 296.392 -4.12549 -1.47428 0
M  V30 3079 C 297.893 -3.22777 -3.03858 0
M  V30 3080 H 295.113 -0.580896 -0.335858 0
M  V30 3081 H 297.657 -2.00167 -0.418728 0
M  V30 3082 H 295.812 -2.66489 -2.8118 0
M  V30 3083 H 296.226 -4.78009 -2.15887 0
M  V30 3084 H 297.7 -4.07927 -3.71887 0
M  V30 3085 H 298.177 -2.38329 -3.68912 0
M  V30 3086 H 298.783 -3.48787 -2.43367 0
M  V30 3087 N 297.098 0.621204 -1.44841 0
M  V30 3088 C 298.345 1.38055 -1.48145 0
M  V30 3089 C 298.673 1.94143 -0.117867 0
M  V30 3090 O 297.928 1.74713 0.881694 0
M  V30 3091 C 298.227 2.55675 -2.4973 0
M  V30 3092 C 297.893 2.17817 -3.94799 0
M  V30 3093 C 296.555 2.07205 -4.34303 0
M  V30 3094 C 298.907 1.88065 -4.86087 0
M  V30 3095 C 296.235 1.65045 -5.63007 0
M  V30 3096 C 298.587 1.47394 -6.15189 0
M  V30 3097 C 297.251 1.35331 -6.53637 0
M  V30 3098 H 296.521 0.505181 -0.542101 0
M  V30 3099 H 299.168 0.703477 -1.78111 0
M  V30 3100 H 297.473 3.2866 -2.13284 0
M  V30 3101 H 299.17 3.13904 -2.4953 0
M  V30 3102 H 295.76 2.26998 -3.63552 0
M  V30 3103 H 299.944 1.95168 -4.56315 0
M  V30 3104 H 295.2 1.54317 -5.91605 0
M  V30 3105 H 299.374 1.23415 -6.85377 0
M  V30 3106 H 297.001 1.02435 -7.53267 0
M  V30 3107 N 298.576 1.31904 0.862503 0
M  V30 3108 C 299.801 1.25135 1.65397 0
M  V30 3109 C 300.226 -0.179 1.87246 0
M  V30 3110 O 299.584 -1.1277 1.4196 0
M  V30 3111 C 299.632 2.00832 2.99498 0
M  V30 3112 O 298.736 1.35075 3.89652 0
M  V30 3113 H 298.077 0.431655 0.504549 0
M  V30 3114 H 300.607 1.74094 1.07483 0
M  V30 3115 H 300.617 2.10709 3.49379 0
M  V30 3116 H 299.292 3.04847 2.82916 0
M  V30 3117 H 297.869 1.33696 3.48109 0
M  V30 3118 N 300.054 -1.07777 1.14986 0
M  V30 3119 C 301.303 -1.79669 0.916617 0
M  V30 3120 C 301.616 -1.87474 -0.557917 0
M  V30 3121 O 302.822 -2.55845 -0.908617 0
M  V30 3122 C 301.278 -3.22848 1.59051 0
M  V30 3123 C 300.886 -3.23257 3.10176 0
M  V30 3124 C 302.63 -3.99379 1.43864 0
M  V30 3125 C 300.537 -4.61063 3.70372 0
M  V30 3126 H 299.467 -0.673349 0.33929 0
M  V30 3127 H 302.118 -1.21003 1.37951 0
M  V30 3128 H 300.5 -3.8168 1.0553 0
M  V30 3129 H 301.674 -2.74095 3.70417 0
M  V30 3130 H 299.989 -2.60222 3.25074 0
M  V30 3131 H 302.586 -5.0122 1.86232 0
M  V30 3132 H 302.929 -4.14511 0.385564 0
M  V30 3133 H 303.462 -3.47032 1.94457 0
M  V30 3134 H 300.201 -4.51135 4.7556 0
M  V30 3135 H 299.721 -5.1048 3.14913 0
M  V30 3136 H 301.4 -5.30034 3.71043 0
M  V30 3137 N 301.532 -0.945985 -1.26051 0
M  V30 3138 C 302.479 -0.45809 -2.26208 0
M  V30 3139 C 303.449 0.484816 -1.58867 0
M  V30 3140 O 304.634 0.399969 -1.86561 0
M  V30 3141 C 301.774 0.266131 -3.44072 0
M  V30 3142 C 300.887 -0.713005 -4.26075 0
M  V30 3143 C 300.022 0.0329013 -5.3119 0
M  V30 3144 C 299.061 -0.93774 -6.04874 0
M  V30 3145 N 298.198 -0.223274 -7.01745 0
M  V30 3146 H 303.038 -1.3171 -2.67313 0
M  V30 3147 H 300.575 -0.66069 -1.31428 0
M  V30 3148 H 302.533 0.702514 -4.11243 0
M  V30 3149 H 301.163 1.08925 -3.03867 0
M  V30 3150 H 300.215 -1.26789 -3.58648 0
M  V30 3151 H 301.527 -1.45406 -4.77136 0
M  V30 3152 H 300.681 0.528335 -6.04395 0
M  V30 3153 H 299.42 0.806801 -4.8098 0
M  V30 3154 H 298.425 -1.44425 -5.30492 0
M  V30 3155 H 299.65 -1.71172 -6.57173 0
M  V30 3156 H 297.596 0.532046 -6.53839 0
M  V30 3157 H 297.513 -0.90357 -7.50581 0
M  V30 3158 H 298.781 0.250907 -7.79096 0
M  V30 3159 N 303.011 1.40521 -0.713556 0
M  V30 3160 C 304.236 2.05759 -0.26035 0
M  V30 3161 C 304.661 1.53403 1.08854 0
M  V30 3162 O 304.019 0.668535 1.68524 0
M  V30 3163 C 304.067 3.59745 -0.248122 0
M  V30 3164 O 303.171 4.05123 0.77131 0
M  V30 3165 H 302.512 0.652564 -0.122703 0
M  V30 3166 H 305.042 1.79958 -0.973467 0
M  V30 3167 H 305.052 4.07911 -0.0851129 0
M  V30 3168 H 303.727 3.97218 -1.2325 0
M  V30 3169 H 302.304 3.68422 0.57619 0
M  V30 3170 N 304.489 0.459591 1.5075 0
M  V30 3171 C 305.714 -0.0996819 2.0716 0
M  V30 3172 C 306.139 -1.33761 1.32249 0
M  V30 3173 O 305.497 -1.77551 0.366786 0
M  V30 3174 C 305.545 -0.378226 3.58611 0
M  V30 3175 O 304.649 -1.46081 3.85661 0
M  V30 3176 H 303.99 0.00791392 0.663953 0
M  V30 3177 H 306.52 0.647329 1.9409 0
M  V30 3178 H 306.53 -0.622135 4.03229 0
M  V30 3179 H 305.205 0.526439 4.12555 0
M  V30 3180 H 303.782 -1.20511 3.5289 0
M  V30 3181 N 305.967 -1.56429 0.191757 0
M  V30 3182 C 306.897 -2.21937 -0.725696 0
M  V30 3183 C 307.878 -1.1814 -1.2238 0
M  V30 3184 O 309.063 -1.46636 -1.27325 0
M  V30 3185 C 306.193 -2.87611 -1.94672 0
M  V30 3186 C 305.147 -3.97623 -1.58366 0
M  V30 3187 C 304.473 -4.50446 -2.88102 0
M  V30 3188 C 305.773 -5.16197 -0.796133 0
M  V30 3189 H 307.467 -2.98861 -0.179606 0
M  V30 3190 H 305.013 -1.43749 -0.0849464 0
M  V30 3191 H 306.966 -3.3212 -2.59373 0
M  V30 3192 H 305.69 -2.08087 -2.51728 0
M  V30 3193 H 304.349 -3.53801 -0.960247 0
M  V30 3194 H 303.997 -3.67688 -3.43241 0
M  V30 3195 H 303.697 -5.24675 -2.64556 0
M  V30 3196 H 305.221 -4.97654 -3.53798 0
M  V30 3197 H 306.635 -5.57271 -1.34618 0
M  V30 3198 H 305.032 -5.96471 -0.658928 0
M  V30 3199 H 306.102 -4.84473 0.203478 0
M  V30 3200 N 307.445 0.0818655 -1.57387 0
M  V30 3201 C 308.67 0.799946 -1.91352 0
M  V30 3202 C 309.095 1.70833 -0.787258 0
M  V30 3203 O 308.453 1.79419 0.26048 0
M  V30 3204 C 308.501 1.57812 -3.24234 0
M  V30 3205 O 307.605 2.68806 -3.12757 0
M  V30 3206 H 306.946 0.21891 -0.626877 0
M  V30 3207 H 309.476 0.0531256 -2.04531 0
M  V30 3208 H 309.486 1.95952 -3.57864 0
M  V30 3209 H 308.161 0.911548 -4.05788 0
M  V30 3210 H 306.738 2.33597 -2.90666 0
M  V30 3211 N 308.923 1.53595 0.353017 0
M  V30 3212 C 310.148 1.7462 1.11904 0
M  V30 3213 C 310.573 0.479721 1.8188 0
M  V30 3214 O 309.931 -0.567066 1.72204 0
M  V30 3215 C 309.979 2.92029 2.11545 0
M  V30 3216 O 309.083 2.61516 3.18878 0
M  V30 3217 H 308.424 0.579531 0.324099 0
M  V30 3218 H 310.954 2.00525 0.406301 0
M  V30 3219 H 310.964 3.18551 2.5493 0
M  V30 3220 H 309.639 3.83888 1.60008 0
M  V30 3221 H 308.216 2.45852 2.80377 0
M  V30 3222 N 310.401 -0.613514 1.45168 0
M  V30 3223 C 311.629 -1.39946 1.5239 0
M  V30 3224 C 312.044 -1.88167 0.154531 0
M  V30 3225 O 311.401 -1.61872 -0.842843 0
M  V30 3226 C 311.452 -2.60795 2.50337 0
M  V30 3227 O 311.173 -2.1458 3.81952 0
M  V30 3228 C 312.674 -3.53723 2.67198 0
M  V30 3229 H 309.894 -0.428593 0.516284 0
M  V30 3230 H 312.438 -0.748753 1.903 0
M  V30 3231 H 310.593 -3.21919 2.15515 0
M  V30 3232 H 311.007 -2.93055 4.34993 0
M  V30 3233 H 312.481 -4.35079 3.39721 0
M  V30 3234 H 312.958 -4.0368 1.73029 0
M  V30 3235 H 313.564 -2.98456 3.02992 0
M  V30 3236 N 311.879 -1.3236 -0.855495 0
M  V30 3237 C 312.809 -1.23833 -1.97958 0
M  V30 3238 C 313.79 -0.122361 -1.69659 0
M  V30 3239 O 314.975 -0.30939 -1.9172 0
M  V30 3240 C 312.105 -0.959772 -3.33775 0
M  V30 3241 C 311.059 -2.03689 -3.76424 0
M  V30 3242 C 310.385 -1.61075 -5.09862 0
M  V30 3243 C 311.685 -3.4518 -3.9198 0
M  V30 3244 H 313.379 -2.1788 -2.0535 0
M  V30 3245 H 310.925 -1.04891 -0.986605 0
M  V30 3246 H 312.878 -0.886678 -4.11966 0
M  V30 3247 H 311.602 0.0163404 -3.26596 0
M  V30 3248 H 310.261 -2.10012 -3.00484 0
M  V30 3249 H 309.909 -0.622107 -4.99138 0
M  V30 3250 H 309.609 -2.33143 -5.39368 0
M  V30 3251 H 311.133 -1.55201 -5.90546 0
M  V30 3252 H 312.547 -3.4145 -4.60526 0
M  V30 3253 H 310.944 -4.1559 -4.32903 0
M  V30 3254 H 312.014 -3.84903 -2.94919 0
M  V30 3255 N 313.357 1.07166 -1.15556 0
M  V30 3256 C 314.585 1.83514 -0.955519 0
M  V30 3257 C 315 1.82163 0.49621 0
M  V30 3258 O 314.357 1.23441 1.34419 0
M  V30 3259 C 314.408 3.30515 -1.46432 0
M  V30 3260 O 314.129 3.31937 -2.85918 0
M  V30 3261 C 315.63 4.23625 -1.30603 0
M  V30 3262 H 312.85 0.578926 -0.339244 0
M  V30 3263 H 315.394 1.35265 -1.53374 0
M  V30 3264 H 313.549 3.76106 -0.928584 0
M  V30 3265 H 313.963 4.23794 -3.09029 0
M  V30 3266 H 315.437 5.24831 -1.71047 0
M  V30 3267 H 315.914 4.38485 -0.250441 0
M  V30 3268 H 316.52 3.83871 -1.83094 0
M  V30 3269 N 314.835 0.952656 1.25548 0
M  V30 3270 C 315.765 0.489287 2.28316 0
M  V30 3271 C 316.746 -0.463359 1.63667 0
M  V30 3272 O 317.931 -0.36274 1.90782 0
M  V30 3273 C 315.061 -0.235603 3.465 0
M  V30 3274 C 314.015 0.631593 4.23314 0
M  V30 3275 C 313.341 -0.223923 5.34231 0
M  V30 3276 C 314.641 1.90871 4.86174 0
M  V30 3277 H 316.335 1.34822 2.67326 0
M  V30 3278 H 313.881 0.649728 1.28509 0
M  V30 3279 H 315.834 -0.570882 4.17515 0
M  V30 3280 H 314.558 -1.12877 3.06474 0
M  V30 3281 H 313.217 0.949929 3.54079 0
M  V30 3282 H 312.865 -1.11678 4.90446 0
M  V30 3283 H 312.565 0.35299 5.86539 0
M  V30 3284 H 314.089 -0.554214 6.0808 0
M  V30 3285 H 315.503 1.63997 5.49343 0
M  V30 3286 H 313.9 2.43112 5.4865 0
M  V30 3287 H 314.97 2.61304 4.08471 0
M  V30 3288 N 316.313 -1.40141 0.720998 0
M  V30 3289 C 317.243 -2.33339 0.0867621 0
M  V30 3290 C 318.224 -1.53178 -0.739622 0
M  V30 3291 O 319.409 -1.81625 -0.687449 0
M  V30 3292 C 316.539 -3.37194 -0.831728 0
M  V30 3293 C 315.493 -4.27857 -0.110558 0
M  V30 3294 C 314.819 -5.22294 -1.14513 0
M  V30 3295 C 316.119 -5.11872 1.0385 0
M  V30 3296 H 317.813 -2.86626 0.865219 0
M  V30 3297 H 315.359 -1.37814 0.417516 0
M  V30 3298 H 317.312 -4.01335 -1.28485 0
M  V30 3299 H 316.036 -2.82314 -1.64214 0
M  V30 3300 H 314.695 -3.65176 0.322797 0
M  V30 3301 H 314.343 -4.63717 -1.94874 0
M  V30 3302 H 314.043 -5.83797 -0.667446 0
M  V30 3303 H 315.567 -5.89312 -1.59824 0
M  V30 3304 H 316.981 -5.69436 0.664482 0
M  V30 3305 H 315.378 -5.82445 1.4449 0
M  V30 3306 H 316.448 -4.4753 1.86668 0
M  V30 3307 N 317.792 -0.46758 -1.50504 0
M  V30 3308 C 318.702 0.33382 -2.32213 0
M  V30 3309 C 319.718 0.999323 -1.42441 0
M  V30 3310 O 320.894 0.988068 -1.75497 0
M  V30 3311 C 317.959 1.4035 -3.17022 0
M  V30 3312 C 317.02 0.754961 -4.2261 0
M  V30 3313 C 316.253 1.77367 -5.03365 0
M  V30 3314 O 316.476 2.99976 -4.8515 0
M  V30 3315 O 315.41 1.34744 -5.86624 0
M  V30 3316 H 319.236 -0.334067 -3.01857 0
M  V30 3317 H 316.821 -0.229496 -1.47627 0
M  V30 3318 H 318.703 2.02318 -3.69656 0
M  V30 3319 H 317.378 2.05492 -2.5011 0
M  V30 3320 H 316.285 0.0964244 -3.73976 0
M  V30 3321 H 317.618 0.146545 -4.91982 0
M  V30 3322 N 319.27 1.56325 -0.20005 0
M  V30 3323 C 320.2 2.22318 0.713916 0
M  V30 3324 C 321.181 1.18788 1.21752 0
M  V30 3325 O 322.366 1.47309 1.26545 0
M  V30 3326 C 319.496 2.88639 1.93144 0
M  V30 3327 C 318.45 3.98457 1.56255 0
M  V30 3328 C 317.776 4.51967 2.85709 0
M  V30 3329 C 319.076 5.16612 0.768747 0
M  V30 3330 H 320.77 2.98952 0.163755 0
M  V30 3331 H 318.316 1.43792 0.0773219 0
M  V30 3332 H 320.269 3.33491 2.57608 0
M  V30 3333 H 318.993 2.09419 2.50621 0
M  V30 3334 H 317.652 3.54305 0.941471 0
M  V30 3335 H 317.3 3.69503 3.41287 0
M  V30 3336 H 317 5.26071 2.6177 0
M  V30 3337 H 318.524 4.99523 3.51154 0
M  V30 3338 H 319.938 5.57977 1.3166 0
M  V30 3339 H 318.335 5.96812 0.627286 0
M  V30 3340 H 319.405 4.84358 -0.229168 0
M  V30 3341 N 320.748 -0.0735177 1.57428 0
M  V30 3342 C 322.025 -0.805903 1.78226 0
M  V30 3343 C 322.405 -1.95874 0.787189 0
M  V30 3344 O 321.753 -2.2779 -0.180029 0
M  V30 3345 C 321.963 -1.28045 3.24662 0
M  V30 3346 C 323.311 -1.71453 3.88444 0
M  V30 3347 O 324.335 -1.37616 3.28543 0
M  V30 3348 O 323.194 -2.34093 4.93825 0
M  V30 3349 H 320.288 -0.386041 0.73137 0
M  V30 3350 H 322.834 -0.0537269 1.69615 0
M  V30 3351 H 321.606 -0.455476 3.8864 0
M  V30 3352 H 321.229 -2.094 3.37991 0
M  V30 3353 N 322.226 -1.5378 -0.344866 0
M  V30 3354 C 323.637 -1.62428 -0.920552 0
M  V30 3355 C 323.988 -0.504747 -1.89596 0
M  V30 3356 O 323.113 0.365711 -2.13287 0
M  V30 3357 C 323.708 -2.94419 -1.67639 0
M  V30 3358 C 322.267 -3.05333 -2.20111 0
M  V30 3359 C 321.414 -2.57866 -1.01982 0
M  V30 3360 H 324.365 -1.58222 -0.123042 0
M  V30 3361 H 324.386 -2.83384 -2.53917 0
M  V30 3362 H 323.898 -3.7588 -0.966224 0
M  V30 3363 H 321.999 -2.28502 -2.94308 0
M  V30 3364 H 322.112 -4.10778 -2.46573 0
M  V30 3365 H 320.476 -2.13241 -1.39285 0
M  V30 3366 H 321.259 -3.41765 -0.324308 0
M  V30 3367 N 323.704 0.605807 -1.45491 0
M  V30 3368 C 324.636 1.73031 -1.5031 0
M  V30 3369 C 325.649 1.57968 -0.393687 0
M  V30 3370 O 326.838 1.65817 -0.660839 0
M  V30 3371 C 323.938 3.11049 -1.34543 0
M  V30 3372 C 323.111 3.52334 -2.59189 0
M  V30 3373 C 322.17 4.69323 -2.37954 0
M  V30 3374 O 321.196 4.7635 -3.11575 0
M  V30 3375 N 322.398 5.62705 -1.4263 0
M  V30 3376 H 325.163 1.6936 -2.4726 0
M  V30 3377 H 322.724 0.79114 -1.41254 0
M  V30 3378 H 324.716 3.87071 -1.18144 0
M  V30 3379 H 323.286 3.09217 -0.458623 0
M  V30 3380 H 322.506 2.66256 -2.90691 0
M  V30 3381 H 323.794 3.76677 -3.42041 0
M  V30 3382 H 323.192 5.59744 -0.818758 0
M  V30 3383 H 321.749 6.38252 -1.32202 0
M  V30 3384 N 325.182 1.32811 0.848464 0
M  V30 3385 C 326.43 1.23479 1.59991 0
M  V30 3386 C 326.751 -0.201853 1.93952 0
M  V30 3387 O 326.021 -1.12818 1.60153 0
M  V30 3388 H 324.601 0.454034 0.593179 0
M  V30 3389 H 327.263 1.66412 1.01455 0
M  V30 3390 H 326.359 1.82178 2.53412 0
M  V30 3391 N 326.66 -1.06551 1.16123 0
M  V30 3392 C 327.607 -2.13961 0.865414 0
M  V30 3393 C 328.577 -1.65066 -0.185055 0
M  V30 3394 O 329.762 -1.90732 -0.05083 0
M  V30 3395 C 326.902 -3.43113 0.369776 0
M  V30 3396 C 326.015 -4.05756 1.48276 0
M  V30 3397 C 325.15 -5.22773 0.942414 0
M  V30 3398 C 324.189 -5.77395 2.03179 0
M  V30 3399 N 323.326 -6.85731 1.50721 0
M  V30 3400 H 328.166 -2.38605 1.78527 0
M  V30 3401 H 325.703 -1.17072 0.890646 0
M  V30 3402 H 327.661 -4.17151 0.0640643 0
M  V30 3403 H 326.291 -3.18695 -0.513143 0
M  V30 3404 H 325.343 -3.29292 1.9045 0
M  V30 3405 H 326.655 -4.42351 2.30493 0
M  V30 3406 H 325.809 -6.03827 0.589729 0
M  V30 3407 H 324.548 -4.87618 0.0895191 0
M  V30 3408 H 323.553 -4.94981 2.3932 0
M  V30 3409 H 324.778 -6.14603 2.8886 0
M  V30 3410 H 322.724 -6.52499 0.676811 0
M  V30 3411 H 322.641 -7.21254 2.26557 0
M  V30 3412 H 323.909 -7.7047 1.18303 0
M  V30 3413 N 328.138 -0.959301 -1.25041 0
M  V30 3414 C 329.068 -0.501388 -2.28053 0
M  V30 3415 C 330.049 0.454673 -1.63911 0
M  V30 3416 O 331.234 0.352618 -1.90972 0
M  V30 3417 C 328.364 0.217224 -3.4662 0
M  V30 3418 C 327.318 -0.654034 -4.22973 0
M  V30 3419 C 326.644 0.195589 -5.34342 0
M  V30 3420 C 327.944 -1.93447 -4.85155 0
M  V30 3421 H 329.638 -1.36238 -2.66608 0
M  V30 3422 H 327.184 -0.656534 -1.28163 0
M  V30 3423 H 329.137 0.548732 -4.17812 0
M  V30 3424 H 327.861 1.1125 -3.07068 0
M  V30 3425 H 326.52 -0.968693 -3.5357 0
M  V30 3426 H 326.168 1.09076 -4.91031 0
M  V30 3427 H 325.868 -0.384091 -5.86343 0
M  V30 3428 H 327.392 0.521958 -6.08365 0
M  V30 3429 H 328.806 -1.66908 -5.48466 0
M  V30 3430 H 327.203 -2.46018 -5.47353 0
M  V30 3431 H 328.273 -2.63466 -4.07079 0
M  V30 3432 N 329.616 1.39756 -0.72842 0
M  V30 3433 C 330.546 2.33289 -0.0991354 0
M  V30 3434 C 331.527 1.53568 0.731489 0
M  V30 3435 O 332.712 1.81987 0.677807 0
M  V30 3436 C 329.842 3.3763 0.813834 0
M  V30 3437 C 328.796 4.2791 0.0878663 0
M  V30 3438 C 328.122 5.22894 1.11741 0
M  V30 3439 C 329.422 5.11314 -1.06563 0
M  V30 3440 H 331.116 2.86163 -0.880408 0
M  V30 3441 H 328.662 1.37591 -0.424819 0
M  V30 3442 H 330.615 4.0201 1.26355 0
M  V30 3443 H 329.339 2.83181 1.62715 0
M  V30 3444 H 327.998 3.65 -0.342159 0
M  V30 3445 H 327.646 4.64744 1.92412 0
M  V30 3446 H 327.346 5.84143 0.636477 0
M  V30 3447 H 328.87 5.90151 1.56697 0
M  V30 3448 H 330.284 5.69076 -0.694671 0
M  V30 3449 H 328.681 5.81671 -1.47577 0
M  V30 3450 H 329.751 4.46534 -1.89038 0
M  V30 3451 N 331.094 0.475555 1.50254 0
M  V30 3452 C 332.51 0.12997 1.5907 0
M  V30 3453 C 332.71 -1.36385 1.48328 0
M  V30 3454 O 331.766 -2.13754 1.34407 0
M  V30 3455 C 333.079 0.684139 2.92814 0
M  V30 3456 C 334.627 0.647965 3.0622 0
M  V30 3457 C 335.102 1.17975 4.42545 0
M  V30 3458 N 336.593 1.13936 4.48969 0
M  V30 3459 C 337.328 1.52129 5.52851 0
M  V30 3460 N 336.824 1.97793 6.63965 0
M  V30 3461 N 338.617 1.43704 5.4342 0
M  V30 3462 H 330.768 1.44706 1.55479 0
M  V30 3463 H 333.031 0.598691 0.735033 0
M  V30 3464 H 332.737 1.73079 3.06164 0
M  V30 3465 H 332.611 0.130204 3.76975 0
M  V30 3466 H 334.998 -0.38979 2.92514 0
M  V30 3467 H 335.079 1.23876 2.23805 0
M  V30 3468 H 334.723 2.21616 4.57 0
M  V30 3469 H 334.653 0.565138 5.23559 0
M  V30 3470 H 337.144 0.804488 3.69238 0
M  V30 3471 H 337.457 2.25072 7.39299 0
M  V30 3472 H 335.802 2.01749 6.65073 0
M  V30 3473 H 338.993 1.07867 4.55502 0
M  V30 3474 H 339.166 1.73794 6.24259 0
M  V30 3475 N 332.573 -1.56217 0.208337 0
M  V30 3476 C 333.505 -2.1695 -0.739276 0
M  V30 3477 C 334.518 -1.13492 -1.1672 0
M  V30 3478 O 335.707 -1.40529 -1.10063 0
M  V30 3479 C 332.807 -2.72755 -2.01142 0
M  V30 3480 C 331.98 -4.0125 -1.74118 0
M  V30 3481 C 331.039 -4.41749 -2.85909 0
M  V30 3482 O 330.065 -5.08912 -2.54946 0
M  V30 3483 N 331.267 -4.06342 -4.14568 0
M  V30 3484 H 334.032 -2.98893 -0.219837 0
M  V30 3485 H 331.593 -1.61878 0.0268445 0
M  V30 3486 H 333.585 -2.96826 -2.75094 0
M  V30 3487 H 332.155 -1.95191 -2.4417 0
M  V30 3488 H 331.375 -3.85173 -0.838775 0
M  V30 3489 H 332.663 -4.851 -1.53477 0
M  V30 3490 H 332.061 -3.52345 -4.42571 0
M  V30 3491 H 330.618 -4.35335 -4.85105 0
M  V30 3492 N 334.051 0.0651679 -1.57465 0
M  V30 3493 C 334.998 1.07675 -2.04144 0
M  V30 3494 C 335.968 1.38071 -0.923335 0
M  V30 3495 O 337.153 1.49026 -1.19146 0
M  V30 3496 C 334.293 2.38337 -2.49579 0
M  V30 3497 C 333.406 2.14413 -3.75035 0
M  V30 3498 C 332.541 3.38686 -4.09225 0
M  V30 3499 C 331.58 3.10156 -5.27702 0
M  V30 3500 N 330.717 4.26778 -5.57499 0
M  V30 3501 H 335.557 0.671716 -2.90331 0
M  V30 3502 H 333.094 0.3201 -1.43575 0
M  V30 3503 H 335.052 3.14632 -2.73975 0
M  V30 3504 H 333.682 2.7663 -1.6636 0
M  V30 3505 H 332.734 1.2878 -3.57939 0
M  V30 3506 H 334.046 1.89344 -4.61466 0
M  V30 3507 H 333.2 4.23373 -4.34558 0
M  V30 3508 H 331.939 3.66837 -3.21374 0
M  V30 3509 H 330.944 2.23866 -5.02159 0
M  V30 3510 H 332.169 2.8332 -6.17176 0
M  V30 3511 H 330.115 4.54948 -4.72608 0
M  V30 3512 H 330.032 4.05005 -6.38362 0
M  V30 3513 H 331.3 5.12443 -5.87386 0
M  V30 3514 N 335.529 1.53961 0.336706 0
M  V30 3515 C 336.757 1.75483 1.09605 0
M  V30 3516 C 337.172 0.4972 1.82136 0
M  V30 3517 O 336.529 -0.53149 1.74589 0
M  V30 3518 C 336.58 2.93943 2.10428 0
M  V30 3519 O 336.301 4.14842 1.40846 0
M  V30 3520 C 337.802 3.27571 2.98684 0
M  V30 3521 H 335.022 0.586166 0.326574 0
M  V30 3522 H 337.566 2.00808 0.38683 0
M  V30 3523 H 335.721 2.70929 2.76905 0
M  V30 3524 H 336.135 4.81383 2.08255 0
M  V30 3525 H 337.609 4.13791 3.6535 0
M  V30 3526 H 338.086 2.44168 3.65074 0
M  V30 3527 H 338.692 3.52615 2.37787 0
M  V30 3528 N 337.007 -0.598083 1.45811 0
M  V30 3529 C 337.917 -1.73632 1.57763 0
M  V30 3530 C 338.933 -1.67763 0.461676 0
M  V30 3531 O 340.109 -1.87949 0.723685 0
M  V30 3532 C 337.174 -3.10114 1.55018 0
M  V30 3533 C 336.235 -3.27364 2.77726 0
M  V30 3534 C 335.468 -4.57334 2.75102 0
M  V30 3535 O 335.691 -5.40258 1.8297 0
M  V30 3536 O 334.625 -4.77502 3.66437 0
M  V30 3537 H 338.451 -1.66498 2.53992 0
M  V30 3538 H 336.036 -0.763308 1.28429 0
M  V30 3539 H 337.918 -3.9141 1.56129 0
M  V30 3540 H 336.593 -3.17718 0.619431 0
M  V30 3541 H 335.5 -2.45619 2.82174 0
M  V30 3542 H 336.833 -3.24641 3.69958 0
M  V30 3543 N 338.485 -1.33259 -0.841409 0
M  V30 3544 C 339.713 -1.27605 -1.62864 0
M  V30 3545 C 340.128 0.153507 -1.88175 0
M  V30 3546 O 339.485 1.09485 -1.46011 0
M  V30 3547 C 339.536 -2.04596 -2.98031 0
M  V30 3548 O 339.257 -3.41975 -2.73834 0
M  V30 3549 C 340.758 -2.06122 -3.92465 0
M  V30 3550 H 337.978 -0.439718 -0.506842 0
M  V30 3551 H 340.522 -1.75591 -1.04824 0
M  V30 3552 H 338.677 -1.60299 -3.5268 0
M  V30 3553 H 339.091 -3.81549 -3.59889 0
M  V30 3554 H 340.565 -2.64451 -4.84531 0
M  V30 3555 H 341.042 -1.05083 -4.26444 0
M  V30 3556 H 341.648 -2.50427 -3.43753 0
M  V30 3557 N 339.963 1.05934 -1.16686 0
M  V30 3558 C 341.21 1.788 -0.950622 0
M  V30 3559 C 341.538 1.87384 0.521305 0
M  V30 3560 O 340.793 1.36438 1.40297 0
M  V30 3561 C 341.092 3.23105 -1.52767 0
M  V30 3562 C 340.758 3.34594 -3.02254 0
M  V30 3563 C 339.42 3.37437 -3.43059 0
M  V30 3564 C 341.772 3.36219 -3.98254 0
M  V30 3565 C 339.1 3.39525 -4.78477 0
M  V30 3566 C 341.452 3.39845 -5.33562 0
M  V30 3567 C 340.116 3.40971 -5.73842 0
M  V30 3568 H 339.386 0.654275 -0.347857 0
M  V30 3569 H 342.033 1.24555 -1.45459 0
M  V30 3570 H 340.338 3.80227 -0.94524 0
M  V30 3571 H 342.035 3.7809 -1.336 0
M  V30 3572 H 338.625 3.3309 -2.6972 0
M  V30 3573 H 342.809 3.33231 -3.67792 0
M  V30 3574 H 338.065 3.38703 -5.09009 0
M  V30 3575 H 342.239 3.4005 -6.07733 0
M  V30 3576 H 339.866 3.42342 -6.78753 0
M  V30 3577 N 341.441 0.965919 1.2453 0
M  V30 3578 C 342.852 0.665929 1.7442 0
M  V30 3579 C 343.203 -0.818407 1.78316 0
M  V30 3580 O 342.328 -1.64037 1.41141 0
M  V30 3581 C 342.923 1.20211 3.16757 0
M  V30 3582 C 341.482 0.952059 3.6416 0
M  V30 3583 C 340.629 1.33848 2.42858 0
M  V30 3584 H 343.58 1.14144 1.10258 0
M  V30 3585 H 343.601 0.567544 3.76244 0
M  V30 3586 H 343.113 2.28244 3.13889 0
M  V30 3587 H 341.214 -0.112821 3.72429 0
M  V30 3588 H 341.327 1.59645 4.51719 0
M  V30 3589 H 339.691 0.756864 2.43195 0
M  V30 3590 H 340.474 2.42827 2.42673 0
M  V30 3591 N 342.919 -1.39368 0.735821 0
M  V30 3592 C 344.167 -2.00101 0.283562 0
M  V30 3593 C 344.488 -1.5868 -1.13338 0
M  V30 3594 O 343.758 -0.835423 -1.77193 0
M  V30 3595 H 342.338 -0.740024 0.101851 0
M  V30 3596 H 345 -1.70404 0.945962 0
M  V30 3597 H 344.096 -3.10323 0.332604 0
M  V30 3598 N 344.397 -0.483516 -1.5 0
M  V30 3599 C 345.644 0.0671597 -2.02389 0
M  V30 3600 C 345.972 1.38597 -1.36459 0
M  V30 3601 O 345.227 1.89634 -0.483458 0
M  V30 3602 C 345.526 0.286226 -3.56252 0
M  V30 3603 C 345.192 -0.952416 -4.40726 0
M  V30 3604 C 343.854 -1.29199 -4.63531 0
M  V30 3605 C 346.206 -1.77655 -4.89988 0
M  V30 3606 C 343.534 -2.45553 -5.32842 0
M  V30 3607 C 345.886 -2.93147 -5.60578 0
M  V30 3608 C 344.55 -3.27505 -5.81633 0
M  V30 3609 H 343.82 0.0245755 -0.740592 0
M  V30 3610 H 346.467 -0.640124 -1.80485 0
M  V30 3611 H 344.772 1.07587 -3.76739 0
M  V30 3612 H 346.469 0.726473 -3.94365 0
M  V30 3613 H 343.059 -0.677881 -4.23205 0
M  V30 3614 H 347.243 -1.52737 -4.72213 0
M  V30 3615 H 342.499 -2.72431 -5.47349 0
M  V30 3616 H 346.673 -3.57344 -5.97727 0
M  V30 3617 H 344.3 -4.1777 -6.35116 0
M  V30 3618 N 345.875 1.56104 -0.216619 0
M  V30 3619 C 346.838 2.18819 0.681962 0
M  V30 3620 C 347.838 1.14866 1.12528 0
M  V30 3621 O 349.028 1.40128 1.03488 0
M  V30 3622 C 346.16 2.80756 1.93362 0
M  V30 3623 H 347.353 2.99595 0.135254 0
M  V30 3624 H 344.906 1.56265 0.0330003 0
M  V30 3625 H 345.641 2.03837 2.52232 0
M  V30 3626 H 345.426 3.56876 1.62426 0
M  V30 3627 H 346.916 3.28844 2.57393 0
M  V30 3628 N 347.353 -0.0568162 1.57498 0
M  V30 3629 C 348.6 -0.753104 1.87975 0
M  V30 3630 C 348.928 -1.76815 0.81035 0
M  V30 3631 O 348.183 -1.94756 -0.19199 0
M  V30 3632 C 348.482 -1.48359 3.25153 0
M  V30 3633 C 348.148 -0.60713 4.46794 0
M  V30 3634 C 346.81 -0.365642 4.79809 0
M  V30 3635 C 349.162 -0.000305978 5.212 0
M  V30 3636 C 346.49 0.491905 5.84634 0
M  V30 3637 C 348.842 0.844781 6.26934 0
M  V30 3638 C 347.506 1.096 6.58441 0
M  V30 3639 H 346.776 -0.27558 0.687849 0
M  V30 3640 H 349.423 -0.0135173 1.91495 0
M  V30 3641 H 347.728 -2.29577 3.17492 0
M  V30 3642 H 349.425 -2.02739 3.45974 0
M  V30 3643 H 346.015 -0.805487 4.20963 0
M  V30 3644 H 350.199 -0.173961 4.95995 0
M  V30 3645 H 345.455 0.695131 6.07436 0
M  V30 3646 H 349.629 1.32165 6.83744 0
M  V30 3647 H 347.256 1.76224 7.39492 0
M  V30 3648 N 348.832 -1.54138 -0.328536 0
M  V30 3649 C 350.081 -1.71318 -1.06456 0
M  V30 3650 C 350.394 -0.491109 -1.89334 0
M  V30 3651 O 351.6 -0.54416 -2.65991 0
M  V30 3652 C 350.056 -3.03 -1.94214 0
M  V30 3653 C 349.664 -4.32595 -1.16471 0
M  V30 3654 C 351.408 -3.29544 -2.67583 0
M  V30 3655 C 349.315 -5.55341 -2.03347 0
M  V30 3656 H 348.245 -0.638429 -0.401155 0
M  V30 3657 H 350.896 -1.80633 -0.323106 0
M  V30 3658 H 349.278 -2.87579 -2.72239 0
M  V30 3659 H 350.452 -4.58766 -0.432525 0
M  V30 3660 H 348.767 -4.12777 -0.548063 0
M  V30 3661 H 351.364 -4.18444 -3.3288 0
M  V30 3662 H 351.707 -2.47206 -3.34955 0
M  V30 3663 H 352.24 -3.45809 -1.96623 0
M  V30 3664 H 348.979 -6.40268 -1.40491 0
M  V30 3665 H 348.499 -5.33397 -2.74313 0
M  V30 3666 H 350.178 -5.91557 -2.62049 0
M  V30 3667 N 350.31 0.590341 -1.46126 0
M  V30 3668 C 351.26 1.69466 -1.5253 0
M  V30 3669 C 352.244 1.56179 -0.386917 0
M  V30 3670 O 353.436 1.65223 -0.634858 0
M  V30 3671 C 350.565 3.08245 -1.5113 0
M  V30 3672 C 349.651 3.26856 -2.70233 0
M  V30 3673 N 350.042 3.15657 -3.95214 0
M  V30 3674 C 348.34 3.57775 -2.66296 0
M  V30 3675 C 349.041 3.36066 -4.74799 0
M  V30 3676 N 348.017 3.60865 -4.06543 0
M  V30 3677 H 351.819 1.59326 -2.46966 0
M  V30 3678 H 349.333 0.79414 -1.41659 0
M  V30 3679 H 351.33 3.87492 -1.53804 0
M  V30 3680 H 349.99 3.19521 -0.577636 0
M  V30 3681 H 351.001 2.93686 -4.26578 0
M  V30 3682 H 347.678 3.75782 -1.81918 0
M  V30 3683 H 349.068 3.32655 -5.83772 0
M  V30 3684 N 351.788 1.33704 0.83433 0
M  V30 3685 C 353.065 1.16011 1.57483 0
M  V30 3686 C 353.445 -0.27176 2.09343 0
M  V30 3687 O 352.793 -1.27146 1.89858 0
M  V30 3688 C 353.003 2.20507 2.70514 0
M  V30 3689 C 354.351 2.54898 3.39577 0
M  V30 3690 O 355.375 2.19209 2.80759 0
M  V30 3691 O 354.234 3.16158 4.45765 0
M  V30 3692 H 351.328 0.448992 0.694503 0
M  V30 3693 H 353.874 1.453 0.876691 0
M  V30 3694 H 352.646 3.16667 2.29865 0
M  V30 3695 H 352.269 1.92329 3.47987 0
M  V30 3696 N 353.266 -1.05314 1.17247 0
M  V30 3697 C 354.513 -1.78293 0.960091 0
M  V30 3698 C 354.841 -1.87658 -0.51136 0
M  V30 3699 O 354.096 -1.3718 -1.39571 0
M  V30 3700 C 354.395 -3.2229 1.54479 0
M  V30 3701 C 354.061 -3.32987 3.04024 0
M  V30 3702 C 352.723 -3.35613 3.44844 0
M  V30 3703 C 355.075 -3.34102 4.00031 0
M  V30 3704 C 352.403 -3.36982 4.8027 0
M  V30 3705 C 354.755 -3.3701 5.35357 0
M  V30 3706 C 353.419 -3.37923 5.75642 0
M  V30 3707 H 352.689 -0.652422 0.351322 0
M  V30 3708 H 355.336 -1.23782 1.46117 0
M  V30 3709 H 353.641 -3.7972 0.965391 0
M  V30 3710 H 355.338 -3.77376 1.35603 0
M  V30 3711 H 351.928 -3.31655 2.71483 0
M  V30 3712 H 356.112 -3.31276 3.69554 0
M  V30 3713 H 351.368 -3.35999 5.10798 0
M  V30 3714 H 355.542 -3.36822 6.09528 0
M  V30 3715 H 353.169 -3.38738 6.80559 0
M  V30 3716 N 354.744 -0.972509 -1.24016 0
M  V30 3717 C 355.707 -0.511403 -2.23422 0
M  V30 3718 C 356.707 0.394679 -1.55881 0
M  V30 3719 O 357.897 0.189469 -1.73167 0
M  V30 3720 C 355.029 0.258769 -3.39916 0
M  V30 3721 H 356.222 -1.39024 -2.6573 0
M  V30 3722 H 353.775 -0.757585 -1.36713 0
M  V30 3723 H 354.51 1.1545 -3.03054 0
M  V30 3724 H 354.295 -0.391522 -3.9014 0
M  V30 3725 H 355.785 0.570244 -4.13688 0
M  V30 3726 N 356.222 1.38976 -0.743202 0
M  V30 3727 C 357.471 1.99581 -0.291592 0
M  V30 3728 C 357.784 1.59656 1.13001 0
M  V30 3729 O 358.99 2.13157 1.68156 0
M  V30 3730 C 357.446 3.56813 -0.470391 0
M  V30 3731 C 357.054 4.05695 -1.90041 0
M  V30 3732 C 358.798 4.24423 -0.0809709 0
M  V30 3733 C 356.705 5.5553 -2.02832 0
M  V30 3734 H 355.635 0.746615 -0.105272 0
M  V30 3735 H 358.286 1.58872 -0.918258 0
M  V30 3736 H 356.668 3.95359 0.225299 0
M  V30 3737 H 357.842 3.78464 -2.62872 0
M  V30 3738 H 356.157 3.50775 -2.24379 0
M  V30 3739 H 358.754 5.34474 -0.155445 0
M  V30 3740 H 359.097 4.04962 0.96497 0
M  V30 3741 H 359.63 3.9108 -0.728124 0
M  V30 3742 H 356.369 5.79881 -3.05643 0
M  V30 3743 H 355.889 5.84537 -1.34448 0
M  V30 3744 H 357.568 6.21069 -1.81335 0
M  V30 3745 N 357.7 0.491464 1.49741 0
M  V30 3746 C 358.928 -0.0535151 2.06831 0
M  V30 3747 C 359.343 -1.31683 1.35296 0
M  V30 3748 O 358.7 -1.77402 0.42836 0
M  V30 3749 C 358.751 -0.320835 3.60073 0
M  V30 3750 O 358.472 0.892394 4.28915 0
M  V30 3751 C 359.973 -0.910519 4.33848 0
M  V30 3752 H 357.193 0.0161909 0.670805 0
M  V30 3753 H 359.737 0.68609 1.92647 0
M  V30 3754 H 357.892 -1.0104 3.73991 0
M  V30 3755 H 358.306 0.649401 5.20464 0
M  V30 3756 H 359.78 -1.04721 5.41976 0
M  V30 3757 H 360.257 -1.90589 3.95692 0
M  V30 3758 H 360.863 -0.258712 4.24512 0
M  V30 3759 N 359.178 -1.55987 0.224894 0
M  V30 3760 C 360.589 -1.84553 -0.282345 0
M  V30 3761 C 360.94 -1.14634 -1.59227 0
M  V30 3762 O 360.065 -0.417155 -2.12341 0
M  V30 3763 C 360.66 -3.348 -0.519062 0
M  V30 3764 C 359.219 -3.63671 -0.970604 0
M  V30 3765 C 358.366 -2.77277 -0.0355261 0
M  V30 3766 H 361.317 -1.52245 0.448006 0
M  V30 3767 H 361.338 -3.55187 -1.36463 0
M  V30 3768 H 360.85 -3.8566 0.43449 0
M  V30 3769 H 358.951 -3.1827 -1.9374 0
M  V30 3770 H 359.064 -4.71631 -0.842698 0
M  V30 3771 H 357.428 -2.48846 -0.542927 0
M  V30 3772 H 358.211 -3.30937 0.913003 0
M  V30 3773 N 360.656 0.0484629 -1.57525 0
M  V30 3774 C 361.606 1.06246 -2.01732 0
M  V30 3775 C 362.59 1.33155 -0.903245 0
M  V30 3776 O 363.782 1.33065 -1.16717 0
M  V30 3777 C 360.911 2.36943 -2.48421 0
M  V30 3778 C 359.997 2.13208 -3.6661 0
M  V30 3779 N 360.388 1.5947 -4.80003 0
M  V30 3780 C 358.686 2.43581 -3.7361 0
M  V30 3781 C 359.387 1.51092 -5.61735 0
M  V30 3782 N 358.363 1.9797 -5.0627 0
M  V30 3783 H 362.165 0.640675 -2.86832 0
M  V30 3784 H 359.679 0.255134 -1.60383 0
M  V30 3785 H 361.676 3.10374 -2.78341 0
M  V30 3786 H 360.336 2.79818 -1.64718 0
M  V30 3787 H 361.347 1.28008 -5.01831 0
M  V30 3788 H 358.024 2.89662 -3.00669 0
M  V30 3789 H 359.414 1.10199 -6.62801 0
M  V30 3790 N 362.134 1.5431 0.320358 0
M  V30 3791 C 363.364 1.7638 1.07582 0
M  V30 3792 C 363.772 0.513944 1.82086 0
M  V30 3793 O 363.115 -0.525123 1.76035 0
M  V30 3794 C 363.177 2.9055 2.1171 0
M  V30 3795 C 362.841 4.2934 1.56575 0
M  V30 3796 C 363.838 5.10077 1.00586 0
M  V30 3797 C 361.523 4.75893 1.60722 0
M  V30 3798 C 363.517 6.35477 0.494756 0
M  V30 3799 C 361.204 6.0126 1.09224 0
M  V30 3800 C 362.202 6.80886 0.53696 0
M  V30 3801 O 361.89 8.03894 0.0297371 0
M  V30 3802 H 361.622 0.592369 0.325692 0
M  V30 3803 H 364.176 2.02019 0.37116 0
M  V30 3804 H 362.406 2.60489 2.85801 0
M  V30 3805 H 364.095 3.00373 2.73003 0
M  V30 3806 H 364.861 4.75265 0.966869 0
M  V30 3807 H 360.74 4.13957 2.02882 0
M  V30 3808 H 364.284 6.97574 0.0606842 0
M  V30 3809 H 360.181 6.35562 1.12831 0
M  V30 3810 H 360.949 8.18372 0.14486 0
M  V30 3811 N 363.613 -0.582584 1.46437 0
M  V30 3812 C 364.576 -1.67366 1.56592 0
M  V30 3813 C 365.576 -1.54575 0.443072 0
M  V30 3814 O 366.766 -1.59191 0.707381 0
M  V30 3815 C 363.898 -3.06791 1.48634 0
M  V30 3816 H 365.091 -1.5972 2.5383 0
M  V30 3817 H 362.644 -0.800432 1.34249 0
M  V30 3818 H 363.379 -3.19993 0.526763 0
M  V30 3819 H 363.164 -3.17484 2.30101 0
M  V30 3820 H 364.654 -3.86218 1.58826 0
M  V30 3821 N 365.091 -1.34144 -0.827227 0
M  V30 3822 C 366.34 -1.25602 -1.5782 0
M  V30 3823 C 366.653 0.173445 -1.94829 0
M  V30 3824 O 367.859 0.380984 -2.68814 0
M  V30 3825 C 366.315 -2.20151 -2.84713 0
M  V30 3826 C 365.923 -3.68331 -2.55021 0
M  V30 3827 C 367.667 -2.20508 -3.62735 0
M  V30 3828 C 365.574 -4.54762 -3.78082 0
M  V30 3829 H 364.504 -0.466573 -0.592306 0
M  V30 3830 H 367.155 -1.59283 -0.911116 0
M  V30 3831 H 365.537 -1.79417 -3.53023 0
M  V30 3832 H 366.711 -4.17577 -1.94849 0
M  V30 3833 H 365.026 -3.7038 -1.90283 0
M  V30 3834 H 367.623 -2.82306 -4.54101 0
M  V30 3835 H 367.966 -1.20322 -3.98533 0
M  V30 3836 H 368.499 -2.59664 -3.01362 0
M  V30 3837 H 365.238 -5.55867 -3.47407 0
M  V30 3838 H 364.758 -4.10254 -4.37552 0
M  V30 3839 H 366.437 -4.69153 -4.45538 0
M  V30 3840 N 366.569 1.04691 -1.17803 0
M  V30 3841 C 367.816 1.77782 -0.969532 0
M  V30 3842 C 368.144 1.87926 0.501401 0
M  V30 3843 O 367.399 1.37918 1.38842 0
M  V30 3844 C 367.698 3.21467 -1.56186 0
M  V30 3845 C 367.364 3.3137 -3.05786 0
M  V30 3846 C 366.026 3.3378 -3.46619 0
M  V30 3847 C 368.378 3.31976 -4.01797 0
M  V30 3848 C 365.706 3.34431 -4.82051 0
M  V30 3849 C 368.058 3.34167 -5.37136 0
M  V30 3850 C 366.722 3.34866 -5.77426 0
M  V30 3851 H 365.992 0.650549 -0.354777 0
M  V30 3852 H 368.639 1.23006 -1.46772 0
M  V30 3853 H 366.944 3.79203 -0.985515 0
M  V30 3854 H 368.641 3.76652 -1.37602 0
M  V30 3855 H 365.231 3.3021 -2.73238 0
M  V30 3856 H 369.415 3.29311 -3.71306 0
M  V30 3857 H 364.671 3.33285 -5.12573 0
M  V30 3858 H 368.845 3.33585 -6.11305 0
M  V30 3859 H 366.472 3.35124 -6.82346 0
M  V30 3860 N 368.047 0.979072 1.23499 0
M  V30 3861 C 368.977 0.537606 2.27227 0
M  V30 3862 C 369.958 -0.428539 1.64613 0
M  V30 3863 O 371.143 -0.322191 1.91509 0
M  V30 3864 C 368.273 -0.162052 3.46922 0
M  V30 3865 C 367.227 0.721242 4.21879 0
M  V30 3866 C 366.553 -0.110555 5.34586 0
M  V30 3867 C 367.853 2.01141 4.82016 0
M  V30 3868 H 369.547 1.40462 2.64406 0
M  V30 3869 H 367.093 0.67684 1.27102 0
M  V30 3870 H 369.046 -0.482192 4.18632 0
M  V30 3871 H 367.77 -1.06351 3.08799 0
M  V30 3872 H 366.429 1.02482 3.51984 0
M  V30 3873 H 366.077 -1.0125 4.92704 0
M  V30 3874 H 365.777 0.477325 5.85658 0
M  V30 3875 H 367.301 -0.425107 6.09118 0
M  V30 3876 H 368.715 1.75612 5.45741 0
M  V30 3877 H 367.112 2.54695 5.43369 0
M  V30 3878 H 368.182 2.69909 4.02836 0
M  V30 3879 N 369.525 -1.3858 0.750561 0
M  V30 3880 C 370.457 -2.29057 0.0810714 0
M  V30 3881 C 371.47 -1.47596 -0.686973 0
M  V30 3882 O 372.659 -1.70495 -0.528563 0
M  V30 3883 C 369.759 -3.26475 -0.909247 0
M  V30 3884 C 368.932 -4.36945 -0.199478 0
M  V30 3885 C 367.991 -5.14572 -1.10011 0
M  V30 3886 O 367.017 -5.66321 -0.57177 0
M  V30 3887 N 368.219 -5.27262 -2.42849 0
M  V30 3888 H 370.984 -2.87153 0.858087 0
M  V30 3889 H 368.545 -1.50328 0.60109 0
M  V30 3890 H 370.537 -3.75285 -1.51471 0
M  V30 3891 H 369.107 -2.69298 -1.58736 0
M  V30 3892 H 368.327 -3.8981 0.586664 0
M  V30 3893 H 369.615 -5.07963 0.291783 0
M  V30 3894 H 369.013 -4.86763 -2.88233 0
M  V30 3895 H 367.57 -5.79456 -2.98453 0
M  V30 3896 N 371.003 -0.499398 -1.49478 0
M  V30 3897 C 371.951 0.293604 -2.3074 0
M  V30 3898 C 372.945 0.96427 -1.39277 0
M  V30 3899 O 374.151 0.892141 -1.56336 0
M  V30 3900 H 370.526 0.113541 -0.743379 0
M  V30 3901 H 372.497 -0.411772 -2.95545 0
M  V30 3902 C 371.246 1.3462 -3.20582 0
M  V30 3903 H 370.569 0.83954 -3.90886 0
M  V30 3904 H 372.009 1.87308 -3.80384 0
M  V30 3905 C 370.468 2.36351 -2.40083 0
M  V30 3906 O 370.998 3.422 -2.10385 0
M  V30 3907 N 369.204 2.0878 -2.02137 0
M  V30 3908 H 368.751 1.22723 -2.26488 0
M  V30 3909 H 368.709 2.77075 -1.48583 0
M  V30 3910 N 372.481 1.55866 -0.233164 0
M  V30 3911 C 373.429 2.22176 0.68851 0
M  V30 3912 C 374.423 1.20487 1.19076 0
M  V30 3913 O 375.629 1.38536 1.14925 0
M  V30 3914 H 372.004 0.712511 0.240483 0
M  V30 3915 H 373.975 2.98212 0.105935 0
M  V30 3916 C 372.724 2.92446 1.88071 0
M  V30 3917 H 372.047 3.70458 1.50337 0
M  V30 3918 H 373.487 3.42226 2.50314 0
M  V30 3919 C 371.946 1.95555 2.74335 0
M  V30 3920 O 372.476 1.47986 3.73447 0
M  V30 3921 N 370.682 1.62953 2.40613 0
M  V30 3922 H 370.229 2.01831 1.60069 0
M  V30 3923 H 370.187 0.983886 2.98609 0
M  V30 3924 N 373.959 -0.0401083 1.57549 0
M  V30 3925 C 375.205 -0.734211 1.89043 0
M  V30 3926 C 375.538 -1.75591 0.829535 0
M  V30 3927 O 374.813 -1.93868 -0.156706 0
M  V30 3928 C 375.096 -1.41374 3.31188 0
M  V30 3929 C 374.949 -0.406299 4.47961 0
M  V30 3930 C 376.268 -2.35061 3.72068 0
M  V30 3931 H 373.387 -0.265447 0.687537 0
M  V30 3932 H 376.029 0.00294087 1.9 0
M  V30 3933 H 374.179 -2.04206 3.30503 0
M  V30 3934 H 375.851 0.219255 4.60779 0
M  V30 3935 H 374.094 0.275485 4.32924 0
M  V30 3936 H 374.765 -0.920022 5.44279 0
M  V30 3937 H 377.241 -1.82282 3.74049 0
M  V30 3938 H 376.117 -2.79593 4.72355 0
M  V30 3939 H 376.378 -3.21258 3.0372 0
M  V30 3940 N 375.437 -1.54477 -0.31217 0
M  V30 3941 C 376.665 -1.77205 -1.068 0
M  V30 3942 C 377.08 -0.526114 -1.81321 0
M  V30 3943 O 376.437 0.503647 -1.75413 0
M  V30 3944 C 376.488 -2.97253 -2.05725 0
M  V30 3945 O 376.209 -4.1703 -1.34228 0
M  V30 3946 C 377.71 -3.32281 -2.93435 0
M  V30 3947 H 374.93 -0.591287 -0.317208 0
M  V30 3948 H 377.474 -2.01398 -0.354834 0
M  V30 3949 H 375.629 -2.753 -2.72559 0
M  V30 3950 H 376.043 -4.84636 -2.00571 0
M  V30 3951 H 377.517 -4.19551 -3.58721 0
M  V30 3952 H 377.994 -2.49945 -3.61143 0
M  V30 3953 H 378.6 -3.56353 -2.32147 0
M  V30 3954 N 376.915 0.57481 -1.46744 0
M  V30 3955 C 377.845 1.69337 -1.60771 0
M  V30 3956 C 378.826 1.63825 -0.457736 0
M  V30 3957 O 380.011 1.8172 -0.684947 0
M  V30 3958 C 377.141 3.0798 -1.60517 0
M  V30 3959 C 376.095 3.28327 -2.74564 0
M  V30 3960 C 375.421 4.67578 -2.59373 0
M  V30 3961 C 376.721 3.15398 -4.16319 0
M  V30 3962 H 378.415 1.57853 -2.54407 0
M  V30 3963 H 375.961 0.75799 -1.22436 0
M  V30 3964 H 377.914 3.86061 -1.68923 0
M  V30 3965 H 376.638 3.20381 -0.634305 0
M  V30 3966 H 375.297 2.52649 -2.65639 0
M  V30 3967 H 374.945 4.76755 -1.60353 0
M  V30 3968 H 374.645 4.82144 -3.35873 0
M  V30 3969 H 376.169 5.47817 -2.69682 0
M  V30 3970 H 377.583 3.83315 -4.26313 0
M  V30 3971 H 375.98 3.41482 -4.93468 0
M  V30 3972 H 377.05 2.12372 -4.3592 0
M  V30 3973 N 378.394 1.34581 0.820102 0
M  V30 3974 C 379.342 1.26401 1.95258 0
M  V30 3975 C 380.336 0.161553 1.68628 0
M  V30 3976 O 381.542 0.326703 1.7701 0
M  V30 3977 H 377.917 0.392749 0.64129 0
M  V30 3978 H 379.888 2.22105 1.99279 0
M  V30 3979 C 378.637 1.03919 3.31807 0
M  V30 3980 H 377.96 1.87984 3.52848 0
M  V30 3981 H 379.4 1.02232 4.11491 0
M  V30 3982 C 377.859 -0.257433 3.35915 0
M  V30 3983 O 378.389 -1.25784 3.81499 0
M  V30 3984 N 376.595 -0.291524 2.89134 0
M  V30 3985 H 376.142 0.523161 2.52232 0
M  V30 3986 H 376.1 -1.15883 2.92264 0
M  V30 3987 N 379.872 -1.04064 1.18357 0
M  V30 3988 C 381.12 -1.76915 0.977013 0
M  V30 3989 C 381.441 -1.88624 -0.494577 0
M  V30 3990 O 380.711 -1.41125 -1.3587 0
M  V30 3991 H 379.291 -0.65535 0.358504 0
M  V30 3992 H 381.953 -1.25592 1.49039 0
M  V30 3993 H 381.049 -2.78178 1.41504 0
M  V30 3994 N 381.35 -0.985608 -1.22978 0
M  V30 3995 C 382.28 -0.549649 -2.26939 0
M  V30 3996 C 383.261 0.419803 -1.64838 0
M  V30 3997 O 384.446 0.31203 -1.91677 0
M  V30 3998 C 381.576 0.143652 -3.47003 0
M  V30 3999 C 380.53 -0.743606 -4.21491 0
M  V30 4000 C 379.856 0.0822027 -5.34637 0
M  V30 4001 C 381.156 -2.03694 -4.80943 0
M  V30 4002 H 382.85 -1.41862 -2.63658 0
M  V30 4003 H 380.396 -0.683571 -1.26741 0
M  V30 4004 H 382.349 0.459985 -4.18882 0
M  V30 4005 H 381.073 1.04711 -3.09359 0
M  V30 4006 H 379.732 -1.04347 -3.51436 0
M  V30 4007 H 379.38 0.986359 -4.93234 0
M  V30 4008 H 379.08 -0.508377 -5.85397 0
M  V30 4009 H 380.604 0.392797 -6.09335 0
M  V30 4010 H 382.018 -1.78504 -5.44802 0
M  V30 4011 H 380.415 -2.57573 -5.42011 0
M  V30 4012 H 381.485 -2.72042 -4.01399 0
M  V30 4013 N 382.828 1.3818 -0.7579 0
M  V30 4014 C 384.239 1.82726 -0.383134 0
M  V30 4015 C 384.59 1.63214 1.08884 0
M  V30 4016 O 383.715 1.13566 1.84205 0
M  V30 4017 C 384.31 3.31728 -0.688631 0
M  V30 4018 C 382.869 3.74606 -0.367091 0
M  V30 4019 C 382.016 2.60896 -0.939599 0
M  V30 4020 H 384.967 1.26847 -0.953699 0
M  V30 4021 H 384.988 3.80487 0.0316492 0
M  V30 4022 H 384.5 3.45898 -1.76001 0
M  V30 4023 H 382.601 3.66013 0.697532 0
M  V30 4024 H 382.714 4.71215 -0.865658 0
M  V30 4025 H 381.078 2.52075 -0.3647 0
M  V30 4026 H 381.861 2.77864 -2.0161 0
M  V30 4027 N 384.306 0.507319 1.49211 0
M  V30 4028 C 385.536 -0.0315292 2.06576 0
M  V30 4029 C 385.944 -1.30791 1.36713 0
M  V30 4030 O 385.287 -1.78324 0.441181 0
M  V30 4031 C 385.349 -0.349104 3.57801 0
M  V30 4032 C 385.013 0.830475 4.49391 0
M  V30 4033 C 386.01 1.72271 4.90529 0
M  V30 4034 C 383.695 1.03107 4.91604 0
M  V30 4035 C 385.689 2.79964 5.72625 0
M  V30 4036 C 383.376 2.11116 5.73475 0
M  V30 4037 C 384.374 2.99379 6.1389 0
M  V30 4038 O 384.062 4.05523 6.94123 0
M  V30 4039 H 383.794 0.0201002 0.675701 0
M  V30 4040 H 386.348 0.705737 1.92895 0
M  V30 4041 H 384.578 -1.14005 3.69513 0
M  V30 4042 H 386.267 -0.827319 3.97379 0
M  V30 4043 H 387.033 1.57958 4.58557 0
M  V30 4044 H 382.912 0.353417 4.59643 0
M  V30 4045 H 386.456 3.48884 6.04091 0
M  V30 4046 H 382.353 2.25421 6.0486 0
M  V30 4047 H 383.121 4.02953 7.1244 0
M  V30 4048 N 385.784 -1.5574 0.241426 0
M  V30 4049 C 386.714 -2.24133 -0.654722 0
M  V30 4050 C 387.695 -1.21974 -1.1856 0
M  V30 4051 O 388.88 -1.50612 -1.22595 0
M  V30 4052 C 386.01 -2.93659 -1.85423 0
M  V30 4053 C 384.964 -4.0246 -1.45636 0
M  V30 4054 C 384.29 -4.59383 -2.73626 0
M  V30 4055 C 385.59 -5.18468 -0.631506 0
M  V30 4056 H 387.284 -2.99281 -0.0844353 0
M  V30 4057 H 384.83 -1.43947 -0.0391707 0
M  V30 4058 H 386.783 -3.40203 -2.48676 0
M  V30 4059 H 385.507 -2.15991 -2.44981 0
M  V30 4060 H 384.166 -3.56676 -0.847202 0
M  V30 4061 H 383.814 -3.78422 -3.3137 0
M  V30 4062 H 383.514 -5.32826 -2.4773 0
M  V30 4063 H 385.038 -5.08658 -3.37786 0
M  V30 4064 H 386.452 -5.61272 -1.1682 0
M  V30 4065 H 384.849 -5.98266 -0.468831 0
M  V30 4066 H 385.919 -4.8358 0.357506 0
M  V30 4067 N 387.262 0.0317525 -1.57568 0
M  V30 4068 C 388.509 0.723104 -1.89149 0
M  V30 4069 C 388.837 1.75504 -0.838377 0
M  V30 4070 O 388.092 1.95037 0.160982 0
M  V30 4071 C 388.391 1.43167 -3.27472 0
M  V30 4072 C 388.057 0.535972 -4.47703 0
M  V30 4073 C 386.719 0.289262 -4.8033 0
M  V30 4074 C 389.071 -0.0826125 -5.21135 0
M  V30 4075 C 386.399 -0.584853 -5.83778 0
M  V30 4076 C 388.751 -0.944414 -6.25511 0
M  V30 4077 C 387.415 -1.20061 -6.56614 0
M  V30 4078 H 386.685 0.264602 -0.692146 0
M  V30 4079 H 389.332 -0.0169496 -1.91492 0
M  V30 4080 H 387.637 2.24497 -3.21105 0
M  V30 4081 H 389.334 1.97209 -3.49155 0
M  V30 4082 H 385.924 0.738414 -4.22191 0
M  V30 4083 H 390.108 0.0950302 -4.96209 0
M  V30 4084 H 385.364 -0.79168 -6.06253 0
M  V30 4085 H 389.538 -1.43026 -6.81554 0
M  V30 4086 H 387.165 -1.87967 -7.36595 0
M  V30 4087 N 388.74 1.54641 0.303973 0
M  V30 4088 C 389.988 1.73437 1.0375 0
M  V30 4089 C 390.309 0.521449 1.87899 0
M  V30 4090 O 389.579 -0.46432 1.90318 0
M  V30 4091 H 388.159 0.639518 0.386039 0
M  V30 4092 H 390.821 1.91988 0.335675 0
M  V30 4093 H 389.917 2.62235 1.69231 0
M  V30 4094 N 390.218 -0.567019 1.47046 0
M  V30 4095 C 391.148 -1.68482 1.61667 0
M  V30 4096 C 392.129 -1.6358 0.466418 0
M  V30 4097 O 393.314 -1.81354 0.694574 0
M  V30 4098 C 390.444 -3.07124 1.62148 0
M  V30 4099 C 389.398 -3.26867 2.76301 0
M  V30 4100 C 388.724 -4.66196 2.61849 0
M  V30 4101 C 390.024 -3.13186 4.17986 0
M  V30 4102 H 391.718 -1.56502 2.5524 0
M  V30 4103 H 389.264 -0.751486 1.22836 0
M  V30 4104 H 391.217 -3.8516 1.70968 0
M  V30 4105 H 389.941 -3.2004 0.651287 0
M  V30 4106 H 388.6 -2.51237 2.66975 0
M  V30 4107 H 388.248 -4.75898 1.62879 0
M  V30 4108 H 387.948 -4.80356 3.38425 0
M  V30 4109 H 389.472 -5.46379 2.72584 0
M  V30 4110 H 390.886 -3.81049 4.2834 0
M  V30 4111 H 389.283 -3.3886 4.95272 0
M  V30 4112 H 390.353 -2.10057 4.3704 0
M  V30 4113 N 391.696 -1.35014 -0.812953 0
M  V30 4114 C 393.112 -1.14914 -1.10757 0
M  V30 4115 C 393.312 0.0426818 -2.01455 0
M  V30 4116 O 392.368 0.715212 -2.42159 0
M  V30 4117 C 393.681 -2.44911 -1.74468 0
M  V30 4118 C 395.229 -2.5106 -1.86917 0
M  V30 4119 C 395.704 -3.81085 -2.54044 0
M  V30 4120 N 397.195 -3.82301 -2.61535 0
M  V30 4121 C 397.93 -4.79634 -3.14227 0
M  V30 4122 N 397.426 -5.87353 -3.67407 0
M  V30 4123 N 399.219 -4.67078 -3.12721 0
M  V30 4124 H 391.37 -2.1136 -0.20989 0
M  V30 4125 H 393.633 -0.935128 -0.155692 0
M  V30 4126 H 393.339 -3.32267 -1.15289 0
M  V30 4127 H 393.213 -2.58989 -2.74234 0
M  V30 4128 H 395.6 -1.64137 -2.45241 0
M  V30 4129 H 395.681 -2.40901 -0.860242 0
M  V30 4130 H 395.325 -4.68402 -1.96372 0
M  V30 4131 H 395.255 -3.88529 -3.55461 0
M  V30 4132 H 397.746 -3.04465 -2.23851 0
M  V30 4133 H 398.059 -6.57624 -4.05894 0
M  V30 4134 H 396.404 -5.91054 -3.65623 0
M  V30 4135 H 399.595 -3.82067 -2.70449 0
M  V30 4136 H 399.768 -5.43098 -3.53481 0
M  V30 4137 N 393.175 1.03435 -1.18907 0
M  V30 4138 C 394.423 1.76394 -0.986382 0
M  V30 4139 C 394.744 1.88883 0.484567 0
M  V30 4140 O 394.014 1.41843 1.3512 0
M  V30 4141 H 392.594 0.65344 -0.361975 0
M  V30 4142 H 395.256 1.248 -1.49703 0
M  V30 4143 H 394.352 2.77424 -1.42978 0
M  V30 4144 N 394.653 0.992116 1.22453 0
M  V30 4145 C 395.616 0.546883 2.2258 0
M  V30 4146 C 396.616 -0.369829 1.56489 0
M  V30 4147 O 397.806 -0.161896 1.73446 0
M  V30 4148 C 394.938 -0.204659 3.40285 0
M  V30 4149 H 396.131 1.43234 2.63484 0
M  V30 4150 H 393.684 0.779239 1.3549 0
M  V30 4151 H 394.419 -1.10614 3.04853 0
M  V30 4152 H 394.204 0.45354 3.89468 0
M  V30 4153 H 395.694 -0.504358 4.14543 0
M  V30 4154 N 396.131 -1.37776 0.765217 0
M  V30 4155 C 397.379 -1.99454 0.325943 0
M  V30 4156 C 397.7 -1.61049 -1.09947 0
M  V30 4157 O 396.97 -0.872821 -1.75381 0
M  V30 4158 H 395.55 -0.737697 0.117525 0
M  V30 4159 H 398.212 -1.68359 0.981895 0
M  V30 4160 H 397.308 -3.09547 0.398353 0
M  V30 4161 N 397.609 -0.515225 -1.4894 0
M  V30 4162 C 398.519 0.259774 -2.33157 0
M  V30 4163 C 399.535 0.953501 -1.45548 0
M  V30 4164 O 400.711 0.931735 -1.78552 0
M  V30 4165 C 397.776 1.30193 -3.21326 0
M  V30 4166 C 396.837 0.620129 -4.24797 0
M  V30 4167 C 396.07 1.61263 -5.08753 0
M  V30 4168 O 396.293 2.84389 -4.94448 0
M  V30 4169 O 395.227 1.16013 -5.90614 0
M  V30 4170 H 399.053 -0.429932 -3.00641 0
M  V30 4171 H 396.638 -0.276346 -1.46822 0
M  V30 4172 H 398.52 1.90455 -3.75905 0
M  V30 4173 H 397.195 1.97431 -2.56521 0
M  V30 4174 H 396.102 -0.0226019 -3.74093 0
M  V30 4175 H 397.435 -0.0100493 -4.92199 0
M  V30 4176 N 399.087 1.5561 -0.249682 0
M  V30 4177 C 400.327 2.00916 0.37579 0
M  V30 4178 C 400.691 1.13409 1.54927 0
M  V30 4179 O 401.892 1.48183 2.24266 0
M  V30 4180 C 400.163 3.48949 0.772633 0
M  V30 4181 S 401.722 4.16261 1.38824 0
M  V30 4182 H 398.54 0.70112 0.118117 0
M  V30 4183 H 401.142 1.92052 -0.365567 0
M  V30 4184 H 399.846 4.103 -0.090683 0
M  V30 4185 H 399.377 3.61745 1.5461 0
M  V30 4186 H 401.392 4.17778 2.67724 0
M  V30 4187 N 400.565 -0.0233959 1.57583 0
M  V30 4188 C 401.811 -0.714119 1.89811 0
M  V30 4189 C 402.144 -1.74702 0.848113 0
M  V30 4190 O 401.419 -1.94023 -0.136135 0
M  V30 4191 C 401.702 -1.37853 3.32669 0
M  V30 4192 C 401.555 -0.358764 4.48367 0
M  V30 4193 C 402.874 -2.31101 3.7454 0
M  V30 4194 H 399.993 -0.25814 0.690314 0
M  V30 4195 H 402.635 0.0230927 1.89986 0
M  V30 4196 H 400.785 -2.00689 3.3265 0
M  V30 4197 H 402.457 0.268115 4.6052 0
M  V30 4198 H 400.7 0.321387 4.32608 0
M  V30 4199 H 401.371 -0.862242 5.45224 0
M  V30 4200 H 403.847 -1.78304 3.75961 0
M  V30 4201 H 402.723 -2.74567 4.75294 0
M  V30 4202 H 402.984 -3.18018 3.0711 0
M  V30 4203 N 402.043 -1.548 -0.295768 0
M  V30 4204 C 402.975 -1.82492 -1.3867 0
M  V30 4205 C 403.988 -0.708134 -1.46592 0
M  V30 4206 O 405.177 -0.985686 -1.48817 0
M  V30 4207 C 402.277 -1.95256 -2.76999 0
M  V30 4208 C 401.45 -3.25709 -2.91946 0
M  V30 4209 C 400.509 -3.28824 -4.10806 0
M  V30 4210 O 399.535 -4.02328 -4.02643 0
M  V30 4211 N 400.737 -2.5459 -5.21694 0
M  V30 4212 H 403.502 -2.76646 -1.15269 0
M  V30 4213 H 401.063 -1.54438 -0.485849 0
M  V30 4214 H 403.055 -1.94736 -3.54768 0
M  V30 4215 H 401.625 -1.08072 -2.93324 0
M  V30 4216 H 400.845 -3.38959 -2.01247 0
M  V30 4217 H 402.133 -4.11786 -2.98847 0
M  V30 4218 H 401.531 -1.94512 -5.31208 0
M  V30 4219 H 400.088 -2.59818 -5.97778 0
M  V30 4220 N 403.521 0.559213 -1.47345 0
M  V30 4221 C 404.768 1.31648 -1.53867 0
M  V30 4222 C 405.096 1.93468 -0.200104 0
M  V30 4223 O 404.351 1.78295 0.806799 0
M  V30 4224 C 404.65 2.44853 -2.6035 0
M  V30 4225 C 404.316 2.00876 -4.03683 0
M  V30 4226 C 402.978 1.88599 -4.42701 0
M  V30 4227 C 405.33 1.67279 -4.93626 0
M  V30 4228 C 402.658 1.41017 -5.69501 0
M  V30 4229 C 405.01 1.21169 -6.20887 0
M  V30 4230 C 403.674 1.07487 -6.58789 0
M  V30 4231 H 402.944 0.481734 -0.56304 0
M  V30 4232 H 405.591 0.627301 -1.80934 0
M  V30 4233 H 403.896 3.19318 -2.27032 0
M  V30 4234 H 405.593 3.03039 -2.62619 0
M  V30 4235 H 402.183 2.11374 -3.72853 0
M  V30 4236 H 406.367 1.75638 -4.64182 0
M  V30 4237 H 401.623 1.29086 -5.97618 0
M  V30 4238 H 405.797 0.942345 -6.89995 0
M  V30 4239 H 403.424 0.703946 -7.56934 0
M  V30 4240 N 404.999 1.35443 0.805782 0
M  V30 4241 C 405.949 1.24972 1.90699 0
M  V30 4242 C 406.933 0.144806 1.60247 0
M  V30 4243 O 408.125 0.376102 1.72958 0
M  V30 4244 C 405.254 1.02475 3.27649 0
M  V30 4245 C 404.34 2.17361 3.64164 0
M  V30 4246 N 404.731 3.42591 3.72109 0
M  V30 4247 C 403.029 2.08765 3.94123 0
M  V30 4248 C 403.73 4.18144 4.04389 0
M  V30 4249 N 402.706 3.4691 4.18515 0
M  V30 4250 H 406.508 2.19852 1.95044 0
M  V30 4251 H 404.022 1.27928 1.00041 0
M  V30 4252 H 406.019 0.930617 4.06381 0
M  V30 4253 H 404.679 0.0848009 3.24589 0
M  V30 4254 H 405.69 3.76932 3.55166 0
M  V30 4255 H 402.367 1.22629 3.99084 0
M  V30 4256 H 403.757 5.26367 4.17597 0
M  V30 4257 N 406.477 -1.02803 1.19454 0
M  V30 4258 C 407.888 -1.57667 0.999899 0
M  V30 4259 C 408.239 -1.91041 -0.446956 0
M  V30 4260 O 407.364 -1.70978 -1.32648 0
M  V30 4261 C 407.959 -2.86477 1.80877 0
M  V30 4262 C 406.518 -3.37911 1.65811 0
M  V30 4263 C 405.665 -2.11343 1.79526 0
M  V30 4264 H 408.616 -0.853214 1.33813 0
M  V30 4265 H 408.637 -3.57408 1.30536 0
M  V30 4266 H 408.149 -2.62155 2.86175 0
M  V30 4267 H 406.25 -3.67218 0.63102 0
M  V30 4268 H 406.363 -4.10885 2.46395 0
M  V30 4269 H 404.727 -2.23254 1.22596 0
M  V30 4270 H 405.51 -1.89461 2.86285 0
M  V30 4271 N 407.956 -0.998596 -1.21925 0
M  V30 4272 C 409.233 -0.593401 -1.86382 0
M  V30 4273 C 409.613 0.92916 -1.89552 0
M  V30 4274 O 408.961 1.81347 -1.39017 0
M  V30 4275 C 409.171 -1.22039 -3.26967 0
M  V30 4276 C 410.519 -1.32449 -4.03413 0
M  V30 4277 O 411.543 -1.17522 -3.36254 0
M  V30 4278 O 410.402 -1.56395 -5.23644 0
M  V30 4279 H 407.496 -0.202385 -0.801854 0
M  V30 4280 H 410.042 -1.09484 -1.29659 0
M  V30 4281 H 408.814 -2.26158 -3.19325 0
M  V30 4282 H 408.437 -0.704906 -3.91301 0
M  V30 4283 N 409.434 1.37368 -0.772513 0
M  V30 4284 C 410.381 2.30262 -0.157488 0
M  V30 4285 C 411.351 1.51137 0.688965 0
M  V30 4286 O 412.536 1.79704 0.641168 0
M  V30 4287 C 409.676 3.37611 0.715045 0
M  V30 4288 C 408.789 4.31746 -0.148098 0
M  V30 4289 C 407.924 5.26171 0.729213 0
M  V30 4290 C 406.963 6.11948 -0.136418 0
M  V30 4291 N 406.1 6.98613 0.698914 0
M  V30 4292 H 410.94 2.82277 -0.955179 0
M  V30 4293 H 408.477 1.38957 -0.482631 0
M  V30 4294 H 410.435 3.98479 1.23575 0
M  V30 4295 H 409.065 2.86959 1.47833 0
M  V30 4296 H 408.117 3.72178 -0.786613 0
M  V30 4297 H 409.429 4.92084 -0.81579 0
M  V30 4298 H 408.583 5.92247 1.31637 0
M  V30 4299 H 407.322 4.66246 1.43059 0
M  V30 4300 H 406.327 5.4485 -0.736102 0
M  V30 4301 H 407.552 6.73945 -0.835134 0
M  V30 4302 H 405.498 6.41215 1.38489 0
M  V30 4303 H 405.415 7.55948 0.0885358 0
M  V30 4304 H 406.683 7.69077 1.27044 0
M  V30 4305 N 410.912 0.523116 1.48665 0
M  V30 4306 C 412.323 0.0808997 1.86525 0
M  V30 4307 C 412.674 -1.33975 1.43336 0
M  V30 4308 O 411.799 -2.00221 0.821009 0
M  V30 4309 C 412.394 0.140037 3.3851 0
M  V30 4310 C 410.953 -0.246948 3.75589 0
M  V30 4311 C 410.1 0.502845 2.72703 0
M  V30 4312 H 413.051 0.734736 1.40667 0
M  V30 4313 H 413.072 -0.649945 3.74908 0
M  V30 4314 H 412.584 1.17412 3.69914 0
M  V30 4315 H 410.685 -1.28343 3.49798 0
M  V30 4316 H 410.798 0.0878859 4.79019 0
M  V30 4317 H 409.162 -0.0500581 2.54651 0
M  V30 4318 H 409.945 1.53743 3.0695 0
M  V30 4319 N 412.39 -1.55475 0.257931 0
M  V30 4320 C 413.353 -2.20551 -0.623706 0
M  V30 4321 C 414.353 -1.17809 -1.09443 0
M  V30 4322 O 415.543 -1.42823 -0.997362 0
M  V30 4323 C 412.675 -2.85784 -1.8585 0
M  V30 4324 H 413.868 -2.99848 -0.0557743 0
M  V30 4325 H 411.421 -1.56298 0.0084422 0
M  V30 4326 H 412.156 -2.10453 -2.46739 0
M  V30 4327 H 411.941 -3.61057 -1.52907 0
M  V30 4328 H 413.431 -3.35553 -2.48584 0
M  V30 4329 N 413.868 0.0150385 -1.57593 0
M  V30 4330 C 414.8 1.03912 -2.04291 0
M  V30 4331 C 415.813 1.31618 -0.958146 0
M  V30 4332 O 417.002 1.28859 -1.23522 0
M  V30 4333 C 414.102 2.37749 -2.41514 0
M  V30 4334 C 413.275 2.29198 -3.72541 0
M  V30 4335 C 412.334 3.45598 -3.96797 0
M  V30 4336 O 411.36 3.24461 -4.67668 0
M  V30 4337 N 412.562 4.67945 -3.43523 0
M  V30 4338 H 415.327 0.64099 -2.92765 0
M  V30 4339 H 412.888 0.20272 -1.60626 0
M  V30 4340 H 414.88 3.14364 -2.54867 0
M  V30 4341 H 413.45 2.69357 -1.58637 0
M  V30 4342 H 412.67 1.3759 -3.69408 0
M  V30 4343 H 413.958 2.20642 -4.5847 0
M  V30 4344 H 413.356 4.88017 -2.86104 0
M  V30 4345 H 411.913 5.41878 -3.62232 0
M  V30 4346 N 415.346 1.54954 0.287554 0
M  V30 4347 C 416.595 1.74081 1.01877 0
M  V30 4348 C 416.908 0.541135 1.87966 0
M  V30 4349 O 418.114 0.614491 2.64455 0
M  V30 4350 C 416.57 3.08042 1.86113 0
M  V30 4351 C 416.178 4.35531 1.04961 0
M  V30 4352 C 417.922 3.36523 2.58752 0
M  V30 4353 C 415.829 5.60538 1.88551 0
M  V30 4354 H 414.759 0.64884 0.384087 0
M  V30 4355 H 417.41 1.81426 0.275101 0
M  V30 4356 H 415.792 2.94696 2.64519 0
M  V30 4357 H 416.966 4.59751 0.31074 0
M  V30 4358 H 415.281 4.14085 0.43843 0
M  V30 4359 H 417.878 4.27122 3.21668 0
M  V30 4360 H 418.221 2.56 3.28283 0
M  V30 4361 H 418.754 3.50901 1.87386 0
M  V30 4362 H 415.493 6.43767 1.23466 0
M  V30 4363 H 415.013 5.40483 2.60074 0
M  V30 4364 H 416.692 5.98297 2.46273 0
M  V30 4365 N 416.824 -0.551391 1.4764 0
M  V30 4366 C 418.073 -1.30467 1.53822 0
M  V30 4367 C 418.386 -1.94495 0.207661 0
M  V30 4368 O 419.592 -2.71099 0.147533 0
M  V30 4369 C 418.048 -2.36616 2.71184 0
M  V30 4370 C 417.656 -1.78754 4.10793 0
M  V30 4371 C 419.4 -3.13088 2.86663 0
M  V30 4372 C 417.307 -2.82717 5.19447 0
M  V30 4373 H 416.237 -0.490584 0.572576 0
M  V30 4374 H 418.888 -0.58494 1.73927 0
M  V30 4375 H 417.27 -3.11529 2.4447 0
M  V30 4376 H 418.444 -1.10173 4.47435 0
M  V30 4377 H 416.759 -1.14846 4.00249 0
M  V30 4378 H 419.356 -3.90736 3.65007 0
M  V30 4379 H 419.699 -3.67635 1.95321 0
M  V30 4380 H 420.232 -2.45288 3.13175 0
M  V30 4381 H 416.971 -2.33018 6.12685 0
M  V30 4382 H 416.491 -3.4969 4.87316 0
M  V30 4383 H 418.17 -3.46102 5.46646 0
M  V30 4384 N 418.302 -1.35869 -0.798587 0
M  V30 4385 C 419.232 -1.32118 -1.92528 0
M  V30 4386 C 420.213 -0.194209 -1.68988 0
M  V30 4387 O 421.398 -0.390426 -1.90235 0
M  V30 4388 C 418.528 -1.10047 -3.29404 0
M  V30 4389 C 417.482 -2.19471 -3.67446 0
M  V30 4390 C 416.808 -1.82555 -5.02571 0
M  V30 4391 C 418.108 -3.61495 -3.76987 0
M  V30 4392 H 419.802 -2.26394 -1.95924 0
M  V30 4393 H 417.348 -1.08981 -0.94123 0
M  V30 4394 H 419.301 -1.06061 -4.07835 0
M  V30 4395 H 418.025 -0.122195 -3.26371 0
M  V30 4396 H 416.684 -2.22568 -2.91306 0
M  V30 4397 H 416.332 -0.833249 -4.9605 0
M  V30 4398 H 416.032 -2.5581 -5.28995 0
M  V30 4399 H 417.556 -1.80108 -5.83432 0
M  V30 4400 H 418.97 -3.60676 -4.4563 0
M  V30 4401 H 417.367 -4.33577 -4.14887 0
M  V30 4402 H 418.437 -3.97065 -2.78329 0
M  V30 4403 N 419.78 1.02168 -1.19998 0
M  V30 4404 C 421.026 1.75945 -1.00852 0
M  V30 4405 C 421.359 1.88702 0.458828 0
M  V30 4406 O 420.634 1.40911 1.34069 0
M  V30 4407 C 420.917 3.18154 -1.68671 0
M  V30 4408 C 420.77 3.13224 -3.22817 0
M  V30 4409 C 422.089 4.16711 -1.41561 0
M  V30 4410 H 419.208 0.638673 -0.367785 0
M  V30 4411 H 421.85 1.19222 -1.4794 0
M  V30 4412 H 420 3.66586 -1.28636 0
M  V30 4413 H 421.672 2.72635 -3.72112 0
M  V30 4414 H 419.915 2.50751 -3.53986 0
M  V30 4415 H 420.586 4.13728 -3.65422 0
M  V30 4416 H 423.062 3.76913 -1.76284 0
M  V30 4417 H 421.938 5.14391 -1.91553 0
M  V30 4418 H 422.199 4.40774 -0.342193 0
M  V30 4419 N 421.258 1.00505 1.21394 0
M  V30 4420 C 422.669 0.721082 1.72213 0
M  V30 4421 C 423.02 -0.761263 1.80829 0
M  V30 4422 O 422.145 -1.59464 1.46288 0
M  V30 4423 C 422.74 1.30228 3.12772 0
M  V30 4424 C 421.299 1.06743 3.60947 0
M  V30 4425 C 420.446 1.41507 2.38477 0
M  V30 4426 H 423.397 1.17594 1.06571 0
M  V30 4427 H 423.418 0.686955 3.74247 0
M  V30 4428 H 422.93 2.38115 3.06468 0
M  V30 4429 H 421.031 0.00572162 3.726 0
M  V30 4430 H 421.144 1.73936 4.46411 0
M  V30 4431 H 419.508 0.833852 2.40664 0
M  V30 4432 H 420.291 2.50424 2.34824 0
M  V30 4433 N 422.737 -1.36956 0.779787 0
M  V30 4434 C 424.153 -1.52817 0.460342 0
M  V30 4435 C 424.353 -1.7361 -1.02283 0
M  V30 4436 O 423.409 -1.76207 -1.80852 0
M  V30 4437 C 424.722 -2.71983 1.28241 0
M  V30 4438 C 426.27 -2.85849 1.27512 0
M  V30 4439 C 426.745 -4.08008 2.08072 0
M  V30 4440 N 428.236 -4.15135 2.05467 0
M  V30 4441 C 428.971 -5.08711 2.64577 0
M  V30 4442 N 428.467 -6.07792 3.32506 0
M  V30 4443 N 430.26 -5.01254 2.54363 0
M  V30 4444 H 422.411 -1.21713 1.74068 0
M  V30 4445 H 424.674 -0.593294 0.739396 0
M  V30 4446 H 424.38 -2.63109 2.33381 0
M  V30 4447 H 424.254 -3.65882 0.917088 0
M  V30 4448 H 426.641 -2.94189 0.231686 0
M  V30 4449 H 426.722 -1.92886 1.68014 0
M  V30 4450 H 426.366 -4.00429 3.12441 0
M  V30 4451 H 426.296 -5.001 1.64947 0
M  V30 4452 H 428.787 -3.44189 1.5602 0
M  V30 4453 H 429.1 -6.75739 3.74963 0
M  V30 4454 H 427.445 -6.08047 3.36606 0
M  V30 4455 H 430.636 -4.22795 2.00902 0
M  V30 4456 H 430.809 -5.73995 3.00722 0
M  V30 4457 N 424.215 -0.530993 -1.48385 0
M  V30 4458 C 425.492 0.0671788 -1.95485 0
M  V30 4459 C 425.872 1.51191 -1.47324 0
M  V30 4460 O 425.22 2.17507 -0.700202 0
M  V30 4461 C 425.43 -0.0511206 -3.48963 0
M  V30 4462 C 426.778 0.107632 -4.24464 0
M  V30 4463 O 427.802 0.0226248 -3.56193 0
M  V30 4464 O 426.661 0.285972 -5.45751 0
M  V30 4465 H 423.755 0.0787365 -0.823243 0
M  V30 4466 H 426.301 -0.595662 -1.58902 0
M  V30 4467 H 425.073 -1.05747 -3.7674 0
M  V30 4468 H 424.696 0.650525 -3.92242 0
M  V30 4469 N 425.693 1.55336 -0.266172 0
M  V30 4470 C 426.941 1.99003 0.35246 0
M  V30 4471 C 427.262 1.15591 1.57047 0
M  V30 4472 O 426.532 0.243268 1.94384 0
M  V30 4473 H 425.112 0.735025 0.133217 0
M  V30 4474 H 427.774 1.91367 -0.369434 0
M  V30 4475 H 426.87 3.05289 0.648453 0
M  V30 4476 N 427.171 -0.0066808 1.57599 0
M  V30 4477 C 428.419 -0.691552 1.899 0
M  V30 4478 C 428.74 -1.74682 0.866672 0
M  V30 4479 O 428.01 -1.95661 -0.0968189 0
M  V30 4480 H 426.59 -0.258416 0.700878 0
M  V30 4481 H 429.252 0.0326655 1.94873 0
M  V30 4482 H 428.348 -1.16702 2.8946 0
M  V30 4483 N 428.649 -1.55105 -0.279332 0
M  V30 4484 C 429.559 -1.90638 -1.36727 0
M  V30 4485 C 430.575 -0.802899 -1.54368 0
M  V30 4486 O 431.751 -1.10138 -1.68616 0
M  V30 4487 C 428.816 -2.16547 -2.70755 0
M  V30 4488 C 427.877 -3.40146 -2.61915 0
M  V30 4489 C 427.11 -3.6481 -3.8955 0
M  V30 4490 O 427.333 -2.92095 -4.89935 0
M  V30 4491 O 426.267 -4.58343 -3.90135 0
M  V30 4492 H 430.093 -2.83237 -1.09591 0
M  V30 4493 H 427.678 -1.4157 -0.477306 0
M  V30 4494 H 429.56 -2.34665 -3.50014 0
M  V30 4495 H 428.235 -1.27131 -2.9769 0
M  V30 4496 H 427.142 -3.2737 -1.81052 0
M  V30 4497 H 428.475 -4.29761 -2.3993 0
M  V30 4498 N 430.127 0.543554 -1.4793 0
M  V30 4499 C 431.376 1.29649 -1.54512 0
M  V30 4500 C 431.689 1.94382 -0.217973 0
M  V30 4501 O 432.895 2.71017 -0.161908 0
M  V30 4502 C 431.351 2.35175 -2.72435 0
M  V30 4503 C 430.959 1.76572 -4.11736 0
M  V30 4504 C 432.703 3.11564 -2.8832 0
M  V30 4505 C 430.61 2.79958 -5.20939 0
M  V30 4506 H 429.54 0.487541 -0.57517 0
M  V30 4507 H 432.191 0.575708 -1.74235 0
M  V30 4508 H 430.573 3.10229 -2.46118 0
M  V30 4509 H 431.747 1.07799 -4.48013 0
M  V30 4510 H 430.062 1.12722 -4.00852 0
M  V30 4511 H 432.659 3.88794 -3.67074 0
M  V30 4512 H 433.002 3.66594 -1.97268 0
M  V30 4513 H 433.535 2.43623 -3.14472 0
M  V30 4514 H 430.274 2.29766 -6.13912 0
M  V30 4515 H 429.794 3.47101 -4.89164 0
M  V30 4516 H 431.473 3.43198 -5.48474 0
M  V30 4517 N 431.605 1.3629 0.791371 0
M  V30 4518 C 432.552 1.30458 1.90393 0
M  V30 4519 C 433.522 0.173632 1.6519 0
M  V30 4520 O 434.707 0.35983 1.87376 0
M  V30 4521 C 431.847 1.09777 3.27174 0
M  V30 4522 C 430.96 2.31929 3.64462 0
M  V30 4523 C 430.095 2.04276 4.90352 0
M  V30 4524 C 429.134 3.224 5.20312 0
M  V30 4525 N 428.271 2.94424 6.37385 0
M  V30 4526 H 433.111 2.25589 1.94714 0
M  V30 4527 H 430.648 1.12122 0.952216 0
M  V30 4528 H 432.606 0.958133 4.06049 0
M  V30 4529 H 431.236 0.183014 3.22281 0
M  V30 4530 H 430.288 2.56703 2.80727 0
M  V30 4531 H 431.6 3.20085 3.82553 0
M  V30 4532 H 430.754 1.87231 5.77087 0
M  V30 4533 H 429.493 1.13428 4.74326 0
M  V30 4534 H 428.498 3.40005 4.32061 0
M  V30 4535 H 429.723 4.14071 5.38258 0
M  V30 4536 H 427.669 2.06185 6.22755 0
M  V30 4537 H 427.586 3.76118 6.55798 0
M  V30 4538 H 428.854 2.80953 7.27108 0
M  V30 4539 N 433.083 -1.0153 1.20538 0
M  V30 4540 C 434.499 -1.27461 0.96051 0
M  V30 4541 C 434.699 -1.98273 -0.359193 0
M  V30 4542 O 433.755 -2.27886 -1.0874 0
M  V30 4543 C 435.068 -2.10837 2.14402 0
M  V30 4544 C 436.616 -2.24099 2.18515 0
M  V30 4545 C 437.091 -3.10852 3.36355 0
M  V30 4546 N 438.582 -3.18441 3.36377 0
M  V30 4547 C 439.317 -3.85795 4.24205 0
M  V30 4548 N 438.813 -4.55264 5.22213 0
M  V30 4549 N 440.606 -3.82331 4.12043 0
M  V30 4550 H 432.757 -0.539907 2.05423 0
M  V30 4551 H 435.02 -0.30092 0.898972 0
M  V30 4552 H 434.726 -1.66144 3.09983 0
M  V30 4553 H 434.6 -3.11576 2.12604 0
M  V30 4554 H 436.987 -2.68016 1.23497 0
M  V30 4555 H 437.068 -1.22865 2.24361 0
M  V30 4556 H 436.712 -2.6764 4.31661 0
M  V30 4557 H 436.642 -4.12177 3.27746 0
M  V30 4558 H 439.133 -2.68978 2.65442 0
M  V30 4559 H 439.446 -5.04331 5.85551 0
M  V30 4560 H 437.791 -4.54085 5.26148 0
M  V30 4561 H 440.982 -3.27207 3.34743 0
M  V30 4562 H 441.155 -4.34547 4.807 0
M  V30 4563 N 434.561 -1.01147 -1.20859 0
M  V30 4564 C 435.81 -0.693214 -1.89413 0
M  V30 4565 C 436.123 0.779969 -1.79376 0
M  V30 4566 O 437.329 1.21057 -2.43017 0
M  V30 4567 C 435.785 -1.18949 -3.39675 0
M  V30 4568 C 435.393 -2.68921 -3.58309 0
M  V30 4569 C 437.137 -0.94642 -4.13815 0
M  V30 4570 C 435.044 -3.12056 -5.0237 0
M  V30 4571 H 433.974 -0.255595 -0.709357 0
M  V30 4572 H 436.625 -1.22349 -1.36759 0
M  V30 4573 H 435.007 -0.587228 -3.91622 0
M  V30 4574 H 436.181 -3.34652 -3.16772 0
M  V30 4575 H 434.496 -2.91314 -2.97532 0
M  V30 4576 H 437.093 -1.24417 -5.20023 0
M  V30 4577 H 437.436 0.117219 -4.16135 0
M  V30 4578 H 437.969 -1.5118 -3.67953 0
M  V30 4579 H 434.708 -4.17674 -5.05202 0
M  V30 4580 H 434.228 -2.51041 -5.44737 0
M  V30 4581 H 435.907 -3.04403 -5.70918 0
M  V30 4582 N 436.039 1.36541 -0.78704 0
M  V30 4583 C 437.45 1.81873 -0.421807 0
M  V30 4584 C 437.801 1.65487 1.05397 0
M  V30 4585 O 436.926 1.17448 1.81755 0
M  V30 4586 C 437.521 3.30192 -0.758841 0
M  V30 4587 C 436.08 3.73743 -0.446468 0
M  V30 4588 C 435.227 2.58844 -0.994728 0
M  V30 4589 H 438.178 1.24796 -0.98039 0
M  V30 4590 H 438.199 3.80468 -0.0490648 0
M  V30 4591 H 437.711 3.42087 -1.83299 0
M  V30 4592 H 435.812 3.6741 0.619739 0
M  V30 4593 H 435.925 4.69272 -0.965415 0
M  V30 4594 H 434.289 2.51245 -0.418087 0
M  V30 4595 H 435.072 2.73525 -2.07458 0
M  V30 4596 N 437.518 0.538854 1.48102 0
M  V30 4597 C 438.764 0.00801365 2.02798 0
M  V30 4598 C 439.097 -1.3309 1.41424 0
M  V30 4599 O 438.372 -1.86169 0.563158 0
M  V30 4600 C 438.655 -0.104589 3.59948 0
M  V30 4601 C 438.508 1.26012 4.31788 0
M  V30 4602 C 439.827 -0.827055 4.32259 0
M  V30 4603 H 436.946 0.00438624 0.736987 0
M  V30 4604 H 439.588 0.6976 1.7673 0
M  V30 4605 H 437.738 -0.691893 3.82289 0
M  V30 4606 H 439.41 1.88922 4.2084 0
M  V30 4607 H 437.653 1.83968 3.92859 0
M  V30 4608 H 438.324 1.13424 5.40221 0
M  V30 4609 H 440.8 -0.328578 4.14801 0
M  V30 4610 H 439.676 -0.87476 5.41885 0
M  V30 4611 H 439.937 -1.87927 4.0017 0
M  V30 4612 N 438.996 -1.55193 0.274407 0
M  V30 4613 C 439.928 -2.1989 -0.646595 0
M  V30 4614 C 440.941 -1.1834 -1.11801 0
M  V30 4615 O 442.13 -1.4507 -1.04004 0
M  V30 4616 C 439.23 -2.8104 -1.89393 0
M  V30 4617 C 438.403 -4.08274 -1.56943 0
M  V30 4618 C 437.462 -4.53478 -2.66916 0
M  V30 4619 O 436.488 -5.19267 -2.33132 0
M  V30 4620 N 437.69 -4.2356 -3.9696 0
M  V30 4621 H 440.455 -2.99556 -0.0928686 0
M  V30 4622 H 438.016 -1.61618 0.0954783 0
M  V30 4623 H 440.008 -3.08226 -2.62257 0
M  V30 4624 H 438.578 -2.05372 -2.35672 0
M  V30 4625 H 437.798 -3.88384 -0.674655 0
M  V30 4626 H 439.086 -4.91173 -1.32764 0
M  V30 4627 H 438.484 -3.70799 -4.27229 0
M  V30 4628 H 437.041 -4.55518 -4.66205 0
M  V30 4629 N 440.474 -0.00167713 -1.576 0
M  V30 4630 C 441.437 0.974046 -2.07473 0
M  V30 4631 C 442.437 1.27143 -0.984444 0
M  V30 4632 O 443.627 1.21633 -1.24703 0
M  V30 4633 C 440.759 2.29849 -2.51759 0
M  V30 4634 H 441.952 0.54262 -2.9495 0
M  V30 4635 H 439.505 0.245829 -1.54355 0
M  V30 4636 H 440.24 2.77677 -1.67529 0
M  V30 4637 H 440.025 2.09584 -3.31386 0
M  V30 4638 H 441.515 2.9984 -2.90664 0
M  V30 4639 N 441.952 1.55251 0.271103 0
M  V30 4640 C 443.2 1.75599 1.00047 0
M  V30 4641 C 443.521 0.561188 1.8675 0
M  V30 4642 O 442.791 -0.423846 1.9126 0
M  V30 4643 H 441.371 0.647562 0.372387 0
M  V30 4644 H 444.033 1.92656 0.294876 0
M  V30 4645 H 443.129 2.65766 1.6363 0
M  V30 4646 N 443.43 -0.535701 1.48216 0
M  V30 4647 C 444.677 -1.29183 1.55942 0
M  V30 4648 C 445.005 -1.93125 0.230857 0
M  V30 4649 O 444.26 -1.79556 -0.778331 0
M  V30 4650 C 444.559 -2.4068 2.64212 0
M  V30 4651 C 444.225 -1.94428 4.06827 0
M  V30 4652 C 442.887 -1.81532 4.45645 0
M  V30 4653 C 445.239 -1.59405 4.96225 0
M  V30 4654 C 442.567 -1.31939 5.71672 0
M  V30 4655 C 444.919 -1.11276 6.22736 0
M  V30 4656 C 443.583 -0.969924 6.60416 0
M  V30 4657 H 442.853 -0.472715 0.570632 0
M  V30 4658 H 445.5 -0.598437 1.81909 0
M  V30 4659 H 443.805 -3.15666 2.32083 0
M  V30 4660 H 445.502 -2.98822 2.67407 0
M  V30 4661 H 442.092 -2.05415 3.76168 0
M  V30 4662 H 446.276 -1.68231 4.66917 0
M  V30 4663 H 441.532 -1.19562 5.99596 0
M  V30 4664 H 445.706 -0.832453 6.91407 0
M  V30 4665 H 443.333 -0.583436 7.57958 0
M  V30 4666 N 444.908 -1.36708 -0.784132 0
M  V30 4667 C 446.154 -1.31426 -1.54451 0
M  V30 4668 C 446.487 0.10476 -1.93917 0
M  V30 4669 O 445.762 1.05934 -1.6312 0
M  V30 4670 C 446.045 -2.24189 -2.818 0
M  V30 4671 C 445.898 -3.74813 -2.48667 0
M  V30 4672 C 447.217 -2.15626 -3.83658 0
M  V30 4673 H 444.336 -0.478739 -0.560337 0
M  V30 4674 H 446.978 -1.67305 -0.900498 0
M  V30 4675 H 445.128 -1.93722 -3.36755 0
M  V30 4676 H 446.8 -4.15823 -1.99722 0
M  V30 4677 H 445.043 -3.93989 -1.81535 0
M  V30 4678 H 445.714 -4.35138 -3.39646 0
M  V30 4679 H 448.19 -2.42456 -3.38163 0
M  V30 4680 H 447.066 -2.82694 -4.70506 0
M  V30 4681 H 447.327 -1.14522 -4.27009 0
M  V30 4682 N 446.386 1.0089 -1.21074 0
M  V30 4683 C 447.633 1.74607 -1.0256 0
M  V30 4684 C 447.961 1.89426 0.44136 0
M  V30 4685 O 447.216 1.42266 1.34384 0
M  V30 4686 C 447.515 3.16335 -1.66334 0
M  V30 4687 C 447.181 3.21474 -3.16173 0
M  V30 4688 C 445.843 3.22583 -3.57062 0
M  V30 4689 C 448.195 3.19025 -4.12156 0
M  V30 4690 C 445.523 3.18925 -4.92446 0
M  V30 4691 C 447.875 3.16909 -5.47496 0
M  V30 4692 C 446.539 3.16326 -5.87787 0
M  V30 4693 H 445.809 0.638933 -0.375294 0
M  V30 4694 H 448.456 1.18274 -1.50611 0
M  V30 4695 H 446.761 3.75876 -1.10566 0
M  V30 4696 H 448.458 3.72083 -1.49516 0
M  V30 4697 H 445.048 3.2135 -2.83605 0
M  V30 4698 H 449.232 3.17332 -3.81595 0
M  V30 4699 H 444.488 3.16809 -5.22917 0
M  V30 4700 H 448.662 3.13968 -6.21609 0
M  V30 4701 H 446.289 3.13246 -6.92662 0
M  V30 4702 N 447.864 1.01787 1.20321 0
M  V30 4703 C 448.814 0.559976 2.21016 0
M  V30 4704 C 449.798 -0.385366 1.56217 0
M  V30 4705 O 450.99 -0.208126 1.75772 0
M  V30 4706 C 448.119 -0.0990553 3.43157 0
M  V30 4707 C 447.205 0.86807 4.15121 0
M  V30 4708 N 447.596 2.0261 4.63447 0
M  V30 4709 C 445.894 0.689162 4.40643 0
M  V30 4710 C 446.595 2.63518 5.18588 0
M  V30 4711 N 445.571 1.91569 5.08726 0
M  V30 4712 H 449.373 1.44281 2.56048 0
M  V30 4713 H 446.887 0.883381 1.36272 0
M  V30 4714 H 448.884 -0.444643 4.14522 0
M  V30 4715 H 447.544 -0.977709 3.0963 0
M  V30 4716 H 448.555 2.40598 4.58621 0
M  V30 4717 H 445.232 -0.14133 4.17261 0
M  V30 4718 H 446.622 3.61527 5.66346 0
M  V30 4719 N 449.342 -1.36122 0.79427 0
M  V30 4720 C 450.292 -2.27373 0.169017 0
M  V30 4721 C 451.276 -1.4719 -0.649913 0
M  V30 4722 O 452.468 -1.69518 -0.50919 0
M  V30 4723 C 449.597 -3.36264 -0.691455 0
M  V30 4724 C 448.683 -4.2388 0.13653 0
M  V30 4725 N 449.074 -4.91519 1.19345 0
M  V30 4726 C 447.372 -4.45921 -0.0838499 0
M  V30 4727 C 448.073 -5.56369 1.6979 0
M  V30 4728 N 447.049 -5.34204 1.00634 0
M  V30 4729 H 450.851 -2.77154 0.977897 0
M  V30 4730 H 448.365 -1.49504 0.634208 0
M  V30 4731 H 450.362 -4.00572 -1.15534 0
M  V30 4732 H 449.022 -2.88037 -1.49883 0
M  V30 4733 H 450.033 -4.9334 1.57594 0
M  V30 4734 H 446.71 -4.08518 -0.861341 0
M  V30 4735 H 448.1 -6.20368 2.58055 0
M  V30 4736 N 450.82 -0.546701 -1.47814 0
M  V30 4737 C 451.783 0.196287 -2.28358 0
M  V30 4738 C 452.783 0.852437 -1.36346 0
M  V30 4739 O 453.973 0.709913 -1.59078 0
M  V30 4740 C 451.105 1.28579 -3.15722 0
M  V30 4741 H 452.298 -0.511086 -2.95513 0
M  V30 4742 H 449.851 -0.303248 -1.5333 0
M  V30 4743 H 450.586 2.0259 -2.53235 0
M  V30 4744 H 450.371 0.820229 -3.83425 0
M  V30 4745 H 451.861 1.80793 -3.76435 0
M  V30 4746 N 452.299 1.55045 -0.282633 0
M  V30 4747 C 453.247 2.24254 0.617478 0
M  V30 4748 C 454.241 1.24215 1.15183 0
M  V30 4749 O 455.447 1.42123 1.10459 0
M  V30 4750 H 451.822 0.719801 0.217693 0
M  V30 4751 H 453.793 2.98398 0.0110076 0
M  V30 4752 C 452.542 2.98281 1.78672 0
M  V30 4753 H 451.865 3.75053 1.38475 0
M  V30 4754 H 453.305 3.50017 2.393 0
M  V30 4755 C 451.764 2.04184 2.67975 0
M  V30 4756 O 452.294 1.59792 3.6855 0
M  V30 4757 N 450.5 1.70526 2.35307 0
M  V30 4758 H 450.047 2.06821 1.53567 0
M  V30 4759 H 450.005 1.07839 2.95327 0
M  V30 4760 N 453.777 0.010035 1.57597 0
M  V30 4761 C 454.74 -0.963029 2.07986 0
M  V30 4762 C 455.74 -1.26619 0.991173 0
M  V30 4763 O 456.93 -1.2097 1.25347 0
M  V30 4764 C 454.062 -2.2851 2.52974 0
M  V30 4765 H 455.255 -0.526971 2.95234 0
M  V30 4766 H 452.808 -0.237639 1.54483 0
M  V30 4767 H 453.543 -2.76784 1.69 0
M  V30 4768 H 453.328 -2.07824 3.32493 0
M  V30 4769 H 454.818 -2.98294 2.9225 0
M  V30 4770 N 455.255 -1.55392 -0.262866 0
M  V30 4771 C 456.502 -1.76476 -0.993109 0
M  V30 4772 C 456.83 -0.571479 -1.85915 0
M  V30 4773 O 456.085 0.445733 -1.90556 0
M  V30 4774 C 456.384 -3.02889 -1.89718 0
M  V30 4775 C 456.05 -4.34974 -1.18781 0
M  V30 4776 C 454.712 -4.7087 -0.991699 0
M  V30 4777 C 457.064 -5.16695 -0.683798 0
M  V30 4778 C 454.392 -5.86036 -0.279024 0
M  V30 4779 C 456.744 -6.32598 0.0153327 0
M  V30 4780 C 455.408 -6.67127 0.223062 0
M  V30 4781 H 454.678 -0.64577 -0.363404 0
M  V30 4782 H 457.325 -1.89664 -0.264525 0
M  V30 4783 H 455.63 -2.84644 -2.6923 0
M  V30 4784 H 457.327 -3.16399 -2.46359 0
M  V30 4785 H 453.917 -4.06765 -1.35058 0
M  V30 4786 H 458.101 -4.8943 -0.8229 0
M  V30 4787 H 453.357 -6.11306 -0.107456 0
M  V30 4788 H 457.531 -6.95171 0.413584 0
M  V30 4789 H 455.158 -7.56216 0.777265 0
M  V30 4790 N 456.733 0.527833 -1.48498 0
M  V30 4791 C 457.643 1.65907 -1.65867 0
M  V30 4792 C 458.659 1.6537 -0.541192 0
M  V30 4793 O 459.835 1.84282 -0.812534 0
M  V30 4794 C 456.9 3.02364 -1.69637 0
M  V30 4795 C 455.961 3.1374 -2.93028 0
M  V30 4796 C 455.194 4.43688 -2.96609 0
M  V30 4797 O 455.417 5.30913 -2.08538 0
M  V30 4798 O 454.351 4.59475 -3.88802 0
M  V30 4799 H 458.177 1.5419 -2.61647 0
M  V30 4800 H 455.762 0.701163 -1.31924 0
M  V30 4801 H 457.644 3.83515 -1.74625 0
M  V30 4802 H 456.319 3.14401 -0.770312 0
M  V30 4803 H 455.226 2.31877 -2.93571 0
M  V30 4804 H 456.559 3.06621 -3.85026 0
M  V30 4805 N 458.211 1.37122 0.776871 0
M  V30 4806 C 459.121 1.34651 1.9211 0
M  V30 4807 C 460.137 0.246824 1.7224 0
M  V30 4808 O 461.313 0.48134 1.95563 0
M  V30 4809 C 458.378 1.14748 3.2716 0
M  V30 4810 C 457.439 2.34308 3.5972 0
M  V30 4811 C 456.672 2.15345 4.88326 0
M  V30 4812 O 456.895 1.13507 5.58992 0
M  V30 4813 O 455.829 3.03414 5.1983 0
M  V30 4814 H 459.655 2.31013 1.97146 0
M  V30 4815 H 457.24 1.17799 0.918901 0
M  V30 4816 H 459.122 1.05616 4.0795 0
M  V30 4817 H 457.797 0.214562 3.22988 0
M  V30 4818 H 456.704 2.49011 2.79185 0
M  V30 4819 H 458.037 3.26149 3.68629 0
M  V30 4820 N 459.689 -1.00246 1.21608 0
M  V30 4821 C 460.637 -2.11193 0.97469 0
M  V30 4822 C 461.631 -1.69216 -0.0789303 0
M  V30 4823 O 462.837 -1.79853 0.0726806 0
M  V30 4824 H 459.212 -0.690455 0.297953 0
M  V30 4825 H 461.183 -2.2873 1.91638 0
M  V30 4826 C 459.932 -3.43182 0.558717 0
M  V30 4827 H 459.255 -3.75918 1.3611 0
M  V30 4828 H 460.695 -4.21823 0.429154 0
M  V30 4829 C 459.154 -3.28882 -0.730648 0
M  V30 4830 O 459.684 -3.59835 -1.78554 0
M  V30 4831 N 457.89 -2.8209 -0.698131 0
M  V30 4832 H 457.437 -2.57099 0.16061 0
M  V30 4833 H 457.395 -2.72903 -1.56113 0
M  V30 4834 N 461.167 -1.02423 -1.1978 0
M  V30 4835 C 462.415 -0.716569 -1.8897 0
M  V30 4836 C 462.736 0.756769 -1.79716 0
M  V30 4837 O 462.006 1.5449 -1.20456 0
M  V30 4838 H 460.586 -0.262062 -0.699523 0
M  V30 4839 H 463.248 -1.29747 -1.45436 0
M  V30 4840 H 462.344 -1.00675 -2.95417 0
M  V30 4841 N 462.645 1.35699 -0.801477 0
M  V30 4842 C 463.592 2.29876 -0.206294 0
M  V30 4843 C 464.562 1.52565 0.656752 0
M  V30 4844 O 465.747 1.81024 0.602906 0
M  V30 4845 C 462.887 3.39052 0.643272 0
M  V30 4846 C 462 4.31335 -0.239644 0
M  V30 4847 C 461.135 5.27599 0.61744 0
M  V30 4848 C 460.174 6.11521 -0.26619 0
M  V30 4849 N 459.311 6.99938 0.550571 0
M  V30 4850 H 464.151 2.80187 -1.01484 0
M  V30 4851 H 461.688 1.37902 -0.511997 0
M  V30 4852 H 463.646 4.0101 1.15094 0
M  V30 4853 H 462.276 2.9003 1.41713 0
M  V30 4854 H 461.328 3.70426 -0.865381 0
M  V30 4855 H 462.64 4.90243 -0.919985 0
M  V30 4856 H 461.794 5.94906 1.19045 0
M  V30 4857 H 460.533 4.69176 1.33137 0
M  V30 4858 H 459.538 5.43166 -0.851507 0
M  V30 4859 H 460.763 6.72022 -0.9779 0
M  V30 4860 H 458.709 6.44008 1.24856 0
M  V30 4861 H 458.626 7.55966 -0.071832 0
M  V30 4862 H 459.894 7.71599 1.10702 0
M  V30 4863 N 464.123 0.554532 1.47522 0
M  V30 4864 C 465.372 0.0273458 2.01681 0
M  V30 4865 C 465.685 -1.32962 1.43459 0
M  V30 4866 O 466.891 -1.94657 1.89265 0
M  V30 4867 C 465.347 -0.00159057 3.599 0
M  V30 4868 C 464.955 1.35197 4.27113 0
M  V30 4869 C 466.699 -0.476311 4.21819 0
M  V30 4870 C 464.606 1.28229 5.77331 0
M  V30 4871 H 463.536 0.00645269 0.753972 0
M  V30 4872 H 466.187 0.701985 1.69542 0
M  V30 4873 H 464.569 -0.741821 3.8899 0
M  V30 4874 H 465.743 2.1097 4.09668 0
M  V30 4875 H 464.058 1.76441 3.77171 0
M  V30 4876 H 466.655 -0.5468 5.31897 0
M  V30 4877 H 466.998 -1.4877 3.8881 0
M  V30 4878 H 467.531 0.20898 3.97251 0
M  V30 4879 H 464.27 2.26959 6.14955 0
M  V30 4880 H 463.79 0.566314 5.97121 0
M  V30 4881 H 465.469 0.983226 6.39485 0
M  V30 4882 N 465.601 -1.54893 0.290851 0
M  V30 4883 C 466.85 -1.99111 -0.322113 0
M  V30 4884 C 467.163 -1.18283 -1.55784 0
M  V30 4885 O 468.369 -1.5272 -2.24475 0
M  V30 4886 C 466.825 -3.54442 -0.624438 0
M  V30 4887 C 466.433 -4.44066 0.592373 0
M  V30 4888 C 468.177 -4.07211 -1.19916 0
M  V30 4889 C 466.084 -5.90812 0.263762 0
M  V30 4890 H 465.014 -0.743712 -0.124133 0
M  V30 4891 H 467.665 -1.79132 0.39797 0
M  V30 4892 H 466.047 -3.70281 -1.40384 0
M  V30 4893 H 467.221 -4.39999 1.36886 0
M  V30 4894 H 465.536 -4.02015 1.08502 0
M  V30 4895 H 468.133 -5.14407 -1.45909 0
M  V30 4896 H 468.476 -3.57196 -2.13815 0
M  V30 4897 H 469.009 -3.94873 -0.481687 0
M  V30 4898 H 465.748 -6.44955 1.17105 0
M  V30 4899 H 465.268 -5.97911 -0.475655 0
M  V30 4900 H 466.947 -6.46852 -0.138354 0
M  V30 4901 N 467.08 -0.0183926 -1.57589 0
M  V30 4902 C 468.01 0.965596 -2.12599 0
M  V30 4903 C 468.991 1.34641 -1.0395 0
M  V30 4904 O 470.176 1.42693 -1.31729 0
M  V30 4905 C 467.306 2.25149 -2.64434 0
M  V30 4906 C 466.26 2.01175 -3.77773 0
M  V30 4907 C 465.586 3.35937 -4.15994 0
M  V30 4908 C 466.886 1.35953 -5.04296 0
M  V30 4909 H 468.58 0.507504 -2.95067 0
M  V30 4910 H 466.126 0.242671 -1.41941 0
M  V30 4911 H 468.079 2.94357 -3.01549 0
M  V30 4912 H 466.803 2.73105 -1.79112 0
M  V30 4913 H 465.462 1.34388 -3.4108 0
M  V30 4914 H 465.11 3.81631 -3.27669 0
M  V30 4915 H 464.81 3.20705 -4.92364 0
M  V30 4916 H 466.334 4.0643 -4.55683 0
M  V30 4917 H 467.748 1.95144 -5.39065 0
M  V30 4918 H 466.145 1.31152 -5.85593 0
M  V30 4919 H 467.215 0.331071 -4.83768 0
M  V30 4920 N 468.558 1.5553 0.254621 0
M  V30 4921 C 469.835 1.6774 1.00611 0
M  V30 4922 C 470.215 0.555993 2.03647 0
M  V30 4923 O 469.563 -0.441583 2.24193 0
M  V30 4924 C 469.773 3.07725 1.6464 0
M  V30 4925 C 471.121 3.66074 2.15116 0
M  V30 4926 O 472.145 3.10476 1.74595 0
M  V30 4927 O 471.004 4.63526 2.89493 0
M  V30 4928 H 468.098 0.681958 0.467828 0
M  V30 4929 H 470.644 1.67863 0.24902 0
M  V30 4930 H 469.416 3.80792 0.900734 0
M  V30 4931 H 469.039 3.1158 2.46989 0
M  V30 4932 N 470.036 -0.519951 1.48776 0
M  V30 4933 C 471.261 -1.30447 1.6124 0
M  V30 4934 C 471.686 -1.86055 0.276591 0
M  V30 4935 O 471.044 -1.64915 -0.753183 0
M  V30 4936 C 471.092 -2.42406 2.66967 0
M  V30 4937 O 470.196 -3.45728 2.24824 0
M  V30 4938 H 469.537 -0.385924 0.540332 0
M  V30 4939 H 472.067 -0.624572 1.94834 0
M  V30 4940 H 472.077 -2.88447 2.88552 0
M  V30 4941 H 470.752 -2.01294 3.63941 0
M  V30 4942 H 469.329 -3.05737 2.13494 0
M  V30 4943 N 471.514 -1.37532 -0.769588 0
M  V30 4944 C 472.763 -1.32183 -1.5235 0
M  V30 4945 C 473.076 0.0906555 -1.9539 0
M  V30 4946 O 474.282 0.266628 -2.70188 0
M  V30 4947 C 472.738 -2.32029 -2.75119 0
M  V30 4948 C 472.346 -3.78816 -2.3917 0
M  V30 4949 C 474.09 -2.35694 -3.53056 0
M  V30 4950 C 471.997 -4.70388 -3.58453 0
M  V30 4951 H 470.927 -0.491275 -0.571984 0
M  V30 4952 H 473.578 -1.63004 -0.842739 0
M  V30 4953 H 471.96 -1.94229 -3.45096 0
M  V30 4954 H 473.134 -4.25466 -1.76962 0
M  V30 4955 H 471.449 -3.78117 -1.74402 0
M  V30 4956 H 474.046 -3.01312 -4.41718 0
M  V30 4957 H 474.389 -1.37117 -3.93071 0
M  V30 4958 H 474.922 -2.72212 -2.90078 0
M  V30 4959 H 471.661 -5.70102 -3.23518 0
M  V30 4960 H 471.181 -4.28442 -4.19758 0
M  V30 4961 H 472.86 -4.87628 -4.25239 0
M  V30 4962 N 472.992 0.995999 -1.22138 0
M  V30 4963 C 474.232 1.75032 -1.05561 0
M  V30 4964 C 474.596 1.87729 0.402698 0
M  V30 4965 O 475.797 2.59813 0.689234 0
M  V30 4966 C 474.068 3.11973 -1.74379 0
M  V30 4967 S 475.627 4.03182 -1.73175 0
M  V30 4968 H 472.445 0.602137 -0.37809 0
M  V30 4969 H 475.047 1.19107 -1.55028 0
M  V30 4970 H 473.751 3.00371 -2.79652 0
M  V30 4971 H 473.282 3.7297 -1.25128 0
M  V30 4972 H 475.297 4.90043 -0.77923 0
M  V30 4973 N 474.47 1.03057 1.19235 0
M  V30 4974 C 475.7 0.746613 1.92638 0
M  V30 4975 C 476.108 -0.698708 1.75826 0
M  V30 4976 O 475.451 -1.487 1.07861 0
M  V30 4977 C 475.513 1.02024 3.44719 0
M  V30 4978 C 475.177 2.45745 3.85303 0
M  V30 4979 C 476.174 3.43887 3.8992 0
M  V30 4980 C 473.859 2.8019 4.16892 0
M  V30 4981 C 475.853 4.74529 4.2556 0
M  V30 4982 C 473.54 4.1104 4.52205 0
M  V30 4983 C 474.538 5.0802 4.56513 0
M  V30 4984 O 474.226 6.36527 4.91008 0
M  V30 4985 H 473.958 0.272401 0.618687 0
M  V30 4986 H 476.512 1.37853 1.52269 0
M  V30 4987 H 474.742 0.331184 3.85279 0
M  V30 4988 H 476.431 0.725677 3.9936 0
M  V30 4989 H 477.197 3.18614 3.65664 0
M  V30 4990 H 473.076 2.05382 4.12722 0
M  V30 4991 H 476.62 5.50222 4.28838 0
M  V30 4992 H 472.517 4.36086 4.7592 0
M  V30 4993 H 473.285 6.41025 5.08949 0
M  V30 4994 N 475.948 -1.35272 0.808662 0
M  V30 4995 C 476.896 -2.31663 0.208606 0
M  V30 4996 C 477.89 -1.56731 -0.642778 0
M  V30 4997 O 479.096 -1.71843 -0.53571 0
M  V30 4998 H 475.471 -0.750421 0.0486993 0
M  V30 4999 H 477.442 -2.79814 1.03666 0
M  V30 5000 C 476.191 -3.42008 -0.626573 0
M  V30 5001 H 475.514 -3.99795 0.0192103 0
M  V30 5002 H 476.954 -4.11727 -1.01278 0
M  V30 5003 C 475.413 -2.85226 -1.79298 0
M  V30 5004 O 475.943 -2.78945 -2.89055 0
M  V30 5005 N 474.149 -2.42245 -1.60516 0
M  V30 5006 H 473.696 -2.47554 -0.712375 0
M  V30 5007 H 473.654 -2.04603 -2.38715 0
M  V30 5008 N 477.426 -0.562348 -1.47226 0
M  V30 5009 C 478.651 -0.0432632 -2.07355 0
M  V30 5010 C 479.076 1.24332 -1.41149 0
M  V30 5011 O 478.434 1.74603 -0.488226 0
M  V30 5012 C 478.482 0.130288 -3.60365 0
M  V30 5013 O 477.586 1.19166 -3.94808 0
M  V30 5014 H 476.927 -0.0536334 -0.66183 0
M  V30 5015 H 479.457 -0.779495 -1.89169 0
M  V30 5016 H 479.467 0.342881 -4.06557 0
M  V30 5017 H 478.142 -0.809389 -4.07948 0
M  V30 5018 H 476.719 0.959153 -3.60354 0
M  V30 5019 N 478.904 1.54736 -0.299062 0
M  V30 5020 C 479.834 2.26409 0.571085 0
M  V30 5021 C 480.815 1.2629 1.13951 0
M  V30 5022 O 482 1.55059 1.16921 0
M  V30 5023 C 479.13 3.00338 1.74396 0
M  V30 5024 C 478.084 4.07588 1.30599 0
M  V30 5025 C 477.41 4.69222 2.56387 0
M  V30 5026 C 478.71 5.20455 0.438645 0
M  V30 5027 H 480.404 2.99388 -0.0266991 0
M  V30 5028 H 477.95 1.43993 -0.0142812 0
M  V30 5029 H 479.903 3.49198 2.35878 0
M  V30 5030 H 478.627 2.24934 2.36796 0
M  V30 5031 H 477.286 3.59575 0.71424 0
M  V30 5032 H 476.934 3.9046 3.17097 0
M  V30 5033 H 476.634 5.41653 2.27784 0
M  V30 5034 H 478.158 5.20844 3.18675 0
M  V30 5035 H 479.572 5.65221 0.959085 0
M  V30 5036 H 477.969 5.99594 0.246466 0
M  V30 5037 H 479.039 4.8192 -0.536738 0
M  V30 5038 N 480.382 0.0267497 1.57577 0
M  V30 5039 C 481.793 -0.512413 1.79531 0
M  V30 5040 C 482.144 -1.72391 0.936791 0
M  V30 5041 O 481.269 -2.15903 0.146543 0
M  V30 5042 C 481.864 -0.936378 3.25603 0
M  V30 5043 C 480.423 -1.42067 3.4856 0
M  V30 5044 C 479.57 -0.384278 2.74624 0
M  V30 5045 H 482.521 0.252797 1.56674 0
M  V30 5046 H 482.542 -1.80088 3.35184 0
M  V30 5047 H 482.054 -0.0544332 3.88062 0
M  V30 5048 H 480.155 -2.32262 2.9135 0
M  V30 5049 H 480.268 -1.42968 4.57271 0
M  V30 5050 H 478.632 -0.851855 2.40032 0
M  V30 5051 H 479.415 0.489159 3.39797 0
M  V30 5052 N 481.861 -1.55662 -0.24637 0
M  V30 5053 C 482.793 -1.86811 -1.32794 0
M  V30 5054 C 483.806 -0.754413 -1.44265 0
M  V30 5055 O 484.995 -1.03253 -1.45606 0
M  V30 5056 C 482.095 -2.0397 -2.70646 0
M  V30 5057 C 481.268 -3.34832 -2.81436 0
M  V30 5058 C 480.327 -3.41727 -4.00136 0
M  V30 5059 O 479.353 -4.14934 -3.89639 0
M  V30 5060 N 480.555 -2.71058 -5.1333 0
M  V30 5061 H 483.32 -2.80174 -1.06409 0
M  V30 5062 H 480.881 -1.55906 -0.43647 0
M  V30 5063 H 482.873 -2.05924 -3.48393 0
M  V30 5064 H 481.443 -1.1735 -2.89738 0
M  V30 5065 H 480.663 -3.4519 -1.90361 0
M  V30 5066 H 481.951 -4.21085 -2.85595 0
M  V30 5067 H 481.349 -2.11314 -5.2475 0
M  V30 5068 H 479.906 -2.78704 -5.89209 0
M  V30 5069 N 483.339 0.512053 -1.4905 0
M  V30 5070 C 484.585 1.26874 -1.58212 0
M  V30 5071 C 484.918 1.9241 -0.263073 0
M  V30 5072 O 484.193 1.80181 0.732476 0
M  V30 5073 C 484.476 2.34428 -2.73341 0
M  V30 5074 C 484.329 1.73466 -4.15006 0
M  V30 5075 C 485.648 3.36073 -2.84154 0
M  V30 5076 H 482.767 0.459924 -0.575881 0
M  V30 5077 H 485.409 0.568587 -1.81293 0
M  V30 5078 H 483.559 2.94146 -2.53792 0
M  V30 5079 H 485.231 1.17661 -4.46042 0
M  V30 5080 H 483.474 1.03921 -4.21168 0
M  V30 5081 H 484.145 2.51426 -4.91415 0
M  V30 5082 H 486.621 2.86332 -3.01916 0
M  V30 5083 H 485.497 4.08703 -3.66406 0
M  V30 5084 H 485.758 3.97725 -1.93048 0
M  V30 5085 N 484.817 1.37938 0.762283 0
M  V30 5086 C 486.094 1.24196 1.51112 0
M  V30 5087 C 486.474 -0.160409 2.1049 0
M  V30 5088 O 485.822 -1.16904 1.96331 0
M  V30 5089 C 486.032 2.34537 2.58445 0
M  V30 5090 C 487.38 2.7254 3.25588 0
M  V30 5091 O 488.404 2.33783 2.68745 0
M  V30 5092 O 487.263 3.39343 4.28379 0
M  V30 5093 H 484.357 0.485175 0.669727 0
M  V30 5094 H 486.903 1.49743 0.798438 0
M  V30 5095 H 485.675 3.28406 2.12756 0
M  V30 5096 H 485.298 2.10505 3.37303 0
M  V30 5097 N 486.295 -0.989507 1.22664 0
M  V30 5098 C 487.523 -1.76496 1.07967 0
M  V30 5099 C 487.938 -1.85148 -0.369543 0
M  V30 5100 O 487.295 -1.32408 -1.25596 0
M  V30 5101 C 487.346 -3.19642 1.68853 0
M  V30 5102 O 487.067 -3.11453 3.08105 0
M  V30 5103 C 488.568 -4.13621 1.59475 0
M  V30 5104 H 485.788 -0.55418 0.378319 0
M  V30 5105 H 488.332 -1.24378 1.62328 0
M  V30 5106 H 486.487 -3.68816 1.18547 0
M  V30 5107 H 486.901 -4.01499 3.37489 0
M  V30 5108 H 488.375 -5.11801 2.06795 0
M  V30 5109 H 488.852 -4.35718 0.55191 0
M  V30 5110 H 489.458 -3.70346 2.09103 0
M  V30 5111 N 487.773 -1.03688 -1.18687 0
M  V30 5112 C 489.05 -0.652397 -1.84399 0
M  V30 5113 C 489.43 0.868386 -1.92412 0
M  V30 5114 O 488.778 1.76832 -1.44716 0
M  V30 5115 C 488.988 -1.3238 -3.22919 0
M  V30 5116 C 490.336 -1.45216 -3.98996 0
M  V30 5117 O 491.36 -1.2816 -3.32345 0
M  V30 5118 O 490.219 -1.72975 -5.18403 0
M  V30 5119 H 487.313 -0.227793 -0.795009 0
M  V30 5120 H 489.859 -1.13553 -1.2611 0
M  V30 5121 H 488.631 -2.36202 -3.11968 0
M  V30 5122 H 488.254 -0.829039 -3.88861 0
M  V30 5123 N 489.251 1.34841 -0.815825 0
M  V30 5124 C 490.499 1.98107 -0.399744 0
M  V30 5125 C 490.82 1.65019 1.03894 0
M  V30 5126 O 490.09 0.937311 1.72021 0
M  V30 5127 H 488.67 0.732827 -0.144823 0
M  V30 5128 H 491.332 1.64599 -1.0437 0
M  V30 5129 H 490.428 3.07856 -0.512965 0
M  V30 5130 N 490.729 0.570148 1.46925 0
M  V30 5131 C 492.006 -0.0153259 1.95594 0
M  V30 5132 C 492.386 -1.47232 1.51281 0
M  V30 5133 O 491.734 -2.15574 0.757624 0
M  V30 5134 C 491.944 0.143624 3.48704 0
M  V30 5135 C 493.292 0.00494484 4.246 0
M  V30 5136 O 494.316 0.0718214 3.56128 0
M  V30 5137 O 493.175 -0.141175 5.46318 0
M  V30 5138 H 490.269 -0.0568819 0.825041 0
M  V30 5139 H 492.815 0.637583 1.57267 0
M  V30 5140 H 491.587 1.15699 3.73804 0
M  V30 5141 H 491.21 -0.5463 3.93829 0
M  V30 5142 N 492.207 -1.54576 0.307264 0
M  V30 5143 C 493.454 -2.00263 -0.300167 0
M  V30 5144 C 493.782 -1.19561 -1.53413 0
M  V30 5145 O 493.037 -0.261487 -1.93945 0
M  V30 5146 C 493.336 -3.50572 -0.695253 0
M  V30 5147 C 493.002 -4.48771 0.437679 0
M  V30 5148 C 491.664 -4.7534 0.748681 0
M  V30 5149 C 494.016 -5.0721 1.19949 0
M  V30 5150 C 491.344 -5.5761 1.8245 0
M  V30 5151 C 493.696 -5.90651 2.26527 0
M  V30 5152 C 492.36 -6.15528 2.58227 0
M  V30 5153 H 491.63 -0.732814 -0.109839 0
M  V30 5154 H 494.277 -1.86664 0.427661 0
M  V30 5155 H 492.582 -3.61814 -1.50326 0
M  V30 5156 H 494.279 -3.83352 -1.17653 0
M  V30 5157 H 490.869 -4.282 0.185187 0
M  V30 5158 H 495.053 -4.86679 0.972474 0
M  V30 5159 H 490.309 -5.75121 2.07476 0
M  V30 5160 H 494.483 -6.34957 2.86011 0
M  V30 5161 H 492.11 -6.79066 3.4172 0
M  V30 5162 N 493.685 -0.035106 -1.57561 0
M  V30 5163 C 495.101 0.321334 -1.56332 0
M  V30 5164 C 495.301 1.72509 -1.04129 0
M  V30 5165 O 494.357 2.4287 -0.690694 0
M  V30 5166 C 495.67 0.164469 -3.0025 0
M  V30 5167 C 497.218 0.236786 -3.12103 0
M  V30 5168 C 497.693 0.10864 -4.57871 0
M  V30 5169 N 499.184 0.165433 -4.62904 0
M  V30 5170 C 499.919 0.0901506 -5.73329 0
M  V30 5171 N 499.415 -0.0365606 -6.9279 0
M  V30 5172 N 501.208 0.144572 -5.61914 0
M  V30 5173 H 493.359 -0.952976 -1.89821 0
M  V30 5174 H 495.622 -0.368537 -0.873432 0
M  V30 5175 H 495.328 -0.802746 -3.42416 0
M  V30 5176 H 495.202 0.932194 -3.655 0
M  V30 5177 H 497.589 1.19446 -2.69845 0
M  V30 5178 H 497.67 -0.561419 -2.49563 0
M  V30 5179 H 497.314 -0.845644 -5.00811 0
M  V30 5180 H 497.244 0.925786 -5.18398 0
M  V30 5181 H 499.735 0.263269 -3.76982 0
M  V30 5182 H 500.048 -0.0871487 -7.72751 0
M  V30 5183 H 498.393 -0.0714256 -6.94963 0
M  V30 5184 H 501.584 0.242006 -4.67474 0
M  V30 5185 H 501.757 0.0824413 -6.47948 0
M  V30 5186 N 495.163 1.55791 0.238111 0
M  V30 5187 C 496.388 1.8244 0.986432 0
M  V30 5188 C 496.813 0.613314 1.7782 0
M  V30 5189 O 496.171 -0.437767 1.75935 0
M  V30 5190 C 496.219 3.06917 1.893 0
M  V30 5191 O 495.323 2.84449 2.98601 0
M  V30 5192 H 494.664 0.601975 0.280218 0
M  V30 5193 H 497.194 2.02987 0.256437 0
M  V30 5194 H 497.204 3.36583 2.30598 0
M  V30 5195 H 495.879 3.947 1.31091 0
M  V30 5196 H 494.456 2.65972 2.61368 0
M  V30 5197 N 496.642 -0.504142 1.49319 0
M  V30 5198 C 497.87 -1.28256 1.62351 0
M  V30 5199 C 498.285 -1.86502 0.293682 0
M  V30 5200 O 497.642 -1.67678 -0.720449 0
M  V30 5201 C 497.693 -2.41507 2.68992 0
M  V30 5202 O 497.414 -1.85656 3.96817 0
M  V30 5203 C 498.915 -3.32929 2.927 0
M  V30 5204 H 496.135 -0.389115 0.546654 0
M  V30 5205 H 498.679 -0.605531 1.95329 0
M  V30 5206 H 496.834 -3.05046 2.38801 0
M  V30 5207 H 497.248 -2.59981 4.55533 0
M  V30 5208 H 498.722 -4.0868 3.71058 0
M  V30 5209 H 499.199 -3.89733 2.02496 0
M  V30 5210 H 499.805 -2.75158 3.24296 0
M  V30 5211 N 498.12 -1.38341 -0.754957 0
M  V30 5212 C 499.068 -1.35573 -1.89005 0
M  V30 5213 C 500.062 -0.241824 -1.67665 0
M  V30 5214 O 501.268 -0.410785 -1.7525 0
M  V30 5215 H 497.643 -0.422898 -0.621821 0
M  V30 5216 H 499.614 -2.31359 -1.88455 0
M  V30 5217 C 498.363 -1.19631 -3.26471 0
M  V30 5218 H 497.686 -2.04605 -3.43477 0
M  V30 5219 H 499.126 -1.21748 -4.06144 0
M  V30 5220 C 497.585 0.0968705 -3.36761 0
M  V30 5221 O 498.115 1.07439 -3.87066 0
M  V30 5222 N 496.321 0.153242 -2.90196 0
M  V30 5223 H 495.868 -0.642908 -2.49448 0
M  V30 5224 H 495.826 1.01807 -2.9746 0
M  V30 5225 N 499.598 0.982988 -1.23187 0
M  V30 5226 C 500.845 1.72392 -1.06241 0
M  V30 5227 C 501.173 1.9032 0.40108 0
M  V30 5228 O 500.428 1.45084 1.31336 0
M  V30 5229 C 500.727 3.12736 -1.73006 0
M  V30 5230 C 500.393 3.14695 -3.22921 0
M  V30 5231 C 499.055 3.14937 -3.63824 0
M  V30 5232 C 501.407 3.10211 -4.1883 0
M  V30 5233 C 498.735 3.08408 -4.99101 0
M  V30 5234 C 501.087 3.05224 -5.54095 0
M  V30 5235 C 499.751 3.03787 -5.94365 0
M  V30 5236 H 499.021 0.630829 -0.388762 0
M  V30 5237 H 501.668 1.15053 -1.53085 0
M  V30 5238 H 499.973 3.73446 -1.18514 0
M  V30 5239 H 501.67 3.68828 -1.57374 0
M  V30 5240 H 498.26 3.15262 -2.90358 0
M  V30 5241 H 502.444 3.09166 -3.8824 0
M  V30 5242 H 497.7 3.05646 -5.29519 0
M  V30 5243 H 501.874 3.00712 -6.28128 0
M  V30 5244 H 499.501 2.98483 -6.99151 0
M  V30 5245 N 501.076 1.04316 1.18135 0
M  V30 5246 C 502.353 0.662166 1.84051 0
M  V30 5247 C 502.733 -0.858169 1.9287 0
M  V30 5248 O 502.081 -1.76062 1.45652 0
M  V30 5249 C 502.291 1.3409 3.22212 0
M  V30 5250 C 503.639 1.4733 3.9822 0
M  V30 5251 O 504.663 1.29921 3.31661 0
M  V30 5252 O 503.522 1.75722 5.17479 0
M  V30 5253 H 500.616 0.232005 0.79379 0
M  V30 5254 H 503.162 1.1422 1.25506 0
M  V30 5255 H 501.934 2.37853 3.10711 0
M  V30 5256 H 501.557 0.849649 3.88416 0
M  V30 5257 N 502.554 -1.34406 0.822964 0
M  V30 5258 C 503.502 -2.31428 0.233165 0
M  V30 5259 C 504.496 -1.57404 -0.626118 0
M  V30 5260 O 505.702 -1.72402 -0.517453 0
M  V30 5261 H 502.077 -0.749863 0.0566557 0
M  V30 5262 H 504.048 -2.78699 1.06628 0
M  V30 5263 C 502.797 -3.42653 -0.590264 0
M  V30 5264 H 502.12 -3.99753 0.0616129 0
M  V30 5265 H 503.56 -4.12778 -0.969054 0
M  V30 5266 C 502.019 -2.87112 -1.76262 0
M  V30 5267 O 502.549 -2.81995 -2.8608 0
M  V30 5268 N 500.755 -2.43934 -1.57938 0
M  V30 5269 H 500.302 -2.48296 -0.686078 0
M  V30 5270 H 500.26 -2.07123 -2.36532 0
M  V30 5271 N 504.032 -0.577932 -1.46621 0
M  V30 5272 C 504.962 0.145917 -2.33044 0
M  V30 5273 C 505.943 0.888412 -1.45056 0
M  V30 5274 O 507.128 0.864812 -1.73881 0
M  V30 5275 C 504.258 1.16322 -3.27241 0
M  V30 5276 C 503.212 0.535868 -4.24632 0
M  V30 5277 C 502.538 1.65929 -5.08303 0
M  V30 5278 C 503.838 -0.523861 -5.19666 0
M  V30 5279 H 505.532 -0.575636 -2.93814 0
M  V30 5280 H 503.078 -0.278272 -1.41286 0
M  V30 5281 H 505.031 1.67793 -3.86553 0
M  V30 5282 H 503.755 1.91498 -2.64567 0
M  V30 5283 H 502.414 0.0422759 -3.66576 0
M  V30 5284 H 502.062 2.40061 -4.42018 0
M  V30 5285 H 501.762 1.2452 -5.74255 0
M  V30 5286 H 503.286 2.17686 -5.70478 0
M  V30 5287 H 504.7 -0.0944059 -5.73222 0
M  V30 5288 H 503.097 -0.858 -5.93935 0
M  V30 5289 H 504.167 -1.41197 -4.63887 0
M  V30 5290 N 505.51 1.54411 -0.315457 0
M  V30 5291 C 506.787 1.92562 0.343398 0
M  V30 5292 C 507.167 1.24423 1.70535 0
M  V30 5293 O 506.515 0.385051 2.25232 0
M  V30 5294 C 506.725 3.46168 0.443687 0
M  V30 5295 C 508.073 4.18659 0.707783 0
M  V30 5296 O 509.097 3.52281 0.52693 0
M  V30 5297 O 507.956 5.36198 1.05612 0
M  V30 5298 H 505.05 0.80379 0.194552 0
M  V30 5299 H 507.596 1.65738 -0.364577 0
M  V30 5300 H 506.368 3.8792 -0.513172 0
M  V30 5301 H 505.991 3.79073 1.19956 0
M  V30 5302 N 506.988 0.0434614 1.5754 0
M  V30 5303 C 508.399 -0.493343 1.80064 0
M  V30 5304 C 508.75 -1.71388 0.955023 0
M  V30 5305 O 507.875 -2.15736 0.169434 0
M  V30 5306 C 508.47 -0.90179 3.26578 0
M  V30 5307 C 507.029 -1.38362 3.50047 0
M  V30 5308 C 506.176 -0.355129 2.75017 0
M  V30 5309 H 509.127 0.2694 1.56397 0
M  V30 5310 H 509.148 -1.76523 3.37075 0
M  V30 5311 H 508.66 -0.013271 3.88098 0
M  V30 5312 H 506.761 -2.29159 2.93798 0
M  V30 5313 H 506.874 -1.3811 4.58762 0
M  V30 5314 H 505.238 -0.826348 2.40922 0
M  V30 5315 H 506.021 0.525172 3.39259 0
M  V30 5316 N 508.466 -1.55915 -0.229846 0
M  V30 5317 C 509.714 -1.7819 -0.953565 0
M  V30 5318 C 510.035 -0.610504 -1.85197 0
M  V30 5319 O 509.305 0.372988 -1.92316 0
M  V30 5320 H 507.885 -0.657208 -0.355087 0
M  V30 5321 H 510.547 -1.9337 -0.243693 0
M  V30 5322 H 509.643 -2.70011 -1.56527 0
M  V30 5323 N 509.944 0.496216 -1.49584 0
M  V30 5324 C 510.876 1.61404 -1.62731 0
M  V30 5325 C 511.889 1.54613 -0.50978 0
M  V30 5326 O 513.078 1.60458 -0.782017 0
M  V30 5327 C 510.178 3.00212 -1.57245 0
M  V30 5328 C 509.351 3.32138 -2.84611 0
M  V30 5329 C 508.41 4.5038 -2.72112 0
M  V30 5330 O 507.436 4.51926 -3.46051 0
M  V30 5331 N 508.638 5.50575 -1.83977 0
M  V30 5332 H 511.403 1.50552 -2.59141 0
M  V30 5333 H 508.964 0.684182 -1.46733 0
M  V30 5334 H 510.956 3.77241 -1.4653 0
M  V30 5335 H 509.526 3.04964 -0.686729 0
M  V30 5336 H 508.746 2.4396 -3.09641 0
M  V30 5337 H 510.034 3.50268 -3.69039 0
M  V30 5338 H 509.432 5.52128 -1.23171 0
M  V30 5339 H 507.989 6.26687 -1.79182 0
M  V30 5340 N 511.423 1.38739 0.74761 0
M  V30 5341 C 512.353 1.39173 1.87492 0
M  V30 5342 C 513.334 0.256794 1.6815 0
M  V30 5343 O 514.519 0.460762 1.88655 0
M  V30 5344 C 511.649 1.22197 3.25093 0
M  V30 5345 C 510.603 2.32957 3.59047 0
M  V30 5346 C 509.929 2.01082 4.95449 0
M  V30 5347 C 511.229 3.75237 3.6331 0
M  V30 5348 H 512.923 2.3351 1.87386 0
M  V30 5349 H 510.469 1.12399 0.900134 0
M  V30 5350 H 512.422 1.21124 4.03617 0
M  V30 5351 H 511.146 0.243241 3.25693 0
M  V30 5352 H 509.805 2.33226 2.82845 0
M  V30 5353 H 509.453 1.01678 4.92616 0
M  V30 5354 H 509.153 2.75267 5.19136 0
M  V30 5355 H 510.677 2.01638 5.76346 0
M  V30 5356 H 512.091 3.76966 4.31937 0
M  V30 5357 H 510.488 4.48677 3.98509 0
M  V30 5358 H 511.558 4.07122 2.634 0
M  V30 5359 N 512.901 -0.976442 1.23707 0
M  V30 5360 C 514.147 -1.72158 1.08319 0
M  V30 5361 C 514.502 -1.88701 -0.375445 0
M  V30 5362 O 513.795 -1.43107 -1.274 0
M  V30 5363 C 513.989 -3.11814 1.74662 0
M  V30 5364 C 513.818 -3.08892 3.26827 0
M  V30 5365 C 512.588 -3.13861 3.96004 0
M  V30 5366 C 514.786 -2.9175 4.2354 0
M  V30 5367 N 512.768 -3.00867 5.35119 0
M  V30 5368 C 514.139 -2.8696 5.49595 0
M  V30 5369 C 516.194 -2.76265 4.14225 0
M  V30 5370 C 514.897 -2.68268 6.67401 0
M  V30 5371 C 516.923 -2.58938 5.317 0
M  V30 5372 C 516.285 -2.54849 6.56682 0
M  V30 5373 H 512.384 -0.638896 0.450927 0
M  V30 5374 H 514.968 -1.15835 1.56494 0
M  V30 5375 H 513.139 -3.66347 1.29014 0
M  V30 5376 H 514.871 -3.74984 1.52215 0
M  V30 5377 H 511.626 -3.22198 3.4711 0
M  V30 5378 H 512.05 -2.97634 6.08065 0
M  V30 5379 H 516.692 -2.78213 3.18366 0
M  V30 5380 H 514.41 -2.65063 7.63392 0
M  V30 5381 H 517.996 -2.47914 5.26336 0
M  V30 5382 H 516.876 -2.41611 7.46052 0
M  V30 5383 N 514.379 -1.04941 -1.1758 0
M  V30 5384 C 515.795 -0.770282 -1.39781 0
M  V30 5385 C 515.995 0.636417 -1.91186 0
M  V30 5386 O 515.051 1.39923 -2.10185 0
M  V30 5387 C 516.364 -1.82376 -2.3908 0
M  V30 5388 C 517.912 -1.84569 -2.52791 0
M  V30 5389 C 518.387 -2.88933 -3.55361 0
M  V30 5390 N 519.878 -2.8788 -3.62877 0
M  V30 5391 C 520.613 -3.65282 -4.41992 0
M  V30 5392 N 520.109 -4.52461 -5.24643 0
M  V30 5393 N 521.902 -3.53732 -4.36841 0
M  V30 5394 H 514.053 -1.95705 -0.825438 0
M  V30 5395 H 516.316 -0.847284 -0.425222 0
M  V30 5396 H 516.022 -2.83323 -2.08376 0
M  V30 5397 H 515.896 -1.66327 -3.38549 0
M  V30 5398 H 518.283 -0.842879 -2.82807 0
M  V30 5399 H 518.364 -2.04696 -1.53406 0
M  V30 5400 H 518.008 -3.89398 -3.26085 0
M  V30 5401 H 517.938 -2.66059 -4.54445 0
M  V30 5402 H 520.429 -2.24666 -3.03864 0
M  V30 5403 H 520.742 -5.08211 -5.82187 0
M  V30 5404 H 519.087 -4.56524 -5.24033 0
M  V30 5405 H 522.278 -2.85021 -3.71323 0
M  V30 5406 H 522.451 -4.14302 -4.98255 0
M  V30 5407 N 515.857 1.33968 -0.830081 0
M  V30 5408 C 517.104 1.98063 -0.421566 0
M  V30 5409 C 517.432 1.65787 1.0171 0
M  V30 5410 O 516.687 0.925348 1.72441 0
M  V30 5411 C 516.986 3.52679 -0.57898 0
M  V30 5412 C 516.652 4.04884 -1.98443 0
M  V30 5413 C 515.314 4.18852 -2.36888 0
M  V30 5414 C 517.666 4.32879 -2.90285 0
M  V30 5415 C 514.994 4.58145 -3.66497 0
M  V30 5416 C 517.346 4.7362 -4.19364 0
M  V30 5417 C 516.01 4.85794 -4.57778 0
M  V30 5418 H 515.28 0.724765 -0.154262 0
M  V30 5419 H 517.927 1.59792 -1.05541 0
M  V30 5420 H 516.232 3.91556 0.138219 0
M  V30 5421 H 517.929 4.00261 -0.243317 0
M  V30 5422 H 514.519 3.9448 -1.67581 0
M  V30 5423 H 518.703 4.21619 -2.61823 0
M  V30 5424 H 513.959 4.65762 -3.96075 0
M  V30 5425 H 518.133 4.9424 -4.90612 0
M  V30 5426 H 515.76 5.15998 -5.58256 0
M  V30 5427 N 517.335 0.585699 1.46312 0
M  V30 5428 C 518.563 0.0781299 2.06752 0
M  V30 5429 C 518.978 -1.22812 1.43396 0
M  V30 5430 O 518.335 -1.74318 0.540314 0
M  V30 5431 C 518.386 -0.0911927 3.61385 0
M  V30 5432 O 518.107 1.16336 4.22371 0
M  V30 5433 C 519.608 -0.632765 4.38761 0
M  V30 5434 H 516.828 0.0588188 0.668417 0
M  V30 5435 H 519.372 0.807218 1.87894 0
M  V30 5436 H 517.527 -0.770514 3.7966 0
M  V30 5437 H 517.941 0.979082 5.15281 0
M  V30 5438 H 519.415 -0.70041 5.47538 0
M  V30 5439 H 519.892 -1.65039 4.07012 0
M  V30 5440 H 520.498 0.0117856 4.25298 0
M  V30 5441 N 518.813 -1.54241 0.323641 0
M  V30 5442 C 520.062 -1.9975 -0.279806 0
M  V30 5443 C 520.375 -1.2156 -1.5324 0
M  V30 5444 O 521.581 -1.57447 -2.21185 0
M  V30 5445 C 520.037 -3.55686 -0.549115 0
M  V30 5446 C 519.645 -4.4271 0.686432 0
M  V30 5447 C 521.389 -4.09663 -1.11251 0
M  V30 5448 C 519.296 -5.90119 0.389022 0
M  V30 5449 H 518.226 -0.746177 -0.10833 0
M  V30 5450 H 520.877 -1.78248 0.435877 0
M  V30 5451 H 519.259 -3.73176 -1.32499 0
M  V30 5452 H 520.433 -4.36996 1.46188 0
M  V30 5453 H 518.748 -3.99623 1.17005 0
M  V30 5454 H 521.345 -5.17386 -1.34965 0
M  V30 5455 H 521.688 -3.61651 -2.06191 0
M  V30 5456 H 522.221 -3.95806 -0.39782 0
M  V30 5457 H 518.96 -6.42326 1.30759 0
M  V30 5458 H 518.48 -5.98785 -0.348722 0
M  V30 5459 H 520.159 -6.47 -0.0011164 0
M  V30 5460 N 520.291 -0.0518155 -1.57515 0
M  V30 5461 C 521.568 0.661727 -1.84067 0
M  V30 5462 C 521.948 1.88999 -0.940351 0
M  V30 5463 O 521.296 2.285 -0.00155404 0
M  V30 5464 C 521.506 1.01841 -3.3381 0
M  V30 5465 C 522.854 1.40043 -4.00841 0
M  V30 5466 O 523.878 1.11073 -3.38439 0
M  V30 5467 O 522.737 1.94111 -5.10865 0
M  V30 5468 H 519.831 0.326702 -0.759733 0
M  V30 5469 H 522.377 -0.0812277 -1.69505 0
M  V30 5470 H 521.149 0.145202 -3.91031 0
M  V30 5471 H 520.772 1.81879 -3.53562 0
M  V30 5472 N 521.769 1.56035 0.221574 0
M  V30 5473 C 523.18 1.69229 0.788567 0
M  V30 5474 C 523.531 0.653814 1.84986 0
M  V30 5475 O 522.656 -0.195065 2.15519 0
M  V30 5476 C 523.251 3.06809 1.43713 0
M  V30 5477 C 521.81 3.21858 1.95152 0
M  V30 5478 C 520.957 2.65155 0.811685 0
M  V30 5479 H 523.908 1.587 -0.00307894 0
M  V30 5480 H 523.929 3.02666 2.30594 0
M  V30 5481 H 523.441 3.82369 0.664475 0
M  V30 5482 H 521.542 2.51167 2.7522 0
M  V30 5483 H 521.655 4.29073 2.1315 0
M  V30 5484 H 520.019 2.23635 1.21899 0
M  V30 5485 H 520.802 3.43261 0.0516987 0
M  V30 5486 N 523.247 -0.488276 1.49845 0
M  V30 5487 C 524.21 -1.57069 1.66919 0
M  V30 5488 C 525.21 -1.51445 0.540479 0
M  V30 5489 O 526.4 -1.5437 0.807188 0
M  V30 5490 C 523.532 -2.96718 1.67844 0
M  V30 5491 H 524.725 -1.43254 2.63474 0
M  V30 5492 H 522.278 -0.713435 1.39068 0
M  V30 5493 H 523.013 -3.15996 0.7292 0
M  V30 5494 H 522.798 -3.02208 2.49826 0
M  V30 5495 H 524.288 -3.75335 1.83066 0
M  V30 5496 N 524.725 -1.39134 -0.740242 0
M  V30 5497 C 525.688 -1.37217 -1.83587 0
M  V30 5498 C 526.688 -0.270221 -1.58513 0
M  V30 5499 O 527.878 -0.527843 -1.6601 0
M  V30 5500 C 525.01 -1.13959 -3.21288 0
M  V30 5501 H 526.203 -2.34705 -1.86691 0
M  V30 5502 H 523.756 -1.24622 -0.94335 0
M  V30 5503 H 524.491 -0.17131 -3.23847 0
M  V30 5504 H 524.276 -1.93754 -3.40884 0
M  V30 5505 H 525.766 -1.15346 -4.01354 0
M  V30 5506 N 526.204 0.969867 -1.24223 0
M  V30 5507 C 527.167 2.04564 -1.03373 0
M  V30 5508 C 528.167 1.60798 0.00819206 0
M  V30 5509 O 529.357 1.72641 -0.232567 0
M  V30 5510 C 526.489 3.36163 -0.566343 0
M  V30 5511 H 527.682 2.24494 -1.98853 0
M  V30 5512 H 525.235 1.1448 -1.06415 0
M  V30 5513 H 525.97 3.21925 0.391751 0
M  V30 5514 H 525.755 3.69273 -1.31834 0
M  V30 5515 H 527.245 4.1526 -0.441435 0
M  V30 5516 N 527.682 1.05563 1.17022 0
M  V30 5517 C 528.91 0.78845 1.91288 0
M  V30 5518 C 529.325 -0.656318 1.77025 0
M  V30 5519 O 528.682 -1.44869 1.10992 0
M  V30 5520 C 528.733 1.16444 3.42232 0
M  V30 5521 O 528.454 2.5525 3.5606 0
M  V30 5522 C 529.955 0.923937 4.33565 0
M  V30 5523 H 527.175 0.286389 0.606813 0
M  V30 5524 H 529.719 1.4073 1.48375 0
M  V30 5525 H 527.874 0.590266 3.82877 0
M  V30 5526 H 528.288 2.70097 4.49609 0
M  V30 5527 H 529.762 1.23672 5.37968 0
M  V30 5528 H 530.239 -0.140688 4.38975 0
M  V30 5529 H 530.845 1.48214 3.98639 0
M  V30 5530 N 529.16 -1.33526 0.837174 0
M  V30 5531 C 530.406 -1.9813 0.432704 0
M  V30 5532 C 530.739 -1.66168 -1.00508 0
M  V30 5533 O 530.014 -0.94069 -1.70239 0
M  V30 5534 C 530.297 -3.54151 0.651834 0
M  V30 5535 C 530.15 -3.95806 2.13676 0
M  V30 5536 C 531.469 -4.39993 0.0968937 0
M  V30 5537 H 528.588 -0.719713 0.15869 0
M  V30 5538 H 531.23 -1.58193 1.05237 0
M  V30 5539 H 529.38 -3.88301 0.124369 0
M  V30 5540 H 531.052 -3.71921 2.72896 0
M  V30 5541 H 529.295 -3.45599 2.62191 0
M  V30 5542 H 529.966 -5.0447 2.24084 0
M  V30 5543 H 532.442 -4.12479 0.547733 0
M  V30 5544 H 531.318 -5.48186 0.279917 0
M  V30 5545 H 531.579 -4.3066 -0.9992 0
M  V30 5546 N 530.638 -0.59345 -1.46 0
M  V30 5547 C 531.548 0.135817 -2.34207 0
M  V30 5548 C 532.564 0.875008 -1.50398 0
M  V30 5549 O 533.74 0.835778 -1.83239 0
M  V30 5550 C 530.805 1.12977 -3.27776 0
M  V30 5551 C 529.866 0.394081 -4.27487 0
M  V30 5552 C 529.099 1.34068 -5.16586 0
M  V30 5553 O 529.322 2.5778 -5.08828 0
M  V30 5554 O 528.256 0.845426 -5.95933 0
M  V30 5555 H 532.082 -0.588691 -2.9794 0
M  V30 5556 H 529.667 -0.353784 -1.45151 0
M  V30 5557 H 531.549 1.70261 -3.85473 0
M  V30 5558 H 530.224 1.83556 -2.66625 0
M  V30 5559 H 529.131 -0.220869 -3.73447 0
M  V30 5560 H 530.464 -0.270939 -4.91454 0
M  V30 5561 N 532.116 1.54067 -0.331816 0
M  V30 5562 C 533.063 2.24623 0.530372 0
M  V30 5563 C 534.033 1.24009 1.10503 0
M  V30 5564 O 535.218 1.52712 1.14384 0
M  V30 5565 C 532.358 3.01374 1.68129 0
M  V30 5566 C 531.471 4.16821 1.13507 0
M  V30 5567 C 530.606 4.81085 2.25234 0
M  V30 5568 C 529.645 5.88621 1.67903 0
M  V30 5569 N 528.782 6.46713 2.73326 0
M  V30 5570 H 533.622 2.97898 -0.0778607 0
M  V30 5571 H 531.159 1.47014 -0.0501965 0
M  V30 5572 H 533.117 3.44125 2.35868 0
M  V30 5573 H 531.747 2.30419 2.26069 0
M  V30 5574 H 530.799 3.78796 0.348979 0
M  V30 5575 H 532.111 4.94203 0.675633 0
M  V30 5576 H 531.265 5.26846 3.00862 0
M  V30 5577 H 530.004 4.03102 2.74518 0
M  V30 5578 H 529.009 5.42254 0.907773 0
M  V30 5579 H 530.234 6.68506 1.19487 0
M  V30 5580 H 528.18 5.71599 3.21886 0
M  V30 5581 H 528.097 7.19532 2.3197 0
M  V30 5582 H 529.365 6.97129 3.48758 0
M  V30 5583 N 533.594 0.0601682 1.57485 0
M  V30 5584 C 534.526 -0.94047 2.09016 0
M  V30 5585 C 535.539 -1.26897 1.01985 0
M  V30 5586 O 536.728 -1.22819 1.29529 0
M  V30 5587 C 533.828 -2.25955 2.52582 0
M  V30 5588 C 533.001 -2.11163 3.83052 0
M  V30 5589 C 532.06 -3.26273 4.12835 0
M  V30 5590 O 531.086 -3.01779 4.82616 0
M  V30 5591 N 532.288 -4.51022 3.65458 0
M  V30 5592 H 535.053 -0.500578 2.9549 0
M  V30 5593 H 532.614 -0.125852 1.6141 0
M  V30 5594 H 534.606 -3.01846 2.69575 0
M  V30 5595 H 533.176 -2.61481 1.71308 0
M  V30 5596 H 532.396 -1.19808 3.75552 0
M  V30 5597 H 533.684 -1.98517 4.68475 0
M  V30 5598 H 533.082 -4.73811 3.09062 0
M  V30 5599 H 531.639 -5.23978 3.87673 0
M  V30 5600 N 535.072 -1.5615 -0.213296 0
M  V30 5601 C 536.002 -1.96109 -1.26742 0
M  V30 5602 C 536.983 -0.830448 -1.48451 0
M  V30 5603 O 538.168 -1.09339 -1.60495 0
M  V30 5604 C 535.298 -2.28492 -2.61551 0
M  V30 5605 C 534.252 -3.44124 -2.54485 0
M  V30 5606 C 533.578 -3.62134 -3.93399 0
M  V30 5607 C 534.878 -4.78855 -2.08556 0
M  V30 5608 H 536.572 -2.84412 -0.935434 0
M  V30 5609 H 534.118 -1.36836 -0.44854 0
M  V30 5610 H 536.071 -2.55039 -3.3546 0
M  V30 5611 H 534.795 -1.37052 -2.96453 0
M  V30 5612 H 533.454 -3.17639 -1.83033 0
M  V30 5613 H 533.102 -2.68055 -4.25623 0
M  V30 5614 H 532.802 -4.39913 -3.89551 0
M  V30 5615 H 534.326 -3.91038 -4.68958 0
M  V30 5616 H 535.74 -5.04552 -2.72213 0
M  V30 5617 H 534.137 -5.59975 -2.1575 0
M  V30 5618 H 535.207 -4.73657 -1.03811 0
M  V30 5619 N 536.55 0.480323 -1.50102 0
M  V30 5620 C 537.483 1.59789 -1.62919 0
M  V30 5621 C 538.461 1.55429 -0.477557 0
M  V30 5622 O 539.645 1.75186 -0.695851 0
M  V30 5623 C 536.772 2.98351 -1.60325 0
M  V30 5624 C 535.818 3.20899 -2.80938 0
M  V30 5625 S 536.651 3.01791 -4.4236 0
M  V30 5626 C 537.807 4.42712 -4.42444 0
M  V30 5627 H 538.04 1.48676 -2.57454 0
M  V30 5628 H 535.573 0.666996 -1.3925 0
M  V30 5629 H 537.531 3.7824 -1.59514 0
M  V30 5630 H 536.192 3.06862 -0.670419 0
M  V30 5631 H 535.385 4.22102 -2.75401 0
M  V30 5632 H 534.987 2.48768 -2.79268 0
M  V30 5633 H 537.279 5.3518 -4.15438 0
M  V30 5634 H 538.222 4.53294 -5.43995 0
M  V30 5635 H 538.63 4.24359 -3.72263 0
M  V30 5636 N 538.028 1.39524 0.732853 0
M  V30 5637 C 539.274 1.37068 1.49467 0
M  V30 5638 C 539.607 -0.0327166 1.94172 0
M  V30 5639 O 538.882 -0.998071 1.66939 0
M  V30 5640 C 539.165 2.34494 2.73285 0
M  V30 5641 C 539.018 3.83784 2.34585 0
M  V30 5642 C 540.337 2.29717 3.75391 0
M  V30 5643 H 537.456 0.499206 0.542183 0
M  V30 5644 H 540.098 1.70532 0.837783 0
M  V30 5645 H 538.248 2.06087 3.29333 0
M  V30 5646 H 539.92 4.22949 1.84151 0
M  V30 5647 H 538.163 4.00455 1.66787 0
M  V30 5648 H 538.834 4.47444 3.23262 0
M  V30 5649 H 541.31 2.54839 3.28932 0
M  V30 5650 H 540.186 2.99962 4.59689 0
M  V30 5651 H 540.447 1.30291 4.22465 0
M  V30 5652 N 539.506 -0.963266 1.24736 0
M  V30 5653 C 540.731 -1.74699 1.11781 0
M  V30 5654 C 541.156 -1.85267 -0.325258 0
M  V30 5655 O 540.514 -1.32681 -1.23553 0
M  V30 5656 C 540.562 -3.14322 1.76731 0
M  V30 5657 O 539.666 -3.99043 1.04109 0
M  V30 5658 H 539.007 -0.53684 0.390767 0
M  V30 5659 H 541.537 -1.20801 1.65131 0
M  V30 5660 H 541.547 -3.64824 1.82668 0
M  V30 5661 H 540.222 -3.05946 2.81726 0
M  V30 5662 H 538.799 -3.5752 1.05991 0
M  V30 5663 N 540.985 -1.06182 -1.16461 0
M  V30 5664 C 542.401 -0.785065 -1.38956 0
M  V30 5665 C 542.601 0.616103 -1.9185 0
M  V30 5666 O 541.657 1.37686 -2.11657 0
M  V30 5667 C 542.97 -1.84902 -2.37132 0
M  V30 5668 C 544.518 -1.8724 -2.50819 0
M  V30 5669 C 544.993 -2.92686 -3.52277 0
M  V30 5670 N 546.484 -2.91712 -3.59803 0
M  V30 5671 C 547.219 -3.69949 -4.38093 0
M  V30 5672 N 546.715 -4.58 -5.19815 0
M  V30 5673 N 548.508 -3.58346 -4.33064 0
M  V30 5674 H 540.659 -1.96569 -0.804634 0
M  V30 5675 H 542.922 -0.851747 -0.416211 0
M  V30 5676 H 542.628 -2.85518 -2.0536 0
M  V30 5677 H 542.502 -1.69908 -3.36766 0
M  V30 5678 H 544.889 -0.872827 -2.81897 0
M  V30 5679 H 544.97 -2.06311 -1.51226 0
M  V30 5680 H 544.614 -3.92835 -3.21937 0
M  V30 5681 H 544.544 -2.70864 -4.51598 0
M  V30 5682 H 547.035 -2.27876 -3.01464 0
M  V30 5683 H 547.348 -5.14357 -5.76764 0
M  V30 5684 H 545.693 -4.62056 -5.19162 0
M  V30 5685 H 548.884 -2.88943 -3.68279 0
M  V30 5686 H 549.057 -4.19563 -4.93833 0
M  V30 5687 N 542.463 1.3308 -0.844243 0
M  V30 5688 C 543.703 1.99414 -0.448697 0
M  V30 5689 C 544.067 1.65398 0.975058 0
M  V30 5690 O 545.268 2.24741 1.47461 0
M  V30 5691 C 543.539 3.51081 -0.669089 0
M  V30 5692 S 545.098 4.37241 -0.369564 0
M  V30 5693 H 541.916 0.690736 -0.168538 0
M  V30 5694 H 544.518 1.61977 -1.0947 0
M  V30 5695 H 543.222 3.73326 -1.70457 0
M  V30 5696 H 542.753 3.93399 -0.00913211 0
M  V30 5697 H 544.768 4.89568 0.808552 0
M  V30 5698 N 543.941 0.601185 1.45683 0
M  V30 5699 C 545.181 0.0968037 2.04171 0
M  V30 5700 C 545.545 -1.2466 1.46027 0
M  V30 5701 O 546.746 -1.84132 1.95829 0
M  V30 5702 C 545.017 0.051384 3.57363 0
M  V30 5703 S 546.576 -0.392737 4.37039 0
M  V30 5704 H 543.394 0.0464504 0.709481 0
M  V30 5705 H 545.996 0.797846 1.78479 0
M  V30 5706 H 544.7 1.03274 3.97193 0
M  V30 5707 H 544.231 -0.671853 3.87621 0
M  V30 5708 H 546.246 -1.64364 4.68187 0
M  V30 5709 N 545.419 -1.53889 0.339982 0
M  V30 5710 C 546.329 -2.28604 -0.526988 0
M  V30 5711 C 547.345 -1.33578 -1.11503 0
M  V30 5712 O 548.521 -1.66612 -1.13148 0
M  V30 5713 C 545.586 -3.04164 -1.66389 0
M  V30 5714 C 544.647 -4.14809 -1.10599 0
M  V30 5715 C 543.88 -4.86756 -2.18871 0
M  V30 5716 O 544.103 -4.58343 -3.39526 0
M  V30 5717 O 543.037 -5.73289 -1.83366 0
M  V30 5718 H 546.863 -3.03594 0.0802707 0
M  V30 5719 H 544.448 -1.4903 0.105141 0
M  V30 5720 H 546.33 -3.51427 -2.32544 0
M  V30 5721 H 545.005 -2.32035 -2.25703 0
M  V30 5722 H 543.912 -3.71857 -0.409067 0
M  V30 5723 H 545.245 -4.89029 -0.557771 0
M  V30 5724 N 546.897 -0.0685191 -1.57451 0
M  V30 5725 C 548.144 0.601348 -1.93365 0
M  V30 5726 C 548.472 1.69816 -0.948294 0
M  V30 5727 O 547.727 1.95666 0.0366199 0
M  V30 5728 C 548.026 1.22051 -3.35914 0
M  V30 5729 C 547.692 0.250165 -4.50205 0
M  V30 5730 C 546.354 -0.0167954 -4.81197 0
M  V30 5731 C 548.706 -0.413867 -5.19554 0
M  V30 5732 C 546.034 -0.95493 -5.78876 0
M  V30 5733 C 548.386 -1.3403 -6.18238 0
M  V30 5734 C 547.05 -1.61576 -6.47649 0
M  V30 5735 H 546.32 0.220049 -0.707573 0
M  V30 5736 H 548.967 -0.138697 -1.90997 0
M  V30 5737 H 547.272 2.03622 -3.34732 0
M  V30 5738 H 548.969 1.74605 -3.6099 0
M  V30 5739 H 545.559 0.468421 -4.26033 0
M  V30 5740 H 549.743 -0.220733 -4.95809 0
M  V30 5741 H 544.999 -1.17563 -5.99991 0
M  V30 5742 H 549.173 -1.86081 -6.71079 0
M  V30 5743 H 546.8 -2.34431 -7.2315 0
M  V30 5744 N 548.375 1.56261 0.205012 0
M  V30 5745 C 549.786 1.70056 0.770574 0
M  V30 5746 C 550.137 0.673398 1.84282 0
M  V30 5747 O 549.262 -0.172196 2.15714 0
M  V30 5748 C 549.857 3.08316 1.40451 0
M  V30 5749 C 548.416 3.2391 1.91727 0
M  V30 5750 C 547.563 2.66001 0.783516 0
M  V30 5751 H 550.514 1.58688 -0.019911 0
M  V30 5752 H 550.535 3.05094 2.27371 0
M  V30 5753 H 550.047 3.83053 0.623882 0
M  V30 5754 H 548.148 2.54072 2.7254 0
M  V30 5755 H 548.261 4.3131 2.08588 0
M  V30 5756 H 546.625 2.24915 1.19521 0
M  V30 5757 H 547.408 3.43297 0.0152883 0
M  V30 5758 N 549.853 -0.472356 1.50355 0
M  V30 5759 C 551.099 -1.22634 1.6152 0
M  V30 5760 C 551.432 -1.91645 0.313995 0
M  V30 5761 O 550.707 -1.82059 -0.684446 0
M  V30 5762 C 550.99 -2.27099 2.7946 0
M  V30 5763 C 550.843 -1.62402 4.19459 0
M  V30 5764 C 552.162 -3.28421 2.92964 0
M  V30 5765 H 549.281 -0.444494 0.587873 0
M  V30 5766 H 551.923 -0.520321 1.82737 0
M  V30 5767 H 550.073 -2.87314 2.61501 0
M  V30 5768 H 551.745 -1.05793 4.49005 0
M  V30 5769 H 549.988 -0.927184 4.23776 0
M  V30 5770 H 550.659 -2.38309 4.97909 0
M  V30 5771 H 553.135 -2.78227 3.09401 0
M  V30 5772 H 552.011 -3.98845 3.77113 0
M  V30 5773 H 552.272 -3.92467 2.03525 0
M  V30 5774 N 551.331 -1.39911 -0.725443 0
M  V30 5775 C 552.577 -1.37858 -1.48738 0
M  V30 5776 C 552.91 0.0224187 -1.94187 0
M  V30 5777 O 552.185 0.989204 -1.67466 0
M  V30 5778 C 552.468 -2.3594 -2.72038 0
M  V30 5779 C 552.321 -3.85023 -2.32546 0
M  V30 5780 C 553.64 -2.31704 -3.74167 0
M  V30 5781 H 550.759 -0.502074 -0.539528 0
M  V30 5782 H 553.401 -1.70974 -0.828728 0
M  V30 5783 H 551.551 -2.0783 -3.28236 0
M  V30 5784 H 553.223 -4.2392 -1.81905 0
M  V30 5785 H 551.466 -4.01334 -1.64661 0
M  V30 5786 H 552.137 -4.49152 -3.20884 0
M  V30 5787 H 554.613 -2.5658 -3.27576 0
M  V30 5788 H 553.489 -3.02395 -4.58092 0
M  V30 5789 H 553.75 -1.3253 -4.21768 0
M  V30 5790 N 552.809 0.956637 -1.25245 0
M  V30 5791 C 553.759 2.03841 -1.02141 0
M  V30 5792 C 554.743 1.60848 0.0410058 0
M  V30 5793 O 555.935 1.76142 -0.174084 0
M  V30 5794 C 553.064 3.37282 -0.639963 0
M  V30 5795 C 552.15 3.86805 -1.73903 0
M  V30 5796 N 552.541 4.09143 -2.97381 0
M  V30 5797 C 550.839 4.15574 -1.61909 0
M  V30 5798 C 551.54 4.49923 -3.68707 0
M  V30 5799 N 550.516 4.55737 -2.96318 0
M  V30 5800 H 554.318 2.19102 -1.95886 0
M  V30 5801 H 551.832 1.1413 -1.15534 0
M  V30 5802 H 553.829 4.14403 -0.455643 0
M  V30 5803 H 552.489 3.23401 0.29018 0
M  V30 5804 H 553.5 3.96275 -3.33447 0
M  V30 5805 H 550.177 4.10566 -0.757764 0
M  V30 5806 H 551.567 4.75526 -4.74684 0
M  V30 5807 N 554.287 1.06798 1.15896 0
M  V30 5808 C 555.698 0.811355 1.68149 0
M  V30 5809 C 556.049 -0.664339 1.8461 0
M  V30 5810 O 555.174 -1.51485 1.54535 0
M  V30 5811 C 555.769 1.46624 3.05429 0
M  V30 5812 C 554.328 1.25726 3.54781 0
M  V30 5813 C 553.475 1.53949 2.3064 0
M  V30 5814 H 556.426 1.23078 1.00187 0
M  V30 5815 H 556.447 0.88437 3.7008 0
M  V30 5816 H 555.959 2.54025 2.93416 0
M  V30 5817 H 554.06 0.20322 3.72045 0
M  V30 5818 H 554.173 1.97354 4.36564 0
M  V30 5819 H 552.537 0.96025 2.35905 0
M  V30 5820 H 553.32 2.6252 2.2122 0
M  V30 5821 N 555.766 -1.3263 0.851289 0
M  V30 5822 C 556.698 -2.27824 0.250757 0
M  V30 5823 C 557.711 -1.52285 -0.575598 0
M  V30 5824 O 558.9 -1.73946 -0.400638 0
M  V30 5825 C 556 -3.3232 -0.664571 0
M  V30 5826 C 555.173 -4.37221 0.125187 0
M  V30 5827 C 554.232 -5.21314 -0.715385 0
M  V30 5828 O 553.258 -5.69002 -0.150111 0
M  V30 5829 N 554.46 -5.43823 -2.03069 0
M  V30 5830 H 557.225 -2.79997 1.06873 0
M  V30 5831 H 554.786 -1.45455 0.710943 0
M  V30 5832 H 556.778 -3.85486 -1.23216 0
M  V30 5833 H 555.348 -2.80331 -1.38323 0
M  V30 5834 H 554.568 -3.84384 0.874199 0
M  V30 5835 H 555.856 -5.04399 0.667774 0
M  V30 5836 H 555.254 -5.06803 -2.51332 0
M  V30 5837 H 553.811 -5.99998 -2.54648 0
M  V30 5838 N 557.244 -0.608902 -1.45362 0
M  V30 5839 C 558.176 0.147318 -2.28726 0
M  V30 5840 C 559.189 0.830468 -1.40025 0
M  V30 5841 O 560.378 0.695636 -1.64387 0
M  V30 5842 C 557.478 1.22968 -3.15804 0
M  V30 5843 C 556.651 0.633391 -4.3279 0
M  V30 5844 C 555.71 1.60682 -5.01067 0
M  V30 5845 O 554.736 1.13261 -5.57818 0
M  V30 5846 N 555.938 2.94123 -5.00472 0
M  V30 5847 H 558.703 -0.568014 -2.94268 0
M  V30 5848 H 556.264 -0.448479 -1.55564 0
M  V30 5849 H 558.256 1.88072 -3.58345 0
M  V30 5850 H 556.826 1.84752 -2.52162 0
M  V30 5851 H 556.046 -0.195762 -3.93714 0
M  V30 5852 H 557.334 0.215255 -5.08344 0
M  V30 5853 H 556.732 3.3525 -4.55657 0
M  V30 5854 H 555.289 3.54646 -5.46872 0
M  V30 5855 N 558.722 1.53707 -0.348139 0
M  V30 5856 C 559.968 2.01286 0.247332 0
M  V30 5857 C 560.301 1.23546 1.49834 0
M  V30 5858 O 559.576 0.324331 1.91777 0
M  V30 5859 C 559.859 3.55768 0.556858 0
M  V30 5860 C 559.712 4.44216 -0.706564 0
M  V30 5861 C 561.031 4.1841 1.3646 0
M  V30 5862 H 558.15 0.731677 0.0884201 0
M  V30 5863 H 560.792 1.84106 -0.469584 0
M  V30 5864 H 558.942 3.70539 1.16761 0
M  V30 5865 H 560.614 4.41274 -1.34444 0
M  V30 5866 H 558.857 4.12892 -1.33052 0
M  V30 5867 H 559.528 5.50202 -0.445186 0
M  V30 5868 H 562.004 4.07365 0.848113 0
M  V30 5869 H 560.88 5.26563 1.54992 0
M  V30 5870 H 561.141 3.7333 2.36805 0
M  V30 5871 N 560.2 0.0768682 1.57412 0
M  V30 5872 C 561.448 -0.589918 1.93299 0
M  V30 5873 C 561.769 -1.69842 0.958049 0
M  V30 5874 O 561.039 -1.95899 0.00703261 0
M  V30 5875 H 559.619 -0.220901 0.713591 0
M  V30 5876 H 562.281 0.135917 1.94425 0
M  V30 5877 H 561.377 -1.01195 2.95239 0
M  V30 5878 N 561.678 -1.56367 -0.196722 0
M  V30 5879 C 563.094 -1.49916 -0.54749 0
M  V30 5880 C 563.294 -0.77659 -1.85934 0
M  V30 5881 O 562.35 -0.32644 -2.50381 0
M  V30 5882 C 563.663 -2.94577 -0.603734 0
M  V30 5883 C 565.211 -3.05239 -0.692677 0
M  V30 5884 C 565.686 -4.51308 -0.780046 0
M  V30 5885 N 567.177 -4.55453 -0.843616 0
M  V30 5886 C 567.912 -5.65786 -0.931358 0
M  V30 5887 N 567.408 -6.85812 -0.981503 0
M  V30 5888 N 569.201 -5.53695 -0.968421 0
M  V30 5889 H 561.352 -2.01761 0.663803 0
M  V30 5890 H 563.615 -0.918094 0.236238 0
M  V30 5891 H 563.321 -3.50494 0.29105 0
M  V30 5892 H 563.195 -3.47841 -1.45898 0
M  V30 5893 H 565.582 -2.49372 -1.57789 0
M  V30 5894 H 565.663 -2.55103 0.188736 0
M  V30 5895 H 565.307 -5.078 0.100811 0
M  V30 5896 H 565.237 -4.99176 -1.67724 0
M  V30 5897 H 567.728 -3.69025 -0.814176 0
M  V30 5898 H 568.041 -7.65648 -1.04892 0
M  V30 5899 H 566.386 -6.88474 -0.950208 0
M  V30 5900 H 569.577 -4.58848 -0.926072 0
M  V30 5901 H 569.75 -6.39708 -1.03334 0
M  V30 5902 N 563.156 0.464375 -1.50603 0
M  V30 5903 C 564.567 1.04507 -1.5471 0
M  V30 5904 C 564.918 1.9297 -0.354542 0
M  V30 5905 O 564.043 2.09763 0.531812 0
M  V30 5906 C 564.638 1.90207 -2.80369 0
M  V30 5907 C 563.197 2.43373 -2.87135 0
M  V30 5908 C 562.344 1.21886 -2.49076 0
M  V30 5909 H 565.295 0.246716 -1.56771 0
M  V30 5910 H 565.316 2.75353 -2.62604 0
M  V30 5911 H 564.828 1.25796 -3.67147 0
M  V30 5912 H 562.929 3.11318 -2.04724 0
M  V30 5913 H 563.042 2.7802 -3.90181 0
M  V30 5914 H 561.406 1.55575 -2.01664 0
M  V30 5915 H 562.189 0.591268 -3.3817 0
M  V30 5916 N 564.634 1.40294 0.718013 0
M  V30 5917 C 565.864 1.41544 1.50495 0
M  V30 5918 C 566.272 0.0127877 1.89196 0
M  V30 5919 O 565.615 -0.97305 1.55812 0
M  V30 5920 C 565.677 2.24021 2.81167 0
M  V30 5921 C 565.341 3.72463 2.64803 0
M  V30 5922 C 566.338 4.65154 2.32223 0
M  V30 5923 C 564.023 4.1625 2.81143 0
M  V30 5924 C 566.017 5.99618 2.16189 0
M  V30 5925 C 563.704 5.50784 2.64727 0
M  V30 5926 C 564.702 6.42283 2.32297 0
M  V30 5927 O 564.39 7.74337 2.16004 0
M  V30 5928 H 564.122 0.484819 0.471091 0
M  V30 5929 H 566.676 1.84948 0.893488 0
M  V30 5930 H 564.906 1.75393 3.44636 0
M  V30 5931 H 566.595 2.17243 3.42871 0
M  V30 5932 H 567.361 4.32622 2.19234 0
M  V30 5933 H 563.24 3.45352 3.05373 0
M  V30 5934 H 566.784 6.71 1.90799 0
M  V30 5935 H 562.681 5.82902 2.773 0
M  V30 5936 H 563.449 7.85244 2.30942 0
M  V30 5937 N 566.112 -0.949982 1.2575 0
M  V30 5938 C 567.528 -1.22191 1.02672 0
M  V30 5939 C 567.728 -1.99898 -0.253588 0
M  V30 5940 O 566.784 -2.33329 -0.965076 0
M  V30 5941 C 568.097 -1.99175 2.25277 0
M  V30 5942 C 569.645 -2.12201 2.30087 0
M  V30 5943 C 570.12 -2.92586 3.5236 0
M  V30 5944 N 571.611 -3.00163 3.52784 0
M  V30 5945 C 572.346 -3.62766 4.44059 0
M  V30 5946 N 571.842 -4.26943 5.45611 0
M  V30 5947 N 573.635 -3.59953 4.3173 0
M  V30 5948 H 565.786 -0.430258 2.07996 0
M  V30 5949 H 568.049 -0.252844 0.91366 0
M  V30 5950 H 567.755 -1.49479 3.18354 0
M  V30 5951 H 567.629 -2.99868 2.28821 0
M  V30 5952 H 570.016 -2.61093 1.3753 0
M  V30 5953 H 570.097 -1.10799 2.30559 0
M  V30 5954 H 569.741 -2.44383 4.45241 0
M  V30 5955 H 569.671 -3.94224 3.49134 0
M  V30 5956 H 572.162 -2.54529 2.79327 0
M  V30 5957 H 572.475 -4.72583 6.11461 0
M  V30 5958 H 570.82 -4.25557 5.49478 0
M  V30 5959 H 574.011 -3.09003 3.51617 0
M  V30 5960 H 574.184 -4.08455 5.03059 0
M  V30 5961 N 567.59 -1.07411 -1.15328 0
M  V30 5962 C 568.82 -0.817595 -1.89734 0
M  V30 5963 C 569.228 0.63297 -1.78298 0
M  V30 5964 O 568.571 1.44594 -1.13306 0
M  V30 5965 C 568.633 -1.14748 -3.40695 0
M  V30 5966 C 568.297 -2.59876 -3.75917 0
M  V30 5967 C 569.294 -3.58122 -3.76888 0
M  V30 5968 C 566.979 -2.95469 -4.06206 0
M  V30 5969 C 568.973 -4.89996 -4.07655 0
M  V30 5970 C 566.66 -4.2754 -4.36638 0
M  V30 5971 C 567.658 -5.24614 -4.37344 0
M  V30 5972 O 567.346 -6.54312 -4.67045 0
M  V30 5973 H 567.078 -0.295175 -0.608151 0
M  V30 5974 H 569.632 -1.43409 -1.47048 0
M  V30 5975 H 567.862 -0.47395 -3.83785 0
M  V30 5976 H 569.551 -0.873397 -3.96392 0
M  V30 5977 H 570.317 -3.31966 -3.53587 0
M  V30 5978 H 566.196 -2.20558 -4.04815 0
M  V30 5979 H 569.74 -5.65759 -4.08121 0
M  V30 5980 H 565.637 -4.53449 -4.59407 0
M  V30 5981 H 566.405 -6.59473 -4.84807 0
M  V30 5982 N 569.068 1.32177 -0.85831 0
M  V30 5983 C 570.314 1.97417 -0.46417 0
M  V30 5984 C 570.647 1.67746 0.978514 0
M  V30 5985 O 569.922 0.967654 1.68721 0
M  V30 5986 C 570.205 3.53069 -0.708094 0
M  V30 5987 C 570.058 3.92357 -2.19946 0
M  V30 5988 C 571.377 4.39783 -0.166881 0
M  V30 5989 H 568.496 0.717097 -0.17012 0
M  V30 5990 H 571.138 1.56499 -1.07741 0
M  V30 5991 H 569.288 3.88054 -0.186128 0
M  V30 5992 H 570.96 3.67533 -2.78779 0
M  V30 5993 H 569.203 3.41384 -2.67656 0
M  V30 5994 H 569.874 5.00841 -2.32082 0
M  V30 5995 H 572.35 4.11556 -0.613285 0
M  V30 5996 H 571.226 5.47671 -0.367093 0
M  V30 5997 H 571.487 4.32196 0.930559 0
M  V30 5998 N 570.547 0.616602 1.45037 0
M  V30 5999 C 571.777 0.121791 2.06241 0
M  V30 6000 C 572.185 -1.20289 1.46038 0
M  V30 6001 O 571.528 -1.7456 0.572242 0
M  V30 6002 C 571.59 -0.0827345 3.59405 0
M  V30 6003 C 571.254 1.16153 4.41993 0
M  V30 6004 C 572.251 2.08183 4.76399 0
M  V30 6005 C 569.936 1.39288 4.82601 0
M  V30 6006 C 571.93 3.21668 5.5028 0
M  V30 6007 C 569.617 2.53073 5.56235 0
M  V30 6008 C 570.615 3.44091 5.89992 0
M  V30 6009 O 570.303 4.55894 6.6213 0
M  V30 6010 H 570.035 0.0701667 0.672349 0
M  V30 6011 H 572.589 0.846877 1.87129 0
M  V30 6012 H 570.819 -0.862812 3.76952 0
M  V30 6013 H 572.508 -0.530273 4.02421 0
M  V30 6014 H 573.274 1.91538 4.45576 0
M  V30 6015 H 569.153 0.693396 4.55755 0
M  V30 6016 H 572.697 3.92733 5.76547 0
M  V30 6017 H 568.594 2.69667 5.86472 0
M  V30 6018 H 569.362 4.5469 6.80587 0
M  V30 6019 N 572.025 -1.5352 0.356285 0
M  V30 6020 C 572.958 -2.2177 -0.537913 0
M  V30 6021 C 573.936 -1.20626 -1.09033 0
M  V30 6022 O 575.12 -1.49494 -1.1482 0
M  V30 6023 C 572.247 -2.90513 -1.74126 0
M  V30 6024 C 571.293 -4.05652 -1.31715 0
M  V30 6025 S 572.126 -5.34505 -0.326236 0
M  V30 6026 C 573.282 -6.06757 -1.53612 0
M  V30 6027 H 573.515 -2.97271 0.0417411 0
M  V30 6028 H 571.048 -1.53761 0.140372 0
M  V30 6029 H 573.006 -3.30735 -2.43155 0
M  V30 6030 H 571.667 -2.14754 -2.29215 0
M  V30 6031 H 570.86 -4.52733 -2.21471 0
M  V30 6032 H 570.462 -3.67272 -0.706183 0
M  V30 6033 H 572.754 -6.30924 -2.46863 0
M  V30 6034 H 573.697 -6.99395 -1.10687 0
M  V30 6035 H 574.105 -5.3708 -1.73796 0
M  V30 6036 N 573.503 -0.0852151 -1.57369 0
M  V30 6037 C 574.751 0.579658 -1.93609 0
M  V30 6038 C 575.072 1.69332 -0.967043 0
M  V30 6039 O 574.342 1.95892 -0.0174215 0
M  V30 6040 H 572.922 0.217113 -0.714752 0
M  V30 6041 H 575.584 -0.146226 -1.94351 0
M  V30 6042 H 574.68 0.996276 -2.95771 0
M  V30 6043 N 574.981 1.5647 0.188427 0
M  V30 6044 C 575.944 1.9421 1.21718 0
M  V30 6045 C 576.944 0.823901 1.38089 0
M  V30 6046 O 578.134 1.09122 1.35787 0
M  V30 6047 C 575.266 2.22197 2.58537 0
M  V30 6048 H 576.459 2.86252 0.894418 0
M  V30 6049 H 574.012 1.50263 0.430211 0
M  V30 6050 H 574.747 1.32814 2.95856 0
M  V30 6051 H 574.532 3.03688 2.48025 0
M  V30 6052 H 576.022 2.52376 3.3271 0
M  V30 6053 N 576.459 -0.456382 1.50847 0
M  V30 6054 C 577.422 -1.53493 1.70213 0
M  V30 6055 C 578.422 -1.50264 0.572481 0
M  V30 6056 O 579.612 -1.52623 0.839751 0
M  V30 6057 C 576.744 -2.93091 1.741 0
M  V30 6058 H 577.937 -1.37633 2.66453 0
M  V30 6059 H 575.49 -0.683776 1.4055 0
M  V30 6060 H 576.225 -3.14378 0.796063 0
M  V30 6061 H 576.01 -2.9684 2.5618 0
M  V30 6062 H 577.5 -3.71368 1.90987 0
M  V30 6063 N 577.937 -1.40673 -0.710563 0
M  V30 6064 C 578.887 -1.37812 -1.81636 0
M  V30 6065 C 579.871 -0.254853 -1.58869 0
M  V30 6066 O 581.063 -0.494356 -1.69956 0
M  V30 6067 C 578.192 -1.24802 -3.19811 0
M  V30 6068 C 577.278 -2.41931 -3.48325 0
M  V30 6069 N 577.669 -3.67411 -3.47625 0
M  V30 6070 C 575.967 -2.35419 -3.78806 0
M  V30 6071 C 576.668 -4.45008 -3.74623 0
M  V30 6072 N 575.644 -3.74916 -3.93623 0
M  V30 6073 H 579.446 -2.32766 -1.79436 0
M  V30 6074 H 576.96 -1.34516 -0.909909 0
M  V30 6075 H 578.957 -1.20835 -3.99004 0
M  V30 6076 H 577.617 -0.308202 -3.23234 0
M  V30 6077 H 578.628 -4.00503 -3.28356 0
M  V30 6078 H 575.305 -1.4983 -3.89689 0
M  V30 6079 H 576.695 -5.53884 -3.80344 0
M  V30 6080 N 579.415 0.9433 -1.26252 0
M  V30 6081 C 580.365 2.02746 -1.04297 0
M  V30 6082 C 581.349 1.60882 0.0239435 0
M  V30 6083 O 582.541 1.75947 -0.192757 0
M  V30 6084 C 579.67 3.36585 -0.6757 0
M  V30 6085 C 578.756 3.84939 -1.77996 0
M  V30 6086 N 579.147 4.05966 -3.01704 0
M  V30 6087 C 577.445 4.13833 -1.66308 0
M  V30 6088 C 578.146 4.45987 -3.73458 0
M  V30 6089 N 577.122 4.52569 -3.01135 0
M  V30 6090 H 580.924 2.17012 -1.98199 0
M  V30 6091 H 578.438 1.12898 -1.16738 0
M  V30 6092 H 580.435 4.13896 -0.499571 0
M  V30 6093 H 579.095 3.2369 0.255863 0
M  V30 6094 H 580.106 3.92716 -3.37631 0
M  V30 6095 H 576.783 4.09739 -0.801267 0
M  V30 6096 H 578.173 4.70465 -4.79701 0
M  V30 6097 N 580.893 1.08022 1.14757 0
M  V30 6098 C 582.118 0.82895 1.90114 0
M  V30 6099 C 582.543 -0.612772 1.77839 0
M  V30 6100 O 581.901 -1.42895 1.11583 0
M  V30 6101 C 581.949 1.25062 3.38219 0
M  V30 6102 O 581.053 0.400119 4.10454 0
M  V30 6103 H 580.394 0.301412 0.591648 0
M  V30 6104 H 582.924 1.44062 1.45284 0
M  V30 6105 H 582.934 1.22977 3.89025 0
M  V30 6106 H 581.609 2.30067 3.46471 0
M  V30 6107 H 580.186 0.484052 3.69745 0
M  V30 6108 N 582.371 -1.3172 0.865308 0
M  V30 6109 C 583.599 -2.01057 0.488251 0
M  V30 6110 C 584.014 -1.64979 -0.918 0
M  V30 6111 O 583.371 -0.876597 -1.60069 0
M  V30 6112 C 583.422 -3.55964 0.630224 0
M  V30 6113 O 583.143 -3.90749 1.98109 0
M  V30 6114 C 584.644 -4.42574 0.253567 0
M  V30 6115 H 581.864 -0.64332 0.190736 0
M  V30 6116 H 584.408 -1.68058 1.16519 0
M  V30 6117 H 582.563 -3.874 0.000895422 0
M  V30 6118 H 582.977 -4.85467 1.9855 0
M  V30 6119 H 584.451 -5.50521 0.403875 0
M  V30 6120 H 584.928 -4.31724 -0.806895 0
M  V30 6121 H 585.534 -4.16547 0.858404 0
M  V30 6122 N 583.85 -0.624285 -1.44708 0
M  V30 6123 C 585.098 -0.125802 -2.01708 0
M  V30 6124 C 585.418 1.2543 -1.49306 0
M  V30 6125 O 584.689 1.83198 -0.693924 0
M  V30 6126 H 583.269 -0.0435161 -0.745731 0
M  V30 6127 H 585.931 -0.809446 -1.77296 0
M  V30 6128 H 585.027 -0.0882734 -3.11975 0
M  V30 6129 N 585.328 1.53329 -0.364422 0
M  V30 6130 C 586.276 2.27212 0.497737 0
M  V30 6131 C 587.27 1.30146 1.08437 0
M  V30 6132 O 588.476 1.47778 1.0277 0
M  V30 6133 H 584.851 0.730329 0.179232 0
M  V30 6134 H 586.822 2.98037 -0.147182 0
M  V30 6135 C 585.571 3.07333 1.6261 0
M  V30 6136 H 584.894 3.81866 1.184 0
M  V30 6137 H 586.334 3.62209 2.20409 0
M  V30 6138 C 584.793 2.18102 2.56775 0
M  V30 6139 O 585.323 1.79104 3.59562 0
M  V30 6140 N 583.529 1.82759 2.25937 0
M  V30 6141 H 583.076 2.14671 1.42387 0
M  V30 6142 H 583.034 1.23342 2.89196 0
M  V30 6143 N 586.806 0.0935595 1.57322 0
M  V30 6144 C 587.769 -0.851426 2.12799 0
M  V30 6145 C 588.769 -1.21187 1.0569 0
M  V30 6146 O 589.959 -1.14156 1.31583 0
M  V30 6147 C 587.091 -2.14779 2.64731 0
M  V30 6148 H 588.284 -0.369733 2.97612 0
M  V30 6149 H 585.837 -0.155417 1.55525 0
M  V30 6150 H 586.572 -2.67437 1.83434 0
M  V30 6151 H 586.357 -1.89907 3.43042 0
M  V30 6152 H 587.847 -2.82383 3.07651 0
M  V30 6153 N 588.284 -1.56567 -0.180126 0
M  V30 6154 C 589.695 -1.7126 -0.743422 0
M  V30 6155 C 590.046 -0.70263 -1.83187 0
M  V30 6156 O 589.171 0.137856 -2.1596 0
M  V30 6157 C 589.766 -3.10512 -1.35528 0
M  V30 6158 C 588.325 -3.26919 -1.8655 0
M  V30 6159 C 587.472 -2.67213 -0.741099 0
M  V30 6160 H 590.423 -1.58636 0.0451543 0
M  V30 6161 H 590.444 -3.08673 -2.22489 0
M  V30 6162 H 589.956 -3.83997 -0.562862 0
M  V30 6163 H 588.057 -2.58376 -2.68464 0
M  V30 6164 H 588.17 -4.34574 -2.01699 0
M  V30 6165 H 586.534 -2.26788 -1.15927 0
M  V30 6166 H 587.317 -3.43277 0.0393291 0
M  V30 6167 N 589.762 0.448376 -1.51087 0
M  V30 6168 C 590.692 1.55102 -1.74544 0
M  V30 6169 C 591.673 1.59357 -0.594932 0
M  V30 6170 O 592.858 1.75261 -0.836491 0
M  V30 6171 C 589.988 2.93268 -1.86041 0
M  V30 6172 C 588.942 3.03877 -3.01402 0
M  V30 6173 C 588.268 4.43914 -2.98068 0
M  V30 6174 C 589.568 2.7898 -4.41551 0
M  V30 6175 H 591.262 1.35724 -2.66869 0
M  V30 6176 H 588.808 0.651498 -1.28419 0
M  V30 6177 H 590.761 3.70356 -2.01034 0
M  V30 6178 H 589.485 3.13853 -0.903548 0
M  V30 6179 H 588.144 2.29227 -2.86096 0
M  V30 6180 H 587.792 4.6145 -2.00182 0
M  V30 6181 H 587.492 4.51944 -3.75527 0
M  V30 6182 H 589.016 5.22991 -3.1514 0
M  V30 6183 H 590.43 3.45805 -4.57265 0
M  V30 6184 H 588.827 2.98431 -5.20633 0
M  V30 6185 H 589.897 1.74663 -4.5235 0
M  V30 6186 N 591.24 1.41047 0.703093 0
M  V30 6187 C 592.172 1.38228 1.82827 0
M  V30 6188 C 593.185 0.285637 1.60275 0
M  V30 6189 O 594.374 0.54685 1.69917 0
M  V30 6190 C 591.474 1.13136 3.19458 0
M  V30 6191 C 590.647 2.34695 3.69103 0
M  V30 6192 C 589.706 2.05574 4.84382 0
M  V30 6193 O 588.732 2.78549 4.96386 0
M  V30 6194 N 589.934 1.04135 5.71083 0
M  V30 6195 H 592.699 2.35203 1.85741 0
M  V30 6196 H 590.26 1.35562 0.885125 0
M  V30 6197 H 592.252 0.916183 3.94193 0
M  V30 6198 H 590.822 0.247836 3.11616 0
M  V30 6199 H 590.042 2.71963 2.85359 0
M  V30 6200 H 591.33 3.15705 3.99009 0
M  V30 6201 H 590.728 0.43722 5.64008 0
M  V30 6202 H 589.285 0.886078 6.45749 0
M  V30 6203 N 592.718 -0.936591 1.26751 0
M  V30 6204 C 593.681 -2.01752 1.08761 0
M  V30 6205 C 594.681 -1.60763 0.0344435 0
M  V30 6206 O 595.871 -1.71963 0.278258 0
M  V30 6207 C 593.003 -3.34543 0.655271 0
M  V30 6208 H 594.196 -2.19143 2.04735 0
M  V30 6209 H 591.749 -1.11618 1.09413 0
M  V30 6210 H 592.484 -3.22851 -0.30626 0
M  V30 6211 H 592.269 -3.65647 1.41578 0
M  V30 6212 H 593.759 -4.13944 0.551378 0
M  V30 6213 N 594.196 -1.08629 -1.14182 0
M  V30 6214 C 595.445 -0.812271 -1.84621 0
M  V30 6215 C 595.758 0.664313 -1.83973 0
M  V30 6216 O 596.964 1.05357 -2.50224 0
M  V30 6217 C 595.42 -1.4031 -3.31423 0
M  V30 6218 C 595.028 -2.91164 -3.40481 0
M  V30 6219 C 596.772 -1.20767 -4.06959 0
M  V30 6220 C 594.679 -3.43373 -4.81507 0
M  V30 6221 H 593.609 -0.30019 -0.691666 0
M  V30 6222 H 596.26 -1.30798 -1.28701 0
M  V30 6223 H 594.642 -0.835096 -3.87094 0
M  V30 6224 H 595.816 -3.5412 -2.94848 0
M  V30 6225 H 594.131 -3.09646 -2.78403 0
M  V30 6226 H 596.728 -1.57237 -5.11058 0
M  V30 6227 H 597.071 -0.147664 -4.16038 0
M  V30 6228 H 597.604 -1.74274 -3.57594 0
M  V30 6229 H 594.343 -4.48958 -4.77616 0
M  V30 6230 H 593.863 -2.85176 -5.27669 0
M  V30 6231 H 595.542 -3.40095 -5.50404 0
M  V30 6232 N 595.674 1.31259 -0.872281 0
M  V30 6233 C 596.604 2.30929 -0.345554 0
M  V30 6234 C 597.585 1.60449 0.5648 0
M  V30 6235 O 598.77 1.8814 0.481335 0
M  V30 6236 C 595.9 3.44348 0.451823 0
M  V30 6237 C 594.854 4.26435 -0.365641 0
M  V30 6238 C 594.18 5.31785 0.557562 0
M  V30 6239 C 595.48 4.97159 -1.60095 0
M  V30 6240 H 597.174 2.75234 -1.17841 0
M  V30 6241 H 594.72 1.3232 -0.568094 0
M  V30 6242 H 596.673 4.13128 0.830854 0
M  V30 6243 H 595.397 2.98816 1.31821 0
M  V30 6244 H 594.056 3.59326 -0.726649 0
M  V30 6245 H 593.704 4.82502 1.4213 0
M  V30 6246 H 593.404 5.87598 0.0144878 0
M  V30 6247 H 594.928 6.03424 0.933387 0
M  V30 6248 H 596.342 5.58523 -1.29323 0
M  V30 6249 H 594.739 5.62779 -2.08327 0
M  V30 6250 H 595.809 4.24012 -2.35249 0
M  V30 6251 N 597.152 0.631951 1.44375 0
M  V30 6252 C 598.099 -0.0724807 2.30686 0
M  V30 6253 C 599.069 -0.835975 1.43529 0
M  V30 6254 O 600.254 -0.816849 1.7243 0
M  V30 6255 C 597.394 -1.04753 3.28817 0
M  V30 6256 C 596.507 -0.282367 4.31076 0
M  V30 6257 C 595.642 -1.2493 5.163 0
M  V30 6258 C 594.681 -0.473349 6.10267 0
M  V30 6259 N 593.818 -1.39079 6.88187 0
M  V30 6260 H 598.658 0.669477 2.90383 0
M  V30 6261 H 596.195 0.341927 1.43071 0
M  V30 6262 H 598.153 -1.62623 3.842 0
M  V30 6263 H 596.783 -1.75661 2.70819 0
M  V30 6264 H 595.835 0.412268 3.78159 0
M  V30 6265 H 597.147 0.321955 4.9776 0
M  V30 6266 H 596.301 -1.89931 5.76204 0
M  V30 6267 H 595.04 -1.88755 4.49692 0
M  V30 6268 H 594.045 0.190142 5.49471 0
M  V30 6269 H 595.27 0.16019 6.78911 0
M  V30 6270 H 593.216 -2.01623 6.24247 0
M  V30 6271 H 593.133 -0.840513 7.51313 0
M  V30 6272 H 594.401 -2.02961 7.52613 0
M  V30 6273 N 598.631 -1.53133 0.372548 0
M  V30 6274 C 599.877 -2.01654 -0.215277 0
M  V30 6275 C 600.21 -1.25914 -1.47849 0
M  V30 6276 O 599.485 -0.3548 -1.91237 0
M  V30 6277 C 599.768 -3.56609 -0.500187 0
M  V30 6278 C 599.621 -4.43036 0.777145 0
M  V30 6279 C 600.94 -4.20528 -1.29786 0
M  V30 6280 H 598.059 -0.732991 -0.0767686 0
M  V30 6281 H 600.701 -1.83335 0.498814 0
M  V30 6282 H 598.851 -3.7235 -1.10852 0
M  V30 6283 H 600.523 -4.39079 1.41447 0
M  V30 6284 H 598.766 -4.10723 1.39604 0
M  V30 6285 H 599.437 -5.49424 0.532662 0
M  V30 6286 H 601.913 -4.08663 -0.783198 0
M  V30 6287 H 600.789 -5.28962 -1.46596 0
M  V30 6288 H 601.05 -3.77051 -2.30836 0
M  V30 6289 N 600.109 -0.101901 -1.5727 0
M  V30 6290 C 601.386 0.602832 -1.86079 0
M  V30 6291 C 601.766 1.85912 -1 0
M  V30 6292 O 601.114 2.28379 -0.0742488 0
M  V30 6293 C 601.324 0.911694 -3.36881 0
M  V30 6294 C 602.672 1.2722 -4.05093 0
M  V30 6295 O 603.696 1.0025 -3.41802 0
M  V30 6296 O 602.555 1.7776 -5.16782 0
M  V30 6297 H 599.649 0.302366 -0.769743 0
M  V30 6298 H 602.195 -0.135113 -1.69161 0
M  V30 6299 H 600.967 0.0207256 -3.91295 0
M  V30 6300 H 600.59 1.70538 -3.59169 0
M  V30 6301 N 601.587 1.56661 0.17182 0
M  V30 6302 C 602.517 1.99401 1.21498 0
M  V30 6303 C 603.498 0.869516 1.46197 0
M  V30 6304 O 604.683 1.13556 1.57539 0
M  V30 6305 C 601.813 2.35346 2.55401 0
M  V30 6306 C 600.767 3.5075 2.45272 0
M  V30 6307 C 600.093 3.72437 3.8366 0
M  V30 6308 C 601.393 4.84216 1.95787 0
M  V30 6309 H 603.087 2.86792 0.859699 0
M  V30 6310 H 600.633 1.37977 0.412103 0
M  V30 6311 H 602.586 2.63843 3.2858 0
M  V30 6312 H 601.31 1.44864 2.92715 0
M  V30 6313 H 599.969 3.2238 1.74547 0
M  V30 6314 H 599.617 2.79246 4.18367 0
M  V30 6315 H 599.317 4.50087 3.77751 0
M  V30 6316 H 600.841 4.03334 4.58426 0
M  V30 6317 H 602.255 5.11592 2.5874 0
M  V30 6318 H 600.652 5.65498 2.00827 0
M  V30 6319 H 601.722 4.76243 0.912159 0
M  V30 6320 N 603.065 -0.440357 1.51323 0
M  V30 6321 C 603.975 -1.55955 1.75258 0
M  V30 6322 C 604.991 -1.61933 0.636687 0
M  V30 6323 O 606.167 -1.79231 0.918593 0
M  V30 6324 C 603.232 -2.9196 1.86977 0
M  V30 6325 C 602.293 -2.96122 3.10822 0
M  V30 6326 C 601.526 -4.2564 3.21973 0
M  V30 6327 O 601.749 -5.17851 2.39137 0
M  V30 6328 O 600.683 -4.36025 4.14929 0
M  V30 6329 H 604.509 -1.38673 2.70191 0
M  V30 6330 H 602.094 -0.623055 1.35788 0
M  V30 6331 H 603.976 -3.72682 1.96688 0
M  V30 6332 H 602.651 -3.09375 0.952307 0
M  V30 6333 H 601.558 -2.14366 3.06591 0
M  V30 6334 H 602.891 -2.83651 4.02247 0
M  V30 6335 N 604.543 -1.41418 -0.695603 0
M  V30 6336 C 605.768 -1.44329 -1.48942 0
M  V30 6337 C 606.193 -0.0501579 -1.88033 0
M  V30 6338 O 605.551 0.946598 -1.54626 0
M  V30 6339 C 605.599 -2.3578 -2.72837 0
M  V30 6340 O 604.703 -1.81482 -3.70322 0
M  V30 6341 H 604.044 -0.489838 -0.44828 0
M  V30 6342 H 606.574 -1.85878 -0.855014 0
M  V30 6343 H 606.584 -2.51654 -3.21145 0
M  V30 6344 H 605.259 -3.37005 -2.43722 0
M  V30 6345 H 603.836 -1.75058 -3.29255 0
M  V30 6346 N 606.021 0.929856 -1.27246 0
M  V30 6347 C 607.269 1.674 -1.13233 0
M  V30 6348 C 607.59 1.92311 0.322744 0
M  V30 6349 O 606.86 1.52784 1.22612 0
M  V30 6350 H 605.44 0.620411 -0.416052 0
M  V30 6351 H 608.102 1.11663 -1.59741 0
M  V30 6352 H 607.198 2.64308 -1.65975 0
M  V30 6353 N 607.499 1.09233 1.13605 0
M  V30 6354 C 608.727 0.848908 1.88683 0
M  V30 6355 C 609.142 -0.599667 1.79024 0
M  V30 6356 O 608.499 -1.41265 1.15544 0
M  V30 6357 C 608.55 1.27273 3.38355 0
M  V30 6358 O 608.271 2.66449 3.47759 0
M  V30 6359 C 609.772 1.0614 4.30406 0
M  V30 6360 H 606.992 0.305549 0.597395 0
M  V30 6361 H 609.536 1.4538 1.43823 0
M  V30 6362 H 607.691 0.711776 3.80805 0
M  V30 6363 H 608.105 2.84264 4.40788 0
M  V30 6364 H 609.579 1.40725 5.33761 0
M  V30 6365 H 610.056 -0.000960332 4.392 0
M  V30 6366 H 610.662 1.60821 3.93722 0
M  V30 6367 N 608.977 -1.30795 0.87923 0
M  V30 6368 C 609.887 -2.32041 0.345565 0
M  V30 6369 C 610.903 -1.65103 -0.549265 0
M  V30 6370 O 612.079 -1.9645 -0.443763 0
M  V30 6371 C 609.144 -3.43944 -0.436245 0
M  V30 6372 C 608.205 -4.26521 0.48765 0
M  V30 6373 C 607.438 -5.33081 -0.256943 0
M  V30 6374 O 607.661 -5.50762 -1.48381 0
M  V30 6375 O 606.595 -6.00635 0.389985 0
M  V30 6376 H 610.421 -2.79627 1.18501 0
M  V30 6377 H 608.006 -1.3486 0.642885 0
M  V30 6378 H 609.888 -4.12128 -0.879119 0
M  V30 6379 H 608.563 -2.98504 -1.25208 0
M  V30 6380 H 607.47 -3.61057 0.979216 0
M  V30 6381 H 608.803 -4.75551 1.26933 0
M  V30 6382 N 610.455 -0.639598 -1.44038 0
M  V30 6383 C 611.683 -0.154811 -2.0632 0
M  V30 6384 C 612.098 1.17406 -1.47856 0
M  V30 6385 O 611.455 1.72193 -0.604638 0
M  V30 6386 C 611.506 -0.0429958 -3.61474 0
M  V30 6387 O 611.227 -1.31932 -4.17763 0
M  V30 6388 C 612.728 0.469486 -4.40807 0
M  V30 6389 H 609.948 -0.0835862 -0.665773 0
M  V30 6390 H 612.492 -0.876397 -1.84769 0
M  V30 6391 H 610.647 0.629075 -3.82258 0
M  V30 6392 H 611.061 -1.16965 -5.11292 0
M  V30 6393 H 612.535 0.496712 -5.49761 0
M  V30 6394 H 613.012 1.49819 -4.12857 0
M  V30 6395 H 613.618 -0.169624 -4.24962 0
M  V30 6396 N 611.933 1.52934 -0.380664 0
M  V30 6397 C 612.863 2.29118 0.450268 0
M  V30 6398 C 613.844 1.32153 1.07096 0
M  V30 6399 O 615.029 1.61038 1.08537 0
M  V30 6400 C 612.159 3.09161 1.58231 0
M  V30 6401 C 611.113 4.13938 1.0881 0
M  V30 6402 C 610.439 4.82153 2.31155 0
M  V30 6403 C 611.739 5.22048 0.162146 0
M  V30 6404 H 613.433 2.98826 -0.185361 0
M  V30 6405 H 610.979 1.43715 -0.0905886 0
M  V30 6406 H 612.932 3.61211 2.17036 0
M  V30 6407 H 611.656 2.3717 2.2454 0
M  V30 6408 H 610.315 3.62855 0.522633 0
M  V30 6409 H 609.963 4.06719 2.95953 0
M  V30 6410 H 609.663 5.52966 1.98752 0
M  V30 6411 H 611.187 5.37004 2.90618 0
M  V30 6412 H 612.601 5.6951 0.658126 0
M  V30 6413 H 610.998 6.00057 -0.0717122 0
M  V30 6414 H 612.068 4.78398 -0.791438 0
M  V30 6415 N 613.412 0.11024 1.57214 0
M  V30 6416 C 614.828 -0.24638 1.57687 0
M  V30 6417 C 615.028 -1.67344 1.12241 0
M  V30 6418 O 614.084 -2.39298 0.805783 0
M  V30 6419 C 615.397 -0.0210288 3.00693 0
M  V30 6420 C 616.945 -0.0876077 3.12877 0
M  V30 6421 C 617.42 0.10994 4.57868 0
M  V30 6422 N 618.911 0.0556135 4.63167 0
M  V30 6423 C 619.646 0.183495 5.73106 0
M  V30 6424 N 619.142 0.367058 6.91827 0
M  V30 6425 N 620.935 0.123689 5.61964 0
M  V30 6426 H 613.086 1.04246 1.85058 0
M  V30 6427 H 615.349 0.40979 0.854854 0
M  V30 6428 H 615.055 0.965203 3.38196 0
M  V30 6429 H 614.929 -0.756748 3.69531 0
M  V30 6430 H 617.316 -1.06436 2.75237 0
M  V30 6431 H 617.397 0.67985 2.466 0
M  V30 6432 H 617.041 1.08362 4.96206 0
M  V30 6433 H 616.971 -0.677397 5.22225 0
M  V30 6434 H 619.462 -0.0831062 3.77809 0
M  V30 6435 H 619.775 0.455739 7.71455 0
M  V30 6436 H 618.12 0.40292 6.93831 0
M  V30 6437 H 621.311 -0.0186928 4.68096 0
M  V30 6438 H 621.484 0.226797 6.47603 0
M  V30 6439 N 614.89 -1.56749 -0.16351 0
M  V30 6440 C 616.115 -1.86938 -0.898264 0
M  V30 6441 C 616.54 -0.697456 -1.74692 0
M  V30 6442 O 615.898 0.353327 -1.77824 0
M  V30 6443 C 615.946 -3.15599 -1.74441 0
M  V30 6444 O 615.05 -2.98371 -2.8469 0
M  V30 6445 H 614.391 -0.614659 -0.251178 0
M  V30 6446 H 616.921 -2.03979 -0.159298 0
M  V30 6447 H 616.931 -3.47202 -2.14277 0
M  V30 6448 H 615.606 -4.00505 -1.1211 0
M  V30 6449 H 614.183 -2.7814 -2.4838 0
M  V30 6450 N 616.368 0.432326 -1.51554 0
M  V30 6451 C 617.615 1.18134 -1.64471 0
M  V30 6452 C 617.943 1.91076 -0.363349 0
M  V30 6453 O 617.198 1.84492 0.65279 0
M  V30 6454 C 617.497 2.21907 -2.80164 0
M  V30 6455 C 617.163 1.65941 -4.19255 0
M  V30 6456 C 615.825 1.50401 -4.57092 0
M  V30 6457 C 618.177 1.24843 -5.06027 0
M  V30 6458 C 615.505 0.922443 -5.79403 0
M  V30 6459 C 617.857 0.68113 -6.28922 0
M  V30 6460 C 616.521 0.512673 -6.65528 0
M  V30 6461 H 615.791 0.432283 -0.601841 0
M  V30 6462 H 618.438 0.471701 -1.856 0
M  V30 6463 H 616.743 2.98928 -2.53277 0
M  V30 6464 H 618.44 2.79691 -2.87357 0
M  V30 6465 H 615.03 1.79014 -3.89425 0
M  V30 6466 H 619.214 1.35667 -4.77397 0
M  V30 6467 H 614.47 0.779733 -6.06408 0
M  V30 6468 H 618.644 0.35418 -6.95499 0
M  V30 6469 H 616.271 0.0599084 -7.60176 0
M  V30 6470 N 617.846 1.41785 0.688094 0
M  V30 6471 C 618.809 1.43936 1.78368 0
M  V30 6472 C 619.809 0.328866 1.57401 0
M  V30 6473 O 620.999 0.589093 1.63937 0
M  V30 6474 C 618.131 1.25804 3.16838 0
M  V30 6475 H 619.324 2.41472 1.77852 0
M  V30 6476 H 616.877 1.28037 0.896448 0
M  V30 6477 H 617.612 0.291386 3.22988 0
M  V30 6478 H 617.397 2.06272 3.33458 0
M  V30 6479 H 618.887 1.30162 3.96797 0
M  V30 6480 N 619.324 -0.923095 1.27737 0
M  V30 6481 C 620.735 -1.48626 1.12993 0
M  V30 6482 C 621.086 -1.94142 -0.283439 0
M  V30 6483 O 620.211 -1.81605 -1.17681 0
M  V30 6484 C 620.806 -2.70117 2.04505 0
M  V30 6485 C 619.365 -3.22642 1.93853 0
M  V30 6486 C 618.512 -1.95368 1.96791 0
M  V30 6487 H 621.463 -0.736737 1.40563 0
M  V30 6488 H 621.484 -3.4506 1.60356 0
M  V30 6489 H 620.996 -2.36959 3.07363 0
M  V30 6490 H 619.097 -3.60549 0.939968 0
M  V30 6491 H 619.21 -3.88525 2.80331 0
M  V30 6492 H 617.574 -2.12061 1.41076 0
M  V30 6493 H 618.357 -1.64517 3.01312 0
M  V30 6494 N 620.802 -1.09834 -1.13024 0
M  V30 6495 C 621.752 -0.710899 -2.16634 0
M  V30 6496 C 622.736 0.276836 -1.58501 0
M  V30 6497 O 623.928 0.0865457 -1.76788 0
M  V30 6498 C 621.057 -0.137574 -3.43024 0
M  V30 6499 C 620.143 -1.15198 -4.08155 0
M  V30 6500 N 620.534 -2.34054 -4.48388 0
M  V30 6501 C 618.832 -0.991074 -4.34849 0
M  V30 6502 C 619.533 -2.98616 -4.99203 0
M  V30 6503 N 618.509 -2.26159 -4.94321 0
M  V30 6504 H 622.311 -1.61576 -2.455 0
M  V30 6505 H 619.825 -0.975158 -1.29863 0
M  V30 6506 H 621.822 0.158031 -4.166 0
M  V30 6507 H 620.482 0.762088 -3.1563 0
M  V30 6508 H 621.493 -2.7162 -4.40957 0
M  V30 6509 H 618.17 -0.146448 -4.17243 0
M  V30 6510 H 619.56 -3.99683 -5.40096 0
M  V30 6511 N 622.28 1.30327 -0.886154 0
M  V30 6512 C 623.528 1.9571 -0.504195 0
M  V30 6513 C 623.849 1.70294 0.950003 0
M  V30 6514 O 623.119 1.02718 1.66811 0
M  V30 6515 H 621.699 0.72412 -0.183465 0
M  V30 6516 H 624.361 1.58835 -1.12949 0
M  V30 6517 H 623.457 3.04704 -0.675431 0
M  V30 6518 N 623.758 0.647228 1.43697 0
M  V30 6519 C 625.005 0.158188 2.01881 0
M  V30 6520 C 625.333 -1.22573 1.51017 0
M  V30 6521 O 624.588 -1.83086 0.69122 0
M  V30 6522 C 624.887 0.111481 3.57226 0
M  V30 6523 C 624.553 1.43633 4.27411 0
M  V30 6524 C 623.215 1.79915 4.463 0
M  V30 6525 C 625.567 2.31011 4.67208 0
M  V30 6526 C 622.895 3.03251 5.02251 0
M  V30 6527 C 625.247 3.53633 5.24525 0
M  V30 6528 C 623.911 3.90118 5.41631 0
M  V30 6529 H 623.181 0.0578851 0.738736 0
M  V30 6530 H 625.828 0.836746 1.72252 0
M  V30 6531 H 624.133 -0.650507 3.86362 0
M  V30 6532 H 625.83 -0.283682 3.99995 0
M  V30 6533 H 622.42 1.14403 4.1305 0
M  V30 6534 H 626.604 2.04272 4.52313 0
M  V30 6535 H 621.86 3.31575 5.13681 0
M  V30 6536 H 626.034 4.21561 5.5431 0
M  V30 6537 H 623.661 4.85768 5.84751 0
M  V30 6538 N 625.236 -1.5273 0.388769 0
M  V30 6539 C 626.199 -2.25043 -0.434544 0
M  V30 6540 C 627.199 -1.26661 -0.990644 0
M  V30 6541 O 628.389 -1.50762 -0.872731 0
M  V30 6542 C 625.521 -3.00507 -1.60961 0
M  V30 6543 H 626.714 -2.99242 0.198549 0
M  V30 6544 H 624.267 -1.55664 0.140875 0
M  V30 6545 H 625.002 -2.30607 -2.28015 0
M  V30 6546 H 624.787 -3.72716 -1.21757 0
M  V30 6547 H 626.277 -3.55413 -2.19251 0
M  V30 6548 N 626.714 -0.118576 -1.57153 0
M  V30 6549 C 627.962 0.538461 -1.94795 0
M  V30 6550 C 628.283 1.67243 -1.00274 0
M  V30 6551 O 627.553 1.95811 -0.0589692 0
M  V30 6552 H 626.133 0.201904 -0.719197 0
M  V30 6553 H 628.795 -0.187418 -1.93997 0
M  V30 6554 H 627.891 0.933315 -2.97818 0
M  V30 6555 N 628.193 1.56834 0.155195 0
M  V30 6556 C 629.103 2.009 1.21146 0
M  V30 6557 C 630.119 0.923029 1.475 0
M  V30 6558 O 631.295 1.23189 1.59331 0
M  V30 6559 C 628.36 2.37378 2.52691 0
M  V30 6560 C 627.421 3.59883 2.34057 0
M  V30 6561 C 626.654 3.94612 3.59329 0
M  V30 6562 O 626.877 3.30104 4.65175 0
M  V30 6563 O 625.811 4.87895 3.52479 0
M  V30 6564 H 629.637 2.9105 0.867371 0
M  V30 6565 H 627.222 1.44916 0.363298 0
M  V30 6566 H 629.104 2.61737 3.3026 0
M  V30 6567 H 627.779 1.50385 2.86646 0
M  V30 6568 H 626.686 3.40722 1.54465 0
M  V30 6569 H 628.019 4.47468 2.0502 0
M  V30 6570 N 629.671 -0.424282 1.51781 0
M  V30 6571 C 631.082 -1.00368 1.57427 0
M  V30 6572 C 631.433 -1.91962 0.40558 0
M  V30 6573 O 630.558 -2.111 -0.47601 0
M  V30 6574 C 631.153 -1.82707 2.85313 0
M  V30 6575 C 629.712 -2.35675 2.93487 0
M  V30 6576 C 628.859 -1.1524 2.5222 0
M  V30 6577 H 631.81 -0.205064 1.5737 0
M  V30 6578 H 631.831 -2.68294 2.69812 0
M  V30 6579 H 631.343 -1.16017 3.70353 0
M  V30 6580 H 629.444 -3.05781 2.12906 0
M  V30 6581 H 629.557 -2.67578 3.97415 0
M  V30 6582 H 627.921 -1.50174 2.05718 0
M  V30 6583 H 628.704 -0.5014 3.39619 0
M  V30 6584 N 631.149 -1.42148 -0.680565 0
M  V30 6585 C 632.398 -1.41604 -1.43636 0
M  V30 6586 C 632.711 -0.0337887 -1.95571 0
M  V30 6587 O 633.917 0.0942588 -2.71336 0
M  V30 6588 C 632.373 -2.49056 -2.59806 0
M  V30 6589 C 631.981 -3.9326 -2.14594 0
M  V30 6590 C 633.725 -2.5767 -3.37352 0
M  V30 6591 C 631.632 -4.92232 -3.27813 0
M  V30 6592 H 630.562 -0.526656 -0.539583 0
M  V30 6593 H 633.213 -1.68033 -0.737369 0
M  V30 6594 H 631.595 -2.15782 -3.32045 0
M  V30 6595 H 632.769 -4.35858 -1.49546 0
M  V30 6596 H 631.084 -3.88443 -1.50002 0
M  V30 6597 H 633.681 -3.28794 -4.21662 0
M  V30 6598 H 634.024 -1.61837 -3.83555 0
M  V30 6599 H 634.557 -2.90109 -2.72179 0
M  V30 6600 H 631.296 -5.89522 -2.86607 0
M  V30 6601 H 630.816 -4.5427 -3.91661 0
M  V30 6602 H 632.495 -5.13684 -3.93367 0
M  V30 6603 N 632.627 0.916307 -1.28225 0
M  V30 6604 C 633.874 1.66518 -1.1523 0
M  V30 6605 C 634.202 1.92178 0.299632 0
M  V30 6606 O 633.457 1.51842 1.2346 0
M  V30 6607 C 633.756 3.03125 -1.8934 0
M  V30 6608 C 633.422 2.97135 -3.39148 0
M  V30 6609 C 632.084 2.95208 -3.80007 0
M  V30 6610 C 634.436 2.87574 -4.34685 0
M  V30 6611 C 631.764 2.81518 -5.14747 0
M  V30 6612 C 634.116 2.75424 -5.69495 0
M  V30 6613 C 632.78 2.71854 -6.09632 0
M  V30 6614 H 632.05 0.609334 -0.421655 0
M  V30 6615 H 634.697 1.06776 -1.58969 0
M  V30 6616 H 633.002 3.66639 -1.38143 0
M  V30 6617 H 634.699 3.59968 -1.76704 0
M  V30 6618 H 631.289 2.99428 -3.06661 0
M  V30 6619 H 635.473 2.88152 -4.04082 0
M  V30 6620 H 630.729 2.77148 -5.44976 0
M  V30 6621 H 634.903 2.66993 -6.43185 0
M  V30 6622 H 632.53 2.61003 -7.1399 0
M  V30 6623 N 634.105 1.10431 1.1244 0
M  V30 6624 C 635.351 0.847972 1.84221 0
M  V30 6625 C 635.684 -0.624903 1.83871 0
M  V30 6626 O 634.959 -1.46074 1.28423 0
M  V30 6627 C 635.242 1.39695 3.319 0
M  V30 6628 C 635.095 2.93668 3.40704 0
M  V30 6629 C 636.414 1.03924 4.27654 0
M  V30 6630 H 633.533 0.309502 0.668863 0
M  V30 6631 H 636.175 1.36745 1.31912 0
M  V30 6632 H 634.325 0.955095 3.76577 0
M  V30 6633 H 635.997 3.46379 3.04662 0
M  V30 6634 H 634.24 3.30272 2.81252 0
M  V30 6635 H 634.911 3.27162 4.446 0
M  V30 6636 H 637.387 1.42049 3.91102 0
M  V30 6637 H 636.263 1.45027 5.29394 0
M  V30 6638 H 636.524 -0.051336 4.4207 0
M  V30 6639 N 635.583 -1.29855 0.893053 0
M  V30 6640 C 636.994 -1.77946 0.564998 0
M  V30 6641 C 637.345 -1.73339 -0.919134 0
M  V30 6642 O 636.47 -1.3152 -1.71847 0
M  V30 6643 C 637.065 -3.23118 1.01883 0
M  V30 6644 C 635.624 -3.69013 0.742051 0
M  V30 6645 C 634.771 -2.50121 1.19727 0
M  V30 6646 H 637.722 -1.16611 1.07646 0
M  V30 6647 H 637.743 -3.78875 0.351249 0
M  V30 6648 H 637.255 -3.26439 2.09903 0
M  V30 6649 H 635.356 -3.71173 -0.325816 0
M  V30 6650 H 635.469 -4.60117 1.33527 0
M  V30 6651 H 633.833 -2.47128 0.616418 0
M  V30 6652 H 634.616 -2.56174 2.28538 0
M  V30 6653 N 637.061 -0.65484 -1.43351 0
M  V30 6654 C 638.477 -0.32255 -1.56307 0
M  V30 6655 C 638.677 1.17324 -1.63821 0
M  V30 6656 O 637.733 1.95813 -1.59417 0
M  V30 6657 C 639.046 -1.03533 -2.82314 0
M  V30 6658 C 640.594 -1.01574 -2.9606 0
M  V30 6659 C 641.069 -1.70945 -4.24902 0
M  V30 6660 N 642.56 -1.67716 -4.3177 0
M  V30 6661 C 643.295 -2.18265 -5.30234 0
M  V30 6662 N 642.791 -2.7711 -6.34966 0
M  V30 6663 N 644.584 -2.08756 -5.21898 0
M  V30 6664 H 636.735 -1.62549 -1.36717 0
M  V30 6665 H 638.998 -0.683676 -0.656727 0
M  V30 6666 H 638.704 -2.09045 -2.8283 0
M  V30 6667 H 638.578 -0.587913 -3.7259 0
M  V30 6668 H 640.965 0.0309834 -2.95084 0
M  V30 6669 H 641.046 -1.50186 -2.07069 0
M  V30 6670 H 640.69 -2.75574 -4.26639 0
M  V30 6671 H 640.62 -1.19797 -5.12793 0
M  V30 6672 H 643.111 -1.24777 -3.56706 0
M  V30 6673 H 643.424 -3.13353 -7.06421 0
M  V30 6674 H 641.769 -2.81171 -6.35585 0
M  V30 6675 H 644.96 -1.62488 -4.38994 0
M  V30 6676 H 645.133 -2.48459 -5.98475 0
M  V30 6677 N 638.539 1.52521 -0.396863 0
M  V30 6678 C 639.95 1.86547 0.0754868 0
M  V30 6679 C 640.301 1.31621 1.45501 0
M  V30 6680 O 639.426 0.650563 2.0639 0
M  V30 6681 C 640.021 3.38495 0.143754 0
M  V30 6682 C 638.58 3.72205 0.560413 0
M  V30 6683 C 637.727 2.75954 -0.272856 0
M  V30 6684 H 640.678 1.46323 -0.614434 0
M  V30 6685 H 640.699 3.68153 0.961425 0
M  V30 6686 H 640.211 3.78442 -0.860415 0
M  V30 6687 H 638.312 3.3783 1.57167 0
M  V30 6688 H 638.425 4.78074 0.313314 0
M  V30 6689 H 636.789 2.53339 0.263 0
M  V30 6690 H 637.572 3.1874 -1.27515 0
M  V30 6691 N 640.017 0.126909 1.57088 0
M  V30 6692 C 641.265 -0.528123 1.95078 0
M  V30 6693 C 641.586 -1.66708 1.0116 0
M  V30 6694 O 640.856 -1.95777 0.0693527 0
M  V30 6695 H 639.436 -0.198087 0.720257 0
M  V30 6696 H 642.098 0.197703 1.93895 0
M  V30 6697 H 641.194 -0.917507 2.98309 0
M  V30 6698 N 641.495 -1.56914 -0.146875 0
M  V30 6699 C 642.743 -1.82994 -0.85777 0
M  V30 6700 C 643.064 -0.707814 -1.817 0
M  V30 6701 O 642.334 0.270521 -1.94023 0
M  V30 6702 H 640.914 -0.675106 -0.319751 0
M  V30 6703 H 643.576 -1.9439 -0.140849 0
M  V30 6704 H 642.672 -2.77928 -1.41994 0
M  V30 6705 N 642.974 0.416227 -1.52004 0
M  V30 6706 C 644.22 1.16555 -1.6596 0
M  V30 6707 C 644.553 1.90347 -0.384906 0
M  V30 6708 O 643.828 1.84474 0.616405 0
M  V30 6709 C 644.111 2.1657 -2.87696 0
M  V30 6710 C 643.964 1.46722 -4.25197 0
M  V30 6711 C 645.283 3.17321 -3.04951 0
M  V30 6712 H 642.402 0.422369 -0.603965 0
M  V30 6713 H 645.044 0.452141 -1.84542 0
M  V30 6714 H 643.194 2.77411 -2.71985 0
M  V30 6715 H 644.866 0.89056 -4.52622 0
M  V30 6716 H 643.109 0.769263 -4.26925 0
M  V30 6717 H 643.78 2.19665 -5.0641 0
M  V30 6718 H 646.256 2.66552 -3.19514 0
M  V30 6719 H 645.132 3.84573 -3.91656 0
M  V30 6720 H 645.393 3.84643 -2.17951 0
M  V30 6721 N 644.452 1.42507 0.673017 0
M  V30 6722 C 645.415 1.4582 1.76831 0
M  V30 6723 C 646.415 0.345542 1.57043 0
M  V30 6724 O 647.605 0.606447 1.63303 0
M  V30 6725 C 644.737 1.29158 3.15485 0
M  V30 6726 H 645.93 2.43345 1.7528 0
M  V30 6727 H 643.483 1.28981 0.882817 0
M  V30 6728 H 644.218 0.325626 3.22661 0
M  V30 6729 H 644.003 2.09797 3.31252 0
M  V30 6730 H 645.493 1.34363 3.95394 0
M  V30 6731 N 645.93 -0.909495 1.28709 0
M  V30 6732 C 646.84 -2.04558 1.14861 0
M  V30 6733 C 647.856 -1.73842 0.0741621 0
M  V30 6734 O 649.032 -1.99383 0.2843 0
M  V30 6735 C 646.097 -3.36957 0.816148 0
M  V30 6736 C 645.158 -3.81255 1.97341 0
M  V30 6737 C 644.391 -5.07335 1.65671 0
M  V30 6738 O 644.614 -5.67514 0.573053 0
M  V30 6739 O 643.548 -5.47449 2.50167 0
M  V30 6740 H 647.374 -2.19161 2.10243 0
M  V30 6741 H 644.959 -1.03159 1.08068 0
M  V30 6742 H 646.841 -4.16436 0.644873 0
M  V30 6743 H 645.516 -3.2352 -0.107983 0
M  V30 6744 H 644.423 -3.02584 2.19986 0
M  V30 6745 H 645.756 -3.99261 2.87839 0
M  V30 6746 N 647.408 -1.11026 -1.11852 0
M  V30 6747 C 648.685 -0.768347 -1.79877 0
M  V30 6748 C 649.065 0.744261 -1.97545 0
M  V30 6749 O 648.413 1.67271 -1.55669 0
M  V30 6750 C 648.623 -1.52648 -3.13846 0
M  V30 6751 C 649.971 -1.70297 -3.88953 0
M  V30 6752 O 650.995 -1.49037 -3.23522 0
M  V30 6753 O 649.854 -2.05593 -5.06353 0
M  V30 6754 H 646.948 -0.277891 -0.778913 0
M  V30 6755 H 649.494 -1.21343 -1.18633 0
M  V30 6756 H 648.266 -2.55564 -2.96315 0
M  V30 6757 H 647.889 -1.07466 -3.82801 0
M  V30 6758 N 648.886 1.2938 -0.899927 0
M  V30 6759 C 650.163 1.9046 -0.445443 0
M  V30 6760 C 650.543 1.81683 1.07492 0
M  V30 6761 O 649.891 1.24371 1.91688 0
M  V30 6762 C 650.101 3.35529 -0.960279 0
M  V30 6763 C 651.449 4.12556 -1.00412 0
M  V30 6764 O 652.473 3.44434 -0.907965 0
M  V30 6765 O 651.332 5.34294 -1.14857 0
M  V30 6766 H 648.426 0.815253 -0.138893 0
M  V30 6767 H 650.972 1.37844 -0.989808 0
M  V30 6768 H 649.744 3.36074 -2.00425 0
M  V30 6769 H 649.367 3.95624 -0.395939 0
M  V30 6770 N 650.364 0.662433 1.43002 0
M  V30 6771 C 651.612 0.179237 2.01304 0
M  V30 6772 C 651.933 -1.21428 1.52579 0
M  V30 6773 O 651.203 -1.81294 0.742252 0
M  V30 6774 H 649.783 0.0632725 0.744316 0
M  V30 6775 H 652.445 0.856169 1.75088 0
M  V30 6776 H 651.541 0.170957 3.11631 0
M  V30 6777 N 651.842 -1.52309 0.404946 0
M  V30 6778 C 653.088 -2.02731 -0.164857 0
M  V30 6779 C 653.443 -1.28543 -1.43159 0
M  V30 6780 O 652.736 -0.381883 -1.87756 0
M  V30 6781 C 652.93 -3.54284 -0.470895 0
M  V30 6782 C 652.759 -4.43152 0.764625 0
M  V30 6783 C 651.529 -4.88594 1.28858 0
M  V30 6784 C 653.727 -4.874 1.64152 0
M  V30 6785 N 651.709 -5.61577 2.48001 0
M  V30 6786 C 653.08 -5.59121 2.67924 0
M  V30 6787 C 655.135 -4.69421 1.65978 0
M  V30 6788 C 653.838 -6.14772 3.73427 0
M  V30 6789 C 655.864 -5.25966 2.70396 0
M  V30 6790 C 655.226 -5.97606 3.7289 0
M  V30 6791 H 651.325 -0.78169 -0.0220025 0
M  V30 6792 H 653.909 -1.86522 0.558354 0
M  V30 6793 H 652.08 -3.70574 -1.16315 0
M  V30 6794 H 653.812 -3.91394 -1.02921 0
M  V30 6795 H 650.567 -4.6596 0.847232 0
M  V30 6796 H 650.991 -6.02712 3.08329 0
M  V30 6797 H 655.633 -4.13524 0.88079 0
M  V30 6798 H 653.351 -6.69743 4.52184 0
M  V30 6799 H 656.937 -5.13926 2.72711 0
M  V30 6800 H 655.817 -6.40577 4.52361 0
M  V30 6801 N 653.32 -0.135238 -1.57019 0
M  V30 6802 C 654.25 0.805235 -2.19176 0
M  V30 6803 C 655.231 1.2656 -1.13651 0
M  V30 6804 O 656.416 1.32528 -1.4195 0
M  V30 6805 C 653.546 2.04914 -2.80406 0
M  V30 6806 C 652.5 1.72598 -3.91655 0
M  V30 6807 C 651.826 3.04154 -4.39766 0
M  V30 6808 C 653.126 0.981709 -5.12991 0
M  V30 6809 H 654.82 0.287232 -2.98019 0
M  V30 6810 H 652.366 0.136714 -1.4335 0
M  V30 6811 H 654.319 2.71178 -3.22553 0
M  V30 6812 H 653.043 2.59067 -1.98877 0
M  V30 6813 H 651.702 1.08717 -3.50109 0
M  V30 6814 H 651.35 3.56274 -3.55075 0
M  V30 6815 H 651.05 2.83299 -5.14796 0
M  V30 6816 H 652.574 3.71509 -4.84576 0
M  V30 6817 H 653.988 1.5462 -5.52056 0
M  V30 6818 H 652.385 0.873533 -5.93708 0
M  V30 6819 H 653.455 -0.0286887 -4.84892 0
M  V30 6820 N 654.798 1.5699 0.138552 0
M  V30 6821 C 655.728 2.01933 1.17241 0
M  V30 6822 C 656.709 0.90033 1.44319 0
M  V30 6823 O 657.894 1.16872 1.55095 0
M  V30 6824 C 655.024 2.40711 2.50351 0
M  V30 6825 C 653.978 3.55874 2.37776 0
M  V30 6826 C 653.304 3.80491 3.75674 0
M  V30 6827 C 654.604 4.8826 1.85472 0
M  V30 6828 H 656.298 2.88551 0.798672 0
M  V30 6829 H 653.844 1.3882 0.382743 0
M  V30 6830 H 655.797 2.70754 3.22909 0
M  V30 6831 H 654.521 1.5104 2.89576 0
M  V30 6832 H 653.18 3.2601 1.67669 0
M  V30 6833 H 652.828 2.88057 4.12349 0
M  V30 6834 H 652.528 4.57998 3.68119 0
M  V30 6835 H 654.052 4.12967 4.49767 0
M  V30 6836 H 655.466 5.16965 2.4783 0
M  V30 6837 H 653.863 5.69631 1.88787 0
M  V30 6838 H 654.933 4.78071 0.810935 0
M  V30 6839 N 656.276 -0.40816 1.52223 0
M  V30 6840 C 657.516 -1.16418 1.68006 0
M  V30 6841 C 657.88 -1.87749 0.401793 0
M  V30 6842 O 659.081 -2.65245 0.435743 0
M  V30 6843 C 657.352 -2.13143 2.86889 0
M  V30 6844 S 658.911 -2.96839 3.2316 0
M  V30 6845 H 655.729 -0.394373 0.5916 0
M  V30 6846 H 658.331 -0.451349 1.90219 0
M  V30 6847 H 657.035 -1.59428 3.78168 0
M  V30 6848 H 656.566 -2.88963 2.66953 0
M  V30 6849 H 658.581 -4.151 2.71857 0
M  V30 6850 N 657.755 -1.42862 -0.66545 0
M  V30 6851 C 658.685 -1.49867 -1.79059 0
M  V30 6852 C 659.666 -0.354394 -1.66367 0
M  V30 6853 O 660.851 -0.569969 -1.85647 0
M  V30 6854 C 657.981 -1.40943 -3.17415 0
M  V30 6855 C 656.935 -2.53495 -3.44854 0
M  V30 6856 C 656.261 -2.29626 -4.82883 0
M  V30 6857 C 657.561 -3.95781 -3.40815 0
M  V30 6858 H 659.255 -2.44037 -1.73453 0
M  V30 6859 H 656.801 -1.17456 -0.833071 0
M  V30 6860 H 658.754 -1.4445 -3.95869 0
M  V30 6861 H 657.478 -0.432716 -3.23721 0
M  V30 6862 H 656.137 -2.4932 -2.68766 0
M  V30 6863 H 655.785 -1.30226 -4.8585 0
M  V30 6864 H 655.485 -3.05065 -5.02204 0
M  V30 6865 H 657.009 -2.34897 -5.63609 0
M  V30 6866 H 658.423 -4.01508 -4.09224 0
M  V30 6867 H 656.82 -4.71148 -3.71672 0
M  V30 6868 H 657.89 -4.21786 -2.39216 0
M  V30 6869 N 659.233 0.902656 -1.29189 0
M  V30 6870 C 660.482 1.6475 -1.16362 0
M  V30 6871 C 660.795 1.93517 0.284682 0
M  V30 6872 O 662.001 2.66192 0.534229 0
M  V30 6873 C 660.457 2.96848 -2.03493 0
M  V30 6874 C 660.065 2.75687 -3.5313 0
M  V30 6875 C 661.809 3.74762 -1.99383 0
M  V30 6876 C 659.716 4.03492 -4.32375 0
M  V30 6877 H 658.646 0.618041 -0.431904 0
M  V30 6878 H 661.297 1.0008 -1.53806 0
M  V30 6879 H 659.679 3.62715 -1.58916 0
M  V30 6880 H 660.853 2.18431 -4.05739 0
M  V30 6881 H 659.168 2.11171 -3.58881 0
M  V30 6882 H 661.765 4.69515 -2.5585 0
M  V30 6883 H 662.108 4.04767 -0.973123 0
M  V30 6884 H 662.641 3.15732 -2.41988 0
M  V30 6885 H 659.38 3.78656 -5.3507 0
M  V30 6886 H 658.9 4.60318 -3.84535 0
M  V30 6887 H 660.579 4.71662 -4.42881 0
M  V30 6888 N 660.711 1.11618 1.11262 0
M  V30 6889 C 661.941 0.88745 1.86569 0
M  V30 6890 C 662.349 -0.56636 1.80524 0
M  V30 6891 O 661.692 -1.40289 1.18594 0
M  V30 6892 C 661.754 1.27313 3.36202 0
M  V30 6893 C 661.418 2.73649 3.66013 0
M  V30 6894 C 662.415 3.71863 3.63337 0
M  V30 6895 C 660.1 3.10342 3.9496 0
M  V30 6896 C 662.094 5.04788 3.89188 0
M  V30 6897 C 659.781 4.43451 4.20469 0
M  V30 6898 C 660.779 5.40484 4.17572 0
M  V30 6899 O 660.467 6.71195 4.42439 0
M  V30 6900 H 660.199 0.317543 0.596777 0
M  V30 6901 H 662.753 1.48768 1.41624 0
M  V30 6902 H 660.983 0.616062 3.81761 0
M  V30 6903 H 662.672 1.01991 3.92877 0
M  V30 6904 H 663.438 3.44861 3.41022 0
M  V30 6905 H 659.317 2.35431 3.9635 0
M  V30 6906 H 662.861 5.80516 3.86842 0
M  V30 6907 H 658.758 4.70187 4.42261 0
M  V30 6908 H 659.526 6.77012 4.59997 0
M  V30 6909 N 662.189 -1.289 0.906776 0
M  V30 6910 C 663.136 -2.2751 0.388313 0
M  V30 6911 C 664.106 -1.57301 -0.533439 0
M  V30 6912 O 665.291 -1.85243 -0.457148 0
M  V30 6913 C 662.431 -3.43091 -0.37181 0
M  V30 6914 C 661.544 -4.28066 0.581647 0
M  V30 6915 C 660.679 -5.30837 -0.19623 0
M  V30 6916 C 659.718 -6.07472 0.751294 0
M  V30 6917 N 658.855 -7.021 0.00737727 0
M  V30 6918 H 663.695 -2.71237 1.23428 0
M  V30 6919 H 661.232 -1.33397 0.619962 0
M  V30 6920 H 663.19 -4.08888 -0.828641 0
M  V30 6921 H 661.82 -3.00374 -1.18218 0
M  V30 6922 H 660.872 -3.62378 1.157 0
M  V30 6923 H 662.184 -4.81382 1.30665 0
M  V30 6924 H 661.338 -6.02485 -0.71394 0
M  V30 6925 H 660.077 -4.78272 -0.954324 0
M  V30 6926 H 659.082 -5.34682 1.28044 0
M  V30 6927 H 660.307 -6.62126 1.50883 0
M  V30 6928 H 658.253 -6.51894 -0.732854 0
M  V30 6929 H 658.17 -7.53004 0.672334 0
M  V30 6930 H 659.438 -7.77956 -0.490365 0
M  V30 6931 N 663.667 -0.670007 -1.42649 0
M  V30 6932 C 664.63 0.00204659 -2.292 0
M  V30 6933 C 665.63 0.733817 -1.4308 0
M  V30 6934 O 666.82 0.57254 -1.64522 0
M  V30 6935 C 663.952 1.01359 -3.25483 0
M  V30 6936 H 665.145 -0.759696 -2.90118 0
M  V30 6937 H 662.698 -0.432105 -1.50208 0
M  V30 6938 H 663.433 1.80399 -2.69493 0
M  V30 6939 H 663.218 0.492323 -3.88997 0
M  V30 6940 H 664.708 1.4824 -3.90403 0
M  V30 6941 N 665.145 1.52092 -0.413018 0
M  V30 6942 C 666.422 1.94356 0.22024 0
M  V30 6943 C 666.802 1.35017 1.62277 0
M  V30 6944 O 666.15 0.527511 2.22328 0
M  V30 6945 C 666.36 3.48289 0.222638 0
M  V30 6946 C 667.708 4.22313 0.440098 0
M  V30 6947 O 668.732 3.54919 0.301826 0
M  V30 6948 O 667.591 5.41829 0.712984 0
M  V30 6949 H 664.685 0.814536 0.14304 0
M  V30 6950 H 667.231 1.63083 -0.469242 0
M  V30 6951 H 666.003 3.83872 -0.758836 0
M  V30 6952 H 665.626 3.85934 0.956057 0
M  V30 6953 N 666.623 0.143563 1.56945 0
M  V30 6954 C 667.553 -0.7936 2.196 0
M  V30 6955 C 668.534 -1.25955 1.14321 0
M  V30 6956 O 669.719 -1.31773 1.42651 0
M  V30 6957 C 666.849 -2.03424 2.81489 0
M  V30 6958 C 665.803 -1.70519 3.92565 0
M  V30 6959 C 665.129 -3.01817 4.41373 0
M  V30 6960 C 666.429 -0.95449 5.13504 0
M  V30 6961 H 668.123 -0.271423 2.98167 0
M  V30 6962 H 665.669 -0.12911 1.4342 0
M  V30 6963 H 667.622 -2.69463 3.23987 0
M  V30 6964 H 666.346 -2.58008 2.00248 0
M  V30 6965 H 665.005 -1.06859 3.5068 0
M  V30 6966 H 664.653 -3.54386 3.56959 0
M  V30 6967 H 664.353 -2.80565 5.16292 0
M  V30 6968 H 665.877 -3.68934 4.86539 0
M  V30 6969 H 667.291 -1.5169 5.52868 0
M  V30 6970 H 665.688 -0.842035 5.94163 0
M  V30 6971 H 666.758 0.0544033 4.84869 0
M  V30 6972 N 668.101 -1.57061 -0.130224 0
M  V30 6973 C 669.051 -1.95941 -1.16582 0
M  V30 6974 C 670.035 -0.832858 -1.37667 0
M  V30 6975 O 671.227 -1.09647 -1.38948 0
M  V30 6976 C 668.356 -2.35777 -2.49528 0
M  V30 6977 C 667.442 -3.5504 -2.31964 0
M  V30 6978 N 667.833 -4.71071 -1.84189 0
M  V30 6979 C 666.131 -3.60453 -2.62659 0
M  V30 6980 C 666.832 -5.53128 -1.80068 0
M  V30 6981 N 665.808 -4.95303 -2.24001 0
M  V30 6982 H 669.61 -2.83117 -0.788806 0
M  V30 6983 H 667.124 -1.58842 -0.3381 0
M  V30 6984 H 669.121 -2.61843 -3.24413 0
M  V30 6985 H 667.781 -1.49961 -2.87996 0
M  V30 6986 H 668.792 -4.94504 -1.53903 0
M  V30 6987 H 665.469 -2.85217 -3.0489 0
M  V30 6988 H 666.859 -6.56182 -1.4448 0
M  V30 6989 N 669.579 0.400081 -1.52437 0
M  V30 6990 C 670.995 0.739359 -1.41441 0
M  V30 6991 C 671.195 1.94512 -0.526053 0
M  V30 6992 O 670.251 2.525 0.00472502 0
M  V30 6993 C 671.564 0.984824 -2.84116 0
M  V30 6994 C 673.112 1.08698 -2.93519 0
M  V30 6995 C 673.587 1.36515 -4.37181 0
M  V30 6996 N 675.078 1.43361 -4.40457 0
M  V30 6997 C 675.813 1.66528 -5.48686 0
M  V30 6998 N 675.309 1.87239 -6.67018 0
M  V30 6999 N 677.102 1.68617 -5.36213 0
M  V30 7000 H 669.253 -0.393484 -2.08723 0
M  V30 7001 H 671.516 -0.1138 -0.941145 0
M  V30 7002 H 671.222 0.171096 -3.51284 0
M  V30 7003 H 671.096 1.90253 -3.25705 0
M  V30 7004 H 673.483 1.89129 -2.26526 0
M  V30 7005 H 673.564 0.147432 -2.55375 0
M  V30 7006 H 673.208 0.565982 -5.04737 0
M  V30 7007 H 673.138 2.31737 -4.7287 0
M  V30 7008 H 675.629 1.29108 -3.55161 0
M  V30 7009 H 675.942 2.04392 -7.45281 0
M  V30 7010 H 674.287 1.84486 -6.70067 0
M  V30 7011 H 677.478 1.5198 -4.42741 0
M  V30 7012 H 677.651 1.86332 -6.20632 0
M  V30 7013 N 671.057 1.43213 0.657864 0
M  V30 7014 C 672.282 1.48227 1.45064 0
M  V30 7015 C 672.707 0.0999939 1.87834 0
M  V30 7016 O 672.065 -0.905269 1.57081 0
M  V30 7017 C 672.113 2.42931 2.6649 0
M  V30 7018 O 671.217 1.91237 3.6538 0
M  V30 7019 H 670.558 0.501551 0.435135 0
M  V30 7020 H 673.088 1.8808 0.805431 0
M  V30 7021 H 673.098 2.6008 3.1436 0
M  V30 7022 H 671.773 3.43348 2.34701 0
M  V30 7023 H 670.35 1.83726 3.24498 0
M  V30 7024 N 672.536 -0.895792 1.29666 0
M  V30 7025 C 673.446 -2.03329 1.17024 0
M  V30 7026 C 674.462 -1.73753 0.0925962 0
M  V30 7027 O 675.638 -1.99071 0.305431 0
M  V30 7028 C 672.703 -3.36072 0.851841 0
M  V30 7029 C 671.764 -3.7914 2.01373 0
M  V30 7030 C 670.997 -5.05549 1.71043 0
M  V30 7031 O 671.22 -5.66874 0.633213 0
M  V30 7032 O 670.154 -5.44764 2.5596 0
M  V30 7033 H 673.98 -2.16918 2.12556 0
M  V30 7034 H 671.565 -1.02007 1.09156 0
M  V30 7035 H 673.447 -4.15729 0.689006 0
M  V30 7036 H 672.122 -3.23616 -0.0736634 0
M  V30 7037 H 671.029 -3.00233 2.23183 0
M  V30 7038 H 672.362 -3.96186 2.92058 0
M  V30 7039 N 674.014 -1.12206 -1.10668 0
M  V30 7040 C 674.944 -0.810086 -2.18997 0
M  V30 7041 C 675.925 0.225065 -1.68604 0
M  V30 7042 O 677.11 0.086783 -1.94006 0
M  V30 7043 C 674.24 -0.261262 -3.46316 0
M  V30 7044 C 673.194 -1.2292 -4.09969 0
M  V30 7045 C 672.52 -0.540713 -5.31959 0
M  V30 7046 C 673.82 -2.58295 -4.53962 0
M  V30 7047 H 675.514 -1.7159 -2.45352 0
M  V30 7048 H 673.06 -0.82646 -1.17922 0
M  V30 7049 H 675.013 -0.0307522 -4.21389 0
M  V30 7050 H 673.737 0.679879 -3.19445 0
M  V30 7051 H 672.396 -1.44548 -3.369 0
M  V30 7052 H 672.044 0.405492 -5.01363 0
M  V30 7053 H 671.744 -1.18637 -5.75499 0
M  V30 7054 H 673.268 -0.319184 -6.09765 0
M  V30 7055 H 674.682 -2.40709 -5.20319 0
M  V30 7056 H 673.079 -3.18916 -5.08343 0
M  V30 7057 H 674.149 -3.16918 -3.67002 0
M  V30 7058 N 675.492 1.28418 -0.913599 0
M  V30 7059 C 676.738 1.9527 -0.547484 0
M  V30 7060 C 677.071 1.71745 0.906486 0
M  V30 7061 O 676.346 1.03834 1.64465 0
M  V30 7062 C 676.629 3.49748 -0.857205 0
M  V30 7063 C 676.482 3.82675 -2.3639 0
M  V30 7064 C 677.801 4.3868 -0.353258 0
M  V30 7065 H 674.92 0.709236 -0.200381 0
M  V30 7066 H 677.562 1.51789 -1.14281 0
M  V30 7067 H 675.712 3.86915 -0.350548 0
M  V30 7068 H 677.384 3.55378 -2.94116 0
M  V30 7069 H 675.627 3.29724 -2.81894 0
M  V30 7070 H 676.298 4.90547 -2.53115 0
M  V30 7071 H 678.774 4.08584 -0.787288 0
M  V30 7072 H 677.65 5.45621 -0.599049 0
M  V30 7073 H 677.911 4.35753 0.746413 0
M  V30 7074 N 676.97 0.677563 1.42291 0
M  V30 7075 C 678.219 0.198173 2.00724 0
M  V30 7076 C 678.532 -1.20325 1.54211 0
M  V30 7077 O 679.738 -1.77916 2.05081 0
M  V30 7078 C 678.194 0.303432 3.58619 0
M  V30 7079 C 677.802 1.70909 4.14119 0
M  V30 7080 C 679.546 -0.117103 4.24338 0
M  V30 7081 C 677.453 1.76696 5.64387 0
M  V30 7082 H 676.383 0.070329 0.750713 0
M  V30 7083 H 679.034 0.843147 1.62982 0
M  V30 7084 H 677.416 -0.409482 3.93877 0
M  V30 7085 H 678.59 2.44931 3.90315 0
M  V30 7086 H 676.905 2.07771 3.6086 0
M  V30 7087 H 679.502 -0.0940471 5.34617 0
M  V30 7088 H 679.845 -1.15283 4.00019 0
M  V30 7089 H 680.378 0.5449 3.9405 0
M  V30 7090 H 677.117 2.7826 5.93508 0
M  V30 7091 H 676.637 1.07034 5.90173 0
M  V30 7092 H 678.316 1.52166 6.28852 0
M  V30 7093 N 678.448 -1.51871 0.421078 0
M  V30 7094 C 679.378 -2.30231 -0.389363 0
M  V30 7095 C 680.359 -1.34946 -1.03555 0
M  V30 7096 O 681.544 -1.63859 -1.04229 0
M  V30 7097 C 678.674 -3.13247 -1.49979 0
M  V30 7098 C 677.628 -4.16677 -0.977966 0
M  V30 7099 C 676.954 -4.88112 -2.1829 0
M  V30 7100 C 678.254 -5.22295 -0.0236775 0
M  V30 7101 H 679.948 -2.98229 0.264524 0
M  V30 7102 H 677.494 -1.43424 0.12866 0
M  V30 7103 H 679.447 -3.66838 -2.07383 0
M  V30 7104 H 678.171 -2.4304 -2.18173 0
M  V30 7105 H 676.83 -3.64114 -0.426245 0
M  V30 7106 H 676.478 -4.14423 -2.85066 0
M  V30 7107 H 676.178 -5.58041 -1.84021 0
M  V30 7108 H 677.702 -5.44521 -2.76278 0
M  V30 7109 H 679.116 -5.71055 -0.506899 0
M  V30 7110 H 677.513 -5.99656 0.230782 0
M  V30 7111 H 678.583 -4.76131 0.917999 0
M  V30 7112 N 679.926 -0.151884 -1.56866 0
M  V30 7113 C 681.203 0.543328 -1.87902 0
M  V30 7114 C 681.583 1.82636 -1.05864 0
M  V30 7115 O 680.931 2.28028 -0.146868 0
M  V30 7116 C 681.141 0.804056 -3.39611 0
M  V30 7117 C 682.489 1.14267 -4.08935 0
M  V30 7118 O 683.513 0.893248 -3.44818 0
M  V30 7119 O 682.372 1.61229 -5.22176 0
M  V30 7120 H 679.466 0.277724 -0.778973 0
M  V30 7121 H 682.012 -0.188862 -1.68646 0
M  V30 7122 H 680.784 -0.103772 -3.91162 0
M  V30 7123 H 680.407 1.59025 -3.64413 0
M  V30 7124 N 681.404 1.57128 0.121893 0
M  V30 7125 C 682.367 1.99197 1.13372 0
M  V30 7126 C 683.367 0.881728 1.3447 0
M  V30 7127 O 684.557 1.14783 1.31036 0
M  V30 7128 C 681.689 2.32963 2.4888 0
M  V30 7129 H 682.882 2.89788 0.772204 0
M  V30 7130 H 680.435 1.51952 0.366093 0
M  V30 7131 H 681.17 1.45243 2.89957 0
M  V30 7132 H 680.955 3.13934 2.34921 0
M  V30 7133 H 682.445 2.66261 3.21706 0
M  V30 7134 N 682.882 -0.391992 1.52647 0
M  V30 7135 C 683.814 -1.49811 1.73463 0
M  V30 7136 C 684.827 -1.50734 0.615078 0
M  V30 7137 O 686.016 -1.5469 0.890696 0
M  V30 7138 C 683.116 -2.88667 1.77552 0
M  V30 7139 C 682.289 -3.11743 3.06815 0
M  V30 7140 C 681.348 -4.30564 3.02491 0
M  V30 7141 O 680.374 -4.27014 3.76361 0
M  V30 7142 N 681.576 -5.36593 2.21468 0
M  V30 7143 H 684.341 -1.32343 2.68897 0
M  V30 7144 H 681.902 -0.581475 1.51098 0
M  V30 7145 H 683.894 -3.66251 1.7217 0
M  V30 7146 H 682.464 -2.99508 0.895181 0
M  V30 7147 H 681.684 -2.2205 3.25711 0
M  V30 7148 H 682.972 -3.24013 3.92292 0
M  V30 7149 H 682.37 -5.42332 1.60913 0
M  V30 7150 H 680.927 -6.12855 2.21928 0
M  V30 7151 N 684.36 -1.4356 -0.65026 0
M  V30 7152 C 685.637 -1.35811 -1.40765 0
M  V30 7153 C 686.017 -0.00736379 -2.11099 0
M  V30 7154 O 685.365 1.00932 -2.05 0
M  V30 7155 C 685.575 -2.54332 -2.3899 0
M  V30 7156 C 686.923 -2.97551 -3.02901 0
M  V30 7157 O 687.947 -2.544 -2.49317 0
M  V30 7158 O 686.806 -3.72311 -4.00059 0
M  V30 7159 H 683.9 -0.536861 -0.629054 0
M  V30 7160 H 686.446 -1.55615 -0.676919 0
M  V30 7161 H 685.218 -3.44274 -1.85986 0
M  V30 7162 H 684.841 -2.36643 -3.19509 0
M  V30 7163 N 685.838 0.888903 -1.30139 0
M  V30 7164 C 687.087 1.63507 -1.18103 0
M  V30 7165 C 687.4 1.93808 0.264141 0
M  V30 7166 O 688.606 2.66744 0.505966 0
M  V30 7167 C 687.062 2.94673 -2.0663 0
M  V30 7168 C 686.67 2.71926 -3.56034 0
M  V30 7169 C 688.414 3.72626 -2.03346 0
M  V30 7170 C 686.321 3.98884 -4.3663 0
M  V30 7171 H 685.251 0.613426 -0.438435 0
M  V30 7172 H 687.902 0.984427 -1.54859 0
M  V30 7173 H 686.284 3.61009 -1.62754 0
M  V30 7174 H 687.458 2.14116 -4.08033 0
M  V30 7175 H 685.773 2.07353 -3.61101 0
M  V30 7176 H 688.37 4.66775 -2.60816 0
M  V30 7177 H 688.713 4.03712 -1.016 0
M  V30 7178 H 689.246 3.13147 -2.45324 0
M  V30 7179 H 685.985 3.72959 -5.39056 0
M  V30 7180 H 685.505 4.56214 -3.89396 0
M  V30 7181 H 687.184 4.66938 -4.47859 0
M  V30 7182 N 687.317 1.12792 1.10072 0
M  V30 7183 C 688.545 0.908506 1.85886 0
M  V30 7184 C 688.96 -0.542408 1.80841 0
M  V30 7185 O 688.317 -1.37517 1.1998 0
M  V30 7186 C 688.368 1.37973 3.34134 0
M  V30 7187 O 688.089 2.77378 3.39106 0
M  V30 7188 C 689.59 1.1978 4.26811 0
M  V30 7189 H 686.81 0.3244 0.587372 0
M  V30 7190 H 689.354 1.49882 1.39125 0
M  V30 7191 H 687.509 0.832566 3.78348 0
M  V30 7192 H 687.923 2.98144 4.31521 0
M  V30 7193 H 689.397 1.57635 5.29014 0
M  V30 7194 H 689.874 0.138768 4.38981 0
M  V30 7195 H 690.48 1.73266 3.88406 0
M  V30 7196 N 688.795 -1.27931 0.920396 0
M  V30 7197 C 689.758 -2.25345 0.41858 0
M  V30 7198 C 690.758 -1.54116 -0.458798 0
M  V30 7199 O 691.948 -1.72235 -0.260912 0
M  V30 7200 C 689.08 -3.38556 -0.399104 0
M  V30 7201 H 690.273 -2.71251 1.27918 0
M  V30 7202 H 687.826 -1.39728 0.700406 0
M  V30 7203 H 688.561 -2.98021 -1.27882 0
M  V30 7204 H 688.346 -3.91426 0.229863 0
M  V30 7205 H 689.836 -4.10976 -0.740817 0
M  V30 7206 N 690.273 -0.685099 -1.4193 0
M  V30 7207 C 691.684 -0.287699 -1.8447 0
M  V30 7208 C 692.035 1.17215 -1.57338 0
M  V30 7209 O 691.16 1.89856 -1.03845 0
M  V30 7210 C 691.755 -0.515385 -3.34857 0
M  V30 7211 C 690.314 -0.172006 -3.76007 0
M  V30 7212 C 689.461 -0.802808 -2.65425 0
M  V30 7213 H 692.412 -0.88652 -1.3163 0
M  V30 7214 H 692.433 0.229251 -3.79809 0
M  V30 7215 H 691.945 -1.57796 -3.54573 0
M  V30 7216 H 690.046 0.886716 -3.61895 0
M  V30 7217 H 690.159 -0.619717 -4.75075 0
M  V30 7218 H 688.523 -0.233267 -2.5363 0
M  V30 7219 H 689.306 -1.86904 -2.87961 0
M  V30 7220 N 691.751 1.51645 -0.429126 0
M  V30 7221 C 692.714 2.26116 0.374726 0
M  V30 7222 C 693.714 1.29242 0.956714 0
M  V30 7223 O 694.904 1.53022 0.832452 0
M  V30 7224 C 692.036 3.04669 1.52937 0
M  V30 7225 H 693.229 2.9861 -0.277818 0
M  V30 7226 H 690.782 1.55236 -0.182097 0
M  V30 7227 H 691.517 2.36571 2.21821 0
M  V30 7228 H 691.302 3.75814 1.11833 0
M  V30 7229 H 692.792 3.61102 2.09751 0
M  V30 7230 N 693.229 0.160201 1.56784 0
M  V30 7231 C 694.478 -0.487619 1.95717 0
M  V30 7232 C 694.791 -1.65136 1.0483 0
M  V30 7233 O 695.997 -2.36468 1.33398 0
M  V30 7234 C 694.453 -0.91888 3.47972 0
M  V30 7235 C 694.061 0.218655 4.47466 0
M  V30 7236 C 695.805 -1.53575 3.95746 0
M  V30 7237 C 693.712 -0.231614 5.90946 0
M  V30 7238 H 692.642 -0.185939 0.730714 0
M  V30 7239 H 695.293 0.246657 1.81835 0
M  V30 7240 H 693.675 -1.70881 3.57234 0
M  V30 7241 H 694.849 0.995825 4.49911 0
M  V30 7242 H 693.164 0.744767 4.09685 0
M  V30 7243 H 695.761 -1.88448 5.00391 0
M  V30 7244 H 696.104 -2.42959 3.38048 0
M  V30 7245 H 696.637 -0.810467 3.89456 0
M  V30 7246 H 693.376 0.62718 6.52493 0
M  V30 7247 H 692.896 -0.974379 5.91833 0
M  V30 7248 H 694.575 -0.67922 6.43425 0
M  V30 7249 N 694.707 -1.5719 -0.113559 0
M  V30 7250 C 695.67 -1.99796 -1.12314 0
M  V30 7251 C 696.67 -0.888847 -1.34001 0
M  V30 7252 O 697.86 -1.15476 -1.30426 0
M  V30 7253 C 694.992 -2.34279 -2.47641 0
M  V30 7254 H 696.185 -2.90193 -0.756825 0
M  V30 7255 H 693.738 -1.52144 -0.358029 0
M  V30 7256 H 694.473 -1.46778 -2.89183 0
M  V30 7257 H 694.258 -3.15175 -2.33253 0
M  V30 7258 H 695.748 -2.67963 -3.2029 0
M  V30 7259 N 696.185 0.383891 -1.52853 0
M  V30 7260 C 697.413 1.1495 -1.7203 0
M  V30 7261 C 697.828 1.83578 -0.440957 0
M  V30 7262 O 697.185 1.72872 0.584925 0
M  V30 7263 C 697.236 2.19368 -2.87333 0
M  V30 7264 O 696.957 1.53536 -4.10315 0
M  V30 7265 C 698.458 3.08616 -3.18231 0
M  V30 7266 H 695.678 0.344445 -0.575846 0
M  V30 7267 H 698.222 0.448397 -1.99524 0
M  V30 7268 H 696.377 2.85105 -2.62286 0
M  V30 7269 H 696.791 2.2296 -4.74752 0
M  V30 7270 H 698.265 3.77902 -4.02361 0
M  V30 7271 H 698.742 3.72409 -2.32826 0
M  V30 7272 H 699.348 2.48518 -3.45136 0
M  V30 7273 N 697.663 1.43903 0.642637 0
M  V30 7274 C 698.593 1.52697 1.76652 0
M  V30 7275 C 699.574 0.380816 1.65782 0
M  V30 7276 O 700.759 0.599432 1.84717 0
M  V30 7277 C 697.889 1.45975 3.15133 0
M  V30 7278 C 696.843 2.58949 3.40778 0
M  V30 7279 C 696.169 2.37279 4.79169 0
M  V30 7280 C 697.469 4.01153 3.34475 0
M  V30 7281 H 699.163 2.46766 1.69549 0
M  V30 7282 H 696.709 1.18767 0.814279 0
M  V30 7283 H 698.662 1.5073 3.93521 0
M  V30 7284 H 697.386 0.484162 3.22991 0
M  V30 7285 H 696.045 2.53564 2.64765 0
M  V30 7286 H 695.693 1.37939 4.83717 0
M  V30 7287 H 695.393 3.13016 4.97287 0
M  V30 7288 H 696.917 2.43834 5.59801 0
M  V30 7289 H 698.331 4.07968 4.02784 0
M  V30 7290 H 696.728 4.77001 3.64129 0
M  V30 7291 H 697.798 4.25539 2.32475 0
M  V30 7292 N 699.141 -0.881989 1.30609 0
M  V30 7293 C 700.088 -1.98803 1.17244 0
M  V30 7294 C 701.058 -1.65987 0.0611905 0
M  V30 7295 O 702.243 -1.89385 0.231911 0
M  V30 7296 C 699.383 -3.33867 0.87333 0
M  V30 7297 C 698.496 -3.79354 2.06675 0
M  V30 7298 C 697.631 -5.03078 1.70547 0
M  V30 7299 C 696.67 -5.40981 2.86366 0
M  V30 7300 N 695.807 -6.55886 2.50514 0
M  V30 7301 H 700.647 -2.09566 2.11863 0
M  V30 7302 H 698.184 -1.02607 1.05405 0
M  V30 7303 H 700.142 -4.11612 0.680519 0
M  V30 7304 H 698.772 -3.2278 -0.0359983 0
M  V30 7305 H 697.824 -2.97492 2.37071 0
M  V30 7306 H 699.136 -4.03382 2.93401 0
M  V30 7307 H 698.29 -5.88457 1.47658 0
M  V30 7308 H 697.029 -4.80927 0.809947 0
M  V30 7309 H 696.034 -4.54127 3.09917 0
M  V30 7310 H 697.259 -5.65104 3.76609 0
M  V30 7311 H 695.205 -6.35306 1.63471 0
M  V30 7312 H 695.122 -6.79799 3.30771 0
M  V30 7313 H 696.39 -7.44489 2.30989 0
M  V30 7314 N 700.619 -1.13374 -1.09472 0
M  V30 7315 C 701.549 -0.833268 -2.18126 0
M  V30 7316 C 702.53 0.207169 -1.68834 0
M  V30 7317 O 703.715 0.0662012 -1.94087 0
M  V30 7318 C 700.845 -0.297979 -3.46019 0
M  V30 7319 C 699.799 -1.27261 -4.08642 0
M  V30 7320 C 699.125 -0.597104 -5.31356 0
M  V30 7321 C 700.425 -2.63095 -4.51197 0
M  V30 7322 H 702.119 -1.74182 -2.43518 0
M  V30 7323 H 699.665 -0.838921 -1.17039 0
M  V30 7324 H 701.618 -0.0754444 -4.21332 0
M  V30 7325 H 700.342 0.645959 -3.20148 0
M  V30 7326 H 699.001 -1.48113 -3.35348 0
M  V30 7327 H 698.649 0.352293 -5.01765 0
M  V30 7328 H 698.349 -1.24734 -5.74208 0
M  V30 7329 H 699.873 -0.38384 -6.09392 0
M  V30 7330 H 701.287 -2.46214 -5.17737 0
M  V30 7331 H 699.684 -3.2429 -5.04932 0
M  V30 7332 H 700.754 -3.20793 -3.6362 0
M  V30 7333 N 702.098 1.27442 -0.927168 0
M  V30 7334 C 703.045 2.26863 -0.424459 0
M  V30 7335 C 704.015 1.5813 0.508346 0
M  V30 7336 O 705.2 1.85946 0.42762 0
M  V30 7337 C 702.34 3.43639 0.31718 0
M  V30 7338 C 701.453 4.27087 -0.649675 0
M  V30 7339 C 700.588 5.31082 0.111753 0
M  V30 7340 C 699.627 6.062 -0.847843 0
M  V30 7341 N 698.764 7.01999 -0.119074 0
M  V30 7342 H 703.604 2.69239 -1.27728 0
M  V30 7343 H 701.141 1.32394 -0.641106 0
M  V30 7344 H 703.099 4.10155 0.763486 0
M  V30 7345 H 701.729 3.02217 1.13424 0
M  V30 7346 H 700.781 3.60491 -1.21451 0
M  V30 7347 H 702.093 4.79242 -1.38307 0
M  V30 7348 H 701.247 6.03544 0.618 0
M  V30 7349 H 699.986 4.7973 0.878114 0
M  V30 7350 H 698.991 5.32577 -1.36534 0
M  V30 7351 H 700.216 6.59642 -1.61398 0
M  V30 7352 H 698.162 6.52977 0.629051 0
M  V30 7353 H 698.079 7.5184 -0.792046 0
M  V30 7354 H 699.347 7.78638 0.366537 0
M  V30 7355 N 703.576 0.692616 1.41565 0
M  V30 7356 C 704.526 0.00231847 2.28 0
M  V30 7357 C 705.51 -0.755793 1.42044 0
M  V30 7358 O 706.702 -0.631772 1.65341 0
M  V30 7359 C 703.831 -0.935468 3.30309 0
M  V30 7360 C 702.917 -0.173761 4.23744 0
M  V30 7361 N 703.308 0.830872 4.98929 0
M  V30 7362 C 701.606 -0.409666 4.44115 0
M  V30 7363 C 702.307 1.28656 5.67294 0
M  V30 7364 N 701.283 0.613053 5.40132 0
M  V30 7365 H 705.085 0.772635 2.83562 0
M  V30 7366 H 702.599 0.523198 1.53741 0
M  V30 7367 H 704.596 -1.44513 3.91052 0
M  V30 7368 H 703.256 -1.70542 2.76307 0
M  V30 7369 H 704.267 1.21101 5.03542 0
M  V30 7370 H 700.944 -1.15773 4.01127 0
M  V30 7371 H 702.334 2.12006 6.37576 0
M  V30 7372 N 705.054 -1.51416 0.437162 0
M  V30 7373 C 706.004 -2.24599 -0.392311 0
M  V30 7374 C 706.988 -1.2682 -0.990221 0
M  V30 7375 O 708.18 -1.51912 -0.908391 0
M  V30 7376 C 705.309 -3.09134 -1.49301 0
M  V30 7377 C 704.395 -4.14342 -0.904503 0
M  V30 7378 N 704.786 -5.0578 -0.0451511 0
M  V30 7379 C 703.084 -4.30323 -1.1721 0
M  V30 7380 C 703.785 -5.81 0.285344 0
M  V30 7381 N 702.761 -5.42591 -0.330993 0
M  V30 7382 H 706.563 -2.92655 0.270221 0
M  V30 7383 H 704.077 -1.60476 0.249226 0
M  V30 7384 H 706.074 -3.6014 -2.10011 0
M  V30 7385 H 704.734 -2.42622 -2.15788 0
M  V30 7386 H 705.745 -5.16903 0.321271 0
M  V30 7387 H 702.422 -3.75037 -1.83448 0
M  V30 7388 H 703.812 -6.64646 0.984626 0
M  V30 7389 N 706.532 -0.168513 -1.56696 0
M  V30 7390 C 707.781 0.477233 -1.95973 0
M  V30 7391 C 708.094 1.64578 -1.05704 0
M  V30 7392 O 709.3 2.35758 -1.3465 0
M  V30 7393 C 707.756 0.900413 -3.48455 0
M  V30 7394 C 707.364 -0.242382 -4.47344 0
M  V30 7395 C 709.108 1.51474 -3.96555 0
M  V30 7396 C 707.015 0.200272 -5.91061 0
M  V30 7397 H 705.945 0.182061 -0.73169 0
M  V30 7398 H 708.596 -0.256297 -1.81701 0
M  V30 7399 H 706.978 1.68984 -3.58135 0
M  V30 7400 H 708.152 -1.01967 -4.49377 0
M  V30 7401 H 706.467 -0.766484 -4.09285 0
M  V30 7402 H 709.064 1.85792 -5.01384 0
M  V30 7403 H 709.407 2.41163 -3.39332 0
M  V30 7404 H 709.94 0.789802 -3.89881 0
M  V30 7405 H 706.679 -0.661775 -6.52151 0
M  V30 7406 H 706.199 0.942979 -5.92341 0
M  V30 7407 H 707.878 0.645088 -6.43776 0
M  V30 7408 N 708.01 1.57248 0.105221 0
M  V30 7409 C 709.421 1.74612 0.660865 0
M  V30 7410 C 709.772 0.789231 1.79626 0
M  V30 7411 O 708.897 -0.0346611 2.16372 0
M  V30 7412 C 709.492 3.16624 1.20559 0
M  V30 7413 C 708.051 3.35447 1.7074 0
M  V30 7414 C 707.198 2.70445 0.612764 0
M  V30 7415 H 710.149 1.5824 -0.12079 0
M  V30 7416 H 710.17 3.18937 2.07508 0
M  V30 7417 H 709.682 3.86245 0.379012 0
M  V30 7418 H 707.783 2.7089 2.5583 0
M  V30 7419 H 707.896 4.43702 1.80736 0
M  V30 7420 H 706.26 2.32061 1.04975 0
M  V30 7421 H 707.043 3.42699 -0.203066 0
M  V30 7422 N 709.488 -0.375779 1.53054 0
M  V30 7423 C 710.718 -1.1387 1.72386 0
M  V30 7424 C 711.126 -1.8382 0.447966 0
M  V30 7425 O 710.469 -1.74027 -0.588244 0
M  V30 7426 C 710.531 -2.22047 2.82728 0
M  V30 7427 C 710.195 -1.71951 4.23417 0
M  V30 7428 C 711.192 -1.18909 5.06119 0
M  V30 7429 C 708.877 -1.77773 4.69789 0
M  V30 7430 C 710.871 -0.723529 6.3328 0
M  V30 7431 C 708.558 -1.30829 5.96931 0
M  V30 7432 C 709.556 -0.782077 6.78508 0
M  V30 7433 O 709.244 -0.319529 8.03265 0
M  V30 7434 H 708.976 -0.346835 0.580242 0
M  V30 7435 H 711.53 -0.443748 2.00549 0
M  V30 7436 H 709.76 -2.95006 2.50017 0
M  V30 7437 H 711.449 -2.83654 2.90336 0
M  V30 7438 H 712.215 -1.13758 4.7147 0
M  V30 7439 H 708.094 -2.17673 4.06373 0
M  V30 7440 H 711.638 -0.312126 6.96901 0
M  V30 7441 H 707.535 -1.3567 6.31081 0
M  V30 7442 H 708.303 -0.439796 8.17318 0
M  V30 7443 N 710.966 -1.44241 -0.634997 0
M  V30 7444 C 712.377 -1.41622 -1.21655 0
M  V30 7445 C 712.728 -0.129584 -1.95772 0
M  V30 7446 O 711.853 0.770225 -2.02229 0
M  V30 7447 C 712.448 -2.56557 -2.21278 0
M  V30 7448 C 711.007 -2.57145 -2.7487 0
M  V30 7449 C 710.154 -2.33354 -1.49804 0
M  V30 7450 H 713.105 -1.52878 -0.425905 0
M  V30 7451 H 713.126 -2.29089 -3.03807 0
M  V30 7452 H 712.638 -3.50186 -1.67306 0
M  V30 7453 H 710.739 -1.67447 -3.32855 0
M  V30 7454 H 710.852 -3.55507 -3.21172 0
M  V30 7455 H 709.216 -1.82372 -1.77799 0
M  V30 7456 H 709.999 -3.29092 -0.977402 0
M  V30 7457 N 712.444 0.87505 -1.31075 0
M  V30 7458 C 713.374 1.99775 -1.20881 0
M  V30 7459 C 714.355 1.69822 -0.0971612 0
M  V30 7460 O 715.54 1.92158 -0.280895 0
M  V30 7461 C 712.67 3.35163 -0.910118 0
M  V30 7462 C 711.624 3.79406 -1.98078 0
M  V30 7463 C 710.95 5.12197 -1.53488 0
M  V30 7464 C 712.25 3.97061 -3.39323 0
M  V30 7465 H 713.944 2.08562 -2.14808 0
M  V30 7466 H 711.49 1.00207 -1.03415 0
M  V30 7467 H 713.443 4.13237 -0.825423 0
M  V30 7468 H 712.167 3.26536 0.064822 0
M  V30 7469 H 710.826 3.03568 -2.05528 0
M  V30 7470 H 710.474 5.00007 -0.547941 0
M  V30 7471 H 710.174 5.4277 -2.2511 0
M  V30 7472 H 711.698 5.92785 -1.46417 0
M  V30 7473 H 713.112 4.65545 -3.34576 0
M  V30 7474 H 711.509 4.39025 -4.09118 0
M  V30 7475 H 712.579 3.00601 -3.80483 0
M  V30 7476 N 713.922 1.13953 1.08869 0
M  V30 7477 C 714.872 0.790812 2.13846 0
M  V30 7478 C 715.856 -0.217819 1.59419 0
M  V30 7479 O 717.048 -0.0208723 1.76988 0
M  V30 7480 C 714.177 0.26479 3.42277 0
M  V30 7481 C 713.263 1.30267 4.03598 0
M  V30 7482 N 713.654 2.50535 4.39393 0
M  V30 7483 C 711.952 1.15178 4.30871 0
M  V30 7484 C 712.653 3.16938 4.87776 0
M  V30 7485 N 711.629 2.44349 4.85587 0
M  V30 7486 H 715.431 1.70577 2.39334 0
M  V30 7487 H 712.945 1.02268 1.26154 0
M  V30 7488 H 714.942 -0.00330398 4.169 0
M  V30 7489 H 713.602 -0.644419 3.18241 0
M  V30 7490 H 714.613 2.87798 4.30572 0
M  V30 7491 H 711.29 0.301204 4.16412 0
M  V30 7492 H 712.68 4.19453 5.2489 0
M  V30 7493 N 715.4 -1.26948 0.933913 0
M  V30 7494 C 716.648 -1.93704 0.576484 0
M  V30 7495 C 716.969 -1.73702 -0.886145 0
M  V30 7496 O 716.239 -1.08838 -1.62884 0
M  V30 7497 H 714.819 -0.716812 0.210214 0
M  V30 7498 H 717.481 -1.54534 1.18766 0
M  V30 7499 H 716.577 -3.01987 0.788055 0
M  V30 7500 N 716.879 -0.700114 -1.41195 0
M  V30 7501 C 718.104 -0.240704 -2.05998 0
M  V30 7502 C 718.529 1.10313 -1.52357 0
M  V30 7503 O 717.887 1.69154 -0.652424 0
M  V30 7504 C 717.935 -0.213783 -3.59966 0
M  V30 7505 O 717.039 0.809933 -4.04368 0
M  V30 7506 H 716.38 -0.116471 -0.653705 0
M  V30 7507 H 718.91 -0.956251 -1.80878 0
M  V30 7508 H 718.92 -0.0461852 -4.07974 0
M  V30 7509 H 717.595 -1.19454 -3.98376 0
M  V30 7510 H 716.172 0.611319 -3.67855 0
M  V30 7511 N 718.357 1.51182 -0.445186 0
M  V30 7512 C 719.603 2.03097 0.111049 0
M  V30 7513 C 719.958 1.32293 1.397 0
M  V30 7514 O 719.251 0.431529 1.86677 0
M  V30 7515 C 719.445 3.55408 0.376797 0
M  V30 7516 C 719.274 4.40969 -0.88185 0
M  V30 7517 C 718.044 4.85006 -1.41766 0
M  V30 7518 C 720.242 4.82876 -1.77017 0
M  V30 7519 N 718.224 5.54804 -2.62803 0
M  V30 7520 C 719.595 5.51821 -2.82654 0
M  V30 7521 C 721.65 4.64855 -1.78365 0
M  V30 7522 C 720.353 6.04655 -3.89595 0
M  V30 7523 C 722.379 5.18612 -2.84246 0
M  V30 7524 C 721.741 5.87509 -3.88603 0
M  V30 7525 H 717.84 0.781999 0.0012696 0
M  V30 7526 H 720.424 1.84976 -0.60761 0
M  V30 7527 H 718.595 3.73528 1.06449 0
M  V30 7528 H 720.327 3.93985 0.925082 0
M  V30 7529 H 717.082 4.6355 -0.970476 0
M  V30 7530 H 717.506 5.94326 -3.24201 0
M  V30 7531 H 722.148 4.11043 -0.990119 0
M  V30 7532 H 719.866 6.57518 -4.69782 0
M  V30 7533 H 723.452 5.06515 -2.86241 0
M  V30 7534 H 722.332 6.28358 -4.69186 0
M  V30 7535 N 719.835 0.176821 1.56605 0
M  V30 7536 C 720.798 -0.737429 2.17013 0
M  V30 7537 C 721.798 -1.15414 1.11965 0
M  V30 7538 O 722.988 -1.0702 1.37449 0
M  V30 7539 C 720.12 -2.00445 2.75744 0
M  V30 7540 H 721.313 -0.211455 2.99154 0
M  V30 7541 H 718.866 -0.0727582 1.56131 0
M  V30 7542 H 719.601 -2.57338 1.97352 0
M  V30 7543 H 719.386 -1.71456 3.52626 0
M  V30 7544 H 720.876 -2.65679 3.22187 0
M  V30 7545 N 721.313 -1.57302 -0.09688 0
M  V30 7546 C 722.245 -1.98618 -1.14384 0
M  V30 7547 C 723.258 -0.888483 -1.36418 0
M  V30 7548 O 724.447 -1.16661 -1.35101 0
M  V30 7549 C 721.547 -2.28838 -2.49973 0
M  V30 7550 C 720.72 -3.60132 -2.48241 0
M  V30 7551 C 719.779 -3.7831 -3.65743 0
M  V30 7552 O 718.805 -4.50183 -3.48316 0
M  V30 7553 N 720.007 -3.18752 -4.85157 0
M  V30 7554 H 722.772 -2.8904 -0.792202 0
M  V30 7555 H 720.333 -1.59356 -0.285883 0
M  V30 7556 H 722.325 -2.38193 -3.27179 0
M  V30 7557 H 720.895 -1.44431 -2.77233 0
M  V30 7558 H 720.115 -3.61763 -1.56593 0
M  V30 7559 H 721.403 -4.46389 -2.4416 0
M  V30 7560 H 720.801 -2.60368 -5.0222 0
M  V30 7561 H 719.358 -3.33595 -5.59962 0
M  V30 7562 N 722.791 0.367657 -1.53252 0
M  V30 7563 C 724.019 1.13119 -1.73239 0
M  V30 7564 C 724.434 1.831 -0.460404 0
M  V30 7565 O 723.791 1.73483 0.566557 0
M  V30 7566 C 723.842 2.16308 -2.89643 0
M  V30 7567 O 723.563 1.49175 -4.1192 0
M  V30 7568 C 725.064 3.05224 -3.21486 0
M  V30 7569 H 722.284 0.338318 -0.579467 0
M  V30 7570 H 724.828 0.42721 -1.99988 0
M  V30 7571 H 722.983 2.82307 -2.65295 0
M  V30 7572 H 723.397 2.17912 -4.7709 0
M  V30 7573 H 724.871 3.73613 -4.06346 0
M  V30 7574 H 725.348 3.69919 -2.36763 0
M  V30 7575 H 725.954 2.44843 -3.47753 0
M  V30 7576 O 724.308 1.53115 0.51363 0
M  V30 7577 H 724.999 1.54476 1.16863 0
M  V30 END ATOM
M  V30 BEGIN BOND
M  V30 END BOND
M  V30 END CTAB
M  END
$$$$
