drugbank_target|P75430 5-formyltetrahydrofolate cyclo-ligase (DB02800)
 OpenBabel12092120013D

  0  0  0     0  0            999 V3000
M  V30 BEGIN CTAB
M  V30 COUNTS 2742 2772 0 0 0
M  V30 BEGIN ATOM
M  V30 1 H -0.908 1.98254 -0.117106 0
M  V30 2 N 0 1.576 0 0
M  V30 3 C 0.933 2.03868 1.02534 0
M  V30 4 C 1.911 0.928543 1.3348 0
M  V30 5 O 3.095 1.19667 1.45644 0
M  V30 6 C 0.222 2.43627 2.35294 0
M  V30 7 C -0.732 3.65373 2.2001 0
M  V30 8 S 0.101 5.13292 1.52614 0
M  V30 9 C 1.257 5.56322 2.86805 0
M  V30 10 H 1.49 2.90518 0.631377 0
M  V30 11 H -0.977 1.52953 0.210867 0
M  V30 12 H 0.981 2.67203 3.11629 0
M  V30 13 H -0.358 1.57376 2.7183 0
M  V30 14 H -1.165 3.90944 3.18086 0
M  V30 15 H -1.563 3.418 1.51819 0
M  V30 16 H 0.729 5.58782 3.83104 0
M  V30 17 H 1.672 6.56266 2.65933 0
M  V30 18 H 2.08 4.83886 2.90714 0
M  V30 19 N 1.4781 -0.272755 1.55222 0
M  V30 20 C 2.7551 -1.02562 1.66555 0
M  V30 21 C 3.1351 -2.04282 0.532189 0
M  V30 22 O 2.4831 -2.23662 -0.467717 0
M  V30 23 C 2.6931 -1.6822 3.05782 0
M  V30 24 C 4.0411 -2.19373 3.63539 0
M  V30 25 O 5.0651 -1.78206 3.08417 0
M  V30 26 O 3.9241 -2.94883 4.60115 0
M  V30 27 H 1.0181 -0.475755 0.676451 0
M  V30 28 H 3.5641 -0.268593 1.67561 0
M  V30 29 H 2.3361 -0.945112 3.79715 0
M  V30 30 H 1.9591 -2.50609 3.08676 0
M  V30 31 N 2.9562 -1.48159 -0.537278 0
M  V30 32 C 3.9032 -1.62138 -1.64256 0
M  V30 33 C 4.8732 -0.463668 -1.59497 0
M  V30 34 O 6.0582 -0.686241 -1.78032 0
M  V30 35 C 3.1982 -1.66028 -3.02537 0
M  V30 36 C 2.3112 -2.92855 -3.17585 0
M  V30 37 C 1.4462 -2.87952 -4.46382 0
M  V30 38 C 0.4852 -4.09516 -4.54932 0
M  V30 39 N -0.3778 -4.02733 -5.75109 0
M  V30 40 H 4.4622 -2.56529 -1.51647 0
M  V30 41 H 1.9992 -1.27224 -0.738414 0
M  V30 42 H 3.9572 -1.66265 -3.82638 0
M  V30 43 H 2.5872 -0.751331 -3.13934 0
M  V30 44 H 1.6392 -3.02395 -2.30784 0
M  V30 45 H 2.9512 -3.82822 -3.19764 0
M  V30 46 H 2.1052 -2.8655 -5.34765 0
M  V30 47 H 0.8442 -1.95702 -4.46712 0
M  V30 48 H -0.1508 -4.11201 -3.64957 0
M  V30 49 H 1.0742 -5.02917 -4.56346 0
M  V30 50 H -0.9798 -3.13299 -5.76351 0
M  V30 51 H -1.0628 -4.86397 -5.78752 0
M  V30 52 H 0.2052 -4.05379 -6.65799 0
M  V30 53 N 4.4343 0.785586 -1.36625 0
M  V30 54 C 5.3823 1.91978 -1.31329 0
M  V30 55 C 6.3763 1.68162 -0.204416 0
M  V30 56 O 7.5823 1.76122 -0.371645 0
M  V30 57 H 3.9573 0.631087 -0.408942 0
M  V30 58 H 5.9283 1.93562 -2.27104 0
M  V30 59 C 4.6773 3.29055 -1.12329 0
M  V30 60 H 4.0003 3.4795 -1.96903 0
M  V30 61 H 5.4403 4.08756 -1.12671 0
M  V30 62 C 3.8993 3.36461 0.171861 0
M  V30 63 O 4.4293 3.84576 1.16035 0
M  V30 64 N 2.6353 2.89782 0.217846 0
M  V30 65 H 2.1823 2.50819 -0.587183 0
M  V30 66 H 2.1403 2.95119 1.08408 0
M  V30 67 N 5.9124 1.20967 1.01018 0
M  V30 68 C 6.8754 0.965918 2.07853 0
M  V30 69 C 7.8754 -0.0610545 1.60684 0
M  V30 70 O 9.0654 0.175681 1.73312 0
M  V30 71 C 6.1974 0.455513 3.37843 0
M  V30 72 H 7.3904 1.91365 2.3091 0
M  V30 73 H 4.9434 1.02594 1.17916 0
M  V30 74 H 5.6784 -0.497381 3.20463 0
M  V30 75 H 5.4634 1.19622 3.73407 0
M  V30 76 H 6.9534 0.304667 4.16487 0
M  V30 77 N 7.3905 -1.2043 1.01659 0
M  V30 78 C 8.3205 -2.25466 0.607226 0
M  V30 79 C 9.3015 -1.65853 -0.377716 0
M  V30 80 O 10.4865 -1.92409 -0.263149 0
M  V30 81 C 7.6165 -3.47256 -0.0552949 0
M  V30 82 C 6.5705 -4.19462 0.850632 0
M  V30 83 C 5.8965 -5.34673 0.0538859 0
M  V30 84 C 7.1965 -4.75603 2.15868 0
M  V30 85 H 8.8905 -2.59962 1.48526 0
M  V30 86 H 6.4365 -1.2496 0.715605 0
M  V30 87 H 8.3895 -4.19917 -0.353233 0
M  V30 88 H 7.1135 -3.11924 -0.968045 0
M  V30 89 H 5.7725 -3.48667 1.13257 0
M  V30 90 H 5.4205 -4.95585 -0.860514 0
M  V30 91 H 5.1205 -5.83913 0.657192 0
M  V30 92 H 6.6445 -6.10138 -0.237598 0
M  V30 93 H 8.0585 -5.40083 1.92311 0
M  V30 94 H 6.4555 -5.3528 2.71284 0
M  V30 95 H 7.5255 -3.94346 2.82169 0
M  V30 96 N 8.8686 -0.792821 -1.36206 0
M  V30 97 C 10.2846 -0.474903 -1.52371 0
M  V30 98 C 10.4846 1.00622 -1.74578 0
M  V30 99 O 9.5406 1.79162 -1.77924 0
M  V30 100 C 10.8536 -1.3083 -2.70747 0
M  V30 101 C 12.4016 -1.30234 -2.84619 0
M  V30 102 C 12.8766 -2.11956 -4.06004 0
M  V30 103 N 14.3676 -2.09419 -4.13156 0
M  V30 104 C 15.1026 -2.69419 -5.06163 0
M  V30 105 N 14.5986 -3.3829 -6.04592 0
M  V30 106 N 16.3916 -2.59134 -4.98804 0
M  V30 107 H 8.5426 -1.75222 -1.20046 0
M  V30 108 H 10.8056 -0.745024 -0.586211 0
M  V30 109 H 10.5116 -2.35881 -2.6087 0
M  V30 110 H 10.3856 -0.95196 -3.6499 0
M  V30 111 H 12.7726 -0.259748 -2.93955 0
M  V30 112 H 12.8536 -1.69847 -1.91274 0
M  V30 113 H 12.4976 -3.16248 -3.97429 0
M  V30 114 H 12.4276 -1.69711 -4.98503 0
M  V30 115 H 14.9186 -1.59297 -3.42685 0
M  V30 116 H 15.2316 -3.81394 -6.7213 0
M  V30 117 H 13.5766 -3.42393 -6.04807 0
M  V30 118 H 16.7676 -2.04927 -4.20859 0
M  V30 119 H 16.9406 -3.06185 -5.711 0
M  V30 120 N 10.3467 1.47872 -0.545128 0
M  V30 121 C 11.2937 2.29849 0.2093 0
M  V30 122 C 12.2637 1.38313 0.919707 0
M  V30 123 O 13.4487 1.67277 0.917772 0
M  V30 124 C 10.5887 3.22019 1.24088 0
M  V30 125 C 9.7017 4.2864 0.537778 0
M  V30 126 C 8.8367 5.07973 1.5536 0
M  V30 127 C 7.8757 6.06381 0.8348 0
M  V30 128 N 7.0127 6.78717 1.79688 0
M  V30 129 H 11.8527 2.93845 -0.49591 0
M  V30 130 H 9.3897 1.44848 -0.256389 0
M  V30 131 H 11.3477 3.73868 1.85144 0
M  V30 132 H 9.9777 2.59914 1.91428 0
M  V30 133 H 9.0297 3.7994 -0.187046 0
M  V30 134 H 10.3417 4.98793 -0.0258907 0
M  V30 135 H 9.4957 5.63912 2.23803 0
M  V30 136 H 8.2347 4.37693 2.15118 0
M  V30 137 H 7.2397 5.49631 0.136388 0
M  V30 138 H 8.4647 6.78665 0.24313 0
M  V30 139 H 6.4107 6.11177 2.38326 0
M  V30 140 H 6.3277 7.44998 1.28505 0
M  V30 141 H 7.5957 7.39237 2.47282 0
M  V30 142 N 11.8248 0.280983 1.55075 0
M  V30 143 C 12.7568 -0.637268 2.20163 0
M  V30 144 C 13.7698 -1.11298 1.18813 0
M  V30 145 O 14.9588 -1.03388 1.4551 0
M  V30 146 C 12.0588 -1.88199 2.81841 0
M  V30 147 C 11.2318 -1.55211 4.08936 0
M  V30 148 C 10.2908 -2.64991 4.54606 0
M  V30 149 O 9.3168 -2.30929 5.2025 0
M  V30 150 N 10.5188 -3.95161 4.25238 0
M  V30 151 H 13.2838 -0.0801694 2.99593 0
M  V30 152 H 10.8448 0.102329 1.61576 0
M  V30 153 H 12.8368 -2.60948 3.09335 0
M  V30 154 H 11.4068 -2.34799 2.06369 0
M  V30 155 H 10.6268 -0.658185 3.88666 0
M  V30 156 H 11.9148 -1.30681 4.91732 0
M  V30 157 H 11.3128 -4.25653 3.72607 0
M  V30 158 H 9.8698 -4.6427 4.5749 0
M  V30 159 N 13.3029 -1.57598 0.00835791 0
M  V30 160 C 14.5519 -1.90107 -0.673968 0
M  V30 161 C 14.8649 -0.884275 -1.7447 0
M  V30 162 O 16.0709 -1.09987 -2.48224 0
M  V30 163 C 14.5269 -3.37497 -1.24995 0
M  V30 164 C 14.1349 -4.47491 -0.2136 0
M  V30 165 C 15.8789 -3.79104 -1.90999 0
M  V30 166 C 13.7859 -5.85963 -0.80005 0
M  V30 167 H 12.7159 -0.709393 -0.255495 0
M  V30 168 H 15.3669 -1.83365 0.0702693 0
M  V30 169 H 13.7489 -3.39102 -2.04513 0
M  V30 170 H 14.9229 -4.57414 0.557596 0
M  V30 171 H 13.2379 -4.14956 0.346474 0
M  V30 172 H 15.8349 -4.79901 -2.35795 0
M  V30 173 H 16.1779 -3.1306 -2.74407 0
M  V30 174 H 16.7109 -3.79833 -1.18203 0
M  V30 175 H 13.4499 -6.555 -0.00456708 0
M  V30 176 H 12.9699 -5.79687 -1.54021 0
M  V30 177 H 14.6489 -6.33884 -1.29615 0
M  V30 178 N 14.781 0.264519 -1.55364 0
M  V30 179 C 15.711 1.33121 -1.91836 0
M  V30 180 C 16.692 1.51101 -0.781192 0
M  V30 181 O 17.877 1.64003 -1.04003 0
M  V30 182 C 15.007 2.68921 -2.19769 0
M  V30 183 C 13.961 2.65661 -3.35571 0
M  V30 184 C 13.287 4.05093 -3.49004 0
M  V30 185 C 14.587 2.24187 -4.71739 0
M  V30 186 H 16.281 1.02844 -2.81182 0
M  V30 187 H 13.827 0.493286 -1.35287 0
M  V30 188 H 15.78 3.43663 -2.43872 0
M  V30 189 H 14.504 3.00799 -1.27231 0
M  V30 190 H 13.163 1.93377 -3.1145 0
M  V30 191 H 12.811 4.34206 -2.53917 0
M  V30 192 H 12.511 4.03804 -4.26868 0
M  V30 193 H 14.035 4.81561 -3.75408 0
M  V30 194 H 15.449 2.88654 -4.9533 0
M  V30 195 H 13.846 2.34044 -5.52579 0
M  V30 196 H 14.916 1.19327 -4.69988 0
M  V30 197 N 16.2591 1.48442 0.529413 0
M  V30 198 C 17.1911 1.59095 1.64989 0
M  V30 199 C 18.2041 0.475212 1.5571 0
M  V30 200 O 19.3931 0.746081 1.6216 0
M  V30 201 C 16.4931 1.50518 3.0364 0
M  V30 202 C 15.6661 2.77142 3.38395 0
M  V30 203 C 14.7251 2.62012 4.56329 0
M  V30 204 O 13.7511 3.35898 4.59522 0
M  V30 205 N 14.9531 1.71667 5.54536 0
M  V30 206 H 17.7181 2.55723 1.56287 0
M  V30 207 H 15.2791 1.45173 0.716697 0
M  V30 208 H 17.2711 1.38091 3.80412 0
M  V30 209 H 15.8411 0.618627 3.06418 0
M  V30 210 H 15.0611 3.0413 2.50796 0
M  V30 211 H 16.3491 3.61146 3.58401 0
M  V30 212 H 15.7471 1.10841 5.54735 0
M  V30 213 H 14.3041 1.65178 6.30523 0
M  V30 214 N 17.7372 -0.778329 1.37039 0
M  V30 215 C 18.6842 -1.89139 1.32269 0
M  V30 216 C 19.6542 -1.65017 0.189387 0
M  V30 217 O 20.8392 -1.87024 0.377693 0
M  V30 218 C 17.9792 -3.26112 1.12894 0
M  V30 219 C 17.0922 -3.62233 2.35396 0
M  V30 220 C 16.2272 -4.8838 2.08946 0
M  V30 221 C 15.2662 -5.17212 3.2735 0
M  V30 222 N 14.4032 -6.34546 3.00492 0
M  V30 223 H 19.2432 -1.92552 2.27437 0
M  V30 224 H 16.7802 -0.941473 1.13025 0
M  V30 225 H 18.7382 -4.05116 0.996835 0
M  V30 226 H 17.3682 -3.22091 0.213758 0
M  V30 227 H 16.4202 -2.78265 2.5937 0
M  V30 228 H 17.7322 -3.79481 3.23721 0
M  V30 229 H 16.8862 -5.75274 1.92729 0
M  V30 230 H 15.6252 -4.73222 1.17949 0
M  V30 231 H 14.6302 -4.28796 3.44113 0
M  V30 232 H 15.8552 -5.34283 4.19188 0
M  V30 233 H 13.8012 -6.20759 2.12118 0
M  V30 234 H 13.7182 -6.52179 3.82358 0
M  V30 235 H 14.9862 -7.24394 2.87879 0
M  V30 236 N 19.2153 -1.21501 -1.00376 0
M  V30 237 C 20.6313 -0.972629 -1.26539 0
M  V30 238 C 20.8313 0.340257 -1.98606 0
M  V30 239 O 19.8873 1.06561 -2.28913 0
M  V30 240 C 21.2003 -2.16404 -2.08781 0
M  V30 241 C 22.7483 -2.20643 -2.22004 0
M  V30 242 C 23.2233 -3.39306 -3.07629 0
M  V30 243 N 24.7143 -3.39401 -3.15217 0
M  V30 244 C 25.4493 -4.27867 -3.81729 0
M  V30 245 N 24.9453 -5.26533 -4.5026 0
M  V30 246 N 26.7383 -4.15672 -3.78382 0
M  V30 247 H 18.8893 -2.05929 -0.520281 0
M  V30 248 H 21.1523 -0.901803 -0.292328 0
M  V30 249 H 20.8583 -3.11554 -1.63178 0
M  V30 250 H 20.7323 -2.15567 -3.09533 0
M  V30 251 H 23.1193 -1.26048 -2.66825 0
M  V30 252 H 23.2003 -2.25523 -1.20718 0
M  V30 253 H 22.8443 -4.34195 -2.63509 0
M  V30 254 H 22.7743 -3.31665 -4.09031 0
M  V30 255 H 25.2653 -2.67997 -2.66432 0
M  V30 256 H 25.5783 -5.90337 -4.98721 0
M  V30 257 H 23.9233 -5.30457 -4.49044 0
M  V30 258 H 27.1143 -3.3785 -3.23998 0
M  V30 259 H 27.2873 -4.84825 -4.2994 0
M  V30 260 N 20.6934 1.19889 -1.02296 0
M  V30 261 C 21.6264 2.21639 -0.543282 0
M  V30 262 C 22.6044 1.57275 0.412698 0
M  V30 263 O 23.7884 1.85568 0.331198 0
M  V30 264 C 20.9154 3.38057 0.208571 0
M  V30 265 C 19.9614 4.20751 -0.697933 0
M  V30 266 S 20.7944 4.89529 -2.17075 0
M  V30 267 C 21.9504 6.09363 -1.42923 0
M  V30 268 H 22.1834 2.61984 -1.40541 0
M  V30 269 H 19.7164 1.30041 -0.832387 0
M  V30 270 H 21.6744 4.05539 0.63624 0
M  V30 271 H 20.3354 2.96159 1.04635 0
M  V30 272 H 19.5284 5.03862 -0.117831 0
M  V30 273 H 19.1304 3.58556 -1.06366 0
M  V30 274 H 21.4224 6.73742 -0.712637 0
M  V30 275 H 22.3654 6.71845 -2.23673 0
M  V30 276 H 22.7734 5.56798 -0.929327 0
M  V30 277 N 22.1715 0.800033 1.35784 0
M  V30 278 C 23.1345 0.211565 2.28221 0
M  V30 279 C 24.1345 -0.59728 1.49296 0
M  V30 280 O 25.3245 -0.416721 1.69142 0
M  V30 281 C 22.4565 -0.705846 3.33513 0
M  V30 282 H 23.6495 1.02677 2.81776 0
M  V30 283 H 21.2025 0.570211 1.45528 0
M  V30 284 H 21.9375 -1.54498 2.85133 0
M  V30 285 H 21.7225 -0.127655 3.91892 0
M  V30 286 H 23.2125 -1.11211 4.02519 0
M  V30 287 N 23.6496 -1.47581 0.552962 0
M  V30 288 C 24.5796 -2.32762 -0.185451 0
M  V30 289 C 25.5606 -1.43527 -0.912905 0
M  V30 290 O 26.7456 -1.72388 -0.894201 0
M  V30 291 C 23.8756 -3.25219 -1.21859 0
M  V30 292 C 22.8296 -4.23661 -0.607864 0
M  V30 293 C 22.1556 -5.05413 -1.74533 0
M  V30 294 C 23.4556 -5.20481 0.435582 0
M  V30 295 H 25.1496 -2.94749 0.525684 0
M  V30 296 H 22.6956 -1.41738 0.254251 0
M  V30 297 H 24.6486 -3.8365 -1.7433 0
M  V30 298 H 23.3726 -2.61279 -1.95961 0
M  V30 299 H 22.0316 -3.66451 -0.104489 0
M  V30 300 H 21.6796 -4.3788 -2.47529 0
M  V30 301 H 21.3796 -5.72059 -1.34249 0
M  V30 302 H 22.9036 -5.66701 -2.27338 0
M  V30 303 H 24.3176 -5.733 -0.00290157 0
M  V30 304 H 22.7146 -5.95305 0.757067 0
M  V30 305 H 23.7846 -4.66217 1.33303 0
M  V30 306 N 25.1277 -0.289203 -1.54924 0
M  V30 307 C 26.3527 0.329299 -2.04769 0
M  V30 308 C 26.7777 1.4763 -1.16564 0
M  V30 309 O 26.1357 1.80527 -0.167186 0
M  V30 310 C 26.1837 0.774438 -3.52186 0
M  V30 311 O 25.2877 1.88038 -3.67036 0
M  V30 312 H 24.6287 0.0659259 -0.660719 0
M  V30 313 H 27.1587 -0.42761 -2.00082 0
M  V30 314 H 27.1687 1.06642 -3.93816 0
M  V30 315 H 25.8437 -0.0646707 -4.1585 0
M  V30 316 H 24.4207 1.58985 -3.3731 0
M  V30 317 N 26.6058 1.57591 -0.0167156 0
M  V30 318 C 27.8338 1.95575 0.675128 0
M  V30 319 C 28.2488 0.892542 1.6637 0
M  V30 320 O 27.6058 -0.126912 1.82058 0
M  V30 321 C 27.6568 3.33608 1.39239 0
M  V30 322 O 27.3778 4.3585 0.443444 0
M  V30 323 C 28.8788 3.86151 2.17721 0
M  V30 324 H 26.0988 0.644423 0.186978 0
M  V30 325 H 28.6428 2.0437 -0.0728 0
M  V30 326 H 26.7978 3.2607 2.09182 0
M  V30 327 H 27.2118 5.158 0.951358 0
M  V30 328 H 28.6858 4.85114 2.63379 0
M  V30 329 H 29.1628 3.19738 3.01105 0
M  V30 330 H 29.7688 3.96918 1.52761 0
M  V30 331 N 28.0839 -0.256276 1.55502 0
M  V30 332 C 29.3329 -0.983486 1.76098 0
M  V30 333 C 29.6459 -1.86837 0.578896 0
M  V30 334 O 30.8519 -2.63163 0.667648 0
M  V30 335 C 29.3079 -1.79868 3.1173 0
M  V30 336 C 28.9159 -0.961648 4.37557 0
M  V30 337 C 30.6599 -2.51919 3.41668 0
M  V30 338 C 28.5669 -1.77219 5.64223 0
M  V30 339 H 27.4969 -0.370936 0.656447 0
M  V30 340 H 30.1479 -0.238492 1.81944 0
M  V30 341 H 28.5299 -2.58527 2.99966 0
M  V30 342 H 29.7039 -0.218048 4.60284 0
M  V30 343 H 28.0189 -0.354913 4.14885 0
M  V30 344 H 30.6159 -3.12998 4.33516 0
M  V30 345 H 30.9589 -3.23059 2.62562 0
M  V30 346 H 31.4919 -1.80278 3.54605 0
M  V30 347 H 28.2309 -1.10471 6.46124 0
M  V30 348 H 27.7509 -2.49132 5.45613 0
M  V30 349 H 29.4299 -2.34169 6.03137 0
M  V30 350 N 29.562 -1.4872 -0.521534 0
M  V30 351 C 30.472 -1.66569 -1.65203 0
M  V30 352 C 31.488 -0.548197 -1.65139 0
M  V30 353 O 32.664 -0.820339 -1.83936 0
M  V30 354 C 29.729 -1.70917 -3.01642 0
M  V30 355 C 28.79 -2.94356 -3.12495 0
M  V30 356 C 28.023 -2.98487 -4.42426 0
M  V30 357 O 28.246 -2.10786 -5.30024 0
M  V30 358 O 27.18 -3.90746 -4.57822 0
M  V30 359 H 31.006 -2.62298 -1.5308 0
M  V30 360 H 28.591 -1.3222 -0.695565 0
M  V30 361 H 30.473 -1.7625 -3.82771 0
M  V30 362 H 29.148 -0.783633 -3.14071 0
M  V30 363 H 28.055 -2.94552 -2.3063 0
M  V30 364 H 29.388 -3.86322 -3.04986 0
M  V30 365 N 31.0401 0.771051 -1.3745 0
M  V30 366 C 31.9871 1.88435 -1.3327 0
M  V30 367 C 32.9571 1.64914 -0.198136 0
M  V30 368 O 34.1421 1.86821 -0.387606 0
M  V30 369 C 31.2821 3.25509 -1.14622 0
M  V30 370 C 30.3951 3.60979 -2.37314 0
M  V30 371 C 29.5301 4.87265 -2.11533 0
M  V30 372 C 28.5691 5.15469 -3.30088 0
M  V30 373 N 27.7061 6.32944 -3.03853 0
M  V30 374 H 32.5461 1.91344 -2.28455 0
M  V30 375 H 30.0831 0.935466 -1.13523 0
M  V30 376 H 32.0411 4.04582 -1.01831 0
M  V30 377 H 30.6711 3.21974 -0.230837 0
M  V30 378 H 29.7231 2.76885 -2.60842 0
M  V30 379 H 31.0351 3.77759 -3.25729 0
M  V30 380 H 30.1891 5.74244 -1.95777 0
M  V30 381 H 28.9281 4.7259 -1.20457 0
M  V30 382 H 27.9331 4.26966 -3.46382 0
M  V30 383 H 29.1581 5.32052 -4.22016 0
M  V30 384 H 27.1041 6.19625 -2.15407 0
M  V30 385 H 27.0211 6.50143 -3.85812 0
M  V30 386 H 28.2891 7.22857 -2.91716 0
M  V30 387 N 32.5182 1.22032 0.997298 0
M  V30 388 C 33.7432 1.06921 1.77715 0
M  V30 389 C 34.1682 -0.376226 1.84299 0
M  V30 390 O 33.5262 -1.27165 1.29223 0
M  V30 391 C 33.5742 1.67996 3.19076 0
M  V30 392 O 32.6782 0.930653 4.01762 0
M  V30 393 H 32.0192 0.375814 0.547412 0
M  V30 394 H 34.5492 1.61737 1.25309 0
M  V30 395 H 34.5592 1.72538 3.69723 0
M  V30 396 H 33.2342 2.73182 3.13599 0
M  V30 397 H 31.8112 0.960917 3.60307 0
M  V30 398 N 33.9963 -1.19345 1.0293 0
M  V30 399 C 34.9463 -2.20472 0.58104 0
M  V30 400 C 35.9303 -1.56578 -0.370442 0
M  V30 401 O 37.1223 -1.75963 -0.191344 0
M  V30 402 C 34.2513 -3.43236 -0.066306 0
M  V30 403 C 33.3373 -4.14274 0.907642 0
M  V30 404 N 33.7283 -4.61492 2.07023 0
M  V30 405 C 32.0263 -4.39966 0.731177 0
M  V30 406 C 32.7273 -5.1605 2.68454 0
M  V30 407 N 31.7033 -5.06875 1.96414 0
M  V30 408 H 35.5053 -2.54659 1.46717 0
M  V30 409 H 33.0193 -1.35423 0.896345 0
M  V30 410 H 35.0163 -4.14927 -0.405068 0
M  V30 411 H 33.6763 -3.10549 -0.948118 0
M  V30 412 H 34.6873 -4.56304 2.44963 0
M  V30 413 H 31.3643 -4.17377 -0.101507 0
M  V30 414 H 32.7543 -5.6287 3.66915 0
M  V30 415 N 35.4744 -0.807222 -1.35358 0
M  V30 416 C 36.4044 -0.232509 -2.3234 0
M  V30 417 C 37.3854 0.642386 -1.57504 0
M  V30 418 O 38.5704 0.572526 -1.85569 0
M  V30 419 C 35.7004 0.619238 -3.41735 0
M  V30 420 C 34.6544 -0.157215 -4.27711 0
M  V30 421 C 33.9804 0.816273 -5.28433 0
M  V30 422 C 35.2804 -1.35656 -5.04376 0
M  V30 423 H 36.9744 -1.04276 -2.80654 0
M  V30 424 H 34.5204 -0.50288 -1.34934 0
M  V30 425 H 36.4734 1.03137 -4.08584 0
M  V30 426 H 35.1974 1.46239 -2.92031 0
M  V30 427 H 33.8564 -0.550525 -3.62443 0
M  V30 428 H 33.5044 1.65494 -4.74996 0
M  V30 429 H 33.2044 0.301067 -5.86828 0
M  V30 430 H 34.7284 1.22659 -5.98153 0
M  V30 431 H 36.1424 -1.01927 -5.64166 0
M  V30 432 H 34.5394 -1.8063 -5.7227 0
M  V30 433 H 35.6094 -2.14288 -4.34981 0
M  V30 434 N 36.9525 1.47285 -0.560781 0
M  V30 435 C 38.2295 1.9558 0.0277798 0
M  V30 436 C 38.6095 1.5034 1.48192 0
M  V30 437 O 37.9575 0.743882 2.16052 0
M  V30 438 C 38.1675 3.48789 -0.121418 0
M  V30 439 C 39.5155 4.24594 0.0220912 0
M  V30 440 O 40.5395 3.56166 -0.0491439 0
M  V30 441 O 39.3985 5.46217 0.175958 0
M  V30 442 H 36.4925 0.824663 0.0621342 0
M  V30 443 H 39.0385 1.5767 -0.627556 0
M  V30 444 H 37.8105 3.74533 -1.13316 0
M  V30 445 H 37.4335 3.93473 0.571366 0
M  V30 446 N 38.4306 0.297415 1.54768 0
M  V30 447 C 39.3626 -0.613881 2.20826 0
M  V30 448 C 40.3756 -1.10032 1.19987 0
M  V30 449 O 41.5646 -1.01839 1.46598 0
M  V30 450 C 38.6646 -1.852 2.83821 0
M  V30 451 C 37.8376 -1.50865 4.10559 0
M  V30 452 C 36.8966 -2.60154 4.57391 0
M  V30 453 O 35.9226 -2.25398 5.2267 0
M  V30 454 N 37.1246 -3.90629 4.29406 0
M  V30 455 H 39.8896 -0.048389 2.99661 0
M  V30 456 H 37.4506 0.11946 1.61459 0
M  V30 457 H 39.4426 -2.57652 3.12086 0
M  V30 458 H 38.0126 -2.32597 2.08847 0
M  V30 459 H 37.2326 -0.616925 3.89343 0
M  V30 460 H 38.5206 -1.25458 4.9309 0
M  V30 461 H 37.9186 -4.21677 3.77101 0
M  V30 462 H 36.4756 -4.59391 4.62388 0
M  V30 463 N 39.9087 -1.5758 0.0250728 0
M  V30 464 C 40.8557 -2.09973 -0.958129 0
M  V30 465 C 41.8257 -1.00085 -1.3256 0
M  V30 466 O 43.0107 -1.27481 -1.41962 0
M  V30 467 C 40.1507 -2.62812 -2.2366 0
M  V30 468 C 39.2637 -3.86693 -1.92594 0
M  V30 469 C 38.3987 -4.27941 -3.14707 0
M  V30 470 C 37.4377 -5.44591 -2.79442 0
M  V30 471 N 36.5747 -5.81014 -3.94167 0
M  V30 472 H 41.4147 -2.937 -0.504428 0
M  V30 473 H 38.9517 -1.45172 -0.237392 0
M  V30 474 H 40.9097 -2.91536 -2.98434 0
M  V30 475 H 39.5397 -1.81922 -2.66654 0
M  V30 476 H 38.5917 -3.64723 -1.0808 0
M  V30 477 H 39.9037 -4.71547 -1.62619 0
M  V30 478 H 39.0577 -4.58079 -3.97804 0
M  V30 479 H 37.7967 -3.41845 -3.4784 0
M  V30 480 H 36.8017 -5.1415 -1.94755 0
M  V30 481 H 38.0267 -6.32382 -2.47528 0
M  V30 482 H 35.9727 -4.97874 -4.2715 0
M  V30 483 H 35.8897 -6.60498 -3.67801 0
M  V30 484 H 37.1577 -6.15756 -4.7798 0
M  V30 485 N 41.3868 0.248026 -1.55636 0
M  V30 486 C 42.6358 0.974134 -1.76617 0
M  V30 487 C 42.9488 1.86528 -0.588796 0
M  V30 488 O 44.1548 2.62805 -0.681594 0
M  V30 489 C 42.6108 1.78213 -3.12679 0
M  V30 490 C 42.2188 0.93843 -4.38061 0
M  V30 491 C 43.9628 2.50104 -3.42999 0
M  V30 492 C 41.8698 1.74225 -5.65155 0
M  V30 493 H 40.7998 0.36745 -0.658405 0
M  V30 494 H 43.4508 0.22884 -1.82067 0
M  V30 495 H 41.8328 2.56933 -3.01333 0
M  V30 496 H 43.0068 0.193635 -4.60393 0
M  V30 497 H 41.3218 0.332905 -4.15067 0
M  V30 498 H 43.9188 3.10694 -4.3517 0
M  V30 499 H 44.2618 3.21662 -2.64271 0
M  V30 500 H 44.7948 1.78395 -3.55556 0
M  V30 501 H 41.5338 1.07043 -6.46701 0
M  V30 502 H 41.0538 2.46235 -5.46926 0
M  V30 503 H 42.7328 2.30967 -6.0437 0
M  V30 504 N 42.8649 1.48995 0.513639 0
M  V30 505 C 43.8129 1.65199 1.63744 0
M  V30 506 C 44.8069 0.51809 1.61283 0
M  V30 507 O 46.0129 0.697335 1.65943 0
M  V30 508 H 42.3879 0.52069 0.542574 0
M  V30 509 H 44.3589 2.59552 1.47226 0
M  V30 510 C 43.1079 1.72409 3.01945 0
M  V30 511 H 42.4309 2.59029 3.04539 0
M  V30 512 H 43.8709 1.87785 3.80148 0
M  V30 513 C 42.3299 0.46618 3.33659 0
M  V30 514 O 42.8599 -0.413744 3.99564 0
M  V30 515 N 41.0659 0.332931 2.88687 0
M  V30 516 H 40.6129 1.04996 2.35231 0
M  V30 517 H 40.5709 -0.507665 3.10274 0
M  V30 518 N 44.343 -0.763751 1.37857 0
M  V30 519 C 45.275 -1.88664 1.30148 0
M  V30 520 C 46.288 -1.61365 0.215685 0
M  V30 521 O 47.477 -1.72134 0.472459 0
M  V30 522 C 44.577 -3.24075 0.991396 0
M  V30 523 C 43.75 -3.78958 2.18426 0
M  V30 524 C 42.809 -4.92862 1.8432 0
M  V30 525 O 41.835 -5.08027 2.56704 0
M  V30 526 N 43.037 -5.75071 0.792081 0
M  V30 527 H 45.802 -1.95791 2.26905 0
M  V30 528 H 43.363 -0.943226 1.31586 0
M  V30 529 H 45.355 -3.97804 0.743935 0
M  V30 530 H 43.925 -3.12399 0.112122 0
M  V30 531 H 43.145 -2.96913 2.59299 0
M  V30 532 H 44.433 -4.12357 2.98058 0
M  V30 533 H 43.831 -5.65375 0.191595 0
M  V30 534 H 42.388 -6.48991 0.60449 0
M  V30 535 N 45.8211 -1.22559 -0.990812 0
M  V30 536 C 46.7681 -0.997519 -2.0813 0
M  V30 537 C 47.7381 0.0814702 -1.659 0
M  V30 538 O 48.9231 -0.0685424 -1.90677 0
M  V30 539 C 46.0631 -0.583615 -3.40129 0
M  V30 540 C 45.1761 -1.7336 -3.9569 0
M  V30 541 C 44.3111 -1.26748 -5.15857 0
M  V30 542 C 43.3501 -2.38888 -5.63559 0
M  V30 543 N 42.4871 -1.93308 -6.74964 0
M  V30 544 H 47.3271 -1.93099 -2.26973 0
M  V30 545 H 44.8641 -0.962114 -1.11273 0
M  V30 546 H 46.8221 -0.324801 -4.15934 0
M  V30 547 H 45.4521 0.312845 -3.2128 0
M  V30 548 H 44.5041 -2.10669 -3.16738 0
M  V30 549 H 45.8161 -2.57704 -4.27071 0
M  V30 550 H 44.9701 -0.966173 -5.98957 0
M  V30 551 H 43.7091 -0.394272 -4.86104 0
M  V30 552 H 42.7141 -2.69805 -4.79046 0
M  V30 553 H 43.9391 -3.26728 -5.95336 0
M  V30 554 H 41.8851 -1.08352 -6.4699 0
M  V30 555 H 41.8021 -2.71217 -7.05675 0
M  V30 556 H 43.0701 -1.66252 -7.61564 0
M  V30 557 N 47.2992 1.18797 -1.03562 0
M  V30 558 C 48.2292 2.24472 -0.643019 0
M  V30 559 C 49.2102 1.66433 0.351283 0
M  V30 560 O 50.3952 1.92803 0.232505 0
M  V30 561 C 47.5252 3.473 4.24935e-05 0
M  V30 562 C 46.4792 4.18055 -0.917257 0
M  V30 563 C 45.8052 5.34519 -0.138941 0
M  V30 564 C 47.1052 4.72109 -2.23407 0
M  V30 565 H 48.7992 2.57566 -1.52643 0
M  V30 566 H 46.3452 1.23806 -0.735394 0
M  V30 567 H 48.2982 4.20426 0.286383 0
M  V30 568 H 47.0222 3.13424 0.918299 0
M  V30 569 H 45.6812 3.46821 -1.1879 0
M  V30 570 H 45.3292 4.96891 0.781562 0
M  V30 571 H 45.0292 5.82794 -0.750005 0
M  V30 572 H 46.5532 6.10438 0.1405 0
M  V30 573 H 47.9672 5.36955 -2.00879 0
M  V30 574 H 46.3642 5.30897 -2.79765 0
M  V30 575 H 47.4342 3.89807 -2.88407 0
M  V30 576 N 48.7773 0.814389 1.34928 0
M  V30 577 C 50.0233 0.399013 1.98836 0
M  V30 578 C 50.3563 -1.03314 1.64438 0
M  V30 579 O 49.6313 -1.71811 0.911659 0
M  V30 580 C 49.9143 0.591629 3.55207 0
M  V30 581 C 49.7673 2.06928 3.99376 0
M  V30 582 C 51.0863 0.022199 4.40094 0
M  V30 583 H 48.2053 0.146451 0.722303 0
M  V30 584 H 50.8473 1.02537 1.59957 0
M  V30 585 H 48.9973 0.0584441 3.88456 0
M  V30 586 H 50.6693 2.66544 3.76499 0
M  V30 587 H 48.9123 2.56287 3.49999 0
M  V30 588 H 49.5833 2.1549 5.08201 0
M  V30 589 H 52.0593 0.477643 4.13349 0
M  V30 590 H 50.9353 0.186832 5.48582 0
M  V30 591 H 51.1963 -1.07215 4.28902 0
M  V30 592 N 50.2554 -1.46986 0.568584 0
M  V30 593 C 51.2184 -2.28624 -0.162366 0
M  V30 594 C 52.2184 -1.37596 -0.832103 0
M  V30 595 O 53.4084 -1.60115 -0.68622 0
M  V30 596 C 50.5404 -3.17596 -1.23878 0
M  V30 597 H 51.7334 -2.94722 0.554899 0
M  V30 598 H 49.2864 -1.52863 0.325976 0
M  V30 599 H 50.0214 -2.56214 -1.98808 0
M  V30 600 H 49.8064 -3.846 -0.763219 0
M  V30 601 H 51.2964 -3.79078 -1.75185 0
M  V30 602 N 51.7335 -0.305618 -1.54608 0
M  V30 603 C 52.9805 0.302298 -2.00231 0
M  V30 604 C 53.3085 1.5354 -1.19398 0
M  V30 605 O 52.5635 1.93973 -0.259423 0
M  V30 606 C 52.8625 0.698983 -3.50498 0
M  V30 607 C 52.5285 -0.432903 -4.48817 0
M  V30 608 C 51.1905 -0.743622 -4.75419 0
M  V30 609 C 53.5425 -1.19409 -5.07337 0
M  V30 610 C 50.8705 -1.81857 -5.57804 0
M  V30 611 C 53.2225 -2.25899 -5.90891 0
M  V30 612 C 51.8865 -2.57572 -6.15803 0
M  V30 613 H 51.1565 0.110619 -0.732697 0
M  V30 614 H 53.8035 -0.425674 -1.86709 0
M  V30 615 H 52.1085 1.50711 -3.61654 0
M  V30 616 H 53.8055 1.1806 -3.83227 0
M  V30 617 H 50.3955 -0.18063 -4.28219 0
M  V30 618 H 54.5795 -0.967295 -4.86782 0
M  V30 619 H 49.8355 -2.06864 -5.75341 0
M  V30 620 H 54.0095 -2.85335 -6.35261 0
M  V30 621 H 51.6365 -3.40998 -6.7943 0
M  V30 622 N 53.2116 1.57565 -0.0334293 0
M  V30 623 C 54.1416 2.13511 0.945265 0
M  V30 624 C 55.1226 1.05231 1.33643 0
M  V30 625 O 56.3076 1.33084 1.41429 0
M  V30 626 C 53.4376 2.6657 2.22616 0
M  V30 627 C 52.3916 3.79676 1.97561 0
M  V30 628 C 51.7176 4.1918 3.31952 0
M  V30 629 C 53.0176 5.0557 1.31135 0
M  V30 630 H 54.7116 2.95538 0.479325 0
M  V30 631 H 52.2576 1.42166 0.229115 0
M  V30 632 H 54.2106 3.04344 2.91466 0
M  V30 633 H 52.9346 1.8171 2.71384 0
M  V30 634 H 51.5936 3.42347 1.31127 0
M  V30 635 H 51.2416 3.31296 3.78487 0
M  V30 636 H 50.9416 4.95402 3.15992 0
M  V30 637 H 52.4656 4.59541 4.02063 0
M  V30 638 H 53.8796 5.40903 1.89992 0
M  V30 639 H 52.2766 5.86818 1.25559 0
M  V30 640 H 53.3466 4.84062 0.284894 0
M  V30 641 N 54.6897 -0.239769 1.55765 0
M  V30 642 C 55.9177 -0.98417 1.81994 0
M  V30 643 C 56.3327 -1.7867 0.610124 0
M  V30 644 O 55.6897 -1.77571 -0.421271 0
M  V30 645 C 55.7407 -1.91635 3.06526 0
M  V30 646 O 55.4617 -1.14629 4.22838 0
M  V30 647 C 56.9627 -2.77616 3.45607 0
M  V30 648 H 54.1827 -0.28928 0.605441 0
M  V30 649 H 56.7267 -0.260499 2.02834 0
M  V30 650 H 54.8817 -2.5942 2.87715 0
M  V30 651 H 55.2957 -1.77745 4.93464 0
M  V30 652 H 56.7697 -3.38759 4.35828 0
M  V30 653 H 57.2467 -3.4909 2.6652 0
M  V30 654 H 57.8527 -2.15271 3.66795 0
M  V30 655 N 56.1678 -1.49265 -0.50573 0
M  V30 656 C 57.5788 -1.51769 -1.08734 0
M  V30 657 C 57.9298 -0.301192 -1.93874 0
M  V30 658 O 57.0548 0.589456 -2.08217 0
M  V30 659 C 57.6498 -2.75017 -1.97867 0
M  V30 660 C 56.2088 -2.80314 -2.51199 0
M  V30 661 C 55.3558 -2.4562 -1.28709 0
M  V30 662 H 58.3068 -1.56031 -0.289855 0
M  V30 663 H 58.3278 -2.5491 -2.82491 0
M  V30 664 H 57.8398 -3.63539 -1.35873 0
M  V30 665 H 55.9408 -1.96061 -3.16845 0
M  V30 666 H 56.0538 -3.82366 -2.88675 0
M  V30 667 H 54.4178 -1.97297 -1.61078 0
M  V30 668 H 55.2008 -3.36411 -0.6843 0
M  V30 669 N 57.6459 0.756429 -1.3826 0
M  V30 670 C 58.5929 1.87011 -1.35261 0
M  V30 671 C 59.5629 1.64695 -0.215616 0
M  V30 672 O 60.7479 1.864 -0.407399 0
M  V30 673 C 57.8879 3.24275 -1.18068 0
M  V30 674 C 57.0009 3.58442 -2.41129 0
M  V30 675 C 56.1359 4.84994 -2.16689 0
M  V30 676 C 55.1749 5.11939 -3.35537 0
M  V30 677 N 54.3119 6.29685 -3.10549 0
M  V30 678 H 59.1519 1.8891 -2.30472 0
M  V30 679 H 56.6889 0.923373 -1.14509 0
M  V30 680 H 58.6469 4.03479 -1.06116 0
M  V30 681 H 57.2769 3.21711 -0.264973 0
M  V30 682 H 56.3289 2.74103 -2.63764 0
M  V30 683 H 57.6409 3.74283 -3.29717 0
M  V30 684 H 56.7949 5.72135 -2.01857 0
M  V30 685 H 55.5339 4.71286 -1.25462 0
M  V30 686 H 54.5389 4.23268 -3.50891 0
M  V30 687 H 55.7639 5.27546 -4.27635 0
M  V30 688 H 53.7099 6.17306 -2.21967 0
M  V30 689 H 53.6269 6.46014 -3.92686 0
M  V30 690 H 54.8949 7.19722 -2.99367 0
M  V30 691 N 59.124 1.23083 0.984299 0
M  V30 692 C 60.535 1.05609 1.5396 0
M  V30 693 C 60.886 -0.377793 1.92528 0
M  V30 694 O 60.011 -1.26398 1.75649 0
M  V30 695 C 60.606 1.91087 2.7977 0
M  V30 696 C 59.165 1.77885 3.31713 0
M  V30 697 C 58.312 1.87028 2.04733 0
M  V30 698 H 61.263 1.36802 0.804419 0
M  V30 699 H 61.284 1.43336 3.5247 0
M  V30 700 H 60.796 2.9544 2.51668 0
M  V30 701 H 58.897 0.762995 3.64704 0
M  V30 702 H 59.01 2.61047 4.01735 0
M  V30 703 H 57.374 1.30565 2.18689 0
M  V30 704 H 58.157 2.92929 1.79017 0
M  V30 705 N 60.6021 -1.18246 1.0419 0
M  V30 706 C 61.8421 -1.89948 0.754916 0
M  V30 707 C 62.2061 -1.78608 -0.70451 0
M  V30 708 O 63.4071 -2.4503 -1.10516 0
M  V30 709 C 61.6781 -3.36305 1.20969 0
M  V30 710 S 63.2371 -4.26088 1.04854 0
M  V30 711 H 60.0551 -0.655897 0.274446 0
M  V30 712 H 62.6571 -1.42873 1.33445 0
M  V30 713 H 61.3611 -3.42089 2.26722 0
M  V30 714 H 60.8921 -3.8842 0.624004 0
M  V30 715 H 62.9071 -4.96189 -0.0332896 0
M  V30 716 N 62.0802 -0.821533 -1.34494 0
M  V30 717 C 63.3292 -0.405355 -1.97585 0
M  V30 718 C 63.6422 1.03677 -1.65863 0
M  V30 719 O 64.8482 1.55679 -2.22433 0
M  V30 720 C 63.3042 -0.673861 -3.53535 0
M  V30 721 C 62.9122 -2.12951 -3.94152 0
M  V30 722 C 64.6562 -0.32378 -4.23263 0
M  V30 723 C 62.5632 -2.34298 -5.43009 0
M  V30 724 H 61.4932 -0.147836 -0.739365 0
M  V30 725 H 64.1442 -1.00769 -1.53355 0
M  V30 726 H 62.5262 -0.00137554 -3.96 0
M  V30 727 H 63.7002 -2.84104 -3.62797 0
M  V30 728 H 62.0152 -2.44089 -3.37356 0
M  V30 729 H 64.6122 -0.461126 -5.32708 0
M  V30 730 H 64.9552 0.731586 -4.09821 0
M  V30 731 H 65.4882 -0.950786 -3.8627 0
M  V30 732 H 62.2272 -3.38335 -5.61435 0
M  V30 733 H 61.7472 -1.67687 -5.75883 0
M  V30 734 H 63.4262 -2.16588 -6.09671 0
M  V30 735 N 63.5583 1.46682 -0.576371 0
M  V30 736 C 64.5053 2.30241 0.160499 0
M  V30 737 C 65.4753 1.40233 0.890162 0
M  V30 738 O 66.6603 1.69186 0.882084 0
M  V30 739 C 63.8003 3.24578 1.1723 0
M  V30 740 C 62.9133 4.29684 0.446736 0
M  V30 741 C 62.0483 5.11154 1.44551 0
M  V30 742 C 61.0873 6.08015 0.70599 0
M  V30 743 N 60.2243 6.82376 1.65251 0
M  V30 744 H 65.0643 2.92727 -0.558127 0
M  V30 745 H 62.6013 1.44272 -0.287056 0
M  V30 746 H 64.5593 3.77711 1.77172 0
M  V30 747 H 63.1893 2.63916 1.85872 0
M  V30 748 H 62.2413 3.79458 -0.267594 0
M  V30 749 H 63.5533 4.98626 -0.131686 0
M  V30 750 H 62.7073 5.68533 2.11791 0
M  V30 751 H 61.4463 4.42158 2.05786 0
M  V30 752 H 60.4513 5.49796 0.0197725 0
M  V30 753 H 61.6763 6.79028 0.09912 0
M  V30 754 H 59.6223 6.16094 2.25308 0
M  V30 755 H 59.5393 7.47556 1.12673 0
M  V30 756 H 60.8073 7.44316 2.31546 0
M  V30 757 N 65.0364 0.313813 1.54444 0
M  V30 758 C 66.2644 -0.293918 2.04802 0
M  V30 759 C 66.6794 -1.46537 1.19047 0
M  V30 760 O 66.0364 -1.81182 0.218939 0
M  V30 761 C 66.0874 -0.737806 3.53891 0
M  V30 762 O 65.8084 0.387038 4.36387 0
M  V30 763 C 67.3094 -1.40936 4.203 0
M  V30 764 H 64.5294 -0.0620057 0.668129 0
M  V30 765 H 67.0734 0.457169 1.99324 0
M  V30 766 H 65.2284 -1.43889 3.59687 0
M  V30 767 H 65.6424 0.0391274 5.24485 0
M  V30 768 H 67.1164 -1.67099 5.26101 0
M  V30 769 H 67.5934 -2.35355 3.70816 0
M  V30 770 H 68.1994 -0.751117 4.18615 0
M  V30 771 N 66.5145 -1.57545 0.0417849 0
M  V30 772 C 67.7635 -1.91494 -0.633492 0
M  V30 773 C 68.0765 -0.921084 -1.72556 0
M  V30 774 O 69.2825 -1.15228 -2.45835 0
M  V30 775 C 67.7385 -3.40072 -1.17808 0
M  V30 776 C 67.3465 -4.47843 -0.118633 0
M  V30 777 C 69.0905 -3.8307 -1.82915 0
M  V30 778 C 66.9975 -5.87529 -0.675578 0
M  V30 779 H 65.9275 -0.714653 -0.24039 0
M  V30 780 H 68.5785 -1.83175 0.109148 0
M  V30 781 H 66.9605 -3.43364 -1.97274 0
M  V30 782 H 68.1345 -4.56128 0.654494 0
M  V30 783 H 66.4495 -4.14128 0.434414 0
M  V30 784 H 69.0465 -4.84794 -2.25563 0
M  V30 785 H 69.3895 -3.1881 -2.67705 0
M  V30 786 H 69.9225 -3.82255 -1.10119 0
M  V30 787 H 66.6615 -6.55362 0.134475 0
M  V30 788 H 66.1815 -5.82824 -1.4169 0
M  V30 789 H 67.8605 -6.36491 -1.1614 0
M  V30 790 N 67.9926 0.231505 -1.5589 0
M  V30 791 C 68.9556 1.27028 -1.90779 0
M  V30 792 C 69.9556 1.40308 -0.785507 0
M  V30 793 O 71.1456 1.38744 -1.05336 0
M  V30 794 C 68.2776 2.64566 -2.14983 0
M  V30 795 H 69.4706 0.973017 -2.83677 0
M  V30 796 H 67.0236 0.471486 -1.49019 0
M  V30 797 H 67.7586 2.99406 -1.24604 0
M  V30 798 H 67.5436 2.56305 -2.96732 0
M  V30 799 H 69.0336 3.39543 -2.43105 0
M  V30 800 N 69.4707 1.49531 0.497807 0
M  V30 801 C 70.4007 1.6935 1.60757 0
M  V30 802 C 71.3817 0.542218 1.61227 0
M  V30 803 O 72.5667 0.778417 1.77917 0
M  V30 804 C 69.6967 1.76298 2.99226 0
M  V30 805 C 68.6507 2.91248 3.13622 0
M  V30 806 C 67.9767 2.83312 4.53474 0
M  V30 807 C 69.2767 4.3214 2.93346 0
M  V30 808 H 70.9707 2.62263 1.44425 0
M  V30 809 H 68.5167 1.26208 0.693367 0
M  V30 810 H 70.4697 1.88749 3.76765 0
M  V30 811 H 69.1937 0.799871 3.16654 0
M  V30 812 H 67.8527 2.78404 2.38509 0
M  V30 813 H 67.5007 1.84902 4.67782 0
M  V30 814 H 67.2007 3.60465 4.64046 0
M  V30 815 H 68.7247 2.97775 5.33069 0
M  V30 816 H 70.1387 4.45649 3.60652 0
M  V30 817 H 68.5357 5.1054 3.15387 0
M  V30 818 H 69.6057 4.46363 1.89441 0
M  V30 819 N 70.9488 -0.749086 1.3866 0
M  V30 820 C 72.1788 -1.53611 1.38157 0
M  V30 821 C 72.5868 -1.89177 -0.0293595 0
M  V30 822 O 71.9298 -1.53606 -1.00752 0
M  V30 823 C 71.9918 -2.86087 2.17702 0
M  V30 824 C 71.6558 -2.73034 3.66472 0
M  V30 825 C 72.6528 -2.42526 4.59866 0
M  V30 826 C 70.3378 -2.90345 4.09884 0
M  V30 827 C 72.3318 -2.29492 5.94653 0
M  V30 828 C 70.0188 -2.7693 5.4475 0
M  V30 829 C 71.0168 -2.46547 6.36949 0
M  V30 830 O 70.7048 -2.33199 7.69333 0
M  V30 831 H 70.4368 -0.481773 0.474205 0
M  V30 832 H 72.9908 -0.934465 1.82912 0
M  V30 833 H 71.2208 -3.48458 1.67672 0
M  V30 834 H 72.9098 -3.47625 2.09551 0
M  V30 835 H 73.6758 -2.28816 4.27631 0
M  V30 836 H 69.5548 -3.1299 3.38464 0
M  V30 837 H 73.0988 -2.05698 6.66584 0
M  V30 838 H 68.9958 -2.90215 5.76581 0
M  V30 839 H 69.7638 -2.48376 7.79905 0
M  V30 840 N 72.4269 -1.23603 -0.977757 0
M  V30 841 C 73.3369 -1.03632 -2.1047 0
M  V30 842 C 74.3529 0.0199435 -1.73989 0
M  V30 843 O 75.5289 -0.176076 -2.00629 0
M  V30 844 C 72.5939 -0.63276 -3.40877 0
M  V30 845 C 71.6549 -1.76437 -3.91367 0
M  V30 846 C 70.8879 -1.37997 -5.15551 0
M  V30 847 O 71.1109 -0.265357 -5.69782 0
M  V30 848 O 70.0449 -2.20201 -5.60174 0
M  V30 849 H 73.8709 -1.98086 -2.30208 0
M  V30 850 H 71.4559 -1.02332 -1.08851 0
M  V30 851 H 73.3379 -0.418761 -4.19314 0
M  V30 852 H 72.0129 0.282754 -3.22463 0
M  V30 853 H 70.9199 -2.03304 -3.14036 0
M  V30 854 H 72.2529 -2.6583 -4.14241 0
M  V30 855 N 73.905 1.17692 -1.04816 0
M  V30 856 C 75.316 1.69501 -0.782698 0
M  V30 857 C 75.667 1.83456 0.695577 0
M  V30 858 O 74.792 1.51942 1.54086 0
M  V30 859 C 75.387 3.07874 -1.41419 0
M  V30 860 C 73.946 3.56864 -1.19686 0
M  V30 861 C 73.093 2.3322 -1.50012 0
M  V30 862 H 76.044 1.02262 -1.2136 0
M  V30 863 H 76.065 3.71528 -0.821428 0
M  V30 864 H 75.577 2.97685 -2.49009 0
M  V30 865 H 73.678 3.72337 -0.140043 0
M  V30 866 H 73.791 4.39851 -1.89916 0
M  V30 867 H 72.155 2.37501 -0.920071 0
M  V30 868 H 72.938 2.25644 -2.58727 0
M  V30 869 N 75.3831 0.828654 1.34056 0
M  V30 870 C 76.6321 0.415828 1.97367 0
M  V30 871 C 76.9451 -1.02796 1.6641 0
M  V30 872 O 78.1511 -1.54497 2.23255 0
M  V30 873 C 76.6071 0.692601 3.53173 0
M  V30 874 C 76.2151 2.15038 3.93017 0
M  V30 875 C 77.9591 0.346222 4.23086 0
M  V30 876 C 75.8661 2.37174 5.41758 0
M  V30 877 H 74.7961 0.151755 0.738571 0
M  V30 878 H 77.4471 1.01581 1.52819 0
M  V30 879 H 75.8291 0.0223764 3.95994 0
M  V30 880 H 77.0031 2.86024 3.61285 0
M  V30 881 H 75.3181 2.45875 3.36057 0
M  V30 882 H 77.9151 0.48937 5.32456 0
M  V30 883 H 78.2581 -0.709842 4.10204 0
M  V30 884 H 78.7911 0.971258 3.85761 0
M  V30 885 H 75.5301 3.41308 5.59633 0
M  V30 886 H 75.0501 1.70738 5.74986 0
M  V30 887 H 76.7291 2.19818 6.08514 0
M  V30 888 N 76.8612 -1.46375 0.584142 0
M  V30 889 C 77.8082 -2.30323 -0.148286 0
M  V30 890 C 78.7782 -1.40703 -0.882713 0
M  V30 891 O 79.9632 -1.69651 -0.873099 0
M  V30 892 C 77.1032 -3.25196 -1.15507 0
M  V30 893 C 76.2162 -4.29915 -0.423943 0
M  V30 894 C 75.3512 -5.11914 -1.41838 0
M  V30 895 C 74.3902 -6.08381 -0.673736 0
M  V30 896 N 73.5272 -6.83242 -1.6163 0
M  V30 897 H 78.3672 -2.92427 0.573644 0
M  V30 898 H 75.9042 -1.44118 0.294703 0
M  V30 899 H 77.8622 -3.78646 -1.75166 0
M  V30 900 H 76.4922 -2.64898 -1.8447 0
M  V30 901 H 75.5442 -3.7931 0.287714 0
M  V30 902 H 76.8562 -4.98549 0.158128 0
M  V30 903 H 76.0102 -5.69648 -2.08773 0
M  V30 904 H 74.7492 -4.43243 -2.03438 0
M  V30 905 H 73.7542 -5.49799 0.00938483 0
M  V30 906 H 74.9792 -6.79071 -0.0631082 0
M  V30 907 H 72.9252 -6.1728 -2.22038 0
M  V30 908 H 72.8422 -7.48144 -1.08707 0
M  V30 909 H 74.1102 -7.45534 -2.27596 0
M  V30 910 N 78.3393 -0.321999 -1.54275 0
M  V30 911 C 79.2873 0.560206 -2.25753 0
M  V30 912 C 80.2813 1.11984 -1.27106 0
M  V30 913 O 81.4873 1.06806 -1.44888 0
M  V30 914 H 77.8623 0.199304 -0.725108 0
M  V30 915 H 79.8333 -0.0649365 -2.98329 0
M  V30 916 C 78.5823 1.71023 -3.02731 0
M  V30 917 H 77.9053 1.28885 -3.78456 0
M  V30 918 H 79.3453 2.30314 -3.55993 0
M  V30 919 C 77.8043 2.62692 -2.10938 0
M  V30 920 O 78.3343 3.64364 -1.6912 0
M  V30 921 N 76.5403 2.30891 -1.76459 0
M  V30 922 H 76.0873 1.48253 -2.10663 0
M  V30 923 H 76.0453 2.92487 -1.1532 0
M  V30 924 N 79.8174 1.5752 -0.0501392 0
M  V30 925 C 80.7274 2.14952 0.939827 0
M  V30 926 C 81.7434 1.10706 1.34239 0
M  V30 927 O 82.9194 1.42869 1.41952 0
M  V30 928 C 79.9844 2.68232 2.19665 0
M  V30 929 C 79.0454 3.87272 1.85253 0
M  V30 930 C 78.2784 4.38002 3.04943 0
M  V30 931 O 78.5014 3.87811 4.18281 0
M  V30 932 O 77.4354 5.29602 2.86017 0
M  V30 933 H 81.2614 2.9986 0.481392 0
M  V30 934 H 78.8464 1.4841 0.171699 0
M  V30 935 H 80.7284 3.02475 2.93406 0
M  V30 936 H 79.4034 1.86395 2.64648 0
M  V30 937 H 78.3104 3.5792 1.0883 0
M  V30 938 H 79.6434 4.70336 1.4507 0
M  V30 939 N 81.2955 -0.223234 1.56011 0
M  V30 940 C 82.5415 -0.949279 1.79211 0
M  V30 941 C 82.8745 -1.84054 0.619494 0
M  V30 942 O 82.1495 -1.90726 -0.381317 0
M  V30 943 C 82.4325 -1.78965 3.12479 0
M  V30 944 C 82.2855 -0.924997 4.40186 0
M  V30 945 C 83.6045 -2.76774 3.42175 0
M  V30 946 H 80.7235 -0.343676 0.651963 0
M  V30 947 H 83.3655 -0.218253 1.88742 0
M  V30 948 H 81.5155 -2.41291 3.04485 0
M  V30 949 H 83.1875 -0.318615 4.60198 0
M  V30 950 H 81.4305 -0.230344 4.33188 0
M  V30 951 H 82.1015 -1.54735 5.29869 0
M  V30 952 H 84.5775 -2.24584 3.50287 0
M  V30 953 H 83.4535 -3.32678 4.36597 0
M  V30 954 H 83.7145 -3.54429 2.64258 0
M  V30 955 N 82.7736 -1.49793 -0.48987 0
M  V30 956 C 84.0016 -1.63568 -1.26701 0
M  V30 957 C 84.4166 -0.311465 -1.86213 0
M  V30 958 O 83.7736 0.704416 -1.68357 0
M  V30 959 C 83.8246 -2.71284 -2.38929 0
M  V30 960 O 83.5456 -3.9857 -1.81861 0
M  V30 961 C 85.0466 -2.95864 -3.3012 0
M  V30 962 H 82.2666 -0.550342 -0.383881 0
M  V30 963 H 84.8106 -1.95898 -0.586864 0
M  V30 964 H 82.9656 -2.417 -3.02753 0
M  V30 965 H 83.3796 -4.57993 -2.55622 0
M  V30 966 H 84.8536 -3.74941 -4.05121 0
M  V30 967 H 85.3306 -2.06206 -3.87783 0
M  V30 968 H 85.9366 -3.26907 -2.72051 0
M  V30 969 N 84.2517 0.741722 -1.39055 0
M  V30 970 C 85.4987 1.50114 -1.35912 0
M  V30 971 C 85.8267 1.94443 0.0470937 0
M  V30 972 O 85.0817 1.66612 1.02659 0
M  V30 973 C 85.3807 2.7592 -2.27163 0
M  V30 974 C 85.0467 2.50493 -3.74919 0
M  V30 975 C 83.7087 2.43267 -4.1518 0
M  V30 976 C 86.0607 2.28585 -4.684 0
M  V30 977 C 83.3887 2.12166 -5.46994 0
M  V30 978 C 85.7407 1.99002 -6.00484 0
M  V30 979 C 84.4047 1.90241 -6.39816 0
M  V30 980 H 83.6747 0.549306 -0.497336 0
M  V30 981 H 86.3217 0.851896 -1.71508 0
M  V30 982 H 84.6267 3.45553 -1.84663 0
M  V30 983 H 86.3237 3.33923 -2.22028 0
M  V30 984 H 82.9137 2.56992 -3.43006 0
M  V30 985 H 87.0977 2.33139 -4.38132 0
M  V30 986 H 82.3537 2.03901 -5.76398 0
M  V30 987 H 86.5277 1.81057 -6.72452 0
M  V30 988 H 84.1547 1.65907 -7.41875 0
M  V30 989 N 85.7298 1.2412 0.971189 0
M  V30 990 C 86.9758 1.08041 1.71625 0
M  V30 991 C 87.3088 -0.380407 1.90438 0
M  V30 992 O 86.5838 -1.28127 1.46334 0
M  V30 993 C 86.8668 1.81682 3.10908 0
M  V30 994 C 86.7198 3.35493 2.99608 0
M  V30 995 C 88.0388 1.58671 4.10501 0
M  V30 996 H 85.1578 0.39388 0.622919 0
M  V30 997 H 87.7998 1.52743 1.13003 0
M  V30 998 H 85.9498 1.43684 3.60953 0
M  V30 999 H 87.6218 3.83068 2.57015 0
M  V30 1000 H 85.8648 3.64052 2.35899 0
M  V30 1001 H 86.5358 3.82217 3.98264 0
M  V30 1002 H 89.0118 1.91719 3.69301 0
M  V30 1003 H 87.8878 2.1266 5.06031 0
M  V30 1004 H 88.1488 0.524161 4.38982 0
M  V30 1005 N 87.2079 -1.17134 1.05439 0
M  V30 1006 C 88.4849 -1.83411 0.679699 0
M  V30 1007 C 88.8649 -1.9368 -0.839726 0
M  V30 1008 O 88.2129 -1.47325 -1.74664 0
M  V30 1009 C 88.4229 -3.20918 1.37159 0
M  V30 1010 C 89.7709 -3.96796 1.51123 0
M  V30 1011 O 90.7949 -3.30406 1.3308 0
M  V30 1012 O 89.6539 -5.15778 1.80651 0
M  V30 1013 H 86.7479 -0.79154 0.239569 0
M  V30 1014 H 89.2939 -1.24411 1.15413 0
M  V30 1015 H 88.0659 -3.08428 2.40807 0
M  V30 1016 H 87.6889 -3.87587 0.886674 0
M  V30 1017 N 88.686 -0.835752 -1.33615 0
M  V30 1018 C 89.933 -0.429959 -1.97883 0
M  V30 1019 C 90.261 1.01006 -1.66217 0
M  V30 1020 O 89.516 1.72047 -0.93265 0
M  V30 1021 C 89.815 -0.593925 -3.52431 0
M  V30 1022 C 89.481 -2.00158 -4.04039 0
M  V30 1023 C 88.143 -2.38662 -4.17844 0
M  V30 1024 C 90.495 -2.92117 -4.31644 0
M  V30 1025 C 87.823 -3.68435 -4.56588 0
M  V30 1026 C 90.175 -4.21368 -4.71838 0
M  V30 1027 C 88.839 -4.59833 -4.83849 0
M  V30 1028 H 88.109 -0.157333 -0.724104 0
M  V30 1029 H 90.756 -1.06217 -1.59343 0
M  V30 1030 H 89.061 0.121619 -3.91611 0
M  V30 1031 H 90.758 -0.260282 -4.00154 0
M  V30 1032 H 87.348 -1.69252 -3.93766 0
M  V30 1033 H 91.532 -2.63608 -4.20505 0
M  V30 1034 H 86.788 -3.98046 -4.64079 0
M  V30 1035 H 90.962 -4.92703 -4.92155 0
M  V30 1036 H 88.589 -5.60438 -5.13627 0
M  V30 1037 N 90.1641 1.46063 -0.591896 0
M  V30 1038 C 91.4111 2.02338 -0.0809991 0
M  V30 1039 C 91.7391 1.46228 1.28249 0
M  V30 1040 O 90.9941 0.620818 1.85592 0
M  V30 1041 C 91.2931 3.57391 0.0249813 0
M  V30 1042 C 90.9591 4.32583 -1.27211 0
M  V30 1043 C 89.6211 4.52844 -1.62745 0
M  V30 1044 C 91.9731 4.75687 -2.13005 0
M  V30 1045 C 89.3011 5.13462 -2.83855 0
M  V30 1046 C 91.6531 5.37644 -3.3335 0
M  V30 1047 C 90.3171 5.5613 -3.69155 0
M  V30 1048 H 89.5871 0.740407 -0.0296397 0
M  V30 1049 H 92.2341 1.75321 -0.770374 0
M  V30 1050 H 90.5391 3.83597 0.797537 0
M  V30 1051 H 92.2361 3.98621 0.436184 0
M  V30 1052 H 88.8261 4.17116 -0.985499 0
M  V30 1053 H 93.0101 4.59782 -1.86855 0
M  V30 1054 H 88.2661 5.25965 -3.11722 0
M  V30 1055 H 92.4401 5.7 -4.00092 0
M  V30 1056 H 90.0671 6.0287 -4.63089 0
M  V30 1057 N 91.6422 0.330177 1.54103 0
M  V30 1058 C 92.8892 -0.270405 2.00686 0
M  V30 1059 C 93.2172 -1.51621 1.21825 0
M  V30 1060 O 92.4722 -1.93536 0.29025 0
M  V30 1061 C 92.7712 -0.643134 3.51566 0
M  V30 1062 C 92.4372 0.504251 4.48072 0
M  V30 1063 C 91.0992 0.819163 4.74176 0
M  V30 1064 C 93.4512 1.27465 5.05373 0
M  V30 1065 C 90.7792 1.90708 5.5484 0
M  V30 1066 C 93.1312 2.35271 5.87223 0
M  V30 1067 C 91.7952 2.67336 6.11627 0
M  V30 1068 H 91.0652 -0.0989482 0.734364 0
M  V30 1069 H 93.7122 0.455324 1.86008 0
M  V30 1070 H 92.0172 -1.44938 3.64006 0
M  V30 1071 H 93.7142 -1.11949 3.85056 0
M  V30 1072 H 90.3042 0.248733 4.27878 0
M  V30 1073 H 94.4882 1.04462 4.85182 0
M  V30 1074 H 89.7442 2.15991 5.71977 0
M  V30 1075 H 93.9182 2.95405 6.30641 0
M  V30 1076 H 91.5452 3.51763 6.73919 0
M  V30 1077 N 93.1203 -1.57491 0.0584922 0
M  V30 1078 C 94.0303 -2.15448 -0.928414 0
M  V30 1079 C 95.0463 -1.11416 -1.3365 0
M  V30 1080 O 96.2223 -1.4362 -1.41193 0
M  V30 1081 C 93.2873 -2.69393 -2.18239 0
M  V30 1082 C 92.3483 -3.88249 -1.83196 0
M  V30 1083 C 91.5813 -4.39613 -3.02616 0
M  V30 1084 O 91.8043 -3.90023 -4.16219 0
M  V30 1085 O 90.7383 -5.31111 -2.83204 0
M  V30 1086 H 94.5643 -3.00112 -0.465483 0
M  V30 1087 H 92.1493 -1.48499 -0.163826 0
M  V30 1088 H 94.0313 -3.04026 -2.91798 0
M  V30 1089 H 92.7063 -1.87796 -2.63656 0
M  V30 1090 H 91.6133 -3.58492 -1.06931 0
M  V30 1091 H 92.9463 -4.71098 -1.42573 0
M  V30 1092 N 94.5984 0.214957 -1.56127 0
M  V30 1093 C 95.8454 0.938372 -1.79446 0
M  V30 1094 C 96.1734 1.8407 -0.628378 0
M  V30 1095 O 95.4284 1.91837 0.386925 0
M  V30 1096 C 95.7274 1.80314 -3.0858 0
M  V30 1097 C 95.3934 1.05349 -4.3842 0
M  V30 1098 C 94.0554 0.846435 -4.73697 0
M  V30 1099 C 96.4074 0.524588 -5.18553 0
M  V30 1100 C 93.7354 0.098683 -5.86617 0
M  V30 1101 C 96.0874 -0.209853 -6.32252 0
M  V30 1102 C 94.7514 -0.428102 -6.66126 0
M  V30 1103 H 94.0214 0.343375 -0.656639 0
M  V30 1104 H 96.6684 0.206077 -1.90388 0
M  V30 1105 H 94.9734 2.6035 -2.92789 0
M  V30 1106 H 96.6704 2.36513 -3.23825 0
M  V30 1107 H 93.2604 1.22486 -4.10725 0
M  V30 1108 H 97.4444 0.672008 -4.91729 0
M  V30 1109 H 92.7004 -0.0805753 -6.11347 0
M  V30 1110 H 96.8744 -0.627157 -6.9357 0
M  V30 1111 H 94.5014 -1.00944 -7.53468 0
M  V30 1112 N 96.0765 1.50051 0.48192 0
M  V30 1113 C 97.0065 1.71046 1.58951 0
M  V30 1114 C 97.9875 0.559288 1.60642 0
M  V30 1115 O 99.1725 0.797243 1.77081 0
M  V30 1116 C 96.3025 1.79462 2.97339 0
M  V30 1117 C 95.2565 2.94558 3.10515 0
M  V30 1118 C 94.5825 2.88105 4.50444 0
M  V30 1119 C 95.8825 4.35227 2.88747 0
M  V30 1120 H 97.5765 2.6378 1.41635 0
M  V30 1121 H 95.1225 1.26936 0.679942 0
M  V30 1122 H 97.0755 1.92734 3.74742 0
M  V30 1123 H 95.7995 0.833412 3.15788 0
M  V30 1124 H 94.4585 2.80918 2.35543 0
M  V30 1125 H 94.1065 1.89853 4.65795 0
M  V30 1126 H 93.8065 3.65366 4.60197 0
M  V30 1127 H 95.3305 3.03412 5.29881 0
M  V30 1128 H 96.7445 4.49449 3.55905 0
M  V30 1129 H 95.1415 5.13856 3.09955 0
M  V30 1130 H 96.2115 4.48347 1.84696 0
M  V30 1131 N 97.5546 -0.734337 1.39446 0
M  V30 1132 C 98.5016 -1.84835 1.38219 0
M  V30 1133 C 99.4716 -1.64331 0.24179 0
M  V30 1134 O 100.657 -1.85728 0.437002 0
M  V30 1135 C 97.7966 -3.22355 1.23212 0
M  V30 1136 C 96.9096 -3.5456 2.46801 0
M  V30 1137 C 96.0446 -4.81485 2.24377 0
M  V30 1138 C 95.0836 -5.06536 3.43639 0
M  V30 1139 N 94.2206 -6.24665 3.20528 0
M  V30 1140 H 99.0606 -1.85219 2.33448 0
M  V30 1141 H 96.5976 -0.905039 1.15963 0
M  V30 1142 H 98.5556 -4.0174 1.12522 0
M  V30 1143 H 97.1856 -3.21248 0.316121 0
M  V30 1144 H 96.2376 -2.69872 2.68092 0
M  V30 1145 H 97.5496 -3.6899 3.3563 0
M  V30 1146 H 96.7036 -5.68852 2.10933 0
M  V30 1147 H 95.4426 -4.6923 1.32944 0
M  V30 1148 H 94.4476 -4.17632 3.5758 0
M  V30 1149 H 95.6726 -5.20676 4.35974 0
M  V30 1150 H 93.6186 -6.13696 2.3176 0
M  V30 1151 H 93.5356 -6.39685 4.02913 0
M  V30 1152 H 94.8036 -7.14868 3.10779 0
M  V30 1153 N 99.0327 -1.24633 -0.964593 0
M  V30 1154 C 100.282 -1.08188 -1.7023 0
M  V30 1155 C 100.595 0.37873 -1.91898 0
M  V30 1156 O 101.801 0.663427 -2.6327 0
M  V30 1157 C 100.257 -1.88773 -3.06419 0
M  V30 1158 C 99.8647 -3.39263 -2.92582 0
M  V30 1159 C 101.609 -1.80867 -3.84041 0
M  V30 1160 C 99.5157 -4.1218 -4.24101 0
M  V30 1161 H 98.4457 -0.401245 -0.638372 0
M  V30 1162 H 101.097 -1.48742 -1.07462 0
M  V30 1163 H 99.4787 -1.41035 -3.70034 0
M  V30 1164 H 100.653 -3.94603 -2.37961 0
M  V30 1165 H 98.9677 -3.48154 -2.28424 0
M  V30 1166 H 101.565 -2.32646 -4.81435 0
M  V30 1167 H 101.908 -0.774543 -4.09031 0
M  V30 1168 H 102.441 -2.26301 -3.27159 0
M  V30 1169 H 99.1797 -5.15965 -4.04303 0
M  V30 1170 H 98.6997 -3.61626 -4.78526 0
M  V30 1171 H 100.379 -4.19349 -4.92702 0
M  V30 1172 N 100.511 1.16574 -1.06058 0
M  V30 1173 C 101.459 2.22941 -0.663343 0
M  V30 1174 C 102.453 1.66358 0.319593 0
M  V30 1175 O 103.659 1.7905 0.184713 0
M  V30 1176 H 100.034 0.725907 -0.196376 0
M  V30 1177 H 102.005 2.53736 -1.57037 0
M  V30 1178 C 100.754 3.47642 -0.0632808 0
M  V30 1179 H 100.077 3.91493 -0.810733 0
M  V30 1180 H 101.517 4.2363 0.177177 0
M  V30 1181 C 99.9758 3.1509 1.19248 0
M  V30 1182 O 100.506 3.30673 2.28075 0
M  V30 1183 N 98.7118 2.6924 1.09353 0
M  V30 1184 H 98.2588 2.5676 0.207912 0
M  V30 1185 H 98.2168 2.47833 1.93458 0
M  V30 1186 N 101.989 0.842826 1.3317 0
M  V30 1187 C 102.921 0.236245 2.27979 0
M  V30 1188 C 103.934 -0.585282 1.51915 0
M  V30 1189 O 105.123 -0.411705 1.73687 0
M  V30 1190 C 102.223 -0.685717 3.3189 0
M  V30 1191 C 101.396 0.0973448 4.37292 0
M  V30 1192 C 100.455 -0.748565 5.20848 0
M  V30 1193 O 99.4809 -0.186339 5.68895 0
M  V30 1194 N 100.683 -2.06527 5.42519 0
M  V30 1195 H 103.448 1.05088 2.80672 0
M  V30 1196 H 101.009 0.701667 1.45905 0
M  V30 1197 H 103.001 -1.25669 3.84694 0
M  V30 1198 H 101.571 -1.40105 2.79445 0
M  V30 1199 H 100.791 0.849706 3.84933 0
M  V30 1200 H 102.079 0.635643 5.04814 0
M  V30 1201 H 101.477 -2.54554 5.05192 0
M  V30 1202 H 100.034 -2.58464 5.98364 0
M  V30 1203 N 103.467 -1.45747 0.599634 0
M  V30 1204 C 104.716 -2.01502 0.0893511 0
M  V30 1205 C 105.029 -1.4748 -1.28488 0
M  V30 1206 O 106.235 -1.95161 -1.88745 0
M  V30 1207 C 104.691 -3.59735 0.109082 0
M  V30 1208 C 104.299 -4.22754 1.48267 0
M  V30 1209 C 106.043 -4.23085 -0.346374 0
M  V30 1210 C 103.95 -5.73115 1.45921 0
M  V30 1211 H 102.88 -0.753417 0.0296347 0
M  V30 1212 H 105.531 -1.67303 0.753788 0
M  V30 1213 H 103.913 -3.91087 -0.621854 0
M  V30 1214 H 105.087 -4.02987 2.23468 0
M  V30 1215 H 103.402 -3.71567 1.87955 0
M  V30 1216 H 105.999 -5.33327 -0.38298 0
M  V30 1217 H 106.342 -3.93201 -1.36743 0
M  V30 1218 H 106.875 -3.9642 0.331038 0
M  V30 1219 H 103.614 -6.07685 2.45762 0
M  V30 1220 H 103.134 -5.95097 0.749665 0
M  V30 1221 H 104.813 -6.3616 1.17941 0
M  V30 1222 N 104.945 -0.338344 -1.53925 0
M  V30 1223 C 106.361 0.0137736 -1.59594 0
M  V30 1224 C 106.561 1.49186 -1.35447 0
M  V30 1225 O 105.617 2.24987 -1.14616 0
M  V30 1226 C 106.93 -0.41773 -2.97784 0
M  V30 1227 C 108.478 -0.369633 -3.1081 0
M  V30 1228 C 108.953 -0.776524 -4.51369 0
M  V30 1229 N 110.444 -0.730506 -4.57403 0
M  V30 1230 C 111.179 -1.01736 -5.64303 0
M  V30 1231 N 110.675 -1.3721 -6.79077 0
M  V30 1232 N 112.468 -0.941942 -5.54151 0
M  V30 1233 H 104.619 -1.3012 -1.67876 0
M  V30 1234 H 106.882 -0.530082 -0.78595 0
M  V30 1235 H 106.588 -1.44811 -3.20504 0
M  V30 1236 H 106.462 0.209729 -3.76616 0
M  V30 1237 H 108.849 0.651568 -2.87817 0
M  V30 1238 H 108.93 -1.03223 -2.34049 0
M  V30 1239 H 108.574 -1.79571 -4.75096 0
M  V30 1240 H 108.504 -0.0914649 -5.26521 0
M  V30 1241 H 110.995 -0.468783 -3.74981 0
M  V30 1242 H 111.308 -1.57597 -7.5656 0
M  V30 1243 H 109.653 -1.4105 -6.80536 0
M  V30 1244 H 112.844 -0.664184 -4.63364 0
M  V30 1245 H 113.017 -1.16884 -6.37371 0
M  V30 1246 N 106.423 1.57458 -0.0668435 0
M  V30 1247 C 107.386 2.11323 0.887422 0
M  V30 1248 C 108.386 1.03618 1.22964 0
M  V30 1249 O 109.576 1.29626 1.16373 0
M  V30 1250 C 106.708 2.61048 2.19242 0
M  V30 1251 H 107.901 2.96942 0.420194 0
M  V30 1252 H 105.454 1.55239 0.181793 0
M  V30 1253 H 106.189 1.78868 2.70512 0
M  V30 1254 H 105.974 3.39769 1.95702 0
M  V30 1255 H 107.464 3.02814 2.87565 0
M  V30 1256 N 107.901 -0.206675 1.56239 0
M  V30 1257 C 109.147 -0.930218 1.80208 0
M  V30 1258 C 109.48 -1.83387 0.638981 0
M  V30 1259 O 108.755 -1.91119 -0.361066 0
M  V30 1260 C 109.038 -1.75641 3.1436 0
M  V30 1261 C 108.891 -0.878257 4.41142 0
M  V30 1262 C 110.21 -2.73129 3.45092 0
M  V30 1263 H 107.329 -0.336742 0.655571 0
M  V30 1264 H 109.971 -0.198222 1.88963 0
M  V30 1265 H 108.121 -2.38048 3.07027 0
M  V30 1266 H 109.793 -0.269787 4.6051 0
M  V30 1267 H 108.036 -0.184385 4.33408 0
M  V30 1268 H 108.707 -1.49106 5.3148 0
M  V30 1269 H 111.183 -2.20856 3.52649 0
M  V30 1270 H 110.059 -3.28028 4.40101 0
M  V30 1271 H 110.32 -3.51606 2.68003 0
M  V30 1272 N 109.379 -1.50304 -0.473955 0
M  V30 1273 C 110.609 -1.64663 -1.24778 0
M  V30 1274 C 111.017 -0.328174 -1.86332 0
M  V30 1275 O 110.36 0.699536 -1.69859 0
M  V30 1276 C 110.422 -2.6778 -2.39863 0
M  V30 1277 C 110.086 -4.11413 -1.98969 0
M  V30 1278 C 111.083 -4.97372 -1.51385 0
M  V30 1279 C 108.768 -4.57312 -2.07777 0
M  V30 1280 C 110.762 -6.27277 -1.13148 0
M  V30 1281 C 108.449 -5.87223 -1.69152 0
M  V30 1282 C 109.447 -6.72031 -1.21915 0
M  V30 1283 O 109.135 -7.99518 -0.838237 0
M  V30 1284 H 108.867 -0.556602 -0.383627 0
M  V30 1285 H 111.421 -1.9726 -0.572491 0
M  V30 1286 H 109.651 -2.30419 -3.10554 0
M  V30 1287 H 111.34 -2.71388 -3.01833 0
M  V30 1288 H 112.106 -4.63128 -1.44004 0
M  V30 1289 H 107.985 -3.91449 -2.43493 0
M  V30 1290 H 111.529 -6.93425 -0.762077 0
M  V30 1291 H 107.426 -6.20989 -1.76191 0
M  V30 1292 H 108.194 -8.12764 -0.967339 0
M  V30 1293 N 110.857 0.726932 -1.39834 0
M  V30 1294 C 112.268 1.30558 -1.3346 0
M  V30 1295 C 112.619 1.962 -0.00273003 0
M  V30 1296 O 111.744 1.96826 0.899371 0
M  V30 1297 C 112.339 2.37404 -2.41713 0
M  V30 1298 C 110.898 2.90921 -2.38835 0
M  V30 1299 C 110.045 1.64578 -2.2318 0
M  V30 1300 H 112.996 0.523862 -1.49804 0
M  V30 1301 H 113.017 3.17984 -2.08966 0
M  V30 1302 H 112.529 1.89599 -3.38635 0
M  V30 1303 H 110.63 3.42985 -1.45575 0
M  V30 1304 H 110.743 3.43487 -3.33997 0
M  V30 1305 H 109.107 1.89219 -1.70494 0
M  V30 1306 H 109.89 1.18814 -3.22084 0
M  V30 1307 N 112.336 1.25143 0.95797 0
M  V30 1308 C 113.283 1.05235 2.05412 0
M  V30 1309 C 114.253 -0.0374561 1.66058 0
M  V30 1310 O 115.438 0.119073 1.90428 0
M  V30 1311 C 112.578 0.673589 3.38462 0
M  V30 1312 C 111.691 1.8379 3.90954 0
M  V30 1313 C 110.826 1.40381 5.12315 0
M  V30 1314 C 109.865 2.53746 5.57027 0
M  V30 1315 N 109.002 2.11136 6.69601 0
M  V30 1316 H 113.842 1.99048 2.21774 0
M  V30 1317 H 111.379 0.991277 1.08683 0
M  V30 1318 H 113.337 0.434964 4.14926 0
M  V30 1319 H 111.967 -0.227554 3.21997 0
M  V30 1320 H 111.019 2.18992 3.11041 0
M  V30 1321 H 112.331 2.68937 4.20089 0
M  V30 1322 H 111.485 1.12464 5.96185 0
M  V30 1323 H 110.224 0.523015 4.84887 0
M  V30 1324 H 109.229 2.82412 4.71724 0
M  V30 1325 H 110.454 3.42398 5.86464 0
M  V30 1326 H 108.4 1.25468 6.4389 0
M  V30 1327 H 108.317 2.89832 6.98236 0
M  V30 1328 H 109.585 1.86385 7.56889 0
M  V30 1329 N 113.814 -1.1601 1.06675 0
M  V30 1330 C 115.06 -1.86909 0.786945 0
M  V30 1331 C 115.393 -1.81717 -0.685018 0
M  V30 1332 O 114.668 -1.23551 -1.50218 0
M  V30 1333 C 114.951 -3.36313 1.28707 0
M  V30 1334 C 114.804 -3.50175 2.82308 0
M  V30 1335 C 116.123 -4.3084 0.898071 0
M  V30 1336 H 113.242 -0.678677 0.287343 0
M  V30 1337 H 115.884 -1.36336 1.32334 0
M  V30 1338 H 114.034 -3.79513 0.830768 0
M  V30 1339 H 115.706 -3.15886 3.36175 0
M  V30 1340 H 113.949 -2.91959 3.20847 0
M  V30 1341 H 114.62 -4.55116 3.12368 0
M  V30 1342 H 117.096 -3.95561 1.29114 0
M  V30 1343 H 115.972 -5.33876 1.27543 0
M  V30 1344 H 116.233 -4.41662 -0.196651 0
M  V30 1345 N 115.292 -0.849877 -1.32721 0
M  V30 1346 C 116.541 -0.447175 -1.96681 0
M  V30 1347 C 116.854 1.00135 -1.68025 0
M  V30 1348 O 118.06 1.50926 -2.25685 0
M  V30 1349 C 116.516 -0.7487 -3.52026 0
M  V30 1350 C 116.124 -2.21264 -3.89546 0
M  V30 1351 C 117.868 -0.413487 -4.22481 0
M  V30 1352 C 115.775 -2.45763 -5.37917 0
M  V30 1353 H 114.705 -0.163486 -0.736063 0
M  V30 1354 H 117.356 -1.03999 -1.51183 0
M  V30 1355 H 115.738 -0.0853727 -3.95908 0
M  V30 1356 H 116.912 -2.91736 -3.56689 0
M  V30 1357 H 115.227 -2.5119 -3.32103 0
M  V30 1358 H 117.824 -0.574017 -5.3161 0
M  V30 1359 H 118.167 0.644492 -4.11281 0
M  V30 1360 H 118.7 -1.03251 -3.84167 0
M  V30 1361 H 115.439 -3.50168 -5.54132 0
M  V30 1362 H 114.959 -1.79864 -5.72197 0
M  V30 1363 H 116.638 -2.29471 -6.0494 0
M  V30 1364 N 116.77 1.45427 -0.607355 0
M  V30 1365 C 117.995 2.07124 -0.107006 0
M  V30 1366 C 118.42 1.44906 1.19933 0
M  V30 1367 O 117.778 0.541687 1.73019 0
M  V30 1368 C 117.826 3.60595 0.0194119 0
M  V30 1369 O 116.93 3.98285 1.0697 0
M  V30 1370 H 116.271 0.659868 -0.0739597 0
M  V30 1371 H 118.801 1.86683 -0.837297 0
M  V30 1372 H 118.811 4.07419 0.2177 0
M  V30 1373 H 117.486 4.05266 -0.934453 0
M  V30 1374 H 116.063 3.63133 0.847889 0
M  V30 1375 N 118.248 0.346503 1.53744 0
M  V30 1376 C 119.525 -0.304532 1.93215 0
M  V30 1377 C 119.905 -1.67993 1.27834 0
M  V30 1378 O 119.253 -2.24411 0.430352 0
M  V30 1379 C 119.463 -0.373852 3.46992 0
M  V30 1380 C 120.811 -0.62329 4.2 0
M  V30 1381 O 121.835 -0.455847 3.53271 0
M  V30 1382 O 120.694 -0.947879 5.38217 0
M  V30 1383 H 117.788 -0.178318 0.807547 0
M  V30 1384 H 120.334 0.397895 1.64969 0
M  V30 1385 H 119.106 0.591224 3.86808 0
M  V30 1386 H 118.729 -1.12294 3.81413 0
M  V30 1387 N 119.726 -1.57421 0.075193 0
M  V30 1388 C 120.954 -1.97946 -0.602076 0
M  V30 1389 C 121.369 -0.953674 -1.62943 0
M  V30 1390 O 120.726 0.0592551 -1.82404 0
M  V30 1391 C 120.777 -3.38546 -1.26762 0
M  V30 1392 O 120.498 -4.37195 -0.281376 0
M  V30 1393 C 121.999 -3.93966 -2.03239 0
M  V30 1394 H 119.219 -0.650918 -0.162931 0
M  V30 1395 H 121.763 -2.03959 0.148601 0
M  V30 1396 H 119.918 -3.33609 -1.96936 0
M  V30 1397 H 120.332 -5.18975 -0.759267 0
M  V30 1398 H 121.806 -4.94555 -2.45193 0
M  V30 1399 H 122.283 -3.30693 -2.8903 0
M  V30 1400 H 122.889 -4.02315 -1.37924 0
M  V30 1401 N 121.204 0.198386 -1.56346 0
M  V30 1402 C 122.114 1.2664 -1.97483 0
M  V30 1403 C 123.13 1.49989 -0.882002 0
M  V30 1404 O 124.306 1.62668 -1.18748 0
M  V30 1405 C 121.371 2.59141 -2.30319 0
M  V30 1406 C 120.432 2.43892 -3.53292 0
M  V30 1407 C 119.665 3.70074 -3.84553 0
M  V30 1408 O 119.888 4.74101 -3.1715 0
M  V30 1409 O 118.822 3.658 -4.7799 0
M  V30 1410 H 122.648 0.947304 -2.88548 0
M  V30 1411 H 120.233 0.403123 -1.43859 0
M  V30 1412 H 122.115 3.37352 -2.5253 0
M  V30 1413 H 120.79 2.90684 -1.42423 0
M  V30 1414 H 119.697 1.63803 -3.36332 0
M  V30 1415 H 121.03 2.17282 -4.41644 0
M  V30 1416 N 122.682 1.50554 0.465978 0
M  V30 1417 C 123.931 1.61038 1.21448 0
M  V30 1418 C 124.244 0.31865 1.92987 0
M  V30 1419 O 125.45 0.302469 2.6981 0
M  V30 1420 C 123.906 2.84283 2.20706 0
M  V30 1421 C 123.514 4.20352 1.54946 0
M  V30 1422 C 125.258 3.04115 2.96166 0
M  V30 1423 C 123.165 5.34778 2.5252 0
M  V30 1424 H 122.095 0.599718 0.457005 0
M  V30 1425 H 124.746 1.7699 0.484424 0
M  V30 1426 H 123.128 2.61901 2.97025 0
M  V30 1427 H 124.302 4.53008 0.843811 0
M  V30 1428 H 122.617 4.06167 0.917475 0
M  V30 1429 H 125.214 3.86774 3.69202 0
M  V30 1430 H 125.557 2.16045 3.55852 0
M  V30 1431 H 126.09 3.26702 2.26959 0
M  V30 1432 H 122.829 6.25018 1.97566 0
M  V30 1433 H 122.349 5.06534 3.21222 0
M  V30 1434 H 124.028 5.65561 3.14245 0
M  V30 1435 N 124.16 -0.719506 1.40217 0
M  V30 1436 C 125.409 -1.47486 1.37589 0
M  V30 1437 C 125.722 -1.9559 -0.0201568 0
M  V30 1438 O 126.928 -2.70973 -0.169049 0
M  V30 1439 C 125.384 -2.66575 2.41796 0
M  V30 1440 C 124.992 -2.25358 3.87192 0
M  V30 1441 C 126.736 -3.4433 2.48269 0
M  V30 1442 C 124.643 -3.41262 4.83005 0
M  V30 1443 H 123.573 -0.553901 0.511576 0
M  V30 1444 H 126.224 -0.783427 1.65936 0
M  V30 1445 H 124.606 -3.3787 2.06543 0
M  V30 1446 H 125.78 -1.61509 4.31569 0
M  V30 1447 H 124.095 -1.60657 3.84159 0
M  V30 1448 H 126.692 -4.30569 3.17041 0
M  V30 1449 H 127.035 -3.87872 1.51198 0
M  V30 1450 H 127.568 -2.80076 2.82493 0
M  V30 1451 H 124.307 -3.02755 5.81394 0
M  V30 1452 H 123.827 -4.0404 4.43297 0
M  V30 1453 H 125.506 -4.07383 5.02641 0
M  V30 1454 N 125.638 -1.25649 -0.95132 0
M  V30 1455 C 126.885 -1.10594 -1.69633 0
M  V30 1456 C 127.213 0.352515 -1.91279 0
M  V30 1457 O 126.468 1.27601 -1.4838 0
M  V30 1458 C 126.767 -1.80909 -3.08231 0
M  V30 1459 C 126.433 -3.30825 -3.06375 0
M  V30 1460 C 125.095 -3.71722 -3.05576 0
M  V30 1461 C 127.447 -4.26589 -2.99452 0
M  V30 1462 C 124.775 -5.06788 -2.95606 0
M  V30 1463 C 127.127 -5.61683 -2.91024 0
M  V30 1464 C 125.791 -6.01904 -2.88562 0
M  V30 1465 H 125.061 -0.404691 -0.620731 0
M  V30 1466 H 127.708 -1.55964 -1.11119 0
M  V30 1467 H 126.013 -1.27979 -3.70309 0
M  V30 1468 H 127.71 -1.6671 -3.64704 0
M  V30 1469 H 124.3 -2.98287 -3.07771 0
M  V30 1470 H 128.484 -3.95982 -2.99185 0
M  V30 1471 H 123.74 -5.37126 -2.92071 0
M  V30 1472 H 127.914 -6.35578 -2.84629 0
M  V30 1473 H 125.541 -7.06521 -2.80593 0
M  V30 1474 N 127.117 1.15442 -1.07289 0
M  V30 1475 C 128.366 1.85557 -0.790669 0
M  V30 1476 C 128.679 1.83186 0.685739 0
M  V30 1477 O 129.885 2.48977 1.0827 0
M  V30 1478 C 128.341 3.33038 -1.36433 0
M  V30 1479 C 127.949 3.43856 -2.8717 0
M  V30 1480 C 129.693 4.0834 -1.1601 0
M  V30 1481 C 127.6 4.85482 -3.3773 0
M  V30 1482 H 126.53 0.695122 -0.292098 0
M  V30 1483 H 129.181 1.30219 -1.29287 0
M  V30 1484 H 127.563 3.88043 -0.789864 0
M  V30 1485 H 128.737 2.98961 -3.50655 0
M  V30 1486 H 127.052 2.81998 -3.06376 0
M  V30 1487 H 129.649 5.12859 -1.51262 0
M  V30 1488 H 129.992 4.16182 -0.0991007 0
M  V30 1489 H 130.525 3.59603 -1.70089 0
M  V30 1490 H 127.264 4.82823 -4.43353 0
M  V30 1491 H 126.784 5.30961 -2.78999 0
M  V30 1492 H 128.463 5.54335 -3.33648 0
M  V30 1493 N 128.595 0.856903 1.32268 0
M  V30 1494 C 129.872 0.382583 1.91822 0
M  V30 1495 C 130.252 -1.13407 1.78051 0
M  V30 1496 O 129.6 -1.95673 1.18001 0
M  V30 1497 C 129.81 0.849446 3.38505 0
M  V30 1498 C 131.158 0.867936 4.15634 0
M  V30 1499 O 132.182 0.794232 3.47232 0
M  V30 1500 O 131.041 0.972286 5.37781 0
M  V30 1501 H 128.135 0.112014 0.819379 0
M  V30 1502 H 130.681 0.943952 1.41024 0
M  V30 1503 H 129.453 1.89267 3.42482 0
M  V30 1504 H 129.076 0.265652 3.96712 0
M  V30 1505 N 130.073 -1.45103 0.615059 0
M  V30 1506 C 131.005 -2.28786 -0.13762 0
M  V30 1507 C 132.018 -1.40376 -0.824525 0
M  V30 1508 O 133.207 -1.64681 -0.688662 0
M  V30 1509 C 130.307 -3.16322 -1.21628 0
M  V30 1510 C 129.48 -4.33054 -0.615039 0
M  V30 1511 C 128.539 -5.01743 -1.58556 0
M  V30 1512 O 127.565 -5.58293 -1.10895 0
M  V30 1513 N 128.767 -5.01714 -2.91998 0
M  V30 1514 H 131.532 -2.94025 0.580483 0
M  V30 1515 H 129.093 -1.55373 0.45507 0
M  V30 1516 H 131.085 -3.59139 -1.86552 0
M  V30 1517 H 129.655 -2.52943 -1.83681 0
M  V30 1518 H 128.875 -3.93627 0.21245 0
M  V30 1519 H 130.163 -5.08431 -0.193704 0
M  V30 1520 H 129.561 -4.57075 -3.33316 0
M  V30 1521 H 128.118 -5.48371 -3.52325 0
M  V30 1522 N 131.551 -0.354651 -1.53558 0
M  V30 1523 C 132.461 0.50515 -2.29097 0
M  V30 1524 C 133.477 1.10223 -1.34636 0
M  V30 1525 O 134.653 1.11553 -1.67684 0
M  V30 1526 C 131.718 1.63479 -3.05738 0
M  V30 1527 C 130.779 1.06636 -4.15845 0
M  V30 1528 C 130.012 2.14217 -4.88822 0
M  V30 1529 O 130.235 3.35137 -4.61562 0
M  V30 1530 O 129.169 1.77887 -5.75013 0
M  V30 1531 H 132.995 -0.109237 -3.03503 0
M  V30 1532 H 130.58 -0.119357 -1.48922 0
M  V30 1533 H 132.462 2.2918 -3.5363 0
M  V30 1534 H 131.137 2.23478 -2.34178 0
M  V30 1535 H 130.044 0.373565 -3.7223 0
M  V30 1536 H 131.377 0.511081 -4.89539 0
M  V30 1537 N 133.029 1.57378 -0.0835403 0
M  V30 1538 C 134.257 1.98263 0.59157 0
M  V30 1539 C 134.672 0.962302 1.62435 0
M  V30 1540 O 134.029 -0.049581 1.82433 0
M  V30 1541 C 134.08 3.39214 1.24965 0
M  V30 1542 O 133.801 4.37339 0.258186 0
M  V30 1543 C 135.302 3.95038 2.01147 0
M  V30 1544 H 132.522 0.651773 0.159477 0
M  V30 1545 H 135.066 2.03878 -0.159415 0
M  V30 1546 H 133.221 3.34649 1.95164 0
M  V30 1547 H 133.635 5.19371 0.731734 0
M  V30 1548 H 135.109 4.95848 2.42567 0
M  V30 1549 H 135.586 3.32222 2.87272 0
M  V30 1550 H 136.192 4.0304 1.35789 0
M  V30 1551 N 134.507 -0.190092 1.56449 0
M  V30 1552 C 135.455 -1.25501 1.95837 0
M  V30 1553 C 136.449 -1.4685 0.844485 0
M  V30 1554 O 137.655 -1.47651 1.02952 0
M  V30 1555 H 134.03 -0.421447 0.622805 0
M  V30 1556 H 136.001 -0.895821 2.84636 0
M  V30 1557 C 134.75 -2.59124 2.31841 0
M  V30 1558 H 134.073 -2.43514 3.17082 0
M  V30 1559 H 135.513 -3.32371 2.6326 0
M  V30 1560 C 133.972 -3.16488 1.15486 0
M  V30 1561 O 134.502 -3.99365 0.432535 0
M  V30 1562 N 132.708 -2.75305 0.930349 0
M  V30 1563 H 132.255 -2.08013 1.51948 0
M  V30 1564 H 132.213 -3.14024 0.153634 0
M  V30 1565 N 135.985 -1.50799 -0.457987 0
M  V30 1566 C 137.213 -1.66218 -1.23203 0
M  V30 1567 C 137.628 -0.350894 -1.85511 0
M  V30 1568 O 136.985 0.668546 -1.69814 0
M  V30 1569 C 137.036 -2.76291 -2.33121 0
M  V30 1570 O 136.757 -4.02338 -1.73366 0
M  V30 1571 C 138.258 -3.028 -3.2377 0
M  V30 1572 H 135.478 -0.558361 -0.372121 0
M  V30 1573 H 138.022 -1.97099 -0.545179 0
M  V30 1574 H 136.177 -2.48068 -2.97558 0
M  V30 1575 H 136.591 -4.63312 -2.4585 0
M  V30 1576 H 138.065 -3.8345 -3.97077 0
M  V30 1577 H 138.542 -2.14385 -3.83322 0
M  V30 1578 H 139.148 -3.32604 -2.65056 0
M  V30 1579 N 137.463 0.71206 -1.40597 0
M  V30 1580 C 138.71 1.47197 -1.39065 0
M  V30 1581 C 139.038 1.94499 0.00583891 0
M  V30 1582 O 138.293 1.68752 0.99102 0
M  V30 1583 C 138.592 2.71039 -2.32965 0
M  V30 1584 C 138.258 2.42484 -3.80148 0
M  V30 1585 C 136.92 2.34406 -4.20247 0
M  V30 1586 C 139.272 2.18598 -4.73143 0
M  V30 1587 C 136.6 2.00516 -5.51371 0
M  V30 1588 C 138.952 1.8622 -6.0457 0
M  V30 1589 C 137.616 1.76626 -6.43708 0
M  V30 1590 H 136.886 0.538634 -0.508876 0
M  V30 1591 H 139.533 0.815325 -1.73276 0
M  V30 1592 H 137.838 3.41558 -1.91951 0
M  V30 1593 H 139.535 3.29138 -2.29061 0
M  V30 1594 H 136.125 2.49659 -3.4838 0
M  V30 1595 H 140.309 2.23793 -4.42979 0
M  V30 1596 H 135.565 1.91628 -5.80593 0
M  V30 1597 H 139.739 1.66752 -6.76141 0
M  V30 1598 H 137.366 1.50133 -7.45228 0
M  V30 1599 N 138.941 1.26152 0.944643 0
M  V30 1600 C 139.851 1.09176 2.07648 0
M  V30 1601 C 140.867 0.0261935 1.7398 0
M  V30 1602 O 142.043 0.229208 2.00091 0
M  V30 1603 C 139.108 0.722915 3.39079 0
M  V30 1604 C 138.169 1.86752 3.86552 0
M  V30 1605 C 137.402 1.51617 5.11711 0
M  V30 1606 O 137.625 0.416331 5.68879 0
M  V30 1607 O 136.559 2.34975 5.54139 0
M  V30 1608 H 140.385 2.0412 2.24875 0
M  V30 1609 H 137.97 1.05182 1.061 0
M  V30 1610 H 139.852 0.529787 4.18056 0
M  V30 1611 H 138.527 -0.197159 3.23099 0
M  V30 1612 H 137.434 2.11558 3.08535 0
M  V30 1613 H 138.767 2.76719 4.07047 0
M  V30 1614 N 140.419 -1.14872 1.07899 0
M  V30 1615 C 141.83 -1.67367 0.827363 0
M  V30 1616 C 142.181 -1.85236 -0.646693 0
M  V30 1617 O 141.306 -1.55974 -1.50004 0
M  V30 1618 C 141.901 -3.04016 1.49532 0
M  V30 1619 C 140.46 -3.53566 1.29106 0
M  V30 1620 C 139.607 -2.29161 1.56143 0
M  V30 1621 H 142.558 -0.990083 1.24028 0
M  V30 1622 H 142.579 -3.69219 0.919643 0
M  V30 1623 H 142.091 -2.90978 2.56814 0
M  V30 1624 H 140.192 -3.71835 0.238713 0
M  V30 1625 H 140.305 -4.34661 2.01511 0
M  V30 1626 H 138.669 -2.34978 0.982717 0
M  V30 1627 H 139.452 -2.18705 2.64619 0
M  V30 1628 N 141.898 -0.863906 -1.31812 0
M  V30 1629 C 142.846 -0.30422 -2.30602 0
M  V30 1630 C 143.84 0.577419 -1.59255 0
M  V30 1631 O 145.046 0.464194 -1.73912 0
M  V30 1632 H 141.421 -0.0796877 -0.747766 0
M  V30 1633 H 143.392 -1.15148 -2.75288 0
M  V30 1634 C 142.141 0.484617 -3.44306 0
M  V30 1635 H 141.464 -0.18451 -3.99374 0
M  V30 1636 H 142.904 0.841664 -4.15562 0
M  V30 1637 C 141.363 1.6735 -2.92396 0
M  V30 1638 O 141.893 2.77273 -2.90659 0
M  V30 1639 N 140.099 1.50362 -2.48676 0
M  V30 1640 H 139.646 0.609402 -2.50288 0
M  V30 1641 H 139.604 2.30051 -2.14299 0
M  V30 1642 N 143.376 1.44774 -0.622745 0
M  V30 1643 C 144.308 2.28856 0.125485 0
M  V30 1644 C 145.321 1.40811 0.817069 0
M  V30 1645 O 146.51 1.65044 0.679918 0
M  V30 1646 C 143.61 3.16963 1.19949 0
M  V30 1647 C 142.783 4.33374 0.592064 0
M  V30 1648 C 141.842 5.02577 1.55893 0
M  V30 1649 O 140.868 5.58873 1.07933 0
M  V30 1650 N 142.07 5.03256 2.89334 0
M  V30 1651 H 144.835 2.93713 -0.596068 0
M  V30 1652 H 142.396 1.55129 -0.463303 0
M  V30 1653 H 144.388 3.60123 1.84644 0
M  V30 1654 H 142.958 2.53913 1.82337 0
M  V30 1655 H 142.178 3.93509 -0.233322 0
M  V30 1656 H 143.466 5.08527 0.166738 0
M  V30 1657 H 142.864 4.58836 3.30887 0
M  V30 1658 H 141.421 5.50232 3.49412 0
M  V30 1659 N 144.854 0.36279 1.53368 0
M  V30 1660 C 146.103 -0.22888 2.00397 0
M  V30 1661 C 146.416 -1.50096 1.25421 0
M  V30 1662 O 147.622 -2.17106 1.63025 0
M  V30 1663 C 146.078 -0.458417 3.56969 0
M  V30 1664 C 145.686 0.798877 4.4082 0
M  V30 1665 C 147.43 -1.00789 4.12361 0
M  V30 1666 C 145.337 0.539078 5.88938 0
M  V30 1667 H 144.267 -0.089305 0.748693 0
M  V30 1668 H 146.918 0.481099 1.77081 0
M  V30 1669 H 145.3 -1.22959 3.76427 0
M  V30 1670 H 146.474 1.57262 4.33134 0
M  V30 1671 H 144.789 1.27137 3.96516 0
M  V30 1672 H 147.386 -1.21754 5.20653 0
M  V30 1673 H 147.729 -1.9692 3.66781 0
M  V30 1674 H 148.262 -0.296961 3.9669 0
M  V30 1675 H 145.001 1.47064 6.3879 0
M  V30 1676 H 144.521 -0.196222 5.99479 0
M  V30 1677 H 146.2 0.163542 6.46793 0
M  V30 1678 N 146.332 -1.57332 0.0918853 0
M  V30 1679 C 147.609 -1.85691 -0.614668 0
M  V30 1680 C 147.989 -0.988146 -1.86545 0
M  V30 1681 O 147.337 -0.0597055 -2.28422 0
M  V30 1682 C 147.547 -3.36294 -0.933126 0
M  V30 1683 C 148.895 -4.04275 -1.29796 0
M  V30 1684 O 149.919 -3.41157 -1.02424 0
M  V30 1685 O 148.778 -5.1564 -1.81047 0
M  V30 1686 H 145.872 -0.767802 -0.307261 0
M  V30 1687 H 148.418 -1.69244 0.12434 0
M  V30 1688 H 147.19 -3.91273 -0.0456404 0
M  V30 1689 H 146.813 -3.58076 -1.72822 0
M  V30 1690 N 147.81 0.181792 -1.56548 0
M  V30 1691 C 149.05 0.906711 -1.83189 0
M  V30 1692 C 149.414 1.79882 -0.671312 0
M  V30 1693 O 150.615 2.56054 -0.81792 0
M  V30 1694 C 148.886 1.69023 -3.14906 0
M  V30 1695 S 150.445 2.46535 -3.62996 0
M  V30 1696 H 147.263 0.303877 -0.642791 0
M  V30 1697 H 149.865 0.169107 -1.94767 0
M  V30 1698 H 148.569 1.02571 -3.97376 0
M  V30 1699 H 148.1 2.46941 -3.06241 0
M  V30 1700 H 150.115 3.71014 -3.29489 0
M  V30 1701 N 149.288 1.51039 0.449983 0
M  V30 1702 C 150.535 1.63081 1.20045 0
M  V30 1703 C 150.863 0.341024 1.91487 0
M  V30 1704 O 150.118 -0.674276 1.83717 0
M  V30 1705 C 150.417 2.77556 2.25161 0
M  V30 1706 C 150.083 4.17289 1.70823 0
M  V30 1707 C 148.745 4.55305 1.55725 0
M  V30 1708 C 151.097 5.04536 1.3074 0
M  V30 1709 C 148.425 5.78287 0.989999 0
M  V30 1710 C 150.777 6.28085 0.754482 0
M  V30 1711 C 149.441 6.64885 0.590308 0
M  V30 1712 H 148.711 0.596755 0.439277 0
M  V30 1713 H 151.358 1.85037 0.49333 0
M  V30 1714 H 149.663 2.49771 3.01863 0
M  V30 1715 H 151.36 2.84073 2.83026 0
M  V30 1716 H 147.95 3.8731 1.83546 0
M  V30 1717 H 152.134 4.75782 1.41229 0
M  V30 1718 H 147.39 6.05456 0.850451 0
M  V30 1719 H 151.564 6.95038 0.435324 0
M  V30 1720 H 149.191 7.60055 0.14862 0
M  V30 1721 N 150.766 -0.704594 1.40972 0
M  V30 1722 C 151.696 -1.83124 1.44872 0
M  V30 1723 C 152.677 -1.67281 0.30838 0
M  V30 1724 O 153.862 -1.87149 0.518556 0
M  V30 1725 C 150.992 -3.21181 1.32136 0
M  V30 1726 C 149.946 -3.51714 2.43888 0
M  V30 1727 C 149.272 -4.89032 2.16222 0
M  V30 1728 C 150.572 -3.516 3.86232 0
M  V30 1729 H 152.266 -1.80117 2.39161 0
M  V30 1730 H 149.812 -0.865145 1.15114 0
M  V30 1731 H 151.765 -3.99702 1.33479 0
M  V30 1732 H 150.489 -3.24791 0.343279 0
M  V30 1733 H 149.148 -2.75539 2.41813 0
M  V30 1734 H 148.796 -4.89256 1.16778 0
M  V30 1735 H 148.496 -5.10426 2.911 0
M  V30 1736 H 150.02 -5.69873 2.19265 0
M  V30 1737 H 151.434 -4.2014 3.9007 0
M  V30 1738 H 149.831 -3.84523 4.60719 0
M  V30 1739 H 150.901 -2.50757 4.15029 0
M  V30 1740 N 152.244 -1.26651 -0.937939 0
M  V30 1741 C 153.493 -1.11775 -1.67897 0
M  V30 1742 C 153.806 0.33794 -1.92659 0
M  V30 1743 O 155.012 0.607434 -2.64618 0
M  V30 1744 C 153.468 -1.9523 -3.02346 0
M  V30 1745 C 153.076 -3.45393 -2.8532 0
M  V30 1746 C 154.82 -1.88972 -3.80118 0
M  V30 1747 C 152.727 -4.21083 -4.15263 0
M  V30 1748 H 151.657 -0.414696 -0.629717 0
M  V30 1749 H 154.308 -1.50988 -1.04283 0
M  V30 1750 H 152.69 -1.48853 -3.66959 0
M  V30 1751 H 153.864 -3.99561 -2.29537 0
M  V30 1752 H 152.179 -3.52921 -2.20988 0
M  V30 1753 H 154.776 -2.42805 -4.76392 0
M  V30 1754 H 155.119 -0.86113 -4.07296 0
M  V30 1755 H 155.652 -2.33189 -3.22285 0
M  V30 1756 H 152.391 -5.24425 -3.93267 0
M  V30 1757 H 151.911 -3.71695 -4.70747 0
M  V30 1758 H 153.59 -4.29706 -4.83696 0
M  V30 1759 N 153.722 1.14298 -1.08507 0
M  V30 1760 C 155.133 1.66926 -0.836227 0
M  V30 1761 C 155.484 1.85576 0.63686 0
M  V30 1762 O 154.609 1.56767 1.49175 0
M  V30 1763 C 155.204 3.03219 -1.51142 0
M  V30 1764 C 153.763 3.52876 -1.30979 0
M  V30 1765 C 152.91 2.2833 -1.57356 0
M  V30 1766 H 155.861 0.983491 -1.24552 0
M  V30 1767 H 155.882 3.68726 -0.939211 0
M  V30 1768 H 155.394 2.89612 -2.58353 0
M  V30 1769 H 153.495 3.71703 -0.258429 0
M  V30 1770 H 153.608 4.33586 -2.03814 0
M  V30 1771 H 151.972 2.34454 -0.995164 0
M  V30 1772 H 152.755 2.17298 -2.65775 0
M  V30 1773 N 155.201 0.870884 1.31352 0
M  V30 1774 C 156.131 0.343096 2.30966 0
M  V30 1775 C 157.112 -0.566507 1.60389 0
M  V30 1776 O 158.297 -0.483336 1.88089 0
M  V30 1777 C 155.427 -0.455487 3.443 0
M  V30 1778 C 154.381 0.361103 4.26474 0
M  V30 1779 C 153.707 -0.563221 5.31725 0
M  V30 1780 C 155.007 1.59566 4.97329 0
M  V30 1781 H 156.701 1.17548 2.75359 0
M  V30 1782 H 154.247 0.566686 1.32381 0
M  V30 1783 H 156.2 -0.83525 4.13039 0
M  V30 1784 H 154.924 -1.32139 2.98675 0
M  V30 1785 H 153.583 0.722825 3.59403 0
M  V30 1786 H 153.231 -1.42643 4.82351 0
M  V30 1787 H 152.931 -0.0207409 5.87596 0
M  V30 1788 H 154.455 -0.939808 6.03324 0
M  V30 1789 H 155.869 1.28728 5.58661 0
M  V30 1790 H 154.266 2.07728 5.63 0
M  V30 1791 H 155.336 2.34798 4.24262 0
M  V30 1792 N 156.679 -1.44442 0.630414 0
M  V30 1793 C 157.925 -2.02351 0.134816 0
M  V30 1794 C 158.258 -1.4947 -1.23986 0
M  V30 1795 O 157.533 -0.678475 -1.82283 0
M  V30 1796 C 157.816 -3.59898 0.120707 0
M  V30 1797 C 157.669 -4.23063 1.52767 0
M  V30 1798 C 158.988 -4.36585 -0.555127 0
M  V30 1799 H 156.107 -0.73527 0.0504646 0
M  V30 1800 H 158.749 -1.72022 0.806751 0
M  V30 1801 H 156.899 -3.85868 -0.451477 0
M  V30 1802 H 158.571 -4.08202 2.14869 0
M  V30 1803 H 156.814 -3.80586 2.08175 0
M  V30 1804 H 157.485 -5.32071 1.46984 0
M  V30 1805 H 159.961 -4.16044 -0.0685429 0
M  V30 1806 H 158.837 -5.46294 -0.534185 0
M  V30 1807 H 159.098 -4.11138 -1.62535 0
M  V30 1808 N 158.157 -0.370918 -1.53173 0
M  V30 1809 C 159.405 0.216673 -2.00935 0
M  V30 1810 C 159.726 1.48845 -1.25977 0
M  V30 1811 O 158.996 1.92286 -0.374551 0
M  V30 1812 H 157.576 0.0830565 -0.742368 0
M  V30 1813 H 160.238 -0.49838 -1.8842 0
M  V30 1814 H 159.334 0.439893 -3.08984 0
M  V30 1815 N 159.635 1.57281 -0.100228 0
M  V30 1816 C 160.882 1.94537 0.562268 0
M  V30 1817 C 161.21 0.982315 1.67871 0
M  V30 1818 O 160.465 0.00280936 1.957 0
M  V30 1819 C 160.764 3.38305 1.15259 0
M  V30 1820 C 160.43 4.50618 0.159409 0
M  V30 1821 C 159.092 4.81066 -0.113741 0
M  V30 1822 C 161.444 5.18615 -0.518461 0
M  V30 1823 C 158.772 5.76835 -1.07137 0
M  V30 1824 C 161.124 6.15412 -1.46459 0
M  V30 1825 C 159.788 6.44262 -1.74592 0
M  V30 1826 H 159.058 0.711863 0.205748 0
M  V30 1827 H 161.705 1.90679 -0.17715 0
M  V30 1828 H 160.01 3.38766 1.96836 0
M  V30 1829 H 161.707 3.64435 1.67297 0
M  V30 1830 H 158.297 4.2689 0.382491 0
M  V30 1831 H 162.481 4.95264 -0.320581 0
M  V30 1832 H 157.737 5.975 -1.29628 0
M  V30 1833 H 161.911 6.67194 -1.99564 0
M  V30 1834 H 159.538 7.1828 -2.48953 0
M  V30 1835 N 161.113 -0.173488 1.56642 0
M  V30 1836 C 162.061 -1.23417 1.97157 0
M  V30 1837 C 163.055 -1.45946 0.860013 0
M  V30 1838 O 164.261 -1.46551 1.04512 0
M  V30 1839 H 160.636 -0.414818 0.62724 0
M  V30 1840 H 162.607 -0.865582 2.8557 0
M  V30 1841 C 161.356 -2.5665 2.34576 0
M  V30 1842 H 160.679 -2.40137 3.19647 0
M  V30 1843 H 162.119 -3.2956 2.6677 0
M  V30 1844 C 160.578 -3.15245 1.18836 0
M  V30 1845 O 161.108 -3.98883 0.474869 0
M  V30 1846 N 159.314 -2.74303 0.959497 0
M  V30 1847 H 158.861 -2.0639 1.54146 0
M  V30 1848 H 158.819 -3.13844 0.186932 0
M  V30 1849 N 162.591 -1.51276 -0.441967 0
M  V30 1850 C 163.538 -1.72256 -1.53612 0
M  V30 1851 C 164.508 -0.564164 -1.56225 0
M  V30 1852 O 165.693 -0.798074 -1.73307 0
M  V30 1853 C 162.833 -1.84932 -2.91366 0
M  V30 1854 C 161.946 -3.12459 -2.98317 0
M  V30 1855 C 161.081 -3.15758 -4.27166 0
M  V30 1856 C 160.12 -4.37619 -4.27967 0
M  V30 1857 N 159.257 -4.38493 -5.48333 0
M  V30 1858 H 164.097 -2.65654 -1.35026 0
M  V30 1859 H 161.634 -1.31662 -0.656009 0
M  V30 1860 H 163.592 -1.90263 -3.7129 0
M  V30 1861 H 162.222 -0.949461 -3.08521 0
M  V30 1862 H 161.274 -3.1646 -2.11086 0
M  V30 1863 H 162.586 -4.02382 -2.94771 0
M  V30 1864 H 161.74 -3.19979 -5.15459 0
M  V30 1865 H 160.479 -2.23715 -4.33362 0
M  V30 1866 H 159.484 -4.33579 -3.38067 0
M  V30 1867 H 160.709 -5.30921 -4.23438 0
M  V30 1868 H 158.655 -3.49318 -5.55259 0
M  V30 1869 H 158.572 -5.22219 -5.46647 0
M  V30 1870 H 159.84 -4.469 -6.38671 0
M  V30 1871 N 164.069 0.697108 -1.41344 0
M  V30 1872 C 165.346 1.45154 -1.31109 0
M  V30 1873 C 165.726 2.11009 0.0620449 0
M  V30 1874 O 165.074 2.01571 1.07618 0
M  V30 1875 C 165.284 2.47223 -2.46337 0
M  V30 1876 C 166.632 3.1252 -2.87431 0
M  V30 1877 O 167.656 2.57547 -2.46065 0
M  V30 1878 O 166.515 4.12083 -3.58957 0
M  V30 1879 H 163.609 0.646365 -0.515889 0
M  V30 1880 H 166.155 0.727716 -1.53305 0
M  V30 1881 H 164.927 1.97204 -3.37974 0
M  V30 1882 H 164.55 3.27116 -2.2601 0
M  V30 1883 N 165.547 1.27147 0.931209 0
M  V30 1884 C 166.495 1.09398 2.05268 0
M  V30 1885 C 167.489 0.0180591 1.6939 0
M  V30 1886 O 168.695 0.17551 1.79142 0
M  V30 1887 H 165.07 0.336986 0.672268 0
M  V30 1888 H 167.041 2.04416 2.17386 0
M  V30 1889 C 165.79 0.75424 3.39421 0
M  V30 1890 H 165.113 1.57404 3.67511 0
M  V30 1891 H 166.553 0.669903 4.18674 0
M  V30 1892 C 165.012 -0.541197 3.32525 0
M  V30 1893 O 165.542 -1.57664 3.69466 0
M  V30 1894 N 163.748 -0.535517 2.85623 0
M  V30 1895 H 163.295 0.307511 2.55758 0
M  V30 1896 H 163.253 -1.40236 2.81392 0
M  V30 1897 N 167.025 -1.13721 1.09112 0
M  V30 1898 C 168.255 -1.88499 0.845671 0
M  V30 1899 C 168.663 -1.79218 -0.606432 0
M  V30 1900 O 168.006 -1.1544 -1.42896 0
M  V30 1901 C 168.068 -3.38954 1.19793 0
M  V30 1902 C 167.732 -3.72018 2.65428 0
M  V30 1903 C 168.729 -3.7153 3.63677 0
M  V30 1904 C 166.414 -4.01775 3.01467 0
M  V30 1905 C 168.408 -4.00336 4.95994 0
M  V30 1906 C 166.095 -4.30243 4.33975 0
M  V30 1907 C 167.093 -4.29508 5.31048 0
M  V30 1908 O 166.781 -4.5728 6.61173 0
M  V30 1909 H 166.513 -0.603702 0.304171 0
M  V30 1910 H 169.067 -1.44903 1.45576 0
M  V30 1911 H 167.297 -3.83039 0.530871 0
M  V30 1912 H 168.986 -3.95052 0.932146 0
M  V30 1913 H 169.752 -3.4862 3.37179 0
M  V30 1914 H 165.631 -4.01496 2.26544 0
M  V30 1915 H 169.175 -3.99678 5.71755 0
M  V30 1916 H 165.072 -4.52625 4.60219 0
M  V30 1917 H 165.84 -4.74964 6.66597 0
M  V30 1918 N 168.503 -0.877838 -1.30888 0
M  V30 1919 C 169.919 -0.570844 -1.49042 0
M  V30 1920 C 170.119 0.893159 -1.80624 0
M  V30 1921 O 169.175 1.67485 -1.88958 0
M  V30 1922 C 170.488 -1.47784 -2.61878 0
M  V30 1923 C 172.036 -1.48071 -2.75761 0
M  V30 1924 C 172.511 -2.37347 -3.91702 0
M  V30 1925 N 174.002 -2.35271 -3.99001 0
M  V30 1926 C 174.737 -3.01063 -4.88004 0
M  V30 1927 N 174.233 -3.76055 -5.81854 0
M  V30 1928 N 176.026 -2.90332 -4.81315 0
M  V30 1929 H 168.177 -1.82502 -1.0866 0
M  V30 1930 H 170.44 -0.780797 -0.537644 0
M  V30 1931 H 170.146 -2.51993 -2.45341 0
M  V30 1932 H 170.02 -1.18215 -3.58197 0
M  V30 1933 H 172.407 -0.446166 -2.91708 0
M  V30 1934 H 172.488 -1.81668 -1.80085 0
M  V30 1935 H 172.132 -3.40883 -3.76512 0
M  V30 1936 H 172.062 -2.01071 -4.86701 0
M  V30 1937 H 174.553 -1.80768 -3.3186 0
M  V30 1938 H 174.866 -4.23366 -6.46514 0
M  V30 1939 H 173.211 -3.80163 -5.81808 0
M  V30 1940 H 176.402 -2.31278 -4.06974 0
M  V30 1941 H 176.575 -3.41885 -5.50471 0
M  V30 1942 N 169.982 1.44106 -0.638065 0
M  V30 1943 C 170.912 2.33448 0.0494287 0
M  V30 1944 C 171.893 1.48606 0.827672 0
M  V30 1945 O 173.078 1.77308 0.792173 0
M  V30 1946 C 170.208 3.31771 1.02691 0
M  V30 1947 C 169.162 4.26485 0.359823 0
M  V30 1948 C 168.488 5.14729 1.44769 0
M  V30 1949 C 169.788 5.17056 -0.738296 0
M  V30 1950 H 171.482 2.91183 -0.696636 0
M  V30 1951 H 169.028 1.40014 -0.336456 0
M  V30 1952 H 170.981 3.93161 1.51666 0
M  V30 1953 H 169.705 2.7226 1.80395 0
M  V30 1954 H 168.364 3.66437 -0.10934 0
M  V30 1955 H 168.012 4.51566 2.21578 0
M  V30 1956 H 167.712 5.78913 1.00668 0
M  V30 1957 H 169.236 5.78991 1.93911 0
M  V30 1958 H 170.65 5.72342 -0.331354 0
M  V30 1959 H 169.047 5.89879 -1.10286 0
M  V30 1960 H 170.117 4.57652 -1.60258 0
M  V30 1961 N 171.46 0.379036 1.52974 0
M  V30 1962 C 172.708 -0.206014 2.01047 0
M  V30 1963 C 173.029 -1.48175 1.26765 0
M  V30 1964 O 172.299 -1.92085 0.384743 0
M  V30 1965 H 170.879 -0.0791184 0.742798 0
M  V30 1966 H 173.541 0.508366 1.88153 0
M  V30 1967 H 172.637 -0.423501 3.09213 0
M  V30 1968 N 172.938 -1.57226 0.108567 0
M  V30 1969 C 174.185 -1.94833 -0.551943 0
M  V30 1970 C 174.513 -0.991204 -1.67348 0
M  V30 1971 O 173.768 -0.0131878 -1.95696 0
M  V30 1972 C 174.067 -3.38911 -1.13463 0
M  V30 1973 C 173.733 -4.50696 -0.135509 0
M  V30 1974 C 172.395 -4.80998 0.139252 0
M  V30 1975 C 174.747 -5.18333 0.545957 0
M  V30 1976 C 172.075 -5.76259 1.10194 0
M  V30 1977 C 174.427 -6.14627 1.49721 0
M  V30 1978 C 173.091 -6.43327 1.78006 0
M  V30 1979 H 172.361 -0.712944 -0.20197 0
M  V30 1980 H 175.008 -1.90582 0.18726 0
M  V30 1981 H 173.313 -3.39805 -1.95037 0
M  V30 1982 H 175.01 -3.65317 -1.65362 0
M  V30 1983 H 171.6 -4.27087 -0.359846 0
M  V30 1984 H 175.784 -4.95087 0.346842 0
M  V30 1985 H 171.04 -5.96804 1.32795 0
M  V30 1986 H 175.214 -6.66126 2.03099 0
M  V30 1987 H 172.841 -7.1695 2.52759 0
M  V30 1988 N 174.416 0.165178 -1.56732 0
M  V30 1989 C 175.664 0.879068 -1.8198 0
M  V30 1990 C 175.985 1.82514 -0.686561 0
M  V30 1991 O 175.255 1.93694 0.293146 0
M  V30 1992 H 173.835 0.327608 -0.671329 0
M  V30 1993 H 176.497 0.163526 -1.94213 0
M  V30 1994 H 175.593 1.45228 -2.76252 0
M  V30 1995 N 175.894 1.51508 0.433938 0
M  V30 1996 C 176.841 1.73068 1.52696 0
M  V30 1997 C 177.811 0.572441 1.55924 0
M  V30 1998 O 178.996 0.807253 1.72882 0
M  V30 1999 C 176.136 1.86474 2.90381 0
M  V30 2000 C 175.249 3.14037 2.96656 0
M  V30 2001 C 174.384 3.18019 4.25485 0
M  V30 2002 C 173.423 4.39882 4.2564 0
M  V30 2003 N 172.56 4.41394 5.45999 0
M  V30 2004 H 177.4 2.66366 1.33615 0
M  V30 2005 H 174.937 1.32008 0.649018 0
M  V30 2006 H 176.895 1.92229 3.70275 0
M  V30 2007 H 175.525 0.965809 3.08013 0
M  V30 2008 H 174.577 3.17575 2.09404 0
M  V30 2009 H 175.889 4.0394 2.92633 0
M  V30 2010 H 175.043 3.22708 5.13755 0
M  V30 2011 H 173.782 2.2601 4.3217 0
M  V30 2012 H 172.787 4.35366 3.35763 0
M  V30 2013 H 174.012 5.33159 4.20617 0
M  V30 2014 H 171.958 3.52258 5.53399 0
M  V30 2015 H 171.875 5.25111 5.4387 0
M  V30 2016 H 173.143 4.50281 6.36292 0
M  V30 2017 N 177.372 -0.689602 1.41712 0
M  V30 2018 C 178.62 -1.4468 1.4111 0
M  V30 2019 C 178.941 -1.94986 0.0232196 0
M  V30 2020 O 178.211 -1.72097 -0.935913 0
M  V30 2021 H 176.791 -0.536847 0.519427 0
M  V30 2022 H 179.453 -0.815825 1.77004 0
M  V30 2023 H 178.549 -2.30706 2.10193 0
M  V30 2024 N 178.85 -1.27639 -0.924453 0
M  V30 2025 C 180.08 -1.16819 -1.70402 0
M  V30 2026 C 180.488 0.277191 -1.87158 0
M  V30 2027 O 179.831 1.20025 -1.39067 0
M  V30 2028 C 179.893 -1.78305 -3.12166 0
M  V30 2029 C 179.557 -3.27502 -3.18734 0
M  V30 2030 C 180.554 -4.2409 -3.00738 0
M  V30 2031 C 178.239 -3.68269 -3.4159 0
M  V30 2032 C 180.233 -5.59422 -3.05492 0
M  V30 2033 C 177.92 -5.0373 -3.45977 0
M  V30 2034 C 178.918 -5.99116 -3.27946 0
M  V30 2035 O 178.606 -7.32108 -3.32074 0
M  V30 2036 H 178.338 -0.406931 -0.539799 0
M  V30 2037 H 180.892 -1.69078 -1.16626 0
M  V30 2038 H 179.122 -1.20528 -3.67437 0
M  V30 2039 H 180.811 -1.62154 -3.72103 0
M  V30 2040 H 181.577 -3.93931 -2.82919 0
M  V30 2041 H 177.456 -2.94496 -3.54673 0
M  V30 2042 H 181 -6.33852 -2.91337 0
M  V30 2043 H 176.897 -5.33543 -3.63321 0
M  V30 2044 H 177.665 -7.40598 -3.48507 0
M  V30 2045 N 180.328 1.1314 -1.09713 0
M  V30 2046 C 181.558 1.88048 -0.855656 0
M  V30 2047 C 181.966 1.79537 0.596919 0
M  V30 2048 O 181.309 1.16196 1.42282 0
M  V30 2049 C 181.371 3.38314 -1.21589 0
M  V30 2050 C 181.035 3.70605 -2.67397 0
M  V30 2051 C 182.032 3.69596 -3.65643 0
M  V30 2052 C 179.717 4.0017 -3.03593 0
M  V30 2053 C 181.711 3.977 -4.9811 0
M  V30 2054 C 179.398 4.27935 -4.36251 0
M  V30 2055 C 180.396 4.26685 -5.33318 0
M  V30 2056 O 180.084 4.53767 -6.63589 0
M  V30 2057 H 179.816 0.60208 -0.307368 0
M  V30 2058 H 182.37 1.44128 -1.46343 0
M  V30 2059 H 180.6 3.82752 -0.551177 0
M  V30 2060 H 182.289 3.94552 -0.953083 0
M  V30 2061 H 183.055 3.46826 -3.39023 0
M  V30 2062 H 178.934 4.00289 -2.2867 0
M  V30 2063 H 182.478 3.9664 -5.73866 0
M  V30 2064 H 178.375 4.50178 -4.62613 0
M  V30 2065 H 179.143 4.71422 -6.69107 0
M  V30 2066 N 181.806 0.884767 1.30421 0
M  V30 2067 C 183.083 0.423185 1.90967 0
M  V30 2068 C 183.463 -1.09605 1.80416 0
M  V30 2069 O 182.811 -1.93126 1.22125 0
M  V30 2070 C 183.021 0.921056 3.36627 0
M  V30 2071 C 184.369 0.955903 4.137 0
M  V30 2072 O 185.393 0.867706 3.4547 0
M  V30 2073 O 184.252 1.08614 5.35598 0
M  V30 2074 H 181.346 0.129369 0.816819 0
M  V30 2075 H 183.892 0.973653 1.3899 0
M  V30 2076 H 182.664 1.96489 3.3839 0
M  V30 2077 H 182.287 0.349741 3.96059 0
M  V30 2078 N 183.284 -1.43765 0.645699 0
M  V30 2079 C 184.7 -1.56509 0.312591 0
M  V30 2080 C 184.9 -1.6307 -1.18365 0
M  V30 2081 O 183.956 -1.58167 -1.96824 0
M  V30 2082 C 185.269 -2.82968 1.01733 0
M  V30 2083 C 186.817 -2.96701 0.996865 0
M  V30 2084 C 187.292 -4.25982 1.68236 0
M  V30 2085 N 188.783 -4.32829 1.64964 0
M  V30 2086 C 189.518 -5.31613 2.14885 0
M  V30 2087 N 189.014 -6.36718 2.73061 0
M  V30 2088 N 190.807 -5.23217 2.05428 0
M  V30 2089 H 182.958 -1.3775 1.61675 0
M  V30 2090 H 185.221 -0.661067 0.679481 0
M  V30 2091 H 184.927 -2.84156 2.0724 0
M  V30 2092 H 184.801 -3.72957 0.564177 0
M  V30 2093 H 187.188 -2.95058 -0.0497719 0
M  V30 2094 H 187.269 -2.08022 1.48865 0
M  V30 2095 H 186.913 -4.28386 2.72852 0
M  V30 2096 H 186.843 -5.13545 1.16529 0
M  V30 2097 H 189.334 -3.57493 1.22503 0
M  V30 2098 H 189.647 -7.08401 3.08848 0
M  V30 2099 H 187.992 -6.37362 2.77118 0
M  V30 2100 H 191.183 -4.40019 1.59689 0
M  V30 2101 H 191.356 -6.00045 2.44643 0
M  V30 2102 N 184.763 -0.387143 -1.52771 0
M  V30 2103 C 185.993 0.195585 -2.05672 0
M  V30 2104 C 186.401 1.41241 -1.25887 0
M  V30 2105 O 185.744 1.81265 -0.298081 0
M  V30 2106 C 185.806 0.632327 -3.53895 0
M  V30 2107 C 185.47 -0.470739 -4.54569 0
M  V30 2108 C 186.467 -1.32746 -5.02667 0
M  V30 2109 C 184.152 -0.637151 -4.98243 0
M  V30 2110 C 186.146 -2.33574 -5.93061 0
M  V30 2111 C 183.833 -1.64877 -5.88438 0
M  V30 2112 C 184.831 -2.49649 -6.35739 0
M  V30 2113 O 184.519 -3.49082 -7.24153 0
M  V30 2114 H 184.251 0.033658 -0.675162 0
M  V30 2115 H 186.805 -0.550221 -1.97893 0
M  V30 2116 H 185.035 1.43008 -3.59285 0
M  V30 2117 H 186.724 1.14048 -3.89548 0
M  V30 2118 H 187.49 -1.21019 -4.69659 0
M  V30 2119 H 183.369 0.0129567 -4.60998 0
M  V30 2120 H 186.913 -2.99777 -6.29904 0
M  V30 2121 H 182.81 -1.76643 -6.2086 0
M  V30 2122 H 183.578 -3.45065 -7.42208 0
M  V30 2123 N 186.241 1.57166 -0.116904 0
M  V30 2124 C 187.171 2.18222 0.830759 0
M  V30 2125 C 188.152 1.12167 1.27877 0
M  V30 2126 O 189.337 1.40394 1.34176 0
M  V30 2127 C 186.467 2.77996 2.08172 0
M  V30 2128 C 185.421 3.89614 1.77157 0
M  V30 2129 C 184.747 4.36187 3.09265 0
M  V30 2130 C 186.047 5.1181 1.04151 0
M  V30 2131 H 187.741 2.97664 0.321992 0
M  V30 2132 H 185.287 1.4318 0.153434 0
M  V30 2133 H 187.24 3.19366 2.74924 0
M  V30 2134 H 185.964 1.9584 2.6137 0
M  V30 2135 H 184.623 3.48816 1.12796 0
M  V30 2136 H 184.271 3.50893 3.60393 0
M  V30 2137 H 183.971 5.11455 2.89288 0
M  V30 2138 H 185.495 4.80207 3.77139 0
M  V30 2139 H 186.909 5.50214 1.61052 0
M  V30 2140 H 185.306 5.92648 0.942762 0
M  V30 2141 H 186.376 4.84892 0.0279022 0
M  V30 2142 N 187.719 -0.156864 1.56817 0
M  V30 2143 C 188.652 -1.22316 1.9265 0
M  V30 2144 C 189.63 -1.42059 0.791076 0
M  V30 2145 O 190.814 -1.56831 1.04576 0
M  V30 2146 C 187.941 -2.58375 2.18998 0
M  V30 2147 C 186.987 -2.55284 3.41661 0
M  V30 2148 S 187.82 -2.02946 4.95553 0
M  V30 2149 C 188.976 -3.40753 5.25013 0
M  V30 2150 H 189.209 -0.917403 2.82791 0
M  V30 2151 H 186.742 -0.362059 1.50095 0
M  V30 2152 H 188.7 -3.36677 2.34859 0
M  V30 2153 H 187.361 -2.86145 1.29538 0
M  V30 2154 H 186.554 -3.55418 3.57343 0
M  V30 2155 H 186.156 -1.85086 3.24991 0
M  V30 2156 H 188.448 -4.36819 5.17876 0
M  V30 2157 H 189.391 -3.29933 6.26538 0
M  V30 2158 H 189.799 -3.37433 4.52548 0
M  V30 2159 N 189.197 -1.51736 -0.425897 0
M  V30 2160 C 190.129 -1.70083 -1.53638 0
M  V30 2161 C 191.142 -0.581349 -1.52066 0
M  V30 2162 O 192.331 -0.856017 -1.56635 0
M  V30 2163 C 189.431 -1.71078 -2.9255 0
M  V30 2164 C 188.604 -2.99795 -3.185 0
M  V30 2165 C 187.663 -2.92825 -4.37196 0
M  V30 2166 O 186.689 -3.66756 -4.35291 0
M  V30 2167 N 187.891 -2.0946 -5.41393 0
M  V30 2168 H 190.656 -2.65882 -1.383 0
M  V30 2169 H 188.217 -1.49765 -0.614988 0
M  V30 2170 H 190.209 -1.63969 -3.69995 0
M  V30 2171 H 188.779 -0.828242 -3.01428 0
M  V30 2172 H 187.999 -3.20684 -2.2925 0
M  V30 2173 H 189.287 -3.84977 -3.32671 0
M  V30 2174 H 188.685 -1.48792 -5.45781 0
M  V30 2175 H 187.242 -2.08221 -6.17647 0
M  V30 2176 N 190.675 0.682077 -1.42076 0
M  V30 2177 C 191.605 1.80796 -1.47767 0
M  V30 2178 C 192.586 1.6677 -0.334954 0
M  V30 2179 O 193.771 1.863 -0.548264 0
M  V30 2180 C 190.901 3.19038 -1.37229 0
M  V30 2181 C 189.855 3.47789 -2.49453 0
M  V30 2182 C 189.181 4.8553 -2.23975 0
M  V30 2183 C 190.481 3.45411 -3.91776 0
M  V30 2184 H 192.175 1.7629 -2.41997 0
M  V30 2185 H 189.721 0.846721 -1.16476 0
M  V30 2186 H 191.674 3.97528 -1.39821 0
M  V30 2187 H 190.398 3.24204 -0.394907 0
M  V30 2188 H 189.057 2.71657 -2.46166 0
M  V30 2189 H 188.705 4.87337 -1.24547 0
M  V30 2190 H 188.405 5.0573 -2.99184 0
M  V30 2191 H 189.929 5.66312 -2.28304 0
M  V30 2192 H 191.343 4.13882 -3.96705 0
M  V30 2193 H 189.74 3.77145 -4.66778 0
M  V30 2194 H 190.81 2.44122 -4.18966 0
M  V30 2195 N 192.153 1.28127 0.917671 0
M  V30 2196 C 193.381 1.17892 1.70026 0
M  V30 2197 C 193.796 -0.262958 1.8696 0
M  V30 2198 O 193.153 -1.17811 1.3938 0
M  V30 2199 C 193.204 1.86872 3.09453 0
M  V30 2200 O 192.925 3.25428 2.93306 0
M  V30 2201 C 194.426 1.8289 4.03815 0
M  V30 2202 H 191.646 0.40942 0.531617 0
M  V30 2203 H 194.19 1.69181 1.14883 0
M  V30 2204 H 192.345 1.39464 3.61426 0
M  V30 2205 H 192.759 3.59918 3.81523 0
M  V30 2206 H 194.233 2.35751 4.99125 0
M  V30 2207 H 194.71 0.800412 4.31845 0
M  V30 2208 H 195.316 2.29959 3.57769 0
M  V30 2209 N 193.631 -1.12557 1.10312 0
M  V30 2210 C 195.047 -1.36036 0.834649 0
M  V30 2211 C 195.247 -1.93946 -0.546539 0
M  V30 2212 O 194.303 -2.16484 -1.29966 0
M  V30 2213 C 195.616 -2.30312 1.9333 0
M  V30 2214 C 197.164 -2.43906 1.9616 0
M  V30 2215 C 197.639 -3.41496 3.05195 0
M  V30 2216 N 199.13 -3.49053 3.04494 0
M  V30 2217 C 199.865 -4.24471 3.85502 0
M  V30 2218 N 199.361 -5.02966 4.76442 0
M  V30 2219 N 201.154 -4.19864 3.73725 0
M  V30 2220 H 193.305 -0.733246 1.99342 0
M  V30 2221 H 195.568 -0.385234 0.866198 0
M  V30 2222 H 195.274 -1.94933 2.92735 0
M  V30 2223 H 195.148 -3.30421 1.81939 0
M  V30 2224 H 197.535 -2.78567 0.973886 0
M  V30 2225 H 197.616 -1.4369 2.11629 0
M  V30 2226 H 197.26 -3.07565 4.04186 0
M  V30 2227 H 197.19 -4.41539 2.86968 0
M  V30 2228 H 199.681 -2.93053 2.38596 0
M  V30 2229 H 199.994 -5.57846 5.34815 0
M  V30 2230 H 198.339 -5.02167 4.80472 0
M  V30 2231 H 201.53 -3.57623 3.02032 0
M  V30 2232 H 201.703 -4.78386 4.37093 0
M  V30 2233 N 195.109 -0.891671 -1.2995 0
M  V30 2234 C 196.041 -0.320695 -2.26945 0
M  V30 2235 C 197.054 0.528497 -1.53983 0
M  V30 2236 O 198.243 0.346959 -1.75096 0
M  V30 2237 C 195.343 0.562066 -3.34207 0
M  V30 2238 C 194.516 -0.259576 -4.36629 0
M  V30 2239 C 193.575 0.554739 -5.23268 0
M  V30 2240 O 192.601 -0.0249311 -5.69195 0
M  V30 2241 N 193.803 1.8625 -5.4981 0
M  V30 2242 H 196.568 -1.15432 -2.76578 0
M  V30 2243 H 194.129 -0.755336 -1.432 0
M  V30 2244 H 196.121 1.11304 -3.89093 0
M  V30 2245 H 194.691 1.29637 -2.84452 0
M  V30 2246 H 193.911 -0.991986 -3.81514 0
M  V30 2247 H 195.199 -0.822564 -5.02107 0
M  V30 2248 H 194.597 2.35628 -5.14292 0
M  V30 2249 H 193.154 2.36078 -6.07545 0
M  V30 2250 N 196.587 1.43421 -0.653314 0
M  V30 2251 C 197.519 2.29071 0.0769134 0
M  V30 2252 C 198.532 1.42513 0.787017 0
M  V30 2253 O 199.721 1.66449 0.644757 0
M  V30 2254 C 196.821 3.19436 1.13199 0
M  V30 2255 C 195.994 4.34533 0.500006 0
M  V30 2256 C 195.053 5.05771 1.45198 0
M  V30 2257 O 194.079 5.61037 0.960538 0
M  V30 2258 N 195.281 5.0928 2.78594 0
M  V30 2259 H 198.046 2.92382 -0.658235 0
M  V30 2260 H 195.607 1.54112 -0.496104 0
M  V30 2261 H 197.599 3.63958 1.76964 0
M  V30 2262 H 196.169 2.57724 1.7691 0
M  V30 2263 H 195.389 3.92925 -0.316738 0
M  V30 2264 H 196.677 5.08766 0.0588345 0
M  V30 2265 H 196.075 4.65751 3.2108 0
M  V30 2266 H 194.632 5.57519 3.37662 0
M  V30 2267 N 198.065 0.39524 1.52563 0
M  V30 2268 C 199.476 -0.0774719 1.86539 0
M  V30 2269 C 199.827 -1.45641 1.31466 0
M  V30 2270 O 198.952 -2.06459 0.648367 0
M  V30 2271 C 199.547 -0.147356 3.38479 0
M  V30 2272 C 198.106 -0.564373 3.72145 0
M  V30 2273 C 197.253 0.269919 2.75983 0
M  V30 2274 H 200.204 0.612876 1.46388 0
M  V30 2275 H 200.225 -0.965343 3.68051 0
M  V30 2276 H 199.737 0.856387 3.78534 0
M  V30 2277 H 197.838 -1.57527 3.37663 0
M  V30 2278 H 197.951 -0.318402 4.78041 0
M  V30 2279 H 196.315 -0.265696 2.5331 0
M  V30 2280 H 197.098 1.27175 3.18875 0
M  V30 2281 N 199.544 -1.57102 0.125237 0
M  V30 2282 C 200.491 -2.15641 -0.822655 0
M  V30 2283 C 201.461 -1.08313 -1.25927 0
M  V30 2284 O 202.646 -1.36251 -1.33567 0
M  V30 2285 C 199.786 -2.76504 -2.06494 0
M  V30 2286 C 198.899 -3.98158 -1.67612 0
M  V30 2287 C 198.034 -4.47088 -2.86854 0
M  V30 2288 C 197.073 -5.6126 -2.44242 0
M  V30 2289 N 196.21 -6.04905 -3.56419 0
M  V30 2290 H 201.05 -2.96313 -0.316625 0
M  V30 2291 H 198.587 -1.46388 -0.144588 0
M  V30 2292 H 200.545 -3.09925 -2.79289 0
M  V30 2293 H 199.175 -1.98512 -2.54545 0
M  V30 2294 H 198.227 -3.70858 -0.846661 0
M  V30 2295 H 199.539 -4.80934 -1.32301 0
M  V30 2296 H 198.693 -4.82451 -3.67867 0
M  V30 2297 H 197.432 -3.63275 -3.25396 0
M  V30 2298 H 196.437 -5.25495 -1.61663 0
M  V30 2299 H 197.662 -6.46843 -2.0681 0
M  V30 2300 H 195.608 -5.24032 -3.94623 0
M  V30 2301 H 195.525 -6.82552 -3.25051 0
M  V30 2302 H 196.793 -6.44907 -4.37853 0
M  V30 2303 N 201.022 0.148545 -1.56898 0
M  V30 2304 C 202.271 0.85984 -1.82454 0
M  V30 2305 C 202.584 1.82406 -0.706229 0
M  V30 2306 O 203.79 2.57938 -0.847349 0
M  V30 2307 C 202.246 1.57967 -3.2338 0
M  V30 2308 C 201.854 0.65794 -4.43142 0
M  V30 2309 C 203.598 2.27784 -3.58211 0
M  V30 2310 C 201.505 1.3793 -5.75091 0
M  V30 2311 H 200.435 0.324834 -0.68044 0
M  V30 2312 H 203.086 0.112588 -1.83154 0
M  V30 2313 H 201.468 2.37249 -3.17063 0
M  V30 2314 H 202.642 -0.0995497 -4.60692 0
M  V30 2315 H 200.957 0.0682643 -4.16344 0
M  V30 2316 H 203.554 2.8239 -4.54048 0
M  V30 2317 H 203.897 3.04204 -2.84193 0
M  V30 2318 H 204.43 1.55421 -3.66182 0
M  V30 2319 H 201.169 0.656982 -6.52199 0
M  V30 2320 H 200.689 2.10954 -5.61479 0
M  V30 2321 H 202.368 1.92063 -6.17835 0
M  V30 2322 N 202.5 1.5196 0.417844 0
M  V30 2323 C 203.748 1.65263 1.16329 0
M  V30 2324 C 204.069 0.380634 1.91249 0
M  V30 2325 O 203.339 -0.604214 1.86349 0
M  V30 2326 H 201.919 0.60912 0.432414 0
M  V30 2327 H 204.581 1.88969 0.477162 0
M  V30 2328 H 203.677 2.4896 1.88217 0
M  V30 2329 N 203.978 -0.674533 1.42435 0
M  V30 2330 C 205.227 -1.43034 1.42212 0
M  V30 2331 C 205.54 -1.95555 0.0420788 0
M  V30 2332 O 206.746 -2.71374 -0.0827558 0
M  V30 2333 C 205.202 -2.58748 2.50155 0
M  V30 2334 C 204.81 -2.12925 3.94166 0
M  V30 2335 C 206.554 -3.36257 2.59098 0
M  V30 2336 C 204.461 -3.25723 4.93618 0
M  V30 2337 H 203.391 -0.537345 0.528939 0
M  V30 2338 H 206.042 -0.73024 1.68344 0
M  V30 2339 H 204.424 -3.31128 2.17188 0
M  V30 2340 H 205.598 -1.47697 4.36488 0
M  V30 2341 H 203.913 -1.48354 3.89076 0
M  V30 2342 H 206.51 -4.20264 3.30578 0
M  V30 2343 H 206.853 -3.82866 1.63461 0
M  V30 2344 H 207.386 -2.70947 2.9126 0
M  V30 2345 H 204.125 -2.84105 5.90732 0
M  V30 2346 H 203.645 -3.89732 4.55926 0
M  V30 2347 H 205.324 -3.91186 5.15347 0
M  V30 2348 N 205.456 -1.28612 -0.910864 0
M  V30 2349 C 206.419 -1.12803 -1.9952 0
M  V30 2350 C 207.419 -0.0668264 -1.60661 0
M  V30 2351 O 208.609 -0.312847 -1.71368 0
M  V30 2352 C 205.741 -0.72254 -3.33155 0
M  V30 2353 H 206.934 -2.09109 -2.14973 0
M  V30 2354 H 204.487 -1.11639 -1.09391 0
M  V30 2355 H 205.222 0.241152 -3.23402 0
M  V30 2356 H 205.007 -1.48916 -3.62721 0
M  V30 2357 H 206.497 -0.634666 -4.12749 0
M  V30 2358 N 206.934 1.1197 -1.10907 0
M  V30 2359 C 208.164 1.8713 -0.875553 0
M  V30 2360 C 208.572 1.8016 0.577843 0
M  V30 2361 O 207.915 1.17699 1.41042 0
M  V30 2362 C 207.977 3.37005 -1.2517 0
M  V30 2363 C 207.641 3.67748 -2.71313 0
M  V30 2364 C 208.638 3.65698 -3.69542 0
M  V30 2365 C 206.323 3.96928 -3.07821 0
M  V30 2366 C 208.317 3.92395 -5.023 0
M  V30 2367 C 206.004 4.23284 -4.40765 0
M  V30 2368 C 207.002 4.21005 -5.37814 0
M  V30 2369 O 206.69 4.46704 -6.68364 0
M  V30 2370 H 206.422 0.598786 -0.313737 0
M  V30 2371 H 208.976 1.42568 -1.47863 0
M  V30 2372 H 207.206 3.82146 -0.591741 0
M  V30 2373 H 208.895 3.93519 -0.994877 0
M  V30 2374 H 209.661 3.43211 -3.42682 0
M  V30 2375 H 205.54 3.97841 -2.32902 0
M  V30 2376 H 209.084 3.90531 -5.78041 0
M  V30 2377 H 204.981 4.45246 -4.67361 0
M  V30 2378 H 205.749 4.64299 -6.74069 0
M  V30 2379 N 208.412 0.89855 1.29475 0
M  V30 2380 C 209.637 0.538561 2.00285 0
M  V30 2381 C 210.062 -0.869135 1.66816 0
M  V30 2382 O 209.42 -1.57831 0.892145 0
M  V30 2383 C 209.468 0.736475 3.52999 0
M  V30 2384 O 208.572 -0.211537 4.11857 0
M  V30 2385 H 207.913 0.210563 0.62973 0
M  V30 2386 H 210.443 1.20982 1.64998 0
M  V30 2387 H 210.453 0.640685 4.02938 0
M  V30 2388 H 209.128 1.76276 3.76696 0
M  V30 2389 H 207.705 -0.0682991 3.72837 0
M  V30 2390 N 209.89 -1.43072 0.660911 0
M  V30 2391 C 211.137 -2.01721 0.177445 0
M  V30 2392 C 211.465 -1.5218 -1.21126 0
M  V30 2393 O 210.72 -0.708659 -1.82419 0
M  V30 2394 C 211.019 -3.57103 0.145563 0
M  V30 2395 C 210.685 -4.26021 1.47705 0
M  V30 2396 C 209.347 -4.44563 1.84165 0
M  V30 2397 C 211.699 -4.64983 2.35458 0
M  V30 2398 C 209.027 -4.99334 3.0803 0
M  V30 2399 C 211.379 -5.21127 3.58622 0
M  V30 2400 C 210.043 -5.37884 3.95268 0
M  V30 2401 H 209.313 -0.73815 0.0649317 0
M  V30 2402 H 211.96 -1.71446 0.853144 0
M  V30 2403 H 210.265 -3.86965 -0.61361 0
M  V30 2404 H 211.962 -4.00248 -0.2455 0
M  V30 2405 H 208.552 -4.11939 1.18339 0
M  V30 2406 H 212.736 -4.50343 2.08579 0
M  V30 2407 H 207.992 -5.10493 3.36462 0
M  V30 2408 H 212.166 -5.50262 4.26831 0
M  V30 2409 H 209.793 -5.80089 4.91325 0
M  V30 2410 N 211.368 -0.403325 -1.52352 0
M  V30 2411 C 212.3 0.4603 -2.2453 0
M  V30 2412 C 213.313 1.01505 -1.27282 0
M  V30 2413 O 214.502 0.914982 -1.53266 0
M  V30 2414 C 211.602 1.65208 -2.95905 0
M  V30 2415 C 210.775 1.22224 -4.19976 0
M  V30 2416 C 209.834 2.28028 -4.74226 0
M  V30 2417 O 208.86 1.88857 -5.36956 0
M  V30 2418 N 210.062 3.6012 -4.55295 0
M  V30 2419 H 212.827 -0.158156 -2.99282 0
M  V30 2420 H 210.388 -0.230402 -1.60252 0
M  V30 2421 H 212.38 2.35541 -3.29093 0
M  V30 2422 H 210.95 2.17658 -2.24374 0
M  V30 2423 H 210.17 0.34725 -3.92668 0
M  V30 2424 H 211.458 0.911924 -5.00561 0
M  V30 2425 H 210.856 3.94698 -4.05253 0
M  V30 2426 H 209.413 4.26447 -4.92936 0
M  V30 2427 N 212.846 1.57033 -0.133567 0
M  V30 2428 C 213.793 2.16074 0.811208 0
M  V30 2429 C 214.763 1.08979 1.2535 0
M  V30 2430 O 215.948 1.36958 1.32843 0
M  V30 2431 C 213.088 2.77595 2.05024 0
M  V30 2432 C 212.201 3.99042 1.65498 0
M  V30 2433 C 211.336 4.48603 2.84479 0
M  V30 2434 C 210.375 5.62547 2.41262 0
M  V30 2435 N 209.512 6.06787 3.53206 0
M  V30 2436 H 214.352 2.96477 0.300906 0
M  V30 2437 H 211.889 1.46462 0.136822 0
M  V30 2438 H 213.847 3.11402 2.77642 0
M  V30 2439 H 212.477 1.99859 2.53488 0
M  V30 2440 H 211.529 3.71302 0.826981 0
M  V30 2441 H 212.841 4.81629 1.29748 0
M  V30 2442 H 211.995 4.84395 3.65303 0
M  V30 2443 H 210.734 3.64995 3.23465 0
M  V30 2444 H 209.739 5.26345 1.58874 0
M  V30 2445 H 210.964 6.47931 2.03377 0
M  V30 2446 H 208.91 5.26117 3.91838 0
M  V30 2447 H 208.827 6.84266 3.21427 0
M  V30 2448 H 210.095 6.4722 4.34427 0
M  V30 2449 N 214.325 -0.140222 1.56975 0
M  V30 2450 C 215.573 -0.850005 1.83356 0
M  V30 2451 C 215.894 -1.81399 0.71551 0
M  V30 2452 O 215.164 -1.94136 -0.262294 0
M  V30 2453 H 213.744 -0.316886 0.676456 0
M  V30 2454 H 216.406 -0.132608 1.94448 0
M  V30 2455 H 215.502 -1.40814 2.78528 0
M  V30 2456 N 215.803 -1.52179 -0.40978 0
M  V30 2457 C 217.08 -1.56769 -1.16974 0
M  V30 2458 C 217.46 -0.348322 -2.08206 0
M  V30 2459 O 216.808 0.664862 -2.18613 0
M  V30 2460 C 217.018 -2.89603 -1.9476 0
M  V30 2461 C 218.366 -3.42579 -2.50849 0
M  V30 2462 O 219.39 -2.91338 -2.04941 0
M  V30 2463 O 218.249 -4.32054 -3.34652 0
M  V30 2464 H 215.343 -0.631439 -0.534054 0
M  V30 2465 H 217.889 -1.64507 -0.416613 0
M  V30 2466 H 216.661 -3.698 -1.27921 0
M  V30 2467 H 216.284 -2.85155 -2.77079 0
M  V30 2468 N 217.281 0.66697 -1.42791 0
M  V30 2469 C 218.528 1.42699 -1.43678 0
M  V30 2470 C 218.856 1.94419 -0.0560425 0
M  V30 2471 O 218.111 1.7182 0.936831 0
M  V30 2472 C 218.41 2.6349 -2.4147 0
M  V30 2473 C 218.076 2.30267 -3.8767 0
M  V30 2474 C 216.738 2.20918 -4.27491 0
M  V30 2475 C 219.09 2.03435 -4.79858 0
M  V30 2476 C 216.418 1.82873 -5.57471 0
M  V30 2477 C 218.77 1.66892 -6.10188 0
M  V30 2478 C 217.434 1.56058 -6.49001 0
M  V30 2479 H 216.704 0.522171 -0.525755 0
M  V30 2480 H 219.351 0.759785 -1.75783 0
M  V30 2481 H 217.656 3.35279 -2.0272 0
M  V30 2482 H 219.353 3.21684 -2.39417 0
M  V30 2483 H 215.943 2.38449 -3.56146 0
M  V30 2484 H 220.127 2.09586 -4.49875 0
M  V30 2485 H 215.383 1.7306 -5.86396 0
M  V30 2486 H 219.557 1.45157 -6.81104 0
M  V30 2487 H 217.184 1.26348 -7.49627 0
M  V30 2488 N 218.759 1.29093 0.90403 0
M  V30 2489 C 219.689 1.16401 2.02418 0
M  V30 2490 C 220.67 0.0593085 1.69997 0
M  V30 2491 O 221.855 0.238021 1.92736 0
M  V30 2492 C 218.985 0.835233 3.37107 0
M  V30 2493 C 217.939 1.89578 3.83724 0
M  V30 2494 C 217.265 1.42041 5.15489 0
M  V30 2495 C 218.565 3.30394 4.04521 0
M  V30 2496 H 220.259 2.10109 2.13295 0
M  V30 2497 H 217.805 1.01157 1.02486 0
M  V30 2498 H 219.758 0.733169 4.14973 0
M  V30 2499 H 218.482 -0.137543 3.2631 0
M  V30 2500 H 217.141 1.98715 3.08071 0
M  V30 2501 H 216.789 0.436426 5.01103 0
M  V30 2502 H 216.489 2.12964 5.4765 0
M  V30 2503 H 218.013 1.33176 5.959 0
M  V30 2504 H 219.427 3.24123 4.72882 0
M  V30 2505 H 217.824 3.99237 4.48029 0
M  V30 2506 H 218.894 3.73692 3.09002 0
M  V30 2507 N 220.237 -1.11381 1.11499 0
M  V30 2508 C 221.2 -2.15622 0.777153 0
M  V30 2509 C 222.2 -1.59504 -0.203779 0
M  V30 2510 O 223.39 -1.74188 0.020782 0
M  V30 2511 C 220.522 -3.40556 0.153116 0
M  V30 2512 H 221.715 -2.47021 1.70061 0
M  V30 2513 H 219.268 -1.26577 0.916952 0
M  V30 2514 H 220.003 -3.14767 -0.780536 0
M  V30 2515 H 219.788 -3.8257 0.859238 0
M  V30 2516 H 221.278 -4.17546 -0.0671044 0
M  V30 2517 N 221.715 -0.905404 -1.28997 0
M  V30 2518 C 222.992 -0.453513 -1.9027 0
M  V30 2519 C 223.372 1.06721 -1.82137 0
M  V30 2520 O 222.72 1.91159 -1.25182 0
M  V30 2521 C 222.93 -0.974494 -3.35119 0
M  V30 2522 C 224.278 -1.0216 -4.12127 0
M  V30 2523 O 225.302 -0.922557 -3.44046 0
M  V30 2524 O 224.161 -1.17121 -5.33802 0
M  V30 2525 H 221.255 -0.142347 -0.814657 0
M  V30 2526 H 223.801 -0.995642 -1.37423 0
M  V30 2527 H 222.573 -2.01848 -3.35221 0
M  V30 2528 H 222.196 -0.412706 -3.95452 0
M  V30 2529 N 223.193 1.4272 -0.668489 0
M  V30 2530 C 224.604 1.84793 -0.266151 0
M  V30 2531 C 224.955 1.55959 1.19043 0
M  V30 2532 O 224.08 1.01622 1.91055 0
M  V30 2533 C 224.675 3.35436 -0.476271 0
M  V30 2534 C 223.234 3.76182 -0.128113 0
M  V30 2535 C 222.381 2.66344 -0.771777 0
M  V30 2536 H 225.332 1.32656 -0.871098 0
M  V30 2537 H 225.353 3.79515 0.273561 0
M  V30 2538 H 224.865 3.5639 -1.53647 0
M  V30 2539 H 222.966 3.60836 0.928891 0
M  V30 2540 H 223.079 4.75766 -0.564231 0
M  V30 2541 H 221.443 2.53885 -0.203652 0
M  V30 2542 H 222.226 2.90123 -1.83531 0
M  V30 2543 N 224.671 0.411399 1.52136 0
M  V30 2544 C 225.917 -0.156262 2.02799 0
M  V30 2545 C 226.272 -1.42613 1.29149 0
M  V30 2546 O 225.565 -1.87592 0.389839 0
M  V30 2547 C 225.759 -0.455872 3.54481 0
M  V30 2548 C 225.588 0.783404 4.42824 0
M  V30 2549 C 224.358 1.30928 4.88043 0
M  V30 2550 C 226.556 1.66217 4.86699 0
M  V30 2551 N 224.538 2.5038 5.6052 0
M  V30 2552 C 225.909 2.70292 5.5798 0
M  V30 2553 C 227.964 1.67966 4.68713 0
M  V30 2554 C 226.667 3.7603 6.13184 0
M  V30 2555 C 228.693 2.72624 5.24815 0
M  V30 2556 C 228.055 3.7542 5.9602 0
M  V30 2557 H 224.154 -0.0186886 0.781777 0
M  V30 2558 H 226.738 0.566255 1.86284 0
M  V30 2559 H 224.909 -1.14743 3.71064 0
M  V30 2560 H 226.641 -1.01261 3.91827 0
M  V30 2561 H 223.396 0.866977 4.65597 0
M  V30 2562 H 223.82 3.10881 6.014 0
M  V30 2563 H 228.462 0.898312 4.13147 0
M  V30 2564 H 226.18 4.55019 6.6782 0
M  V30 2565 H 229.766 2.74887 5.12765 0
M  V30 2566 H 228.646 4.55073 6.38654 0
M  V30 2567 N 226.149 -1.5696 0.141893 0
M  V30 2568 C 227.426 -1.87553 -0.555281 0
M  V30 2569 C 227.806 -1.04699 -1.83306 0
M  V30 2570 O 227.154 -0.132346 -2.28116 0
M  V30 2571 C 227.364 -3.39093 -0.825664 0
M  V30 2572 C 228.712 -4.08199 -1.16869 0
M  V30 2573 O 229.736 -3.44242 -0.915185 0
M  V30 2574 O 228.595 -5.21139 -1.6455 0
M  V30 2575 H 225.689 -0.777188 -0.282679 0
M  V30 2576 H 228.235 -1.68763 0.17812 0
M  V30 2577 H 227.007 -3.91221 0.0788633 0
M  V30 2578 H 226.63 -3.63393 -1.61343 0
M  V30 2579 N 227.627 0.131896 -1.57047 0
M  V30 2580 C 228.873 0.843179 -1.84441 0
M  V30 2581 C 229.206 1.80129 -0.725749 0
M  V30 2582 O 228.481 1.92624 0.269469 0
M  V30 2583 C 228.764 1.60442 -3.22382 0
M  V30 2584 C 228.617 0.666782 -4.4483 0
M  V30 2585 C 229.936 2.56354 -3.5773 0
M  V30 2586 H 227.055 0.305081 -0.670891 0
M  V30 2587 H 229.697 0.107839 -1.89694 0
M  V30 2588 H 227.847 2.23128 -3.18035 0
M  V30 2589 H 229.519 0.0497646 -4.61273 0
M  V30 2590 H 227.762 -0.022609 -4.33794 0
M  V30 2591 H 228.433 1.23579 -5.37989 0
M  V30 2592 H 230.909 2.0378 -3.62785 0
M  V30 2593 H 229.785 3.06657 -4.5525 0
M  V30 2594 H 230.046 3.38419 -2.84473 0
M  V30 2595 N 229.106 1.52395 0.401703 0
M  V30 2596 C 230.038 1.72505 1.50912 0
M  V30 2597 C 231.051 0.605468 1.51122 0
M  V30 2598 O 232.24 0.880828 1.55254 0
M  V30 2599 C 229.34 1.75711 2.89791 0
M  V30 2600 C 228.513 3.04824 3.1369 0
M  V30 2601 C 227.572 2.99743 4.32482 0
M  V30 2602 O 226.598 3.73635 4.29402 0
M  V30 2603 N 227.8 2.18047 5.37992 0
M  V30 2604 H 230.565 2.68049 1.34052 0
M  V30 2605 H 228.126 1.50724 0.591084 0
M  V30 2606 H 230.118 1.69834 3.6734 0
M  V30 2607 H 228.688 0.876092 3.00072 0
M  V30 2608 H 227.908 3.2429 2.24119 0
M  V30 2609 H 229.196 3.90221 3.26504 0
M  V30 2610 H 228.594 1.57456 5.43345 0
M  V30 2611 H 227.151 2.18021 6.14256 0
M  V30 2612 N 230.584 -0.659388 1.43143 0
M  V30 2613 C 231.514 -1.78422 1.50625 0
M  V30 2614 C 232.495 -1.66216 0.361443 0
M  V30 2615 O 233.68 -1.85404 0.577834 0
M  V30 2616 C 230.81 -3.16815 1.42287 0
M  V30 2617 C 229.764 -3.43777 2.54954 0
M  V30 2618 C 229.09 -4.81905 2.31671 0
M  V30 2619 C 230.39 -3.39134 3.97222 0
M  V30 2620 H 232.084 -1.72417 2.44771 0
M  V30 2621 H 229.63 -0.828084 1.17808 0
M  V30 2622 H 231.583 -3.95253 1.46127 0
M  V30 2623 H 230.307 -3.23534 0.446435 0
M  V30 2624 H 228.966 -2.67707 2.50457 0
M  V30 2625 H 228.614 -4.85294 1.32284 0
M  V30 2626 H 228.314 -5.00906 3.07192 0
M  V30 2627 H 229.838 -5.62609 2.37284 0
M  V30 2628 H 231.252 -4.07518 4.03239 0
M  V30 2629 H 229.649 -3.69671 4.72719 0
M  V30 2630 H 230.719 -2.37426 4.22797 0
M  V30 2631 N 232.062 -1.29571 -0.897171 0
M  V30 2632 C 233.339 -1.08365 -1.62839 0
M  V30 2633 C 233.719 0.371331 -2.07808 0
M  V30 2634 O 233.067 1.3606 -1.83576 0
M  V30 2635 C 233.277 -2.0735 -2.80726 0
M  V30 2636 C 234.625 -2.38406 -3.51351 0
M  V30 2637 O 235.649 -2.05564 -2.90898 0
M  V30 2638 O 234.508 -2.9453 -4.60341 0
M  V30 2639 H 231.602 -0.415345 -0.715134 0
M  V30 2640 H 234.148 -1.40952 -0.945018 0
M  V30 2641 H 232.92 -3.05339 -2.44711 0
M  V30 2642 H 232.543 -1.75507 -3.56767 0
M  V30 2643 N 233.54 1.10788 -1.12088 0
M  V30 2644 C 234.47 2.19083 -0.807755 0
M  V30 2645 C 235.451 1.6858 0.226859 0
M  V30 2646 O 236.636 1.93997 0.0888475 0
M  V30 2647 C 233.766 3.46344 -0.257576 0
M  V30 2648 C 232.72 4.101 -1.22483 0
M  V30 2649 C 232.046 5.32016 -0.535052 0
M  V30 2650 C 233.346 4.54236 -2.57811 0
M  V30 2651 H 235.04 2.45534 -1.71328 0
M  V30 2652 H 232.586 1.1801 -0.825205 0
M  V30 2653 H 234.539 4.21392 -0.0262679 0
M  V30 2654 H 233.263 3.19373 0.683278 0
M  V30 2655 H 231.922 3.37054 -1.44189 0
M  V30 2656 H 231.57 5.01319 0.410827 0
M  V30 2657 H 231.27 5.75625 -1.18024 0
M  V30 2658 H 232.794 6.09799 -0.312695 0
M  V30 2659 H 234.208 5.20575 -2.40155 0
M  V30 2660 H 232.605 5.08682 -3.18375 0
M  V30 2661 H 233.675 3.6734 -3.16528 0
M  V30 2662 N 235.018 0.912232 1.28515 0
M  V30 2663 C 236.267 0.540504 1.94323 0
M  V30 2664 C 236.58 -0.920044 1.72611 0
M  V30 2665 O 237.786 -1.39986 2.32629 0
M  V30 2666 C 236.242 0.915803 3.48053 0
M  V30 2667 C 235.85 2.39598 3.78546 0
M  V30 2668 C 237.594 0.614588 4.20027 0
M  V30 2669 C 235.501 2.71148 5.25578 0
M  V30 2670 H 234.431 0.198418 0.727424 0
M  V30 2671 H 237.082 1.11094 1.46049 0
M  V30 2672 H 235.464 0.274168 3.9505 0
M  V30 2673 H 236.638 3.08422 3.42364 0
M  V30 2674 H 234.953 2.66749 3.1974 0
M  V30 2675 H 237.55 0.827002 5.28266 0
M  V30 2676 H 237.893 -0.447531 4.13887 0
M  V30 2677 H 238.426 1.21462 3.78803 0
M  V30 2678 H 235.165 3.76207 5.36794 0
M  V30 2679 H 234.685 2.0696 5.62963 0
M  V30 2680 H 236.364 2.58072 5.93302 0
M  V30 2681 N 236.496 -1.42363 0.676048 0
M  V30 2682 C 237.745 -2.00745 0.196037 0
M  V30 2683 C 238.058 -1.54083 -1.20489 0
M  V30 2684 O 239.264 -2.04891 -1.78134 0
M  V30 2685 C 237.72 -3.58651 0.299616 0
M  V30 2686 C 237.328 -4.143 1.70468 0
M  V30 2687 C 239.072 -4.24326 -0.121619 0
M  V30 2688 C 236.979 -5.64574 1.76096 0
M  V30 2689 H 235.909 -0.750787 0.0695301 0
M  V30 2690 H 238.56 -1.63072 0.841412 0
M  V30 2691 H 236.942 -3.93833 -0.413673 0
M  V30 2692 H 238.116 -3.90575 2.44515 0
M  V30 2693 H 236.431 -3.61081 2.07387 0
M  V30 2694 H 239.028 -5.34607 -0.0997362 0
M  V30 2695 H 239.371 -3.99897 -1.15708 0
M  V30 2696 H 239.904 -3.94108 0.540706 0
M  V30 2697 H 236.643 -5.93804 2.77628 0
M  V30 2698 H 236.163 -5.90286 1.06406 0
M  V30 2699 H 237.842 -6.29013 1.51496 0
M  V30 2700 N 237.974 -0.419461 -1.51915 0
M  V30 2701 C 238.922 0.415502 -2.28859 0
M  V30 2702 C 239.916 1.03674 -1.3397 0
M  V30 2703 O 241.122 0.973757 -1.51387 0
M  V30 2704 H 237.497 0.152786 -0.736315 0
M  V30 2705 H 239.468 -0.254531 -2.97312 0
M  V30 2706 C 238.217 1.51425 -3.12995 0
M  V30 2707 H 237.54 1.04556 -3.85886 0
M  V30 2708 H 238.98 2.07208 -3.6992 0
M  V30 2709 C 237.439 2.48745 -2.27217 0
M  V30 2710 O 237.969 3.52871 -1.9195 0
M  V30 2711 N 236.175 2.19202 -1.90785 0
M  V30 2712 H 235.722 1.34556 -2.19664 0
M  V30 2713 H 235.68 2.84561 -1.33687 0
M  V30 2714 N 239.452 1.56882 -0.150215 0
M  V30 2715 C 240.729 1.87844 0.545327 0
M  V30 2716 C 241.109 1.0567 1.82749 0
M  V30 2717 O 240.457 0.144442 2.28043 0
M  V30 2718 C 240.667 3.39526 0.80767 0
M  V30 2719 C 242.015 4.08814 1.14703 0
M  V30 2720 O 243.039 3.44723 0.896917 0
M  V30 2721 O 241.898 5.22004 1.61784 0
M  V30 2722 H 238.992 0.778677 0.278553 0
M  V30 2723 H 241.538 1.68666 -0.187068 0
M  V30 2724 H 240.31 3.91173 -0.0996096 0
M  V30 2725 H 239.933 3.64243 1.59413 0
M  V30 2726 N 240.93 -0.123565 1.57115 0
M  V30 2727 C 241.84 -1.17074 2.033 0
M  V30 2728 C 242.856 -1.4561 0.952559 0
M  V30 2729 O 244.032 -1.56817 1.26374 0
M  V30 2730 C 241.097 -2.47857 2.42421 0
M  V30 2731 C 240.158 -2.26758 3.64526 0
M  V30 2732 C 239.391 -3.51305 4.01771 0
M  V30 2733 O 239.614 -4.5843 3.39409 0
M  V30 2734 O 238.548 -3.42578 4.94898 0
M  V30 2735 H 242.374 -0.808555 2.92739 0
M  V30 2736 H 239.959 -0.334027 1.45618 0
M  V30 2737 H 241.841 -3.2492 2.68338 0
M  V30 2738 H 240.516 -2.83558 1.5613 0
M  V30 2739 H 239.423 -1.47569 3.43765 0
M  V30 2740 H 240.756 -1.95963 4.51508 0
M  V30 2741 O 242.447 -1.59262 -0.267957 0
M  V30 2742 H 243.138 -1.70845 -0.912779 0
M  V30 END ATOM
M  V30 BEGIN BOND
M  V30 END BOND
M  V30 END CTAB
M  END
$$$$
