drugbank_target|P75792 Sugar phosphatase YbiV (DB04156)
 OpenBabel12092119573D

  0  0  0     0  0            999 V3000
M  V30 BEGIN CTAB
M  V30 COUNTS 4281 4325 0 0 0
M  V30 BEGIN ATOM
M  V30 1 H -0.908 1.98254 -0.117106 0
M  V30 2 N 0 1.576 0 0
M  V30 3 C 0.933 2.03868 1.02534 0
M  V30 4 C 1.911 0.928543 1.3348 0
M  V30 5 O 3.095 1.19667 1.45644 0
M  V30 6 C 0.222 2.43627 2.35294 0
M  V30 7 C -0.732 3.65373 2.2001 0
M  V30 8 S 0.101 5.13292 1.52614 0
M  V30 9 C 1.257 5.56322 2.86805 0
M  V30 10 H 1.49 2.90518 0.631377 0
M  V30 11 H -0.977 1.52953 0.210867 0
M  V30 12 H 0.981 2.67203 3.11629 0
M  V30 13 H -0.358 1.57376 2.7183 0
M  V30 14 H -1.165 3.90944 3.18086 0
M  V30 15 H -1.563 3.418 1.51819 0
M  V30 16 H 0.729 5.58782 3.83104 0
M  V30 17 H 1.672 6.56266 2.65933 0
M  V30 18 H 2.08 4.83886 2.90714 0
M  V30 19 N 1.4781 -0.272755 1.55222 0
M  V30 20 C 2.7031 -1.02683 1.80197 0
M  V30 21 C 3.1281 -1.79142 0.573551 0
M  V30 22 O 2.4861 -1.74917 -0.476849 0
M  V30 23 C 2.5341 -1.9609 3.02624 0
M  V30 24 O 1.6381 -3.04863 2.77727 0
M  V30 25 H 0.9791 -0.293557 0.595584 0
M  V30 26 H 3.5091 -0.30159 2.02365 0
M  V30 27 H 3.5191 -2.38039 3.31363 0
M  V30 28 H 2.1941 -1.39851 3.91682 0
M  V30 29 H 0.7711 -2.67228 2.60084 0
M  V30 30 N 2.9562 -1.48159 -0.537278 0
M  V30 31 C 4.2022 -1.56035 -1.29541 0
M  V30 32 C 4.5352 -0.230377 -1.92829 0
M  V30 33 O 3.8102 0.762952 -1.78911 0
M  V30 34 C 4.0932 -2.69323 -2.39034 0
M  V30 35 C 3.9462 -4.12002 -1.80485 0
M  V30 36 C 5.2652 -2.78408 -3.40847 0
M  V30 37 H 2.3842 -0.567992 -0.469632 0
M  V30 38 H 5.0262 -1.80302 -0.599277 0
M  V30 39 H 3.1762 -2.48763 -2.98412 0
M  V30 40 H 4.8482 -4.43981 -1.25215 0
M  V30 41 H 3.0912 -4.19344 -1.11055 0
M  V30 42 H 3.7622 -4.87077 -2.59731 0
M  V30 43 H 6.2382 -2.97012 -2.91416 0
M  V30 44 H 5.1142 -3.59416 -4.14863 0
M  V30 45 H 5.3752 -1.86269 -4.00944 0
M  V30 46 N 4.4343 0.785586 -1.36625 0
M  V30 47 C 5.3813 1.89838 -1.31264 0
M  V30 48 C 6.3513 1.65115 -0.180633 0
M  V30 49 O 7.5363 1.87222 -0.36777 0
M  V30 50 C 4.6763 3.26706 -1.11163 0
M  V30 51 C 3.7893 3.63476 -2.33472 0
M  V30 52 C 2.9243 4.89481 -2.06353 0
M  V30 53 C 1.9633 5.18941 -3.24602 0
M  V30 54 N 1.1003 6.36131 -2.97123 0
M  V30 55 H 5.9403 1.93756 -2.26413 0
M  V30 56 H 3.4773 0.947454 -1.12524 0
M  V30 57 H 5.4353 4.05639 -0.975337 0
M  V30 58 H 4.0653 3.222 -0.196674 0
M  V30 59 H 3.1173 2.79636 -2.57891 0
M  V30 60 H 4.4293 3.81193 -3.21704 0
M  V30 61 H 3.5833 5.76288 -1.89675 0
M  V30 62 H 2.3223 4.73841 -1.15437 0
M  V30 63 H 1.3273 4.30615 -3.41834 0
M  V30 64 H 2.5523 5.36498 -4.16349 0
M  V30 65 H 0.4983 6.21875 -2.08823 0
M  V30 66 H 0.4153 6.54198 -3.78894 0
M  V30 67 H 1.6833 7.2591 -2.84033 0
M  V30 68 N 5.9124 1.20967 1.01018 0
M  V30 69 C 7.1584 1.02526 1.74975 0
M  V30 70 C 7.4914 -0.4408 1.89131 0
M  V30 71 O 6.7664 -1.32718 1.42184 0
M  V30 72 C 7.0494 1.71699 3.1653 0
M  V30 73 C 6.9024 3.25791 3.10129 0
M  V30 74 C 8.2214 1.45531 4.15342 0
M  V30 75 H 5.3404 0.373863 0.635134 0
M  V30 76 H 7.9824 1.49071 1.17805 0
M  V30 77 H 6.1324 1.32128 3.65341 0
M  V30 78 H 7.8044 3.74697 2.69072 0
M  V30 79 H 6.0474 3.56363 2.47362 0
M  V30 80 H 6.7184 3.69353 4.10222 0
M  V30 81 H 9.1944 1.79872 3.75213 0
M  V30 82 H 8.0704 1.96453 5.1254 0
M  V30 83 H 8.3314 0.384237 4.40427 0
M  V30 84 N 7.3905 -1.2043 1.01659 0
M  V30 85 C 8.6395 -1.89118 0.701237 0
M  V30 86 C 8.9525 -1.79705 -0.772358 0
M  V30 87 O 10.1585 -2.43528 -1.20026 0
M  V30 88 C 8.6145 -3.39168 1.20388 0
M  V30 89 C 8.2225 -3.57166 2.70438 0
M  V30 90 C 9.9665 -4.1341 0.963953 0
M  V30 91 C 7.8735 -5.01042 3.14183 0
M  V30 92 H 6.8035 -0.708267 0.2586 0
M  V30 93 H 9.4545 -1.36239 1.22927 0
M  V30 94 H 7.8365 -3.91369 0.603824 0
M  V30 95 H 9.0105 -3.15351 3.35992 0
M  V30 96 H 7.3255 -2.96294 2.92572 0
M  V30 97 H 9.9225 -5.19491 1.26621 0
M  V30 98 H 10.2655 -4.16181 -0.099578 0
M  V30 99 H 10.7985 -3.67309 1.52738 0
M  V30 100 H 7.5375 -5.03426 4.19812 0
M  V30 101 H 7.0575 -5.43668 2.53348 0
M  V30 102 H 8.7365 -5.69623 3.0682 0
M  V30 103 N 8.8686 -0.792821 -1.36206 0
M  V30 104 C 10.1146 -0.36733 -1.99446 0
M  V30 105 C 10.4476 1.05917 -1.62774 0
M  V30 106 O 9.7226 1.7324 -0.88421 0
M  V30 107 C 10.0056 -0.535044 -3.56103 0
M  V30 108 C 9.8586 -2.00548 -4.02617 0
M  V30 109 C 11.1776 0.0478191 -4.40074 0
M  V30 110 H 8.2966 -0.134941 -0.724541 0
M  V30 111 H 10.9386 -0.999794 -1.61568 0
M  V30 112 H 9.0886 0.00336329 -3.885 0
M  V30 113 H 10.7606 -2.60521 -3.80692 0
M  V30 114 H 9.0036 -2.50686 -3.54032 0
M  V30 115 H 9.6746 -2.07377 -5.11565 0
M  V30 116 H 12.1506 -0.411822 -4.14057 0
M  V30 117 H 11.0266 -0.0995336 -5.4881 0
M  V30 118 H 11.2876 1.14025 -4.27142 0
M  V30 119 N 10.3467 1.47872 -0.545128 0
M  V30 120 C 11.5747 2.06889 -0.021084 0
M  V30 121 C 11.9897 1.39955 1.2672 0
M  V30 122 O 11.3467 0.492036 1.75742 0
M  V30 123 C 11.3977 3.60996 0.190817 0
M  V30 124 O 11.1187 4.25419 -1.04644 0
M  V30 125 C 12.6197 4.36849 0.753521 0
M  V30 126 H 9.8397 0.669785 -0.0403635 0
M  V30 127 H 12.3837 1.90049 -0.755095 0
M  V30 128 H 10.5387 3.77391 0.87492 0
M  V30 129 H 10.9527 5.17785 -0.836611 0
M  V30 130 H 12.4267 5.45399 0.851139 0
M  V30 131 H 12.9037 4.02306 1.762 0
M  V30 132 H 13.5097 4.25169 0.105503 0
M  V30 133 N 11.8248 0.280983 1.55075 0
M  V30 134 C 13.1018 -0.386207 1.91749 0
M  V30 135 C 13.4818 -1.73264 1.20594 0
M  V30 136 O 12.8298 -2.26034 0.334784 0
M  V30 137 C 13.0398 -0.520687 3.45094 0
M  V30 138 C 14.3878 -0.800865 4.16979 0
M  V30 139 O 15.4118 -0.605271 3.5102 0
M  V30 140 O 14.2708 -1.1753 5.33712 0
M  V30 141 H 11.3648 -0.212408 0.799257 0
M  V30 142 H 13.9108 0.327568 1.66509 0
M  V30 143 H 12.6828 0.426633 3.88967 0
M  V30 144 H 12.3058 -1.2837 3.76307 0
M  V30 145 N 13.3029 -1.57598 0.00835791 0
M  V30 146 C 14.2359 -2.04409 -1.01451 0
M  V30 147 C 15.2139 -0.935609 -1.32985 0
M  V30 148 O 16.3979 -1.20437 -1.45007 0
M  V30 149 C 13.5249 -2.44872 -2.33999 0
M  V30 150 C 12.5709 -3.66535 -2.18069 0
M  V30 151 S 13.4039 -5.14095 -1.4989 0
M  V30 152 C 14.5599 -5.57835 -2.8385 0
M  V30 153 H 14.7929 -2.90849 -0.615961 0
M  V30 154 H 12.3259 -1.53063 -0.202752 0
M  V30 155 H 14.2839 -2.68852 -3.10208 0
M  V30 156 H 12.9449 -1.58815 -2.70992 0
M  V30 157 H 12.1379 -3.92626 -3.16008 0
M  V30 158 H 11.7399 -3.426 -1.50004 0
M  V30 159 H 14.0319 -5.60806 -3.80136 0
M  V30 160 H 14.9749 -6.57667 -2.62449 0
M  V30 161 H 15.3829 -4.85421 -2.88144 0
M  V30 162 N 14.781 0.264519 -1.55364 0
M  V30 163 C 16.058 1.01677 -1.67096 0
M  V30 164 C 16.438 2.03996 -0.543015 0
M  V30 165 O 15.786 2.23907 0.45585 0
M  V30 166 C 15.996 1.66596 -3.0667 0
M  V30 167 C 17.344 2.17442 -3.64697 0
M  V30 168 O 18.368 1.76568 -3.09358 0
M  V30 169 O 17.227 2.92439 -4.61673 0
M  V30 170 H 14.321 0.472161 -0.678965 0
M  V30 171 H 16.867 0.259703 -1.67701 0
M  V30 172 H 15.639 0.924962 -3.80211 0
M  V30 173 H 15.262 2.48968 -3.10001 0
M  V30 174 N 16.2591 1.48442 0.529413 0
M  V30 175 C 17.5071 1.56179 1.28267 0
M  V30 176 C 17.8281 0.237721 1.93546 0
M  V30 177 O 17.0981 -0.740779 1.81354 0
M  V30 178 H 15.6781 0.575367 0.476405 0
M  V30 179 H 18.3401 1.84909 0.61602 0
M  V30 180 H 17.4361 2.34312 2.06165 0
M  V30 181 N 17.7372 -0.778329 1.37039 0
M  V30 182 C 18.9652 -1.56734 1.35063 0
M  V30 183 C 19.3802 -1.88686 -0.0655597 0
M  V30 184 O 18.7372 -1.5096 -1.02554 0
M  V30 185 C 18.7882 -2.88163 2.18276 0
M  V30 186 O 18.5092 -2.57583 3.54376 0
M  V30 187 C 20.0102 -3.82422 2.24206 0
M  V30 188 H 17.2302 -0.485778 0.462883 0
M  V30 189 H 19.7742 -0.965185 1.8029 0
M  V30 190 H 17.9292 -3.44818 1.76576 0
M  V30 191 H 18.3432 -3.41699 3.97922 0
M  V30 192 H 19.8172 -4.71667 2.86765 0
M  V30 193 H 20.2942 -4.21078 1.24861 0
M  V30 194 H 20.9002 -3.31697 2.6619 0
M  V30 195 N 19.2153 -1.21501 -1.00376 0
M  V30 196 C 20.4623 -1.03299 -1.74171 0
M  V30 197 C 20.7903 0.433326 -1.89612 0
M  V30 198 O 20.0453 1.33779 -1.42834 0
M  V30 199 C 20.3443 -1.67673 -3.15627 0
M  V30 200 C 20.0103 -3.17533 -3.2013 0
M  V30 201 C 18.6723 -3.58427 -3.21067 0
M  V30 202 C 21.0243 -4.13504 -3.17275 0
M  V30 203 C 18.3523 -4.93794 -3.16835 0
M  V30 204 C 20.7043 -5.48834 -3.14585 0
M  V30 205 C 19.3683 -5.89123 -3.13831 0
M  V30 206 H 18.6383 -0.377999 -0.637336 0
M  V30 207 H 21.2853 -1.51111 -1.17634 0
M  V30 208 H 19.5903 -1.12158 -3.75404 0
M  V30 209 H 21.2873 -1.51091 -3.71446 0
M  V30 210 H 17.8773 -2.84965 -3.20145 0
M  V30 211 H 22.0613 -3.82936 -3.15711 0
M  V30 212 H 17.3173 -5.24255 -3.1459 0
M  V30 213 H 21.4913 -6.22934 -3.1133 0
M  V30 214 H 19.1183 -6.93984 -3.10307 0
M  V30 215 N 20.6934 1.19889 -1.02296 0
M  V30 216 C 21.6234 2.25141 -0.619174 0
M  V30 217 C 22.6044 1.66051 0.368915 0
M  V30 218 O 23.7894 1.92546 0.252941 0
M  V30 219 C 20.9194 3.4728 0.0368783 0
M  V30 220 C 19.8734 4.19005 -0.872865 0
M  V30 221 C 19.1994 5.34637 -0.0822402 0
M  V30 222 C 20.4994 4.74452 -2.18387 0
M  V30 223 H 22.1934 2.59171 -1.49903 0
M  V30 224 H 19.7394 1.24579 -0.722222 0
M  V30 225 H 21.6924 4.20098 0.330958 0
M  V30 226 H 20.4164 3.12433 0.95149 0
M  V30 227 H 19.0754 3.48061 -1.15105 0
M  V30 228 H 18.7234 4.96034 0.83422 0
M  V30 229 H 18.4234 5.83557 -0.688149 0
M  V30 230 H 19.9474 6.10255 0.205238 0
M  V30 231 H 21.3614 5.39055 -1.95172 0
M  V30 232 H 19.7584 5.33834 -2.74119 0
M  V30 233 H 20.8284 3.92844 -2.84257 0
M  V30 234 N 22.1715 0.800033 1.35784 0
M  V30 235 C 23.1195 0.193851 2.31791 0
M  V30 236 C 24.1135 -0.652744 1.56319 0
M  V30 237 O 25.3195 -0.546641 1.71499 0
M  V30 238 H 21.6945 0.04392 0.750716 0
M  V30 239 H 23.6655 1.01883 2.80468 0
M  V30 240 C 22.4145 -0.648338 3.41602 0
M  V30 241 H 21.7375 -0.00624665 3.998 0
M  V30 242 H 23.1775 -1.03898 4.11073 0
M  V30 243 C 21.6365 -1.8111 2.84079 0
M  V30 244 O 22.1665 -2.90825 2.77099 0
M  V30 245 N 20.3725 -1.62056 2.41218 0
M  V30 246 H 19.9195 -0.728123 2.47095 0
M  V30 247 H 19.8775 -2.40013 2.03079 0
M  V30 248 N 23.6496 -1.47581 0.552962 0
M  V30 249 C 24.9266 -1.95563 -0.0381515 0
M  V30 250 C 25.3066 -1.49552 -1.48988 0
M  V30 251 O 24.6546 -0.732414 -2.16444 0
M  V30 252 C 24.8646 -3.48848 0.102919 0
M  V30 253 C 26.2126 -4.24577 -0.0446082 0
M  V30 254 O 27.2366 -3.56187 0.0302548 0
M  V30 255 O 26.0956 -5.46116 -0.204923 0
M  V30 256 H 23.1896 -0.824321 -0.0665067 0
M  V30 257 H 25.7356 -1.58001 0.619186 0
M  V30 258 H 24.5076 -3.75129 1.11328 0
M  V30 259 H 24.1306 -3.93165 -0.592224 0
M  V30 260 N 25.1277 -0.289203 -1.54924 0
M  V30 261 C 26.0907 0.579144 -2.21762 0
M  V30 262 C 27.0907 1.07047 -1.1999 0
M  V30 263 O 28.2807 0.968384 -1.44803 0
M  V30 264 C 25.4127 1.80055 -2.8947 0
M  V30 265 H 26.6057 -0.00464908 -2.999 0
M  V30 266 H 24.1587 -0.0399306 -1.56249 0
M  V30 267 H 24.8937 2.42449 -2.15381 0
M  V30 268 H 24.6787 1.45602 -3.64064 0
M  V30 269 H 26.1687 2.41773 -3.40493 0
M  V30 270 N 26.6058 1.57591 -0.0167156 0
M  V30 271 C 27.5528 2.09462 0.969251 0
M  V30 272 C 28.5228 0.99381 1.33089 0
M  V30 273 O 29.7078 1.26726 1.42636 0
M  V30 274 C 26.8478 2.61622 2.25051 0
M  V30 275 C 25.9608 3.85666 1.94642 0
M  V30 276 C 25.0958 4.26266 3.16972 0
M  V30 277 C 24.1348 5.43101 2.82326 0
M  V30 278 N 23.2718 5.78915 3.97243 0
M  V30 279 H 28.1118 2.93428 0.519997 0
M  V30 280 H 25.6488 1.45044 0.245087 0
M  V30 281 H 27.6068 2.89949 2.99976 0
M  V30 282 H 26.2368 1.80505 2.67615 0
M  V30 283 H 25.2888 3.64145 1.10013 0
M  V30 284 H 26.6008 4.70678 1.65117 0
M  V30 285 H 25.7548 4.55963 4.00228 0
M  V30 286 H 24.4938 3.39996 3.49648 0
M  V30 287 H 23.4988 5.1311 1.97479 0
M  V30 288 H 24.7238 6.3106 2.50879 0
M  V30 289 H 22.6698 4.95602 4.29785 0
M  V30 290 H 22.5868 6.58539 3.71299 0
M  V30 291 H 23.8548 6.13212 4.81239 0
M  V30 292 N 28.0839 -0.256276 1.55502 0
M  V30 293 C 29.3119 -1.00342 1.8094 0
M  V30 294 C 29.7269 -1.79307 0.59114 0
M  V30 295 O 29.0839 -1.77114 -0.440081 0
M  V30 296 C 29.1349 -1.94875 3.04476 0
M  V30 297 O 28.8559 -1.19107 4.21598 0
M  V30 298 C 30.3569 -2.81266 3.42644 0
M  V30 299 H 27.5769 -0.295685 0.602338 0
M  V30 300 H 30.1209 -0.281998 2.02546 0
M  V30 301 H 28.2759 -2.62457 2.84947 0
M  V30 302 H 28.6899 -1.82969 4.91551 0
M  V30 303 H 30.1639 -3.43362 4.32211 0
M  V30 304 H 30.6409 -3.51897 2.62802 0
M  V30 305 H 31.2469 -2.1915 3.64491 0
M  V30 306 N 29.562 -1.4872 -0.521534 0
M  V30 307 C 30.792 -1.6061 -1.29954 0
M  V30 308 C 31.2 -0.268728 -1.87282 0
M  V30 309 O 30.543 0.753221 -1.67548 0
M  V30 310 C 30.605 -2.60013 -2.48261 0
M  V30 311 C 30.269 -4.04874 -2.11957 0
M  V30 312 C 31.266 -4.92304 -1.67132 0
M  V30 313 C 28.951 -4.5047 -2.22221 0
M  V30 314 C 30.945 -6.2336 -1.33047 0
M  V30 315 C 28.632 -5.81544 -1.87748 0
M  V30 316 C 29.63 -6.67812 -1.43234 0
M  V30 317 O 29.318 -7.96446 -1.09217 0
M  V30 318 H 29.05 -0.544116 -0.401141 0
M  V30 319 H 31.604 -1.95339 -0.634958 0
M  V30 320 H 29.834 -2.20422 -3.17728 0
M  V30 321 H 31.523 -2.61648 -3.10315 0
M  V30 322 H 32.289 -4.58312 -1.58665 0
M  V30 323 H 28.168 -3.83504 -2.55823 0
M  V30 324 H 31.712 -6.90649 -0.982299 0
M  V30 325 H 27.609 -6.15069 -1.95858 0
M  V30 326 H 28.377 -8.09275 -1.22542 0
M  V30 327 N 31.0401 0.771051 -1.3745 0
M  V30 328 C 31.9881 1.90574 -1.33358 0
M  V30 329 C 32.9821 1.67936 -0.22224 0
M  V30 330 O 34.1881 1.75717 -0.390304 0
M  V30 331 H 30.5631 0.626714 -0.415612 0
M  V30 332 H 32.5341 1.91142 -2.29144 0
M  V30 333 C 31.2831 3.27845 -1.15813 0
M  V30 334 H 30.6061 3.45842 -2.00583 0
M  V30 335 H 32.0461 4.07538 -1.17 0
M  V30 336 C 30.5051 3.36625 0.136165 0
M  V30 337 O 31.0351 3.85785 1.11949 0
M  V30 338 N 29.2411 2.89997 0.187099 0
M  V30 339 H 28.7881 2.50182 -0.613753 0
M  V30 340 H 28.7461 2.96252 1.05272 0
M  V30 341 N 32.5182 1.22032 0.997298 0
M  V30 342 C 33.4502 0.944263 2.08845 0
M  V30 343 C 34.4632 -0.0754663 1.62625 0
M  V30 344 O 35.6522 0.157994 1.77799 0
M  V30 345 C 32.7522 0.397723 3.36558 0
M  V30 346 C 31.9252 1.47362 4.11829 0
M  V30 347 C 30.9842 0.934951 5.17827 0
M  V30 348 O 30.0102 1.62016 5.45655 0
M  V30 349 N 31.2122 -0.245895 5.79979 0
M  V30 350 H 33.9772 1.88363 2.33109 0
M  V30 351 H 31.5382 1.12661 1.16272 0
M  V30 352 H 33.5302 0.0227771 4.04694 0
M  V30 353 H 32.1002 -0.446646 3.09393 0
M  V30 354 H 31.3202 2.02208 3.38386 0
M  V30 355 H 32.6082 2.19764 4.58891 0
M  V30 356 H 32.0062 -0.819475 5.59733 0
M  V30 357 H 30.5632 -0.562272 6.4937 0
M  V30 358 N 33.9963 -1.19345 1.0293 0
M  V30 359 C 35.4073 -1.70725 0.755633 0
M  V30 360 C 35.7583 -1.82326 -0.724676 0
M  V30 361 O 34.8833 -1.49471 -1.56484 0
M  V30 362 C 35.4783 -3.10084 1.36503 0
M  V30 363 C 34.0373 -3.58723 1.13994 0
M  V30 364 C 33.1843 -2.35577 1.46283 0
M  V30 365 H 36.1353 -1.0418 1.19718 0
M  V30 366 H 36.1563 -3.72787 0.762217 0
M  V30 367 H 35.6683 -3.01609 2.44241 0
M  V30 368 H 33.7693 -3.72512 0.0807901 0
M  V30 369 H 33.8823 -4.42816 1.82894 0
M  V30 370 H 32.2463 -2.38935 0.88217 0
M  V30 371 H 33.0293 -2.29731 2.55105 0
M  V30 372 N 35.4744 -0.807222 -1.35358 0
M  V30 373 C 36.8904 -0.491038 -1.51858 0
M  V30 374 C 37.0904 0.987648 -1.75635 0
M  V30 375 O 36.1464 1.77265 -1.79815 0
M  V30 376 C 37.4594 -1.33695 -2.69344 0
M  V30 377 C 39.0074 -1.33246 -2.83222 0
M  V30 378 C 39.4824 -2.1625 -4.03733 0
M  V30 379 N 40.9734 -2.1379 -4.10911 0
M  V30 380 C 41.7084 -2.74772 -5.03277 0
M  V30 381 N 41.2044 -3.44684 -6.0097 0
M  V30 382 N 42.9974 -2.6441 -4.96028 0
M  V30 383 H 35.1484 -1.76485 -1.18181 0
M  V30 384 H 37.4114 -0.751199 -0.578276 0
M  V30 385 H 37.1174 -2.38634 -2.58354 0
M  V30 386 H 36.9914 -0.990618 -3.6396 0
M  V30 387 H 39.3784 -0.290911 -2.93663 0
M  V30 388 H 39.4594 -1.71866 -1.89461 0
M  V30 389 H 39.1034 -3.20445 -3.94052 0
M  V30 390 H 39.0334 -1.74989 -4.96675 0
M  V30 391 H 41.5244 -1.62923 -3.40976 0
M  V30 392 H 41.8374 -3.88501 -6.68047 0
M  V30 393 H 40.1824 -3.48788 -6.01142 0
M  V30 394 H 43.3734 -2.0938 -4.18662 0
M  V30 395 H 43.5464 -3.12225 -5.6782 0
M  V30 396 N 36.9525 1.47285 -0.560781 0
M  V30 397 C 38.1995 2.02464 -0.038062 0
M  V30 398 C 38.5275 1.43474 1.31322 0
M  V30 399 O 37.7825 0.581311 1.86867 0
M  V30 400 C 38.0815 3.57258 0.100784 0
M  V30 401 C 37.7475 4.35184 -1.18007 0
M  V30 402 C 36.4095 4.56194 -1.53103 0
M  V30 403 C 38.7615 4.80098 -2.02867 0
M  V30 404 C 36.0895 5.19367 -2.729 0
M  V30 405 C 38.4415 5.44593 -3.21871 0
M  V30 406 C 37.1055 5.63835 -3.57276 0
M  V30 407 H 36.3755 0.740869 -0.0139279 0
M  V30 408 H 39.0225 1.76916 -0.733012 0
M  V30 409 H 37.3275 3.81819 0.878724 0
M  V30 410 H 39.0245 3.97606 0.520639 0
M  V30 411 H 35.6145 4.19113 -0.8968 0
M  V30 412 H 39.7985 4.63642 -1.7706 0
M  V30 413 H 35.0545 5.32459 -3.00496 0
M  V30 414 H 39.2285 5.78358 -3.87911 0
M  V30 415 H 36.8555 6.12557 -4.50197 0
M  V30 416 N 38.4306 0.297415 1.54768 0
M  V30 417 C 39.3636 -0.622188 2.19554 0
M  V30 418 C 40.3416 -1.13558 1.16376 0
M  V30 419 O 41.5256 -1.20444 1.45002 0
M  V30 420 C 38.6526 -1.8509 2.83653 0
M  V30 421 C 37.6986 -1.47106 4.00328 0
M  V30 422 S 38.5316 -0.53006 5.3287 0
M  V30 423 C 39.6876 -1.76665 6.0045 0
M  V30 424 H 39.9206 -0.0717806 2.97213 0
M  V30 425 H 37.4536 0.0815678 1.54184 0
M  V30 426 H 39.4116 -2.55605 3.21211 0
M  V30 427 H 38.0726 -2.37247 2.05846 0
M  V30 428 H 37.2656 -2.38594 4.43947 0
M  V30 429 H 36.8676 -0.845885 3.64309 0
M  V30 430 H 39.1596 -2.7077 6.21039 0
M  V30 431 H 40.1026 -1.37308 6.9466 0
M  V30 432 H 40.5106 -1.94174 5.30054 0
M  V30 433 N 39.9087 -1.5758 0.0250728 0
M  V30 434 C 40.8717 -2.08896 -0.943139 0
M  V30 435 C 41.8717 -1.00321 -1.25668 0
M  V30 436 O 43.0617 -1.26495 -1.19769 0
M  V30 437 C 40.1937 -2.55143 -2.26086 0
M  V30 438 H 41.3867 -2.95723 -0.498775 0
M  V30 439 H 38.9397 -1.54703 -0.222888 0
M  V30 440 H 39.6747 -1.71633 -2.75159 0
M  V30 441 H 39.4597 -3.34461 -2.04641 0
M  V30 442 H 40.9497 -2.95083 -2.95492 0
M  V30 443 N 41.3868 0.248026 -1.55636 0
M  V30 444 C 42.3188 1.32993 -1.8667 0
M  V30 445 C 43.3318 1.44345 -0.752877 0
M  V30 446 O 44.5208 1.45715 -1.03098 0
M  V30 447 C 41.6208 2.70863 -2.03682 0
M  V30 448 C 40.7938 2.81792 -3.34532 0
M  V30 449 C 39.8528 4.005 -3.41301 0
M  V30 450 O 38.8788 3.9008 -4.14519 0
M  V30 451 N 40.0808 5.13618 -2.70512 0
M  V30 452 H 42.8458 1.06707 -2.8006 0
M  V30 453 H 40.4068 0.438129 -1.55859 0
M  V30 454 H 42.3988 3.48612 -2.05553 0
M  V30 455 H 40.9688 2.89862 -1.17041 0
M  V30 456 H 40.1888 1.90729 -3.44987 0
M  V30 457 H 41.4768 2.86043 -4.20781 0
M  V30 458 H 40.8748 5.24975 -2.10755 0
M  V30 459 H 39.4318 5.89505 -2.78077 0
M  V30 460 N 42.8649 1.48995 0.513639 0
M  V30 461 C 44.0949 1.61297 1.291 0
M  V30 462 C 44.5029 0.278656 1.87137 0
M  V30 463 O 43.8459 -0.744325 1.67945 0
M  V30 464 C 43.9079 2.61326 2.46879 0
M  V30 465 C 43.5719 4.05993 2.09807 0
M  V30 466 C 44.5689 4.93183 1.64519 0
M  V30 467 C 42.2539 4.51642 2.19829 0
M  V30 468 C 44.2479 6.24056 1.2974 0
M  V30 469 C 41.9349 5.82532 1.84662 0
M  V30 470 C 42.9329 6.68562 1.3969 0
M  V30 471 O 42.6209 7.97014 1.04992 0
M  V30 472 H 42.3529 0.546236 0.39825 0
M  V30 473 H 44.9069 1.95673 0.62459 0
M  V30 474 H 43.1369 2.22104 3.16554 0
M  V30 475 H 44.8259 2.6329 3.08923 0
M  V30 476 H 45.5919 4.59147 1.56233 0
M  V30 477 H 41.4709 3.84855 2.53786 0
M  V30 478 H 45.0149 6.91161 0.945659 0
M  V30 479 H 40.9119 6.16099 1.92594 0
M  V30 480 H 41.6799 8.09913 1.18249 0
M  V30 481 N 44.343 -0.763751 1.37857 0
M  V30 482 C 45.275 -1.88664 1.30148 0
M  V30 483 C 46.288 -1.61365 0.215685 0
M  V30 484 O 47.477 -1.72134 0.472459 0
M  V30 485 C 44.577 -3.24075 0.991396 0
M  V30 486 C 43.75 -3.78958 2.18426 0
M  V30 487 C 42.809 -4.92862 1.8432 0
M  V30 488 O 41.835 -5.08027 2.56704 0
M  V30 489 N 43.037 -5.75071 0.792081 0
M  V30 490 H 45.802 -1.95791 2.26905 0
M  V30 491 H 43.363 -0.943226 1.31586 0
M  V30 492 H 45.355 -3.97804 0.743935 0
M  V30 493 H 43.925 -3.12399 0.112122 0
M  V30 494 H 43.145 -2.96913 2.59299 0
M  V30 495 H 44.433 -4.12357 2.98058 0
M  V30 496 H 43.831 -5.65375 0.191595 0
M  V30 497 H 42.388 -6.48991 0.60449 0
M  V30 498 N 45.8211 -1.22559 -0.990812 0
M  V30 499 C 46.7311 -1.01394 -2.11557 0
M  V30 500 C 47.7471 0.0383962 -1.73958 0
M  V30 501 O 48.9231 -0.154787 -2.00804 0
M  V30 502 C 45.9881 -0.596569 -3.41529 0
M  V30 503 C 45.0491 -1.72276 -3.93217 0
M  V30 504 C 44.2821 -1.32521 -5.16985 0
M  V30 505 O 44.5051 -0.204909 -5.70032 0
M  V30 506 O 43.4391 -2.14247 -5.62478 0
M  V30 507 H 47.2651 -1.95633 -2.32296 0
M  V30 508 H 44.8501 -1.01172 -1.0993 0
M  V30 509 H 46.7321 -0.374263 -4.19735 0
M  V30 510 H 45.4071 0.316939 -3.22145 0
M  V30 511 H 44.3141 -1.99961 -3.16174 0
M  V30 512 H 45.6471 -2.61421 -4.17037 0
M  V30 513 N 47.2992 1.18797 -1.03562 0
M  V30 514 C 48.2292 2.24472 -0.643019 0
M  V30 515 C 49.2102 1.66433 0.351283 0
M  V30 516 O 50.3952 1.92803 0.232505 0
M  V30 517 C 47.5252 3.473 4.24935e-05 0
M  V30 518 C 46.4792 4.18055 -0.917257 0
M  V30 519 C 45.8052 5.34519 -0.138941 0
M  V30 520 C 47.1052 4.72109 -2.23407 0
M  V30 521 H 48.7992 2.57566 -1.52643 0
M  V30 522 H 46.3452 1.23806 -0.735394 0
M  V30 523 H 48.2982 4.20426 0.286383 0
M  V30 524 H 47.0222 3.13424 0.918299 0
M  V30 525 H 45.6812 3.46821 -1.1879 0
M  V30 526 H 45.3292 4.96891 0.781562 0
M  V30 527 H 45.0292 5.82794 -0.750005 0
M  V30 528 H 46.5532 6.10438 0.1405 0
M  V30 529 H 47.9672 5.36955 -2.00879 0
M  V30 530 H 46.3642 5.30897 -2.79765 0
M  V30 531 H 47.4342 3.89807 -2.88407 0
M  V30 532 N 48.7773 0.814389 1.34928 0
M  V30 533 C 49.7243 0.22822 2.29669 0
M  V30 534 C 50.6943 -0.642164 1.53184 0
M  V30 535 O 51.8793 -0.585605 1.81591 0
M  V30 536 C 49.0193 -0.61089 3.3965 0
M  V30 537 C 48.1323 0.280792 4.31086 0
M  V30 538 C 47.2673 -0.567067 5.28165 0
M  V30 539 C 46.3063 0.324531 6.11239 0
M  V30 540 N 45.4433 -0.483756 7.00431 0
M  V30 541 H 50.2833 1.04153 2.79206 0
M  V30 542 H 47.8203 0.525133 1.37407 0
M  V30 543 H 49.7783 -1.11263 4.0209 0
M  V30 544 H 48.4083 -1.38939 2.91369 0
M  V30 545 H 47.4603 0.900688 3.69583 0
M  V30 546 H 48.7723 0.966723 4.89342 0
M  V30 547 H 47.9263 -1.13363 5.96015 0
M  V30 548 H 46.6653 -1.28654 4.70425 0
M  V30 549 H 45.6703 0.903298 5.42329 0
M  V30 550 H 46.8953 1.04198 6.71059 0
M  V30 551 H 44.8413 -1.18706 6.45171 0
M  V30 552 H 44.7583 0.143965 7.55863 0
M  V30 553 H 46.0263 -1.03334 7.7262 0
M  V30 554 N 50.2554 -1.46986 0.568584 0
M  V30 555 C 51.2024 -2.30153 -0.172707 0
M  V30 556 C 52.1724 -1.39759 -0.897586 0
M  V30 557 O 53.3574 -1.68716 -0.891044 0
M  V30 558 C 50.4974 -3.23952 -1.1895 0
M  V30 559 C 49.6104 -4.29441 -0.469517 0
M  V30 560 C 48.7454 -5.1038 -1.47259 0
M  V30 561 C 47.7844 -6.07632 -0.738225 0
M  V30 562 N 46.9214 -6.8149 -1.68868 0
M  V30 563 H 51.7614 -2.93019 0.542596 0
M  V30 564 H 49.2984 -1.44422 0.279401 0
M  V30 565 H 51.2564 -3.76767 -1.79173 0
M  V30 566 H 49.8864 -2.62926 -1.87269 0
M  V30 567 H 48.9384 -3.79594 0.247467 0
M  V30 568 H 50.2504 -4.98689 0.105241 0
M  V30 569 H 49.4044 -5.67402 -2.14803 0
M  V30 570 H 48.1434 -4.4106 -2.08128 0
M  V30 571 H 47.1484 -5.49778 -0.0489293 0
M  V30 572 H 48.3734 -6.78966 -0.135129 0
M  V30 573 H 46.3194 -6.14891 -2.28573 0
M  V30 574 H 46.2364 -7.46948 -1.16636 0
M  V30 575 H 47.5044 -7.43078 -2.3549 0
M  V30 576 N 51.7335 -0.305618 -1.54608 0
M  V30 577 C 53.1495 0.0476228 -1.59529 0
M  V30 578 C 53.3495 1.52025 -1.32252 0
M  V30 579 O 52.4055 2.27368 -1.09818 0
M  V30 580 C 53.7185 -0.354471 -2.98603 0
M  V30 581 C 55.2665 -0.303622 -3.11524 0
M  V30 582 C 55.7415 -0.680608 -4.52915 0
M  V30 583 N 57.2325 -0.63332 -4.5885 0
M  V30 584 C 57.9675 -0.897432 -5.66334 0
M  V30 585 N 57.4635 -1.22775 -6.81834 0
M  V30 586 N 59.2565 -0.824186 -5.56025 0
M  V30 587 H 51.4075 -1.2653 -1.70599 0
M  V30 588 H 53.6705 -0.513291 -0.797017 0
M  V30 589 H 53.3765 -1.3798 -3.23503 0
M  V30 590 H 53.2505 0.289568 -3.76087 0
M  V30 591 H 55.6375 0.712472 -2.8637 0
M  V30 592 H 55.7185 -0.982348 -2.36185 0
M  V30 593 H 55.3625 -1.69453 -4.78799 0
M  V30 594 H 55.2925 0.0202385 -5.26596 0
M  V30 595 H 57.7835 -0.389138 -3.75891 0
M  V30 596 H 58.0965 -1.41513 -7.59733 0
M  V30 597 H 56.4415 -1.26583 -6.83375 0
M  V30 598 H 59.6325 -0.565748 -4.64669 0
M  V30 599 H 59.8055 -1.03338 -6.39707 0
M  V30 600 N 53.2116 1.57565 -0.0334293 0
M  V30 601 C 54.4596 1.91598 0.642999 0
M  V30 602 C 54.7806 0.910847 1.7242 0
M  V30 603 O 54.0506 -0.0469931 1.95844 0
M  V30 604 H 52.6306 0.707228 0.240496 0
M  V30 605 H 55.2926 1.94726 -0.0822488 0
M  V30 606 H 54.3886 2.92336 1.09298 0
M  V30 607 N 54.6897 -0.239769 1.55765 0
M  V30 608 C 55.9387 -0.964754 1.77131 0
M  V30 609 C 56.2517 -1.86213 0.59868 0
M  V30 610 O 57.4577 -2.6244 0.695522 0
M  V30 611 C 55.9137 -1.76552 3.1362 0
M  V30 612 C 55.5217 -0.915185 4.38553 0
M  V30 613 C 57.2657 -2.48281 3.44321 0
M  V30 614 C 55.1727 -1.71225 5.66071 0
M  V30 615 H 54.1027 -0.363953 0.660344 0
M  V30 616 H 56.7537 -0.219181 1.82186 0
M  V30 617 H 55.1357 -2.55331 3.02691 0
M  V30 618 H 56.3097 -0.169217 4.60489 0
M  V30 619 H 54.6247 -0.310889 4.15238 0
M  V30 620 H 57.2217 -3.08382 4.36812 0
M  V30 621 H 57.5647 -3.20256 2.65973 0
M  V30 622 H 58.0977 -1.76507 3.56497 0
M  V30 623 H 54.8367 -1.03612 6.4726 0
M  V30 624 H 54.3567 -2.43331 5.48224 0
M  V30 625 H 56.0357 -2.27758 6.05587 0
M  V30 626 N 56.1678 -1.49265 -0.50573 0
M  V30 627 C 57.1148 -1.65585 -1.6078 0
M  V30 628 C 58.0848 -0.497396 -1.58478 0
M  V30 629 O 59.2698 -0.72385 -1.76536 0
M  V30 630 C 56.4098 -1.72408 -2.98948 0
M  V30 631 C 55.5228 -2.99525 -3.11301 0
M  V30 632 C 54.6578 -2.97356 -4.40174 0
M  V30 633 C 53.6968 -4.19074 -4.46143 0
M  V30 634 N 52.8338 -4.14841 -5.66437 0
M  V30 635 H 57.6738 -2.59688 -1.46172 0
M  V30 636 H 55.2108 -1.28761 -0.711261 0
M  V30 637 H 57.1688 -1.74344 -3.79025 0
M  V30 638 H 55.7988 -0.817753 -3.1227 0
M  V30 639 H 54.8508 -3.07222 -2.24318 0
M  V30 640 H 56.1628 -3.89518 -3.11572 0
M  V30 641 H 55.3168 -2.97829 -5.28567 0
M  V30 642 H 54.0558 -2.05133 -4.42461 0
M  V30 643 H 53.0608 -4.1885 -3.56153 0
M  V30 644 H 54.2858 -5.12483 -4.45575 0
M  V30 645 H 52.2318 -3.25453 -5.69575 0
M  V30 646 H 52.1488 -4.98564 -5.68304 0
M  V30 647 H 53.4168 -4.1941 -6.57051 0
M  V30 648 N 57.6459 0.756429 -1.3826 0
M  V30 649 C 58.8929 1.51547 -1.34312 0
M  V30 650 C 59.2209 1.94382 0.0677144 0
M  V30 651 O 58.4759 1.65514 1.04421 0
M  V30 652 C 58.7749 2.78313 -2.24224 0
M  V30 653 C 58.4409 2.54455 -3.72241 0
M  V30 654 C 57.1029 2.47657 -4.12576 0
M  V30 655 C 59.4549 2.3354 -4.65949 0
M  V30 656 C 56.7829 2.17956 -5.44713 0
M  V30 657 C 59.1349 2.05359 -5.9834 0
M  V30 658 C 57.7989 1.97016 -6.37762 0
M  V30 659 H 57.0689 0.55455 -0.491482 0
M  V30 660 H 59.7159 0.870039 -1.70595 0
M  V30 661 H 58.0209 3.47492 -1.80987 0
M  V30 662 H 59.7179 3.36259 -2.18474 0
M  V30 663 H 56.3079 2.60616 -3.40261 0
M  V30 664 H 60.4919 2.37772 -4.35635 0
M  V30 665 H 55.7479 2.10003 -5.74203 0
M  V30 666 H 59.9219 1.88179 -6.70494 0
M  V30 667 H 57.5489 1.73766 -7.40074 0
M  V30 668 N 59.124 1.23083 0.984299 0
M  V30 669 C 60.37 1.06214 1.72761 0
M  V30 670 C 60.703 -0.400584 1.90024 0
M  V30 671 O 59.978 -1.29672 1.44967 0
M  V30 672 C 60.261 1.78375 3.12817 0
M  V30 673 C 60.114 3.32296 3.03149 0
M  V30 674 C 61.433 1.54309 4.12161 0
M  V30 675 H 58.552 0.387251 0.627061 0
M  V30 676 H 61.194 1.51536 1.14616 0
M  V30 677 H 59.344 1.39848 3.62457 0
M  V30 678 H 61.016 3.8032 2.61064 0
M  V30 679 H 59.259 3.6153 2.39747 0
M  V30 680 H 59.93 3.77972 4.02295 0
M  V30 681 H 62.406 1.87791 3.71314 0
M  V30 682 H 61.282 2.07281 5.08258 0
M  V30 683 H 61.543 0.477572 4.39513 0
M  V30 684 N 60.6021 -1.18246 1.0419 0
M  V30 685 C 61.8481 -1.88536 0.747122 0
M  V30 686 C 62.1811 -1.80223 -0.723409 0
M  V30 687 O 61.4561 -1.20337 -1.52804 0
M  V30 688 C 61.7391 -3.38968 1.21544 0
M  V30 689 C 61.5921 -3.56084 2.74816 0
M  V30 690 C 62.9111 -4.32648 0.806482 0
M  V30 691 H 60.0301 -0.684619 0.272883 0
M  V30 692 H 62.6721 -1.39113 1.29413 0
M  V30 693 H 60.8221 -3.8119 0.750081 0
M  V30 694 H 62.4941 -3.22946 3.29399 0
M  V30 695 H 60.7371 -2.98699 3.14582 0
M  V30 696 H 61.4081 -4.61639 3.02644 0
M  V30 697 H 63.8841 -3.98211 1.20695 0
M  V30 698 H 62.7601 -5.36462 1.1619 0
M  V30 699 H 63.0211 -4.41146 -0.29029 0
M  V30 700 N 62.0802 -0.821533 -1.34494 0
M  V30 701 C 63.0432 -0.247847 -2.27856 0
M  V30 702 C 64.0432 0.573453 -1.50227 0
M  V30 703 O 65.2332 0.389759 -1.69784 0
M  V30 704 C 62.3652 0.652698 -3.34593 0
M  V30 705 H 63.5582 -1.07146 -2.80107 0
M  V30 706 H 61.1112 -0.593291 -1.44602 0
M  V30 707 H 61.8462 1.49943 -2.87555 0
M  V30 708 H 61.6312 0.065292 -3.92046 0
M  V30 709 H 63.1212 1.04793 -4.04238 0
M  V30 710 N 63.5583 1.46682 -0.576371 0
M  V30 711 C 64.7833 2.07304 -0.0630475 0
M  V30 712 C 65.2083 1.42329 1.2298 0
M  V30 713 O 64.5663 0.504865 1.74129 0
M  V30 714 C 64.6143 3.60472 0.095895 0
M  V30 715 O 63.7183 3.95927 1.15394 0
M  V30 716 H 63.0593 0.661288 -0.0599463 0
M  V30 717 H 65.5893 1.88417 -0.797511 0
M  V30 718 H 65.5993 4.06865 0.304071 0
M  V30 719 H 64.2743 4.07157 -0.84828 0
M  V30 720 H 62.8513 3.61252 0.924724 0
M  V30 721 N 65.0364 0.313813 1.54444 0
M  V30 722 C 66.2844 -0.291099 1.99993 0
M  V30 723 C 66.6054 -1.53418 1.20366 0
M  V30 724 O 65.8754 -1.93544 0.302927 0
M  V30 725 H 64.4554 -0.110552 0.738774 0
M  V30 726 H 67.1174 0.428106 1.9014 0
M  V30 727 H 66.2134 -0.554268 3.07139 0
M  V30 728 N 66.5145 -1.57545 0.0417849 0
M  V30 729 C 67.4625 -2.12148 -0.953723 0
M  V30 730 C 68.4565 -1.05104 -1.32852 0
M  V30 731 O 69.6625 -1.23524 -1.30927 0
M  V30 732 H 66.0375 -0.677957 -0.325389 0
M  V30 733 H 68.0085 -2.94707 -0.467991 0
M  V30 734 C 66.7575 -2.6739 -2.22257 0
M  V30 735 H 66.0805 -3.49413 -1.94295 0
M  V30 736 H 67.5205 -3.09227 -2.90094 0
M  V30 737 C 65.9795 -1.60723 -2.96091 0
M  V30 738 O 66.5095 -1.01449 -3.88679 0
M  V30 739 N 64.7155 -1.32466 -2.58652 0
M  V30 740 H 64.2625 -1.80856 -1.83437 0
M  V30 741 H 64.2205 -0.61325 -3.08361 0
M  V30 742 N 67.9926 0.231505 -1.5589 0
M  V30 743 C 68.9246 1.31006 -1.8807 0
M  V30 744 C 69.9376 1.43539 -0.768145 0
M  V30 745 O 71.1266 1.44614 -1.04638 0
M  V30 746 C 68.2266 2.68688 -2.06543 0
M  V30 747 C 67.3996 2.78228 -3.37502 0
M  V30 748 C 66.4586 3.96857 -3.4553 0
M  V30 749 O 65.4846 3.85662 -4.18633 0
M  V30 750 N 66.6866 5.1072 -2.75944 0
M  V30 751 H 69.4516 1.03731 -2.81176 0
M  V30 752 H 67.0126 0.421573 -1.56315 0
M  V30 753 H 69.0046 3.46412 -2.09239 0
M  V30 754 H 67.5746 2.88605 -1.20109 0
M  V30 755 H 66.7946 1.87059 -3.46991 0
M  V30 756 H 68.0826 2.81564 -4.23791 0
M  V30 757 H 67.4806 5.2271 -2.16311 0
M  V30 758 H 66.0376 5.86523 -2.84314 0
M  V30 759 N 69.4707 1.49531 0.497807 0
M  V30 760 C 70.7007 1.62657 1.27382 0
M  V30 761 C 71.1087 0.298488 1.86831 0
M  V30 762 O 70.4517 -0.72647 1.68725 0
M  V30 763 C 70.5137 2.6393 2.44093 0
M  V30 764 C 70.1777 4.08195 2.05489 0
M  V30 765 C 71.1747 4.949 1.59279 0
M  V30 766 C 68.8597 4.53948 2.15026 0
M  V30 767 C 70.8537 6.25397 1.23113 0
M  V30 768 C 68.5407 5.84458 1.78473 0
M  V30 769 C 69.5387 6.70006 1.32591 0
M  V30 770 O 69.2267 7.98083 0.965327 0
M  V30 771 H 68.9587 0.550429 0.392434 0
M  V30 772 H 71.5127 1.96325 0.603801 0
M  V30 773 H 69.7427 2.25449 3.14181 0
M  V30 774 H 71.4317 2.66552 3.06113 0
M  V30 775 H 72.1977 4.60779 1.51354 0
M  V30 776 H 68.0767 3.87525 2.4969 0
M  V30 777 H 71.6207 6.92125 0.872299 0
M  V30 778 H 67.5177 6.18107 1.86048 0
M  V30 779 H 68.2857 8.11122 1.09652 0
M  V30 780 N 70.9488 -0.749086 1.3866 0
M  V30 781 C 72.1788 -1.53611 1.38157 0
M  V30 782 C 72.5868 -1.89177 -0.0293595 0
M  V30 783 O 71.9298 -1.53606 -1.00752 0
M  V30 784 C 71.9918 -2.86087 2.17702 0
M  V30 785 C 71.6558 -2.73034 3.66472 0
M  V30 786 C 72.6528 -2.42526 4.59866 0
M  V30 787 C 70.3378 -2.90345 4.09884 0
M  V30 788 C 72.3318 -2.29492 5.94653 0
M  V30 789 C 70.0188 -2.7693 5.4475 0
M  V30 790 C 71.0168 -2.46547 6.36949 0
M  V30 791 O 70.7048 -2.33199 7.69333 0
M  V30 792 H 70.4368 -0.481773 0.474205 0
M  V30 793 H 72.9908 -0.934465 1.82912 0
M  V30 794 H 71.2208 -3.48458 1.67672 0
M  V30 795 H 72.9098 -3.47625 2.09551 0
M  V30 796 H 73.6758 -2.28816 4.27631 0
M  V30 797 H 69.5548 -3.1299 3.38464 0
M  V30 798 H 73.0988 -2.05698 6.66584 0
M  V30 799 H 68.9958 -2.90215 5.76581 0
M  V30 800 H 69.7638 -2.48376 7.79905 0
M  V30 801 N 72.4269 -1.23603 -0.977757 0
M  V30 802 C 73.3589 -0.977369 -2.07317 0
M  V30 803 C 74.3719 0.0495845 -1.62724 0
M  V30 804 O 75.5609 -0.186261 -1.77526 0
M  V30 805 C 72.6609 -0.451216 -3.35883 0
M  V30 806 C 71.8339 -1.53896 -4.09432 0
M  V30 807 C 70.8929 -1.01721 -5.16274 0
M  V30 808 O 69.9189 -1.70676 -5.43009 0
M  V30 809 N 71.1209 0.153594 -5.80297 0
M  V30 810 H 73.8859 -1.92047 -2.30082 0
M  V30 811 H 71.4469 -1.14497 -1.14465 0
M  V30 812 H 73.4389 -0.0871574 -4.04606 0
M  V30 813 H 72.0089 0.397368 -3.10064 0
M  V30 814 H 71.2289 -2.07566 -3.35127 0
M  V30 815 H 72.5169 -2.27037 -4.55337 0
M  V30 816 H 71.9149 0.730323 -5.60966 0
M  V30 817 H 70.4719 0.458892 -6.50183 0
M  V30 818 N 73.905 1.17692 -1.04816 0
M  V30 819 C 74.835 2.23777 -0.666791 0
M  V30 820 C 75.816 1.66796 0.33361 0
M  V30 821 O 77.001 1.93039 0.212042 0
M  V30 822 C 74.131 3.47281 -0.0367933 0
M  V30 823 C 73.085 4.17059 -0.961546 0
M  V30 824 C 72.411 5.34342 -0.195626 0
M  V30 825 C 73.711 4.69713 -2.28402 0
M  V30 826 H 75.405 2.55933 -1.55367 0
M  V30 827 H 72.951 1.23019 -0.748484 0
M  V30 828 H 74.904 4.20706 0.241775 0
M  V30 829 H 73.628 3.14381 0.885004 0
M  V30 830 H 72.287 3.45541 -1.22462 0
M  V30 831 H 71.935 4.97692 0.728816 0
M  V30 832 H 71.635 5.81966 -0.811775 0
M  V30 833 H 73.159 6.10553 0.0757473 0
M  V30 834 H 74.573 5.34794 -2.06563 0
M  V30 835 H 72.97 5.279 -2.8538 0
M  V30 836 H 74.04 3.86726 -2.92525 0
M  V30 837 N 75.3831 0.828654 1.34056 0
M  V30 838 C 76.6321 0.415828 1.97367 0
M  V30 839 C 76.9451 -1.02796 1.6641 0
M  V30 840 O 78.1511 -1.54497 2.23255 0
M  V30 841 C 76.6071 0.692601 3.53173 0
M  V30 842 C 76.2151 2.15038 3.93017 0
M  V30 843 C 77.9591 0.346222 4.23086 0
M  V30 844 C 75.8661 2.37174 5.41758 0
M  V30 845 H 74.7961 0.151755 0.738571 0
M  V30 846 H 77.4471 1.01581 1.52819 0
M  V30 847 H 75.8291 0.0223764 3.95994 0
M  V30 848 H 77.0031 2.86024 3.61285 0
M  V30 849 H 75.3181 2.45875 3.36057 0
M  V30 850 H 77.9151 0.48937 5.32456 0
M  V30 851 H 78.2581 -0.709842 4.10204 0
M  V30 852 H 78.7911 0.971258 3.85761 0
M  V30 853 H 75.5301 3.41308 5.59633 0
M  V30 854 H 75.0501 1.70738 5.74986 0
M  V30 855 H 76.7291 2.19818 6.08514 0
M  V30 856 N 76.8612 -1.46375 0.584142 0
M  V30 857 C 78.0862 -2.07268 0.0740405 0
M  V30 858 C 78.5112 -1.42979 -1.22223 0
M  V30 859 O 77.8692 -0.514092 -1.73859 0
M  V30 860 C 77.9172 -3.60518 -0.0767769 0
M  V30 861 O 77.0212 -3.96533 -1.13292 0
M  V30 862 H 76.3622 -0.660961 0.0634524 0
M  V30 863 H 78.8922 -1.87991 0.807492 0
M  V30 864 H 78.9022 -4.07021 -0.282489 0
M  V30 865 H 77.5772 -4.06702 0.86986 0
M  V30 866 H 76.1542 -3.61738 -0.905553 0
M  V30 867 N 78.3393 -0.321999 -1.54275 0
M  V30 868 C 79.5863 0.281044 -2.0054 0
M  V30 869 C 79.9143 1.52265 -1.21019 0
M  V30 870 O 79.1693 1.93687 -0.279982 0
M  V30 871 C 79.4683 0.661769 -3.5122 0
M  V30 872 C 79.1343 -0.480482 -4.48333 0
M  V30 873 C 77.7963 -0.794005 -4.74604 0
M  V30 874 C 80.1483 -1.24783 -5.06042 0
M  V30 875 C 77.4763 -1.87763 -5.55844 0
M  V30 876 C 79.8283 -2.32153 -5.88462 0
M  V30 877 C 78.4923 -2.64089 -6.13036 0
M  V30 878 H 77.7623 0.102841 -0.733829 0
M  V30 879 H 80.4093 -0.445453 -1.86247 0
M  V30 880 H 78.7143 1.46867 -3.63232 0
M  V30 881 H 80.4113 1.13989 -3.84457 0
M  V30 882 H 77.0013 -0.226039 -4.28004 0
M  V30 883 H 81.1853 -1.01887 -4.85729 0
M  V30 884 H 76.4413 -2.12954 -5.73115 0
M  V30 885 H 80.6153 -2.92057 -6.32199 0
M  V30 886 H 78.2423 -3.48185 -6.75775 0
M  V30 887 N 79.8174 1.5752 -0.0501392 0
M  V30 888 C 81.0644 1.9265 0.623874 0
M  V30 889 C 81.3924 0.928411 1.70912 0
M  V30 890 O 80.6474 -0.0594525 1.9561 0
M  V30 891 C 80.9464 3.34467 1.25963 0
M  V30 892 C 80.6124 4.49883 0.302689 0
M  V30 893 C 79.2744 4.81184 0.0393636 0
M  V30 894 C 81.6264 5.20002 -0.353205 0
M  V30 895 C 78.9544 5.79951 -0.887308 0
M  V30 896 C 81.3064 6.1976 -1.26806 0
M  V30 897 C 79.9704 6.49491 -1.54007 0
M  V30 898 H 79.2404 0.704957 0.228292 0
M  V30 899 H 81.8874 1.91146 -0.116398 0
M  V30 900 H 80.1924 3.32333 2.07514 0
M  V30 901 H 81.8894 3.58928 1.78806 0
M  V30 902 H 78.4794 4.25457 0.518109 0
M  V30 903 H 82.6634 4.96033 -0.162854 0
M  V30 904 H 77.9194 6.01322 -1.10553 0
M  V30 905 H 82.0934 6.73205 -1.78236 0
M  V30 906 H 79.7204 7.25837 -2.25976 0
M  V30 907 N 81.2955 -0.223234 1.56011 0
M  V30 908 C 82.7065 -0.790368 1.69145 0
M  V30 909 C 83.0575 -1.85055 0.651845 0
M  V30 910 O 82.1825 -2.15498 -0.197359 0
M  V30 911 C 82.7775 -1.4404 3.06656 0
M  V30 912 C 81.3365 -1.95494 3.2165 0
M  V30 913 C 80.4835 -0.814506 2.65068 0
M  V30 914 H 83.4345 0.00139011 1.587 0
M  V30 915 H 83.4555 -2.30916 3.0242 0
M  V30 916 H 82.9675 -0.668543 3.82298 0
M  V30 917 H 81.0685 -2.75487 2.50874 0
M  V30 918 H 81.1815 -2.13607 4.28846 0
M  V30 919 H 79.5455 -1.22137 2.23505 0
M  V30 920 H 80.3285 -0.0553515 3.43255 0
M  V30 921 N 82.7736 -1.49793 -0.48987 0
M  V30 922 C 83.6836 -1.70036 -1.61632 0
M  V30 923 C 84.6996 -0.583102 -1.63939 0
M  V30 924 O 85.8756 -0.859169 -1.82154 0
M  V30 925 C 82.9406 -1.77277 -2.97949 0
M  V30 926 C 82.0016 -3.00918 -3.06181 0
M  V30 927 C 81.2346 -3.07804 -4.35996 0
M  V30 928 O 81.4576 -2.21982 -5.25433 0
M  V30 929 O 80.3916 -4.00369 -4.49431 0
M  V30 930 H 84.2176 -2.65486 -1.47482 0
M  V30 931 H 81.8026 -1.33666 -0.667362 0
M  V30 932 H 83.6846 -1.84329 -3.78947 0
M  V30 933 H 82.3596 -0.850076 -3.12339 0
M  V30 934 H 81.2666 -2.99377 -2.2433 0
M  V30 935 H 82.5996 -3.92704 -2.96723 0
M  V30 936 N 84.2517 0.741722 -1.39055 0
M  V30 937 C 85.1817 1.869 -1.39966 0
M  V30 938 C 86.1627 1.6804 -0.26392 0
M  V30 939 O 87.3477 1.88458 -0.468755 0
M  V30 940 C 84.4777 3.24572 -1.23574 0
M  V30 941 C 83.4317 3.58056 -2.34477 0
M  V30 942 C 82.7577 4.94593 -2.0318 0
M  V30 943 C 84.0577 3.61716 -3.76774 0
M  V30 944 H 85.7517 1.86395 -2.34302 0
M  V30 945 H 83.2977 0.895361 -1.1278 0
M  V30 946 H 85.2507 4.031 -1.22834 0
M  V30 947 H 83.9747 3.25587 -0.257045 0
M  V30 948 H 82.6337 2.81854 -2.34423 0
M  V30 949 H 82.2817 4.92181 -1.03765 0
M  V30 950 H 81.9817 5.17964 -2.77465 0
M  V30 951 H 83.5057 5.75486 -2.04079 0
M  V30 952 H 84.9197 4.30335 -3.78794 0
M  V30 953 H 83.3167 3.96603 -4.50362 0
M  V30 954 H 84.3867 2.61672 -4.08235 0
M  V30 955 N 85.7298 1.2412 0.971189 0
M  V30 956 C 86.6768 1.0305 2.06517 0
M  V30 957 C 87.6468 -0.0550666 1.66009 0
M  V30 958 O 88.8318 0.0988688 1.90544 0
M  V30 959 C 85.9718 0.637653 3.39158 0
M  V30 960 C 85.0848 1.79633 3.92882 0
M  V30 961 C 84.2198 1.34939 5.13775 0
M  V30 962 C 83.2588 2.47823 5.59687 0
M  V30 963 N 82.3958 2.04022 6.71803 0
M  V30 964 H 87.2358 1.96685 2.23873 0
M  V30 965 H 84.7728 0.979694 1.09729 0
M  V30 966 H 86.7308 0.390931 4.15364 0
M  V30 967 H 85.3608 -0.261693 3.21737 0
M  V30 968 H 84.4128 2.15681 3.13346 0
M  V30 969 H 85.7248 2.64466 4.22918 0
M  V30 970 H 84.8788 1.06134 5.97345 0
M  V30 971 H 83.6178 0.471557 4.85415 0
M  V30 972 H 82.6228 2.77392 4.74693 0
M  V30 973 H 83.8478 3.36158 5.90063 0
M  V30 974 H 81.7938 1.18632 6.45184 0
M  V30 975 H 81.7108 2.82409 7.01271 0
M  V30 976 H 82.9788 1.78347 7.58823 0
M  V30 977 N 87.2079 -1.17134 1.05439 0
M  V30 978 C 88.4849 -1.83411 0.679699 0
M  V30 979 C 88.8649 -1.9368 -0.839726 0
M  V30 980 O 88.2129 -1.47325 -1.74664 0
M  V30 981 C 88.4229 -3.20918 1.37159 0
M  V30 982 C 89.7709 -3.96796 1.51123 0
M  V30 983 O 90.7949 -3.30406 1.3308 0
M  V30 984 O 89.6539 -5.15778 1.80651 0
M  V30 985 H 86.7479 -0.79154 0.239569 0
M  V30 986 H 89.2939 -1.24411 1.15413 0
M  V30 987 H 88.0659 -3.08428 2.40807 0
M  V30 988 H 87.6889 -3.87587 0.886674 0
M  V30 989 N 88.686 -0.835752 -1.33615 0
M  V30 990 C 89.596 -0.269088 -2.33052 0
M  V30 991 C 90.612 0.603251 -1.63208 0
M  V30 992 O 91.788 0.508112 -1.94885 0
M  V30 993 C 88.853 0.549091 -3.42324 0
M  V30 994 C 87.914 -0.347156 -4.27894 0
M  V30 995 C 87.147 0.43207 -5.31948 0
M  V30 996 O 87.37 1.66409 -5.45586 0
M  V30 997 O 86.304 -0.192298 -6.01593 0
M  V30 998 H 90.13 -1.09243 -2.83372 0
M  V30 999 H 87.715 -0.598198 -1.36901 0
M  V30 1000 H 89.597 1.01414 -4.09015 0
M  V30 1001 H 88.272 1.34955 -2.94226 0
M  V30 1002 H 87.179 -0.859979 -3.64081 0
M  V30 1003 H 88.512 -1.1123 -4.79467 0
M  V30 1004 N 90.1641 1.46063 -0.591896 0
M  V30 1005 C 91.4131 2.01547 -0.0786637 0
M  V30 1006 C 91.7261 1.46796 1.29268 0
M  V30 1007 O 92.9321 1.94157 1.89777 0
M  V30 1008 C 91.3881 3.59787 -0.0900024 0
M  V30 1009 C 90.9961 4.23534 -1.46023 0
M  V30 1010 C 92.7401 4.22895 0.368806 0
M  V30 1011 C 90.6471 5.73881 -1.4288 0
M  V30 1012 H 89.5771 0.753564 -0.0256388 0
M  V30 1013 H 92.2281 1.677 -0.744905 0
M  V30 1014 H 90.6101 3.90752 0.642586 0
M  V30 1015 H 91.7841 4.04167 -2.21328 0
M  V30 1016 H 90.0991 3.72558 -1.85982 0
M  V30 1017 H 92.6961 5.33116 0.411258 0
M  V30 1018 H 93.0391 3.9247 1.38827 0
M  V30 1019 H 93.5721 3.9659 -0.31001 0
M  V30 1020 H 90.3111 6.0898 -2.42536 0
M  V30 1021 H 89.8311 5.95486 -0.718095 0
M  V30 1022 H 91.5101 6.36776 -1.14565 0
M  V30 1023 N 91.6422 0.330177 1.54103 0
M  V30 1024 C 92.8672 -0.274893 2.0557 0
M  V30 1025 C 93.2922 -1.44487 1.20437 0
M  V30 1026 O 92.6502 -1.80021 0.214991 0
M  V30 1027 C 92.6982 -0.68079 3.54115 0
M  V30 1028 O 91.8022 -1.7824 3.71893 0
M  V30 1029 H 91.1432 -0.0483849 0.662235 0
M  V30 1030 H 93.6732 0.480508 1.98878 0
M  V30 1031 H 93.6832 -0.961635 3.96505 0
M  V30 1032 H 92.3582 0.174903 4.15532 0
M  V30 1033 H 90.9352 -1.49985 3.41407 0
M  V30 1034 N 93.1203 -1.57491 0.0584922 0
M  V30 1035 C 94.3673 -1.92978 -0.613648 0
M  V30 1036 C 94.6953 -0.937461 -1.70417 0
M  V30 1037 O 93.9503 0.049078 -1.95638 0
M  V30 1038 C 94.2493 -3.3513 -1.24188 0
M  V30 1039 C 93.9153 -4.50037 -0.278826 0
M  V30 1040 C 92.5773 -4.81198 -0.0138447 0
M  V30 1041 C 94.9293 -5.19807 0.380777 0
M  V30 1042 C 92.2573 -5.79473 0.918052 0
M  V30 1043 C 94.6093 -6.19079 1.30091 0
M  V30 1044 C 93.2733 -6.48665 1.57449 0
M  V30 1045 H 92.5433 -0.706157 -0.22455 0
M  V30 1046 H 95.1903 -1.91082 0.126533 0
M  V30 1047 H 93.4953 -3.33429 -2.05749 0
M  V30 1048 H 95.1923 -3.59871 -1.769 0
M  V30 1049 H 91.7823 -4.25726 -0.495539 0
M  V30 1050 H 95.9663 -4.95939 0.189158 0
M  V30 1051 H 91.2223 -6.00727 1.1374 0
M  V30 1052 H 95.3963 -6.7225 1.81804 0
M  V30 1053 H 93.0233 -7.24628 2.29822 0
M  V30 1054 N 94.5984 0.214957 -1.56127 0
M  V30 1055 C 95.8444 0.939762 -1.79712 0
M  V30 1056 C 96.1774 1.83723 -0.629247 0
M  V30 1057 O 95.4524 1.90925 0.371197 0
M  V30 1058 C 95.7354 1.77306 -3.13424 0
M  V30 1059 C 95.5884 0.90164 -4.40671 0
M  V30 1060 C 96.9074 2.74956 -3.43638 0
M  V30 1061 H 94.0264 0.340214 -0.653776 0
M  V30 1062 H 96.6684 0.20824 -1.88855 0
M  V30 1063 H 94.8184 2.39673 -3.0576 0
M  V30 1064 H 96.4904 0.294206 -4.60361 0
M  V30 1065 H 94.7334 0.207368 -4.33304 0
M  V30 1066 H 95.4044 1.51923 -5.30682 0
M  V30 1067 H 97.8804 2.22724 -3.51473 0
M  V30 1068 H 96.7564 3.30358 -4.38355 0
M  V30 1069 H 97.0174 3.53023 -2.66134 0
M  V30 1070 N 96.0765 1.50051 0.48192 0
M  V30 1071 C 97.0395 1.67584 1.5636 0
M  V30 1072 C 98.0395 0.546894 1.51214 0
M  V30 1073 O 99.2295 0.813725 1.54026 0
M  V30 1074 C 96.3615 1.691 2.96003 0
M  V30 1075 H 97.5545 2.64078 1.42136 0
M  V30 1076 H 95.1075 1.39369 0.707533 0
M  V30 1077 H 95.8425 0.742589 3.15684 0
M  V30 1078 H 95.6275 2.51105 3.01146 0
M  V30 1079 H 97.1175 1.84656 3.74556 0
M  V30 1080 N 97.5546 -0.734337 1.39446 0
M  V30 1081 C 98.4646 -1.87879 1.40495 0
M  V30 1082 C 99.4806 -1.714 0.299672 0
M  V30 1083 O 100.657 -1.93991 0.541249 0
M  V30 1084 C 97.7216 -3.23477 1.24754 0
M  V30 1085 C 96.7826 -3.52344 2.45259 0
M  V30 1086 C 96.0156 -4.81473 2.30259 0
M  V30 1087 O 96.2386 -5.55237 1.30643 0
M  V30 1088 O 95.1726 -5.10254 3.19256 0
M  V30 1089 H 98.9986 -1.89949 2.36966 0
M  V30 1090 H 96.5836 -0.882243 1.20569 0
M  V30 1091 H 98.4656 -4.04509 1.18111 0
M  V30 1092 H 97.1406 -3.22176 0.313781 0
M  V30 1093 H 96.0476 -2.71396 2.57478 0
M  V30 1094 H 97.3806 -3.58426 3.37331 0
M  V30 1095 N 99.0327 -1.24633 -0.964593 0
M  V30 1096 C 99.9807 -1.03917 -2.08096 0
M  V30 1097 C 100.975 0.0268581 -1.69379 0
M  V30 1098 O 102.181 -0.127952 -1.79545 0
M  V30 1099 H 98.5557 -0.319044 -0.680966 0
M  V30 1100 H 100.527 -1.98581 -2.22729 0
M  V30 1101 C 99.2757 -0.663983 -3.41301 0
M  V30 1102 H 98.5987 -1.47605 -3.71555 0
M  V30 1103 H 100.039 -0.558663 -4.20303 0
M  V30 1104 C 98.4977 0.629169 -3.30973 0
M  V30 1105 O 99.0277 1.67404 -3.65156 0
M  V30 1106 N 97.2337 0.611057 -2.84103 0
M  V30 1107 H 96.7807 -0.239593 -2.56483 0
M  V30 1108 H 96.7387 1.47647 -2.77575 0
M  V30 1109 N 100.511 1.16574 -1.06058 0
M  V30 1110 C 101.759 1.86677 -0.77434 0
M  V30 1111 C 102.08 1.81959 0.701147 0
M  V30 1112 O 101.35 1.2515 1.50713 0
M  V30 1113 H 99.9298 0.691134 -0.283449 0
M  V30 1114 H 102.592 1.41378 -1.34158 0
M  V30 1115 H 101.688 2.92181 -1.09711 0
M  V30 1116 N 101.989 0.842826 1.3317 0
M  V30 1117 C 102.952 0.284065 2.27433 0
M  V30 1118 C 103.952 -0.54948 1.5112 0
M  V30 1119 O 105.142 -0.362699 1.70382 0
M  V30 1120 C 102.274 -0.599384 3.35589 0
M  V30 1121 H 103.467 1.11589 2.78366 0
M  V30 1122 H 101.02 0.616221 1.4364 0
M  V30 1123 H 101.755 -1.45349 2.89904 0
M  V30 1124 H 101.54 -0.00291266 3.921 0
M  V30 1125 H 103.03 -0.983488 4.05854 0
M  V30 1126 N 103.467 -1.45747 0.599634 0
M  V30 1127 C 104.397 -2.33235 -0.111306 0
M  V30 1128 C 105.378 -1.46359 -0.866781 0
M  V30 1129 O 106.563 -1.75146 -0.838904 0
M  V30 1130 C 103.693 -3.28932 -1.11451 0
M  V30 1131 C 102.647 -4.25381 -0.472772 0
M  V30 1132 C 101.973 -5.1071 -1.58365 0
M  V30 1133 C 103.273 -5.18831 0.600948 0
M  V30 1134 H 104.967 -2.92927 0.61919 0
M  V30 1135 H 102.513 -1.40857 0.299215 0
M  V30 1136 H 104.466 -3.89002 -1.62036 0
M  V30 1137 H 103.19 -2.67381 -1.8755 0
M  V30 1138 H 101.849 -3.66598 0.0121472 0
M  V30 1139 H 101.497 -4.45533 -2.33473 0
M  V30 1140 H 101.197 -5.7604 -1.15982 0
M  V30 1141 H 102.721 -5.73647 -2.09194 0
M  V30 1142 H 104.135 -5.73019 0.179491 0
M  V30 1143 H 102.532 -5.92595 0.946076 0
M  V30 1144 H 103.602 -4.6174 1.48068 0
M  V30 1145 N 104.945 -0.338344 -1.53925 0
M  V30 1146 C 106.191 0.260143 -2.01125 0
M  V30 1147 C 106.524 1.50617 -1.22589 0
M  V30 1148 O 105.799 1.91979 -0.312113 0
M  V30 1149 C 106.082 0.579499 -3.55407 0
M  V30 1150 C 105.935 -0.678264 -4.44657 0
M  V30 1151 C 107.254 1.39122 -4.17532 0
M  V30 1152 H 104.373 0.0930772 -0.731099 0
M  V30 1153 H 107.015 -0.457852 -1.84401 0
M  V30 1154 H 105.165 1.19118 -3.69788 0
M  V30 1155 H 106.837 -1.31631 -4.42121 0
M  V30 1156 H 105.08 -1.3042 -4.13731 0
M  V30 1157 H 105.751 -0.410143 -5.50474 0
M  V30 1158 H 108.227 0.874035 -4.06817 0
M  V30 1159 H 107.103 1.58342 -5.25565 0
M  V30 1160 H 107.364 2.39178 -3.71815 0
M  V30 1161 N 106.423 1.57458 -0.0668435 0
M  V30 1162 C 107.653 1.97337 0.611677 0
M  V30 1163 C 108.061 0.943744 1.63982 0
M  V30 1164 O 107.404 -0.0785584 1.83532 0
M  V30 1165 C 107.466 3.33511 1.34205 0
M  V30 1166 C 107.13 4.54598 0.467941 0
M  V30 1167 C 108.127 5.19186 -0.272439 0
M  V30 1168 C 105.812 5.0075 0.39427 0
M  V30 1169 C 107.806 6.28274 -1.07476 0
M  V30 1170 C 105.493 6.09711 -0.411729 0
M  V30 1171 C 106.491 6.73335 -1.14492 0
M  V30 1172 O 106.179 7.80199 -1.93763 0
M  V30 1173 H 105.911 0.654042 0.170893 0
M  V30 1174 H 108.465 2.04961 -0.134289 0
M  V30 1175 H 106.695 3.22487 2.13398 0
M  V30 1176 H 108.384 3.58029 1.91233 0
M  V30 1177 H 109.15 4.84477 -0.225086 0
M  V30 1178 H 105.029 4.51009 0.954569 0
M  V30 1179 H 108.573 6.77866 -1.64755 0
M  V30 1180 H 104.47 6.43854 -0.460664 0
M  V30 1181 H 105.238 7.97053 -1.86142 0
M  V30 1182 N 107.901 -0.206675 1.56239 0
M  V30 1183 C 108.811 -1.27686 1.96808 0
M  V30 1184 C 109.827 -1.50455 0.874035 0
M  V30 1185 O 111.003 -1.63295 1.17884 0
M  V30 1186 C 108.068 -2.60358 2.28942 0
M  V30 1187 C 107.129 -2.45762 3.51994 0
M  V30 1188 C 106.362 -3.72108 3.82585 0
M  V30 1189 O 106.585 -4.75776 3.14631 0
M  V30 1190 O 105.519 -3.6833 4.76043 0
M  V30 1191 H 109.345 -0.962593 2.88041 0
M  V30 1192 H 106.93 -0.410746 1.43643 0
M  V30 1193 H 108.812 -3.38687 2.50737 0
M  V30 1194 H 107.487 -2.91435 1.4088 0
M  V30 1195 H 106.394 -1.65584 3.35459 0
M  V30 1196 H 107.727 -2.19621 4.40486 0
M  V30 1197 N 109.379 -1.50304 -0.473955 0
M  V30 1198 C 110.329 -1.65347 -1.56985 0
M  V30 1199 C 111.313 -0.508176 -1.52664 0
M  V30 1200 O 112.505 -0.762446 -1.59737 0
M  V30 1201 C 109.634 -1.74832 -2.95447 0
M  V30 1202 C 108.72 -2.95028 -3.04662 0
M  V30 1203 N 109.111 -4.18747 -2.83698 0
M  V30 1204 C 107.409 -2.93527 -3.35795 0
M  V30 1205 C 108.11 -4.99687 -2.97805 0
M  V30 1206 N 107.086 -4.33585 -3.2788 0
M  V30 1207 H 110.888 -2.58698 -1.39472 0
M  V30 1208 H 108.402 -1.47449 -0.680629 0
M  V30 1209 H 110.399 -1.83712 -3.7424 0
M  V30 1210 H 109.059 -0.826376 -3.14008 0
M  V30 1211 H 110.07 -4.48291 -2.59337 0
M  V30 1212 H 106.747 -2.10821 -3.60362 0
M  V30 1213 H 108.137 -6.08057 -2.85861 0
M  V30 1214 N 110.857 0.726932 -1.39834 0
M  V30 1215 C 112.105 1.4837 -1.37225 0
M  V30 1216 C 112.426 1.94979 0.0284857 0
M  V30 1217 O 111.696 1.69555 0.981213 0
M  V30 1218 H 110.276 0.55043 -0.505011 0
M  V30 1219 H 112.938 0.862468 -1.74778 0
M  V30 1220 H 112.034 2.36198 -2.04003 0
M  V30 1221 N 112.336 1.25143 0.95797 0
M  V30 1222 C 113.283 1.05235 2.05412 0
M  V30 1223 C 114.253 -0.0374561 1.66058 0
M  V30 1224 O 115.438 0.119073 1.90428 0
M  V30 1225 C 112.578 0.673589 3.38462 0
M  V30 1226 C 111.691 1.8379 3.90954 0
M  V30 1227 C 110.826 1.40381 5.12315 0
M  V30 1228 C 109.865 2.53746 5.57027 0
M  V30 1229 N 109.002 2.11136 6.69601 0
M  V30 1230 H 113.842 1.99048 2.21774 0
M  V30 1231 H 111.379 0.991277 1.08683 0
M  V30 1232 H 113.337 0.434964 4.14926 0
M  V30 1233 H 111.967 -0.227554 3.21997 0
M  V30 1234 H 111.019 2.18992 3.11041 0
M  V30 1235 H 112.331 2.68937 4.20089 0
M  V30 1236 H 111.485 1.12464 5.96185 0
M  V30 1237 H 110.224 0.523015 4.84887 0
M  V30 1238 H 109.229 2.82412 4.71724 0
M  V30 1239 H 110.454 3.42398 5.86464 0
M  V30 1240 H 108.4 1.25468 6.4389 0
M  V30 1241 H 108.317 2.89832 6.98236 0
M  V30 1242 H 109.585 1.86385 7.56889 0
M  V30 1243 N 113.814 -1.1601 1.06675 0
M  V30 1244 C 114.746 -2.20115 0.638921 0
M  V30 1245 C 115.759 -1.59916 -0.305057 0
M  V30 1246 O 116.948 -1.78245 -0.0954446 0
M  V30 1247 C 114.048 -3.38798 -0.0830083 0
M  V30 1248 C 113.221 -4.2855 0.875426 0
M  V30 1249 C 112.28 -5.25849 0.192042 0
M  V30 1250 O 111.306 -5.63102 0.830921 0
M  V30 1251 N 112.508 -5.70648 -1.06493 0
M  V30 1252 H 115.273 -2.57439 1.53444 0
M  V30 1253 H 112.834 -1.31057 0.950557 0
M  V30 1254 H 114.826 -4.00936 -0.550685 0
M  V30 1255 H 113.396 -2.99947 -0.880386 0
M  V30 1256 H 112.616 -3.63617 1.52238 0
M  V30 1257 H 113.904 -4.85393 1.52548 0
M  V30 1258 H 113.302 -5.42482 -1.60405 0
M  V30 1259 H 111.859 -6.34859 -1.47641 0
M  V30 1260 N 115.292 -0.849877 -1.32721 0
M  V30 1261 C 116.222 -0.306308 -2.31482 0
M  V30 1262 C 117.203 0.591952 -1.59468 0
M  V30 1263 O 118.388 0.513199 -1.87296 0
M  V30 1264 C 115.518 0.510204 -3.43532 0
M  V30 1265 C 114.472 -0.293209 -4.26994 0
M  V30 1266 C 113.798 0.647743 -5.30762 0
M  V30 1267 C 115.098 -1.51634 -4.99804 0
M  V30 1268 H 116.792 -1.13153 -2.77195 0
M  V30 1269 H 114.338 -0.545553 -1.33266 0
M  V30 1270 H 116.291 0.900856 -4.11658 0
M  V30 1271 H 115.015 1.36874 -2.96535 0
M  V30 1272 H 113.674 -0.665555 -3.60508 0
M  V30 1273 H 113.322 1.50299 -4.8002 0
M  V30 1274 H 113.022 0.11422 -5.87489 0
M  V30 1275 H 114.546 1.03567 -6.01753 0
M  V30 1276 H 115.96 -1.19824 -5.60638 0
M  V30 1277 H 114.357 -1.98745 -5.66234 0
M  V30 1278 H 115.427 -2.28018 -4.27943 0
M  V30 1279 N 116.77 1.45427 -0.607355 0
M  V30 1280 C 118.017 2.02241 -0.102455 0
M  V30 1281 C 118.345 1.4758 1.26691 0
M  V30 1282 O 117.6 0.640468 1.84923 0
M  V30 1283 C 117.899 3.57398 -0.0129263 0
M  V30 1284 C 117.565 4.3121 -1.31792 0
M  V30 1285 C 116.227 4.51092 -1.67539 0
M  V30 1286 C 118.579 4.73401 -2.18039 0
M  V30 1287 C 115.907 5.10422 -2.89285 0
M  V30 1288 C 118.259 5.34078 -3.39034 0
M  V30 1289 C 116.923 5.52184 -3.75033 0
M  V30 1290 H 116.193 0.740051 -0.037491 0
M  V30 1291 H 118.84 1.74494 -0.788926 0
M  V30 1292 H 117.145 3.84421 0.756806 0
M  V30 1293 H 118.842 3.99061 0.393881 0
M  V30 1294 H 115.432 4.16047 -1.02968 0
M  V30 1295 H 119.616 4.57774 -1.91721 0
M  V30 1296 H 114.872 5.22629 -3.17283 0
M  V30 1297 H 119.046 5.65724 -4.06115 0
M  V30 1298 H 116.673 5.97925 -4.69457 0
M  V30 1299 N 118.248 0.346503 1.53744 0
M  V30 1300 C 119.198 -0.524953 2.21874 0
M  V30 1301 C 120.182 -1.06376 1.20718 0
M  V30 1302 O 121.374 -0.996972 1.46251 0
M  V30 1303 C 118.503 -1.6739 2.99726 0
M  V30 1304 C 117.589 -1.14888 4.08242 0
M  V30 1305 N 117.98 -0.345329 5.0462 0
M  V30 1306 C 116.278 -1.4255 4.22606 0
M  V30 1307 C 116.979 -0.0600706 5.81669 0
M  V30 1308 N 115.955 -0.65252 5.39669 0
M  V30 1309 H 119.757 0.0960091 2.93743 0
M  V30 1310 H 117.271 0.15352 1.61673 0
M  V30 1311 H 119.268 -2.3102 3.47038 0
M  V30 1312 H 117.928 -2.29811 2.29384 0
M  V30 1313 H 118.939 0.0138439 5.17898 0
M  V30 1314 H 115.616 -2.05389 3.63486 0
M  V30 1315 H 117.006 0.588321 6.69319 0
M  V30 1316 N 119.726 -1.57421 0.075193 0
M  V30 1317 C 120.974 -1.93236 -0.591974 0
M  V30 1318 C 121.295 -0.956241 -1.69944 0
M  V30 1319 O 120.565 -0.00494792 -1.95899 0
M  V30 1320 H 119.145 -0.713355 -0.22166 0
M  V30 1321 H 121.807 -1.9444 0.133848 0
M  V30 1322 H 120.903 -2.95131 -1.01509 0
M  V30 1323 N 121.204 0.198386 -1.56346 0
M  V30 1324 C 122.114 1.2664 -1.97483 0
M  V30 1325 C 123.13 1.49989 -0.882002 0
M  V30 1326 O 124.306 1.62668 -1.18748 0
M  V30 1327 C 121.371 2.59141 -2.30319 0
M  V30 1328 C 120.432 2.43892 -3.53292 0
M  V30 1329 C 119.665 3.70074 -3.84553 0
M  V30 1330 O 119.888 4.74101 -3.1715 0
M  V30 1331 O 118.822 3.658 -4.7799 0
M  V30 1332 H 122.648 0.947304 -2.88548 0
M  V30 1333 H 120.233 0.403123 -1.43859 0
M  V30 1334 H 122.115 3.37352 -2.5253 0
M  V30 1335 H 120.79 2.90684 -1.42423 0
M  V30 1336 H 119.697 1.63803 -3.36332 0
M  V30 1337 H 121.03 2.17282 -4.41644 0
M  V30 1338 N 122.682 1.50554 0.465978 0
M  V30 1339 C 123.612 1.72722 1.57128 0
M  V30 1340 C 124.593 0.576294 1.6004 0
M  V30 1341 O 125.778 0.81598 1.76225 0
M  V30 1342 C 122.908 1.82605 2.95419 0
M  V30 1343 C 121.862 2.97835 3.07373 0
M  V30 1344 C 121.188 2.92867 4.47363 0
M  V30 1345 C 122.488 4.38265 2.84114 0
M  V30 1346 H 124.182 2.65267 1.38829 0
M  V30 1347 H 121.728 1.2765 0.666441 0
M  V30 1348 H 123.681 1.96698 3.72677 0
M  V30 1349 H 122.405 0.866858 3.14886 0
M  V30 1350 H 121.064 2.83401 2.3255 0
M  V30 1351 H 120.712 1.94783 4.63755 0
M  V30 1352 H 120.412 3.70227 4.56296 0
M  V30 1353 H 121.936 3.09015 5.26633 0
M  V30 1354 H 123.35 4.53198 3.51118 0
M  V30 1355 H 121.747 5.17115 3.04487 0
M  V30 1356 H 122.817 4.50281 1.7993 0
M  V30 1357 N 124.16 -0.719506 1.40217 0
M  V30 1358 C 125.388 -1.50864 1.41589 0
M  V30 1359 C 125.803 -1.88794 0.0145275 0
M  V30 1360 O 125.16 -1.55174 -0.960594 0
M  V30 1361 C 125.211 -2.78646 2.30302 0
M  V30 1362 O 124.932 -2.42321 3.64983 0
M  V30 1363 C 126.433 -3.72569 2.40224 0
M  V30 1364 H 123.653 -0.465709 0.48307 0
M  V30 1365 H 126.197 -0.88785 1.84221 0
M  V30 1366 H 124.352 -3.37019 1.91042 0
M  V30 1367 H 124.766 -3.24514 4.12057 0
M  V30 1368 H 126.24 -4.5908 3.06512 0
M  V30 1369 H 126.717 -4.15403 1.42608 0
M  V30 1370 H 127.323 -3.20109 2.80019 0
M  V30 1371 N 125.638 -1.25649 -0.95132 0
M  V30 1372 C 127.054 -1.02542 -1.223 0
M  V30 1373 C 127.254 0.255715 -1.99871 0
M  V30 1374 O 126.31 0.967558 -2.33226 0
M  V30 1375 C 127.623 -2.25065 -1.99415 0
M  V30 1376 C 129.171 -2.29861 -2.12446 0
M  V30 1377 C 129.646 -3.52048 -2.92961 0
M  V30 1378 N 131.137 -3.52465 -3.00538 0
M  V30 1379 C 131.872 -4.43672 -3.63239 0
M  V30 1380 N 131.368 -5.45157 -4.27523 0
M  V30 1381 N 133.161 -4.31346 -3.60412 0
M  V30 1382 H 125.312 -2.07951 -0.432471 0
M  V30 1383 H 127.575 -0.91339 -0.253816 0
M  V30 1384 H 127.281 -3.18194 -1.49817 0
M  V30 1385 H 127.155 -2.28502 -3.00111 0
M  V30 1386 H 129.542 -1.37252 -2.61239 0
M  V30 1387 H 129.623 -2.3044 -1.11044 0
M  V30 1388 H 129.267 -4.44981 -2.44856 0
M  V30 1389 H 129.197 -3.48715 -3.94596 0
M  V30 1390 H 131.688 -2.79056 -2.54826 0
M  V30 1391 H 132.001 -6.10958 -4.73234 0
M  V30 1392 H 130.346 -5.49025 -4.26141 0
M  V30 1393 H 133.537 -3.51288 -3.09377 0
M  V30 1394 H 133.71 -5.02624 -4.0899 0
M  V30 1395 N 127.117 1.15442 -1.07289 0
M  V30 1396 C 128.067 2.18164 -0.662467 0
M  V30 1397 C 129.051 1.57845 0.312074 0
M  V30 1398 O 130.243 1.76552 0.125905 0
M  V30 1399 C 127.372 3.43246 -0.0611295 0
M  V30 1400 C 126.458 4.1062 -1.06077 0
M  V30 1401 N 126.849 4.53491 -2.24008 0
M  V30 1402 C 125.147 4.36949 -0.893964 0
M  V30 1403 C 125.848 5.05731 -2.87422 0
M  V30 1404 N 124.824 4.99236 -2.15091 0
M  V30 1405 H 128.626 2.49038 -1.56068 0
M  V30 1406 H 126.14 1.32003 -0.945988 0
M  V30 1407 H 128.137 4.16145 0.250792 0
M  V30 1408 H 126.797 3.13854 0.832207 0
M  V30 1409 H 127.808 4.46898 -2.6173 0
M  V30 1410 H 124.485 4.17466 -0.0534693 0
M  V30 1411 H 125.875 5.48865 -3.87553 0
M  V30 1412 N 128.595 0.856903 1.32268 0
M  V30 1413 C 129.505 0.306131 2.32594 0
M  V30 1414 C 130.521 -0.577209 1.64147 0
M  V30 1415 O 131.697 -0.477043 1.95669 0
M  V30 1416 C 128.762 -0.494561 3.43154 0
M  V30 1417 C 127.823 0.415186 4.27288 0
M  V30 1418 C 127.056 -0.347387 5.32568 0
M  V30 1419 O 127.279 -1.57708 5.48165 0
M  V30 1420 O 126.213 0.287982 6.01211 0
M  V30 1421 H 130.039 1.13737 2.81598 0
M  V30 1422 H 127.624 0.619902 1.35932 0
M  V30 1423 H 129.506 -0.948944 4.10576 0
M  V30 1424 H 128.181 -1.30257 2.96336 0
M  V30 1425 H 127.088 0.917793 3.62667 0
M  V30 1426 H 128.421 1.18844 4.77637 0
M  V30 1427 N 130.073 -1.45103 0.615059 0
M  V30 1428 C 131.298 -2.07064 0.117988 0
M  V30 1429 C 131.723 -1.4554 -1.19163 0
M  V30 1430 O 131.081 -0.550855 -1.72729 0
M  V30 1431 C 131.129 -3.606 -0.000288387 0
M  V30 1432 O 130.233 -3.98847 -1.04856 0
M  V30 1433 H 129.574 -0.659467 0.0774581 0
M  V30 1434 H 132.104 -1.86236 0.847186 0
M  V30 1435 H 132.114 -4.07529 -0.196091 0
M  V30 1436 H 130.789 -4.04765 0.955932 0
M  V30 1437 H 129.366 -3.63577 -0.828619 0
M  V30 1438 N 131.551 -0.354651 -1.53558 0
M  V30 1439 C 132.967 -0.00315426 -1.596 0
M  V30 1440 C 133.167 1.47741 -1.37021 0
M  V30 1441 O 132.223 2.23759 -1.16996 0
M  V30 1442 C 133.536 -0.44929 -2.97325 0
M  V30 1443 C 135.084 -0.402578 -3.104 0
M  V30 1444 C 135.559 -0.824355 -4.5052 0
M  V30 1445 N 137.05 -0.778979 -4.56603 0
M  V30 1446 C 137.785 -1.07715 -5.63192 0
M  V30 1447 N 137.281 -1.44405 -6.77583 0
M  V30 1448 N 139.074 -1.00066 -5.53121 0
M  V30 1449 H 131.225 -1.31893 -1.66487 0
M  V30 1450 H 133.488 -0.538388 -0.780284 0
M  V30 1451 H 133.194 -1.48202 -3.1895 0
M  V30 1452 H 133.068 0.169772 -3.76818 0
M  V30 1453 H 135.455 0.621004 -2.88492 0
M  V30 1454 H 135.536 -1.05699 -2.32941 0
M  V30 1455 H 135.18 -1.846 -4.73165 0
M  V30 1456 H 135.11 -0.147304 -5.26394 0
M  V30 1457 H 137.601 -0.508528 -3.74463 0
M  V30 1458 H 137.914 -1.65612 -7.54846 0
M  V30 1459 H 136.259 -1.4826 -6.79002 0
M  V30 1460 H 139.45 -0.713293 -4.62633 0
M  V30 1461 H 139.623 -1.23638 -6.36096 0
M  V30 1462 N 133.029 1.57378 -0.0835403 0
M  V30 1463 C 134.278 1.93106 0.582498 0
M  V30 1464 C 134.591 0.96651 1.70053 0
M  V30 1465 O 135.797 1.21705 2.42693 0
M  V30 1466 C 134.253 3.43076 1.08751 0
M  V30 1467 C 133.861 4.48 -0.000146404 0
M  V30 1468 C 135.605 3.87785 1.72694 0
M  V30 1469 C 133.512 5.89113 0.519568 0
M  V30 1470 H 132.442 0.720775 0.221358 0
M  V30 1471 H 135.093 1.82821 -0.157675 0
M  V30 1472 H 133.475 3.48474 1.88101 0
M  V30 1473 H 134.649 4.54233 -0.775199 0
M  V30 1474 H 132.964 4.1283 -0.54406 0
M  V30 1475 H 135.561 4.90604 2.1263 0
M  V30 1476 H 135.904 3.25796 2.59158 0
M  V30 1477 H 136.437 3.8504 0.999457 0
M  V30 1478 H 133.176 6.54775 -0.308186 0
M  V30 1479 H 132.696 5.86376 1.26188 0
M  V30 1480 H 134.375 6.39346 0.992237 0
M  V30 1481 N 134.507 -0.190092 1.56449 0
M  V30 1482 C 135.753 -0.911052 1.81184 0
M  V30 1483 C 136.086 -1.82699 0.658396 0
M  V30 1484 O 135.361 -1.91491 -0.340775 0
M  V30 1485 C 135.644 -1.72297 3.16205 0
M  V30 1486 C 135.497 -0.831419 4.42049 0
M  V30 1487 C 136.816 -2.69454 3.47969 0
M  V30 1488 H 133.935 -0.32977 0.659106 0
M  V30 1489 H 136.577 -0.178169 1.89163 0
M  V30 1490 H 134.727 -2.34778 3.09534 0
M  V30 1491 H 136.399 -0.220929 4.60771 0
M  V30 1492 H 134.642 -0.138406 4.33579 0
M  V30 1493 H 135.313 -1.43461 5.33032 0
M  V30 1494 H 137.789 -2.17104 3.54972 0
M  V30 1495 H 136.665 -3.23342 4.43555 0
M  V30 1496 H 136.926 -3.48744 2.71717 0
M  V30 1497 N 135.985 -1.50799 -0.457987 0
M  V30 1498 C 137.234 -1.6168 -1.20593 0
M  V30 1499 C 137.547 -0.32888 -1.92815 0
M  V30 1500 O 138.753 -0.316773 -2.69646 0
M  V30 1501 C 137.209 -2.8545 -2.19195 0
M  V30 1502 C 136.817 -4.21168 -1.52715 0
M  V30 1503 C 138.561 -3.05681 -2.94549 0
M  V30 1504 C 136.468 -5.3611 -2.4968 0
M  V30 1505 H 135.398 -0.602134 -0.453818 0
M  V30 1506 H 138.049 -1.77245 -0.475031 0
M  V30 1507 H 136.431 -2.63472 -2.95632 0
M  V30 1508 H 137.605 -4.53449 -0.819775 0
M  V30 1509 H 135.92 -4.06648 -0.895922 0
M  V30 1510 H 138.517 -3.88727 -3.67145 0
M  V30 1511 H 138.86 -2.17929 -3.54701 0
M  V30 1512 H 139.393 -3.27901 -2.25223 0
M  V30 1513 H 136.132 -6.26057 -1.94249 0
M  V30 1514 H 135.652 -5.0823 -3.18532 0
M  V30 1515 H 137.331 -5.6722 -3.11241 0
M  V30 1516 N 137.463 0.71206 -1.40597 0
M  V30 1517 C 138.711 1.46907 -1.38791 0
M  V30 1518 C 139.032 1.94998 0.00780391 0
M  V30 1519 O 138.302 1.70587 0.963174 0
M  V30 1520 H 136.882 0.545043 -0.51082 0
M  V30 1521 H 139.544 0.843882 -1.75683 0
M  V30 1522 H 138.64 2.34021 -2.06496 0
M  V30 1523 N 138.941 1.26152 0.944643 0
M  V30 1524 C 139.851 1.09176 2.07648 0
M  V30 1525 C 140.867 0.0261935 1.7398 0
M  V30 1526 O 142.043 0.229208 2.00091 0
M  V30 1527 C 139.108 0.722915 3.39079 0
M  V30 1528 C 138.169 1.86752 3.86552 0
M  V30 1529 C 137.402 1.51617 5.11711 0
M  V30 1530 O 137.625 0.416331 5.68879 0
M  V30 1531 O 136.559 2.34975 5.54139 0
M  V30 1532 H 140.385 2.0412 2.24875 0
M  V30 1533 H 137.97 1.05182 1.061 0
M  V30 1534 H 139.852 0.529787 4.18056 0
M  V30 1535 H 138.527 -0.197159 3.23099 0
M  V30 1536 H 137.434 2.11558 3.08535 0
M  V30 1537 H 138.767 2.76719 4.07047 0
M  V30 1538 N 140.419 -1.14872 1.07899 0
M  V30 1539 C 141.349 -2.2193 0.725887 0
M  V30 1540 C 142.33 -1.67622 -0.28927 0
M  V30 1541 O 143.515 -1.93533 -0.160787 0
M  V30 1542 C 140.645 -3.47061 0.128856 0
M  V30 1543 C 139.599 -4.14363 1.07178 0
M  V30 1544 C 138.925 -5.33636 0.337229 0
M  V30 1545 C 140.225 -4.63492 2.40775 0
M  V30 1546 H 141.919 -2.51724 1.62097 0
M  V30 1547 H 139.465 -1.20991 0.780838 0
M  V30 1548 H 141.418 -4.21199 -0.130147 0
M  V30 1549 H 140.142 -3.16617 -0.80134 0
M  V30 1550 H 138.801 -3.42173 1.3158 0
M  V30 1551 H 138.449 -4.99449 -0.596606 0
M  V30 1552 H 138.149 -5.79609 0.965788 0
M  V30 1553 H 139.673 -6.10539 0.0861567 0
M  V30 1554 H 141.087 -5.2913 2.20669 0
M  V30 1555 H 139.484 -5.20148 2.99276 0
M  V30 1556 H 140.554 -3.78834 3.02676 0
M  V30 1557 N 141.898 -0.863906 -1.31812 0
M  V30 1558 C 142.828 -0.330843 -2.31144 0
M  V30 1559 C 143.809 0.575005 -1.60087 0
M  V30 1560 O 144.994 0.493304 -1.8783 0
M  V30 1561 C 142.124 0.47374 -3.44054 0
M  V30 1562 C 141.078 -0.338481 -4.26659 0
M  V30 1563 C 140.404 0.591412 -5.31419 0
M  V30 1564 C 141.704 -1.56926 -4.98168 0
M  V30 1565 H 143.398 -1.16086 -2.75979 0
M  V30 1566 H 140.944 -0.559657 -1.32679 0
M  V30 1567 H 142.897 0.857143 -4.12591 0
M  V30 1568 H 141.621 1.33721 -2.9797 0
M  V30 1569 H 140.28 -0.703754 -3.59782 0
M  V30 1570 H 139.928 1.45199 -4.81587 0
M  V30 1571 H 139.628 0.0519022 -5.87577 0
M  V30 1572 H 141.152 0.97179 -6.02817 0
M  V30 1573 H 142.566 -1.25764 -5.59336 0
M  V30 1574 H 140.963 -2.04739 -5.64094 0
M  V30 1575 H 142.033 -2.32544 -4.25501 0
M  V30 1576 N 143.376 1.44774 -0.622745 0
M  V30 1577 C 144.323 2.30635 0.0871679 0
M  V30 1578 C 145.293 1.42994 0.845097 0
M  V30 1579 O 146.478 1.71907 0.827812 0
M  V30 1580 C 143.618 3.28144 1.06844 0
M  V30 1581 C 142.731 4.30888 0.309809 0
M  V30 1582 C 141.866 5.15494 1.28215 0
M  V30 1583 C 140.905 6.09953 0.512198 0
M  V30 1584 N 140.042 6.87287 1.43458 0
M  V30 1585 H 144.882 2.90803 -0.650974 0
M  V30 1586 H 142.419 1.43286 -0.33281 0
M  V30 1587 H 144.377 3.83157 1.65066 0
M  V30 1588 H 143.007 2.69695 1.77382 0
M  V30 1589 H 142.059 3.78414 -0.388181 0
M  V30 1590 H 143.371 4.97955 -0.290254 0
M  V30 1591 H 142.525 5.74983 1.93596 0
M  V30 1592 H 141.264 4.48481 1.91614 0
M  V30 1593 H 140.269 5.49581 -0.155151 0
M  V30 1594 H 141.494 6.78999 -0.116958 0
M  V30 1595 H 139.44 6.2295 2.05594 0
M  V30 1596 H 139.357 7.50763 0.888335 0
M  V30 1597 H 140.625 7.51306 2.07749 0
M  V30 1598 N 144.854 0.36279 1.53368 0
M  V30 1599 C 146.131 -0.284021 1.93527 0
M  V30 1600 C 146.511 -1.66628 1.29608 0
M  V30 1601 O 145.859 -2.23942 0.45413 0
M  V30 1602 C 146.069 -0.337028 3.47369 0
M  V30 1603 C 147.417 -0.578708 4.20638 0
M  V30 1604 O 148.441 -0.418352 3.53735 0
M  V30 1605 O 147.3 -0.89074 5.39192 0
M  V30 1606 H 144.394 -0.169743 0.809393 0
M  V30 1607 H 146.94 0.41537 1.64538 0
M  V30 1608 H 145.712 0.632217 3.86159 0
M  V30 1609 H 145.335 -1.08243 3.82582 0
M  V30 1610 N 146.332 -1.57332 0.0918853 0
M  V30 1611 C 147.279 -2.13847 -0.868211 0
M  V30 1612 C 148.249 -1.05618 -1.28196 0
M  V30 1613 O 149.434 -1.33387 -1.36427 0
M  V30 1614 C 146.574 -2.72062 -2.12312 0
M  V30 1615 C 145.687 -3.94514 -1.7602 0
M  V30 1616 C 144.822 -4.40903 -2.96273 0
M  V30 1617 C 143.861 -5.55953 -2.56092 0
M  V30 1618 N 142.998 -5.97209 -3.69169 0
M  V30 1619 H 147.838 -2.95575 -0.379406 0
M  V30 1620 H 145.375 -1.46048 -0.175606 0
M  V30 1621 H 147.333 -3.03931 -2.858 0
M  V30 1622 H 145.963 -1.93068 -2.58698 0
M  V30 1623 H 145.015 -3.68979 -0.925135 0
M  V30 1624 H 146.327 -4.7802 -1.42472 0
M  V30 1625 H 145.481 -4.74539 -3.78018 0
M  V30 1626 H 144.22 -3.56291 -3.33029 0
M  V30 1627 H 143.225 -5.21948 -1.72773 0
M  V30 1628 H 144.45 -6.42311 -2.20484 0
M  V30 1629 H 142.396 -5.15543 -4.05649 0
M  V30 1630 H 142.313 -6.75504 -3.39456 0
M  V30 1631 H 143.581 -6.35475 -4.51434 0
M  V30 1632 N 147.81 0.181792 -1.56548 0
M  V30 1633 C 148.742 1.24956 -1.92142 0
M  V30 1634 C 149.755 1.41022 -0.813422 0
M  V30 1635 O 150.944 1.41212 -1.09186 0
M  V30 1636 C 148.044 2.61981 -2.14987 0
M  V30 1637 C 147.217 2.6735 -3.46183 0
M  V30 1638 C 146.276 3.85664 -3.5798 0
M  V30 1639 O 145.302 3.72148 -4.30691 0
M  V30 1640 N 146.504 5.01683 -2.92053 0
M  V30 1641 H 149.269 0.947329 -2.84334 0
M  V30 1642 H 146.83 0.371629 -1.57577 0
M  V30 1643 H 148.822 3.3958 -2.20154 0
M  V30 1644 H 147.392 2.84637 -1.2923 0
M  V30 1645 H 146.612 1.75925 -3.52766 0
M  V30 1646 H 147.9 2.67939 -4.32534 0
M  V30 1647 H 147.298 5.15564 -2.32832 0
M  V30 1648 H 145.855 5.77181 -3.0283 0
M  V30 1649 N 149.288 1.51039 0.449983 0
M  V30 1650 C 150.218 1.74379 1.55288 0
M  V30 1651 C 151.199 0.593236 1.5942 0
M  V30 1652 O 152.384 0.834625 1.7535 0
M  V30 1653 C 149.514 1.85728 2.93466 0
M  V30 1654 C 148.468 3.01078 3.04197 0
M  V30 1655 C 147.794 2.97595 4.44231 0
M  V30 1656 C 149.094 4.41254 2.7945 0
M  V30 1657 H 150.788 2.66725 1.36008 0
M  V30 1658 H 148.334 1.2835 0.652864 0
M  V30 1659 H 150.287 2.0064 3.70569 0
M  V30 1660 H 149.011 0.900207 3.13949 0
M  V30 1661 H 147.67 2.85851 2.29531 0
M  V30 1662 H 147.318 1.99691 4.61663 0
M  V30 1663 H 147.018 3.75046 4.52343 0
M  V30 1664 H 148.542 3.14583 5.23326 0
M  V30 1665 H 149.956 4.56897 3.46292 0
M  V30 1666 H 148.353 5.20315 2.98985 0
M  V30 1667 H 149.423 4.52164 1.75144 0
M  V30 1668 N 150.766 -0.704594 1.40972 0
M  V30 1669 C 151.714 -1.83994 1.42299 0
M  V30 1670 C 152.708 -1.66684 0.302111 0
M  V30 1671 O 153.914 -1.73655 0.473697 0
M  V30 1672 H 150.289 -0.606171 0.44504 0
M  V30 1673 H 152.26 -1.79992 2.38003 0
M  V30 1674 C 151.009 -3.21946 1.31323 0
M  V30 1675 H 150.332 -3.35878 2.16855 0
M  V30 1676 H 151.772 -4.01491 1.36311 0
M  V30 1677 C 150.231 -3.36891 0.0245977 0
M  V30 1678 O 150.761 -3.90687 -0.934153 0
M  V30 1679 N 148.967 -2.90559 -0.0485243 0
M  V30 1680 H 148.514 -2.46968 0.732419 0
M  V30 1681 H 148.472 -3.00937 -0.910171 0
M  V30 1682 N 152.244 -1.26651 -0.937939 0
M  V30 1683 C 153.491 -1.12387 -1.6845 0
M  V30 1684 C 153.819 0.332208 -1.91642 0
M  V30 1685 O 153.074 1.2602 -1.49725 0
M  V30 1686 C 153.373 -1.84168 -3.06295 0
M  V30 1687 C 153.039 -3.34056 -3.02849 0
M  V30 1688 C 151.701 -3.74942 -3.01616 0
M  V30 1689 C 154.053 -4.29741 -2.9491 0
M  V30 1690 C 151.381 -5.09894 -2.90215 0
M  V30 1691 C 153.733 -5.64738 -2.8505 0
M  V30 1692 C 152.397 -6.0493 -2.82162 0
M  V30 1693 H 151.667 -0.411252 -0.616403 0
M  V30 1694 H 154.314 -1.57134 -1.09459 0
M  V30 1695 H 152.619 -1.319 -3.6893 0
M  V30 1696 H 154.316 -1.70569 -3.62915 0
M  V30 1697 H 150.906 -3.01534 -3.0459 0
M  V30 1698 H 155.09 -3.99133 -2.94969 0
M  V30 1699 H 150.346 -5.40194 -2.86358 0
M  V30 1700 H 154.52 -6.38561 -2.77872 0
M  V30 1701 H 152.147 -7.09457 -2.73084 0
M  V30 1702 N 153.722 1.14298 -1.08507 0
M  V30 1703 C 154.968 1.85633 -0.816581 0
M  V30 1704 C 155.301 1.82784 0.656021 0
M  V30 1705 O 154.576 1.25926 1.48233 0
M  V30 1706 C 154.859 3.34223 -1.34041 0
M  V30 1707 C 154.712 3.45639 -2.87843 0
M  V30 1708 C 156.031 4.29356 -0.9665 0
M  V30 1709 H 153.15 0.67402 -0.298104 0
M  V30 1710 H 155.792 1.34214 -1.34487 0
M  V30 1711 H 153.942 3.78144 -0.89104 0
M  V30 1712 H 155.614 3.10498 -3.41158 0
M  V30 1713 H 153.857 2.86817 -3.25451 0
M  V30 1714 H 154.528 4.50089 -3.19569 0
M  V30 1715 H 157.004 3.93457 -1.35391 0
M  V30 1716 H 155.88 5.3178 -1.3602 0
M  V30 1717 H 156.141 4.41919 0.126362 0
M  V30 1718 N 155.201 0.870884 1.31352 0
M  V30 1719 C 156.164 0.332243 2.26779 0
M  V30 1720 C 157.164 -0.517302 1.52252 0
M  V30 1721 O 158.354 -0.326477 1.71113 0
M  V30 1722 C 155.486 -0.528066 3.36785 0
M  V30 1723 H 156.679 1.17469 2.75937 0
M  V30 1724 H 154.232 0.64655 1.423 0
M  V30 1725 H 154.967 -1.39167 2.92922 0
M  V30 1726 H 154.752 0.0802582 3.92018 0
M  V30 1727 H 156.242 -0.897179 4.07849 0
M  V30 1728 N 156.679 -1.44442 0.630414 0
M  V30 1729 C 157.919 -2.03934 0.137919 0
M  V30 1730 C 158.283 -1.48509 -1.21692 0
M  V30 1731 O 159.484 -1.99499 -1.80149 0
M  V30 1732 C 157.755 -3.57187 0.123373 0
M  V30 1733 S 159.314 -4.37741 -0.304604 0
M  V30 1734 H 156.132 -0.708401 0.0607353 0
M  V30 1735 H 158.734 -1.76835 0.833643 0
M  V30 1736 H 157.438 -3.95032 1.11256 0
M  V30 1737 H 156.969 -3.88895 -0.59362 0
M  V30 1738 H 158.984 -4.71403 -1.54897 0
M  V30 1739 N 158.157 -0.370918 -1.53173 0
M  V30 1740 C 159.405 0.216673 -2.00935 0
M  V30 1741 C 159.726 1.48845 -1.25977 0
M  V30 1742 O 158.996 1.92286 -0.374551 0
M  V30 1743 H 157.576 0.0830565 -0.742368 0
M  V30 1744 H 160.238 -0.49838 -1.8842 0
M  V30 1745 H 159.334 0.439893 -3.08984 0
M  V30 1746 N 159.635 1.57281 -0.100228 0
M  V30 1747 C 160.565 2.17328 0.853857 0
M  V30 1748 C 161.546 1.10804 1.2906 0
M  V30 1749 O 162.731 1.38963 1.35657 0
M  V30 1750 C 159.861 2.75772 2.11109 0
M  V30 1751 C 158.815 3.87713 1.81279 0
M  V30 1752 C 158.141 4.32882 3.13874 0
M  V30 1753 C 159.441 5.10677 1.09574 0
M  V30 1754 H 161.135 2.97305 0.353545 0
M  V30 1755 H 158.681 1.43009 0.168612 0
M  V30 1756 H 160.634 3.16433 2.78296 0
M  V30 1757 H 159.358 1.93057 2.63432 0
M  V30 1758 H 158.017 3.476 1.16489 0
M  V30 1759 H 157.665 3.47051 3.64095 0
M  V30 1760 H 157.365 5.08358 2.94696 0
M  V30 1761 H 158.889 4.7618 3.82211 0
M  V30 1762 H 160.303 5.48474 1.66879 0
M  V30 1763 H 158.7 5.91615 1.00557 0
M  V30 1764 H 159.77 4.84835 0.0793299 0
M  V30 1765 N 161.113 -0.173488 1.56642 0
M  V30 1766 C 162.045 -1.23935 1.92802 0
M  V30 1767 C 163.058 -1.40589 0.820889 0
M  V30 1768 O 164.247 -1.40631 1.09933 0
M  V30 1769 C 161.347 -2.60837 2.16373 0
M  V30 1770 C 160.52 -2.6551 3.47596 0
M  V30 1771 C 159.579 -3.8376 3.60021 0
M  V30 1772 O 158.605 -3.69859 4.32658 0
M  V30 1773 N 159.807 -5.00127 2.94709 0
M  V30 1774 H 162.572 -0.932236 2.84832 0
M  V30 1775 H 160.133 -0.363268 1.57772 0
M  V30 1776 H 162.125 -3.38407 2.21952 0
M  V30 1777 H 160.695 -2.83948 1.30738 0
M  V30 1778 H 159.915 -1.74052 3.53694 0
M  V30 1779 H 161.203 -2.65641 4.33949 0
M  V30 1780 H 160.601 -5.14322 2.35563 0
M  V30 1781 H 159.158 -5.75567 3.05886 0
M  V30 1782 N 162.591 -1.51276 -0.441967 0
M  V30 1783 C 163.816 -1.67799 -1.21895 0
M  V30 1784 C 164.241 -0.372864 -1.84367 0
M  V30 1785 O 163.599 0.666501 -1.68604 0
M  V30 1786 C 163.647 -2.79199 -2.28211 0
M  V30 1787 O 162.751 -2.42479 -3.33583 0
M  V30 1788 H 162.092 -0.559649 -0.357336 0
M  V30 1789 H 164.622 -1.97815 -0.522522 0
M  V30 1790 H 164.632 -3.03146 -2.73069 0
M  V30 1791 H 163.307 -3.73906 -1.82118 0
M  V30 1792 H 161.884 -2.29087 -2.94234 0
M  V30 1793 N 164.069 0.697108 -1.41344 0
M  V30 1794 C 165.032 1.79281 -1.42797 0
M  V30 1795 C 166.032 1.57607 -0.318837 0
M  V30 1796 O 167.222 1.64309 -0.578642 0
M  V30 1797 C 164.354 3.17632 -1.23785 0
M  V30 1798 H 165.547 1.79385 -2.40335 0
M  V30 1799 H 163.1 0.904582 -1.27464 0
M  V30 1800 H 163.835 3.23167 -0.270814 0
M  V30 1801 H 163.62 3.34765 -2.04144 0
M  V30 1802 H 165.11 3.97617 -1.27633 0
M  V30 1803 N 165.547 1.27147 0.931209 0
M  V30 1804 C 166.777 1.15914 1.71019 0
M  V30 1805 C 167.185 -0.287112 1.87009 0
M  V30 1806 O 166.528 -1.20761 1.38429 0
M  V30 1807 C 166.59 1.76647 3.13107 0
M  V30 1808 C 166.254 3.25807 3.20467 0
M  V30 1809 C 167.251 4.22489 3.02983 0
M  V30 1810 C 164.936 3.66452 3.43538 0
M  V30 1811 C 166.93 5.57794 3.08454 0
M  V30 1812 C 164.617 5.01888 3.48643 0
M  V30 1813 C 165.615 5.97369 3.31119 0
M  V30 1814 O 165.303 7.30337 3.35952 0
M  V30 1815 H 165.035 0.404062 0.54195 0
M  V30 1816 H 167.589 1.68457 1.17521 0
M  V30 1817 H 165.819 1.18578 3.68071 0
M  V30 1818 H 167.508 1.60179 3.72958 0
M  V30 1819 H 168.274 3.92425 2.85004 0
M  V30 1820 H 164.153 2.92611 3.5623 0
M  V30 1821 H 167.697 6.32298 2.94694 0
M  V30 1822 H 163.594 5.31609 3.66145 0
M  V30 1823 H 164.362 7.38739 3.5243 0
M  V30 1824 N 167.025 -1.13721 1.09112 0
M  V30 1825 C 168.271 -1.85198 0.826414 0
M  V30 1826 C 168.604 -1.83129 -0.646319 0
M  V30 1827 O 167.879 -1.2671 -1.47563 0
M  V30 1828 C 168.162 -3.33507 1.35812 0
M  V30 1829 C 168.015 -3.44108 2.89672 0
M  V30 1830 C 169.334 -4.28838 0.989256 0
M  V30 1831 H 166.453 -0.67243 0.301675 0
M  V30 1832 H 169.095 -1.33499 1.35197 0
M  V30 1833 H 167.245 -3.77666 0.911082 0
M  V30 1834 H 168.917 -3.08684 3.428 0
M  V30 1835 H 167.16 -2.85087 3.26967 0
M  V30 1836 H 167.831 -4.48388 3.21951 0
M  V30 1837 H 170.307 -3.92734 1.37475 0
M  V30 1838 H 169.183 -5.31051 1.38838 0
M  V30 1839 H 169.444 -4.4198 -0.102924 0
M  V30 1840 N 168.503 -0.877838 -1.30888 0
M  V30 1841 C 169.728 -0.506629 -2.01117 0
M  V30 1842 C 170.153 0.895564 -1.65412 0
M  V30 1843 O 169.511 1.5923 -0.866922 0
M  V30 1844 C 169.559 -0.680223 -3.54126 0
M  V30 1845 O 168.663 0.277033 -4.11468 0
M  V30 1846 H 168.004 -0.200518 -0.633 0
M  V30 1847 H 170.534 -1.18342 -1.66902 0
M  V30 1848 H 170.544 -0.5765 -4.03907 0
M  V30 1849 H 169.219 -1.70261 -3.79452 0
M  V30 1850 H 167.796 0.127606 -3.72682 0
M  V30 1851 N 169.982 1.44106 -0.638065 0
M  V30 1852 C 170.892 2.34513 0.0637334 0
M  V30 1853 C 171.908 1.53018 0.828346 0
M  V30 1854 O 173.084 1.85723 0.779036 0
M  V30 1855 C 170.149 3.31095 1.02844 0
M  V30 1856 C 169.21 4.28497 0.26244 0
M  V30 1857 C 168.443 5.20465 1.1812 0
M  V30 1858 O 168.666 5.16514 2.42011 0
M  V30 1859 O 167.6 5.98251 0.661774 0
M  V30 1860 H 171.426 2.95989 -0.68003 0
M  V30 1861 H 169.011 1.43994 -0.398252 0
M  V30 1862 H 170.893 3.90526 1.58327 0
M  V30 1863 H 169.568 2.72144 1.7527 0
M  V30 1864 H 168.475 3.72592 -0.335602 0
M  V30 1865 H 169.808 4.90388 -0.421936 0
M  V30 1866 N 171.46 0.379036 1.52974 0
M  V30 1867 C 172.408 -0.476033 2.27677 0
M  V30 1868 C 173.402 -1.0719 1.31174 0
M  V30 1869 O 174.608 -1.01355 1.48752 0
M  V30 1870 H 170.983 -0.172255 0.732006 0
M  V30 1871 H 172.954 0.175615 2.97883 0
M  V30 1872 C 171.703 -1.5967 3.0887 0
M  V30 1873 H 171.026 -1.1475 3.82978 0
M  V30 1874 H 172.466 -2.16943 3.64296 0
M  V30 1875 C 170.925 -2.54682 2.20542 0
M  V30 1876 O 171.455 -3.57836 1.82527 0
M  V30 1877 N 169.661 -2.24183 1.84907 0
M  V30 1878 H 169.208 -1.40333 2.1602 0
M  V30 1879 H 169.166 -2.88006 1.26096 0
M  V30 1880 N 172.938 -1.57226 0.108567 0
M  V30 1881 C 173.901 -2.13602 -0.831082 0
M  V30 1882 C 174.901 -1.06841 -1.20173 0
M  V30 1883 O 176.091 -1.32666 -1.12895 0
M  V30 1884 C 173.223 -2.66769 -2.12243 0
M  V30 1885 H 174.416 -2.97951 -0.341317 0
M  V30 1886 H 171.969 -1.55667 -0.14057 0
M  V30 1887 H 172.704 -1.85977 -2.65675 0
M  V30 1888 H 172.489 -3.44839 -1.86625 0
M  V30 1889 H 173.979 -3.10332 -2.79435 0
M  V30 1890 N 174.416 0.165178 -1.56732 0
M  V30 1891 C 175.827 0.727046 -1.71962 0
M  V30 1892 C 176.178 1.82508 -0.720078 0
M  V30 1893 O 175.303 2.16082 0.117242 0
M  V30 1894 C 175.898 1.32559 -3.11791 0
M  V30 1895 C 174.457 1.83422 -3.28684 0
M  V30 1896 C 173.604 0.715567 -2.67908 0
M  V30 1897 H 176.555 -0.0602896 -1.58585 0
M  V30 1898 H 176.576 2.19533 -3.10782 0
M  V30 1899 H 176.088 0.526195 -3.84516 0
M  V30 1900 H 174.189 2.65986 -2.60926 0
M  V30 1901 H 174.302 1.97543 -4.36478 0
M  V30 1902 H 172.666 1.13758 -2.27884 0
M  V30 1903 H 173.449 -0.0720836 -3.43224 0
M  V30 1904 N 175.894 1.51508 0.433938 0
M  V30 1905 C 176.804 1.75917 1.5521 0
M  V30 1906 C 177.82 0.643545 1.61662 0
M  V30 1907 O 178.996 0.926183 1.7884 0
M  V30 1908 C 176.061 1.88213 2.91164 0
M  V30 1909 C 175.122 3.12074 2.94802 0
M  V30 1910 C 174.355 3.23774 4.24271 0
M  V30 1911 O 174.578 2.4133 5.16833 0
M  V30 1912 O 173.512 4.16774 4.34262 0
M  V30 1913 H 177.338 2.70777 1.37527 0
M  V30 1914 H 174.923 1.36051 0.617293 0
M  V30 1915 H 176.805 1.98267 3.71845 0
M  V30 1916 H 175.48 0.965413 3.08968 0
M  V30 1917 H 174.387 3.07497 2.13065 0
M  V30 1918 H 175.72 4.03446 2.81943 0
M  V30 1919 N 177.372 -0.689602 1.41712 0
M  V30 1920 C 178.335 -1.78521 1.43746 0
M  V30 1921 C 179.335 -1.57436 0.327191 0
M  V30 1922 O 180.525 -1.64 0.587348 0
M  V30 1923 C 177.657 -3.16971 1.25467 0
M  V30 1924 H 178.85 -1.78108 2.41283 0
M  V30 1925 H 176.403 -0.89781 1.27942 0
M  V30 1926 H 177.138 -3.23019 0.287948 0
M  V30 1927 H 176.923 -3.33678 2.05917 0
M  V30 1928 H 178.413 -3.96935 1.2974 0
M  V30 1929 N 178.85 -1.27639 -0.924453 0
M  V30 1930 C 180.097 -1.14167 -1.67249 0
M  V30 1931 C 180.425 0.311863 -1.91984 0
M  V30 1932 O 179.68 1.24425 -1.51053 0
M  V30 1933 C 179.979 -1.87407 -3.04325 0
M  V30 1934 C 179.645 -3.37249 -2.99289 0
M  V30 1935 C 178.307 -3.7812 -2.97622 0
M  V30 1936 C 180.659 -4.32845 -2.90336 0
M  V30 1937 C 177.987 -5.12944 -2.8479 0
M  V30 1938 C 180.339 -5.6773 -2.79045 0
M  V30 1939 C 179.003 -6.07889 -2.7573 0
M  V30 1940 H 178.273 -0.417766 -0.612007 0
M  V30 1941 H 180.92 -1.58286 -1.07786 0
M  V30 1942 H 179.225 -1.35805 -3.67511 0
M  V30 1943 H 180.922 -1.74408 -3.61086 0
M  V30 1944 H 177.512 -3.04748 -3.01374 0
M  V30 1945 H 181.696 -4.02239 -2.90719 0
M  V30 1946 H 176.952 -5.432 -2.80612 0
M  V30 1947 H 181.126 -6.41472 -2.71083 0
M  V30 1948 H 178.753 -7.12314 -2.65544 0
M  V30 1949 N 180.328 1.1314 -1.09713 0
M  V30 1950 C 181.574 1.84757 -0.836224 0
M  V30 1951 C 181.907 1.8347 0.636598 0
M  V30 1952 O 181.182 1.27491 1.46889 0
M  V30 1953 C 181.465 3.32782 -1.37578 0
M  V30 1954 C 181.318 3.42567 -2.91493 0
M  V30 1955 C 182.637 4.28307 -1.01198 0
M  V30 1956 H 179.756 0.67082 -0.305236 0
M  V30 1957 H 182.398 1.3278 -1.35903 0
M  V30 1958 H 180.548 3.77177 -0.931097 0
M  V30 1959 H 182.22 3.06862 -3.44432 0
M  V30 1960 H 180.463 2.83349 -3.28475 0
M  V30 1961 H 181.134 4.46674 -3.24324 0
M  V30 1962 H 183.61 3.91999 -1.39556 0
M  V30 1963 H 182.486 5.30307 -1.41653 0
M  V30 1964 H 182.747 4.42029 0.0794833 0
M  V30 1965 N 181.806 0.884767 1.30421 0
M  V30 1966 C 182.769 0.356277 2.26414 0
M  V30 1967 C 183.769 -0.501124 1.52792 0
M  V30 1968 O 184.959 -0.30831 1.7145 0
M  V30 1969 C 182.091 -0.492316 3.37326 0
M  V30 1970 H 183.284 1.20389 2.74675 0
M  V30 1971 H 180.837 0.661607 1.41607 0
M  V30 1972 H 181.572 -1.36052 2.94381 0
M  V30 1973 H 181.357 0.121832 3.91911 0
M  V30 1974 H 182.847 -0.853871 4.08777 0
M  V30 1975 N 183.284 -1.43765 0.645699 0
M  V30 1976 C 184.214 -2.33471 -0.0370477 0
M  V30 1977 C 185.195 -1.49042 -0.819779 0
M  V30 1978 O 186.38 -1.77726 -0.782758 0
M  V30 1979 C 183.51 -3.32311 -1.0093 0
M  V30 1980 C 182.464 -4.2667 -0.337201 0
M  V30 1981 C 181.79 -5.1549 -1.42037 0
M  V30 1982 C 183.09 -5.16657 0.765706 0
M  V30 1983 H 184.784 -2.90809 0.712069 0
M  V30 1984 H 182.33 -1.39834 0.343876 0
M  V30 1985 H 184.283 -3.9396 -1.49578 0
M  V30 1986 H 183.007 -2.73213 -1.78948 0
M  V30 1987 H 181.666 -3.66374 0.128771 0
M  V30 1988 H 181.314 -4.52735 -2.1918 0
M  V30 1989 H 181.014 -5.79438 -0.975966 0
M  V30 1990 H 182.538 -5.80012 -1.90838 0
M  V30 1991 H 183.952 -5.72158 0.361702 0
M  V30 1992 H 182.349 -5.89286 1.13413 0
M  V30 1993 H 183.419 -4.56796 1.62683 0
M  V30 1994 N 184.763 -0.387143 -1.52771 0
M  V30 1995 C 185.696 0.493123 -2.22808 0
M  V30 1996 C 186.674 1.0658 -1.22798 0
M  V30 1997 O 187.858 1.11785 -1.51777 0
M  V30 1998 C 184.985 1.68238 -2.93962 0
M  V30 1999 C 184.031 1.23515 -4.08223 0
M  V30 2000 S 184.864 0.21848 -5.35054 0
M  V30 2001 C 186.02 1.41357 -6.09729 0
M  V30 2002 H 186.253 -0.101625 -2.97126 0
M  V30 2003 H 183.786 -0.171323 -1.53447 0
M  V30 2004 H 185.744 2.36443 -3.35567 0
M  V30 2005 H 184.405 2.24842 -2.19328 0
M  V30 2006 H 183.598 2.12304 -4.57103 0
M  V30 2007 H 183.2 0.632044 -3.68621 0
M  V30 2008 H 185.492 2.34101 -6.3577 0
M  V30 2009 H 186.435 0.965736 -7.01484 0
M  V30 2010 H 186.843 1.6294 -5.40473 0
M  V30 2011 N 186.241 1.57166 -0.116904 0
M  V30 2012 C 187.204 2.14039 0.819742 0
M  V30 2013 C 188.204 1.07477 1.19605 0
M  V30 2014 O 189.394 1.33263 1.1219 0
M  V30 2015 C 186.526 2.67891 2.10826 0
M  V30 2016 H 187.719 2.98128 0.325511 0
M  V30 2017 H 185.272 1.55739 0.132312 0
M  V30 2018 H 186.007 1.87384 2.64685 0
M  V30 2019 H 185.792 3.45823 1.84793 0
M  V30 2020 H 187.282 3.11809 2.77785 0
M  V30 2021 N 187.719 -0.156864 1.56817 0
M  V30 2022 C 188.666 -1.19394 1.97519 0
M  V30 2023 C 189.636 -1.4322 0.841265 0
M  V30 2024 O 190.821 -1.55719 1.10255 0
M  V30 2025 C 187.961 -2.52483 2.35258 0
M  V30 2026 C 187.074 -2.35914 3.61896 0
M  V30 2027 C 186.209 -3.61969 3.88782 0
M  V30 2028 C 185.248 -3.40395 5.08722 0
M  V30 2029 N 184.385 -4.58556 5.31668 0
M  V30 2030 H 189.225 -0.839845 2.85921 0
M  V30 2031 H 186.762 -0.403264 1.41464 0
M  V30 2032 H 188.72 -3.30071 2.55165 0
M  V30 2033 H 187.35 -2.85859 1.49949 0
M  V30 2034 H 186.402 -1.49429 3.49821 0
M  V30 2035 H 187.714 -2.15926 4.49641 0
M  V30 2036 H 186.868 -4.47989 4.09135 0
M  V30 2037 H 185.607 -3.84951 2.9944 0
M  V30 2038 H 184.612 -2.52763 4.88253 0
M  V30 2039 H 185.837 -3.18822 5.99608 0
M  V30 2040 H 183.783 -4.81729 4.45279 0
M  V30 2041 H 183.7 -4.41535 6.13664 0
M  V30 2042 H 184.968 -5.45817 5.5651 0
M  V30 2043 N 189.197 -1.51736 -0.425897 0
M  V30 2044 C 190.147 -1.70258 -1.51645 0
M  V30 2045 C 191.131 -0.556488 -1.5097 0
M  V30 2046 O 192.323 -0.812879 -1.5723 0
M  V30 2047 C 189.452 -1.84143 -2.89735 0
M  V30 2048 C 188.538 -3.04572 -2.95122 0
M  V30 2049 N 188.929 -4.2756 -2.70233 0
M  V30 2050 C 187.227 -3.04061 -3.26286 0
M  V30 2051 C 187.928 -5.08908 -2.81757 0
M  V30 2052 N 186.904 -4.43797 -3.13919 0
M  V30 2053 H 190.706 -2.63004 -1.31172 0
M  V30 2054 H 188.22 -1.4954 -0.633375 0
M  V30 2055 H 190.217 -1.95525 -3.68206 0
M  V30 2056 H 188.877 -0.925857 -3.1122 0
M  V30 2057 H 189.888 -4.56315 -2.44943 0
M  V30 2058 H 186.565 -2.22179 -3.53473 0
M  V30 2059 H 187.955 -6.16843 -2.66372 0
M  V30 2060 N 190.675 0.682077 -1.42076 0
M  V30 2061 C 191.905 1.46844 -1.45329 0
M  V30 2062 C 192.313 1.89102 -0.0609328 0
M  V30 2063 O 191.656 1.58238 0.933082 0
M  V30 2064 C 191.718 2.75375 -2.31104 0
M  V30 2065 C 191.382 2.55238 -3.79081 0
M  V30 2066 C 192.379 2.20309 -4.70914 0
M  V30 2067 C 190.064 2.70459 -4.2327 0
M  V30 2068 C 192.058 2.00859 -6.04925 0
M  V30 2069 C 189.745 2.50624 -5.57343 0
M  V30 2070 C 190.743 2.15876 -6.47986 0
M  V30 2071 O 190.431 1.96227 -7.79583 0
M  V30 2072 H 190.163 0.4586 -0.496651 0
M  V30 2073 H 192.717 0.846131 -1.87162 0
M  V30 2074 H 190.947 3.40061 -1.84107 0
M  V30 2075 H 192.636 3.37231 -2.25898 0
M  V30 2076 H 193.402 2.08153 -4.38061 0
M  V30 2077 H 189.281 2.96485 -3.53012 0
M  V30 2078 H 192.825 1.7366 -6.75639 0
M  V30 2079 H 188.722 2.62375 -5.89771 0
M  V30 2080 H 189.49 2.10883 -7.90867 0
M  V30 2081 N 192.153 1.28127 0.917671 0
M  V30 2082 C 193.103 1.08361 2.00604 0
M  V30 2083 C 194.087 0.00847518 1.60898 0
M  V30 2084 O 195.279 0.228167 1.75523 0
M  V30 2085 C 192.408 0.743376 3.35155 0
M  V30 2086 C 191.494 1.85716 3.81275 0
M  V30 2087 N 191.885 3.09822 3.99805 0
M  V30 2088 C 190.183 1.74612 4.10398 0
M  V30 2089 C 190.884 3.82368 4.38372 0
M  V30 2090 N 189.86 3.10192 4.4641 0
M  V30 2091 H 193.662 2.02531 2.12975 0
M  V30 2092 H 191.176 1.18989 1.10523 0
M  V30 2093 H 193.173 0.582859 4.12805 0
M  V30 2094 H 191.833 -0.190595 3.2414 0
M  V30 2095 H 192.844 3.45475 3.85833 0
M  V30 2096 H 189.521 0.883657 4.08041 0
M  V30 2097 H 190.911 4.89082 4.60704 0
M  V30 2098 N 193.631 -1.12557 1.10312 0
M  V30 2099 C 195.047 -1.36036 0.834649 0
M  V30 2100 C 195.247 -1.93946 -0.546539 0
M  V30 2101 O 194.303 -2.16484 -1.29966 0
M  V30 2102 C 195.616 -2.30312 1.9333 0
M  V30 2103 C 197.164 -2.43906 1.9616 0
M  V30 2104 C 197.639 -3.41496 3.05195 0
M  V30 2105 N 199.13 -3.49053 3.04494 0
M  V30 2106 C 199.865 -4.24471 3.85502 0
M  V30 2107 N 199.361 -5.02966 4.76442 0
M  V30 2108 N 201.154 -4.19864 3.73725 0
M  V30 2109 H 193.305 -0.733246 1.99342 0
M  V30 2110 H 195.568 -0.385234 0.866198 0
M  V30 2111 H 195.274 -1.94933 2.92735 0
M  V30 2112 H 195.148 -3.30421 1.81939 0
M  V30 2113 H 197.535 -2.78567 0.973886 0
M  V30 2114 H 197.616 -1.4369 2.11629 0
M  V30 2115 H 197.26 -3.07565 4.04186 0
M  V30 2116 H 197.19 -4.41539 2.86968 0
M  V30 2117 H 199.681 -2.93053 2.38596 0
M  V30 2118 H 199.994 -5.57846 5.34815 0
M  V30 2119 H 198.339 -5.02167 4.80472 0
M  V30 2120 H 201.53 -3.57623 3.02032 0
M  V30 2121 H 201.703 -4.78386 4.37093 0
M  V30 2122 N 195.109 -0.891671 -1.2995 0
M  V30 2123 C 196.039 -0.379797 -2.30391 0
M  V30 2124 C 197.02 0.540919 -1.6127 0
M  V30 2125 O 198.205 0.453352 -1.88834 0
M  V30 2126 C 195.335 0.400654 -3.44981 0
M  V30 2127 C 194.289 -0.428905 -4.25846 0
M  V30 2128 C 193.615 0.478557 -5.32554 0
M  V30 2129 C 194.915 -1.67458 -4.94727 0
M  V30 2130 H 196.609 -1.21914 -2.73454 0
M  V30 2131 H 194.155 -0.587675 -1.31462 0
M  V30 2132 H 196.108 0.769434 -4.14316 0
M  V30 2133 H 194.832 1.27371 -3.0074 0
M  V30 2134 H 193.491 -0.779911 -3.58208 0
M  V30 2135 H 193.139 1.34951 -4.84559 0
M  V30 2136 H 192.839 -0.0727433 -5.87555 0
M  V30 2137 H 194.363 0.843705 -6.04743 0
M  V30 2138 H 195.777 -1.376 -5.56542 0
M  V30 2139 H 194.174 -2.16659 -5.59624 0
M  V30 2140 H 195.244 -2.41518 -4.20473 0
M  V30 2141 N 196.587 1.43421 -0.653314 0
M  V30 2142 C 197.534 2.30768 0.0382271 0
M  V30 2143 C 198.504 1.44755 0.814576 0
M  V30 2144 O 199.689 1.73624 0.791162 0
M  V30 2145 C 196.829 3.30336 0.998599 0
M  V30 2146 C 195.942 4.31448 0.218342 0
M  V30 2147 C 195.077 5.18098 1.17252 0
M  V30 2148 C 194.116 6.10902 0.382702 0
M  V30 2149 N 193.253 6.90176 1.28848 0
M  V30 2150 H 198.093 2.89357 -0.712511 0
M  V30 2151 H 195.63 1.42548 -0.363128 0
M  V30 2152 H 197.588 3.86572 1.56901 0
M  V30 2153 H 196.218 2.73397 1.71621 0
M  V30 2154 H 195.27 3.77506 -0.46836 0
M  V30 2155 H 196.582 4.97227 -0.395812 0
M  V30 2156 H 195.736 5.7896 1.81356 0
M  V30 2157 H 194.475 4.52444 1.82058 0
M  V30 2158 H 193.48 5.49128 -0.27169 0
M  V30 2159 H 194.705 6.78598 -0.260957 0
M  V30 2160 H 192.651 6.27171 1.92334 0
M  V30 2161 H 192.568 7.52478 0.728887 0
M  V30 2162 H 193.836 7.55543 1.91766 0
M  V30 2163 N 198.065 0.39524 1.52563 0
M  V30 2164 C 199.476 -0.0774719 1.86539 0
M  V30 2165 C 199.827 -1.45641 1.31466 0
M  V30 2166 O 198.952 -2.06459 0.648367 0
M  V30 2167 C 199.547 -0.147356 3.38479 0
M  V30 2168 C 198.106 -0.564373 3.72145 0
M  V30 2169 C 197.253 0.269919 2.75983 0
M  V30 2170 H 200.204 0.612876 1.46388 0
M  V30 2171 H 200.225 -0.965343 3.68051 0
M  V30 2172 H 199.737 0.856387 3.78534 0
M  V30 2173 H 197.838 -1.57527 3.37663 0
M  V30 2174 H 197.951 -0.318402 4.78041 0
M  V30 2175 H 196.315 -0.265696 2.5331 0
M  V30 2176 H 197.098 1.27175 3.18875 0
M  V30 2177 N 199.544 -1.57102 0.125237 0
M  V30 2178 C 200.79 -1.95697 -0.532035 0
M  V30 2179 C 201.123 -1.009 -1.6593 0
M  V30 2180 O 200.398 -0.047347 -1.94442 0
M  V30 2181 C 200.681 -3.44181 -1.05884 0
M  V30 2182 C 200.534 -4.49752 0.0654392 0
M  V30 2183 C 201.853 -3.94655 -1.9477 0
M  V30 2184 H 198.972 -0.711571 -0.191925 0
M  V30 2185 H 201.614 -1.88923 0.20206 0
M  V30 2186 H 199.764 -3.50085 -1.68442 0
M  V30 2187 H 201.436 -4.55943 0.700982 0
M  V30 2188 H 199.679 -4.27653 0.727709 0
M  V30 2189 H 200.35 -5.50924 -0.344505 0
M  V30 2190 H 202.826 -3.91094 -1.42074 0
M  V30 2191 H 201.702 -4.99057 -2.28546 0
M  V30 2192 H 201.963 -3.35718 -2.87656 0
M  V30 2193 N 201.022 0.148545 -1.56898 0
M  V30 2194 C 201.969 1.18345 -1.98149 0
M  V30 2195 C 202.939 1.42772 -0.848848 0
M  V30 2196 O 204.124 1.55132 -1.11079 0
M  V30 2197 C 201.264 2.51231 -2.36594 0
M  V30 2198 C 200.377 2.33991 -3.63142 0
M  V30 2199 C 199.512 3.59902 -3.90697 0
M  V30 2200 C 198.551 3.37692 -5.1052 0
M  V30 2201 N 197.688 4.5573 -5.34092 0
M  V30 2202 H 202.528 0.82467 -2.86362 0
M  V30 2203 H 200.065 0.395756 -1.41676 0
M  V30 2204 H 202.023 3.28713 -2.56912 0
M  V30 2205 H 200.653 2.85059 -1.51463 0
M  V30 2206 H 199.705 1.47572 -3.50609 0
M  V30 2207 H 201.017 2.13539 -4.5078 0
M  V30 2208 H 200.171 4.45813 -4.11505 0
M  V30 2209 H 198.91 3.83357 -3.01477 0
M  V30 2210 H 197.915 2.5017 -4.89587 0
M  V30 2211 H 199.14 3.15637 -6.0129 0
M  V30 2212 H 197.086 4.79361 -4.47827 0
M  V30 2213 H 197.003 4.38274 -6.15996 0
M  V30 2214 H 198.271 5.42858 -5.59397 0
M  V30 2215 N 202.5 1.5196 0.417844 0
M  V30 2216 C 203.777 1.56146 1.17803 0
M  V30 2217 C 204.157 0.337275 2.08388 0
M  V30 2218 O 203.505 -0.676447 2.18258 0
M  V30 2219 C 203.715 2.88566 1.96293 0
M  V30 2220 C 205.063 3.41244 2.52662 0
M  V30 2221 O 206.087 2.90247 2.06483 0
M  V30 2222 O 204.946 4.30273 3.36938 0
M  V30 2223 H 202.04 0.628598 0.537395 0
M  V30 2224 H 204.586 1.64283 0.425331 0
M  V30 2225 H 203.358 3.69116 1.2988 0
M  V30 2226 H 202.981 2.83681 2.78587 0
M  V30 2227 N 203.978 -0.674533 1.42435 0
M  V30 2228 C 205.208 -1.46071 1.46105 0
M  V30 2229 C 205.616 -1.89067 0.0709605 0
M  V30 2230 O 204.959 -1.58731 -0.924677 0
M  V30 2231 C 205.021 -2.74145 2.32561 0
M  V30 2232 C 204.685 -2.53224 3.8043 0
M  V30 2233 C 205.682 -2.17809 4.72075 0
M  V30 2234 C 203.367 -2.6821 4.24698 0
M  V30 2235 C 205.361 -1.97648 6.05982 0
M  V30 2236 C 203.048 -2.47665 5.58664 0
M  V30 2237 C 204.046 -2.12437 6.49122 0
M  V30 2238 O 203.734 -1.9209 7.80613 0
M  V30 2239 H 203.466 -0.455959 0.499076 0
M  V30 2240 H 206.02 -0.836193 1.87609 0
M  V30 2241 H 204.25 -3.3908 1.85908 0
M  V30 2242 H 205.939 -3.36028 2.27683 0
M  V30 2243 H 206.705 -2.05826 4.39159 0
M  V30 2244 H 202.584 -2.94609 3.54579 0
M  V30 2245 H 206.128 -1.70075 6.7655 0
M  V30 2246 H 202.025 -2.59244 5.91154 0
M  V30 2247 H 202.793 -2.06686 7.91974 0
M  V30 2248 N 205.456 -1.28612 -0.910864 0
M  V30 2249 C 206.388 -1.08589 -2.01844 0
M  V30 2250 C 207.401 -0.0367419 -1.62759 0
M  V30 2251 O 208.59 -0.280101 -1.76289 0
M  V30 2252 C 205.69 -0.628626 -3.33019 0
M  V30 2253 C 204.863 -1.75382 -4.00699 0
M  V30 2254 C 203.922 -1.28945 -5.10156 0
M  V30 2255 O 202.948 -1.9922 -5.33198 0
M  V30 2256 N 204.15 -0.154224 -5.80295 0
M  V30 2257 H 206.915 -2.03973 -2.19579 0
M  V30 2258 H 204.476 -1.20403 -1.08234 0
M  V30 2259 H 206.468 -0.301508 -4.03575 0
M  V30 2260 H 205.038 0.232451 -3.11735 0
M  V30 2261 H 204.258 -2.25039 -3.23653 0
M  V30 2262 H 205.546 -2.50854 -4.42662 0
M  V30 2263 H 204.944 0.43194 -5.64049 0
M  V30 2264 H 203.501 0.113599 -6.51701 0
M  V30 2265 N 206.934 1.1197 -1.10907 0
M  V30 2266 C 207.844 2.21433 -0.774896 0
M  V30 2267 C 208.86 1.72478 0.229657 0
M  V30 2268 O 210.036 2.01288 0.0672008 0
M  V30 2269 C 207.101 3.4602 -0.216986 0
M  V30 2270 C 206.162 4.09791 -1.27944 0
M  V30 2271 C 205.395 5.28431 -0.748055 0
M  V30 2272 O 205.618 5.68823 0.423833 0
M  V30 2273 O 204.552 5.82644 -1.51027 0
M  V30 2274 H 208.378 2.5242 -1.68873 0
M  V30 2275 H 205.963 1.20399 -0.884555 0
M  V30 2276 H 207.845 4.21304 0.090059 0
M  V30 2277 H 206.52 3.16698 0.669633 0
M  V30 2278 H 205.427 3.36265 -1.63941 0
M  V30 2279 H 206.76 4.4328 -2.13925 0
M  V30 2280 N 208.412 0.89855 1.29475 0
M  V30 2281 C 209.661 0.519863 1.94885 0
M  V30 2282 C 209.974 -0.9383 1.71625 0
M  V30 2283 O 211.18 -1.42445 2.31131 0
M  V30 2284 C 209.636 0.878836 3.49005 0
M  V30 2285 C 209.244 2.35569 3.81066 0
M  V30 2286 C 210.988 0.570004 4.20656 0
M  V30 2287 C 208.895 2.65558 5.28425 0
M  V30 2288 H 207.825 0.190692 0.729488 0
M  V30 2289 H 210.476 1.09539 1.47219 0
M  V30 2290 H 208.858 0.232253 3.95318 0
M  V30 2291 H 210.032 3.04773 3.45616 0
M  V30 2292 H 208.347 2.63343 3.22552 0
M  V30 2293 H 210.944 0.770925 5.29113 0
M  V30 2294 H 211.287 -0.491404 4.1339 0
M  V30 2295 H 211.82 1.17438 3.8007 0
M  V30 2296 H 208.559 3.70493 5.40754 0
M  V30 2297 H 208.079 2.00977 5.65127 0
M  V30 2298 H 209.758 2.51765 5.96006 0
M  V30 2299 N 209.89 -1.43072 0.660911 0
M  V30 2300 C 211.167 -1.95307 0.107017 0
M  V30 2301 C 211.547 -1.60192 -1.37484 0
M  V30 2302 O 210.895 -0.890949 -2.10415 0
M  V30 2303 C 211.105 -3.47124 0.361402 0
M  V30 2304 C 212.453 -4.23738 0.270455 0
M  V30 2305 O 213.477 -3.54981 0.294382 0
M  V30 2306 O 212.336 -5.46131 0.200737 0
M  V30 2307 H 209.43 -0.826984 -0.00517729 0
M  V30 2308 H 211.976 -1.52972 0.734681 0
M  V30 2309 H 210.748 -3.65837 1.38848 0
M  V30 2310 H 210.371 -3.96475 -0.298953 0
M  V30 2311 N 211.368 -0.403325 -1.52352 0
M  V30 2312 C 212.645 0.232611 -1.94212 0
M  V30 2313 C 213.025 1.63133 -1.33981 0
M  V30 2314 O 212.373 2.22659 -0.513344 0
M  V30 2315 C 212.583 0.244811 -3.4814 0
M  V30 2316 C 213.931 0.46698 -4.22024 0
M  V30 2317 O 214.955 0.324419 -3.5472 0
M  V30 2318 O 213.814 0.74747 -5.41364 0
M  V30 2319 H 210.908 0.148223 -0.813609 0
M  V30 2320 H 213.454 -0.458848 -1.63379 0
M  V30 2321 H 212.226 -0.734378 -3.84347 0
M  V30 2322 H 211.849 0.980611 -3.85318 0
M  V30 2323 N 212.846 1.57033 -0.133567 0
M  V30 2324 C 214.092 1.95976 0.521649 0
M  V30 2325 C 214.425 1.01779 1.65393 0
M  V30 2326 O 213.7 0.0576581 1.94415 0
M  V30 2327 C 213.983 3.44738 1.04057 0
M  V30 2328 C 213.836 4.49711 -0.0892897 0
M  V30 2329 C 215.155 3.95682 1.92675 0
M  V30 2330 H 212.274 0.712579 0.188149 0
M  V30 2331 H 214.916 1.88813 -0.212076 0
M  V30 2332 H 213.066 3.50973 1.66583 0
M  V30 2333 H 214.738 4.55565 -0.725152 0
M  V30 2334 H 212.981 4.27261 -0.750378 0
M  V30 2335 H 213.652 5.51099 0.315284 0
M  V30 2336 H 216.128 3.91841 1.39998 0
M  V30 2337 H 215.004 5.00262 2.25897 0
M  V30 2338 H 215.265 3.37239 2.85872 0
M  V30 2339 N 214.325 -0.140222 1.56975 0
M  V30 2340 C 215.255 -1.17456 2.01808 0
M  V30 2341 C 216.236 -1.44415 0.898794 0
M  V30 2342 O 217.421 -1.5522 1.16707 0
M  V30 2343 C 214.551 -2.50607 2.40444 0
M  V30 2344 C 213.505 -2.38155 3.55621 0
M  V30 2345 C 212.831 -3.76078 3.80091 0
M  V30 2346 C 214.131 -1.85991 4.88062 0
M  V30 2347 H 215.825 -0.801743 2.88466 0
M  V30 2348 H 213.371 -0.38422 1.38779 0
M  V30 2349 H 215.324 -3.23197 2.7041 0
M  V30 2350 H 214.048 -2.89737 1.50732 0
M  V30 2351 H 212.707 -1.68016 3.25832 0
M  V30 2352 H 212.355 -4.12656 2.87618 0
M  V30 2353 H 212.055 -3.68606 4.57606 0
M  V30 2354 H 213.579 -4.50206 4.12488 0
M  V30 2355 H 214.993 -2.4838 5.16701 0
M  V30 2356 H 213.39 -1.89393 5.6943 0
M  V30 2357 H 214.46 -0.816023 4.77984 0
M  V30 2358 N 215.803 -1.52179 -0.40978 0
M  V30 2359 C 217.05 -1.66206 -1.15679 0
M  V30 2360 C 217.378 -0.391674 -1.90516 0
M  V30 2361 O 216.633 0.62533 -1.8544 0
M  V30 2362 C 216.932 -2.83428 -2.17723 0
M  V30 2363 C 216.598 -4.21672 -1.59699 0
M  V30 2364 C 215.26 -4.59274 -1.43599 0
M  V30 2365 C 217.612 -5.07825 -1.17317 0
M  V30 2366 C 214.94 -5.80709 -0.836328 0
M  V30 2367 C 217.292 -6.29864 -0.587691 0
M  V30 2368 C 215.956 -6.66216 -0.413818 0
M  V30 2369 H 215.226 -0.608192 -0.423301 0
M  V30 2370 H 217.873 -1.86279 -0.444097 0
M  V30 2371 H 216.178 -2.57687 -2.95135 0
M  V30 2372 H 217.875 -2.91477 -2.75394 0
M  V30 2373 H 214.465 -3.9204 -1.73213 0
M  V30 2374 H 218.649 -4.79359 -1.28565 0
M  V30 2375 H 213.905 -6.07498 -0.689626 0
M  V30 2376 H 218.079 -6.95948 -0.250894 0
M  V30 2377 H 215.706 -7.60182 0.0529471 0
M  V30 2378 N 217.281 0.66697 -1.42791 0
M  V30 2379 C 218.228 1.7803 -1.4688 0
M  V30 2380 C 219.198 1.6299 -0.319919 0
M  V30 2381 O 220.383 1.83432 -0.525118 0
M  V30 2382 C 217.523 3.1611 -1.38451 0
M  V30 2383 C 216.636 3.42381 -2.63437 0
M  V30 2384 C 215.771 4.70232 -2.47094 0
M  V30 2385 C 214.81 4.89564 -3.67415 0
M  V30 2386 N 213.947 6.08661 -3.49966 0
M  V30 2387 H 218.787 1.7387 -2.42019 0
M  V30 2388 H 216.324 0.84868 -1.20149 0
M  V30 2389 H 218.282 3.95914 -1.31561 0
M  V30 2390 H 216.912 3.19374 -0.469033 0
M  V30 2391 H 215.964 2.56774 -2.80662 0
M  V30 2392 H 217.276 3.52557 -3.52853 0
M  V30 2393 H 216.43 5.5814 -2.37834 0
M  V30 2394 H 215.169 4.62353 -1.5518 0
M  V30 2395 H 214.174 4.00096 -3.77099 0
M  V30 2396 H 215.399 4.99282 -4.6032 0
M  V30 2397 H 213.345 6.0194 -2.60776 0
M  V30 2398 H 213.262 6.19733 -4.32975 0
M  V30 2399 H 214.53 6.99226 -3.44532 0
M  V30 2400 N 218.759 1.29093 0.90403 0
M  V30 2401 C 220.006 1.16813 1.65411 0
M  V30 2402 C 220.334 -0.28128 1.92455 0
M  V30 2403 O 219.589 -1.22006 1.53013 0
M  V30 2404 C 219.888 1.92224 3.01305 0
M  V30 2405 C 219.554 3.41968 2.93885 0
M  V30 2406 C 218.216 3.82807 2.91569 0
M  V30 2407 C 220.568 4.37409 2.83413 0
M  V30 2408 C 217.896 5.1741 2.76594 0
M  V30 2409 C 220.248 5.72097 2.69977 0
M  V30 2410 C 218.912 6.12199 2.66024 0
M  V30 2411 H 218.182 0.42745 0.605283 0
M  V30 2412 H 220.829 1.59981 1.05254 0
M  V30 2413 H 219.134 1.41635 3.65304 0
M  V30 2414 H 220.831 1.80131 3.58265 0
M  V30 2415 H 217.421 3.09504 2.96488 0
M  V30 2416 H 221.605 4.06813 2.84283 0
M  V30 2417 H 216.861 5.47596 2.71935 0
M  V30 2418 H 221.035 6.45704 2.60844 0
M  V30 2419 H 218.662 7.16448 2.54178 0
M  V30 2420 N 220.237 -1.11381 1.11499 0
M  V30 2421 C 221.462 -1.87475 0.887019 0
M  V30 2422 C 221.887 -1.79639 -0.557796 0
M  V30 2423 O 221.245 -1.15924 -1.39396 0
M  V30 2424 C 221.293 -3.34213 1.35403 0
M  V30 2425 O 220.397 -4.0903 0.526146 0
M  V30 2426 H 219.738 -0.582099 0.319463 0
M  V30 2427 H 222.268 -1.40785 1.48461 0
M  V30 2428 H 222.278 -3.8506 1.34881 0
M  V30 2429 H 220.953 -3.39232 2.40612 0
M  V30 2430 H 219.53 -3.68082 0.597522 0
M  V30 2431 N 221.715 -0.905404 -1.28997 0
M  V30 2432 C 222.645 -0.404212 -2.29975 0
M  V30 2433 C 223.626 0.523784 -1.61835 0
M  V30 2434 O 224.811 0.433298 -1.89304 0
M  V30 2435 C 221.941 0.364042 -3.45387 0
M  V30 2436 C 220.895 -0.474048 -4.25367 0
M  V30 2437 C 220.221 0.422045 -5.33032 0
M  V30 2438 C 221.521 -1.72696 -4.92923 0
M  V30 2439 H 223.215 -1.24807 -2.72146 0
M  V30 2440 H 220.761 -0.601585 -1.30832 0
M  V30 2441 H 222.714 0.725447 -4.15109 0
M  V30 2442 H 221.438 1.24174 -3.02074 0
M  V30 2443 H 220.097 -0.81786 -3.57361 0
M  V30 2444 H 219.745 1.29804 -4.85963 0
M  V30 2445 H 219.445 -0.135057 -5.87445 0
M  V30 2446 H 220.969 0.779517 -6.05604 0
M  V30 2447 H 222.383 -1.43495 -5.55051 0
M  V30 2448 H 220.78 -2.22582 -5.57295 0
M  V30 2449 H 221.85 -2.45964 -4.17887 0
M  V30 2450 N 223.193 1.4272 -0.668489 0
M  V30 2451 C 224.141 2.32586 0.0254857 0
M  V30 2452 C 225.135 1.49471 0.797176 0
M  V30 2453 O 226.341 1.65583 0.705853 0
M  V30 2454 H 222.716 0.751514 0.0270339 0
M  V30 2455 H 224.687 2.88823 -0.749936 0
M  V30 2456 C 223.436 3.3397 0.967427 0
M  V30 2457 H 222.759 3.97961 0.383048 0
M  V30 2458 H 224.199 3.9945 1.42181 0
M  V30 2459 C 222.658 2.65744 2.0708 0
M  V30 2460 O 223.188 2.48454 3.15648 0
M  V30 2461 N 221.394 2.2487 1.8407 0
M  V30 2462 H 220.941 2.39132 0.95778 0
M  V30 2463 H 220.899 1.79552 2.58086 0
M  V30 2464 N 224.671 0.411399 1.52136 0
M  V30 2465 C 225.601 -0.404015 2.29978 0
M  V30 2466 C 226.582 -1.04412 1.34284 0
M  V30 2467 O 227.767 -1.0527 1.63192 0
M  V30 2468 C 224.897 -1.5197 3.12286 0
M  V30 2469 C 223.851 -1.00448 4.16046 0
M  V30 2470 C 223.177 -2.21393 4.86712 0
M  V30 2471 C 224.477 -0.0569336 5.22269 0
M  V30 2472 H 226.171 0.245529 2.98392 0
M  V30 2473 H 223.717 0.119525 1.43503 0
M  V30 2474 H 225.67 -2.09715 3.6551 0
M  V30 2475 H 224.394 -2.19716 2.41646 0
M  V30 2476 H 223.053 -0.449421 3.63835 0
M  V30 2477 H 222.701 -2.87699 4.12599 0
M  V30 2478 H 222.401 -1.87571 5.56858 0
M  V30 2479 H 223.925 -2.7974 5.4275 0
M  V30 2480 H 225.339 -0.54325 5.7072 0
M  V30 2481 H 223.736 0.192594 5.99791 0
M  V30 2482 H 224.806 0.887663 4.76706 0
M  V30 2483 N 226.149 -1.5696 0.141893 0
M  V30 2484 C 227.56 -1.82797 -0.379776 0
M  V30 2485 C 227.911 -1.06033 -1.6508 0
M  V30 2486 O 227.036 -0.304011 -2.14254 0
M  V30 2487 C 227.631 -3.31578 -0.695802 0
M  V30 2488 C 226.19 -3.58014 -1.16201 0
M  V30 2489 C 225.337 -2.76699 -0.182455 0
M  V30 2490 H 228.288 -1.54406 0.366675 0
M  V30 2491 H 228.309 -3.47454 -1.55099 0
M  V30 2492 H 227.821 -3.87421 0.229449 0
M  V30 2493 H 225.922 -3.07553 -2.10338 0
M  V30 2494 H 226.035 -4.66501 -1.09151 0
M  V30 2495 H 224.399 -2.45618 -0.674072 0
M  V30 2496 H 225.182 -3.35311 0.736297 0
M  V30 2497 N 227.627 0.131896 -1.57047 0
M  V30 2498 C 228.904 0.871495 -1.75112 0
M  V30 2499 C 229.284 1.9866 -0.713949 0
M  V30 2500 O 228.632 2.26965 0.264447 0
M  V30 2501 C 228.842 1.40007 -3.19686 0
M  V30 2502 C 230.19 1.85752 -3.81813 0
M  V30 2503 O 231.214 1.49715 -3.23209 0
M  V30 2504 O 230.073 2.5226 -4.84796 0
M  V30 2505 H 227.167 0.412919 -0.716538 0
M  V30 2506 H 229.713 0.116641 -1.69299 0
M  V30 2507 H 228.485 0.599404 -3.86682 0
M  V30 2508 H 228.108 2.218 -3.29986 0
M  V30 2509 N 229.106 1.52395 0.401703 0
M  V30 2510 C 230.016 1.7917 1.51444 0
M  V30 2511 C 231.032 0.677691 1.6026 0
M  V30 2512 O 232.208 0.963909 1.76835 0
M  V30 2513 C 229.273 1.94347 2.87107 0
M  V30 2514 C 228.334 3.18257 2.88116 0
M  V30 2515 C 227.567 3.32701 4.17308 0
M  V30 2516 O 227.79 2.52238 5.11598 0
M  V30 2517 O 226.724 4.25891 4.25324 0
M  V30 2518 H 230.55 2.73633 1.31752 0
M  V30 2519 H 228.135 1.3733 0.588296 0
M  V30 2520 H 230.017 2.06109 3.67555 0
M  V30 2521 H 228.692 1.03073 3.06851 0
M  V30 2522 H 227.599 3.11947 2.06494 0
M  V30 2523 H 228.932 4.09336 2.73322 0
M  V30 2524 N 230.584 -0.659388 1.43143 0
M  V30 2525 C 231.516 -1.7849 1.43784 0
M  V30 2526 C 232.529 -1.5932 0.334787 0
M  V30 2527 O 233.718 -1.68155 0.598842 0
M  V30 2528 C 230.818 -3.15828 1.22906 0
M  V30 2529 C 229.991 -3.61711 2.45934 0
M  V30 2530 C 229.05 -4.77831 2.20371 0
M  V30 2531 O 228.076 -4.87586 2.93681 0
M  V30 2532 N 229.278 -5.67611 1.21647 0
M  V30 2533 H 232.043 -1.7842 2.40803 0
M  V30 2534 H 229.604 -0.84302 1.3822 0
M  V30 2535 H 231.596 -3.91189 1.03697 0
M  V30 2536 H 230.166 -3.10707 0.343542 0
M  V30 2537 H 229.386 -2.76861 2.80609 0
M  V30 2538 H 230.674 -3.89112 3.27825 0
M  V30 2539 H 230.072 -5.62397 0.610449 0
M  V30 2540 H 228.629 -6.42719 1.08423 0
M  V30 2541 N 232.062 -1.29571 -0.897171 0
M  V30 2542 C 233.311 -1.1706 -1.64256 0
M  V30 2543 C 233.624 0.276476 -1.93636 0
M  V30 2544 O 234.83 0.52294 -2.66416 0
M  V30 2545 C 233.286 -2.0475 -2.95982 0
M  V30 2546 C 232.894 -3.54295 -2.74187 0
M  V30 2547 C 234.638 -2.0097 -3.73914 0
M  V30 2548 C 232.545 -4.34081 -4.01656 0
M  V30 2549 H 231.475 -0.43452 -0.616205 0
M  V30 2550 H 234.126 -1.54229 -0.994268 0
M  V30 2551 H 232.508 -1.60452 -3.62038 0
M  V30 2552 H 233.682 -4.06662 -2.1671 0
M  V30 2553 H 231.997 -3.59773 -2.09648 0
M  V30 2554 H 234.594 -2.57838 -4.68427 0
M  V30 2555 H 234.937 -0.990273 -4.0435 0
M  V30 2556 H 235.47 -2.43325 -3.14703 0
M  V30 2557 H 232.209 -5.36671 -3.76384 0
M  V30 2558 H 231.729 -3.86483 -4.58684 0
M  V30 2559 H 233.408 -4.44877 -4.69781 0
M  V30 2560 N 233.54 1.10788 -1.12088 0
M  V30 2561 C 234.951 1.64181 -0.88891 0
M  V30 2562 C 235.302 1.87508 0.577498 0
M  V30 2563 O 234.427 1.61434 1.44112 0
M  V30 2564 C 235.022 2.98257 -1.60712 0
M  V30 2565 C 233.581 3.4853 -1.42139 0
M  V30 2566 C 232.728 2.23208 -1.6454 0
M  V30 2567 H 235.679 0.943368 -1.27618 0
M  V30 2568 H 235.7 3.65552 -1.05604 0
M  V30 2569 H 235.212 2.81246 -2.67436 0
M  V30 2570 H 233.313 3.70692 -0.376552 0
M  V30 2571 H 233.426 4.26882 -2.17505 0
M  V30 2572 H 231.79 2.31169 -1.06925 0
M  V30 2573 H 232.573 2.08733 -2.72554 0
M  V30 2574 N 235.018 0.912232 1.28515 0
M  V30 2575 C 235.948 0.416403 2.29757 0
M  V30 2576 C 236.929 -0.515194 1.6211 0
M  V30 2577 O 238.114 -0.423253 1.89532 0
M  V30 2578 C 235.244 -0.34572 3.45575 0
M  V30 2579 C 234.198 0.496599 4.25109 0
M  V30 2580 C 233.524 -0.393771 5.33248 0
M  V30 2581 C 234.824 1.75307 4.92001 0
M  V30 2582 H 236.518 1.26249 2.7148 0
M  V30 2583 H 234.064 0.608515 1.30511 0
M  V30 2584 H 236.017 -0.703422 4.15488 0
M  V30 2585 H 234.741 -1.2257 3.02728 0
M  V30 2586 H 233.4 0.8368 3.56922 0
M  V30 2587 H 233.048 -1.27225 4.86644 0
M  V30 2588 H 232.748 0.166209 5.87365 0
M  V30 2589 H 234.272 -0.747389 6.06009 0
M  V30 2590 H 235.686 1.46437 5.54283 0
M  V30 2591 H 234.083 2.25534 5.56106 0
M  V30 2592 H 235.153 2.48176 4.16577 0
M  V30 2593 N 236.496 -1.42363 0.676048 0
M  V30 2594 C 237.742 -2.0182 0.199125 0
M  V30 2595 C 238.075 -1.53339 -1.19168 0
M  V30 2596 O 237.35 -0.736124 -1.80032 0
M  V30 2597 C 237.633 -3.59331 0.235144 0
M  V30 2598 C 237.486 -4.17989 1.66149 0
M  V30 2599 C 238.805 -4.3813 -0.41595 0
M  V30 2600 H 235.924 -0.733293 0.0738311 0
M  V30 2601 H 238.566 -1.69368 0.86107 0
M  V30 2602 H 236.716 -3.87109 -0.328487 0
M  V30 2603 H 238.388 -4.0116 2.27747 0
M  V30 2604 H 236.631 -3.7377 2.20178 0
M  V30 2605 H 237.302 -5.27126 1.63837 0
M  V30 2606 H 239.778 -4.16051 0.0638529 0
M  V30 2607 H 238.654 -5.47717 -0.360115 0
M  V30 2608 H 238.915 -4.16101 -1.49373 0
M  V30 2609 N 237.974 -0.419461 -1.51915 0
M  V30 2610 C 239.223 0.154346 -2.01109 0
M  V30 2611 C 239.536 1.45338 -1.30905 0
M  V30 2612 O 240.742 2.10906 -1.7097 0
M  V30 2613 C 239.198 0.325615 -3.58424 0
M  V30 2614 C 238.806 -0.961934 -4.37551 0
M  V30 2615 C 240.55 0.854155 -4.15818 0
M  V30 2616 C 238.457 -0.757287 -5.86531 0
M  V30 2617 H 237.387 0.0614563 -0.751491 0
M  V30 2618 H 240.038 -0.54649 -1.75173 0
M  V30 2619 H 238.42 1.08903 -3.80731 0
M  V30 2620 H 239.594 -1.7323 -4.26999 0
M  V30 2621 H 237.909 -1.41766 -3.91524 0
M  V30 2622 H 240.506 1.02346 -5.24814 0
M  V30 2623 H 240.849 1.83172 -3.73837 0
M  V30 2624 H 241.382 0.149528 -3.97519 0
M  V30 2625 H 238.121 -1.70671 -6.32892 0
M  V30 2626 H 237.641 -0.0264061 -5.99794 0
M  V30 2627 H 239.32 -0.403482 -6.45741 0
M  V30 2628 N 239.452 1.56882 -0.150215 0
M  V30 2629 C 240.729 1.87844 0.545327 0
M  V30 2630 C 241.109 1.0567 1.82749 0
M  V30 2631 O 240.457 0.144442 2.28043 0
M  V30 2632 C 240.667 3.39526 0.80767 0
M  V30 2633 C 242.015 4.08814 1.14703 0
M  V30 2634 O 243.039 3.44723 0.896917 0
M  V30 2635 O 241.898 5.22004 1.61784 0
M  V30 2636 H 238.992 0.778677 0.278553 0
M  V30 2637 H 241.538 1.68666 -0.187068 0
M  V30 2638 H 240.31 3.91173 -0.0996096 0
M  V30 2639 H 239.933 3.64243 1.59413 0
M  V30 2640 N 240.93 -0.123565 1.57115 0
M  V30 2641 C 241.877 -1.15177 2.00007 0
M  V30 2642 C 242.847 -1.41403 0.871454 0
M  V30 2643 O 244.032 -1.53346 1.13533 0
M  V30 2644 C 241.172 -2.47436 2.40561 0
M  V30 2645 C 240.285 -2.28184 3.66819 0
M  V30 2646 C 239.42 -3.53641 3.96373 0
M  V30 2647 C 238.459 -3.29528 5.15827 0
M  V30 2648 N 237.596 -4.47175 5.41275 0
M  V30 2649 H 242.436 -0.779008 2.87638 0
M  V30 2650 H 239.973 -0.373166 1.42288 0
M  V30 2651 H 241.931 -3.24584 2.62109 0
M  V30 2652 H 240.561 -2.82614 1.55978 0
M  V30 2653 H 239.613 -1.41976 3.52912 0
M  V30 2654 H 240.925 -2.0634 4.5412 0
M  V30 2655 H 240.079 -4.39209 4.18545 0
M  V30 2656 H 238.818 -3.78512 3.07538 0
M  V30 2657 H 237.823 -2.42349 4.93505 0
M  V30 2658 H 239.048 -3.06031 6.06236 0
M  V30 2659 H 236.994 -4.72175 4.55397 0
M  V30 2660 H 236.911 -4.28419 6.22891 0
M  V30 2661 H 238.179 -5.3389 5.67963 0
M  V30 2662 N 242.408 -1.52605 -0.393616 0
M  V30 2663 C 243.338 -1.80022 -1.48709 0
M  V30 2664 C 244.319 -0.651995 -1.57108 0
M  V30 2665 O 245.504 -0.89913 -1.72132 0
M  V30 2666 C 242.634 -1.96492 -2.86371 0
M  V30 2667 C 241.588 -3.12161 -2.92813 0
M  V30 2668 C 240.914 -3.13877 -4.3288 0
M  V30 2669 C 242.214 -4.51322 -2.6288 0
M  V30 2670 H 243.908 -2.71589 -1.26015 0
M  V30 2671 H 241.454 -1.30684 -0.604778 0
M  V30 2672 H 243.407 -2.14255 -3.62867 0
M  V30 2673 H 242.131 -1.01611 -3.10391 0
M  V30 2674 H 240.79 -2.94173 -2.18764 0
M  V30 2675 H 240.438 -2.16687 -4.53933 0
M  V30 2676 H 240.138 -3.91576 -4.38112 0
M  V30 2677 H 241.662 -3.33789 -5.1129 0
M  V30 2678 H 243.076 -4.69435 -3.29096 0
M  V30 2679 H 241.473 -5.31053 -2.79468 0
M  V30 2680 H 242.543 -4.58353 -1.58242 0
M  V30 2681 N 243.887 0.651787 -1.4349 0
M  V30 2682 C 244.837 1.75783 -1.45205 0
M  V30 2683 C 245.821 1.57679 -0.320328 0
M  V30 2684 O 247.013 1.67767 -0.564211 0
M  V30 2685 C 244.142 3.14377 -1.3792 0
M  V30 2686 C 243.228 3.38023 -2.56127 0
M  V30 2687 N 243.619 3.32135 -3.81471 0
M  V30 2688 C 241.917 3.68747 -2.50882 0
M  V30 2689 C 242.618 3.55902 -4.60118 0
M  V30 2690 N 241.594 3.77783 -3.90872 0
M  V30 2691 H 245.396 1.69657 -2.39987 0
M  V30 2692 H 242.91 0.853508 -1.38163 0
M  V30 2693 H 244.907 3.93666 -1.37231 0
M  V30 2694 H 243.567 3.21683 -0.441596 0
M  V30 2695 H 244.578 3.11515 -4.13738 0
M  V30 2696 H 241.255 3.8316 -1.65816 0
M  V30 2697 H 242.645 3.57116 -5.69138 0
M  V30 2698 N 245.365 1.30045 0.890287 0
M  V30 2699 C 246.611 1.18737 1.64406 0
M  V30 2700 C 246.944 -0.258525 1.92472 0
M  V30 2701 O 246.219 -1.18562 1.54186 0
M  V30 2702 C 246.502 2.01087 2.98724 0
M  V30 2703 C 246.355 3.53867 2.77665 0
M  V30 2704 C 247.674 1.84457 3.9958 0
M  V30 2705 H 244.793 0.432698 0.596608 0
M  V30 2706 H 247.435 1.5962 1.0306 0
M  V30 2707 H 245.585 1.66349 3.51084 0
M  V30 2708 H 247.257 3.98637 2.32133 0
M  V30 2709 H 245.5 3.78318 2.12269 0
M  V30 2710 H 246.171 4.06772 3.7315 0
M  V30 2711 H 248.647 2.14817 3.56361 0
M  V30 2712 H 247.523 2.44411 4.91482 0
M  V30 2713 H 247.784 0.802276 4.3476 0
M  V30 2714 N 246.843 -1.10192 1.12674 0
M  V30 2715 C 247.806 -2.14786 0.799979 0
M  V30 2716 C 248.806 -1.59711 -0.18685 0
M  V30 2717 O 249.996 -1.74156 0.0392558 0
M  V30 2718 C 247.128 -3.40374 0.189228 0
M  V30 2719 H 248.321 -2.45203 1.72671 0
M  V30 2720 H 245.874 -1.25597 0.930326 0
M  V30 2721 H 246.609 -3.15577 -0.747107 0
M  V30 2722 H 246.394 -3.81637 0.899766 0
M  V30 2723 H 247.884 -4.17594 -0.0228143 0
M  V30 2724 N 248.321 -0.919034 -1.28029 0
M  V30 2725 C 249.251 -0.428581 -2.29533 0
M  V30 2726 C 250.232 0.50659 -1.62381 0
M  V30 2727 O 251.417 0.413195 -1.89753 0
M  V30 2728 C 248.547 0.327388 -3.45753 0
M  V30 2729 C 247.501 -0.519137 -4.2484 0
M  V30 2730 C 246.827 0.365486 -5.33449 0
M  V30 2731 C 248.127 -1.77914 -4.91064 0
M  V30 2732 H 249.821 -1.27687 -2.70807 0
M  V30 2733 H 247.367 -0.615428 -1.30186 0
M  V30 2734 H 249.32 0.681378 -4.15855 0
M  V30 2735 H 248.044 1.20963 -3.03374 0
M  V30 2736 H 246.703 -0.855717 -3.56473 0
M  V30 2737 H 246.351 1.24642 -4.87312 0
M  V30 2738 H 246.051 -0.197356 -5.87268 0
M  V30 2739 H 247.575 0.715241 -6.06396 0
M  V30 2740 H 248.989 -1.49374 -5.53498 0
M  V30 2741 H 247.386 -2.2848 -5.54903 0
M  V30 2742 H 248.456 -2.50382 -4.15255 0
M  V30 2743 N 249.799 1.42003 -0.683588 0
M  V30 2744 C 251.076 1.95112 -0.138075 0
M  V30 2745 C 251.456 1.62359 1.34918 0
M  V30 2746 O 250.804 0.924311 2.08971 0
M  V30 2747 C 251.014 3.46505 -0.416581 0
M  V30 2748 C 252.362 4.23254 -0.337834 0
M  V30 2749 O 253.386 3.54468 -0.35082 0
M  V30 2750 O 252.245 5.45743 -0.287596 0
M  V30 2751 H 249.339 0.826961 -0.00797996 0
M  V30 2752 H 251.885 1.51784 -0.758924 0
M  V30 2753 H 250.657 3.63582 -1.4465 0
M  V30 2754 H 250.28 3.969 0.235839 0
M  V30 2755 N 251.277 0.427512 1.51691 0
M  V30 2756 C 252.525 -0.141948 2.01601 0
M  V30 2757 C 252.846 -1.44067 1.31414 0
M  V30 2758 O 252.116 -1.90763 0.445658 0
M  V30 2759 H 250.696 -0.0554468 0.744939 0
M  V30 2760 H 253.358 0.567968 1.86441 0
M  V30 2761 H 252.454 -0.324913 3.10404 0
M  V30 2762 N 252.755 -1.56801 0.158532 0
M  V30 2763 C 254.004 -1.95665 -0.489702 0
M  V30 2764 C 254.317 -1.04654 -1.65248 0
M  V30 2765 O 255.523 -1.33146 -2.3661 0
M  V30 2766 C 253.979 -3.47874 -0.922582 0
M  V30 2767 C 253.587 -4.47489 0.213893 0
M  V30 2768 C 255.331 -3.95583 -1.53996 0
M  V30 2769 C 253.238 -5.90921 -0.237903 0
M  V30 2770 H 252.168 -0.730516 -0.186716 0
M  V30 2771 H 254.819 -1.81861 0.244722 0
M  V30 2772 H 253.201 -3.57051 -1.71261 0
M  V30 2773 H 254.375 -4.50017 0.991036 0
M  V30 2774 H 252.69 -4.09764 0.740407 0
M  V30 2775 H 255.287 -5.0019 -1.8898 0
M  V30 2776 H 255.63 -3.37789 -2.43319 0
M  V30 2777 H 256.163 -3.8937 -0.814611 0
M  V30 2778 H 252.902 -6.52559 0.620236 0
M  V30 2779 H 252.422 -5.91729 -0.980676 0
M  V30 2780 H 254.101 -6.43352 -0.686067 0
M  V30 2781 N 254.233 0.115231 -1.57178 0
M  V30 2782 C 255.166 1.17166 -1.95825 0
M  V30 2783 C 256.144 1.39912 -0.828463 0
M  V30 2784 O 257.328 1.54004 -1.08697 0
M  V30 2785 C 254.455 2.52478 -2.25771 0
M  V30 2786 C 253.501 2.46136 -3.48309 0
M  V30 2787 S 254.334 1.89736 -5.0076 0
M  V30 2788 C 255.49 3.26713 -5.33863 0
M  V30 2789 H 255.723 0.842103 -2.85124 0
M  V30 2790 H 253.256 0.322136 -1.51002 0
M  V30 2791 H 255.214 3.30332 -2.43702 0
M  V30 2792 H 253.875 2.82609 -1.37079 0
M  V30 2793 H 253.068 3.45819 -3.66641 0
M  V30 2794 H 252.67 1.76404 -3.29784 0
M  V30 2795 H 254.962 4.22935 -5.29275 0
M  V30 2796 H 255.905 3.13205 -6.35065 0
M  V30 2797 H 256.313 3.25316 -4.61335 0
M  V30 2798 N 255.711 1.52812 0.385517 0
M  V30 2799 C 256.658 1.77838 1.47113 0
M  V30 2800 C 257.628 0.621757 1.54024 0
M  V30 2801 O 258.813 0.861846 1.70226 0
M  V30 2802 C 255.953 1.95618 2.84302 0
M  V30 2803 C 255.066 3.23316 2.86515 0
M  V30 2804 C 254.201 3.31394 4.15152 0
M  V30 2805 C 253.24 4.53201 4.1143 0
M  V30 2806 N 252.377 4.58542 5.3168 0
M  V30 2807 H 257.217 2.70482 1.25073 0
M  V30 2808 H 254.754 1.34006 0.606692 0
M  V30 2809 H 256.712 2.03912 3.63972 0
M  V30 2810 H 255.342 1.06331 3.04784 0
M  V30 2811 H 254.394 3.24076 1.99195 0
M  V30 2812 H 255.706 4.13045 2.79634 0
M  V30 2813 H 254.86 3.3889 5.03228 0
M  V30 2814 H 253.599 2.39645 4.24761 0
M  V30 2815 H 252.604 4.45827 3.21742 0
M  V30 2816 H 253.829 5.46271 4.03442 0
M  V30 2817 H 251.775 3.69686 5.41912 0
M  V30 2818 H 251.692 5.42148 5.26889 0
M  V30 2819 H 252.96 4.70296 6.21644 0
M  V30 2820 N 257.189 -0.644168 1.43834 0
M  V30 2821 C 258.6 -1.22554 1.40845 0
M  V30 2822 C 258.951 -1.9585 0.117115 0
M  V30 2823 O 258.076 -2.01734 -0.783086 0
M  V30 2824 C 258.671 -2.22907 2.55143 0
M  V30 2825 C 257.23 -2.76501 2.5539 0
M  V30 2826 C 256.377 -1.51287 2.32396 0
M  V30 2827 H 259.328 -0.43563 1.52604 0
M  V30 2828 H 259.349 -3.05259 2.2715 0
M  V30 2829 H 258.861 -1.69533 3.49114 0
M  V30 2830 H 256.962 -3.33914 1.65324 0
M  V30 2831 H 257.075 -3.23429 3.53455 0
M  V30 2832 H 255.439 -1.78957 1.81236 0
M  V30 2833 H 256.222 -0.998336 3.28463 0
M  V30 2834 N 258.668 -1.30515 -0.883378 0
M  V30 2835 C 259.914 -1.19607 -1.63774 0
M  V30 2836 C 260.247 0.248314 -1.92606 0
M  V30 2837 O 259.522 1.17742 -1.54813 0
M  V30 2838 C 259.805 -2.02669 -2.97653 0
M  V30 2839 C 259.658 -3.55335 -2.75784 0
M  V30 2840 C 260.977 -1.86573 -3.98596 0
M  V30 2841 H 258.096 -0.435856 -0.594305 0
M  V30 2842 H 260.738 -1.60165 -1.02212 0
M  V30 2843 H 258.888 -1.68208 -3.50197 0
M  V30 2844 H 260.56 -3.99863 -2.30016 0
M  V30 2845 H 258.803 -3.79438 -2.1026 0
M  V30 2846 H 259.474 -4.08745 -3.70988 0
M  V30 2847 H 261.95 -2.16703 -3.55217 0
M  V30 2848 H 260.826 -2.47014 -4.90179 0
M  V30 2849 H 261.087 -0.825321 -4.34328 0
M  V30 2850 N 260.146 1.09593 -1.13257 0
M  V30 2851 C 261.374 1.855 -0.916378 0
M  V30 2852 C 261.789 1.81069 0.534738 0
M  V30 2853 O 261.146 1.20562 1.37007 0
M  V30 2854 C 261.197 3.33546 -1.39388 0
M  V30 2855 O 260.918 3.37927 -2.78813 0
M  V30 2856 C 262.419 4.26299 -1.21588 0
M  V30 2857 H 259.639 0.585991 -0.326887 0
M  V30 2858 H 262.183 1.38488 -1.5047 0
M  V30 2859 H 260.338 3.77992 -0.848597 0
M  V30 2860 H 260.752 4.30254 -2.9997 0
M  V30 2861 H 262.226 5.28341 -1.59876 0
M  V30 2862 H 262.703 4.38918 -0.157376 0
M  V30 2863 H 263.309 3.87668 -1.7491 0
M  V30 2864 N 261.624 0.925811 1.2754 0
M  V30 2865 C 262.849 0.580924 1.99098 0
M  V30 2866 C 263.274 -0.833555 1.68622 0
M  V30 2867 O 262.632 -1.55903 0.925422 0
M  V30 2868 C 262.68 0.811186 3.51358 0
M  V30 2869 O 261.784 -0.124129 4.12213 0
M  V30 2870 H 261.125 0.223873 0.625122 0
M  V30 2871 H 263.655 1.24455 1.62395 0
M  V30 2872 H 263.665 0.72601 4.01489 0
M  V30 2873 H 262.34 1.84227 3.72872 0
M  V30 2874 H 260.917 0.0108006 3.72898 0
M  V30 2875 N 263.102 -1.41638 0.69111 0
M  V30 2876 C 264.35 -2.00902 0.219758 0
M  V30 2877 C 264.671 -1.54994 -1.18329 0
M  V30 2878 O 263.941 -0.778628 -1.79762 0
M  V30 2879 H 262.521 -0.74289 0.0782558 0
M  V30 2880 H 265.183 -1.73327 0.891271 0
M  V30 2881 H 264.279 -3.11224 0.233708 0
M  V30 2882 N 264.58 -0.43555 -1.51462 0
M  V30 2883 C 265.827 0.131514 -2.02072 0
M  V30 2884 C 266.155 1.42868 -1.31981 0
M  V30 2885 O 265.41 1.91076 -0.422883 0
M  V30 2886 C 265.709 0.39942 -3.55161 0
M  V30 2887 C 265.375 -0.81172 -4.43533 0
M  V30 2888 C 264.037 -1.14387 -4.67407 0
M  V30 2889 C 266.389 -1.61976 -4.95392 0
M  V30 2890 C 263.717 -2.28477 -5.40384 0
M  V30 2891 C 266.069 -2.75164 -5.6962 0
M  V30 2892 C 264.733 -3.08835 -5.91758 0
M  V30 2893 H 264.003 0.0481244 -0.739436 0
M  V30 2894 H 266.65 -0.58238 -1.8243 0
M  V30 2895 H 264.955 1.19519 -3.73125 0
M  V30 2896 H 266.652 0.85157 -3.91854 0
M  V30 2897 H 263.242 -0.542898 -4.25148 0
M  V30 2898 H 267.426 -1.37637 -4.76833 0
M  V30 2899 H 262.682 -2.5488 -5.55739 0
M  V30 2900 H 266.856 -3.38147 -6.08793 0
M  V30 2901 H 264.483 -3.97353 -6.48086 0
M  V30 2902 N 266.058 1.56714 -0.166846 0
M  V30 2903 C 267.306 1.96358 0.478305 0
M  V30 2904 C 267.627 1.0537 1.6408 0
M  V30 2905 O 266.897 0.119154 1.95537 0
M  V30 2906 H 265.477 0.725065 0.179692 0
M  V30 2907 H 268.139 1.93329 -0.246985 0
M  V30 2908 H 267.235 3.00547 0.841292 0
M  V30 2909 N 267.536 -0.106894 1.57237 0
M  V30 2910 C 268.783 -0.812526 1.85484 0
M  V30 2911 C 269.111 -1.79304 0.753687 0
M  V30 2912 O 268.366 -1.94047 -0.253853 0
M  V30 2913 C 268.665 -1.58628 3.20268 0
M  V30 2914 C 268.331 -0.748967 4.44636 0
M  V30 2915 C 266.993 -0.518104 4.78403 0
M  V30 2916 C 269.345 -0.166122 5.20935 0
M  V30 2917 C 266.673 0.305659 5.85903 0
M  V30 2918 C 269.025 0.644899 6.29304 0
M  V30 2919 C 267.689 0.885965 6.61594 0
M  V30 2920 H 266.959 -0.297324 0.678734 0
M  V30 2921 H 269.606 -0.0744332 1.91355 0
M  V30 2922 H 267.911 -2.39562 3.10028 0
M  V30 2923 H 269.608 -2.13643 3.39349 0
M  V30 2924 H 266.198 -0.939006 4.18187 0
M  V30 2925 H 270.382 -0.33167 4.95191 0
M  V30 2926 H 265.638 0.501528 6.0934 0
M  V30 2927 H 269.812 1.10345 6.87602 0
M  V30 2928 H 267.439 1.52609 7.44725 0
M  V30 2929 N 269.014 -1.53014 -0.377408 0
M  V30 2930 C 270.263 -1.67845 -1.11853 0
M  V30 2931 C 270.576 -0.430625 -1.90801 0
M  V30 2932 O 271.782 -0.459261 -2.67587 0
M  V30 2933 C 270.238 -2.96668 -2.03756 0
M  V30 2934 C 269.846 -4.28671 -1.30175 0
M  V30 2935 C 271.59 -3.20865 -2.77932 0
M  V30 2936 C 269.497 -5.48591 -2.20911 0
M  V30 2937 H 268.427 -0.625343 -0.421263 0
M  V30 2938 H 271.078 -1.79514 -0.380409 0
M  V30 2939 H 269.46 -2.78773 -2.8125 0
M  V30 2940 H 270.634 -4.57157 -0.578259 0
M  V30 2941 H 268.949 -4.10825 -0.679108 0
M  V30 2942 H 271.546 -4.07642 -3.46024 0
M  V30 2943 H 271.889 -2.36424 -3.4265 0
M  V30 2944 H 272.422 -3.39379 -2.07525 0
M  V30 2945 H 269.161 -6.35474 -1.6079 0
M  V30 2946 H 268.681 -5.244 -2.91144 0
M  V30 2947 H 270.36 -5.8292 -2.80736 0
M  V30 2948 N 270.492 0.636531 -1.44174 0
M  V30 2949 C 271.769 1.39463 -1.37148 0
M  V30 2950 C 272.149 2.11082 -0.027507 0
M  V30 2951 O 271.497 2.05954 0.989716 0
M  V30 2952 C 271.707 2.36552 -2.56601 0
M  V30 2953 C 273.055 3.00048 -3.00427 0
M  V30 2954 O 274.079 2.46878 -2.56767 0
M  V30 2955 O 272.938 3.96488 -3.76111 0
M  V30 2956 H 270.032 0.623903 -0.542839 0
M  V30 2957 H 272.578 0.662039 -1.56253 0
M  V30 2958 H 271.35 1.82692 -3.46034 0
M  V30 2959 H 270.973 3.17236 -2.39681 0
M  V30 2960 N 271.97 1.30982 0.876444 0
M  V30 2961 C 272.9 1.20668 1.99903 0
M  V30 2962 C 273.881 0.095354 1.69833 0
M  V30 2963 O 275.066 0.27885 1.92188 0
M  V30 2964 C 272.196 0.90655 3.3526 0
M  V30 2965 C 271.15 1.97675 3.79617 0
M  V30 2966 C 270.476 1.52943 5.1236 0
M  V30 2967 C 271.776 3.389 3.97422 0
M  V30 2968 H 273.47 2.14586 2.0879 0
M  V30 2969 H 271.016 1.03308 1.00317 0
M  V30 2970 H 272.969 0.821025 4.13324 0
M  V30 2971 H 271.693 -0.0682969 3.26529 0
M  V30 2972 H 270.352 2.05205 3.03787 0
M  V30 2973 H 270 0.54262 5.00065 0
M  V30 2974 H 269.7 2.24532 5.43009 0
M  V30 2975 H 271.224 1.45786 5.92941 0
M  V30 2976 H 272.638 3.34081 4.659 0
M  V30 2977 H 271.035 4.0865 4.3946 0
M  V30 2978 H 272.105 3.80163 3.01006 0
M  V30 2979 N 273.449 -1.08991 1.13837 0
M  V30 2980 C 274.698 -1.80631 0.897509 0
M  V30 2981 C 275.011 -1.86872 -0.57777 0
M  V30 2982 O 276.217 -2.54866 -0.935701 0
M  V30 2983 C 274.673 -3.24517 1.55618 0
M  V30 2984 C 274.281 -3.26529 3.0673 0
M  V30 2985 C 276.025 -4.00882 1.3962 0
M  V30 2986 C 273.932 -4.64965 3.65461 0
M  V30 2987 H 272.862 -0.67691 0.332129 0
M  V30 2988 H 275.513 -1.2246 1.3666 0
M  V30 2989 H 273.895 -3.82778 1.01476 0
M  V30 2990 H 275.069 -2.78008 3.67489 0
M  V30 2991 H 273.384 -2.63656 3.22296 0
M  V30 2992 H 275.981 -5.03167 1.80906 0
M  V30 2993 H 276.324 -4.14896 0.341578 0
M  V30 2994 H 276.857 -3.49075 1.90766 0
M  V30 2995 H 273.596 -4.56153 4.70749 0
M  V30 2996 H 273.116 -5.13792 3.09481 0
M  V30 2997 H 274.795 -5.3394 3.654 0
M  V30 2998 N 274.927 -0.932562 -1.27047 0
M  V30 2999 C 276.176 -0.571351 -1.93439 0
M  V30 3000 C 276.489 0.892467 -1.74053 0
M  V30 3001 O 277.695 1.36267 -2.34826 0
M  V30 3002 C 276.151 -0.97106 -3.46552 0
M  V30 3003 C 275.759 -2.4559 -3.74686 0
M  V30 3004 C 277.503 -0.681333 -4.18997 0
M  V30 3005 C 275.41 -2.79475 -5.21198 0
M  V30 3006 H 274.34 -0.209966 -0.724176 0
M  V30 3007 H 276.991 -1.13403 -1.44263 0
M  V30 3008 H 275.373 -0.336983 -3.94564 0
M  V30 3009 H 276.547 -3.13829 -3.37414 0
M  V30 3010 H 274.862 -2.71802 -3.15456 0
M  V30 3011 H 277.459 -0.910939 -5.26883 0
M  V30 3012 H 277.802 0.381628 -4.14547 0
M  V30 3013 H 278.335 -1.27473 -3.76823 0
M  V30 3014 H 275.074 -3.847 -5.30741 0
M  V30 3015 H 274.594 -2.1589 -5.596 0
M  V30 3016 H 276.273 -2.67478 -5.89122 0
M  V30 3017 N 276.405 1.4127 -0.698611 0
M  V30 3018 C 277.816 1.84187 -0.305289 0
M  V30 3019 C 278.167 1.58449 1.15708 0
M  V30 3020 O 277.292 1.05651 1.88856 0
M  V30 3021 C 277.887 3.3435 -0.547314 0
M  V30 3022 C 276.446 3.75826 -0.207878 0
M  V30 3023 C 275.593 2.64647 -0.828099 0
M  V30 3024 H 278.544 1.30778 -0.89904 0
M  V30 3025 H 278.565 3.8001 0.192998 0
M  V30 3026 H 278.077 3.53051 -1.61172 0
M  V30 3027 H 276.178 3.62725 0.852143 0
M  V30 3028 H 276.291 4.74462 -0.665021 0
M  V30 3029 H 274.655 2.53395 -0.257458 0
M  V30 3030 H 275.438 2.86165 -1.89643 0
M  V30 3031 N 277.883 0.443576 1.51229 0
M  V30 3032 C 279.131 -0.120557 2.0174 0
M  V30 3033 C 279.452 -1.42665 1.32935 0
M  V30 3034 O 278.722 -1.9028 0.465866 0
M  V30 3035 H 277.302 -0.0475426 0.745486 0
M  V30 3036 H 279.964 0.587711 1.85828 0
M  V30 3037 H 279.06 -0.291972 3.10731 0
M  V30 3038 N 279.361 -1.56624 0.175154 0
M  V30 3039 C 280.291 -2.21155 -0.749195 0
M  V30 3040 C 281.272 -1.16836 -1.23626 0
M  V30 3041 O 282.457 -1.45277 -1.28873 0
M  V30 3042 C 279.587 -2.8553 -1.97711 0
M  V30 3043 C 278.541 -3.95921 -1.62575 0
M  V30 3044 C 277.867 -4.47365 -2.92864 0
M  V30 3045 C 279.167 -5.15323 -0.850838 0
M  V30 3046 H 280.861 -2.98653 -0.211295 0
M  V30 3047 H 278.407 -1.43651 -0.100188 0
M  V30 3048 H 280.36 -3.2935 -2.62881 0
M  V30 3049 H 279.084 -2.05406 -2.53921 0
M  V30 3050 H 277.743 -3.52762 -0.997719 0
M  V30 3051 H 277.391 -3.64027 -3.47122 0
M  V30 3052 H 277.091 -5.21839 -2.70106 0
M  V30 3053 H 278.615 -4.93873 -3.59056 0
M  V30 3054 H 280.029 -5.55812 -1.40521 0
M  V30 3055 H 278.426 -5.95739 -0.722154 0
M  V30 3056 H 279.496 -4.84661 0.152082 0
M  V30 3057 N 280.839 0.0985539 -1.57292 0
M  V30 3058 C 281.789 1.1261 -1.9825 0
M  V30 3059 C 282.773 1.35961 -0.860426 0
M  V30 3060 O 283.965 1.36711 -1.12424 0
M  V30 3061 C 281.094 2.44727 -2.40757 0
M  V30 3062 C 280.18 2.24764 -3.59642 0
M  V30 3063 N 280.571 1.74661 -4.74687 0
M  V30 3064 C 278.869 2.55344 -3.65672 0
M  V30 3065 C 279.57 1.68887 -5.56644 0
M  V30 3066 N 278.546 2.13976 -4.99715 0
M  V30 3067 H 282.348 0.731604 -2.84648 0
M  V30 3068 H 279.862 0.306029 -1.59491 0
M  V30 3069 H 281.859 3.19072 -2.68326 0
M  V30 3070 H 280.519 2.84917 -1.55733 0
M  V30 3071 H 281.53 1.43908 -4.97505 0
M  V30 3072 H 278.207 2.99081 -2.91302 0
M  V30 3073 H 279.597 1.3123 -6.5896 0
M  V30 3074 N 282.317 1.53212 0.369288 0
M  V30 3075 C 283.264 1.79388 1.45219 0
M  V30 3076 C 284.234 0.638059 1.53356 0
M  V30 3077 O 285.419 0.879852 1.69302 0
M  V30 3078 C 282.559 1.98623 2.82211 0
M  V30 3079 C 281.672 3.26337 2.8307 0
M  V30 3080 C 280.807 3.35779 4.11614 0
M  V30 3081 C 279.846 4.5754 4.06601 0
M  V30 3082 N 278.983 4.64155 5.26787 0
M  V30 3083 H 283.823 2.71794 1.22198 0
M  V30 3084 H 281.36 1.34642 0.592444 0
M  V30 3085 H 283.318 2.07761 3.61789 0
M  V30 3086 H 281.948 1.09558 3.03639 0
M  V30 3087 H 281 3.26171 1.95747 0
M  V30 3088 H 282.312 4.15988 2.75237 0
M  V30 3089 H 281.466 3.44208 4.99606 0
M  V30 3090 H 280.205 2.44137 4.22195 0
M  V30 3091 H 279.21 4.49215 3.16996 0
M  V30 3092 H 280.435 5.50519 3.97625 0
M  V30 3093 H 278.381 3.75413 5.3796 0
M  V30 3094 H 278.298 5.47706 5.21109 0
M  V30 3095 H 279.566 4.76863 6.16621 0
M  V30 3096 N 283.795 -0.628877 1.44509 0
M  V30 3097 C 284.758 -1.72263 1.51188 0
M  V30 3098 C 285.758 -1.55907 0.39367 0
M  V30 3099 O 286.948 -1.61361 0.656377 0
M  V30 3100 C 284.08 -3.11365 1.38798 0
M  V30 3101 H 285.273 -1.67714 2.4862 0
M  V30 3102 H 282.826 -0.842737 1.31634 0
M  V30 3103 H 283.561 -3.21507 0.424693 0
M  V30 3104 H 283.346 -3.24644 2.19884 0
M  V30 3105 H 284.836 -3.91075 1.46458 0
M  V30 3106 N 285.273 -1.31445 -0.869486 0
M  V30 3107 C 286.221 -1.19067 -1.99814 0
M  V30 3108 C 287.215 -0.0988569 -1.69111 0
M  V30 3109 O 288.421 -0.260781 -1.78101 0
M  V30 3110 H 284.796 -0.368677 -0.655425 0
M  V30 3111 H 286.767 -2.14555 -2.07385 0
M  V30 3112 C 285.516 -0.915323 -3.35436 0
M  V30 3113 H 284.839 -1.74759 -3.59582 0
M  V30 3114 H 286.279 -0.868895 -4.15001 0
M  V30 3115 C 284.738 0.381928 -3.34728 0
M  V30 3116 O 285.268 1.39857 -3.76567 0
M  V30 3117 N 283.474 0.398633 -2.87853 0
M  V30 3118 H 283.021 -0.429186 -2.54 0
M  V30 3119 H 282.979 1.26651 -2.87762 0
M  V30 3120 N 286.751 1.08385 -1.14413 0
M  V30 3121 C 287.999 1.80419 -0.910679 0
M  V30 3122 C 288.32 1.86658 0.564243 0
M  V30 3123 O 287.59 1.35985 1.41014 0
M  V30 3124 H 286.17 0.668204 -0.333934 0
M  V30 3125 H 288.832 1.31037 -1.44275 0
M  V30 3126 H 287.928 2.83238 -1.31082 0
M  V30 3127 N 288.23 0.939286 1.26551 0
M  V30 3128 C 289.479 0.581601 1.93133 0
M  V30 3129 C 289.792 -0.883224 1.74524 0
M  V30 3130 O 290.998 -1.3502 2.35546 0
M  V30 3131 C 289.454 0.989425 3.46032 0
M  V30 3132 C 289.062 2.47573 3.73379 0
M  V30 3133 C 290.806 0.703544 4.18629 0
M  V30 3134 C 288.713 2.82235 5.19709 0
M  V30 3135 H 287.643 0.213803 0.723052 0
M  V30 3136 H 290.294 1.14167 1.4366 0
M  V30 3137 H 288.676 0.357902 3.94379 0
M  V30 3138 H 289.85 3.15614 3.35744 0
M  V30 3139 H 288.165 2.73471 3.1401 0
M  V30 3140 H 290.762 0.938869 5.26393 0
M  V30 3141 H 291.105 -0.359639 4.14744 0
M  V30 3142 H 291.638 1.2947 3.76141 0
M  V30 3143 H 288.377 3.87509 5.28694 0
M  V30 3144 H 287.897 2.18854 5.58447 0
M  V30 3145 H 289.576 2.70599 5.87695 0
M  V30 3146 N 289.708 -1.40897 0.706093 0
M  V30 3147 C 290.933 -2.05895 0.249435 0
M  V30 3148 C 291.358 -1.52823 -1.09666 0
M  V30 3149 O 290.716 -0.659589 -1.68876 0
M  V30 3150 C 290.764 -3.59872 0.22904 0
M  V30 3151 O 289.868 -4.04708 -0.792784 0
M  V30 3152 H 289.209 -0.653206 0.119241 0
M  V30 3153 H 291.739 -1.80471 0.96391 0
M  V30 3154 H 291.749 -4.07951 0.0634791 0
M  V30 3155 H 290.424 -3.97866 1.21141 0
M  V30 3156 H 289.001 -3.68111 -0.59572 0
M  V30 3157 N 291.186 -0.45159 -1.50991 0
M  V30 3158 C 292.602 -0.104647 -1.59257 0
M  V30 3159 C 292.802 1.38728 -1.4614 0
M  V30 3160 O 291.858 2.15866 -1.30989 0
M  V30 3161 C 293.171 -0.637468 -2.93865 0
M  V30 3162 C 294.719 -0.599166 -3.07212 0
M  V30 3163 C 295.194 -1.1092 -4.44366 0
M  V30 3164 N 296.685 -1.06778 -4.50725 0
M  V30 3165 C 297.42 -1.43314 -5.55201 0
M  V30 3166 N 296.916 -1.87204 -6.67028 0
M  V30 3167 N 298.709 -1.3504 -5.45638 0
M  V30 3168 H 290.86 -1.42214 -1.57762 0
M  V30 3169 H 293.123 -0.586921 -0.744465 0
M  V30 3170 H 292.829 -1.68187 -3.08879 0
M  V30 3171 H 292.703 -0.0702139 -3.77135 0
M  V30 3172 H 295.09 0.436277 -2.91857 0
M  V30 3173 H 295.171 -1.20299 -2.25747 0
M  V30 3174 H 294.815 -2.14318 -4.60467 0
M  V30 3175 H 294.745 -0.481773 -5.24392 0
M  V30 3176 H 297.236 -0.745643 -3.70471 0
M  V30 3177 H 297.549 -2.13282 -7.42786 0
M  V30 3178 H 295.894 -1.91142 -6.68199 0
M  V30 3179 H 299.085 -1.00607 -4.57161 0
M  V30 3180 H 299.258 -1.63841 -6.26945 0
M  V30 3181 N 292.664 1.56529 -0.183458 0
M  V30 3182 C 293.594 2.21549 0.737456 0
M  V30 3183 C 294.575 1.17489 1.23005 0
M  V30 3184 O 295.76 1.45959 1.281 0
M  V30 3185 C 292.89 2.86575 1.96194 0
M  V30 3186 C 291.844 3.96778 1.60473 0
M  V30 3187 C 291.17 4.48911 2.90487 0
M  V30 3188 C 292.47 5.15767 0.823497 0
M  V30 3189 H 294.164 2.98761 0.195453 0
M  V30 3190 H 291.71 1.43702 0.0925686 0
M  V30 3191 H 293.663 3.30739 2.61131 0
M  V30 3192 H 292.387 2.06749 2.52828 0
M  V30 3193 H 291.046 3.53286 0.978997 0
M  V30 3194 H 290.694 3.65862 3.45186 0
M  V30 3195 H 290.394 5.23265 2.67335 0
M  V30 3196 H 291.918 4.95771 3.56432 0
M  V30 3197 H 293.332 5.56549 1.37571 0
M  V30 3198 H 291.729 5.96114 0.690551 0
M  V30 3199 H 292.799 4.84574 -0.177782 0
M  V30 3200 N 294.142 -0.090211 1.57342 0
M  V30 3201 C 295.072 -1.10976 2.05443 0
M  V30 3202 C 296.053 -1.41482 0.944284 0
M  V30 3203 O 297.238 -1.51428 1.21586 0
M  V30 3204 C 294.368 -2.42831 2.48295 0
M  V30 3205 C 293.322 -2.26721 3.63018 0
M  V30 3206 C 292.648 -3.63796 3.91863 0
M  V30 3207 C 293.948 -1.7037 4.93732 0
M  V30 3208 H 295.642 -0.709564 2.9087 0
M  V30 3209 H 293.188 -0.339874 1.39932 0
M  V30 3210 H 295.141 -3.14431 2.80555 0
M  V30 3211 H 293.865 -2.84795 1.59873 0
M  V30 3212 H 292.524 -1.57565 3.31012 0
M  V30 3213 H 292.172 -4.03297 3.00601 0
M  V30 3214 H 291.872 -3.53861 4.69101 0
M  V30 3215 H 293.396 -4.36855 4.26603 0
M  V30 3216 H 294.81 -2.31816 5.24342 0
M  V30 3217 H 293.207 -1.71181 5.75167 0
M  V30 3218 H 294.277 -0.663542 4.80339 0
M  V30 3219 N 295.62 -1.53406 -0.361157 0
M  V30 3220 C 296.567 -1.80156 -1.44265 0
M  V30 3221 C 297.537 -0.646183 -1.53015 0
M  V30 3222 O 298.722 -0.888818 -1.68833 0
M  V30 3223 C 295.862 -2.00116 -2.81154 0
M  V30 3224 C 294.975 -3.27833 -2.81335 0
M  V30 3225 C 294.11 -3.37957 -4.09828 0
M  V30 3226 C 293.149 -4.59689 -4.04168 0
M  V30 3227 N 292.286 -4.66942 -5.24318 0
M  V30 3228 H 297.126 -2.72438 -1.20754 0
M  V30 3229 H 294.663 -1.34954 -0.585296 0
M  V30 3230 H 296.621 -2.09677 -3.60682 0
M  V30 3231 H 295.251 -1.11167 -3.03054 0
M  V30 3232 H 294.303 -3.27204 -1.94014 0
M  V30 3233 H 295.615 -4.17442 -2.73027 0
M  V30 3234 H 294.769 -3.46853 -4.97773 0
M  V30 3235 H 293.508 -2.46372 -4.20894 0
M  V30 3236 H 292.513 -4.50889 -3.14609 0
M  V30 3237 H 293.738 -5.5262 -3.947 0
M  V30 3238 H 291.684 -3.7826 -5.35962 0
M  V30 3239 H 291.601 -5.50462 -5.18197 0
M  V30 3240 H 292.869 -4.80127 -6.14084 0
M  V30 3241 N 297.098 0.621204 -1.44841 0
M  V30 3242 C 298.514 0.94048 -1.28946 0
M  V30 3243 C 298.714 2.00154 -0.23249 0
M  V30 3244 O 297.77 2.49651 0.378237 0
M  V30 3245 C 299.083 1.39433 -2.66419 0
M  V30 3246 C 300.631 1.50927 -2.74208 0
M  V30 3247 C 301.106 1.99692 -4.12174 0
M  V30 3248 N 302.597 2.06947 -4.144 0
M  V30 3249 C 303.332 2.45871 -5.1801 0
M  V30 3250 N 302.828 2.83862 -6.31977 0
M  V30 3251 N 304.621 2.46092 -5.05366 0
M  V30 3252 H 296.772 -0.0803548 -2.12248 0
M  V30 3253 H 299.035 0.0266913 -0.947624 0
M  V30 3254 H 298.741 0.688925 -3.44887 0
M  V30 3255 H 298.615 2.36347 -2.93973 0
M  V30 3256 H 301.002 2.20561 -1.96053 0
M  V30 3257 H 301.083 0.523627 -2.50383 0
M  V30 3258 H 300.727 1.30649 -4.90809 0
M  V30 3259 H 300.657 2.99146 -4.33381 0
M  V30 3260 H 303.148 1.80232 -3.32152 0
M  V30 3261 H 303.461 3.12405 -7.0684 0
M  V30 3262 H 301.806 2.8159 -6.35399 0
M  V30 3263 H 304.997 2.1581 -4.15384 0
M  V30 3264 H 305.17 2.76102 -5.86235 0
M  V30 3265 N 298.576 1.31904 0.862503 0
M  V30 3266 C 299.822 1.23207 1.61838 0
M  V30 3267 C 300.177 -0.206062 1.91293 0
M  V30 3268 O 299.47 -1.14162 1.53875 0
M  V30 3269 C 299.664 2.01713 2.95037 0
M  V30 3270 C 299.493 3.53014 2.78588 0
M  V30 3271 C 298.263 4.22359 2.77382 0
M  V30 3272 C 300.461 4.47819 2.52909 0
M  V30 3273 N 298.443 5.59766 2.52062 0
M  V30 3274 C 299.814 5.72947 2.36922 0
M  V30 3275 C 301.869 4.37162 2.38314 0
M  V30 3276 C 300.572 6.88623 2.07823 0
M  V30 3277 C 302.598 5.5263 2.10604 0
M  V30 3278 C 301.96 6.76752 1.95411 0
M  V30 3279 H 298.059 0.505984 0.596242 0
M  V30 3280 H 300.643 1.66179 1.01452 0
M  V30 3281 H 298.814 1.61098 3.53415 0
M  V30 3282 H 300.546 1.84975 3.59953 0
M  V30 3283 H 297.301 3.74401 2.90036 0
M  V30 3284 H 297.725 6.32135 2.42352 0
M  V30 3285 H 302.367 3.41857 2.48784 0
M  V30 3286 H 300.085 7.83948 1.9609 0
M  V30 3287 H 303.671 5.46307 2.00101 0
M  V30 3288 H 302.551 7.6459 1.74274 0
M  V30 3289 N 300.054 -1.07777 1.14986 0
M  V30 3290 C 301.331 -1.7699 0.832695 0
M  V30 3291 C 301.711 -2.001 -0.672561 0
M  V30 3292 O 301.059 -1.61598 -1.6155 0
M  V30 3293 C 301.269 -3.08139 1.63863 0
M  V30 3294 C 302.617 -3.8256 1.84208 0
M  V30 3295 O 303.641 -3.17939 1.60603 0
M  V30 3296 O 302.5 -4.98612 2.23714 0
M  V30 3297 H 299.594 -0.768389 0.305791 0
M  V30 3298 H 302.14 -1.14182 1.25541 0
M  V30 3299 H 300.912 -2.86909 2.6608 0
M  V30 3300 H 300.535 -3.78678 1.21197 0
M  V30 3301 N 301.532 -0.945985 -1.26051 0
M  V30 3302 C 302.462 -0.477172 -2.28572 0
M  V30 3303 C 303.443 0.472032 -1.63419 0
M  V30 3304 O 304.628 0.372853 -1.90587 0
M  V30 3305 C 301.758 0.253975 -3.4637 0
M  V30 3306 C 300.712 -0.609135 -4.23643 0
M  V30 3307 C 300.038 0.252252 -5.34105 0
M  V30 3308 C 301.338 -1.8829 -4.8718 0
M  V30 3309 H 303.032 -1.33402 -2.68038 0
M  V30 3310 H 300.578 -0.642904 -1.28852 0
M  V30 3311 H 302.531 0.593016 -4.17207 0
M  V30 3312 H 301.255 1.145 -3.05871 0
M  V30 3313 H 299.914 -0.931138 -3.54578 0
M  V30 3314 H 299.562 1.14278 -4.89846 0
M  V30 3315 H 299.262 -0.32188 -5.86718 0
M  V30 3316 H 300.786 0.586454 -6.07777 0
M  V30 3317 H 302.2 -1.61081 -5.50205 0
M  V30 3318 H 300.597 -2.40199 -5.49931 0
M  V30 3319 H 301.667 -2.59134 -4.09851 0
M  V30 3320 N 303.011 1.40521 -0.713556 0
M  V30 3321 C 304.236 2.05759 -0.26035 0
M  V30 3322 C 304.661 1.53403 1.08854 0
M  V30 3323 O 304.019 0.668535 1.68524 0
M  V30 3324 C 304.067 3.59745 -0.248122 0
M  V30 3325 O 303.171 4.05123 0.77131 0
M  V30 3326 H 302.512 0.652564 -0.122703 0
M  V30 3327 H 305.042 1.79958 -0.973467 0
M  V30 3328 H 305.052 4.07911 -0.0851129 0
M  V30 3329 H 303.727 3.97218 -1.2325 0
M  V30 3330 H 302.304 3.68422 0.57619 0
M  V30 3331 N 304.489 0.459591 1.5075 0
M  V30 3332 C 305.9 0.00171547 1.867 0
M  V30 3333 C 306.251 -1.39934 1.37525 0
M  V30 3334 O 305.376 -2.03523 0.735349 0
M  V30 3335 C 305.971 -0.00366298 3.388 0
M  V30 3336 C 304.53 -0.406026 3.74204 0
M  V30 3337 C 303.677 0.38673 2.7459 0
M  V30 3338 H 306.628 0.674413 1.43657 0
M  V30 3339 H 306.649 -0.808371 3.71814 0
M  V30 3340 H 306.161 1.01617 3.74561 0
M  V30 3341 H 304.262 -1.43063 3.4404 0
M  V30 3342 H 304.375 -0.115362 4.78961 0
M  V30 3343 H 302.739 -0.158019 2.54209 0
M  V30 3344 H 303.522 1.40585 3.13194 0
M  V30 3345 N 305.967 -1.56429 0.191757 0
M  V30 3346 C 306.899 -2.16154 -0.762245 0
M  V30 3347 C 307.912 -1.12247 -1.17917 0
M  V30 3348 O 309.101 -1.39353 -1.11548 0
M  V30 3349 C 306.201 -2.70606 -2.04024 0
M  V30 3350 C 305.374 -3.99381 -1.78364 0
M  V30 3351 C 304.433 -4.38692 -2.90578 0
M  V30 3352 O 303.459 -5.06179 -2.6033 0
M  V30 3353 N 304.661 -4.01922 -4.18854 0
M  V30 3354 H 307.426 -2.98643 -0.251526 0
M  V30 3355 H 304.987 -1.61897 0.00967373 0
M  V30 3356 H 306.979 -2.93891 -2.78227 0
M  V30 3357 H 305.549 -1.9259 -2.46227 0
M  V30 3358 H 304.769 -3.84262 -0.879581 0
M  V30 3359 H 306.057 -4.83445 -1.58614 0
M  V30 3360 H 305.455 -3.47631 -4.46283 0
M  V30 3361 H 304.012 -4.30165 -4.89695 0
M  V30 3362 N 307.445 0.0818655 -1.57387 0
M  V30 3363 C 308.393 1.11712 -2.04018 0
M  V30 3364 C 309.387 1.40683 -0.94364 0
M  V30 3365 O 310.593 1.40209 -1.12878 0
M  V30 3366 H 306.968 0.377542 -0.650358 0
M  V30 3367 H 308.939 0.697614 -2.90131 0
M  V30 3368 C 307.688 2.42537 -2.49141 0
M  V30 3369 H 307.011 2.21092 -3.33104 0
M  V30 3370 H 308.451 3.13446 -2.85531 0
M  V30 3371 C 306.91 3.0778 -1.37014 0
M  V30 3372 O 307.44 3.95436 -0.706621 0
M  V30 3373 N 305.646 2.68242 -1.11779 0
M  V30 3374 H 305.193 1.97052 -1.65917 0
M  V30 3375 H 305.151 3.1222 -0.369594 0
M  V30 3376 N 308.923 1.53595 0.353017 0
M  V30 3377 C 310.169 1.70638 1.09593 0
M  V30 3378 C 310.502 0.463286 1.88593 0
M  V30 3379 O 309.777 -0.539597 1.86865 0
M  V30 3380 C 310.06 2.96406 2.04489 0
M  V30 3381 C 309.913 4.30901 1.29014 0
M  V30 3382 C 311.232 3.17812 3.0444 0
M  V30 3383 H 308.351 0.620913 0.397034 0
M  V30 3384 H 310.993 1.86254 0.375446 0
M  V30 3385 H 309.143 2.83223 2.65927 0
M  V30 3386 H 310.815 4.55917 0.702638 0
M  V30 3387 H 309.058 4.29741 0.592071 0
M  V30 3388 H 309.729 5.1506 1.98537 0
M  V30 3389 H 312.205 3.30263 2.53112 0
M  V30 3390 H 311.081 4.07223 3.6805 0
M  V30 3391 H 311.342 2.33669 3.75301 0
M  V30 3392 N 310.401 -0.613514 1.45168 0
M  V30 3393 C 311.647 -1.37471 1.49096 0
M  V30 3394 C 311.98 -1.93765 0.129901 0
M  V30 3395 O 311.255 -1.74707 -0.854858 0
M  V30 3396 C 311.538 -2.52701 2.56542 0
M  V30 3397 C 311.391 -2.01643 4.0207 0
M  V30 3398 C 312.71 -3.54849 2.60327 0
M  V30 3399 H 309.829 -0.498502 0.54283 0
M  V30 3400 H 312.471 -0.692125 1.76945 0
M  V30 3401 H 310.621 -3.10931 2.32926 0
M  V30 3402 H 312.293 -1.48108 4.36877 0
M  V30 3403 H 310.536 -1.32688 4.13009 0
M  V30 3404 H 311.207 -2.84681 4.72928 0
M  V30 3405 H 313.683 -3.0645 2.81474 0
M  V30 3406 H 312.559 -4.32973 3.37381 0
M  V30 3407 H 312.82 -4.10079 1.6519 0
M  V30 3408 N 311.879 -1.3236 -0.855495 0
M  V30 3409 C 312.842 -1.21164 -1.94556 0
M  V30 3410 C 313.842 -0.134908 -1.60233 0
M  V30 3411 O 315.032 -0.385249 -1.69887 0
M  V30 3412 C 312.164 -0.863192 -3.29791 0
M  V30 3413 H 313.357 -2.18038 -2.05911 0
M  V30 3414 H 310.91 -1.16179 -1.04557 0
M  V30 3415 H 311.645 0.103769 -3.24134 0
M  V30 3416 H 311.43 -1.64166 -3.56078 0
M  V30 3417 H 312.92 -0.809156 -4.09686 0
M  V30 3418 N 313.357 1.07166 -1.15556 0
M  V30 3419 C 314.606 1.79181 -0.926132 0
M  V30 3420 C 314.919 1.87768 0.547967 0
M  V30 3421 O 316.125 2.56323 0.895036 0
M  V30 3422 C 314.581 3.22 -1.60761 0
M  V30 3423 C 314.189 3.21607 -3.11886 0
M  V30 3424 C 315.933 3.9861 -1.4598 0
M  V30 3425 C 313.84 4.59092 -3.72812 0
M  V30 3426 H 312.77 0.67154 -0.342856 0
M  V30 3427 H 315.421 1.2027 -1.3859 0
M  V30 3428 H 313.803 3.81115 -1.07553 0
M  V30 3429 H 314.977 2.72127 -3.71865 0
M  V30 3430 H 313.292 2.58495 -3.2645 0
M  V30 3431 H 315.889 5.00225 -1.88888 0
M  V30 3432 H 316.232 4.143 -0.407541 0
M  V30 3433 H 316.765 3.45996 -1.96295 0
M  V30 3434 H 313.504 4.48606 -4.77946 0
M  V30 3435 H 313.024 5.08803 -3.17616 0
M  V30 3436 H 314.703 5.28059 -3.73848 0
M  V30 3437 N 314.835 0.952656 1.25548 0
M  V30 3438 C 316.083 0.605176 1.92826 0
M  V30 3439 C 316.404 -0.860261 1.74999 0
M  V30 3440 O 315.674 -1.6125 1.11244 0
M  V30 3441 H 314.254 0.220832 0.713612 0
M  V30 3442 H 316.916 1.21047 1.52754 0
M  V30 3443 H 316.012 0.832798 3.00784 0
M  V30 3444 N 316.313 -1.40141 0.720998 0
M  V30 3445 C 317.59 -1.94677 0.189757 0
M  V30 3446 C 317.97 -1.65879 -1.30566 0
M  V30 3447 O 317.318 -0.979391 -2.06447 0
M  V30 3448 C 317.528 -3.45279 0.508304 0
M  V30 3449 C 318.876 -4.22209 0.449934 0
M  V30 3450 O 319.9 -3.53413 0.444677 0
M  V30 3451 O 318.759 -5.44788 0.432189 0
M  V30 3452 H 315.853 -0.826459 0.0299026 0
M  V30 3453 H 318.399 -1.49719 0.7989 0
M  V30 3454 H 317.171 -3.59619 1.54239 0
M  V30 3455 H 316.794 -3.97386 -0.130525 0
M  V30 3456 N 317.792 -0.46758 -1.50504 0
M  V30 3457 C 319.017 0.0886943 -2.0721 0
M  V30 3458 C 319.442 1.33057 -1.32956 0
M  V30 3459 O 318.8 1.77354 -0.376197 0
M  V30 3460 C 318.848 0.359202 -3.58806 0
M  V30 3461 O 317.952 1.44034 -3.8643 0
M  V30 3462 H 317.293 -0.0114349 -0.663902 0
M  V30 3463 H 319.823 -0.657613 -1.93744 0
M  V30 3464 H 319.833 0.600742 -4.03553 0
M  V30 3465 H 318.508 -0.548311 -4.1227 0
M  V30 3466 H 317.085 1.18638 -3.53524 0
M  V30 3467 N 319.27 1.56325 -0.20005 0
M  V30 3468 C 320.518 1.97329 0.436547 0
M  V30 3469 C 320.839 1.08826 1.61808 0
M  V30 3470 O 320.109 0.160604 1.95241 0
M  V30 3471 H 318.689 0.728714 0.164272 0
M  V30 3472 H 321.351 1.92761 -0.287937 0
M  V30 3473 H 320.447 3.02264 0.777353 0
M  V30 3474 N 320.748 -0.0735177 1.57428 0
M  V30 3475 C 321.696 -1.10628 2.04607 0
M  V30 3476 C 322.69 -1.40181 0.951088 0
M  V30 3477 O 323.896 -1.39608 1.1362 0
M  V30 3478 H 320.271 -0.374088 0.652351 0
M  V30 3479 H 322.242 -0.682218 2.90497 0
M  V30 3480 C 320.991 -2.41212 2.50423 0
M  V30 3481 H 320.314 -2.19322 3.34272 0
M  V30 3482 H 321.754 -3.11927 2.87189 0
M  V30 3483 C 320.213 -3.0705 1.38644 0
M  V30 3484 O 320.743 -3.95056 0.727582 0
M  V30 3485 N 318.949 -2.67645 1.132 0
M  V30 3486 H 318.496 -1.96169 1.66959 0
M  V30 3487 H 318.454 -3.1202 0.386147 0
M  V30 3488 N 322.226 -1.5378 -0.344866 0
M  V30 3489 C 323.503 -1.61589 -1.10219 0
M  V30 3490 C 323.883 -0.436316 -2.06542 0
M  V30 3491 O 323.231 0.571543 -2.21237 0
M  V30 3492 C 323.441 -2.97602 -1.82301 0
M  V30 3493 C 324.789 -3.5291 -2.36093 0
M  V30 3494 O 325.813 -2.99768 -1.924 0
M  V30 3495 O 324.672 -4.45859 -3.16026 0
M  V30 3496 H 321.766 -0.653522 -0.506792 0
M  V30 3497 H 324.312 -1.66126 -0.346465 0
M  V30 3498 H 323.084 -3.74893 -1.12121 0
M  V30 3499 H 322.707 -2.9665 -2.64735 0
M  V30 3500 N 323.704 0.605807 -1.45491 0
M  V30 3501 C 324.667 1.69836 -1.5391 0
M  V30 3502 C 325.667 1.55261 -0.418424 0
M  V30 3503 O 326.857 1.60296 -0.681965 0
M  V30 3504 C 323.989 3.09117 -1.43734 0
M  V30 3505 H 325.182 1.63738 -2.51257 0
M  V30 3506 H 322.735 0.821689 -1.32959 0
M  V30 3507 H 323.47 3.20791 -0.475788 0
M  V30 3508 H 323.255 3.21104 -2.25021 0
M  V30 3509 H 324.745 3.88696 -1.52661 0
M  V30 3510 N 325.182 1.32811 0.848464 0
M  V30 3511 C 326.092 1.24278 1.98978 0
M  V30 3512 C 327.108 0.155176 1.73307 0
M  V30 3513 O 328.284 0.376999 1.9784 0
M  V30 3514 C 325.349 0.972444 3.32783 0
M  V30 3515 C 324.41 2.14911 3.71634 0
M  V30 3516 C 323.643 1.89157 4.99054 0
M  V30 3517 O 323.866 0.837165 5.64223 0
M  V30 3518 O 322.8 2.75433 5.35183 0
M  V30 3519 H 326.626 2.20238 2.09115 0
M  V30 3520 H 324.211 1.12762 0.980052 0
M  V30 3521 H 326.093 0.838432 4.12975 0
M  V30 3522 H 324.768 0.043051 3.23671 0
M  V30 3523 H 323.675 2.33862 2.91992 0
M  V30 3524 H 325.008 3.06151 3.85399 0
M  V30 3525 N 326.66 -1.06551 1.16123 0
M  V30 3526 C 327.593 -2.13382 0.80892 0
M  V30 3527 C 328.571 -1.61128 -0.21827 0
M  V30 3528 O 329.755 -1.88219 -0.102952 0
M  V30 3529 C 326.882 -3.38083 0.204303 0
M  V30 3530 C 325.928 -4.09133 1.20469 0
M  V30 3531 S 326.761 -4.5948 2.75024 0
M  V30 3532 C 327.917 -5.87446 2.16005 0
M  V30 3533 H 328.15 -2.42937 1.71373 0
M  V30 3534 H 325.683 -1.18947 0.984428 0
M  V30 3535 H 327.641 -4.10268 -0.138081 0
M  V30 3536 H 326.302 -3.0669 -0.678234 0
M  V30 3537 H 325.495 -4.98685 0.730019 0
M  V30 3538 H 325.097 -3.4295 1.49202 0
M  V30 3539 H 327.389 -6.60065 1.5271 0
M  V30 3540 H 328.332 -6.39639 3.03756 0
M  V30 3541 H 328.74 -5.41354 1.59989 0
M  V30 3542 N 328.138 -0.959301 -1.25041 0
M  V30 3543 C 329.068 -0.501388 -2.28053 0
M  V30 3544 C 330.049 0.454673 -1.63911 0
M  V30 3545 O 331.234 0.352618 -1.90972 0
M  V30 3546 C 328.364 0.217224 -3.4662 0
M  V30 3547 C 327.318 -0.654034 -4.22973 0
M  V30 3548 C 326.644 0.195589 -5.34342 0
M  V30 3549 C 327.944 -1.93447 -4.85155 0
M  V30 3550 H 329.638 -1.36238 -2.66608 0
M  V30 3551 H 327.184 -0.656534 -1.28163 0
M  V30 3552 H 329.137 0.548732 -4.17812 0
M  V30 3553 H 327.861 1.1125 -3.07068 0
M  V30 3554 H 326.52 -0.968693 -3.5357 0
M  V30 3555 H 326.168 1.09076 -4.91031 0
M  V30 3556 H 325.868 -0.384091 -5.86343 0
M  V30 3557 H 327.392 0.521958 -6.08365 0
M  V30 3558 H 328.806 -1.66908 -5.48466 0
M  V30 3559 H 327.203 -2.46018 -5.47353 0
M  V30 3560 H 328.273 -2.63466 -4.07079 0
M  V30 3561 N 329.616 1.39756 -0.72842 0
M  V30 3562 C 330.563 2.30647 -0.0841519 0
M  V30 3563 C 331.533 1.48869 0.7367 0
M  V30 3564 O 332.718 1.77574 0.698015 0
M  V30 3565 C 329.858 3.35165 0.822091 0
M  V30 3566 C 328.971 4.31999 -0.0106663 0
M  V30 3567 C 328.106 5.23585 0.896241 0
M  V30 3568 C 327.145 6.12072 0.0583381 0
M  V30 3569 N 326.282 6.96035 0.920818 0
M  V30 3570 H 331.122 2.85173 -0.864891 0
M  V30 3571 H 328.659 1.40422 -0.438179 0
M  V30 3572 H 330.617 3.94345 1.36189 0
M  V30 3573 H 329.247 2.8211 1.56888 0
M  V30 3574 H 328.299 3.74492 -0.66781 0
M  V30 3575 H 329.611 4.9443 -0.658825 0
M  V30 3576 H 328.765 5.87759 1.50412 0
M  V30 3577 H 327.504 4.61459 1.57819 0
M  V30 3578 H 326.509 5.46916 -0.562389 0
M  V30 3579 H 327.734 6.76261 -0.6203 0
M  V30 3580 H 325.68 6.36485 1.58818 0
M  V30 3581 H 325.597 7.55284 0.32899 0
M  V30 3582 H 326.865 7.64646 1.51447 0
M  V30 3583 N 331.094 0.475555 1.50254 0
M  V30 3584 C 332.027 -0.362381 2.25304 0
M  V30 3585 C 333.005 -0.992393 1.28803 0
M  V30 3586 O 334.189 -1.02746 1.58036 0
M  V30 3587 C 331.316 -1.50813 3.03271 0
M  V30 3588 C 330.362 -0.995044 4.1473 0
M  V30 3589 S 331.195 0.0938436 5.35418 0
M  V30 3590 C 332.351 -1.05567 6.16933 0
M  V30 3591 H 332.584 0.274686 2.96028 0
M  V30 3592 H 330.117 0.260495 1.52187 0
M  V30 3593 H 332.075 -2.16476 3.48781 0
M  V30 3594 H 330.736 -2.11672 2.32064 0
M  V30 3595 H 329.929 -1.85293 4.68703 0
M  V30 3596 H 329.531 -0.416052 3.71679 0
M  V30 3597 H 331.823 -1.96636 6.48337 0
M  V30 3598 H 332.766 -0.555109 7.05921 0
M  V30 3599 H 333.174 -1.31151 5.49053 0
M  V30 3600 N 332.573 -1.56217 0.208337 0
M  V30 3601 C 333.536 -2.18455 -0.693557 0
M  V30 3602 C 334.536 -1.14268 -1.13135 0
M  V30 3603 O 335.726 -1.39577 -1.0423 0
M  V30 3604 C 332.858 -2.79727 -1.94848 0
M  V30 3605 H 334.051 -2.99519 -0.15114 0
M  V30 3606 H 331.604 -1.56245 -0.041287 0
M  V30 3607 H 332.339 -2.02497 -2.53309 0
M  V30 3608 H 332.124 -3.56009 -1.64316 0
M  V30 3609 H 333.614 -3.27475 -2.59133 0
M  V30 3610 N 334.051 0.0651679 -1.57465 0
M  V30 3611 C 335.467 0.420105 -1.53972 0
M  V30 3612 C 335.667 1.78782 -0.929474 0
M  V30 3613 O 334.723 2.46771 -0.534839 0
M  V30 3614 C 336.036 0.355084 -2.98596 0
M  V30 3615 C 337.584 0.434792 -3.09965 0
M  V30 3616 C 338.059 0.399609 -4.56253 0
M  V30 3617 N 339.55 0.459488 -4.60915 0
M  V30 3618 C 340.285 0.454584 -5.71595 0
M  V30 3619 N 339.781 0.404102 -6.9162 0
M  V30 3620 N 341.574 0.501635 -5.59857 0
M  V30 3621 H 333.725 -0.830328 -1.95498 0
M  V30 3622 H 335.988 -0.312244 -0.895102 0
M  V30 3623 H 335.694 -0.583357 -3.46828 0
M  V30 3624 H 335.568 1.16275 -3.58831 0
M  V30 3625 H 337.955 1.36366 -2.61703 0
M  V30 3626 H 338.036 -0.40157 -2.52628 0
M  V30 3627 H 337.68 -0.525436 -5.05175 0
M  V30 3628 H 337.61 1.25359 -5.11461 0
M  V30 3629 H 340.101 0.502482 -3.74544 0
M  V30 3630 H 340.414 0.404468 -7.71741 0
M  V30 3631 H 338.759 0.37069 -6.94011 0
M  V30 3632 H 341.95 0.538812 -4.64989 0
M  V30 3633 H 342.123 0.494345 -6.46112 0
M  V30 3634 N 335.529 1.53961 0.336706 0
M  V30 3635 C 336.759 1.75229 1.09446 0
M  V30 3636 C 337.167 0.494602 1.82621 0
M  V30 3637 O 336.51 -0.543764 1.75468 0
M  V30 3638 C 336.572 2.88288 2.1478 0
M  V30 3639 C 336.236 4.27656 1.6112 0
M  V30 3640 C 337.233 5.08981 1.0599 0
M  V30 3641 C 334.918 4.74161 1.6576 0
M  V30 3642 C 336.912 6.34916 0.562129 0
M  V30 3643 C 334.599 6.00067 1.15595 0
M  V30 3644 C 335.597 6.80278 0.609147 0
M  V30 3645 O 335.285 8.03818 0.114999 0
M  V30 3646 H 335.017 0.588881 0.331956 0
M  V30 3647 H 337.571 2.01614 0.392566 0
M  V30 3648 H 335.801 2.57443 2.88548 0
M  V30 3649 H 337.49 2.97461 2.76174 0
M  V30 3650 H 338.256 4.74213 1.01722 0
M  V30 3651 H 334.135 4.11781 2.07261 0
M  V30 3652 H 337.679 6.9747 0.134668 0
M  V30 3653 H 333.576 6.3433 1.19566 0
M  V30 3654 H 334.344 8.18172 0.231651 0
M  V30 3655 N 337.007 -0.598083 1.45811 0
M  V30 3656 C 338.232 -1.3881 1.54099 0
M  V30 3657 C 338.657 -1.8726 0.177578 0
M  V30 3658 O 338.015 -1.6069 -0.839541 0
M  V30 3659 C 338.063 -2.56217 2.53743 0
M  V30 3660 O 337.167 -3.5716 2.06182 0
M  V30 3661 H 336.508 -0.414024 0.519115 0
M  V30 3662 H 339.038 -0.726971 1.91249 0
M  V30 3663 H 339.048 -3.03337 2.72856 0
M  V30 3664 H 337.723 -2.20303 3.5276 0
M  V30 3665 H 336.3 -3.16624 1.96987 0
M  V30 3666 N 338.485 -1.33259 -0.841409 0
M  V30 3667 C 339.732 -1.24572 -1.5965 0
M  V30 3668 C 340.06 0.189137 -1.93578 0
M  V30 3669 O 339.315 1.14566 -1.5866 0
M  V30 3670 C 339.614 -2.06381 -2.9179 0
M  V30 3671 C 339.28 -3.556 -2.77235 0
M  V30 3672 C 337.942 -3.96282 -2.72973 0
M  V30 3673 C 340.294 -4.50433 -2.62221 0
M  V30 3674 C 337.622 -5.30017 -2.51592 0
M  V30 3675 C 339.974 -5.84327 -2.42374 0
M  V30 3676 C 338.638 -6.24194 -2.36512 0
M  V30 3677 H 337.908 -0.455842 -0.5842 0
M  V30 3678 H 340.555 -1.6482 -0.975016 0
M  V30 3679 H 338.86 -1.58903 -3.5813 0
M  V30 3680 H 340.557 -1.97019 -3.49263 0
M  V30 3681 H 337.147 -3.23298 -2.81384 0
M  V30 3682 H 341.331 -4.19914 -2.64549 0
M  V30 3683 H 336.587 -5.59947 -2.45499 0
M  V30 3684 H 340.761 -6.57414 -2.29739 0
M  V30 3685 H 338.388 -7.27759 -2.19706 0
M  V30 3686 N 339.963 1.05934 -1.16686 0
M  V30 3687 C 340.926 2.11669 -0.879144 0
M  V30 3688 C 341.926 1.60294 0.127445 0
M  V30 3689 O 343.116 1.7389 -0.103865 0
M  V30 3690 C 340.248 3.39438 -0.315425 0
M  V30 3691 H 341.441 2.38626 -1.81653 0
M  V30 3692 H 338.994 1.22058 -0.976299 0
M  V30 3693 H 339.729 3.18132 0.629468 0
M  V30 3694 H 339.514 3.78034 -1.04079 0
M  V30 3695 H 341.004 4.17391 -0.132189 0
M  V30 3696 N 341.441 0.965919 1.2453 0
M  V30 3697 C 342.374 0.4393 2.23932 0
M  V30 3698 C 343.352 -0.485615 1.55179 0
M  V30 3699 O 344.536 -0.417402 1.83821 0
M  V30 3700 C 341.663 -0.366042 3.36716 0
M  V30 3701 C 340.709 0.5009 4.23548 0
M  V30 3702 S 341.542 1.94002 4.99123 0
M  V30 3703 C 342.698 1.14342 6.15367 0
M  V30 3704 H 342.931 1.28167 2.68254 0
M  V30 3705 H 340.464 0.770819 1.33782 0
M  V30 3706 H 342.422 -0.824724 4.0213 0
M  V30 3707 H 341.083 -1.18337 2.90956 0
M  V30 3708 H 340.276 -0.117341 5.03863 0
M  V30 3709 H 339.878 0.89524 3.63127 0
M  V30 3710 H 342.17 0.397572 6.76332 0
M  V30 3711 H 343.113 1.92089 6.81548 0
M  V30 3712 H 343.521 0.668579 5.60527 0
M  V30 3713 N 342.919 -1.39368 0.735821 0
M  V30 3714 C 344.167 -2.00101 0.283562 0
M  V30 3715 C 344.488 -1.5868 -1.13338 0
M  V30 3716 O 343.758 -0.835423 -1.77193 0
M  V30 3717 H 342.338 -0.740024 0.101851 0
M  V30 3718 H 345 -1.70404 0.945962 0
M  V30 3719 H 344.096 -3.10323 0.332604 0
M  V30 3720 N 344.397 -0.483516 -1.5 0
M  V30 3721 C 345.345 0.318061 -2.30415 0
M  V30 3722 C 346.339 0.978988 -1.38247 0
M  V30 3723 O 347.545 0.908673 -1.55381 0
M  V30 3724 H 343.92 0.121419 -0.742133 0
M  V30 3725 H 345.891 -0.380403 -2.95965 0
M  V30 3726 C 344.64 1.38013 -3.19136 0
M  V30 3727 H 343.963 0.880952 -3.89973 0
M  V30 3728 H 345.403 1.91332 -3.78375 0
M  V30 3729 C 343.862 2.38884 -2.37563 0
M  V30 3730 O 344.392 3.44412 -2.06744 0
M  V30 3731 N 342.598 2.10912 -1.99911 0
M  V30 3732 H 342.145 1.25118 -2.25174 0
M  V30 3733 H 342.103 2.78635 -1.45636 0
M  V30 3734 N 345.875 1.56104 -0.216619 0
M  V30 3735 C 346.838 2.18819 0.681962 0
M  V30 3736 C 347.838 1.14866 1.12528 0
M  V30 3737 O 349.028 1.40128 1.03488 0
M  V30 3738 C 346.16 2.80756 1.93362 0
M  V30 3739 H 347.353 2.99595 0.135254 0
M  V30 3740 H 344.906 1.56265 0.0330003 0
M  V30 3741 H 345.641 2.03837 2.52232 0
M  V30 3742 H 345.426 3.56876 1.62426 0
M  V30 3743 H 346.916 3.28844 2.57393 0
M  V30 3744 N 347.353 -0.0568162 1.57498 0
M  V30 3745 C 348.316 -1.05038 2.03715 0
M  V30 3746 C 349.316 -1.30709 0.936577 0
M  V30 3747 O 350.506 -1.26178 1.20103 0
M  V30 3748 C 347.638 -2.39034 2.43055 0
M  V30 3749 H 348.831 -0.651715 2.92733 0
M  V30 3750 H 346.384 -0.302947 1.53336 0
M  V30 3751 H 347.119 -2.83703 1.57108 0
M  V30 3752 H 346.904 -2.21739 3.2338 0
M  V30 3753 H 348.394 -3.10421 2.79336 0
M  V30 3754 N 348.832 -1.54138 -0.328536 0
M  V30 3755 C 349.742 -1.86192 -1.42723 0
M  V30 3756 C 350.758 -0.753382 -1.56844 0
M  V30 3757 O 351.934 -1.04718 -1.72035 0
M  V30 3758 C 348.999 -2.07824 -2.77507 0
M  V30 3759 C 348.06 -3.31641 -2.72603 0
M  V30 3760 C 347.293 -3.52232 -4.00959 0
M  V30 3761 O 347.516 -2.7636 -4.9898 0
M  V30 3762 O 346.45 -4.45699 -4.0452 0
M  V30 3763 H 350.276 -2.79608 -1.18547 0
M  V30 3764 H 347.861 -1.3998 -0.522104 0
M  V30 3765 H 349.743 -2.23411 -3.57303 0
M  V30 3766 H 348.418 -1.17596 -3.01584 0
M  V30 3767 H 347.325 -3.21444 -1.91376 0
M  V30 3768 H 348.658 -4.2191 -2.53481 0
M  V30 3769 N 350.31 0.590341 -1.46126 0
M  V30 3770 C 351.258 1.72105 -1.5647 0
M  V30 3771 C 352.252 1.63756 -0.433612 0
M  V30 3772 O 353.458 1.69342 -0.610194 0
M  V30 3773 H 349.833 0.568889 -0.491802 0
M  V30 3774 H 351.804 1.6051 -2.51553 0
M  V30 3775 C 350.553 3.10493 -1.56491 0
M  V30 3776 H 349.876 3.17583 -2.4286 0
M  V30 3777 H 351.316 3.8939 -1.67785 0
M  V30 3778 C 349.775 3.3563 -0.292231 0
M  V30 3779 O 350.305 3.96875 0.620739 0
M  V30 3780 N 348.511 2.90026 -0.182523 0
M  V30 3781 H 348.058 2.40367 -0.926356 0
M  V30 3782 H 348.016 3.07218 0.668152 0
M  V30 3783 N 351.788 1.33704 0.83433 0
M  V30 3784 C 353.037 1.24763 1.58484 0
M  V30 3785 C 353.35 -0.183775 1.94735 0
M  V30 3786 O 354.556 -0.395234 2.68608 0
M  V30 3787 C 353.012 2.18638 2.85876 0
M  V30 3788 C 352.62 3.66974 2.56971 0
M  V30 3789 C 354.364 2.18581 3.63899 0
M  V30 3790 C 352.271 4.5275 3.80488 0
M  V30 3791 H 351.201 0.463425 0.594772 0
M  V30 3792 H 353.852 1.58797 0.919551 0
M  V30 3793 H 352.234 1.77542 3.5397 0
M  V30 3794 H 353.408 4.16538 1.9706 0
M  V30 3795 H 351.723 3.69366 1.92244 0
M  V30 3796 H 354.32 2.79894 4.55591 0
M  V30 3797 H 354.663 1.18207 3.99165 0
M  V30 3798 H 355.196 2.58062 3.02735 0
M  V30 3799 H 351.935 5.54017 3.5035 0
M  V30 3800 H 351.455 4.07927 4.39722 0
M  V30 3801 H 353.134 4.66784 4.4802 0
M  V30 3802 N 353.266 -1.05314 1.17247 0
M  V30 3803 C 354.213 -2.13031 0.888058 0
M  V30 3804 C 355.183 -1.65253 -0.167537 0
M  V30 3805 O 356.368 -1.90775 -0.0305974 0
M  V30 3806 C 353.508 -3.42702 0.406147 0
M  V30 3807 C 352.621 -4.04161 1.52572 0
M  V30 3808 C 351.756 -5.21744 0.997808 0
M  V30 3809 C 350.795 -5.75207 2.09291 0
M  V30 3810 N 349.932 -6.84094 1.57986 0
M  V30 3811 H 354.772 -2.36698 1.81048 0
M  V30 3812 H 352.309 -1.16121 0.903013 0
M  V30 3813 H 354.267 -4.17059 0.108305 0
M  V30 3814 H 352.897 -3.19222 -0.479313 0
M  V30 3815 H 351.949 -3.27253 1.93931 0
M  V30 3816 H 353.261 -4.39881 2.35172 0
M  V30 3817 H 352.415 -6.03168 0.653739 0
M  V30 3818 H 351.154 -4.87495 0.141232 0
M  V30 3819 H 350.159 -4.92414 2.44557 0
M  V30 3820 H 351.384 -6.11505 2.95362 0
M  V30 3821 H 349.33 -6.51745 0.74598 0
M  V30 3822 H 349.247 -7.18811 2.34195 0
M  V30 3823 H 350.515 -7.69172 1.26468 0
M  V30 3824 N 354.744 -0.972509 -1.24016 0
M  V30 3825 C 355.676 -0.464375 -2.24446 0
M  V30 3826 C 356.689 0.4295 -1.57032 0
M  V30 3827 O 357.878 0.234902 -1.76948 0
M  V30 3828 C 354.978 0.348385 -3.37105 0
M  V30 3829 C 354.151 -0.53673 -4.34094 0
M  V30 3830 C 353.21 0.220838 -5.25736 0
M  V30 3831 O 352.236 -0.386867 -5.67884 0
M  V30 3832 N 353.438 1.50907 -5.60542 0
M  V30 3833 H 356.203 -1.32788 -2.68677 0
M  V30 3834 H 353.764 -0.844877 -1.38107 0
M  V30 3835 H 355.756 0.863341 -3.95384 0
M  V30 3836 H 354.326 1.11285 -2.92121 0
M  V30 3837 H 353.546 -1.23261 -3.74433 0
M  V30 3838 H 354.834 -1.14022 -4.95859 0
M  V30 3839 H 354.232 2.02444 -5.28236 0
M  V30 3840 H 352.789 1.96962 -6.21329 0
M  V30 3841 N 356.222 1.38976 -0.743202 0
M  V30 3842 C 357.471 1.99581 -0.291592 0
M  V30 3843 C 357.784 1.59656 1.13001 0
M  V30 3844 O 358.99 2.13157 1.68156 0
M  V30 3845 C 357.446 3.56813 -0.470391 0
M  V30 3846 C 357.054 4.05695 -1.90041 0
M  V30 3847 C 358.798 4.24423 -0.0809709 0
M  V30 3848 C 356.705 5.5553 -2.02832 0
M  V30 3849 H 355.635 0.746615 -0.105272 0
M  V30 3850 H 358.286 1.58872 -0.918258 0
M  V30 3851 H 356.668 3.95359 0.225299 0
M  V30 3852 H 357.842 3.78464 -2.62872 0
M  V30 3853 H 356.157 3.50775 -2.24379 0
M  V30 3854 H 358.754 5.34474 -0.155445 0
M  V30 3855 H 359.097 4.04962 0.96497 0
M  V30 3856 H 359.63 3.9108 -0.728124 0
M  V30 3857 H 356.369 5.79881 -3.05643 0
M  V30 3858 H 355.889 5.84537 -1.34448 0
M  V30 3859 H 357.568 6.21069 -1.81335 0
M  V30 3860 N 357.7 0.491464 1.49741 0
M  V30 3861 C 358.663 -0.280906 2.27472 0
M  V30 3862 C 359.663 -0.902454 1.33088 0
M  V30 3863 O 360.853 -0.768465 1.56334 0
M  V30 3864 C 357.985 -1.40209 3.10732 0
M  V30 3865 H 359.178 0.401056 2.97206 0
M  V30 3866 H 356.731 0.246131 1.5435 0
M  V30 3867 H 357.466 -2.11849 2.45541 0
M  V30 3868 H 357.251 -0.961969 3.80117 0
M  V30 3869 H 358.741 -1.9464 3.69466 0
M  V30 3870 N 359.178 -1.55987 0.224894 0
M  V30 3871 C 360.594 -1.59066 -0.130426 0
M  V30 3872 C 360.794 -1.24176 -1.5869 0
M  V30 3873 O 359.85 -0.978592 -2.32766 0
M  V30 3874 C 361.163 -3.00042 0.198883 0
M  V30 3875 C 362.711 -3.1268 0.141391 0
M  V30 3876 C 363.186 -4.55839 0.444422 0
M  V30 3877 N 364.677 -4.6152 0.394115 0
M  V30 3878 C 365.412 -5.70231 0.602038 0
M  V30 3879 N 364.908 -6.87291 0.871914 0
M  V30 3880 N 366.701 -5.59555 0.534245 0
M  V30 3881 H 358.852 -1.76941 1.17497 0
M  V30 3882 H 361.115 -0.822604 0.471197 0
M  V30 3883 H 360.821 -3.30234 1.2099 0
M  V30 3884 H 360.695 -3.74075 -0.484535 0
M  V30 3885 H 363.082 -2.82283 -0.860265 0
M  V30 3886 H 363.163 -2.40969 0.858335 0
M  V30 3887 H 362.807 -4.86954 1.44353 0
M  V30 3888 H 362.737 -5.2578 -0.293752 0
M  V30 3889 H 365.228 -3.77405 0.193356 0
M  V30 3890 H 365.541 -7.66058 1.01858 0
M  V30 3891 H 363.886 -6.89028 0.909145 0
M  V30 3892 H 367.077 -4.6698 0.323612 0
M  V30 3893 H 367.25 -6.44211 0.699693 0
M  V30 3894 N 360.656 0.0484629 -1.57525 0
M  V30 3895 C 361.886 0.754326 -1.92337 0
M  V30 3896 C 362.294 1.70443 -0.82132 0
M  V30 3897 O 361.637 1.82466 0.21254 0
M  V30 3898 C 361.699 1.58231 -3.22805 0
M  V30 3899 C 361.363 0.799074 -4.4996 0
M  V30 3900 C 362.36 0.1079 -5.19788 0
M  V30 3901 C 360.045 0.759345 -4.96527 0
M  V30 3902 C 362.039 -0.612516 -6.3445 0
M  V30 3903 C 359.726 0.0351713 -6.1109 0
M  V30 3904 C 360.724 -0.649537 -6.79904 0
M  V30 3905 O 360.412 -1.36199 -7.92278 0
M  V30 3906 H 360.144 0.218257 -0.639797 0
M  V30 3907 H 362.698 0.0159295 -2.05394 0
M  V30 3908 H 360.928 2.36406 -3.06021 0
M  V30 3909 H 362.617 2.16898 -3.43089 0
M  V30 3910 H 363.383 0.129748 -4.84826 0
M  V30 3911 H 359.262 1.28177 -4.42822 0
M  V30 3912 H 362.806 -1.14751 -6.88097 0
M  V30 3913 H 358.703 0.0113314 -6.45499 0
M  V30 3914 H 359.471 -1.27366 -8.0853 0
M  V30 3915 N 362.134 1.5431 0.320358 0
M  V30 3916 C 363.097 1.83195 1.3774 0
M  V30 3917 C 364.097 0.703906 1.44575 0
M  V30 3918 O 365.287 0.972214 1.44546 0
M  V30 3919 C 362.419 1.99487 2.76438 0
M  V30 3920 H 363.612 2.77642 1.1338 0
M  V30 3921 H 361.165 1.46076 0.556012 0
M  V30 3922 H 361.9 1.07262 3.06048 0
M  V30 3923 H 361.685 2.81575 2.7287 0
M  V30 3924 H 363.175 2.23271 3.52902 0
M  V30 3925 N 363.613 -0.582584 1.46437 0
M  V30 3926 C 364.841 -1.36682 1.55324 0
M  V30 3927 C 365.256 -1.87796 0.194409 0
M  V30 3928 O 364.613 -1.63623 -0.808318 0
M  V30 3929 C 364.664 -2.55426 2.55812 0
M  V30 3930 O 364.385 -2.0643 3.86417 0
M  V30 3931 C 365.886 -3.47976 2.74641 0
M  V30 3932 H 363.106 -0.417545 0.525259 0
M  V30 3933 H 365.65 -0.708219 1.91845 0
M  V30 3934 H 363.805 -3.17275 2.22295 0
M  V30 3935 H 364.219 -2.83762 4.41111 0
M  V30 3936 H 365.693 -4.27775 3.48874 0
M  V30 3937 H 366.17 -3.99919 1.81553 0
M  V30 3938 H 366.776 -2.91962 3.09255 0
M  V30 3939 N 365.091 -1.34144 -0.827227 0
M  V30 3940 C 366.368 -1.16844 -1.56865 0
M  V30 3941 C 366.748 0.260654 -2.09485 0
M  V30 3942 O 366.096 1.26138 -1.9053 0
M  V30 3943 C 366.306 -2.21939 -2.6934 0
M  V30 3944 C 367.654 -2.56695 -3.3822 0
M  V30 3945 O 368.678 -2.20695 -2.79593 0
M  V30 3946 O 367.537 -3.18518 -4.44082 0
M  V30 3947 H 364.631 -0.452669 -0.692112 0
M  V30 3948 H 367.177 -1.45763 -0.868973 0
M  V30 3949 H 365.949 -3.17882 -2.28182 0
M  V30 3950 H 365.572 -1.94172 -3.46962 0
M  V30 3951 N 366.569 1.04691 -1.17803 0
M  V30 3952 C 367.846 1.7472 -0.879328 0
M  V30 3953 C 368.226 2.01812 0.619271 0
M  V30 3954 O 367.574 1.65824 1.57209 0
M  V30 3955 C 367.784 3.03686 -1.71976 0
M  V30 3956 C 369.132 3.77542 -1.94286 0
M  V30 3957 O 370.156 3.13569 -1.68976 0
M  V30 3958 O 369.015 4.92506 -2.36855 0
M  V30 3959 H 366.109 0.760011 -0.326056 0
M  V30 3960 H 368.655 1.10813 -1.28525 0
M  V30 3961 H 367.427 2.79754 -2.73594 0
M  V30 3962 H 367.05 3.75332 -1.31194 0
M  V30 3963 N 368.047 0.979072 1.23499 0
M  V30 3964 C 368.995 0.510604 2.26926 0
M  V30 3965 C 369.989 -0.431691 1.63807 0
M  V30 3966 O 371.195 -0.30573 1.77385 0
M  V30 3967 H 367.57 0.146688 0.737554 0
M  V30 3968 H 369.541 1.39466 2.63803 0
M  V30 3969 C 368.29 -0.172658 3.47271 0
M  V30 3970 H 367.613 0.543331 3.96091 0
M  V30 3971 H 369.053 -0.464101 4.21452 0
M  V30 3972 C 367.512 -1.40345 3.06276 0
M  V30 3973 O 368.042 -2.49978 3.14442 0
M  V30 3974 N 366.248 -1.27362 2.61203 0
M  V30 3975 H 365.795 -0.381584 2.54758 0
M  V30 3976 H 365.753 -2.09822 2.34141 0
M  V30 3977 N 369.525 -1.3858 0.750561 0
M  V30 3978 C 370.473 -2.32339 0.110162 0
M  V30 3979 C 371.467 -1.53864 -0.708674 0
M  V30 3980 O 372.673 -1.69417 -0.608112 0
M  V30 3981 H 369.048 -0.751812 0.0168275 0
M  V30 3982 H 371.019 -2.83959 0.917053 0
M  V30 3983 C 369.768 -3.39043 -0.771067 0
M  V30 3984 H 369.091 -3.99517 -0.150374 0
M  V30 3985 H 370.531 -4.07061 -1.1865 0
M  V30 3986 C 368.99 -2.77365 -1.91234 0
M  V30 3987 O 369.52 -2.66434 -3.00626 0
M  V30 3988 N 367.726 -2.35219 -1.70646 0
M  V30 3989 H 367.273 -2.4431 -0.81673 0
M  V30 3990 H 367.231 -1.94294 -2.47178 0
M  V30 3991 N 371.003 -0.499398 -1.49478 0
M  V30 3992 C 371.953 0.299103 -2.2603 0
M  V30 3993 C 372.937 0.936934 -1.30807 0
M  V30 3994 O 374.129 0.844798 -1.55538 0
M  V30 3995 C 371.258 1.36391 -3.15044 0
M  V30 3996 C 370.344 0.732398 -4.17728 0
M  V30 3997 N 370.735 -0.164028 -5.05534 0
M  V30 3998 C 369.033 0.993162 -4.34801 0
M  V30 3999 C 369.734 -0.525345 -5.79323 0
M  V30 4000 N 368.71 0.106348 -5.43496 0
M  V30 4001 H 372.512 -0.391003 -2.91287 0
M  V30 4002 H 370.026 -0.31537 -1.59308 0
M  V30 4003 H 372.023 1.94939 -3.68516 0
M  V30 4004 H 370.683 2.05571 -2.51338 0
M  V30 4005 H 371.694 -0.534736 -5.15132 0
M  V30 4006 H 368.371 1.67783 -3.82302 0
M  V30 4007 H 369.761 -1.25862 -6.60006 0
M  V30 4008 N 372.481 1.55866 -0.233164 0
M  V30 4009 C 373.391 2.24431 0.683217 0
M  V30 4010 C 374.407 1.2558 1.2044 0
M  V30 4011 O 375.583 1.58422 1.24356 0
M  V30 4012 C 372.648 2.91979 1.86947 0
M  V30 4013 C 371.709 4.06204 1.38912 0
M  V30 4014 C 370.942 4.70522 2.51883 0
M  V30 4015 O 371.165 4.33865 3.70293 0
M  V30 4016 O 370.099 5.59296 2.22423 0
M  V30 4017 H 373.925 3.03426 0.129059 0
M  V30 4018 H 371.51 1.494 -0.0022283 0
M  V30 4019 H 373.392 3.34573 2.56201 0
M  V30 4020 H 372.067 2.15935 2.41151 0
M  V30 4021 H 370.974 3.68155 0.664259 0
M  V30 4022 H 372.307 4.84025 0.893328 0
M  V30 4023 N 373.959 -0.0401083 1.57549 0
M  V30 4024 C 375.207 -0.731677 1.8839 0
M  V30 4025 C 375.528 -1.76481 0.829425 0
M  V30 4026 O 374.798 -1.95411 -0.1383 0
M  V30 4027 H 373.378 -0.273225 0.695239 0
M  V30 4028 H 376.04 -0.00867725 1.94898 0
M  V30 4029 H 375.136 -1.22816 2.86919 0
M  V30 4030 N 375.437 -1.54477 -0.31217 0
M  V30 4031 C 376.4 -1.83923 -1.36766 0
M  V30 4032 C 377.4 -0.711563 -1.44199 0
M  V30 4033 O 378.59 -0.979866 -1.44029 0
M  V30 4034 C 375.722 -2.0095 -2.75376 0
M  V30 4035 H 376.915 -2.78239 -1.11906 0
M  V30 4036 H 374.468 -1.46369 -0.548257 0
M  V30 4037 H 375.203 -1.08883 -3.05475 0
M  V30 4038 H 374.988 -2.83018 -2.71373 0
M  V30 4039 H 376.478 -2.2514 -3.51713 0
M  V30 4040 N 376.915 0.57481 -1.46744 0
M  V30 4041 C 377.845 1.69337 -1.60771 0
M  V30 4042 C 378.826 1.63825 -0.457736 0
M  V30 4043 O 380.011 1.8172 -0.684947 0
M  V30 4044 C 377.141 3.0798 -1.60517 0
M  V30 4045 C 376.095 3.28327 -2.74564 0
M  V30 4046 C 375.421 4.67578 -2.59373 0
M  V30 4047 C 376.721 3.15398 -4.16319 0
M  V30 4048 H 378.415 1.57853 -2.54407 0
M  V30 4049 H 375.961 0.75799 -1.22436 0
M  V30 4050 H 377.914 3.86061 -1.68923 0
M  V30 4051 H 376.638 3.20381 -0.634305 0
M  V30 4052 H 375.297 2.52649 -2.65639 0
M  V30 4053 H 374.945 4.76755 -1.60353 0
M  V30 4054 H 374.645 4.82144 -3.35873 0
M  V30 4055 H 376.169 5.47817 -2.69682 0
M  V30 4056 H 377.583 3.83315 -4.26313 0
M  V30 4057 H 375.98 3.41482 -4.93468 0
M  V30 4058 H 377.05 2.12372 -4.3592 0
M  V30 4059 N 378.394 1.34581 0.820102 0
M  V30 4060 C 379.342 1.26401 1.95258 0
M  V30 4061 C 380.336 0.161553 1.68628 0
M  V30 4062 O 381.542 0.326703 1.7701 0
M  V30 4063 H 377.917 0.392749 0.64129 0
M  V30 4064 H 379.888 2.22105 1.99279 0
M  V30 4065 C 378.637 1.03919 3.31807 0
M  V30 4066 H 377.96 1.87984 3.52848 0
M  V30 4067 H 379.4 1.02232 4.11491 0
M  V30 4068 C 377.859 -0.257433 3.35915 0
M  V30 4069 O 378.389 -1.25784 3.81499 0
M  V30 4070 N 376.595 -0.291524 2.89134 0
M  V30 4071 H 376.142 0.523161 2.52232 0
M  V30 4072 H 376.1 -1.15883 2.92264 0
M  V30 4073 N 379.872 -1.04064 1.18357 0
M  V30 4074 C 381.118 -1.77528 0.980397 0
M  V30 4075 C 381.451 -1.87948 -0.48879 0
M  V30 4076 O 380.726 -1.3876 -1.36293 0
M  V30 4077 C 381.009 -3.20797 1.63588 0
M  V30 4078 C 380.862 -3.1832 3.17793 0
M  V30 4079 C 382.181 -4.18911 1.34914 0
M  V30 4080 H 379.3 -0.644443 0.357578 0
M  V30 4081 H 381.942 -1.2156 1.46024 0
M  V30 4082 H 380.092 -3.68586 1.22788 0
M  V30 4083 H 381.764 -2.78521 3.67728 0
M  V30 4084 H 380.007 -2.56351 3.49952 0
M  V30 4085 H 380.678 -4.19489 3.58794 0
M  V30 4086 H 383.154 -3.7967 1.70265 0
M  V30 4087 H 382.03 -5.17374 1.83346 0
M  V30 4088 H 382.291 -4.41262 0.272027 0
M  V30 4089 N 381.35 -0.985608 -1.22978 0
M  V30 4090 C 382.599 -0.652881 -1.90841 0
M  V30 4091 C 382.912 0.817842 -1.77681 0
M  V30 4092 O 384.118 1.26185 -2.40395 0
M  V30 4093 C 382.574 -1.11717 -3.42122 0
M  V30 4094 C 382.182 -2.6126 -3.63933 0
M  V30 4095 C 383.926 -0.85843 -4.1573 0
M  V30 4096 C 381.833 -3.0133 -5.08876 0
M  V30 4097 H 380.763 -0.240491 -0.714619 0
M  V30 4098 H 383.414 -1.1942 -1.39324 0
M  V30 4099 H 381.796 -0.504027 -3.92779 0
M  V30 4100 H 382.97 -3.27858 -3.23799 0
M  V30 4101 H 381.285 -2.84937 -3.03644 0
M  V30 4102 H 383.882 -1.13359 -5.22546 0
M  V30 4103 H 384.225 0.205461 -4.15793 0
M  V30 4104 H 384.758 -1.43341 -3.71077 0
M  V30 4105 H 381.497 -4.06864 -5.13947 0
M  V30 4106 H 381.017 -2.3943 -5.49939 0
M  V30 4107 H 382.696 -2.92224 -5.77247 0
M  V30 4108 N 382.828 1.3818 -0.7579 0
M  V30 4109 C 383.76 2.2901 -0.0932177 0
M  V30 4110 C 384.773 1.47958 0.679136 0
M  V30 4111 O 385.962 1.70773 0.519514 0
M  V30 4112 C 383.062 3.26953 0.89192 0
M  V30 4113 C 382.235 4.37045 0.176303 0
M  V30 4114 C 381.294 5.15148 1.07281 0
M  V30 4115 O 380.32 5.66616 0.541728 0
M  V30 4116 N 381.522 5.28542 2.40049 0
M  V30 4117 H 384.287 2.86694 -0.873303 0
M  V30 4118 H 381.848 1.50007 -0.609054 0
M  V30 4119 H 383.84 3.76083 1.49479 0
M  V30 4120 H 382.41 2.70136 1.57306 0
M  V30 4121 H 381.63 3.89493 -0.607328 0
M  V30 4122 H 382.918 5.07801 -0.318718 0
M  V30 4123 H 382.316 4.88285 2.85647 0
M  V30 4124 H 380.873 5.8103 2.95376 0
M  V30 4125 N 384.306 0.507319 1.49211 0
M  V30 4126 C 385.269 -0.256763 2.27757 0
M  V30 4127 C 386.269 -0.888287 1.34038 0
M  V30 4128 O 387.459 -0.751841 1.5714 0
M  V30 4129 C 384.591 -1.36905 3.12202 0
M  V30 4130 H 385.784 0.432557 2.96764 0
M  V30 4131 H 383.337 0.262488 1.5408 0
M  V30 4132 H 384.072 -2.09233 2.47775 0
M  V30 4133 H 383.857 -0.921599 3.81115 0
M  V30 4134 H 385.347 -1.9071 3.7151 0
M  V30 4135 N 385.784 -1.5574 0.241426 0
M  V30 4136 C 387.03 -1.99104 -0.385406 0
M  V30 4137 C 387.363 -1.1293 -1.57988 0
M  V30 4138 O 386.638 -0.191449 -1.93555 0
M  V30 4139 C 386.921 -3.51087 -0.800616 0
M  V30 4140 C 386.774 -4.48028 0.398874 0
M  V30 4141 C 388.093 -4.08015 -1.64959 0
M  V30 4142 H 385.212 -0.723848 -0.138614 0
M  V30 4143 H 387.854 -1.86903 0.341642 0
M  V30 4144 H 386.004 -3.61615 -1.4201 0
M  V30 4145 H 387.676 -4.49487 1.03726 0
M  V30 4146 H 385.919 -4.21077 1.04293 0
M  V30 4147 H 386.59 -5.51962 0.0651056 0
M  V30 4148 H 389.066 -4.00555 -1.12672 0
M  V30 4149 H 387.942 -5.14635 -1.90898 0
M  V30 4150 H 388.203 -3.56131 -2.61961 0
M  V30 4151 N 387.262 0.0317525 -1.57568 0
M  V30 4152 C 388.192 1.03274 -2.0942 0
M  V30 4153 C 389.173 1.3788 -0.996143 0
M  V30 4154 O 390.358 1.46811 -1.27122 0
M  V30 4155 C 387.488 2.33448 -2.57137 0
M  V30 4156 C 386.442 2.13091 -3.71182 0
M  V30 4157 C 385.768 3.49001 -4.05095 0
M  V30 4158 C 387.068 1.51928 -4.99715 0
M  V30 4159 H 388.762 0.60112 -2.93303 0
M  V30 4160 H 386.308 0.287705 -1.41097 0
M  V30 4161 H 388.261 3.03802 -2.92032 0
M  V30 4162 H 386.985 2.78665 -1.70333 0
M  V30 4163 H 385.644 1.45171 -3.36632 0
M  V30 4164 H 385.292 3.91862 -3.15362 0
M  V30 4165 H 384.992 3.36207 -4.81911 0
M  V30 4166 H 386.516 4.20721 -4.42522 0
M  V30 4167 H 387.93 2.12196 -5.32584 0
M  V30 4168 H 386.327 1.49716 -5.81124 0
M  V30 4169 H 387.397 0.484811 -4.8247 0
M  V30 4170 N 388.74 1.54641 0.303973 0
M  V30 4171 C 390.017 1.64455 1.05896 0
M  V30 4172 C 390.397 0.490923 2.05312 0
M  V30 4173 O 389.745 -0.512685 2.22674 0
M  V30 4174 C 389.955 3.02331 1.74347 0
M  V30 4175 C 391.303 3.59045 2.26653 0
M  V30 4176 O 392.327 3.04764 1.84384 0
M  V30 4177 O 391.186 4.54081 3.04093 0
M  V30 4178 H 388.28 0.666729 0.489287 0
M  V30 4179 H 390.826 1.66986 0.302298 0
M  V30 4180 H 389.598 3.77734 1.02142 0
M  V30 4181 H 389.221 3.03565 2.56777 0
M  V30 4182 N 390.218 -0.567019 1.47046 0
M  V30 4183 C 391.166 -1.69593 1.59188 0
M  V30 4184 C 392.16 -1.63046 0.459609 0
M  V30 4185 O 393.366 -1.6835 0.637058 0
M  V30 4186 H 389.741 -0.560993 0.500791 0
M  V30 4187 H 391.712 -1.56488 2.54075 0
M  V30 4188 C 390.461 -3.07964 1.61411 0
M  V30 4189 H 389.784 -3.13679 2.47881 0
M  V30 4190 H 391.224 -3.86671 1.73958 0
M  V30 4191 C 389.683 -3.35123 0.34559 0
M  V30 4192 O 390.213 -3.97812 -0.557521 0
M  V30 4193 N 388.419 -2.89699 0.22864 0
M  V30 4194 H 387.966 -2.38863 0.964479 0
M  V30 4195 H 387.924 -3.08242 -0.619192 0
M  V30 4196 N 391.696 -1.35014 -0.812953 0
M  V30 4197 C 392.924 -1.31031 -1.6012 0
M  V30 4198 C 393.339 0.113558 -1.88458 0
M  V30 4199 O 392.696 1.06363 -1.48301 0
M  V30 4200 C 392.747 -2.10872 -2.93624 0
M  V30 4201 O 392.468 -3.47706 -2.66518 0
M  V30 4202 C 393.969 -2.14401 -3.88004 0
M  V30 4203 H 391.189 -0.45037 -0.497401 0
M  V30 4204 H 393.733 -1.77775 -1.01076 0
M  V30 4205 H 391.888 -1.67744 -3.492 0
M  V30 4206 H 392.302 -3.89097 -3.51715 0
M  V30 4207 H 393.776 -2.74669 -4.78812 0
M  V30 4208 H 394.253 -1.14105 -4.24119 0
M  V30 4209 H 394.859 -2.57662 -3.38364 0
M  V30 4210 N 393.175 1.03435 -1.18907 0
M  V30 4211 C 394.4 1.80919 -1.01406 0
M  V30 4212 C 394.825 1.83055 0.432721 0
M  V30 4213 O 394.183 1.25252 1.31079 0
M  V30 4214 C 394.231 3.24091 -1.58105 0
M  V30 4215 O 393.335 4.04434 -0.806669 0
M  V30 4216 H 392.676 0.558709 -0.358803 0
M  V30 4217 H 395.206 1.30223 -1.57807 0
M  V30 4218 H 395.216 3.74853 -1.61087 0
M  V30 4219 H 393.891 3.21851 -2.6341 0
M  V30 4220 H 392.468 3.63091 -0.849666 0
M  V30 4221 N 394.653 0.992116 1.22453 0
M  V30 4222 C 396.064 0.702776 1.72968 0
M  V30 4223 C 396.415 -0.780399 1.80012 0
M  V30 4224 O 395.54 -1.61007 1.44589 0
M  V30 4225 C 396.135 1.26903 3.14135 0
M  V30 4226 C 394.694 1.02909 3.62059 0
M  V30 4227 C 393.841 1.38969 2.39964 0
M  V30 4228 H 396.792 1.16457 1.07812 0
M  V30 4229 H 396.813 0.647223 3.74955 0
M  V30 4230 H 396.325 2.34851 3.08977 0
M  V30 4231 H 394.426 -0.0337979 3.72585 0
M  V30 4232 H 394.539 1.69191 4.48231 0
M  V30 4233 H 392.903 0.808279 2.41535 0
M  V30 4234 H 393.686 2.4792 2.37467 0
M  V30 4235 N 396.131 -1.37776 0.765217 0
M  V30 4236 C 397.378 -1.99849 0.326588 0
M  V30 4237 C 397.706 -1.60746 -1.09504 0
M  V30 4238 O 396.961 -0.84202 -1.76659 0
M  V30 4239 C 397.26 -3.5504 0.410053 0
M  V30 4240 C 396.926 -4.13891 1.78899 0
M  V30 4241 C 395.588 -4.29678 2.16635 0
M  V30 4242 C 397.94 -4.46236 2.69301 0
M  V30 4243 C 395.268 -4.7511 3.44221 0
M  V30 4244 C 397.62 -4.93089 3.9629 0
M  V30 4245 C 396.284 -5.07082 4.34078 0
M  V30 4246 H 395.554 -0.7313 0.119507 0
M  V30 4247 H 398.201 -1.64645 0.977968 0
M  V30 4248 H 396.506 -3.90451 -0.324878 0
M  V30 4249 H 398.203 -4.00966 0.0520699 0
M  V30 4250 H 394.793 -4.02026 1.48569 0
M  V30 4251 H 398.977 -4.3363 2.41409 0
M  V30 4252 H 394.233 -4.84129 3.73402 0
M  V30 4253 H 398.407 -5.17084 4.66472 0
M  V30 4254 H 396.034 -5.42046 5.33001 0
M  V30 4255 N 397.609 -0.515225 -1.4894 0
M  V30 4256 C 398.557 0.269115 -2.31038 0
M  V30 4257 C 399.551 0.949443 -1.40292 0
M  V30 4258 O 400.757 0.87551 -1.57273 0
M  V30 4259 H 397.132 0.10565 -0.744542 0
M  V30 4260 H 399.103 -0.443096 -2.95092 0
M  V30 4261 C 397.852 1.31213 -3.21991 0
M  V30 4262 H 397.175 0.798034 -3.91754 0
M  V30 4263 H 398.615 1.83263 -3.82349 0
M  V30 4264 C 397.074 2.33791 -2.42576 0
M  V30 4265 O 397.604 3.3995 -2.14003 0
M  V30 4266 N 395.81 2.06625 -2.0434 0
M  V30 4267 H 395.357 1.20314 -2.27777 0
M  V30 4268 H 395.315 2.75483 -1.51514 0
M  V30 4269 N 399.087 1.5561 -0.249682 0
M  V30 4270 C 400.312 2.03865 0.381305 0
M  V30 4271 C 400.737 1.12769 1.50548 0
M  V30 4272 O 400.095 0.121189 1.80895 0
M  V30 4273 C 400.143 3.50101 0.863816 0
M  V30 4274 O 399.247 3.62132 1.97318 0
M  V30 4275 H 398.588 0.658827 0.0827194 0
M  V30 4276 H 401.118 2.01105 -0.376552 0
M  V30 4277 H 401.128 3.90975 1.1663 0
M  V30 4278 H 399.803 4.1588 0.0411816 0
M  V30 4279 H 398.38 3.33155 1.67517 0
M  V30 4280 O 400.604 0.114399 1.61094 0
M  V30 4281 H 401.295 -0.485048 1.87529 0
M  V30 END ATOM
M  V30 BEGIN BOND
M  V30 END BOND
M  V30 END CTAB
M  END
$$$$
