drugbank_target|P76045 Outer membrane protein G (DB04147; DB04233)
 OpenBabel12092120443D

  0  0  0     0  0            999 V3000
M  V30 BEGIN CTAB
M  V30 COUNTS 4698 4773 0 0 0
M  V30 BEGIN ATOM
M  V30 1 H -0.908 1.98254 -0.117106 0
M  V30 2 N 0 1.576 0 0
M  V30 3 C 0.933 2.03868 1.02534 0
M  V30 4 C 1.911 0.928543 1.3348 0
M  V30 5 O 3.095 1.19667 1.45644 0
M  V30 6 C 0.222 2.43627 2.35294 0
M  V30 7 C -0.732 3.65373 2.2001 0
M  V30 8 S 0.101 5.13292 1.52614 0
M  V30 9 C 1.257 5.56322 2.86805 0
M  V30 10 H 1.49 2.90518 0.631377 0
M  V30 11 H -0.977 1.52953 0.210867 0
M  V30 12 H 0.981 2.67203 3.11629 0
M  V30 13 H -0.358 1.57376 2.7183 0
M  V30 14 H -1.165 3.90944 3.18086 0
M  V30 15 H -1.563 3.418 1.51819 0
M  V30 16 H 0.729 5.58782 3.83104 0
M  V30 17 H 1.672 6.56266 2.65933 0
M  V30 18 H 2.08 4.83886 2.90714 0
M  V30 19 N 1.4781 -0.272755 1.55222 0
M  V30 20 C 2.4251 -1.33716 1.88119 0
M  V30 21 C 3.3951 -1.49066 0.73271 0
M  V30 22 O 4.5801 -1.63469 0.984002 0
M  V30 23 C 1.7201 -2.69238 2.15882 0
M  V30 24 C 0.8331 -2.62108 3.43399 0
M  V30 25 C -0.0319 -3.89811 3.60861 0
M  V30 26 C -0.9929 -3.77193 4.8207 0
M  V30 27 N -1.8559 -4.9673 4.96189 0
M  V30 28 H 2.9841 -1.04962 2.78903 0
M  V30 29 H 0.5211 -0.507088 1.38083 0
M  V30 30 H 2.4791 -3.48089 2.29978 0
M  V30 31 H 1.1091 -2.96194 1.28331 0
M  V30 32 H 0.1611 -1.74967 3.37773 0
M  V30 33 H 1.4731 -2.48685 4.32386 0
M  V30 34 H 0.6271 -4.77103 3.74777 0
M  V30 35 H -0.6339 -4.06102 2.7006 0
M  V30 36 H -1.6289 -2.88284 4.68159 0
M  V30 37 H -0.4039 -3.62421 5.74307 0
M  V30 38 H -2.4579 -5.13431 4.08319 0
M  V30 39 H -2.5409 -4.85839 5.79221 0
M  V30 40 H -1.2729 -5.85594 5.1449 0
M  V30 41 N 2.9562 -1.48159 -0.537278 0
M  V30 42 C 3.9032 -1.62138 -1.64256 0
M  V30 43 C 4.8732 -0.463668 -1.59497 0
M  V30 44 O 6.0582 -0.686241 -1.78032 0
M  V30 45 C 3.1982 -1.66028 -3.02537 0
M  V30 46 C 2.3112 -2.92855 -3.17585 0
M  V30 47 C 1.4462 -2.87952 -4.46382 0
M  V30 48 C 0.4852 -4.09516 -4.54932 0
M  V30 49 N -0.3778 -4.02733 -5.75109 0
M  V30 50 H 4.4622 -2.56529 -1.51647 0
M  V30 51 H 1.9992 -1.27224 -0.738414 0
M  V30 52 H 3.9572 -1.66265 -3.82638 0
M  V30 53 H 2.5872 -0.751331 -3.13934 0
M  V30 54 H 1.6392 -3.02395 -2.30784 0
M  V30 55 H 2.9512 -3.82822 -3.19764 0
M  V30 56 H 2.1052 -2.8655 -5.34765 0
M  V30 57 H 0.8442 -1.95702 -4.46712 0
M  V30 58 H -0.1508 -4.11201 -3.64957 0
M  V30 59 H 1.0742 -5.02917 -4.56346 0
M  V30 60 H -0.9798 -3.13299 -5.76351 0
M  V30 61 H -1.0628 -4.86397 -5.78752 0
M  V30 62 H 0.2052 -4.05379 -6.65799 0
M  V30 63 N 4.4343 0.785586 -1.36625 0
M  V30 64 C 5.3643 1.91259 -1.33949 0
M  V30 65 C 6.3453 1.68795 -0.210325 0
M  V30 66 O 7.5303 1.89854 -0.408561 0
M  V30 67 C 4.6603 3.28339 -1.13186 0
M  V30 68 C 3.6143 3.65335 -2.22967 0
M  V30 69 C 2.9403 5.00806 -1.87342 0
M  V30 70 C 4.2403 3.7352 -3.65075 0
M  V30 71 H 5.9343 1.93755 -2.28253 0
M  V30 72 H 3.4803 0.930788 -1.09874 0
M  V30 73 H 5.4333 4.06804 -1.09948 0
M  V30 74 H 4.1573 3.2624 -0.153332 0
M  V30 75 H 2.8163 2.89169 -2.25337 0
M  V30 76 H 2.4643 4.95233 -0.880545 0
M  V30 77 H 2.1643 5.26529 -2.60846 0
M  V30 78 H 3.6883 5.81687 -1.85667 0
M  V30 79 H 5.1023 4.42168 -3.64911 0
M  V30 80 H 3.4993 4.10731 -4.37516 0
M  V30 81 H 4.5693 2.74527 -3.99703 0
M  V30 82 N 5.9124 1.20967 1.01018 0
M  V30 83 C 6.8424 0.988272 2.11555 0
M  V30 84 C 7.8234 -0.0849778 1.69888 0
M  V30 85 O 9.0084 0.0738202 1.9406 0
M  V30 86 C 6.1384 0.546528 3.42973 0
M  V30 87 C 5.0924 1.56375 3.9841 0
M  V30 88 C 4.4184 0.97842 5.25672 0
M  V30 89 C 5.7184 2.94922 4.31066 0
M  V30 90 H 7.4124 1.91276 2.30334 0
M  V30 91 H 4.9584 0.921073 1.1069 0
M  V30 92 H 6.9114 0.378839 4.19694 0
M  V30 93 H 5.6354 -0.413598 3.23971 0
M  V30 94 H 4.2944 1.71891 3.23804 0
M  V30 95 H 3.9424 0.0101688 5.02999 0
M  V30 96 H 3.6424 1.65784 5.63728 0
M  V30 97 H 5.1664 0.821939 6.05043 0
M  V30 98 H 6.5804 2.8288 4.9865 0
M  V30 99 H 4.9774 3.5983 4.80253 0
M  V30 100 H 6.0474 3.4616 3.39561 0
M  V30 101 N 7.3905 -1.2043 1.01659 0
M  V30 102 C 8.8015 -1.71517 0.737482 0
M  V30 103 C 9.1525 -1.81547 -0.743973 0
M  V30 104 O 8.2775 -1.47803 -1.58061 0
M  V30 105 C 8.8725 -3.11515 1.33206 0
M  V30 106 C 7.4315 -3.59912 1.10183 0
M  V30 107 C 6.5785 -2.37116 1.43776 0
M  V30 108 H 9.5295 -1.05444 1.18606 0
M  V30 109 H 9.5505 -3.73575 0.722636 0
M  V30 110 H 9.0625 -3.04182 2.41028 0
M  V30 111 H 7.1635 -3.72577 0.0412756 0
M  V30 112 H 7.2765 -4.44731 1.78188 0
M  V30 113 H 5.6405 -2.39857 0.856778 0
M  V30 114 H 6.4235 -2.32424 2.52654 0
M  V30 115 N 8.8686 -0.792821 -1.36206 0
M  V30 116 C 10.1086 -0.372238 -2.00982 0
M  V30 117 C 10.4726 1.03749 -1.61555 0
M  V30 118 O 11.6736 1.55934 -2.18948 0
M  V30 119 C 9.9446 -0.534566 -3.5338 0
M  V30 120 S 11.5036 -0.202365 -4.38333 0
M  V30 121 H 8.3216 -0.142044 -0.696667 0
M  V30 122 H 10.9236 -1.03206 -1.66039 0
M  V30 123 H 9.6276 -1.5608 -3.79562 0
M  V30 124 H 9.1586 0.141065 -3.93147 0
M  V30 125 H 11.1736 0.994869 -4.86124 0
M  V30 126 N 10.3467 1.47872 -0.545128 0
M  V30 127 C 11.5747 2.06889 -0.021084 0
M  V30 128 C 11.9897 1.39955 1.2672 0
M  V30 129 O 11.3467 0.492036 1.75742 0
M  V30 130 C 11.3977 3.60996 0.190817 0
M  V30 131 O 11.1187 4.25419 -1.04644 0
M  V30 132 C 12.6197 4.36849 0.753521 0
M  V30 133 H 9.8397 0.669785 -0.0403635 0
M  V30 134 H 12.3837 1.90049 -0.755095 0
M  V30 135 H 10.5387 3.77391 0.87492 0
M  V30 136 H 10.9527 5.17785 -0.836611 0
M  V30 137 H 12.4267 5.45399 0.851139 0
M  V30 138 H 12.9037 4.02306 1.762 0
M  V30 139 H 13.5097 4.25169 0.105503 0
M  V30 140 N 11.8248 0.280983 1.55075 0
M  V30 141 C 12.7878 -0.590896 2.21452 0
M  V30 142 C 13.7878 -1.07682 1.19421 0
M  V30 143 O 14.9778 -0.97605 1.44288 0
M  V30 144 C 12.1098 -1.81587 2.88511 0
M  V30 145 H 13.3028 -0.0112554 2.99898 0
M  V30 146 H 10.8558 0.0316438 1.56268 0
M  V30 147 H 11.5908 -2.43587 2.14093 0
M  V30 148 H 11.3758 -1.4753 3.63287 0
M  V30 149 H 12.8658 -2.43575 3.39206 0
M  V30 150 N 13.3029 -1.57598 0.00835791 0
M  V30 151 C 14.2329 -2.1198 -0.979113 0
M  V30 152 C 15.2139 -1.03091 -1.35301 0
M  V30 153 O 16.3989 -1.30818 -1.43528 0
M  V30 154 C 13.5289 -2.62995 -2.26828 0
M  V30 155 C 12.4829 -3.76485 -2.03576 0
M  V30 156 C 11.8089 -4.13846 -3.38579 0
M  V30 157 C 13.1089 -5.0342 -1.39161 0
M  V30 158 H 14.8029 -2.94738 -0.526281 0
M  V30 159 H 12.3489 -1.41783 -0.251704 0
M  V30 160 H 14.3019 -2.99669 -2.96271 0
M  V30 161 H 13.0259 -1.7737 -2.7424 0
M  V30 162 H 11.6849 -3.40217 -1.36557 0
M  V30 163 H 11.3329 -3.25232 -3.83709 0
M  V30 164 H 11.0329 -4.90312 -3.23834 0
M  V30 165 H 12.5569 -4.53086 -4.09323 0
M  V30 166 H 13.9709 -5.37812 -1.98573 0
M  V30 167 H 12.3679 -5.84746 -1.34878 0
M  V30 168 H 13.4379 -4.83548 -0.361868 0
M  V30 169 N 14.781 0.264519 -1.55364 0
M  V30 170 C 16.027 0.99646 -1.76631 0
M  V30 171 C 16.36 1.85632 -0.570478 0
M  V30 172 O 15.635 1.89647 0.43175 0
M  V30 173 C 15.918 1.87187 -3.07625 0
M  V30 174 C 15.771 1.04138 -4.37579 0
M  V30 175 C 17.09 2.85749 -3.34717 0
M  V30 176 H 14.209 0.360841 -0.642622 0
M  V30 177 H 16.851 0.268218 -1.88097 0
M  V30 178 H 15.001 2.49279 -2.9798 0
M  V30 179 H 16.673 0.440517 -4.59192 0
M  V30 180 H 14.916 0.345115 -4.32425 0
M  V30 181 H 15.587 1.68729 -5.2558 0
M  V30 182 H 18.063 2.33793 -3.4421 0
M  V30 183 H 16.939 3.44136 -4.27623 0
M  V30 184 H 17.2 3.61311 -2.54768 0
M  V30 185 N 16.2591 1.48442 0.529413 0
M  V30 186 C 17.1921 1.57577 1.65059 0
M  V30 187 C 18.1701 0.426198 1.56915 0
M  V30 188 O 19.3541 0.637877 1.77379 0
M  V30 189 C 16.4811 1.5043 3.03461 0
M  V30 190 C 15.5271 2.70235 3.29962 0
M  V30 191 S 16.3601 4.32198 3.16172 0
M  V30 192 C 17.5161 4.2765 4.57019 0
M  V30 193 H 17.7491 2.52427 1.5706 0
M  V30 194 H 15.2821 1.36982 0.712417 0
M  V30 195 H 17.2401 1.46992 3.8328 0
M  V30 196 H 15.9011 0.569167 3.089 0
M  V30 197 H 15.0941 2.61374 4.30929 0
M  V30 198 H 14.6961 2.70938 2.57815 0
M  V30 199 H 16.9881 3.97618 5.48549 0
M  V30 200 H 17.9311 5.28797 4.70934 0
M  V30 201 H 18.3391 3.5811 4.36368 0
M  V30 202 N 17.7372 -0.778329 1.37039 0
M  V30 203 C 18.9772 -1.54973 1.33276 0
M  V30 204 C 19.3412 -1.91816 -0.0839376 0
M  V30 205 O 20.5422 -2.6767 -0.246228 0
M  V30 206 C 18.8132 -2.78517 2.23971 0
M  V30 207 S 20.3722 -3.6865 2.37997 0
M  V30 208 H 17.1902 -0.530639 0.473226 0
M  V30 209 H 19.7922 -0.915806 1.72723 0
M  V30 210 H 18.4962 -2.4952 3.25835 0
M  V30 211 H 18.0272 -3.46875 1.85584 0
M  V30 212 H 20.0422 -4.70182 1.58567 0
M  V30 213 N 19.2153 -1.21501 -1.00376 0
M  V30 214 C 20.1783 -0.976927 -2.07337 0
M  V30 215 C 21.1783 0.0525322 -1.60714 0
M  V30 216 O 22.3683 -0.184869 -1.73216 0
M  V30 217 C 19.5003 -0.473423 -3.37597 0
M  V30 218 H 20.6933 -1.92587 -2.29892 0
M  V30 219 H 18.2463 -1.03217 -1.17371 0
M  V30 220 H 18.9813 0.480379 -3.20722 0
M  V30 221 H 18.7663 -1.216 -3.72768 0
M  V30 222 H 20.2563 -0.32675 -4.1632 0
M  V30 223 N 20.6934 1.19889 -1.02296 0
M  V30 224 C 21.9414 1.89046 -0.714558 0
M  V30 225 C 22.2624 1.79636 0.758681 0
M  V30 226 O 21.5324 1.20292 1.54618 0
M  V30 227 H 20.1124 0.699802 -0.261317 0
M  V30 228 H 22.7744 1.45574 -1.29592 0
M  V30 229 H 21.8704 2.95524 -1.0036 0
M  V30 230 N 22.1715 0.800033 1.35784 0
M  V30 231 C 23.1045 0.151499 2.27697 0
M  V30 232 C 24.0825 -0.678663 1.4776 0
M  V30 233 O 25.2665 -0.647358 1.77035 0
M  V30 234 C 22.3935 -0.790492 3.29346 0
M  V30 235 C 21.4395 -0.0407832 4.26481 0
M  V30 236 S 22.2725 1.29077 5.19711 0
M  V30 237 C 23.4285 0.353055 6.24903 0
M  V30 238 H 23.6615 0.930796 2.82353 0
M  V30 239 H 21.1945 0.594767 1.42485 0
M  V30 240 H 23.1525 -1.3285 3.88409 0
M  V30 241 H 21.8135 -1.54312 2.73581 0
M  V30 242 H 21.0065 -0.755971 4.98298 0
M  V30 243 H 20.6085 0.427063 3.71554 0
M  V30 244 H 22.9005 -0.464147 6.75908 0
M  V30 245 H 23.8435 1.04023 7.00418 0
M  V30 246 H 24.2515 -0.0483344 5.64479 0
M  V30 247 N 23.6496 -1.47581 0.552962 0
M  V30 248 C 24.6126 -2.28439 -0.186605 0
M  V30 249 C 25.6126 -1.36706 -0.84665 0
M  V30 250 O 26.8026 -1.59378 -0.703164 0
M  V30 251 C 23.9346 -3.16264 -1.2724 0
M  V30 252 H 25.1276 -2.95294 0.523609 0
M  V30 253 H 22.6806 -1.532 0.309745 0
M  V30 254 H 23.4156 -2.54091 -2.01514 0
M  V30 255 H 23.2006 -3.83769 -0.803968 0
M  V30 256 H 24.6906 -3.77198 -1.79196 0
M  V30 257 N 25.1277 -0.289203 -1.54924 0
M  V30 258 C 26.3677 0.324536 -2.01807 0
M  V30 259 C 26.7317 1.5199 -1.17316 0
M  V30 260 O 27.9327 2.20422 -1.53843 0
M  V30 261 C 26.2037 0.683578 -3.50802 0
M  V30 262 S 27.7627 1.28185 -4.19659 0
M  V30 263 H 24.5807 0.100236 -0.703899 0
M  V30 264 H 27.1827 -0.414325 -1.91059 0
M  V30 265 H 25.8867 -0.195073 -4.09936 0
M  V30 266 H 25.4177 1.45354 -3.65562 0
M  V30 267 H 27.4327 2.57006 -4.24456 0
M  V30 268 N 26.6058 1.57591 -0.0167156 0
M  V30 269 C 27.5688 2.08393 0.954204 0
M  V30 270 C 28.5688 0.996531 1.26198 0
M  V30 271 O 29.7588 1.25858 1.20438 0
M  V30 272 C 26.8908 2.5394 2.27436 0
M  V30 273 H 28.0838 2.95455 0.514451 0
M  V30 274 H 25.6368 1.54582 0.231089 0
M  V30 275 H 26.3718 1.70171 2.76066 0
M  V30 276 H 26.1568 3.33371 2.06412 0
M  V30 277 H 27.6468 2.93512 2.97053 0
M  V30 278 N 28.0839 -0.256276 1.55502 0
M  V30 279 C 29.0159 -1.33981 1.85962 0
M  V30 280 C 30.0289 -1.44743 0.745212 0
M  V30 281 O 31.2179 -1.4626 1.02324 0
M  V30 282 C 28.3179 -2.7194 2.02242 0
M  V30 283 C 27.4909 -2.83562 3.33033 0
M  V30 284 C 26.5499 -4.02304 3.39172 0
M  V30 285 O 25.5759 -3.92273 4.12444 0
M  V30 286 N 26.7779 -5.15045 2.67784 0
M  V30 287 H 29.5429 -1.08191 2.7949 0
M  V30 288 H 27.1039 -0.446388 1.55624 0
M  V30 289 H 29.0959 -3.49697 2.03701 0
M  V30 290 H 27.6659 -2.90479 1.15502 0
M  V30 291 H 26.8859 -1.92555 3.43971 0
M  V30 292 H 28.1739 -2.88271 4.19258 0
M  V30 293 H 27.5719 -5.26085 2.07968 0
M  V30 294 H 26.1289 -5.90972 2.74947 0
M  V30 295 N 29.562 -1.4872 -0.521534 0
M  V30 296 C 30.525 -1.63379 -1.60748 0
M  V30 297 C 31.525 -0.50661 -1.52611 0
M  V30 298 O 32.715 -0.772601 -1.5613 0
M  V30 299 C 29.847 -1.61192 -3.00383 0
M  V30 300 H 31.04 -2.60217 -1.49087 0
M  V30 301 H 28.593 -1.37444 -0.744235 0
M  V30 302 H 29.328 -0.65863 -3.17541 0
M  V30 303 H 29.113 -2.43032 -3.07698 0
M  V30 304 H 30.603 -1.7466 -3.7932 0
M  V30 305 N 31.0401 0.771051 -1.3745 0
M  V30 306 C 31.9501 1.91538 -1.35464 0
M  V30 307 C 32.9661 1.72134 -0.254123 0
M  V30 308 O 34.1421 1.95358 -0.489626 0
M  V30 309 C 31.2071 3.26671 -1.16134 0
M  V30 310 C 30.2681 3.58723 -2.35831 0
M  V30 311 C 29.5011 4.87409 -2.17413 0
M  V30 312 O 29.7241 5.58506 -1.15876 0
M  V30 313 O 28.6581 5.18539 -3.05615 0
M  V30 314 H 32.4841 1.96165 -2.31847 0
M  V30 315 H 30.0691 0.9139 -1.18187 0
M  V30 316 H 31.9511 4.07499 -1.07345 0
M  V30 317 H 30.6261 3.22894 -0.228251 0
M  V30 318 H 29.5331 2.78127 -2.50192 0
M  V30 319 H 30.8661 3.67243 -3.27709 0
M  V30 320 N 32.5182 1.22032 0.997298 0
M  V30 321 C 33.4282 1.00271 2.12092 0
M  V30 322 C 34.4442 -0.047621 1.73935 0
M  V30 323 O 35.6202 0.144136 2.00884 0
M  V30 324 C 32.6852 0.578449 3.4184 0
M  V30 325 C 31.7462 1.70189 3.94125 0
M  V30 326 C 30.9792 1.29778 5.17681 0
M  V30 327 O 31.2022 0.174676 5.70132 0
M  V30 328 O 30.1362 2.11261 5.63607 0
M  V30 329 H 33.9622 1.94398 2.3333 0
M  V30 330 H 31.5472 1.00587 1.10465 0
M  V30 331 H 33.4292 0.351998 4.19927 0
M  V30 332 H 32.1042 -0.334019 3.21972 0
M  V30 333 H 31.0112 1.98282 3.1723 0
M  V30 334 H 32.3442 2.59206 4.18417 0
M  V30 335 N 33.9963 -1.19345 1.0293 0
M  V30 336 C 35.4123 -1.41069 0.746446 0
M  V30 337 C 35.6123 -1.90078 -0.668776 0
M  V30 338 O 34.6683 -2.0778 -1.4347 0
M  V30 339 C 35.9813 -2.42141 1.78292 0
M  V30 340 C 37.5293 -2.55887 1.80252 0
M  V30 341 C 38.0043 -3.60214 2.8286 0
M  V30 342 N 39.4953 -3.67711 2.81679 0
M  V30 343 C 40.2303 -4.48128 3.57727 0
M  V30 344 N 39.7263 -5.32248 4.43491 0
M  V30 345 N 41.5193 -4.42782 3.46267 0
M  V30 346 H 33.6703 -0.858536 1.94275 0
M  V30 347 H 35.9333 -0.439541 0.839945 0
M  V30 348 H 35.6393 -2.13155 2.79746 0
M  V30 349 H 35.5133 -3.41323 1.60557 0
M  V30 350 H 37.9003 -2.84196 0.794757 0
M  V30 351 H 37.9813 -1.56858 2.02062 0
M  V30 352 H 37.6253 -3.32647 3.83807 0
M  V30 353 H 37.5553 -4.58895 2.58307 0
M  V30 354 H 40.0463 -3.07634 2.19476 0
M  V30 355 H 40.3593 -5.90729 4.98256 0
M  V30 356 H 38.7043 -5.31707 4.47564 0
M  V30 357 H 41.8953 -3.76107 2.78677 0
M  V30 358 H 42.0683 -5.05215 4.05785 0
M  V30 359 N 35.4744 -0.807222 -1.35358 0
M  V30 360 C 36.4224 -0.20614 -2.31685 0
M  V30 361 C 37.4164 0.644445 -1.56663 0
M  V30 362 O 38.6224 0.537538 -1.71786 0
M  V30 363 H 34.9974 -0.0479006 -0.750473 0
M  V30 364 H 36.9684 -1.03369 -2.79924 0
M  V30 365 C 35.7174 0.630212 -3.41941 0
M  V30 366 H 35.0404 -0.0149558 -3.99797 0
M  V30 367 H 36.4804 1.01716 -4.11619 0
M  V30 368 C 34.9394 1.79601 -2.85035 0
M  V30 369 O 35.4694 2.89351 -2.78637 0
M  V30 370 N 33.6754 1.60774 -2.42074 0
M  V30 371 H 33.2224 0.715009 -2.47478 0
M  V30 372 H 33.1804 2.38933 -2.04349 0
M  V30 373 N 36.9525 1.47285 -0.560781 0
M  V30 374 C 38.2295 1.9558 0.0277798 0
M  V30 375 C 38.6095 1.5034 1.48192 0
M  V30 376 O 37.9575 0.743882 2.16052 0
M  V30 377 C 38.1675 3.48789 -0.121418 0
M  V30 378 C 39.5155 4.24594 0.0220912 0
M  V30 379 O 40.5395 3.56166 -0.0491439 0
M  V30 380 O 39.3985 5.46217 0.175958 0
M  V30 381 H 36.4925 0.824663 0.0621342 0
M  V30 382 H 39.0385 1.5767 -0.627556 0
M  V30 383 H 37.8105 3.74533 -1.13316 0
M  V30 384 H 37.4335 3.93473 0.571366 0
M  V30 385 N 38.4306 0.297415 1.54768 0
M  V30 386 C 39.6766 -0.306263 2.01081 0
M  V30 387 C 40.0316 -1.518 1.18214 0
M  V30 388 O 39.3246 -1.89967 0.249613 0
M  V30 389 C 39.5186 -0.717561 3.50123 0
M  V30 390 C 39.3476 0.45277 4.47415 0
M  V30 391 C 38.1176 0.943651 4.9641 0
M  V30 392 C 40.3156 1.29657 4.97688 0
M  V30 393 N 38.2976 2.08112 5.77549 0
M  V30 394 C 39.6686 2.28158 5.76493 0
M  V30 395 C 41.7236 1.32735 4.79881 0
M  V30 396 C 40.4266 3.29509 6.39387 0
M  V30 397 C 42.4526 2.32943 5.43591 0
M  V30 398 C 41.8146 3.30174 6.22225 0
M  V30 399 H 37.9136 -0.0766274 0.778237 0
M  V30 400 H 40.4976 0.426515 1.89971 0
M  V30 401 H 38.6686 -1.41952 3.6153 0
M  V30 402 H 40.4006 -1.30047 3.83236 0
M  V30 403 H 37.1556 0.51922 4.70745 0
M  V30 404 H 37.5796 2.65414 6.22803 0
M  V30 405 H 42.2216 0.589375 4.18672 0
M  V30 406 H 39.9396 4.04228 6.99732 0
M  V30 407 H 43.5256 2.36094 5.31743 0
M  V30 408 H 42.4056 4.06445 6.7065 0
M  V30 409 N 39.9087 -1.5758 0.0250728 0
M  V30 410 C 40.8587 -2.06468 -0.967201 0
M  V30 411 C 41.8427 -0.964376 -1.28797 0
M  V30 412 O 43.0347 -1.22797 -1.27475 0
M  V30 413 C 40.1637 -2.59203 -2.25097 0
M  V30 414 C 39.2497 -3.76157 -1.95874 0
M  V30 415 N 39.6407 -4.86919 -1.36905 0
M  V30 416 C 37.9387 -3.84566 -2.25887 0
M  V30 417 C 38.6397 -5.68172 -1.24724 0
M  V30 418 N 37.6157 -5.14953 -1.74138 0
M  V30 419 H 41.4177 -2.89508 -0.506176 0
M  V30 420 H 38.9317 -1.61399 -0.18004 0
M  V30 421 H 40.9287 -2.92517 -2.97052 0
M  V30 422 H 39.5887 -1.77592 -2.71829 0
M  V30 423 H 40.5997 -5.07256 -1.04459 0
M  V30 424 H 37.2767 -3.13854 -2.75321 0
M  V30 425 H 38.6667 -6.67221 -0.791605 0
M  V30 426 N 41.3868 0.248026 -1.55636 0
M  V30 427 C 42.6338 0.976224 -1.77415 0
M  V30 428 C 42.9618 1.85361 -0.589193 0
M  V30 429 O 42.2168 1.90973 0.427529 0
M  V30 430 C 42.5158 1.86819 -3.04686 0
M  V30 431 C 42.1818 1.14625 -4.36087 0
M  V30 432 C 40.8438 0.946723 -4.71795 0
M  V30 433 C 43.1958 0.634463 -5.17324 0
M  V30 434 C 40.5238 0.223091 -5.86276 0
M  V30 435 C 42.8758 -0.0756959 -6.32555 0
M  V30 436 C 41.5398 -0.286711 -6.66884 0
M  V30 437 H 40.8098 0.357226 -0.649208 0
M  V30 438 H 43.4568 0.246415 -1.89908 0
M  V30 439 H 41.7618 2.66502 -2.872 0
M  V30 440 H 43.4588 2.43329 -3.18735 0
M  V30 441 H 40.0488 1.3117 -4.08035 0
M  V30 442 H 44.2328 0.77616 -4.90193 0
M  V30 443 H 39.4888 0.0491185 -6.1138 0
M  V30 444 H 43.6628 -0.479899 -6.94745 0
M  V30 445 H 41.2898 -0.849389 -7.5544 0
M  V30 446 N 42.8649 1.48995 0.513639 0
M  V30 447 C 43.8129 1.65199 1.63744 0
M  V30 448 C 44.8069 0.51809 1.61283 0
M  V30 449 O 46.0129 0.697335 1.65943 0
M  V30 450 H 42.3879 0.52069 0.542574 0
M  V30 451 H 44.3589 2.59552 1.47226 0
M  V30 452 C 43.1079 1.72409 3.01945 0
M  V30 453 H 42.4309 2.59029 3.04539 0
M  V30 454 H 43.8709 1.87785 3.80148 0
M  V30 455 C 42.3299 0.46618 3.33659 0
M  V30 456 O 42.8599 -0.413744 3.99564 0
M  V30 457 N 41.0659 0.332931 2.88687 0
M  V30 458 H 40.6129 1.04996 2.35231 0
M  V30 459 H 40.5709 -0.507665 3.10274 0
M  V30 460 N 44.343 -0.763751 1.37857 0
M  V30 461 C 45.592 -1.51789 1.32827 0
M  V30 462 C 45.905 -1.95426 -0.0823719 0
M  V30 463 O 47.111 -2.70298 -0.255172 0
M  V30 464 C 45.567 -2.74133 2.33193 0
M  V30 465 C 45.175 -2.37562 3.79827 0
M  V30 466 C 46.919 -3.52054 2.37188 0
M  V30 467 C 44.826 -3.56456 4.71904 0
M  V30 468 H 43.756 -0.569896 0.493695 0
M  V30 469 H 46.407 -0.835822 1.63359 0
M  V30 470 H 44.789 -3.4427 1.9569 0
M  V30 471 H 45.963 -1.75157 4.26212 0
M  V30 472 H 44.278 -1.72798 3.78853 0
M  V30 473 H 46.875 -4.40437 3.03182 0
M  V30 474 H 47.218 -3.92486 1.38782 0
M  V30 475 H 47.751 -2.88921 2.7344 0
M  V30 476 H 44.49 -3.21099 5.71468 0
M  V30 477 H 44.01 -4.17938 4.30218 0
M  V30 478 H 45.689 -4.23168 4.89426 0
M  V30 479 N 45.8211 -1.22559 -0.990812 0
M  V30 480 C 47.0691 -1.04933 -1.72724 0
M  V30 481 C 47.3901 0.416158 -1.90508 0
M  V30 482 O 46.6601 1.29918 -1.46622 0
M  V30 483 H 45.2401 -0.385296 -0.639965 0
M  V30 484 H 47.9021 -1.54105 -1.19322 0
M  V30 485 H 46.9981 -1.52886 -2.72089 0
M  V30 486 N 47.2992 1.18797 -1.03562 0
M  V30 487 C 48.2622 2.20464 -0.626769 0
M  V30 488 C 49.2622 1.57721 0.313173 0
M  V30 489 O 50.4522 1.73917 0.0992615 0
M  V30 490 C 47.5842 3.40802 0.0818498 0
M  V30 491 H 48.7772 2.58149 -1.5264 0
M  V30 492 H 46.3302 1.32593 -0.827578 0
M  V30 493 H 47.0652 3.08642 0.995518 0
M  V30 494 H 46.8502 3.8758 -0.593652 0
M  V30 495 H 48.3402 4.16092 0.354584 0
M  V30 496 N 48.7773 0.814389 1.34928 0
M  V30 497 C 49.7103 0.175641 2.27523 0
M  V30 498 C 50.6883 -0.662953 1.48471 0
M  V30 499 O 51.8723 -0.628545 1.77712 0
M  V30 500 C 48.9993 -0.755516 3.30166 0
M  V30 501 C 48.0453 0.00445305 4.265 0
M  V30 502 S 48.8783 1.34582 5.18313 0
M  V30 503 C 50.0343 0.419315 6.24494 0
M  V30 504 H 50.2673 0.960691 2.8135 0
M  V30 505 H 47.8003 0.609846 1.41846 0
M  V30 506 H 49.7583 -1.28723 3.89796 0
M  V30 507 H 48.4193 -1.51402 2.75202 0
M  V30 508 H 47.6123 -0.703077 4.99072 0
M  V30 509 H 47.2143 0.466447 3.7108 0
M  V30 510 H 49.5063 -0.392432 6.76362 0
M  V30 511 H 50.4493 1.11446 6.99275 0
M  V30 512 H 50.8573 0.0115389 5.64499 0
M  V30 513 N 50.2554 -1.46986 0.568584 0
M  V30 514 C 51.4854 -2.0653 0.0539173 0
M  V30 515 C 51.8934 -1.42004 -1.25026 0
M  V30 516 O 51.2364 -0.514541 -1.76347 0
M  V30 517 C 51.2984 -3.58938 -0.200854 0
M  V30 518 C 50.9624 -4.45572 1.01559 0
M  V30 519 C 51.9594 -4.82986 1.92407 0
M  V30 520 C 49.6444 -4.8692 1.23346 0
M  V30 521 C 51.6384 -5.60559 3.03402 0
M  V30 522 C 49.3254 -5.64255 2.34649 0
M  V30 523 C 50.3234 -6.00986 3.24507 0
M  V30 524 O 50.0114 -6.76761 4.33878 0
M  V30 525 H 49.7434 -0.674292 0.0480234 0
M  V30 526 H 52.2974 -1.89812 0.784896 0
M  V30 527 H 50.5274 -3.73911 -0.986279 0
M  V30 528 H 52.2164 -4.0046 -0.662294 0
M  V30 529 H 52.9824 -4.51633 1.76785 0
M  V30 530 H 48.8614 -4.57789 0.543178 0
M  V30 531 H 52.4054 -5.89147 3.73565 0
M  V30 532 H 48.3024 -5.95021 2.5024 0
M  V30 533 H 49.0704 -6.95168 4.32068 0
M  V30 534 N 51.7335 -0.305618 -1.54608 0
M  V30 535 C 52.6435 0.57778 -2.27374 0
M  V30 536 C 53.6595 1.14451 -1.31061 0
M  V30 537 O 54.8355 1.16831 -1.6405 0
M  V30 538 C 51.9005 1.73123 -3.00382 0
M  V30 539 C 50.9615 1.19812 -4.12242 0
M  V30 540 C 50.1945 2.2966 -4.81759 0
M  V30 541 O 50.4175 3.49651 -4.50666 0
M  V30 542 O 49.3515 1.96091 -5.69062 0
M  V30 543 H 53.1775 -0.012624 -3.03697 0
M  V30 544 H 50.7625 -0.0719184 -1.49227 0
M  V30 545 H 52.6445 2.40315 -3.4616 0
M  V30 546 H 51.3195 2.30815 -2.26949 0
M  V30 547 H 50.2265 0.491798 -3.70853 0
M  V30 548 H 51.5595 0.666566 -4.87666 0
M  V30 549 N 53.2116 1.57565 -0.0334293 0
M  V30 550 C 54.4606 1.91155 0.643639 0
M  V30 551 C 54.7736 0.91192 1.73042 0
M  V30 552 O 55.9796 1.13923 2.46442 0
M  V30 553 C 54.4356 3.39443 1.1961 0
M  V30 554 C 54.0436 4.47774 0.142381 0
M  V30 555 C 55.7876 3.82094 1.84944 0
M  V30 556 C 53.6946 5.87162 0.706727 0
M  V30 557 H 52.6246 0.713368 0.244176 0
M  V30 558 H 55.2756 1.8323 -0.0994323 0
M  V30 559 H 53.6576 3.42313 1.99092 0
M  V30 560 H 54.8316 4.56469 -0.630296 0
M  V30 561 H 53.1466 4.14352 -0.412446 0
M  V30 562 H 55.7436 4.83591 2.2813 0
M  V30 563 H 56.0866 3.17386 2.69392 0
M  V30 564 H 56.6196 3.81665 1.12145 0
M  V30 565 H 53.3586 6.55424 -0.0997178 0
M  V30 566 H 52.8786 5.82064 1.44779 0
M  V30 567 H 54.5576 6.35866 1.19514 0
M  V30 568 N 54.6897 -0.239769 1.55765 0
M  V30 569 C 55.5997 -1.31831 1.94056 0
M  V30 570 C 56.6157 -1.52275 0.841925 0
M  V30 571 O 57.7917 -1.65759 1.14394 0
M  V30 572 C 54.8567 -2.65156 2.23368 0
M  V30 573 C 53.9177 -2.53173 3.46701 0
M  V30 574 C 53.1507 -3.8014 3.74606 0
M  V30 575 O 53.3737 -4.82343 3.04469 0
M  V30 576 O 52.3077 -3.78344 4.68123 0
M  V30 577 H 56.1337 -1.02347 2.85935 0
M  V30 578 H 53.7187 -0.441123 1.42739 0
M  V30 579 H 55.6007 -3.43929 2.43497 0
M  V30 580 H 54.2757 -2.94358 1.34666 0
M  V30 581 H 53.1827 -1.72662 3.31871 0
M  V30 582 H 54.5157 -2.28915 4.35728 0
M  V30 583 N 56.1678 -1.49265 -0.50573 0
M  V30 584 C 57.1158 -1.66065 -1.62866 0
M  V30 585 C 58.1098 -0.526636 -1.61006 0
M  V30 586 O 59.3158 -0.706126 -1.65571 0
M  V30 587 H 55.6908 -0.52356 -0.539805 0
M  V30 588 H 57.6618 -2.60329 -1.45848 0
M  V30 589 C 56.4108 -1.74008 -3.01026 0
M  V30 590 H 55.7338 -2.6064 -3.03161 0
M  V30 591 H 57.1738 -1.89798 -3.79147 0
M  V30 592 C 55.6328 -0.483868 -3.33407 0
M  V30 593 O 56.1628 0.392548 -3.99777 0
M  V30 594 N 54.3688 -0.348236 -2.88506 0
M  V30 595 H 53.9158 -1.06242 -2.34671 0
M  V30 596 H 53.8738 0.491204 -3.10539 0
M  V30 597 N 57.6459 0.756429 -1.3826 0
M  V30 598 C 58.8919 1.51772 -1.34511 0
M  V30 599 C 59.2249 1.94089 0.0656691 0
M  V30 600 O 58.4999 1.65221 1.02626 0
M  V30 601 C 58.7829 2.77226 -2.29821 0
M  V30 602 C 58.6359 2.41065 -3.79747 0
M  V30 603 C 59.9549 3.79236 -2.23312 0
M  V30 604 H 57.0739 0.550578 -0.489931 0
M  V30 605 H 59.7159 0.866607 -1.69086 0
M  V30 606 H 57.8659 3.32784 -2.00467 0
M  V30 607 H 59.5379 1.91303 -4.19763 0
M  V30 608 H 57.7809 1.7356 -3.97567 0
M  V30 609 H 58.4519 3.3081 -4.41892 0
M  V30 610 H 60.9279 3.3321 -2.49219 0
M  V30 611 H 59.8039 4.64714 -2.92116 0
M  V30 612 H 60.0649 4.24615 -1.23102 0
M  V30 613 N 59.124 1.23083 0.984299 0
M  V30 614 C 60.034 1.02515 2.11016 0
M  V30 615 C 61.05 -0.0291702 1.73976 0
M  V30 616 O 62.226 0.165434 2.00719 0
M  V30 617 C 59.291 0.614673 3.41208 0
M  V30 618 C 58.352 1.74359 3.92297 0
M  V30 619 C 57.585 1.35261 5.16275 0
M  V30 620 O 57.808 0.235136 5.69915 0
M  V30 621 O 56.742 2.17227 5.61334 0
M  V30 622 H 60.568 1.96862 2.31255 0
M  V30 623 H 58.153 1.01753 1.09392 0
M  V30 624 H 60.035 0.396518 4.1953 0
M  V30 625 H 58.71 -0.299851 3.22308 0
M  V30 626 H 57.617 2.01635 3.1511 0
M  V30 627 H 58.95 2.63629 4.15645 0
M  V30 628 N 60.6021 -1.18246 1.0419 0
M  V30 629 C 61.8501 -1.87886 0.744543 0
M  V30 630 C 62.1711 -1.8082 -0.730006 0
M  V30 631 O 61.4411 -1.22736 -1.52685 0
M  V30 632 H 60.0211 -0.695556 0.272417 0
M  V30 633 H 62.6831 -1.43494 1.31892 0
M  V30 634 H 61.7791 -2.9389 1.05049 0
M  V30 635 N 62.0802 -0.821533 -1.34494 0
M  V30 636 C 63.3102 -0.421272 -2.02259 0
M  V30 637 C 63.7182 0.977047 -1.6202 0
M  V30 638 O 63.0612 1.64348 -0.820703 0
M  V30 639 C 63.1232 -0.44231 -3.56769 0
M  V30 640 C 62.7872 -1.79372 -4.20327 0
M  V30 641 C 63.7842 -2.75435 -4.40944 0
M  V30 642 C 61.4692 -2.08182 -4.57127 0
M  V30 643 C 63.4632 -3.98482 -4.97484 0
M  V30 644 C 61.1502 -3.31489 -5.13379 0
M  V30 645 C 62.1482 -4.26457 -5.33501 0
M  V30 646 O 61.8362 -5.47585 -5.88562 0
M  V30 647 H 61.5682 -0.167473 -0.654927 0
M  V30 648 H 64.1222 -1.11073 -1.72777 0
M  V30 649 H 62.3522 0.303836 -3.85505 0
M  V30 650 H 64.0412 -0.0622925 -4.05852 0
M  V30 651 H 64.8072 -2.54473 -4.12878 0
M  V30 652 H 60.6862 -1.35066 -4.4077 0
M  V30 653 H 64.2302 -4.72618 -5.13106 0
M  V30 654 H 60.1272 -3.52316 -5.40873 0
M  V30 655 H 60.8952 -5.49086 -6.06998 0
M  V30 656 N 63.5583 1.46682 -0.576371 0
M  V30 657 C 64.8063 2.02013 -0.0594163 0
M  V30 658 C 65.1273 1.45101 1.30271 0
M  V30 659 O 64.3973 0.633317 1.8538 0
M  V30 660 H 62.9773 0.746759 -0.0189745 0
M  V30 661 H 65.6393 1.79862 -0.750717 0
M  V30 662 H 64.7353 3.12097 0.014345 0
M  V30 663 N 65.0364 0.313813 1.54444 0
M  V30 664 C 65.9464 -0.565714 2.27677 0
M  V30 665 C 66.9624 -1.13754 1.31666 0
M  V30 666 O 68.1384 -1.15959 1.64668 0
M  V30 667 C 65.2034 -1.71528 3.01296 0
M  V30 668 C 64.2644 -1.17624 4.12872 0
M  V30 669 C 63.4974 -2.27102 4.8297 0
M  V30 670 O 63.7204 -3.47256 4.52514 0
M  V30 671 O 62.6544 -1.9307 5.70094 0
M  V30 672 H 66.4804 0.0287296 3.03686 0
M  V30 673 H 64.0654 0.0798312 1.49187 0
M  V30 674 H 65.9474 -2.38476 3.4743 0
M  V30 675 H 64.6224 -2.29608 2.2817 0
M  V30 676 H 63.5294 -0.472124 3.71109 0
M  V30 677 H 64.8624 -0.640695 4.88012 0
M  V30 678 N 66.5145 -1.57545 0.0417849 0
M  V30 679 C 67.7915 -1.83642 -0.673433 0
M  V30 680 C 68.1715 -0.928298 -1.89594 0
M  V30 681 O 67.5195 0.0129955 -2.28496 0
M  V30 682 C 67.7295 -3.33155 -1.03964 0
M  V30 683 C 69.0775 -3.99941 -1.42592 0
M  V30 684 O 70.1015 -3.37725 -1.13226 0
M  V30 685 O 68.9605 -5.09619 -1.9736 0
M  V30 686 H 66.0545 -0.757638 -0.331533 0
M  V30 687 H 68.6005 -1.69554 0.070433 0
M  V30 688 H 67.3725 -3.9093 -0.170098 0
M  V30 689 H 66.9955 -3.52396 -1.84126 0
M  V30 690 N 67.9926 0.231505 -1.5589 0
M  V30 691 C 68.9256 1.31369 -1.86595 0
M  V30 692 C 69.9036 1.45671 -0.722397 0
M  V30 693 O 71.0876 1.61642 -0.969743 0
M  V30 694 C 68.2146 2.68529 -2.06421 0
M  V30 695 C 67.2606 2.71295 -3.29092 0
M  V30 696 S 68.0936 2.26358 -4.85306 0
M  V30 697 C 69.2496 3.65414 -5.08157 0
M  V30 698 H 69.4826 1.05128 -2.78092 0
M  V30 699 H 67.0156 0.433259 -1.48197 0
M  V30 700 H 68.9736 3.47499 -2.18528 0
M  V30 701 H 67.6346 2.91999 -1.15738 0
M  V30 702 H 66.8276 3.72063 -3.39978 0
M  V30 703 H 66.4296 2.0038 -3.15791 0
M  V30 704 H 68.7216 4.6103 -4.96445 0
M  V30 705 H 69.6646 3.5945 -6.10083 0
M  V30 706 H 70.0726 3.5864 -4.35933 0
M  V30 707 N 69.4707 1.49531 0.497807 0
M  V30 708 C 70.7477 1.49682 1.25915 0
M  V30 709 C 71.1277 0.226339 2.09883 0
M  V30 710 O 70.4757 -0.791189 2.14365 0
M  V30 711 C 70.6857 2.77755 2.11313 0
M  V30 712 C 72.0337 3.27371 2.70395 0
M  V30 713 O 73.0577 2.78894 2.21578 0
M  V30 714 O 71.9167 4.11808 3.59272 0
M  V30 715 H 69.0107 0.599228 0.56996 0
M  V30 716 H 71.5567 1.61798 0.511816 0
M  V30 717 H 70.3287 3.61713 1.49264 0
M  V30 718 H 69.9517 2.68515 2.93233 0
M  V30 719 N 70.9488 -0.749086 1.3866 0
M  V30 720 C 72.1968 -1.50535 1.34847 0
M  V30 721 C 72.5178 -1.94909 -0.0595016 0
M  V30 722 O 71.7878 -1.67973 -1.00806 0
M  V30 723 H 70.3678 -0.558395 0.49619 0
M  V30 724 H 73.0298 -0.890165 1.73384 0
M  V30 725 H 72.1258 -2.39413 2.00219 0
M  V30 726 N 72.4269 -1.23603 -0.977757 0
M  V30 727 C 73.3569 -1.04401 -2.0886 0
M  V30 728 C 74.3379 0.0399052 -1.70053 0
M  V30 729 O 75.5229 -0.125246 -1.93796 0
M  V30 730 C 72.6529 -0.637269 -3.41403 0
M  V30 731 C 71.6069 -1.66883 -3.94124 0
M  V30 732 C 70.9329 -1.11745 -5.22893 0
M  V30 733 C 72.2329 -3.06247 -4.23096 0
M  V30 734 H 73.9269 -1.97316 -2.25182 0
M  V30 735 H 71.4729 -0.950096 -1.08209 0
M  V30 736 H 73.4259 -0.48998 -4.18542 0
M  V30 737 H 72.1499 0.327557 -3.24953 0
M  V30 738 H 70.8089 -1.80416 -3.19133 0
M  V30 739 H 70.4569 -0.143527 -5.02795 0
M  V30 740 H 70.1569 -1.80672 -5.59134 0
M  V30 741 H 71.6809 -0.982067 -6.02651 0
M  V30 742 H 73.0949 -2.96001 -4.90975 0
M  V30 743 H 71.4919 -3.72436 -4.70544 0
M  V30 744 H 72.5619 -3.55041 -3.30263 0
M  V30 745 N 73.905 1.17692 -1.04816 0
M  V30 746 C 74.868 2.19787 -0.650117 0
M  V30 747 C 75.868 1.58044 0.296427 0
M  V30 748 O 77.058 1.74012 0.0808097 0
M  V30 749 C 74.19 3.40869 0.0456987 0
M  V30 750 H 75.383 2.56516 -1.5537 0
M  V30 751 H 72.936 1.31708 -0.841594 0
M  V30 752 H 73.671 3.09681 0.962726 0
M  V30 753 H 73.456 3.86928 -0.634727 0
M  V30 754 H 74.946 4.16445 0.310432 0
M  V30 755 N 75.3831 0.828654 1.34056 0
M  V30 756 C 76.2931 0.256725 2.33191 0
M  V30 757 C 77.3091 -0.611898 1.62886 0
M  V30 758 O 78.4851 -0.51844 1.94613 0
M  V30 759 C 75.5501 -0.567238 3.42028 0
M  V30 760 C 74.6111 0.324458 4.28072 0
M  V30 761 C 73.8441 -0.460274 5.31712 0
M  V30 762 O 74.0671 -1.693 5.44696 0
M  V30 763 O 73.0011 0.160391 6.01686 0
M  V30 764 H 76.8271 1.07739 2.83947 0
M  V30 765 H 74.4121 0.59093 1.37217 0
M  V30 766 H 76.2941 -1.03582 4.08471 0
M  V30 767 H 74.9691 -1.36513 2.93506 0
M  V30 768 H 73.8761 0.840659 3.64532 0
M  V30 769 H 75.2091 1.08685 4.8005 0
M  V30 770 N 76.8612 -1.46375 0.584142 0
M  V30 771 C 78.2722 -1.86031 0.157959 0
M  V30 772 C 78.6232 -1.48753 -1.27933 0
M  V30 773 O 77.7482 -0.903098 -1.96655 0
M  V30 774 C 78.3432 -3.37642 0.279892 0
M  V30 775 C 76.9022 -3.76289 -0.09143 0
M  V30 776 C 76.0492 -2.7039 0.615178 0
M  V30 777 H 79.0002 -1.37509 0.792274 0
M  V30 778 H 79.0212 -3.77275 -0.494364 0
M  V30 779 H 78.5332 -3.64742 1.32607 0
M  V30 780 H 76.6342 -3.54806 -1.13769 0
M  V30 781 H 76.7472 -4.78246 0.285886 0
M  V30 782 H 75.1112 -2.5464 0.0552833 0
M  V30 783 H 75.8942 -3.0033 1.66303 0
M  V30 784 N 78.3393 -0.321999 -1.54275 0
M  V30 785 C 79.5643 0.285791 -2.05422 0
M  V30 786 C 79.9893 1.45124 -1.19669 0
M  V30 787 O 79.3473 1.80132 -0.205441 0
M  V30 788 C 79.3953 0.69956 -3.53749 0
M  V30 789 O 78.4993 1.8021 -3.70942 0
M  V30 790 H 77.8403 0.0518962 -0.661969 0
M  V30 791 H 80.3703 -0.469954 -1.9913 0
M  V30 792 H 80.3803 0.982649 -3.9599 0
M  V30 793 H 79.0553 -0.152864 -4.15619 0
M  V30 794 H 77.6323 1.51794 -3.40607 0
M  V30 795 N 79.8174 1.5752 -0.0501392 0
M  V30 796 C 81.0634 1.92936 0.624798 0
M  V30 797 C 81.3964 0.928685 1.70555 0
M  V30 798 O 80.6714 -0.0454779 1.94447 0
M  V30 799 C 80.9544 3.38737 1.22185 0
M  V30 800 C 80.8074 4.49552 0.149218 0
M  V30 801 C 82.1264 3.84913 2.13378 0
M  V30 802 H 79.2454 0.701604 0.225657 0
M  V30 803 H 81.8874 1.89671 -0.111693 0
M  V30 804 H 80.0374 3.4165 1.84953 0
M  V30 805 H 81.7094 4.58768 -0.482648 0
M  V30 806 H 79.9524 4.30638 -0.522841 0
M  V30 807 H 80.6234 5.48653 0.606966 0
M  V30 808 H 83.0994 3.8387 1.60572 0
M  V30 809 H 81.9754 4.87584 2.52097 0
M  V30 810 H 82.2364 3.21611 3.03346 0
M  V30 811 N 81.2955 -0.223234 1.56011 0
M  V30 812 C 82.5255 -0.963413 1.82762 0
M  V30 813 C 82.9335 -1.78516 0.626804 0
M  V30 814 O 82.2765 -1.78974 -0.414014 0
M  V30 815 C 82.3385 -1.93126 3.0322 0
M  V30 816 C 82.0025 -1.2942 4.38291 0
M  V30 817 C 82.9995 -0.684916 5.15369 0
M  V30 818 C 80.6845 -1.30647 4.85012 0
M  V30 819 C 82.6785 -0.0963971 6.37327 0
M  V30 820 C 80.3655 -0.71411 6.06913 0
M  V30 821 C 81.3635 -0.110123 6.82911 0
M  V30 822 O 81.0515 0.47303 8.02507 0
M  V30 823 H 80.7835 -0.288011 0.611576 0
M  V30 824 H 83.3375 -0.244103 2.03944 0
M  V30 825 H 81.5675 -2.68952 2.77852 0
M  V30 826 H 83.2565 -2.53685 3.16857 0
M  V30 827 H 84.0225 -0.667774 4.80381 0
M  V30 828 H 79.9015 -1.76598 4.25833 0
M  V30 829 H 83.4455 0.375657 6.96588 0
M  V30 830 H 79.3425 -0.728659 6.41374 0
M  V30 831 H 80.1105 0.367186 8.17676 0
M  V30 832 N 82.7736 -1.49793 -0.48987 0
M  V30 833 C 84.0206 -1.59841 -1.24327 0
M  V30 834 C 84.3486 -0.290135 -1.92324 0
M  V30 835 O 83.6036 0.722749 -1.81865 0
M  V30 836 C 83.9026 -2.71488 -2.32441 0
M  V30 837 C 83.5686 -4.12614 -1.81826 0
M  V30 838 C 82.2306 -4.51017 -1.67742 0
M  V30 839 C 84.5826 -5.00892 -1.4407 0
M  V30 840 C 81.9106 -5.75459 -1.14297 0
M  V30 841 C 84.2626 -6.25863 -0.920742 0
M  V30 842 C 82.9266 -6.63086 -0.766383 0
M  V30 843 H 82.1966 -0.584899 -0.454944 0
M  V30 844 H 84.8436 -1.83663 -0.542215 0
M  V30 845 H 83.1486 -2.4168 -3.0838 0
M  V30 846 H 84.8456 -2.76469 -2.90458 0
M  V30 847 H 81.4356 -3.82307 -1.93751 0
M  V30 848 H 85.6196 -4.7187 -1.53794 0
M  V30 849 H 80.8756 -6.02989 -1.01068 0
M  V30 850 H 85.0496 -6.9364 -0.619448 0
M  V30 851 H 82.6766 -7.59393 -0.350083 0
M  V30 852 N 84.2517 0.741722 -1.39055 0
M  V30 853 C 85.1997 1.87702 -1.3737 0
M  V30 854 C 86.1937 1.67427 -0.257812 0
M  V30 855 O 87.3997 1.7485 -0.427489 0
M  V30 856 H 83.7747 0.617757 -0.428812 0
M  V30 857 H 85.7457 1.86239 -2.33147 0
M  V30 858 C 84.4947 3.25315 -1.22741 0
M  V30 859 H 83.8177 3.41509 -2.07873 0
M  V30 860 H 85.2577 4.04964 -1.25618 0
M  V30 861 C 83.7167 3.36838 0.0647316 0
M  V30 862 O 84.2467 3.88073 1.03741 0
M  V30 863 N 82.4527 2.90329 0.125544 0
M  V30 864 H 81.9997 2.48823 -0.666682 0
M  V30 865 H 81.9577 2.98418 0.989639 0
M  V30 866 N 85.7298 1.2412 0.971189 0
M  V30 867 C 86.6928 1.03156 2.04674 0
M  V30 868 C 87.6928 -0.00990322 1.60797 0
M  V30 869 O 88.8828 0.230729 1.72665 0
M  V30 870 C 86.0148 0.562765 3.36223 0
M  V30 871 H 87.2078 1.98614 2.24705 0
M  V30 872 H 84.7608 1.06293 1.14593 0
M  V30 873 H 85.4958 -0.395176 3.21883 0
M  V30 874 H 85.2808 1.31441 3.69413 0
M  V30 875 H 86.7708 0.437015 4.15307 0
M  V30 876 N 87.2079 -1.17134 1.05439 0
M  V30 877 C 88.1709 -2.19439 0.661764 0
M  V30 878 C 89.1709 -1.58199 -0.288042 0
M  V30 879 O 90.3609 -1.74053 -0.0715803 0
M  V30 880 C 87.4929 -3.40889 -0.0276209 0
M  V30 881 H 88.6859 -2.55688 1.56728 0
M  V30 882 H 86.2389 -1.31259 0.848567 0
M  V30 883 H 86.9739 -3.10187 -0.94629 0
M  V30 884 H 86.7589 -3.86586 0.655238 0
M  V30 885 H 88.2489 -4.16603 -0.288342 0
M  V30 886 N 88.686 -0.835752 -1.33615 0
M  V30 887 C 89.634 -0.255238 -2.31195 0
M  V30 888 C 90.628 0.61107 -1.57995 0
M  V30 889 O 91.834 0.500979 -1.72888 0
M  V30 890 H 88.209 -0.0638085 -0.749288 0
M  V30 891 H 90.18 -1.09283 -2.77669 0
M  V30 892 C 88.929 0.55754 -3.43201 0
M  V30 893 H 88.252 -0.0997553 -3.99676 0
M  V30 894 H 89.692 0.929622 -4.13683 0
M  V30 895 C 88.151 1.73515 -2.88781 0
M  V30 896 O 88.681 2.83376 -2.84712 0
M  V30 897 N 86.887 1.55603 -2.4543 0
M  V30 898 H 86.434 0.662354 -2.48939 0
M  V30 899 H 86.392 2.34545 -2.09371 0
M  V30 900 N 90.1641 1.46063 -0.591896 0
M  V30 901 C 91.4121 2.01938 -0.0808391 0
M  V30 902 C 91.7331 1.46475 1.28725 0
M  V30 903 O 91.0031 0.652944 1.84698 0
M  V30 904 H 89.5831 0.746516 -0.0268938 0
M  V30 905 H 92.2451 1.79055 -0.769752 0
M  V30 906 H 91.3411 3.12094 -0.0187578 0
M  V30 907 N 91.6422 0.330177 1.54103 0
M  V30 908 C 93.0532 -0.15652 1.86043 0
M  V30 909 C 93.4042 -1.51086 1.2517 0
M  V30 910 O 92.5292 -2.09023 0.560217 0
M  V30 911 C 93.1242 -0.290784 3.3755 0
M  V30 912 C 91.6832 -0.721705 3.69416 0
M  V30 913 C 90.8302 0.152622 2.7688 0
M  V30 914 H 93.7812 0.550237 1.48856 0
M  V30 915 H 93.8022 -1.12058 3.63625 0
M  V30 916 H 93.3142 0.695068 3.81825 0
M  V30 917 H 91.4152 -1.71706 3.30678 0
M  V30 918 H 91.5282 -0.520869 4.7626 0
M  V30 919 H 89.8922 -0.372894 2.51956 0
M  V30 920 H 90.6752 1.13536 3.23982 0
M  V30 921 N 93.1203 -1.57491 0.0584922 0
M  V30 922 C 94.3663 -1.94081 -0.608617 0
M  V30 923 C 94.7213 -0.937438 -1.68017 0
M  V30 924 O 94.0143 0.0423034 -1.91553 0
M  V30 925 C 94.2083 -3.3513 -1.24188 0
M  V30 926 C 94.0373 -4.49095 -0.233187 0
M  V30 927 C 92.8073 -5.04988 0.177439 0
M  V30 928 C 95.0053 -5.1162 0.524306 0
M  V30 929 N 92.9873 -6.02487 1.17823 0
M  V30 930 C 94.3583 -6.04493 1.37796 0
M  V30 931 C 96.4133 -4.94489 0.581822 0
M  V30 932 C 95.1163 -6.82075 2.28399 0
M  V30 933 C 97.1423 -5.72703 1.47531 0
M  V30 934 C 96.5043 -6.65214 2.31667 0
M  V30 935 H 92.6033 -0.75752 -0.194134 0
M  V30 936 H 95.1873 -1.94248 0.132533 0
M  V30 937 H 93.3583 -3.35726 -1.95302 0
M  V30 938 H 95.0903 -3.5899 -1.86838 0
M  V30 939 H 91.8453 -4.73165 -0.203004 0
M  V30 940 H 92.2693 -6.55933 1.67573 0
M  V30 941 H 96.9113 -4.22765 -0.054443 0
M  V30 942 H 94.6293 -7.53085 2.93067 0
M  V30 943 H 98.2153 -5.61472 1.52448 0
M  V30 944 H 97.0953 -7.24679 2.99683 0
M  V30 945 N 94.5984 0.214957 -1.56127 0
M  V30 946 C 96.0144 0.564948 -1.49267 0
M  V30 947 C 96.2144 1.86827 -0.754838 0
M  V30 948 O 95.2704 2.50745 -0.297198 0
M  V30 949 C 96.5834 0.638071 -2.93852 0
M  V30 950 C 98.1314 0.728253 -3.0441 0
M  V30 951 C 98.6064 0.832663 -4.50367 0
M  V30 952 N 100.097 0.896712 -4.54437 0
M  V30 953 C 100.832 0.997324 -5.6466 0
M  V30 954 N 100.328 1.06147 -6.8462 0
M  V30 955 N 102.121 1.03297 -5.52527 0
M  V30 956 H 94.2724 -0.640211 -2.02522 0
M  V30 957 H 96.5354 -0.225507 -0.920788 0
M  V30 958 H 96.2414 -0.250126 -3.50809 0
M  V30 959 H 96.1154 1.49947 -3.46115 0
M  V30 960 H 98.5024 1.60689 -2.47514 0
M  V30 961 H 98.5834 -0.158952 -2.55306 0
M  V30 962 H 98.2274 -0.0415417 -5.07883 0
M  V30 963 H 98.1574 1.73538 -4.97184 0
M  V30 964 H 100.648 0.857188 -3.6805 0
M  V30 965 H 100.961 1.1382 -7.64372 0
M  V30 966 H 99.3064 1.03049 -6.87318 0
M  V30 967 H 102.497 0.979558 -4.57736 0
M  V30 968 H 102.67 1.10793 -6.38458 0
M  V30 969 N 96.0765 1.50051 0.48192 0
M  V30 970 C 97.3255 1.59741 1.23149 0
M  V30 971 C 97.6385 0.298163 1.93314 0
M  V30 972 O 98.8445 0.273835 2.70116 0
M  V30 973 C 97.3005 2.81926 2.23708 0
M  V30 974 C 96.9085 4.18685 1.59396 0
M  V30 975 C 98.6525 3.00956 2.99375 0
M  V30 976 C 96.5595 5.3207 2.58178 0
M  V30 977 H 95.4895 0.594838 0.46334 0
M  V30 978 H 98.1405 1.76467 0.503169 0
M  V30 979 H 96.5225 2.58736 2.99786 0
M  V30 980 H 97.6965 4.52088 0.891811 0
M  V30 981 H 96.0115 4.05171 0.960503 0
M  V30 982 H 98.6085 3.82836 3.73283 0
M  V30 983 H 98.9515 2.12258 3.58123 0
M  V30 984 H 99.4845 3.24277 2.30411 0
M  V30 985 H 96.2235 6.22888 2.04184 0
M  V30 986 H 95.7435 5.03098 3.26577 0
M  V30 987 H 97.4225 5.62196 3.20225 0
M  V30 988 N 97.5546 -0.734337 1.39446 0
M  V30 989 C 98.5176 -1.83004 1.37994 0
M  V30 990 C 99.5176 -1.58397 0.276938 0
M  V30 991 O 100.708 -1.65785 0.534875 0
M  V30 992 C 97.8396 -3.20802 1.1532 0
M  V30 993 H 99.0326 -1.85694 2.35494 0
M  V30 994 H 96.5856 -0.938059 1.25021 0
M  V30 995 H 97.3206 -3.23772 0.185036 0
M  V30 996 H 97.1056 -3.4006 1.95197 0
M  V30 997 H 98.5956 -4.00862 1.17046 0
M  V30 998 N 99.0327 -1.24633 -0.964593 0
M  V30 999 C 99.9627 -1.06611 -2.07741 0
M  V30 1000 C 100.944 0.0218666 -1.70086 0
M  V30 1001 O 102.129 -0.145793 -1.93652 0
M  V30 1002 C 99.2587 -0.673444 -3.40708 0
M  V30 1003 C 98.2127 -1.71054 -3.92332 0
M  V30 1004 C 97.5387 -1.17285 -5.21678 0
M  V30 1005 C 98.8387 -3.10718 -4.19824 0
M  V30 1006 H 100.533 -1.99693 -2.23076 0
M  V30 1007 H 98.0787 -0.96152 -1.07195 0
M  V30 1008 H 100.032 -0.534345 -4.17998 0
M  V30 1009 H 98.7557 0.293073 -3.25282 0
M  V30 1010 H 97.4147 -1.83791 -3.17201 0
M  V30 1011 H 97.0627 -0.196847 -5.02615 0
M  V30 1012 H 96.7627 -1.86592 -5.57187 0
M  V30 1013 H 98.2867 -1.04593 -6.01575 0
M  V30 1014 H 99.7007 -3.01192 -4.87808 0
M  V30 1015 H 98.0977 -3.77406 -4.66567 0
M  V30 1016 H 99.1677 -3.58524 -3.26479 0
M  V30 1017 N 100.511 1.16574 -1.06058 0
M  V30 1018 C 101.474 2.19085 -0.673392 0
M  V30 1019 C 102.474 1.5835 0.279648 0
M  V30 1020 O 103.664 1.74088 0.0623488 0
M  V30 1021 C 100.796 3.40899 0.00954234 0
M  V30 1022 H 101.989 2.54853 -1.58081 0
M  V30 1023 H 99.5418 1.30808 -0.855516 0
M  V30 1024 H 100.277 3.10684 0.929826 0
M  V30 1025 H 100.062 3.86233 -0.67573 0
M  V30 1026 H 101.552 4.1675 0.266245 0
M  V30 1027 N 101.989 0.842826 1.3317 0
M  V30 1028 C 103.219 0.453397 2.01564 0
M  V30 1029 C 103.627 -0.951147 1.63554 0
M  V30 1030 O 102.97 -1.63021 0.846746 0
M  V30 1031 C 103.032 0.499013 3.5602 0
M  V30 1032 C 102.696 1.86037 4.1742 0
M  V30 1033 C 103.693 2.82416 4.36506 0
M  V30 1034 C 101.378 2.15428 4.53757 0
M  V30 1035 C 103.372 4.06346 4.91082 0
M  V30 1036 C 101.059 3.39615 5.0804 0
M  V30 1037 C 102.057 4.3489 5.26649 0
M  V30 1038 O 101.745 5.5688 5.79776 0
M  V30 1039 H 101.477 0.177871 0.652179 0
M  V30 1040 H 104.031 1.13808 1.70988 0
M  V30 1041 H 102.261 -0.242467 3.85939 0
M  V30 1042 H 103.95 0.126852 4.05702 0
M  V30 1043 H 104.716 2.6101 4.08777 0
M  V30 1044 H 100.595 1.42061 4.38565 0
M  V30 1045 H 104.139 4.80722 5.05522 0
M  V30 1046 H 100.036 3.60876 5.352 0
M  V30 1047 H 100.804 5.58674 5.98185 0
M  V30 1048 N 103.467 -1.45747 0.599634 0
M  V30 1049 C 104.697 -2.06369 0.0977132 0
M  V30 1050 C 105.105 -1.44624 -1.21985 0
M  V30 1051 O 104.448 -0.551831 -1.75216 0
M  V30 1052 C 104.51 -3.59284 -0.124673 0
M  V30 1053 C 104.174 -4.43318 1.10987 0
M  V30 1054 C 105.171 -4.78796 2.02609 0
M  V30 1055 C 102.856 -4.84194 1.33647 0
M  V30 1056 C 104.85 -5.53997 3.15224 0
M  V30 1057 C 102.537 -5.5915 2.46565 0
M  V30 1058 C 103.535 -5.93968 3.37182 0
M  V30 1059 O 103.223 -6.67405 4.48136 0
M  V30 1060 H 102.955 -0.673122 0.0623153 0
M  V30 1061 H 105.509 -1.88104 0.824981 0
M  V30 1062 H 103.739 -3.75919 -0.906745 0
M  V30 1063 H 105.428 -4.01775 -0.577201 0
M  V30 1064 H 106.194 -4.47781 1.86325 0
M  V30 1065 H 102.073 -4.56534 0.64016 0
M  V30 1066 H 105.617 -5.81091 3.85978 0
M  V30 1067 H 101.514 -5.89579 2.62805 0
M  V30 1068 H 102.282 -6.85847 4.46717 0
M  V30 1069 N 104.945 -0.338344 -1.53925 0
M  V30 1070 C 105.877 0.555117 -2.22376 0
M  V30 1071 C 106.89 1.06812 -1.22862 0
M  V30 1072 O 108.079 0.979163 -1.49247 0
M  V30 1073 C 105.179 1.77609 -2.88631 0
M  V30 1074 C 104.352 1.39927 -4.14414 0
M  V30 1075 C 103.411 2.47936 -4.64127 0
M  V30 1076 O 102.437 2.11461 -5.28463 0
M  V30 1077 N 103.639 3.79107 -4.39612 0
M  V30 1078 H 106.404 -0.0310778 -2.99684 0
M  V30 1079 H 103.965 -0.162226 -1.61085 0
M  V30 1080 H 105.957 2.49287 -3.18807 0
M  V30 1081 H 104.527 2.26978 -2.14941 0
M  V30 1082 H 103.747 0.513481 -3.90841 0
M  V30 1083 H 105.035 1.12341 -4.96243 0
M  V30 1084 H 104.433 4.11531 -3.88148 0
M  V30 1085 H 102.99 4.4697 -4.74406 0
M  V30 1086 N 106.423 1.57458 -0.0668435 0
M  V30 1087 C 107.333 2.15937 0.916975 0
M  V30 1088 C 108.349 1.12123 1.33058 0
M  V30 1089 O 109.525 1.44366 1.40429 0
M  V30 1090 C 106.59 2.70547 2.16807 0
M  V30 1091 C 105.651 3.89215 1.81135 0
M  V30 1092 C 104.884 4.41211 3.0028 0
M  V30 1093 O 105.107 3.92225 4.14144 0
M  V30 1094 O 104.041 5.32605 2.80384 0
M  V30 1095 H 107.867 3.00354 0.449561 0
M  V30 1096 H 105.452 1.48584 0.155949 0
M  V30 1097 H 107.334 3.0557 2.90181 0
M  V30 1098 H 106.009 1.89192 2.62656 0
M  V30 1099 H 104.916 3.59054 1.05028 0
M  V30 1100 H 106.249 4.71848 1.40073 0
M  V30 1101 N 107.901 -0.206675 1.56239 0
M  V30 1102 C 109.149 -0.927007 1.79586 0
M  V30 1103 C 109.47 -1.8427 0.637929 0
M  V30 1104 O 108.74 -1.92849 -0.344398 0
M  V30 1105 H 107.32 -0.345292 0.662407 0
M  V30 1106 H 109.982 -0.21496 1.93711 0
M  V30 1107 H 109.078 -1.52501 2.72305 0
M  V30 1108 N 109.379 -1.50304 -0.473955 0
M  V30 1109 C 110.79 -1.54042 -1.0549 0
M  V30 1110 C 111.141 -0.342248 -1.93192 0
M  V30 1111 O 110.266 0.545157 -2.09421 0
M  V30 1112 C 110.861 -2.79152 -1.91989 0
M  V30 1113 C 109.42 -2.8558 -2.45196 0
M  V30 1114 C 108.567 -2.48295 -1.2347 0
M  V30 1115 H 111.518 -1.5661 -0.256693 0
M  V30 1116 H 111.539 -2.60845 -2.7702 0
M  V30 1117 H 111.051 -3.66339 -1.28131 0
M  V30 1118 H 109.152 -2.02738 -3.12615 0
M  V30 1119 H 109.265 -3.88403 -2.80499 0
M  V30 1120 H 107.629 -2.00669 -1.56856 0
M  V30 1121 H 108.412 -3.37787 -0.612789 0
M  V30 1122 N 110.857 0.726932 -1.39834 0
M  V30 1123 C 112.103 1.48884 -1.377 0
M  V30 1124 C 112.436 1.94185 0.0244852 0
M  V30 1125 O 111.711 1.67361 0.990986 0
M  V30 1126 C 111.994 2.72288 -2.3565 0
M  V30 1127 C 111.847 2.32956 -3.84775 0
M  V30 1128 C 113.166 3.74414 -2.31306 0
M  V30 1129 H 110.285 0.540062 -0.5015 0
M  V30 1130 H 112.927 0.830547 -1.70886 0
M  V30 1131 H 111.077 3.28457 -2.07481 0
M  V30 1132 H 112.749 1.82356 -4.23726 0
M  V30 1133 H 110.992 1.65088 -4.01159 0
M  V30 1134 H 111.663 3.21362 -4.4881 0
M  V30 1135 H 114.139 3.27849 -2.56231 0
M  V30 1136 H 113.015 4.58414 -3.01907 0
M  V30 1137 H 113.276 4.21909 -1.32081 0
M  V30 1138 N 112.336 1.25143 0.95797 0
M  V30 1139 C 113.613 1.00472 1.67823 0
M  V30 1140 C 113.993 -0.470056 2.058 0
M  V30 1141 O 113.341 -1.44663 1.76875 0
M  V30 1142 C 113.551 1.9372 2.90299 0
M  V30 1143 C 114.899 2.21371 3.62326 0
M  V30 1144 O 115.923 1.91451 3.00375 0
M  V30 1145 O 114.782 2.72231 4.7387 0
M  V30 1146 H 111.876 0.380752 0.734137 0
M  V30 1147 H 114.422 1.36283 1.01119 0
M  V30 1148 H 113.194 2.93316 2.59001 0
M  V30 1149 H 112.817 1.58286 3.64735 0
M  V30 1150 N 113.814 -1.1601 1.06675 0
M  V30 1151 C 115.044 -1.90251 0.805497 0
M  V30 1152 C 115.452 -1.77891 -0.64431 0
M  V30 1153 O 114.795 -1.12383 -1.45313 0
M  V30 1154 C 114.857 -3.41419 1.12576 0
M  V30 1155 C 114.521 -3.77564 2.57477 0
M  V30 1156 C 115.518 -3.79161 3.55715 0
M  V30 1157 C 113.203 -4.08079 2.92877 0
M  V30 1158 C 115.197 -4.10767 4.8739 0
M  V30 1159 C 112.884 -4.39351 4.24751 0
M  V30 1160 C 113.882 -4.40675 5.21818 0
M  V30 1161 O 113.57 -4.71202 6.51325 0
M  V30 1162 H 113.302 -0.610018 0.291297 0
M  V30 1163 H 115.856 -1.47958 1.4247 0
M  V30 1164 H 114.086 -3.84079 0.449503 0
M  V30 1165 H 115.775 -3.9694 0.84814 0
M  V30 1166 H 116.541 -3.55693 3.29708 0
M  V30 1167 H 112.42 -4.06211 2.17976 0
M  V30 1168 H 115.964 -4.11715 5.63148 0
M  V30 1169 H 111.861 -4.62285 4.50514 0
M  V30 1170 H 112.629 -4.88996 6.56373 0
M  V30 1171 N 115.292 -0.849877 -1.32721 0
M  V30 1172 C 116.517 -0.463856 -2.02146 0
M  V30 1173 C 116.942 0.930449 -1.63476 0
M  V30 1174 O 116.3 1.61033 -0.832952 0
M  V30 1175 C 116.348 -0.604955 -3.55489 0
M  V30 1176 O 115.452 0.36425 -4.10788 0
M  V30 1177 H 114.793 -0.187046 -0.637111 0
M  V30 1178 H 117.323 -1.14775 -1.69375 0
M  V30 1179 H 117.333 -0.490696 -4.05038 0
M  V30 1180 H 116.008 -1.62174 -3.82978 0
M  V30 1181 H 114.585 0.206628 -3.72327 0
M  V30 1182 N 116.77 1.45427 -0.607355 0
M  V30 1183 C 117.733 2.28974 0.101693 0
M  V30 1184 C 118.733 1.39754 0.795329 0
M  V30 1185 O 119.923 1.61878 0.643527 0
M  V30 1186 C 117.055 3.20768 1.15414 0
M  V30 1187 H 118.248 2.93147 -0.632844 0
M  V30 1188 H 115.801 1.51945 -0.366391 0
M  V30 1189 H 116.536 2.61395 1.91945 0
M  V30 1190 H 116.321 3.86489 0.66098 0
M  V30 1191 H 117.811 3.83589 1.65073 0
M  V30 1192 N 118.248 0.346503 1.53744 0
M  V30 1193 C 119.496 -0.248612 2.00565 0
M  V30 1194 C 119.817 -1.5083 1.23593 0
M  V30 1195 O 119.087 -1.92858 0.343912 0
M  V30 1196 H 117.667 -0.0948564 0.740953 0
M  V30 1197 H 120.329 0.468341 1.89189 0
M  V30 1198 H 119.425 -0.488994 3.08245 0
M  V30 1199 N 119.726 -1.57421 0.075193 0
M  V30 1200 C 120.673 -2.12915 -0.890843 0
M  V30 1201 C 121.643 -1.04252 -1.29309 0
M  V30 1202 O 122.828 -1.31933 -1.37834 0
M  V30 1203 C 119.968 -2.69795 -2.15186 0
M  V30 1204 C 119.081 -3.92624 -1.80194 0
M  V30 1205 C 118.216 -4.37736 -3.00933 0
M  V30 1206 C 117.255 -5.53205 -2.61974 0
M  V30 1207 N 116.392 -5.9326 -3.75483 0
M  V30 1208 H 121.232 -2.95156 -0.410735 0
M  V30 1209 H 118.769 -1.45854 -0.191086 0
M  V30 1210 H 120.727 -3.00883 -2.89008 0
M  V30 1211 H 119.357 -1.90313 -2.60731 0
M  V30 1212 H 118.409 -3.67977 -0.964218 0
M  V30 1213 H 119.721 -4.76482 -1.47534 0
M  V30 1214 H 118.875 -4.70503 -3.8303 0
M  V30 1215 H 117.614 -3.52739 -3.36789 0
M  V30 1216 H 116.619 -5.20086 -1.783 0
M  V30 1217 H 117.844 -6.39936 -2.27284 0
M  V30 1218 H 115.79 -5.11212 -4.11094 0
M  V30 1219 H 115.707 -6.71865 -3.46602 0
M  V30 1220 H 116.975 -6.30651 -4.58148 0
M  V30 1221 N 121.204 0.198386 -1.56346 0
M  V30 1222 C 122.62 0.549085 -1.49857 0
M  V30 1223 C 122.82 1.86016 -0.774611 0
M  V30 1224 O 121.876 2.50416 -0.323776 0
M  V30 1225 C 123.189 0.606868 -2.94512 0
M  V30 1226 C 124.737 0.695925 -3.05165 0
M  V30 1227 C 125.212 0.784848 -4.51225 0
M  V30 1228 N 126.703 0.848463 -4.55363 0
M  V30 1229 C 127.438 0.937378 -5.65686 0
M  V30 1230 N 126.934 0.9888 -6.85707 0
M  V30 1231 N 128.727 0.974312 -5.53592 0
M  V30 1232 H 120.878 -0.661655 -2.01831 0
M  V30 1233 H 123.141 -0.235261 -0.918344 0
M  V30 1234 H 122.847 -0.28732 -3.50524 0
M  V30 1235 H 122.721 1.46268 -3.47686 0
M  V30 1236 H 125.108 1.58055 -2.49204 0
M  V30 1237 H 125.189 -0.186022 -2.55123 0
M  V30 1238 H 124.833 -0.0954072 -5.0781 0
M  V30 1239 H 124.763 1.68255 -4.98997 0
M  V30 1240 H 127.254 0.818103 -3.68938 0
M  V30 1241 H 127.567 1.05707 -7.65536 0
M  V30 1242 H 125.912 0.957534 -6.88372 0
M  V30 1243 H 129.103 0.930954 -4.58749 0
M  V30 1244 H 129.276 1.04015 -6.39597 0
M  V30 1245 N 122.682 1.50554 0.465978 0
M  V30 1246 C 123.93 1.61479 1.21528 0
M  V30 1247 C 124.251 0.319596 1.92363 0
M  V30 1248 O 123.521 -0.663194 1.84333 0
M  V30 1249 H 122.101 0.595055 0.451573 0
M  V30 1250 H 124.763 1.87355 0.53704 0
M  V30 1251 H 123.859 2.42846 1.96042 0
M  V30 1252 N 124.16 -0.719506 1.40217 0
M  V30 1253 C 125.388 -1.50864 1.41589 0
M  V30 1254 C 125.803 -1.88794 0.0145275 0
M  V30 1255 O 125.16 -1.55174 -0.960594 0
M  V30 1256 C 125.211 -2.78646 2.30302 0
M  V30 1257 O 124.932 -2.42321 3.64983 0
M  V30 1258 C 126.433 -3.72569 2.40224 0
M  V30 1259 H 123.653 -0.465709 0.48307 0
M  V30 1260 H 126.197 -0.88785 1.84221 0
M  V30 1261 H 124.352 -3.37019 1.91042 0
M  V30 1262 H 124.766 -3.24514 4.12057 0
M  V30 1263 H 126.24 -4.5908 3.06512 0
M  V30 1264 H 126.717 -4.15403 1.42608 0
M  V30 1265 H 127.323 -3.20109 2.80019 0
M  V30 1266 N 125.638 -1.25649 -0.95132 0
M  V30 1267 C 126.884 -1.11766 -1.69941 0
M  V30 1268 C 127.239 0.33735 -1.89419 0
M  V30 1269 O 126.532 1.24491 -1.45645 0
M  V30 1270 C 126.726 -1.80909 -3.08231 0
M  V30 1271 C 126.555 -3.32984 -3.02245 0
M  V30 1272 C 125.325 -4.02247 -3.05819 0
M  V30 1273 C 127.523 -4.29332 -2.83157 0
M  V30 1274 N 125.505 -5.41072 -2.90024 0
M  V30 1275 C 126.876 -5.55265 -2.75828 0
M  V30 1276 C 128.931 -4.19707 -2.67863 0
M  V30 1277 C 127.634 -6.72671 -2.54767 0
M  V30 1278 C 129.66 -5.36809 -2.48173 0
M  V30 1279 C 129.022 -6.61683 -2.41567 0
M  V30 1280 H 125.121 -0.463708 -0.629682 0
M  V30 1281 H 127.705 -1.58796 -1.12659 0
M  V30 1282 H 125.876 -1.36369 -3.63673 0
M  V30 1283 H 127.608 -1.59739 -3.71841 0
M  V30 1284 H 124.363 -3.53531 -3.15139 0
M  V30 1285 H 124.787 -6.13938 -2.85323 0
M  V30 1286 H 129.429 -3.23907 -2.71743 0
M  V30 1287 H 127.147 -7.68577 -2.49629 0
M  V30 1288 H 130.733 -5.31224 -2.37259 0
M  V30 1289 H 129.613 -7.50768 -2.26531 0
M  V30 1290 N 127.117 1.15442 -1.07289 0
M  V30 1291 C 128.364 1.86213 -0.795668 0
M  V30 1292 C 128.692 1.82291 0.678238 0
M  V30 1293 O 127.947 1.24057 1.51355 0
M  V30 1294 C 128.246 3.3489 -1.24834 0
M  V30 1295 C 127.912 3.59007 -2.72809 0
M  V30 1296 C 126.574 3.65298 -3.13227 0
M  V30 1297 C 128.926 3.68762 -3.68326 0
M  V30 1298 C 126.254 3.78854 -4.4798 0
M  V30 1299 C 128.606 3.83842 -5.0284 0
M  V30 1300 C 127.27 3.88378 -5.4288 0
M  V30 1301 H 126.54 0.681403 -0.291155 0
M  V30 1302 H 129.187 1.36435 -1.34379 0
M  V30 1303 H 127.492 3.8687 -0.619595 0
M  V30 1304 H 129.189 3.88052 -1.01076 0
M  V30 1305 H 125.779 3.5475 -2.40521 0
M  V30 1306 H 129.963 3.63202 -3.38227 0
M  V30 1307 H 125.219 3.80623 -4.78472 0
M  V30 1308 H 129.393 3.90332 -5.76727 0
M  V30 1309 H 127.02 3.98635 -6.47298 0
M  V30 1310 N 128.595 0.856903 1.32268 0
M  V30 1311 C 129.872 0.382583 1.91822 0
M  V30 1312 C 130.252 -1.13407 1.78051 0
M  V30 1313 O 129.6 -1.95673 1.18001 0
M  V30 1314 C 129.81 0.849446 3.38505 0
M  V30 1315 C 131.158 0.867936 4.15634 0
M  V30 1316 O 132.182 0.794232 3.47232 0
M  V30 1317 O 131.041 0.972286 5.37781 0
M  V30 1318 H 128.135 0.112014 0.819379 0
M  V30 1319 H 130.681 0.943952 1.41024 0
M  V30 1320 H 129.453 1.89267 3.42482 0
M  V30 1321 H 129.076 0.265652 3.96712 0
M  V30 1322 N 130.073 -1.45103 0.615059 0
M  V30 1323 C 131.489 -1.57137 0.279322 0
M  V30 1324 C 131.689 -1.60523 -1.21797 0
M  V30 1325 O 130.745 -1.53956 -2.00134 0
M  V30 1326 C 132.058 -2.85062 0.957083 0
M  V30 1327 C 133.606 -2.98749 0.933706 0
M  V30 1328 C 134.081 -4.29455 1.59162 0
M  V30 1329 N 135.572 -4.36231 1.55746 0
M  V30 1330 C 136.307 -5.36051 2.0356 0
M  V30 1331 N 135.803 -6.42367 2.59494 0
M  V30 1332 N 137.596 -5.27456 1.94284 0
M  V30 1333 H 129.747 -1.41148 1.58717 0
M  V30 1334 H 132.01 -0.675331 0.665306 0
M  V30 1335 H 131.716 -2.88488 2.01166 0
M  V30 1336 H 131.59 -3.7407 0.48494 0
M  V30 1337 H 133.977 -2.94886 -0.112347 0
M  V30 1338 H 134.058 -2.11132 1.44419 0
M  V30 1339 H 133.702 -4.34077 2.63704 0
M  V30 1340 H 133.632 -5.15901 1.0561 0
M  V30 1341 H 136.123 -3.60011 1.14893 0
M  V30 1342 H 136.436 -7.14793 2.93752 0
M  V30 1343 H 134.781 -6.43097 2.63537 0
M  V30 1344 H 137.972 -4.43308 1.5032 0
M  V30 1345 H 138.145 -6.05099 2.3186 0
M  V30 1346 N 131.551 -0.354651 -1.53558 0
M  V30 1347 C 132.962 0.126902 -1.86268 0
M  V30 1348 C 133.313 1.49075 -1.27558 0
M  V30 1349 O 132.438 2.08105 -0.5934 0
M  V30 1350 C 133.033 0.237046 -3.3797 0
M  V30 1351 C 131.592 0.662842 -3.70518 0
M  V30 1352 C 130.739 -0.196652 -2.76602 0
M  V30 1353 H 133.69 -0.573849 -1.47962 0
M  V30 1354 H 133.711 1.06259 -3.65362 0
M  V30 1355 H 133.223 -0.755725 -3.80671 0
M  V30 1356 H 131.324 1.66424 -3.33367 0
M  V30 1357 H 131.437 0.445034 -4.77029 0
M  V30 1358 H 129.801 0.332763 -2.52517 0
M  V30 1359 H 130.584 -1.18676 -3.22135 0
M  V30 1360 N 133.029 1.57378 -0.0835403 0
M  V30 1361 C 133.939 2.16897 0.894021 0
M  V30 1362 C 134.955 1.13528 1.31861 0
M  V30 1363 O 136.131 1.45848 1.3889 0
M  V30 1364 C 133.196 2.72831 2.13925 0
M  V30 1365 C 132.257 3.91115 1.76997 0
M  V30 1366 C 131.49 4.44371 2.95584 0
M  V30 1367 O 131.713 3.96596 4.09961 0
M  V30 1368 O 130.647 5.35549 2.74719 0
M  V30 1369 H 134.473 3.00814 0.417679 0
M  V30 1370 H 132.058 1.48741 0.140181 0
M  V30 1371 H 133.94 3.0863 2.86924 0
M  V30 1372 H 132.615 1.91967 2.60635 0
M  V30 1373 H 131.522 3.60148 1.01214 0
M  V30 1374 H 132.855 4.73307 1.3506 0
M  V30 1375 N 134.507 -0.190092 1.56449 0
M  V30 1376 C 135.437 -1.23816 1.97969 0
M  V30 1377 C 136.418 -1.47201 0.852395 0
M  V30 1378 O 137.603 -1.58854 1.1171 0
M  V30 1379 C 134.733 -2.5813 2.3235 0
M  V30 1380 C 133.687 -2.49348 3.47864 0
M  V30 1381 C 133.013 -3.8798 3.67934 0
M  V30 1382 C 134.313 -2.01424 4.81898 0
M  V30 1383 H 136.007 -0.89311 2.85769 0
M  V30 1384 H 133.553 -0.428177 1.37487 0
M  V30 1385 H 135.506 -3.31637 2.59991 0
M  V30 1386 H 134.23 -2.94386 1.41438 0
M  V30 1387 H 132.889 -1.78297 3.20321 0
M  V30 1388 H 132.537 -4.21597 2.74344 0
M  V30 1389 H 132.237 -3.82978 4.45648 0
M  V30 1390 H 133.761 -4.63101 3.97957 0
M  V30 1391 H 135.175 -2.64693 5.08538 0
M  V30 1392 H 133.572 -2.07413 5.63116 0
M  V30 1393 H 134.642 -0.967677 4.75146 0
M  V30 1394 N 135.985 -1.50799 -0.457987 0
M  V30 1395 C 136.895 -1.73426 -1.57989 0
M  V30 1396 C 137.911 -0.617745 -1.62665 0
M  V30 1397 O 139.087 -0.897614 -1.80291 0
M  V30 1398 C 136.152 -1.83557 -2.94122 0
M  V30 1399 C 135.213 -3.07345 -2.99729 0
M  V30 1400 C 134.446 -3.16983 -4.29368 0
M  V30 1401 O 134.669 -2.33077 -5.20607 0
M  V30 1402 O 133.603 -4.09812 -4.40837 0
M  V30 1403 H 137.429 -2.68555 -1.41817 0
M  V30 1404 H 135.014 -1.35052 -0.638859 0
M  V30 1405 H 136.896 -1.92326 -3.74952 0
M  V30 1406 H 135.571 -0.916137 -3.10465 0
M  V30 1407 H 134.478 -3.04068 -2.1793 0
M  V30 1408 H 135.811 -3.9891 -2.88326 0
M  V30 1409 N 137.463 0.71206 -1.40597 0
M  V30 1410 C 138.709 1.47416 -1.39271 0
M  V30 1411 C 139.042 1.942 0.00388791 0
M  V30 1412 O 138.317 1.68403 0.973179 0
M  V30 1413 C 138.6 2.69774 -2.38525 0
M  V30 1414 C 138.453 2.28861 -3.87224 0
M  V30 1415 C 139.772 3.71939 -2.35264 0
M  V30 1416 H 136.891 0.534713 -0.5072 0
M  V30 1417 H 139.533 0.812375 -1.71757 0
M  V30 1418 H 137.683 3.26238 -2.10953 0
M  V30 1419 H 139.355 1.77852 -4.25636 0
M  V30 1420 H 137.598 1.60824 -4.02887 0
M  V30 1421 H 138.269 3.16584 -4.52193 0
M  V30 1422 H 140.745 3.25113 -2.59694 0
M  V30 1423 H 139.621 4.55186 -3.06753 0
M  V30 1424 H 139.882 4.20484 -1.36549 0
M  V30 1425 N 138.941 1.26152 0.944643 0
M  V30 1426 C 139.891 1.04081 2.02857 0
M  V30 1427 C 140.875 -0.0256555 1.6088 0
M  V30 1428 O 142.067 0.190884 1.75968 0
M  V30 1429 C 139.196 0.672118 3.36656 0
M  V30 1430 C 138.282 1.77586 3.85128 0
M  V30 1431 N 138.673 3.01272 4.06287 0
M  V30 1432 C 136.971 1.65867 4.1401 0
M  V30 1433 C 137.672 3.72983 4.46384 0
M  V30 1434 N 136.648 3.00653 4.52889 0
M  V30 1435 H 140.45 1.97968 2.17223 0
M  V30 1436 H 137.964 1.16618 1.13022 0
M  V30 1437 H 139.961 0.495166 4.13949 0
M  V30 1438 H 138.621 -0.259307 3.23663 0
M  V30 1439 H 139.632 3.37213 3.93075 0
M  V30 1440 H 136.309 0.796907 4.09824 0
M  V30 1441 H 137.699 4.792 4.70975 0
M  V30 1442 N 140.419 -1.14872 1.07899 0
M  V30 1443 C 141.649 -1.89386 0.825631 0
M  V30 1444 C 142.057 -1.78565 -0.625406 0
M  V30 1445 O 141.4 -1.13918 -1.44113 0
M  V30 1446 C 141.462 -3.40206 1.16191 0
M  V30 1447 C 141.126 -3.74812 2.61467 0
M  V30 1448 C 142.123 -3.75367 3.59716 0
M  V30 1449 C 139.808 -4.0495 2.97189 0
M  V30 1450 C 141.802 -4.05574 4.9172 0
M  V30 1451 C 139.489 -4.34821 4.29388 0
M  V30 1452 C 140.487 -4.35116 5.26463 0
M  V30 1453 O 140.175 -4.64267 6.56286 0
M  V30 1454 H 139.907 -0.606894 0.297751 0
M  V30 1455 H 142.461 -1.46438 1.44031 0
M  V30 1456 H 140.691 -3.8358 0.490214 0
M  V30 1457 H 142.38 -3.96018 0.890193 0
M  V30 1458 H 143.146 -3.52176 3.33462 0
M  V30 1459 H 139.025 -4.03876 2.22273 0
M  V30 1460 H 142.569 -4.05719 5.67484 0
M  V30 1461 H 138.466 -4.5748 4.55392 0
M  V30 1462 H 139.234 -4.82007 6.61522 0
M  V30 1463 N 141.898 -0.863906 -1.31812 0
M  V30 1464 C 142.83 -0.272485 -2.27575 0
M  V30 1465 C 143.843 0.56104 -1.52827 0
M  V30 1466 O 145.032 0.384021 -1.7432 0
M  V30 1467 C 142.132 0.63283 -3.32939 0
M  V30 1468 C 141.305 -0.166902 -4.37081 0
M  V30 1469 C 140.364 0.665608 -5.21973 0
M  V30 1470 O 139.39 0.0958091 -5.69119 0
M  V30 1471 N 140.592 1.9787 -5.45736 0
M  V30 1472 H 143.357 -1.0954 -2.78964 0
M  V30 1473 H 140.918 -0.724791 -1.4477 0
M  V30 1474 H 142.91 1.19532 -3.86645 0
M  V30 1475 H 141.48 1.35642 -2.81638 0
M  V30 1476 H 140.7 -0.910838 -3.83533 0
M  V30 1477 H 141.988 -0.715874 -5.03739 0
M  V30 1478 H 141.386 2.46484 -5.09178 0
M  V30 1479 H 139.943 2.48911 -6.024 0
M  V30 1480 N 143.376 1.44774 -0.622745 0
M  V30 1481 C 144.623 2.02121 -0.1239 0
M  V30 1482 C 144.951 1.48915 1.25118 0
M  V30 1483 O 144.206 0.660045 1.84233 0
M  V30 1484 C 144.505 3.57364 -0.0508323 0
M  V30 1485 C 144.171 4.29787 -1.36358 0
M  V30 1486 C 142.833 4.4929 -1.72314 0
M  V30 1487 C 145.185 4.71062 -2.23048 0
M  V30 1488 C 142.513 5.07325 -2.94682 0
M  V30 1489 C 144.865 5.30452 -3.44679 0
M  V30 1490 C 143.529 5.48175 -3.80868 0
M  V30 1491 H 142.799 0.739612 -0.0453381 0
M  V30 1492 H 145.446 1.73648 -0.807389 0
M  V30 1493 H 143.751 3.85202 0.715991 0
M  V30 1494 H 145.448 3.99456 0.351533 0
M  V30 1495 H 142.038 4.14932 -1.07375 0
M  V30 1496 H 146.222 4.55715 -1.96565 0
M  V30 1497 H 141.478 5.19235 -3.22809 0
M  V30 1498 H 145.652 5.61385 -4.12092 0
M  V30 1499 H 143.279 5.92912 -4.75773 0
M  V30 1500 N 144.854 0.36279 1.53368 0
M  V30 1501 C 145.784 -0.476976 2.28576 0
M  V30 1502 C 146.765 -1.08631 1.30894 0
M  V30 1503 O 147.95 -1.10409 1.59761 0
M  V30 1504 C 145.08 -1.61828 3.07293 0
M  V30 1505 C 144.034 -1.13633 4.1264 0
M  V30 1506 C 143.36 -2.36766 4.79423 0
M  V30 1507 C 144.66 -0.223061 5.21823 0
M  V30 1508 H 146.354 0.150474 2.99022 0
M  V30 1509 H 143.9 0.0738103 1.43811 0
M  V30 1510 H 145.853 -2.21237 3.58653 0
M  V30 1511 H 144.577 -2.27292 2.34533 0
M  V30 1512 H 143.236 -0.564945 3.62221 0
M  V30 1513 H 142.884 -3.0068 4.03238 0
M  V30 1514 H 142.584 -2.05192 5.50609 0
M  V30 1515 H 144.108 -2.96865 5.33576 0
M  V30 1516 H 145.522 -0.724545 5.68703 0
M  V30 1517 H 143.919 0.001678 6.001 0
M  V30 1518 H 144.989 0.735553 4.79289 0
M  V30 1519 N 146.332 -1.57332 0.0918853 0
M  V30 1520 C 147.242 -2.17368 -0.882505 0
M  V30 1521 C 148.258 -1.14226 -1.31257 0
M  V30 1522 O 149.434 -1.46582 -1.38115 0
M  V30 1523 C 146.499 -2.73962 -2.12476 0
M  V30 1524 C 145.56 -3.92048 -1.7492 0
M  V30 1525 C 144.793 -4.45933 -2.93223 0
M  V30 1526 O 145.016 -3.98764 -4.07852 0
M  V30 1527 O 143.95 -5.36999 -2.71875 0
M  V30 1528 H 147.776 -3.01031 -0.40172 0
M  V30 1529 H 145.361 -1.48813 -0.132291 0
M  V30 1530 H 147.243 -3.10147 -2.85283 0
M  V30 1531 H 145.918 -1.93347 -2.59613 0
M  V30 1532 H 144.825 -3.6068 -0.993025 0
M  V30 1533 H 146.158 -4.74017 -1.32548 0
M  V30 1534 N 147.81 0.181792 -1.56548 0
M  V30 1535 C 148.758 1.24461 -1.965 0
M  V30 1536 C 149.752 1.464 -0.852261 0
M  V30 1537 O 150.958 1.47103 -1.03733 0
M  V30 1538 H 147.333 0.418138 -0.625031 0
M  V30 1539 H 149.304 0.880714 -2.85107 0
M  V30 1540 C 148.053 2.57891 -2.33212 0
M  V30 1541 H 147.376 2.41829 -3.18369 0
M  V30 1542 H 148.816 3.3097 -2.65019 0
M  V30 1543 C 147.275 3.15871 -1.17163 0
M  V30 1544 O 147.805 3.9913 -0.453708 0
M  V30 1545 N 146.011 2.74808 -0.944936 0
M  V30 1546 H 145.558 2.07205 -1.53049 0
M  V30 1547 H 145.516 3.13939 -0.170286 0
M  V30 1548 N 149.288 1.51039 0.449983 0
M  V30 1549 C 150.565 1.53612 1.21089 0
M  V30 1550 C 150.945 0.292997 2.09057 0
M  V30 1551 O 150.293 -0.72259 2.16774 0
M  V30 1552 C 150.503 2.84337 2.0237 0
M  V30 1553 C 151.851 3.35807 2.59843 0
M  V30 1554 O 152.875 2.85802 2.12593 0
M  V30 1555 O 151.734 4.23029 3.45989 0
M  V30 1556 H 148.828 0.617057 0.550608 0
M  V30 1557 H 151.374 1.63344 0.460082 0
M  V30 1558 H 150.146 3.66278 1.37681 0
M  V30 1559 H 149.769 2.77708 2.84542 0
M  V30 1560 N 150.766 -0.704594 1.40972 0
M  V30 1561 C 152.043 -1.45847 1.30338 0
M  V30 1562 C 152.423 -2.10973 -0.0732344 0
M  V30 1563 O 151.771 -2.00997 -1.08685 0
M  V30 1564 C 151.981 -2.48525 2.45023 0
M  V30 1565 C 153.329 -3.1404 2.8577 0
M  V30 1566 O 154.353 -2.58848 2.44696 0
M  V30 1567 O 153.212 -4.13981 3.56766 0
M  V30 1568 H 150.306 -0.649092 0.512454 0
M  V30 1569 H 152.852 -0.735836 1.52917 0
M  V30 1570 H 151.624 -1.98994 3.36923 0
M  V30 1571 H 151.247 -3.2831 2.24272 0
M  V30 1572 N 152.244 -1.26651 -0.937939 0
M  V30 1573 C 153.491 -1.12387 -1.6845 0
M  V30 1574 C 153.819 0.332208 -1.91642 0
M  V30 1575 O 153.074 1.2602 -1.49725 0
M  V30 1576 C 153.373 -1.84168 -3.06295 0
M  V30 1577 C 153.039 -3.34056 -3.02849 0
M  V30 1578 C 151.701 -3.74942 -3.01616 0
M  V30 1579 C 154.053 -4.29741 -2.9491 0
M  V30 1580 C 151.381 -5.09894 -2.90215 0
M  V30 1581 C 153.733 -5.64738 -2.8505 0
M  V30 1582 C 152.397 -6.0493 -2.82162 0
M  V30 1583 H 151.667 -0.411252 -0.616403 0
M  V30 1584 H 154.314 -1.57134 -1.09459 0
M  V30 1585 H 152.619 -1.319 -3.6893 0
M  V30 1586 H 154.316 -1.70569 -3.62915 0
M  V30 1587 H 150.906 -3.01534 -3.0459 0
M  V30 1588 H 155.09 -3.99133 -2.94969 0
M  V30 1589 H 150.346 -5.40194 -2.86358 0
M  V30 1590 H 154.52 -6.38561 -2.77872 0
M  V30 1591 H 152.147 -7.09457 -2.73084 0
M  V30 1592 N 153.722 1.14298 -1.08507 0
M  V30 1593 C 154.947 1.8976 -0.837001 0
M  V30 1594 C 155.372 1.78097 0.605228 0
M  V30 1595 O 154.73 1.12188 1.4242 0
M  V30 1596 C 154.778 3.37685 -1.26495 0
M  V30 1597 O 153.882 4.10281 -0.417514 0
M  V30 1598 H 153.223 0.590365 -0.303917 0
M  V30 1599 H 155.753 1.44672 -1.44676 0
M  V30 1600 H 155.763 3.88501 -1.24625 0
M  V30 1601 H 154.438 3.45492 -2.31534 0
M  V30 1602 H 153.015 3.69536 -0.499722 0
M  V30 1603 N 155.201 0.870884 1.31352 0
M  V30 1604 C 156.448 0.482273 1.96673 0
M  V30 1605 C 156.776 -0.965638 1.68836 0
M  V30 1606 O 156.031 -1.69514 0.977937 0
M  V30 1607 C 156.33 0.687157 3.50732 0
M  V30 1608 C 155.996 2.108 3.9859 0
M  V30 1609 C 154.658 2.49656 4.1137 0
M  V30 1610 C 157.01 3.03459 4.23748 0
M  V30 1611 C 154.338 3.80412 4.46659 0
M  V30 1612 C 156.69 4.3373 4.60501 0
M  V30 1613 C 155.354 4.725 4.71487 0
M  V30 1614 H 154.624 0.176476 0.719679 0
M  V30 1615 H 157.271 1.10405 1.56471 0
M  V30 1616 H 155.576 -0.0177476 3.91796 0
M  V30 1617 H 157.273 0.366284 3.99324 0
M  V30 1618 H 153.863 1.79633 3.8914 0
M  V30 1619 H 158.047 2.74665 4.13368 0
M  V30 1620 H 153.303 4.1021 4.53362 0
M  V30 1621 H 157.477 5.05578 4.78919 0
M  V30 1622 H 155.104 5.73859 4.98588 0
M  V30 1623 N 156.679 -1.44442 0.630414 0
M  V30 1624 C 157.927 -2.01653 0.134351 0
M  V30 1625 C 158.248 -1.49836 -1.24796 0
M  V30 1626 O 157.518 -0.701684 -1.82902 0
M  V30 1627 H 156.098 -0.74554 0.0466769 0
M  V30 1628 H 158.76 -1.76952 0.816955 0
M  V30 1629 H 157.856 -3.11935 0.101498 0
M  V30 1630 N 158.157 -0.370918 -1.53173 0
M  V30 1631 C 159.087 0.464847 -2.28826 0
M  V30 1632 C 160.068 1.07936 -1.31468 0
M  V30 1633 O 161.253 1.0956 -1.60344 0
M  V30 1634 C 158.383 1.60196 -3.08147 0
M  V30 1635 C 157.337 1.11443 -4.13237 0
M  V30 1636 C 156.663 2.3422 -4.80672 0
M  V30 1637 C 157.963 0.195384 -5.21934 0
M  V30 1638 H 159.657 -0.166329 -2.98938 0
M  V30 1639 H 157.203 -0.0814359 -1.4377 0
M  V30 1640 H 159.156 2.19332 -3.59822 0
M  V30 1641 H 157.88 2.26045 -2.35735 0
M  V30 1642 H 156.539 0.545727 -3.62515 0
M  V30 1643 H 156.187 2.98537 -4.04827 0
M  V30 1644 H 155.887 2.02269 -5.51689 0
M  V30 1645 H 157.411 2.94032 -5.35143 0
M  V30 1646 H 158.825 0.694375 -5.69079 0
M  V30 1647 H 157.222 -0.0335027 -6.00091 0
M  V30 1648 H 158.292 -0.760961 -4.78892 0
M  V30 1649 N 159.635 1.57281 -0.100228 0
M  V30 1650 C 160.863 1.98879 0.570509 0
M  V30 1651 C 161.278 0.979476 1.61405 0
M  V30 1652 O 160.635 -0.0302288 1.82475 0
M  V30 1653 C 160.686 3.4052 1.2136 0
M  V30 1654 O 160.407 4.37588 0.211786 0
M  V30 1655 C 161.908 3.97149 1.96945 0
M  V30 1656 H 159.128 0.653428 0.152555 0
M  V30 1657 H 161.672 2.03697 -0.18103 0
M  V30 1658 H 159.827 3.367 1.91603 0
M  V30 1659 H 160.241 5.20118 0.676607 0
M  V30 1660 H 161.715 4.98393 2.37294 0
M  V30 1661 H 162.192 3.3525 2.83733 0
M  V30 1662 H 162.798 4.04458 1.31506 0
M  V30 1663 N 161.113 -0.173488 1.56642 0
M  V30 1664 C 162.361 -0.888706 1.81512 0
M  V30 1665 C 162.682 -1.82875 0.676872 0
M  V30 1666 O 161.952 -1.93536 -0.303414 0
M  V30 1667 H 160.532 -0.331164 0.669582 0
M  V30 1668 H 163.194 -0.173823 1.94123 0
M  V30 1669 H 162.29 -1.46691 2.75478 0
M  V30 1670 N 162.591 -1.51276 -0.441967 0
M  V30 1671 C 163.839 -1.63392 -1.18943 0
M  V30 1672 C 164.16 -0.350159 -1.9183 0
M  V30 1673 O 163.43 0.633784 -1.85364 0
M  V30 1674 H 162.01 -0.602164 -0.442049 0
M  V30 1675 H 164.672 -1.88186 -0.507165 0
M  V30 1676 H 163.768 -2.45934 -1.92154 0
M  V30 1677 N 164.069 0.697108 -1.41344 0
M  V30 1678 C 165.316 1.45714 -1.40619 0
M  V30 1679 C 165.644 1.94494 -0.0147907 0
M  V30 1680 O 164.899 1.69794 0.973066 0
M  V30 1681 C 165.198 2.68553 -2.35826 0
M  V30 1682 C 164.864 2.38438 -3.82698 0
M  V30 1683 C 163.526 2.29936 -4.22709 0
M  V30 1684 C 165.878 2.13567 -4.75435 0
M  V30 1685 C 163.206 1.94656 -5.53467 0
M  V30 1686 C 165.558 1.79797 -6.06511 0
M  V30 1687 C 164.222 1.69789 -6.45545 0
M  V30 1688 H 163.492 0.533206 -0.51456 0
M  V30 1689 H 166.139 0.796901 -1.74131 0
M  V30 1690 H 164.444 3.39503 -1.95563 0
M  V30 1691 H 166.141 3.2669 -2.32539 0
M  V30 1692 H 162.731 2.4595 -3.51008 0
M  V30 1693 H 166.915 2.19082 -4.45328 0
M  V30 1694 H 162.171 1.8546 -5.82593 0
M  V30 1695 H 166.345 1.59572 -6.77872 0
M  V30 1696 H 163.972 1.4222 -7.46778 0
M  V30 1697 N 165.547 1.27147 0.931209 0
M  V30 1698 C 166.963 1.04475 1.20653 0
M  V30 1699 C 167.163 -0.223885 2.00252 0
M  V30 1700 O 166.219 -0.930332 2.34736 0
M  V30 1701 C 167.532 2.28209 1.95809 0
M  V30 1702 C 169.08 2.33211 2.08762 0
M  V30 1703 C 169.555 3.56665 2.87323 0
M  V30 1704 N 171.046 3.57201 2.94892 0
M  V30 1705 C 171.781 4.49395 3.56134 0
M  V30 1706 N 171.277 5.51889 4.18796 0
M  V30 1707 N 173.07 4.37026 3.53504 0
M  V30 1708 H 165.221 2.08612 0.399333 0
M  V30 1709 H 167.484 0.917312 0.239253 0
M  V30 1710 H 167.19 3.20538 1.44736 0
M  V30 1711 H 167.064 2.33247 2.96438 0
M  V30 1712 H 169.451 1.41391 2.59023 0
M  V30 1713 H 169.532 2.32178 1.07364 0
M  V30 1714 H 169.176 4.4882 2.37746 0
M  V30 1715 H 169.106 3.54948 3.88998 0
M  V30 1716 H 171.597 2.83074 2.50354 0
M  V30 1717 H 171.91 6.18409 4.63454 0
M  V30 1718 H 170.255 5.55735 4.17353 0
M  V30 1719 H 173.446 3.56166 3.03749 0
M  V30 1720 H 173.619 5.09067 4.00942 0
M  V30 1721 N 167.025 -1.13721 1.09112 0
M  V30 1722 C 167.973 -2.21103 0.722219 0
M  V30 1723 C 168.967 -1.67147 -0.275374 0
M  V30 1724 O 170.173 -1.79477 -0.137176 0
M  V30 1725 H 166.548 -0.720445 0.215553 0
M  V30 1726 H 168.519 -2.49483 1.63709 0
M  V30 1727 C 167.268 -3.47352 0.15543 0
M  V30 1728 H 166.591 -3.89206 0.914246 0
M  V30 1729 H 168.031 -4.2395 -0.0647967 0
M  V30 1730 C 166.49 -3.1814 -1.10852 0
M  V30 1731 O 167.02 -3.36604 -2.19227 0
M  V30 1732 N 165.226 -2.72045 -1.02176 0
M  V30 1733 H 164.773 -2.57221 -0.139764 0
M  V30 1734 H 164.731 -2.52875 -1.8682 0
M  V30 1735 N 168.503 -0.877838 -1.30888 0
M  V30 1736 C 169.733 -0.506678 -2.00291 0
M  V30 1737 C 170.141 0.907449 -1.66018 0
M  V30 1738 O 169.484 1.60719 -0.88967 0
M  V30 1739 C 169.546 -0.59323 -3.54572 0
M  V30 1740 C 169.21 -1.97038 -4.12341 0
M  V30 1741 C 170.207 -2.93889 -4.28865 0
M  V30 1742 C 167.892 -2.27383 -4.47886 0
M  V30 1743 C 169.886 -4.19224 -4.80136 0
M  V30 1744 C 167.573 -3.52965 -4.98857 0
M  V30 1745 C 168.571 -4.48701 -5.14934 0
M  V30 1746 O 168.259 -5.72056 -5.64808 0
M  V30 1747 H 167.991 -0.1951 -0.647234 0
M  V30 1748 H 170.545 -1.18301 -1.6791 0
M  V30 1749 H 168.775 0.140057 -3.86446 0
M  V30 1750 H 170.464 -0.234372 -4.05223 0
M  V30 1751 H 171.23 -2.71756 -4.01714 0
M  V30 1752 H 167.109 -1.53639 -4.34645 0
M  V30 1753 H 170.653 -4.93956 -4.92599 0
M  V30 1754 H 166.55 -3.74939 -5.25443 0
M  V30 1755 H 167.318 -5.74337 -5.83163 0
M  V30 1756 N 169.982 1.44106 -0.638065 0
M  V30 1757 C 171.23 2.01579 -0.145043 0
M  V30 1758 C 171.551 1.50496 1.24 0
M  V30 1759 O 170.821 0.711374 1.82527 0
M  V30 1760 H 169.401 0.745282 -0.05063 0
M  V30 1761 H 172.063 1.76516 -0.826327 0
M  V30 1762 H 171.159 3.11877 -0.118039 0
M  V30 1763 N 171.46 0.379036 1.52974 0
M  V30 1764 C 172.69 -0.20649 2.05566 0
M  V30 1765 C 173.098 -1.41906 1.25137 0
M  V30 1766 O 172.441 -1.81421 0.288464 0
M  V30 1767 C 172.503 -0.651086 3.53555 0
M  V30 1768 C 172.167 0.446626 4.54812 0
M  V30 1769 C 173.164 1.30079 5.03364 0
M  V30 1770 C 170.849 0.610719 4.98573 0
M  V30 1771 C 172.843 2.30426 5.94292 0
M  V30 1772 C 170.53 1.61754 5.89304 0
M  V30 1773 C 171.528 2.46274 6.37054 0
M  V30 1774 O 171.216 3.45237 7.25994 0
M  V30 1775 H 170.948 -0.0372381 0.674974 0
M  V30 1776 H 173.502 0.539718 1.98182 0
M  V30 1777 H 171.732 -1.44911 3.58522 0
M  V30 1778 H 173.421 -1.16112 3.88938 0
M  V30 1779 H 174.187 1.18527 4.70294 0
M  V30 1780 H 170.066 -0.0374044 4.60985 0
M  V30 1781 H 173.61 2.96432 6.31485 0
M  V30 1782 H 169.507 1.73348 6.21788 0
M  V30 1783 H 170.275 3.41124 7.44027 0
M  V30 1784 N 172.938 -1.57226 0.108567 0
M  V30 1785 C 173.888 -2.11305 -0.856396 0
M  V30 1786 C 174.872 -1.03129 -1.23504 0
M  V30 1787 O 176.064 -1.29381 -1.20787 0
M  V30 1788 C 173.193 -2.70771 -2.11041 0
M  V30 1789 C 172.279 -3.86011 -1.7566 0
M  V30 1790 N 172.67 -4.93492 -1.10902 0
M  V30 1791 C 170.968 -3.95999 -2.05185 0
M  V30 1792 C 171.669 -5.73984 -0.944308 0
M  V30 1793 N 170.645 -5.2346 -1.46596 0
M  V30 1794 H 174.447 -2.91784 -0.352002 0
M  V30 1795 H 171.961 -1.62126 -0.0942324 0
M  V30 1796 H 173.958 -3.07851 -2.81128 0
M  V30 1797 H 172.618 -1.91751 -2.62034 0
M  V30 1798 H 173.629 -5.1208 -0.774235 0
M  V30 1799 H 170.306 -3.28007 -2.58298 0
M  V30 1800 H 171.696 -6.70479 -0.436813 0
M  V30 1801 N 174.416 0.165178 -1.56732 0
M  V30 1802 C 175.646 0.894919 -1.86212 0
M  V30 1803 C 176.054 1.76066 -0.692627 0
M  V30 1804 O 175.397 1.80387 0.347303 0
M  V30 1805 C 175.459 1.8174 -3.10179 0
M  V30 1806 C 175.123 1.13064 -4.42793 0
M  V30 1807 C 176.12 0.493169 -5.17556 0
M  V30 1808 C 173.805 1.12556 -4.89527 0
M  V30 1809 C 175.799 -0.140209 -6.37246 0
M  V30 1810 C 173.486 0.488366 -6.09145 0
M  V30 1811 C 174.484 -0.143411 -6.82849 0
M  V30 1812 O 174.172 -0.77055 -8.00199 0
M  V30 1813 H 173.904 0.265114 -0.621844 0
M  V30 1814 H 176.458 0.168242 -2.0471 0
M  V30 1815 H 174.688 2.58455 -2.87642 0
M  V30 1816 H 176.377 2.4175 -3.26055 0
M  V30 1817 H 177.143 0.489023 -4.82528 0
M  V30 1818 H 173.022 1.60672 -4.32094 0
M  V30 1819 H 176.566 -0.633932 -6.94714 0
M  V30 1820 H 172.463 0.490116 -6.43637 0
M  V30 1821 H 173.231 -0.670408 -8.1575 0
M  V30 1822 N 175.894 1.51508 0.433938 0
M  V30 1823 C 177.14 1.64588 1.18484 0
M  V30 1824 C 177.473 0.362666 1.90784 0
M  V30 1825 O 176.748 -0.637892 1.83742 0
M  V30 1826 C 177.031 2.85149 2.19913 0
M  V30 1827 C 176.884 4.23456 1.51674 0
M  V30 1828 C 178.203 3.01227 3.20858 0
M  V30 1829 H 175.322 0.598994 0.429389 0
M  V30 1830 H 177.964 1.84002 0.473647 0
M  V30 1831 H 176.114 2.68729 2.80566 0
M  V30 1832 H 177.786 4.51552 0.943322 0
M  V30 1833 H 176.029 4.25998 0.819035 0
M  V30 1834 H 176.7 5.03812 2.2556 0
M  V30 1835 H 179.176 3.16382 2.70263 0
M  V30 1836 H 178.052 3.87141 3.89118 0
M  V30 1837 H 178.313 2.13447 3.8716 0
M  V30 1838 N 177.372 -0.689602 1.41712 0
M  V30 1839 C 178.649 -1.44457 1.31877 0
M  V30 1840 C 179.029 -2.11039 -0.0508537 0
M  V30 1841 O 178.377 -2.02138 -1.06547 0
M  V30 1842 C 178.587 -2.45913 2.47645 0
M  V30 1843 C 179.935 -3.10991 2.89084 0
M  V30 1844 O 180.959 -2.56238 2.47428 0
M  V30 1845 O 179.818 -4.10174 3.61137 0
M  V30 1846 H 176.912 -0.64362 0.519309 0
M  V30 1847 H 179.458 -0.719576 1.53689 0
M  V30 1848 H 178.23 -1.95409 3.39015 0
M  V30 1849 H 177.853 -3.25913 2.27742 0
M  V30 1850 N 178.85 -1.27639 -0.924453 0
M  V30 1851 C 179.76 -1.12466 -2.05885 0
M  V30 1852 C 180.776 -0.053869 -1.73917 0
M  V30 1853 O 181.952 -0.261012 -1.99702 0
M  V30 1854 C 179.017 -0.776768 -3.37886 0
M  V30 1855 C 178.078 -1.92878 -3.83532 0
M  V30 1856 C 177.311 -1.59739 -5.09234 0
M  V30 1857 O 177.534 -0.506782 -5.68144 0
M  V30 1858 O 176.468 -2.43761 -5.50331 0
M  V30 1859 H 180.294 -2.07671 -2.21599 0
M  V30 1860 H 177.879 -1.06857 -1.04413 0
M  V30 1861 H 179.761 -0.596229 -4.17161 0
M  V30 1862 H 178.436 0.145732 -3.23372 0
M  V30 1863 H 177.343 -2.1644 -3.0513 0
M  V30 1864 H 178.676 -2.8316 -4.02593 0
M  V30 1865 N 180.328 1.1314 -1.09713 0
M  V30 1866 C 181.739 1.66029 -0.853885 0
M  V30 1867 C 182.09 1.86241 0.617142 0
M  V30 1868 O 181.215 1.5834 1.47503 0
M  V30 1869 C 181.81 3.01599 -1.5435 0
M  V30 1870 C 180.369 3.51467 -1.34714 0
M  V30 1871 C 179.516 2.26648 -1.59769 0
M  V30 1872 H 182.467 0.970226 -1.25588 0
M  V30 1873 H 182.488 3.67709 -0.978267 0
M  V30 1874 H 182 2.86856 -2.6141 0
M  V30 1875 H 180.101 3.71408 -0.297838 0
M  V30 1876 H 180.214 4.314 -2.08401 0
M  V30 1877 H 178.578 2.33385 -1.01998 0
M  V30 1878 H 179.361 2.14467 -2.68065 0
M  V30 1879 N 181.806 0.884767 1.30421 0
M  V30 1880 C 183.054 0.502112 1.95763 0
M  V30 1881 C 183.375 -0.951815 1.70192 0
M  V30 1882 O 182.645 -1.6692 1.0254 0
M  V30 1883 H 181.225 0.182694 0.724315 0
M  V30 1884 H 183.887 1.1278 1.58955 0
M  V30 1885 H 182.983 0.672188 3.04775 0
M  V30 1886 N 183.284 -1.43765 0.645699 0
M  V30 1887 C 184.231 -2.30745 -0.0504648 0
M  V30 1888 C 185.201 -1.4432 -0.822241 0
M  V30 1889 O 186.386 -1.73202 -0.800358 0
M  V30 1890 C 183.526 -3.29802 -1.0161 0
M  V30 1891 C 182.639 -4.31326 -0.241219 0
M  V30 1892 C 181.774 -5.17469 -1.19998 0
M  V30 1893 C 180.813 -6.10691 -0.415094 0
M  V30 1894 N 179.95 -6.89483 -1.32506 0
M  V30 1895 H 184.79 -2.8973 0.697155 0
M  V30 1896 H 182.327 -1.42738 0.355563 0
M  V30 1897 H 184.285 -3.85734 -1.58949 0
M  V30 1898 H 182.915 -2.72483 -1.73069 0
M  V30 1899 H 181.967 -3.77749 0.448334 0
M  V30 1900 H 183.279 -4.9743 0.369437 0
M  V30 1901 H 182.433 -5.7799 -1.84424 0
M  V30 1902 H 181.172 -4.51473 -1.84455 0
M  V30 1903 H 180.177 -5.49265 0.242565 0
M  V30 1904 H 181.402 -6.78727 0.224966 0
M  V30 1905 H 179.348 -6.26142 -1.95657 0
M  V30 1906 H 179.265 -7.52081 -0.768783 0
M  V30 1907 H 180.533 -7.54516 -1.9577 0
M  V30 1908 N 184.763 -0.387143 -1.52771 0
M  V30 1909 C 186.04 0.253197 -1.93954 0
M  V30 1910 C 186.42 1.64545 -1.32243 0
M  V30 1911 O 185.768 2.23191 -0.489699 0
M  V30 1912 C 185.978 0.281722 -3.47861 0
M  V30 1913 C 187.326 0.511715 -4.21505 0
M  V30 1914 O 188.35 0.362023 -3.54356 0
M  V30 1915 O 187.209 0.804847 -5.40541 0
M  V30 1916 H 184.303 0.156845 -0.811991 0
M  V30 1917 H 186.849 -0.441494 -1.63856 0
M  V30 1918 H 185.621 -0.693571 -3.85104 0
M  V30 1919 H 185.244 1.02142 -3.84256 0
M  V30 1920 N 186.241 1.57166 -0.116904 0
M  V30 1921 C 187.469 1.99473 0.549383 0
M  V30 1922 C 187.884 0.996541 1.60357 0
M  V30 1923 O 187.241 -0.0108731 1.82497 0
M  V30 1924 C 187.292 3.41788 1.17741 0
M  V30 1925 O 187.013 4.37788 0.165362 0
M  V30 1926 C 188.514 3.99216 1.92722 0
M  V30 1927 H 185.734 0.655009 0.145616 0
M  V30 1928 H 188.278 2.03494 -0.202625 0
M  V30 1929 H 186.433 3.38713 1.88021 0
M  V30 1930 H 186.847 5.20806 0.621403 0
M  V30 1931 H 188.321 5.00882 2.31995 0
M  V30 1932 H 188.798 3.3824 2.80161 0
M  V30 1933 H 189.404 4.0583 1.27209 0
M  V30 1934 N 187.719 -0.156864 1.56817 0
M  V30 1935 C 188.682 -1.17781 1.96622 0
M  V30 1936 C 189.682 -1.36401 0.851555 0
M  V30 1937 O 190.872 -1.33561 1.11836 0
M  V30 1938 C 188.004 -2.54008 2.27361 0
M  V30 1939 H 189.197 -0.836564 2.87996 0
M  V30 1940 H 186.75 -0.39985 1.51099 0
M  V30 1941 H 187.485 -2.9312 1.38748 0
M  V30 1942 H 187.27 -2.41856 3.08623 0
M  V30 1943 H 188.76 -3.27558 2.59029 0
M  V30 1944 N 189.197 -1.51736 -0.425897 0
M  V30 1945 C 190.145 -1.74464 -1.53834 0
M  V30 1946 C 191.139 -0.611241 -1.57988 0
M  V30 1947 O 192.345 -0.792899 -1.61596 0
M  V30 1948 H 188.72 -0.551437 -0.511293 0
M  V30 1949 H 190.691 -2.67694 -1.31843 0
M  V30 1950 C 189.44 -1.8972 -2.91379 0
M  V30 1951 H 188.763 -2.76344 -2.88919 0
M  V30 1952 H 190.203 -2.09629 -3.68553 0
M  V30 1953 C 188.662 -0.65992 -3.30374 0
M  V30 1954 O 189.192 0.180083 -4.01296 0
M  V30 1955 N 187.398 -0.500677 -2.86254 0
M  V30 1956 H 186.945 -1.18532 -2.28709 0
M  V30 1957 H 186.903 0.325903 -3.12706 0
M  V30 1958 N 190.675 0.682077 -1.42076 0
M  V30 1959 C 191.608 1.80666 -1.3941 0
M  V30 1960 C 192.586 1.60518 -0.25939 0
M  V30 1961 O 193.77 1.83088 -0.448456 0
M  V30 1962 C 190.897 3.17556 -1.17796 0
M  V30 1963 C 189.943 3.56468 -2.34164 0
M  V30 1964 S 190.776 3.59729 -3.96681 0
M  V30 1965 C 191.932 4.99323 -3.77395 0
M  V30 1966 H 192.165 1.82652 -2.34575 0
M  V30 1967 H 189.698 0.852062 -1.2876 0
M  V30 1968 H 191.656 3.96575 -1.06012 0
M  V30 1969 H 190.317 3.13164 -0.242279 0
M  V30 1970 H 189.51 4.5595 -2.1477 0
M  V30 1971 H 189.112 2.84792 -2.42425 0
M  V30 1972 H 191.404 5.87202 -3.37935 0
M  V30 1973 H 192.347 5.23763 -4.76527 0
M  V30 1974 H 192.755 4.71498 -3.10403 0
M  V30 1975 N 192.153 1.28127 0.917671 0
M  V30 1976 C 193.085 1.07517 2.02417 0
M  V30 1977 C 194.098 0.0281099 1.62776 0
M  V30 1978 O 195.287 0.270748 1.76435 0
M  V30 1979 C 192.387 0.610957 3.33347 0
M  V30 1980 C 191.56 1.73255 4.01624 0
M  V30 1981 C 190.619 1.26238 5.10833 0
M  V30 1982 O 189.645 1.96389 5.34247 0
M  V30 1983 N 190.847 0.123448 5.80369 0
M  V30 1984 H 193.612 2.02806 2.20658 0
M  V30 1985 H 191.173 1.19827 1.08871 0
M  V30 1986 H 193.165 0.280101 4.0373 0
M  V30 1987 H 191.735 -0.24898 3.11607 0
M  V30 1988 H 190.955 2.23319 3.24842 0
M  V30 1989 H 192.243 2.48503 4.43986 0
M  V30 1990 H 191.641 -0.461847 5.63812 0
M  V30 1991 H 190.198 -0.148158 6.51632 0
M  V30 1992 N 193.631 -1.12557 1.10312 0
M  V30 1993 C 195.047 -1.36036 0.834649 0
M  V30 1994 C 195.247 -1.93946 -0.546539 0
M  V30 1995 O 194.303 -2.16484 -1.29966 0
M  V30 1996 C 195.616 -2.30312 1.9333 0
M  V30 1997 C 197.164 -2.43906 1.9616 0
M  V30 1998 C 197.639 -3.41496 3.05195 0
M  V30 1999 N 199.13 -3.49053 3.04494 0
M  V30 2000 C 199.865 -4.24471 3.85502 0
M  V30 2001 N 199.361 -5.02966 4.76442 0
M  V30 2002 N 201.154 -4.19864 3.73725 0
M  V30 2003 H 193.305 -0.733246 1.99342 0
M  V30 2004 H 195.568 -0.385234 0.866198 0
M  V30 2005 H 195.274 -1.94933 2.92735 0
M  V30 2006 H 195.148 -3.30421 1.81939 0
M  V30 2007 H 197.535 -2.78567 0.973886 0
M  V30 2008 H 197.616 -1.4369 2.11629 0
M  V30 2009 H 197.26 -3.07565 4.04186 0
M  V30 2010 H 197.19 -4.41539 2.86968 0
M  V30 2011 H 199.681 -2.93053 2.38596 0
M  V30 2012 H 199.994 -5.57846 5.34815 0
M  V30 2013 H 198.339 -5.02167 4.80472 0
M  V30 2014 H 201.53 -3.57623 3.02032 0
M  V30 2015 H 201.703 -4.78386 4.37093 0
M  V30 2016 N 195.109 -0.891671 -1.2995 0
M  V30 2017 C 196.355 -0.523649 -1.96544 0
M  V30 2018 C 196.71 0.918394 -1.69066 0
M  V30 2019 O 196.003 1.64122 -0.988659 0
M  V30 2020 C 196.197 -0.742868 -3.49594 0
M  V30 2021 C 196.026 -2.20467 -3.9195 0
M  V30 2022 C 194.796 -2.85055 -4.17219 0
M  V30 2023 C 196.994 -3.17912 -4.04273 0
M  V30 2024 N 194.976 -4.21762 -4.46083 0
M  V30 2025 C 196.347 -4.39712 -4.37097 0
M  V30 2026 C 198.402 -3.1361 -3.86721 0
M  V30 2027 C 197.105 -5.5776 -4.54199 0
M  V30 2028 C 199.131 -4.30936 -4.05028 0
M  V30 2029 C 198.493 -5.51504 -4.38204 0
M  V30 2030 H 194.592 -0.241072 -0.743914 0
M  V30 2031 H 197.176 -1.15081 -1.5705 0
M  V30 2032 H 195.347 -0.14515 -3.88129 0
M  V30 2033 H 197.079 -0.341081 -4.0326 0
M  V30 2034 H 193.834 -2.35889 -4.10674 0
M  V30 2035 H 194.258 -4.92382 -4.64638 0
M  V30 2036 H 198.9 -2.21489 -3.60142 0
M  V30 2037 H 196.618 -6.50379 -4.79618 0
M  V30 2038 H 200.204 -4.29085 -3.92909 0
M  V30 2039 H 199.084 -6.40778 -4.52077 0
M  V30 2040 N 196.587 1.43421 -0.653314 0
M  V30 2041 C 197.534 2.30768 0.0382271 0
M  V30 2042 C 198.504 1.44755 0.814576 0
M  V30 2043 O 199.689 1.73624 0.791162 0
M  V30 2044 C 196.829 3.30336 0.998599 0
M  V30 2045 C 195.942 4.31448 0.218342 0
M  V30 2046 C 195.077 5.18098 1.17252 0
M  V30 2047 C 194.116 6.10902 0.382702 0
M  V30 2048 N 193.253 6.90176 1.28848 0
M  V30 2049 H 198.093 2.89357 -0.712511 0
M  V30 2050 H 195.63 1.42548 -0.363128 0
M  V30 2051 H 197.588 3.86572 1.56901 0
M  V30 2052 H 196.218 2.73397 1.71621 0
M  V30 2053 H 195.27 3.77506 -0.46836 0
M  V30 2054 H 196.582 4.97227 -0.395812 0
M  V30 2055 H 195.736 5.7896 1.81356 0
M  V30 2056 H 194.475 4.52444 1.82058 0
M  V30 2057 H 193.48 5.49128 -0.27169 0
M  V30 2058 H 194.705 6.78598 -0.260957 0
M  V30 2059 H 192.651 6.27171 1.92334 0
M  V30 2060 H 192.568 7.52478 0.728887 0
M  V30 2061 H 193.836 7.55543 1.91766 0
M  V30 2062 N 198.065 0.39524 1.52563 0
M  V30 2063 C 199.314 -0.186321 2.00838 0
M  V30 2064 C 199.627 -1.47402 1.28577 0
M  V30 2065 O 200.833 -2.13599 1.67593 0
M  V30 2066 C 199.289 -0.382595 3.57861 0
M  V30 2067 C 198.897 0.892202 4.39026 0
M  V30 2068 C 200.641 -0.9202 4.14406 0
M  V30 2069 C 198.548 0.66388 5.87662 0
M  V30 2070 H 197.478 -0.0734041 0.750418 0
M  V30 2071 H 200.129 0.518552 1.76021 0
M  V30 2072 H 198.511 -1.14946 3.7895 0
M  V30 2073 H 199.685 1.66414 4.29701 0
M  V30 2074 H 198 1.35519 3.9373 0
M  V30 2075 H 200.597 -1.10683 5.23119 0
M  V30 2076 H 200.94 -1.89096 3.70875 0
M  V30 2077 H 201.473 -0.212751 3.97231 0
M  V30 2078 H 198.212 1.6058 6.35527 0
M  V30 2079 H 197.732 -0.0690193 5.9976 0
M  V30 2080 H 199.411 0.300699 6.46301 0
M  V30 2081 N 199.544 -1.57102 0.125237 0
M  V30 2082 C 200.507 -2.14471 -0.80838 0
M  V30 2083 C 201.507 -1.0811 -1.19033 0
M  V30 2084 O 202.697 -1.33856 -1.11482 0
M  V30 2085 C 199.829 -2.69005 -2.09402 0
M  V30 2086 H 201.022 -2.98297 -0.309696 0
M  V30 2087 H 198.575 -1.55807 -0.124051 0
M  V30 2088 H 199.31 -1.88785 -2.63687 0
M  V30 2089 H 199.095 -3.46799 -1.82957 0
M  V30 2090 H 200.585 -3.13278 -2.76128 0
M  V30 2091 N 201.022 0.148545 -1.56898 0
M  V30 2092 C 202.433 0.708766 -1.72723 0
M  V30 2093 C 202.784 1.81734 -0.739395 0
M  V30 2094 O 201.909 2.16194 0.0943169 0
M  V30 2095 C 202.504 1.29245 -3.13179 0
M  V30 2096 C 201.063 1.79925 -3.30611 0
M  V30 2097 C 200.21 0.687111 -2.68652 0
M  V30 2098 H 203.161 -0.0771063 -1.58513 0
M  V30 2099 H 203.182 2.16224 -3.13093 0
M  V30 2100 H 202.694 0.485382 -3.85053 0
M  V30 2101 H 200.795 2.63203 -2.63732 0
M  V30 2102 H 200.908 1.92903 -4.38549 0
M  V30 2103 H 199.272 1.11335 -2.29078 0
M  V30 2104 H 200.055 -0.108483 -3.43129 0
M  V30 2105 N 202.5 1.5196 0.417844 0
M  V30 2106 C 203.777 1.56146 1.17803 0
M  V30 2107 C 204.157 0.337275 2.08388 0
M  V30 2108 O 203.505 -0.676447 2.18258 0
M  V30 2109 C 203.715 2.88566 1.96293 0
M  V30 2110 C 205.063 3.41244 2.52662 0
M  V30 2111 O 206.087 2.90247 2.06483 0
M  V30 2112 O 204.946 4.30273 3.36938 0
M  V30 2113 H 202.04 0.628598 0.537395 0
M  V30 2114 H 204.586 1.64283 0.425331 0
M  V30 2115 H 203.358 3.69116 1.2988 0
M  V30 2116 H 202.981 2.83681 2.78587 0
M  V30 2117 N 203.978 -0.674533 1.42435 0
M  V30 2118 C 205.224 -1.43521 1.4413 0
M  V30 2119 C 205.579 -1.92316 0.0567773 0
M  V30 2120 O 204.872 -1.68008 -0.921076 0
M  V30 2121 C 205.066 -2.64767 2.40069 0
M  V30 2122 C 204.895 -2.27836 3.87713 0
M  V30 2123 C 203.665 -2.17183 4.56245 0
M  V30 2124 C 205.863 -1.89466 4.78129 0
M  V30 2125 N 203.845 -1.73358 5.88915 0
M  V30 2126 C 205.216 -1.56561 5.99907 0
M  V30 2127 C 207.271 -1.7646 4.65582 0
M  V30 2128 C 205.974 -1.11957 7.10534 0
M  V30 2129 C 208 -1.3326 5.76191 0
M  V30 2130 C 207.362 -1.0128 6.97081 0
M  V30 2131 H 203.461 -0.521656 0.582579 0
M  V30 2132 H 206.045 -0.778381 1.78464 0
M  V30 2133 H 204.216 -3.28139 2.07796 0
M  V30 2134 H 205.948 -3.3136 2.32342 0
M  V30 2135 H 202.703 -2.3626 4.10461 0
M  V30 2136 H 203.127 -1.53867 6.59283 0
M  V30 2137 H 207.769 -1.99831 3.72595 0
M  V30 2138 H 205.487 -0.873318 8.03367 0
M  V30 2139 H 209.073 -1.23717 5.68494 0
M  V30 2140 H 207.953 -0.683597 7.81215 0
M  V30 2141 N 205.456 -1.28612 -0.910864 0
M  V30 2142 C 206.733 -1.06632 -1.63979 0
M  V30 2143 C 207.113 0.393351 -2.07403 0
M  V30 2144 O 206.461 1.37999 -1.82122 0
M  V30 2145 C 206.671 -2.0436 -2.8291 0
M  V30 2146 C 208.019 -2.34666 -3.5386 0
M  V30 2147 O 209.043 -2.02467 -2.93062 0
M  V30 2148 O 207.902 -2.89631 -4.63439 0
M  V30 2149 H 204.996 -0.407737 -0.7195 0
M  V30 2150 H 207.542 -1.39942 -0.959914 0
M  V30 2151 H 206.314 -3.02727 -2.47936 0
M  V30 2152 H 205.937 -1.71714 -3.58609 0
M  V30 2153 N 206.934 1.1197 -1.10907 0
M  V30 2154 C 208.18 1.8386 -0.855773 0
M  V30 2155 C 208.513 1.84134 0.617103 0
M  V30 2156 O 207.788 1.29041 1.45529 0
M  V30 2157 C 208.071 3.31305 -1.411 0
M  V30 2158 C 207.924 3.39456 -2.9511 0
M  V30 2159 C 209.243 4.2721 -1.05736 0
M  V30 2160 H 206.362 0.667545 -0.312334 0
M  V30 2161 H 209.004 1.31331 -1.37303 0
M  V30 2162 H 207.154 3.76169 -0.97105 0
M  V30 2163 H 208.826 3.03191 -3.47668 0
M  V30 2164 H 207.069 2.79849 -3.31462 0
M  V30 2165 H 207.74 4.43209 -3.29044 0
M  V30 2166 H 210.216 3.90497 -1.43706 0
M  V30 2167 H 209.092 5.28775 -1.47269 0
M  V30 2168 H 209.353 4.42088 0.0325958 0
M  V30 2169 N 208.412 0.89855 1.29475 0
M  V30 2170 C 209.359 0.373819 2.27753 0
M  V30 2171 C 210.329 -0.543444 1.56958 0
M  V30 2172 O 211.514 -0.468934 1.84948 0
M  V30 2173 C 208.654 -0.393648 3.42848 0
M  V30 2174 C 207.767 0.554379 4.28428 0
M  V30 2175 C 206.902 -0.230026 5.30702 0
M  V30 2176 C 205.941 0.712599 6.07938 0
M  V30 2177 N 205.078 -0.0373283 7.0209 0
M  V30 2178 H 209.918 1.21699 2.72017 0
M  V30 2179 H 207.455 0.611456 1.33789 0
M  V30 2180 H 209.413 -0.85466 4.08352 0
M  V30 2181 H 208.043 -1.20128 2.99615 0
M  V30 2182 H 207.095 1.13391 3.63107 0
M  V30 2183 H 208.407 1.27597 4.82204 0
M  V30 2184 H 207.561 -0.752288 6.02018 0
M  V30 2185 H 206.3 -0.984758 4.77654 0
M  V30 2186 H 205.305 1.24637 5.35486 0
M  V30 2187 H 206.53 1.46664 6.63074 0
M  V30 2188 H 204.476 -0.774348 6.51414 0
M  V30 2189 H 204.393 0.624374 7.53417 0
M  V30 2190 H 205.661 -0.539891 7.77628 0
M  V30 2191 N 209.89 -1.43072 0.660911 0
M  V30 2192 C 210.82 -2.33497 -0.0122829 0
M  V30 2193 C 211.801 -1.49903 -0.803925 0
M  V30 2194 O 212.986 -1.78546 -0.763864 0
M  V30 2195 C 210.116 -3.33363 -0.973994 0
M  V30 2196 C 209.07 -4.27003 -0.291928 0
M  V30 2197 C 208.396 -5.16967 -1.36562 0
M  V30 2198 C 209.696 -5.15816 0.820462 0
M  V30 2199 H 211.39 -2.90038 0.742873 0
M  V30 2200 H 208.936 -1.39461 0.358688 0
M  V30 2201 H 210.889 -3.95524 -1.45392 0
M  V30 2202 H 209.613 -2.75095 -1.7604 0
M  V30 2203 H 208.272 -3.66217 0.167623 0
M  V30 2204 H 207.92 -4.55034 -2.14366 0
M  V30 2205 H 207.62 -5.80441 -0.914454 0
M  V30 2206 H 209.144 -5.82003 -1.84675 0
M  V30 2207 H 210.558 -5.71742 0.422366 0
M  V30 2208 H 208.955 -5.8805 1.19656 0
M  V30 2209 H 210.025 -4.55045 1.67518 0
M  V30 2210 N 211.368 -0.403325 -1.52352 0
M  V30 2211 C 212.596 0.174012 -2.06167 0
M  V30 2212 C 213.011 1.39347 -1.27388 0
M  V30 2213 O 212.368 1.79597 -0.324201 0
M  V30 2214 C 212.419 0.530223 -3.5759 0
M  V30 2215 O 212.14 -0.640806 -4.33388 0
M  V30 2216 C 213.641 1.16192 -4.27802 0
M  V30 2217 H 210.861 0.0229464 -0.670608 0
M  V30 2218 H 213.405 -0.572604 -1.9632 0
M  V30 2219 H 211.56 1.22673 -3.67464 0
M  V30 2220 H 211.974 -0.344851 -5.23365 0
M  V30 2221 H 213.448 1.36141 -5.34948 0
M  V30 2222 H 213.925 2.13335 -3.83907 0
M  V30 2223 H 214.531 0.505775 -4.22282 0
M  V30 2224 N 212.846 1.57033 -0.133567 0
M  V30 2225 C 214.123 1.87256 0.56522 0
M  V30 2226 C 214.503 1.03726 1.83859 0
M  V30 2227 O 213.851 0.120247 2.28183 0
M  V30 2228 C 214.061 3.3865 0.843636 0
M  V30 2229 C 215.409 4.07574 1.19032 0
M  V30 2230 O 216.433 3.43752 0.933429 0
M  V30 2231 O 215.292 5.20259 1.67312 0
M  V30 2232 H 212.386 0.775678 0.286796 0
M  V30 2233 H 214.932 1.68855 -0.169168 0
M  V30 2234 H 213.704 3.91257 -0.0581149 0
M  V30 2235 H 213.327 3.62532 1.63268 0
M  V30 2236 N 214.325 -0.140222 1.56975 0
M  V30 2237 C 215.602 -0.880769 1.74648 0
M  V30 2238 C 215.982 -1.99036 0.703404 0
M  V30 2239 O 215.33 -2.26821 -0.27648 0
M  V30 2240 C 215.54 -1.417 3.18939 0
M  V30 2241 C 216.888 -1.87774 3.80823 0
M  V30 2242 O 217.912 -1.51427 3.2241 0
M  V30 2243 O 216.771 -2.54827 4.83452 0
M  V30 2244 H 213.865 -0.416713 0.714338 0
M  V30 2245 H 216.411 -0.125618 1.69234 0
M  V30 2246 H 215.183 -0.619902 3.86359 0
M  V30 2247 H 214.806 -2.23546 3.28805 0
M  V30 2248 N 215.803 -1.52179 -0.40978 0
M  V30 2249 C 216.733 -1.78435 -1.5061 0
M  V30 2250 C 217.714 -0.635295 -1.57791 0
M  V30 2251 O 218.899 -0.880823 -1.73076 0
M  V30 2252 C 216.029 -1.93444 -2.88439 0
M  V30 2253 C 214.983 -3.09038 -2.96108 0
M  V30 2254 C 214.309 -3.09268 -4.36185 0
M  V30 2255 C 215.609 -4.48508 -2.67652 0
M  V30 2256 H 217.303 -2.70237 -1.28889 0
M  V30 2257 H 214.849 -1.30036 -0.618605 0
M  V30 2258 H 216.802 -2.10394 -3.65119 0
M  V30 2259 H 215.526 -0.983129 -3.11452 0
M  V30 2260 H 214.185 -2.91837 -2.21872 0
M  V30 2261 H 213.833 -2.11861 -4.56206 0
M  V30 2262 H 213.533 -3.86907 -4.42241 0
M  V30 2263 H 215.057 -3.28348 -5.14801 0
M  V30 2264 H 216.471 -4.65918 -3.34056 0
M  V30 2265 H 214.868 -5.28059 -2.85085 0
M  V30 2266 H 215.938 -4.56649 -1.63095 0
M  V30 2267 N 217.281 0.66697 -1.42791 0
M  V30 2268 C 218.697 0.981027 -1.25889 0
M  V30 2269 C 218.897 2.00793 -0.168695 0
M  V30 2270 O 217.953 2.48321 0.45747 0
M  V30 2271 C 219.266 1.47838 -2.61848 0
M  V30 2272 C 220.814 1.59575 -2.69267 0
M  V30 2273 C 221.289 2.12704 -4.05612 0
M  V30 2274 N 222.78 2.20026 -4.07606 0
M  V30 2275 C 223.515 2.62227 -5.09926 0
M  V30 2276 N 223.011 3.03824 -6.22626 0
M  V30 2277 N 224.804 2.62045 -4.97281 0
M  V30 2278 H 216.955 -0.0127891 -2.12396 0
M  V30 2279 H 219.218 0.0568258 -0.946295 0
M  V30 2280 H 218.924 0.798299 -3.4252 0
M  V30 2281 H 218.798 2.45579 -2.86305 0
M  V30 2282 H 221.185 2.26687 -1.88936 0
M  V30 2283 H 221.266 0.60302 -2.48591 0
M  V30 2284 H 220.91 1.46198 -4.86404 0
M  V30 2285 H 220.84 3.12782 -4.23645 0
M  V30 2286 H 223.331 1.90708 -3.2625 0
M  V30 2287 H 223.644 3.34734 -6.96544 0
M  V30 2288 H 221.989 3.01662 -6.26119 0
M  V30 2289 H 225.18 2.28916 -4.08308 0
M  V30 2290 H 225.353 2.94613 -5.77154 0
M  V30 2291 N 218.759 1.29093 0.90403 0
M  V30 2292 C 220.006 1.16813 1.65411 0
M  V30 2293 C 220.334 -0.28128 1.92455 0
M  V30 2294 O 219.589 -1.22006 1.53013 0
M  V30 2295 C 219.888 1.92224 3.01305 0
M  V30 2296 C 219.554 3.41968 2.93885 0
M  V30 2297 C 218.216 3.82807 2.91569 0
M  V30 2298 C 220.568 4.37409 2.83413 0
M  V30 2299 C 217.896 5.1741 2.76594 0
M  V30 2300 C 220.248 5.72097 2.69977 0
M  V30 2301 C 218.912 6.12199 2.66024 0
M  V30 2302 H 218.182 0.42745 0.605283 0
M  V30 2303 H 220.829 1.59981 1.05254 0
M  V30 2304 H 219.134 1.41635 3.65304 0
M  V30 2305 H 220.831 1.80131 3.58265 0
M  V30 2306 H 217.421 3.09504 2.96488 0
M  V30 2307 H 221.605 4.06813 2.84283 0
M  V30 2308 H 216.861 5.47596 2.71935 0
M  V30 2309 H 221.035 6.45704 2.60844 0
M  V30 2310 H 218.662 7.16448 2.54178 0
M  V30 2311 N 220.237 -1.11381 1.11499 0
M  V30 2312 C 221.185 -2.19522 0.768956 0
M  V30 2313 C 222.179 -1.67693 -0.239857 0
M  V30 2314 O 223.385 -1.79727 -0.0990755 0
M  V30 2315 H 219.76 -0.715711 0.230786 0
M  V30 2316 H 221.731 -2.45954 1.68964 0
M  V30 2317 C 220.48 -3.46945 0.229073 0
M  V30 2318 H 219.803 -3.8718 0.996596 0
M  V30 2319 H 221.243 -4.23993 0.0251441 0
M  V30 2320 C 219.702 -3.2042 -1.04079 0
M  V30 2321 O 220.232 -3.41178 -2.12038 0
M  V30 2322 N 218.438 -2.74151 -0.963823 0
M  V30 2323 H 217.985 -2.57459 -0.0851722 0
M  V30 2324 H 217.943 -2.56781 -1.81414 0
M  V30 2325 N 221.715 -0.905404 -1.28997 0
M  V30 2326 C 222.963 -0.533192 -1.9494 0
M  V30 2327 C 223.284 0.924618 -1.71685 0
M  V30 2328 O 222.554 1.65268 -1.05183 0
M  V30 2329 H 221.134 -0.194194 -0.721317 0
M  V30 2330 H 223.796 -1.15294 -1.57141 0
M  V30 2331 H 222.892 -0.72059 -3.03667 0
M  V30 2332 N 223.193 1.4272 -0.668489 0
M  V30 2333 C 224.439 2.02443 -0.197076 0
M  V30 2334 C 224.794 1.51882 1.18109 0
M  V30 2335 O 224.087 0.708618 1.78015 0
M  V30 2336 C 224.281 3.57021 -0.164499 0
M  V30 2337 C 224.11 4.22583 -1.53797 0
M  V30 2338 C 222.88 4.58019 -2.13416 0
M  V30 2339 C 225.078 4.50588 -2.47941 0
M  V30 2340 N 223.06 5.08729 -3.4361 0
M  V30 2341 C 224.431 5.02782 -3.62782 0
M  V30 2342 C 226.486 4.32571 -2.46551 0
M  V30 2343 C 225.189 5.38852 -4.76478 0
M  V30 2344 C 227.215 4.69713 -3.59338 0
M  V30 2345 C 226.577 5.22053 -4.72906 0
M  V30 2346 H 222.676 0.773214 -0.116894 0
M  V30 2347 H 225.26 1.73673 -0.880108 0
M  V30 2348 H 223.431 3.85323 0.487925 0
M  V30 2349 H 225.163 4.03439 0.319207 0
M  V30 2350 H 221.918 4.43566 -1.65969 0
M  V30 2351 H 222.342 5.38521 -4.10273 0
M  V30 2352 H 226.984 3.91365 -1.59978 0
M  V30 2353 H 224.702 5.78993 -5.63731 0
M  V30 2354 H 228.288 4.57454 -3.59482 0
M  V30 2355 H 227.168 5.50258 -5.58736 0
M  V30 2356 N 224.671 0.411399 1.52136 0
M  V30 2357 C 225.601 -0.404015 2.29978 0
M  V30 2358 C 226.582 -1.04412 1.34284 0
M  V30 2359 O 227.767 -1.0527 1.63192 0
M  V30 2360 C 224.897 -1.5197 3.12286 0
M  V30 2361 C 223.851 -1.00448 4.16046 0
M  V30 2362 C 223.177 -2.21393 4.86712 0
M  V30 2363 C 224.477 -0.0569336 5.22269 0
M  V30 2364 H 226.171 0.245529 2.98392 0
M  V30 2365 H 223.717 0.119525 1.43503 0
M  V30 2366 H 225.67 -2.09715 3.6551 0
M  V30 2367 H 224.394 -2.19716 2.41646 0
M  V30 2368 H 223.053 -0.449421 3.63835 0
M  V30 2369 H 222.701 -2.87699 4.12599 0
M  V30 2370 H 222.401 -1.87571 5.56858 0
M  V30 2371 H 223.925 -2.7974 5.4275 0
M  V30 2372 H 225.339 -0.54325 5.7072 0
M  V30 2373 H 223.736 0.192594 5.99791 0
M  V30 2374 H 224.806 0.887663 4.76706 0
M  V30 2375 N 226.149 -1.5696 0.141893 0
M  V30 2376 C 227.374 -2.00754 -0.520838 0
M  V30 2377 C 227.799 -1.0213 -1.57959 0
M  V30 2378 O 227.157 0.00371324 -1.813 0
M  V30 2379 C 227.205 -3.43318 -1.10294 0
M  V30 2380 O 226.309 -3.47679 -2.21795 0
M  V30 2381 H 225.65 -0.651564 -0.127908 0
M  V30 2382 H 228.18 -2.03221 0.23712 0
M  V30 2383 H 228.19 -3.82012 -1.43287 0
M  V30 2384 H 226.865 -4.14608 -0.327574 0
M  V30 2385 H 225.442 -3.20824 -1.9007 0
M  V30 2386 N 227.627 0.131896 -1.57047 0
M  V30 2387 C 228.56 1.19236 -1.94571 0
M  V30 2388 C 229.538 1.40782 -0.813576 0
M  V30 2389 O 230.722 1.55148 -1.07058 0
M  V30 2390 C 227.849 2.54858 -2.23081 0
M  V30 2391 C 226.895 2.49817 -3.45679 0
M  V30 2392 S 227.728 1.95036 -4.98719 0
M  V30 2393 C 228.884 3.32357 -5.30367 0
M  V30 2394 H 229.117 0.872297 -2.84215 0
M  V30 2395 H 226.65 0.338134 -1.50652 0
M  V30 2396 H 228.608 3.32898 -2.40185 0
M  V30 2397 H 227.269 2.84047 -1.34074 0
M  V30 2398 H 226.462 3.49688 -3.62952 0
M  V30 2399 H 226.064 1.79892 -3.27895 0
M  V30 2400 H 228.356 4.28525 -5.2476 0
M  V30 2401 H 229.299 3.19923 -6.31708 0
M  V30 2402 H 229.707 3.3019 -4.57859 0
M  V30 2403 N 229.106 1.52395 0.401703 0
M  V30 2404 C 230.336 1.70429 1.1678 0
M  V30 2405 C 230.744 0.416702 1.84554 0
M  V30 2406 O 230.087 -0.617697 1.73003 0
M  V30 2407 C 230.149 2.78919 2.26814 0
M  V30 2408 C 229.813 4.20437 1.79113 0
M  V30 2409 C 230.81 5.04028 1.27482 0
M  V30 2410 C 228.495 4.66704 1.85722 0
M  V30 2411 C 230.489 6.31961 0.830913 0
M  V30 2412 C 228.176 5.94625 1.40942 0
M  V30 2413 C 229.174 6.77082 0.897128 0
M  V30 2414 O 228.862 8.02607 0.455822 0
M  V30 2415 H 228.594 0.574272 0.356634 0
M  V30 2416 H 231.148 1.99767 0.477724 0
M  V30 2417 H 229.378 2.44973 2.99207 0
M  V30 2418 H 231.067 2.8548 2.88541 0
M  V30 2419 H 231.833 4.69471 1.21744 0
M  V30 2420 H 227.712 4.0262 2.24539 0
M  V30 2421 H 231.256 6.96271 0.430368 0
M  V30 2422 H 227.153 6.28688 1.46362 0
M  V30 2423 H 227.921 8.16453 0.578457 0
M  V30 2424 N 230.584 -0.659388 1.43143 0
M  V30 2425 C 231.531 -1.77249 1.47822 0
M  V30 2426 C 232.501 -1.62818 0.328558 0
M  V30 2427 O 233.686 -1.83151 0.534838 0
M  V30 2428 C 230.826 -3.15371 1.40126 0
M  V30 2429 C 229.939 -3.4098 2.65249 0
M  V30 2430 C 229.074 -4.68915 2.49584 0
M  V30 2431 C 228.113 -4.87608 3.70006 0
M  V30 2432 N 227.25 -6.06796 3.53189 0
M  V30 2433 H 232.09 -1.72584 2.42938 0
M  V30 2434 H 229.627 -0.842297 1.20598 0
M  V30 2435 H 231.585 -3.9521 1.33659 0
M  V30 2436 H 230.215 -3.19121 0.485964 0
M  V30 2437 H 229.267 -2.55282 2.8202 0
M  V30 2438 H 230.579 -3.50681 3.54717 0
M  V30 2439 H 229.733 -5.56871 2.4079 0
M  V30 2440 H 228.472 -4.61524 1.5763 0
M  V30 2441 H 227.477 -3.9809 3.79215 0
M  V30 2442 H 228.702 -4.96834 4.62961 0
M  V30 2443 H 226.648 -6.00549 2.63965 0
M  V30 2444 H 226.565 -6.17428 4.36255 0
M  V30 2445 H 227.833 -6.9739 3.48236 0
M  V30 2446 N 232.062 -1.29571 -0.897171 0
M  V30 2447 C 233.309 -1.17689 -1.6479 0
M  V30 2448 C 233.637 0.27107 -1.92602 0
M  V30 2449 O 232.892 1.21193 -1.53658 0
M  V30 2450 C 233.191 -1.9382 -3.00281 0
M  V30 2451 C 232.857 -3.43522 -2.92068 0
M  V30 2452 C 231.519 -3.84348 -2.89535 0
M  V30 2453 C 233.871 -4.38906 -2.81089 0
M  V30 2454 C 231.199 -5.18869 -2.73846 0
M  V30 2455 C 233.551 -5.73521 -2.66939 0
M  V30 2456 C 232.215 -6.13601 -2.62774 0
M  V30 2457 H 231.485 -0.430654 -0.603008 0
M  V30 2458 H 234.132 -1.60536 -1.04404 0
M  V30 2459 H 232.437 -1.4357 -3.64547 0
M  V30 2460 H 234.134 -1.82028 -3.57305 0
M  V30 2461 H 230.724 -3.11072 -2.94842 0
M  V30 2462 H 234.908 -4.08315 -2.82121 0
M  V30 2463 H 230.164 -5.4903 -2.69027 0
M  V30 2464 H 234.338 -6.47078 -2.57416 0
M  V30 2465 H 231.965 -7.17786 -2.50375 0
M  V30 2466 N 233.54 1.10788 -1.12088 0
M  V30 2467 C 234.503 2.15207 -0.788577 0
M  V30 2468 C 235.503 1.59609 0.195317 0
M  V30 2469 O 236.693 1.74174 -0.0300193 0
M  V30 2470 C 233.825 3.4047 -0.171174 0
M  V30 2471 H 235.018 2.46116 -1.71368 0
M  V30 2472 H 232.571 1.26089 -0.923652 0
M  V30 2473 H 233.306 3.15176 0.763832 0
M  V30 2474 H 233.091 3.82109 -0.879514 0
M  V30 2475 H 234.581 4.17576 0.04496 0
M  V30 2476 N 235.018 0.912232 1.28515 0
M  V30 2477 C 235.966 0.389597 2.29314 0
M  V30 2478 C 236.96 -0.517915 1.61289 0
M  V30 2479 O 238.166 -0.399328 1.75515 0
M  V30 2480 H 234.541 0.107386 0.744293 0
M  V30 2481 H 236.512 1.25286 2.70825 0
M  V30 2482 C 235.261 -0.356496 3.45868 0
M  V30 2483 H 234.584 0.332608 3.98414 0
M  V30 2484 H 236.024 -0.686851 4.184 0
M  V30 2485 C 234.483 -1.56383 2.98406 0
M  V30 2486 O 235.013 -2.66294 3.00749 0
M  V30 2487 N 233.219 -1.41029 2.54085 0
M  V30 2488 H 232.766 -0.516089 2.52377 0
M  V30 2489 H 232.724 -2.21939 2.22689 0
M  V30 2490 N 236.496 -1.42363 0.676048 0
M  V30 2491 C 237.773 -1.95183 0.127726 0
M  V30 2492 C 238.153 -1.61641 -1.35777 0
M  V30 2493 O 237.501 -0.913216 -2.09458 0
M  V30 2494 C 237.711 -3.46721 0.398199 0
M  V30 2495 C 239.059 -4.23427 0.315383 0
M  V30 2496 O 240.083 -3.54649 0.332016 0
M  V30 2497 O 238.942 -5.45888 0.25865 0
M  V30 2498 H 236.036 -0.826992 0.00359427 0
M  V30 2499 H 238.582 -1.52184 0.750864 0
M  V30 2500 H 237.354 -3.64344 1.4272 0
M  V30 2501 H 236.977 -3.96769 -0.256885 0
M  V30 2502 N 237.974 -0.419461 -1.51915 0
M  V30 2503 C 238.904 0.391813 -2.30189 0
M  V30 2504 C 239.885 1.03699 -1.34836 0
M  V30 2505 O 241.07 1.04403 -1.63748 0
M  V30 2506 C 238.2 1.50312 -3.13087 0
M  V30 2507 C 237.154 0.9824 -4.16573 0
M  V30 2508 C 236.48 2.18809 -4.8788 0
M  V30 2509 C 237.78 0.0292356 -5.22292 0
M  V30 2510 H 239.474 -0.26135 -2.98257 0
M  V30 2511 H 237.02 -0.127134 -1.43438 0
M  V30 2512 H 238.973 2.07773 -3.66617 0
M  V30 2513 H 237.697 2.18431 -2.42807 0
M  V30 2514 H 236.356 0.430119 -3.64068 0
M  V30 2515 H 236.004 2.85507 -4.14119 0
M  V30 2516 H 235.704 1.84615 -5.57845 0
M  V30 2517 H 237.228 2.76858 -5.44226 0
M  V30 2518 H 238.642 0.512976 -5.71 0
M  V30 2519 H 237.039 -0.2244 -5.9968 0
M  V30 2520 H 238.109 -0.912931 -4.76228 0
M  V30 2521 N 239.452 1.56882 -0.150215 0
M  V30 2522 C 240.4 2.18214 0.805313 0
M  V30 2523 C 241.394 1.14006 1.25296 0
M  V30 2524 O 242.6 1.3225 1.22107 0
M  V30 2525 H 238.975 0.698762 0.277913 0
M  V30 2526 H 240.946 2.97231 0.263862 0
M  V30 2527 C 239.695 2.82065 2.03309 0
M  V30 2528 H 239.018 3.61968 1.69763 0
M  V30 2529 H 240.458 3.28477 2.68103 0
M  V30 2530 C 238.917 1.80739 2.84315 0
M  V30 2531 O 239.447 1.27983 3.80767 0
M  V30 2532 N 237.653 1.4997 2.48913 0
M  V30 2533 H 237.2 1.93062 1.70542 0
M  V30 2534 H 237.158 0.824217 3.03404 0
M  V30 2535 N 240.93 -0.123565 1.57115 0
M  V30 2536 C 242.158 -0.846461 1.88793 0
M  V30 2537 C 242.573 -1.73652 0.740976 0
M  V30 2538 O 241.93 -1.80207 -0.288393 0
M  V30 2539 C 241.981 -1.6837 3.19897 0
M  V30 2540 O 241.702 -0.829477 4.30176 0
M  V30 2541 C 243.203 -2.51214 3.65248 0
M  V30 2542 H 240.423 -0.243573 0.625231 0
M  V30 2543 H 242.967 -0.109324 2.04208 0
M  V30 2544 H 241.122 -2.37364 3.06165 0
M  V30 2545 H 241.536 -1.40651 5.0529 0
M  V30 2546 H 243.01 -3.05497 4.59756 0
M  V30 2547 H 243.487 -3.28359 2.9168 0
M  V30 2548 H 244.093 -1.8747 3.81752 0
M  V30 2549 N 242.408 -1.52605 -0.393616 0
M  V30 2550 C 243.636 -1.71294 -1.16043 0
M  V30 2551 C 244.051 -0.429259 -1.83855 0
M  V30 2552 O 243.408 0.595921 -1.72496 0
M  V30 2553 C 243.459 -2.8593 -2.21193 0
M  V30 2554 O 243.18 -4.09329 -1.56146 0
M  V30 2555 C 244.681 -3.16259 -3.10636 0
M  V30 2556 H 241.901 -0.573641 -0.348104 0
M  V30 2557 H 244.445 -1.99234 -0.461092 0
M  V30 2558 H 242.6 -2.60465 -2.86769 0
M  V30 2559 H 243.014 -4.73323 -2.25978 0
M  V30 2560 H 244.488 -3.99946 -3.80456 0
M  V30 2561 H 244.965 -2.3045 -3.73884 0
M  V30 2562 H 245.571 -3.43547 -2.50711 0
M  V30 2563 N 243.887 0.651787 -1.4349 0
M  V30 2564 C 245.135 1.40888 -1.44897 0
M  V30 2565 C 245.456 1.94856 -0.0749086 0
M  V30 2566 O 244.726 1.74518 0.889956 0
M  V30 2567 H 243.306 0.522887 -0.533478 0
M  V30 2568 H 245.968 0.768609 -1.79104 0
M  V30 2569 H 245.064 2.25052 -2.16236 0
M  V30 2570 N 245.365 1.30045 0.890287 0
M  V30 2571 C 246.595 1.21296 1.67245 0
M  V30 2572 C 247.003 -0.227471 1.87828 0
M  V30 2573 O 246.346 -1.16296 1.422 0
M  V30 2574 C 246.408 1.86519 3.07329 0
M  V30 2575 C 246.072 3.35837 3.09939 0
M  V30 2576 C 247.069 4.31915 2.89389 0
M  V30 2577 C 244.754 3.77196 3.31706 0
M  V30 2578 C 246.748 5.67325 2.90552 0
M  V30 2579 C 244.435 5.12725 3.32499 0
M  V30 2580 C 245.433 6.076 3.11947 0
M  V30 2581 O 245.121 7.40655 3.12547 0
M  V30 2582 H 244.853 0.4211 0.528821 0
M  V30 2583 H 247.407 1.72111 1.12103 0
M  V30 2584 H 245.637 1.30228 3.64112 0
M  V30 2585 H 247.326 1.71963 3.67673 0
M  V30 2586 H 248.092 4.01294 2.72375 0
M  V30 2587 H 243.971 3.03796 3.4674 0
M  V30 2588 H 247.515 6.41354 2.74429 0
M  V30 2589 H 243.412 5.42988 3.49047 0
M  V30 2590 H 244.18 7.49577 3.28749 0
M  V30 2591 N 246.843 -1.10192 1.12674 0
M  V30 2592 C 247.806 -2.14786 0.799979 0
M  V30 2593 C 248.806 -1.59711 -0.18685 0
M  V30 2594 O 249.996 -1.74156 0.0392558 0
M  V30 2595 C 247.128 -3.40374 0.189228 0
M  V30 2596 H 248.321 -2.45203 1.72671 0
M  V30 2597 H 245.874 -1.25597 0.930326 0
M  V30 2598 H 246.609 -3.15577 -0.747107 0
M  V30 2599 H 246.394 -3.81637 0.899766 0
M  V30 2600 H 247.884 -4.17594 -0.0228143 0
M  V30 2601 N 248.321 -0.919034 -1.28029 0
M  V30 2602 C 249.598 -0.473668 -1.89778 0
M  V30 2603 C 249.978 1.04783 -1.83259 0
M  V30 2604 O 249.326 1.8982 -1.27202 0
M  V30 2605 C 249.536 -1.00998 -3.34066 0
M  V30 2606 C 250.884 -1.06525 -4.1102 0
M  V30 2607 O 251.908 -0.958996 -3.43048 0
M  V30 2608 O 250.767 -1.22776 -5.3253 0
M  V30 2609 H 247.861 -0.15098 -0.813101 0
M  V30 2610 H 250.407 -1.01016 -1.36359 0
M  V30 2611 H 249.179 -2.05392 -3.33061 0
M  V30 2612 H 248.802 -0.454626 -3.94992 0
M  V30 2613 N 249.799 1.42003 -0.683588 0
M  V30 2614 C 251.027 2.05746 -0.218182 0
M  V30 2615 C 251.442 1.51396 1.12804 0
M  V30 2616 O 250.799 0.657303 1.70252 0
M  V30 2617 C 250.85 3.61171 -0.154131 0
M  V30 2618 O 250.571 4.13508 -1.44716 0
M  V30 2619 C 252.072 4.42042 0.333713 0
M  V30 2620 H 249.292 0.662888 -0.10402 0
M  V30 2621 H 251.836 1.81987 -0.9328 0
M  V30 2622 H 249.991 3.84012 0.511231 0
M  V30 2623 H 250.405 5.07453 -1.32632 0
M  V30 2624 H 251.879 5.51028 0.327423 0
M  V30 2625 H 252.356 4.17269 1.37053 0
M  V30 2626 H 252.962 4.24239 -0.300222 0
M  V30 2627 N 251.277 0.427512 1.51691 0
M  V30 2628 C 252.693 0.0792977 1.59403 0
M  V30 2629 C 252.893 -1.41035 1.43914 0
M  V30 2630 O 251.949 -2.17922 1.27539 0
M  V30 2631 C 253.262 0.590636 2.94842 0
M  V30 2632 C 254.81 0.550215 3.08126 0
M  V30 2633 C 255.285 1.03836 4.46074 0
M  V30 2634 N 256.776 0.995943 4.52366 0
M  V30 2635 C 257.511 1.34463 5.57411 0
M  V30 2636 N 257.007 1.76569 6.69922 0
M  V30 2637 N 258.8 1.26343 5.47717 0
M  V30 2638 H 250.951 1.39687 1.60004 0
M  V30 2639 H 253.214 0.575003 0.753708 0
M  V30 2640 H 252.92 1.63251 3.11516 0
M  V30 2641 H 252.794 0.0102061 3.77199 0
M  V30 2642 H 255.181 -0.482654 2.91126 0
M  V30 2643 H 255.262 1.16693 2.27632 0
M  V30 2644 H 254.906 2.06965 4.63819 0
M  V30 2645 H 254.836 0.398286 5.25092 0
M  V30 2646 H 257.327 0.68661 3.7161 0
M  V30 2647 H 257.64 2.01438 7.46085 0
M  V30 2648 H 255.985 1.80488 6.71155 0
M  V30 2649 H 259.176 0.933209 4.58703 0
M  V30 2650 H 259.349 1.53846 6.29472 0
M  V30 2651 N 252.755 -1.56801 0.158532 0
M  V30 2652 C 254.001 -1.96781 -0.490405 0
M  V30 2653 C 254.334 -1.04397 -1.63753 0
M  V30 2654 O 253.609 -0.0885805 -1.94298 0
M  V30 2655 C 253.892 -3.4635 -0.985594 0
M  V30 2656 C 253.745 -4.49512 0.160824 0
M  V30 2657 C 255.064 -3.98697 -1.86355 0
M  V30 2658 H 252.183 -0.715482 -0.176788 0
M  V30 2659 H 254.825 -1.88451 0.242088 0
M  V30 2660 H 252.975 -3.53579 -1.60978 0
M  V30 2661 H 254.647 -4.54353 0.797537 0
M  V30 2662 H 252.89 -4.26013 0.818256 0
M  V30 2663 H 253.561 -5.51531 -0.227569 0
M  V30 2664 H 256.037 -3.94019 -1.33746 0
M  V30 2665 H 254.913 -5.03792 -2.17909 0
M  V30 2666 H 255.174 -3.41744 -2.8047 0
M  V30 2667 N 254.233 0.115231 -1.57178 0
M  V30 2668 C 255.143 1.15994 -2.03918 0
M  V30 2669 C 256.159 1.45103 -0.960268 0
M  V30 2670 O 257.335 1.56144 -1.27204 0
M  V30 2671 C 254.4 2.46568 -2.43732 0
M  V30 2672 C 253.461 2.24822 -3.65723 0
M  V30 2673 C 252.694 3.4917 -4.03629 0
M  V30 2674 O 252.917 4.56623 -3.41835 0
M  V30 2675 O 251.851 3.39949 -4.96708 0
M  V30 2676 H 255.677 0.793019 -2.93164 0
M  V30 2677 H 253.262 0.3263 -1.45793 0
M  V30 2678 H 255.144 3.23492 -2.70057 0
M  V30 2679 H 253.819 2.82726 -1.57631 0
M  V30 2680 H 252.726 1.45744 -3.44542 0
M  V30 2681 H 254.059 1.93566 -4.52541 0
M  V30 2682 N 255.711 1.52812 0.385517 0
M  V30 2683 C 256.939 1.71907 1.15133 0
M  V30 2684 C 257.354 0.439004 1.83625 0
M  V30 2685 O 256.711 -0.586765 1.7281 0
M  V30 2686 C 256.762 2.87099 2.19673 0
M  V30 2687 O 256.483 4.10151 1.53973 0
M  V30 2688 C 257.984 3.17902 3.08955 0
M  V30 2689 H 255.204 0.575479 0.345057 0
M  V30 2690 H 257.748 1.99476 0.45052 0
M  V30 2691 H 255.903 2.61982 2.85384 0
M  V30 2692 H 256.317 4.74514 2.23465 0
M  V30 2693 H 257.791 4.01959 3.7833 0
M  V30 2694 H 258.268 2.3243 3.72657 0
M  V30 2695 H 258.874 3.44871 2.48885 0
M  V30 2696 N 257.189 -0.644168 1.43834 0
M  V30 2697 C 258.099 -1.78563 1.52159 0
M  V30 2698 C 259.115 -1.69147 0.408069 0
M  V30 2699 O 260.291 -1.90156 0.663524 0
M  V30 2700 C 257.356 -3.14888 1.45073 0
M  V30 2701 C 256.417 -3.36034 2.6717 0
M  V30 2702 C 255.65 -4.65855 2.60413 0
M  V30 2703 O 255.873 -5.45805 1.65689 0
M  V30 2704 O 254.807 -4.88918 3.5106 0
M  V30 2705 H 258.633 -1.74494 2.48567 0
M  V30 2706 H 256.218 -0.80378 1.25935 0
M  V30 2707 H 258.1 -3.96179 1.43597 0
M  V30 2708 H 256.775 -3.19528 0.518037 0
M  V30 2709 H 255.682 -2.54472 2.74217 0
M  V30 2710 H 257.015 -3.36247 3.59442 0
M  V30 2711 N 258.668 -1.30515 -0.883378 0
M  V30 2712 C 259.896 -1.22359 -1.66841 0
M  V30 2713 C 260.311 0.213296 -1.87591 0
M  V30 2714 O 259.668 1.14075 -1.42454 0
M  V30 2715 C 259.719 -1.95011 -3.04389 0
M  V30 2716 O 259.44 -3.3309 -2.84575 0
M  V30 2717 C 260.941 -1.93532 -3.98824 0
M  V30 2718 H 258.161 -0.423371 -0.520575 0
M  V30 2719 H 260.705 -1.72167 -1.10357 0
M  V30 2720 H 258.86 -1.48997 -3.57601 0
M  V30 2721 H 259.274 -3.69907 -3.71846 0
M  V30 2722 H 260.748 -2.48902 -4.92699 0
M  V30 2723 H 261.225 -0.914627 -4.29571 0
M  V30 2724 H 261.831 -2.39364 -3.51547 0
M  V30 2725 N 260.146 1.09593 -1.13257 0
M  V30 2726 C 261.394 1.81375 -0.891492 0
M  V30 2727 C 261.715 1.86049 0.584009 0
M  V30 2728 O 260.985 1.34481 1.42449 0
M  V30 2729 H 259.565 0.671708 -0.326828 0
M  V30 2730 H 262.227 1.3256 -1.42877 0
M  V30 2731 H 261.323 2.84612 -1.28071 0
M  V30 2732 N 261.624 0.925811 1.2754 0
M  V30 2733 C 262.554 0.440748 2.29303 0
M  V30 2734 C 263.535 -0.497971 1.62648 0
M  V30 2735 O 264.72 -0.403126 1.8997 0
M  V30 2736 C 261.85 -0.309048 3.45922 0
M  V30 2737 C 260.804 0.54166 4.24559 0
M  V30 2738 C 260.13 -0.337191 5.33636 0
M  V30 2739 C 261.43 1.80516 4.90114 0
M  V30 2740 H 263.124 1.29121 2.70126 0
M  V30 2741 H 260.67 0.622323 1.29858 0
M  V30 2742 H 262.623 -0.659315 4.1621 0
M  V30 2743 H 261.347 -1.19352 3.04011 0
M  V30 2744 H 260.006 0.874609 3.56014 0
M  V30 2745 H 259.654 -1.22056 4.87966 0
M  V30 2746 H 259.354 0.228497 5.87156 0
M  V30 2747 H 260.878 -0.683072 6.06767 0
M  V30 2748 H 262.292 1.52307 5.52698 0
M  V30 2749 H 260.689 2.3142 5.53683 0
M  V30 2750 H 261.759 2.52581 4.13921 0
M  V30 2751 N 263.102 -1.41638 0.69111 0
M  V30 2752 C 264.034 -2.29194 -0.0161523 0
M  V30 2753 C 265.047 -1.44549 -0.748955 0
M  V30 2754 O 266.236 -1.681 -0.6004 0
M  V30 2755 C 263.336 -3.22325 -1.0469 0
M  V30 2756 C 262.509 -4.35706 -0.384621 0
M  V30 2757 C 261.568 -5.09443 -1.31737 0
M  V30 2758 O 260.594 -5.63386 -0.811451 0
M  V30 2759 N 261.796 -5.16487 -2.64993 0
M  V30 2760 H 264.561 -2.90534 0.735523 0
M  V30 2761 H 262.122 -1.52742 0.53679 0
M  V30 2762 H 264.114 -3.68522 -1.67252 0
M  V30 2763 H 262.684 -2.62323 -1.70015 0
M  V30 2764 H 261.904 -3.91948 0.420804 0
M  V30 2765 H 263.192 -5.08743 0.0760765 0
M  V30 2766 H 262.59 -4.741 -3.08619 0
M  V30 2767 H 261.147 -5.66276 -3.22761 0
M  V30 2768 N 264.58 -0.43555 -1.51462 0
M  V30 2769 C 265.81 0.130053 -2.0619 0
M  V30 2770 C 266.218 1.37164 -1.30317 0
M  V30 2771 O 265.561 1.80225 -0.355598 0
M  V30 2772 C 265.623 0.519418 -3.55728 0
M  V30 2773 C 265.287 -0.615119 -4.52841 0
M  V30 2774 C 266.284 -1.48671 -4.9819 0
M  V30 2775 C 263.969 -0.795341 -4.95963 0
M  V30 2776 C 265.963 -2.52324 -5.8533 0
M  V30 2777 C 263.65 -1.83514 -5.82894 0
M  V30 2778 C 264.648 -2.69748 -6.27475 0
M  V30 2779 O 264.336 -3.71944 -7.1268 0
M  V30 2780 H 264.068 0.0121612 -0.675891 0
M  V30 2781 H 266.622 -0.6129 -1.96043 0
M  V30 2782 H 264.852 1.31505 -3.63653 0
M  V30 2783 H 266.541 1.01597 -3.92979 0
M  V30 2784 H 267.307 -1.359 -4.65571 0
M  V30 2785 H 263.186 -0.133713 -4.60806 0
M  V30 2786 H 266.73 -3.19665 -6.20048 0
M  V30 2787 H 262.627 -1.96306 -6.14926 0
M  V30 2788 H 263.395 -3.68503 -7.30854 0
M  V30 2789 N 266.058 1.56714 -0.166846 0
M  V30 2790 C 267.286 2.0112 0.485644 0
M  V30 2791 C 267.701 1.04705 1.57106 0
M  V30 2792 O 267.058 0.0471923 1.82439 0
M  V30 2793 C 267.109 3.45361 1.06808 0
M  V30 2794 O 266.83 4.38092 0.0259995 0
M  V30 2795 C 268.331 4.05145 1.79924 0
M  V30 2796 H 265.551 0.65931 0.124704 0
M  V30 2797 H 268.095 2.02746 -0.267262 0
M  V30 2798 H 266.25 3.44524 1.7715 0
M  V30 2799 H 266.664 5.22519 0.455398 0
M  V30 2800 H 268.138 5.08009 2.15942 0
M  V30 2801 H 268.615 3.46982 2.69258 0
M  V30 2802 H 269.221 4.09672 1.14234 0
M  V30 2803 N 267.536 -0.106894 1.57237 0
M  V30 2804 C 268.783 -0.812526 1.85484 0
M  V30 2805 C 269.111 -1.79304 0.753687 0
M  V30 2806 O 268.366 -1.94047 -0.253853 0
M  V30 2807 C 268.665 -1.58628 3.20268 0
M  V30 2808 C 268.331 -0.748967 4.44636 0
M  V30 2809 C 266.993 -0.518104 4.78403 0
M  V30 2810 C 269.345 -0.166122 5.20935 0
M  V30 2811 C 266.673 0.305659 5.85903 0
M  V30 2812 C 269.025 0.644899 6.29304 0
M  V30 2813 C 267.689 0.885965 6.61594 0
M  V30 2814 H 266.959 -0.297324 0.678734 0
M  V30 2815 H 269.606 -0.0744332 1.91355 0
M  V30 2816 H 267.911 -2.39562 3.10028 0
M  V30 2817 H 269.608 -2.13643 3.39349 0
M  V30 2818 H 266.198 -0.939006 4.18187 0
M  V30 2819 H 270.382 -0.33167 4.95191 0
M  V30 2820 H 265.638 0.501528 6.0934 0
M  V30 2821 H 269.812 1.10345 6.87602 0
M  V30 2822 H 267.439 1.52609 7.44725 0
M  V30 2823 N 269.014 -1.53014 -0.377408 0
M  V30 2824 C 269.962 -1.7927 -1.48206 0
M  V30 2825 C 270.956 -0.661195 -1.55963 0
M  V30 2826 O 272.162 -0.843908 -1.58991 0
M  V30 2827 H 268.537 -0.567425 -0.493491 0
M  V30 2828 H 270.508 -2.71753 -1.2326 0
M  V30 2829 C 269.257 -1.98894 -2.85196 0
M  V30 2830 H 268.58 -2.85395 -2.79981 0
M  V30 2831 H 270.02 -2.21249 -3.61698 0
M  V30 2832 C 268.479 -0.764691 -3.28107 0
M  V30 2833 O 269.009 0.0523226 -4.01666 0
M  V30 2834 N 267.215 -0.591493 -2.84517 0
M  V30 2835 H 266.762 -1.25749 -2.24822 0
M  V30 2836 H 266.72 0.226253 -3.13585 0
M  V30 2837 N 270.492 0.636531 -1.44174 0
M  V30 2838 C 271.402 1.77754 -1.53103 0
M  V30 2839 C 272.418 1.68928 -0.417034 0
M  V30 2840 O 273.594 1.89801 -0.6736 0
M  V30 2841 C 270.659 3.14115 -1.46741 0
M  V30 2842 C 269.72 3.34612 -2.68948 0
M  V30 2843 C 268.953 4.64467 -2.6288 0
M  V30 2844 O 269.176 5.44919 -1.68581 0
M  V30 2845 O 268.11 4.87049 -3.53648 0
M  V30 2846 H 271.936 1.73174 -2.49489 0
M  V30 2847 H 269.521 0.79709 -1.2636 0
M  V30 2848 H 271.403 3.95412 -1.45696 0
M  V30 2849 H 270.078 3.19249 -0.534975 0
M  V30 2850 H 268.985 2.53014 -2.75562 0
M  V30 2851 H 270.318 3.34336 -3.61221 0
M  V30 2852 N 271.97 1.30982 0.876444 0
M  V30 2853 C 273.198 1.23242 1.6619 0
M  V30 2854 C 273.613 -0.203345 1.87702 0
M  V30 2855 O 272.97 -1.13317 1.43057 0
M  V30 2856 C 273.021 1.96623 3.03351 0
M  V30 2857 O 272.742 3.34594 2.82804 0
M  V30 2858 C 274.243 1.95644 3.97792 0
M  V30 2859 H 271.463 0.426126 0.518322 0
M  V30 2860 H 274.007 1.7275 1.09442 0
M  V30 2861 H 272.162 1.50892 3.56806 0
M  V30 2862 H 272.576 3.71873 3.69879 0
M  V30 2863 H 274.05 2.51511 4.91372 0
M  V30 2864 H 274.527 0.937395 4.2908 0
M  V30 2865 H 275.133 2.41225 3.50272 0
M  V30 2866 N 273.449 -1.08991 1.13837 0
M  V30 2867 C 274.695 -1.81526 0.90422 0
M  V30 2868 C 275.028 -1.85706 -0.568066 0
M  V30 2869 O 274.303 -1.32855 -1.42056 0
M  V30 2870 C 274.586 -3.27447 1.49835 0
M  V30 2871 C 274.439 -3.31512 3.04006 0
M  V30 2872 C 275.758 -4.24256 1.17025 0
M  V30 2873 H 272.877 -0.659029 0.329923 0
M  V30 2874 H 275.519 -1.27644 1.40737 0
M  V30 2875 H 273.669 -3.73462 1.07044 0
M  V30 2876 H 275.341 -2.93867 3.55584 0
M  V30 2877 H 273.584 -2.70963 3.38765 0
M  V30 2878 H 274.255 -4.34329 3.40679 0
M  V30 2879 H 276.731 -3.86549 1.54009 0
M  V30 2880 H 275.607 -5.24684 1.61237 0
M  V30 2881 H 275.868 -4.42019 0.0846274 0
M  V30 2882 N 274.927 -0.932562 -1.27047 0
M  V30 2883 C 275.89 -0.440064 -2.24936 0
M  V30 2884 C 276.89 0.444071 -1.54547 0
M  V30 2885 O 278.08 0.244465 -1.72476 0
M  V30 2886 C 275.212 0.36678 -3.38921 0
M  V30 2887 H 276.405 -1.305 -2.70018 0
M  V30 2888 H 273.958 -0.713707 -1.39054 0
M  V30 2889 H 274.693 1.25033 -2.99228 0
M  V30 2890 H 274.478 -0.267204 -3.91188 0
M  V30 2891 H 275.968 0.701567 -4.11665 0
M  V30 2892 N 276.405 1.4127 -0.698611 0
M  V30 2893 C 277.335 2.33447 -0.049629 0
M  V30 2894 C 278.316 1.51982 0.763898 0
M  V30 2895 O 279.501 1.80509 0.716257 0
M  V30 2896 C 276.631 3.35828 0.885267 0
M  V30 2897 C 275.585 4.27627 0.178613 0
M  V30 2898 C 274.911 5.20406 1.22807 0
M  V30 2899 C 276.211 5.13459 -0.956933 0
M  V30 2900 H 277.905 2.87966 -0.81951 0
M  V30 2901 H 275.451 1.38461 -0.395538 0
M  V30 2902 H 277.404 3.9924 1.34854 0
M  V30 2903 H 276.128 2.79666 1.68685 0
M  V30 2904 H 274.787 3.65643 -0.26466 0
M  V30 2905 H 274.435 4.60558 2.02226 0
M  V30 2906 H 274.135 5.82661 0.760239 0
M  V30 2907 H 275.659 5.86695 1.69179 0
M  V30 2908 H 277.073 5.70421 -0.573805 0
M  V30 2909 H 275.47 5.8467 -1.35205 0
M  V30 2910 H 276.54 4.50443 -1.79524 0
M  V30 2911 N 277.883 0.443576 1.51229 0
M  V30 2912 C 279.299 0.0962001 1.5931 0
M  V30 2913 C 279.499 -1.39501 1.45402 0
M  V30 2914 O 278.555 -2.16557 1.29843 0
M  V30 2915 C 279.868 0.621875 2.94199 0
M  V30 2916 C 281.416 0.582865 3.07525 0
M  V30 2917 C 281.891 1.08562 4.44948 0
M  V30 2918 N 283.382 1.04387 4.51284 0
M  V30 2919 C 284.117 1.40368 5.55954 0
M  V30 2920 N 283.613 1.83664 6.68011 0
M  V30 2921 N 285.406 1.32145 5.46346 0
M  V30 2922 H 277.557 1.41376 1.58514 0
M  V30 2923 H 279.82 0.582965 0.747567 0
M  V30 2924 H 279.526 1.66546 3.09767 0
M  V30 2925 H 279.4 0.0502125 3.77167 0
M  V30 2926 H 281.787 -0.451749 2.91622 0
M  V30 2927 H 281.868 1.191 2.26382 0
M  V30 2928 H 281.512 2.11873 4.61598 0
M  V30 2929 H 281.442 0.453956 5.2464 0
M  V30 2930 H 283.933 0.725986 3.70861 0
M  V30 2931 H 284.246 2.0934 7.43906 0
M  V30 2932 H 282.591 1.87596 6.69203 0
M  V30 2933 H 285.782 0.981808 4.57688 0
M  V30 2934 H 285.955 1.60514 6.27805 0
M  V30 2935 N 279.361 -1.56624 0.175154 0
M  V30 2936 C 280.607 -1.9729 -0.469506 0
M  V30 2937 C 280.94 -1.06128 -1.62636 0
M  V30 2938 O 280.215 -0.109183 -1.94193 0
M  V30 2939 C 280.498 -3.47375 -0.948804 0
M  V30 2940 C 280.351 -4.49317 0.208491 0
M  V30 2941 C 281.67 -4.00652 -1.82116 0
M  V30 2942 H 278.789 -0.717317 -0.16919 0
M  V30 2943 H 281.431 -1.88184 0.262062 0
M  V30 2944 H 279.581 -3.55267 -1.57219 0
M  V30 2945 H 281.253 -4.53482 0.845682 0
M  V30 2946 H 279.496 -4.25121 0.863395 0
M  V30 2947 H 280.167 -5.51741 -0.169059 0
M  V30 2948 H 282.643 -3.95416 -1.2956 0
M  V30 2949 H 281.519 -5.06075 -2.12554 0
M  V30 2950 H 281.78 -3.44699 -2.7683 0
M  V30 2951 N 280.839 0.0985539 -1.57292 0
M  V30 2952 C 281.787 1.1387 -2.02821 0
M  V30 2953 C 282.781 1.41676 -0.928666 0
M  V30 2954 O 283.987 1.41398 -1.11385 0
M  V30 2955 H 280.362 0.384419 -0.646317 0
M  V30 2956 H 282.333 0.728347 -2.89375 0
M  V30 2957 C 281.082 2.45166 -2.46554 0
M  V30 2958 H 280.405 2.24613 -3.3074 0
M  V30 2959 H 281.845 3.16456 -2.8219 0
M  V30 2960 C 280.304 3.09216 -1.33742 0
M  V30 2961 O 280.834 3.96163 -0.66464 0
M  V30 2962 N 279.04 2.69413 -1.08928 0
M  V30 2963 H 278.587 1.98801 -1.63817 0
M  V30 2964 H 278.545 3.12594 -0.336458 0
M  V30 2965 N 282.317 1.53212 0.369288 0
M  V30 2966 C 283.547 1.72868 1.13139 0
M  V30 2967 C 283.955 0.455754 1.83629 0
M  V30 2968 O 283.298 -0.580861 1.74275 0
M  V30 2969 C 283.36 2.83667 2.20847 0
M  V30 2970 C 283.024 4.24142 1.70155 0
M  V30 2971 C 284.021 5.06619 1.16763 0
M  V30 2972 C 281.706 4.70539 1.7578 0
M  V30 2973 C 283.7 6.33581 0.696678 0
M  V30 2974 C 281.387 5.97481 1.28297 0
M  V30 2975 C 282.385 6.78833 0.753307 0
M  V30 2976 O 282.073 8.03393 0.285475 0
M  V30 2977 H 281.805 0.581707 0.344373 0
M  V30 2978 H 284.359 2.00736 0.435243 0
M  V30 2979 H 282.589 2.51265 2.93944 0
M  V30 2980 H 284.278 2.91536 2.82421 0
M  V30 2981 H 285.044 4.71948 1.11758 0
M  V30 2982 H 280.923 4.07293 2.15949 0
M  V30 2983 H 284.467 6.97027 0.282581 0
M  V30 2984 H 280.364 6.31651 1.32994 0
M  V30 2985 H 281.132 8.17497 0.405145 0
M  V30 2986 N 283.795 -0.628877 1.44509 0
M  V30 2987 C 285.025 -1.41349 1.50678 0
M  V30 2988 C 285.433 -1.88745 0.131075 0
M  V30 2989 O 284.776 -1.61592 -0.87371 0
M  V30 2990 C 284.838 -2.66608 2.41165 0
M  V30 2991 C 284.502 -2.40993 3.88293 0
M  V30 2992 C 285.499 -2.0268 4.78766 0
M  V30 2993 C 283.184 -2.54563 4.33016 0
M  V30 2994 C 285.178 -1.78269 6.11963 0
M  V30 2995 C 282.865 -2.29766 5.6626 0
M  V30 2996 C 283.863 -1.91678 6.55552 0
M  V30 2997 O 283.551 -1.67158 7.86329 0
M  V30 2998 H 283.283 -0.439851 0.51333 0
M  V30 2999 H 285.837 -0.776084 1.90174 0
M  V30 3000 H 284.067 -3.32994 1.96601 0
M  V30 3001 H 285.756 -3.28615 2.38259 0
M  V30 3002 H 286.522 -1.91751 4.45485 0
M  V30 3003 H 282.401 -2.83179 3.63773 0
M  V30 3004 H 285.945 -1.48465 6.81619 0
M  V30 3005 H 281.842 -2.40306 5.99102 0
M  V30 3006 H 282.61 -1.81386 7.98149 0
M  V30 3007 N 285.273 -1.31445 -0.869486 0
M  V30 3008 C 286.203 -1.21727 -1.99261 0
M  V30 3009 C 287.184 -0.104359 -1.6978 0
M  V30 3010 O 288.369 -0.289038 -1.92037 0
M  V30 3011 C 285.499 -0.924317 -3.34774 0
M  V30 3012 C 284.453 -1.99685 -3.78563 0
M  V30 3013 C 283.779 -1.55658 -5.11541 0
M  V30 3014 C 285.079 -3.41003 -3.95619 0
M  V30 3015 H 286.773 -2.1569 -2.07649 0
M  V30 3016 H 284.319 -1.03839 -0.997675 0
M  V30 3017 H 286.272 -0.842934 -4.12883 0
M  V30 3018 H 284.996 0.0509793 -3.2656 0
M  V30 3019 H 283.655 -2.06813 -3.02694 0
M  V30 3020 H 283.303 -0.569132 -4.9977 0
M  V30 3021 H 283.003 -2.27409 -5.41811 0
M  V30 3022 H 284.527 -1.48928 -5.92159 0
M  V30 3023 H 285.941 -3.36547 -4.64122 0
M  V30 3024 H 284.338 -4.10975 -4.37286 0
M  V30 3025 H 285.408 -3.81754 -2.98985 0
M  V30 3026 N 286.751 1.08385 -1.14413 0
M  V30 3027 C 287.661 2.18856 -0.844951 0
M  V30 3028 C 288.677 1.73121 0.174668 0
M  V30 3029 O 289.853 2.014 0.00312857 0
M  V30 3030 C 286.918 3.45155 -0.32696 0
M  V30 3031 C 285.979 4.05513 -1.40916 0
M  V30 3032 C 285.212 5.25784 -0.915793 0
M  V30 3033 O 285.435 5.69884 0.242651 0
M  V30 3034 O 284.369 5.77545 -1.69487 0
M  V30 3035 H 288.195 2.46919 -1.76818 0
M  V30 3036 H 285.78 1.17524 -0.922411 0
M  V30 3037 H 287.662 4.21377 -0.0440211 0
M  V30 3038 H 286.337 3.18668 0.568539 0
M  V30 3039 H 285.244 3.30879 -1.74556 0
M  V30 3040 H 286.577 4.3625 -2.27919 0
M  V30 3041 N 288.23 0.939286 1.26551 0
M  V30 3042 C 289.646 0.641304 1.46149 0
M  V30 3043 C 289.846 -0.805964 1.84679 0
M  V30 3044 O 288.902 -1.58278 1.96734 0
M  V30 3045 C 290.215 1.6011 2.54529 0
M  V30 3046 C 291.763 1.6106 2.68382 0
M  V30 3047 C 292.238 2.55765 3.79932 0
M  V30 3048 N 293.729 2.5404 3.87322 0
M  V30 3049 C 294.464 3.24004 4.73085 0
M  V30 3050 N 293.96 4.03388 5.63249 0
M  V30 3051 N 295.753 3.12965 4.66914 0
M  V30 3052 H 287.904 1.87478 0.998285 0
M  V30 3053 H 290.167 0.805559 0.499779 0
M  V30 3054 H 289.873 2.63412 2.33039 0
M  V30 3055 H 289.747 1.35171 3.52149 0
M  V30 3056 H 292.134 0.584835 2.89247 0
M  V30 3057 H 292.215 1.90053 1.71212 0
M  V30 3058 H 291.859 3.58458 3.5982 0
M  V30 3059 H 291.789 2.24063 4.76554 0
M  V30 3060 H 294.28 1.96396 3.22858 0
M  V30 3061 H 294.593 4.5373 6.25579 0
M  V30 3062 H 292.938 4.07489 5.63008 0
M  V30 3063 H 296.129 2.50432 3.95476 0
M  V30 3064 H 296.302 3.67759 5.33533 0
M  V30 3065 N 289.708 -1.40897 0.706093 0
M  V30 3066 C 290.956 -2.00657 0.241054 0
M  V30 3067 C 291.277 -1.56241 -1.16678 0
M  V30 3068 O 290.547 -0.79765 -1.78926 0
M  V30 3069 H 289.127 -0.742018 0.0861308 0
M  V30 3070 H 291.789 -1.72372 0.909604 0
M  V30 3071 H 290.885 -3.10958 0.266705 0
M  V30 3072 N 291.186 -0.45159 -1.50991 0
M  V30 3073 C 292.433 0.110074 -2.02201 0
M  V30 3074 C 292.761 1.4146 -1.33489 0
M  V30 3075 O 292.016 1.90617 -0.443125 0
M  V30 3076 C 292.315 0.361728 -3.55565 0
M  V30 3077 C 291.981 -0.858717 -4.42648 0
M  V30 3078 C 290.643 -1.19338 -4.66167 0
M  V30 3079 C 292.995 -1.67221 -4.93646 0
M  V30 3080 C 290.323 -2.34195 -5.37931 0
M  V30 3081 C 292.675 -2.8119 -5.6667 0
M  V30 3082 C 291.339 -3.15094 -5.88449 0
M  V30 3083 H 290.609 0.040279 -0.739904 0
M  V30 3084 H 293.256 -0.601696 -1.81802 0
M  V30 3085 H 291.561 1.15554 -3.74372 0
M  V30 3086 H 293.258 0.80996 -3.92735 0
M  V30 3087 H 289.848 -0.58796 -4.24548 0
M  V30 3088 H 294.032 -1.42686 -4.75347 0
M  V30 3089 H 289.288 -2.6076 -5.53005 0
M  V30 3090 H 293.462 -3.44585 -6.05173 0
M  V30 3091 H 291.089 -4.04204 -6.43835 0
M  V30 3092 N 292.664 1.56529 -0.183458 0
M  V30 3093 C 293.612 2.19873 0.758845 0
M  V30 3094 C 294.606 1.16638 1.22849 0
M  V30 3095 O 295.812 1.3481 1.19274 0
M  V30 3096 H 292.187 0.7045 0.263029 0
M  V30 3097 H 294.158 2.97724 0.200755 0
M  V30 3098 C 292.907 2.86314 1.9728 0
M  V30 3099 H 292.23 3.65487 1.62047 0
M  V30 3100 H 293.67 3.3409 2.61075 0
M  V30 3101 C 292.129 1.86729 2.80418 0
M  V30 3102 O 292.659 1.36031 3.77966 0
M  V30 3103 N 290.865 1.55216 2.45675 0
M  V30 3104 H 290.412 1.96636 1.66409 0
M  V30 3105 H 290.37 0.888388 3.01588 0
M  V30 3106 N 294.142 -0.090211 1.57342 0
M  V30 3107 C 295.075 -1.14035 1.97664 0
M  V30 3108 C 296.053 -1.38576 0.850616 0
M  V30 3109 O 297.237 -1.52255 1.11134 0
M  V30 3110 C 294.364 -2.48854 2.2976 0
M  V30 3111 C 293.41 -2.40564 3.52181 0
M  V30 3112 S 294.243 -1.81745 5.03715 0
M  V30 3113 C 295.399 -3.18178 5.38993 0
M  V30 3114 H 295.632 -0.796636 2.86428 0
M  V30 3115 H 293.165 -0.298072 1.51496 0
M  V30 3116 H 295.123 -3.26413 2.48927 0
M  V30 3117 H 293.784 -2.80393 1.41558 0
M  V30 3118 H 292.977 -3.39942 3.72096 0
M  V30 3119 H 292.579 -1.71135 3.32549 0
M  V30 3120 H 294.871 -4.14461 5.35937 0
M  V30 3121 H 295.814 -3.03062 6.39968 0
M  V30 3122 H 296.222 -3.17935 4.66452 0
M  V30 3123 N 295.62 -1.53406 -0.361157 0
M  V30 3124 C 296.897 -1.60411 -1.11927 0
M  V30 3125 C 297.277 -0.414385 -2.06993 0
M  V30 3126 O 296.625 0.594976 -2.20618 0
M  V30 3127 C 296.835 -2.95652 -1.85448 0
M  V30 3128 C 298.183 -3.50386 -2.39823 0
M  V30 3129 O 299.207 -2.97711 -1.95568 0
M  V30 3130 O 298.066 -4.42482 -3.20737 0
M  V30 3131 H 295.16 -0.64811 -0.513695 0
M  V30 3132 H 297.706 -1.65749 -0.364065 0
M  V30 3133 H 296.478 -3.73682 -1.16091 0
M  V30 3134 H 296.101 -2.93825 -2.67866 0
M  V30 3135 N 297.098 0.621204 -1.44841 0
M  V30 3136 C 298.375 1.38 -1.38619 0
M  V30 3137 C 298.755 2.11041 -0.0498935 0
M  V30 3138 O 298.103 2.06992 0.967816 0
M  V30 3139 C 298.313 2.33817 -2.59096 0
M  V30 3140 C 299.661 2.96844 -3.03593 0
M  V30 3141 O 300.685 2.44141 -2.59371 0
M  V30 3142 O 299.544 3.92476 -3.80296 0
M  V30 3143 H 296.638 0.61811 -0.549426 0
M  V30 3144 H 299.184 0.645429 -1.56947 0
M  V30 3145 H 297.956 1.79012 -3.47952 0
M  V30 3146 H 297.579 3.14676 -2.43032 0
M  V30 3147 N 298.576 1.31904 0.862503 0
M  V30 3148 C 299.801 1.25135 1.65397 0
M  V30 3149 C 300.226 -0.179 1.87246 0
M  V30 3150 O 299.584 -1.1277 1.4196 0
M  V30 3151 C 299.632 2.00832 2.99498 0
M  V30 3152 O 298.736 1.35075 3.89652 0
M  V30 3153 H 298.077 0.431655 0.504549 0
M  V30 3154 H 300.607 1.74094 1.07483 0
M  V30 3155 H 300.617 2.10709 3.49379 0
M  V30 3156 H 299.292 3.04847 2.82916 0
M  V30 3157 H 297.869 1.33696 3.48109 0
M  V30 3158 N 300.054 -1.07777 1.14986 0
M  V30 3159 C 301.47 -1.32373 0.891596 0
M  V30 3160 C 301.67 -1.9609 -0.463788 0
M  V30 3161 O 300.726 -2.21801 -1.20667 0
M  V30 3162 C 302.039 -2.21905 2.02925 0
M  V30 3163 C 303.587 -2.35367 2.06329 0
M  V30 3164 C 304.062 -3.28245 3.19405 0
M  V30 3165 N 305.553 -3.35824 3.19024 0
M  V30 3166 C 306.288 -4.07739 4.03158 0
M  V30 3167 N 305.784 -4.82306 4.97346 0
M  V30 3168 N 307.577 -4.03635 3.91197 0
M  V30 3169 H 299.728 -0.648039 2.02273 0
M  V30 3170 H 301.991 -0.348149 0.881757 0
M  V30 3171 H 301.697 -1.82342 3.0074 0
M  V30 3172 H 301.571 -3.22407 1.95789 0
M  V30 3173 H 303.958 -2.74186 1.09116 0
M  V30 3174 H 304.039 -1.34585 2.17533 0
M  V30 3175 H 303.683 -2.90146 4.16867 0
M  V30 3176 H 303.613 -4.28971 3.05437 0
M  V30 3177 H 306.104 -2.8267 2.50811 0
M  V30 3178 H 306.417 -5.34661 5.57994 0
M  V30 3179 H 304.762 -4.81337 5.01338 0
M  V30 3180 H 307.953 -3.44491 3.16928 0
M  V30 3181 H 308.126 -4.59417 4.5699 0
M  V30 3182 N 301.532 -0.945985 -1.26051 0
M  V30 3183 C 302.48 -0.450259 -2.282 0
M  V30 3184 C 303.474 0.47497 -1.62605 0
M  V30 3185 O 304.68 0.352653 -1.76512 0
M  V30 3186 H 301.055 -0.127081 -0.741184 0
M  V30 3187 H 303.026 -1.32422 -2.67408 0
M  V30 3188 C 301.775 0.26467 -3.46691 0
M  V30 3189 H 301.098 -0.438123 -3.97392 0
M  V30 3190 H 302.538 0.575678 -4.20074 0
M  V30 3191 C 300.997 1.48416 -3.02447 0
M  V30 3192 O 301.527 2.58227 -3.07704 0
M  V30 3193 N 299.733 1.34243 -2.57735 0
M  V30 3194 H 299.28 0.448994 -2.53657 0
M  V30 3195 H 299.238 2.15957 -2.28495 0
M  V30 3196 N 303.011 1.40521 -0.713556 0
M  V30 3197 C 303.959 2.32549 -0.0485227 0
M  V30 3198 C 304.953 1.51931 0.74922 0
M  V30 3199 O 306.159 1.67745 0.652816 0
M  V30 3200 H 302.534 0.751994 0.00311138 0
M  V30 3201 H 304.505 2.86291 -0.841443 0
M  V30 3202 C 303.254 3.36879 0.860687 0
M  V30 3203 H 302.577 3.98978 0.256246 0
M  V30 3204 H 304.017 4.03772 1.294 0
M  V30 3205 C 302.476 2.72197 1.9852 0
M  V30 3206 O 303.006 2.5837 3.07584 0
M  V30 3207 N 301.212 2.30612 1.76823 0
M  V30 3208 H 300.759 2.42059 0.881217 0
M  V30 3209 H 300.717 1.87672 2.52243 0
M  V30 3210 N 304.489 0.459591 1.5075 0
M  V30 3211 C 305.737 -0.0991532 2.01857 0
M  V30 3212 C 306.058 -1.41247 1.34441 0
M  V30 3213 O 305.328 -1.89775 0.486022 0
M  V30 3214 H 303.908 -0.039633 0.745948 0
M  V30 3215 H 306.57 0.607387 1.85194 0
M  V30 3216 H 305.666 -0.258998 3.11023 0
M  V30 3217 N 305.967 -1.56429 0.191757 0
M  V30 3218 C 306.877 -2.22541 -0.742481 0
M  V30 3219 C 307.893 -1.22342 -1.23727 0
M  V30 3220 O 309.069 -1.55069 -1.28513 0
M  V30 3221 C 306.134 -2.8692 -1.94623 0
M  V30 3222 C 305.195 -4.02378 -1.49633 0
M  V30 3223 C 304.428 -4.63678 -2.6427 0
M  V30 3224 O 304.651 -4.23895 -3.81666 0
M  V30 3225 O 303.585 -5.53202 -2.37174 0
M  V30 3226 H 307.411 -3.02977 -0.209462 0
M  V30 3227 H 304.996 -1.49353 -0.0373832 0
M  V30 3228 H 306.878 -3.27663 -2.64982 0
M  V30 3229 H 305.553 -2.09466 -2.46791 0
M  V30 3230 H 304.46 -3.66265 -0.761636 0
M  V30 3231 H 305.793 -4.81487 -1.02134 0
M  V30 3232 N 307.445 0.0818655 -1.57387 0
M  V30 3233 C 308.692 0.782914 -1.86753 0
M  V30 3234 C 309.02 1.78082 -0.782118 0
M  V30 3235 O 308.275 1.94426 0.22295 0
M  V30 3236 C 308.574 1.53513 -3.22752 0
M  V30 3237 C 308.24 0.678134 -4.45771 0
M  V30 3238 C 306.902 0.441929 -4.79166 0
M  V30 3239 C 309.254 0.0832243 -5.21134 0
M  V30 3240 C 306.582 -0.398833 -5.85343 0
M  V30 3241 C 308.934 -0.744935 -6.28199 0
M  V30 3242 C 307.598 -0.991107 -6.60101 0
M  V30 3243 H 306.868 0.286489 -0.683378 0
M  V30 3244 H 309.515 0.0439808 -1.91449 0
M  V30 3245 H 307.82 2.34599 -3.138 0
M  V30 3246 H 309.517 2.08218 -3.42705 0
M  V30 3247 H 306.107 0.872357 -4.19628 0
M  V30 3248 H 310.291 0.252847 -4.95655 0
M  V30 3249 H 305.547 -0.598405 -6.08465 0
M  V30 3250 H 309.721 -1.21271 -6.8576 0
M  V30 3251 H 307.348 -1.64437 -7.42202 0
M  V30 3252 N 308.923 1.53595 0.353017 0
M  V30 3253 C 310.148 1.7462 1.11904 0
M  V30 3254 C 310.573 0.479721 1.8188 0
M  V30 3255 O 309.931 -0.567066 1.72204 0
M  V30 3256 C 309.979 2.92029 2.11545 0
M  V30 3257 O 309.083 2.61516 3.18878 0
M  V30 3258 H 308.424 0.579531 0.324099 0
M  V30 3259 H 310.954 2.00525 0.406301 0
M  V30 3260 H 310.964 3.18551 2.5493 0
M  V30 3261 H 309.639 3.83888 1.60008 0
M  V30 3262 H 308.216 2.45852 2.80377 0
M  V30 3263 N 310.401 -0.613514 1.45168 0
M  V30 3264 C 311.629 -1.39946 1.5239 0
M  V30 3265 C 312.044 -1.88167 0.154531 0
M  V30 3266 O 311.401 -1.61872 -0.842843 0
M  V30 3267 C 311.452 -2.60795 2.50337 0
M  V30 3268 O 311.173 -2.1458 3.81952 0
M  V30 3269 C 312.674 -3.53723 2.67198 0
M  V30 3270 H 309.894 -0.428593 0.516284 0
M  V30 3271 H 312.438 -0.748753 1.903 0
M  V30 3272 H 310.593 -3.21919 2.15515 0
M  V30 3273 H 311.007 -2.93055 4.34993 0
M  V30 3274 H 312.481 -4.35079 3.39721 0
M  V30 3275 H 312.958 -4.0368 1.73029 0
M  V30 3276 H 313.564 -2.98456 3.02992 0
M  V30 3277 N 311.879 -1.3236 -0.855495 0
M  V30 3278 C 312.811 -1.17052 -1.97057 0
M  V30 3279 C 313.824 -0.10574 -1.62456 0
M  V30 3280 O 315.013 -0.354619 -1.74942 0
M  V30 3281 C 312.113 -0.769305 -3.30053 0
M  V30 3282 C 311.286 -1.9222 -3.929 0
M  V30 3283 C 310.345 -1.50466 -5.04228 0
M  V30 3284 O 309.371 -2.21655 -5.24269 0
M  V30 3285 N 310.573 -0.400209 -5.79119 0
M  V30 3286 H 313.338 -2.13103 -2.1073 0
M  V30 3287 H 310.899 -1.24885 -1.0303 0
M  V30 3288 H 312.891 -0.472407 -4.01933 0
M  V30 3289 H 311.461 0.100025 -3.1244 0
M  V30 3290 H 310.681 -2.38563 -3.13817 0
M  V30 3291 H 311.969 -2.69403 -4.31624 0
M  V30 3292 H 311.367 0.192319 -5.65373 0
M  V30 3293 H 309.924 -0.162912 -6.51596 0
M  V30 3294 N 313.357 1.07166 -1.15556 0
M  V30 3295 C 314.267 2.17947 -0.868116 0
M  V30 3296 C 315.283 1.73297 0.156297 0
M  V30 3297 O 316.459 2.01392 -0.0182327 0
M  V30 3298 C 313.524 3.44789 -0.36355 0
M  V30 3299 C 312.585 4.03996 -1.45209 0
M  V30 3300 C 311.818 5.24783 -0.971508 0
M  V30 3301 O 312.041 5.70109 0.182194 0
M  V30 3302 O 310.975 5.75715 -1.75603 0
M  V30 3303 H 314.801 2.4503 -1.79427 0
M  V30 3304 H 312.386 1.16539 -0.934824 0
M  V30 3305 H 314.268 4.21307 -0.0887113 0
M  V30 3306 H 312.943 3.19253 0.534708 0
M  V30 3307 H 311.85 3.29009 -1.78056 0
M  V30 3308 H 313.183 4.33808 -2.32533 0
M  V30 3309 N 314.835 0.952656 1.25548 0
M  V30 3310 C 316.084 0.602053 1.92505 0
M  V30 3311 C 316.397 -0.864663 1.75451 0
M  V30 3312 O 317.603 -1.32514 2.36965 0
M  V30 3313 C 316.059 1.02607 3.44963 0
M  V30 3314 C 315.667 2.51519 3.70732 0
M  V30 3315 C 317.411 0.747905 4.1786 0
M  V30 3316 C 315.318 2.87732 5.16686 0
M  V30 3317 H 314.248 0.22146 0.720744 0
M  V30 3318 H 316.899 1.15684 1.42441 0
M  V30 3319 H 315.281 0.399712 3.93978 0
M  V30 3320 H 316.455 3.19157 3.32378 0
M  V30 3321 H 314.77 2.76786 3.11092 0
M  V30 3322 H 317.367 0.994647 5.25367 0
M  V30 3323 H 317.71 -0.315629 4.15102 0
M  V30 3324 H 318.243 1.33452 3.74747 0
M  V30 3325 H 314.982 3.93095 5.24554 0
M  V30 3326 H 314.502 2.24765 5.56094 0
M  V30 3327 H 316.181 2.76817 5.84792 0
M  V30 3328 N 316.313 -1.40141 0.720998 0
M  V30 3329 C 317.729 -1.54632 0.395113 0
M  V30 3330 C 317.929 -1.69115 -1.09555 0
M  V30 3331 O 316.985 -1.68377 -1.88163 0
M  V30 3332 C 318.298 -2.77177 1.1659 0
M  V30 3333 C 319.846 -2.91 1.15274 0
M  V30 3334 C 320.321 -4.16465 1.90579 0
M  V30 3335 N 321.812 -4.23476 1.87675 0
M  V30 3336 C 322.547 -5.19475 2.42762 0
M  V30 3337 N 322.043 -6.21348 3.06428 0
M  V30 3338 N 323.836 -5.11592 2.32874 0
M  V30 3339 H 315.987 -1.28986 1.68749 0
M  V30 3340 H 318.25 -0.62412 0.713567 0
M  V30 3341 H 317.956 -2.72771 2.22011 0
M  V30 3342 H 317.83 -3.69442 0.76108 0
M  V30 3343 H 320.217 -2.94907 0.106702 0
M  V30 3344 H 320.298 -1.99838 1.59682 0
M  V30 3345 H 319.942 -4.1332 2.95176 0
M  V30 3346 H 319.872 -5.06646 1.43587 0
M  V30 3347 H 322.363 -3.50497 1.41281 0
M  V30 3348 H 322.676 -6.91034 3.45965 0
M  V30 3349 H 321.021 -6.21777 3.10514 0
M  V30 3350 H 324.212 -4.30936 1.82789 0
M  V30 3351 H 324.385 -5.86233 2.76106 0
M  V30 3352 N 317.792 -0.46758 -1.50504 0
M  V30 3353 C 318.755 0.317059 -2.26996 0
M  V30 3354 C 319.755 0.923513 -1.31635 0
M  V30 3355 O 320.945 0.793239 -1.55091 0
M  V30 3356 C 318.077 1.45134 -3.08462 0
M  V30 3357 H 319.27 -0.353723 -2.97807 0
M  V30 3358 H 316.823 -0.221545 -1.54722 0
M  V30 3359 H 317.558 2.15728 -2.4214 0
M  V30 3360 H 317.343 1.02232 -3.78538 0
M  V30 3361 H 318.833 2.00493 -3.66323 0
M  V30 3362 N 319.27 1.56325 -0.20005 0
M  V30 3363 C 320.5 2.01811 0.442232 0
M  V30 3364 C 320.908 1.07932 1.55394 0
M  V30 3365 O 320.251 0.0772685 1.83537 0
M  V30 3366 C 320.313 3.43685 1.05457 0
M  V30 3367 C 319.977 4.56928 0.0809833 0
M  V30 3368 C 320.974 5.15009 -0.711471 0
M  V30 3369 C 318.659 5.0229 -0.0315364 0
M  V30 3370 C 320.653 6.16904 -1.60336 0
M  V30 3371 C 318.34 6.04028 -0.926981 0
M  V30 3372 C 319.338 6.6121 -1.71146 0
M  V30 3373 O 319.026 7.60971 -2.59189 0
M  V30 3374 H 318.758 0.666173 0.114848 0
M  V30 3375 H 321.312 2.03085 -0.307511 0
M  V30 3376 H 319.542 3.39413 1.85299 0
M  V30 3377 H 321.231 3.72948 1.60201 0
M  V30 3378 H 321.997 4.80827 -0.634873 0
M  V30 3379 H 317.876 4.57476 0.568902 0
M  V30 3380 H 321.42 6.61464 -2.21611 0
M  V30 3381 H 317.317 6.37634 -1.00468 0
M  V30 3382 H 318.085 7.7841 -2.53023 0
M  V30 3383 N 320.748 -0.0735177 1.57428 0
M  V30 3384 C 321.678 -1.0879 2.06608 0
M  V30 3385 C 322.659 -1.40473 0.959237 0
M  V30 3386 O 323.844 -1.5013 1.23185 0
M  V30 3387 C 320.974 -2.40183 2.50857 0
M  V30 3388 C 319.928 -2.22858 3.65402 0
M  V30 3389 C 319.254 -3.59619 3.957 0
M  V30 3390 C 320.554 -1.65123 4.95511 0
M  V30 3391 H 322.248 -0.678673 2.91607 0
M  V30 3392 H 319.794 -0.325013 1.40284 0
M  V30 3393 H 321.747 -3.11437 2.83874 0
M  V30 3394 H 320.471 -2.83083 1.62885 0
M  V30 3395 H 319.13 -1.54045 3.32664 0
M  V30 3396 H 318.778 -4.00086 3.04861 0
M  V30 3397 H 318.478 -3.48866 4.72828 0
M  V30 3398 H 320.002 -4.32306 4.31212 0
M  V30 3399 H 321.416 -2.26241 5.26771 0
M  V30 3400 H 319.813 -1.65071 5.7695 0
M  V30 3401 H 320.883 -0.612559 4.81015 0
M  V30 3402 N 322.226 -1.5378 -0.344866 0
M  V30 3403 C 323.637 -1.62428 -0.920552 0
M  V30 3404 C 323.988 -0.504747 -1.89596 0
M  V30 3405 O 323.113 0.365711 -2.13287 0
M  V30 3406 C 323.708 -2.94419 -1.67639 0
M  V30 3407 C 322.267 -3.05333 -2.20111 0
M  V30 3408 C 321.414 -2.57866 -1.01982 0
M  V30 3409 H 324.365 -1.58222 -0.123042 0
M  V30 3410 H 324.386 -2.83384 -2.53917 0
M  V30 3411 H 323.898 -3.7588 -0.966224 0
M  V30 3412 H 321.999 -2.28502 -2.94308 0
M  V30 3413 H 322.112 -4.10778 -2.46573 0
M  V30 3414 H 320.476 -2.13241 -1.39285 0
M  V30 3415 H 321.259 -3.41765 -0.324308 0
M  V30 3416 N 323.704 0.605807 -1.45491 0
M  V30 3417 C 324.634 1.72709 -1.57143 0
M  V30 3418 C 325.615 1.6476 -0.422884 0
M  V30 3419 O 326.8 1.83132 -0.646247 0
M  V30 3420 C 323.93 3.11316 -1.53948 0
M  V30 3421 C 322.884 3.34077 -2.67537 0
M  V30 3422 C 322.21 4.72975 -2.49397 0
M  V30 3423 C 323.51 3.24158 -4.09535 0
M  V30 3424 H 325.204 1.63214 -2.51001 0
M  V30 3425 H 322.75 0.78379 -1.208 0
M  V30 3426 H 324.703 3.89557 -1.60696 0
M  V30 3427 H 323.427 3.21655 -0.566205 0
M  V30 3428 H 322.086 2.58227 -2.6022 0
M  V30 3429 H 321.734 4.8005 -1.50205 0
M  V30 3430 H 321.434 4.8916 -3.25571 0
M  V30 3431 H 322.958 5.53414 -2.58002 0
M  V30 3432 H 324.372 3.92271 -4.18086 0
M  V30 3433 H 322.769 3.51872 -4.86113 0
M  V30 3434 H 323.839 2.2157 -4.31317 0
M  V30 3435 N 325.182 1.32811 0.848464 0
M  V30 3436 C 326.41 1.26739 1.63538 0
M  V30 3437 C 326.825 -0.163484 1.88091 0
M  V30 3438 O 326.182 -1.10258 1.45429 0
M  V30 3439 C 326.233 2.03013 2.99112 0
M  V30 3440 O 325.954 3.40518 2.75643 0
M  V30 3441 C 327.455 2.04038 3.93552 0
M  V30 3442 H 324.675 0.437024 0.509167 0
M  V30 3443 H 327.219 1.75033 1.05753 0
M  V30 3444 H 325.374 1.58426 3.53525 0
M  V30 3445 H 325.788 3.79635 3.61908 0
M  V30 3446 H 327.262 2.61877 4.85926 0
M  V30 3447 H 327.739 1.0282 4.26995 0
M  V30 3448 H 328.345 2.486 3.45077 0
M  V30 3449 N 326.66 -1.06551 1.16123 0
M  V30 3450 C 327.59 -2.15935 0.88851 0
M  V30 3451 C 328.571 -1.69306 -0.164135 0
M  V30 3452 O 329.756 -1.94193 -0.0167857 0
M  V30 3453 C 326.886 -3.45149 0.385942 0
M  V30 3454 C 325.84 -4.05271 1.3762 0
M  V30 3455 C 325.166 -5.29664 0.732137 0
M  V30 3456 C 326.466 -4.44355 2.74493 0
M  V30 3457 H 328.16 -2.39006 1.80323 0
M  V30 3458 H 325.706 -1.14866 0.868435 0
M  V30 3459 H 327.659 -4.21004 0.182647 0
M  V30 3460 H 326.383 -3.21689 -0.564274 0
M  V30 3461 H 325.042 -3.3147 1.56599 0
M  V30 3462 H 324.69 -5.02499 -0.224483 0
M  V30 3463 H 324.39 -5.70848 1.39307 0
M  V30 3464 H 325.914 -6.08218 0.538802 0
M  V30 3465 H 327.328 -5.11303 2.59311 0
M  V30 3466 H 325.725 -4.96515 3.37035 0
M  V30 3467 H 326.795 -3.55339 3.29943 0
M  V30 3468 N 328.138 -0.959301 -1.25041 0
M  V30 3469 C 329.386 -0.615393 -1.92503 0
M  V30 3470 C 329.707 0.850969 -1.75452 0
M  V30 3471 O 328.977 1.60658 -1.12098 0
M  V30 3472 H 327.557 -0.224613 -0.712431 0
M  V30 3473 H 330.219 -1.21855 -1.5211 0
M  V30 3474 H 329.315 -0.848738 -3.00338 0
M  V30 3475 N 329.616 1.39756 -0.72842 0
M  V30 3476 C 330.564 2.32485 -0.0731849 0
M  V30 3477 C 331.558 1.52717 0.733063 0
M  V30 3478 O 332.764 1.68428 0.634988 0
M  V30 3479 H 329.139 0.751984 -0.00486469 0
M  V30 3480 H 331.11 2.85382 -0.871761 0
M  V30 3481 C 329.859 3.37773 0.824908 0
M  V30 3482 H 329.182 3.99227 0.213915 0
M  V30 3483 H 330.622 4.05121 1.25111 0
M  V30 3484 C 329.081 2.74287 1.95622 0
M  V30 3485 O 329.611 2.61618 3.04826 0
M  V30 3486 N 327.817 2.32475 1.74367 0
M  V30 3487 H 327.364 2.4298 0.855494 0
M  V30 3488 H 327.322 1.90337 2.50238 0
M  V30 3489 N 331.094 0.475555 1.50254 0
M  V30 3490 C 332.044 -0.335025 2.25525 0
M  V30 3491 C 333.028 -0.957625 1.29299 0
M  V30 3492 O 334.22 -0.869436 1.54175 0
M  V30 3493 C 331.349 -1.41385 3.12834 0
M  V30 3494 C 330.435 -0.798762 4.1651 0
M  V30 3495 N 330.826 0.0835815 5.05731 0
M  V30 3496 C 329.124 -1.06221 4.33166 0
M  V30 3497 C 329.825 0.433113 5.80085 0
M  V30 3498 N 328.801 -0.1928 5.43258 0
M  V30 3499 H 332.603 0.344612 2.91873 0
M  V30 3500 H 330.117 0.289986 1.5979 0
M  V30 3501 H 332.114 -2.00777 3.65368 0
M  V30 3502 H 330.774 -2.09543 2.48036 0
M  V30 3503 H 331.785 0.452715 5.15918 0
M  V30 3504 H 328.462 -1.73844 3.79585 0
M  V30 3505 H 329.852 1.15346 6.61925 0
M  V30 3506 N 332.573 -1.56217 0.208337 0
M  V30 3507 C 333.798 -2.02782 -0.435222 0
M  V30 3508 C 334.223 -1.08738 -1.53485 0
M  V30 3509 O 333.581 -0.0731855 -1.81152 0
M  V30 3510 C 333.629 -3.47687 -0.956335 0
M  V30 3511 O 332.733 -3.56773 -2.06849 0
M  V30 3512 H 332.074 -0.656403 -0.100158 0
M  V30 3513 H 334.604 -2.02033 0.3231 0
M  V30 3514 H 334.614 -3.87745 -1.26955 0
M  V30 3515 H 333.289 -4.15624 -0.15143 0
M  V30 3516 H 331.866 -3.28597 -1.76292 0
M  V30 3517 N 334.051 0.0651679 -1.57465 0
M  V30 3518 C 335.297 0.764193 -1.87851 0
M  V30 3519 C 335.63 1.76889 -0.801495 0
M  V30 3520 O 334.905 1.93594 0.187528 0
M  V30 3521 C 335.188 1.46625 -3.28897 0
M  V30 3522 C 335.041 0.477515 -4.47258 0
M  V30 3523 C 336.36 2.4095 -3.68281 0
M  V30 3524 H 333.479 0.276351 -0.683227 0
M  V30 3525 H 336.121 0.0272868 -1.8998 0
M  V30 3526 H 334.271 2.09438 -3.27212 0
M  V30 3527 H 335.943 -0.145922 -4.61069 0
M  V30 3528 H 334.186 -0.206576 -4.33308 0
M  V30 3529 H 334.857 1.0065 -5.42746 0
M  V30 3530 H 337.333 1.88209 -3.71102 0
M  V30 3531 H 336.209 2.87072 -4.67847 0
M  V30 3532 H 336.47 3.26049 -2.98571 0
M  V30 3533 N 335.529 1.53961 0.336706 0
M  V30 3534 C 336.757 1.75483 1.09605 0
M  V30 3535 C 337.172 0.4972 1.82136 0
M  V30 3536 O 336.529 -0.53149 1.74589 0
M  V30 3537 C 336.58 2.93943 2.10428 0
M  V30 3538 O 336.301 4.14842 1.40846 0
M  V30 3539 C 337.802 3.27571 2.98684 0
M  V30 3540 H 335.022 0.586166 0.326574 0
M  V30 3541 H 337.566 2.00808 0.38683 0
M  V30 3542 H 335.721 2.70929 2.76905 0
M  V30 3543 H 336.135 4.81383 2.08255 0
M  V30 3544 H 337.609 4.13791 3.6535 0
M  V30 3545 H 338.086 2.44168 3.65074 0
M  V30 3546 H 338.692 3.52615 2.37787 0
M  V30 3547 N 337.007 -0.598083 1.45811 0
M  V30 3548 C 338.418 -1.18011 1.44673 0
M  V30 3549 C 338.769 -1.95378 0.179364 0
M  V30 3550 O 337.894 -2.04124 -0.718509 0
M  V30 3551 C 338.489 -2.14677 2.62105 0
M  V30 3552 C 337.048 -2.68236 2.64057 0
M  V30 3553 C 336.195 -1.43816 2.37091 0
M  V30 3554 H 339.146 -0.38686 1.53913 0
M  V30 3555 H 339.167 -2.97878 2.36746 0
M  V30 3556 H 338.679 -1.5834 3.5433 0
M  V30 3557 H 336.78 -3.28486 1.75864 0
M  V30 3558 H 336.893 -3.12021 3.63566 0
M  V30 3559 H 335.257 -1.731 1.86838 0
M  V30 3560 H 336.04 -0.893333 3.31473 0
M  V30 3561 N 338.485 -1.33259 -0.841409 0
M  V30 3562 C 339.715 -1.2742 -1.62628 0
M  V30 3563 C 340.123 0.157604 -1.88542 0
M  V30 3564 O 339.466 1.10938 -1.46419 0
M  V30 3565 C 339.528 -1.97797 -3.00194 0
M  V30 3566 C 339.192 -3.47109 -2.97261 0
M  V30 3567 C 340.189 -4.42358 -2.73159 0
M  V30 3568 C 337.874 -3.89247 -3.17478 0
M  V30 3569 C 339.868 -5.77718 -2.69296 0
M  V30 3570 C 337.555 -5.24713 -3.13241 0
M  V30 3571 C 338.553 -6.1876 -2.89181 0
M  V30 3572 O 338.241 -7.51745 -2.84843 0
M  V30 3573 H 337.973 -0.440436 -0.512827 0
M  V30 3574 H 340.527 -1.76153 -1.05638 0
M  V30 3575 H 338.757 -1.43652 -3.59028 0
M  V30 3576 H 340.446 -1.8549 -3.61038 0
M  V30 3577 H 341.212 -4.11127 -2.57294 0
M  V30 3578 H 337.091 -3.16456 -3.35226 0
M  V30 3579 H 340.635 -6.51097 -2.50436 0
M  V30 3580 H 336.532 -5.55569 -3.28654 0
M  V30 3581 H 337.3 -7.61262 -3.00702 0
M  V30 3582 N 339.963 1.05934 -1.16686 0
M  V30 3583 C 341.191 1.8249 -0.974929 0
M  V30 3584 C 341.606 1.82679 0.476861 0
M  V30 3585 O 340.963 1.2486 1.33103 0
M  V30 3586 C 341.014 3.28943 -1.49929 0
M  V30 3587 O 340.735 3.28886 -2.89423 0
M  V30 3588 C 342.236 4.22215 -1.35089 0
M  V30 3589 H 339.456 0.575295 -0.345365 0
M  V30 3590 H 342 1.33631 -1.548 0
M  V30 3591 H 340.155 3.751 -0.968423 0
M  V30 3592 H 340.569 4.20493 -3.13506 0
M  V30 3593 H 342.043 5.22987 -1.76603 0
M  V30 3594 H 342.52 4.38195 -0.296935 0
M  V30 3595 H 343.126 3.81907 -1.87155 0
M  V30 3596 N 341.441 0.965919 1.2453 0
M  V30 3597 C 342.857 0.67216 1.44756 0
M  V30 3598 C 343.057 -0.766609 1.86347 0
M  V30 3599 O 342.113 -1.5407 2.00047 0
M  V30 3600 C 343.426 1.65473 2.51076 0
M  V30 3601 C 344.974 1.66716 2.64905 0
M  V30 3602 C 345.449 2.63766 3.74421 0
M  V30 3603 N 346.94 2.62198 3.81846 0
M  V30 3604 C 347.675 3.33966 4.66106 0
M  V30 3605 N 347.171 4.15245 5.54566 0
M  V30 3606 N 348.964 3.22799 4.60171 0
M  V30 3607 H 341.115 1.89553 0.958293 0
M  V30 3608 H 343.378 0.815979 0.482579 0
M  V30 3609 H 343.084 2.68296 2.27399 0
M  V30 3610 H 342.958 1.4261 3.49202 0
M  V30 3611 H 345.345 0.646057 2.87941 0
M  V30 3612 H 345.426 1.93642 1.67142 0
M  V30 3613 H 345.07 3.6601 3.52135 0
M  V30 3614 H 345 2.34121 4.71694 0
M  V30 3615 H 347.491 2.032 3.18619 0
M  V30 3616 H 347.804 4.66898 6.15814 0
M  V30 3617 H 346.149 4.1934 5.54237 0
M  V30 3618 H 349.34 2.58764 3.90075 0
M  V30 3619 H 349.513 3.78994 5.25612 0
M  V30 3620 N 342.919 -1.39368 0.735821 0
M  V30 3621 C 344.168 -1.99733 0.281004 0
M  V30 3622 C 344.481 -1.59055 -1.13846 0
M  V30 3623 O 345.687 -2.12262 -1.69284 0
M  V30 3624 C 344.143 -3.57057 0.451462 0
M  V30 3625 C 343.751 -4.06697 1.87886 0
M  V30 3626 C 345.495 -4.2446 0.0584616 0
M  V30 3627 C 343.402 -5.56598 1.99883 0
M  V30 3628 H 342.332 -0.747163 0.101311 0
M  V30 3629 H 344.983 -1.59357 0.909819 0
M  V30 3630 H 343.365 -3.95234 -0.246263 0
M  V30 3631 H 344.539 -3.79853 2.60861 0
M  V30 3632 H 342.854 -3.5196 2.22515 0
M  V30 3633 H 345.451 -5.34549 0.127099 0
M  V30 3634 H 345.794 -4.04444 -0.986433 0
M  V30 3635 H 346.327 -3.9146 0.707374 0
M  V30 3636 H 343.066 -5.81494 3.02564 0
M  V30 3637 H 342.586 -5.85242 1.31346 0
M  V30 3638 H 344.265 -6.22022 1.78039 0
M  V30 3639 N 344.397 -0.483516 -1.5 0
M  V30 3640 C 345.645 0.067027 -2.01989 0
M  V30 3641 C 345.966 1.3909 -1.36671 0
M  V30 3642 O 345.236 1.88978 -0.516152 0
M  V30 3643 H 343.816 0.0277606 -0.746484 0
M  V30 3644 H 346.478 -0.636773 -1.84204 0
M  V30 3645 H 345.574 0.209484 -3.11396 0
M  V30 3646 N 345.875 1.56104 -0.216619 0
M  V30 3647 C 346.805 2.23063 0.690296 0
M  V30 3648 C 347.786 1.20072 1.20485 0
M  V30 3649 O 348.971 1.48643 1.24976 0
M  V30 3650 C 346.101 2.90672 1.90072 0
M  V30 3651 C 345.055 4.00092 1.5202 0
M  V30 3652 C 344.381 4.54972 2.80899 0
M  V30 3653 C 345.681 5.17398 0.71391 0
M  V30 3654 H 347.375 2.99109 0.132038 0
M  V30 3655 H 344.921 1.43866 0.0620664 0
M  V30 3656 H 346.874 3.36204 2.54057 0
M  V30 3657 H 345.598 2.12066 2.48386 0
M  V30 3658 H 344.257 3.55283 0.903839 0
M  V30 3659 H 343.905 3.73102 3.37348 0
M  V30 3660 H 343.605 5.28817 2.56176 0
M  V30 3661 H 345.129 5.0322 3.45836 0
M  V30 3662 H 346.543 5.59342 1.25735 0
M  V30 3663 H 344.94 5.97444 0.563951 0
M  V30 3664 H 346.01 4.84088 -0.280527 0
M  V30 3665 N 347.353 -0.0568162 1.57498 0
M  V30 3666 C 348.63 -0.786954 1.79071 0
M  V30 3667 C 349.01 -1.95028 0.80792 0
M  V30 3668 O 348.358 -2.27968 -0.155858 0
M  V30 3669 C 348.568 -1.24594 3.26002 0
M  V30 3670 C 349.916 -1.67323 3.90241 0
M  V30 3671 O 350.94 -1.34124 3.29984 0
M  V30 3672 O 349.799 -2.28842 4.9628 0
M  V30 3673 H 346.893 -0.378262 0.735423 0
M  V30 3674 H 349.439 -0.035734 1.69662 0
M  V30 3675 H 348.211 -0.41423 3.89101 0
M  V30 3676 H 347.834 -2.05803 3.40192 0
M  V30 3677 N 348.832 -1.54138 -0.328536 0
M  V30 3678 C 350.248 -1.44736 -0.672574 0
M  V30 3679 C 350.448 -0.616217 -1.91846 0
M  V30 3680 O 349.504 -0.113067 -2.52247 0
M  V30 3681 C 350.817 -2.884 -0.851217 0
M  V30 3682 C 352.365 -2.98271 -0.948877 0
M  V30 3683 C 352.84 -4.43074 -1.15973 0
M  V30 3684 N 354.331 -4.46665 -1.22658 0
M  V30 3685 C 355.066 -5.55857 -1.40751 0
M  V30 3686 N 354.562 -6.75026 -1.5592 0
M  V30 3687 N 356.355 -5.43495 -1.4342 0
M  V30 3688 H 348.506 -2.06661 0.490421 0
M  V30 3689 H 350.769 -0.934812 0.157579 0
M  V30 3690 H 350.475 -3.51699 -0.00704236 0
M  V30 3691 H 350.349 -3.34225 -1.74853 0
M  V30 3692 H 352.736 -2.35102 -1.78356 0
M  V30 3693 H 352.817 -2.55785 -0.0281435 0
M  V30 3694 H 352.461 -5.06827 -0.329915 0
M  V30 3695 H 352.391 -4.83165 -2.09426 0
M  V30 3696 H 354.882 -3.60797 -1.124 0
M  V30 3697 H 355.195 -7.54004 -1.69404 0
M  V30 3698 H 353.54 -6.77944 -1.53027 0
M  V30 3699 H 356.731 -4.49349 -1.31162 0
M  V30 3700 H 356.904 -6.28649 -1.57178 0
M  V30 3701 N 350.31 0.590341 -1.46126 0
M  V30 3702 C 351.556 1.34874 -1.52252 0
M  V30 3703 C 351.911 1.91658 -0.168807 0
M  V30 3704 O 351.204 1.73093 0.821556 0
M  V30 3705 C 351.398 2.5032 -2.55097 0
M  V30 3706 C 351.227 2.04843 -4.00337 0
M  V30 3707 C 349.997 1.90213 -4.68132 0
M  V30 3708 C 352.195 1.61267 -4.88362 0
M  V30 3709 N 350.177 1.38727 -5.9802 0
M  V30 3710 C 351.548 1.21319 -6.08015 0
M  V30 3711 C 353.603 1.49015 -4.75078 0
M  V30 3712 C 352.306 0.7034 -7.15852 0
M  V30 3713 C 354.332 0.994401 -5.8298 0
M  V30 3714 C 353.694 0.604659 -7.018 0
M  V30 3715 H 349.793 0.486803 -0.612002 0
M  V30 3716 H 352.377 0.673007 -1.82698 0
M  V30 3717 H 350.548 3.15466 -2.26574 0
M  V30 3718 H 352.28 3.1725 -2.51266 0
M  V30 3719 H 349.035 2.11927 -4.23537 0
M  V30 3720 H 349.459 1.15168 -6.67132 0
M  V30 3721 H 354.101 1.77768 -3.83612 0
M  V30 3722 H 351.819 0.403446 -8.07092 0
M  V30 3723 H 355.405 0.903621 -5.7474 0
M  V30 3724 H 354.285 0.226963 -7.83871 0
M  V30 3725 N 351.788 1.33704 0.83433 0
M  V30 3726 C 353.013 1.28615 1.62705 0
M  V30 3727 C 353.438 -0.139242 1.87584 0
M  V30 3728 O 352.796 -1.09734 1.4432 0
M  V30 3729 C 352.844 2.07139 2.95171 0
M  V30 3730 O 351.948 1.4331 3.86699 0
M  V30 3731 H 351.289 0.44226 0.49528 0
M  V30 3732 H 353.819 1.76335 1.03766 0
M  V30 3733 H 353.829 2.18073 3.44831 0
M  V30 3734 H 352.504 3.10779 2.76386 0
M  V30 3735 H 351.081 1.4105 3.45195 0
M  V30 3736 N 353.266 -1.05314 1.17247 0
M  V30 3737 C 354.214 -2.15137 0.884238 0
M  V30 3738 C 355.208 -1.68729 -0.15063 0
M  V30 3739 O 356.414 -1.8 -0.00366673 0
M  V30 3740 H 352.789 -0.702471 0.2684 0
M  V30 3741 H 354.76 -2.36652 1.81764 0
M  V30 3742 C 353.509 -3.45243 0.412659 0
M  V30 3743 H 352.832 -3.81352 1.20043 0
M  V30 3744 H 354.272 -4.23263 0.249858 0
M  V30 3745 C 352.731 -3.25487 -0.86948 0
M  V30 3746 O 353.261 -3.51938 -1.93655 0
M  V30 3747 N 351.467 -2.78875 -0.817147 0
M  V30 3748 H 351.014 -2.57549 0.0514211 0
M  V30 3749 H 350.972 -2.66036 -1.67547 0
M  V30 3750 N 354.744 -0.972509 -1.24016 0
M  V30 3751 C 355.99 -0.647583 -1.92816 0
M  V30 3752 C 356.345 0.809015 -1.74564 0
M  V30 3753 O 355.638 1.57502 -1.09103 0
M  V30 3754 C 355.832 -0.963694 -3.44162 0
M  V30 3755 C 355.661 -2.44947 -3.77135 0
M  V30 3756 C 354.431 -3.11012 -3.98246 0
M  V30 3757 C 356.629 -3.42978 -3.83237 0
M  V30 3758 N 354.611 -4.49277 -4.18358 0
M  V30 3759 C 355.982 -4.66619 -4.08248 0
M  V30 3760 C 358.037 -3.37569 -3.65994 0
M  V30 3761 C 356.74 -5.85516 -4.17808 0
M  V30 3762 C 358.766 -4.55822 -3.76802 0
M  V30 3763 C 358.128 -5.78256 -4.02243 0
M  V30 3764 H 354.227 -0.287894 -0.727077 0
M  V30 3765 H 356.811 -1.24835 -1.49413 0
M  V30 3766 H 354.982 -0.391692 -3.8642 0
M  V30 3767 H 356.714 -0.596849 -4.00275 0
M  V30 3768 H 353.469 -2.61529 -3.94841 0
M  V30 3769 H 353.893 -5.20935 -4.32384 0
M  V30 3770 H 358.535 -2.43945 -3.45327 0
M  V30 3771 H 356.253 -6.79564 -4.37285 0
M  V30 3772 H 359.839 -4.53204 -3.64825 0
M  V30 3773 H 358.719 -6.68231 -4.10411 0
M  V30 3774 N 356.222 1.38976 -0.743202 0
M  V30 3775 C 357.499 1.94351 -0.220705 0
M  V30 3776 C 357.879 1.67935 1.2791 0
M  V30 3777 O 357.227 1.01211 2.04862 0
M  V30 3778 C 357.437 3.44426 -0.563171 0
M  V30 3779 C 358.785 4.2144 -0.517046 0
M  V30 3780 O 359.809 3.52661 -0.500846 0
M  V30 3781 O 358.668 5.44032 -0.518806 0
M  V30 3782 H 355.762 0.825879 -0.043047 0
M  V30 3783 H 358.308 1.48429 -0.822618 0
M  V30 3784 H 357.08 3.5712 -1.59941 0
M  V30 3785 H 356.703 3.97543 0.0672883 0
M  V30 3786 N 357.7 0.491464 1.49741 0
M  V30 3787 C 358.946 -0.0485431 2.03342 0
M  V30 3788 C 359.301 -1.35566 1.36527 0
M  V30 3789 O 358.594 -1.85262 0.488729 0
M  V30 3790 C 358.788 -0.267329 3.56399 0
M  V30 3791 C 358.617 1.01703 4.38049 0
M  V30 3792 C 357.387 1.56614 4.80417 0
M  V30 3793 C 359.585 1.91782 4.77204 0
M  V30 3794 N 357.567 2.7974 5.4646 0
M  V30 3795 C 358.938 2.99489 5.42868 0
M  V30 3796 C 360.993 1.92575 4.5915 0
M  V30 3797 C 359.696 4.08005 5.92389 0
M  V30 3798 C 361.722 3.0006 5.09626 0
M  V30 3799 C 361.084 4.06485 5.75282 0
M  V30 3800 H 357.183 0.0227779 0.781668 0
M  V30 3801 H 359.767 0.664204 1.8302 0
M  V30 3802 H 357.938 -0.949126 3.76625 0
M  V30 3803 H 359.67 -0.803492 3.96644 0
M  V30 3804 H 356.425 1.11256 4.60347 0
M  V30 3805 H 356.849 3.42323 5.84075 0
M  V30 3806 H 361.491 1.11605 4.07804 0
M  V30 3807 H 359.209 4.89779 6.42761 0
M  V30 3808 H 362.795 3.01681 4.97473 0
M  V30 3809 H 361.675 4.88287 6.13633 0
M  V30 3810 N 359.178 -1.55987 0.224894 0
M  V30 3811 C 360.11 -2.17722 -0.716224 0
M  V30 3812 C 361.123 -1.14723 -1.15509 0
M  V30 3813 O 362.312 -1.41688 -1.08567 0
M  V30 3814 C 359.412 -2.74873 -1.98238 0
M  V30 3815 C 358.585 -4.03074 -1.69853 0
M  V30 3816 C 357.644 -4.44757 -2.81208 0
M  V30 3817 O 356.67 -5.11587 -2.49534 0
M  V30 3818 N 357.872 -4.10716 -4.10235 0
M  V30 3819 H 360.637 -2.99109 -0.188123 0
M  V30 3820 H 358.198 -1.6184 0.0440123 0
M  V30 3821 H 360.19 -2.99727 -2.7193 0
M  V30 3822 H 358.76 -1.9777 -2.42086 0
M  V30 3823 H 357.98 -3.86041 -0.797875 0
M  V30 3824 H 359.268 -4.86701 -1.48324 0
M  V30 3825 H 358.666 -3.57019 -4.38809 0
M  V30 3826 H 357.223 -4.40455 -4.80461 0
M  V30 3827 N 360.656 0.0484629 -1.57525 0
M  V30 3828 C 361.933 0.777447 -1.79486 0
M  V30 3829 C 362.313 1.94597 -0.818251 0
M  V30 3830 O 361.661 2.28047 0.143767 0
M  V30 3831 C 361.871 1.22864 -3.26658 0
M  V30 3832 C 363.219 1.65251 -3.91123 0
M  V30 3833 O 364.243 1.32372 -3.3069 0
M  V30 3834 O 363.102 2.26207 -4.97486 0
M  V30 3835 H 360.196 0.374357 -0.737419 0
M  V30 3836 H 362.742 0.0267359 -1.69679 0
M  V30 3837 H 361.514 0.393589 -3.89316 0
M  V30 3838 H 361.137 2.03996 -3.41279 0
M  V30 3839 N 362.134 1.5431 0.320358 0
M  V30 3840 C 363.411 1.63322 1.07635 0
M  V30 3841 C 363.791 0.46912 2.05821 0
M  V30 3842 O 363.139 -0.536274 2.22118 0
M  V30 3843 C 363.349 3.00465 1.77544 0
M  V30 3844 C 364.697 3.56621 2.30449 0
M  V30 3845 O 365.721 3.02791 1.87606 0
M  V30 3846 O 364.58 4.5083 3.08892 0
M  V30 3847 H 361.674 0.661502 0.496331 0
M  V30 3848 H 364.22 1.66656 0.319992 0
M  V30 3849 H 362.992 3.76629 1.06143 0
M  V30 3850 H 362.615 3.00824 2.59982 0
M  V30 3851 N 363.613 -0.582584 1.46437 0
M  V30 3852 C 364.862 -1.337 1.5102 0
M  V30 3853 C 365.175 -1.94891 0.166359 0
M  V30 3854 O 366.381 -2.71351 0.0899954 0
M  V30 3855 C 364.837 -2.42315 2.66104 0
M  V30 3856 C 364.445 -1.87427 4.06909 0
M  V30 3857 C 366.189 -3.19099 2.79958 0
M  V30 3858 C 364.096 -2.93672 5.13333 0
M  V30 3859 H 363.026 -0.502619 0.562041 0
M  V30 3860 H 365.677 -0.621701 1.72647 0
M  V30 3861 H 364.059 -3.16645 2.37807 0
M  V30 3862 H 365.233 -1.19639 4.44998 0
M  V30 3863 H 363.548 -1.2331 3.97723 0
M  V30 3864 H 366.145 -3.9839 3.56636 0
M  V30 3865 H 366.488 -3.71695 1.87479 0
M  V30 3866 H 367.021 -2.51875 3.07902 0
M  V30 3867 H 363.76 -2.45962 6.07604 0
M  V30 3868 H 363.28 -3.59948 4.79789 0
M  V30 3869 H 364.959 -3.5762 5.39182 0
M  V30 3870 N 365.091 -1.34144 -0.827227 0
M  V30 3871 C 366.001 -1.27428 -1.96975 0
M  V30 3872 C 367.017 -0.182728 -1.73038 0
M  V30 3873 O 368.193 -0.408426 -1.97215 0
M  V30 3874 C 365.258 -1.02526 -3.31194 0
M  V30 3875 C 364.319 -2.20796 -3.68168 0
M  V30 3876 C 363.552 -1.97073 -4.95982 0
M  V30 3877 O 363.775 -0.926822 -5.6282 0
M  V30 3878 O 362.709 -2.83912 -5.30733 0
M  V30 3879 H 366.535 -2.23537 -2.05584 0
M  V30 3880 H 364.12 -1.14307 -0.961989 0
M  V30 3881 H 366.002 -0.904026 -4.11589 0
M  V30 3882 H 364.677 -0.0945389 -3.23562 0
M  V30 3883 H 363.584 -2.38477 -2.88235 0
M  V30 3884 H 364.917 -3.12243 -3.8048 0
M  V30 3885 N 366.569 1.04691 -1.17803 0
M  V30 3886 C 367.985 1.29963 -0.926379 0
M  V30 3887 C 368.185 1.97251 0.411635 0
M  V30 3888 O 367.241 2.24922 1.14744 0
M  V30 3889 C 368.554 2.16447 -2.08737 0
M  V30 3890 C 370.102 2.29814 -2.12496 0
M  V30 3891 C 370.577 3.19661 -3.27995 0
M  V30 3892 N 372.068 3.27247 -3.27816 0
M  V30 3893 C 372.803 3.96906 -4.13827 0
M  V30 3894 N 372.299 4.6895 -5.09959 0
M  V30 3895 N 374.092 3.93122 -4.01761 0
M  V30 3896 H 366.243 0.594182 -2.0392 0
M  V30 3897 H 368.506 0.324649 -0.890678 0
M  V30 3898 H 368.212 1.74304 -3.05469 0
M  V30 3899 H 368.086 3.17103 -2.04268 0
M  V30 3900 H 370.473 2.71196 -1.16347 0
M  V30 3901 H 370.554 1.2877 -2.21025 0
M  V30 3902 H 370.198 2.78991 -4.24413 0
M  V30 3903 H 370.128 4.20722 -3.16703 0
M  V30 3904 H 372.619 2.75921 -2.58217 0
M  V30 3905 H 372.932 5.19679 -5.71974 0
M  V30 3906 H 371.277 4.67875 -5.13924 0
M  V30 3907 H 374.468 3.35967 -3.2595 0
M  V30 3908 H 374.641 4.47139 -4.6901 0
M  V30 3909 N 368.047 0.979072 1.23499 0
M  V30 3910 C 368.957 0.526431 2.28617 0
M  V30 3911 C 369.973 -0.418126 1.68901 0
M  V30 3912 O 371.149 -0.288372 1.99325 0
M  V30 3913 C 368.214 -0.165235 3.46306 0
M  V30 3914 C 367.275 0.82056 4.21385 0
M  V30 3915 C 366.508 0.161807 5.33455 0
M  V30 3916 O 366.731 -1.04742 5.60701 0
M  V30 3917 O 365.665 0.859708 5.95729 0
M  V30 3918 H 369.491 1.4006 2.69475 0
M  V30 3919 H 367.076 0.746643 1.29405 0
M  V30 3920 H 368.958 -0.553287 4.17752 0
M  V30 3921 H 367.633 -1.01419 3.07402 0
M  V30 3922 H 366.54 1.25929 3.52268 0
M  V30 3923 H 367.873 1.63828 4.64135 0
M  V30 3924 N 369.525 -1.3858 0.750561 0
M  V30 3925 C 370.773 -1.99789 0.30477 0
M  V30 3926 C 371.094 -1.59874 -1.11649 0
M  V30 3927 O 370.364 -0.85417 -1.76297 0
M  V30 3928 H 368.944 -0.738902 0.109694 0
M  V30 3929 H 371.606 -1.69391 0.963983 0
M  V30 3930 H 370.702 -3.09952 0.365499 0
M  V30 3931 N 371.003 -0.499398 -1.49478 0
M  V30 3932 C 371.953 0.299103 -2.2603 0
M  V30 3933 C 372.937 0.936934 -1.30807 0
M  V30 3934 O 374.129 0.844798 -1.55538 0
M  V30 3935 C 371.258 1.36391 -3.15044 0
M  V30 3936 C 370.344 0.732398 -4.17728 0
M  V30 3937 N 370.735 -0.164028 -5.05534 0
M  V30 3938 C 369.033 0.993162 -4.34801 0
M  V30 3939 C 369.734 -0.525345 -5.79323 0
M  V30 3940 N 368.71 0.106348 -5.43496 0
M  V30 3941 H 372.512 -0.391003 -2.91287 0
M  V30 3942 H 370.026 -0.31537 -1.59308 0
M  V30 3943 H 372.023 1.94939 -3.68516 0
M  V30 3944 H 370.683 2.05571 -2.51338 0
M  V30 3945 H 371.694 -0.534736 -5.15132 0
M  V30 3946 H 368.371 1.67783 -3.82302 0
M  V30 3947 H 369.761 -1.25862 -6.60006 0
M  V30 3948 N 372.481 1.55866 -0.233164 0
M  V30 3949 C 373.758 1.90471 0.444988 0
M  V30 3950 C 374.138 1.15209 1.7689 0
M  V30 3951 O 373.486 0.265119 2.26957 0
M  V30 3952 C 373.696 3.4333 0.626559 0
M  V30 3953 C 375.044 4.14319 0.92871 0
M  V30 3954 O 376.068 3.48993 0.712926 0
M  V30 3955 O 374.927 5.29846 1.33887 0
M  V30 3956 H 372.021 0.792347 0.236885 0
M  V30 3957 H 374.567 1.67437 -0.276211 0
M  V30 3958 H 373.339 3.90095 -0.306822 0
M  V30 3959 H 372.962 3.72181 1.39881 0
M  V30 3960 N 373.959 -0.0401083 1.57549 0
M  V30 3961 C 375.206 -0.733125 1.88763 0
M  V30 3962 C 375.534 -1.75946 0.829058 0
M  V30 3963 O 374.789 -1.94949 -0.171323 0
M  V30 3964 C 375.088 -1.44902 3.26708 0
M  V30 3965 C 374.754 -0.559707 4.47413 0
M  V30 3966 C 373.416 -0.314731 4.8017 0
M  V30 3967 C 375.768 0.0549743 5.21171 0
M  V30 3968 C 373.096 0.553886 5.8408 0
M  V30 3969 C 375.448 0.911229 6.26003 0
M  V30 3970 C 374.112 1.16577 6.57241 0
M  V30 3971 H 373.382 -0.268269 0.690733 0
M  V30 3972 H 376.029 0.00679408 1.91499 0
M  V30 3973 H 374.334 -2.26197 3.1991 0
M  V30 3974 H 376.031 -1.99058 3.48105 0
M  V30 3975 H 372.621 -0.760793 4.21794 0
M  V30 3976 H 376.805 -0.121344 4.96152 0
M  V30 3977 H 372.061 0.759518 6.06664 0
M  V30 3978 H 376.235 1.3941 6.82303 0
M  V30 3979 H 373.862 1.84058 7.37582 0
M  V30 3980 N 375.437 -1.54477 -0.31217 0
M  V30 3981 C 376.385 -1.85395 -1.40469 0
M  V30 3982 C 377.379 -0.726749 -1.53019 0
M  V30 3983 O 378.585 -0.910582 -1.55269 0
M  V30 3984 H 374.96 -0.587845 -0.46898 0
M  V30 3985 H 376.931 -2.76736 -1.11623 0
M  V30 3986 C 375.68 -2.10811 -2.76503 0
M  V30 3987 H 375.003 -2.97014 -2.67625 0
M  V30 3988 H 376.443 -2.3639 -3.51988 0
M  V30 3989 C 374.902 -0.903165 -3.24568 0
M  V30 3990 O 375.432 -0.118085 -4.01526 0
M  V30 3991 N 373.638 -0.711634 -2.81752 0
M  V30 3992 H 373.185 -1.35171 -2.19286 0
M  V30 3993 H 373.143 0.0930473 -3.14262 0
M  V30 3994 N 376.915 0.57481 -1.46744 0
M  V30 3995 C 378.331 0.898981 -1.31873 0
M  V30 3996 C 378.531 1.99313 -0.29605 0
M  V30 3997 O 377.587 2.50728 0.298621 0
M  V30 3998 C 378.9 1.30886 -2.7072 0
M  V30 3999 C 380.448 1.42127 -2.78871 0
M  V30 4000 C 380.923 1.86478 -4.18318 0
M  V30 4001 N 382.414 1.93658 -4.20774 0
M  V30 4002 C 383.149 2.29267 -5.2557 0
M  V30 4003 N 382.645 2.63612 -6.40688 0
M  V30 4004 N 384.438 2.29889 -5.1294 0
M  V30 4005 H 376.589 -0.147839 -2.11885 0
M  V30 4006 H 378.852 -0.00347013 -0.947994 0
M  V30 4007 H 378.558 0.578853 -3.46904 0
M  V30 4008 H 378.432 2.26874 -3.01343 0
M  V30 4009 H 380.819 2.14213 -2.0297 0
M  V30 4010 H 380.9 0.443705 -2.51922 0
M  V30 4011 H 380.544 1.14968 -4.94717 0
M  V30 4012 H 380.474 2.85207 -4.42679 0
M  V30 4013 H 382.965 1.69574 -3.37718 0
M  V30 4014 H 383.278 2.89759 -7.16421 0
M  V30 4015 H 381.623 2.61232 -6.44036 0
M  V30 4016 H 384.814 2.02485 -4.22039 0
M  V30 4017 H 384.987 2.57312 -5.94722 0
M  V30 4018 N 378.394 1.34581 0.820102 0
M  V30 4019 C 379.64 1.27285 1.57881 0
M  V30 4020 C 379.973 -0.156137 1.93571 0
M  V30 4021 O 379.248 -1.10222 1.60254 0
M  V30 4022 C 379.531 2.16639 2.87645 0
M  V30 4023 C 379.384 3.68088 2.58517 0
M  V30 4024 C 380.703 2.05378 3.8924 0
M  V30 4025 H 377.822 0.463714 0.572833 0
M  V30 4026 H 380.464 1.64859 0.944539 0
M  V30 4027 H 378.614 1.84725 3.41773 0
M  V30 4028 H 380.286 4.10382 2.10676 0
M  V30 4029 H 378.529 3.89038 1.91917 0
M  V30 4030 H 379.2 4.2598 3.51063 0
M  V30 4031 H 381.676 2.33404 3.44473 0
M  V30 4032 H 380.552 2.7012 4.77835 0
M  V30 4033 H 380.813 1.0316 4.29896 0
M  V30 4034 N 379.872 -1.04064 1.18357 0
M  V30 4035 C 381.12 -1.76915 0.977013 0
M  V30 4036 C 381.441 -1.88624 -0.494577 0
M  V30 4037 O 380.711 -1.41125 -1.3587 0
M  V30 4038 H 379.291 -0.65535 0.358504 0
M  V30 4039 H 381.953 -1.25592 1.49039 0
M  V30 4040 H 381.049 -2.78178 1.41504 0
M  V30 4041 N 381.35 -0.985608 -1.22978 0
M  V30 4042 C 382.28 -0.549649 -2.26939 0
M  V30 4043 C 383.261 0.419803 -1.64838 0
M  V30 4044 O 384.446 0.31203 -1.91677 0
M  V30 4045 C 381.576 0.143652 -3.47003 0
M  V30 4046 C 380.53 -0.743606 -4.21491 0
M  V30 4047 C 379.856 0.0822027 -5.34637 0
M  V30 4048 C 381.156 -2.03694 -4.80943 0
M  V30 4049 H 382.85 -1.41862 -2.63658 0
M  V30 4050 H 380.396 -0.683571 -1.26741 0
M  V30 4051 H 382.349 0.459985 -4.18882 0
M  V30 4052 H 381.073 1.04711 -3.09359 0
M  V30 4053 H 379.732 -1.04347 -3.51436 0
M  V30 4054 H 379.38 0.986359 -4.93234 0
M  V30 4055 H 379.08 -0.508377 -5.85397 0
M  V30 4056 H 380.604 0.392797 -6.09335 0
M  V30 4057 H 382.018 -1.78504 -5.44802 0
M  V30 4058 H 380.415 -2.57573 -5.42011 0
M  V30 4059 H 381.485 -2.72042 -4.01399 0
M  V30 4060 N 382.828 1.3818 -0.7579 0
M  V30 4061 C 384.075 2.00019 -0.315985 0
M  V30 4062 C 384.403 1.60163 1.10355 0
M  V30 4063 O 383.658 0.83264 1.77103 0
M  V30 4064 C 383.957 3.55252 -0.391218 0
M  V30 4065 C 383.623 4.14834 -1.76702 0
M  V30 4066 C 382.285 4.30821 -2.14353 0
M  V30 4067 C 384.637 4.47658 -2.66931 0
M  V30 4068 C 381.965 4.76928 -3.41696 0
M  V30 4069 C 384.317 4.95184 -3.93669 0
M  V30 4070 C 382.981 5.09377 -4.31383 0
M  V30 4071 H 382.251 0.731923 -0.115627 0
M  V30 4072 H 384.898 1.65161 -0.969223 0
M  V30 4073 H 383.203 3.90273 0.34558 0
M  V30 4074 H 384.9 4.00988 -0.030805 0
M  V30 4075 H 381.49 4.02808 -1.46435 0
M  V30 4076 H 385.674 4.34904 -2.39106 0
M  V30 4077 H 380.93 4.86103 -3.70829 0
M  V30 4078 H 385.104 5.19551 -4.63724 0
M  V30 4079 H 382.731 5.44865 -5.30119 0
M  V30 4080 N 384.306 0.507319 1.49211 0
M  V30 4081 C 385.536 -0.0315292 2.06576 0
M  V30 4082 C 385.944 -1.30791 1.36713 0
M  V30 4083 O 385.287 -1.78324 0.441181 0
M  V30 4084 C 385.349 -0.349104 3.57801 0
M  V30 4085 C 385.013 0.830475 4.49391 0
M  V30 4086 C 386.01 1.72271 4.90529 0
M  V30 4087 C 383.695 1.03107 4.91604 0
M  V30 4088 C 385.689 2.79964 5.72625 0
M  V30 4089 C 383.376 2.11116 5.73475 0
M  V30 4090 C 384.374 2.99379 6.1389 0
M  V30 4091 O 384.062 4.05523 6.94123 0
M  V30 4092 H 383.794 0.0201002 0.675701 0
M  V30 4093 H 386.348 0.705737 1.92895 0
M  V30 4094 H 384.578 -1.14005 3.69513 0
M  V30 4095 H 386.267 -0.827319 3.97379 0
M  V30 4096 H 387.033 1.57958 4.58557 0
M  V30 4097 H 382.912 0.353417 4.59643 0
M  V30 4098 H 386.456 3.48884 6.04091 0
M  V30 4099 H 382.353 2.25421 6.0486 0
M  V30 4100 H 383.121 4.02953 7.1244 0
M  V30 4101 N 385.784 -1.5574 0.241426 0
M  V30 4102 C 387.032 -1.98417 -0.384075 0
M  V30 4103 C 387.353 -1.13078 -1.58866 0
M  V30 4104 O 386.623 -0.212312 -1.94746 0
M  V30 4105 H 385.203 -0.732813 -0.144894 0
M  V30 4106 H 387.865 -1.9193 0.338943 0
M  V30 4107 H 386.961 -3.04219 -0.696939 0
M  V30 4108 N 387.262 0.0317525 -1.57568 0
M  V30 4109 C 388.492 0.733884 -1.93126 0
M  V30 4110 C 388.9 1.69563 -0.839352 0
M  V30 4111 O 388.243 1.82681 0.193175 0
M  V30 4112 C 388.305 1.54798 -3.24465 0
M  V30 4113 C 387.969 0.751304 -4.50782 0
M  V30 4114 C 388.966 0.0527632 -5.19873 0
M  V30 4115 C 386.651 0.706639 -4.97305 0
M  V30 4116 C 388.645 -0.679774 -6.33765 0
M  V30 4117 C 386.332 -0.0296449 -6.11093 0
M  V30 4118 C 387.33 -0.721614 -6.79177 0
M  V30 4119 O 387.018 -1.44595 -7.90789 0
M  V30 4120 H 386.75 0.211459 -0.642076 0
M  V30 4121 H 389.304 -0.00585615 -2.05399 0
M  V30 4122 H 387.534 2.33147 -3.08512 0
M  V30 4123 H 389.223 2.13247 -3.4537 0
M  V30 4124 H 389.989 0.0783188 -4.84937 0
M  V30 4125 H 385.868 1.23474 -4.44157 0
M  V30 4126 H 389.412 -1.22042 -6.86842 0
M  V30 4127 H 385.309 -0.0571331 -6.45475 0
M  V30 4128 H 386.077 -1.35935 -8.07133 0
M  V30 4129 N 388.74 1.54641 0.303973 0
M  V30 4130 C 390.017 1.64455 1.05896 0
M  V30 4131 C 390.397 0.490923 2.05312 0
M  V30 4132 O 389.745 -0.512685 2.22674 0
M  V30 4133 C 389.955 3.02331 1.74347 0
M  V30 4134 C 391.303 3.59045 2.26653 0
M  V30 4135 O 392.327 3.04764 1.84384 0
M  V30 4136 O 391.186 4.54081 3.04093 0
M  V30 4137 H 388.28 0.666729 0.489287 0
M  V30 4138 H 390.826 1.66986 0.302298 0
M  V30 4139 H 389.598 3.77734 1.02142 0
M  V30 4140 H 389.221 3.03565 2.56777 0
M  V30 4141 N 390.218 -0.567019 1.47046 0
M  V30 4142 C 391.465 -1.32462 1.53167 0
M  V30 4143 C 391.793 -1.93571 0.189841 0
M  V30 4144 O 391.048 -1.77865 -0.816243 0
M  V30 4145 C 391.347 -2.4623 2.59047 0
M  V30 4146 C 391.013 -2.03014 4.02612 0
M  V30 4147 C 389.675 -1.90944 4.41694 0
M  V30 4148 C 392.027 -1.69895 4.92732 0
M  V30 4149 C 389.355 -1.44035 5.68745 0
M  V30 4150 C 391.707 -1.2446 6.20236 0
M  V30 4151 C 390.371 -1.10979 6.5821 0
M  V30 4152 H 389.641 -0.484713 0.560477 0
M  V30 4153 H 392.288 -0.636888 1.80599 0
M  V30 4154 H 390.593 -3.20517 2.25335 0
M  V30 4155 H 392.29 -3.04427 2.61008 0
M  V30 4156 H 388.88 -2.13348 3.71726 0
M  V30 4157 H 393.064 -1.78098 4.63244 0
M  V30 4158 H 388.32 -1.32254 5.96925 0
M  V30 4159 H 392.494 -0.978924 6.89485 0
M  V30 4160 H 390.121 -0.744078 7.5655 0
M  V30 4161 N 391.696 -1.35014 -0.812953 0
M  V30 4162 C 392.628 -1.23262 -1.93233 0
M  V30 4163 C 393.641 -0.157371 -1.62038 0
M  V30 4164 O 394.83 -0.410096 -1.73725 0
M  V30 4165 C 391.93 -0.87392 -3.27438 0
M  V30 4166 C 391.103 -2.04622 -3.86586 0
M  V30 4167 C 390.162 -1.66432 -4.99186 0
M  V30 4168 O 389.188 -2.38222 -5.16951 0
M  V30 4169 N 390.39 -0.584248 -5.77552 0
M  V30 4170 H 393.155 -2.19699 -2.03844 0
M  V30 4171 H 390.716 -1.281 -0.99005 0
M  V30 4172 H 392.708 -0.600039 -4.00227 0
M  V30 4173 H 391.278 0.00057392 -3.126 0
M  V30 4174 H 390.498 -2.48427 -3.06068 0
M  V30 4175 H 391.786 -2.82999 -4.22835 0
M  V30 4176 H 391.184 0.0123526 -5.65699 0
M  V30 4177 H 389.741 -0.37013 -6.50748 0
M  V30 4178 N 393.175 1.03435 -1.18907 0
M  V30 4179 C 394.123 2.13703 -0.918353 0
M  V30 4180 C 395.117 1.68947 0.123767 0
M  V30 4181 O 396.323 1.79983 -0.0249701 0
M  V30 4182 H 392.698 0.698112 -0.279542 0
M  V30 4183 H 394.669 2.33731 -1.85506 0
M  V30 4184 C 393.418 3.44542 -0.467532 0
M  V30 4185 H 392.741 3.79394 -1.26095 0
M  V30 4186 H 394.181 4.22812 -0.317164 0
M  V30 4187 C 392.64 3.26829 0.817588 0
M  V30 4188 O 393.17 3.54975 1.88031 0
M  V30 4189 N 391.376 2.80139 0.772677 0
M  V30 4190 H 390.923 2.57434 -0.0923883 0
M  V30 4191 H 390.881 2.68668 1.63294 0
M  V30 4192 N 394.653 0.992116 1.22453 0
M  V30 4193 C 395.901 0.666215 1.90804 0
M  V30 4194 C 396.222 -0.804152 1.77647 0
M  V30 4195 O 395.492 -1.57629 1.16318 0
M  V30 4196 H 394.072 0.243423 0.706225 0
M  V30 4197 H 396.734 1.25845 1.48825 0
M  V30 4198 H 395.83 0.928069 2.97982 0
M  V30 4199 N 396.131 -1.37776 0.765217 0
M  V30 4200 C 397.061 -2.32945 0.160953 0
M  V30 4201 C 398.042 -1.55454 -0.690516 0
M  V30 4202 O 399.227 -1.83721 -0.629318 0
M  V30 4203 C 396.357 -3.39669 -0.724031 0
M  V30 4204 C 395.311 -4.27992 0.0256173 0
M  V30 4205 C 394.637 -5.25673 -0.978383 0
M  V30 4206 C 395.937 -5.08309 1.20082 0
M  V30 4207 H 397.631 -2.83728 0.955969 0
M  V30 4208 H 395.177 -1.36416 0.461149 0
M  V30 4209 H 397.13 -4.05219 -1.15652 0
M  V30 4210 H 395.854 -2.87396 -1.5515 0
M  V30 4211 H 394.513 -3.63964 0.438812 0
M  V30 4212 H 394.161 -4.69682 -1.80022 0
M  V30 4213 H 393.861 -5.85625 -0.481378 0
M  V30 4214 H 395.385 -5.94098 -1.40995 0
M  V30 4215 H 396.799 -5.67034 0.845307 0
M  V30 4216 H 395.196 -5.77554 1.62947 0
M  V30 4217 H 396.266 -4.41365 2.00811 0
M  V30 4218 N 397.609 -0.515225 -1.4894 0
M  V30 4219 C 398.834 0.022727 -2.07388 0
M  V30 4220 C 399.259 1.2876 -1.37122 0
M  V30 4221 O 398.617 1.76067 -0.432431 0
M  V30 4222 C 398.665 0.244869 -3.59768 0
M  V30 4223 O 397.769 1.31667 -3.90817 0
M  V30 4224 H 397.11 -0.0325506 -0.663202 0
M  V30 4225 H 399.64 -0.718918 -1.91553 0
M  V30 4226 H 399.65 0.47205 -4.0526 0
M  V30 4227 H 398.325 -0.679194 -4.10317 0
M  V30 4228 H 396.902 1.07331 -3.5712 0
M  V30 4229 N 399.087 1.5561 -0.249682 0
M  V30 4230 C 400.333 1.99306 0.374841 0
M  V30 4231 C 400.666 1.13767 1.57387 0
M  V30 4232 O 399.941 0.201711 1.93451 0
M  V30 4233 C 400.224 3.51507 0.781986 0
M  V30 4234 C 400.077 4.4781 -0.422629 0
M  V30 4235 C 401.396 4.08884 1.62793 0
M  V30 4236 H 398.515 0.724572 0.134773 0
M  V30 4237 H 401.157 1.86719 -0.351549 0
M  V30 4238 H 399.307 3.62363 1.4009 0
M  V30 4239 H 400.979 4.48931 -1.06108 0
M  V30 4240 H 399.222 4.20518 -1.06524 0
M  V30 4241 H 399.893 5.51919 -0.0943766 0
M  V30 4242 H 402.369 4.01147 1.10547 0
M  V30 4243 H 401.245 5.1564 1.88166 0
M  V30 4244 H 401.506 3.57515 2.60068 0
M  V30 4245 N 400.565 -0.0233959 1.57583 0
M  V30 4246 C 401.79 -0.728376 1.94189 0
M  V30 4247 C 402.215 -1.67793 0.850119 0
M  V30 4248 O 401.573 -1.80262 -0.19371 0
M  V30 4249 C 401.621 -1.45669 3.29868 0
M  V30 4250 O 400.725 -2.57013 3.22518 0
M  V30 4251 H 400.066 -0.195493 0.63457 0
M  V30 4252 H 402.596 0.0228214 2.04587 0
M  V30 4253 H 402.606 -1.82535 3.6489 0
M  V30 4254 H 401.281 -0.760314 4.08891 0
M  V30 4255 H 399.858 -2.22648 2.99136 0
M  V30 4256 N 402.043 -1.548 -0.295768 0
M  V30 4257 C 402.973 -1.89115 -1.36959 0
M  V30 4258 C 403.954 -0.75059 -1.52644 0
M  V30 4259 O 405.139 -1.00678 -1.66065 0
M  V30 4260 C 402.269 -2.14307 -2.73295 0
M  V30 4261 C 401.223 -3.30151 -2.72368 0
M  V30 4262 C 400.549 -3.40772 -4.12042 0
M  V30 4263 C 401.849 -4.67126 -2.33646 0
M  V30 4264 H 403.543 -2.79053 -1.08488 0
M  V30 4265 H 401.089 -1.34266 -0.520443 0
M  V30 4266 H 403.042 -2.36898 -3.48507 0
M  V30 4267 H 401.766 -1.21145 -3.03301 0
M  V30 4268 H 400.425 -3.0749 -1.99613 0
M  V30 4269 H 400.073 -2.45117 -4.39234 0
M  V30 4270 H 399.773 -4.18645 -4.12322 0
M  V30 4271 H 401.297 -3.6563 -4.89027 0
M  V30 4272 H 402.711 -4.89414 -2.98575 0
M  V30 4273 H 401.108 -5.47751 -2.45129 0
M  V30 4274 H 402.178 -4.67489 -1.28772 0
M  V30 4275 N 403.521 0.559213 -1.47345 0
M  V30 4276 C 404.431 1.69388 -1.62311 0
M  V30 4277 C 405.447 1.6648 -0.505993 0
M  V30 4278 O 406.623 1.85964 -0.773262 0
M  V30 4279 C 403.688 3.05894 -1.63185 0
M  V30 4280 C 402.749 3.19885 -2.86307 0
M  V30 4281 C 401.982 4.49879 -2.87131 0
M  V30 4282 O 402.205 5.35217 -1.97229 0
M  V30 4283 O 401.139 4.67618 -3.78968 0
M  V30 4284 H 404.965 1.59706 -2.58317 0
M  V30 4285 H 402.55 0.728989 -1.30407 0
M  V30 4286 H 404.432 3.87133 -1.66451 0
M  V30 4287 H 403.107 3.15964 -0.70345 0
M  V30 4288 H 402.014 2.38052 -2.88587 0
M  V30 4289 H 403.347 3.14718 -3.78435 0
M  V30 4290 N 404.999 1.35443 0.805782 0
M  V30 4291 C 406.229 1.31687 1.59192 0
M  V30 4292 C 406.637 -0.10756 1.88894 0
M  V30 4293 O 405.98 -1.07017 1.49309 0
M  V30 4294 C 406.042 2.05686 2.94845 0
M  V30 4295 C 405.706 3.54868 2.87954 0
M  V30 4296 C 406.703 4.49444 2.61335 0
M  V30 4297 C 404.388 3.97528 3.07046 0
M  V30 4298 C 406.382 5.84655 2.53885 0
M  V30 4299 C 404.069 5.32833 2.99219 0
M  V30 4300 C 405.067 6.26209 2.72674 0
M  V30 4301 O 404.755 7.59032 2.64811 0
M  V30 4302 H 404.487 0.453878 0.50097 0
M  V30 4303 H 407.041 1.78892 1.0093 0
M  V30 4304 H 405.271 1.5312 3.55093 0
M  V30 4305 H 406.96 1.94998 3.55993 0
M  V30 4306 H 407.726 4.17804 2.46303 0
M  V30 4307 H 403.605 3.25233 3.26718 0
M  V30 4308 H 407.149 6.57508 2.33086 0
M  V30 4309 H 403.046 5.64087 3.13809 0
M  V30 4310 H 403.814 7.68967 2.80413 0
M  V30 4311 N 406.477 -1.02803 1.19454 0
M  V30 4312 C 407.44 -2.09264 0.934955 0
M  V30 4313 C 408.44 -1.60576 -0.0849015 0
M  V30 4314 O 409.63 -1.73554 0.149933 0
M  V30 4315 C 406.762 -3.38482 0.40531 0
M  V30 4316 H 407.955 -2.33726 1.87916 0
M  V30 4317 H 405.508 -1.19426 1.00832 0
M  V30 4318 H 406.243 -3.19689 -0.544899 0
M  V30 4319 H 406.028 -3.75142 1.14065 0
M  V30 4320 H 407.518 -4.16894 0.242806 0
M  V30 4321 N 407.956 -0.998596 -1.21925 0
M  V30 4322 C 409.203 -0.677663 -1.90824 0
M  V30 4323 C 409.531 0.790905 -1.77693 0
M  V30 4324 O 408.786 1.58817 -1.14349 0
M  V30 4325 C 409.085 -1.03648 -3.42041 0
M  V30 4326 C 408.751 -2.49825 -3.75364 0
M  V30 4327 C 407.413 -2.8977 -3.8417 0
M  V30 4328 C 409.765 -3.44545 -3.91073 0
M  V30 4329 C 407.093 -4.23412 -4.06127 0
M  V30 4330 C 409.445 -4.77853 -4.14535 0
M  V30 4331 C 408.109 -5.17531 -4.21566 0
M  V30 4332 H 407.379 -0.247975 -0.698276 0
M  V30 4333 H 410.026 -1.25584 -1.44571 0
M  V30 4334 H 408.331 -0.376457 -3.89987 0
M  V30 4335 H 410.028 -0.766113 -3.93614 0
M  V30 4336 H 406.618 -2.17866 -3.69097 0
M  V30 4337 H 410.802 -3.14853 -3.83642 0
M  V30 4338 H 406.058 -4.53734 -4.09799 0
M  V30 4339 H 410.232 -5.51189 -4.25633 0
M  V30 4340 H 407.859 -6.21102 -4.38333 0
M  V30 4341 N 409.434 1.37368 -0.772513 0
M  V30 4342 C 410.344 2.34053 -0.160081 0
M  V30 4343 C 411.36 1.60216 0.678728 0
M  V30 4344 O 412.536 1.92303 0.59847 0
M  V30 4345 C 409.601 3.3939 0.708182 0
M  V30 4346 C 408.662 4.29048 -0.147172 0
M  V30 4347 C 407.895 5.29354 0.679744 0
M  V30 4348 O 408.118 5.3723 1.91678 0
M  V30 4349 O 407.052 6.01835 0.0885444 0
M  V30 4350 H 410.878 2.88159 -0.959053 0
M  V30 4351 H 408.463 1.39543 -0.533685 0
M  V30 4352 H 410.345 4.03839 1.20384 0
M  V30 4353 H 409.02 2.8761 1.48533 0
M  V30 4354 H 407.927 3.67697 -0.689205 0
M  V30 4355 H 409.26 4.84134 -0.887423 0
M  V30 4356 N 410.912 0.523116 1.48665 0
M  V30 4357 C 412.158 -0.00540031 2.03399 0
M  V30 4358 C 412.513 -1.3264 1.39372 0
M  V30 4359 O 411.806 -1.84184 0.527916 0
M  V30 4360 C 412 -0.191671 3.56886 0
M  V30 4361 C 411.829 1.10972 4.35793 0
M  V30 4362 C 410.599 1.66769 4.76987 0
M  V30 4363 C 412.797 2.01861 4.73029 0
M  V30 4364 N 410.779 2.91268 5.40404 0
M  V30 4365 C 412.15 3.10937 5.36394 0
M  V30 4366 C 414.205 2.02271 4.54962 0
M  V30 4367 C 412.908 4.20478 5.83601 0
M  V30 4368 C 414.934 3.10802 5.03146 0
M  V30 4369 C 414.296 4.18597 5.6653 0
M  V30 4370 H 410.395 0.0393531 0.781009 0
M  V30 4371 H 412.979 0.702876 1.8157 0
M  V30 4372 H 411.15 -0.869025 3.78553 0
M  V30 4373 H 412.882 -0.719177 3.98259 0
M  V30 4374 H 409.637 1.20996 4.57883 0
M  V30 4375 H 410.061 3.54635 5.76683 0
M  V30 4376 H 414.703 1.2023 4.05345 0
M  V30 4377 H 412.421 5.03303 6.32228 0
M  V30 4378 H 416.007 3.12166 4.90962 0
M  V30 4379 H 414.887 5.01193 6.03138 0
M  V30 4380 N 412.39 -1.55475 0.257931 0
M  V30 4381 C 413.322 -2.19192 -0.669881 0
M  V30 4382 C 414.335 -1.17148 -1.1305 0
M  V30 4383 O 415.524 -1.43959 -1.05537 0
M  V30 4384 C 412.624 -2.79016 -1.92363 0
M  V30 4385 C 411.797 -4.06586 -1.61265 0
M  V30 4386 C 410.856 -4.50622 -2.7171 0
M  V30 4387 O 409.882 -5.16765 -2.38627 0
M  V30 4388 N 411.084 -4.19325 -4.01431 0
M  V30 4389 H 413.849 -2.99441 -0.124635 0
M  V30 4390 H 411.41 -1.6171 0.0783311 0
M  V30 4391 H 413.402 -3.05427 -2.65511 0
M  V30 4392 H 411.972 -2.0286 -2.37837 0
M  V30 4393 H 411.192 -3.87646 -0.715811 0
M  V30 4394 H 412.48 -4.89737 -1.37967 0
M  V30 4395 H 411.878 -3.66247 -4.31138 0
M  V30 4396 H 410.435 -4.50547 -4.7101 0
M  V30 4397 N 413.868 0.0150385 -1.57593 0
M  V30 4398 C 415.145 0.7392 -1.81094 0
M  V30 4399 C 415.525 1.92817 -0.859344 0
M  V30 4400 O 414.873 2.28301 0.095362 0
M  V30 4401 C 415.083 1.15907 -3.29191 0
M  V30 4402 C 416.431 1.56918 -3.9454 0
M  V30 4403 O 417.455 1.25328 -3.33424 0
M  V30 4404 O 416.314 2.15604 -5.02173 0
M  V30 4405 H 413.408 0.358631 -0.745193 0
M  V30 4406 H 415.954 -0.00926156 -1.69697 0
M  V30 4407 H 414.726 0.310921 -3.90063 0
M  V30 4408 H 414.349 1.96711 -3.45529 0
M  V30 4409 N 415.346 1.54954 0.287554 0
M  V30 4410 C 416.296 1.8322 1.357 0
M  V30 4411 C 417.28 0.690152 1.45347 0
M  V30 4412 O 418.472 0.951137 1.49273 0
M  V30 4413 C 415.601 2.09481 2.71979 0
M  V30 4414 C 414.687 3.29906 2.66502 0
M  V30 4415 N 415.078 4.50154 2.30641 0
M  V30 4416 C 413.376 3.32203 2.97585 0
M  V30 4417 C 414.077 5.32209 2.34794 0
M  V30 4418 N 413.053 4.70258 2.72688 0
M  V30 4419 H 416.855 2.73746 1.0696 0
M  V30 4420 H 414.369 1.54635 0.496167 0
M  V30 4421 H 416.366 2.27882 3.49107 0
M  V30 4422 H 415.026 1.2023 3.0162 0
M  V30 4423 H 416.037 4.76515 2.02865 0
M  V30 4424 H 412.714 2.53101 3.32034 0
M  V30 4425 H 414.104 6.38321 2.09753 0
M  V30 4426 N 416.824 -0.551391 1.4764 0
M  V30 4427 C 418.101 -1.31229 1.45046 0
M  V30 4428 C 418.481 -2.10563 0.150527 0
M  V30 4429 O 417.829 -2.11374 -0.867956 0
M  V30 4430 C 418.039 -2.21189 2.69956 0
M  V30 4431 C 419.387 -2.82021 3.1741 0
M  V30 4432 O 420.411 -2.31488 2.70724 0
M  V30 4433 O 419.27 -3.73885 3.98588 0
M  V30 4434 H 416.364 -0.591193 0.578291 0
M  V30 4435 H 418.91 -0.569813 1.59847 0
M  V30 4436 H 417.682 -1.62207 3.56096 0
M  V30 4437 H 417.305 -3.02722 2.57769 0
M  V30 4438 N 418.302 -1.35869 -0.798587 0
M  V30 4439 C 419.212 -1.31578 -1.94228 0
M  V30 4440 C 420.228 -0.21939 -1.72611 0
M  V30 4441 O 421.404 -0.450167 -1.96305 0
M  V30 4442 C 418.469 -1.09528 -3.28944 0
M  V30 4443 C 417.53 -2.28556 -3.63402 0
M  V30 4444 C 416.763 -2.07549 -4.9169 0
M  V30 4445 O 416.986 -1.046 -5.60727 0
M  V30 4446 O 415.92 -2.95106 -5.24591 0
M  V30 4447 H 419.746 -2.27847 -2.00796 0
M  V30 4448 H 417.331 -1.16322 -0.937526 0
M  V30 4449 H 419.213 -0.991127 -4.09579 0
M  V30 4450 H 417.888 -0.16315 -3.23289 0
M  V30 4451 H 416.795 -2.44538 -2.83112 0
M  V30 4452 H 418.128 -3.20244 -3.73771 0
M  V30 4453 N 419.78 1.02168 -1.19998 0
M  V30 4454 C 421.028 1.75338 -1.00504 0
M  V30 4455 C 421.349 1.89387 0.464506 0
M  V30 4456 O 420.619 1.43268 1.33608 0
M  V30 4457 H 419.199 0.649564 -0.368885 0
M  V30 4458 H 421.861 1.23205 -1.51018 0
M  V30 4459 H 420.957 2.75892 -1.45912 0
M  V30 4460 N 421.258 1.00505 1.21394 0
M  V30 4461 C 422.535 0.603277 1.86064 0
M  V30 4462 C 422.915 -0.919095 1.90042 0
M  V30 4463 O 422.263 -1.80607 1.39977 0
M  V30 4464 C 422.473 1.23772 3.26315 0
M  V30 4465 C 423.821 1.34586 4.02705 0
M  V30 4466 O 424.845 1.19304 3.35626 0
M  V30 4467 O 423.704 1.59169 5.22807 0
M  V30 4468 H 420.798 0.206634 0.800769 0
M  V30 4469 H 423.344 1.1017 1.29076 0
M  V30 4470 H 422.116 2.27848 3.18121 0
M  V30 4471 H 421.739 0.725648 3.90922 0
M  V30 4472 N 422.737 -1.36956 0.779787 0
M  V30 4473 C 423.962 -2.04283 0.358224 0
M  V30 4474 C 424.387 -1.58422 -1.01411 0
M  V30 4475 O 423.745 -0.748179 -1.65142 0
M  V30 4476 C 423.793 -3.58152 0.419479 0
M  V30 4477 O 422.897 -4.08342 -0.577142 0
M  V30 4478 H 422.238 -0.645967 0.153698 0
M  V30 4479 H 424.768 -1.75108 1.05822 0
M  V30 4480 H 424.778 -4.07041 0.279636 0
M  V30 4481 H 423.453 -3.90886 1.42061 0
M  V30 4482 H 422.03 -3.70751 -0.399755 0
M  V30 4483 N 424.215 -0.530993 -1.48385 0
M  V30 4484 C 425.492 0.0671788 -1.95485 0
M  V30 4485 C 425.872 1.51191 -1.47324 0
M  V30 4486 O 425.22 2.17507 -0.700202 0
M  V30 4487 C 425.43 -0.0511206 -3.48963 0
M  V30 4488 C 426.778 0.107632 -4.24464 0
M  V30 4489 O 427.802 0.0226248 -3.56193 0
M  V30 4490 O 426.661 0.285972 -5.45751 0
M  V30 4491 H 423.755 0.0787365 -0.823243 0
M  V30 4492 H 426.301 -0.595662 -1.58902 0
M  V30 4493 H 425.073 -1.05747 -3.7674 0
M  V30 4494 H 424.696 0.650525 -3.92242 0
M  V30 4495 N 425.693 1.55336 -0.266172 0
M  V30 4496 C 426.64 2.22172 0.625165 0
M  V30 4497 C 427.61 1.19211 1.15663 0
M  V30 4498 O 428.795 1.47723 1.20758 0
M  V30 4499 C 425.935 2.93972 1.8076 0
M  V30 4500 C 425.048 4.11632 1.31084 0
M  V30 4501 C 424.183 4.71099 2.45436 0
M  V30 4502 C 423.222 5.8097 1.92718 0
M  V30 4503 N 422.359 6.34538 3.00509 0
M  V30 4504 H 427.199 2.9796 0.0485582 0
M  V30 4505 H 424.736 1.47095 0.0122024 0
M  V30 4506 H 426.694 3.33811 2.50251 0
M  V30 4507 H 425.324 2.20623 2.35638 0
M  V30 4508 H 424.376 3.76975 0.509326 0
M  V30 4509 H 425.688 4.90893 0.884633 0
M  V30 4510 H 424.842 5.13612 3.22936 0
M  V30 4511 H 423.581 3.91096 2.91368 0
M  V30 4512 H 422.586 5.37916 1.13695 0
M  V30 4513 H 423.811 6.62836 1.47733 0
M  V30 4514 H 421.757 5.57433 3.45839 0
M  V30 4515 H 421.674 7.09046 2.62279 0
M  V30 4516 H 422.942 6.81709 3.78011 0
M  V30 4517 N 427.171 -0.0066808 1.57599 0
M  V30 4518 C 428.418 -0.69292 1.90276 0
M  V30 4519 C 428.746 -1.74148 0.866192 0
M  V30 4520 O 428.001 -1.95268 -0.129933 0
M  V30 4521 C 428.3 -1.37939 3.29708 0
M  V30 4522 C 427.966 -0.464679 4.48499 0
M  V30 4523 C 426.628 -0.212809 4.80729 0
M  V30 4524 C 428.98 0.16551 5.20937 0
M  V30 4525 C 426.308 0.677653 5.82773 0
M  V30 4526 C 428.66 1.04381 6.23929 0
M  V30 4527 C 427.324 1.30492 6.54621 0
M  V30 4528 H 426.594 -0.253558 0.696268 0
M  V30 4529 H 429.241 0.0474123 1.91441 0
M  V30 4530 H 427.546 -2.1936 3.24636 0
M  V30 4531 H 429.243 -1.9163 3.52249 0
M  V30 4532 H 425.833 -0.671153 4.23313 0
M  V30 4533 H 430.017 -0.0160756 4.96297 0
M  V30 4534 H 425.273 0.88803 6.04917 0
M  V30 4535 H 429.447 1.53851 6.79193 0
M  V30 4536 H 427.074 1.99662 7.33512 0
M  V30 4537 N 428.649 -1.55105 -0.279332 0
M  V30 4538 C 429.599 -1.83937 -1.34727 0
M  V30 4539 C 430.583 -0.69785 -1.44979 0
M  V30 4540 O 431.775 -0.95904 -1.48766 0
M  V30 4541 C 428.904 -2.1092 -2.70864 0
M  V30 4542 C 427.99 -3.31314 -2.64748 0
M  V30 4543 N 428.381 -4.51371 -2.2825 0
M  V30 4544 C 426.679 -3.33777 -2.95819 0
M  V30 4545 C 427.38 -5.33447 -2.31969 0
M  V30 4546 N 426.356 -4.71697 -2.7019 0
M  V30 4547 H 430.158 -2.74309 -1.05506 0
M  V30 4548 H 427.672 -1.54896 -0.487959 0
M  V30 4549 H 429.669 -2.2973 -3.47893 0
M  V30 4550 H 428.329 -1.21828 -3.00979 0
M  V30 4551 H 429.34 -4.77584 -2.00335 0
M  V30 4552 H 426.017 -2.54858 -3.30687 0
M  V30 4553 H 427.407 -6.39424 -2.06365 0
M  V30 4554 N 430.127 0.543554 -1.4793 0
M  V30 4555 C 431.357 1.32324 -1.58663 0
M  V30 4556 C 431.765 1.8766 -0.240896 0
M  V30 4557 O 431.108 1.66411 0.778011 0
M  V30 4558 C 431.17 2.52094 -2.56299 0
M  V30 4559 C 430.834 2.17944 -4.01683 0
M  V30 4560 C 431.831 1.74422 -4.89768 0
M  V30 4561 C 429.516 2.28884 -4.47121 0
M  V30 4562 C 431.51 1.42287 -6.21316 0
M  V30 4563 C 429.197 1.96361 -5.78693 0
M  V30 4564 C 430.195 1.53132 -6.65612 0
M  V30 4565 O 429.883 1.21029 -7.94737 0
M  V30 4566 H 429.615 0.409174 -0.538101 0
M  V30 4567 H 432.169 0.663887 -1.94375 0
M  V30 4568 H 430.399 3.20965 -2.15681 0
M  V30 4569 H 432.088 3.14165 -2.57012 0
M  V30 4570 H 432.854 1.65452 -4.55907 0
M  V30 4571 H 428.733 2.61488 -3.79664 0
M  V30 4572 H 432.277 1.08472 -6.89115 0
M  V30 4573 H 428.174 2.04967 -6.12094 0
M  V30 4574 H 428.942 1.34543 -8.07366 0
M  V30 4575 N 431.605 1.3629 0.791371 0
M  V30 4576 C 432.568 1.30309 1.88553 0
M  V30 4577 C 433.568 0.211204 1.59407 0
M  V30 4578 O 434.758 0.465865 1.67855 0
M  V30 4579 C 431.89 1.01956 3.25297 0
M  V30 4580 H 433.083 2.27614 1.95273 0
M  V30 4581 H 430.636 1.21035 0.988953 0
M  V30 4582 H 431.371 0.050998 3.2426 0
M  V30 4583 H 431.156 1.80968 3.4784 0
M  V30 4584 H 432.646 1.0037 4.05359 0
M  V30 4585 N 433.083 -1.0153 1.20538 0
M  V30 4586 C 434.331 -1.74803 1.01432 0
M  V30 4587 C 434.652 -1.8963 -0.454456 0
M  V30 4588 O 433.922 -1.43975 -1.32846 0
M  V30 4589 H 432.502 -0.647598 0.372324 0
M  V30 4590 H 435.164 -1.22402 1.5167 0
M  V30 4591 H 434.26 -2.75114 1.47373 0
M  V30 4592 N 434.561 -1.01147 -1.20859 0
M  V30 4593 C 435.807 -0.698899 -1.90377 0
M  V30 4594 C 436.14 0.76904 -1.78324 0
M  V30 4595 O 435.415 1.55817 -1.16409 0
M  V30 4596 C 435.698 -1.12878 -3.41951 0
M  V30 4597 C 435.551 -2.65665 -3.62963 0
M  V30 4598 C 436.87 -0.696114 -4.3456 0
M  V30 4599 H 433.989 -0.255372 -0.691342 0
M  V30 4600 H 436.631 -1.25831 -1.42361 0
M  V30 4601 H 434.781 -0.652827 -3.82976 0
M  V30 4602 H 436.453 -3.21074 -3.31224 0
M  V30 4603 H 434.696 -3.06878 -3.06608 0
M  V30 4604 H 435.367 -2.90797 -4.69192 0
M  V30 4605 H 437.843 -1.10521 -4.01154 0
M  V30 4606 H 436.719 -1.025 -5.39245 0
M  V30 4607 H 436.98 0.402465 -4.40264 0
M  V30 4608 N 436.039 1.36541 -0.78704 0
M  V30 4609 C 437.287 1.98911 -0.357633 0
M  V30 4610 C 437.608 1.62778 1.07371 0
M  V30 4611 O 436.878 0.900612 1.73971 0
M  V30 4612 H 435.458 0.735734 -0.129246 0
M  V30 4613 H 438.12 1.66776 -1.00855 0
M  V30 4614 H 437.216 3.08874 -0.447549 0
M  V30 4615 N 437.518 0.538854 1.48102 0
M  V30 4616 C 438.764 0.00801365 2.02798 0
M  V30 4617 C 439.097 -1.3309 1.41424 0
M  V30 4618 O 438.372 -1.86169 0.563158 0
M  V30 4619 C 438.655 -0.104589 3.59948 0
M  V30 4620 C 438.508 1.26012 4.31788 0
M  V30 4621 C 439.827 -0.827055 4.32259 0
M  V30 4622 H 436.946 0.00438624 0.736987 0
M  V30 4623 H 439.588 0.6976 1.7673 0
M  V30 4624 H 437.738 -0.691893 3.82289 0
M  V30 4625 H 439.41 1.88922 4.2084 0
M  V30 4626 H 437.653 1.83968 3.92859 0
M  V30 4627 H 438.324 1.13424 5.40221 0
M  V30 4628 H 440.8 -0.328578 4.14801 0
M  V30 4629 H 439.676 -0.87476 5.41885 0
M  V30 4630 H 439.937 -1.87927 4.0017 0
M  V30 4631 N 438.996 -1.55193 0.274407 0
M  V30 4632 C 439.944 -2.23924 -0.629362 0
M  V30 4633 C 440.938 -1.23602 -1.1584 0
M  V30 4634 O 442.144 -1.41535 -1.11211 0
M  V30 4635 H 438.519 -0.718637 -0.221507 0
M  V30 4636 H 440.49 -2.98388 -0.0268322 0
M  V30 4637 C 439.239 -2.97329 -1.80252 0
M  V30 4638 H 438.562 -3.74313 -1.40462 0
M  V30 4639 H 440.002 -3.48743 -2.41152 0
M  V30 4640 C 438.461 -2.0276 -2.69054 0
M  V30 4641 O 438.991 -1.57836 -3.69392 0
M  V30 4642 N 437.197 -1.69275 -2.36208 0
M  V30 4643 H 436.744 -2.06004 -1.54661 0
M  V30 4644 H 436.702 -1.06271 -2.95895 0
M  V30 4645 N 440.474 -0.00167713 -1.576 0
M  V30 4646 C 441.704 0.692754 -1.94639 0
M  V30 4647 C 442.112 1.67744 -0.87513 0
M  V30 4648 O 441.455 1.8305 0.154382 0
M  V30 4649 C 441.517 1.47881 -3.27676 0
M  V30 4650 C 441.181 0.655518 -4.52274 0
M  V30 4651 C 442.178 -0.0575214 -5.19868 0
M  V30 4652 C 439.863 0.600994 -4.98692 0
M  V30 4653 C 441.857 -0.814052 -6.3218 0
M  V30 4654 C 439.544 -0.15926 -6.10892 0
M  V30 4655 C 440.542 -0.865515 -6.77494 0
M  V30 4656 O 440.23 -1.61336 -7.87544 0
M  V30 4657 H 439.962 0.197792 -0.646417 0
M  V30 4658 H 442.516 -0.049423 -2.05341 0
M  V30 4659 H 440.746 2.2655 -3.13388 0
M  V30 4660 H 442.435 2.05874 -3.49816 0
M  V30 4661 H 443.201 -0.0245611 -4.84994 0
M  V30 4662 H 439.08 1.14025 -4.46676 0
M  V30 4663 H 442.624 -1.36584 -6.84098 0
M  V30 4664 H 438.521 -0.194035 -6.45208 0
M  V30 4665 H 439.289 -1.53025 -8.04068 0
M  V30 4666 N 441.952 1.55251 0.271103 0
M  V30 4667 C 443.177 1.80306 1.02491 0
M  V30 4668 C 443.602 0.575457 1.79081 0
M  V30 4669 O 442.96 -0.474987 1.74967 0
M  V30 4670 C 443.008 3.02832 1.95768 0
M  V30 4671 O 442.112 2.78051 3.04568 0
M  V30 4672 H 441.453 0.595896 0.292923 0
M  V30 4673 H 443.983 2.02397 0.299436 0
M  V30 4674 H 443.993 3.31616 2.37686 0
M  V30 4675 H 442.668 3.9183 1.39434 0
M  V30 4676 H 441.245 2.60369 2.66951 0
M  V30 4677 N 443.43 -0.535701 1.48216 0
M  V30 4678 C 444.677 -1.29183 1.55942 0
M  V30 4679 C 445.005 -1.93125 0.230857 0
M  V30 4680 O 444.26 -1.79556 -0.778331 0
M  V30 4681 C 444.559 -2.4068 2.64212 0
M  V30 4682 C 444.225 -1.94428 4.06827 0
M  V30 4683 C 442.887 -1.81532 4.45645 0
M  V30 4684 C 445.239 -1.59405 4.96225 0
M  V30 4685 C 442.567 -1.31939 5.71672 0
M  V30 4686 C 444.919 -1.11276 6.22736 0
M  V30 4687 C 443.583 -0.969924 6.60416 0
M  V30 4688 H 442.853 -0.472715 0.570632 0
M  V30 4689 H 445.5 -0.598437 1.81909 0
M  V30 4690 H 443.805 -3.15666 2.32083 0
M  V30 4691 H 445.502 -2.98822 2.67407 0
M  V30 4692 H 442.092 -2.05415 3.76168 0
M  V30 4693 H 446.276 -1.68231 4.66917 0
M  V30 4694 H 441.532 -1.19562 5.99596 0
M  V30 4695 H 445.706 -0.832453 6.91407 0
M  V30 4696 H 443.333 -0.583436 7.57958 0
M  V30 4697 O 444.947 -1.46458 -0.680617 0
M  V30 4698 H 445.638 -1.40531 -1.33307 0
M  V30 END ATOM
M  V30 BEGIN BOND
M  V30 END BOND
M  V30 END CTAB
M  END
$$$$
