drugbank_target|P76187 Oxidoreductase YdhF (DB03461)
 OpenBabel12092120273D

  0  0  0     0  0            999 V3000
M  V30 BEGIN CTAB
M  V30 COUNTS 4736 4790 0 0 0
M  V30 BEGIN ATOM
M  V30 1 H -0.908 1.98254 -0.117106 0
M  V30 2 N 0 1.576 0 0
M  V30 3 C 0.933 2.03868 1.02534 0
M  V30 4 C 1.911 0.928543 1.3348 0
M  V30 5 O 3.095 1.19667 1.45644 0
M  V30 6 C 0.222 2.43627 2.35294 0
M  V30 7 C -0.732 3.65373 2.2001 0
M  V30 8 S 0.101 5.13292 1.52614 0
M  V30 9 C 1.257 5.56322 2.86805 0
M  V30 10 H 1.49 2.90518 0.631377 0
M  V30 11 H -0.977 1.52953 0.210867 0
M  V30 12 H 0.981 2.67203 3.11629 0
M  V30 13 H -0.358 1.57376 2.7183 0
M  V30 14 H -1.165 3.90944 3.18086 0
M  V30 15 H -1.563 3.418 1.51819 0
M  V30 16 H 0.729 5.58782 3.83104 0
M  V30 17 H 1.672 6.56266 2.65933 0
M  V30 18 H 2.08 4.83886 2.90714 0
M  V30 19 N 1.4781 -0.272755 1.55222 0
M  V30 20 C 2.7241 -1.00581 1.761 0
M  V30 21 C 3.0571 -1.85932 0.560625 0
M  V30 22 O 2.3321 -1.89416 -0.441801 0
M  V30 23 C 2.6151 -1.88816 3.06628 0
M  V30 24 C 2.4681 -1.06457 4.37021 0
M  V30 25 C 3.7871 -2.8752 3.33197 0
M  V30 26 H 0.9061 -0.364244 0.640699 0
M  V30 27 H 3.5481 -0.278189 1.87952 0
M  V30 28 H 1.6981 -2.50856 2.96654 0
M  V30 29 H 3.3701 -0.464863 4.58952 0
M  V30 30 H 1.6131 -0.368043 4.32236 0
M  V30 31 H 2.2841 -1.71514 5.24678 0
M  V30 32 H 4.7601 -2.35615 3.42965 0
M  V30 33 H 3.6361 -3.46399 4.25792 0
M  V30 34 H 3.8971 -3.62657 2.52849 0
M  V30 35 N 2.9562 -1.48159 -0.537278 0
M  V30 36 C 3.8882 -1.58218 -1.65831 0
M  V30 37 C 4.9012 -0.466948 -1.5596 0
M  V30 38 O 6.0902 -0.73747 -1.62553 0
M  V30 39 C 3.1902 -1.48906 -3.04434 0
M  V30 40 C 2.3632 -2.75343 -3.3986 0
M  V30 41 C 1.4222 -2.59588 -4.57712 0
M  V30 42 O 0.4482 -3.33457 -4.61297 0
M  V30 43 N 1.6502 -1.68724 -5.55439 0
M  V30 44 H 4.4152 -2.54891 -1.57641 0
M  V30 45 H 1.9762 -1.4479 -0.724386 0
M  V30 46 H 3.9682 -1.36072 -3.81139 0
M  V30 47 H 2.5382 -0.602368 -3.06741 0
M  V30 48 H 1.7582 -3.02795 -2.52406 0
M  V30 49 H 3.0462 -3.5924 -3.60311 0
M  V30 50 H 2.4442 -1.07898 -5.55315 0
M  V30 51 H 1.0012 -1.61832 -6.3139 0
M  V30 52 N 4.4343 0.785586 -1.36625 0
M  V30 53 C 5.8503 1.08419 -1.17122 0
M  V30 54 C 6.0503 2.015 0.00208491 0
M  V30 55 O 5.1063 2.43551 0.666278 0
M  V30 56 C 6.4193 1.69498 -2.48377 0
M  V30 57 C 7.9673 1.81821 -2.54775 0
M  V30 58 C 8.4423 2.46315 -3.86126 0
M  V30 59 N 9.9333 2.53779 -3.87492 0
M  V30 60 C 10.6683 3.045 -4.85868 0
M  V30 61 N 10.1643 3.55499 -5.94637 0
M  V30 62 N 11.9573 3.03247 -4.73284 0
M  V30 63 H 4.1083 0.167264 -2.1174 0
M  V30 64 H 6.3713 0.13682 -0.938075 0
M  V30 65 H 6.0773 1.08571 -3.34522 0
M  V30 66 H 5.9513 2.6896 -2.64462 0
M  V30 67 H 8.3383 2.41884 -1.69045 0
M  V30 68 H 8.4193 0.811532 -2.42586 0
M  V30 69 H 8.0633 1.86895 -4.72263 0
M  V30 70 H 7.9933 3.47561 -3.95612 0
M  V30 71 H 10.4843 2.17672 -3.08913 0
M  V30 72 H 10.7973 3.92562 -6.65669 0
M  V30 73 H 9.1423 3.5364 -5.98301 0
M  V30 74 H 12.3333 2.62696 -3.87438 0
M  V30 75 H 12.5063 3.42467 -5.50109 0
M  V30 76 N 5.9124 1.20967 1.01018 0
M  V30 77 C 7.1614 1.01796 1.74128 0
M  V30 78 C 7.4744 -0.449691 1.90361 0
M  V30 79 O 8.6804 -0.76068 2.60626 0
M  V30 80 C 7.1364 1.7727 3.13215 0
M  V30 81 C 6.7444 3.28171 3.04972 0
M  V30 82 C 8.4884 1.66489 3.90489 0
M  V30 83 C 6.3954 3.96156 4.39107 0
M  V30 84 H 5.3254 0.377276 0.652824 0
M  V30 85 H 7.9764 1.44651 1.12909 0
M  V30 86 H 6.3584 1.27205 3.75013 0
M  V30 87 H 7.5324 3.85499 2.52443 0
M  V30 88 H 5.8474 3.39437 2.41188 0
M  V30 89 H 8.4444 2.14617 4.89738 0
M  V30 90 H 8.7874 0.6222 4.11624 0
M  V30 91 H 9.3204 2.14003 3.35332 0
M  V30 92 H 6.0594 5.00604 4.23174 0
M  V30 93 H 5.5794 3.43617 4.91617 0
M  V30 94 H 7.2584 4.00774 5.07926 0
M  V30 95 N 7.3905 -1.2043 1.01659 0
M  V30 96 C 8.6185 -1.93777 0.725132 0
M  V30 97 C 9.0335 -1.74772 -0.714166 0
M  V30 98 O 8.3905 -1.06169 -1.4844 0
M  V30 99 C 8.4415 -3.45876 1.05129 0
M  V30 100 O 8.1625 -3.6426 2.43406 0
M  V30 101 C 9.6635 -4.36368 0.780891 0
M  V30 102 H 6.8835 -0.615901 0.266284 0
M  V30 103 H 9.4275 -1.52922 1.35776 0
M  V30 104 H 7.5825 -3.8461 0.464065 0
M  V30 105 H 7.9965 -4.58246 2.55169 0
M  V30 106 H 9.4705 -5.41743 1.05918 0
M  V30 107 H 9.9475 -4.38275 -0.284937 0
M  V30 108 H 10.5535 -4.03296 1.35027 0
M  V30 109 N 8.8686 -0.792821 -1.36206 0
M  V30 110 C 10.1176 -0.363353 -1.984 0
M  V30 111 C 10.4306 1.07172 -1.63626 0
M  V30 112 O 11.6366 1.60362 -2.19081 0
M  V30 113 C 10.0926 -0.59872 -3.54885 0
M  V30 114 C 9.7006 -2.04543 -3.9858 0
M  V30 115 C 11.4446 -0.233926 -4.23855 0
M  V30 116 C 9.3516 -2.22727 -5.47856 0
M  V30 117 H 8.2816 -0.13212 -0.742334 0
M  V30 118 H 10.9326 -0.974935 -1.55458 0
M  V30 119 H 9.3146 0.0826222 -3.95914 0
M  V30 120 H 10.4886 -2.76345 -3.68741 0
M  V30 121 H 8.8036 -2.36879 -3.42458 0
M  V30 122 H 11.4006 -0.348027 -5.33566 0
M  V30 123 H 11.7436 0.818351 -4.08177 0
M  V30 124 H 12.2766 -0.868639 -3.882 0
M  V30 125 H 9.0156 -3.2635 -5.68486 0
M  V30 126 H 8.5356 -1.55434 -5.7931 0
M  V30 127 H 10.2146 -2.03607 -6.14128 0
M  V30 128 N 10.3467 1.47872 -0.545128 0
M  V30 129 C 11.3097 2.28337 0.198717 0
M  V30 130 C 12.3097 1.36255 0.853888 0
M  V30 131 O 13.4997 1.59003 0.711606 0
M  V30 132 C 10.6317 3.15585 1.28915 0
M  V30 133 H 11.8247 2.95567 -0.507941 0
M  V30 134 H 9.3777 1.53362 -0.301616 0
M  V30 135 H 10.1127 2.53019 2.02859 0
M  V30 136 H 9.8977 3.83337 0.824309 0
M  V30 137 H 11.3877 3.76243 1.81194 0
M  V30 138 N 11.8248 0.280983 1.55075 0
M  V30 139 C 13.2358 -0.215629 1.85451 0
M  V30 140 C 13.5868 -1.54991 1.203 0
M  V30 141 O 12.7118 -2.10699 0.493435 0
M  V30 142 C 13.3068 -0.398026 3.36454 0
M  V30 143 C 11.8658 -0.838866 3.66933 0
M  V30 144 C 11.0128 0.064458 2.77225 0
M  V30 145 H 13.9638 0.502601 1.50531 0
M  V30 146 H 13.9848 -1.23569 3.59876 0
M  V30 147 H 13.4968 0.573241 3.83843 0
M  V30 148 H 11.5978 -1.8214 3.25048 0
M  V30 149 H 11.7108 -0.672123 4.74362 0
M  V30 150 H 10.0748 -0.452863 2.50642 0
M  V30 151 H 10.8578 1.03172 3.2743 0
M  V30 152 N 13.3029 -1.57598 0.00835791 0
M  V30 153 C 14.2349 -2.05811 -1.00868 0
M  V30 154 C 15.2479 -0.977579 -1.30182 0
M  V30 155 O 16.4369 -1.25421 -1.27011 0
M  V30 156 C 13.5369 -2.45016 -2.34137 0
M  V30 157 C 12.7099 -3.75903 -2.23643 0
M  V30 158 C 11.7689 -4.01884 -3.3967 0
M  V30 159 O 10.7949 -4.72433 -3.17483 0
M  V30 160 N 11.9969 -3.50432 -4.62793 0
M  V30 161 H 14.7619 -2.93684 -0.597458 0
M  V30 162 H 12.3229 -1.60909 -0.178852 0
M  V30 163 H 14.3149 -2.59506 -3.10546 0
M  V30 164 H 12.8849 -1.62618 -2.66972 0
M  V30 165 H 12.1049 -3.7141 -1.32091 0
M  V30 166 H 13.3929 -4.61695 -2.13812 0
M  V30 167 H 12.7909 -2.93317 -4.83716 0
M  V30 168 H 11.3479 -3.70236 -5.3644 0
M  V30 169 N 14.781 0.264519 -1.55364 0
M  V30 170 C 16.029 0.993021 -1.76021 0
M  V30 171 C 16.35 1.86511 -0.569099 0
M  V30 172 O 15.62 1.91438 0.415735 0
M  V30 173 H 14.2 0.369639 -0.649135 0
M  V30 174 H 16.862 0.286707 -1.9278 0
M  V30 175 H 15.958 1.62502 -2.66457 0
M  V30 176 N 16.2591 1.48442 0.529413 0
M  V30 177 C 17.6701 1.5002 1.11134 0
M  V30 178 C 18.0211 0.27031 1.94329 0
M  V30 179 O 17.1461 -0.622507 2.07253 0
M  V30 180 C 17.7411 2.71834 2.02217 0
M  V30 181 C 16.3001 2.76283 2.55627 0
M  V30 182 C 15.4471 2.43542 1.326 0
M  V30 183 H 18.3981 1.5555 0.314641 0
M  V30 184 H 18.4191 2.50384 2.8651 0
M  V30 185 H 17.9311 3.61331 1.41639 0
M  V30 186 H 16.0321 1.90995 3.19924 0
M  V30 187 H 16.1451 3.77725 2.94721 0
M  V30 188 H 14.5091 1.94709 1.64196 0
M  V30 189 H 15.2921 3.3528 0.737734 0
M  V30 190 N 17.7372 -0.778329 1.37039 0
M  V30 191 C 18.6472 -1.92253 1.34446 0
M  V30 192 C 19.6632 -1.72267 0.244991 0
M  V30 193 O 20.8392 -1.95615 0.479258 0
M  V30 194 C 17.9042 -3.27282 1.144 0
M  V30 195 C 16.9652 -3.59969 2.33925 0
M  V30 196 C 16.1982 -4.88555 2.14825 0
M  V30 197 O 16.4212 -5.59113 1.12912 0
M  V30 198 O 15.3552 -5.20153 3.02861 0
M  V30 199 H 19.1812 -1.97392 2.30803 0
M  V30 200 H 16.7662 -0.920154 1.17701 0
M  V30 201 H 18.6482 -4.08062 1.05182 0
M  V30 202 H 17.3232 -3.23011 0.211124 0
M  V30 203 H 16.2302 -2.7945 2.48714 0
M  V30 204 H 17.5632 -3.68976 3.25757 0
M  V30 205 N 19.2153 -1.21501 -1.00376 0
M  V30 206 C 20.4623 -1.03299 -1.74171 0
M  V30 207 C 20.7903 0.433326 -1.89612 0
M  V30 208 O 20.0453 1.33779 -1.42834 0
M  V30 209 C 20.3443 -1.67673 -3.15627 0
M  V30 210 C 20.0103 -3.17533 -3.2013 0
M  V30 211 C 18.6723 -3.58427 -3.21067 0
M  V30 212 C 21.0243 -4.13504 -3.17275 0
M  V30 213 C 18.3523 -4.93794 -3.16835 0
M  V30 214 C 20.7043 -5.48834 -3.14585 0
M  V30 215 C 19.3683 -5.89123 -3.13831 0
M  V30 216 H 18.6383 -0.377999 -0.637336 0
M  V30 217 H 21.2853 -1.51111 -1.17634 0
M  V30 218 H 19.5903 -1.12158 -3.75404 0
M  V30 219 H 21.2873 -1.51091 -3.71446 0
M  V30 220 H 17.8773 -2.84965 -3.20145 0
M  V30 221 H 22.0613 -3.82936 -3.15711 0
M  V30 222 H 17.3173 -5.24255 -3.1459 0
M  V30 223 H 21.4913 -6.22934 -3.1133 0
M  V30 224 H 19.1183 -6.93984 -3.10307 0
M  V30 225 N 20.6934 1.19889 -1.02296 0
M  V30 226 C 21.9184 1.9393 -0.735237 0
M  V30 227 C 22.3434 1.74639 0.698782 0
M  V30 228 O 21.7014 1.04481 1.48167 0
M  V30 229 C 21.7494 3.43916 -1.08417 0
M  V30 230 O 20.8534 4.11917 -0.199446 0
M  V30 231 H 20.1944 0.605645 -0.272196 0
M  V30 232 H 22.7244 1.52137 -1.36804 0
M  V30 233 H 22.7344 3.9456 -1.03856 0
M  V30 234 H 21.4094 3.5728 -2.12894 0
M  V30 235 H 19.9864 3.71666 -0.303136 0
M  V30 236 N 22.1715 0.800033 1.35784 0
M  V30 237 C 23.5875 0.482977 1.52117 0
M  V30 238 C 23.7875 -0.996948 1.75109 0
M  V30 239 O 22.8435 -1.78216 1.78872 0
M  V30 240 C 24.1565 1.32264 2.70049 0
M  V30 241 C 25.7045 1.31742 2.83924 0
M  V30 242 C 26.1795 2.14106 4.04874 0
M  V30 243 N 27.6705 2.11607 4.12039 0
M  V30 244 C 28.4055 2.72099 5.04727 0
M  V30 245 N 27.9015 3.41492 6.02789 0
M  V30 246 N 29.6945 2.61776 4.97423 0
M  V30 247 H 21.8455 1.75856 1.19115 0
M  V30 248 H 24.1085 0.748122 0.582252 0
M  V30 249 H 23.8145 2.37261 2.59616 0
M  V30 250 H 23.6885 0.971303 3.6448 0
M  V30 251 H 26.0755 0.275333 2.93813 0
M  V30 252 H 26.1565 1.70859 1.9037 0
M  V30 253 H 25.8005 3.18351 3.95746 0
M  V30 254 H 25.7305 1.72353 4.97596 0
M  V30 255 H 28.2215 1.61112 3.41835 0
M  V30 256 H 28.5345 3.84953 6.70098 0
M  V30 257 H 26.8795 3.45596 6.02983 0
M  V30 258 H 30.0705 2.07157 4.19766 0
M  V30 259 H 30.2435 3.0921 5.69468 0
M  V30 260 N 23.6496 -1.47581 0.552962 0
M  V30 261 C 24.8966 -2.02482 0.0273243 0
M  V30 262 C 25.2246 -1.42776 -1.32081 0
M  V30 263 O 24.4796 -0.571393 -1.87173 0
M  V30 264 C 24.7786 -3.57199 -0.119728 0
M  V30 265 C 24.4446 -4.35804 1.15697 0
M  V30 266 C 23.1066 -4.57 1.50681 0
M  V30 267 C 25.4586 -4.81167 2.00319 0
M  V30 268 C 22.7866 -5.20807 2.70142 0
M  V30 269 C 25.1386 -5.46293 3.18978 0
M  V30 270 C 23.8026 -5.65722 3.54281 0
M  V30 271 H 23.0726 -0.740933 0.00999866 0
M  V30 272 H 25.7196 -1.77302 0.72362 0
M  V30 273 H 24.0246 -3.81348 -0.89896 0
M  V30 274 H 25.7216 -3.97324 -0.541718 0
M  V30 275 H 22.3116 -4.19582 0.874561 0
M  V30 276 H 26.4956 -4.64574 1.74599 0
M  V30 277 H 21.7516 -5.34045 2.97668 0
M  V30 278 H 25.9256 -5.80407 3.84838 0
M  V30 279 H 23.5526 -6.14936 4.46942 0
M  V30 280 N 25.1277 -0.289203 -1.54924 0
M  V30 281 C 26.3737 0.323998 -2.00195 0
M  V30 282 C 26.7067 1.54441 -1.17735 0
M  V30 283 O 25.9817 1.92875 -0.250878 0
M  V30 284 C 26.2647 0.692276 -3.53383 0
M  V30 285 C 26.1177 -0.536457 -4.46589 0
M  V30 286 C 27.4367 1.52335 -4.12895 0
M  V30 287 H 24.5557 0.116289 -0.727768 0
M  V30 288 H 27.1977 -0.398954 -1.85764 0
M  V30 289 H 25.3477 1.30822 -3.65811 0
M  V30 290 H 27.0197 -1.17499 -4.46085 0
M  V30 291 H 25.2627 -1.17192 -4.1767 0
M  V30 292 H 25.9337 -0.234806 -5.515 0
M  V30 293 H 28.4097 1.00302 -4.0383 0
M  V30 294 H 27.2857 1.74982 -5.20262 0
M  V30 295 H 27.5467 2.50886 -3.64018 0
M  V30 296 N 26.6058 1.57591 -0.0167156 0
M  V30 297 C 27.5388 2.04944 1.00366 0
M  V30 298 C 28.5168 0.942648 1.32487 0
M  V30 299 O 29.7008 1.21205 1.44367 0
M  V30 300 C 26.8278 2.46109 2.32697 0
M  V30 301 C 25.8738 3.67686 2.16123 0
M  V30 302 S 26.7068 5.14882 1.47161 0
M  V30 303 C 27.8628 5.59332 2.80888 0
M  V30 304 H 28.0958 2.91172 0.600528 0
M  V30 305 H 25.6288 1.53168 0.194632 0
M  V30 306 H 27.5868 2.70493 3.08778 0
M  V30 307 H 26.2478 1.6025 2.70146 0
M  V30 308 H 25.4408 3.94296 3.13922 0
M  V30 309 H 25.0428 3.43391 1.48185 0
M  V30 310 H 27.3348 5.62814 3.77156 0
M  V30 311 H 28.2778 6.5905 2.58958 0
M  V30 312 H 28.6858 4.86942 2.85565 0
M  V30 313 N 28.0839 -0.256276 1.55502 0
M  V30 314 C 29.3319 -0.983672 1.76545 0
M  V30 315 C 29.6529 -1.86206 0.578982 0
M  V30 316 O 28.9229 -1.91656 -0.405577 0
M  V30 317 H 27.5029 -0.366191 0.651086 0
M  V30 318 H 30.1649 -0.276479 1.92929 0
M  V30 319 H 29.2609 -1.61087 2.67315 0
M  V30 320 N 29.562 -1.4872 -0.521534 0
M  V30 321 C 30.792 -1.6061 -1.29954 0
M  V30 322 C 31.2 -0.268728 -1.87282 0
M  V30 323 O 30.543 0.753221 -1.67548 0
M  V30 324 C 30.605 -2.60013 -2.48261 0
M  V30 325 C 30.269 -4.04874 -2.11957 0
M  V30 326 C 31.266 -4.92304 -1.67132 0
M  V30 327 C 28.951 -4.5047 -2.22221 0
M  V30 328 C 30.945 -6.2336 -1.33047 0
M  V30 329 C 28.632 -5.81544 -1.87748 0
M  V30 330 C 29.63 -6.67812 -1.43234 0
M  V30 331 O 29.318 -7.96446 -1.09217 0
M  V30 332 H 29.05 -0.544116 -0.401141 0
M  V30 333 H 31.604 -1.95339 -0.634958 0
M  V30 334 H 29.834 -2.20422 -3.17728 0
M  V30 335 H 31.523 -2.61648 -3.10315 0
M  V30 336 H 32.289 -4.58312 -1.58665 0
M  V30 337 H 28.168 -3.83504 -2.55823 0
M  V30 338 H 31.712 -6.90649 -0.982299 0
M  V30 339 H 27.609 -6.15069 -1.95858 0
M  V30 340 H 28.377 -8.09275 -1.22542 0
M  V30 341 N 31.0401 0.771051 -1.3745 0
M  V30 342 C 32.2861 1.53109 -1.339 0
M  V30 343 C 32.6411 1.9225 0.0758401 0
M  V30 344 O 31.9341 1.61264 1.03463 0
M  V30 345 C 32.1281 2.80676 -2.2126 0
M  V30 346 C 31.9571 2.54003 -3.71096 0
M  V30 347 C 30.7271 2.48097 -4.402 0
M  V30 348 C 32.9251 2.21953 -4.63941 0
M  V30 349 N 30.9071 2.13515 -5.75573 0
M  V30 350 C 32.2781 1.97516 -5.87697 0
M  V30 351 C 34.3331 2.08114 -4.5232 0
M  V30 352 C 33.0361 1.60638 -7.01133 0
M  V30 353 C 35.0621 1.72636 -5.65642 0
M  V30 354 C 34.4241 1.4906 -6.88448 0
M  V30 355 H 30.5231 0.56055 -0.54526 0
M  V30 356 H 33.1071 0.899472 -1.72678 0
M  V30 357 H 31.2781 3.41674 -1.84698 0
M  V30 358 H 33.0101 3.46578 -2.08963 0
M  V30 359 H 29.7651 2.63974 -3.93211 0
M  V30 360 H 30.1891 1.98919 -6.47117 0
M  V30 361 H 34.8311 2.25024 -3.57944 0
M  V30 362 H 32.5491 1.42467 -7.95443 0
M  V30 363 H 36.1351 1.62586 -5.58621 0
M  V30 364 H 35.0151 1.22014 -7.7465 0
M  V30 365 N 32.5182 1.22032 0.997298 0
M  V30 366 C 33.9342 0.979326 1.26021 0
M  V30 367 C 34.1342 -0.32972 1.98784 0
M  V30 368 O 33.1902 -1.05345 2.29475 0
M  V30 369 C 34.5032 2.17509 2.07631 0
M  V30 370 C 36.0512 2.21817 2.2083 0
M  V30 371 C 36.5262 3.40933 3.05825 0
M  V30 372 N 38.0172 3.41067 3.13412 0
M  V30 373 C 38.7522 4.29885 3.79455 0
M  V30 374 N 38.2482 5.28914 4.47462 0
M  V30 375 N 40.0412 4.17673 3.76173 0
M  V30 376 H 32.1922 2.06202 0.509352 0
M  V30 377 H 34.4552 0.90334 0.287541 0
M  V30 378 H 34.1612 3.12415 1.61524 0
M  V30 379 H 34.0352 2.17206 3.08385 0
M  V30 380 H 36.4222 1.27462 2.66153 0
M  V30 381 H 36.5032 2.2616 1.1952 0
M  V30 382 H 36.1472 4.35586 2.61203 0
M  V30 383 H 36.0772 3.33829 4.07266 0
M  V30 384 H 38.5682 2.69406 2.65007 0
M  V30 385 H 38.8812 5.92973 4.95583 0
M  V30 386 H 37.2262 5.32831 4.46224 0
M  V30 387 H 40.4172 3.39564 3.22202 0
M  V30 388 H 40.5902 4.87098 4.27363 0
M  V30 389 N 33.9963 -1.19345 1.0293 0
M  V30 390 C 34.9263 -2.2481 0.631105 0
M  V30 391 C 35.9073 -1.66245 -0.360104 0
M  V30 392 O 37.0923 -1.92677 -0.242726 0
M  V30 393 C 34.2223 -3.47295 -0.0184607 0
M  V30 394 C 33.1763 -4.18536 0.895073 0
M  V30 395 C 32.5023 -5.34586 0.110592 0
M  V30 396 C 33.8023 -4.73287 2.209 0
M  V30 397 H 35.4963 -2.58372 1.51275 0
M  V30 398 H 33.0423 -1.24194 0.728818 0
M  V30 399 H 34.9953 -4.20268 -0.308675 0
M  V30 400 H 33.7193 -3.12933 -0.934907 0
M  V30 401 H 32.3783 -3.47446 1.16949 0
M  V30 402 H 32.0263 -4.96469 -0.807902 0
M  V30 403 H 31.7263 -5.83183 0.719087 0
M  V30 404 H 33.2503 -6.10355 -0.172871 0
M  V30 405 H 34.6643 -5.38013 1.98028 0
M  V30 406 H 33.0613 -5.32373 2.76946 0
M  V30 407 H 34.1313 -3.91331 2.86336 0
M  V30 408 N 35.4744 -0.807222 -1.35358 0
M  V30 409 C 36.4074 -0.163572 -2.27613 0
M  V30 410 C 37.3854 0.670817 -1.48118 0
M  V30 411 O 38.5694 0.63796 -1.77376 0
M  V30 412 C 35.6964 0.773015 -3.29761 0
M  V30 413 C 34.7424 0.0181653 -4.26496 0
M  V30 414 S 35.5754 -1.31831 -5.19019 0
M  V30 415 C 36.7314 -0.38619 -6.24707 0
M  V30 416 H 36.9644 -0.945757 -2.81856 0
M  V30 417 H 34.4974 -0.602315 -1.42167 0
M  V30 418 H 36.4554 1.30788 -3.89108 0
M  V30 419 H 35.1164 1.52859 -2.74396 0
M  V30 420 H 34.3094 0.729534 -4.98692 0
M  V30 421 H 33.9114 -0.446761 -3.71322 0
M  V30 422 H 36.2034 0.428295 -6.76145 0
M  V30 423 H 37.1464 -1.07736 -6.99856 0
M  V30 424 H 37.5544 0.018398 -5.64497 0
M  V30 425 N 36.9525 1.47285 -0.560781 0
M  V30 426 C 38.2295 1.9558 0.0277798 0
M  V30 427 C 38.6095 1.5034 1.48192 0
M  V30 428 O 37.9575 0.743882 2.16052 0
M  V30 429 C 38.1675 3.48789 -0.121418 0
M  V30 430 C 39.5155 4.24594 0.0220912 0
M  V30 431 O 40.5395 3.56166 -0.0491439 0
M  V30 432 O 39.3985 5.46217 0.175958 0
M  V30 433 H 36.4925 0.824663 0.0621342 0
M  V30 434 H 39.0385 1.5767 -0.627556 0
M  V30 435 H 37.8105 3.74533 -1.13316 0
M  V30 436 H 37.4335 3.93473 0.571366 0
M  V30 437 N 38.4306 0.297415 1.54768 0
M  V30 438 C 39.6766 -0.306263 2.01081 0
M  V30 439 C 40.0316 -1.518 1.18214 0
M  V30 440 O 39.3246 -1.89967 0.249613 0
M  V30 441 C 39.5186 -0.717561 3.50123 0
M  V30 442 C 39.3476 0.45277 4.47415 0
M  V30 443 C 38.1176 0.943651 4.9641 0
M  V30 444 C 40.3156 1.29657 4.97688 0
M  V30 445 N 38.2976 2.08112 5.77549 0
M  V30 446 C 39.6686 2.28158 5.76493 0
M  V30 447 C 41.7236 1.32735 4.79881 0
M  V30 448 C 40.4266 3.29509 6.39387 0
M  V30 449 C 42.4526 2.32943 5.43591 0
M  V30 450 C 41.8146 3.30174 6.22225 0
M  V30 451 H 37.9136 -0.0766274 0.778237 0
M  V30 452 H 40.4976 0.426515 1.89971 0
M  V30 453 H 38.6686 -1.41952 3.6153 0
M  V30 454 H 40.4006 -1.30047 3.83236 0
M  V30 455 H 37.1556 0.51922 4.70745 0
M  V30 456 H 37.5796 2.65414 6.22803 0
M  V30 457 H 42.2216 0.589375 4.18672 0
M  V30 458 H 39.9396 4.04228 6.99732 0
M  V30 459 H 43.5256 2.36094 5.31743 0
M  V30 460 H 42.4056 4.06445 6.7065 0
M  V30 461 N 39.9087 -1.5758 0.0250728 0
M  V30 462 C 40.8567 -2.11125 -0.97617 0
M  V30 463 C 41.8507 -1.03689 -1.33959 0
M  V30 464 O 43.0567 -1.22128 -1.3223 0
M  V30 465 H 39.4317 -0.674468 -0.332561 0
M  V30 466 H 41.4027 -2.94194 -0.499223 0
M  V30 467 C 40.1517 -2.65017 -2.2508 0
M  V30 468 H 39.4747 -3.47333 -1.9799 0
M  V30 469 H 40.9147 -3.06133 -2.93357 0
M  V30 470 C 39.3737 -1.57574 -2.97779 0
M  V30 471 O 39.9037 -0.973203 -3.89733 0
M  V30 472 N 38.1097 -1.29716 -2.60043 0
M  V30 473 H 37.6567 -1.789 -1.85345 0
M  V30 474 H 37.6147 -0.58051 -3.08994 0
M  V30 475 N 41.3868 0.248026 -1.55636 0
M  V30 476 C 42.3198 1.3334 -1.85191 0
M  V30 477 C 43.2978 1.46429 -0.706906 0
M  V30 478 O 44.4818 1.62662 -0.952544 0
M  V30 479 C 41.6088 2.70703 -2.03562 0
M  V30 480 C 40.6548 2.7477 -3.26196 0
M  V30 481 S 41.4878 2.31493 -4.82878 0
M  V30 482 C 42.6438 3.70783 -5.04253 0
M  V30 483 H 42.8768 1.08072 -2.76962 0
M  V30 484 H 40.4098 0.448952 -1.47729 0
M  V30 485 H 42.3678 3.49798 -2.1483 0
M  V30 486 H 41.0288 2.9321 -1.12635 0
M  V30 487 H 40.2218 3.75648 -3.36013 0
M  V30 488 H 39.8238 2.03719 -3.13647 0
M  V30 489 H 42.1158 4.6627 -4.91527 0
M  V30 490 H 43.0588 3.65901 -6.06236 0
M  V30 491 H 43.4668 3.63244 -4.32105 0
M  V30 492 N 42.8649 1.48995 0.513639 0
M  V30 493 C 44.0899 1.61792 1.29762 0
M  V30 494 C 44.5149 0.284475 1.85936 0
M  V30 495 O 43.8729 -0.746185 1.65232 0
M  V30 496 C 43.9209 2.67993 2.41272 0
M  V30 497 O 43.0249 2.26287 3.44772 0
M  V30 498 H 42.3659 0.541963 0.38363 0
M  V30 499 H 44.8959 1.95097 0.616307 0
M  V30 500 H 44.9059 2.89772 2.87221 0
M  V30 501 H 43.5809 3.64791 1.9975 0
M  V30 502 H 42.1579 2.14788 3.04829 0
M  V30 503 N 44.343 -0.763751 1.37857 0
M  V30 504 C 45.306 -1.85889 1.34081 0
M  V30 505 C 46.306 -1.58949 0.243277 0
M  V30 506 O 47.496 -1.66882 0.499589 0
M  V30 507 C 44.628 -3.23176 1.08489 0
M  V30 508 H 45.821 -1.90648 2.31502 0
M  V30 509 H 43.374 -0.964367 1.23003 0
M  V30 510 H 44.109 -3.24091 0.116318 0
M  V30 511 H 43.894 -3.44124 1.8794 0
M  V30 512 H 45.384 -4.03254 1.08517 0
M  V30 513 N 45.8211 -1.22559 -0.990812 0
M  V30 514 C 47.2371 -0.985996 -1.255 0
M  V30 515 C 47.4371 0.319173 -1.98956 0
M  V30 516 O 46.4931 1.04127 -2.3003 0
M  V30 517 C 47.8061 -2.18607 -2.06474 0
M  V30 518 C 49.3541 -2.22985 -2.19651 0
M  V30 519 C 49.8291 -3.4255 -3.04012 0
M  V30 520 N 51.3201 -3.42725 -3.11599 0
M  V30 521 C 52.0551 -4.31892 -3.7717 0
M  V30 522 N 51.5511 -5.31279 -4.44651 0
M  V30 523 N 53.3441 -4.19662 -3.73952 0
M  V30 524 H 45.4951 -2.06469 -0.49841 0
M  V30 525 H 47.7581 -0.904853 -0.282747 0
M  V30 526 H 47.4641 -3.13267 -1.59865 0
M  V30 527 H 47.3381 -2.18838 -3.07229 0
M  V30 528 H 49.7251 -1.28871 -2.65474 0
M  V30 529 H 49.8061 -2.26791 -1.18319 0
M  V30 530 H 49.4501 -4.36965 -2.58889 0
M  V30 531 H 49.3801 -3.35984 -4.0549 0
M  V30 532 H 51.8711 -2.70807 -2.63575 0
M  V30 533 H 52.1841 -5.95593 -4.92431 0
M  V30 534 H 50.5291 -5.3519 -4.43392 0
M  V30 535 H 53.7201 -3.41268 -3.20396 0
M  V30 536 H 53.8931 -4.89358 -4.24774 0
M  V30 537 N 47.2992 1.18797 -1.03562 0
M  V30 538 C 48.2312 2.21731 -0.580337 0
M  V30 539 C 49.2442 1.59051 0.347349 0
M  V30 540 O 50.4332 1.77929 0.142669 0
M  V30 541 C 47.5332 3.38459 0.172805 0
M  V30 542 C 46.7062 4.3072 -0.761496 0
M  V30 543 C 45.7652 5.26174 -0.0525547 0
M  V30 544 O 44.7912 5.65108 -0.681333 0
M  V30 545 N 45.9932 5.67624 1.21586 0
M  V30 546 H 48.7582 2.61417 -1.46565 0
M  V30 547 H 46.3192 1.33531 -0.915476 0
M  V30 548 H 48.3112 3.99335 0.656793 0
M  V30 549 H 46.8812 2.97507 0.959602 0
M  V30 550 H 46.1012 3.67525 -1.42544 0
M  V30 551 H 47.3892 4.89267 -1.39626 0
M  V30 552 H 46.7872 5.38038 1.74732 0
M  V30 553 H 45.3442 6.30721 1.64421 0
M  V30 554 N 48.7773 0.814389 1.34928 0
M  V30 555 C 49.7073 0.244827 2.32213 0
M  V30 556 C 50.6883 -0.634024 1.57842 0
M  V30 557 O 51.8733 -0.562676 1.8587 0
M  V30 558 C 49.0033 -0.601106 3.42058 0
M  V30 559 C 47.9573 0.179896 4.27622 0
M  V30 560 C 47.2833 -0.788237 5.28858 0
M  V30 561 C 48.5833 1.38329 5.03649 0
M  V30 562 H 50.2773 1.05763 2.80097 0
M  V30 563 H 47.8233 0.510029 1.34665 0
M  V30 564 H 49.7763 -1.00968 4.09125 0
M  V30 565 H 48.5003 -1.44688 2.92802 0
M  V30 566 H 47.1593 0.569739 3.62146 0
M  V30 567 H 46.8073 -1.62973 4.75866 0
M  V30 568 H 46.5073 -0.269942 5.8698 0
M  V30 569 H 48.0313 -1.19485 5.98795 0
M  V30 570 H 49.4453 1.04918 5.63618 0
M  V30 571 H 47.8423 1.83662 5.71304 0
M  V30 572 H 48.9123 2.16592 4.33839 0
M  V30 573 N 50.2554 -1.46986 0.568584 0
M  V30 574 C 51.5014 -2.02741 0.0488709 0
M  V30 575 C 51.8344 -1.44077 -1.30214 0
M  V30 576 O 51.1094 -0.600552 -1.84996 0
M  V30 577 C 51.3924 -3.60086 -0.032047 0
M  V30 578 C 51.2454 -4.29162 1.34686 0
M  V30 579 C 52.5644 -4.33838 -0.739798 0
M  V30 580 H 49.6834 -0.736749 0.0192338 0
M  V30 581 H 52.3254 -1.75289 0.733065 0
M  V30 582 H 50.4754 -3.83606 -0.61473 0
M  V30 583 H 52.1474 -4.16948 1.97362 0
M  V30 584 H 50.3904 -3.89073 1.91846 0
M  V30 585 H 51.0614 -5.37826 1.24285 0
M  V30 586 H 53.5374 -4.15378 -0.244939 0
M  V30 587 H 52.4134 -5.43537 -0.765406 0
M  V30 588 H 52.6744 -4.03875 -1.79827 0
M  V30 589 N 51.7335 -0.305618 -1.54608 0
M  V30 590 C 52.9585 0.307562 -2.05107 0
M  V30 591 C 53.3835 1.46385 -1.18123 0
M  V30 592 O 52.7415 1.8034 -0.186324 0
M  V30 593 C 52.7895 0.73704 -3.52987 0
M  V30 594 O 51.8935 1.84134 -3.6901 0
M  V30 595 H 51.2345 0.0589143 -0.661381 0
M  V30 596 H 53.7645 -0.448807 -1.99617 0
M  V30 597 H 53.7745 1.02459 -3.94925 0
M  V30 598 H 52.4495 -0.108773 -4.15758 0
M  V30 599 H 51.0265 1.55398 -3.38978 0
M  V30 600 N 53.2116 1.57565 -0.0334293 0
M  V30 601 C 54.4586 1.91978 0.644272 0
M  V30 602 C 54.7866 0.910231 1.71887 0
M  V30 603 O 54.0416 -0.0801961 1.95536 0
M  V30 604 C 54.3406 3.33112 1.29504 0
M  V30 605 C 54.0066 4.49537 0.350388 0
M  V30 606 C 52.6686 4.81115 0.0903974 0
M  V30 607 C 55.0206 5.20347 -0.298032 0
M  V30 608 C 52.3486 5.8086 -0.825746 0
M  V30 609 C 54.7006 6.2107 -1.20226 0
M  V30 610 C 53.3646 6.51088 -1.4711 0
M  V30 611 H 52.6346 0.702496 0.235756 0
M  V30 612 H 55.2816 1.91259 -0.0961176 0
M  V30 613 H 53.5866 3.30113 2.11028 0
M  V30 614 H 55.2836 3.57011 1.82603 0
M  V30 615 H 51.8736 4.24883 0.563205 0
M  V30 616 H 56.0576 4.96178 -0.110234 0
M  V30 617 H 51.3136 6.02461 -1.04169 0
M  V30 618 H 55.4876 6.75057 -1.71086 0
M  V30 619 H 53.1146 7.28193 -2.18264 0
M  V30 620 N 54.6897 -0.239769 1.55765 0
M  V30 621 C 55.9387 -0.964754 1.77131 0
M  V30 622 C 56.2517 -1.86213 0.59868 0
M  V30 623 O 57.4577 -2.6244 0.695522 0
M  V30 624 C 55.9137 -1.76552 3.1362 0
M  V30 625 C 55.5217 -0.915185 4.38553 0
M  V30 626 C 57.2657 -2.48281 3.44321 0
M  V30 627 C 55.1727 -1.71225 5.66071 0
M  V30 628 H 54.1027 -0.363953 0.660344 0
M  V30 629 H 56.7537 -0.219181 1.82186 0
M  V30 630 H 55.1357 -2.55331 3.02691 0
M  V30 631 H 56.3097 -0.169217 4.60489 0
M  V30 632 H 54.6247 -0.310889 4.15238 0
M  V30 633 H 57.2217 -3.08382 4.36812 0
M  V30 634 H 57.5647 -3.20256 2.65973 0
M  V30 635 H 58.0977 -1.76507 3.56497 0
M  V30 636 H 54.8367 -1.03612 6.4726 0
M  V30 637 H 54.3567 -2.43331 5.48224 0
M  V30 638 H 56.0357 -2.27758 6.05587 0
M  V30 639 N 56.1678 -1.49265 -0.50573 0
M  V30 640 C 57.0778 -1.68312 -1.63427 0
M  V30 641 C 58.0938 -0.565682 -1.64548 0
M  V30 642 O 59.2698 -0.839801 -1.83055 0
M  V30 643 C 56.3348 -1.74107 -2.99813 0
M  V30 644 C 55.3958 -2.97653 -3.09356 0
M  V30 645 C 54.6288 -3.03163 -4.39236 0
M  V30 646 O 54.8518 -2.16396 -5.27758 0
M  V30 647 O 53.7858 -3.9558 -4.53652 0
M  V30 648 H 57.6118 -2.63907 -1.50289 0
M  V30 649 H 55.1968 -1.32951 -0.681502 0
M  V30 650 H 57.0788 -1.803 -3.80881 0
M  V30 651 H 55.7538 -0.816901 -3.13223 0
M  V30 652 H 54.6608 -2.96981 -2.27493 0
M  V30 653 H 55.9938 -3.89535 -3.00871 0
M  V30 654 N 57.6459 0.756429 -1.3826 0
M  V30 655 C 58.5559 1.9009 -1.37488 0
M  V30 656 C 59.5719 1.71855 -0.272366 0
M  V30 657 O 60.7479 1.94827 -0.510318 0
M  V30 658 C 57.8129 3.25421 -1.19592 0
M  V30 659 C 56.8739 3.56202 -2.39622 0
M  V30 660 C 56.1069 4.85075 -2.2257 0
M  V30 661 O 56.3299 5.57246 -1.21793 0
M  V30 662 O 55.2639 5.15269 -3.11098 0
M  V30 663 H 59.0899 1.93695 -2.33914 0
M  V30 664 H 56.6749 0.901313 -1.1915 0
M  V30 665 H 58.5569 4.06337 -1.11661 0
M  V30 666 H 57.2319 3.22634 -0.262486 0
M  V30 667 H 56.1389 2.75458 -2.53128 0
M  V30 668 H 57.4719 3.63747 -3.31586 0
M  V30 669 N 59.124 1.23083 0.984299 0
M  V30 670 C 60.074 0.975749 2.06066 0
M  V30 671 C 61.058 -0.0768251 1.60716 0
M  V30 672 O 62.25 0.134805 1.76486 0
M  V30 673 C 59.379 0.564673 3.38624 0
M  V30 674 C 58.465 1.65244 3.90583 0
M  V30 675 N 58.856 2.88193 4.15666 0
M  V30 676 C 57.154 1.52612 4.19077 0
M  V30 677 C 57.855 3.58593 4.58024 0
M  V30 678 N 56.831 2.86093 4.62225 0
M  V30 679 H 60.633 1.90957 2.23411 0
M  V30 680 H 58.147 1.12963 1.16675 0
M  V30 681 H 60.144 0.36322 4.15315 0
M  V30 682 H 58.804 -0.362147 3.22674 0
M  V30 683 H 59.815 3.24537 4.03604 0
M  V30 684 H 56.492 0.666121 4.12152 0
M  V30 685 H 57.882 4.63974 4.85982 0
M  V30 686 N 60.6021 -1.18246 1.0419 0
M  V30 687 C 61.5321 -2.24127 0.654914 0
M  V30 688 C 62.5131 -1.66617 -0.342451 0
M  V30 689 O 63.6981 -1.92924 -0.222277 0
M  V30 690 C 60.8281 -3.47295 0.0183757 0
M  V30 691 C 59.7821 -4.17563 0.939414 0
M  V30 692 C 59.1081 -5.34438 0.167286 0
M  V30 693 C 60.4081 -4.70917 2.25908 0
M  V30 694 H 62.1021 -2.56753 1.54007 0
M  V30 695 H 59.6481 -1.23414 0.74195 0
M  V30 696 H 61.6011 -4.20572 -0.264082 0
M  V30 697 H 60.3251 -3.13907 -0.901664 0
M  V30 698 H 58.9841 -3.46186 1.20628 0
M  V30 699 H 58.6321 -4.97298 -0.7552 0
M  V30 700 H 58.3321 -5.82388 0.780901 0
M  V30 701 H 59.8561 -6.10504 -0.108125 0
M  V30 702 H 61.2701 -5.35882 2.03724 0
M  V30 703 H 59.6671 -5.29406 2.82577 0
M  V30 704 H 60.7371 -3.88272 2.9047 0
M  V30 705 N 62.0802 -0.821533 -1.34494 0
M  V30 706 C 63.3572 -0.33159 -1.92769 0
M  V30 707 C 63.7372 1.18088 -1.74981 0
M  V30 708 O 63.0852 1.98733 -1.12772 0
M  V30 709 C 63.2952 -0.759398 -3.40638 0
M  V30 710 C 64.6432 -0.757433 -4.1779 0
M  V30 711 O 65.6672 -0.70189 -3.49216 0
M  V30 712 O 64.5262 -0.829361 -5.4017 0
M  V30 713 H 61.6202 -0.0902502 -0.822061 0
M  V30 714 H 64.1662 -0.906231 -1.43477 0
M  V30 715 H 62.9382 -1.8012 -3.47379 0
M  V30 716 H 62.5612 -0.160378 -3.97276 0
M  V30 717 N 63.5583 1.46682 -0.576371 0
M  V30 718 C 64.4883 2.33028 0.148397 0
M  V30 719 C 65.4693 1.44961 0.889956 0
M  V30 720 O 66.6543 1.73789 0.866662 0
M  V30 721 C 63.7843 3.27117 1.1667 0
M  V30 722 C 62.7383 4.24575 0.540386 0
M  V30 723 C 62.0643 5.08126 1.6647 0
M  V30 724 C 63.3643 5.19722 -0.518331 0
M  V30 725 H 65.0583 2.93875 -0.572509 0
M  V30 726 H 62.6043 1.41315 -0.276768 0
M  V30 727 H 64.5573 3.86374 1.68204 0
M  V30 728 H 63.2813 2.64364 1.9178 0
M  V30 729 H 61.9403 3.66571 0.0461769 0
M  V30 730 H 61.5883 4.41762 2.40531 0
M  V30 731 H 61.2883 5.74122 1.25131 0
M  V30 732 H 62.8123 5.70246 2.18293 0
M  V30 733 H 64.2263 5.73232 -0.0883058 0
M  V30 734 H 62.6233 5.94026 -0.851679 0
M  V30 735 H 63.6933 4.64037 -1.40703 0
M  V30 736 N 65.0364 0.313813 1.54444 0
M  V30 737 C 66.2844 -0.291099 1.99993 0
M  V30 738 C 66.6054 -1.53418 1.20366 0
M  V30 739 O 65.8754 -1.93544 0.302927 0
M  V30 740 H 64.4554 -0.110552 0.738774 0
M  V30 741 H 67.1174 0.428106 1.9014 0
M  V30 742 H 66.2134 -0.554268 3.07139 0
M  V30 743 N 66.5145 -1.57545 0.0417849 0
M  V30 744 C 67.7605 -1.92601 -0.635021 0
M  V30 745 C 68.0935 -0.919627 -1.71045 0
M  V30 746 O 67.3685 0.0557892 -1.9442 0
M  V30 747 C 67.6515 -3.38085 -1.23979 0
M  V30 748 C 67.5045 -4.49467 -0.173057 0
M  V30 749 C 68.8235 -3.83776 -2.15416 0
M  V30 750 H 65.9425 -0.700397 -0.229374 0
M  V30 751 H 68.5845 -1.89728 0.101633 0
M  V30 752 H 66.7345 -3.40664 -1.86762 0
M  V30 753 H 68.4065 -4.59018 0.458312 0
M  V30 754 H 66.6495 -4.30909 0.499996 0
M  V30 755 H 67.3205 -5.48323 -0.636054 0
M  V30 756 H 69.7965 -3.83013 -1.62605 0
M  V30 757 H 68.6725 -4.8624 -2.54679 0
M  V30 758 H 68.9335 -3.19998 -3.05047 0
M  V30 759 N 67.9926 0.231505 -1.5589 0
M  V30 760 C 69.2206 0.974505 -1.82513 0
M  V30 761 C 69.6356 1.78344 -0.619591 0
M  V30 762 O 68.9926 1.77792 0.411848 0
M  V30 763 C 69.0436 1.90007 -3.07538 0
M  V30 764 O 68.7646 1.12385 -4.2344 0
M  V30 765 C 70.2656 2.75779 -3.47075 0
M  V30 766 H 67.4856 0.286065 -0.606966 0
M  V30 767 H 70.0296 0.249739 -2.02969 0
M  V30 768 H 68.1846 2.57891 -2.89086 0
M  V30 769 H 68.5986 1.75125 -4.944 0
M  V30 770 H 70.0726 3.36443 -4.37619 0
M  V30 771 H 70.5496 3.47672 -2.68367 0
M  V30 772 H 71.1556 2.13323 -3.67931 0
M  V30 773 N 69.4707 1.49531 0.497807 0
M  V30 774 C 70.6987 1.62893 1.27567 0
M  V30 775 C 71.1137 0.301585 1.86376 0
M  V30 776 O 70.4707 -0.713335 1.67982 0
M  V30 777 C 70.5217 2.70013 2.40364 0
M  V30 778 O 70.2427 3.976 1.83972 0
M  V30 779 C 71.7437 2.94109 3.31685 0
M  V30 780 H 68.9637 0.548298 0.386794 0
M  V30 781 H 71.5077 1.95584 0.597245 0
M  V30 782 H 69.6627 2.40092 3.04031 0
M  V30 783 H 70.0767 4.56631 2.58047 0
M  V30 784 H 71.5507 3.72788 4.07104 0
M  V30 785 H 72.0277 2.04147 3.88871 0
M  V30 786 H 72.6337 3.2546 2.73781 0
M  V30 787 N 70.9488 -0.749086 1.3866 0
M  V30 788 C 72.1948 -1.51056 1.35314 0
M  V30 789 C 72.5278 -1.94121 -0.0553751 0
M  V30 790 O 71.8028 -1.65763 -1.01749 0
M  V30 791 C 72.0858 -2.76003 2.31288 0
M  V30 792 C 71.9388 -2.39047 3.8102 0
M  V30 793 C 73.2578 -3.78046 2.2532 0
M  V30 794 H 70.3768 -0.547972 0.492844 0
M  V30 795 H 73.0188 -0.857628 1.69543 0
M  V30 796 H 71.1688 -3.31716 2.02229 0
M  V30 797 H 72.8408 -1.89074 4.20771 0
M  V30 798 H 71.0838 -1.71449 3.98482 0
M  V30 799 H 71.7548 -3.28462 4.4364 0
M  V30 800 H 74.2308 -3.31884 2.50983 0
M  V30 801 H 73.1068 -4.63159 2.94576 0
M  V30 802 H 73.3678 -4.23957 1.25352 0
M  V30 803 N 72.4269 -1.23603 -0.977757 0
M  V30 804 C 73.7039 -0.977897 -1.69401 0
M  V30 805 C 74.0839 0.502738 -2.05026 0
M  V30 806 O 73.4319 1.47459 -1.74551 0
M  V30 807 C 73.6419 -1.89077 -2.93345 0
M  V30 808 C 74.9899 -2.15579 -3.65802 0
M  V30 809 O 76.0139 -1.86648 -3.03383 0
M  V30 810 O 74.8729 -2.64658 -4.78141 0
M  V30 811 H 71.9669 -0.369025 -0.740101 0
M  V30 812 H 74.5129 -1.34657 -1.03274 0
M  V30 813 H 73.2849 -2.89158 -2.63634 0
M  V30 814 H 72.9079 -1.52463 -3.67207 0
M  V30 815 N 73.905 1.17692 -1.04816 0
M  V30 816 C 74.855 2.1952 -0.616042 0
M  V30 817 C 75.839 1.57147 0.345485 0
M  V30 818 O 77.031 1.76245 0.163325 0
M  V30 819 C 74.16 3.43298 0.0116917 0
M  V30 820 C 73.246 4.12777 -0.973435 0
M  V30 821 N 73.637 4.5814 -2.14339 0
M  V30 822 C 71.935 4.38747 -0.80108 0
M  V30 823 C 72.636 5.11713 -2.7663 0
M  V30 824 N 71.612 5.03686 -2.04453 0
M  V30 825 H 75.414 2.52293 -1.5075 0
M  V30 826 H 72.928 1.3398 -0.917776 0
M  V30 827 H 74.925 4.15519 0.339006 0
M  V30 828 H 73.585 3.12018 0.898593 0
M  V30 829 H 74.596 4.52349 -2.52191 0
M  V30 830 H 71.273 4.17485 0.0350934 0
M  V30 831 H 72.663 5.56962 -3.75823 0
M  V30 832 N 75.3831 0.828654 1.34056 0
M  V30 833 C 76.3461 0.259927 2.27721 0
M  V30 834 C 77.3461 -0.565478 1.50529 0
M  V30 835 O 78.5361 -0.38075 1.69988 0
M  V30 836 C 75.6681 -0.634944 3.34935 0
M  V30 837 H 76.8611 1.0863 2.79534 0
M  V30 838 H 74.4141 0.600951 1.44285 0
M  V30 839 H 75.1491 -1.48416 2.88346 0
M  V30 840 H 74.9341 -0.0444999 3.92075 0
M  V30 841 H 76.4241 -1.02648 4.04788 0
M  V30 842 N 76.8612 -1.46375 0.584142 0
M  V30 843 C 78.1382 -1.956 0.0033388 0
M  V30 844 C 78.5182 -1.52679 -1.45782 0
M  V30 845 O 77.8662 -0.77816 -2.14842 0
M  V30 846 C 78.0762 -3.48551 0.176891 0
M  V30 847 C 79.4242 -4.24576 0.0454609 0
M  V30 848 O 80.4482 -3.56043 0.105801 0
M  V30 849 O 79.3072 -5.46427 -0.0890376 0
M  V30 850 H 76.4012 -0.825547 -0.0490066 0
M  V30 851 H 78.9472 -1.56652 0.65256 0
M  V30 852 H 77.7192 -3.72683 1.1926 0
M  V30 853 H 77.3422 -3.94332 -0.508695 0
M  V30 854 N 78.3393 -0.321999 -1.54275 0
M  V30 855 C 79.5883 0.281931 -1.9972 0
M  V30 856 C 79.9013 1.53369 -1.21397 0
M  V30 857 O 81.1073 2.21352 -1.57211 0
M  V30 858 C 79.5633 0.5529 -3.55628 0
M  V30 859 C 79.1713 -0.681721 -4.42783 0
M  V30 860 C 80.9153 1.11687 -4.09544 0
M  V30 861 C 78.8223 -0.382742 -5.9016 0
M  V30 862 H 77.7523 0.109124 -0.746062 0
M  V30 863 H 80.4033 -0.43398 -1.78294 0
M  V30 864 H 78.7853 1.32896 -3.73035 0
M  V30 865 H 79.9593 -1.45723 -4.37151 0
M  V30 866 H 78.2743 -1.1658 -3.99748 0
M  V30 867 H 80.8713 1.35515 -5.17242 0
M  V30 868 H 81.2143 2.06575 -3.61431 0
M  V30 869 H 81.7473 0.402032 -3.95763 0
M  V30 870 H 78.4863 -1.30076 -6.42464 0
M  V30 871 H 78.0063 0.355094 -5.98748 0
M  V30 872 H 79.6853 0.00800157 -6.47 0
M  V30 873 N 79.8174 1.5752 -0.0501392 0
M  V30 874 C 81.0474 1.96678 0.632573 0
M  V30 875 C 81.4554 0.926298 1.64974 0
M  V30 876 O 80.7984 -0.09802 1.83438 0
M  V30 877 C 80.8604 3.32068 1.37735 0
M  V30 878 C 80.5244 4.54076 0.516131 0
M  V30 879 C 81.5214 5.19445 -0.217357 0
M  V30 880 C 79.2064 5.00304 0.44736 0
M  V30 881 C 81.2004 6.29378 -1.00807 0
M  V30 882 C 78.8874 6.10114 -0.347038 0
M  V30 883 C 79.8854 6.74512 -1.07344 0
M  V30 884 O 79.5734 7.82211 -1.85477 0
M  V30 885 H 79.3054 0.652193 0.177821 0
M  V30 886 H 81.8594 2.05091 -0.112543 0
M  V30 887 H 80.0894 3.20206 2.16807 0
M  V30 888 H 81.7784 3.55981 1.95019 0
M  V30 889 H 82.5444 4.84689 -0.173688 0
M  V30 890 H 78.4234 4.49971 1.00235 0
M  V30 891 H 81.9674 6.79575 -1.57556 0
M  V30 892 H 77.8644 6.44307 -0.392349 0
M  V30 893 H 78.6324 7.98982 -1.77678 0
M  V30 894 N 81.2955 -0.223234 1.56011 0
M  V30 895 C 82.5435 -0.946003 1.78592 0
M  V30 896 C 82.8645 -1.84936 0.618349 0
M  V30 897 O 82.1345 -1.92473 -0.364833 0
M  V30 898 H 80.7145 -0.352298 0.658707 0
M  V30 899 H 83.3765 -0.235494 1.93472 0
M  V30 900 H 82.4725 -1.55381 2.70672 0
M  V30 901 N 82.7736 -1.49793 -0.48987 0
M  V30 902 C 84.0216 -1.59525 -1.24081 0
M  V30 903 C 84.3426 -0.288953 -1.92847 0
M  V30 904 O 83.6126 0.692436 -1.83254 0
M  V30 905 H 82.1926 -0.587796 -0.460983 0
M  V30 906 H 84.8546 -1.86477 -0.566778 0
M  V30 907 H 83.9506 -2.39696 -1.99881 0
M  V30 908 N 84.2517 0.741722 -1.39055 0
M  V30 909 C 85.4817 1.52876 -1.3897 0
M  V30 910 C 85.8897 1.8919 0.0193266 0
M  V30 911 O 85.2327 1.54138 0.999356 0
M  V30 912 C 85.2947 2.84929 -2.19216 0
M  V30 913 C 84.9587 2.71086 -3.67915 0
M  V30 914 C 85.9557 2.40084 -4.61146 0
M  V30 915 C 83.6407 2.88168 -4.11418 0
M  V30 916 C 85.6347 2.26335 -5.95862 0
M  V30 917 C 83.3217 2.74037 -5.46211 0
M  V30 918 C 84.3197 2.43166 -6.38247 0
M  V30 919 O 84.0077 2.29115 -7.70559 0
M  V30 920 H 83.7397 0.479252 -0.476753 0
M  V30 921 H 86.2937 0.924751 -1.83405 0
M  V30 922 H 84.5237 3.47564 -1.69518 0
M  V30 923 H 86.2127 3.46509 -2.11392 0
M  V30 924 H 86.9787 2.26545 -4.28838 0
M  V30 925 H 82.8577 3.11191 -3.40119 0
M  V30 926 H 86.4017 2.0216 -6.67665 0
M  V30 927 H 82.2987 2.87153 -5.78112 0
M  V30 928 H 83.0667 2.44237 -7.81211 0
M  V30 929 N 85.7298 1.2412 0.971189 0
M  V30 930 C 86.6618 0.988349 2.06795 0
M  V30 931 C 87.6748 -0.0409541 1.62748 0
M  V30 932 O 88.8638 0.195673 1.77424 0
M  V30 933 C 85.9638 0.469023 3.35639 0
M  V30 934 C 85.1368 1.56065 4.08611 0
M  V30 935 C 84.1958 1.04458 5.15728 0
M  V30 936 O 83.2218 1.73553 5.42096 0
M  V30 937 N 84.4238 -0.122817 5.8037 0
M  V30 938 H 87.1888 1.93265 2.29061 0
M  V30 939 H 84.7498 1.15102 1.13856 0
M  V30 940 H 86.7418 0.108613 4.04554 0
M  V30 941 H 85.3118 -0.380919 3.1027 0
M  V30 942 H 84.5318 2.09341 3.34021 0
M  V30 943 H 85.8198 2.29449 4.54126 0
M  V30 944 H 85.2178 -0.700563 5.61345 0
M  V30 945 H 83.7748 -0.424404 6.50417 0
M  V30 946 N 87.2079 -1.17134 1.05439 0
M  V30 947 C 88.4479 -1.89137 0.77502 0
M  V30 948 C 88.8119 -1.79345 -0.685526 0
M  V30 949 O 90.0129 -2.46188 -1.0791 0
M  V30 950 C 88.2839 -3.35003 1.2453 0
M  V30 951 S 89.8429 -4.24952 1.09367 0
M  V30 952 H 86.6609 -0.652949 0.281387 0
M  V30 953 H 89.2629 -1.4145 1.34953 0
M  V30 954 H 87.9669 -3.39666 2.30338 0
M  V30 955 H 87.4979 -3.87736 0.665166 0
M  V30 956 H 89.5129 -4.96196 0.0193397 0
M  V30 957 N 88.686 -0.835752 -1.33615 0
M  V30 958 C 89.596 -0.269088 -2.33052 0
M  V30 959 C 90.612 0.603251 -1.63208 0
M  V30 960 O 91.788 0.508112 -1.94885 0
M  V30 961 C 88.853 0.549091 -3.42324 0
M  V30 962 C 87.914 -0.347156 -4.27894 0
M  V30 963 C 87.147 0.43207 -5.31948 0
M  V30 964 O 87.37 1.66409 -5.45586 0
M  V30 965 O 86.304 -0.192298 -6.01593 0
M  V30 966 H 90.13 -1.09243 -2.83372 0
M  V30 967 H 87.715 -0.598198 -1.36901 0
M  V30 968 H 89.597 1.01414 -4.09015 0
M  V30 969 H 88.272 1.34955 -2.94226 0
M  V30 970 H 87.179 -0.859979 -3.64081 0
M  V30 971 H 88.512 -1.1123 -4.79467 0
M  V30 972 N 90.1641 1.46063 -0.591896 0
M  V30 973 C 91.1271 2.28854 0.125973 0
M  V30 974 C 92.1271 1.38903 0.810107 0
M  V30 975 O 93.3171 1.61186 0.66066 0
M  V30 976 C 90.4491 3.19526 1.1881 0
M  V30 977 H 91.6421 2.93802 -0.601717 0
M  V30 978 H 89.1951 1.52325 -0.350254 0
M  V30 979 H 89.9301 2.59345 1.94707 0
M  V30 980 H 89.7151 3.85766 0.701936 0
M  V30 981 H 91.2051 3.81817 1.69132 0
M  V30 982 N 91.6422 0.330177 1.54103 0
M  V30 983 C 92.6052 -0.520144 2.2322 0
M  V30 984 C 93.6052 -1.03828 1.22786 0
M  V30 985 O 94.7952 -0.929652 1.4732 0
M  V30 986 C 91.9272 -1.72317 2.94142 0
M  V30 987 H 93.1202 0.0841605 2.99782 0
M  V30 988 H 90.6732 0.0813433 1.56088 0
M  V30 989 H 91.4082 -2.36653 2.21734 0
M  V30 990 H 91.1932 -1.35898 3.67796 0
M  V30 991 H 92.6832 -2.3266 3.46784 0
M  V30 992 N 93.1203 -1.57491 0.0584922 0
M  V30 993 C 94.3673 -1.92978 -0.613648 0
M  V30 994 C 94.6953 -0.937461 -1.70417 0
M  V30 995 O 93.9503 0.049078 -1.95638 0
M  V30 996 C 94.2493 -3.3513 -1.24188 0
M  V30 997 C 93.9153 -4.50037 -0.278826 0
M  V30 998 C 92.5773 -4.81198 -0.0138447 0
M  V30 999 C 94.9293 -5.19807 0.380777 0
M  V30 1000 C 92.2573 -5.79473 0.918052 0
M  V30 1001 C 94.6093 -6.19079 1.30091 0
M  V30 1002 C 93.2733 -6.48665 1.57449 0
M  V30 1003 H 92.5433 -0.706157 -0.22455 0
M  V30 1004 H 95.1903 -1.91082 0.126533 0
M  V30 1005 H 93.4953 -3.33429 -2.05749 0
M  V30 1006 H 95.1923 -3.59871 -1.769 0
M  V30 1007 H 91.7823 -4.25726 -0.495539 0
M  V30 1008 H 95.9663 -4.95939 0.189158 0
M  V30 1009 H 91.2223 -6.00727 1.1374 0
M  V30 1010 H 95.3963 -6.7225 1.81804 0
M  V30 1011 H 93.0233 -7.24628 2.29822 0
M  V30 1012 N 94.5984 0.214957 -1.56127 0
M  V30 1013 C 95.8464 0.936518 -1.79091 0
M  V30 1014 C 96.1674 1.84606 -0.628148 0
M  V30 1015 O 95.4374 1.92664 0.35462 0
M  V30 1016 H 94.0174 0.3488 -0.660566 0
M  V30 1017 H 96.6794 0.22523 -1.93594 0
M  V30 1018 H 95.7754 1.53943 -2.71492 0
M  V30 1019 N 96.0765 1.50051 0.48192 0
M  V30 1020 C 96.9865 1.7089 1.60728 0
M  V30 1021 C 98.0025 0.591788 1.63627 0
M  V30 1022 O 99.1785 0.868817 1.81696 0
M  V30 1023 C 96.2435 1.78855 2.97005 0
M  V30 1024 C 95.3045 3.02537 3.04581 0
M  V30 1025 C 94.5375 3.10112 4.34357 0
M  V30 1026 O 94.7605 2.24765 5.24249 0
M  V30 1027 O 93.6945 4.02747 4.47301 0
M  V30 1028 H 97.5205 2.66264 1.46072 0
M  V30 1029 H 95.1055 1.34018 0.660264 0
M  V30 1030 H 96.9875 1.86336 3.77964 0
M  V30 1031 H 95.6625 0.866628 3.11883 0
M  V30 1032 H 94.5695 3.00563 2.22739 0
M  V30 1033 H 95.9025 3.94272 2.94636 0
M  V30 1034 N 97.5546 -0.734337 1.39446 0
M  V30 1035 C 98.5176 -1.83004 1.37994 0
M  V30 1036 C 99.5176 -1.58397 0.276938 0
M  V30 1037 O 100.708 -1.65785 0.534875 0
M  V30 1038 C 97.8396 -3.20802 1.1532 0
M  V30 1039 H 99.0326 -1.85694 2.35494 0
M  V30 1040 H 96.5856 -0.938059 1.25021 0
M  V30 1041 H 97.3206 -3.23772 0.185036 0
M  V30 1042 H 97.1056 -3.4006 1.95197 0
M  V30 1043 H 98.5956 -4.00862 1.17046 0
M  V30 1044 N 99.0327 -1.24633 -0.964593 0
M  V30 1045 C 99.9627 -1.06611 -2.07741 0
M  V30 1046 C 100.944 0.0218666 -1.70086 0
M  V30 1047 O 102.129 -0.145793 -1.93652 0
M  V30 1048 C 99.2587 -0.673444 -3.40708 0
M  V30 1049 C 98.2127 -1.71054 -3.92332 0
M  V30 1050 C 97.5387 -1.17285 -5.21678 0
M  V30 1051 C 98.8387 -3.10718 -4.19824 0
M  V30 1052 H 100.533 -1.99693 -2.23076 0
M  V30 1053 H 98.0787 -0.96152 -1.07195 0
M  V30 1054 H 100.032 -0.534345 -4.17998 0
M  V30 1055 H 98.7557 0.293073 -3.25282 0
M  V30 1056 H 97.4147 -1.83791 -3.17201 0
M  V30 1057 H 97.0627 -0.196847 -5.02615 0
M  V30 1058 H 96.7627 -1.86592 -5.57187 0
M  V30 1059 H 98.2867 -1.04593 -6.01575 0
M  V30 1060 H 99.7007 -3.01192 -4.87808 0
M  V30 1061 H 98.0977 -3.77406 -4.66567 0
M  V30 1062 H 99.1677 -3.58524 -3.26479 0
M  V30 1063 N 100.511 1.16574 -1.06058 0
M  V30 1064 C 101.458 2.20883 -0.669263 0
M  V30 1065 C 102.428 1.62729 0.332918 0
M  V30 1066 O 103.613 1.895 0.222346 0
M  V30 1067 C 100.753 3.45049 -0.0593572 0
M  V30 1068 C 99.8658 4.17458 -1.11143 0
M  V30 1069 C 99.0008 5.29135 -0.467916 0
M  V30 1070 C 98.0398 5.93343 -1.50369 0
M  V30 1071 N 97.1768 6.96516 -0.883706 0
M  V30 1072 H 102.017 2.53709 -1.5632 0
M  V30 1073 H 99.5538 1.24616 -0.781625 0
M  V30 1074 H 101.512 4.16033 0.311771 0
M  V30 1075 H 100.142 3.12781 0.797992 0
M  V30 1076 H 99.1938 3.45101 -1.60029 0
M  V30 1077 H 100.506 4.61307 -1.89731 0
M  V30 1078 H 99.6598 6.06684 -0.0436871 0
M  V30 1079 H 98.3988 4.86443 0.349864 0
M  V30 1080 H 97.4038 5.14517 -1.93784 0
M  V30 1081 H 98.6288 6.38114 -2.32352 0
M  V30 1082 H 96.5748 6.55943 -0.086595 0
M  V30 1083 H 96.4918 7.38723 -1.607 0
M  V30 1084 H 97.7598 7.77993 -0.484543 0
M  V30 1085 N 101.989 0.842826 1.3317 0
M  V30 1086 C 102.919 0.294028 2.31641 0
M  V30 1087 C 103.9 -0.600401 1.59151 0
M  V30 1088 O 105.085 -0.523124 1.87022 0
M  V30 1089 C 102.215 -0.528416 3.43257 0
M  V30 1090 C 101.169 0.27056 4.27144 0
M  V30 1091 C 100.495 -0.675881 5.30411 0
M  V30 1092 C 101.795 1.48981 5.00602 0
M  V30 1093 H 103.489 1.11681 2.77791 0
M  V30 1094 H 101.035 0.538478 1.33553 0
M  V30 1095 H 102.988 -0.922674 4.11175 0
M  V30 1096 H 101.712 -1.38445 2.95805 0
M  V30 1097 H 100.371 0.646427 3.60856 0
M  V30 1098 H 100.019 -1.52842 4.79216 0
M  V30 1099 H 99.7189 -0.145374 5.8742 0
M  V30 1100 H 101.243 -1.06757 6.01195 0
M  V30 1101 H 102.657 1.16849 5.61266 0
M  V30 1102 H 101.054 1.95739 5.6728 0
M  V30 1103 H 102.124 2.25746 4.29147 0
M  V30 1104 N 103.467 -1.45747 0.599634 0
M  V30 1105 C 104.43 -2.28917 -0.113835 0
M  V30 1106 C 105.43 -1.3933 -0.802729 0
M  V30 1107 O 106.62 -1.61534 -0.652103 0
M  V30 1108 C 103.752 -3.20152 -1.17114 0
M  V30 1109 H 104.945 -2.93478 0.617289 0
M  V30 1110 H 102.498 -1.52137 0.358327 0
M  V30 1111 H 103.233 -2.60374 -1.93329 0
M  V30 1112 H 103.018 -3.86133 -0.681468 0
M  V30 1113 H 104.508 -3.82708 -1.67105 0
M  V30 1114 N 104.945 -0.338344 -1.53925 0
M  V30 1115 C 106.356 0.146651 -1.86123 0
M  V30 1116 C 106.707 1.5042 -1.2597 0
M  V30 1117 O 105.832 2.08723 -0.571294 0
M  V30 1118 C 106.427 0.272879 -3.37699 0
M  V30 1119 C 104.986 0.702103 -3.69794 0
M  V30 1120 C 104.133 -0.167304 -2.76795 0
M  V30 1121 H 107.084 -0.558123 -1.48562 0
M  V30 1122 H 107.105 1.10128 -3.64214 0
M  V30 1123 H 106.617 -0.715307 -3.81451 0
M  V30 1124 H 104.718 1.6995 -3.31584 0
M  V30 1125 H 104.831 0.495604 -4.7653 0
M  V30 1126 H 103.195 0.359527 -2.5215 0
M  V30 1127 H 103.978 -1.15253 -3.23375 0
M  V30 1128 N 106.423 1.57458 -0.0668435 0
M  V30 1129 C 107.373 2.0896 0.912119 0
M  V30 1130 C 108.357 0.998186 1.26195 0
M  V30 1131 O 109.549 1.26133 1.24175 0
M  V30 1132 C 106.678 2.6508 2.18145 0
M  V30 1133 C 105.764 3.81218 1.85832 0
M  V30 1134 N 106.155 4.90378 1.23948 0
M  V30 1135 C 104.453 3.9042 2.15612 0
M  V30 1136 C 105.154 5.71279 1.09616 0
M  V30 1137 N 104.13 5.19389 1.60423 0
M  V30 1138 H 107.932 2.90749 0.42924 0
M  V30 1139 H 105.446 1.6182 0.137184 0
M  V30 1140 H 107.443 3.0029 2.89192 0
M  V30 1141 H 106.103 1.84736 2.67025 0
M  V30 1142 H 107.114 5.09847 0.909731 0
M  V30 1143 H 103.791 3.21043 2.66903 0
M  V30 1144 H 105.181 6.69085 0.614425 0
M  V30 1145 N 107.901 -0.206675 1.56239 0
M  V30 1146 C 108.831 -1.25909 1.96645 0
M  V30 1147 C 109.812 -1.48097 0.836734 0
M  V30 1148 O 110.997 -1.6003 1.10019 0
M  V30 1149 C 108.127 -2.6058 2.29599 0
M  V30 1150 C 107.081 -2.53024 3.452 0
M  V30 1151 C 106.407 -3.91861 3.63798 0
M  V30 1152 C 107.707 -2.06524 4.79734 0
M  V30 1153 H 109.401 -0.923369 2.84806 0
M  V30 1154 H 106.947 -0.442735 1.37025 0
M  V30 1155 H 108.9 -3.34375 2.56459 0
M  V30 1156 H 107.624 -2.95869 1.38307 0
M  V30 1157 H 106.283 -1.81684 3.18412 0
M  V30 1158 H 105.931 -4.24483 2.69857 0
M  V30 1159 H 105.631 -3.87683 4.4156 0
M  V30 1160 H 107.155 -4.67296 3.93022 0
M  V30 1161 H 108.569 -2.70072 5.05702 0
M  V30 1162 H 106.966 -2.13374 5.60885 0
M  V30 1163 H 108.036 -1.01802 4.74093 0
M  V30 1164 N 109.379 -1.50304 -0.473955 0
M  V30 1165 C 110.795 -1.37667 -0.807466 0
M  V30 1166 C 110.995 -0.430555 -1.96846 0
M  V30 1167 O 110.051 0.127874 -2.52176 0
M  V30 1168 C 111.364 -2.78974 -1.12223 0
M  V30 1169 C 112.912 -2.87868 -1.22885 0
M  V30 1170 C 113.387 -4.30003 -1.57676 0
M  V30 1171 N 114.878 -4.3294 -1.64673 0
M  V30 1172 C 115.613 -5.3991 -1.93091 0
M  V30 1173 N 115.109 -6.57092 -2.1955 0
M  V30 1174 N 116.902 -5.27351 -1.94569 0
M  V30 1175 H 109.053 -2.10394 0.291212 0
M  V30 1176 H 111.316 -0.945575 0.0677609 0
M  V30 1177 H 111.022 -3.50031 -0.342229 0
M  V30 1178 H 110.896 -3.16038 -2.05913 0
M  V30 1179 H 113.283 -2.17032 -1.99953 0
M  V30 1180 H 113.364 -2.54352 -0.271814 0
M  V30 1181 H 113.008 -5.01375 -0.81149 0
M  V30 1182 H 112.938 -4.61004 -2.54525 0
M  V30 1183 H 115.429 -3.48441 -1.46277 0
M  V30 1184 H 115.742 -7.34425 -2.405 0
M  V30 1185 H 114.087 -6.60272 -2.16948 0
M  V30 1186 H 117.278 -4.34801 -1.73394 0
M  V30 1187 H 117.451 -6.10805 -2.16381 0
M  V30 1188 N 110.857 0.726932 -1.39834 0
M  V30 1189 C 111.767 1.87131 -1.41489 0
M  V30 1190 C 112.783 1.71239 -0.308757 0
M  V30 1191 O 113.959 1.93701 -0.551529 0
M  V30 1192 C 111.024 3.22811 -1.26468 0
M  V30 1193 C 110.085 3.51039 -2.47124 0
M  V30 1194 C 109.318 4.80245 -2.3281 0
M  V30 1195 O 109.541 5.54537 -1.33585 0
M  V30 1196 O 108.475 5.08554 -3.21957 0
M  V30 1197 H 112.301 1.8869 -2.3797 0
M  V30 1198 H 109.886 0.875837 -1.21035 0
M  V30 1199 H 111.768 4.03877 -1.20255 0
M  V30 1200 H 110.443 3.22005 -0.330862 0
M  V30 1201 H 109.35 2.70027 -2.58914 0
M  V30 1202 H 110.683 3.56632 -3.39227 0
M  V30 1203 N 112.336 1.25143 0.95797 0
M  V30 1204 C 113.752 1.01892 1.22842 0
M  V30 1205 C 113.952 -0.266311 1.99732 0
M  V30 1206 O 113.008 -0.979913 2.3271 0
M  V30 1207 C 114.321 2.24004 2.00606 0
M  V30 1208 C 115.869 2.28731 2.13662 0
M  V30 1209 C 116.344 3.5049 2.94823 0
M  V30 1210 N 117.835 3.50866 3.02403 0
M  V30 1211 C 118.57 4.4174 3.65586 0
M  V30 1212 N 118.066 5.42882 4.30408 0
M  V30 1213 N 119.859 4.29429 3.62694 0
M  V30 1214 H 112.01 2.07718 0.443493 0
M  V30 1215 H 114.273 0.912031 0.258657 0
M  V30 1216 H 113.979 3.17395 1.51503 0
M  V30 1217 H 113.853 2.26907 3.01319 0
M  V30 1218 H 116.24 1.35865 2.61963 0
M  V30 1219 H 116.321 2.29848 1.12265 0
M  V30 1220 H 115.965 4.43676 2.47213 0
M  V30 1221 H 115.895 3.46617 3.96439 0
M  V30 1222 H 118.386 2.777 2.56302 0
M  V30 1223 H 118.699 6.0844 4.76467 0
M  V30 1224 H 117.044 5.46758 4.29047 0
M  V30 1225 H 120.235 3.49643 3.11236 0
M  V30 1226 H 120.408 5.00448 4.1165 0
M  V30 1227 N 113.814 -1.1601 1.06675 0
M  V30 1228 C 114.747 -2.1947 0.625168 0
M  V30 1229 C 115.725 -1.58699 -0.354041 0
M  V30 1230 O 116.909 -1.86669 -0.262098 0
M  V30 1231 C 114.036 -3.38598 -0.0829593 0
M  V30 1232 C 113.082 -4.1787 0.853611 0
M  V30 1233 S 113.915 -4.81135 2.35094 0
M  V30 1234 C 115.071 -6.03639 1.65441 0
M  V30 1235 H 115.304 -2.56587 1.50168 0
M  V30 1236 H 112.837 -1.26862 0.880078 0
M  V30 1237 H 114.795 -4.07621 -0.485288 0
M  V30 1238 H 113.456 -2.99839 -0.935716 0
M  V30 1239 H 112.649 -5.03078 0.304755 0
M  V30 1240 H 112.251 -3.54361 1.196 0
M  V30 1241 H 114.543 -6.70632 0.962201 0
M  V30 1242 H 115.486 -6.63081 2.48454 0
M  V30 1243 H 115.894 -5.52965 1.13534 0
M  V30 1244 N 115.292 -0.849877 -1.32721 0
M  V30 1245 C 116.202 -0.293791 -2.32753 0
M  V30 1246 C 117.218 0.585906 -1.63839 0
M  V30 1247 O 118.394 0.487413 -1.95413 0
M  V30 1248 C 115.459 0.512752 -3.42887 0
M  V30 1249 C 114.52 -0.39252 -4.27502 0
M  V30 1250 C 113.753 0.375625 -5.32377 0
M  V30 1251 O 113.976 1.60613 -5.4732 0
M  V30 1252 O 112.91 -0.256094 -6.01355 0
M  V30 1253 H 116.736 -1.12242 -2.82197 0
M  V30 1254 H 114.321 -0.612685 -1.36259 0
M  V30 1255 H 116.203 0.970704 -4.10067 0
M  V30 1256 H 114.878 1.31826 -2.95641 0
M  V30 1257 H 113.785 -0.898547 -3.63149 0
M  V30 1258 H 115.118 -1.16309 -4.7826 0
M  V30 1259 N 116.77 1.45427 -0.607355 0
M  V30 1260 C 118.019 2.01452 -0.100036 0
M  V30 1261 C 118.332 1.48159 1.27704 0
M  V30 1262 O 119.538 1.96159 1.87707 0
M  V30 1263 C 117.994 3.59672 -0.128158 0
M  V30 1264 C 117.602 4.21962 -1.50507 0
M  V30 1265 C 119.346 4.23262 0.323932 0
M  V30 1266 C 117.253 5.72333 -1.48959 0
M  V30 1267 H 116.183 0.75325 -0.0336299 0
M  V30 1268 H 118.834 1.66901 -0.76265 0
M  V30 1269 H 117.216 3.91411 0.601105 0
M  V30 1270 H 118.39 4.01796 -2.25602 0
M  V30 1271 H 116.705 3.70565 -1.89923 0
M  V30 1272 H 119.302 5.33522 0.354691 0
M  V30 1273 H 119.645 3.93921 1.34656 0
M  V30 1274 H 120.178 3.96239 -0.352056 0
M  V30 1275 H 116.917 6.06373 -2.48981 0
M  V30 1276 H 116.437 5.94691 -0.781214 0
M  V30 1277 H 118.116 6.35525 -1.21313 0
M  V30 1278 N 118.248 0.346503 1.53744 0
M  V30 1279 C 119.494 -0.249473 2.0126 0
M  V30 1280 C 119.827 -1.49965 1.23386 0
M  V30 1281 O 119.102 -1.91811 0.32229 0
M  V30 1282 C 119.385 -0.560643 3.55709 0
M  V30 1283 C 119.238 0.701836 4.44291 0
M  V30 1284 C 120.557 -1.36905 4.18264 0
M  V30 1285 H 117.676 -0.0891987 0.731582 0
M  V30 1286 H 120.318 0.467624 1.84156 0
M  V30 1287 H 118.468 -1.17156 3.70414 0
M  V30 1288 H 120.14 1.33974 4.41417 0
M  V30 1289 H 118.383 1.32612 4.13033 0
M  V30 1290 H 119.054 0.43933 5.50249 0
M  V30 1291 H 121.53 -0.852448 4.07275 0
M  V30 1292 H 120.406 -1.55553 5.26398 0
M  V30 1293 H 120.667 -2.37203 3.73078 0
M  V30 1294 N 119.726 -1.57421 0.075193 0
M  V30 1295 C 120.951 -1.98364 -0.605515 0
M  V30 1296 C 121.376 -0.953383 -1.62149 0
M  V30 1297 O 120.734 0.0806053 -1.81121 0
M  V30 1298 C 120.782 -3.38332 -1.24756 0
M  V30 1299 O 119.886 -3.37959 -2.36342 0
M  V30 1300 H 119.227 -0.645553 -0.155428 0
M  V30 1301 H 121.757 -2.04044 0.150714 0
M  V30 1302 H 121.767 -3.75591 -1.5936 0
M  V30 1303 H 120.442 -4.12846 -0.503129 0
M  V30 1304 H 119.019 -3.12474 -2.03506 0
M  V30 1305 N 121.204 0.198386 -1.56346 0
M  V30 1306 C 122.151 1.24589 -1.94284 0
M  V30 1307 C 123.121 1.454 -0.802997 0
M  V30 1308 O 124.306 1.58588 -1.06087 0
M  V30 1309 C 121.446 2.58631 -2.28482 0
M  V30 1310 C 120.559 2.45426 -3.55514 0
M  V30 1311 C 119.694 3.7215 -3.79049 0
M  V30 1312 C 118.733 3.53763 -4.99518 0
M  V30 1313 N 117.87 4.72491 -5.19323 0
M  V30 1314 H 122.71 0.915356 -2.83593 0
M  V30 1315 H 120.247 0.440629 -1.40346 0
M  V30 1316 H 122.205 3.3672 -2.46324 0
M  V30 1317 H 120.835 2.89734 -1.42317 0
M  V30 1318 H 119.887 1.58652 -3.45737 0
M  V30 1319 H 121.199 2.27772 -4.43758 0
M  V30 1320 H 120.353 4.58679 -3.97113 0
M  V30 1321 H 119.092 3.92754 -2.89129 0
M  V30 1322 H 118.097 2.65619 -4.8138 0
M  V30 1323 H 119.322 3.34607 -5.90944 0
M  V30 1324 H 117.268 4.93365 -4.3235 0
M  V30 1325 H 117.185 4.5765 -6.01741 0
M  V30 1326 H 118.453 5.6038 -5.41843 0
M  V30 1327 N 122.682 1.50554 0.465978 0
M  V30 1328 C 123.922 1.63439 1.22747 0
M  V30 1329 C 124.286 0.329822 1.89146 0
M  V30 1330 O 125.487 0.334161 2.66715 0
M  V30 1331 C 123.758 2.78542 2.2394 0
M  V30 1332 S 125.317 3.11591 3.0896 0
M  V30 1333 H 122.135 0.576113 0.416672 0
M  V30 1334 H 124.737 1.88357 0.523641 0
M  V30 1335 H 123.441 3.71805 1.7375 0
M  V30 1336 H 122.972 2.55726 2.98944 0
M  V30 1337 H 124.987 2.55811 4.25176 0
M  V30 1338 N 124.16 -0.719506 1.40217 0
M  V30 1339 C 125.408 -1.47641 1.3801 0
M  V30 1340 C 125.729 -1.94992 -0.018145 0
M  V30 1341 O 124.999 -1.70073 -0.972207 0
M  V30 1342 H 123.579 -0.547744 0.507923 0
M  V30 1343 H 126.241 -0.853187 1.75233 0
M  V30 1344 H 125.337 -2.35112 2.05253 0
M  V30 1345 N 125.638 -1.25649 -0.95132 0
M  V30 1346 C 126.887 -1.09988 -1.69073 0
M  V30 1347 C 127.2 0.358355 -1.92289 0
M  V30 1348 O 128.406 0.635466 -2.63958 0
M  V30 1349 C 126.862 -1.92012 -3.044 0
M  V30 1350 C 126.47 -3.42347 -2.88968 0
M  V30 1351 C 128.214 -1.8493 -3.82101 0
M  V30 1352 C 126.121 -4.16655 -4.19705 0
M  V30 1353 H 125.051 -0.407993 -0.63408 0
M  V30 1354 H 127.702 -1.49873 -1.05879 0
M  V30 1355 H 126.084 -1.44952 -3.68517 0
M  V30 1356 H 127.258 -3.97104 -2.33762 0
M  V30 1357 H 125.573 -3.50557 -2.24719 0
M  V30 1358 H 128.17 -2.37739 -4.78941 0
M  V30 1359 H 128.513 -0.817883 -4.08187 0
M  V30 1360 H 129.046 -2.29758 -3.2474 0
M  V30 1361 H 125.785 -5.20224 -3.98807 0
M  V30 1362 H 125.305 -3.66681 -4.74663 0
M  V30 1363 H 126.984 -4.24551 -4.88227 0
M  V30 1364 N 127.117 1.15442 -1.07289 0
M  V30 1365 C 128.08 2.18358 -0.696591 0
M  V30 1366 C 129.08 1.58637 0.262837 0
M  V30 1367 O 130.27 1.74145 0.0438809 0
M  V30 1368 C 127.402 3.4089 -0.0266151 0
M  V30 1369 H 128.595 2.53162 -1.60776 0
M  V30 1370 H 126.148 1.29893 -0.869342 0
M  V30 1371 H 126.883 3.11653 0.896822 0
M  V30 1372 H 126.668 3.85495 -0.716657 0
M  V30 1373 H 128.158 4.17009 0.222028 0
M  V30 1374 N 128.595 0.856903 1.32268 0
M  V30 1375 C 129.823 0.475439 2.01363 0
M  V30 1376 C 130.238 -0.928486 1.64392 0
M  V30 1377 O 129.595 -1.60624 0.866387 0
M  V30 1378 C 129.646 0.607545 3.56358 0
M  V30 1379 O 129.367 1.95617 3.92002 0
M  V30 1380 C 130.868 0.225382 4.42727 0
M  V30 1381 H 128.088 0.186636 0.644521 0
M  V30 1382 H 130.632 1.15446 1.68797 0
M  V30 1383 H 128.787 -0.0237719 3.87393 0
M  V30 1384 H 129.201 1.95455 4.86721 0
M  V30 1385 H 130.675 0.368813 5.50767 0
M  V30 1386 H 131.152 -0.834369 4.31202 0
M  V30 1387 H 131.758 0.831864 4.17085 0
M  V30 1388 N 130.073 -1.45103 0.615059 0
M  V30 1389 C 131.301 -2.06553 0.11977 0
M  V30 1390 C 131.716 -1.45842 -1.19898 0
M  V30 1391 O 131.073 -0.575325 -1.73194 0
M  V30 1392 C 131.124 -3.61495 -0.018364 0
M  V30 1393 O 130.845 -4.19942 1.24822 0
M  V30 1394 C 132.346 -4.39947 -0.544237 0
M  V30 1395 H 129.566 -0.667096 0.0722739 0
M  V30 1396 H 132.11 -1.8623 0.84491 0
M  V30 1397 H 130.265 -3.81135 -0.693865 0
M  V30 1398 H 130.679 -5.13204 1.0827 0
M  V30 1399 H 132.153 -5.48838 -0.589953 0
M  V30 1400 H 132.63 -4.10255 -1.56805 0
M  V30 1401 H 133.236 -4.25188 0.0974703 0
M  V30 1402 N 131.551 -0.354651 -1.53558 0
M  V30 1403 C 132.514 0.484566 -2.24019 0
M  V30 1404 C 133.514 1.01861 -1.24422 0
M  V30 1405 O 134.704 0.906097 -1.4878 0
M  V30 1406 C 131.836 1.67615 -2.96847 0
M  V30 1407 H 133.029 -0.131843 -2.9961 0
M  V30 1408 H 130.582 -0.106165 -1.55939 0
M  V30 1409 H 131.317 2.33095 -2.25471 0
M  V30 1410 H 131.102 1.30029 -3.69912 0
M  V30 1411 H 132.592 2.27114 -3.50441 0
M  V30 1412 N 133.029 1.57378 -0.0835403 0
M  V30 1413 C 134.445 1.57246 0.273109 0
M  V30 1414 C 134.645 1.09385 1.69225 0
M  V30 1415 O 133.701 0.765051 2.40631 0
M  V30 1416 C 135.014 3.00614 0.0720628 0
M  V30 1417 C 136.562 3.12684 0.1407 0
M  V30 1418 C 137.037 4.57989 -0.0322094 0
M  V30 1419 N 138.528 4.63194 0.0230085 0
M  V30 1420 C 139.263 5.73335 -0.0861941 0
M  V30 1421 N 138.759 6.9235 -0.24958 0
M  V30 1422 N 140.552 5.62093 -0.0282886 0
M  V30 1423 H 132.703 1.86801 -1.0109 0
M  V30 1424 H 134.966 0.861687 -0.395222 0
M  V30 1425 H 134.672 3.39786 -0.907662 0
M  V30 1426 H 134.546 3.68193 0.81936 0
M  V30 1427 H 136.933 2.73391 1.11092 0
M  V30 1428 H 137.014 2.47719 -0.637896 0
M  V30 1429 H 136.658 4.97973 -0.999247 0
M  V30 1430 H 136.588 5.21 0.765937 0
M  V30 1431 H 139.079 3.77613 0.14722 0
M  V30 1432 H 139.392 7.72117 -0.324733 0
M  V30 1433 H 137.737 6.94415 -0.285097 0
M  V30 1434 H 140.928 4.67997 0.0981408 0
M  V30 1435 H 141.101 6.47895 -0.116845 0
M  V30 1436 N 134.507 -0.190092 1.56449 0
M  V30 1437 C 135.417 -1.25591 1.98152 0
M  V30 1438 C 136.433 -1.49519 0.889944 0
M  V30 1439 O 137.609 -1.62036 1.19609 0
M  V30 1440 C 134.674 -2.57916 2.3169 0
M  V30 1441 C 133.735 -2.42015 3.5458 0
M  V30 1442 C 132.968 -3.6803 3.8651 0
M  V30 1443 O 133.191 -4.72413 3.1966 0
M  V30 1444 O 132.125 -3.6326 4.79923 0
M  V30 1445 H 135.951 -0.931988 2.89046 0
M  V30 1446 H 133.536 -0.395488 1.4407 0
M  V30 1447 H 135.418 -3.36008 2.54316 0
M  V30 1448 H 134.093 -2.89925 1.43963 0
M  V30 1449 H 133 -1.62017 3.37196 0
M  V30 1450 H 134.333 -2.14937 4.4279 0
M  V30 1451 N 135.985 -1.50799 -0.457987 0
M  V30 1452 C 136.895 -1.73426 -1.57989 0
M  V30 1453 C 137.911 -0.617745 -1.62665 0
M  V30 1454 O 139.087 -0.897614 -1.80291 0
M  V30 1455 C 136.152 -1.83557 -2.94122 0
M  V30 1456 C 135.213 -3.07345 -2.99729 0
M  V30 1457 C 134.446 -3.16983 -4.29368 0
M  V30 1458 O 134.669 -2.33077 -5.20607 0
M  V30 1459 O 133.603 -4.09812 -4.40837 0
M  V30 1460 H 137.429 -2.68555 -1.41817 0
M  V30 1461 H 135.014 -1.35052 -0.638859 0
M  V30 1462 H 136.896 -1.92326 -3.74952 0
M  V30 1463 H 135.571 -0.916137 -3.10465 0
M  V30 1464 H 134.478 -3.04068 -2.1793 0
M  V30 1465 H 135.811 -3.9891 -2.88326 0
M  V30 1466 N 137.463 0.71206 -1.40597 0
M  V30 1467 C 138.411 1.84746 -1.41321 0
M  V30 1468 C 139.405 1.66842 -0.293268 0
M  V30 1469 O 140.611 1.73904 -0.464481 0
M  V30 1470 H 136.986 0.608522 -0.441819 0
M  V30 1471 H 138.957 1.81252 -2.37045 0
M  V30 1472 C 137.706 3.22638 -1.29614 0
M  V30 1473 H 137.029 3.37023 -2.15071 0
M  V30 1474 H 138.469 4.02209 -1.3418 0
M  V30 1475 C 136.928 3.36899 -0.00673121 0
M  V30 1476 O 137.458 3.90186 0.954859 0
M  V30 1477 N 135.664 2.9053 0.0639327 0
M  V30 1478 H 135.211 2.47353 -0.719311 0
M  V30 1479 H 135.169 3.0045 0.926118 0
M  V30 1480 N 138.941 1.26152 0.944643 0
M  V30 1481 C 140.187 1.11657 1.69294 0
M  V30 1482 C 140.52 -0.339926 1.91202 0
M  V30 1483 O 139.795 -1.24994 1.49019 0
M  V30 1484 C 140.078 1.88236 3.06984 0
M  V30 1485 C 139.931 3.41772 2.92424 0
M  V30 1486 C 141.25 1.67343 4.07043 0
M  V30 1487 H 138.369 0.407004 0.614424 0
M  V30 1488 H 141.011 1.55106 1.09737 0
M  V30 1489 H 139.161 1.51308 3.57824 0
M  V30 1490 H 140.833 3.88433 2.48832 0
M  V30 1491 H 139.076 3.68974 2.28124 0
M  V30 1492 H 139.747 3.90579 3.90067 0
M  V30 1493 H 142.223 1.99509 3.65151 0
M  V30 1494 H 141.099 2.23346 5.01406 0
M  V30 1495 H 141.36 0.617158 4.37771 0
M  V30 1496 N 140.419 -1.14872 1.07899 0
M  V30 1497 C 141.668 -1.85135 0.800499 0
M  V30 1498 C 141.981 -1.83547 -0.676014 0
M  V30 1499 O 143.187 -2.49548 -1.06948 0
M  V30 1500 C 141.643 -3.3231 1.38197 0
M  V30 1501 C 141.251 -3.42329 2.8899 0
M  V30 1502 C 142.995 -4.0772 1.18174 0
M  V30 1503 C 140.902 -4.83684 3.403 0
M  V30 1504 H 139.832 -0.693563 0.29578 0
M  V30 1505 H 142.483 -1.29532 1.29976 0
M  V30 1506 H 140.865 -3.87618 0.810431 0
M  V30 1507 H 142.039 -2.97097 3.52236 0
M  V30 1508 H 140.354 -2.80369 3.07867 0
M  V30 1509 H 142.951 -5.12049 1.5398 0
M  V30 1510 H 143.294 -4.16124 0.12117 0
M  V30 1511 H 143.827 -3.58696 1.71994 0
M  V30 1512 H 140.566 -4.80465 4.45907 0
M  V30 1513 H 140.086 -5.29474 2.81811 0
M  V30 1514 H 141.765 -5.52558 3.36584 0
M  V30 1515 N 141.898 -0.863906 -1.31812 0
M  V30 1516 C 143.146 -0.470904 -1.96537 0
M  V30 1517 C 143.467 0.978771 -1.68657 0
M  V30 1518 O 142.737 1.6853 -0.998717 0
M  V30 1519 H 141.317 -0.171148 -0.72713 0
M  V30 1520 H 143.979 -1.10236 -1.60729 0
M  V30 1521 H 143.075 -0.623616 -3.05806 0
M  V30 1522 N 143.376 1.44774 -0.622745 0
M  V30 1523 C 144.326 2.2774 0.108889 0
M  V30 1524 C 145.31 1.38189 0.824175 0
M  V30 1525 O 146.502 1.62063 0.711664 0
M  V30 1526 C 143.631 3.25353 1.09546 0
M  V30 1527 C 142.717 4.22392 0.380232 0
M  V30 1528 N 143.108 5.02388 -0.586535 0
M  V30 1529 C 141.406 4.41588 0.625792 0
M  V30 1530 C 142.107 5.72894 -1.00834 0
M  V30 1531 N 141.083 5.42479 -0.348878 0
M  V30 1532 H 144.885 2.86993 -0.63341 0
M  V30 1533 H 142.399 1.5611 -0.447589 0
M  V30 1534 H 144.396 3.83538 1.63414 0
M  V30 1535 H 143.056 2.6766 1.83815 0
M  V30 1536 H 144.067 5.0885 -0.963975 0
M  V30 1537 H 140.744 3.95003 1.352 0
M  V30 1538 H 142.134 6.47158 -1.80656 0
M  V30 1539 N 144.854 0.36279 1.53368 0
M  V30 1540 C 146.084 -0.228281 2.05335 0
M  V30 1541 C 146.492 -1.43226 1.23625 0
M  V30 1542 O 145.835 -1.81717 0.269206 0
M  V30 1543 C 145.897 -0.688549 3.52845 0
M  V30 1544 C 145.561 0.398362 4.5526 0
M  V30 1545 C 146.558 1.24732 5.04716 0
M  V30 1546 C 144.243 0.557805 4.99193 0
M  V30 1547 C 146.237 2.2411 5.96702 0
M  V30 1548 C 143.924 1.55495 5.90986 0
M  V30 1549 C 144.922 2.39503 6.39631 0
M  V30 1550 O 144.61 3.37517 7.29615 0
M  V30 1551 H 144.342 -0.044395 0.674541 0
M  V30 1552 H 146.896 0.518668 1.98744 0
M  V30 1553 H 145.126 -1.48706 3.56964 0
M  V30 1554 H 146.815 -1.20231 3.87685 0
M  V30 1555 H 147.581 1.13532 4.71525 0
M  V30 1556 H 143.46 -0.0862959 4.60919 0
M  V30 1557 H 147.004 2.89718 6.34594 0
M  V30 1558 H 142.901 1.66744 6.23592 0
M  V30 1559 H 143.669 3.33213 7.47604 0
M  V30 1560 N 146.332 -1.57332 0.0918853 0
M  V30 1561 C 147.581 -1.93412 -0.572249 0
M  V30 1562 C 147.894 -0.975515 -1.69538 0
M  V30 1563 O 149.1 -1.22991 -2.42045 0
M  V30 1564 C 147.556 -3.43648 -1.0693 0
M  V30 1565 C 147.164 -4.47994 0.0239049 0
M  V30 1566 C 148.908 -3.88695 -1.70635 0
M  V30 1567 C 146.815 -5.89381 -0.488319 0
M  V30 1568 H 145.745 -0.721939 -0.217532 0
M  V30 1569 H 148.396 -1.82735 0.167369 0
M  V30 1570 H 146.778 -3.49466 -1.8625 0
M  V30 1571 H 147.952 -4.53815 0.799277 0
M  V30 1572 H 146.267 -4.12536 0.565946 0
M  V30 1573 H 148.864 -4.91725 -2.10025 0
M  V30 1574 H 149.207 -3.27166 -2.57426 0
M  V30 1575 H 149.74 -3.85564 -0.979023 0
M  V30 1576 H 146.479 -6.54602 0.342906 0
M  V30 1577 H 145.999 -5.87037 -1.23077 0
M  V30 1578 H 147.678 -6.39863 -0.958317 0
M  V30 1579 N 147.81 0.181792 -1.56548 0
M  V30 1580 C 149.038 0.915947 -1.85521 0
M  V30 1581 C 149.453 1.76282 -0.676016 0
M  V30 1582 O 148.81 1.79012 0.355077 0
M  V30 1583 C 148.861 1.80126 -3.13427 0
M  V30 1584 O 148.582 0.988562 -4.26801 0
M  V30 1585 C 150.083 2.64597 -3.55673 0
M  V30 1586 H 147.303 0.26661 -0.61576 0
M  V30 1587 H 149.847 0.185039 -2.03661 0
M  V30 1588 H 148.002 2.48563 -2.97145 0
M  V30 1589 H 148.416 1.59308 -4.99721 0
M  V30 1590 H 149.89 3.2235 -4.48101 0
M  V30 1591 H 150.367 3.38958 -2.79292 0
M  V30 1592 H 150.973 2.0151 -3.74532 0
M  V30 1593 N 149.288 1.51039 0.449983 0
M  V30 1594 C 150.565 1.53612 1.21089 0
M  V30 1595 C 150.945 0.292997 2.09057 0
M  V30 1596 O 150.293 -0.72259 2.16774 0
M  V30 1597 C 150.503 2.84337 2.0237 0
M  V30 1598 C 151.851 3.35807 2.59843 0
M  V30 1599 O 152.875 2.85802 2.12593 0
M  V30 1600 O 151.734 4.23029 3.45989 0
M  V30 1601 H 148.828 0.617057 0.550608 0
M  V30 1602 H 151.374 1.63344 0.460082 0
M  V30 1603 H 150.146 3.66278 1.37681 0
M  V30 1604 H 149.769 2.77708 2.84542 0
M  V30 1605 N 150.766 -0.704594 1.40972 0
M  V30 1606 C 152.182 -1.01406 1.23244 0
M  V30 1607 C 152.382 -2.01169 0.115399 0
M  V30 1608 O 151.438 -2.47021 -0.523147 0
M  V30 1609 C 152.751 -1.54728 2.57836 0
M  V30 1610 C 154.299 -1.66658 2.64942 0
M  V30 1611 C 154.774 -2.23383 3.9983 0
M  V30 1612 N 156.265 -2.30756 4.01629 0
M  V30 1613 C 157 -2.75655 5.02794 0
M  V30 1614 N 156.496 -3.20225 6.14352 0
M  V30 1615 N 158.289 -2.75138 4.90159 0
M  V30 1616 H 150.44 -0.0435285 2.12355 0
M  V30 1617 H 152.703 -0.0818951 0.944456 0
M  V30 1618 H 152.409 -0.888832 3.40283 0
M  V30 1619 H 152.283 -2.53084 2.79693 0
M  V30 1620 H 154.67 -2.31617 1.8286 0
M  V30 1621 H 154.751 -0.668717 2.46904 0
M  V30 1622 H 154.395 -1.59043 4.82357 0
M  V30 1623 H 154.325 -3.23904 4.15203 0
M  V30 1624 H 156.816 -1.99291 3.21079 0
M  V30 1625 H 157.129 -3.53084 6.87424 0
M  V30 1626 H 155.474 -3.18156 6.17901 0
M  V30 1627 H 158.665 -2.39661 4.02095 0
M  V30 1628 H 158.838 -3.09812 5.6914 0
M  V30 1629 N 152.244 -1.26651 -0.937939 0
M  V30 1630 C 153.521 -1.0313 -1.66204 0
M  V30 1631 C 153.901 0.437256 -2.06522 0
M  V30 1632 O 153.249 1.41831 -1.79154 0
M  V30 1633 C 153.459 -1.98314 -2.87181 0
M  V30 1634 C 154.807 -2.27107 -3.58758 0
M  V30 1635 O 155.831 -1.96205 -2.97291 0
M  V30 1636 O 154.69 -2.79736 -4.69479 0
M  V30 1637 H 151.784 -0.392384 -0.727986 0
M  V30 1638 H 154.33 -1.37874 -0.989382 0
M  V30 1639 H 153.102 -2.97399 -2.54302 0
M  V30 1640 H 152.725 -1.64068 -3.6217 0
M  V30 1641 N 153.722 1.14298 -1.08507 0
M  V30 1642 C 154.672 2.17449 -0.685569 0
M  V30 1643 C 155.656 1.58167 0.295315 0
M  V30 1644 O 156.848 1.76675 0.107172 0
M  V30 1645 C 153.977 3.43161 -0.0975318 0
M  V30 1646 C 153.063 4.09471 -1.10426 0
M  V30 1647 N 153.454 4.51089 -2.28806 0
M  V30 1648 C 151.752 4.35976 -0.940258 0
M  V30 1649 C 152.453 5.02654 -2.9277 0
M  V30 1650 N 151.429 4.96927 -2.20374 0
M  V30 1651 H 155.231 2.47369 -1.587 0
M  V30 1652 H 152.745 1.30992 -0.959936 0
M  V30 1653 H 154.742 4.16388 0.20664 0
M  V30 1654 H 153.402 3.14719 0.798872 0
M  V30 1655 H 154.413 4.44097 -2.66455 0
M  V30 1656 H 151.09 4.17386 -0.0977441 0
M  V30 1657 H 152.48 5.44723 -3.93352 0
M  V30 1658 N 155.201 0.870884 1.31352 0
M  V30 1659 C 156.45 0.478408 1.95944 0
M  V30 1660 C 156.763 -0.974493 1.69597 0
M  V30 1661 O 157.969 -1.47316 2.28058 0
M  V30 1662 C 156.425 0.804609 3.50791 0
M  V30 1663 C 156.033 2.27433 3.85977 0
M  V30 1664 C 157.777 0.480648 4.2177 0
M  V30 1665 C 155.684 2.5429 5.33939 0
M  V30 1666 H 154.614 0.175175 0.733369 0
M  V30 1667 H 157.265 1.06391 1.4951 0
M  V30 1668 H 155.647 0.148347 3.95722 0
M  V30 1669 H 156.821 2.97373 3.52002 0
M  V30 1670 H 155.136 2.56442 3.28065 0
M  V30 1671 H 157.733 0.658519 5.30629 0
M  V30 1672 H 158.076 -0.578979 4.12254 0
M  V30 1673 H 158.609 1.09349 3.82476 0
M  V30 1674 H 155.348 3.58939 5.48491 0
M  V30 1675 H 154.868 1.88945 5.69263 0
M  V30 1676 H 156.547 2.39066 6.01212 0
M  V30 1677 N 156.679 -1.44442 0.630414 0
M  V30 1678 C 157.928 -2.01267 0.132073 0
M  V30 1679 C 158.241 -1.50172 -1.25331 0
M  V30 1680 O 159.447 -1.9912 -1.84562 0
M  V30 1681 C 157.903 -3.59422 0.185362 0
M  V30 1682 C 157.511 -4.19514 1.57201 0
M  V30 1683 C 159.255 -4.23724 -0.256553 0
M  V30 1684 C 157.162 -5.69891 1.58045 0
M  V30 1685 H 156.092 -0.752619 0.0456092 0
M  V30 1686 H 158.743 -1.65666 0.789106 0
M  V30 1687 H 157.125 -3.92318 -0.538759 0
M  V30 1688 H 158.299 -3.98156 2.31966 0
M  V30 1689 H 156.614 -3.67496 1.95795 0
M  V30 1690 H 159.211 -5.34019 -0.269767 0
M  V30 1691 H 159.554 -3.96013 -1.28372 0
M  V30 1692 H 160.087 -3.95629 0.41505 0
M  V30 1693 H 156.826 -6.02336 2.58597 0
M  V30 1694 H 156.346 -5.93373 0.875725 0
M  V30 1695 H 158.025 -6.33515 1.31408 0
M  V30 1696 N 158.157 -0.370918 -1.53173 0
M  V30 1697 C 159.104 0.473035 -2.259 0
M  V30 1698 C 160.074 1.07311 -1.26781 0
M  V30 1699 O 161.259 1.1046 -1.55574 0
M  V30 1700 C 158.399 1.60405 -3.05556 0
M  V30 1701 C 157.512 1.02863 -4.19575 0
M  V30 1702 C 156.647 2.12918 -4.86661 0
M  V30 1703 C 155.686 1.52869 -5.92704 0
M  V30 1704 N 154.823 2.56779 -6.53459 0
M  V30 1705 H 159.663 -0.153649 -2.97604 0
M  V30 1706 H 157.2 -0.0875946 -1.46839 0
M  V30 1707 H 159.158 2.27034 -3.50016 0
M  V30 1708 H 157.788 2.20131 -2.36097 0
M  V30 1709 H 156.84 0.252465 -3.79561 0
M  V30 1710 H 158.152 0.549642 -4.95762 0
M  V30 1711 H 157.306 2.87356 -5.34333 0
M  V30 1712 H 156.045 2.6417 -4.09958 0
M  V30 1713 H 155.05 0.769479 -5.44389 0
M  V30 1714 H 156.275 1.02435 -6.7133 0
M  V30 1715 H 154.221 3.07235 -5.79606 0
M  V30 1716 H 154.138 2.13583 -7.25202 0
M  V30 1717 H 155.406 3.30903 -7.05779 0
M  V30 1718 N 159.635 1.57281 -0.100228 0
M  V30 1719 C 160.86 1.99302 0.573881 0
M  V30 1720 C 161.285 0.979059 1.60611 0
M  V30 1721 O 160.643 -0.0517803 1.81226 0
M  V30 1722 C 160.691 3.40274 1.19358 0
M  V30 1723 O 159.795 3.41676 2.30935 0
M  V30 1724 H 159.136 0.647944 0.145138 0
M  V30 1725 H 161.666 2.03779 -0.183156 0
M  V30 1726 H 161.676 3.78078 1.53365 0
M  V30 1727 H 160.351 4.13594 0.437385 0
M  V30 1728 H 158.928 3.15672 1.98509 0
M  V30 1729 N 161.113 -0.173488 1.56642 0
M  V30 1730 C 162.076 -1.19859 1.95362 0
M  V30 1731 C 163.076 -1.37296 0.83704 0
M  V30 1732 O 164.266 -1.34739 1.10413 0
M  V30 1733 C 161.398 -2.56405 2.24654 0
M  V30 1734 H 162.591 -0.867062 2.87092 0
M  V30 1735 H 160.144 -0.415853 1.50666 0
M  V30 1736 H 160.879 -2.94576 1.35631 0
M  V30 1737 H 160.664 -2.45115 3.06041 0
M  V30 1738 H 162.154 -3.30287 2.5554 0
M  V30 1739 N 162.591 -1.51276 -0.441967 0
M  V30 1740 C 163.501 -1.75092 -1.56141 0
M  V30 1741 C 164.517 -0.634963 -1.62001 0
M  V30 1742 O 165.693 -0.916686 -1.79329 0
M  V30 1743 C 162.758 -1.86666 -2.92158 0
M  V30 1744 C 161.819 -3.10506 -2.96453 0
M  V30 1745 C 161.052 -3.21519 -4.25982 0
M  V30 1746 O 161.275 -2.38586 -5.18105 0
M  V30 1747 O 160.209 -4.14465 -4.36466 0
M  V30 1748 H 164.035 -2.70044 -1.38961 0
M  V30 1749 H 161.62 -1.35722 -0.624499 0
M  V30 1750 H 163.502 -1.96292 -3.72891 0
M  V30 1751 H 162.177 -0.949014 -3.09476 0
M  V30 1752 H 161.084 -3.06363 -2.14692 0
M  V30 1753 H 162.417 -4.01945 -2.84079 0
M  V30 1754 N 164.069 0.697108 -1.41344 0
M  V30 1755 C 165.001 1.8224 -1.39001 0
M  V30 1756 C 166.014 1.60152 -0.292428 0
M  V30 1757 O 167.203 1.69684 -0.554048 0
M  V30 1758 C 164.303 3.18976 -1.14489 0
M  V30 1759 C 163.476 3.68105 -2.36258 0
M  V30 1760 C 162.535 4.83506 -2.07625 0
M  V30 1761 O 161.561 4.95201 -2.8065 0
M  V30 1762 N 162.763 5.70637 -1.06555 0
M  V30 1763 H 165.528 1.84742 -2.35988 0
M  V30 1764 H 163.089 0.87937 -1.35936 0
M  V30 1765 H 165.081 3.93801 -0.932885 0
M  V30 1766 H 163.651 3.11508 -0.261043 0
M  V30 1767 H 162.871 2.84204 -2.7317 0
M  V30 1768 H 164.159 3.97667 -3.17393 0
M  V30 1769 H 163.557 5.63817 -0.461125 0
M  V30 1770 H 162.114 6.45368 -0.913444 0
M  V30 1771 N 165.547 1.27147 0.931209 0
M  V30 1772 C 166.772 1.16191 1.71797 0
M  V30 1773 C 167.197 -0.278004 1.86034 0
M  V30 1774 O 166.555 -1.20137 1.35782 0
M  V30 1775 C 166.603 1.84673 3.09723 0
M  V30 1776 O 165.707 1.14231 3.96264 0
M  V30 1777 H 165.048 0.404303 0.526721 0
M  V30 1778 H 167.578 1.68152 1.1656 0
M  V30 1779 H 167.588 1.91893 3.60057 0
M  V30 1780 H 166.263 2.89421 2.98677 0
M  V30 1781 H 164.84 1.15056 3.54706 0
M  V30 1782 N 167.025 -1.13721 1.09112 0
M  V30 1783 C 167.955 -2.21148 0.749385 0
M  V30 1784 C 168.936 -1.6792 -0.271475 0
M  V30 1785 O 170.121 -1.93693 -0.140251 0
M  V30 1786 C 167.251 -3.46905 0.165659 0
M  V30 1787 C 166.205 -4.13203 1.11567 0
M  V30 1788 C 165.531 -5.33248 0.393809 0
M  V30 1789 C 166.831 -4.60912 2.45678 0
M  V30 1790 H 168.525 -2.4999 1.64758 0
M  V30 1791 H 166.071 -1.20156 0.793626 0
M  V30 1792 H 168.024 -4.21313 -0.085466 0
M  V30 1793 H 166.748 -3.17449 -0.767714 0
M  V30 1794 H 165.407 -3.40758 1.35202 0
M  V30 1795 H 165.055 -5.00054 -0.543599 0
M  V30 1796 H 164.755 -5.78552 1.02721 0
M  V30 1797 H 166.279 -6.10413 0.150908 0
M  V30 1798 H 167.693 -5.26759 2.26269 0
M  V30 1799 H 166.09 -5.16944 3.04776 0
M  V30 1800 H 167.16 -3.75603 3.06677 0
M  V30 1801 N 168.503 -0.877838 -1.30888 0
M  V30 1802 C 169.752 -0.488793 -1.95688 0
M  V30 1803 C 170.065 0.965485 -1.70111 0
M  V30 1804 O 171.271 1.46104 -2.28836 0
M  V30 1805 C 169.727 -0.823201 -3.50359 0
M  V30 1806 C 169.335 -2.29477 -3.84765 0
M  V30 1807 C 171.079 -0.503009 -4.21509 0
M  V30 1808 C 168.986 -2.57118 -5.32583 0
M  V30 1809 H 167.916 -0.179062 -0.732429 0
M  V30 1810 H 170.567 -1.07183 -1.48943 0
M  V30 1811 H 168.949 -0.169331 -3.95638 0
M  V30 1812 H 170.123 -2.99236 -3.5042 0
M  V30 1813 H 168.438 -2.58178 -3.267 0
M  V30 1814 H 171.035 -0.68665 -5.30273 0
M  V30 1815 H 171.378 0.557109 -4.12555 0
M  V30 1816 H 171.911 -1.11376 -3.8189 0
M  V30 1817 H 168.65 -3.61843 -5.4658 0
M  V30 1818 H 168.17 -1.91961 -5.68253 0
M  V30 1819 H 169.849 -2.42251 -5.99936 0
M  V30 1820 N 169.982 1.44106 -0.638065 0
M  V30 1821 C 170.93 2.3248 0.0748149 0
M  V30 1822 C 171.924 1.47746 0.828702 0
M  V30 1823 O 173.13 1.64049 0.740816 0
M  V30 1824 H 169.505 0.750771 0.0429686 0
M  V30 1825 H 171.476 2.90348 -0.688504 0
M  V30 1826 C 170.225 3.31843 1.03805 0
M  V30 1827 H 169.548 3.97059 0.467375 0
M  V30 1828 H 170.988 3.96345 1.50622 0
M  V30 1829 C 169.447 2.61291 2.1267 0
M  V30 1830 O 169.977 2.41702 3.20847 0
M  V30 1831 N 168.183 2.20915 1.88798 0
M  V30 1832 H 167.73 2.37047 1.00829 0
M  V30 1833 H 167.688 1.74038 2.61836 0
M  V30 1834 N 171.46 0.379036 1.52974 0
M  V30 1835 C 172.39 -0.452706 2.29069 0
M  V30 1836 C 173.371 -1.07237 1.32039 0
M  V30 1837 O 174.556 -1.08708 1.60923 0
M  V30 1838 C 171.686 -1.5856 3.08992 0
M  V30 1839 C 170.64 -1.0925 4.13822 0
M  V30 1840 C 169.966 -2.31668 4.81907 0
M  V30 1841 C 171.266 -0.167702 5.22031 0
M  V30 1842 H 172.96 0.182181 2.98845 0
M  V30 1843 H 170.506 0.0890592 1.43724 0
M  V30 1844 H 172.459 -2.1742 3.6098 0
M  V30 1845 H 171.183 -2.24792 2.36931 0
M  V30 1846 H 169.842 -0.526494 3.628 0
M  V30 1847 H 169.49 -2.96386 4.06404 0
M  V30 1848 H 169.19 -1.9934 5.52754 0
M  V30 1849 H 170.714 -2.91189 5.36695 0
M  V30 1850 H 172.128 -0.664186 5.6944 0
M  V30 1851 H 170.525 0.0653265 6.00064 0
M  V30 1852 H 171.595 0.786347 4.78482 0
M  V30 1853 N 172.938 -1.57226 0.108567 0
M  V30 1854 C 173.901 -2.13602 -0.831082 0
M  V30 1855 C 174.901 -1.06841 -1.20173 0
M  V30 1856 O 176.091 -1.32666 -1.12895 0
M  V30 1857 C 173.223 -2.66769 -2.12243 0
M  V30 1858 H 174.416 -2.97951 -0.341317 0
M  V30 1859 H 171.969 -1.55667 -0.14057 0
M  V30 1860 H 172.704 -1.85977 -2.65675 0
M  V30 1861 H 172.489 -3.44839 -1.86625 0
M  V30 1862 H 173.979 -3.10332 -2.79435 0
M  V30 1863 N 174.416 0.165178 -1.56732 0
M  V30 1864 C 175.644 0.896218 -1.86482 0
M  V30 1865 C 176.059 1.75555 -0.694675 0
M  V30 1866 O 175.416 1.79379 0.33607 0
M  V30 1867 C 175.467 1.76792 -3.1532 0
M  V30 1868 O 175.188 0.943239 -4.27825 0
M  V30 1869 C 176.689 2.6081 -3.58459 0
M  V30 1870 H 173.909 0.260064 -0.618553 0
M  V30 1871 H 176.453 0.163428 -2.03846 0
M  V30 1872 H 174.608 2.45398 -2.99764 0
M  V30 1873 H 175.022 1.53998 -5.01383 0
M  V30 1874 H 176.496 3.17579 -4.51495 0
M  V30 1875 H 176.973 3.35977 -2.82872 0
M  V30 1876 H 177.579 1.97526 -3.76648 0
M  V30 1877 N 175.894 1.51508 0.433938 0
M  V30 1878 C 177.171 1.54888 1.19453 0
M  V30 1879 C 177.551 0.315154 2.08734 0
M  V30 1880 O 176.899 -0.699558 2.17528 0
M  V30 1881 C 177.109 2.86467 1.99342 0
M  V30 1882 C 178.457 3.38545 2.56267 0
M  V30 1883 O 179.481 2.88041 2.0955 0
M  V30 1884 O 178.34 4.26675 3.41483 0
M  V30 1885 H 175.434 0.622863 0.544032 0
M  V30 1886 H 177.98 1.63823 0.442732 0
M  V30 1887 H 176.752 3.67718 1.33788 0
M  V30 1888 H 176.375 2.8071 2.8158 0
M  V30 1889 N 177.372 -0.689602 1.41712 0
M  V30 1890 C 178.322 -1.79571 1.40493 0
M  V30 1891 C 179.306 -1.58473 0.278409 0
M  V30 1892 O 180.498 -1.69204 0.519532 0
M  V30 1893 C 177.627 -3.17923 1.29536 0
M  V30 1894 C 176.713 -3.44695 2.47075 0
M  V30 1895 N 177.104 -3.42132 3.72531 0
M  V30 1896 C 175.402 -3.75269 2.41017 0
M  V30 1897 C 176.103 -3.67976 4.50521 0
M  V30 1898 N 175.079 -3.88014 3.80718 0
M  V30 1899 H 178.881 -1.75961 2.35404 0
M  V30 1900 H 176.395 -0.889839 1.35851 0
M  V30 1901 H 178.392 -3.97167 1.26745 0
M  V30 1902 H 177.052 -3.22741 0.356153 0
M  V30 1903 H 178.063 -3.22375 4.05333 0
M  V30 1904 H 174.74 -3.87421 1.55599 0
M  V30 1905 H 176.13 -3.7208 5.59469 0
M  V30 1906 N 178.85 -1.27639 -0.924453 0
M  V30 1907 C 179.78 -1.13166 -2.04244 0
M  V30 1908 C 180.761 -0.032256 -1.70069 0
M  V30 1909 O 181.946 -0.207328 -1.9309 0
M  V30 1910 C 179.076 -0.781496 -3.38393 0
M  V30 1911 C 178.03 -1.83449 -3.86692 0
M  V30 1912 C 177.356 -1.33822 -5.17683 0
M  V30 1913 C 178.656 -3.23917 -4.09726 0
M  V30 1914 H 180.35 -2.06689 -2.1661 0
M  V30 1915 H 177.896 -0.995136 -1.04082 0
M  V30 1916 H 179.849 -0.667057 -4.16087 0
M  V30 1917 H 178.573 0.189439 -3.2605 0
M  V30 1918 H 177.232 -1.93789 -3.11193 0
M  V30 1919 H 176.88 -0.35665 -5.01734 0
M  V30 1920 H 176.58 -2.04224 -5.50968 0
M  V30 1921 H 178.104 -1.23679 -5.97943 0
M  V30 1922 H 179.518 -3.16559 -4.77978 0
M  V30 1923 H 177.915 -3.92059 -4.54324 0
M  V30 1924 H 178.985 -3.68729 -3.14908 0
M  V30 1925 N 180.328 1.1314 -1.09713 0
M  V30 1926 C 181.605 1.80762 -0.747302 0
M  V30 1927 C 181.985 1.96663 0.767265 0
M  V30 1928 O 181.333 1.53706 1.69076 0
M  V30 1929 C 181.543 3.15606 -1.48975 0
M  V30 1930 C 182.891 3.90914 -1.65746 0
M  V30 1931 O 183.915 3.25239 -1.45251 0
M  V30 1932 O 182.774 5.08718 -1.9967 0
M  V30 1933 H 179.868 0.782103 -0.268782 0
M  V30 1934 H 182.414 1.20041 -1.19951 0
M  V30 1935 H 181.186 2.99278 -2.52088 0
M  V30 1936 H 180.809 3.84029 -1.02991 0
M  V30 1937 N 181.806 0.884767 1.30421 0
M  V30 1938 C 182.736 0.367574 2.30589 0
M  V30 1939 C 183.717 -0.549464 1.60981 0
M  V30 1940 O 184.902 -0.46336 1.88591 0
M  V30 1941 C 182.032 -0.418944 3.44764 0
M  V30 1942 C 180.986 0.406316 4.26067 0
M  V30 1943 C 180.312 -0.506793 5.32293 0
M  V30 1944 C 181.612 1.64832 4.95608 0
M  V30 1945 H 183.306 1.20462 2.74097 0
M  V30 1946 H 180.852 0.580695 1.31772 0
M  V30 1947 H 182.805 -0.791395 4.13902 0
M  V30 1948 H 181.529 -1.28964 3.0006 0
M  V30 1949 H 180.188 0.760903 3.58617 0
M  V30 1950 H 179.836 -1.37519 4.83836 0
M  V30 1951 H 179.536 0.0415828 5.87585 0
M  V30 1952 H 181.06 -0.875764 6.04287 0
M  V30 1953 H 182.474 1.34646 5.57264 0
M  V30 1954 H 180.871 2.13688 5.60765 0
M  V30 1955 H 181.941 2.39284 4.21748 0
M  V30 1956 N 183.284 -1.43765 0.645699 0
M  V30 1957 C 184.214 -2.33471 -0.0370477 0
M  V30 1958 C 185.195 -1.49042 -0.819779 0
M  V30 1959 O 186.38 -1.77726 -0.782758 0
M  V30 1960 C 183.51 -3.32311 -1.0093 0
M  V30 1961 C 182.464 -4.2667 -0.337201 0
M  V30 1962 C 181.79 -5.1549 -1.42037 0
M  V30 1963 C 183.09 -5.16657 0.765706 0
M  V30 1964 H 184.784 -2.90809 0.712069 0
M  V30 1965 H 182.33 -1.39834 0.343876 0
M  V30 1966 H 184.283 -3.9396 -1.49578 0
M  V30 1967 H 183.007 -2.73213 -1.78948 0
M  V30 1968 H 181.666 -3.66374 0.128771 0
M  V30 1969 H 181.314 -4.52735 -2.1918 0
M  V30 1970 H 181.014 -5.79438 -0.975966 0
M  V30 1971 H 182.538 -5.80012 -1.90838 0
M  V30 1972 H 183.952 -5.72158 0.361702 0
M  V30 1973 H 182.349 -5.89286 1.13413 0
M  V30 1974 H 183.419 -4.56796 1.62683 0
M  V30 1975 N 184.763 -0.387143 -1.52771 0
M  V30 1976 C 185.693 0.440551 -2.29306 0
M  V30 1977 C 186.674 1.06535 -1.32606 0
M  V30 1978 O 187.859 1.07853 -1.61497 0
M  V30 1979 C 184.989 1.56919 -3.09829 0
M  V30 1980 C 183.943 1.07054 -4.14395 0
M  V30 1981 C 183.269 2.29109 -4.83129 0
M  V30 1982 C 184.569 0.140015 -5.22112 0
M  V30 1983 H 186.263 -0.198026 -2.98744 0
M  V30 1984 H 183.809 -0.09668 -1.43675 0
M  V30 1985 H 185.762 2.15503 -3.62128 0
M  V30 1986 H 184.486 2.23532 -2.3812 0
M  V30 1987 H 183.145 0.507247 -3.63074 0
M  V30 1988 H 182.793 2.94227 -4.0797 0
M  V30 1989 H 182.493 1.96406 -5.53804 0
M  V30 1990 H 184.017 2.88339 -5.38231 0
M  V30 1991 H 185.431 0.633978 -5.69784 0
M  V30 1992 H 183.828 -0.0971485 -6.00021 0
M  V30 1993 H 184.898 -0.811711 -4.78058 0
M  V30 1994 N 186.241 1.57166 -0.116904 0
M  V30 1995 C 187.49 1.94298 0.541407 0
M  V30 1996 C 187.803 1.00236 1.67964 0
M  V30 1997 O 189.009 1.26826 2.40057 0
M  V30 1998 C 187.465 3.45306 1.01449 0
M  V30 1999 C 187.073 4.47899 -0.0951738 0
M  V30 2000 C 188.817 3.91361 1.6443 0
M  V30 2001 C 186.724 5.90083 0.394491 0
M  V30 2002 H 185.654 0.725308 0.206019 0
M  V30 2003 H 188.305 1.82446 -0.196419 0
M  V30 2004 H 186.687 3.52385 1.80667 0
M  V30 2005 H 187.861 4.52486 -0.871374 0
M  V30 2006 H 186.176 4.11583 -0.631505 0
M  V30 2007 H 188.773 4.95004 2.02176 0
M  V30 2008 H 189.116 3.3122 2.52189 0
M  V30 2009 H 189.649 3.87073 0.917559 0
M  V30 2010 H 186.388 6.53974 -0.447004 0
M  V30 2011 H 185.908 5.88921 1.13722 0
M  V30 2012 H 187.587 6.41307 0.856399 0
M  V30 2013 N 187.719 -0.156864 1.56817 0
M  V30 2014 C 188.669 -1.19891 1.93934 0
M  V30 2015 C 189.653 -1.39061 0.809372 0
M  V30 2016 O 190.845 -1.40789 1.07273 0
M  V30 2017 C 187.974 -2.53493 2.31508 0
M  V30 2018 C 187.06 -2.37957 3.51052 0
M  V30 2019 N 187.451 -1.92158 4.67877 0
M  V30 2020 C 185.749 -2.68739 3.55943 0
M  V30 2021 C 186.45 -1.8943 5.49992 0
M  V30 2022 N 185.426 -2.32375 4.91429 0
M  V30 2023 H 189.228 -0.836746 2.81737 0
M  V30 2024 H 186.742 -0.365012 1.58245 0
M  V30 2025 H 188.739 -3.28811 2.56299 0
M  V30 2026 H 187.399 -2.905 1.45051 0
M  V30 2027 H 188.41 -1.62274 4.91821 0
M  V30 2028 H 185.087 -3.09687 2.80001 0
M  V30 2029 H 186.477 -1.55596 6.53636 0
M  V30 2030 N 189.197 -1.51736 -0.425897 0
M  V30 2031 C 190.613 -1.40166 -0.76326 0
M  V30 2032 C 190.813 -0.492962 -1.95377 0
M  V30 2033 O 189.869 0.0475815 -2.52455 0
M  V30 2034 C 191.182 -2.82403 -1.03291 0
M  V30 2035 C 192.73 -2.91632 -1.13665 0
M  V30 2036 C 193.205 -4.34801 -1.43916 0
M  V30 2037 N 194.696 -4.3796 -1.50816 0
M  V30 2038 C 195.431 -5.4578 -1.75817 0
M  V30 2039 N 194.927 -6.63744 -1.98534 0
M  V30 2040 N 196.72 -5.33274 -1.77694 0
M  V30 2041 H 188.871 -2.09361 0.358 0
M  V30 2042 H 191.134 -0.942941 0.0978094 0
M  V30 2043 H 190.84 -3.50943 -0.230696 0
M  V30 2044 H 190.714 -3.22428 -1.95754 0
M  V30 2045 H 193.101 -2.23284 -1.92947 0
M  V30 2046 H 193.182 -2.55088 -0.190756 0
M  V30 2047 H 192.826 -5.03703 -0.65157 0
M  V30 2048 H 192.756 -4.68868 -2.39729 0
M  V30 2049 H 195.247 -3.52919 -1.35118 0
M  V30 2050 H 195.56 -7.41704 -2.17013 0
M  V30 2051 H 193.905 -6.66839 -1.95832 0
M  V30 2052 H 197.096 -4.40098 -1.59473 0
M  V30 2053 H 197.269 -6.1738 -1.9684 0
M  V30 2054 N 190.675 0.682077 -1.42076 0
M  V30 2055 C 192.086 1.26246 -1.37546 0
M  V30 2056 C 192.437 1.96092 -0.0651481 0
M  V30 2057 O 191.562 1.99587 0.836297 0
M  V30 2058 C 192.157 2.29594 -2.49143 0
M  V30 2059 C 190.716 2.83175 -2.47969 0
M  V30 2060 C 189.863 1.57395 -2.28303 0
M  V30 2061 H 192.814 0.475937 -1.51395 0
M  V30 2062 H 192.835 3.11175 -2.18976 0
M  V30 2063 H 192.347 1.78729 -3.44496 0
M  V30 2064 H 190.448 3.3818 -1.56413 0
M  V30 2065 H 190.561 3.32687 -3.44755 0
M  V30 2066 H 188.925 1.83699 -1.76428 0
M  V30 2067 H 189.708 1.08507 -3.25701 0
M  V30 2068 N 192.153 1.28127 0.917671 0
M  V30 2069 C 193.43 1.05761 1.64542 0
M  V30 2070 C 193.81 -0.404344 2.07191 0
M  V30 2071 O 193.158 -1.38963 1.81388 0
M  V30 2072 C 193.368 2.02857 2.83989 0
M  V30 2073 C 194.716 2.32786 3.551 0
M  V30 2074 O 195.74 2.0091 2.94132 0
M  V30 2075 O 194.599 2.87169 4.64969 0
M  V30 2076 H 191.693 0.403916 0.721652 0
M  V30 2077 H 194.239 1.39431 0.967322 0
M  V30 2078 H 193.011 3.01407 2.49538 0
M  V30 2079 H 192.634 1.69809 3.59514 0
M  V30 2080 N 193.631 -1.12557 1.10312 0
M  V30 2081 C 195.042 -1.65574 0.862678 0
M  V30 2082 C 195.393 -1.86566 -0.607256 0
M  V30 2083 O 194.518 -1.59121 -1.46662 0
M  V30 2084 C 195.113 -3.00776 1.55947 0
M  V30 2085 C 193.672 -3.50748 1.36576 0
M  V30 2086 C 192.819 -2.25797 1.60968 0
M  V30 2087 H 195.77 -0.963552 1.26101 0
M  V30 2088 H 195.791 -3.67185 0.997753 0
M  V30 2089 H 195.303 -2.85465 2.62928 0
M  V30 2090 H 193.404 -3.71245 0.317531 0
M  V30 2091 H 193.517 -4.30289 2.10686 0
M  V30 2092 H 191.881 -2.32841 1.03234 0
M  V30 2093 H 192.664 -2.13043 2.69198 0
M  V30 2094 N 195.109 -0.891671 -1.2995 0
M  V30 2095 C 196.039 -0.379797 -2.30391 0
M  V30 2096 C 197.02 0.540919 -1.6127 0
M  V30 2097 O 198.205 0.453352 -1.88834 0
M  V30 2098 C 195.335 0.400654 -3.44981 0
M  V30 2099 C 194.289 -0.428905 -4.25846 0
M  V30 2100 C 193.615 0.478557 -5.32554 0
M  V30 2101 C 194.915 -1.67458 -4.94727 0
M  V30 2102 H 196.609 -1.21914 -2.73454 0
M  V30 2103 H 194.155 -0.587675 -1.31462 0
M  V30 2104 H 196.108 0.769434 -4.14316 0
M  V30 2105 H 194.832 1.27371 -3.0074 0
M  V30 2106 H 193.491 -0.779911 -3.58208 0
M  V30 2107 H 193.139 1.34951 -4.84559 0
M  V30 2108 H 192.839 -0.0727433 -5.87555 0
M  V30 2109 H 194.363 0.843705 -6.04743 0
M  V30 2110 H 195.777 -1.376 -5.56542 0
M  V30 2111 H 194.174 -2.16659 -5.59624 0
M  V30 2112 H 195.244 -2.41518 -4.20473 0
M  V30 2113 N 196.587 1.43421 -0.653314 0
M  V30 2114 C 197.52 2.2803 0.0879804 0
M  V30 2115 C 198.498 1.39833 0.82979 0
M  V30 2116 O 199.682 1.69275 0.829341 0
M  V30 2117 C 196.809 3.19247 1.13132 0
M  V30 2118 C 195.855 4.23704 0.487546 0
M  V30 2119 S 196.688 5.30377 -0.738961 0
M  V30 2120 C 197.844 6.25162 0.30384 0
M  V30 2121 H 198.077 2.90554 -0.629739 0
M  V30 2122 H 195.61 1.47934 -0.442156 0
M  V30 2123 H 197.568 3.72346 1.72827 0
M  V30 2124 H 196.229 2.55901 1.82136 0
M  V30 2125 H 195.422 4.87631 1.27407 0
M  V30 2126 H 195.024 3.73983 -0.0352915 0
M  V30 2127 H 197.316 6.67321 1.17 0
M  V30 2128 H 198.259 7.07463 -0.300402 0
M  V30 2129 H 198.667 5.60864 0.63969 0
M  V30 2130 N 198.065 0.39524 1.52563 0
M  V30 2131 C 199.342 -0.242908 1.94086 0
M  V30 2132 C 199.722 -1.63841 1.33114 0
M  V30 2133 O 199.07 -2.22928 0.501529 0
M  V30 2134 C 199.28 -0.26327 3.48006 0
M  V30 2135 C 200.628 -0.489354 4.21771 0
M  V30 2136 O 201.652 -0.343226 3.54543 0
M  V30 2137 O 200.511 -0.776169 5.4096 0
M  V30 2138 H 197.605 -0.152536 0.812811 0
M  V30 2139 H 200.151 0.450178 1.6362 0
M  V30 2140 H 198.923 0.713985 3.84731 0
M  V30 2141 H 198.546 -1.00103 3.84792 0
M  V30 2142 N 199.544 -1.57102 0.125237 0
M  V30 2143 C 200.507 -2.14471 -0.80838 0
M  V30 2144 C 201.507 -1.0811 -1.19033 0
M  V30 2145 O 202.697 -1.33856 -1.11482 0
M  V30 2146 C 199.829 -2.69005 -2.09402 0
M  V30 2147 H 201.022 -2.98297 -0.309696 0
M  V30 2148 H 198.575 -1.55807 -0.124051 0
M  V30 2149 H 199.31 -1.88785 -2.63687 0
M  V30 2150 H 199.095 -3.46799 -1.82957 0
M  V30 2151 H 200.585 -3.13278 -2.76128 0
M  V30 2152 N 201.022 0.148545 -1.56898 0
M  V30 2153 C 202.299 0.890019 -1.74178 0
M  V30 2154 C 202.679 1.99407 -0.692839 0
M  V30 2155 O 202.027 2.26671 0.288505 0
M  V30 2156 C 202.237 1.43389 -3.18183 0
M  V30 2157 C 203.585 1.89791 -3.79822 0
M  V30 2158 O 204.609 1.53134 -3.21603 0
M  V30 2159 O 203.468 2.57387 -4.82093 0
M  V30 2160 H 200.562 0.420496 -0.712118 0
M  V30 2161 H 203.108 0.134591 -1.69165 0
M  V30 2162 H 201.88 0.640383 -3.86024 0
M  V30 2163 H 201.503 2.25287 -3.27615 0
M  V30 2164 N 202.5 1.5196 0.417844 0
M  V30 2165 C 203.41 1.77554 1.53336 0
M  V30 2166 C 204.426 0.660655 1.6097 0
M  V30 2167 O 205.602 0.945099 1.77848 0
M  V30 2168 C 202.667 1.91291 2.89152 0
M  V30 2169 C 201.728 3.15183 2.91475 0
M  V30 2170 C 200.961 3.28256 4.20813 0
M  V30 2171 O 201.184 2.46798 5.14244 0
M  V30 2172 O 200.118 4.21356 4.29817 0
M  V30 2173 H 203.944 2.7222 1.34647 0
M  V30 2174 H 201.529 1.36698 0.602828 0
M  V30 2175 H 203.411 2.02199 3.69721 0
M  V30 2176 H 202.086 0.998129 3.07927 0
M  V30 2177 H 200.993 3.09739 2.09791 0
M  V30 2178 H 202.326 4.06414 2.77648 0
M  V30 2179 N 203.978 -0.674533 1.42435 0
M  V30 2180 C 205.224 -1.43671 1.43131 0
M  V30 2181 C 205.557 -1.94142 0.0476021 0
M  V30 2182 O 204.832 -1.70924 -0.928188 0
M  V30 2183 C 205.115 -2.63355 2.45594 0
M  V30 2184 C 204.968 -2.18514 3.93156 0
M  V30 2185 C 206.287 -3.65571 2.45043 0
M  V30 2186 H 203.406 -0.521077 0.521198 0
M  V30 2187 H 206.048 -0.766551 1.7385 0
M  V30 2188 H 204.198 -3.2053 2.19528 0
M  V30 2189 H 205.87 -1.66504 4.30202 0
M  V30 2190 H 204.113 -1.50086 4.07009 0
M  V30 2191 H 204.784 -3.04484 4.60428 0
M  V30 2192 H 207.26 -3.18113 2.68223 0
M  V30 2193 H 206.136 -4.46893 3.18713 0
M  V30 2194 H 206.397 -4.16716 1.47649 0
M  V30 2195 N 205.456 -1.28612 -0.910864 0
M  V30 2196 C 206.419 -1.12803 -1.9952 0
M  V30 2197 C 207.419 -0.0668264 -1.60661 0
M  V30 2198 O 208.609 -0.312847 -1.71368 0
M  V30 2199 C 205.741 -0.72254 -3.33155 0
M  V30 2200 H 206.934 -2.09109 -2.14973 0
M  V30 2201 H 204.487 -1.11639 -1.09391 0
M  V30 2202 H 205.222 0.241152 -3.23402 0
M  V30 2203 H 205.007 -1.48916 -3.62721 0
M  V30 2204 H 206.497 -0.634666 -4.12749 0
M  V30 2205 N 206.934 1.1197 -1.10907 0
M  V30 2206 C 208.211 1.79959 -0.766432 0
M  V30 2207 C 208.591 1.97466 0.746363 0
M  V30 2208 O 207.939 1.55491 1.67436 0
M  V30 2209 C 208.149 3.14009 -1.52314 0
M  V30 2210 C 209.497 3.89134 -1.69883 0
M  V30 2211 O 210.521 3.2368 -1.48692 0
M  V30 2212 O 209.38 5.06572 -2.05054 0
M  V30 2213 H 206.474 0.779208 -0.277062 0
M  V30 2214 H 209.02 1.18762 -1.21217 0
M  V30 2215 H 207.792 2.96587 -2.55249 0
M  V30 2216 H 207.415 3.82915 -1.07059 0
M  V30 2217 N 208.412 0.89855 1.29475 0
M  V30 2218 C 209.375 0.380272 2.26023 0
M  V30 2219 C 210.375 -0.484891 1.53315 0
M  V30 2220 O 211.565 -0.290108 1.71767 0
M  V30 2221 C 208.697 -0.45651 3.3783 0
M  V30 2222 H 209.89 1.23295 2.73383 0
M  V30 2223 H 207.443 0.676589 1.40897 0
M  V30 2224 H 208.178 -1.32922 2.95808 0
M  V30 2225 H 207.963 0.163393 3.91759 0
M  V30 2226 H 209.453 -0.810466 4.0966 0
M  V30 2227 N 209.89 -1.43072 0.660911 0
M  V30 2228 C 211.137 -2.01721 0.177445 0
M  V30 2229 C 211.465 -1.5218 -1.21126 0
M  V30 2230 O 210.72 -0.708659 -1.82419 0
M  V30 2231 C 211.019 -3.57103 0.145563 0
M  V30 2232 C 210.685 -4.26021 1.47705 0
M  V30 2233 C 209.347 -4.44563 1.84165 0
M  V30 2234 C 211.699 -4.64983 2.35458 0
M  V30 2235 C 209.027 -4.99334 3.0803 0
M  V30 2236 C 211.379 -5.21127 3.58622 0
M  V30 2237 C 210.043 -5.37884 3.95268 0
M  V30 2238 H 209.313 -0.73815 0.0649317 0
M  V30 2239 H 211.96 -1.71446 0.853144 0
M  V30 2240 H 210.265 -3.86965 -0.61361 0
M  V30 2241 H 211.962 -4.00248 -0.2455 0
M  V30 2242 H 208.552 -4.11939 1.18339 0
M  V30 2243 H 212.736 -4.50343 2.08579 0
M  V30 2244 H 207.992 -5.10493 3.36462 0
M  V30 2245 H 212.166 -5.50262 4.26831 0
M  V30 2246 H 209.793 -5.80089 4.91325 0
M  V30 2247 N 211.368 -0.403325 -1.52352 0
M  V30 2248 C 212.315 0.425011 -2.26853 0
M  V30 2249 C 213.285 1.04598 -1.29029 0
M  V30 2250 O 214.47 1.07135 -1.57882 0
M  V30 2251 C 211.61 1.53888 -3.08889 0
M  V30 2252 C 210.723 0.939396 -4.21663 0
M  V30 2253 C 209.858 2.02547 -4.91068 0
M  V30 2254 C 208.897 1.40263 -5.95813 0
M  V30 2255 N 208.034 2.4286 -6.58759 0
M  V30 2256 H 212.874 -0.21674 -2.97211 0
M  V30 2257 H 210.411 -0.118722 -1.4662 0
M  V30 2258 H 212.369 2.19558 -3.54753 0
M  V30 2259 H 210.999 2.15074 -2.40714 0
M  V30 2260 H 210.051 0.171898 -3.80011 0
M  V30 2261 H 211.363 0.44436 -4.96817 0
M  V30 2262 H 210.517 2.75958 -5.40308 0
M  V30 2263 H 209.256 2.55415 -4.15469 0
M  V30 2264 H 208.261 0.653833 -5.45898 0
M  V30 2265 H 209.486 0.881719 -6.73352 0
M  V30 2266 H 207.432 2.94871 -5.85992 0
M  V30 2267 H 207.349 1.98152 -7.2957 0
M  V30 2268 H 208.617 3.15858 -7.12639 0
M  V30 2269 N 212.846 1.57033 -0.133567 0
M  V30 2270 C 213.796 2.12641 0.822671 0
M  V30 2271 C 214.78 1.05081 1.21847 0
M  V30 2272 O 215.972 1.31287 1.18713 0
M  V30 2273 C 213.101 2.74094 2.06706 0
M  V30 2274 C 212.187 3.88757 1.69497 0
M  V30 2275 N 212.578 4.95194 1.03037 0
M  V30 2276 C 210.876 3.99213 1.98859 0
M  V30 2277 C 211.577 5.75414 0.852873 0
M  V30 2278 N 210.553 5.25726 1.3825 0
M  V30 2279 H 214.355 2.92308 0.305537 0
M  V30 2280 H 211.869 1.62256 0.0684276 0
M  V30 2281 H 213.866 3.12285 2.76195 0
M  V30 2282 H 212.526 1.95896 2.5895 0
M  V30 2283 H 213.537 5.13247 0.692669 0
M  V30 2284 H 210.214 3.32075 2.53047 0
M  V30 2285 H 211.604 6.71089 0.330091 0
M  V30 2286 N 214.325 -0.140222 1.56975 0
M  V30 2287 C 215.255 -1.17456 2.01808 0
M  V30 2288 C 216.236 -1.44415 0.898794 0
M  V30 2289 O 217.421 -1.5522 1.16707 0
M  V30 2290 C 214.551 -2.50607 2.40444 0
M  V30 2291 C 213.505 -2.38155 3.55621 0
M  V30 2292 C 212.831 -3.76078 3.80091 0
M  V30 2293 C 214.131 -1.85991 4.88062 0
M  V30 2294 H 215.825 -0.801743 2.88466 0
M  V30 2295 H 213.371 -0.38422 1.38779 0
M  V30 2296 H 215.324 -3.23197 2.7041 0
M  V30 2297 H 214.048 -2.89737 1.50732 0
M  V30 2298 H 212.707 -1.68016 3.25832 0
M  V30 2299 H 212.355 -4.12656 2.87618 0
M  V30 2300 H 212.055 -3.68606 4.57606 0
M  V30 2301 H 213.579 -4.50206 4.12488 0
M  V30 2302 H 214.993 -2.4838 5.16701 0
M  V30 2303 H 213.39 -1.89393 5.6943 0
M  V30 2304 H 214.46 -0.816023 4.77984 0
M  V30 2305 N 215.803 -1.52179 -0.40978 0
M  V30 2306 C 216.753 -1.71857 -1.49831 0
M  V30 2307 C 217.737 -0.572469 -1.50372 0
M  V30 2308 O 218.929 -0.829509 -1.56359 0
M  V30 2309 C 216.058 -1.87206 -2.87765 0
M  V30 2310 C 215.144 -3.07685 -2.91875 0
M  V30 2311 N 215.535 -4.30403 -2.65683 0
M  V30 2312 C 213.833 -3.07505 -3.23043 0
M  V30 2313 C 214.534 -5.11868 -2.76344 0
M  V30 2314 N 213.51 -4.47101 -3.09195 0
M  V30 2315 H 217.312 -2.64381 -1.28375 0
M  V30 2316 H 214.826 -1.50203 -0.617479 0
M  V30 2317 H 216.823 -1.99419 -3.66111 0
M  V30 2318 H 215.483 -0.958814 -3.10221 0
M  V30 2319 H 216.494 -4.58887 -2.4009 0
M  V30 2320 H 213.171 -2.25915 -3.51096 0
M  V30 2321 H 214.561 -6.19634 -2.59814 0
M  V30 2322 N 217.281 0.66697 -1.42791 0
M  V30 2323 C 218.213 1.7925 -1.42836 0
M  V30 2324 C 219.226 1.59496 -0.326333 0
M  V30 2325 O 220.415 1.6847 -0.589916 0
M  V30 2326 C 217.515 3.16476 -1.21229 0
M  V30 2327 C 216.688 3.63011 -2.44013 0
M  V30 2328 C 215.747 4.78993 -2.17834 0
M  V30 2329 O 214.773 4.89137 -2.91091 0
M  V30 2330 N 215.975 5.68248 -1.18635 0
M  V30 2331 H 218.74 1.79695 -2.39854 0
M  V30 2332 H 216.301 0.850338 -1.37771 0
M  V30 2333 H 218.293 3.91734 -1.01621 0
M  V30 2334 H 216.863 3.10884 -0.32706 0
M  V30 2335 H 216.083 2.78346 -2.79137 0
M  V30 2336 H 217.371 3.90845 -3.25757 0
M  V30 2337 H 216.769 5.62712 -0.580615 0
M  V30 2338 H 215.326 6.43285 -1.05013 0
M  V30 2339 N 218.759 1.29093 0.90403 0
M  V30 2340 C 219.984 1.19809 1.69294 0
M  V30 2341 C 220.409 -0.238481 1.86582 0
M  V30 2342 O 219.767 -1.1723 1.383 0
M  V30 2343 C 219.815 1.91202 3.05736 0
M  V30 2344 O 218.919 1.22611 3.93752 0
M  V30 2345 H 218.26 0.415385 0.518027 0
M  V30 2346 H 220.79 1.70586 1.12967 0
M  V30 2347 H 220.8 1.99487 3.55906 0
M  V30 2348 H 219.475 2.95692 2.92471 0
M  V30 2349 H 218.052 1.22554 3.52186 0
M  V30 2350 N 220.237 -1.11381 1.11499 0
M  V30 2351 C 221.485 -1.8277 0.862524 0
M  V30 2352 C 221.806 -1.85097 -0.613534 0
M  V30 2353 O 221.076 -1.32198 -1.4457 0
M  V30 2354 H 219.656 -0.676823 0.316101 0
M  V30 2355 H 222.318 -1.34816 1.4075 0
M  V30 2356 H 221.414 -2.86614 1.23527 0
M  V30 2357 N 221.715 -0.905404 -1.28997 0
M  V30 2358 C 222.662 -0.385892 -2.27551 0
M  V30 2359 C 223.632 0.535113 -1.57244 0
M  V30 2360 O 224.817 0.459119 -1.85194 0
M  V30 2361 C 221.957 0.375461 -3.43051 0
M  V30 2362 C 221.07 -0.577092 -4.28128 0
M  V30 2363 C 220.205 0.201879 -5.30816 0
M  V30 2364 C 219.244 -0.744829 -6.07551 0
M  V30 2365 N 218.381 9.42587e-05 -7.021 0
M  V30 2366 H 223.221 -1.23139 -2.71368 0
M  V30 2367 H 220.758 -0.618542 -1.33463 0
M  V30 2368 H 222.716 0.832992 -4.088 0
M  V30 2369 H 221.346 1.18537 -3.00248 0
M  V30 2370 H 220.398 -1.15315 -3.62501 0
M  V30 2371 H 221.71 -1.30152 -4.8152 0
M  V30 2372 H 220.864 0.720351 -6.02408 0
M  V30 2373 H 219.603 0.959413 -4.7817 0
M  V30 2374 H 218.608 -1.27475 -5.34818 0
M  V30 2375 H 219.833 -1.50178 -6.62286 0
M  V30 2376 H 217.779 0.739791 -6.51815 0
M  V30 2377 H 217.696 -0.664321 -7.53076 0
M  V30 2378 H 218.964 0.498644 -7.77903 0
M  V30 2379 N 223.193 1.4272 -0.668489 0
M  V30 2380 C 224.439 2.01923 -0.188419 0
M  V30 2381 C 224.772 1.52704 1.19979 0
M  V30 2382 O 224.047 0.726566 1.8042 0
M  V30 2383 C 224.33 3.59451 -0.216085 0
M  V30 2384 C 224.183 4.18864 -1.6393 0
M  V30 2385 C 225.502 4.37903 0.439179 0
M  V30 2386 H 222.621 0.733674 -0.0699412 0
M  V30 2387 H 225.263 1.69822 -0.852076 0
M  V30 2388 H 223.413 3.86929 0.349012 0
M  V30 2389 H 225.085 4.02362 -2.25616 0
M  V30 2390 H 223.328 3.74933 -2.18193 0
M  V30 2391 H 223.999 5.27987 -1.61039 0
M  V30 2392 H 226.475 4.16079 -0.0417878 0
M  V30 2393 H 225.351 5.47519 0.389157 0
M  V30 2394 H 225.612 4.15303 1.51577 0
M  V30 2395 N 224.671 0.411399 1.52136 0
M  V30 2396 C 226.087 0.0623865 1.59478 0
M  V30 2397 C 226.287 -1.42554 1.4241 0
M  V30 2398 O 225.343 -2.19263 1.2522 0
M  V30 2399 C 226.656 0.559331 2.95452 0
M  V30 2400 C 228.204 0.517503 3.08692 0
M  V30 2401 C 228.679 0.990994 4.4715 0
M  V30 2402 N 230.17 0.947908 4.53397 0
M  V30 2403 C 230.905 1.28544 5.58806 0
M  V30 2404 N 230.401 1.69454 6.71757 0
M  V30 2405 N 232.194 1.20526 5.49026 0
M  V30 2406 H 224.345 1.37982 1.61477 0
M  V30 2407 H 226.608 0.566977 0.759764 0
M  V30 2408 H 226.314 1.59938 3.1323 0
M  V30 2409 H 226.188 -0.0298014 3.77188 0
M  V30 2410 H 228.575 -0.513505 2.90598 0
M  V30 2411 H 228.656 1.14272 2.28857 0
M  V30 2412 H 228.3 2.02034 4.65988 0
M  V30 2413 H 228.23 0.34257 5.25485 0
M  V30 2414 H 230.721 0.647157 3.72317 0
M  V30 2415 H 231.034 1.93513 7.48179 0
M  V30 2416 H 229.379 1.73359 6.73032 0
M  V30 2417 H 232.57 0.884505 4.59667 0
M  V30 2418 H 232.743 1.47161 6.31069 0
M  V30 2419 N 226.149 -1.5696 0.141893 0
M  V30 2420 C 227.099 -2.13074 -0.811383 0
M  V30 2421 C 228.083 -1.05726 -1.21288 0
M  V30 2422 O 229.275 -1.31914 -1.18015 0
M  V30 2423 C 226.404 -2.75186 -2.0525 0
M  V30 2424 C 225.49 -3.8965 -1.67432 0
M  V30 2425 N 225.881 -4.95733 -1.0041 0
M  V30 2426 C 224.179 -4.00262 -1.96739 0
M  V30 2427 C 224.88 -5.75858 -0.822345 0
M  V30 2428 N 223.856 -5.26452 -1.3546 0
M  V30 2429 H 227.658 -2.92465 -0.290031 0
M  V30 2430 H 225.172 -1.6229 -0.0598218 0
M  V30 2431 H 227.169 -3.13745 -2.74535 0
M  V30 2432 H 225.829 -1.97266 -2.57907 0
M  V30 2433 H 226.84 -5.13607 -0.665441 0
M  V30 2434 H 223.517 -3.33412 -2.51282 0
M  V30 2435 H 224.907 -6.71254 -0.294496 0
M  V30 2436 N 227.627 0.131896 -1.57047 0
M  V30 2437 C 228.874 0.841932 -1.84168 0
M  V30 2438 C 229.202 1.8048 -0.725066 0
M  V30 2439 O 228.457 1.93618 0.284692 0
M  V30 2440 C 228.756 1.63703 -3.17704 0
M  V30 2441 C 228.422 0.81961 -4.43388 0
M  V30 2442 C 227.084 0.594148 -4.77518 0
M  V30 2443 C 229.436 0.248977 -5.20605 0
M  V30 2444 C 226.764 -0.212409 -5.86315 0
M  V30 2445 C 229.116 -0.544701 -6.30251 0
M  V30 2446 C 227.78 -0.780599 -6.6292 0
M  V30 2447 H 227.05 0.308085 -0.673917 0
M  V30 2448 H 229.697 0.104867 -1.91213 0
M  V30 2449 H 228.002 2.44464 -3.06177 0
M  V30 2450 H 229.699 2.19015 -3.35907 0
M  V30 2451 H 226.289 1.00542 -4.16641 0
M  V30 2452 H 230.473 0.410408 -4.946 0
M  V30 2453 H 225.729 -0.404524 -6.1006 0
M  V30 2454 H 229.903 -0.993922 -6.89271 0
M  V30 2455 H 227.53 -1.40742 -7.47058 0
M  V30 2456 N 229.106 1.52395 0.401703 0
M  V30 2457 C 230.354 1.66488 1.14569 0
M  V30 2458 C 230.675 0.400897 1.90835 0
M  V30 2459 O 229.945 -0.584415 1.8698 0
M  V30 2460 H 228.525 0.613672 0.425929 0
M  V30 2461 H 231.187 1.89464 0.457093 0
M  V30 2462 H 230.283 2.50942 1.85566 0
M  V30 2463 N 230.584 -0.659388 1.43143 0
M  V30 2464 C 231.83 -1.42145 1.44647 0
M  V30 2465 C 232.163 -1.9408 0.0681907 0
M  V30 2466 O 231.438 -1.71899 -0.910007 0
M  V30 2467 C 231.721 -2.60735 2.48373 0
M  V30 2468 C 231.574 -2.14332 3.95451 0
M  V30 2469 C 232.893 -3.62951 2.48906 0
M  V30 2470 H 230.012 -0.51552 0.526696 0
M  V30 2471 H 232.654 -0.748069 1.74654 0
M  V30 2472 H 230.804 -3.18184 2.22916 0
M  V30 2473 H 232.476 -1.61932 4.31944 0
M  V30 2474 H 230.719 -1.4576 4.08578 0
M  V30 2475 H 231.39 -2.99583 4.63631 0
M  V30 2476 H 233.866 -3.1525 2.71582 0
M  V30 2477 H 232.742 -4.43487 3.23435 0
M  V30 2478 H 233.003 -4.15126 1.52061 0
M  V30 2479 N 232.062 -1.29571 -0.897171 0
M  V30 2480 C 233.287 -1.20705 -1.68656 0
M  V30 2481 C 233.712 0.228582 -1.86706 0
M  V30 2482 O 233.07 1.16494 -1.3892 0
M  V30 2483 C 233.118 -1.9282 -3.04717 0
M  V30 2484 O 232.222 -1.24697 -3.93096 0
M  V30 2485 H 231.563 -0.418126 -0.515816 0
M  V30 2486 H 234.093 -1.71183 -1.12061 0
M  V30 2487 H 234.103 -2.01372 -3.54843 0
M  V30 2488 H 232.778 -2.97239 -2.90899 0
M  V30 2489 H 231.355 -1.2442 -3.51531 0
M  V30 2490 N 233.54 1.10788 -1.12088 0
M  V30 2491 C 234.488 2.19111 -0.780587 0
M  V30 2492 C 235.482 1.67818 0.230961 0
M  V30 2493 O 236.688 1.79777 0.0895427 0
M  V30 2494 H 233.063 0.714477 -0.234578 0
M  V30 2495 H 235.034 2.45055 -1.70266 0
M  V30 2496 C 233.783 3.46818 -0.24747 0
M  V30 2497 H 233.106 3.86646 -1.01712 0
M  V30 2498 H 234.546 4.23973 -0.0476291 0
M  V30 2499 C 233.005 3.20968 1.02378 0
M  V30 2500 O 233.535 3.42298 2.10226 0
M  V30 2501 N 231.741 2.74658 0.949271 0
M  V30 2502 H 231.288 2.57501 0.0715173 0
M  V30 2503 H 231.246 2.57739 1.80049 0
M  V30 2504 N 235.018 0.912232 1.28515 0
M  V30 2505 C 236.265 0.544599 1.95039 0
M  V30 2506 C 236.593 -0.911435 1.71823 0
M  V30 2507 O 235.848 -1.66317 1.03137 0
M  V30 2508 C 236.147 0.798392 3.48368 0
M  V30 2509 C 235.813 2.23374 3.91682 0
M  V30 2510 C 234.475 2.62617 4.03219 0
M  V30 2511 C 236.827 3.16786 4.13879 0
M  V30 2512 C 234.155 3.94429 4.3433 0
M  V30 2513 C 236.507 4.48161 4.46469 0
M  V30 2514 C 235.171 4.8726 4.56217 0
M  V30 2515 H 234.441 0.199283 0.7137 0
M  V30 2516 H 237.088 1.15327 1.52879 0
M  V30 2517 H 235.393 0.106908 3.91654 0
M  V30 2518 H 237.09 0.493141 3.97956 0
M  V30 2519 H 233.68 1.91922 3.83228 0
M  V30 2520 H 237.864 2.87677 4.0442 0
M  V30 2521 H 233.12 4.24426 4.40082 0
M  V30 2522 H 237.294 5.20559 4.62592 0
M  V30 2523 H 234.921 5.89431 4.80078 0
M  V30 2524 N 236.496 -1.42363 0.676048 0
M  V30 2525 C 237.724 -2.05859 0.207268 0
M  V30 2526 C 238.139 -1.50796 -1.13605 0
M  V30 2527 O 237.496 -0.648265 -1.70598 0
M  V30 2528 C 237.547 -3.61248 0.134975 0
M  V30 2529 O 237.268 -4.1427 1.42521 0
M  V30 2530 C 238.769 -4.41859 -0.357151 0
M  V30 2531 H 235.989 -0.663431 0.100503 0
M  V30 2532 H 238.533 -1.82479 0.923136 0
M  V30 2533 H 236.688 -3.83735 -0.531588 0
M  V30 2534 H 237.102 -5.0815 1.29939 0
M  V30 2535 H 238.576 -5.50847 -0.356641 0
M  V30 2536 H 239.053 -4.16536 -1.39264 0
M  V30 2537 H 239.659 -4.24392 0.27772 0
M  V30 2538 N 237.974 -0.419461 -1.51915 0
M  V30 2539 C 239.385 0.0477853 -1.86639 0
M  V30 2540 C 239.736 1.43531 -1.33766 0
M  V30 2541 O 238.861 2.05401 -0.68113 0
M  V30 2542 C 239.456 0.0934885 -3.38671 0
M  V30 2543 C 238.015 0.505097 -3.72996 0
M  V30 2544 C 237.162 -0.313792 -2.75519 0
M  V30 2545 H 240.113 -0.636088 -1.45395 0
M  V30 2546 H 240.134 0.906667 -3.6954 0
M  V30 2547 H 239.646 -0.916501 -3.77123 0
M  V30 2548 H 237.747 1.52135 -3.40126 0
M  V30 2549 H 237.86 0.242309 -4.78487 0
M  V30 2550 H 236.224 0.225363 -2.53701 0
M  V30 2551 H 237.007 -1.32232 -3.16812 0
M  V30 2552 N 239.452 1.56882 -0.150215 0
M  V30 2553 C 240.415 2.1573 0.774157 0
M  V30 2554 C 241.415 1.0999 1.17298 0
M  V30 2555 O 242.605 1.35613 1.09338 0
M  V30 2556 C 239.737 2.72302 2.05096 0
M  V30 2557 H 240.93 2.98752 0.262201 0
M  V30 2558 H 238.483 1.55985 0.099248 0
M  V30 2559 H 239.218 1.92956 2.6065 0
M  V30 2560 H 239.003 3.49665 1.77416 0
M  V30 2561 H 240.493 3.17632 2.71109 0
M  V30 2562 N 240.93 -0.123565 1.57115 0
M  V30 2563 C 241.862 -1.17739 1.96648 0
M  V30 2564 C 242.875 -1.37906 0.865201 0
M  V30 2565 O 244.064 -1.37062 1.14351 0
M  V30 2566 C 241.164 -2.53821 2.24562 0
M  V30 2567 C 240.337 -2.54317 3.55867 0
M  V30 2568 C 239.396 -3.72112 3.72047 0
M  V30 2569 O 238.422 -3.55907 4.44206 0
M  V30 2570 N 239.624 -4.90498 3.10471 0
M  V30 2571 H 242.389 -0.841147 2.87654 0
M  V30 2572 H 239.95 -0.31289 1.58848 0
M  V30 2573 H 241.942 -3.31175 2.32606 0
M  V30 2574 H 240.512 -2.79645 1.39705 0
M  V30 2575 H 239.732 -1.62711 3.59053 0
M  V30 2576 H 241.02 -2.51701 4.42181 0
M  V30 2577 H 240.418 -5.06567 2.51806 0
M  V30 2578 H 238.975 -5.65544 3.24043 0
M  V30 2579 N 242.408 -1.52605 -0.393616 0
M  V30 2580 C 243.655 -1.67424 -1.1391 0
M  V30 2581 C 243.983 -0.411859 -1.90089 0
M  V30 2582 O 243.238 0.605626 -1.86093 0
M  V30 2583 C 243.537 -2.85721 -2.14705 0
M  V30 2584 C 243.203 -4.23342 -1.55218 0
M  V30 2585 C 241.865 -4.60771 -1.3872 0
M  V30 2586 C 244.217 -5.09041 -1.11924 0
M  V30 2587 C 241.545 -5.81563 -0.774689 0
M  V30 2588 C 243.897 -6.30452 -0.520853 0
M  V30 2589 C 242.561 -6.66617 -0.343134 0
M  V30 2590 H 241.831 -0.612648 -0.416826 0
M  V30 2591 H 244.478 -1.8674 -0.424315 0
M  V30 2592 H 242.783 -2.60803 -2.92385 0
M  V30 2593 H 244.48 -2.94382 -2.72288 0
M  V30 2594 H 241.07 -3.93855 -1.69045 0
M  V30 2595 H 245.254 -4.80695 -1.23473 0
M  V30 2596 H 240.51 -6.08196 -0.625154 0
M  V30 2597 H 244.684 -6.96175 -0.177065 0
M  V30 2598 H 242.311 -7.60083 0.133571 0
M  V30 2599 N 243.887 0.651787 -1.4349 0
M  V30 2600 C 244.85 1.74647 -1.48429 0
M  V30 2601 C 245.85 1.56513 -0.368817 0
M  V30 2602 O 247.04 1.62385 -0.630623 0
M  V30 2603 C 244.172 3.13533 -1.33827 0
M  V30 2604 H 245.365 1.71649 -2.4592 0
M  V30 2605 H 242.918 0.863573 -1.30277 0
M  V30 2606 H 243.653 3.22142 -0.37349 0
M  V30 2607 H 243.438 3.28101 -2.14691 0
M  V30 2608 H 244.928 3.93356 -1.40218 0
M  V30 2609 N 245.365 1.30045 0.890287 0
M  V30 2610 C 246.295 1.18541 2.01172 0
M  V30 2611 C 247.276 0.0773356 1.69924 0
M  V30 2612 O 248.461 0.25845 1.92473 0
M  V30 2613 C 245.591 0.870941 3.36202 0
M  V30 2614 C 244.545 1.93637 3.81692 0
M  V30 2615 C 243.871 1.475 5.13953 0
M  V30 2616 C 245.171 3.34666 4.00994 0
M  V30 2617 H 246.865 2.12359 2.11054 0
M  V30 2618 H 244.411 1.02238 1.01407 0
M  V30 2619 H 246.364 0.777141 4.14172 0
M  V30 2620 H 245.088 -0.102926 3.26438 0
M  V30 2621 H 243.747 2.01972 3.05946 0
M  V30 2622 H 243.395 0.489551 5.00612 0
M  V30 2623 H 243.095 2.1876 5.4536 0
M  V30 2624 H 244.619 1.39489 5.94454 0
M  V30 2625 H 246.033 3.2912 4.69417 0
M  V30 2626 H 244.43 4.03966 4.43769 0
M  V30 2627 H 245.5 3.76949 3.05021 0
M  V30 2628 N 246.843 -1.10192 1.12674 0
M  V30 2629 C 247.773 -2.18652 0.819362 0
M  V30 2630 C 248.754 -1.68698 -0.217915 0
M  V30 2631 O 249.939 -1.94041 -0.0785581 0
M  V30 2632 C 247.069 -3.46202 0.27594 0
M  V30 2633 C 246.023 -4.09444 1.24656 0
M  V30 2634 C 245.349 -5.31725 0.563258 0
M  V30 2635 C 246.649 -4.52863 2.60217 0
M  V30 2636 H 248.343 -2.44622 1.72628 0
M  V30 2637 H 245.889 -1.17571 0.831451 0
M  V30 2638 H 247.842 -4.21372 0.0486149 0
M  V30 2639 H 246.566 -3.1973 -0.666331 0
M  V30 2640 H 245.225 -3.36284 1.45974 0
M  V30 2641 H 244.873 -5.0153 -0.384235 0
M  V30 2642 H 244.573 -5.74991 1.21075 0
M  V30 2643 H 246.097 -6.09624 0.34503 0
M  V30 2644 H 247.511 -5.19294 2.42913 0
M  V30 2645 H 245.908 -5.06986 3.21068 0
M  V30 2646 H 246.978 -3.65656 3.18471 0
M  V30 2647 N 248.321 -0.919034 -1.28029 0
M  V30 2648 C 249.253 -0.368762 -2.26214 0
M  V30 2649 C 250.266 0.495716 -1.55069 0
M  V30 2650 O 251.455 0.30974 -1.75792 0
M  V30 2651 C 248.555 0.491049 -3.35324 0
M  V30 2652 C 247.728 -0.352133 -4.3598 0
M  V30 2653 C 246.787 0.443622 -5.24327 0
M  V30 2654 O 245.813 -0.14566 -5.69014 0
M  V30 2655 N 247.015 1.74545 -5.53637 0
M  V30 2656 H 249.78 -1.21273 -2.74068 0
M  V30 2657 H 247.341 -0.785541 -1.41566 0
M  V30 2658 H 249.333 1.03026 -3.91366 0
M  V30 2659 H 247.903 1.23574 -2.87138 0
M  V30 2660 H 247.123 -1.07269 -3.79324 0
M  V30 2661 H 248.411 -0.928883 -5.00249 0
M  V30 2662 H 247.809 2.24666 -5.19174 0
M  V30 2663 H 246.366 2.23138 -6.12416 0
M  V30 2664 N 249.799 1.42003 -0.683588 0
M  V30 2665 C 251.024 2.06265 -0.216647 0
M  V30 2666 C 251.449 1.51059 1.12083 0
M  V30 2667 O 250.807 0.632638 1.69904 0
M  V30 2668 C 250.855 3.60191 -0.171759 0
M  V30 2669 O 249.959 4.03396 0.857069 0
M  V30 2670 H 249.3 0.65502 -0.108834 0
M  V30 2671 H 251.83 1.81982 -0.935077 0
M  V30 2672 H 251.84 4.08 0.0014303 0
M  V30 2673 H 250.515 3.99743 -1.14796 0
M  V30 2674 H 249.092 3.67117 0.654208 0
M  V30 2675 N 251.277 0.427512 1.51691 0
M  V30 2676 C 252.693 0.0792977 1.59403 0
M  V30 2677 C 252.893 -1.41035 1.43914 0
M  V30 2678 O 251.949 -2.17922 1.27539 0
M  V30 2679 C 253.262 0.590636 2.94842 0
M  V30 2680 C 254.81 0.550215 3.08126 0
M  V30 2681 C 255.285 1.03836 4.46074 0
M  V30 2682 N 256.776 0.995943 4.52366 0
M  V30 2683 C 257.511 1.34463 5.57411 0
M  V30 2684 N 257.007 1.76569 6.69922 0
M  V30 2685 N 258.8 1.26343 5.47717 0
M  V30 2686 H 250.951 1.39687 1.60004 0
M  V30 2687 H 253.214 0.575003 0.753708 0
M  V30 2688 H 252.92 1.63251 3.11516 0
M  V30 2689 H 252.794 0.0102061 3.77199 0
M  V30 2690 H 255.181 -0.482654 2.91126 0
M  V30 2691 H 255.262 1.16693 2.27632 0
M  V30 2692 H 254.906 2.06965 4.63819 0
M  V30 2693 H 254.836 0.398286 5.25092 0
M  V30 2694 H 257.327 0.68661 3.7161 0
M  V30 2695 H 257.64 2.01438 7.46085 0
M  V30 2696 H 255.985 1.80488 6.71155 0
M  V30 2697 H 259.176 0.933209 4.58703 0
M  V30 2698 H 259.349 1.53846 6.29472 0
M  V30 2699 N 252.755 -1.56801 0.158532 0
M  V30 2700 C 253.685 -2.20347 -0.772609 0
M  V30 2701 C 254.666 -1.15518 -1.24859 0
M  V30 2702 O 255.851 -1.43902 -1.30406 0
M  V30 2703 C 252.981 -2.83417 -2.00729 0
M  V30 2704 C 251.935 -3.94174 -1.66765 0
M  V30 2705 C 251.261 -4.44233 -2.97592 0
M  V30 2706 C 252.561 -5.14392 -0.905447 0
M  V30 2707 H 254.255 -2.98413 -0.242959 0
M  V30 2708 H 251.801 -1.43537 -0.115419 0
M  V30 2709 H 253.754 -3.26543 -2.6636 0
M  V30 2710 H 252.478 -2.02701 -2.56086 0
M  V30 2711 H 251.137 -3.51684 -1.03508 0
M  V30 2712 H 250.785 -3.60325 -3.50963 0
M  V30 2713 H 250.485 -5.18945 -2.75626 0
M  V30 2714 H 252.009 -4.90037 -3.64274 0
M  V30 2715 H 253.423 -5.5429 -1.46408 0
M  V30 2716 H 251.82 -5.9494 -0.7853 0
M  V30 2717 H 252.89 -4.84795 0.100668 0
M  V30 2718 N 254.233 0.115231 -1.57178 0
M  V30 2719 C 255.644 0.67197 -1.74188 0
M  V30 2720 C 255.995 1.80125 -0.777777 0
M  V30 2721 O 255.12 2.16346 0.0484376 0
M  V30 2722 C 255.715 1.22573 -3.1585 0
M  V30 2723 C 254.274 1.72872 -3.34353 0
M  V30 2724 C 253.421 0.629972 -2.70049 0
M  V30 2725 H 256.372 -0.110712 -1.58313 0
M  V30 2726 H 256.393 2.09535 -3.17609 0
M  V30 2727 H 255.905 0.403598 -3.85996 0
M  V30 2728 H 254.006 2.5755 -2.69256 0
M  V30 2729 H 254.119 1.83557 -4.42542 0
M  V30 2730 H 252.483 1.0645 -2.31388 0
M  V30 2731 H 253.266 -0.181241 -3.42821 0
M  V30 2732 N 255.711 1.52812 0.385517 0
M  V30 2733 C 256.958 1.68026 1.1302 0
M  V30 2734 C 257.286 0.421934 1.89868 0
M  V30 2735 O 256.541 -0.595749 1.86412 0
M  V30 2736 C 256.84 2.86856 2.13187 0
M  V30 2737 C 256.506 4.24159 1.5297 0
M  V30 2738 C 255.168 4.61501 1.36274 0
M  V30 2739 C 257.52 5.09627 1.09223 0
M  V30 2740 C 254.848 5.81966 0.743837 0
M  V30 2741 C 257.2 6.30719 0.487411 0
M  V30 2742 C 255.864 6.6679 0.307777 0
M  V30 2743 H 255.134 0.614849 0.413571 0
M  V30 2744 H 257.781 1.86962 0.414405 0
M  V30 2745 H 256.086 2.6235 2.90998 0
M  V30 2746 H 257.783 2.95821 2.70722 0
M  V30 2747 H 254.373 3.94746 1.66954 0
M  V30 2748 H 258.557 4.81343 1.20922 0
M  V30 2749 H 253.813 6.08519 0.592891 0
M  V30 2750 H 257.987 6.96259 0.140143 0
M  V30 2751 H 255.614 7.60001 -0.173879 0
M  V30 2752 N 257.189 -0.644168 1.43834 0
M  V30 2753 C 258.417 -1.43147 1.49387 0
M  V30 2754 C 258.832 -1.88452 0.114583 0
M  V30 2755 O 258.189 -1.60047 -0.876989 0
M  V30 2756 C 258.24 -2.66046 2.44748 0
M  V30 2757 O 257.961 -2.22633 3.77314 0
M  V30 2758 C 259.462 -3.59311 2.59635 0
M  V30 2759 H 256.682 -0.439447 0.507077 0
M  V30 2760 H 259.226 -0.78895 1.88669 0
M  V30 2761 H 257.381 -3.26418 2.08638 0
M  V30 2762 H 257.795 -3.02216 4.28679 0
M  V30 2763 H 259.269 -4.42187 3.30416 0
M  V30 2764 H 259.746 -4.07259 1.64427 0
M  V30 2765 H 260.352 -3.04816 2.96593 0
M  V30 2766 N 258.668 -1.30515 -0.883378 0
M  V30 2767 C 259.598 -1.19607 -2.00541 0
M  V30 2768 C 260.579 -0.086346 -1.69881 0
M  V30 2769 O 261.764 -0.268654 -1.92333 0
M  V30 2770 C 258.894 -0.888758 -3.35736 0
M  V30 2771 C 257.848 -1.95659 -3.8066 0
M  V30 2772 C 257.174 -1.50224 -5.13164 0
M  V30 2773 C 258.474 -3.36788 -3.99213 0
M  V30 2774 H 260.168 -2.13476 -2.09925 0
M  V30 2775 H 257.714 -1.02775 -1.00863 0
M  V30 2776 H 259.667 -0.799094 -4.13754 0
M  V30 2777 H 258.391 0.0856125 -3.26488 0
M  V30 2778 H 257.05 -2.03591 -3.04871 0
M  V30 2779 H 256.698 -0.516092 -5.00345 0
M  V30 2780 H 256.398 -2.2165 -5.44192 0
M  V30 2781 H 257.922 -1.42639 -5.93706 0
M  V30 2782 H 259.336 -3.31605 -4.67665 0
M  V30 2783 H 257.733 -4.06314 -4.41621 0
M  V30 2784 H 258.803 -3.78561 -3.03017 0
M  V30 2785 N 260.146 1.09593 -1.13257 0
M  V30 2786 C 261.109 2.14359 -0.811358 0
M  V30 2787 C 262.109 1.59808 0.178377 0
M  V30 2788 O 263.299 1.74132 -0.0484911 0
M  V30 2789 C 260.431 3.40269 -0.207276 0
M  V30 2790 H 261.624 2.44284 -1.73969 0
M  V30 2791 H 259.177 1.25102 -0.936973 0
M  V30 2792 H 259.912 3.15969 0.73036 0
M  V30 2793 H 259.697 3.81154 -0.919992 0
M  V30 2794 H 261.187 4.176 0.000667944 0
M  V30 2795 N 261.624 0.925811 1.2754 0
M  V30 2796 C 262.852 0.581509 1.9856 0
M  V30 2797 C 263.267 -0.840041 1.69082 0
M  V30 2798 O 262.624 -1.55805 0.950312 0
M  V30 2799 C 262.675 0.795589 3.52637 0
M  V30 2800 O 262.396 2.16121 3.81082 0
M  V30 2801 C 263.897 0.459744 4.4091 0
M  V30 2802 H 261.117 0.220538 0.633722 0
M  V30 2803 H 263.661 1.24232 1.6244 0
M  V30 2804 H 261.816 0.18161 3.86974 0
M  V30 2805 H 262.23 2.2098 4.75676 0
M  V30 2806 H 263.704 0.660244 5.48037 0
M  V30 2807 H 264.181 -0.604625 4.35018 0
M  V30 2808 H 264.787 1.05178 4.12089 0
M  V30 2809 N 263.102 -1.41638 0.69111 0
M  V30 2810 C 264.05 -2.32597 0.0115199 0
M  V30 2811 C 265.044 -1.5072 -0.773296 0
M  V30 2812 O 266.25 -1.66685 -0.67942 0
M  V30 2813 H 262.625 -0.751849 -0.0150746 0
M  V30 2814 H 264.596 -2.87593 0.795791 0
M  V30 2815 C 263.345 -3.35467 -0.914172 0
M  V30 2816 H 262.668 -3.9852 -0.319687 0
M  V30 2817 H 264.108 -4.01662 -1.35808 0
M  V30 2818 C 262.567 -2.69004 -2.02826 0
M  V30 2819 O 263.097 -2.53444 -3.11655 0
M  V30 2820 N 261.303 -2.2777 -1.80469 0
M  V30 2821 H 260.85 -2.40626 -0.919615 0
M  V30 2822 H 260.808 -1.83635 -2.55197 0
M  V30 2823 N 264.58 -0.43555 -1.51462 0
M  V30 2824 C 265.512 0.41257 -2.25456 0
M  V30 2825 C 266.525 0.987822 -1.29406 0
M  V30 2826 O 267.714 0.882266 -1.55172 0
M  V30 2827 C 264.814 1.58894 -2.99342 0
M  V30 2828 C 263.987 1.13288 -4.22474 0
M  V30 2829 C 263.046 2.17917 -4.78956 0
M  V30 2830 O 262.072 1.77425 -5.40841 0
M  V30 2831 N 263.274 3.50382 -4.62832 0
M  V30 2832 H 266.039 -0.221603 -2.9888 0
M  V30 2833 H 263.6 -0.264342 -1.59727 0
M  V30 2834 H 265.592 2.28508 -3.34015 0
M  V30 2835 H 264.162 2.12849 -2.28941 0
M  V30 2836 H 263.382 0.263881 -3.93316 0
M  V30 2837 H 264.67 0.805542 -5.02383 0
M  V30 2838 H 264.068 3.86013 -4.13534 0
M  V30 2839 H 262.625 4.15895 -5.01871 0
M  V30 2840 N 266.058 1.56714 -0.166846 0
M  V30 2841 C 267.304 1.97039 0.479962 0
M  V30 2842 C 267.637 1.05264 1.63197 0
M  V30 2843 O 266.912 0.0988833 1.94248 0
M  V30 2844 C 267.195 3.46867 0.967212 0
M  V30 2845 C 267.048 4.49421 -0.18466 0
M  V30 2846 C 268.367 3.9968 1.84238 0
M  V30 2847 H 265.486 0.71641 0.172992 0
M  V30 2848 H 268.128 1.8832 -0.252079 0
M  V30 2849 H 266.278 3.54428 1.59101 0
M  V30 2850 H 267.95 4.53924 -0.821621 0
M  V30 2851 H 266.193 4.25573 -0.840837 0
M  V30 2852 H 266.864 5.51644 0.198317 0
M  V30 2853 H 269.34 3.94723 1.31655 0
M  V30 2854 H 268.216 5.04941 2.15234 0
M  V30 2855 H 268.477 3.43226 2.78654 0
M  V30 2856 N 267.536 -0.106894 1.57237 0
M  V30 2857 C 268.446 -1.14911 2.0453 0
M  V30 2858 C 269.462 -1.44592 0.96795 0
M  V30 2859 O 270.638 -1.55468 1.2803 0
M  V30 2860 C 267.703 -2.45272 2.45036 0
M  V30 2861 C 266.764 -2.22879 3.66911 0
M  V30 2862 C 265.997 -3.47024 4.05475 0
M  V30 2863 O 266.22 -4.54804 3.44252 0
M  V30 2864 O 265.154 -3.3731 4.98504 0
M  V30 2865 H 268.98 -0.777461 2.9358 0
M  V30 2866 H 266.565 -0.318563 1.45964 0
M  V30 2867 H 268.447 -3.22055 2.71769 0
M  V30 2868 H 267.122 -2.81886 1.59129 0
M  V30 2869 H 266.029 -1.43915 3.45311 0
M  V30 2870 H 267.362 -1.91163 4.53561 0
M  V30 2871 N 269.014 -1.53014 -0.377408 0
M  V30 2872 C 270.263 -1.67845 -1.11853 0
M  V30 2873 C 270.576 -0.430625 -1.90801 0
M  V30 2874 O 271.782 -0.459261 -2.67587 0
M  V30 2875 C 270.238 -2.96668 -2.03756 0
M  V30 2876 C 269.846 -4.28671 -1.30175 0
M  V30 2877 C 271.59 -3.20865 -2.77932 0
M  V30 2878 C 269.497 -5.48591 -2.20911 0
M  V30 2879 H 268.427 -0.625343 -0.421263 0
M  V30 2880 H 271.078 -1.79514 -0.380409 0
M  V30 2881 H 269.46 -2.78773 -2.8125 0
M  V30 2882 H 270.634 -4.57157 -0.578259 0
M  V30 2883 H 268.949 -4.10825 -0.679108 0
M  V30 2884 H 271.546 -4.07642 -3.46024 0
M  V30 2885 H 271.889 -2.36424 -3.4265 0
M  V30 2886 H 272.422 -3.39379 -2.07525 0
M  V30 2887 H 269.161 -6.35474 -1.6079 0
M  V30 2888 H 268.681 -5.244 -2.91144 0
M  V30 2889 H 270.36 -5.8292 -2.80736 0
M  V30 2890 N 270.492 0.636531 -1.44174 0
M  V30 2891 C 271.717 1.42847 -1.50364 0
M  V30 2892 C 272.142 1.87665 -0.127867 0
M  V30 2893 O 271.5 1.58408 0.88185 0
M  V30 2894 C 271.548 2.62854 -2.4686 0
M  V30 2895 O 270.652 3.62501 -1.9664 0
M  V30 2896 H 269.993 0.427642 -0.507955 0
M  V30 2897 H 272.523 0.777422 -1.89255 0
M  V30 2898 H 272.533 3.10465 -2.64718 0
M  V30 2899 H 271.208 2.29578 -3.46795 0
M  V30 2900 H 269.785 3.21735 -1.88523 0
M  V30 2901 N 271.97 1.30982 0.876444 0
M  V30 2902 C 273.381 1.18277 1.44456 0
M  V30 2903 C 273.732 -0.213265 1.95037 0
M  V30 2904 O 272.857 -1.11057 1.85729 0
M  V30 2905 C 273.452 2.1411 2.62569 0
M  V30 2906 C 272.011 2.05358 3.15444 0
M  V30 2907 C 271.158 2.03706 1.88146 0
M  V30 2908 H 274.109 1.43127 0.685584 0
M  V30 2909 H 274.13 1.72692 3.39054 0
M  V30 2910 H 273.642 3.15706 2.25724 0
M  V30 2911 H 271.743 1.06934 3.56926 0
M  V30 2912 H 271.856 2.94156 3.78166 0
M  V30 2913 H 270.22 1.48629 2.06837 0
M  V30 2914 H 271.003 3.07047 1.53547 0
M  V30 2915 N 273.449 -1.08991 1.13837 0
M  V30 2916 C 274.695 -1.81526 0.90422 0
M  V30 2917 C 275.028 -1.85706 -0.568066 0
M  V30 2918 O 274.303 -1.32855 -1.42056 0
M  V30 2919 C 274.586 -3.27447 1.49835 0
M  V30 2920 C 274.439 -3.31512 3.04006 0
M  V30 2921 C 275.758 -4.24256 1.17025 0
M  V30 2922 H 272.877 -0.659029 0.329923 0
M  V30 2923 H 275.519 -1.27644 1.40737 0
M  V30 2924 H 273.669 -3.73462 1.07044 0
M  V30 2925 H 275.341 -2.93867 3.55584 0
M  V30 2926 H 273.584 -2.70963 3.38765 0
M  V30 2927 H 274.255 -4.34329 3.40679 0
M  V30 2928 H 276.731 -3.86549 1.54009 0
M  V30 2929 H 275.607 -5.24684 1.61237 0
M  V30 2930 H 275.868 -4.42019 0.0846274 0
M  V30 2931 N 274.927 -0.932562 -1.27047 0
M  V30 2932 C 275.877 -0.406392 -2.24349 0
M  V30 2933 C 276.861 0.492066 -1.53191 0
M  V30 2934 O 278.053 0.328717 -1.73921 0
M  V30 2935 C 275.182 0.335214 -3.41659 0
M  V30 2936 C 274.268 -0.58004 -4.20115 0
M  V30 2937 N 274.659 -1.70203 -4.76303 0
M  V30 2938 C 272.957 -0.383974 -4.44344 0
M  V30 2939 C 273.658 -2.27167 -5.35509 0
M  V30 2940 N 272.634 -1.56068 -5.20715 0
M  V30 2941 H 276.436 -1.26299 -2.65378 0
M  V30 2942 H 273.95 -0.787408 -1.42034 0
M  V30 2943 H 275.947 0.729142 -4.10474 0
M  V30 2944 H 274.607 1.18868 -3.0216 0
M  V30 2945 H 275.618 -2.08433 -4.74106 0
M  V30 2946 H 272.295 0.428436 -4.15296 0
M  V30 2947 H 273.685 -3.21654 -5.89905 0
M  V30 2948 N 276.405 1.4127 -0.698611 0
M  V30 2949 C 277.337 2.292 0.00399731 0
M  V30 2950 C 278.35 1.44944 0.741279 0
M  V30 2951 O 279.539 1.68416 0.591477 0
M  V30 2952 C 276.639 3.22875 1.02979 0
M  V30 2953 C 275.812 4.35904 0.36151 0
M  V30 2954 C 274.871 5.10134 1.29033 0
M  V30 2955 O 273.897 5.63809 0.781562 0
M  V30 2956 N 275.099 5.17885 2.6225 0
M  V30 2957 H 277.864 2.9014 -0.750921 0
M  V30 2958 H 275.425 1.52455 -0.544882 0
M  V30 2959 H 277.417 3.69404 1.65296 0
M  V30 2960 H 275.987 2.63221 1.68622 0
M  V30 2961 H 275.207 3.91719 -0.441584 0
M  V30 2962 H 276.495 5.08696 -0.103055 0
M  V30 2963 H 275.893 4.7573 3.061 0
M  V30 2964 H 274.45 5.6798 3.19754 0
M  V30 2965 N 277.883 0.443576 1.51229 0
M  V30 2966 C 279.294 -0.0180867 1.86691 0
M  V30 2967 C 279.645 -1.41384 1.36033 0
M  V30 2968 O 278.77 -2.04291 0.713722 0
M  V30 2969 C 279.365 -0.039597 3.38777 0
M  V30 2970 C 277.924 -0.445692 3.73752 0
M  V30 2971 C 277.071 0.357584 2.74985 0
M  V30 2972 H 280.022 0.659138 1.44364 0
M  V30 2973 H 280.043 -0.847761 3.70936 0
M  V30 2974 H 279.555 0.976382 3.75617 0
M  V30 2975 H 277.656 -1.46704 3.42503 0
M  V30 2976 H 277.769 -0.166155 4.78812 0
M  V30 2977 H 276.133 -0.184973 2.54027 0
M  V30 2978 H 276.916 1.37256 3.14668 0
M  V30 2979 N 279.361 -1.56624 0.175154 0
M  V30 2980 C 280.291 -2.21155 -0.749195 0
M  V30 2981 C 281.272 -1.16836 -1.23626 0
M  V30 2982 O 282.457 -1.45277 -1.28873 0
M  V30 2983 C 279.587 -2.8553 -1.97711 0
M  V30 2984 C 278.541 -3.95921 -1.62575 0
M  V30 2985 C 277.867 -4.47365 -2.92864 0
M  V30 2986 C 279.167 -5.15323 -0.850838 0
M  V30 2987 H 280.861 -2.98653 -0.211295 0
M  V30 2988 H 278.407 -1.43651 -0.100188 0
M  V30 2989 H 280.36 -3.2935 -2.62881 0
M  V30 2990 H 279.084 -2.05406 -2.53921 0
M  V30 2991 H 277.743 -3.52762 -0.997719 0
M  V30 2992 H 277.391 -3.64027 -3.47122 0
M  V30 2993 H 277.091 -5.21839 -2.70106 0
M  V30 2994 H 278.615 -4.93873 -3.59056 0
M  V30 2995 H 280.029 -5.55812 -1.40521 0
M  V30 2996 H 278.426 -5.95739 -0.722154 0
M  V30 2997 H 279.496 -4.84661 0.152082 0
M  V30 2998 N 280.839 0.0985539 -1.57292 0
M  V30 2999 C 281.769 1.12064 -2.04851 0
M  V30 3000 C 282.75 1.41981 -0.936767 0
M  V30 3001 O 283.935 1.52071 -1.20781 0
M  V30 3002 C 281.065 2.44144 -2.47004 0
M  V30 3003 C 280.019 2.28643 -3.6181 0
M  V30 3004 C 279.345 3.65869 -3.89929 0
M  V30 3005 C 280.645 1.72986 -4.92822 0
M  V30 3006 H 282.339 0.724979 -2.9049 0
M  V30 3007 H 279.885 0.34729 -1.39749 0
M  V30 3008 H 281.838 3.15914 -2.78884 0
M  V30 3009 H 280.562 2.85639 -1.5836 0
M  V30 3010 H 279.221 1.59318 -3.30172 0
M  V30 3011 H 278.869 4.04885 -2.98458 0
M  V30 3012 H 278.569 3.56344 -4.67218 0
M  V30 3013 H 280.093 4.39112 -4.2428 0
M  V30 3014 H 281.507 2.34593 -5.23105 0
M  V30 3015 H 279.904 1.74229 -5.74251 0
M  V30 3016 H 280.974 0.689007 -4.7998 0
M  V30 3017 N 282.317 1.53212 0.369288 0
M  V30 3018 C 283.247 1.82365 1.45826 0
M  V30 3019 C 284.228 0.676907 1.56051 0
M  V30 3020 O 285.413 0.926401 1.70679 0
M  V30 3021 C 282.543 2.01023 2.83208 0
M  V30 3022 C 281.497 3.1678 2.8781 0
M  V30 3023 C 280.823 3.20724 4.27832 0
M  V30 3024 C 282.123 4.55447 2.55667 0
M  V30 3025 H 283.817 2.73559 1.21678 0
M  V30 3026 H 281.363 1.3163 0.583911 0
M  V30 3027 H 283.316 2.20001 3.59413 0
M  V30 3028 H 282.04 1.06536 3.08736 0
M  V30 3029 H 280.699 2.97616 2.14056 0
M  V30 3030 H 280.347 2.23882 4.50429 0
M  V30 3031 H 280.047 3.98496 4.31827 0
M  V30 3032 H 281.571 3.41881 5.05915 0
M  V30 3033 H 282.985 4.74611 3.21586 0
M  V30 3034 H 281.382 5.35432 2.70984 0
M  V30 3035 H 282.452 4.60812 1.5093 0
M  V30 3036 N 283.795 -0.628877 1.44509 0
M  V30 3037 C 285.072 -1.38733 1.37886 0
M  V30 3038 C 285.452 -2.11065 0.0387008 0
M  V30 3039 O 284.8 -2.06476 -0.97878 0
M  V30 3040 C 285.01 -2.35188 2.57852 0
M  V30 3041 C 286.358 -2.9845 3.02014 0
M  V30 3042 O 287.382 -2.45513 2.58073 0
M  V30 3043 O 286.241 -3.94487 3.78209 0
M  V30 3044 H 283.335 -0.621015 0.54614 0
M  V30 3045 H 285.881 -0.653744 1.56602 0
M  V30 3046 H 284.653 -1.80855 3.46998 0
M  V30 3047 H 284.276 -3.1596 2.4136 0
M  V30 3048 N 285.273 -1.31445 -0.869486 0
M  V30 3049 C 286.521 -1.20918 -1.61936 0
M  V30 3050 C 286.842 0.232683 -1.93607 0
M  V30 3051 O 286.112 1.15352 -1.58338 0
M  V30 3052 H 284.692 -0.44454 -0.600328 0
M  V30 3053 H 287.354 -1.64776 -1.0409 0
M  V30 3054 H 286.45 -1.78124 -2.56278 0
M  V30 3055 N 286.751 1.08385 -1.14413 0
M  V30 3056 C 287.979 1.84517 -0.936001 0
M  V30 3057 C 288.394 1.81626 0.515503 0
M  V30 3058 O 287.751 1.22008 1.35721 0
M  V30 3059 C 287.802 3.32049 -1.42918 0
M  V30 3060 O 287.523 3.34951 -2.82381 0
M  V30 3061 C 289.024 4.24986 -1.26103 0
M  V30 3062 H 286.244 0.582491 -0.333084 0
M  V30 3063 H 288.788 1.36885 -1.5193 0
M  V30 3064 H 286.943 3.7707 -0.888641 0
M  V30 3065 H 287.357 4.27048 -3.04517 0
M  V30 3066 H 288.831 5.26615 -1.6547 0
M  V30 3067 H 289.308 4.38726 -0.20392 0
M  V30 3068 H 289.914 3.85791 -1.79012 0
M  V30 3069 N 288.23 0.939286 1.26551 0
M  V30 3070 C 289.16 0.465044 2.28822 0
M  V30 3071 C 290.141 -0.480692 1.63167 0
M  V30 3072 O 291.326 -0.382955 1.90387 0
M  V30 3073 C 288.456 -0.27234 3.46231 0
M  V30 3074 C 287.41 0.58666 4.2396 0
M  V30 3075 C 286.736 -0.280573 5.33963 0
M  V30 3076 C 288.036 1.85704 4.88171 0
M  V30 3077 H 289.73 1.31979 2.68741 0
M  V30 3078 H 287.276 0.636061 1.29191 0
M  V30 3079 H 289.229 -0.615133 4.16886 0
M  V30 3080 H 287.953 -1.16121 3.0526 0
M  V30 3081 H 286.612 0.91232 3.55067 0
M  V30 3082 H 286.26 -1.16874 4.89234 0
M  V30 3083 H 285.96 0.29076 5.8688 0
M  V30 3084 H 287.484 -0.618678 6.07458 0
M  V30 3085 H 288.898 1.58161 5.51052 0
M  V30 3086 H 287.295 2.37279 5.51197 0
M  V30 3087 H 288.365 2.56957 4.11219 0
M  V30 3088 N 289.708 -1.40897 0.706093 0
M  V30 3089 C 290.985 -1.94868 0.169099 0
M  V30 3090 C 291.365 -1.64485 -1.32318 0
M  V30 3091 O 290.713 -0.95744 -2.07474 0
M  V30 3092 C 290.923 -3.45798 0.471654 0
M  V30 3093 C 292.271 -4.22663 0.405127 0
M  V30 3094 O 293.295 -3.53865 0.407168 0
M  V30 3095 O 292.154 -5.45216 0.374383 0
M  V30 3096 H 289.248 -0.82673 0.0211352 0
M  V30 3097 H 291.794 -1.50558 0.782976 0
M  V30 3098 H 290.566 -3.61235 1.50416 0
M  V30 3099 H 290.189 -3.97225 -0.172666 0
M  V30 3100 N 291.186 -0.45159 -1.50991 0
M  V30 3101 C 292.118 0.388634 -2.25881 0
M  V30 3102 C 293.131 0.974041 -1.30446 0
M  V30 3103 O 294.32 0.865758 -1.56099 0
M  V30 3104 C 291.42 1.5571 -3.01011 0
M  V30 3105 C 290.593 1.08801 -4.23652 0
M  V30 3106 C 289.652 2.12825 -4.8124 0
M  V30 3107 O 288.678 1.71678 -5.42693 0
M  V30 3108 N 289.88 3.45453 -4.66522 0
M  V30 3109 H 292.645 -0.25329 -2.98628 0
M  V30 3110 H 290.206 -0.281268 -1.59438 0
M  V30 3111 H 292.198 2.24952 -3.3642 0
M  V30 3112 H 290.768 2.10409 -2.31186 0
M  V30 3113 H 289.988 0.22215 -3.93574 0
M  V30 3114 H 291.276 0.752213 -5.03209 0
M  V30 3115 H 290.674 3.81605 -4.17605 0
M  V30 3116 H 289.231 4.10549 -5.06254 0
M  V30 3117 N 292.664 1.56529 -0.183458 0
M  V30 3118 C 293.594 2.21549 0.737456 0
M  V30 3119 C 294.575 1.17489 1.23005 0
M  V30 3120 O 295.76 1.45959 1.281 0
M  V30 3121 C 292.89 2.86575 1.96194 0
M  V30 3122 C 291.844 3.96778 1.60473 0
M  V30 3123 C 291.17 4.48911 2.90487 0
M  V30 3124 C 292.47 5.15767 0.823497 0
M  V30 3125 H 294.164 2.98761 0.195453 0
M  V30 3126 H 291.71 1.43702 0.0925686 0
M  V30 3127 H 293.663 3.30739 2.61131 0
M  V30 3128 H 292.387 2.06749 2.52828 0
M  V30 3129 H 291.046 3.53286 0.978997 0
M  V30 3130 H 290.694 3.65862 3.45186 0
M  V30 3131 H 290.394 5.23265 2.67335 0
M  V30 3132 H 291.918 4.95771 3.56432 0
M  V30 3133 H 293.332 5.56549 1.37571 0
M  V30 3134 H 291.729 5.96114 0.690551 0
M  V30 3135 H 292.799 4.84574 -0.177782 0
M  V30 3136 N 294.142 -0.090211 1.57342 0
M  V30 3137 C 295.074 -1.13541 1.99101 0
M  V30 3138 C 296.087 -1.3604 0.894258 0
M  V30 3139 O 297.276 -1.34606 1.17233 0
M  V30 3140 C 294.376 -2.49001 2.29895 0
M  V30 3141 C 293.549 -2.46712 3.61182 0
M  V30 3142 C 292.608 -3.64136 3.79857 0
M  V30 3143 O 291.634 -3.46405 4.51655 0
M  V30 3144 N 292.836 -4.83802 3.20806 0
M  V30 3145 H 295.601 -0.779942 2.89373 0
M  V30 3146 H 293.162 -0.279125 1.59476 0
M  V30 3147 H 295.154 -3.26166 2.39578 0
M  V30 3148 H 293.724 -2.76619 1.45605 0
M  V30 3149 H 292.944 -1.55058 3.62423 0
M  V30 3150 H 294.232 -2.42265 4.4742 0
M  V30 3151 H 293.63 -5.01112 2.62494 0
M  V30 3152 H 292.187 -5.58543 3.35966 0
M  V30 3153 N 295.62 -1.53406 -0.361157 0
M  V30 3154 C 296.552 -1.76446 -1.46286 0
M  V30 3155 C 297.565 -0.645322 -1.49464 0
M  V30 3156 O 298.754 -0.921681 -1.52864 0
M  V30 3157 C 295.854 -1.83332 -2.85031 0
M  V30 3158 C 295.027 -3.13033 -3.05498 0
M  V30 3159 C 294.086 -3.11104 -4.24383 0
M  V30 3160 O 293.112 -3.84888 -4.19344 0
M  V30 3161 N 294.314 -2.32234 -5.32022 0
M  V30 3162 H 297.079 -2.71508 -1.26899 0
M  V30 3163 H 294.64 -1.52238 -0.550915 0
M  V30 3164 H 296.632 -1.79514 -3.62708 0
M  V30 3165 H 295.202 -0.955342 -2.97644 0
M  V30 3166 H 294.422 -3.30119 -2.15442 0
M  V30 3167 H 295.71 -3.9874 -3.16044 0
M  V30 3168 H 295.108 -1.71807 -5.38979 0
M  V30 3169 H 293.665 -2.3423 -6.08259 0
M  V30 3170 N 297.098 0.621204 -1.44841 0
M  V30 3171 C 298.028 1.74366 -1.55303 0
M  V30 3172 C 299.009 1.65199 -0.405385 0
M  V30 3173 O 300.194 1.83807 -0.626787 0
M  V30 3174 C 297.324 3.12931 -1.50637 0
M  V30 3175 C 296.278 3.36896 -2.63979 0
M  V30 3176 C 295.604 4.75594 -2.44366 0
M  V30 3177 C 296.904 3.28483 -4.06074 0
M  V30 3178 H 298.598 1.65867 -2.49256 0
M  V30 3179 H 296.144 0.796558 -1.19962 0
M  V30 3180 H 298.097 3.9124 -1.56555 0
M  V30 3181 H 296.821 3.22237 -0.532057 0
M  V30 3182 H 295.48 2.60972 -2.57467 0
M  V30 3183 H 295.128 4.81616 -1.45105 0
M  V30 3184 H 294.828 4.92586 -3.20364 0
M  V30 3185 H 296.352 5.5612 -2.52117 0
M  V30 3186 H 297.766 3.96684 -4.13902 0
M  V30 3187 H 296.163 3.57008 -4.82354 0
M  V30 3188 H 297.233 2.26133 -4.28943 0
M  V30 3189 N 298.576 1.31904 0.862503 0
M  V30 3190 C 299.992 1.10724 1.14945 0
M  V30 3191 C 300.192 -0.117421 2.01158 0
M  V30 3192 O 299.248 -0.804595 2.39338 0
M  V30 3193 C 300.561 2.38267 1.83437 0
M  V30 3194 C 302.109 2.43949 1.96106 0
M  V30 3195 C 302.584 3.71394 2.68013 0
M  V30 3196 N 304.075 3.72331 2.75543 0
M  V30 3197 C 304.81 4.67641 3.31812 0
M  V30 3198 N 304.306 5.73313 3.88953 0
M  V30 3199 N 306.099 4.5515 3.29841 0
M  V30 3200 H 298.25 2.10436 0.288191 0
M  V30 3201 H 300.513 0.928705 0.190292 0
M  V30 3202 H 300.219 3.27759 1.27542 0
M  V30 3203 H 300.093 2.48633 2.83657 0
M  V30 3204 H 302.48 1.54922 2.51164 0
M  V30 3205 H 302.561 2.37543 0.949059 0
M  V30 3206 H 302.205 4.60791 2.13621 0
M  V30 3207 H 302.135 3.75069 3.69636 0
M  V30 3208 H 304.626 2.95947 2.34997 0
M  V30 3209 H 304.939 6.42107 4.30022 0
M  V30 3210 H 303.284 5.77077 3.87308 0
M  V30 3211 H 306.475 3.71766 2.84443 0
M  V30 3212 H 306.648 5.29604 3.73394 0
M  V30 3213 N 300.054 -1.07777 1.14986 0
M  V30 3214 C 301.3 -1.80557 0.923422 0
M  V30 3215 C 301.633 -1.86298 -0.548337 0
M  V30 3216 O 300.908 -1.34354 -1.40639 0
M  V30 3217 C 301.191 -3.25839 1.53299 0
M  V30 3218 C 301.044 -3.28269 3.07505 0
M  V30 3219 C 302.363 -4.22991 1.21518 0
M  V30 3220 H 299.482 -0.655493 0.336894 0
M  V30 3221 H 302.124 -1.26144 1.42083 0
M  V30 3222 H 300.274 -3.72306 1.10999 0
M  V30 3223 H 301.946 -2.90079 3.58681 0
M  V30 3224 H 300.189 -2.67355 3.4162 0
M  V30 3225 H 300.86 -4.30691 3.45266 0
M  V30 3226 H 303.336 -3.84894 1.581 0
M  V30 3227 H 302.212 -5.22945 1.66793 0
M  V30 3228 H 302.473 -4.41904 0.131505 0
M  V30 3229 N 301.532 -0.945985 -1.26051 0
M  V30 3230 C 302.948 -0.649045 -1.45807 0
M  V30 3231 C 303.148 0.796158 -1.85104 0
M  V30 3232 O 302.204 1.57233 -1.97571 0
M  V30 3233 C 303.517 -1.61458 -2.53677 0
M  V30 3234 C 305.065 -1.62481 -2.67524 0
M  V30 3235 C 305.54 -2.57776 -3.7857 0
M  V30 3236 N 307.031 -2.5609 -3.85969 0
M  V30 3237 C 307.766 -3.26508 -4.7136 0
M  V30 3238 N 307.262 -4.0637 -5.61102 0
M  V30 3239 N 309.055 -3.15437 -4.65248 0
M  V30 3240 H 301.206 -1.88005 -0.988328 0
M  V30 3241 H 303.469 -0.808198 -0.4955 0
M  V30 3242 H 303.175 -2.64644 -2.31638 0
M  V30 3243 H 303.049 -1.37036 -3.51427 0
M  V30 3244 H 305.436 -0.600167 -2.88933 0
M  V30 3245 H 305.517 -1.90958 -1.70202 0
M  V30 3246 H 305.161 -3.60361 -3.57913 0
M  V30 3247 H 305.091 -2.26587 -4.75359 0
M  V30 3248 H 307.582 -1.98105 -3.21812 0
M  V30 3249 H 307.895 -4.57042 -6.23164 0
M  V30 3250 H 306.24 -4.10469 -5.60839 0
M  V30 3251 H 309.431 -2.52525 -3.94143 0
M  V30 3252 H 309.604 -3.70584 -5.31575 0
M  V30 3253 N 303.011 1.40521 -0.713556 0
M  V30 3254 C 304.422 1.83853 -0.324807 0
M  V30 3255 C 304.773 1.59667 1.14021 0
M  V30 3256 O 303.898 1.07649 1.87725 0
M  V30 3257 C 304.493 3.33751 -0.582746 0
M  V30 3258 C 303.052 3.75584 -0.247727 0
M  V30 3259 C 302.199 2.63753 -0.856121 0
M  V30 3260 H 305.15 1.29817 -0.91286 0
M  V30 3261 H 305.171 3.80194 0.152682 0
M  V30 3262 H 304.683 3.51322 -1.64908 0
M  V30 3263 H 302.784 3.63608 0.813624 0
M  V30 3264 H 302.897 4.7373 -0.715307 0
M  V30 3265 H 301.261 2.53108 -0.28432 0
M  V30 3266 H 302.044 2.84137 -1.92668 0
M  V30 3267 N 304.489 0.459591 1.5075 0
M  V30 3268 C 305.422 -0.386257 2.24907 0
M  V30 3269 C 306.4 -1.006 1.27744 0
M  V30 3270 O 307.584 -1.04416 1.56938 0
M  V30 3271 C 304.711 -1.54021 3.01654 0
M  V30 3272 C 303.757 -1.03898 4.13651 0
M  V30 3273 S 304.59 0.0370501 5.35487 0
M  V30 3274 C 305.746 -1.12105 6.15779 0
M  V30 3275 H 305.979 0.243272 2.96303 0
M  V30 3276 H 303.512 0.244339 1.52454 0
M  V30 3277 H 305.47 -2.20163 3.46466 0
M  V30 3278 H 304.131 -2.14121 2.29806 0
M  V30 3279 H 303.324 -1.90254 4.66711 0
M  V30 3280 H 302.926 -0.45545 3.71216 0
M  V30 3281 H 305.218 -2.03501 6.46215 0
M  V30 3282 H 306.161 -0.62995 7.05292 0
M  V30 3283 H 306.569 -1.36967 5.47631 0
M  V30 3284 N 305.967 -1.56429 0.191757 0
M  V30 3285 C 306.93 -2.17707 -0.716688 0
M  V30 3286 C 307.93 -1.13061 -1.14341 0
M  V30 3287 O 309.12 -1.38464 -1.05704 0
M  V30 3288 C 306.252 -2.77644 -1.97804 0
M  V30 3289 H 307.445 -2.99342 -0.1829 0
M  V30 3290 H 304.998 -1.56193 -0.0578566 0
M  V30 3291 H 305.733 -1.99799 -2.55443 0
M  V30 3292 H 305.518 -3.54246 -1.68083 0
M  V30 3293 H 307.008 -3.24708 -2.62592 0
M  V30 3294 N 307.445 0.0818655 -1.57387 0
M  V30 3295 C 308.691 0.778884 -1.87896 0
M  V30 3296 C 309.046 1.75692 -0.784229 0
M  V30 3297 O 308.339 1.90417 0.212567 0
M  V30 3298 C 308.533 1.53513 -3.22752 0
M  V30 3299 C 308.362 0.631838 -4.45239 0
M  V30 3300 C 307.132 0.272571 -5.04564 0
M  V30 3301 C 309.33 -0.0670191 -5.14256 0
M  V30 3302 N 307.312 -0.637498 -6.10581 0
M  V30 3303 C 308.683 -0.834653 -6.14356 0
M  V30 3304 C 310.738 -0.139551 -4.97704 0
M  V30 3305 C 309.441 -1.66806 -6.99691 0
M  V30 3306 C 311.467 -0.959903 -5.83558 0
M  V30 3307 C 310.829 -1.71561 -6.83188 0
M  V30 3308 H 306.928 0.260764 -0.737242 0
M  V30 3309 H 309.512 0.0408227 -1.94657 0
M  V30 3310 H 307.683 2.24398 -3.17018 0
M  V30 3311 H 309.415 2.18038 -3.40942 0
M  V30 3312 H 306.17 0.62319 -4.69482 0
M  V30 3313 H 306.594 -1.08548 -6.68241 0
M  V30 3314 H 311.236 0.430376 -4.20604 0
M  V30 3315 H 308.954 -2.249 -7.76174 0
M  V30 3316 H 312.54 -1.01887 -5.72809 0
M  V30 3317 H 311.42 -2.34017 -7.48469 0
M  V30 3318 N 308.923 1.53595 0.353017 0
M  V30 3319 C 310.148 1.7462 1.11904 0
M  V30 3320 C 310.573 0.479721 1.8188 0
M  V30 3321 O 309.931 -0.567066 1.72204 0
M  V30 3322 C 309.979 2.92029 2.11545 0
M  V30 3323 O 309.083 2.61516 3.18878 0
M  V30 3324 H 308.424 0.579531 0.324099 0
M  V30 3325 H 310.954 2.00525 0.406301 0
M  V30 3326 H 310.964 3.18551 2.5493 0
M  V30 3327 H 309.639 3.83888 1.60008 0
M  V30 3328 H 308.216 2.45852 2.80377 0
M  V30 3329 N 310.401 -0.613514 1.45168 0
M  V30 3330 C 311.641 -1.38405 1.5041 0
M  V30 3331 C 312.005 -1.91489 0.139922 0
M  V30 3332 O 313.206 -2.68716 0.067033 0
M  V30 3333 C 311.477 -2.50552 2.5487 0
M  V30 3334 S 313.036 -3.38439 2.79292 0
M  V30 3335 H 309.854 -0.471945 0.531779 0
M  V30 3336 H 312.456 -0.708518 1.82209 0
M  V30 3337 H 311.16 -2.09894 3.52665 0
M  V30 3338 H 310.691 -3.22913 2.24701 0
M  V30 3339 H 312.706 -4.48527 2.12222 0
M  V30 3340 N 311.879 -1.3236 -0.855495 0
M  V30 3341 C 312.809 -1.23833 -1.97958 0
M  V30 3342 C 313.79 -0.122361 -1.69659 0
M  V30 3343 O 314.975 -0.30939 -1.9172 0
M  V30 3344 C 312.105 -0.959772 -3.33775 0
M  V30 3345 C 311.059 -2.03689 -3.76424 0
M  V30 3346 C 310.385 -1.61075 -5.09862 0
M  V30 3347 C 311.685 -3.4518 -3.9198 0
M  V30 3348 H 313.379 -2.1788 -2.0535 0
M  V30 3349 H 310.925 -1.04891 -0.986605 0
M  V30 3350 H 312.878 -0.886678 -4.11966 0
M  V30 3351 H 311.602 0.0163404 -3.26596 0
M  V30 3352 H 310.261 -2.10012 -3.00484 0
M  V30 3353 H 309.909 -0.622107 -4.99138 0
M  V30 3354 H 309.609 -2.33143 -5.39368 0
M  V30 3355 H 311.133 -1.55201 -5.90546 0
M  V30 3356 H 312.547 -3.4145 -4.60526 0
M  V30 3357 H 310.944 -4.1559 -4.32903 0
M  V30 3358 H 312.014 -3.84903 -2.94919 0
M  V30 3359 N 313.357 1.07166 -1.15556 0
M  V30 3360 C 314.605 1.79443 -0.929764 0
M  V30 3361 C 314.926 1.87246 0.544414 0
M  V30 3362 O 314.196 1.37473 1.39564 0
M  V30 3363 H 312.776 0.664625 -0.341003 0
M  V30 3364 H 315.438 1.29499 -1.45657 0
M  V30 3365 H 314.534 2.81832 -1.34079 0
M  V30 3366 N 314.835 0.952656 1.25548 0
M  V30 3367 C 316.083 0.605176 1.92826 0
M  V30 3368 C 316.404 -0.860261 1.74999 0
M  V30 3369 O 315.674 -1.6125 1.11244 0
M  V30 3370 H 314.254 0.220832 0.713612 0
M  V30 3371 H 316.916 1.21047 1.52754 0
M  V30 3372 H 316.012 0.832798 3.00784 0
M  V30 3373 N 316.313 -1.40141 0.720998 0
M  V30 3374 C 317.561 -2.0039 0.262323 0
M  V30 3375 C 317.882 -1.57469 -1.15015 0
M  V30 3376 O 317.152 -0.816582 -1.78069 0
M  V30 3377 H 315.732 -0.741063 0.093996 0
M  V30 3378 H 318.394 -1.71398 0.927835 0
M  V30 3379 H 317.49 -3.10658 0.299671 0
M  V30 3380 N 317.792 -0.46758 -1.50504 0
M  V30 3381 C 319.208 -0.121533 -1.59137 0
M  V30 3382 C 319.408 1.3717 -1.47603 0
M  V30 3383 O 318.464 2.14464 -1.33272 0
M  V30 3384 C 319.777 -0.6686 -2.93173 0
M  V30 3385 C 321.325 -0.631716 -3.06559 0
M  V30 3386 C 321.8 -1.15627 -4.43164 0
M  V30 3387 N 323.291 -1.11553 -4.49567 0
M  V30 3388 C 324.026 -1.49195 -5.5365 0
M  V30 3389 N 323.522 -1.94269 -6.65005 0
M  V30 3390 N 325.315 -1.4082 -5.44175 0
M  V30 3391 H 317.466 -1.4388 -1.56245 0
M  V30 3392 H 319.729 -0.594784 -0.738198 0
M  V30 3393 H 319.435 -1.71453 -3.07078 0
M  V30 3394 H 319.309 -0.11021 -3.77039 0
M  V30 3395 H 321.696 0.405297 -2.92304 0
M  V30 3396 H 321.777 -1.22687 -2.24458 0
M  V30 3397 H 321.421 -2.1919 -4.58168 0
M  V30 3398 H 321.351 -0.537365 -5.23851 0
M  V30 3399 H 323.842 -0.784895 -3.69659 0
M  V30 3400 H 324.155 -2.21148 -7.40482 0
M  V30 3401 H 322.5 -1.98219 -6.66134 0
M  V30 3402 H 325.691 -1.0545 -4.56068 0
M  V30 3403 H 325.864 -1.70481 -6.25172 0
M  V30 3404 N 319.27 1.56325 -0.20005 0
M  V30 3405 C 320.2 2.22318 0.713916 0
M  V30 3406 C 321.181 1.18788 1.21752 0
M  V30 3407 O 322.366 1.47309 1.26545 0
M  V30 3408 C 319.496 2.88639 1.93144 0
M  V30 3409 C 318.45 3.98457 1.56255 0
M  V30 3410 C 317.776 4.51967 2.85709 0
M  V30 3411 C 319.076 5.16612 0.768747 0
M  V30 3412 H 320.77 2.98952 0.163755 0
M  V30 3413 H 318.316 1.43792 0.0773219 0
M  V30 3414 H 320.269 3.33491 2.57608 0
M  V30 3415 H 318.993 2.09419 2.50621 0
M  V30 3416 H 317.652 3.54305 0.941471 0
M  V30 3417 H 317.3 3.69503 3.41287 0
M  V30 3418 H 317 5.26071 2.6177 0
M  V30 3419 H 318.524 4.99523 3.51154 0
M  V30 3420 H 319.938 5.57977 1.3166 0
M  V30 3421 H 318.335 5.96812 0.627286 0
M  V30 3422 H 319.405 4.84358 -0.229168 0
M  V30 3423 N 320.748 -0.0735177 1.57428 0
M  V30 3424 C 321.995 -0.772999 1.87166 0
M  V30 3425 C 322.323 -1.77665 0.791551 0
M  V30 3426 O 321.578 -1.94541 -0.212636 0
M  V30 3427 C 321.877 -1.51799 3.23561 0
M  V30 3428 C 321.543 -0.654484 4.46125 0
M  V30 3429 C 320.205 -0.416511 4.79394 0
M  V30 3430 C 322.557 -0.0555862 5.2117 0
M  V30 3431 C 319.885 0.429869 5.85123 0
M  V30 3432 C 322.237 0.778239 6.27795 0
M  V30 3433 C 320.901 1.0261 6.59566 0
M  V30 3434 H 320.171 -0.282861 0.684888 0
M  V30 3435 H 322.818 -0.0338272 1.9147 0
M  V30 3436 H 321.123 -2.32932 3.1504 0
M  V30 3437 H 322.82 -2.06397 3.43804 0
M  V30 3438 H 319.41 -0.850091 4.20085 0
M  V30 3439 H 323.594 -0.226558 4.95783 0
M  V30 3440 H 318.85 0.630665 6.08139 0
M  V30 3441 H 323.024 1.24906 6.85107 0
M  V30 3442 H 320.651 1.68371 7.4132 0
M  V30 3443 N 322.226 -1.5378 -0.344866 0
M  V30 3444 C 323.174 -1.82373 -1.4437 0
M  V30 3445 C 324.168 -0.694128 -1.54526 0
M  V30 3446 O 325.374 -0.877442 -1.57165 0
M  V30 3447 H 321.749 -0.577765 -0.481344 0
M  V30 3448 H 323.72 -2.74306 -1.17468 0
M  V30 3449 C 322.469 -2.04898 -2.80913 0
M  V30 3450 H 321.792 -2.9127 -2.73865 0
M  V30 3451 H 323.232 -2.28871 -3.56923 0
M  V30 3452 C 321.691 -0.834116 -3.26411 0
M  V30 3453 O 322.221 -0.0328885 -4.01687 0
M  V30 3454 N 320.427 -0.65171 -2.83198 0
M  V30 3455 H 319.974 -1.30489 -2.22104 0
M  V30 3456 H 319.932 0.159686 -3.13994 0
M  V30 3457 N 323.704 0.605807 -1.45491 0
M  V30 3458 C 324.981 1.36522 -1.40075 0
M  V30 3459 C 325.361 2.10976 -0.0722744 0
M  V30 3460 O 324.709 2.08007 0.945808 0
M  V30 3461 C 324.919 2.31056 -2.61561 0
M  V30 3462 C 326.267 2.93608 -3.06724 0
M  V30 3463 O 327.291 2.41376 -2.61946 0
M  V30 3464 O 326.15 3.88421 -3.84437 0
M  V30 3465 H 323.244 0.612248 -0.555951 0
M  V30 3466 H 325.79 0.628747 -1.57623 0
M  V30 3467 H 324.562 1.75311 -3.49831 0
M  V30 3468 H 324.185 3.12081 -2.46356 0
M  V30 3469 N 325.182 1.32811 0.848464 0
M  V30 3470 C 326.459 1.14334 1.58704 0
M  V30 3471 C 326.839 -0.293948 2.09043 0
M  V30 3472 O 326.187 -1.29153 1.88499 0
M  V30 3473 C 326.397 2.17626 2.72837 0
M  V30 3474 C 327.745 2.51282 3.42261 0
M  V30 3475 O 328.769 2.16219 2.83068 0
M  V30 3476 O 327.628 3.11413 4.49093 0
M  V30 3477 H 324.722 0.441601 0.699226 0
M  V30 3478 H 327.268 1.44362 0.892053 0
M  V30 3479 H 326.04 3.14211 2.3321 0
M  V30 3480 H 325.663 1.88628 3.50008 0
M  V30 3481 N 326.66 -1.06551 1.16123 0
M  V30 3482 C 327.89 -1.8274 0.963838 0
M  V30 3483 C 328.298 -1.82712 -0.491228 0
M  V30 3484 O 327.641 -1.24294 -1.35265 0
M  V30 3485 C 327.703 -3.3065 1.41106 0
M  V30 3486 C 327.367 -3.54384 2.88549 0
M  V30 3487 C 328.364 -3.4765 3.86569 0
M  V30 3488 C 326.049 -3.81789 3.26408 0
M  V30 3489 C 328.043 -3.67982 5.2045 0
M  V30 3490 C 325.73 -4.01772 4.60459 0
M  V30 3491 C 326.728 -3.94866 5.57288 0
M  V30 3492 O 326.416 -4.14306 6.88916 0
M  V30 3493 H 326.148 -0.583136 0.341948 0
M  V30 3494 H 328.702 -1.35351 1.54497 0
M  V30 3495 H 326.932 -3.78887 0.773394 0
M  V30 3496 H 328.621 -3.88324 1.1815 0
M  V30 3497 H 329.387 -3.2647 3.58667 0
M  V30 3498 H 325.266 -3.86276 2.51619 0
M  V30 3499 H 328.81 -3.62507 5.96015 0
M  V30 3500 H 324.707 -4.2244 4.88072 0
M  V30 3501 H 325.475 -4.31609 6.95454 0
M  V30 3502 N 328.138 -0.959301 -1.25041 0
M  V30 3503 C 329.385 -0.616611 -1.92884 0
M  V30 3504 C 329.713 0.847036 -1.75087 0
M  V30 3505 O 328.968 1.62374 -1.09239 0
M  V30 3506 C 329.267 -0.927136 -3.45165 0
M  V30 3507 C 328.933 -2.37757 -3.83122 0
M  V30 3508 C 327.595 -2.77402 -3.93194 0
M  V30 3509 C 329.947 -3.31929 -4.01836 0
M  V30 3510 C 327.275 -4.10277 -4.19392 0
M  V30 3511 C 329.627 -4.64423 -4.29528 0
M  V30 3512 C 328.291 -5.03857 -4.37818 0
M  V30 3513 H 327.561 -0.225634 -0.705812 0
M  V30 3514 H 330.208 -1.20921 -1.48493 0
M  V30 3515 H 328.513 -0.252195 -3.90987 0
M  V30 3516 H 330.21 -0.6405 -3.95852 0
M  V30 3517 H 326.8 -2.06013 -3.75841 0
M  V30 3518 H 330.984 -3.02488 -3.93465 0
M  V30 3519 H 326.24 -4.40467 -4.24027 0
M  V30 3520 H 330.414 -5.37369 -4.42953 0
M  V30 3521 H 328.041 -6.06843 -4.57871 0
M  V30 3522 N 329.616 1.39756 -0.72842 0
M  V30 3523 C 330.548 2.29157 -0.0446202 0
M  V30 3524 C 331.561 1.46484 0.710367 0
M  V30 3525 O 332.75 1.69632 0.55562 0
M  V30 3526 C 329.85 3.24987 0.961071 0
M  V30 3527 C 329.023 4.36572 0.268967 0
M  V30 3528 C 328.082 5.12756 1.18184 0
M  V30 3529 O 327.108 5.6534 0.661794 0
M  V30 3530 N 328.31 5.23331 2.51206 0
M  V30 3531 H 331.075 2.88482 -0.812295 0
M  V30 3532 H 328.636 1.51265 -0.577098 0
M  V30 3533 H 330.628 3.72827 1.57423 0
M  V30 3534 H 329.198 2.66739 1.63 0
M  V30 3535 H 328.418 3.90694 -0.524574 0
M  V30 3536 H 329.706 5.08363 -0.210934 0
M  V30 3537 H 329.104 4.82116 2.9594 0
M  V30 3538 H 327.661 5.74634 3.07634 0
M  V30 3539 N 331.094 0.475555 1.50254 0
M  V30 3540 C 332.505 0.0215174 1.86688 0
M  V30 3541 C 332.856 -1.38467 1.39001 0
M  V30 3542 O 331.981 -2.02732 0.756894 0
M  V30 3543 C 332.576 0.0322715 3.38785 0
M  V30 3544 C 331.135 -0.366314 3.74613 0
M  V30 3545 C 330.282 0.415832 2.74164 0
M  V30 3546 H 333.233 0.689612 1.42934 0
M  V30 3547 H 333.254 -0.76889 3.7265 0
M  V30 3548 H 332.766 1.05584 3.73462 0
M  V30 3549 H 330.867 -1.39406 3.45538 0
M  V30 3550 H 330.98 -0.064555 4.79057 0
M  V30 3551 H 329.344 -0.131048 2.54363 0
M  V30 3552 H 330.127 1.43899 3.11686 0
M  V30 3553 N 332.573 -1.56217 0.208337 0
M  V30 3554 C 333.503 -2.22694 -0.702116 0
M  V30 3555 C 334.484 -1.19432 -1.2112 0
M  V30 3556 O 335.669 -1.47978 -1.25762 0
M  V30 3557 C 332.799 -2.8966 -1.9161 0
M  V30 3558 C 331.753 -3.9928 -1.5414 0
M  V30 3559 C 331.079 -4.53476 -2.83308 0
M  V30 3560 C 332.379 -5.17012 -0.741339 0
M  V30 3561 H 334.073 -2.99034 -0.147898 0
M  V30 3562 H 331.619 -1.43831 -0.0696951 0
M  V30 3563 H 333.572 -3.34852 -2.55836 0
M  V30 3564 H 332.296 -2.10746 -2.49507 0
M  V30 3565 H 330.955 -3.54799 -0.922668 0
M  V30 3566 H 330.603 -3.71308 -3.39322 0
M  V30 3567 H 330.303 -5.27451 -2.58976 0
M  V30 3568 H 331.827 -5.01378 -3.485 0
M  V30 3569 H 333.241 -5.58667 -1.28699 0
M  V30 3570 H 331.638 -5.97137 -0.595627 0
M  V30 3571 H 332.708 -4.8423 0.254851 0
M  V30 3572 N 334.051 0.0651679 -1.57465 0
M  V30 3573 C 335.467 0.420105 -1.53972 0
M  V30 3574 C 335.667 1.78782 -0.929474 0
M  V30 3575 O 334.723 2.46771 -0.534839 0
M  V30 3576 C 336.036 0.355084 -2.98596 0
M  V30 3577 C 337.584 0.434792 -3.09965 0
M  V30 3578 C 338.059 0.399609 -4.56253 0
M  V30 3579 N 339.55 0.459488 -4.60915 0
M  V30 3580 C 340.285 0.454584 -5.71595 0
M  V30 3581 N 339.781 0.404102 -6.9162 0
M  V30 3582 N 341.574 0.501635 -5.59857 0
M  V30 3583 H 333.725 -0.830328 -1.95498 0
M  V30 3584 H 335.988 -0.312244 -0.895102 0
M  V30 3585 H 335.694 -0.583357 -3.46828 0
M  V30 3586 H 335.568 1.16275 -3.58831 0
M  V30 3587 H 337.955 1.36366 -2.61703 0
M  V30 3588 H 338.036 -0.40157 -2.52628 0
M  V30 3589 H 337.68 -0.525436 -5.05175 0
M  V30 3590 H 337.61 1.25359 -5.11461 0
M  V30 3591 H 340.101 0.502482 -3.74544 0
M  V30 3592 H 340.414 0.404468 -7.71741 0
M  V30 3593 H 338.759 0.37069 -6.94011 0
M  V30 3594 H 341.95 0.538812 -4.64989 0
M  V30 3595 H 342.123 0.494345 -6.46112 0
M  V30 3596 N 335.529 1.53961 0.336706 0
M  V30 3597 C 336.806 1.62171 1.09361 0
M  V30 3598 C 337.186 0.447263 2.06307 0
M  V30 3599 O 336.534 -0.559802 2.21537 0
M  V30 3600 C 336.744 2.98565 1.80721 0
M  V30 3601 C 338.092 3.54157 2.34218 0
M  V30 3602 O 339.116 3.00784 1.90807 0
M  V30 3603 O 337.975 4.47528 3.13657 0
M  V30 3604 H 335.069 0.6562 0.503319 0
M  V30 3605 H 337.615 1.66307 0.33765 0
M  V30 3606 H 336.387 3.75482 1.10132 0
M  V30 3607 H 336.01 2.9805 2.63158 0
M  V30 3608 N 337.007 -0.598083 1.45811 0
M  V30 3609 C 337.917 -1.73632 1.57763 0
M  V30 3610 C 338.933 -1.67763 0.461676 0
M  V30 3611 O 340.109 -1.87949 0.723685 0
M  V30 3612 C 337.174 -3.10114 1.55018 0
M  V30 3613 C 336.235 -3.27364 2.77726 0
M  V30 3614 C 335.468 -4.57334 2.75102 0
M  V30 3615 O 335.691 -5.40258 1.8297 0
M  V30 3616 O 334.625 -4.77502 3.66437 0
M  V30 3617 H 338.451 -1.66498 2.53992 0
M  V30 3618 H 336.036 -0.763308 1.28429 0
M  V30 3619 H 337.918 -3.9141 1.56129 0
M  V30 3620 H 336.593 -3.17718 0.619431 0
M  V30 3621 H 335.5 -2.45619 2.82174 0
M  V30 3622 H 336.833 -3.24641 3.69958 0
M  V30 3623 N 338.485 -1.33259 -0.841409 0
M  V30 3624 C 339.415 -1.25926 -1.96634 0
M  V30 3625 C 340.396 -0.140349 -1.6952 0
M  V30 3626 O 341.581 -0.329707 -1.91381 0
M  V30 3627 C 338.711 -0.99512 -3.32738 0
M  V30 3628 C 337.665 -2.0767 -3.74242 0
M  V30 3629 C 336.991 -1.66474 -5.08125 0
M  V30 3630 C 338.291 -3.49318 -3.88297 0
M  V30 3631 H 339.985 -2.20046 -2.03027 0
M  V30 3632 H 337.531 -1.05931 -0.975425 0
M  V30 3633 H 339.484 -0.930323 -4.11002 0
M  V30 3634 H 338.208 -0.0183004 -3.26595 0
M  V30 3635 H 336.867 -2.13187 -2.98239 0
M  V30 3636 H 336.515 -0.675012 -4.9845 0
M  V30 3637 H 336.215 -2.3885 -5.36865 0
M  V30 3638 H 337.739 -1.61455 -5.88867 0
M  V30 3639 H 339.153 -3.46316 -4.56879 0
M  V30 3640 H 337.55 -4.20158 -4.28471 0
M  V30 3641 H 338.62 -3.8801 -2.9082 0
M  V30 3642 N 339.963 1.05934 -1.16686 0
M  V30 3643 C 340.926 2.11669 -0.879144 0
M  V30 3644 C 341.926 1.60294 0.127445 0
M  V30 3645 O 343.116 1.7389 -0.103865 0
M  V30 3646 C 340.248 3.39438 -0.315425 0
M  V30 3647 H 341.441 2.38626 -1.81653 0
M  V30 3648 H 338.994 1.22058 -0.976299 0
M  V30 3649 H 339.729 3.18132 0.629468 0
M  V30 3650 H 339.514 3.78034 -1.04079 0
M  V30 3651 H 341.004 4.17391 -0.132189 0
M  V30 3652 N 341.441 0.965919 1.2453 0
M  V30 3653 C 342.687 0.62776 1.92839 0
M  V30 3654 C 343.02 -0.834694 1.75347 0
M  V30 3655 O 342.295 -1.60031 1.10546 0
M  V30 3656 C 342.578 1.00109 3.45905 0
M  V30 3657 C 342.431 2.52011 3.72573 0
M  V30 3658 C 343.75 0.53435 4.36844 0
M  V30 3659 H 340.869 0.229537 0.700344 0
M  V30 3660 H 343.511 1.2046 1.46933 0
M  V30 3661 H 341.661 0.510238 3.85135 0
M  V30 3662 H 343.333 3.08559 3.42912 0
M  V30 3663 H 341.576 2.95287 3.17786 0
M  V30 3664 H 342.247 2.73183 4.79661 0
M  V30 3665 H 344.723 0.955565 4.04979 0
M  V30 3666 H 343.599 0.824152 5.42678 0
M  V30 3667 H 343.86 -0.565589 4.38467 0
M  V30 3668 N 342.919 -1.39368 0.735821 0
M  V30 3669 C 344.165 -2.00794 0.284544 0
M  V30 3670 C 344.498 -1.58255 -1.12557 0
M  V30 3671 O 343.773 -0.811819 -1.76748 0
M  V30 3672 C 344.056 -3.58011 0.387337 0
M  V30 3673 C 343.909 -4.10566 1.83728 0
M  V30 3674 C 345.228 -4.395 -0.22975 0
M  V30 3675 H 342.347 -0.729501 0.104866 0
M  V30 3676 H 344.989 -1.65564 0.93213 0
M  V30 3677 H 343.139 -3.88154 -0.164006 0
M  V30 3678 H 344.811 -3.91139 2.44556 0
M  V30 3679 H 343.054 -3.64095 2.35833 0
M  V30 3680 H 343.725 -5.19702 1.86047 0
M  V30 3681 H 346.201 -4.15406 0.240257 0
M  V30 3682 H 345.077 -5.48752 -0.127485 0
M  V30 3683 H 345.338 -4.22062 -1.3159 0
M  V30 3684 N 344.397 -0.483516 -1.5 0
M  V30 3685 C 345.36 0.292965 -2.2732 0
M  V30 3686 C 346.36 0.909499 -1.32608 0
M  V30 3687 O 347.55 0.776745 -1.55924 0
M  V30 3688 C 344.682 1.41854 -3.09984 0
M  V30 3689 H 345.875 -0.385289 -2.97415 0
M  V30 3690 H 343.428 -0.237942 -1.54478 0
M  V30 3691 H 344.163 2.13148 -2.44414 0
M  V30 3692 H 343.948 0.982114 -3.79601 0
M  V30 3693 H 345.438 1.96597 -3.68429 0
M  V30 3694 N 345.875 1.56104 -0.216619 0
M  V30 3695 C 346.785 2.23694 0.706982 0
M  V30 3696 C 347.801 1.24295 1.21765 0
M  V30 3697 O 348.977 1.57094 1.2603 0
M  V30 3698 C 346.042 2.8998 1.90033 0
M  V30 3699 C 345.103 4.04708 1.43213 0
M  V30 3700 C 344.336 4.67824 2.56859 0
M  V30 3701 O 344.559 4.29913 3.74874 0
M  V30 3702 O 343.493 5.56905 2.28343 0
M  V30 3703 H 347.319 3.03272 0.161235 0
M  V30 3704 H 344.904 1.49394 0.0136177 0
M  V30 3705 H 346.786 3.31837 2.59735 0
M  V30 3706 H 345.461 2.13365 2.43428 0
M  V30 3707 H 344.368 3.6743 0.70327 0
M  V30 3708 H 345.701 4.83051 0.944615 0
M  V30 3709 N 347.353 -0.0568162 1.57498 0
M  V30 3710 C 348.263 -1.08346 2.08083 0
M  V30 3711 C 349.279 -1.41439 1.01346 0
M  V30 3712 O 350.455 -1.51316 1.32912 0
M  V30 3713 C 347.52 -2.37352 2.52715 0
M  V30 3714 C 346.581 -2.11093 3.73816 0
M  V30 3715 C 345.814 -3.33949 4.1631 0
M  V30 3716 O 346.037 -4.43622 3.58547 0
M  V30 3717 O 344.971 -3.21279 5.08983 0
M  V30 3718 H 348.797 -0.683667 2.95905 0
M  V30 3719 H 346.382 -0.271965 1.46904 0
M  V30 3720 H 348.264 -3.13246 2.81877 0
M  V30 3721 H 346.939 -2.76681 1.68016 0
M  V30 3722 H 345.846 -1.32856 3.49714 0
M  V30 3723 H 347.179 -1.76637 4.59413 0
M  V30 3724 N 348.832 -1.54138 -0.328536 0
M  V30 3725 C 349.762 -1.86167 -1.40939 0
M  V30 3726 C 350.743 -0.718044 -1.54202 0
M  V30 3727 O 351.928 -0.971328 -1.68163 0
M  V30 3728 C 349.058 -2.08461 -2.77779 0
M  V30 3729 C 348.012 -3.24299 -2.7931 0
M  V30 3730 C 347.338 -3.31955 -4.19178 0
M  V30 3731 C 348.638 -4.62065 -2.43502 0
M  V30 3732 H 350.332 -2.76689 -1.14383 0
M  V30 3733 H 347.878 -1.33132 -0.548806 0
M  V30 3734 H 349.831 -2.29453 -3.53454 0
M  V30 3735 H 348.555 -1.14684 -3.05802 0
M  V30 3736 H 347.214 -3.03187 -2.0609 0
M  V30 3737 H 346.862 -2.35745 -4.44335 0
M  V30 3738 H 346.562 -4.09805 -4.2111 0
M  V30 3739 H 348.086 -3.55175 -4.96672 0
M  V30 3740 H 349.5 -4.8297 -3.08889 0
M  V30 3741 H 347.897 -5.42429 -2.56693 0
M  V30 3742 H 348.967 -4.64652 -1.38659 0
M  V30 3743 N 350.31 0.590341 -1.46126 0
M  V30 3744 C 351.258 1.72105 -1.5647 0
M  V30 3745 C 352.252 1.63756 -0.433612 0
M  V30 3746 O 353.458 1.69342 -0.610194 0
M  V30 3747 H 349.833 0.568889 -0.491802 0
M  V30 3748 H 351.804 1.6051 -2.51553 0
M  V30 3749 C 350.553 3.10493 -1.56491 0
M  V30 3750 H 349.876 3.17583 -2.4286 0
M  V30 3751 H 351.316 3.8939 -1.67785 0
M  V30 3752 C 349.775 3.3563 -0.292231 0
M  V30 3753 O 350.305 3.96875 0.620739 0
M  V30 3754 N 348.511 2.90026 -0.182523 0
M  V30 3755 H 348.058 2.40367 -0.926356 0
M  V30 3756 H 348.016 3.07218 0.668152 0
M  V30 3757 N 351.788 1.33704 0.83433 0
M  V30 3758 C 352.751 1.24244 1.92603 0
M  V30 3759 C 353.751 0.160383 1.59998 0
M  V30 3760 O 354.941 0.412228 1.69252 0
M  V30 3761 C 352.073 0.91555 3.28376 0
M  V30 3762 H 353.266 2.21287 2.02416 0
M  V30 3763 H 350.819 1.17827 1.02696 0
M  V30 3764 H 351.554 -0.0521886 3.24258 0
M  V30 3765 H 351.339 1.69811 3.53422 0
M  V30 3766 H 352.829 0.874231 4.08347 0
M  V30 3767 N 353.266 -1.05314 1.17247 0
M  V30 3768 C 354.514 -1.77941 0.958194 0
M  V30 3769 C 354.835 -1.88089 -0.514556 0
M  V30 3770 O 354.105 -1.39676 -1.37359 0
M  V30 3771 H 352.685 -0.659116 0.351533 0
M  V30 3772 H 355.347 -1.27166 1.47699 0
M  V30 3773 H 354.443 -2.79663 1.38546 0
M  V30 3774 N 354.744 -0.972509 -1.24016 0
M  V30 3775 C 355.969 -0.654417 -1.96805 0
M  V30 3776 C 356.394 0.770398 -1.716 0
M  V30 3777 O 355.752 1.52361 -0.982647 0
M  V30 3778 C 355.8 -0.941031 -3.48105 0
M  V30 3779 O 354.904 -0.0289472 -4.1239 0
M  V30 3780 H 354.245 -0.24692 -0.616382 0
M  V30 3781 H 356.775 -1.30396 -1.57664 0
M  V30 3782 H 356.785 -0.87452 -3.98517 0
M  V30 3783 H 355.46 -1.97939 -3.65777 0
M  V30 3784 H 354.037 -0.149192 -3.72601 0
M  V30 3785 N 356.222 1.38976 -0.743202 0
M  V30 3786 C 357.471 1.99581 -0.291592 0
M  V30 3787 C 357.784 1.59656 1.13001 0
M  V30 3788 O 358.99 2.13157 1.68156 0
M  V30 3789 C 357.446 3.56813 -0.470391 0
M  V30 3790 C 357.054 4.05695 -1.90041 0
M  V30 3791 C 358.798 4.24423 -0.0809709 0
M  V30 3792 C 356.705 5.5553 -2.02832 0
M  V30 3793 H 355.635 0.746615 -0.105272 0
M  V30 3794 H 358.286 1.58872 -0.918258 0
M  V30 3795 H 356.668 3.95359 0.225299 0
M  V30 3796 H 357.842 3.78464 -2.62872 0
M  V30 3797 H 356.157 3.50775 -2.24379 0
M  V30 3798 H 358.754 5.34474 -0.155445 0
M  V30 3799 H 359.097 4.04962 0.96497 0
M  V30 3800 H 359.63 3.9108 -0.728124 0
M  V30 3801 H 356.369 5.79881 -3.05643 0
M  V30 3802 H 355.889 5.84537 -1.34448 0
M  V30 3803 H 357.568 6.21069 -1.81335 0
M  V30 3804 N 357.7 0.491464 1.49741 0
M  V30 3805 C 358.61 -0.296835 2.32715 0
M  V30 3806 C 359.626 -0.976536 1.44013 0
M  V30 3807 O 360.802 -0.960023 1.77047 0
M  V30 3808 C 357.867 -1.35288 3.19215 0
M  V30 3809 C 356.928 -0.687632 4.23757 0
M  V30 3810 C 356.161 -1.69336 5.06123 0
M  V30 3811 O 356.384 -2.92219 4.89861 0
M  V30 3812 O 355.318 -1.25394 5.88693 0
M  V30 3813 H 359.144 0.382048 3.01287 0
M  V30 3814 H 356.729 0.252953 1.47243 0
M  V30 3815 H 358.611 -1.96411 3.72828 0
M  V30 3816 H 357.286 -2.01487 2.53347 0
M  V30 3817 H 356.193 -0.0369159 3.74082 0
M  V30 3818 H 357.526 -0.0682566 4.92153 0
M  V30 3819 N 359.178 -1.55987 0.224894 0
M  V30 3820 C 360.11 -2.17722 -0.716224 0
M  V30 3821 C 361.123 -1.14723 -1.15509 0
M  V30 3822 O 362.312 -1.41688 -1.08567 0
M  V30 3823 C 359.412 -2.74873 -1.98238 0
M  V30 3824 C 358.585 -4.03074 -1.69853 0
M  V30 3825 C 357.644 -4.44757 -2.81208 0
M  V30 3826 O 356.67 -5.11587 -2.49534 0
M  V30 3827 N 357.872 -4.10716 -4.10235 0
M  V30 3828 H 360.637 -2.99109 -0.188123 0
M  V30 3829 H 358.198 -1.6184 0.0440123 0
M  V30 3830 H 360.19 -2.99727 -2.7193 0
M  V30 3831 H 358.76 -1.9777 -2.42086 0
M  V30 3832 H 357.98 -3.86041 -0.797875 0
M  V30 3833 H 359.268 -4.86701 -1.48324 0
M  V30 3834 H 358.666 -3.57019 -4.38809 0
M  V30 3835 H 357.223 -4.40455 -4.80461 0
M  V30 3836 N 360.656 0.0484629 -1.57525 0
M  V30 3837 C 361.902 0.744226 -1.88651 0
M  V30 3838 C 362.235 1.76029 -0.820212 0
M  V30 3839 O 361.51 1.93782 0.166985 0
M  V30 3840 C 361.793 1.43128 -3.30434 0
M  V30 3841 C 361.646 0.43005 -4.47739 0
M  V30 3842 C 362.965 2.37031 -3.70816 0
M  V30 3843 H 360.084 0.269089 -0.68612 0
M  V30 3844 H 362.726 0.00713532 -1.89999 0
M  V30 3845 H 360.876 2.05956 -3.29415 0
M  V30 3846 H 362.548 -0.194816 -4.60888 0
M  V30 3847 H 360.791 -0.252522 -4.33064 0
M  V30 3848 H 361.462 0.948874 -5.43783 0
M  V30 3849 H 363.938 1.84263 -3.73077 0
M  V30 3850 H 362.814 2.82094 -4.70865 0
M  V30 3851 H 363.075 3.22864 -3.02012 0
M  V30 3852 N 362.134 1.5431 0.320358 0
M  V30 3853 C 363.38 1.72924 1.05949 0
M  V30 3854 C 363.713 0.503185 1.87568 0
M  V30 3855 O 362.988 -0.499839 1.87968 0
M  V30 3856 C 363.271 3.00676 1.98156 0
M  V30 3857 C 363.124 4.3354 1.19845 0
M  V30 3858 C 364.443 3.24198 2.9763 0
M  V30 3859 H 361.562 0.629195 0.383774 0
M  V30 3860 H 364.204 1.87008 0.335854 0
M  V30 3861 H 362.354 2.888 2.59859 0
M  V30 3862 H 364.026 4.57305 0.605773 0
M  V30 3863 H 362.269 4.309 0.500784 0
M  V30 3864 H 362.94 5.19156 1.87567 0
M  V30 3865 H 365.416 3.35557 2.4605 0
M  V30 3866 H 364.292 4.14938 3.59329 0
M  V30 3867 H 364.553 2.41577 3.7026 0
M  V30 3868 N 363.613 -0.582584 1.46437 0
M  V30 3869 C 364.843 -1.36484 1.55099 0
M  V30 3870 C 365.251 -1.88233 0.191056 0
M  V30 3871 O 364.594 -1.6429 -0.821858 0
M  V30 3872 C 364.656 -2.588 2.49525 0
M  V30 3873 C 364.32 -2.28517 3.95764 0
M  V30 3874 C 365.317 -1.87346 4.84972 0
M  V30 3875 C 363.002 -2.40658 4.40896 0
M  V30 3876 C 364.996 -1.5871 6.17325 0
M  V30 3877 C 362.683 -2.11635 5.73284 0
M  V30 3878 C 363.681 -1.70725 6.61318 0
M  V30 3879 O 363.369 -1.42057 7.91249 0
M  V30 3880 H 363.101 -0.423297 0.527063 0
M  V30 3881 H 365.655 -0.715188 1.92547 0
M  V30 3882 H 363.885 -3.26571 2.07095 0
M  V30 3883 H 365.574 -3.20868 2.48593 0
M  V30 3884 H 366.34 -1.77481 4.5136 0
M  V30 3885 H 362.219 -2.71463 3.72598 0
M  V30 3886 H 365.763 -1.26704 6.85997 0
M  V30 3887 H 361.66 -2.21124 6.06444 0
M  V30 3888 H 362.428 -1.55901 8.03515 0
M  V30 3889 N 365.091 -1.34144 -0.827227 0
M  V30 3890 C 366.054 -1.25264 -1.91942 0
M  V30 3891 C 367.054 -0.168866 -1.59911 0
M  V30 3892 O 368.244 -0.421198 -1.69031 0
M  V30 3893 C 365.376 -0.932952 -3.27885 0
M  V30 3894 H 366.569 -2.22357 -2.0124 0
M  V30 3895 H 364.122 -1.1837 -1.0207 0
M  V30 3896 H 364.857 0.0349917 -3.24281 0
M  V30 3897 H 364.642 -1.71682 -3.52516 0
M  V30 3898 H 366.132 -0.895874 -4.07877 0
M  V30 3899 N 366.569 1.04691 -1.17803 0
M  V30 3900 C 367.815 1.78181 -0.980977 0
M  V30 3901 C 368.17 1.86191 0.484825 0
M  V30 3902 O 367.463 1.35436 1.35527 0
M  V30 3903 C 367.657 3.21467 -1.56186 0
M  V30 3904 C 367.486 3.27422 -3.08261 0
M  V30 3905 C 366.256 3.36415 -3.77032 0
M  V30 3906 C 368.454 3.15947 -4.0581 0
M  V30 3907 N 366.436 3.31554 -5.16667 0
M  V30 3908 C 367.807 3.18514 -5.31929 0
M  V30 3909 C 369.862 2.99945 -3.97413 0
M  V30 3910 C 368.565 3.06723 -6.50625 0
M  V30 3911 C 370.591 2.89497 -5.15699 0
M  V30 3912 C 369.953 2.92702 -6.40706 0
M  V30 3913 H 366.052 0.6641 -0.412911 0
M  V30 3914 H 368.636 1.24762 -1.49474 0
M  V30 3915 H 366.807 3.73245 -1.07436 0
M  V30 3916 H 368.539 3.8322 -1.30093 0
M  V30 3917 H 365.294 3.41887 -3.27735 0
M  V30 3918 H 365.718 3.3258 -5.89678 0
M  V30 3919 H 370.36 2.96302 -3.01604 0
M  V30 3920 H 368.078 3.0912 -7.46639 0
M  V30 3921 H 371.664 2.78179 -5.10987 0
M  V30 3922 H 370.544 2.84697 -7.30696 0
M  V30 3923 N 368.047 0.979072 1.23499 0
M  V30 3924 C 369.293 0.648178 1.92163 0
M  V30 3925 C 369.626 -0.816049 1.76222 0
M  V30 3926 O 368.901 -1.58849 1.12237 0
M  V30 3927 C 369.184 1.03773 3.44824 0
M  V30 3928 C 369.037 2.55948 3.69879 0
M  V30 3929 C 370.356 0.580653 4.36253 0
M  V30 3930 H 367.475 0.236952 0.69787 0
M  V30 3931 H 370.117 1.22012 1.45647 0
M  V30 3932 H 368.267 0.551058 3.84572 0
M  V30 3933 H 369.939 3.12179 3.3962 0
M  V30 3934 H 368.182 2.98641 3.14636 0
M  V30 3935 H 368.853 2.78255 4.76737 0
M  V30 3936 H 371.329 0.998465 4.03943 0
M  V30 3937 H 370.205 0.881663 5.41773 0
M  V30 3938 H 370.466 -0.519052 4.39042 0
M  V30 3939 N 369.525 -1.3858 0.750561 0
M  V30 3940 C 370.455 -2.33102 0.136237 0
M  V30 3941 C 371.436 -1.54713 -0.706965 0
M  V30 3942 O 372.621 -1.83043 -0.648769 0
M  V30 3943 C 369.751 -3.38882 -0.760017 0
M  V30 3944 C 368.705 -4.27995 -0.0197785 0
M  V30 3945 C 368.031 -5.24605 -1.03408 0
M  V30 3946 C 369.331 -5.09554 1.14684 0
M  V30 3947 H 371.025 -2.84726 0.925822 0
M  V30 3948 H 368.571 -1.36898 0.446654 0
M  V30 3949 H 370.524 -4.0397 -1.19943 0
M  V30 3950 H 369.248 -2.85734 -1.58189 0
M  V30 3951 H 367.907 -3.64409 0.400184 0
M  V30 3952 H 367.555 -4.67746 -1.84994 0
M  V30 3953 H 367.255 -5.85081 -0.543464 0
M  V30 3954 H 368.779 -5.9257 -1.47288 0
M  V30 3955 H 370.193 -5.67899 0.785118 0
M  V30 3956 H 368.59 -5.7925 1.56812 0
M  V30 3957 H 369.66 -4.4347 1.96118 0
M  V30 3958 N 371.003 -0.499398 -1.49478 0
M  V30 3959 C 372.419 -0.155261 -1.58843 0
M  V30 3960 C 372.619 1.34008 -1.50479 0
M  V30 3961 O 371.675 2.11589 -1.37791 0
M  V30 3962 C 372.988 -0.730636 -2.91689 0
M  V30 3963 C 374.536 -0.696599 -3.0515 0
M  V30 3964 C 375.011 -1.25001 -4.40612 0
M  V30 3965 N 376.502 -1.21064 -4.47099 0
M  V30 3966 C 377.237 -1.60905 -5.50361 0
M  V30 3967 N 376.733 -2.08331 -6.60735 0
M  V30 3968 N 378.526 -1.52331 -5.41065 0
M  V30 3969 H 370.677 -1.47162 -1.53158 0
M  V30 3970 H 372.94 -0.610309 -0.725415 0
M  V30 3971 H 372.646 -1.77928 -3.03372 0
M  V30 3972 H 372.52 -0.190161 -3.7672 0
M  V30 3973 H 374.907 0.343204 -2.93097 0
M  V30 3974 H 374.988 -1.2742 -2.21806 0
M  V30 3975 H 374.632 -2.28859 -4.53416 0
M  V30 3976 H 374.562 -0.64836 -5.22593 0
M  V30 3977 H 377.053 -0.863128 -3.67911 0
M  V30 3978 H 377.366 -2.36805 -7.35624 0
M  V30 3979 H 375.711 -2.12304 -6.6178 0
M  V30 3980 H 378.902 -1.151 -4.53729 0
M  V30 3981 H 379.075 -1.83704 -6.21415 0
M  V30 3982 N 372.481 1.55866 -0.233164 0
M  V30 3983 C 373.411 2.23783 0.666599 0
M  V30 3984 C 374.392 1.21343 1.19205 0
M  V30 3985 O 375.577 1.4996 1.23392 0
M  V30 3986 C 372.707 2.92671 1.86978 0
M  V30 3987 C 371.661 4.01682 1.47768 0
M  V30 3988 C 370.987 4.57926 2.76058 0
M  V30 3989 C 372.287 5.18126 0.658993 0
M  V30 3990 H 373.981 2.99232 0.100306 0
M  V30 3991 H 371.527 1.43924 0.046804 0
M  V30 3992 H 373.48 3.3888 2.50476 0
M  V30 3993 H 372.204 2.14688 2.46123 0
M  V30 3994 H 370.863 3.56222 0.866106 0
M  V30 3995 H 370.511 3.76659 3.33372 0
M  V30 3996 H 370.211 5.31505 2.50552 0
M  V30 3997 H 371.735 5.06859 3.40479 0
M  V30 3998 H 373.149 5.60644 1.19795 0
M  V30 3999 H 371.546 5.98009 0.500552 0
M  V30 4000 H 372.616 4.83763 -0.331856 0
M  V30 4001 N 373.959 -0.0401083 1.57549 0
M  V30 4002 C 375.37 -0.588097 1.77196 0
M  V30 4003 C 375.721 -1.76209 0.862832 0
M  V30 4004 O 374.846 -2.16331 0.0548389 0
M  V30 4005 C 375.441 -1.07363 3.21339 0
M  V30 4006 C 374 -1.56723 3.42221 0
M  V30 4007 C 373.147 -0.50041 2.72747 0
M  V30 4008 H 376.098 0.186119 1.57605 0
M  V30 4009 H 376.119 -1.94143 3.27244 0
M  V30 4010 H 375.631 -0.218975 3.87482 0
M  V30 4011 H 373.732 -2.4441 2.81237 0
M  V30 4012 H 373.845 -1.62234 4.50796 0
M  V30 4013 H 372.209 -0.952894 2.36203 0
M  V30 4014 H 372.992 0.344599 3.41566 0
M  V30 4015 N 375.437 -1.54477 -0.31217 0
M  V30 4016 C 376.662 -1.77526 -1.07235 0
M  V30 4017 C 377.087 -0.527775 -1.80544 0
M  V30 4018 O 376.445 0.52121 -1.73646 0
M  V30 4019 C 376.493 -2.97535 -2.03728 0
M  V30 4020 O 375.597 -2.69878 -3.11833 0
M  V30 4021 H 374.938 -0.58792 -0.30862 0
M  V30 4022 H 377.468 -2.01532 -0.352993 0
M  V30 4023 H 377.478 -3.25198 -2.46395 0
M  V30 4024 H 376.153 -3.87996 -1.49774 0
M  V30 4025 H 374.73 -2.53199 -2.7376 0
M  V30 4026 N 376.915 0.57481 -1.46744 0
M  V30 4027 C 377.847 1.69804 -1.53946 0
M  V30 4028 C 378.86 1.57098 -0.427106 0
M  V30 4029 O 380.049 1.64378 -0.695863 0
M  V30 4030 C 377.149 3.08125 -1.4111 0
M  V30 4031 C 376.322 3.46757 -2.66605 0
M  V30 4032 C 375.381 4.6417 -2.47855 0
M  V30 4033 O 374.407 4.69634 -3.21609 0
M  V30 4034 N 375.609 5.59553 -1.54534 0
M  V30 4035 H 378.374 1.64077 -2.50796 0
M  V30 4036 H 375.935 0.761 -1.429 0
M  V30 4037 H 377.927 3.84478 -1.26328 0
M  V30 4038 H 376.497 3.08175 -0.524109 0
M  V30 4039 H 375.717 2.6003 -2.96274 0
M  V30 4040 H 377.005 3.69337 -3.49954 0
M  V30 4041 H 376.403 5.57881 -0.937304 0
M  V30 4042 H 374.96 6.35304 -1.45711 0
M  V30 4043 N 378.394 1.34581 0.820102 0
M  V30 4044 C 379.805 1.24298 1.39309 0
M  V30 4045 C 380.156 -0.130351 1.95767 0
M  V30 4046 O 379.281 -1.0308 1.90272 0
M  V30 4047 C 379.876 2.25054 2.53251 0
M  V30 4048 C 378.435 2.18552 3.0645 0
M  V30 4049 C 377.582 2.11503 1.79337 0
M  V30 4050 H 380.533 1.45906 0.624262 0
M  V30 4051 H 380.554 1.86917 3.31425 0
M  V30 4052 H 380.066 3.24996 2.1213 0
M  V30 4053 H 378.167 1.21976 3.52069 0
M  V30 4054 H 378.28 3.0993 3.65349 0
M  V30 4055 H 376.644 1.57268 2.00347 0
M  V30 4056 H 377.427 3.13284 1.40386 0
M  V30 4057 N 379.872 -1.04064 1.18357 0
M  V30 4058 C 380.802 -2.14001 0.934113 0
M  V30 4059 C 381.783 -1.69616 -0.128186 0
M  V30 4060 O 382.968 -1.94185 0.0244093 0
M  V30 4061 C 380.098 -3.44253 0.459066 0
M  V30 4062 C 379.052 -4.02261 1.46185 0
M  V30 4063 C 378.378 -5.27992 0.844322 0
M  V30 4064 C 379.678 -4.38432 2.83856 0
M  V30 4065 H 381.372 -2.35127 1.85352 0
M  V30 4066 H 378.918 -1.12998 0.892604 0
M  V30 4067 H 380.871 -4.20522 0.271907 0
M  V30 4068 H 379.595 -3.22813 -0.495912 0
M  V30 4069 H 378.254 -3.28074 1.63595 0
M  V30 4070 H 377.902 -5.02862 -0.117845 0
M  V30 4071 H 377.602 -5.67765 1.51384 0
M  V30 4072 H 379.126 -6.06938 0.667693 0
M  V30 4073 H 380.54 -5.05688 2.70098 0
M  V30 4074 H 378.937 -4.89254 3.47491 0
M  V30 4075 H 380.007 -3.4826 3.37406 0
M  V30 4076 N 381.35 -0.985608 -1.22978 0
M  V30 4077 C 382.761 -0.693593 -1.73338 0
M  V30 4078 C 383.112 0.789935 -1.79595 0
M  V30 4079 O 382.237 1.61771 -1.43733 0
M  V30 4080 C 382.832 -1.25235 -3.14804 0
M  V30 4081 C 381.391 -1.00987 -3.626 0
M  V30 4082 C 380.538 -1.37695 -2.40698 0
M  V30 4083 H 383.489 -1.15884 -1.08428 0
M  V30 4084 H 383.51 -0.627329 -3.75293 0
M  V30 4085 H 383.022 -2.33209 -3.10218 0
M  V30 4086 H 381.123 0.0535565 -3.72562 0
M  V30 4087 H 381.236 -1.66812 -4.49122 0
M  V30 4088 H 379.6 -0.795459 -2.4196 0
M  V30 4089 H 380.383 -2.46657 -2.38779 0
M  V30 4090 N 382.828 1.3818 -0.7579 0
M  V30 4091 C 384.077 1.99261 -0.312744 0
M  V30 4092 C 384.39 1.60846 1.11301 0
M  V30 4093 O 385.596 2.14929 1.65885 0
M  V30 4094 C 384.052 3.56294 -0.50821 0
M  V30 4095 C 383.66 4.03657 -1.94333 0
M  V30 4096 C 385.404 4.24313 -0.125982 0
M  V30 4097 C 383.311 5.53347 -2.08712 0
M  V30 4098 H 382.241 0.745456 -0.113185 0
M  V30 4099 H 384.892 1.57889 -0.935056 0
M  V30 4100 H 383.274 3.95575 0.183353 0
M  V30 4101 H 384.448 3.75655 -2.66871 0
M  V30 4102 H 382.763 3.48376 -2.28086 0
M  V30 4103 H 385.36 5.34279 -0.212125 0
M  V30 4104 H 385.703 4.05962 0.921964 0
M  V30 4105 H 386.236 3.90285 -0.769563 0
M  V30 4106 H 382.975 5.76607 -3.11777 0
M  V30 4107 H 382.495 5.83078 -1.4064 0
M  V30 4108 H 384.174 6.19111 -1.87912 0
M  V30 4109 N 384.306 0.507319 1.49211 0
M  V30 4110 C 385.555 -0.0368315 2.01666 0
M  V30 4111 C 385.868 -1.37459 1.39156 0
M  V30 4112 O 387.074 -2.00579 1.82976 0
M  V30 4113 C 385.53 -0.116089 3.59713 0
M  V30 4114 C 385.138 1.2154 4.31198 0
M  V30 4115 C 386.882 -0.610268 4.2009 0
M  V30 4116 C 384.789 1.09796 5.81119 0
M  V30 4117 H 383.719 -0.0175376 0.753796 0
M  V30 4118 H 386.37 0.647691 1.71689 0
M  V30 4119 H 384.752 -0.8652 3.86433 0
M  V30 4120 H 385.926 1.9783 4.16173 0
M  V30 4121 H 384.241 1.64352 3.82593 0
M  V30 4122 H 386.838 -0.715742 5.29888 0
M  V30 4123 H 387.181 -1.61064 3.8388 0
M  V30 4124 H 387.714 0.0824916 3.97714 0
M  V30 4125 H 384.453 2.0728 6.21864 0
M  V30 4126 H 383.973 0.376058 5.9862 0
M  V30 4127 H 385.652 0.779281 6.4229 0
M  V30 4128 N 385.784 -1.5574 0.241426 0
M  V30 4129 C 387.032 -1.98417 -0.384075 0
M  V30 4130 C 387.353 -1.13078 -1.58866 0
M  V30 4131 O 386.623 -0.212312 -1.94746 0
M  V30 4132 H 385.203 -0.732813 -0.144894 0
M  V30 4133 H 387.865 -1.9193 0.338943 0
M  V30 4134 H 386.961 -3.04219 -0.696939 0
M  V30 4135 N 387.262 0.0317525 -1.57568 0
M  V30 4136 C 388.487 0.738664 -1.938 0
M  V30 4137 C 388.912 1.68242 -0.841208 0
M  V30 4138 O 388.27 1.80157 0.203267 0
M  V30 4139 C 388.318 1.47417 -3.29091 0
M  V30 4140 O 387.422 2.5872 -3.2115 0
M  V30 4141 H 386.763 0.198856 -0.633524 0
M  V30 4142 H 389.293 -0.0119713 -2.04596 0
M  V30 4143 H 389.303 1.84468 -3.63917 0
M  V30 4144 H 387.978 0.781988 -4.08482 0
M  V30 4145 H 386.555 2.24231 -2.97951 0
M  V30 4146 N 388.74 1.54641 0.303973 0
M  V30 4147 C 389.988 1.73437 1.0375 0
M  V30 4148 C 390.309 0.521449 1.87899 0
M  V30 4149 O 389.579 -0.46432 1.90318 0
M  V30 4150 H 388.159 0.639518 0.386039 0
M  V30 4151 H 390.821 1.91988 0.335675 0
M  V30 4152 H 389.917 2.62235 1.69231 0
M  V30 4153 N 390.218 -0.567019 1.47046 0
M  V30 4154 C 391.165 -1.67489 1.58796 0
M  V30 4155 C 392.135 -1.60399 0.43144 0
M  V30 4156 O 393.32 -1.79378 0.650233 0
M  V30 4157 C 390.46 -3.05821 1.59899 0
M  V30 4158 C 389.573 -3.2342 2.86397 0
M  V30 4159 C 388.708 -4.52093 2.789 0
M  V30 4160 C 387.747 -4.6309 4.00267 0
M  V30 4161 N 386.884 -5.83106 3.91064 0
M  V30 4162 H 391.724 -1.56785 2.53422 0
M  V30 4163 H 389.261 -0.763896 1.2571 0
M  V30 4164 H 391.219 -3.8591 1.58522 0
M  V30 4165 H 389.849 -3.15384 0.687929 0
M  V30 4166 H 388.901 -2.3683 2.97684 0
M  V30 4167 H 390.213 -3.27412 3.76301 0
M  V30 4168 H 389.367 -5.4043 2.75718 0
M  V30 4169 H 388.106 -4.50565 1.86662 0
M  V30 4170 H 387.111 -3.73168 4.03765 0
M  V30 4171 H 388.336 -4.66386 4.93621 0
M  V30 4172 H 386.282 -5.82546 3.01623 0
M  V30 4173 H 386.199 -5.88434 4.74638 0
M  V30 4174 H 387.467 -6.73831 3.91882 0
M  V30 4175 N 391.696 -1.35014 -0.812953 0
M  V30 4176 C 392.945 -1.27269 -1.56479 0
M  V30 4177 C 393.258 0.152771 -1.95002 0
M  V30 4178 O 394.464 0.352451 -2.69203 0
M  V30 4179 C 392.92 -2.23159 -2.82362 0
M  V30 4180 C 392.528 -3.71016 -2.511 0
M  V30 4181 C 394.272 -2.24342 -3.60376 0
M  V30 4182 C 392.179 -4.58746 -3.73237 0
M  V30 4183 H 391.109 -0.472829 -0.587324 0
M  V30 4184 H 393.76 -1.6024 -0.894171 0
M  V30 4185 H 392.142 -1.83151 -3.51101 0
M  V30 4186 H 393.316 -4.1962 -1.90409 0
M  V30 4187 H 391.631 -3.72378 -1.86343 0
M  V30 4188 H 394.228 -2.87107 -4.51081 0
M  V30 4189 H 394.571 -1.24542 -3.97234 0
M  V30 4190 H 395.104 -2.62846 -2.98591 0
M  V30 4191 H 391.843 -5.59521 -3.41492 0
M  V30 4192 H 391.363 -4.14871 -4.33176 0
M  V30 4193 H 393.042 -4.73852 -4.40537 0
M  V30 4194 N 393.175 1.03435 -1.18907 0
M  V30 4195 C 394.085 2.15075 -0.937015 0
M  V30 4196 C 395.101 1.73706 0.101085 0
M  V30 4197 O 396.277 2.01232 -0.0822948 0
M  V30 4198 C 393.342 3.43458 -0.473057 0
M  V30 4199 C 392.403 3.99172 -1.57989 0
M  V30 4200 C 391.636 5.21427 -1.13797 0
M  V30 4201 O 391.859 5.704 0.000725941 0
M  V30 4202 O 390.793 5.69837 -1.9383 0
M  V30 4203 H 394.619 2.39198 -1.87131 0
M  V30 4204 H 392.204 1.13506 -0.971427 0
M  V30 4205 H 394.086 4.20811 -0.222702 0
M  V30 4206 H 392.761 3.20793 0.432869 0
M  V30 4207 H 391.668 3.23178 -1.88433 0
M  V30 4208 H 393.001 4.2619 -2.46217 0
M  V30 4209 N 394.653 0.992116 1.22453 0
M  V30 4210 C 396.069 0.702713 1.43297 0
M  V30 4211 C 396.269 -0.726909 1.87932 0
M  V30 4212 O 395.325 -1.49792 2.0327 0
M  V30 4213 C 396.638 1.70762 2.47509 0
M  V30 4214 C 398.186 1.72298 2.61309 0
M  V30 4215 C 398.661 2.71649 3.68742 0
M  V30 4216 N 400.152 2.70239 3.76199 0
M  V30 4217 C 400.887 3.43778 4.58917 0
M  V30 4218 N 400.383 4.26914 5.45633 0
M  V30 4219 N 402.176 3.32487 4.5322 0
M  V30 4220 H 394.327 1.91543 0.917871 0
M  V30 4221 H 396.59 0.826031 0.465162 0
M  V30 4222 H 396.296 2.73059 2.21657 0
M  V30 4223 H 396.17 1.49985 3.46099 0
M  V30 4224 H 398.557 0.706989 2.86506 0
M  V30 4225 H 398.638 1.97143 1.62997 0
M  V30 4226 H 398.282 3.73397 3.44292 0
M  V30 4227 H 398.212 2.44074 4.66622 0
M  V30 4228 H 400.703 2.09912 3.14237 0
M  V30 4229 H 401.016 4.79855 6.05771 0
M  V30 4230 H 399.361 4.31002 5.45218 0
M  V30 4231 H 402.552 2.6698 3.84499 0
M  V30 4232 H 402.725 3.90058 5.17454 0
M  V30 4233 N 396.131 -1.37776 0.765217 0
M  V30 4234 C 397.377 -2.00145 0.327072 0
M  V30 4235 C 397.71 -1.60607 -1.09175 0
M  V30 4236 O 396.985 -0.849127 -1.74986 0
M  V30 4237 C 397.268 -3.57109 0.46319 0
M  V30 4238 C 397.121 -4.06576 1.92395 0
M  V30 4239 C 398.44 -4.39888 -0.136473 0
M  V30 4240 H 395.559 -0.727113 0.120316 0
M  V30 4241 H 398.201 -1.63549 0.967039 0
M  V30 4242 H 396.351 -3.88414 -0.0816358 0
M  V30 4243 H 398.023 -3.85864 2.52798 0
M  V30 4244 H 396.266 -3.59011 2.43503 0
M  V30 4245 H 396.937 -5.15639 1.97028 0
M  V30 4246 H 399.413 -4.14803 0.328317 0
M  V30 4247 H 398.289 -5.48899 -0.0110582 0
M  V30 4248 H 398.55 -4.24758 -1.22608 0
M  V30 4249 N 397.609 -0.515225 -1.4894 0
M  V30 4250 C 399.025 -0.172099 -1.58669 0
M  V30 4251 C 399.225 1.32405 -1.51892 0
M  V30 4252 O 398.281 2.10116 -1.40027 0
M  V30 4253 C 399.594 -0.761533 -2.90897 0
M  V30 4254 C 401.142 -0.728926 -3.04394 0
M  V30 4255 C 401.617 -1.29667 -4.39261 0
M  V30 4256 N 403.108 -1.25799 -4.4579 0
M  V30 4257 C 403.843 -1.66733 -5.48623 0
M  V30 4258 N 403.339 -2.15327 -6.58488 0
M  V30 4259 N 405.132 -1.58061 -5.39419 0
M  V30 4260 H 397.283 -1.48778 -1.51588 0
M  V30 4261 H 399.546 -0.617968 -0.718901 0
M  V30 4262 H 399.252 -1.81136 -3.01468 0
M  V30 4263 H 399.126 -0.230106 -3.76497 0
M  V30 4264 H 401.513 0.312098 -2.93445 0
M  V30 4265 H 401.594 -1.29766 -2.20442 0
M  V30 4266 H 401.238 -2.33655 -4.50963 0
M  V30 4267 H 401.168 -0.703752 -5.21876 0
M  V30 4268 H 403.659 -0.902102 -3.66975 0
M  V30 4269 H 403.972 -2.44594 -7.33071 0
M  V30 4270 H 402.317 -2.19311 -6.59491 0
M  V30 4271 H 405.508 -1.19906 -4.52482 0
M  V30 4272 H 405.681 -1.90284 -6.19432 0
M  V30 4273 N 399.087 1.5561 -0.249682 0
M  V30 4274 C 400.05 2.20217 0.635394 0
M  V30 4275 C 401.05 1.17227 1.10066 0
M  V30 4276 O 402.24 1.42292 1.00492 0
M  V30 4277 C 399.372 2.84794 1.87363 0
M  V30 4278 H 400.565 2.99814 0.0716752 0
M  V30 4279 H 398.118 1.563 -0.000153234 0
M  V30 4280 H 398.853 2.09142 2.47851 0
M  V30 4281 H 398.638 3.60241 1.5482 0
M  V30 4282 H 400.128 3.3423 2.5036 0
M  V30 4283 N 400.565 -0.0233959 1.57583 0
M  V30 4284 C 401.528 -1.00693 2.05897 0
M  V30 4285 C 402.528 -1.28693 0.964092 0
M  V30 4286 O 403.718 -1.23602 1.22753 0
M  V30 4287 C 400.85 -2.33825 2.4807 0
M  V30 4288 H 402.043 -0.589476 2.9405 0
M  V30 4289 H 399.596 -0.270354 1.53944 0
M  V30 4290 H 400.331 -2.80307 1.6309 0
M  V30 4291 H 400.116 -2.1483 3.2801 0
M  V30 4292 H 401.606 -3.04426 2.85857 0
M  V30 4293 N 402.043 -1.548 -0.295768 0
M  V30 4294 C 403.289 -1.74588 -1.03184 0
M  V30 4295 C 403.622 -0.532962 -1.86744 0
M  V30 4296 O 402.897 0.469872 -1.88739 0
M  V30 4297 C 403.18 -3.03791 -1.93347 0
M  V30 4298 C 403.033 -4.35392 -1.12933 0
M  V30 4299 C 404.352 -3.28892 -2.92435 0
M  V30 4300 H 401.471 -0.635221 -0.373715 0
M  V30 4301 H 404.113 -1.87519 -0.30606 0
M  V30 4302 H 402.263 -2.92898 -2.55232 0
M  V30 4303 H 403.935 -4.58211 -0.532943 0
M  V30 4304 H 402.178 -4.31642 -0.432168 0
M  V30 4305 H 402.849 -5.22074 -1.79284 0
M  V30 4306 H 405.325 -3.39429 -2.4068 0
M  V30 4307 H 404.201 -4.20603 -3.52682 0
M  V30 4308 H 404.462 -2.47437 -3.6637 0
M  V30 4309 N 403.521 0.559213 -1.47345 0
M  V30 4310 C 404.431 1.69388 -1.62311 0
M  V30 4311 C 405.447 1.6648 -0.505993 0
M  V30 4312 O 406.623 1.85964 -0.773262 0
M  V30 4313 C 403.688 3.05894 -1.63185 0
M  V30 4314 C 402.749 3.19885 -2.86307 0
M  V30 4315 C 401.982 4.49879 -2.87131 0
M  V30 4316 O 402.205 5.35217 -1.97229 0
M  V30 4317 O 401.139 4.67618 -3.78968 0
M  V30 4318 H 404.965 1.59706 -2.58317 0
M  V30 4319 H 402.55 0.728989 -1.30407 0
M  V30 4320 H 404.432 3.87133 -1.66451 0
M  V30 4321 H 403.107 3.15964 -0.70345 0
M  V30 4322 H 402.014 2.38052 -2.88587 0
M  V30 4323 H 403.347 3.14718 -3.78435 0
M  V30 4324 N 404.999 1.35443 0.805782 0
M  V30 4325 C 405.962 1.28301 1.89925 0
M  V30 4326 C 406.962 0.194285 1.59622 0
M  V30 4327 O 408.152 0.448036 1.6834 0
M  V30 4328 C 405.284 0.984997 3.2636 0
M  V30 4329 H 406.477 2.2553 1.97677 0
M  V30 4330 H 404.03 1.19979 1.00173 0
M  V30 4331 H 404.765 0.016603 3.24296 0
M  V30 4332 H 404.55 1.77269 3.4974 0
M  V30 4333 H 406.04 0.960651 4.064 0
M  V30 4334 N 406.477 -1.02803 1.19454 0
M  V30 4335 C 407.387 -2.14575 0.948408 0
M  V30 4336 C 408.403 -1.73757 -0.091871 0
M  V30 4337 O 409.579 -2.01185 0.0929654 0
M  V30 4338 C 406.644 -3.43202 0.491265 0
M  V30 4339 C 405.705 -3.98328 1.60103 0
M  V30 4340 C 404.938 -5.20816 1.16561 0
M  V30 4341 O 405.161 -5.70392 0.0295238 0
M  V30 4342 O 404.095 -5.68801 1.96849 0
M  V30 4343 H 407.921 -2.38202 1.88397 0
M  V30 4344 H 405.506 -1.12989 0.977433 0
M  V30 4345 H 407.388 -4.20687 0.245015 0
M  V30 4346 H 406.063 -3.21018 -0.415851 0
M  V30 4347 H 404.97 -3.22174 1.90144 0
M  V30 4348 H 406.303 -4.24879 2.48473 0
M  V30 4349 N 407.956 -0.998596 -1.21925 0
M  V30 4350 C 409.184 -0.696286 -1.94832 0
M  V30 4351 C 409.599 0.740032 -1.73692 0
M  V30 4352 O 408.956 1.5 -1.03953 0
M  V30 4353 C 409.007 -0.999833 -3.47398 0
M  V30 4354 O 408.728 -2.37972 -3.67833 0
M  V30 4355 C 410.229 -0.716025 -4.37479 0
M  V30 4356 H 407.449 -0.257111 -0.619786 0
M  V30 4357 H 409.993 -1.33491 -1.54921 0
M  V30 4358 H 408.148 -0.406918 -3.85257 0
M  V30 4359 H 408.562 -2.48338 -4.61983 0
M  V30 4360 H 410.036 -0.978642 -5.43256 0
M  V30 4361 H 410.513 0.349968 -4.37803 0
M  V30 4362 H 411.119 -1.29025 -4.05256 0
M  V30 4363 N 409.434 1.37368 -0.772513 0
M  V30 4364 C 410.364 2.32856 -0.173304 0
M  V30 4365 C 411.345 1.55818 0.682262 0
M  V30 4366 O 412.53 1.84052 0.619566 0
M  V30 4367 C 409.66 3.40048 0.706007 0
M  V30 4368 C 408.614 4.27973 -0.0483144 0
M  V30 4369 C 407.94 5.26184 0.950491 0
M  V30 4370 C 409.24 5.07665 -1.22776 0
M  V30 4371 H 410.934 2.83217 -0.971002 0
M  V30 4372 H 408.48 1.3617 -0.468377 0
M  V30 4373 H 410.433 4.05827 1.13501 0
M  V30 4374 H 409.157 2.88214 1.53623 0
M  V30 4375 H 407.816 3.63726 -0.458107 0
M  V30 4376 H 407.464 4.7063 1.77529 0
M  V30 4377 H 407.164 5.85872 0.450314 0
M  V30 4378 H 408.688 5.94838 1.37842 0
M  V30 4379 H 410.102 5.66578 -0.875366 0
M  V30 4380 H 408.499 5.76681 -1.66007 0
M  V30 4381 H 409.569 4.40294 -2.03149 0
M  V30 4382 N 410.912 0.523116 1.48665 0
M  V30 4383 C 411.859 -0.243398 2.29513 0
M  V30 4384 C 412.829 -0.940139 1.36933 0
M  V30 4385 O 414.014 -0.942503 1.65896 0
M  V30 4386 C 411.154 -1.28855 3.20141 0
M  V30 4387 C 410.267 -0.60135 4.27794 0
M  V30 4388 C 409.402 -1.62884 5.05611 0
M  V30 4389 C 408.441 -0.924726 6.05075 0
M  V30 4390 N 407.578 -1.89744 6.75975 0
M  V30 4391 H 412.418 0.452234 2.94549 0
M  V30 4392 H 409.955 0.234858 1.45213 0
M  V30 4393 H 411.913 -1.90674 3.71079 0
M  V30 4394 H 410.543 -1.95266 2.57043 0
M  V30 4395 H 409.595 0.130623 3.80176 0
M  V30 4396 H 410.907 -0.0481585 4.98777 0
M  V30 4397 H 410.061 -2.32149 5.60528 0
M  V30 4398 H 408.8 -2.21592 4.34452 0
M  V30 4399 H 407.805 -0.217966 5.49368 0
M  V30 4400 H 409.03 -0.343851 6.78229 0
M  V30 4401 H 406.976 -2.47373 6.07571 0
M  V30 4402 H 406.893 -1.3955 7.43009 0
M  V30 4403 H 408.161 -2.58229 7.35485 0
M  V30 4404 N 412.39 -1.55475 0.257931 0
M  V30 4405 C 413.323 -2.179 -0.677862 0
M  V30 4406 C 414.301 -1.13448 -1.16483 0
M  V30 4407 O 415.485 -1.41889 -1.24095 0
M  V30 4408 C 412.612 -2.78851 -1.92249 0
M  V30 4409 C 411.658 -3.96454 -1.57246 0
M  V30 4410 S 412.491 -5.31349 -0.665501 0
M  V30 4411 C 413.647 -5.9576 -1.91889 0
M  V30 4412 H 413.88 -2.96934 -0.147396 0
M  V30 4413 H 411.413 -1.54342 0.0423023 0
M  V30 4414 H 413.371 -3.14602 -2.63697 0
M  V30 4415 H 412.032 -1.99742 -2.42409 0
M  V30 4416 H 411.225 -4.37731 -2.49814 0
M  V30 4417 H 410.827 -3.62038 -0.938325 0
M  V30 4418 H 413.119 -6.13947 -2.86487 0
M  V30 4419 H 414.062 -6.9094 -1.54942 0
M  V30 4420 H 414.47 -5.2494 -2.076 0
M  V30 4421 N 413.868 0.0150385 -1.57593 0
M  V30 4422 C 415.096 0.714395 -1.94175 0
M  V30 4423 C 415.511 1.68135 -0.858841 0
M  V30 4424 O 414.868 1.81766 0.163567 0
M  V30 4425 C 414.919 1.45933 -3.30735 0
M  V30 4426 O 414.64 0.531167 -4.34868 0
M  V30 4427 C 416.141 2.25456 -3.81686 0
M  V30 4428 H 413.361 0.199923 -0.640525 0
M  V30 4429 H 415.905 -0.0316096 -2.04476 0
M  V30 4430 H 414.06 2.15709 -3.21789 0
M  V30 4431 H 414.474 1.05509 -5.13778 0
M  V30 4432 H 415.948 2.731 -4.79709 0
M  V30 4433 H 416.425 3.07485 -3.13607 0
M  V30 4434 H 417.031 1.60727 -3.9376 0
M  V30 4435 N 415.346 1.54954 0.287554 0
M  V30 4436 C 416.762 1.46469 0.633964 0
M  V30 4437 C 416.962 0.666865 1.90145 0
M  V30 4438 O 416.018 0.179906 2.51858 0
M  V30 4439 C 417.331 2.90556 0.774454 0
M  V30 4440 C 418.879 3.00681 0.869462 0
M  V30 4441 C 419.354 4.45993 1.04184 0
M  V30 4442 N 420.845 4.4976 1.10772 0
M  V30 4443 C 421.58 5.59393 1.25964 0
M  V30 4444 N 421.076 6.78923 1.37968 0
M  V30 4445 N 422.869 5.47107 1.28959 0
M  V30 4446 H 415.02 2.05288 -0.545041 0
M  V30 4447 H 417.283 0.930305 -0.182308 0
M  V30 4448 H 416.989 3.51594 -0.086207 0
M  V30 4449 H 416.863 3.38743 1.6593 0
M  V30 4450 H 419.25 2.39749 1.7206 0
M  V30 4451 H 419.331 2.55769 -0.0396831 0
M  V30 4452 H 418.975 5.07524 0.195422 0
M  V30 4453 H 418.905 4.88548 1.96542 0
M  V30 4454 H 421.396 3.63651 1.02794 0
M  V30 4455 H 421.709 7.58231 1.49353 0
M  V30 4456 H 420.054 6.81763 1.34999 0
M  V30 4457 H 423.245 4.52668 1.19202 0
M  V30 4458 H 423.418 6.32595 1.40455 0
M  V30 4459 N 416.824 -0.551391 1.4764 0
M  V30 4460 C 417.756 -1.67333 1.56628 0
M  V30 4461 C 418.769 -1.56398 0.452045 0
M  V30 4462 O 419.958 -1.6325 0.721926 0
M  V30 4463 C 417.058 -3.05841 1.45994 0
M  V30 4464 C 416.231 -3.42472 2.72088 0
M  V30 4465 C 415.29 -4.60168 2.55209 0
M  V30 4466 O 414.316 -4.64458 3.2904 0
M  V30 4467 N 415.518 -5.57024 1.63416 0
M  V30 4468 H 418.283 -1.60066 2.53375 0
M  V30 4469 H 415.844 -0.738169 1.44093 0
M  V30 4470 H 417.836 -3.8242 1.32428 0
M  V30 4471 H 416.406 -3.07302 0.573071 0
M  V30 4472 H 415.626 -2.55284 3.00373 0
M  V30 4473 H 416.914 -3.63723 3.55785 0
M  V30 4474 H 416.312 -5.56319 1.02594 0
M  V30 4475 H 414.869 -6.32906 1.558 0
M  V30 4476 N 418.302 -1.35869 -0.798587 0
M  V30 4477 C 419.234 -1.25305 -1.91915 0
M  V30 4478 C 420.247 -0.174548 -1.61862 0
M  V30 4479 O 421.436 -0.428499 -1.73281 0
M  V30 4480 C 418.536 -0.9086 -3.26493 0
M  V30 4481 C 417.709 -2.08711 -3.84394 0
M  V30 4482 C 416.768 -1.71717 -4.97393 0
M  V30 4483 O 415.794 -2.43692 -5.14396 0
M  V30 4484 N 416.996 -0.645473 -5.769 0
M  V30 4485 H 419.761 -2.21849 -2.01502 0
M  V30 4486 H 417.322 -1.29143 -0.976408 0
M  V30 4487 H 419.314 -0.642455 -3.99568 0
M  V30 4488 H 417.884 -0.0325815 -3.12583 0
M  V30 4489 H 417.104 -2.51659 -3.03416 0
M  V30 4490 H 418.392 -2.87468 -4.19809 0
M  V30 4491 H 417.79 -0.047648 -5.6568 0
M  V30 4492 H 416.347 -0.43913 -6.50319 0
M  V30 4493 N 419.78 1.02168 -1.19998 0
M  V30 4494 C 421.026 1.7606 -1.01855 0
M  V30 4495 C 421.381 1.87178 0.445222 0
M  V30 4496 O 420.674 1.3828 1.32624 0
M  V30 4497 C 420.868 3.18081 -1.62969 0
M  V30 4498 C 420.697 3.20809 -3.15137 0
M  V30 4499 C 419.467 3.28342 -3.84083 0
M  V30 4500 C 421.665 3.07268 -4.1242 0
M  V30 4501 N 419.647 3.2052 -5.23584 0
M  V30 4502 C 421.018 3.0716 -5.38566 0
M  V30 4503 C 423.073 2.91448 -4.03686 0
M  V30 4504 C 421.776 2.92853 -6.56985 0
M  V30 4505 C 423.802 2.78494 -5.21723 0
M  V30 4506 C 423.164 2.79046 -6.46771 0
M  V30 4507 H 419.263 0.655192 -0.426905 0
M  V30 4508 H 421.847 1.21564 -1.52087 0
M  V30 4509 H 420.018 3.70882 -1.15329 0
M  V30 4510 H 421.75 3.80375 -1.38192 0
M  V30 4511 H 418.505 3.34859 -3.34913 0
M  V30 4512 H 418.929 3.19997 -5.96599 0
M  V30 4513 H 423.571 2.89838 -3.07821 0
M  V30 4514 H 421.289 2.93213 -7.53028 0
M  V30 4515 H 424.875 2.67278 -5.16773 0
M  V30 4516 H 423.755 2.69134 -7.36571 0
M  V30 4517 N 421.258 1.00505 1.21394 0
M  V30 4518 C 422.505 0.687774 1.90462 0
M  V30 4519 C 422.833 -0.78147 1.7811 0
M  V30 4520 O 422.088 -1.58208 1.1519 0
M  V30 4521 C 422.387 1.0546 3.41486 0
M  V30 4522 C 422.053 2.51812 3.74034 0
M  V30 4523 C 420.715 2.91804 3.82628 0
M  V30 4524 C 423.067 3.46614 3.8924 0
M  V30 4525 C 420.395 4.2556 4.03876 0
M  V30 4526 C 422.747 4.80044 4.11995 0
M  V30 4527 C 421.411 5.19759 4.18816 0
M  V30 4528 H 420.681 0.251674 0.696951 0
M  V30 4529 H 423.328 1.26349 1.43903 0
M  V30 4530 H 421.633 0.397133 3.89782 0
M  V30 4531 H 423.33 0.786976 3.93202 0
M  V30 4532 H 419.92 2.1982 3.67936 0
M  V30 4533 H 424.104 3.16883 3.81967 0
M  V30 4534 H 419.36 4.55901 4.07387 0
M  V30 4535 H 423.534 5.53439 4.22704 0
M  V30 4536 H 421.161 6.23418 4.35033 0
M  V30 4537 N 422.737 -1.36956 0.779787 0
M  V30 4538 C 424.153 -1.52817 0.460342 0
M  V30 4539 C 424.353 -1.7361 -1.02283 0
M  V30 4540 O 423.409 -1.76207 -1.80852 0
M  V30 4541 C 424.722 -2.71983 1.28241 0
M  V30 4542 C 426.27 -2.85849 1.27512 0
M  V30 4543 C 426.745 -4.08008 2.08072 0
M  V30 4544 N 428.236 -4.15135 2.05467 0
M  V30 4545 C 428.971 -5.08711 2.64577 0
M  V30 4546 N 428.467 -6.07792 3.32506 0
M  V30 4547 N 430.26 -5.01254 2.54363 0
M  V30 4548 H 422.411 -1.21713 1.74068 0
M  V30 4549 H 424.674 -0.593294 0.739396 0
M  V30 4550 H 424.38 -2.63109 2.33381 0
M  V30 4551 H 424.254 -3.65882 0.917088 0
M  V30 4552 H 426.641 -2.94189 0.231686 0
M  V30 4553 H 426.722 -1.92886 1.68014 0
M  V30 4554 H 426.366 -4.00429 3.12441 0
M  V30 4555 H 426.296 -5.001 1.64947 0
M  V30 4556 H 428.787 -3.44189 1.5602 0
M  V30 4557 H 429.1 -6.75739 3.74963 0
M  V30 4558 H 427.445 -6.08047 3.36606 0
M  V30 4559 H 430.636 -4.22795 2.00902 0
M  V30 4560 H 430.809 -5.73995 3.00722 0
M  V30 4561 N 424.215 -0.530993 -1.48385 0
M  V30 4562 C 425.464 0.00474348 -2.01699 0
M  V30 4563 C 425.777 1.35227 -1.41325 0
M  V30 4564 O 426.983 1.97643 -1.86144 0
M  V30 4565 C 425.439 0.0588473 -3.59852 0
M  V30 4566 C 425.047 -1.28385 -4.2921 0
M  V30 4567 C 426.791 0.543358 -4.21008 0
M  V30 4568 C 424.698 -1.19028 -5.79298 0
M  V30 4569 H 423.628 0.00554317 -0.75398 0
M  V30 4570 H 426.279 -0.674924 -1.70637 0
M  V30 4571 H 424.661 0.803612 -3.8776 0
M  V30 4572 H 425.835 -2.04426 -4.12973 0
M  V30 4573 H 424.15 -1.70418 -3.7993 0
M  V30 4574 H 426.747 0.631351 -5.3096 0
M  V30 4575 H 427.09 1.54937 -3.86394 0
M  V30 4576 H 427.623 -0.145754 -3.97533 0
M  V30 4577 H 424.362 -2.17147 -6.18488 0
M  V30 4578 H 423.882 -0.471246 -5.97946 0
M  V30 4579 H 425.561 -0.881365 -6.40969 0
M  V30 4580 N 425.693 1.55336 -0.266172 0
M  V30 4581 C 427.109 1.59356 0.0882065 0
M  V30 4582 C 427.309 1.2834 1.55342 0
M  V30 4583 O 426.365 1.03996 2.30089 0
M  V30 4584 C 427.678 2.99409 -0.278364 0
M  V30 4585 C 429.226 3.12196 -0.224243 0
M  V30 4586 C 429.701 4.545 -0.565123 0
M  V30 4587 N 431.192 4.60313 -0.51634 0
M  V30 4588 C 431.927 5.68434 -0.753013 0
M  V30 4589 N 431.423 6.84738 -1.05383 0
M  V30 4590 N 433.216 5.57942 -0.682414 0
M  V30 4591 H 425.367 1.73764 -1.22147 0
M  V30 4592 H 427.63 0.809822 -0.492841 0
M  V30 4593 H 427.336 3.2691 -1.29703 0
M  V30 4594 H 427.21 3.75228 0.385186 0
M  V30 4595 H 429.597 2.84464 0.78512 0
M  V30 4596 H 429.678 2.38609 -0.921922 0
M  V30 4597 H 429.322 4.82956 -1.57213 0
M  V30 4598 H 429.252 5.26374 0.154248 0
M  V30 4599 H 431.743 3.7676 -0.29335 0
M  V30 4600 H 432.056 7.63088 -1.22133 0
M  V30 4601 H 430.401 6.86375 -1.09151 0
M  V30 4602 H 433.592 4.65958 -0.44731 0
M  V30 4603 H 433.765 6.4213 -0.870248 0
M  V30 4604 N 427.171 -0.0066808 1.57599 0
M  V30 4605 C 428.118 -1.00024 2.08 0
M  V30 4606 C 429.088 -1.34549 0.973943 0
M  V30 4607 O 430.273 -1.44502 1.24595 0
M  V30 4608 C 427.413 -2.2891 2.58252 0
M  V30 4609 C 426.526 -2.00346 3.82734 0
M  V30 4610 C 425.661 -3.23265 4.21513 0
M  V30 4611 C 424.7 -2.90357 5.3885 0
M  V30 4612 N 423.837 -4.05793 5.72954 0
M  V30 4613 H 428.677 -0.563499 2.92624 0
M  V30 4614 H 426.214 -0.266592 1.44664 0
M  V30 4615 H 428.172 -3.04247 2.85464 0
M  V30 4616 H 426.802 -2.70265 1.76512 0
M  V30 4617 H 425.854 -1.15406 3.62471 0
M  V30 4618 H 427.166 -1.72086 4.68175 0
M  V30 4619 H 426.32 -4.06953 4.49971 0
M  V30 4620 H 425.059 -3.54657 3.34768 0
M  V30 4621 H 424.064 -2.05075 5.10122 0
M  V30 4622 H 425.289 -2.60219 6.27266 0
M  V30 4623 H 423.235 -4.37094 4.89167 0
M  V30 4624 H 423.152 -3.81034 6.52954 0
M  V30 4625 H 424.42 -4.90289 6.06001 0
M  V30 4626 N 428.649 -1.55105 -0.279332 0
M  V30 4627 C 429.612 -1.86783 -1.32834 0
M  V30 4628 C 430.612 -0.74199 -1.42657 0
M  V30 4629 O 431.802 -1.0102 -1.41918 0
M  V30 4630 C 428.934 -2.06746 -2.71052 0
M  V30 4631 H 430.127 -2.8055 -1.05979 0
M  V30 4632 H 427.68 -1.47499 -0.517087 0
M  V30 4633 H 428.415 -1.15339 -3.03097 0
M  V30 4634 H 428.2 -2.88711 -2.65309 0
M  V30 4635 H 429.69 -2.32549 -3.46858 0
M  V30 4636 N 430.127 0.543554 -1.4793 0
M  V30 4637 C 431.09 1.63156 -1.60975 0
M  V30 4638 C 432.09 1.53346 -0.483899 0
M  V30 4639 O 433.28 1.5726 -0.749339 0
M  V30 4640 C 430.412 3.02743 -1.56716 0
M  V30 4641 H 431.605 1.52934 -2.57975 0
M  V30 4642 H 429.158 0.764557 -1.36324 0
M  V30 4643 H 429.893 3.18484 -0.611418 0
M  V30 4644 H 429.678 3.11272 -2.38438 0
M  V30 4645 H 431.168 3.81871 -1.6901 0
M  V30 4646 N 431.605 1.3629 0.791371 0
M  V30 4647 C 432.535 1.33137 1.91825 0
M  V30 4648 C 433.516 0.203168 1.68882 0
M  V30 4649 O 434.701 0.400509 1.90025 0
M  V30 4650 C 431.831 1.11793 3.28816 0
M  V30 4651 C 430.785 2.21417 3.66277 0
M  V30 4652 C 430.111 1.85218 5.01596 0
M  V30 4653 C 431.411 3.63489 3.75064 0
M  V30 4654 H 433.105 2.2743 1.9472 0
M  V30 4655 H 430.651 1.09479 0.935437 0
M  V30 4656 H 432.604 1.08222 4.07266 0
M  V30 4657 H 431.328 0.139501 3.26302 0
M  V30 4658 H 429.987 2.2411 2.90121 0
M  V30 4659 H 429.635 0.859544 4.95602 0
M  V30 4660 H 429.335 2.58611 5.27631 0
M  V30 4661 H 430.859 1.832 5.82469 0
M  V30 4662 H 432.273 3.63034 4.43711 0
M  V30 4663 H 430.67 4.35771 4.12582 0
M  V30 4664 H 431.74 3.98536 2.76219 0
M  V30 4665 N 433.083 -1.0153 1.20538 0
M  V30 4666 C 434.331 -1.74803 1.01432 0
M  V30 4667 C 434.652 -1.8963 -0.454456 0
M  V30 4668 O 433.922 -1.43975 -1.32846 0
M  V30 4669 H 432.502 -0.647598 0.372324 0
M  V30 4670 H 435.164 -1.22402 1.5167 0
M  V30 4671 H 434.26 -2.75114 1.47373 0
M  V30 4672 N 434.561 -1.01147 -1.20859 0
M  V30 4673 C 435.791 -0.715872 -1.93801 0
M  V30 4674 C 436.199 0.726592 -1.74692 0
M  V30 4675 O 435.542 1.50397 -1.05482 0
M  V30 4676 C 435.604 -0.965269 -3.46299 0
M  V30 4677 C 435.268 -2.39584 -3.89164 0
M  V30 4678 C 436.265 -3.3764 -3.95342 0
M  V30 4679 C 433.95 -2.73522 -4.21297 0
M  V30 4680 C 435.944 -4.67698 -4.33056 0
M  V30 4681 C 433.631 -4.03794 -4.58687 0
M  V30 4682 C 434.629 -5.00693 -4.64538 0
M  V30 4683 O 434.317 -6.28635 -5.01072 0
M  V30 4684 H 434.049 -0.262524 -0.622942 0
M  V30 4685 H 436.603 -1.35413 -1.54443 0
M  V30 4686 H 434.833 -0.269847 -3.85757 0
M  V30 4687 H 436.522 -0.662051 -4.00464 0
M  V30 4688 H 437.288 -3.12757 -3.70686 0
M  V30 4689 H 433.167 -1.9879 -4.15937 0
M  V30 4690 H 436.711 -5.4333 -4.37537 0
M  V30 4691 H 432.608 -4.28459 -4.82797 0
M  V30 4692 H 433.376 -6.32847 -5.19083 0
M  V30 4693 N 436.039 1.36541 -0.78704 0
M  V30 4694 C 437.316 1.9355 -0.282424 0
M  V30 4695 C 437.696 1.71919 1.22503 0
M  V30 4696 O 437.044 1.07677 2.01539 0
M  V30 4697 C 437.254 3.4246 -0.672462 0
M  V30 4698 C 438.602 4.19582 -0.650863 0
M  V30 4699 O 439.626 3.50889 -0.612789 0
M  V30 4700 O 438.485 5.42106 -0.691623 0
M  V30 4701 H 435.579 0.824091 -0.0693 0
M  V30 4702 H 438.125 1.45736 -0.869423 0
M  V30 4703 H 436.897 3.51851 -1.71221 0
M  V30 4704 H 436.52 3.97556 -0.0592211 0
M  V30 4705 N 437.518 0.538854 1.48102 0
M  V30 4706 C 438.764 0.00801365 2.02798 0
M  V30 4707 C 439.097 -1.3309 1.41424 0
M  V30 4708 O 438.372 -1.86169 0.563158 0
M  V30 4709 C 438.655 -0.104589 3.59948 0
M  V30 4710 C 438.508 1.26012 4.31788 0
M  V30 4711 C 439.827 -0.827055 4.32259 0
M  V30 4712 H 436.946 0.00438624 0.736987 0
M  V30 4713 H 439.588 0.6976 1.7673 0
M  V30 4714 H 437.738 -0.691893 3.82289 0
M  V30 4715 H 439.41 1.88922 4.2084 0
M  V30 4716 H 437.653 1.83968 3.92859 0
M  V30 4717 H 438.324 1.13424 5.40221 0
M  V30 4718 H 440.8 -0.328578 4.14801 0
M  V30 4719 H 439.676 -0.87476 5.41885 0
M  V30 4720 H 439.937 -1.87927 4.0017 0
M  V30 4721 N 438.996 -1.55193 0.274407 0
M  V30 4722 C 440.407 -1.85358 -0.223488 0
M  V30 4723 C 440.758 -1.19642 -1.555 0
M  V30 4724 O 439.883 -0.484498 -2.10907 0
M  V30 4725 C 440.478 -3.36282 -0.412285 0
M  V30 4726 C 439.037 -3.66574 -0.854413 0
M  V30 4727 C 438.184 -2.7725 0.0527056 0
M  V30 4728 H 441.135 -1.50743 0.496215 0
M  V30 4729 H 441.156 -3.59349 -1.25094 0
M  V30 4730 H 440.668 -3.84083 0.556965 0
M  V30 4731 H 438.769 -3.24273 -1.83516 0
M  V30 4732 H 438.882 -4.74073 -0.692226 0
M  V30 4733 H 437.246 -2.50447 -0.463484 0
M  V30 4734 H 438.029 -3.27865 1.01783 0
M  V30 4735 O 440.513 -0.140013 -1.60892 0
M  V30 4736 H 441.204 0.455152 -1.88277 0
M  V30 END ATOM
M  V30 BEGIN BOND
M  V30 END BOND
M  V30 END CTAB
M  END
$$$$
