drugbank_target|P77425 Allantoate amidohydrolase (DB04380)
 OpenBabel12092119573D

  0  0  0     0  0            999 V3000
M  V30 BEGIN CTAB
M  V30 COUNTS 6353 6423 0 0 0
M  V30 BEGIN ATOM
M  V30 1 H -0.908 1.98254 -0.117106 0
M  V30 2 N 0 1.576 0 0
M  V30 3 C 0.933 2.03868 1.02534 0
M  V30 4 C 1.911 0.928543 1.3348 0
M  V30 5 O 3.095 1.19667 1.45644 0
M  V30 6 C 0.222 2.43627 2.35294 0
M  V30 7 C -0.732 3.65373 2.2001 0
M  V30 8 S 0.101 5.13292 1.52614 0
M  V30 9 C 1.257 5.56322 2.86805 0
M  V30 10 H 1.49 2.90518 0.631377 0
M  V30 11 H -0.977 1.52953 0.210867 0
M  V30 12 H 0.981 2.67203 3.11629 0
M  V30 13 H -0.358 1.57376 2.7183 0
M  V30 14 H -1.165 3.90944 3.18086 0
M  V30 15 H -1.563 3.418 1.51819 0
M  V30 16 H 0.729 5.58782 3.83104 0
M  V30 17 H 1.672 6.56266 2.65933 0
M  V30 18 H 2.08 4.83886 2.90714 0
M  V30 19 N 1.4781 -0.272755 1.55222 0
M  V30 20 C 2.7271 -1.00211 1.75045 0
M  V30 21 C 3.0401 -1.87441 0.559046 0
M  V30 22 O 4.2461 -2.63856 0.639698 0
M  V30 23 C 2.7021 -1.83165 3.09804 0
M  V30 24 C 2.3101 -1.008 4.36513 0
M  V30 25 C 4.0541 -2.55529 3.38977 0
M  V30 26 C 1.9611 -1.83194 5.62311 0
M  V30 27 H 0.8911 -0.377878 0.652476 0
M  V30 28 H 3.5421 -0.257776 1.8168 0
M  V30 29 H 1.9241 -2.61694 2.97207 0
M  V30 30 H 3.0981 -0.266855 4.60027 0
M  V30 31 H 1.4131 -0.398897 4.14485 0
M  V30 32 H 4.0101 -3.17578 4.30172 0
M  V30 33 H 4.3531 -3.25825 2.59121 0
M  V30 34 H 4.8861 -1.84029 3.52673 0
M  V30 35 H 1.6251 -1.17318 6.44916 0
M  V30 36 H 1.1451 -2.54905 5.4294 0
M  V30 37 H 2.8241 -2.40552 6.00619 0
M  V30 38 N 2.9562 -1.48159 -0.537278 0
M  V30 39 C 4.1842 -1.59454 -1.31841 0
M  V30 40 C 4.5992 -0.252065 -1.8711 0
M  V30 41 O 3.9562 0.757621 -1.66031 0
M  V30 42 C 4.0072 -2.63546 -2.47439 0
M  V30 43 O 3.7282 -3.92583 -1.94449 0
M  V30 44 C 5.2292 -2.85212 -3.39366 0
M  V30 45 H 2.4492 -0.53785 -0.401196 0
M  V30 46 H 4.9932 -1.93932 -0.648891 0
M  V30 47 H 3.1482 -2.31946 -3.1029 0
M  V30 48 H 3.5622 -4.49629 -2.70063 0
M  V30 49 H 5.0362 -3.61863 -4.16844 0
M  V30 50 H 5.5132 -1.93765 -3.94147 0
M  V30 51 H 6.1192 -3.18086 -2.82314 0
M  V30 52 N 4.4343 0.785586 -1.36625 0
M  V30 53 C 5.3843 1.88822 -1.27789 0
M  V30 54 C 6.3683 1.60014 -0.168579 0
M  V30 55 O 7.5603 1.72381 -0.401737 0
M  V30 56 C 4.6893 3.26092 -1.07327 0
M  V30 57 C 3.7753 3.60897 -2.22743 0
M  V30 58 N 4.1663 3.66982 -3.48077 0
M  V30 59 C 2.4643 3.90981 -2.14593 0
M  V30 60 C 3.1653 3.98137 -4.24101 0
M  V30 61 N 2.1413 4.13319 -3.53084 0
M  V30 62 H 5.9433 1.91759 -2.22723 0
M  V30 63 H 3.4573 0.981311 -1.29399 0
M  V30 64 H 5.4543 4.04954 -0.990842 0
M  V30 65 H 4.1143 3.24428 -0.132977 0
M  V30 66 H 5.1253 3.49531 -3.82163 0
M  V30 67 H 1.8023 3.9722 -1.2854 0
M  V30 68 H 3.1923 4.09737 -5.32509 0
M  V30 69 N 5.9124 1.20967 1.01018 0
M  V30 70 C 7.1594 1.02374 1.74716 0
M  V30 71 C 7.4874 -0.443375 1.89379 0
M  V30 72 O 6.7424 -1.34535 1.42123 0
M  V30 73 C 7.0414 1.65997 3.16512 0
M  V30 74 C 6.7074 3.15831 3.2181 0
M  V30 75 C 5.3694 3.56719 3.22963 0
M  V30 76 C 7.7214 4.11816 3.19464 0
M  V30 77 C 5.0494 4.92107 3.19449 0
M  V30 78 C 7.4014 5.47158 3.17491 0
M  V30 79 C 6.0654 5.87451 3.16951 0
M  V30 80 H 5.3354 0.374614 0.639332 0
M  V30 81 H 7.9824 1.50485 1.18434 0
M  V30 82 H 6.2874 1.10166 3.75993 0
M  V30 83 H 7.9844 1.49119 3.72242 0
M  V30 84 H 4.5744 2.83263 3.21652 0
M  V30 85 H 8.7584 3.81257 3.17737 0
M  V30 86 H 4.0144 5.22579 3.17366 0
M  V30 87 H 8.1884 6.21274 3.14629 0
M  V30 88 H 5.8154 6.92329 3.13983 0
M  V30 89 N 7.3905 -1.2043 1.01659 0
M  V30 90 C 8.8065 -1.41852 0.731442 0
M  V30 91 C 9.0065 -1.89358 -0.688898 0
M  V30 92 O 8.0625 -2.06247 -1.45666 0
M  V30 93 C 9.3755 -2.44019 1.75714 0
M  V30 94 C 10.9235 -2.57785 1.77527 0
M  V30 95 C 11.3985 -3.63194 2.79023 0
M  V30 96 N 12.8895 -3.70678 2.77763 0
M  V30 97 C 13.6245 -4.51897 3.52954 0
M  V30 98 N 13.1205 -5.36921 4.37821 0
M  V30 99 N 14.9135 -4.4643 3.41551 0
M  V30 100 H 7.0645 -0.879093 1.93354 0
M  V30 101 H 9.3275 -0.448425 0.835236 0
M  V30 102 H 9.0335 -2.1611 2.77469 0
M  V30 103 H 8.9075 -3.43007 1.56927 0
M  V30 104 H 11.2945 -2.85023 0.764569 0
M  V30 105 H 11.3755 -1.58992 2.00387 0
M  V30 106 H 11.0195 -3.36699 3.80258 0
M  V30 107 H 10.9495 -4.61609 2.53425 0
M  V30 108 H 13.4405 -3.09944 2.16201 0
M  V30 109 H 13.7535 -5.95981 4.91962 0
M  V30 110 H 12.0985 -5.36424 4.41899 0
M  V30 111 H 15.2895 -3.79042 2.74672 0
M  V30 112 H 15.4625 -5.09491 4.00404 0
M  V30 113 N 8.8686 -0.792821 -1.36206 0
M  V30 114 C 9.8006 -0.151469 -2.28699 0
M  V30 115 C 10.8136 0.641262 -1.49638 0
M  V30 116 O 12.0026 0.475885 -1.72039 0
M  V30 117 C 9.1026 0.808424 -3.29117 0
M  V30 118 C 8.2756 0.0650202 -4.37352 0
M  V30 119 C 7.3346 0.941358 -5.17711 0
M  V30 120 O 6.3606 0.397352 -5.67811 0
M  V30 121 N 7.5626 2.2652 -5.3448 0
M  V30 122 H 10.3276 -0.945982 -2.84379 0
M  V30 123 H 7.8886 -0.647032 -1.48409 0
M  V30 124 H 9.8806 1.3986 -3.79765 0
M  V30 125 H 8.4506 1.5038 -2.74052 0
M  V30 126 H 7.6706 -0.706255 -3.87822 0
M  V30 127 H 8.9586 -0.447847 -5.06825 0
M  V30 128 H 8.3566 2.73128 -4.95396 0
M  V30 129 H 6.9136 2.80493 -5.88359 0
M  V30 130 N 10.3467 1.47872 -0.545128 0
M  V30 131 C 11.3097 2.28337 0.198717 0
M  V30 132 C 12.3097 1.36255 0.853888 0
M  V30 133 O 13.4997 1.59003 0.711606 0
M  V30 134 C 10.6317 3.15585 1.28915 0
M  V30 135 H 11.8247 2.95567 -0.507941 0
M  V30 136 H 9.3777 1.53362 -0.301616 0
M  V30 137 H 10.1127 2.53019 2.02859 0
M  V30 138 H 9.8977 3.83337 0.824309 0
M  V30 139 H 11.3877 3.76243 1.81194 0
M  V30 140 N 11.8248 0.280983 1.55075 0
M  V30 141 C 13.0738 -0.334784 1.98902 0
M  V30 142 C 13.3868 -1.56534 1.17288 0
M  V30 143 O 14.5928 -2.25443 1.51287 0
M  V30 144 C 13.0488 -0.646994 3.54037 0
M  V30 145 C 12.6568 0.564085 4.44435 0
M  V30 146 C 14.4008 -1.22506 4.06439 0
M  V30 147 C 12.3078 0.226137 5.90967 0
M  V30 148 H 11.2378 -0.128866 0.742906 0
M  V30 149 H 13.8888 0.386556 1.79382 0
M  V30 150 H 12.2708 -1.42739 3.6938 0
M  V30 151 H 13.4448 1.34082 4.40861 0
M  V30 152 H 11.7598 1.0594 4.02698 0
M  V30 153 H 14.3568 -1.49182 5.13468 0
M  V30 154 H 14.6998 -2.16085 3.55827 0
M  V30 155 H 15.2328 -0.50682 3.94558 0
M  V30 156 H 11.9718 1.12996 6.45687 0
M  V30 157 H 11.4918 -0.513717 5.97596 0
M  V30 158 H 13.1708 -0.179539 6.46751 0
M  V30 159 N 13.3029 -1.57598 0.00835791 0
M  V30 160 C 14.2129 -2.12385 -0.996487 0
M  V30 161 C 15.2289 -1.07108 -1.37127 0
M  V30 162 O 16.4049 -1.39055 -1.4569 0
M  V30 163 C 13.4699 -2.62314 -2.26699 0
M  V30 164 C 12.5309 -3.82225 -1.95456 0
M  V30 165 C 11.7639 -4.29763 -3.16449 0
M  V30 166 O 11.9869 -3.76584 -4.28416 0
M  V30 167 O 10.9209 -5.21832 -2.99958 0
M  V30 168 H 14.7469 -2.98479 -0.560725 0
M  V30 169 H 12.3319 -1.47903 -0.210987 0
M  V30 170 H 14.2139 -2.94589 -3.01322 0
M  V30 171 H 12.8889 -1.79313 -2.69497 0
M  V30 172 H 11.7959 -3.54909 -1.18282 0
M  V30 173 H 13.1289 -4.66324 -1.57489 0
M  V30 174 N 14.781 0.264519 -1.55364 0
M  V30 175 C 15.691 1.34902 -1.91934 0
M  V30 176 C 16.707 1.53595 -0.817593 0
M  V30 177 O 17.883 1.67558 -1.11742 0
M  V30 178 C 14.948 2.68676 -2.19121 0
M  V30 179 C 14.009 2.58657 -3.4263 0
M  V30 180 C 13.242 3.86051 -3.68511 0
M  V30 181 O 13.465 4.87126 -2.96757 0
M  V30 182 O 12.399 3.85744 -4.62045 0
M  V30 183 H 16.225 1.06883 -2.8427 0
M  V30 184 H 13.81 0.463775 -1.42019 0
M  V30 185 H 15.692 3.47759 -2.37995 0
M  V30 186 H 14.367 2.96463 -1.29966 0
M  V30 187 H 13.274 1.7792 -3.29082 0
M  V30 188 H 14.607 2.35818 -4.32031 0
M  V30 189 N 16.2591 1.48442 0.529413 0
M  V30 190 C 17.4871 1.60151 1.30994 0
M  V30 191 C 17.9021 0.261985 1.86973 0
M  V30 192 O 17.2591 -0.748805 1.66431 0
M  V30 193 C 17.3101 2.64854 2.46038 0
M  V30 194 O 17.0311 3.93608 1.92365 0
M  V30 195 C 18.5321 2.87007 3.37849 0
M  V30 196 H 15.7521 0.539971 0.398338 0
M  V30 197 H 18.2961 1.94273 0.638597 0
M  V30 198 H 16.4511 2.33589 3.09055 0
M  V30 199 H 16.8651 4.51055 2.67675 0
M  V30 200 H 18.3391 3.64068 4.14919 0
M  V30 201 H 18.8161 1.95852 3.93114 0
M  V30 202 H 19.4221 3.19579 2.80623 0
M  V30 203 N 17.7372 -0.778329 1.37039 0
M  V30 204 C 18.6672 -1.90546 1.34962 0
M  V30 205 C 19.6482 -1.68681 0.219274 0
M  V30 206 O 20.8332 -1.89634 0.418624 0
M  V30 207 C 17.9632 -3.27734 1.14925 0
M  V30 208 C 16.9172 -3.64147 2.24902 0
M  V30 209 C 16.2432 -4.99806 1.89996 0
M  V30 210 C 17.5432 -3.71579 3.67051 0
M  V30 211 H 19.2372 -1.92541 2.29277 0
M  V30 212 H 16.7832 -0.924948 1.10366 0
M  V30 213 H 18.7362 -4.06215 1.12104 0
M  V30 214 H 17.4602 -3.26154 0.170631 0
M  V30 215 H 16.1192 -2.8797 2.26868 0
M  V30 216 H 15.7672 -4.94759 0.906796 0
M  V30 217 H 15.4672 -5.25139 2.63634 0
M  V30 218 H 16.9912 -5.80694 1.88749 0
M  V30 219 H 18.4052 -4.40227 3.67251 0
M  V30 220 H 16.8022 -4.08405 4.39688 0
M  V30 221 H 17.8722 -2.72404 4.01154 0
M  V30 222 N 19.2153 -1.21501 -1.00376 0
M  V30 223 C 20.6263 -1.03146 -1.55621 0
M  V30 224 C 20.9773 0.408375 -1.91903 0
M  V30 225 O 20.1023 1.29177 -1.73616 0
M  V30 226 C 20.6973 -1.86612 -2.82775 0
M  V30 227 C 19.2563 -1.72586 -3.34501 0
M  V30 228 C 18.4033 -1.83747 -2.07683 0
M  V30 229 H 21.3543 -1.35505 -0.826081 0
M  V30 230 H 21.3753 -1.3771 -3.54706 0
M  V30 231 H 20.8873 -2.91399 -2.56336 0
M  V30 232 H 18.9883 -0.704877 -3.65872 0
M  V30 233 H 19.1013 -2.54623 -4.05837 0
M  V30 234 H 17.4653 -1.27069 -2.20739 0
M  V30 235 H 18.2483 -2.90044 -1.83655 0
M  V30 236 N 20.6934 1.19889 -1.02296 0
M  V30 237 C 21.9394 1.89973 -0.726759 0
M  V30 238 C 22.2944 1.7776 0.73614 0
M  V30 239 O 21.5874 1.15523 1.52856 0
M  V30 240 C 21.7814 3.39883 -1.10518 0
M  V30 241 C 21.6104 3.66684 -2.60332 0
M  V30 242 C 20.3804 3.85045 -3.27213 0
M  V30 243 C 22.5784 3.68727 -3.58532 0
M  V30 244 N 20.5604 3.99422 -4.66192 0
M  V30 245 C 21.9314 3.88604 -4.83101 0
M  V30 246 C 23.9864 3.51722 -3.52414 0
M  V30 247 C 22.6894 3.9324 -6.02292 0
M  V30 248 C 24.7154 3.57632 -4.71013 0
M  V30 249 C 24.0774 3.77988 -5.94394 0
M  V30 250 H 20.1764 0.714551 -0.317712 0
M  V30 251 H 22.7604 1.44123 -1.30907 0
M  V30 252 H 20.9314 3.8447 -0.551142 0
M  V30 253 H 22.6634 3.97464 -0.761853 0
M  V30 254 H 19.4184 3.83689 -2.77632 0
M  V30 255 H 19.8424 4.10473 -5.38368 0
M  V30 256 H 24.4844 3.34945 -2.58015 0
M  V30 257 H 22.2024 4.08811 -6.97065 0
M  V30 258 H 25.7884 3.45773 -4.67902 0
M  V30 259 H 24.6684 3.82428 -6.8463 0
M  V30 260 N 22.1715 0.800033 1.35784 0
M  V30 261 C 23.1015 0.220184 2.3246 0
M  V30 262 C 24.0825 -0.65073 1.57161 0
M  V30 263 O 25.2675 -0.582359 1.85263 0
M  V30 264 C 22.3975 -0.637353 3.41402 0
M  V30 265 C 21.3515 0.134531 4.27789 0
M  V30 266 C 20.6775 -0.844285 5.27992 0
M  V30 267 C 21.9775 1.32979 5.05088 0
M  V30 268 H 23.6715 1.02787 2.81203 0
M  V30 269 H 21.2175 0.495717 1.35199 0
M  V30 270 H 23.1705 -1.05302 4.08031 0
M  V30 271 H 21.8945 -1.47785 2.91251 0
M  V30 272 H 20.5535 0.531296 3.6273 0
M  V30 273 H 20.2015 -1.68011 4.74111 0
M  V30 274 H 19.9015 -0.332184 5.8666 0
M  V30 275 H 21.4255 -1.2583 5.97494 0
M  V30 276 H 22.8395 0.98934 5.64699 0
M  V30 277 H 21.2365 1.77593 5.7322 0
M  V30 278 H 22.3065 2.11978 4.36111 0
M  V30 279 N 23.6496 -1.47581 0.552962 0
M  V30 280 C 24.8746 -2.07378 0.0300593 0
M  V30 281 C 25.2996 -1.40355 -1.25229 0
M  V30 282 O 24.6576 -0.477099 -1.7491 0
M  V30 283 C 24.7056 -3.60274 -0.153231 0
M  V30 284 O 23.8096 -3.94041 -1.21678 0
M  V30 285 H 23.1506 -0.662158 0.0494182 0
M  V30 286 H 25.6806 -1.89662 0.767434 0
M  V30 287 H 25.6906 -4.0633 -0.368761 0
M  V30 288 H 24.3656 -4.08455 0.783397 0
M  V30 289 H 22.9426 -3.59735 -0.982079 0
M  V30 290 N 25.1277 -0.289203 -1.54924 0
M  V30 291 C 26.3527 0.329299 -2.04769 0
M  V30 292 C 26.7777 1.4763 -1.16564 0
M  V30 293 O 26.1357 1.80527 -0.167186 0
M  V30 294 C 26.1837 0.774438 -3.52186 0
M  V30 295 O 25.2877 1.88038 -3.67036 0
M  V30 296 H 24.6287 0.0659259 -0.660719 0
M  V30 297 H 27.1587 -0.42761 -2.00082 0
M  V30 298 H 27.1687 1.06642 -3.93816 0
M  V30 299 H 25.8437 -0.0646707 -4.1585 0
M  V30 300 H 24.4207 1.58985 -3.3731 0
M  V30 301 N 26.6058 1.57591 -0.0167156 0
M  V30 302 C 27.8528 1.91283 0.664597 0
M  V30 303 C 28.1808 0.891949 1.72842 0
M  V30 304 O 27.4358 -0.100931 1.9544 0
M  V30 305 C 27.7348 3.3172 1.33029 0
M  V30 306 C 27.4008 4.4914 0.398047 0
M  V30 307 C 26.0628 4.80992 0.141421 0
M  V30 308 C 28.4148 5.20634 -0.242825 0
M  V30 309 C 25.7428 5.81703 -0.764092 0
M  V30 310 C 28.0948 6.22311 -1.13632 0
M  V30 311 C 26.7588 6.52611 -1.40196 0
M  V30 312 H 26.0288 0.699956 0.243193 0
M  V30 313 H 28.6758 1.9135 -0.0758267 0
M  V30 314 H 26.9808 3.27856 2.14517 0
M  V30 315 H 28.6778 3.55055 1.86379 0
M  V30 316 H 25.2678 4.24262 0.608238 0
M  V30 317 H 29.4518 4.96267 -0.0576019 0
M  V30 318 H 24.7078 6.03532 -0.977732 0
M  V30 319 H 28.8818 6.76834 -1.63917 0
M  V30 320 H 26.5088 7.30467 -2.10529 0
M  V30 321 N 28.0839 -0.256276 1.55502 0
M  V30 322 C 29.3319 -0.983672 1.76545 0
M  V30 323 C 29.6529 -1.86206 0.578982 0
M  V30 324 O 28.9229 -1.91656 -0.405577 0
M  V30 325 H 27.5029 -0.366191 0.651086 0
M  V30 326 H 30.1649 -0.276479 1.92929 0
M  V30 327 H 29.2609 -1.61087 2.67315 0
M  V30 328 N 29.562 -1.4872 -0.521534 0
M  V30 329 C 30.525 -1.63379 -1.60748 0
M  V30 330 C 31.525 -0.50661 -1.52611 0
M  V30 331 O 32.715 -0.772601 -1.5613 0
M  V30 332 C 29.847 -1.61192 -3.00383 0
M  V30 333 H 31.04 -2.60217 -1.49087 0
M  V30 334 H 28.593 -1.37444 -0.744235 0
M  V30 335 H 29.328 -0.65863 -3.17541 0
M  V30 336 H 29.113 -2.43032 -3.07698 0
M  V30 337 H 30.603 -1.7466 -3.7932 0
M  V30 338 N 31.0401 0.771051 -1.3745 0
M  V30 339 C 32.3171 1.519 -1.23231 0
M  V30 340 C 32.6971 2.10383 0.173809 0
M  V30 341 O 32.0451 1.95583 1.18151 0
M  V30 342 C 32.2551 2.59933 -2.32886 0
M  V30 343 C 33.6031 3.27316 -2.70461 0
M  V30 344 O 34.6271 2.70228 -2.32068 0
M  V30 345 O 33.4861 4.30531 -3.36608 0
M  V30 346 H 30.5801 0.672803 -0.480901 0
M  V30 347 H 33.1261 0.807957 -1.49232 0
M  V30 348 H 31.8981 2.14842 -3.27045 0
M  V30 349 H 31.5211 3.38637 -2.08353 0
M  V30 350 N 32.5182 1.22032 0.997298 0
M  V30 351 C 33.9292 1.0397 1.55071 0
M  V30 352 C 34.2802 -0.398192 1.92117 0
M  V30 353 O 33.4052 -1.28254 1.74298 0
M  V30 354 C 34.0002 1.88109 2.81781 0
M  V30 355 C 32.5592 1.74357 3.33581 0
M  V30 356 C 31.7062 1.84846 2.06706 0
M  V30 357 H 34.6572 1.35941 0.818883 0
M  V30 358 H 34.6782 1.39589 3.53971 0
M  V30 359 H 34.1902 2.92754 2.54787 0
M  V30 360 H 32.2912 0.72427 3.65493 0
M  V30 361 H 32.4042 2.56772 4.04481 0
M  V30 362 H 30.7682 1.28238 2.20062 0
M  V30 363 H 31.5512 2.91014 1.82114 0
M  V30 364 N 33.9963 -1.19345 1.0293 0
M  V30 365 C 34.9593 -2.20793 0.615069 0
M  V30 366 C 35.9593 -1.57553 -0.321533 0
M  V30 367 O 37.1493 -1.73862 -0.108483 0
M  V30 368 C 34.2813 -3.40754 -0.0999222 0
M  V30 369 H 35.4743 -2.58955 1.51269 0
M  V30 370 H 33.0273 -1.3303 0.820534 0
M  V30 371 H 33.7623 -3.0811 -1.01187 0
M  V30 372 H 33.5473 -3.87889 0.57309 0
M  V30 373 H 35.0373 -4.15898 -0.376645 0
M  V30 374 N 35.4744 -0.807222 -1.35358 0
M  V30 375 C 36.7224 -0.387122 -1.98358 0
M  V30 376 C 37.0434 1.04942 -1.64354 0
M  V30 377 O 36.3134 1.72615 -0.926339 0
M  V30 378 H 34.8934 -0.140154 -0.733734 0
M  V30 379 H 37.5554 -1.0332 -1.6526 0
M  V30 380 H 36.6514 -0.493352 -3.08176 0
M  V30 381 N 36.9525 1.47285 -0.560781 0
M  V30 382 C 38.2005 2.02064 -0.0379868 0
M  V30 383 C 38.5215 1.43711 1.31803 0
M  V30 384 O 37.7915 0.61362 1.86042 0
M  V30 385 H 36.3715 0.746918 -0.0110531 0
M  V30 386 H 39.0335 1.80648 -0.731598 0
M  V30 387 H 38.1295 3.12064 0.0474463 0
M  V30 388 N 38.4306 0.297415 1.54768 0
M  V30 389 C 39.3636 -0.622188 2.19554 0
M  V30 390 C 40.3416 -1.13558 1.16376 0
M  V30 391 O 41.5256 -1.20444 1.45002 0
M  V30 392 C 38.6526 -1.8509 2.83653 0
M  V30 393 C 37.6986 -1.47106 4.00328 0
M  V30 394 S 38.5316 -0.53006 5.3287 0
M  V30 395 C 39.6876 -1.76665 6.0045 0
M  V30 396 H 39.9206 -0.0717806 2.97213 0
M  V30 397 H 37.4536 0.0815678 1.54184 0
M  V30 398 H 39.4116 -2.55605 3.21211 0
M  V30 399 H 38.0726 -2.37247 2.05846 0
M  V30 400 H 37.2656 -2.38594 4.43947 0
M  V30 401 H 36.8676 -0.845885 3.64309 0
M  V30 402 H 39.1596 -2.7077 6.21039 0
M  V30 403 H 40.1026 -1.37308 6.9466 0
M  V30 404 H 40.5106 -1.94174 5.30054 0
M  V30 405 N 39.9087 -1.5758 0.0250728 0
M  V30 406 C 41.1367 -1.9593 -0.664747 0
M  V30 407 C 41.5517 -0.901352 -1.65895 0
M  V30 408 O 40.9087 0.117255 -1.82123 0
M  V30 409 C 40.9597 -3.34342 -1.37468 0
M  V30 410 O 40.6807 -4.36079 -0.420324 0
M  V30 411 C 42.1817 -3.873 -2.1567 0
M  V30 412 H 39.4017 -0.645405 -0.183557 0
M  V30 413 H 41.9457 -2.04329 0.0836372 0
M  V30 414 H 40.1007 -3.27175 -2.0745 0
M  V30 415 H 40.5147 -5.16297 -0.923991 0
M  V30 416 H 41.9887 -4.86504 -2.60803 0
M  V30 417 H 42.4657 -3.21331 -2.99405 0
M  V30 418 H 43.0717 -3.97723 -1.50654 0
M  V30 419 N 41.3868 0.248026 -1.55636 0
M  V30 420 C 42.8028 0.596483 -1.48035 0
M  V30 421 C 43.0028 1.88386 -0.715039 0
M  V30 422 O 42.0588 2.51319 -0.243944 0
M  V30 423 C 43.3718 0.700258 -2.92433 0
M  V30 424 C 44.9198 0.792659 -3.02797 0
M  V30 425 C 45.3948 0.928005 -4.485 0
M  V30 426 N 46.8858 0.992903 -4.52433 0
M  V30 427 C 47.6208 1.11687 -5.62418 0
M  V30 428 N 47.1168 1.20645 -6.82214 0
M  V30 429 N 48.9098 1.14994 -5.50212 0
M  V30 430 H 41.0608 -0.597109 -2.03834 0
M  V30 431 H 43.3238 -0.205925 -0.925364 0
M  V30 432 H 43.0298 -0.175658 -3.51261 0
M  V30 433 H 42.9038 1.57255 -3.42857 0
M  V30 434 H 45.2908 1.65903 -2.4405 0
M  V30 435 H 45.3718 -0.104762 -2.55585 0
M  V30 436 H 45.0158 0.0661971 -5.07857 0
M  V30 437 H 44.9458 1.84045 -4.93391 0
M  V30 438 H 47.4368 0.935064 -3.66149 0
M  V30 439 H 47.7498 1.30008 -7.61786 0
M  V30 440 H 46.0948 1.17605 -6.84977 0
M  V30 441 H 49.2858 1.07643 -4.55555 0
M  V30 442 H 49.4588 1.24311 -6.35965 0
M  V30 443 N 42.8649 1.48995 0.513639 0
M  V30 444 C 43.7949 1.67636 1.62544 0
M  V30 445 C 44.7759 0.525087 1.61793 0
M  V30 446 O 45.9609 0.759502 1.78732 0
M  V30 447 C 43.0909 1.73114 3.01079 0
M  V30 448 C 42.0449 2.87905 3.16693 0
M  V30 449 C 41.3709 2.78486 4.56453 0
M  V30 450 C 42.6709 4.29005 2.97913 0
M  V30 451 H 44.3649 2.60716 1.47198 0
M  V30 452 H 41.9109 1.25465 0.706714 0
M  V30 453 H 43.8639 1.84742 3.78746 0
M  V30 454 H 42.5879 0.766241 3.17484 0
M  V30 455 H 41.2469 2.75859 2.41448 0
M  V30 456 H 40.8949 1.7993 4.69717 0
M  V30 457 H 40.5949 3.55523 4.67843 0
M  V30 458 H 42.1189 2.92104 5.36197 0
M  V30 459 H 43.5329 4.41798 3.65359 0
M  V30 460 H 41.9299 5.07166 3.20785 0
M  V30 461 H 42.9999 4.44329 1.94165 0
M  V30 462 N 44.343 -0.763751 1.37857 0
M  V30 463 C 45.273 -1.89103 1.36975 0
M  V30 464 C 46.254 -1.68439 0.237152 0
M  V30 465 O 47.439 -1.8918 0.438713 0
M  V30 466 C 44.569 -3.26496 1.18395 0
M  V30 467 C 43.523 -3.61741 2.28751 0
M  V30 468 C 42.849 -4.97762 1.95286 0
M  V30 469 C 44.149 -3.67665 3.70972 0
M  V30 470 H 45.843 -1.90099 2.31307 0
M  V30 471 H 43.389 -0.91319 1.11341 0
M  V30 472 H 45.342 -4.05003 1.16406 0
M  V30 473 H 44.066 -3.25955 0.205215 0
M  V30 474 H 42.725 -2.85547 2.29909 0
M  V30 475 H 42.373 -4.93769 0.959221 0
M  V30 476 H 42.073 -5.22313 2.69189 0
M  V30 477 H 43.597 -5.7866 1.94898 0
M  V30 478 H 45.011 -4.36307 3.719 0
M  V30 479 H 43.408 -4.03718 4.43995 0
M  V30 480 H 44.478 -2.68134 4.0402 0
M  V30 481 N 45.8211 -1.22559 -0.990812 0
M  V30 482 C 47.0511 -1.07623 -1.76355 0
M  V30 483 C 47.4591 0.37601 -1.85426 0
M  V30 484 O 46.8021 1.27228 -1.32509 0
M  V30 485 C 46.8641 -1.61507 -3.21179 0
M  V30 486 C 46.5281 -3.10146 -3.35646 0
M  V30 487 C 47.5251 -4.07553 -3.22796 0
M  V30 488 C 45.2101 -3.49644 -3.60631 0
M  V30 489 C 47.2041 -5.42442 -3.34716 0
M  V30 490 C 44.8911 -4.84682 -3.72192 0
M  V30 491 C 45.8891 -5.8089 -3.59243 0
M  V30 492 O 45.5771 -7.13476 -3.70415 0
M  V30 493 H 45.3091 -0.377745 -0.560611 0
M  V30 494 H 47.8631 -1.62658 -1.25425 0
M  V30 495 H 46.0931 -1.00881 -3.73309 0
M  V30 496 H 47.7821 -1.42202 -3.80175 0
M  V30 497 H 48.5481 -3.78381 -3.03403 0
M  V30 498 H 44.4271 -2.75282 -3.69785 0
M  V30 499 H 47.9711 -6.17518 -3.24526 0
M  V30 500 H 43.8681 -5.13534 -3.91092 0
M  V30 501 H 44.6361 -7.21083 -3.87275 0
M  V30 502 N 47.2992 1.18797 -1.03562 0
M  V30 503 C 48.5242 1.9314 -0.755764 0
M  V30 504 C 48.9492 1.7537 0.68022 0
M  V30 505 O 48.3072 1.06046 1.47051 0
M  V30 506 C 48.3552 3.42747 -1.12058 0
M  V30 507 O 47.4592 4.11683 -0.243124 0
M  V30 508 H 46.8002 0.602724 -0.278604 0
M  V30 509 H 49.3302 1.50678 -1.3841 0
M  V30 510 H 49.3402 3.93437 -1.08035 0
M  V30 511 H 48.0152 3.55002 -2.16672 0
M  V30 512 H 46.5922 3.71323 -0.342539 0
M  V30 513 N 48.7773 0.814389 1.34928 0
M  V30 514 C 50.1883 0.458364 1.80986 0
M  V30 515 C 50.5393 -1.02042 1.67577 0
M  V30 516 O 49.6643 -1.79352 1.21086 0
M  V30 517 C 50.2593 0.825212 3.28597 0
M  V30 518 C 48.8183 0.521677 3.72767 0
M  V30 519 C 47.9653 1.04668 2.56788 0
M  V30 520 H 50.9163 1.00533 1.22795 0
M  V30 521 H 50.9373 0.12571 3.80292 0
M  V30 522 H 50.4493 1.90154 3.38324 0
M  V30 523 H 48.5503 -0.545589 3.68584 0
M  V30 524 H 48.6633 1.05977 4.67232 0
M  V30 525 H 47.0273 0.468622 2.50352 0
M  V30 526 H 47.8103 2.12927 2.6929 0
M  V30 527 N 50.2554 -1.46986 0.568584 0
M  V30 528 C 51.1654 -2.33942 -0.17555 0
M  V30 529 C 52.1814 -1.48891 -0.90041 0
M  V30 530 O 53.3574 -1.81794 -0.86676 0
M  V30 531 C 50.4224 -3.25811 -1.18524 0
M  V30 532 C 49.4834 -4.26757 -0.466582 0
M  V30 533 C 48.7164 -5.14236 -1.42817 0
M  V30 534 O 48.9394 -5.04379 -2.66379 0
M  V30 535 O 47.8734 -5.94412 -0.946453 0
M  V30 536 H 51.6994 -2.98896 0.538036 0
M  V30 537 H 49.2844 -1.4573 0.329097 0
M  V30 538 H 51.1664 -3.82527 -1.76779 0
M  V30 539 H 49.8414 -2.63471 -1.88055 0
M  V30 540 H 48.7484 -3.73769 0.157451 0
M  V30 541 H 50.0814 -4.91843 0.187485 0
M  V30 542 N 51.7335 -0.305618 -1.54608 0
M  V30 543 C 52.9795 0.295595 -2.01241 0
M  V30 544 C 53.3345 1.51171 -1.19018 0
M  V30 545 O 52.6275 1.89832 -0.259684 0
M  V30 546 C 52.8215 0.698983 -3.50498 0
M  V30 547 C 52.6505 -0.476491 -4.47168 0
M  V30 548 C 51.4205 -0.969963 -4.95903 0
M  V30 549 C 53.6185 -1.32294 -4.96994 0
M  V30 550 N 51.6005 -2.11172 -5.76437 0
M  V30 551 C 52.9715 -2.31212 -5.75275 0
M  V30 552 C 55.0265 -1.35278 -4.7917 0
M  V30 553 C 53.7295 -3.32896 -6.37631 0
M  V30 554 C 55.7555 -2.35823 -5.42348 0
M  V30 555 C 55.1175 -3.33469 -6.20466 0
M  V30 556 H 51.2165 0.0724992 -0.778632 0
M  V30 557 H 53.8005 -0.436583 -1.89742 0
M  V30 558 H 51.9715 1.40032 -3.62278 0
M  V30 559 H 53.7035 1.28013 -3.8392 0
M  V30 560 H 50.4585 -0.544178 -4.70463 0
M  V30 561 H 50.8825 -2.68714 -6.21387 0
M  V30 562 H 55.5245 -0.61157 -4.18354 0
M  V30 563 H 53.2425 -4.07933 -6.97579 0
M  V30 564 H 56.8285 -2.38911 -5.30484 0
M  V30 565 H 55.7085 -4.09996 -6.68485 0
M  V30 566 N 53.2116 1.57565 -0.0334293 0
M  V30 567 C 54.1416 2.13511 0.945265 0
M  V30 568 C 55.1226 1.05231 1.33643 0
M  V30 569 O 56.3076 1.33084 1.41429 0
M  V30 570 C 53.4376 2.6657 2.22616 0
M  V30 571 C 52.3916 3.79676 1.97561 0
M  V30 572 C 51.7176 4.1918 3.31952 0
M  V30 573 C 53.0176 5.0557 1.31135 0
M  V30 574 H 54.7116 2.95538 0.479325 0
M  V30 575 H 52.2576 1.42166 0.229115 0
M  V30 576 H 54.2106 3.04344 2.91466 0
M  V30 577 H 52.9346 1.8171 2.71384 0
M  V30 578 H 51.5936 3.42347 1.31127 0
M  V30 579 H 51.2416 3.31296 3.78487 0
M  V30 580 H 50.9416 4.95402 3.15992 0
M  V30 581 H 52.4656 4.59541 4.02063 0
M  V30 582 H 53.8796 5.40903 1.89992 0
M  V30 583 H 52.2766 5.86818 1.25559 0
M  V30 584 H 53.3466 4.84062 0.284894 0
M  V30 585 N 54.6897 -0.239769 1.55765 0
M  V30 586 C 55.5997 -1.31831 1.94056 0
M  V30 587 C 56.6157 -1.52275 0.841925 0
M  V30 588 O 57.7917 -1.65759 1.14394 0
M  V30 589 C 54.8567 -2.65156 2.23368 0
M  V30 590 C 53.9177 -2.53173 3.46701 0
M  V30 591 C 53.1507 -3.8014 3.74606 0
M  V30 592 O 53.3737 -4.82343 3.04469 0
M  V30 593 O 52.3077 -3.78344 4.68123 0
M  V30 594 H 56.1337 -1.02347 2.85935 0
M  V30 595 H 53.7187 -0.441123 1.42739 0
M  V30 596 H 55.6007 -3.43929 2.43497 0
M  V30 597 H 54.2757 -2.94358 1.34666 0
M  V30 598 H 53.1827 -1.72662 3.31871 0
M  V30 599 H 54.5157 -2.28915 4.35728 0
M  V30 600 N 56.1678 -1.49265 -0.50573 0
M  V30 601 C 57.3958 -1.62215 -1.28429 0
M  V30 602 C 57.8108 -0.291697 -1.86533 0
M  V30 603 O 57.1678 0.722233 -1.67601 0
M  V30 604 C 57.2188 -2.68735 -2.41793 0
M  V30 605 O 56.9398 -3.96619 -1.86078 0
M  V30 606 C 58.4408 -2.92346 -3.3324 0
M  V30 607 H 55.6608 -0.546239 -0.389697 0
M  V30 608 H 58.2048 -1.95265 -0.607609 0
M  V30 609 H 56.3598 -2.38476 -3.053 0
M  V30 610 H 56.7738 -4.55256 -2.60465 0
M  V30 611 H 58.2478 -3.70623 -4.09075 0
M  V30 612 H 58.7248 -2.02081 -3.89948 0
M  V30 613 H 59.3308 -3.24003 -2.75503 0
M  V30 614 N 57.6459 0.756429 -1.3826 0
M  V30 615 C 58.5779 1.87971 -1.31147 0
M  V30 616 C 59.5909 1.61248 -0.224239 0
M  V30 617 O 60.7799 1.71881 -0.481581 0
M  V30 618 C 57.8799 3.23545 -1.00857 0
M  V30 619 C 57.0529 3.77794 -2.20432 0
M  V30 620 C 56.1119 4.91877 -1.86931 0
M  V30 621 O 55.1379 5.06659 -2.59395 0
M  V30 622 N 56.3399 5.74643 -0.822568 0
M  V30 623 H 59.1049 1.94585 -2.2794 0
M  V30 624 H 56.6659 0.936234 -1.32084 0
M  V30 625 H 58.6579 3.97403 -0.765021 0
M  V30 626 H 57.2279 3.12335 -0.128687 0
M  V30 627 H 56.4479 2.95534 -2.6087 0
M  V30 628 H 57.7359 4.10771 -3.00241 0
M  V30 629 H 57.1339 5.65266 -0.221575 0
M  V30 630 H 55.6909 6.48661 -0.638899 0
M  V30 631 N 59.124 1.23083 0.984299 0
M  V30 632 C 60.056 0.96636 2.07832 0
M  V30 633 C 61.069 -0.0582135 1.62696 0
M  V30 634 O 62.258 0.176843 1.77622 0
M  V30 635 C 59.358 0.433397 3.36117 0
M  V30 636 C 58.531 1.51722 4.10243 0
M  V30 637 C 57.59 0.989821 5.16807 0
M  V30 638 O 56.616 1.67794 5.43906 0
M  V30 639 N 57.818 -0.184367 5.80207 0
M  V30 640 H 60.583 1.90824 2.31098 0
M  V30 641 H 58.144 1.13888 1.1507 0
M  V30 642 H 60.136 0.065699 4.04647 0
M  V30 643 H 58.706 -0.413806 3.09849 0
M  V30 644 H 57.926 2.05786 3.36223 0
M  V30 645 H 59.214 2.24619 4.56534 0
M  V30 646 H 58.612 -0.760062 5.60571 0
M  V30 647 H 57.169 -0.493366 6.4993 0
M  V30 648 N 60.6021 -1.18246 1.0419 0
M  V30 649 C 61.5341 -2.2142 0.592088 0
M  V30 650 C 62.5471 -1.59233 -0.338909 0
M  V30 651 O 63.7361 -1.78002 -0.133231 0
M  V30 652 C 60.8361 -3.38546 -0.154854 0
M  V30 653 C 60.0091 -4.3031 0.784328 0
M  V30 654 C 59.0681 -5.26138 0.0804583 0
M  V30 655 O 58.0941 -5.64738 0.711292 0
M  V30 656 N 59.2961 -5.68261 -1.18574 0
M  V30 657 H 62.0611 -2.60636 1.47949 0
M  V30 658 H 59.6221 -1.33044 0.922544 0
M  V30 659 H 61.6141 -3.99678 -0.635606 0
M  V30 660 H 60.1841 -2.98012 -0.943811 0
M  V30 661 H 59.4041 -3.66764 1.44491 0
M  V30 662 H 60.6921 -4.8852 1.42218 0
M  V30 663 H 60.0901 -5.38957 -1.71876 0
M  V30 664 H 58.6471 -6.31584 -1.61074 0
M  V30 665 N 62.0802 -0.821533 -1.34494 0
M  V30 666 C 63.3272 -0.408946 -1.98328 0
M  V30 667 C 63.6552 1.02764 -1.65136 0
M  V30 668 O 62.9102 1.73026 -0.914349 0
M  V30 669 C 63.2092 -0.556512 -3.53041 0
M  V30 670 C 62.8752 -1.95861 -4.0614 0
M  V30 671 C 61.5372 -2.34217 -4.20352 0
M  V30 672 C 63.8892 -2.87523 -4.34718 0
M  V30 673 C 61.2172 -3.63572 -4.6047 0
M  V30 674 C 63.5692 -4.1634 -4.76281 0
M  V30 675 C 62.2332 -4.54675 -4.88699 0
M  V30 676 H 61.5032 -0.149644 -0.725732 0
M  V30 677 H 64.1502 -1.04521 -1.6046 0
M  V30 678 H 62.4552 0.163148 -3.9146 0
M  V30 679 H 64.1522 -0.217826 -4.00408 0
M  V30 680 H 60.7422 -1.65066 -3.95539 0
M  V30 681 H 64.9262 -2.59133 -4.23277 0
M  V30 682 H 60.1822 -3.93101 -4.68275 0
M  V30 683 H 64.3562 -4.87455 -4.97354 0
M  V30 684 H 61.9832 -5.54959 -5.19542 0
M  V30 685 N 63.5583 1.46682 -0.576371 0
M  V30 686 C 64.5053 2.30241 0.160499 0
M  V30 687 C 65.4753 1.40233 0.890162 0
M  V30 688 O 66.6603 1.69186 0.882084 0
M  V30 689 C 63.8003 3.24578 1.1723 0
M  V30 690 C 62.9133 4.29684 0.446736 0
M  V30 691 C 62.0483 5.11154 1.44551 0
M  V30 692 C 61.0873 6.08015 0.70599 0
M  V30 693 N 60.2243 6.82376 1.65251 0
M  V30 694 H 65.0643 2.92727 -0.558127 0
M  V30 695 H 62.6013 1.44272 -0.287056 0
M  V30 696 H 64.5593 3.77711 1.77172 0
M  V30 697 H 63.1893 2.63916 1.85872 0
M  V30 698 H 62.2413 3.79458 -0.267594 0
M  V30 699 H 63.5533 4.98626 -0.131686 0
M  V30 700 H 62.7073 5.68533 2.11791 0
M  V30 701 H 61.4463 4.42158 2.05786 0
M  V30 702 H 60.4513 5.49796 0.0197725 0
M  V30 703 H 61.6763 6.79028 0.09912 0
M  V30 704 H 59.6223 6.16094 2.25308 0
M  V30 705 H 59.5393 7.47556 1.12673 0
M  V30 706 H 60.8073 7.44316 2.31546 0
M  V30 707 N 65.0364 0.313813 1.54444 0
M  V30 708 C 65.9834 -0.55655 2.23989 0
M  V30 709 C 66.9534 -1.11943 1.22711 0
M  V30 710 O 68.1384 -1.16158 1.51367 0
M  V30 711 C 65.2784 -1.71635 2.99392 0
M  V30 712 C 64.3914 -1.18364 4.15468 0
M  V30 713 C 63.5264 -2.30834 4.78424 0
M  V30 714 C 62.5654 -1.74762 5.86622 0
M  V30 715 N 61.7024 -2.80855 6.43479 0
M  V30 716 H 66.5424 0.0430893 2.97969 0
M  V30 717 H 64.0794 0.0330359 1.47063 0
M  V30 718 H 66.0374 -2.39868 3.41349 0
M  V30 719 H 64.6674 -2.28742 2.27765 0
M  V30 720 H 63.7194 -0.393163 3.78363 0
M  V30 721 H 65.0314 -0.733262 4.93381 0
M  V30 722 H 64.1854 -3.0699 5.23299 0
M  V30 723 H 62.9244 -2.79204 3.99871 0
M  V30 724 H 61.9294 -0.970995 5.41158 0
M  V30 725 H 63.1544 -1.2728 6.67066 0
M  V30 726 H 61.1004 -3.28535 5.67804 0
M  V30 727 H 61.0174 -2.40351 7.16776 0
M  V30 728 H 62.2854 -3.5687 6.93011 0
M  V30 729 N 66.5145 -1.57545 0.0417849 0
M  V30 730 C 67.9305 -1.56467 -0.314704 0
M  V30 731 C 68.1305 -1.04859 -1.72066 0
M  V30 732 O 67.1865 -0.700983 -2.42575 0
M  V30 733 C 68.4995 -3.00317 -0.15174 0
M  V30 734 C 70.0475 -3.12201 -0.223553 0
M  V30 735 C 70.5225 -4.57913 -0.0892295 0
M  V30 736 N 72.0135 -4.6297 -0.145808 0
M  V30 737 C 72.7485 -5.73362 -0.0658459 0
M  V30 738 N 72.2445 -6.92769 0.0659282 0
M  V30 739 N 74.0375 -5.6197 -0.12075 0
M  V30 740 H 66.1885 -1.89416 0.961014 0
M  V30 741 H 68.4515 -0.871862 0.372237 0
M  V30 742 H 68.1575 -3.42073 0.817254 0
M  V30 743 H 68.0315 -3.65892 -0.916692 0
M  V30 744 H 70.4185 -2.70349 -1.18301 0
M  V30 745 H 70.4995 -2.49323 0.571994 0
M  V30 746 H 70.1435 -5.00448 0.866867 0
M  V30 747 H 70.0735 -5.18786 -0.903802 0
M  V30 748 H 72.5645 -3.7709 -0.247286 0
M  V30 749 H 72.8775 -7.72707 0.119905 0
M  V30 750 H 71.2225 -6.94927 0.100885 0
M  V30 751 H 74.4135 -4.67572 -0.222187 0
M  V30 752 H 74.5865 -6.47977 -0.0549735 0
M  V30 753 N 67.9926 0.231505 -1.5589 0
M  V30 754 C 68.9256 1.31369 -1.86595 0
M  V30 755 C 69.9036 1.45671 -0.722397 0
M  V30 756 O 71.0876 1.61642 -0.969743 0
M  V30 757 C 68.2146 2.68529 -2.06421 0
M  V30 758 C 67.2606 2.71295 -3.29092 0
M  V30 759 S 68.0936 2.26358 -4.85306 0
M  V30 760 C 69.2496 3.65414 -5.08157 0
M  V30 761 H 69.4826 1.05128 -2.78092 0
M  V30 762 H 67.0156 0.433259 -1.48197 0
M  V30 763 H 68.9736 3.47499 -2.18528 0
M  V30 764 H 67.6346 2.91999 -1.15738 0
M  V30 765 H 66.8276 3.72063 -3.39978 0
M  V30 766 H 66.4296 2.0038 -3.15791 0
M  V30 767 H 68.7216 4.6103 -4.96445 0
M  V30 768 H 69.6646 3.5945 -6.10083 0
M  V30 769 H 70.0726 3.5864 -4.35933 0
M  V30 770 N 69.4707 1.49531 0.497807 0
M  V30 771 C 70.4337 1.65916 1.58128 0
M  V30 772 C 71.4337 0.530825 1.51786 0
M  V30 773 O 72.6237 0.797342 1.54881 0
M  V30 774 C 69.7557 1.65951 2.9778 0
M  V30 775 H 70.9487 2.62556 1.44929 0
M  V30 776 H 68.5017 1.38611 0.722275 0
M  V30 777 H 69.2367 0.709065 3.16453 0
M  V30 778 H 69.0217 2.47897 3.03792 0
M  V30 779 H 70.5117 1.80673 3.76493 0
M  V30 780 N 70.9488 -0.749086 1.3866 0
M  V30 781 C 71.9118 -1.84457 1.36045 0
M  V30 782 C 72.9118 -1.58682 0.260122 0
M  V30 783 O 74.1018 -1.66343 0.517261 0
M  V30 784 C 71.2338 -3.22008 1.11911 0
M  V30 785 H 72.4268 -1.88182 2.33512 0
M  V30 786 H 69.9798 -0.951266 1.24019 0
M  V30 787 H 70.7148 -3.2395 0.150686 0
M  V30 788 H 70.4998 -3.42111 1.91579 0
M  V30 789 H 71.9898 -4.0208 1.12788 0
M  V30 790 N 72.4269 -1.23603 -0.977757 0
M  V30 791 C 73.6519 -1.09735 -1.75991 0
M  V30 792 C 74.0769 0.346858 -1.84874 0
M  V30 793 O 73.4349 1.25093 -1.3123 0
M  V30 794 C 73.4829 -1.73051 -3.16363 0
M  V30 795 O 72.5869 -0.994452 -4.0023 0
M  V30 796 H 71.9279 -0.384476 -0.541364 0
M  V30 797 H 74.4579 -1.6371 -1.2272 0
M  V30 798 H 74.4679 -1.78398 -3.66931 0
M  V30 799 H 73.1429 -2.78137 -3.09213 0
M  V30 800 H 71.7199 -1.01812 -3.58732 0
M  V30 801 N 73.905 1.17692 -1.04816 0
M  V30 802 C 75.153 1.87488 -0.754497 0
M  V30 803 C 75.474 1.81205 0.720407 0
M  V30 804 O 74.744 1.23544 1.52032 0
M  V30 805 H 73.324 0.694101 -0.276102 0
M  V30 806 H 75.986 1.42793 -1.32651 0
M  V30 807 H 75.082 2.93328 -1.06606 0
M  V30 808 N 75.3831 0.828654 1.34056 0
M  V30 809 C 76.3131 0.269443 2.3194 0
M  V30 810 C 77.2941 -0.617247 1.58506 0
M  V30 811 O 78.4791 -0.542931 1.86456 0
M  V30 812 C 75.6091 -0.564793 3.42677 0
M  V30 813 C 74.5631 0.225241 4.27407 0
M  V30 814 C 73.8891 -0.7321 5.29664 0
M  V30 815 C 75.1891 1.43663 5.02154 0
M  V30 816 H 76.8831 1.08728 2.7896 0
M  V30 817 H 74.4291 0.524283 1.34117 0
M  V30 818 H 76.3821 -0.966233 4.10173 0
M  V30 819 H 75.1061 -1.41574 2.9432 0
M  V30 820 H 73.7651 0.608117 3.61521 0
M  V30 821 H 73.4131 -1.57916 4.77568 0
M  V30 822 H 73.1131 -0.20767 5.87233 0
M  V30 823 H 74.6371 -1.13128 6.00029 0
M  V30 824 H 76.0511 1.1089 5.62473 0
M  V30 825 H 74.4481 1.89711 5.69324 0
M  V30 826 H 75.5181 2.21181 4.31517 0
M  V30 827 N 76.8612 -1.46375 0.584142 0
M  V30 828 C 77.7712 -2.34115 -0.150728 0
M  V30 829 C 78.7872 -1.49838 -0.884567 0
M  V30 830 O 79.9632 -1.82704 -0.847429 0
M  V30 831 C 77.0282 -3.2705 -1.15062 0
M  V30 832 C 76.0892 -4.27228 -0.421293 0
M  V30 833 C 75.3222 -5.15722 -1.37355 0
M  V30 834 O 75.5452 -5.07176 -2.61014 0
M  V30 835 O 74.4792 -5.95383 -0.883355 0
M  V30 836 H 78.3052 -2.98309 0.569708 0
M  V30 837 H 75.8902 -1.45373 0.344535 0
M  V30 838 H 77.7722 -3.84381 -1.72712 0
M  V30 839 H 76.4472 -2.65451 -1.8525 0
M  V30 840 H 75.3542 -3.7358 0.197085 0
M  V30 841 H 76.6872 -4.91616 0.239641 0
M  V30 842 N 78.3393 -0.321999 -1.54275 0
M  V30 843 C 79.5673 0.283052 -2.04955 0
M  V30 844 C 79.9823 1.45904 -1.19823 0
M  V30 845 O 79.3393 1.81063 -0.228545 0
M  V30 846 C 79.3903 0.719028 -3.54277 0
M  V30 847 O 79.1113 -0.410175 -4.36176 0
M  V30 848 C 80.6123 1.38705 -4.21041 0
M  V30 849 H 77.8323 0.0584616 -0.668448 0
M  V30 850 H 80.3763 -0.467734 -1.99079 0
M  V30 851 H 78.5313 1.41979 -3.60445 0
M  V30 852 H 78.9453 -0.0669416 -5.24457 0
M  V30 853 H 80.4193 1.64306 -5.2698 0
M  V30 854 H 80.8963 2.33385 -3.72059 0
M  V30 855 H 81.5023 0.728906 -4.19007 0
M  V30 856 N 79.8174 1.5752 -0.0501392 0
M  V30 857 C 81.2334 1.56631 0.306402 0
M  V30 858 C 81.4334 1.0577 1.71508 0
M  V30 859 O 80.4894 0.713837 2.422 0
M  V30 860 C 81.8024 3.00393 0.135811 0
M  V30 861 C 83.3504 3.12315 0.206993 0
M  V30 862 C 83.8254 4.57954 0.064944 0
M  V30 863 N 85.3164 4.63041 0.121254 0
M  V30 864 C 86.0514 5.73389 0.0354381 0
M  V30 865 N 85.5474 6.92724 -0.102666 0
M  V30 866 N 87.3404 5.62026 0.090946 0
M  V30 867 H 79.4914 1.88903 -0.971046 0
M  V30 868 H 81.7544 0.869876 -0.376855 0
M  V30 869 H 81.4604 3.41635 -0.835384 0
M  V30 870 H 81.3344 3.66373 0.897275 0
M  V30 871 H 83.7214 2.70973 1.16866 0
M  V30 872 H 83.8024 2.49016 -0.585208 0
M  V30 873 H 83.4464 4.99981 -0.893394 0
M  V30 874 H 83.3764 5.19258 0.876277 0
M  V30 875 H 85.8674 3.77216 0.227284 0
M  V30 876 H 86.1804 7.72633 -0.160882 0
M  V30 877 H 84.5254 6.94864 -0.137737 0
M  V30 878 H 87.7164 4.67684 0.197388 0
M  V30 879 H 87.8894 6.47997 0.0206089 0
M  V30 880 N 81.2955 -0.223234 1.56011 0
M  V30 881 C 82.5425 -0.947875 1.78946 0
M  V30 882 C 82.8705 -1.844 0.618608 0
M  V30 883 O 82.1255 -1.91629 -0.397093 0
M  V30 884 C 82.4245 -1.81948 3.0762 0
M  V30 885 C 82.0905 -1.07672 4.37856 0
M  V30 886 C 80.7525 -0.871544 4.73242 0
M  V30 887 C 83.1045 -0.552081 5.18268 0
M  V30 888 C 80.4325 -0.129791 5.86556 0
M  V30 889 C 82.7845 0.17632 6.32354 0
M  V30 890 C 81.4485 0.39277 6.66343 0
M  V30 891 H 80.7185 -0.346852 0.654809 0
M  V30 892 H 83.3655 -0.216171 1.90276 0
M  V30 893 H 81.6705 -2.61899 2.91404 0
M  V30 894 H 83.3675 -2.38227 3.22566 0
M  V30 895 H 79.9575 -1.24662 4.1007 0
M  V30 896 H 84.1415 -0.698076 4.91366 0
M  V30 897 H 79.3975 0.048153 6.11381 0
M  V30 898 H 83.5715 0.590367 6.93893 0
M  V30 899 H 81.1985 0.969466 7.53993 0
M  V30 900 N 82.7736 -1.49793 -0.48987 0
M  V30 901 C 84.0506 -1.50348 -1.25119 0
M  V30 902 C 84.4306 -0.237466 -2.0976 0
M  V30 903 O 83.7786 0.77981 -2.14782 0
M  V30 904 C 83.9886 -2.78872 -2.09837 0
M  V30 905 C 85.3366 -3.288 -2.68655 0
M  V30 906 O 86.3606 -2.80065 -2.20096 0
M  V30 907 O 85.2196 -4.13707 -3.57083 0
M  V30 908 H 82.3136 -0.602242 -0.566775 0
M  V30 909 H 84.8596 -1.62067 -0.503229 0
M  V30 910 H 83.6316 -3.62499 -1.47343 0
M  V30 911 H 83.2546 -2.70066 -2.91805 0
M  V30 912 N 84.2517 0.741722 -1.39055 0
M  V30 913 C 85.1617 1.88621 -1.39496 0
M  V30 914 C 86.1777 1.71557 -0.290578 0
M  V30 915 O 87.3537 1.94275 -0.530954 0
M  V30 916 C 84.4187 3.24134 -1.23037 0
M  V30 917 C 83.4797 3.5364 -2.43387 0
M  V30 918 C 82.7127 4.82687 -2.27703 0
M  V30 919 O 82.9357 5.55922 -1.27696 0
M  V30 920 O 81.8697 5.1194 -3.16545 0
M  V30 921 H 85.6957 1.91203 -2.35956 0
M  V30 922 H 83.2807 0.888625 -1.20099 0
M  V30 923 H 85.1627 4.0513 -1.15964 0
M  V30 924 H 83.8377 3.22337 -0.296691 0
M  V30 925 H 82.7447 2.72758 -2.56035 0
M  V30 926 H 84.0777 3.60209 -3.35425 0
M  V30 927 N 85.7298 1.2412 0.971189 0
M  V30 928 C 86.9758 1.08041 1.71625 0
M  V30 929 C 87.3088 -0.380407 1.90438 0
M  V30 930 O 86.5838 -1.28127 1.46334 0
M  V30 931 C 86.8668 1.81682 3.10908 0
M  V30 932 C 86.7198 3.35493 2.99608 0
M  V30 933 C 88.0388 1.58671 4.10501 0
M  V30 934 H 85.1578 0.39388 0.622919 0
M  V30 935 H 87.7998 1.52743 1.13003 0
M  V30 936 H 85.9498 1.43684 3.60953 0
M  V30 937 H 87.6218 3.83068 2.57015 0
M  V30 938 H 85.8648 3.64052 2.35899 0
M  V30 939 H 86.5358 3.82217 3.98264 0
M  V30 940 H 89.0118 1.91719 3.69301 0
M  V30 941 H 87.8878 2.1266 5.06031 0
M  V30 942 H 88.1488 0.524161 4.38982 0
M  V30 943 N 87.2079 -1.17134 1.05439 0
M  V30 944 C 88.4559 -1.87085 0.764429 0
M  V30 945 C 88.7769 -1.81584 -0.710787 0
M  V30 946 O 88.0469 -1.24349 -1.51374 0
M  V30 947 H 86.6269 -0.692627 0.279779 0
M  V30 948 H 89.2889 -1.42087 1.33406 0
M  V30 949 H 88.3849 -2.92759 1.0816 0
M  V30 950 N 88.686 -0.835752 -1.33615 0
M  V30 951 C 89.634 -0.255238 -2.31195 0
M  V30 952 C 90.628 0.61107 -1.57995 0
M  V30 953 O 91.834 0.500979 -1.72888 0
M  V30 954 H 88.209 -0.0638085 -0.749288 0
M  V30 955 H 90.18 -1.09283 -2.77669 0
M  V30 956 C 88.929 0.55754 -3.43201 0
M  V30 957 H 88.252 -0.0997553 -3.99676 0
M  V30 958 H 89.692 0.929622 -4.13683 0
M  V30 959 C 88.151 1.73515 -2.88781 0
M  V30 960 O 88.681 2.83376 -2.84712 0
M  V30 961 N 86.887 1.55603 -2.4543 0
M  V30 962 H 86.434 0.662354 -2.48939 0
M  V30 963 H 86.392 2.34545 -2.09371 0
M  V30 964 N 90.1641 1.46063 -0.591896 0
M  V30 965 C 91.0941 2.33172 0.123673 0
M  V30 966 C 92.0751 1.45897 0.87453 0
M  V30 967 O 93.2601 1.74698 0.848181 0
M  V30 968 C 90.3901 3.28336 1.13194 0
M  V30 969 C 89.3441 4.25124 0.495324 0
M  V30 970 C 88.6701 5.09863 1.61071 0
M  V30 971 C 89.9701 5.19143 -0.573425 0
M  V30 972 H 91.6641 2.93252 -0.603646 0
M  V30 973 H 89.2101 1.41014 -0.291741 0
M  V30 974 H 91.1631 3.88137 1.64097 0
M  V30 975 H 89.8871 2.66383 1.88965 0
M  V30 976 H 88.5461 3.66599 0.00729452 0
M  V30 977 H 88.1941 4.44288 2.35832 0
M  V30 978 H 87.8941 5.75417 1.19035 0
M  V30 979 H 89.4181 5.72529 2.12233 0
M  V30 980 H 90.8321 5.73106 -0.1491 0
M  V30 981 H 89.2291 5.93089 -0.914636 0
M  V30 982 H 90.2991 4.62519 -1.45617 0
M  V30 983 N 91.6422 0.330177 1.54103 0
M  V30 984 C 92.8722 -0.271784 2.04805 0
M  V30 985 C 93.2802 -1.45816 1.20559 0
M  V30 986 O 92.6232 -1.82247 0.2306 0
M  V30 987 C 92.6852 -0.763238 3.51305 0
M  V30 988 C 92.3492 0.301705 4.56003 0
M  V30 989 C 93.3462 1.13999 5.07248 0
M  V30 990 C 91.0312 0.451793 5.00264 0
M  V30 991 C 93.0252 2.11402 6.01322 0
M  V30 992 C 90.7122 1.42924 5.94151 0
M  V30 993 C 91.7102 2.25882 6.44567 0
M  V30 994 O 91.3982 3.21965 7.3661 0
M  V30 995 H 91.1302 -0.058693 0.673447 0
M  V30 996 H 93.6842 0.476395 1.99799 0
M  V30 997 H 91.9142 -1.56244 3.5373 0
M  V30 998 H 93.6032 -1.28427 3.85047 0
M  V30 999 H 94.3692 1.03505 4.73827 0
M  V30 1000 H 90.2482 -0.184044 4.60632 0
M  V30 1001 H 93.7922 2.76192 6.40596 0
M  V30 1002 H 89.6892 1.53479 6.26988 0
M  V30 1003 H 90.4572 3.17281 7.54503 0
M  V30 1004 N 93.1203 -1.57491 0.0584922 0
M  V30 1005 C 94.3683 -1.92597 -0.612436 0
M  V30 1006 C 94.6893 -0.938162 -1.70949 0
M  V30 1007 O 93.9593 0.0158301 -1.95894 0
M  V30 1008 H 92.5393 -0.710964 -0.229214 0
M  V30 1009 H 95.2013 -1.94571 0.113218 0
M  V30 1010 H 94.2973 -2.94038 -1.04633 0
M  V30 1011 N 94.5984 0.214957 -1.56127 0
M  V30 1012 C 96.0144 0.564948 -1.49267 0
M  V30 1013 C 96.2144 1.86827 -0.754838 0
M  V30 1014 O 95.2704 2.50745 -0.297198 0
M  V30 1015 C 96.5834 0.638071 -2.93852 0
M  V30 1016 C 98.1314 0.728253 -3.0441 0
M  V30 1017 C 98.6064 0.832663 -4.50367 0
M  V30 1018 N 100.097 0.896712 -4.54437 0
M  V30 1019 C 100.832 0.997324 -5.6466 0
M  V30 1020 N 100.328 1.06147 -6.8462 0
M  V30 1021 N 102.121 1.03297 -5.52527 0
M  V30 1022 H 94.2724 -0.640211 -2.02522 0
M  V30 1023 H 96.5354 -0.225507 -0.920788 0
M  V30 1024 H 96.2414 -0.250126 -3.50809 0
M  V30 1025 H 96.1154 1.49947 -3.46115 0
M  V30 1026 H 98.5024 1.60689 -2.47514 0
M  V30 1027 H 98.5834 -0.158952 -2.55306 0
M  V30 1028 H 98.2274 -0.0415417 -5.07883 0
M  V30 1029 H 98.1574 1.73538 -4.97184 0
M  V30 1030 H 100.648 0.857188 -3.6805 0
M  V30 1031 H 100.961 1.1382 -7.64372 0
M  V30 1032 H 99.3064 1.03049 -6.87318 0
M  V30 1033 H 102.497 0.979558 -4.57736 0
M  V30 1034 H 102.67 1.10793 -6.38458 0
M  V30 1035 N 96.0765 1.50051 0.48192 0
M  V30 1036 C 97.0065 1.71046 1.58951 0
M  V30 1037 C 97.9875 0.559288 1.60642 0
M  V30 1038 O 99.1725 0.797243 1.77081 0
M  V30 1039 C 96.3025 1.79462 2.97339 0
M  V30 1040 C 95.2565 2.94558 3.10515 0
M  V30 1041 C 94.5825 2.88105 4.50444 0
M  V30 1042 C 95.8825 4.35227 2.88747 0
M  V30 1043 H 97.5765 2.6378 1.41635 0
M  V30 1044 H 95.1225 1.26936 0.679942 0
M  V30 1045 H 97.0755 1.92734 3.74742 0
M  V30 1046 H 95.7995 0.833412 3.15788 0
M  V30 1047 H 94.4585 2.80918 2.35543 0
M  V30 1048 H 94.1065 1.89853 4.65795 0
M  V30 1049 H 93.8065 3.65366 4.60197 0
M  V30 1050 H 95.3305 3.03412 5.29881 0
M  V30 1051 H 96.7445 4.49449 3.55905 0
M  V30 1052 H 95.1415 5.13856 3.09955 0
M  V30 1053 H 96.2115 4.48347 1.84696 0
M  V30 1054 N 97.5546 -0.734337 1.39446 0
M  V30 1055 C 98.5026 -1.86971 1.38364 0
M  V30 1056 C 99.4966 -1.67288 0.266687 0
M  V30 1057 O 100.703 -1.74621 0.436755 0
M  V30 1058 H 97.0776 -0.615474 0.432082 0
M  V30 1059 H 99.0486 -1.85 2.34132 0
M  V30 1060 C 97.7976 -3.2466 1.24465 0
M  V30 1061 H 97.1206 -3.40402 2.09682 0
M  V30 1062 H 98.5606 -4.04292 1.27764 0
M  V30 1063 C 97.0196 -3.36867 -0.0468674 0
M  V30 1064 O 97.5496 -3.88618 -1.01681 0
M  V30 1065 N 95.7556 -2.90391 -0.110145 0
M  V30 1066 H 95.3026 -2.48466 0.679868 0
M  V30 1067 H 95.2606 -2.98939 -0.973799 0
M  V30 1068 N 99.0327 -1.24633 -0.964593 0
M  V30 1069 C 100.281 -1.08573 -1.70459 0
M  V30 1070 C 100.602 0.375655 -1.91347 0
M  V30 1071 O 99.8717 1.26779 -1.49345 0
M  V30 1072 H 98.4517 -0.398784 -0.631649 0
M  V30 1073 H 101.114 -1.56601 -1.16026 0
M  V30 1074 H 100.21 -1.58623 -2.68785 0
M  V30 1075 N 100.511 1.16574 -1.06058 0
M  V30 1076 C 101.739 1.90952 -0.796552 0
M  V30 1077 C 102.154 1.77302 0.648808 0
M  V30 1078 O 101.511 1.11605 1.44397 0
M  V30 1079 C 101.562 3.41736 -1.17894 0
M  V30 1080 O 101.283 3.54975 -2.56758 0
M  V30 1081 C 102.784 4.33169 -0.942308 0
M  V30 1082 H 100.004 0.605594 -0.288959 0
M  V30 1083 H 102.548 1.47777 -1.41358 0
M  V30 1084 H 100.703 3.82623 -0.606491 0
M  V30 1085 H 101.117 4.4846 -2.72 0
M  V30 1086 H 102.591 5.37439 -1.25952 0
M  V30 1087 H 103.068 4.3903 0.122078 0
M  V30 1088 H 103.674 3.98007 -1.49902 0
M  V30 1089 N 101.989 0.842826 1.3317 0
M  V30 1090 C 102.899 0.281444 2.32906 0
M  V30 1091 C 103.915 -0.594587 1.63526 0
M  V30 1092 O 105.091 -0.49777 1.95152 0
M  V30 1093 C 102.156 -0.530929 3.42611 0
M  V30 1094 C 101.217 0.369843 4.27704 0
M  V30 1095 C 100.45 -0.403853 5.3217 0
M  V30 1096 O 100.673 -1.63513 5.46461 0
M  V30 1097 O 99.6069 0.224199 6.01482 0
M  V30 1098 H 103.433 1.10744 2.82789 0
M  V30 1099 H 101.018 0.60545 1.36582 0
M  V30 1100 H 102.9 -0.992437 4.09547 0
M  V30 1101 H 101.575 -1.33392 2.94938 0
M  V30 1102 H 100.482 0.879275 3.6362 0
M  V30 1103 H 101.815 1.13771 4.78871 0
M  V30 1104 N 103.467 -1.45747 0.599634 0
M  V30 1105 C 104.697 -2.06369 0.0977132 0
M  V30 1106 C 105.105 -1.44624 -1.21985 0
M  V30 1107 O 104.448 -0.551831 -1.75216 0
M  V30 1108 C 104.51 -3.59284 -0.124673 0
M  V30 1109 C 104.174 -4.43318 1.10987 0
M  V30 1110 C 105.171 -4.78796 2.02609 0
M  V30 1111 C 102.856 -4.84194 1.33647 0
M  V30 1112 C 104.85 -5.53997 3.15224 0
M  V30 1113 C 102.537 -5.5915 2.46565 0
M  V30 1114 C 103.535 -5.93968 3.37182 0
M  V30 1115 O 103.223 -6.67405 4.48136 0
M  V30 1116 H 102.955 -0.673122 0.0623153 0
M  V30 1117 H 105.509 -1.88104 0.824981 0
M  V30 1118 H 103.739 -3.75919 -0.906745 0
M  V30 1119 H 105.428 -4.01775 -0.577201 0
M  V30 1120 H 106.194 -4.47781 1.86325 0
M  V30 1121 H 102.073 -4.56534 0.64016 0
M  V30 1122 H 105.617 -5.81091 3.85978 0
M  V30 1123 H 101.514 -5.89579 2.62805 0
M  V30 1124 H 102.282 -6.85847 4.46717 0
M  V30 1125 N 104.945 -0.338344 -1.53925 0
M  V30 1126 C 106.356 0.146651 -1.86123 0
M  V30 1127 C 106.707 1.5042 -1.2597 0
M  V30 1128 O 105.832 2.08723 -0.571294 0
M  V30 1129 C 106.427 0.272879 -3.37699 0
M  V30 1130 C 104.986 0.702103 -3.69794 0
M  V30 1131 C 104.133 -0.167304 -2.76795 0
M  V30 1132 H 107.084 -0.558123 -1.48562 0
M  V30 1133 H 107.105 1.10128 -3.64214 0
M  V30 1134 H 106.617 -0.715307 -3.81451 0
M  V30 1135 H 104.718 1.6995 -3.31584 0
M  V30 1136 H 104.831 0.495604 -4.7653 0
M  V30 1137 H 103.195 0.359527 -2.5215 0
M  V30 1138 H 103.978 -1.15253 -3.23375 0
M  V30 1139 N 106.423 1.57458 -0.0668435 0
M  V30 1140 C 107.355 2.09413 0.931601 0
M  V30 1141 C 108.368 1.02522 1.26464 0
M  V30 1142 O 109.557 1.30049 1.22269 0
M  V30 1143 C 106.657 2.53537 2.24882 0
M  V30 1144 C 105.83 3.83944 2.09537 0
M  V30 1145 C 104.889 4.14214 3.2452 0
M  V30 1146 O 103.915 4.83891 2.9973 0
M  V30 1147 N 105.117 3.67367 4.49469 0
M  V30 1148 H 107.882 2.95699 0.488048 0
M  V30 1149 H 105.443 1.61462 0.119009 0
M  V30 1150 H 107.435 2.70853 3.00701 0
M  V30 1151 H 106.005 1.72415 2.60753 0
M  V30 1152 H 105.225 3.76057 1.18215 0
M  V30 1153 H 106.513 4.69312 1.96529 0
M  V30 1154 H 105.911 3.11068 4.72497 0
M  V30 1155 H 104.468 3.89891 5.2233 0
M  V30 1156 N 107.901 -0.206675 1.56239 0
M  V30 1157 C 108.811 -1.27686 1.96808 0
M  V30 1158 C 109.827 -1.50455 0.874035 0
M  V30 1159 O 111.003 -1.63295 1.17884 0
M  V30 1160 C 108.068 -2.60358 2.28942 0
M  V30 1161 C 107.129 -2.45762 3.51994 0
M  V30 1162 C 106.362 -3.72108 3.82585 0
M  V30 1163 O 106.585 -4.75776 3.14631 0
M  V30 1164 O 105.519 -3.6833 4.76043 0
M  V30 1165 H 109.345 -0.962593 2.88041 0
M  V30 1166 H 106.93 -0.410746 1.43643 0
M  V30 1167 H 108.812 -3.38687 2.50737 0
M  V30 1168 H 107.487 -2.91435 1.4088 0
M  V30 1169 H 106.394 -1.65584 3.35459 0
M  V30 1170 H 107.727 -2.19621 4.40486 0
M  V30 1171 N 109.379 -1.50304 -0.473955 0
M  V30 1172 C 110.625 -1.61389 -1.22806 0
M  V30 1173 C 110.958 -0.311955 -1.91678 0
M  V30 1174 O 110.233 0.686384 -1.81986 0
M  V30 1175 C 110.516 -2.79219 -2.27396 0
M  V30 1176 C 110.369 -4.19286 -1.62848 0
M  V30 1177 C 111.688 -2.92614 -3.28732 0
M  V30 1178 H 108.807 -0.587399 -0.445119 0
M  V30 1179 H 111.449 -1.82681 -0.522265 0
M  V30 1180 H 109.599 -2.61195 -2.87592 0
M  V30 1181 H 111.271 -4.48892 -1.06271 0
M  V30 1182 H 109.514 -4.23677 -0.931693 0
M  V30 1183 H 110.185 -4.97655 -2.38838 0
M  V30 1184 H 112.661 -3.09105 -2.78556 0
M  V30 1185 H 111.537 -3.76688 -3.99246 0
M  V30 1186 H 111.798 -2.03107 -3.92683 0
M  V30 1187 N 110.857 0.726932 -1.39834 0
M  V30 1188 C 112.103 1.48884 -1.377 0
M  V30 1189 C 112.436 1.94185 0.0244852 0
M  V30 1190 O 111.711 1.67361 0.990986 0
M  V30 1191 C 111.994 2.72288 -2.3565 0
M  V30 1192 C 111.847 2.32956 -3.84775 0
M  V30 1193 C 113.166 3.74414 -2.31306 0
M  V30 1194 H 110.285 0.540062 -0.5015 0
M  V30 1195 H 112.927 0.830547 -1.70886 0
M  V30 1196 H 111.077 3.28457 -2.07481 0
M  V30 1197 H 112.749 1.82356 -4.23726 0
M  V30 1198 H 110.992 1.65088 -4.01159 0
M  V30 1199 H 111.663 3.21362 -4.4881 0
M  V30 1200 H 114.139 3.27849 -2.56231 0
M  V30 1201 H 113.015 4.58414 -3.01907 0
M  V30 1202 H 113.276 4.21909 -1.32081 0
M  V30 1203 N 112.336 1.25143 0.95797 0
M  V30 1204 C 113.266 1.07711 2.07173 0
M  V30 1205 C 114.247 -0.0128462 1.70095 0
M  V30 1206 O 115.432 0.156061 1.93572 0
M  V30 1207 C 112.562 0.691503 3.40346 0
M  V30 1208 C 111.516 1.73132 3.9142 0
M  V30 1209 C 110.842 1.20049 5.21049 0
M  V30 1210 C 112.142 3.1294 4.1817 0
M  V30 1211 H 113.836 2.00873 2.22014 0
M  V30 1212 H 111.382 0.967191 1.06684 0
M  V30 1213 H 113.335 0.556505 4.17709 0
M  V30 1214 H 112.059 -0.275819 3.25433 0
M  V30 1215 H 110.718 1.8547 3.16222 0
M  V30 1216 H 110.366 0.223499 5.02503 0
M  V30 1217 H 110.066 1.89545 5.56189 0
M  V30 1218 H 111.59 1.07782 6.01012 0
M  V30 1219 H 113.004 3.03775 4.86203 0
M  V30 1220 H 111.401 3.79875 4.64559 0
M  V30 1221 H 112.471 3.6025 3.24573 0
M  V30 1222 N 113.814 -1.1601 1.06675 0
M  V30 1223 C 115.039 -1.91068 0.806706 0
M  V30 1224 C 115.464 -1.77112 -0.633485 0
M  V30 1225 O 114.822 -1.09908 -1.44187 0
M  V30 1226 C 114.87 -3.39655 1.21106 0
M  V30 1227 O 113.974 -4.10893 0.352189 0
M  V30 1228 H 113.315 -0.595125 0.294486 0
M  V30 1229 H 115.845 -1.46955 1.42356 0
M  V30 1230 H 115.855 -3.90434 1.18428 0
M  V30 1231 H 114.53 -3.49132 2.26008 0
M  V30 1232 H 113.107 -3.70285 0.440868 0
M  V30 1233 N 115.292 -0.849877 -1.32721 0
M  V30 1234 C 116.54 -0.450032 -1.97026 0
M  V30 1235 C 116.861 0.996604 -1.67609 0
M  V30 1236 O 116.131 1.6958 -0.980786 0
M  V30 1237 H 114.711 -0.163426 -0.728904 0
M  V30 1238 H 117.373 -1.08526 -1.6189 0
M  V30 1239 H 116.469 -0.591146 -3.0645 0
M  V30 1240 N 116.77 1.45427 -0.607355 0
M  V30 1241 C 117.995 2.07124 -0.107006 0
M  V30 1242 C 118.42 1.44906 1.19933 0
M  V30 1243 O 117.778 0.541687 1.73019 0
M  V30 1244 C 117.826 3.60595 0.0194119 0
M  V30 1245 O 116.93 3.98285 1.0697 0
M  V30 1246 H 116.271 0.659868 -0.0739597 0
M  V30 1247 H 118.801 1.86683 -0.837297 0
M  V30 1248 H 118.811 4.07419 0.2177 0
M  V30 1249 H 117.486 4.05266 -0.934453 0
M  V30 1250 H 116.063 3.63133 0.847889 0
M  V30 1251 N 118.248 0.346503 1.53744 0
M  V30 1252 C 119.198 -0.524953 2.21874 0
M  V30 1253 C 120.182 -1.06376 1.20718 0
M  V30 1254 O 121.374 -0.996972 1.46251 0
M  V30 1255 C 118.503 -1.6739 2.99726 0
M  V30 1256 C 117.589 -1.14888 4.08242 0
M  V30 1257 N 117.98 -0.345329 5.0462 0
M  V30 1258 C 116.278 -1.4255 4.22606 0
M  V30 1259 C 116.979 -0.0600706 5.81669 0
M  V30 1260 N 115.955 -0.65252 5.39669 0
M  V30 1261 H 119.757 0.0960091 2.93743 0
M  V30 1262 H 117.271 0.15352 1.61673 0
M  V30 1263 H 119.268 -2.3102 3.47038 0
M  V30 1264 H 117.928 -2.29811 2.29384 0
M  V30 1265 H 118.939 0.0138439 5.17898 0
M  V30 1266 H 115.616 -2.05389 3.63486 0
M  V30 1267 H 117.006 0.588321 6.69319 0
M  V30 1268 N 119.726 -1.57421 0.075193 0
M  V30 1269 C 120.975 -1.92794 -0.592731 0
M  V30 1270 C 121.288 -0.957478 -1.70563 0
M  V30 1271 O 122.494 -1.20417 -2.43335 0
M  V30 1272 C 120.95 -3.42495 -1.10569 0
M  V30 1273 C 120.558 -4.47994 -0.0236121 0
M  V30 1274 C 122.302 -3.86864 -1.74748 0
M  V30 1275 C 120.209 -5.88829 -0.550803 0
M  V30 1276 H 119.139 -0.719591 -0.225177 0
M  V30 1277 H 121.79 -1.82902 0.147978 0
M  V30 1278 H 120.172 -3.47471 -1.89947 0
M  V30 1279 H 121.346 -4.54637 0.751099 0
M  V30 1280 H 119.661 -4.13113 0.522159 0
M  V30 1281 H 122.258 -4.8947 -2.15229 0
M  V30 1282 H 122.601 -3.24417 -2.60882 0
M  V30 1283 H 123.134 -3.84504 -1.01986 0
M  V30 1284 H 119.873 -6.54929 0.273457 0
M  V30 1285 H 119.393 -5.85698 -1.29296 0
M  V30 1286 H 121.072 -6.38811 -1.02613 0
M  V30 1287 N 121.204 0.198386 -1.56346 0
M  V30 1288 C 122.481 0.944982 -1.71258 0
M  V30 1289 C 122.861 2.0151 -0.629048 0
M  V30 1290 O 122.209 2.25639 0.360473 0
M  V30 1291 C 122.419 1.5344 -3.1346 0
M  V30 1292 C 123.767 2.01778 -3.73591 0
M  V30 1293 O 124.791 1.63288 -3.16568 0
M  V30 1294 O 123.65 2.72594 -4.73661 0
M  V30 1295 H 120.744 0.442939 -0.69838 0
M  V30 1296 H 123.29 0.188342 -1.68652 0
M  V30 1297 H 122.062 0.762869 -3.83792 0
M  V30 1298 H 121.685 2.35596 -3.20282 0
M  V30 1299 N 122.682 1.50554 0.465978 0
M  V30 1300 C 123.91 1.65563 1.24083 0
M  V30 1301 C 124.325 0.341051 1.85694 0
M  V30 1302 O 123.682 -0.677543 1.69457 0
M  V30 1303 C 123.733 2.75051 2.34583 0
M  V30 1304 O 123.454 4.01413 1.75497 0
M  V30 1305 C 124.955 3.01078 3.25372 0
M  V30 1306 H 122.175 0.55638 0.375077 0
M  V30 1307 H 124.719 1.96807 0.555624 0
M  V30 1308 H 122.874 2.46486 2.9887 0
M  V30 1309 H 123.288 4.62002 2.48303 0
M  V30 1310 H 124.762 3.81339 3.99105 0
M  V30 1311 H 125.239 2.12349 3.84453 0
M  V30 1312 H 125.845 3.31194 2.66816 0
M  V30 1313 N 124.16 -0.719506 1.40217 0
M  V30 1314 C 125.406 -1.48152 1.38488 0
M  V30 1315 C 125.739 -1.94195 -0.0141867 0
M  V30 1316 O 125.014 -1.67884 -0.982096 0
M  V30 1317 C 125.297 -2.71035 2.37091 0
M  V30 1318 C 125.15 -2.30912 3.86005 0
M  V30 1319 C 126.469 -3.73182 2.33288 0
M  V30 1320 H 123.588 -0.537395 0.504357 0
M  V30 1321 H 126.23 -0.821472 1.71324 0
M  V30 1322 H 124.38 -3.27352 2.0922 0
M  V30 1323 H 126.052 -1.80107 4.24687 0
M  V30 1324 H 124.295 -1.62958 4.02029 0
M  V30 1325 H 124.966 -3.18978 4.50508 0
M  V30 1326 H 127.442 -3.26485 2.57966 0
M  V30 1327 H 126.318 -4.56806 3.04334 0
M  V30 1328 H 126.579 -4.21202 1.34317 0
M  V30 1329 N 125.638 -1.25649 -0.95132 0
M  V30 1330 C 126.884 -1.10757 -1.69884 0
M  V30 1331 C 127.217 0.350061 -1.91019 0
M  V30 1332 O 126.492 1.25783 -1.48354 0
M  V30 1333 C 126.775 -1.86606 -3.07978 0
M  V30 1334 C 126.628 -3.40217 -2.94232 0
M  V30 1335 C 127.947 -1.65182 -4.07925 0
M  V30 1336 H 125.066 -0.40374 -0.616574 0
M  V30 1337 H 127.708 -1.54521 -1.10558 0
M  V30 1338 H 125.858 -1.49409 -3.58621 0
M  V30 1339 H 127.53 -3.87108 -2.50889 0
M  V30 1340 H 125.773 -3.67759 -2.30078 0
M  V30 1341 H 126.444 -3.88505 -3.92133 0
M  V30 1342 H 128.92 -1.9757 -3.66204 0
M  V30 1343 H 127.796 -2.20683 -5.02583 0
M  V30 1344 H 128.057 -0.593933 -4.38092 0
M  V30 1345 N 127.117 1.15442 -1.07289 0
M  V30 1346 C 128.065 2.22225 -0.686952 0
M  V30 1347 C 129.059 1.66688 0.30193 0
M  V30 1348 O 130.265 1.79236 0.165712 0
M  V30 1349 H 126.64 0.723783 -0.204064 0
M  V30 1350 H 128.611 2.52056 -1.5972 0
M  V30 1351 C 127.36 3.47556 -0.100149 0
M  V30 1352 H 126.683 3.90612 -0.852211 0
M  V30 1353 H 128.123 4.23794 0.132235 0
M  V30 1354 C 126.582 3.16337 1.159 0
M  V30 1355 O 127.112 3.33074 2.24555 0
M  V30 1356 N 125.318 2.70385 1.06491 0
M  V30 1357 H 124.865 2.56966 0.180668 0
M  V30 1358 H 124.823 2.49871 1.90819 0
M  V30 1359 N 128.595 0.856903 1.32268 0
M  V30 1360 C 129.843 0.460474 1.96784 0
M  V30 1361 C 130.164 -0.987701 1.68135 0
M  V30 1362 O 129.434 -1.69058 0.989765 0
M  V30 1363 H 128.014 0.167289 0.728027 0
M  V30 1364 H 130.676 1.09383 1.61312 0
M  V30 1365 H 129.772 0.60739 3.06133 0
M  V30 1366 N 130.073 -1.45103 0.615059 0
M  V30 1367 C 131.321 -2.01784 0.112955 0
M  V30 1368 C 131.642 -1.48504 -1.26378 0
M  V30 1369 O 130.912 -0.682245 -1.83636 0
M  V30 1370 H 129.492 -0.745993 0.0387668 0
M  V30 1371 H 132.154 -1.77808 0.798141 0
M  V30 1372 H 131.25 -3.12025 0.0684069 0
M  V30 1373 N 131.551 -0.354651 -1.53558 0
M  V30 1374 C 132.499 0.512195 -2.26891 0
M  V30 1375 C 133.493 1.09263 -1.29452 0
M  V30 1376 O 134.699 1.03709 -1.47121 0
M  V30 1377 H 131.074 0.183878 -0.729173 0
M  V30 1378 H 133.045 -0.128202 -2.98124 0
M  V30 1379 C 131.794 1.64563 -3.06291 0
M  V30 1380 H 131.117 1.20829 -3.81104 0
M  V30 1381 H 132.557 2.22711 -3.60799 0
M  V30 1382 C 131.016 2.58158 -2.16462 0
M  V30 1383 O 131.546 3.60695 -1.76811 0
M  V30 1384 N 129.752 2.27096 -1.81317 0
M  V30 1385 H 129.299 1.43751 -2.1376 0
M  V30 1386 H 129.257 2.89975 -1.21498 0
M  V30 1387 N 133.029 1.57378 -0.0835403 0
M  V30 1388 C 133.959 2.1641 0.87686 0
M  V30 1389 C 134.94 1.09429 1.30228 0
M  V30 1390 O 136.125 1.37516 1.37124 0
M  V30 1391 C 133.255 2.73517 2.14022 0
M  V30 1392 C 132.209 3.85769 1.85381 0
M  V30 1393 C 131.535 4.29529 3.18448 0
M  V30 1394 C 132.835 5.09486 1.14984 0
M  V30 1395 H 134.529 2.96914 0.385059 0
M  V30 1396 H 132.075 1.42823 0.18377 0
M  V30 1397 H 134.028 3.13463 2.81636 0
M  V30 1398 H 132.752 1.90252 2.65465 0
M  V30 1399 H 131.411 3.46345 1.20169 0
M  V30 1400 H 131.059 3.43169 3.67755 0
M  V30 1401 H 130.759 5.05204 3.00071 0
M  V30 1402 H 132.283 4.72099 3.8724 0
M  V30 1403 H 133.697 5.46674 1.72687 0
M  V30 1404 H 132.094 5.90515 1.06826 0
M  V30 1405 H 133.164 4.84724 0.130749 0
M  V30 1406 N 134.507 -0.190092 1.56449 0
M  V30 1407 C 135.784 -0.935886 1.71757 0
M  V30 1408 C 136.164 -2.01173 0.639726 0
M  V30 1409 O 135.512 -2.25827 -0.348502 0
M  V30 1410 C 135.722 -1.51775 3.1427 0
M  V30 1411 C 137.07 -1.99794 3.74656 0
M  V30 1412 O 138.094 -1.61607 3.1743 0
M  V30 1413 O 136.953 -2.70079 4.751 0
M  V30 1414 H 134.047 -0.439229 0.700719 0
M  V30 1415 H 136.593 -0.179395 1.68749 0
M  V30 1416 H 135.365 -0.742505 3.84191 0
M  V30 1417 H 134.988 -2.33894 3.21527 0
M  V30 1418 N 135.985 -1.50799 -0.457987 0
M  V30 1419 C 137.233 -1.62121 -1.2067 0
M  V30 1420 C 137.554 -0.329793 -1.92191 0
M  V30 1421 O 136.824 0.653409 -1.84682 0
M  V30 1422 H 135.404 -0.597441 -0.448411 0
M  V30 1423 H 138.066 -1.87637 -0.527096 0
M  V30 1424 H 137.162 -2.43882 -1.94751 0
M  V30 1425 N 137.463 0.71206 -1.40597 0
M  V30 1426 C 138.395 1.83704 -1.37061 0
M  V30 1427 C 139.408 1.60453 -0.275426 0
M  V30 1428 O 140.597 1.70262 -0.53602 0
M  V30 1429 C 137.697 3.20172 -1.11099 0
M  V30 1430 C 136.87 3.7059 -2.3234 0
M  V30 1431 C 135.929 4.85681 -2.02485 0
M  V30 1432 O 134.955 4.9815 -2.75382 0
M  V30 1433 N 136.157 5.71735 -1.00497 0
M  V30 1434 H 138.922 1.87235 -2.34016 0
M  V30 1435 H 136.483 0.893739 -1.34996 0
M  V30 1436 H 138.475 3.94768 -0.891064 0
M  V30 1437 H 137.045 3.11767 -0.227989 0
M  V30 1438 H 136.265 2.87085 -2.7014 0
M  V30 1439 H 137.553 4.01011 -3.13157 0
M  V30 1440 H 136.951 5.64275 -0.401298 0
M  V30 1441 H 135.508 6.463 -0.844942 0
M  V30 1442 N 138.941 1.26152 0.944643 0
M  V30 1443 C 140.188 1.11492 1.69044 0
M  V30 1444 C 140.516 -0.342366 1.91463 0
M  V30 1445 O 139.771 -1.26812 1.49054 0
M  V30 1446 C 140.07 1.82541 3.07268 0
M  V30 1447 C 139.736 3.32445 3.04616 0
M  V30 1448 C 138.398 3.73337 3.036 0
M  V30 1449 C 140.75 4.28171 2.97185 0
M  V30 1450 C 138.078 5.08348 2.92915 0
M  V30 1451 C 140.43 5.63218 2.88041 0
M  V30 1452 C 139.094 6.03426 2.85366 0
M  V30 1453 H 138.364 0.407977 0.618576 0
M  V30 1454 H 141.011 1.56551 1.10291 0
M  V30 1455 H 139.316 1.29941 3.69625 0
M  V30 1456 H 141.013 1.68642 3.63815 0
M  V30 1457 H 137.603 2.99915 3.06185 0
M  V30 1458 H 141.787 3.97563 2.97081 0
M  V30 1459 H 137.043 5.38667 2.89219 0
M  V30 1460 H 141.217 6.37078 2.81254 0
M  V30 1461 H 138.844 7.07999 2.76842 0
M  V30 1462 N 140.419 -1.14872 1.07899 0
M  V30 1463 C 141.667 -1.85422 0.803941 0
M  V30 1464 C 141.988 -1.83051 -0.67211 0
M  V30 1465 O 141.258 -1.27532 -1.48703 0
M  V30 1466 H 139.838 -0.686537 0.294408 0
M  V30 1467 H 142.5 -1.39226 1.3639 0
M  V30 1468 H 141.596 -2.90399 1.14346 0
M  V30 1469 N 141.898 -0.863906 -1.31812 0
M  V30 1470 C 142.861 -0.320212 -2.26952 0
M  V30 1471 C 143.861 0.525369 -1.51975 0
M  V30 1472 O 145.051 0.335547 -1.70938 0
M  V30 1473 C 142.183 0.545919 -3.365 0
M  V30 1474 H 143.376 -1.16004 -2.76556 0
M  V30 1475 H 140.929 -0.638995 -1.42641 0
M  V30 1476 H 141.664 1.40718 -2.92179 0
M  V30 1477 H 141.449 -0.0594674 -3.92055 0
M  V30 1478 H 142.939 0.918796 -4.07367 0
M  V30 1479 N 143.376 1.44774 -0.622745 0
M  V30 1480 C 144.306 2.33382 0.0741861 0
M  V30 1481 C 145.287 1.47719 0.843387 0
M  V30 1482 O 146.472 1.76458 0.810934 0
M  V30 1483 C 143.602 3.30663 1.06204 0
M  V30 1484 C 142.556 4.26079 0.405037 0
M  V30 1485 C 141.882 5.13165 1.5022 0
M  V30 1486 C 143.182 5.1781 -0.683414 0
M  V30 1487 H 144.876 2.91905 -0.665713 0
M  V30 1488 H 142.422 1.40363 -0.321587 0
M  V30 1489 H 144.375 3.9153 1.55827 0
M  V30 1490 H 143.099 2.70331 1.83272 0
M  V30 1491 H 141.758 3.66532 -0.0704683 0
M  V30 1492 H 141.406 4.49191 2.26355 0
M  V30 1493 H 141.106 5.77812 1.06803 0
M  V30 1494 H 142.63 5.76902 2.00041 0
M  V30 1495 H 144.044 5.72661 -0.270631 0
M  V30 1496 H 142.441 5.91015 -1.04023 0
M  V30 1497 H 143.511 4.59326 -1.55395 0
M  V30 1498 N 144.854 0.36279 1.53368 0
M  V30 1499 C 145.817 -0.472679 2.24273 0
M  V30 1500 C 146.817 -1.012 1.24961 0
M  V30 1501 O 148.007 -0.898194 1.49259 0
M  V30 1502 C 145.139 -1.66039 2.97731 0
M  V30 1503 H 146.332 0.14773 2.99536 0
M  V30 1504 H 143.885 0.114434 1.55881 0
M  V30 1505 H 144.62 -2.31896 2.26704 0
M  V30 1506 H 144.405 -1.28066 3.70596 0
M  V30 1507 H 145.895 -2.25252 3.51641 0
M  V30 1508 N 146.332 -1.57332 0.0918853 0
M  V30 1509 C 147.295 -2.12708 -0.85369 0
M  V30 1510 C 148.295 -1.05561 -1.213 0
M  V30 1511 O 149.485 -1.31461 -1.14296 0
M  V30 1512 C 146.617 -2.64503 -2.15061 0
M  V30 1513 H 147.81 -2.97573 -0.3729 0
M  V30 1514 H 145.363 -1.55509 -0.157072 0
M  V30 1515 H 146.098 -1.83149 -2.67632 0
M  V30 1516 H 145.883 -3.4284 -1.90272 0
M  V30 1517 H 147.373 -3.07351 -2.82711 0
M  V30 1518 N 147.81 0.181792 -1.56548 0
M  V30 1519 C 149.056 0.896803 -1.82562 0
M  V30 1520 C 149.411 1.80324 -0.670908 0
M  V30 1521 O 148.704 1.8868 0.333235 0
M  V30 1522 C 148.898 1.73728 -3.12335 0
M  V30 1523 C 148.727 0.913714 -4.4032 0
M  V30 1524 C 147.497 0.592903 -5.01809 0
M  V30 1525 C 149.695 0.260164 -5.13642 0
M  V30 1526 N 147.677 -0.247901 -6.13399 0
M  V30 1527 C 149.048 -0.442256 -6.18421 0
M  V30 1528 C 151.103 0.177253 -4.97584 0
M  V30 1529 C 149.806 -1.21971 -7.08883 0
M  V30 1530 C 151.832 -0.586839 -5.88481 0
M  V30 1531 C 151.194 -1.27766 -6.92716 0
M  V30 1532 H 147.293 0.307122 -0.719166 0
M  V30 1533 H 149.877 0.164535 -1.94004 0
M  V30 1534 H 148.048 2.44105 -3.02105 0
M  V30 1535 H 149.78 2.39279 -3.26386 0
M  V30 1536 H 146.535 0.920502 -4.64568 0
M  V30 1537 H 146.959 -0.658304 -6.73792 0
M  V30 1538 H 151.601 0.696993 -4.17015 0
M  V30 1539 H 149.319 -1.75083 -7.88905 0
M  V30 1540 H 152.905 -0.652522 -5.78129 0
M  V30 1541 H 151.785 -1.85943 -7.61836 0
M  V30 1542 N 149.288 1.51039 0.449983 0
M  V30 1543 C 150.218 1.74379 1.55288 0
M  V30 1544 C 151.199 0.593236 1.5942 0
M  V30 1545 O 152.384 0.834625 1.7535 0
M  V30 1546 C 149.514 1.85728 2.93466 0
M  V30 1547 C 148.468 3.01078 3.04197 0
M  V30 1548 C 147.794 2.97595 4.44231 0
M  V30 1549 C 149.094 4.41254 2.7945 0
M  V30 1550 H 150.788 2.66725 1.36008 0
M  V30 1551 H 148.334 1.2835 0.652864 0
M  V30 1552 H 150.287 2.0064 3.70569 0
M  V30 1553 H 149.011 0.900207 3.13949 0
M  V30 1554 H 147.67 2.85851 2.29531 0
M  V30 1555 H 147.318 1.99691 4.61663 0
M  V30 1556 H 147.018 3.75046 4.52343 0
M  V30 1557 H 148.542 3.14583 5.23326 0
M  V30 1558 H 149.956 4.56897 3.46292 0
M  V30 1559 H 148.353 5.20315 2.98985 0
M  V30 1560 H 149.423 4.52164 1.75144 0
M  V30 1561 N 150.766 -0.704594 1.40972 0
M  V30 1562 C 151.729 -1.80035 1.41845 0
M  V30 1563 C 152.729 -1.57774 0.310474 0
M  V30 1564 O 153.919 -1.64613 0.56992 0
M  V30 1565 C 151.051 -3.18284 1.22098 0
M  V30 1566 H 152.244 -1.80658 2.3938 0
M  V30 1567 H 149.797 -0.911329 1.26982 0
M  V30 1568 H 150.532 -3.23306 0.253672 0
M  V30 1569 H 150.317 -3.35843 2.02366 0
M  V30 1570 H 151.807 -3.98289 1.25522 0
M  V30 1571 N 152.244 -1.26651 -0.937939 0
M  V30 1572 C 153.493 -1.11775 -1.67897 0
M  V30 1573 C 153.806 0.33794 -1.92659 0
M  V30 1574 O 155.012 0.607434 -2.64618 0
M  V30 1575 C 153.468 -1.9523 -3.02346 0
M  V30 1576 C 153.076 -3.45393 -2.8532 0
M  V30 1577 C 154.82 -1.88972 -3.80118 0
M  V30 1578 C 152.727 -4.21083 -4.15263 0
M  V30 1579 H 151.657 -0.414696 -0.629717 0
M  V30 1580 H 154.308 -1.50988 -1.04283 0
M  V30 1581 H 152.69 -1.48853 -3.66959 0
M  V30 1582 H 153.864 -3.99561 -2.29537 0
M  V30 1583 H 152.179 -3.52921 -2.20988 0
M  V30 1584 H 154.776 -2.42805 -4.76392 0
M  V30 1585 H 155.119 -0.86113 -4.07296 0
M  V30 1586 H 155.652 -2.33189 -3.22285 0
M  V30 1587 H 152.391 -5.24425 -3.93267 0
M  V30 1588 H 151.911 -3.71695 -4.70747 0
M  V30 1589 H 153.59 -4.29706 -4.83696 0
M  V30 1590 N 153.722 1.14298 -1.08507 0
M  V30 1591 C 154.999 1.81544 -0.728088 0
M  V30 1592 C 155.379 1.95838 0.78808 0
M  V30 1593 O 154.727 1.51904 1.70697 0
M  V30 1594 C 154.937 3.17169 -1.45619 0
M  V30 1595 C 156.285 3.9265 -1.61591 0
M  V30 1596 O 157.309 3.26762 -1.41793 0
M  V30 1597 O 156.168 5.10807 -1.94263 0
M  V30 1598 H 153.262 0.78491 -0.260471 0
M  V30 1599 H 155.808 1.21307 -1.18671 0
M  V30 1600 H 154.58 3.01934 -2.489 0
M  V30 1601 H 154.203 3.851 -0.989124 0
M  V30 1602 N 155.201 0.870884 1.31352 0
M  V30 1603 C 156.447 0.492314 1.97352 0
M  V30 1604 C 156.802 -0.945174 1.67583 0
M  V30 1605 O 156.095 -1.65674 0.962423 0
M  V30 1606 C 156.289 0.687157 3.50732 0
M  V30 1607 C 156.118 2.14203 3.95407 0
M  V30 1608 C 154.888 2.78382 4.21701 0
M  V30 1609 C 157.086 3.1144 4.09279 0
M  V30 1610 N 155.068 4.14611 4.52737 0
M  V30 1611 C 156.439 4.32702 4.44037 0
M  V30 1612 C 158.494 3.07418 3.91661 0
M  V30 1613 C 157.197 5.50463 4.63015 0
M  V30 1614 C 159.223 4.24438 4.11833 0
M  V30 1615 C 158.585 5.44463 4.46923 0
M  V30 1616 H 154.684 0.229206 0.747655 0
M  V30 1617 H 157.268 1.12568 1.5886 0
M  V30 1618 H 155.439 0.083384 3.8831 0
M  V30 1619 H 157.171 0.276883 4.03752 0
M  V30 1620 H 153.926 2.29326 4.14375 0
M  V30 1621 H 154.35 4.84928 4.72413 0
M  V30 1622 H 158.992 2.15732 3.6362 0
M  V30 1623 H 156.71 6.42666 4.89904 0
M  V30 1624 H 160.296 4.2278 3.99685 0
M  V30 1625 H 159.176 6.33504 4.62214 0
M  V30 1626 N 156.679 -1.44442 0.630414 0
M  V30 1627 C 157.609 -2.33418 -0.0618083 0
M  V30 1628 C 158.59 -1.48165 -0.835541 0
M  V30 1629 O 159.775 -1.76886 -0.801564 0
M  V30 1630 C 156.905 -3.31222 -1.04449 0
M  V30 1631 C 155.859 -4.26288 -0.382436 0
M  V30 1632 C 155.185 -5.13954 -1.47497 0
M  V30 1633 C 156.485 -5.1744 0.710865 0
M  V30 1634 H 158.179 -2.91548 0.681184 0
M  V30 1635 H 155.725 -1.40191 0.329026 0
M  V30 1636 H 157.678 -3.92351 -1.53748 0
M  V30 1637 H 156.402 -2.71299 -1.81836 0
M  V30 1638 H 155.061 -3.6649 0.0899054 0
M  V30 1639 H 154.709 -4.50385 -2.2397 0
M  V30 1640 H 154.409 -5.7837 -1.03737 0
M  V30 1641 H 155.933 -5.77955 -1.96979 0
M  V30 1642 H 157.347 -5.72509 0.300996 0
M  V30 1643 H 155.744 -5.90455 1.07156 0
M  V30 1644 H 156.814 -4.58496 1.57829 0
M  V30 1645 N 158.157 -0.370918 -1.53173 0
M  V30 1646 C 159.104 0.473035 -2.259 0
M  V30 1647 C 160.074 1.07311 -1.26781 0
M  V30 1648 O 161.259 1.1046 -1.55574 0
M  V30 1649 C 158.399 1.60405 -3.05556 0
M  V30 1650 C 157.512 1.02863 -4.19575 0
M  V30 1651 C 156.647 2.12918 -4.86661 0
M  V30 1652 C 155.686 1.52869 -5.92704 0
M  V30 1653 N 154.823 2.56779 -6.53459 0
M  V30 1654 H 159.663 -0.153649 -2.97604 0
M  V30 1655 H 157.2 -0.0875946 -1.46839 0
M  V30 1656 H 159.158 2.27034 -3.50016 0
M  V30 1657 H 157.788 2.20131 -2.36097 0
M  V30 1658 H 156.84 0.252465 -3.79561 0
M  V30 1659 H 158.152 0.549642 -4.95762 0
M  V30 1660 H 157.306 2.87356 -5.34333 0
M  V30 1661 H 156.045 2.6417 -4.09958 0
M  V30 1662 H 155.05 0.769479 -5.44389 0
M  V30 1663 H 156.275 1.02435 -6.7133 0
M  V30 1664 H 154.221 3.07235 -5.79606 0
M  V30 1665 H 154.138 2.13583 -7.25202 0
M  V30 1666 H 155.406 3.30903 -7.05779 0
M  V30 1667 N 159.635 1.57281 -0.100228 0
M  V30 1668 C 160.863 1.98879 0.570509 0
M  V30 1669 C 161.278 0.979476 1.61405 0
M  V30 1670 O 160.635 -0.0302288 1.82475 0
M  V30 1671 C 160.686 3.4052 1.2136 0
M  V30 1672 O 160.407 4.37588 0.211786 0
M  V30 1673 C 161.908 3.97149 1.96945 0
M  V30 1674 H 159.128 0.653428 0.152555 0
M  V30 1675 H 161.672 2.03697 -0.18103 0
M  V30 1676 H 159.827 3.367 1.91603 0
M  V30 1677 H 160.241 5.20118 0.676607 0
M  V30 1678 H 161.715 4.98393 2.37294 0
M  V30 1679 H 162.192 3.3525 2.83733 0
M  V30 1680 H 162.798 4.04458 1.31506 0
M  V30 1681 N 161.113 -0.173488 1.56642 0
M  V30 1682 C 162.045 -1.23935 1.92802 0
M  V30 1683 C 163.058 -1.40589 0.820889 0
M  V30 1684 O 164.247 -1.40631 1.09933 0
M  V30 1685 C 161.347 -2.60837 2.16373 0
M  V30 1686 C 160.52 -2.6551 3.47596 0
M  V30 1687 C 159.579 -3.8376 3.60021 0
M  V30 1688 O 158.605 -3.69859 4.32658 0
M  V30 1689 N 159.807 -5.00127 2.94709 0
M  V30 1690 H 162.572 -0.932236 2.84832 0
M  V30 1691 H 160.133 -0.363268 1.57772 0
M  V30 1692 H 162.125 -3.38407 2.21952 0
M  V30 1693 H 160.695 -2.83948 1.30738 0
M  V30 1694 H 159.915 -1.74052 3.53694 0
M  V30 1695 H 161.203 -2.65641 4.33949 0
M  V30 1696 H 160.601 -5.14322 2.35563 0
M  V30 1697 H 159.158 -5.75567 3.05886 0
M  V30 1698 N 162.591 -1.51276 -0.441967 0
M  V30 1699 C 163.821 -1.67273 -1.21257 0
M  V30 1700 C 164.229 -0.367624 -1.85594 0
M  V30 1701 O 163.572 0.663349 -1.71305 0
M  V30 1702 C 163.634 -2.72807 -2.34129 0
M  V30 1703 C 163.298 -4.1554 -1.90198 0
M  V30 1704 C 164.295 -5.00471 -1.40801 0
M  V30 1705 C 161.98 -4.61616 -1.9803 0
M  V30 1706 C 163.974 -6.29536 -0.998174 0
M  V30 1707 C 161.661 -5.90679 -1.56658 0
M  V30 1708 C 162.659 -6.74466 -1.07633 0
M  V30 1709 O 162.347 -8.01116 -0.668459 0
M  V30 1710 H 162.079 -0.564614 -0.371734 0
M  V30 1711 H 164.633 -1.9843 -0.530521 0
M  V30 1712 H 162.863 -2.36954 -3.05597 0
M  V30 1713 H 164.552 -2.77729 -2.96009 0
M  V30 1714 H 165.318 -4.66079 -1.34148 0
M  V30 1715 H 161.197 -3.96526 -2.35135 0
M  V30 1716 H 164.741 -6.94885 -0.61482 0
M  V30 1717 H 160.638 -6.24586 -1.62979 0
M  V30 1718 H 161.406 -8.14633 -0.794722 0
M  V30 1719 N 164.069 0.697108 -1.41344 0
M  V30 1720 C 165.317 1.45426 -1.40341 0
M  V30 1721 C 165.638 1.94996 -0.0128787 0
M  V30 1722 O 164.908 1.71599 0.945027 0
M  V30 1723 H 163.488 0.539594 -0.516573 0
M  V30 1724 H 166.15 0.825201 -1.76569 0
M  V30 1725 H 165.246 2.31817 -2.08967 0
M  V30 1726 N 165.547 1.27147 0.931209 0
M  V30 1727 C 166.51 1.09615 2.01289 0
M  V30 1728 C 167.51 0.0412581 1.60747 0
M  V30 1729 O 168.7 0.285545 1.71844 0
M  V30 1730 C 165.832 0.669447 3.34262 0
M  V30 1731 H 167.025 2.05662 2.18273 0
M  V30 1732 H 164.578 1.09885 1.11153 0
M  V30 1733 H 165.313 -0.292572 3.22978 0
M  V30 1734 H 165.098 1.43127 3.65044 0
M  V30 1735 H 166.588 0.568921 4.13706 0
M  V30 1736 N 167.025 -1.13721 1.09112 0
M  V30 1737 C 168.436 -1.6648 0.845068 0
M  V30 1738 C 168.787 -1.85911 -0.62701 0
M  V30 1739 O 167.912 -1.57556 -1.48341 0
M  V30 1740 C 168.507 -3.02413 1.52748 0
M  V30 1741 C 167.066 -3.52176 1.32849 0
M  V30 1742 C 166.213 -2.27492 1.58564 0
M  V30 1743 H 169.164 -0.976872 1.25072 0
M  V30 1744 H 169.185 -3.68223 0.958752 0
M  V30 1745 H 168.697 -2.88238 2.59885 0
M  V30 1746 H 166.798 -3.7156 0.278137 0
M  V30 1747 H 166.911 -4.32499 2.0611 0
M  V30 1748 H 165.275 -2.33923 1.00758 0
M  V30 1749 H 166.058 -2.15886 2.66924 0
M  V30 1750 N 168.503 -0.877838 -1.30888 0
M  V30 1751 C 169.433 -0.35534 -2.3078 0
M  V30 1752 C 170.414 0.557994 -1.60687 0
M  V30 1753 O 171.599 0.473355 -1.88343 0
M  V30 1754 C 168.729 0.437221 -3.44537 0
M  V30 1755 C 167.683 -0.383715 -4.26276 0
M  V30 1756 C 167.009 0.535014 -5.32017 0
M  V30 1757 C 168.309 -1.62201 -4.96476 0
M  V30 1758 H 170.003 -1.19007 -2.74732 0
M  V30 1759 H 167.549 -0.573698 -1.32078 0
M  V30 1760 H 169.502 0.813334 -4.13477 0
M  V30 1761 H 168.226 1.30553 -2.99372 0
M  V30 1762 H 166.885 -0.741874 -3.59015 0
M  V30 1763 H 166.533 1.40083 -4.831 0
M  V30 1764 H 166.233 -0.0104211 -5.87599 0
M  V30 1765 H 167.757 0.907799 -6.03814 0
M  V30 1766 H 169.171 -1.31689 -5.5797 0
M  V30 1767 H 167.568 -2.10711 -5.61891 0
M  V30 1768 H 168.638 -2.37044 -4.23011 0
M  V30 1769 N 169.982 1.44106 -0.638065 0
M  V30 1770 C 171.398 1.56672 -0.304286 0
M  V30 1771 C 171.598 1.6244 1.19228 0
M  V30 1772 O 170.654 1.57121 1.9766 0
M  V30 1773 C 171.967 2.83503 -1.00231 0
M  V30 1774 C 173.515 2.97226 -0.981116 0
M  V30 1775 C 173.99 4.26868 -1.65974 0
M  V30 1776 N 175.481 4.33698 -1.62666 0
M  V30 1777 C 176.216 5.32745 -2.12063 0
M  V30 1778 N 175.712 6.38157 -2.6968 0
M  V30 1779 N 177.505 5.24299 -2.02651 0
M  V30 1780 H 169.656 1.38605 -1.60942 0
M  V30 1781 H 171.919 0.664661 -0.675965 0
M  V30 1782 H 171.625 2.85251 -2.0573 0
M  V30 1783 H 171.499 3.73251 -0.54439 0
M  V30 1784 H 173.886 2.95027 0.0654188 0
M  V30 1785 H 173.967 2.08808 -1.47759 0
M  V30 1786 H 173.611 4.29826 -2.70576 0
M  V30 1787 H 173.541 5.14156 -1.13804 0
M  V30 1788 H 176.032 3.58138 -1.20606 0
M  V30 1789 H 176.345 7.10029 -3.05087 0
M  V30 1790 H 174.69 6.38823 -2.73734 0
M  V30 1791 H 177.881 4.4086 -1.57353 0
M  V30 1792 H 178.054 6.01334 -2.41457 0
M  V30 1793 N 171.46 0.379036 1.52974 0
M  V30 1794 C 172.688 -0.20679 2.05864 0
M  V30 1795 C 173.103 -1.41356 1.25155 0
M  V30 1796 O 172.46 -1.8009 0.295588 0
M  V30 1797 C 172.511 -0.587045 3.56702 0
M  V30 1798 O 172.232 0.571776 4.34353 0
M  V30 1799 C 173.733 -1.22983 4.25899 0
M  V30 1800 H 170.953 -0.0336123 0.670158 0
M  V30 1801 H 173.497 0.541298 1.97206 0
M  V30 1802 H 171.652 -1.28504 3.65466 0
M  V30 1803 H 172.066 0.261544 5.23847 0
M  V30 1804 H 173.54 -1.44635 5.32715 0
M  V30 1805 H 174.017 -2.19416 3.80465 0
M  V30 1806 H 174.623 -0.572892 4.21424 0
M  V30 1807 N 172.938 -1.57226 0.108567 0
M  V30 1808 C 174.184 -1.95121 -0.552761 0
M  V30 1809 C 174.517 -0.991345 -1.66991 0
M  V30 1810 O 173.792 -0.0267211 -1.94482 0
M  V30 1811 C 174.075 -3.43039 -1.09528 0
M  V30 1812 C 173.928 -4.49797 0.0177332 0
M  V30 1813 C 175.247 -3.92567 -1.98945 0
M  V30 1814 H 172.366 -0.709496 -0.199461 0
M  V30 1815 H 175.008 -1.89126 0.182011 0
M  V30 1816 H 173.158 -3.48279 -1.72146 0
M  V30 1817 H 174.83 -4.56661 0.652584 0
M  V30 1818 H 173.073 -4.284 0.682309 0
M  V30 1819 H 173.744 -5.50528 -0.402919 0
M  V30 1820 H 176.22 -3.89565 -1.46214 0
M  V30 1821 H 175.096 -4.96605 -2.33827 0
M  V30 1822 H 175.357 -3.32648 -2.91201 0
M  V30 1823 N 174.416 0.165178 -1.56732 0
M  V30 1824 C 175.326 1.22423 -2.00125 0
M  V30 1825 C 176.342 1.48084 -0.913619 0
M  V30 1826 O 177.518 1.60112 -1.22172 0
M  V30 1827 C 174.583 2.54197 -2.35764 0
M  V30 1828 C 173.644 2.36343 -3.58386 0
M  V30 1829 C 172.877 3.61834 -3.92316 0
M  V30 1830 O 173.1 4.67267 -3.27135 0
M  V30 1831 O 172.034 3.55579 -4.85641 0
M  V30 1832 H 175.86 0.885886 -2.90492 0
M  V30 1833 H 173.445 0.372518 -1.44681 0
M  V30 1834 H 175.327 3.3192 -2.59629 0
M  V30 1835 H 174.002 2.87598 -1.48557 0
M  V30 1836 H 172.909 1.56632 -3.39731 0
M  V30 1837 H 174.242 2.07865 -4.46154 0
M  V30 1838 N 175.894 1.51508 0.433938 0
M  V30 1839 C 177.14 1.64588 1.18484 0
M  V30 1840 C 177.473 0.362666 1.90784 0
M  V30 1841 O 176.748 -0.637892 1.83742 0
M  V30 1842 C 177.031 2.85149 2.19913 0
M  V30 1843 C 176.884 4.23456 1.51674 0
M  V30 1844 C 178.203 3.01227 3.20858 0
M  V30 1845 H 175.322 0.598994 0.429389 0
M  V30 1846 H 177.964 1.84002 0.473647 0
M  V30 1847 H 176.114 2.68729 2.80566 0
M  V30 1848 H 177.786 4.51552 0.943322 0
M  V30 1849 H 176.029 4.25998 0.819035 0
M  V30 1850 H 176.7 5.03812 2.2556 0
M  V30 1851 H 179.176 3.16382 2.70263 0
M  V30 1852 H 178.052 3.87141 3.89118 0
M  V30 1853 H 178.313 2.13447 3.8716 0
M  V30 1854 N 177.372 -0.689602 1.41712 0
M  V30 1855 C 178.618 -1.45181 1.41599 0
M  V30 1856 C 178.951 -1.94181 0.0270081 0
M  V30 1857 O 178.226 -1.6993 -0.946265 0
M  V30 1858 C 178.509 -2.65945 2.42787 0
M  V30 1859 C 178.362 -2.22672 3.90816 0
M  V30 1860 C 179.681 -3.68149 2.41151 0
M  V30 1861 H 176.8 -0.526576 0.515642 0
M  V30 1862 H 179.442 -0.784947 1.73028 0
M  V30 1863 H 177.592 -3.2284 2.16116 0
M  V30 1864 H 179.264 -1.71058 4.28412 0
M  V30 1865 H 177.507 -1.54394 4.05395 0
M  V30 1866 H 178.178 -3.0935 4.57172 0
M  V30 1867 H 180.654 -3.2094 2.64834 0
M  V30 1868 H 179.53 -4.50248 3.13955 0
M  V30 1869 H 179.791 -4.18259 1.43221 0
M  V30 1870 N 178.85 -1.27639 -0.924453 0
M  V30 1871 C 179.813 -1.10681 -2.00705 0
M  V30 1872 C 180.813 -0.0497823 -1.60723 0
M  V30 1873 O 182.003 -0.294654 -1.7169 0
M  V30 1874 C 179.135 -0.687164 -3.33902 0
M  V30 1875 H 180.328 -2.06817 -2.17179 0
M  V30 1876 H 177.881 -1.10473 -1.10569 0
M  V30 1877 H 178.616 0.275439 -3.23128 0
M  V30 1878 H 178.401 -1.45061 -3.6428 0
M  V30 1879 H 179.891 -0.590853 -4.13399 0
M  V30 1880 N 180.328 1.1314 -1.09713 0
M  V30 1881 C 181.261 2.17735 -0.683137 0
M  V30 1882 C 182.239 1.59582 0.311841 0
M  V30 1883 O 183.423 1.87298 0.212514 0
M  V30 1884 C 180.55 3.38699 -0.00684324 0
M  V30 1885 C 179.596 4.1546 -0.964102 0
M  V30 1886 S 180.429 4.74733 -2.47767 0
M  V30 1887 C 181.585 5.9904 -1.81387 0
M  V30 1888 H 181.818 2.52515 -1.56918 0
M  V30 1889 H 179.351 1.24484 -0.913404 0
M  V30 1890 H 181.309 4.08765 0.377044 0
M  V30 1891 H 179.97 3.02214 0.85589 0
M  V30 1892 H 179.163 5.02093 -0.43803 0
M  V30 1893 H 178.765 3.51066 -1.28953 0
M  V30 1894 H 181.057 6.67846 -1.13967 0
M  V30 1895 H 182 6.56261 -2.65947 0
M  V30 1896 H 182.408 5.4976 -1.28155 0
M  V30 1897 N 181.806 0.884767 1.30421 0
M  V30 1898 C 182.769 0.356277 2.26414 0
M  V30 1899 C 183.769 -0.501124 1.52792 0
M  V30 1900 O 184.959 -0.30831 1.7145 0
M  V30 1901 C 182.091 -0.492316 3.37326 0
M  V30 1902 H 183.284 1.20389 2.74675 0
M  V30 1903 H 180.837 0.661607 1.41607 0
M  V30 1904 H 181.572 -1.36052 2.94381 0
M  V30 1905 H 181.357 0.121832 3.91911 0
M  V30 1906 H 182.847 -0.853871 4.08777 0
M  V30 1907 N 183.284 -1.43765 0.645699 0
M  V30 1908 C 184.194 -2.34544 -0.0512957 0
M  V30 1909 C 185.21 -1.53455 -0.82022 0
M  V30 1910 O 186.386 -1.86133 -0.769176 0
M  V30 1911 C 183.451 -3.31636 -1.01087 0
M  V30 1912 C 182.512 -4.2863 -0.239712 0
M  V30 1913 C 181.745 -5.21084 -1.15358 0
M  V30 1914 O 181.968 -5.1779 -2.39269 0
M  V30 1915 O 180.902 -5.98593 -0.630038 0
M  V30 1916 H 184.728 -2.95624 0.695718 0
M  V30 1917 H 182.313 -1.43781 0.405882 0
M  V30 1918 H 184.195 -3.9136 -1.56254 0
M  V30 1919 H 182.87 -2.73069 -1.73824 0
M  V30 1920 H 181.777 -3.72408 0.355356 0
M  V30 1921 H 183.11 -4.90157 0.447936 0
M  V30 1922 N 184.763 -0.387143 -1.52771 0
M  V30 1923 C 185.673 0.456442 -2.30117 0
M  V30 1924 C 186.689 1.07342 -1.36944 0
M  V30 1925 O 187.865 1.07971 -1.70013 0
M  V30 1926 C 184.93 1.56957 -3.09136 0
M  V30 1927 C 183.991 0.977916 -4.18014 0
M  V30 1928 C 183.224 2.038 -4.93256 0
M  V30 1929 O 183.447 3.25271 -4.68567 0
M  V30 1930 O 182.381 1.6565 -5.78657 0
M  V30 1931 H 186.207 -0.17359 -3.03203 0
M  V30 1932 H 183.792 -0.150919 -1.48636 0
M  V30 1933 H 185.674 2.21628 -3.58412 0
M  V30 1934 H 184.349 2.18461 -2.38865 0
M  V30 1935 H 183.256 0.294525 -3.72939 0
M  V30 1936 H 184.589 0.407128 -4.90513 0
M  V30 1937 N 186.241 1.57166 -0.116904 0
M  V30 1938 C 187.151 2.18745 0.847812 0
M  V30 1939 C 188.167 1.163 1.29423 0
M  V30 1940 O 189.343 1.48761 1.35765 0
M  V30 1941 C 186.408 2.77307 2.0809 0
M  V30 1942 C 185.469 3.94781 1.68661 0
M  V30 1943 C 184.702 4.50541 2.86091 0
M  V30 1944 O 184.925 4.05202 4.01456 0
M  V30 1945 O 183.859 5.41256 2.63298 0
M  V30 1946 H 187.685 3.01632 0.353778 0
M  V30 1947 H 185.27 1.49005 0.108599 0
M  V30 1948 H 187.152 3.14647 2.80313 0
M  V30 1949 H 185.827 1.97452 2.56504 0
M  V30 1950 H 184.734 3.62214 0.935518 0
M  V30 1951 H 186.067 4.76065 1.24991 0
M  V30 1952 N 187.719 -0.156864 1.56817 0
M  V30 1953 C 188.967 -0.869404 1.82444 0
M  V30 1954 C 189.288 -1.82147 0.69623 0
M  V30 1955 O 188.558 -1.93847 -0.28287 0
M  V30 1956 H 187.138 -0.324043 0.673056 0
M  V30 1957 H 189.8 -0.153224 1.94297 0
M  V30 1958 H 188.896 -1.43761 2.77019 0
M  V30 1959 N 189.197 -1.51736 -0.425897 0
M  V30 1960 C 190.422 -1.69082 -1.20108 0
M  V30 1961 C 190.847 -0.392398 -1.83962 0
M  V30 1962 O 190.205 0.64858 -1.69302 0
M  V30 1963 C 190.253 -2.81604 -2.25237 0
M  V30 1964 O 189.357 -2.46004 -3.30992 0
M  V30 1965 H 188.698 -0.563408 -0.35138 0
M  V30 1966 H 191.228 -1.98358 -0.501512 0
M  V30 1967 H 191.238 -3.06025 -2.69838 0
M  V30 1968 H 189.913 -3.75817 -1.78142 0
M  V30 1969 H 188.49 -2.32195 -2.91787 0
M  V30 1970 N 190.675 0.682077 -1.42076 0
M  V30 1971 C 192.091 0.994324 -1.24841 0
M  V30 1972 C 192.291 2.0096 -0.147389 0
M  V30 1973 O 191.347 2.47822 0.483782 0
M  V30 1974 C 192.66 1.50607 -2.60265 0
M  V30 1975 C 194.208 1.62421 -2.6756 0
M  V30 1976 C 194.683 2.16994 -4.03333 0
M  V30 1977 N 196.174 2.24337 -4.0525 0
M  V30 1978 C 196.909 2.67621 -5.07116 0
M  V30 1979 N 196.405 3.1041 -6.19368 0
M  V30 1980 N 198.198 2.67305 -4.94474 0
M  V30 1981 H 190.349 0.00973908 -2.12398 0
M  V30 1982 H 192.612 0.0668593 -0.945639 0
M  V30 1983 H 192.318 0.834583 -3.41654 0
M  V30 1984 H 192.192 2.48602 -2.83684 0
M  V30 1985 H 194.579 2.28678 -1.86521 0
M  V30 1986 H 194.66 0.629352 -2.47937 0
M  V30 1987 H 194.304 1.51349 -4.84826 0
M  V30 1988 H 194.234 3.17258 -4.20304 0
M  V30 1989 H 196.725 1.94158 -3.24209 0
M  V30 1990 H 197.038 3.42103 -6.92954 0
M  V30 1991 H 195.383 3.08286 -6.22884 0
M  V30 1992 H 198.574 2.33233 -4.05857 0
M  V30 1993 H 198.747 3.00718 -5.73997 0
M  V30 1994 N 192.153 1.28127 0.917671 0
M  V30 1995 C 193.4 1.15052 1.66641 0
M  V30 1996 C 193.728 -0.301677 1.92146 0
M  V30 1997 O 192.983 -1.23622 1.51711 0
M  V30 1998 C 193.282 1.89018 3.03327 0
M  V30 1999 C 192.948 3.38832 2.97496 0
M  V30 2000 C 191.61 3.79693 2.95613 0
M  V30 2001 C 193.962 4.34378 2.88036 0
M  V30 2002 C 191.29 5.14447 2.82066 0
M  V30 2003 C 193.642 5.69201 2.7603 0
M  V30 2004 C 192.306 6.09343 2.72502 0
M  V30 2005 H 191.576 0.421006 0.609783 0
M  V30 2006 H 194.223 1.58855 1.06945 0
M  V30 2007 H 192.528 1.37752 3.66785 0
M  V30 2008 H 194.225 1.76321 3.60156 0
M  V30 2009 H 190.815 3.06342 2.99754 0
M  V30 2010 H 194.999 4.03775 2.88581 0
M  V30 2011 H 190.255 5.44681 2.77728 0
M  V30 2012 H 194.429 6.42901 2.67678 0
M  V30 2013 H 192.056 7.13712 2.61762 0
M  V30 2014 N 193.631 -1.12557 1.10312 0
M  V30 2015 C 195.042 -1.65574 0.862678 0
M  V30 2016 C 195.393 -1.86566 -0.607256 0
M  V30 2017 O 194.518 -1.59121 -1.46662 0
M  V30 2018 C 195.113 -3.00776 1.55947 0
M  V30 2019 C 193.672 -3.50748 1.36576 0
M  V30 2020 C 192.819 -2.25797 1.60968 0
M  V30 2021 H 195.77 -0.963552 1.26101 0
M  V30 2022 H 195.791 -3.67185 0.997753 0
M  V30 2023 H 195.303 -2.85465 2.62928 0
M  V30 2024 H 193.404 -3.71245 0.317531 0
M  V30 2025 H 193.517 -4.30289 2.10686 0
M  V30 2026 H 191.881 -2.32841 1.03234 0
M  V30 2027 H 192.664 -2.13043 2.69198 0
M  V30 2028 N 195.109 -0.891671 -1.2995 0
M  V30 2029 C 196.339 -0.527893 -1.99742 0
M  V30 2030 C 196.747 0.88979 -1.66971 0
M  V30 2031 O 196.09 1.59766 -0.906667 0
M  V30 2032 C 196.152 -0.630804 -3.53922 0
M  V30 2033 C 195.816 -2.01401 -4.10228 0
M  V30 2034 C 196.813 -2.98422 -4.25724 0
M  V30 2035 C 194.498 -2.32121 -4.45449 0
M  V30 2036 C 196.492 -4.24293 -4.75662 0
M  V30 2037 C 194.179 -3.58237 -4.95086 0
M  V30 2038 C 195.177 -4.54137 -5.10146 0
M  V30 2039 O 194.865 -5.78014 -5.58708 0
M  V30 2040 H 194.597 -0.201953 -0.645129 0
M  V30 2041 H 197.151 -1.20076 -1.66646 0
M  V30 2042 H 195.381 0.0990616 -3.86573 0
M  V30 2043 H 197.07 -0.277338 -4.04951 0
M  V30 2044 H 197.836 -2.76001 -3.98809 0
M  V30 2045 H 193.715 -1.5824 -4.32991 0
M  V30 2046 H 197.259 -4.99153 -4.87332 0
M  V30 2047 H 193.156 -3.80491 -5.21437 0
M  V30 2048 H 193.924 -5.8049 -5.77039 0
M  V30 2049 N 196.587 1.43421 -0.653314 0
M  V30 2050 C 197.833 2.02111 -0.166992 0
M  V30 2051 C 198.166 1.51423 1.21592 0
M  V30 2052 O 197.441 0.707389 1.8118 0
M  V30 2053 C 197.724 3.5966 -0.177948 0
M  V30 2054 C 197.577 4.20579 -1.59478 0
M  V30 2055 C 198.896 4.37413 0.4856 0
M  V30 2056 H 196.015 0.734374 -0.0621557 0
M  V30 2057 H 198.657 1.70717 -0.834016 0
M  V30 2058 H 196.807 3.86537 0.390032 0
M  V30 2059 H 198.479 4.04732 -2.21336 0
M  V30 2060 H 196.722 3.77226 -2.14204 0
M  V30 2061 H 197.393 5.29665 -1.5543 0
M  V30 2062 H 199.869 4.161 0.00234528 0
M  V30 2063 H 198.745 5.47075 0.447207 0
M  V30 2064 H 199.006 4.13672 1.55974 0
M  V30 2065 N 198.065 0.39524 1.52563 0
M  V30 2066 C 199.312 -0.185044 2.01653 0
M  V30 2067 C 199.64 -1.46317 1.28146 0
M  V30 2068 O 198.895 -1.9213 0.372074 0
M  V30 2069 C 199.194 -0.493444 3.53977 0
M  V30 2070 C 198.86 0.69384 4.4553 0
M  V30 2071 C 197.522 1.01954 4.70275 0
M  V30 2072 C 199.874 1.48785 4.99512 0
M  V30 2073 C 197.202 2.14069 5.46252 0
M  V30 2074 C 199.554 2.59965 5.76716 0
M  V30 2075 C 198.218 2.93037 5.99738 0
M  V30 2076 H 197.488 -0.0677123 0.7379 0
M  V30 2077 H 200.135 0.533807 1.8391 0
M  V30 2078 H 198.44 -1.29369 3.69825 0
M  V30 2079 H 200.137 -0.955163 3.89458 0
M  V30 2080 H 196.727 0.429987 4.26438 0
M  V30 2081 H 200.911 1.24946 4.80315 0
M  V30 2082 H 196.167 2.40056 5.62302 0
M  V30 2083 H 200.341 3.21887 6.17545 0
M  V30 2084 H 197.968 3.8003 6.58393 0
M  V30 2085 N 199.544 -1.57102 0.125237 0
M  V30 2086 C 200.79 -1.96488 -0.525753 0
M  V30 2087 C 201.145 -1.00786 -1.6389 0
M  V30 2088 O 200.438 -0.038979 -1.9156 0
M  V30 2089 C 200.632 -3.40096 -1.09862 0
M  V30 2090 C 200.461 -4.4968 -0.0425004 0
M  V30 2091 C 199.231 -5.03781 0.391463 0
M  V30 2092 C 201.429 -5.08936 0.740829 0
M  V30 2093 N 199.411 -5.96948 1.4327 0
M  V30 2094 C 200.782 -5.98105 1.6331 0
M  V30 2095 C 202.837 -4.91576 0.791029 0
M  V30 2096 C 201.54 -6.71774 2.57122 0
M  V30 2097 C 203.566 -5.6593 1.71688 0
M  V30 2098 C 202.928 -6.5479 2.59672 0
M  V30 2099 H 199.027 -0.765072 -0.161831 0
M  V30 2100 H 201.611 -1.93511 0.214801 0
M  V30 2101 H 199.782 -3.43707 -1.80887 0
M  V30 2102 H 201.514 -3.66591 -1.71444 0
M  V30 2103 H 198.269 -4.736 -0.00213584 0
M  V30 2104 H 198.693 -6.48236 1.95243 0
M  V30 2105 H 203.335 -4.22615 0.124915 0
M  V30 2106 H 201.053 -7.39977 3.24744 0
M  V30 2107 H 204.639 -5.54501 1.76125 0
M  V30 2108 H 203.519 -7.11316 3.30149 0
M  V30 2109 N 201.022 0.148545 -1.56898 0
M  V30 2110 C 202.27 0.859717 -1.82902 0
M  V30 2111 C 202.591 1.81775 -0.70588 0
M  V30 2112 O 201.861 1.93994 0.272586 0
M  V30 2113 H 200.441 0.320469 -0.674766 0
M  V30 2114 H 203.103 0.142918 -1.94375 0
M  V30 2115 H 202.199 1.4229 -2.77777 0
M  V30 2116 N 202.5 1.5196 0.417844 0
M  V30 2117 C 203.725 1.69717 1.1921 0
M  V30 2118 C 204.15 0.402148 1.83751 0
M  V30 2119 O 203.508 -0.639593 1.69643 0
M  V30 2120 C 203.556 2.82794 2.2374 0
M  V30 2121 O 202.66 2.47756 3.29683 0
M  V30 2122 H 202.001 0.565263 0.348387 0
M  V30 2123 H 204.531 1.98621 0.490985 0
M  V30 2124 H 204.541 3.07452 2.68212 0
M  V30 2125 H 203.216 3.76756 1.76146 0
M  V30 2126 H 201.793 2.33739 2.90552 0
M  V30 2127 N 203.978 -0.674533 1.42435 0
M  V30 2128 C 204.925 -1.78807 1.45934 0
M  V30 2129 C 205.895 -1.63157 0.311271 0
M  V30 2130 O 207.08 -1.83707 0.515383 0
M  V30 2131 C 204.22 -3.16839 1.36773 0
M  V30 2132 C 203.333 -3.43774 2.61617 0
M  V30 2133 C 202.468 -4.71536 2.44597 0
M  V30 2134 C 201.507 -4.91505 3.64814 0
M  V30 2135 N 200.644 -6.10508 3.46734 0
M  V30 2136 H 205.484 -1.75151 2.41093 0
M  V30 2137 H 203.021 -0.85504 1.19697 0
M  V30 2138 H 204.979 -3.96606 1.29459 0
M  V30 2139 H 203.609 -3.19619 0.452089 0
M  V30 2140 H 202.661 -2.58259 2.79297 0
M  V30 2141 H 203.973 -3.54423 3.50978 0
M  V30 2142 H 203.127 -5.59393 2.3487 0
M  V30 2143 H 201.866 -4.6317 1.52726 0
M  V30 2144 H 200.871 -4.0209 3.74972 0
M  V30 2145 H 202.096 -5.01716 4.57665 0
M  V30 2146 H 200.042 -6.03315 2.5758 0
M  V30 2147 H 199.959 -6.2202 4.29682 0
M  V30 2148 H 201.227 -7.01044 3.40819 0
M  V30 2149 N 205.456 -1.28612 -0.910864 0
M  V30 2150 C 206.404 -1.1265 -2.03501 0
M  V30 2151 C 207.398 -0.0450054 -1.6934 0
M  V30 2152 O 208.604 -0.203988 -1.7884 0
M  V30 2153 H 204.979 -0.347639 -0.666822 0
M  V30 2154 H 206.95 -2.07849 -2.14106 0
M  V30 2155 C 205.699 -0.808143 -3.38178 0
M  V30 2156 H 205.022 -1.63231 -3.6496 0
M  V30 2157 H 206.462 -0.736426 -4.17556 0
M  V30 2158 C 204.921 0.488226 -3.33344 0
M  V30 2159 O 205.451 1.51766 -3.71927 0
M  V30 2160 N 203.657 0.490009 -2.86439 0
M  V30 2161 H 203.204 -0.348161 -2.55236 0
M  V30 2162 H 203.162 1.35741 -2.83587 0
M  V30 2163 N 206.934 1.1197 -1.10907 0
M  V30 2164 C 208.183 1.82947 -0.849302 0
M  V30 2165 C 208.496 1.85275 0.627112 0
M  V30 2166 O 209.702 2.52296 1.00295 0
M  V30 2167 C 208.158 3.28529 -1.46959 0
M  V30 2168 C 207.766 3.34546 -2.97965 0
M  V30 2169 C 209.51 4.04443 -1.28942 0
M  V30 2170 C 207.417 4.74491 -3.53004 0
M  V30 2171 H 206.347 0.685477 -0.314065 0
M  V30 2172 H 208.998 1.2604 -1.33365 0
M  V30 2173 H 207.38 3.85333 -0.912917 0
M  V30 2174 H 208.554 2.87654 -3.59989 0
M  V30 2175 H 206.869 2.72108 -3.15192 0
M  V30 2176 H 209.466 5.07787 -1.67502 0
M  V30 2177 H 209.809 4.15656 -0.231456 0
M  V30 2178 H 210.342 3.5401 -1.81443 0
M  V30 2179 H 207.081 4.68474 -4.58489 0
M  V30 2180 H 206.601 5.21816 -2.9575 0
M  V30 2181 H 208.28 5.4344 -3.51115 0
M  V30 2182 N 208.412 0.89855 1.29475 0
M  V30 2183 C 209.659 0.523882 1.95606 0
M  V30 2184 C 209.987 -0.929608 1.70847 0
M  V30 2185 O 209.242 -1.67401 1.01367 0
M  V30 2186 C 209.541 0.761398 3.49195 0
M  V30 2187 C 209.207 2.19207 3.94029 0
M  V30 2188 C 207.869 2.58326 4.05982 0
M  V30 2189 C 210.221 3.12379 4.17216 0
M  V30 2190 C 207.549 3.898 4.38489 0
M  V30 2191 C 209.901 4.43401 4.51197 0
M  V30 2192 C 208.565 4.82394 4.61359 0
M  V30 2193 H 207.835 0.191702 0.715773 0
M  V30 2194 H 210.482 1.13699 1.54094 0
M  V30 2195 H 208.787 0.0653622 3.91745 0
M  V30 2196 H 210.484 0.450904 3.98457 0
M  V30 2197 H 207.074 1.87846 3.85242 0
M  V30 2198 H 211.258 2.83371 4.07449 0
M  V30 2199 H 206.514 4.19734 4.44559 0
M  V30 2200 H 210.688 5.15623 4.68087 0
M  V30 2201 H 208.315 5.84306 4.86303 0
M  V30 2202 N 209.89 -1.43072 0.660911 0
M  V30 2203 C 211.138 -2.01323 0.177094 0
M  V30 2204 C 211.459 -1.5245 -1.2159 0
M  V30 2205 O 210.729 -0.740322 -1.81373 0
M  V30 2206 H 209.309 -0.744382 0.0624804 0
M  V30 2207 H 211.971 -1.75179 0.854305 0
M  V30 2208 H 211.067 -3.11649 0.167641 0
M  V30 2209 N 211.368 -0.403325 -1.52352 0
M  V30 2210 C 212.298 0.416205 -2.29761 0
M  V30 2211 C 213.279 1.05123 -1.33728 0
M  V30 2212 O 214.464 1.06134 -1.62632 0
M  V30 2213 C 211.594 1.53624 -3.11475 0
M  V30 2214 C 210.548 1.02653 -4.15507 0
M  V30 2215 C 209.874 2.23971 -4.85532 0
M  V30 2216 C 211.174 0.08463 -5.22231 0
M  V30 2217 H 212.868 -0.229701 -2.98518 0
M  V30 2218 H 210.414 -0.111913 -1.43564 0
M  V30 2219 H 212.367 2.1165 -3.64393 0
M  V30 2220 H 211.091 2.20994 -2.40477 0
M  V30 2221 H 209.75 0.46871 -3.63591 0
M  V30 2222 H 209.398 2.89883 -4.11068 0
M  V30 2223 H 209.098 1.90521 -5.55856 0
M  V30 2224 H 210.622 2.82614 -5.41259 0
M  V30 2225 H 212.036 0.573509 -5.70424 0
M  V30 2226 H 210.433 -0.160783 -5.99885 0
M  V30 2227 H 211.503 -0.86237 -4.7717 0
M  V30 2228 N 212.846 1.57033 -0.133567 0
M  V30 2229 C 213.809 2.14897 0.796995 0
M  V30 2230 C 214.809 1.0874 1.18458 0
M  V30 2231 O 215.999 1.34446 1.1077 0
M  V30 2232 C 213.131 2.70112 2.07973 0
M  V30 2233 H 214.324 2.98457 0.293873 0
M  V30 2234 H 211.877 1.55871 0.115787 0
M  V30 2235 H 212.612 1.9018 2.62682 0
M  V30 2236 H 212.397 3.47764 1.81115 0
M  V30 2237 H 213.887 3.14738 2.74462 0
M  V30 2238 N 214.325 -0.140222 1.56975 0
M  V30 2239 C 215.273 -1.19207 1.99731 0
M  V30 2240 C 216.267 -1.44089 0.890777 0
M  V30 2241 O 217.473 -1.44301 1.07597 0
M  V30 2242 H 213.848 -0.40142 0.635898 0
M  V30 2243 H 215.819 -0.804813 2.87342 0
M  V30 2244 C 214.568 -2.51617 2.39967 0
M  V30 2245 H 213.891 -2.33303 3.24669 0
M  V30 2246 H 215.331 -3.23827 2.73701 0
M  V30 2247 C 213.79 -3.12654 1.25496 0
M  V30 2248 O 214.32 -3.97786 0.559371 0
M  V30 2249 N 212.526 -2.72206 1.01746 0
M  V30 2250 H 212.073 -2.03074 1.58489 0
M  V30 2251 H 212.031 -3.13377 0.253461 0
M  V30 2252 N 215.803 -1.52179 -0.40978 0
M  V30 2253 C 217.214 -1.58377 -0.988615 0
M  V30 2254 C 217.565 -0.423879 -1.91566 0
M  V30 2255 O 216.69 0.455844 -2.11544 0
M  V30 2256 C 217.285 -2.87044 -1.79976 0
M  V30 2257 C 215.844 -2.95722 -2.32863 0
M  V30 2258 C 214.991 -2.53309 -1.12828 0
M  V30 2259 H 217.942 -1.57558 -0.190039 0
M  V30 2260 H 217.963 -2.7236 -2.65707 0
M  V30 2261 H 217.475 -3.71444 -1.12478 0
M  V30 2262 H 215.576 -2.15814 -3.03735 0
M  V30 2263 H 215.689 -3.99951 -2.63773 0
M  V30 2264 H 214.053 -2.07142 -1.48204 0
M  V30 2265 H 214.836 -3.40082 -0.46897 0
M  V30 2266 N 217.281 0.66697 -1.42791 0
M  V30 2267 C 218.558 1.4234 -1.34159 0
M  V30 2268 C 218.938 2.11093 0.0172729 0
M  V30 2269 O 218.286 2.03808 1.03318 0
M  V30 2270 C 218.496 2.41942 -2.51526 0
M  V30 2271 C 219.844 3.06353 -2.93995 0
M  V30 2272 O 220.868 2.52269 -2.51473 0
M  V30 2273 O 219.727 4.04376 -3.67617 0
M  V30 2274 H 216.821 0.635277 -0.529483 0
M  V30 2275 H 219.367 0.695034 -1.54814 0
M  V30 2276 H 218.139 1.89991 -3.42081 0
M  V30 2277 H 217.762 3.22249 -2.32898 0
M  V30 2278 N 218.759 1.29093 0.90403 0
M  V30 2279 C 220.036 1.075 1.63411 0
M  V30 2280 C 220.416 -0.382346 2.07609 0
M  V30 2281 O 219.764 -1.37031 1.82851 0
M  V30 2282 C 219.974 2.05858 2.81822 0
M  V30 2283 C 221.322 2.36539 3.52611 0
M  V30 2284 O 222.346 2.04019 2.91984 0
M  V30 2285 O 221.205 2.92085 4.61897 0
M  V30 2286 H 218.299 0.411547 0.717327 0
M  V30 2287 H 220.845 1.40449 0.952479 0
M  V30 2288 H 219.617 3.04037 2.46327 0
M  V30 2289 H 219.24 1.73613 3.57693 0
M  V30 2290 N 220.237 -1.11381 1.11499 0
M  V30 2291 C 221.483 -1.83403 0.865512 0
M  V30 2292 C 221.816 -1.84459 -0.607329 0
M  V30 2293 O 221.091 -1.29811 -1.44842 0
M  V30 2294 C 221.374 -3.30552 1.42855 0
M  V30 2295 C 221.227 -3.37886 2.96906 0
M  V30 2296 C 222.546 -4.26643 1.08 0
M  V30 2297 H 219.665 -0.665879 0.31587 0
M  V30 2298 H 222.307 -1.30601 1.37998 0
M  V30 2299 H 220.457 -3.75648 0.990985 0
M  V30 2300 H 222.129 -3.01343 3.49271 0
M  V30 2301 H 220.372 -2.78088 3.32941 0
M  V30 2302 H 221.043 -4.41458 3.31389 0
M  V30 2303 H 223.519 -3.89729 1.45775 0
M  V30 2304 H 222.395 -5.27986 1.50072 0
M  V30 2305 H 222.656 -4.42099 -0.00915037 0
M  V30 2306 N 221.715 -0.905404 -1.28997 0
M  V30 2307 C 223.131 -0.60233 -1.47798 0
M  V30 2308 C 223.331 0.854645 -1.82478 0
M  V30 2309 O 222.387 1.63439 -1.92468 0
M  V30 2310 C 223.7 -1.53306 -2.58685 0
M  V30 2311 C 225.248 -1.53887 -2.72558 0
M  V30 2312 C 225.723 -2.45602 -3.86579 0
M  V30 2313 N 227.214 -2.43681 -3.93921 0
M  V30 2314 C 227.949 -3.11347 -4.81509 0
M  V30 2315 N 227.445 -3.88313 -5.73746 0
M  V30 2316 N 229.238 -3.00476 -4.75048 0
M  V30 2317 H 221.389 -1.84765 -1.04764 0
M  V30 2318 H 223.652 -0.792025 -0.520961 0
M  V30 2319 H 223.358 -2.57141 -2.39941 0
M  V30 2320 H 223.232 -1.25787 -3.55609 0
M  V30 2321 H 225.619 -0.507941 -2.90696 0
M  V30 2322 H 225.7 -1.85447 -1.76191 0
M  V30 2323 H 225.344 -3.48792 -3.69197 0
M  V30 2324 H 225.274 -2.11349 -4.82327 0
M  V30 2325 H 227.765 -1.87767 -3.27951 0
M  V30 2326 H 228.078 -4.36985 -6.37389 0
M  V30 2327 H 226.423 -3.92419 -5.73614 0
M  V30 2328 H 229.614 -2.39858 -4.01977 0
M  V30 2329 H 229.787 -3.53485 -5.43095 0
M  V30 2330 N 223.193 1.4272 -0.668489 0
M  V30 2331 C 224.141 2.32586 0.0254857 0
M  V30 2332 C 225.135 1.49471 0.797176 0
M  V30 2333 O 226.341 1.65583 0.705853 0
M  V30 2334 H 222.716 0.751514 0.0270339 0
M  V30 2335 H 224.687 2.88823 -0.749936 0
M  V30 2336 C 223.436 3.3397 0.967427 0
M  V30 2337 H 222.759 3.97961 0.383048 0
M  V30 2338 H 224.199 3.9945 1.42181 0
M  V30 2339 C 222.658 2.65744 2.0708 0
M  V30 2340 O 223.188 2.48454 3.15648 0
M  V30 2341 N 221.394 2.2487 1.8407 0
M  V30 2342 H 220.941 2.39132 0.95778 0
M  V30 2343 H 220.899 1.79552 2.58086 0
M  V30 2344 N 224.671 0.411399 1.52136 0
M  V30 2345 C 225.92 -0.165009 2.01024 0
M  V30 2346 C 226.233 -1.4603 1.30133 0
M  V30 2347 O 227.439 -2.1181 1.69849 0
M  V30 2348 C 225.895 -0.344618 3.58246 0
M  V30 2349 C 225.503 0.938716 4.38055 0
M  V30 2350 C 227.247 -0.876195 4.15359 0
M  V30 2351 C 225.154 0.726172 5.86925 0
M  V30 2352 H 224.084 -0.0654407 0.751155 0
M  V30 2353 H 226.735 0.537192 1.75461 0
M  V30 2354 H 225.117 -1.10921 3.80148 0
M  V30 2355 H 226.291 1.70963 4.27912 0
M  V30 2356 H 224.606 1.39688 3.92271 0
M  V30 2357 H 227.203 -1.05128 5.24263 0
M  V30 2358 H 227.546 -1.85152 3.7286 0
M  V30 2359 H 228.079 -0.170607 3.97434 0
M  V30 2360 H 224.818 1.67312 6.33788 0
M  V30 2361 H 224.338 -0.00540283 5.998 0
M  V30 2362 H 226.017 0.369231 6.45946 0
M  V30 2363 N 226.149 -1.5696 0.141893 0
M  V30 2364 C 227.389 -1.9785 -0.513304 0
M  V30 2365 C 227.753 -1.02467 -1.62371 0
M  V30 2366 O 228.954 -1.32382 -2.33941 0
M  V30 2367 C 227.225 -3.42797 -1.01118 0
M  V30 2368 S 228.784 -4.05709 -1.67169 0
M  V30 2369 H 225.602 -0.691318 -0.166135 0
M  V30 2370 H 228.204 -1.94114 0.232398 0
M  V30 2371 H 226.908 -4.0995 -0.192179 0
M  V30 2372 H 226.439 -3.50235 -1.79162 0
M  V30 2373 H 228.454 -3.98342 -2.95868 0
M  V30 2374 N 227.627 0.131896 -1.57047 0
M  V30 2375 C 228.904 0.871495 -1.75112 0
M  V30 2376 C 229.284 1.9866 -0.713949 0
M  V30 2377 O 228.632 2.26965 0.264447 0
M  V30 2378 C 228.842 1.40007 -3.19686 0
M  V30 2379 C 230.19 1.85752 -3.81813 0
M  V30 2380 O 231.214 1.49715 -3.23209 0
M  V30 2381 O 230.073 2.5226 -4.84796 0
M  V30 2382 H 227.167 0.412919 -0.716538 0
M  V30 2383 H 229.713 0.116641 -1.69299 0
M  V30 2384 H 228.485 0.599404 -3.86682 0
M  V30 2385 H 228.108 2.218 -3.29986 0
M  V30 2386 N 229.106 1.52395 0.401703 0
M  V30 2387 C 230.069 1.75636 1.47257 0
M  V30 2388 C 231.069 0.62628 1.48103 0
M  V30 2389 O 232.259 0.894227 1.49497 0
M  V30 2390 C 229.391 1.84553 2.86624 0
M  V30 2391 H 230.584 2.71241 1.27938 0
M  V30 2392 H 228.137 1.42923 0.632662 0
M  V30 2393 H 228.872 0.908882 3.11303 0
M  V30 2394 H 228.657 2.66715 2.87412 0
M  V30 2395 H 230.147 2.04251 3.64241 0
M  V30 2396 N 230.584 -0.659388 1.43143 0
M  V30 2397 C 231.531 -1.77249 1.47822 0
M  V30 2398 C 232.501 -1.62818 0.328558 0
M  V30 2399 O 233.686 -1.83151 0.534838 0
M  V30 2400 C 230.826 -3.15371 1.40126 0
M  V30 2401 C 229.939 -3.4098 2.65249 0
M  V30 2402 C 229.074 -4.68915 2.49584 0
M  V30 2403 C 228.113 -4.87608 3.70006 0
M  V30 2404 N 227.25 -6.06796 3.53189 0
M  V30 2405 H 232.09 -1.72584 2.42938 0
M  V30 2406 H 229.627 -0.842297 1.20598 0
M  V30 2407 H 231.585 -3.9521 1.33659 0
M  V30 2408 H 230.215 -3.19121 0.485964 0
M  V30 2409 H 229.267 -2.55282 2.8202 0
M  V30 2410 H 230.579 -3.50681 3.54717 0
M  V30 2411 H 229.733 -5.56871 2.4079 0
M  V30 2412 H 228.472 -4.61524 1.5763 0
M  V30 2413 H 227.477 -3.9809 3.79215 0
M  V30 2414 H 228.702 -4.96834 4.62961 0
M  V30 2415 H 226.648 -6.00549 2.63965 0
M  V30 2416 H 226.565 -6.17428 4.36255 0
M  V30 2417 H 227.833 -6.9739 3.48236 0
M  V30 2418 N 232.062 -1.29571 -0.897171 0
M  V30 2419 C 233.31 -1.17456 -1.64464 0
M  V30 2420 C 233.631 0.273698 -1.9307 0
M  V30 2421 O 232.901 1.18684 -1.55855 0
M  V30 2422 H 231.481 -0.431706 -0.609622 0
M  V30 2423 H 234.143 -1.62531 -1.07562 0
M  V30 2424 H 233.239 -1.72648 -2.59998 0
M  V30 2425 N 233.54 1.10788 -1.12088 0
M  V30 2426 C 234.488 2.19111 -0.780587 0
M  V30 2427 C 235.482 1.67818 0.230961 0
M  V30 2428 O 236.688 1.79777 0.0895427 0
M  V30 2429 H 233.063 0.714477 -0.234578 0
M  V30 2430 H 235.034 2.45055 -1.70266 0
M  V30 2431 C 233.783 3.46818 -0.24747 0
M  V30 2432 H 233.106 3.86646 -1.01712 0
M  V30 2433 H 234.546 4.23973 -0.0476291 0
M  V30 2434 C 233.005 3.20968 1.02378 0
M  V30 2435 O 233.535 3.42298 2.10226 0
M  V30 2436 N 231.741 2.74658 0.949271 0
M  V30 2437 H 231.288 2.57501 0.0715173 0
M  V30 2438 H 231.246 2.57739 1.80049 0
M  V30 2439 N 235.018 0.912232 1.28515 0
M  V30 2440 C 236.243 0.559774 1.99703 0
M  V30 2441 C 236.668 -0.851393 1.67729 0
M  V30 2442 O 236.026 -1.56875 0.908834 0
M  V30 2443 C 236.074 0.773874 3.52198 0
M  V30 2444 O 235.178 -0.167842 4.12058 0
M  V30 2445 H 234.519 0.21723 0.627461 0
M  V30 2446 H 237.049 1.22725 1.63706 0
M  V30 2447 H 237.059 0.683386 4.02236 0
M  V30 2448 H 235.734 1.80261 3.74805 0
M  V30 2449 H 234.311 -0.0287509 3.72889 0
M  V30 2450 N 236.496 -1.42363 0.676048 0
M  V30 2451 C 237.743 -2.01522 0.19883 0
M  V30 2452 C 238.071 -1.53456 -1.19505 0
M  V30 2453 O 237.326 -0.727967 -1.81657 0
M  V30 2454 C 237.625 -3.56929 0.183431 0
M  V30 2455 C 237.291 -4.24431 1.52215 0
M  V30 2456 C 235.953 -4.42585 1.8887 0
M  V30 2457 C 238.305 -4.62459 2.40377 0
M  V30 2458 C 235.633 -4.96039 3.13309 0
M  V30 2459 C 237.985 -5.17294 3.64129 0
M  V30 2460 C 236.649 -5.33661 4.00951 0
M  V30 2461 H 235.919 -0.737419 0.0727571 0
M  V30 2462 H 238.566 -1.70531 0.871281 0
M  V30 2463 H 236.871 -3.87594 -0.572532 0
M  V30 2464 H 238.568 -4.00486 -0.203035 0
M  V30 2465 H 235.158 -4.10661 1.22701 0
M  V30 2466 H 239.342 -4.48105 2.13343 0
M  V30 2467 H 234.598 -5.06896 3.41857 0
M  V30 2468 H 238.772 -5.45704 4.32644 0
M  V30 2469 H 236.399 -5.74845 4.9745 0
M  V30 2470 N 237.974 -0.419461 -1.51915 0
M  V30 2471 C 239.22 0.153166 -2.02221 0
M  V30 2472 C 239.553 1.43907 -1.30401 0
M  V30 2473 O 238.828 1.90055 -0.413438 0
M  V30 2474 C 239.111 0.390291 -3.57979 0
M  V30 2475 C 238.964 -0.913014 -4.40436 0
M  V30 2476 C 240.283 1.16794 -4.2432 0
M  V30 2477 H 237.402 0.0541924 -0.735005 0
M  V30 2478 H 240.044 -0.554955 -1.81715 0
M  V30 2479 H 238.194 0.993491 -3.75582 0
M  V30 2480 H 239.866 -1.54882 -4.34522 0
M  V30 2481 H 238.109 -1.52168 -4.06236 0
M  V30 2482 H 238.78 -0.701361 -5.47526 0
M  V30 2483 H 241.256 0.657161 -4.10878 0
M  V30 2484 H 240.132 1.3026 -5.3322 0
M  V30 2485 H 240.393 2.19132 -3.83971 0
M  V30 2486 N 239.452 1.56882 -0.150215 0
M  V30 2487 C 240.729 1.87844 0.545327 0
M  V30 2488 C 241.109 1.0567 1.82749 0
M  V30 2489 O 240.457 0.144442 2.28043 0
M  V30 2490 C 240.667 3.39526 0.80767 0
M  V30 2491 C 242.015 4.08814 1.14703 0
M  V30 2492 O 243.039 3.44723 0.896917 0
M  V30 2493 O 241.898 5.22004 1.61784 0
M  V30 2494 H 238.992 0.778677 0.278553 0
M  V30 2495 H 241.538 1.68666 -0.187068 0
M  V30 2496 H 240.31 3.91173 -0.0996096 0
M  V30 2497 H 239.933 3.64243 1.59413 0
M  V30 2498 N 240.93 -0.123565 1.57115 0
M  V30 2499 C 241.893 -1.13583 1.99076 0
M  V30 2500 C 242.893 -1.34564 0.880296 0
M  V30 2501 O 244.083 -1.31158 1.14644 0
M  V30 2502 C 241.215 -2.49128 2.32698 0
M  V30 2503 H 242.408 -0.775287 2.89706 0
M  V30 2504 H 239.961 -0.36771 1.51913 0
M  V30 2505 H 240.696 -2.90111 1.44934 0
M  V30 2506 H 240.481 -2.35255 3.13684 0
M  V30 2507 H 241.971 -3.2199 2.65918 0
M  V30 2508 N 242.408 -1.52605 -0.393616 0
M  V30 2509 C 243.341 -1.71798 -1.50202 0
M  V30 2510 C 244.319 -0.565743 -1.52441 0
M  V30 2511 O 245.503 -0.794987 -1.70916 0
M  V30 2512 C 242.63 -1.7714 -2.88685 0
M  V30 2513 C 241.676 -2.98845 -3.04292 0
M  V30 2514 S 242.509 -4.58909 -2.75976 0
M  V30 2515 C 243.665 -4.6706 -4.1666 0
M  V30 2516 H 243.898 -2.65542 -1.33696 0
M  V30 2517 H 241.431 -1.42839 -0.586195 0
M  V30 2518 H 243.389 -1.80903 -3.68489 0
M  V30 2519 H 242.05 -0.844969 -3.02521 0
M  V30 2520 H 241.243 -2.99111 -4.05646 0
M  V30 2521 H 240.845 -2.9305 -2.32374 0
M  V30 2522 H 243.137 -4.45391 -5.10523 0
M  V30 2523 H 244.08 -5.6905 -4.21412 0
M  V30 2524 H 244.488 -3.95944 -4.02354 0
M  V30 2525 N 243.887 0.651787 -1.4349 0
M  V30 2526 C 244.834 1.76462 -1.4876 0
M  V30 2527 C 245.804 1.62641 -0.337189 0
M  V30 2528 O 246.989 1.82864 -0.544544 0
M  V30 2529 C 244.129 3.14623 -1.41796 0
M  V30 2530 C 243.242 3.39568 -2.67053 0
M  V30 2531 C 242.377 4.67585 -2.52068 0
M  V30 2532 C 241.416 4.85639 -3.72587 0
M  V30 2533 N 240.553 6.04915 -3.56402 0
M  V30 2534 H 245.393 1.71293 -2.43849 0
M  V30 2535 H 242.93 0.835889 -1.21043 0
M  V30 2536 H 244.888 3.94496 -1.35753 0
M  V30 2537 H 243.518 3.18859 -0.50288 0
M  V30 2538 H 242.57 2.53783 -2.8337 0
M  V30 2539 H 243.882 3.48795 -3.56572 0
M  V30 2540 H 243.036 5.55586 -2.4374 0
M  V30 2541 H 241.775 4.60681 -1.60075 0
M  V30 2542 H 240.78 3.96073 -3.81321 0
M  V30 2543 H 242.005 4.94372 -4.65589 0
M  V30 2544 H 239.951 5.9914 -2.67146 0
M  V30 2545 H 239.868 6.15106 -4.39524 0
M  V30 2546 H 241.136 6.95533 -3.51929 0
M  V30 2547 N 245.365 1.30045 0.890287 0
M  V30 2548 C 246.328 1.15963 1.977 0
M  V30 2549 C 247.328 0.0923777 1.60534 0
M  V30 2550 O 248.518 0.340071 1.70848 0
M  V30 2551 C 245.65 0.775451 3.31963 0
M  V30 2552 H 246.843 2.12502 2.11619 0
M  V30 2553 H 244.396 1.13366 1.07601 0
M  V30 2554 H 245.131 -0.189671 3.23745 0
M  V30 2555 H 244.916 1.54668 3.60306 0
M  V30 2556 H 246.406 0.700251 4.11687 0
M  V30 2557 N 246.843 -1.10192 1.12674 0
M  V30 2558 C 248.083 -1.83825 0.893736 0
M  V30 2559 C 248.447 -1.83341 -0.570082 0
M  V30 2560 O 249.648 -2.52553 -0.920354 0
M  V30 2561 C 247.919 -3.26405 1.45582 0
M  V30 2562 S 249.478 -4.17136 1.36171 0
M  V30 2563 H 246.296 -0.633732 0.322342 0
M  V30 2564 H 248.898 -1.32581 1.43675 0
M  V30 2565 H 247.602 -3.24329 2.51473 0
M  V30 2566 H 247.133 -3.82721 0.910405 0
M  V30 2567 H 249.148 -4.95069 0.334863 0
M  V30 2568 N 248.321 -0.919034 -1.28029 0
M  V30 2569 C 249.569 -0.553838 -1.94363 0
M  V30 2570 C 249.89 0.906357 -1.72656 0
M  V30 2571 O 249.16 1.64143 -1.0693 0
M  V30 2572 H 247.74 -0.201834 -0.719216 0
M  V30 2573 H 250.402 -1.16954 -1.55909 0
M  V30 2574 H 249.498 -0.752758 -3.02886 0
M  V30 2575 N 249.799 1.42003 -0.683588 0
M  V30 2576 C 251.046 2.01413 -0.209514 0
M  V30 2577 C 251.374 1.54088 1.1869 0
M  V30 2578 O 250.629 0.737591 1.81268 0
M  V30 2579 C 250.928 3.56827 -0.202357 0
M  V30 2580 C 250.594 4.23617 -1.54464 0
M  V30 2581 C 249.256 4.41577 -1.91215 0
M  V30 2582 C 251.608 4.61178 -2.42826 0
M  V30 2583 C 248.936 4.9437 -3.15935 0
M  V30 2584 C 251.288 5.15355 -3.66867 0
M  V30 2585 C 249.952 5.31528 -4.03776 0
M  V30 2586 H 249.222 0.737023 -0.0766668 0
M  V30 2587 H 251.869 1.70067 -0.880312 0
M  V30 2588 H 250.174 3.87892 0.551969 0
M  V30 2589 H 251.871 4.00588 0.181793 0
M  V30 2590 H 248.461 4.10004 -1.24877 0
M  V30 2591 H 252.645 4.46968 -2.15717 0
M  V30 2592 H 247.901 5.05076 -3.44541 0
M  V30 2593 H 252.075 5.43402 -4.35531 0
M  V30 2594 H 249.702 5.72199 -5.00492 0
M  V30 2595 N 251.277 0.427512 1.51691 0
M  V30 2596 C 252.505 -0.141191 2.06418 0
M  V30 2597 C 252.92 -1.37303 1.29589 0
M  V30 2598 O 252.277 -1.79059 0.352732 0
M  V30 2599 C 252.328 -0.473266 3.58389 0
M  V30 2600 O 252.049 0.709673 4.32314 0
M  V30 2601 C 253.55 -1.09371 4.29596 0
M  V30 2602 H 250.77 -0.0122747 0.670888 0
M  V30 2603 H 253.314 0.603764 1.95384 0
M  V30 2604 H 251.469 -1.16812 3.69369 0
M  V30 2605 H 251.883 0.42807 5.2275 0
M  V30 2606 H 253.357 -1.27613 5.37046 0
M  V30 2607 H 253.834 -2.072 3.87253 0
M  V30 2608 H 254.44 -0.43853 4.23033 0
M  V30 2609 N 252.755 -1.56801 0.158532 0
M  V30 2610 C 253.685 -2.20347 -0.772609 0
M  V30 2611 C 254.666 -1.15518 -1.24859 0
M  V30 2612 O 255.851 -1.43902 -1.30406 0
M  V30 2613 C 252.981 -2.83417 -2.00729 0
M  V30 2614 C 251.935 -3.94174 -1.66765 0
M  V30 2615 C 251.261 -4.44233 -2.97592 0
M  V30 2616 C 252.561 -5.14392 -0.905447 0
M  V30 2617 H 254.255 -2.98413 -0.242959 0
M  V30 2618 H 251.801 -1.43537 -0.115419 0
M  V30 2619 H 253.754 -3.26543 -2.6636 0
M  V30 2620 H 252.478 -2.02701 -2.56086 0
M  V30 2621 H 251.137 -3.51684 -1.03508 0
M  V30 2622 H 250.785 -3.60325 -3.50963 0
M  V30 2623 H 250.485 -5.18945 -2.75626 0
M  V30 2624 H 252.009 -4.90037 -3.64274 0
M  V30 2625 H 253.423 -5.5429 -1.46408 0
M  V30 2626 H 251.82 -5.9494 -0.7853 0
M  V30 2627 H 252.89 -4.84795 0.100668 0
M  V30 2628 N 254.233 0.115231 -1.57178 0
M  V30 2629 C 255.644 0.67197 -1.74188 0
M  V30 2630 C 255.995 1.80125 -0.777777 0
M  V30 2631 O 255.12 2.16346 0.0484376 0
M  V30 2632 C 255.715 1.22573 -3.1585 0
M  V30 2633 C 254.274 1.72872 -3.34353 0
M  V30 2634 C 253.421 0.629972 -2.70049 0
M  V30 2635 H 256.372 -0.110712 -1.58313 0
M  V30 2636 H 256.393 2.09535 -3.17609 0
M  V30 2637 H 255.905 0.403598 -3.85996 0
M  V30 2638 H 254.006 2.5755 -2.69256 0
M  V30 2639 H 254.119 1.83557 -4.42542 0
M  V30 2640 H 252.483 1.0645 -2.31388 0
M  V30 2641 H 253.266 -0.181241 -3.42821 0
M  V30 2642 N 255.711 1.52812 0.385517 0
M  V30 2643 C 256.659 1.78482 1.49155 0
M  V30 2644 C 257.653 0.652914 1.56312 0
M  V30 2645 O 258.859 0.835464 1.59436 0
M  V30 2646 H 255.234 0.5648 0.496493 0
M  V30 2647 H 257.205 2.71095 1.24699 0
M  V30 2648 C 255.954 1.97378 2.86247 0
M  V30 2649 H 255.277 2.83907 2.81491 0
M  V30 2650 H 256.717 2.19327 3.62866 0
M  V30 2651 C 255.176 0.74728 3.28508 0
M  V30 2652 O 255.706 -0.0736232 4.01633 0
M  V30 2653 N 253.912 0.576396 2.84826 0
M  V30 2654 H 253.459 1.24555 2.25486 0
M  V30 2655 H 253.417 -0.24288 3.1346 0
M  V30 2656 N 257.189 -0.644168 1.43834 0
M  V30 2657 C 258.152 -1.73857 1.49353 0
M  V30 2658 C 259.152 -1.56315 0.377112 0
M  V30 2659 O 260.342 -1.62048 0.639226 0
M  V30 2660 C 257.474 -3.12819 1.35488 0
M  V30 2661 H 258.667 -1.70342 2.46827 0
M  V30 2662 H 256.22 -0.856652 1.30733 0
M  V30 2663 H 256.955 -3.2194 0.390569 0
M  V30 2664 H 256.74 -3.26958 2.16428 0
M  V30 2665 H 258.23 -3.92606 1.42302 0
M  V30 2666 N 258.668 -1.30515 -0.883378 0
M  V30 2667 C 260.079 -1.17509 -1.45081 0
M  V30 2668 C 260.43 0.223605 -1.94922 0
M  V30 2669 O 259.555 1.12041 -1.85137 0
M  V30 2670 C 260.15 -2.12715 -2.63701 0
M  V30 2671 C 258.709 -2.03682 -3.16529 0
M  V30 2672 C 257.856 -2.02706 -1.89224 0
M  V30 2673 H 260.807 -1.42762 -0.693165 0
M  V30 2674 H 260.828 -1.70891 -3.39965 0
M  V30 2675 H 260.34 -3.14505 -2.27395 0
M  V30 2676 H 258.441 -1.05039 -3.57488 0
M  V30 2677 H 258.554 -2.92146 -3.7972 0
M  V30 2678 H 256.918 -1.4753 -2.07622 0
M  V30 2679 H 257.701 -3.06229 -1.55174 0
M  V30 2680 N 260.146 1.09593 -1.13257 0
M  V30 2681 C 261.076 2.18214 -0.830946 0
M  V30 2682 C 262.057 1.68812 0.208966 0
M  V30 2683 O 263.242 1.9408 0.0682666 0
M  V30 2684 C 260.372 3.46051 -0.294296 0
M  V30 2685 C 259.326 4.08778 -1.26826 0
M  V30 2686 C 258.652 5.31419 -0.591449 0
M  V30 2687 C 259.952 4.51476 -2.62615 0
M  V30 2688 H 261.646 2.43703 -1.73923 0
M  V30 2689 H 259.192 1.17128 -0.837675 0
M  V30 2690 H 261.145 4.2134 -0.0709606 0
M  V30 2691 H 259.869 3.20079 0.649366 0
M  V30 2692 H 258.528 3.35505 -1.47756 0
M  V30 2693 H 258.176 5.01727 0.357633 0
M  V30 2694 H 257.876 5.74341 -1.24123 0
M  V30 2695 H 259.4 6.09433 -0.377355 0
M  V30 2696 H 260.814 5.17999 -2.45663 0
M  V30 2697 H 259.211 5.05277 -3.23752 0
M  V30 2698 H 260.281 3.63962 -3.20406 0
M  V30 2699 N 261.624 0.925811 1.2754 0
M  V30 2700 C 262.852 0.581509 1.9856 0
M  V30 2701 C 263.267 -0.840041 1.69082 0
M  V30 2702 O 262.624 -1.55805 0.950312 0
M  V30 2703 C 262.675 0.795589 3.52637 0
M  V30 2704 O 262.396 2.16121 3.81082 0
M  V30 2705 C 263.897 0.459744 4.4091 0
M  V30 2706 H 261.117 0.220538 0.633722 0
M  V30 2707 H 263.661 1.24232 1.6244 0
M  V30 2708 H 261.816 0.18161 3.86974 0
M  V30 2709 H 262.23 2.2098 4.75676 0
M  V30 2710 H 263.704 0.660244 5.48037 0
M  V30 2711 H 264.181 -0.604625 4.35018 0
M  V30 2712 H 264.787 1.05178 4.12089 0
M  V30 2713 N 263.102 -1.41638 0.69111 0
M  V30 2714 C 264.513 -1.84346 0.295517 0
M  V30 2715 C 264.864 -1.57833 -1.16547 0
M  V30 2716 O 263.989 -1.04648 -1.89414 0
M  V30 2717 C 264.584 -3.34636 0.529575 0
M  V30 2718 C 263.143 -3.7593 0.187944 0
M  V30 2719 C 262.29 -2.65082 0.814052 0
M  V30 2720 H 265.241 -1.31253 0.892092 0
M  V30 2721 H 265.262 -3.79903 -0.213148 0
M  V30 2722 H 264.774 -3.53901 1.59297 0
M  V30 2723 H 262.875 -3.62268 -0.871367 0
M  V30 2724 H 262.988 -4.74808 0.63985 0
M  V30 2725 H 261.352 -2.53528 0.244017 0
M  V30 2726 H 262.135 -2.87167 1.88123 0
M  V30 2727 N 264.58 -0.43555 -1.51462 0
M  V30 2728 C 265.996 -0.0877501 -1.59359 0
M  V30 2729 C 266.196 1.4027 -1.4466 0
M  V30 2730 O 265.252 2.17243 -1.28693 0
M  V30 2731 C 266.565 -0.606264 -2.94525 0
M  V30 2732 C 268.113 -0.566548 -3.0783 0
M  V30 2733 C 268.588 -1.06201 -4.45517 0
M  V30 2734 N 270.079 -1.01992 -4.51832 0
M  V30 2735 C 270.814 -1.37417 -5.5669 0
M  V30 2736 N 270.31 -1.80119 -6.68976 0
M  V30 2737 N 272.103 -1.29245 -5.47039 0
M  V30 2738 H 264.254 -1.40533 -1.59261 0
M  V30 2739 H 266.517 -0.578992 -0.750648 0
M  V30 2740 H 266.223 -1.64901 -3.10645 0
M  V30 2741 H 266.097 -0.0302097 -3.77188 0
M  V30 2742 H 268.484 0.467208 -2.91378 0
M  V30 2743 H 268.565 -1.17898 -2.2701 0
M  V30 2744 H 268.209 -2.09422 -4.62715 0
M  V30 2745 H 268.139 -0.426127 -5.24873 0
M  V30 2746 H 270.63 -0.706308 -3.71241 0
M  V30 2747 H 270.943 -2.05392 -7.45006 0
M  V30 2748 H 269.288 -1.84044 -6.70189 0
M  V30 2749 H 272.479 -0.957522 -4.58202 0
M  V30 2750 H 272.652 -1.57182 -6.28648 0
M  V30 2751 N 266.058 1.56714 -0.166846 0
M  V30 2752 C 266.99 2.14914 0.796537 0
M  V30 2753 C 268.003 1.10357 1.19688 0
M  V30 2754 O 269.192 1.37561 1.13751 0
M  V30 2755 C 266.292 2.67326 2.08303 0
M  V30 2756 C 265.465 3.96493 1.84696 0
M  V30 2757 C 264.524 4.34014 2.97521 0
M  V30 2758 O 263.55 5.01973 2.6835 0
M  V30 2759 N 264.752 3.95208 4.25196 0
M  V30 2760 H 267.517 2.98205 0.299006 0
M  V30 2761 H 265.078 1.61892 0.0160839 0
M  V30 2762 H 267.07 2.89428 2.82867 0
M  V30 2763 H 265.64 1.88649 2.4926 0
M  V30 2764 H 264.86 3.82814 0.940602 0
M  V30 2765 H 266.148 4.8086 1.66285 0
M  V30 2766 H 265.546 3.40487 4.51758 0
M  V30 2767 H 264.103 4.2232 4.96477 0
M  V30 2768 N 267.536 -0.106894 1.57237 0
M  V30 2769 C 268.813 -0.843526 1.76477 0
M  V30 2770 C 269.193 -1.97499 0.745464 0
M  V30 2771 O 268.541 -2.27357 -0.228306 0
M  V30 2772 C 268.751 -1.34903 3.21873 0
M  V30 2773 C 270.099 -1.79654 3.8472 0
M  V30 2774 O 271.123 -1.44554 3.2555 0
M  V30 2775 O 269.982 -2.44515 4.88748 0
M  V30 2776 H 267.076 -0.401468 0.723016 0
M  V30 2777 H 269.622 -0.0896927 1.69463 0
M  V30 2778 H 268.394 -0.53781 3.87586 0
M  V30 2779 H 268.017 -2.16522 3.33473 0
M  V30 2780 N 269.014 -1.53014 -0.377408 0
M  V30 2781 C 270.263 -1.67845 -1.11853 0
M  V30 2782 C 270.576 -0.430625 -1.90801 0
M  V30 2783 O 271.782 -0.459261 -2.67587 0
M  V30 2784 C 270.238 -2.96668 -2.03756 0
M  V30 2785 C 269.846 -4.28671 -1.30175 0
M  V30 2786 C 271.59 -3.20865 -2.77932 0
M  V30 2787 C 269.497 -5.48591 -2.20911 0
M  V30 2788 H 268.427 -0.625343 -0.421263 0
M  V30 2789 H 271.078 -1.79514 -0.380409 0
M  V30 2790 H 269.46 -2.78773 -2.8125 0
M  V30 2791 H 270.634 -4.57157 -0.578259 0
M  V30 2792 H 268.949 -4.10825 -0.679108 0
M  V30 2793 H 271.546 -4.07642 -3.46024 0
M  V30 2794 H 271.889 -2.36424 -3.4265 0
M  V30 2795 H 272.422 -3.39379 -2.07525 0
M  V30 2796 H 269.161 -6.35474 -1.6079 0
M  V30 2797 H 268.681 -5.244 -2.91144 0
M  V30 2798 H 270.36 -5.8292 -2.80736 0
M  V30 2799 N 270.492 0.636531 -1.44174 0
M  V30 2800 C 271.439 1.74875 -1.50624 0
M  V30 2801 C 272.409 1.62275 -0.35442 0
M  V30 2802 O 273.594 1.82276 -0.563908 0
M  V30 2803 C 270.734 3.13102 -1.45125 0
M  V30 2804 C 269.847 3.36717 -2.7064 0
M  V30 2805 C 268.982 4.64885 -2.57013 0
M  V30 2806 C 268.021 4.8166 -3.77717 0
M  V30 2807 N 267.158 6.01101 -3.62798 0
M  V30 2808 H 271.998 1.68697 -2.45653 0
M  V30 2809 H 269.535 0.823004 -1.21922 0
M  V30 2810 H 271.493 3.93034 -1.39929 0
M  V30 2811 H 270.123 3.18308 -0.536671 0
M  V30 2812 H 269.175 2.50763 -2.86046 0
M  V30 2813 H 270.487 3.44993 -3.60252 0
M  V30 2814 H 269.641 5.52969 -2.49619 0
M  V30 2815 H 268.38 4.58957 -1.64953 0
M  V30 2816 H 267.385 3.92007 -3.85501 0
M  V30 2817 H 268.61 4.89406 -4.70807 0
M  V30 2818 H 266.556 5.96273 -2.73486 0
M  V30 2819 H 266.473 6.10409 -4.46023 0
M  V30 2820 H 267.741 6.91761 -3.59286 0
M  V30 2821 N 271.97 1.30982 0.876444 0
M  V30 2822 C 272.933 1.18054 1.96459 0
M  V30 2823 C 273.933 0.109399 1.60427 0
M  V30 2824 O 275.123 0.358173 1.70478 0
M  V30 2825 C 272.255 0.810616 3.31122 0
M  V30 2826 H 273.448 2.14735 2.09354 0
M  V30 2827 H 271.001 1.145 1.06392 0
M  V30 2828 H 271.736 -0.155322 3.23928 0
M  V30 2829 H 271.521 1.58481 3.58645 0
M  V30 2830 H 273.011 0.743876 4.10921 0
M  V30 2831 N 273.449 -1.08991 1.13837 0
M  V30 2832 C 274.696 -1.81258 0.902882 0
M  V30 2833 C 275.024 -1.85936 -0.570803 0
M  V30 2834 O 274.279 -1.3267 -1.43865 0
M  V30 2835 C 274.578 -3.27042 1.44147 0
M  V30 2836 C 274.244 -3.4249 2.93276 0
M  V30 2837 C 272.906 -3.46414 3.33992 0
M  V30 2838 C 275.258 -3.4666 3.892 0
M  V30 2839 C 272.586 -3.52091 4.69307 0
M  V30 2840 C 274.938 -3.53872 5.24364 0
M  V30 2841 C 273.602 -3.56066 5.646 0
M  V30 2842 H 272.872 -0.663268 0.330388 0
M  V30 2843 H 275.519 -1.28368 1.42105 0
M  V30 2844 H 273.824 -3.82599 0.844097 0
M  V30 2845 H 275.521 -3.81499 1.23528 0
M  V30 2846 H 272.111 -3.40124 2.60794 0
M  V30 2847 H 276.295 -3.42865 3.58828 0
M  V30 2848 H 271.551 -3.52079 4.9985 0
M  V30 2849 H 275.725 -3.56043 5.98503 0
M  V30 2850 H 273.352 -3.60218 6.69438 0
M  V30 2851 N 274.927 -0.932562 -1.27047 0
M  V30 2852 C 276.173 -0.576412 -1.94436 0
M  V30 2853 C 276.506 0.880891 -1.73072 0
M  V30 2854 O 275.781 1.62905 -1.06264 0
M  V30 2855 C 276.064 -0.909031 -3.48437 0
M  V30 2856 C 275.917 -2.42044 -3.79123 0
M  V30 2857 C 277.236 -0.418341 -4.38107 0
M  V30 2858 H 274.355 -0.210888 -0.706184 0
M  V30 2859 H 276.997 -1.16522 -1.50075 0
M  V30 2860 H 275.147 -0.407947 -3.86352 0
M  V30 2861 H 276.819 -2.99359 -3.50973 0
M  V30 2862 H 275.062 -2.86758 -3.25503 0
M  V30 2863 H 275.733 -2.6037 -4.86736 0
M  V30 2864 H 278.209 -0.847856 -4.0737 0
M  V30 2865 H 277.085 -0.679981 -5.44672 0
M  V30 2866 H 277.346 0.681642 -4.36814 0
M  V30 2867 N 276.405 1.4127 -0.698611 0
M  V30 2868 C 277.315 2.34573 -0.0357891 0
M  V30 2869 C 278.331 1.56393 0.762701 0
M  V30 2870 O 279.507 1.8886 0.699564 0
M  V30 2871 C 276.572 3.35159 0.887089 0
M  V30 2872 C 275.633 4.29225 0.0804634 0
M  V30 2873 C 274.866 5.25006 0.959387 0
M  V30 2874 O 275.089 5.26314 2.19886 0
M  V30 2875 O 274.023 6.00519 0.407439 0
M  V30 2876 H 277.849 2.92838 -0.804957 0
M  V30 2877 H 275.434 1.42175 -0.458966 0
M  V30 2878 H 277.316 3.9689 1.41621 0
M  V30 2879 H 275.991 2.79333 1.6357 0
M  V30 2880 H 274.898 3.70833 -0.493328 0
M  V30 2881 H 276.231 4.88157 -0.629547 0
M  V30 2882 N 277.883 0.443576 1.51229 0
M  V30 2883 C 278.813 -0.355142 2.30783 0
M  V30 2884 C 279.794 -1.0154 1.36468 0
M  V30 2885 O 280.979 -1.01785 1.65389 0
M  V30 2886 C 278.109 -1.45312 3.15439 0
M  V30 2887 C 277.063 -0.916002 4.18083 0
M  V30 2888 C 276.389 -2.1102 4.91299 0
M  V30 2889 C 277.689 0.0538602 5.22272 0
M  V30 2890 H 279.383 0.308767 2.97804 0
M  V30 2891 H 276.929 0.149937 1.43217 0
M  V30 2892 H 278.882 -2.01914 3.69876 0
M  V30 2893 H 277.606 -2.14541 2.46252 0
M  V30 2894 H 276.265 -0.372145 3.64706 0
M  V30 2895 H 275.913 -2.78882 4.18609 0
M  V30 2896 H 275.613 -1.75717 5.60712 0
M  V30 2897 H 277.137 -2.68164 5.48562 0
M  V30 2898 H 278.551 -0.422069 5.71744 0
M  V30 2899 H 276.948 0.319776 5.99247 0
M  V30 2900 H 278.018 0.98858 4.74716 0
M  V30 2901 N 279.361 -1.56624 0.175154 0
M  V30 2902 C 280.311 -2.14747 -0.766004 0
M  V30 2903 C 281.295 -1.08275 -1.19018 0
M  V30 2904 O 282.487 -1.34388 -1.15191 0
M  V30 2905 C 279.616 -2.79478 -1.99366 0
M  V30 2906 C 278.702 -3.93114 -1.5913 0
M  V30 2907 N 279.093 -4.97752 -0.89872 0
M  V30 2908 C 277.391 -4.04345 -1.88204 0
M  V30 2909 C 278.092 -5.77473 -0.700012 0
M  V30 2910 N 277.068 -5.29207 -1.24263 0
M  V30 2911 H 280.87 -2.93015 -0.22793 0
M  V30 2912 H 278.384 -1.6238 -0.0253843 0
M  V30 2913 H 280.381 -3.19498 -2.67818 0
M  V30 2914 H 279.041 -2.02692 -2.53665 0
M  V30 2915 H 280.052 -5.14903 -0.556347 0
M  V30 2916 H 276.729 -3.38667 -2.44153 0
M  V30 2917 H 278.119 -6.71728 -0.152047 0
M  V30 2918 N 280.839 0.0985539 -1.57292 0
M  V30 2919 C 282.088 0.801358 -1.85098 0
M  V30 2920 C 282.401 1.80066 -0.763902 0
M  V30 2921 O 283.607 2.55112 -0.928981 0
M  V30 2922 C 282.063 1.47599 -3.28242 0
M  V30 2923 C 281.671 0.516624 -4.45011 0
M  V30 2924 C 283.415 2.16272 -3.65276 0
M  V30 2925 C 281.322 1.19564 -5.79188 0
M  V30 2926 H 280.252 0.303022 -0.69043 0
M  V30 2927 H 282.903 0.0542623 -1.8342 0
M  V30 2928 H 281.285 2.27042 -3.2445 0
M  V30 2929 H 282.459 -0.246065 -4.60143 0
M  V30 2930 H 280.774 -0.064227 -4.1635 0
M  V30 2931 H 283.371 2.67802 -4.62803 0
M  V30 2932 H 283.714 2.95009 -2.93727 0
M  V30 2933 H 284.247 1.43693 -3.70941 0
M  V30 2934 H 280.986 0.449157 -6.53959 0
M  V30 2935 H 280.506 1.92984 -5.67906 0
M  V30 2936 H 282.185 1.7231 -6.23633 0
M  V30 2937 N 282.317 1.53212 0.369288 0
M  V30 2938 C 283.227 1.82342 1.47609 0
M  V30 2939 C 284.243 0.711532 1.58787 0
M  V30 2940 O 285.419 1.0012 1.74751 0
M  V30 2941 C 282.484 2.00393 2.8292 0
M  V30 2942 C 281.545 3.24297 2.81301 0
M  V30 2943 C 280.778 3.41478 4.10157 0
M  V30 2944 O 281.001 2.63033 5.06132 0
M  V30 2945 O 279.935 4.34817 4.16194 0
M  V30 2946 H 283.761 2.76366 1.25918 0
M  V30 2947 H 281.346 1.38547 0.559034 0
M  V30 2948 H 283.228 2.13859 3.63101 0
M  V30 2949 H 281.903 1.09559 3.04596 0
M  V30 2950 H 280.81 3.16257 1.99831 0
M  V30 2951 H 282.143 4.15041 2.64578 0
M  V30 2952 N 283.795 -0.628877 1.44509 0
M  V30 2953 C 284.727 -1.754 1.47538 0
M  V30 2954 C 285.74 -1.58575 0.368506 0
M  V30 2955 O 286.929 -1.66847 0.634376 0
M  V30 2956 C 284.029 -3.1315 1.29577 0
M  V30 2957 C 283.202 -3.56413 2.53551 0
M  V30 2958 C 282.261 -4.7305 2.30457 0
M  V30 2959 O 281.287 -4.81247 3.03957 0
M  V30 2960 N 282.489 -5.64903 1.3366 0
M  V30 2961 H 285.254 -1.73272 2.44534 0
M  V30 2962 H 282.815 -0.813512 1.39977 0
M  V30 2963 H 284.807 -3.88902 1.11971 0
M  V30 2964 H 283.377 -3.09908 0.409371 0
M  V30 2965 H 282.597 -2.70847 2.86419 0
M  V30 2966 H 283.885 -3.82071 3.36005 0
M  V30 2967 H 283.283 -5.60975 0.729604 0
M  V30 2968 H 281.84 -6.40275 1.22032 0
M  V30 2969 N 285.273 -1.31445 -0.869486 0
M  V30 2970 C 286.521 -1.20918 -1.61936 0
M  V30 2971 C 286.842 0.232683 -1.93607 0
M  V30 2972 O 286.112 1.15352 -1.58338 0
M  V30 2973 H 284.692 -0.44454 -0.600328 0
M  V30 2974 H 287.354 -1.64776 -1.0409 0
M  V30 2975 H 286.45 -1.78124 -2.56278 0
M  V30 2976 N 286.751 1.08385 -1.14413 0
M  V30 2977 C 287.991 1.8238 -0.922868 0
M  V30 2978 C 288.355 1.84225 0.540842 0
M  V30 2979 O 289.556 2.53985 0.880058 0
M  V30 2980 C 287.827 3.24048 -1.50757 0
M  V30 2981 S 289.386 4.14917 -1.4279 0
M  V30 2982 H 286.204 0.628524 -0.332384 0
M  V30 2983 H 288.806 1.30278 -1.45766 0
M  V30 2984 H 287.51 3.20288 -2.56601 0
M  V30 2985 H 287.041 3.81224 -0.971178 0
M  V30 2986 H 289.056 4.94473 -0.413582 0
M  V30 2987 N 288.23 0.939286 1.26551 0
M  V30 2988 C 289.476 0.586715 1.94128 0
M  V30 2989 C 289.809 -0.8717 1.73537 0
M  V30 2990 O 289.084 -1.62339 1.07127 0
M  V30 2991 C 289.367 0.927497 3.4795 0
M  V30 2992 C 289.22 2.44052 3.77834 0
M  V30 2993 C 290.539 0.441569 4.37879 0
M  V30 2994 H 287.658 0.21463 0.705055 0
M  V30 2995 H 290.3 1.17316 1.49455 0
M  V30 2996 H 288.45 0.428431 3.8613 0
M  V30 2997 H 290.122 3.01216 3.4938 0
M  V30 2998 H 288.365 2.8848 3.23978 0
M  V30 2999 H 289.036 2.62947 4.85348 0
M  V30 3000 H 291.512 0.869448 4.06915 0
M  V30 3001 H 290.388 0.708856 5.44304 0
M  V30 3002 H 290.649 -0.658467 4.37169 0
M  V30 3003 N 289.708 -1.40897 0.706093 0
M  V30 3004 C 290.638 -2.33418 0.0620085 0
M  V30 3005 C 291.619 -1.52385 -0.755827 0
M  V30 3006 O 292.804 -1.80886 -0.706674 0
M  V30 3007 C 289.934 -3.36293 -0.867445 0
M  V30 3008 C 288.888 -4.27716 -0.155932 0
M  V30 3009 C 288.214 -5.2105 -1.20046 0
M  V30 3010 C 289.514 -5.12944 0.984149 0
M  V30 3011 H 291.208 -2.87527 0.83477 0
M  V30 3012 H 288.754 -1.38249 0.402875 0
M  V30 3013 H 290.707 -3.99949 -1.32735 0
M  V30 3014 H 289.431 -2.80556 -1.67199 0
M  V30 3015 H 288.09 -3.65498 0.284047 0
M  V30 3016 H 287.738 -4.61624 -1.99781 0
M  V30 3017 H 287.438 -5.83056 -0.729328 0
M  V30 3018 H 288.962 -5.87584 -1.66066 0
M  V30 3019 H 290.376 -5.70109 0.604048 0
M  V30 3020 H 288.773 -5.83945 1.38304 0
M  V30 3021 H 289.843 -4.49485 1.81911 0
M  V30 3022 N 291.186 -0.45159 -1.50991 0
M  V30 3023 C 292.096 0.358431 -2.31846 0
M  V30 3024 C 293.112 1.01438 -1.41373 0
M  V30 3025 O 294.288 1.00663 -1.74439 0
M  V30 3026 C 291.353 1.43704 -3.15515 0
M  V30 3027 C 290.414 0.799742 -4.21785 0
M  V30 3028 C 289.647 1.82696 -5.01456 0
M  V30 3029 O 289.87 3.05105 -4.81941 0
M  V30 3030 O 288.804 1.40958 -5.85162 0
M  V30 3031 H 292.63 -0.302032 -3.02194 0
M  V30 3032 H 290.215 -0.213825 -1.47862 0
M  V30 3033 H 292.097 2.06227 -3.67489 0
M  V30 3034 H 290.772 2.08133 -2.47916 0
M  V30 3035 H 289.679 0.136084 -3.73852 0
M  V30 3036 H 291.012 0.198718 -4.91799 0
M  V30 3037 N 292.664 1.56529 -0.183458 0
M  V30 3038 C 293.889 2.02064 0.467428 0
M  V30 3039 C 294.314 1.06282 1.55196 0
M  V30 3040 O 293.672 0.0443565 1.81246 0
M  V30 3041 C 293.72 3.46122 1.01153 0
M  V30 3042 O 292.824 3.53437 2.12499 0
M  V30 3043 H 292.165 0.654726 0.110588 0
M  V30 3044 H 294.695 2.02521 -0.290917 0
M  V30 3045 H 294.705 3.85676 1.33108 0
M  V30 3046 H 293.38 4.15331 0.217533 0
M  V30 3047 H 291.957 3.2575 1.81497 0
M  V30 3048 N 294.142 -0.090211 1.57342 0
M  V30 3049 C 295.09 -1.12792 2.03422 0
M  V30 3050 C 296.084 -1.41182 0.936166 0
M  V30 3051 O 297.29 -1.40805 1.12133 0
M  V30 3052 H 293.665 -0.380986 0.648347 0
M  V30 3053 H 295.636 -0.71299 2.89757 0
M  V30 3054 C 294.385 -2.43855 2.47851 0
M  V30 3055 H 293.708 -2.22855 3.31927 0
M  V30 3056 H 295.148 -3.14955 2.83865 0
M  V30 3057 C 293.607 -3.08503 1.3538 0
M  V30 3058 O 294.137 -3.95805 0.685641 0
M  V30 3059 N 292.343 -2.68831 1.10355 0
M  V30 3060 H 291.89 -1.97929 1.64869 0
M  V30 3061 H 291.848 -3.12412 0.353031 0
M  V30 3062 N 295.62 -1.53406 -0.361157 0
M  V30 3063 C 296.868 -1.69467 -1.10115 0
M  V30 3064 C 297.189 -0.451352 -1.89705 0
M  V30 3065 O 296.459 0.534636 -1.88463 0
M  V30 3066 H 295.039 -0.624749 -0.409508 0
M  V30 3067 H 297.701 -1.90609 -0.406699 0
M  V30 3068 H 296.797 -2.55774 -1.78847 0
M  V30 3069 N 297.098 0.621204 -1.44841 0
M  V30 3070 C 298.03 1.74615 -1.48466 0
M  V30 3071 C 299.043 1.58377 -0.37691 0
M  V30 3072 O 300.232 1.66508 -0.643215 0
M  V30 3073 C 297.332 3.12459 -1.31236 0
M  V30 3074 C 296.505 3.55064 -2.55438 0
M  V30 3075 C 295.564 4.71821 -2.32963 0
M  V30 3076 O 294.59 4.79628 -3.06505 0
M  V30 3077 N 295.792 5.64186 -1.36654 0
M  V30 3078 H 298.557 1.71973 -2.45449 0
M  V30 3079 H 296.118 0.806077 -1.40407 0
M  V30 3080 H 298.11 3.88302 -1.14032 0
M  V30 3081 H 296.68 3.09686 -0.4258 0
M  V30 3082 H 295.9 2.69324 -2.87851 0
M  V30 3083 H 297.188 3.80284 -3.38026 0
M  V30 3084 H 296.586 5.6058 -0.759344 0
M  V30 3085 H 295.143 6.39618 -1.25425 0
M  V30 3086 N 298.576 1.31904 0.862503 0
M  V30 3087 C 299.801 1.25135 1.65397 0
M  V30 3088 C 300.226 -0.179 1.87246 0
M  V30 3089 O 299.584 -1.1277 1.4196 0
M  V30 3090 C 299.632 2.00832 2.99498 0
M  V30 3091 O 298.736 1.35075 3.89652 0
M  V30 3092 H 298.077 0.431655 0.504549 0
M  V30 3093 H 300.607 1.74094 1.07483 0
M  V30 3094 H 300.617 2.10709 3.49379 0
M  V30 3095 H 299.292 3.04847 2.82916 0
M  V30 3096 H 297.869 1.33696 3.48109 0
M  V30 3097 N 300.054 -1.07777 1.14986 0
M  V30 3098 C 301.303 -1.79669 0.916617 0
M  V30 3099 C 301.616 -1.87474 -0.557917 0
M  V30 3100 O 302.822 -2.55845 -0.908617 0
M  V30 3101 C 301.278 -3.22848 1.59051 0
M  V30 3102 C 300.886 -3.23257 3.10176 0
M  V30 3103 C 302.63 -3.99379 1.43864 0
M  V30 3104 C 300.537 -4.61063 3.70372 0
M  V30 3105 H 299.467 -0.673349 0.33929 0
M  V30 3106 H 302.118 -1.21003 1.37951 0
M  V30 3107 H 300.5 -3.8168 1.0553 0
M  V30 3108 H 301.674 -2.74095 3.70417 0
M  V30 3109 H 299.989 -2.60222 3.25074 0
M  V30 3110 H 302.586 -5.0122 1.86232 0
M  V30 3111 H 302.929 -4.14511 0.385564 0
M  V30 3112 H 303.462 -3.47032 1.94457 0
M  V30 3113 H 300.201 -4.51135 4.7556 0
M  V30 3114 H 299.721 -5.1048 3.14913 0
M  V30 3115 H 301.4 -5.30034 3.71043 0
M  V30 3116 N 301.532 -0.945985 -1.26051 0
M  V30 3117 C 302.78 -0.594941 -1.93145 0
M  V30 3118 C 303.101 0.86953 -1.7454 0
M  V30 3119 O 302.371 1.61838 -1.10387 0
M  V30 3120 H 300.951 -0.217044 -0.714773 0
M  V30 3121 H 303.613 -1.20235 -1.53393 0
M  V30 3122 H 302.709 -0.816835 -3.01221 0
M  V30 3123 N 303.011 1.40521 -0.713556 0
M  V30 3124 C 304.257 2.01221 -0.252564 0
M  V30 3125 C 304.59 1.56444 1.1506 0
M  V30 3126 O 303.865 0.783597 1.78017 0
M  V30 3127 C 304.148 3.58582 -0.330332 0
M  V30 3128 C 304.001 4.13437 -1.77173 0
M  V30 3129 C 305.32 4.39079 0.299641 0
M  V30 3130 H 302.439 0.731077 -0.0932471 0
M  V30 3131 H 305.081 1.67026 -0.905673 0
M  V30 3132 H 303.231 3.87844 0.225737 0
M  V30 3133 H 304.903 3.9498 -2.38303 0
M  V30 3134 H 303.146 3.67801 -2.3001 0
M  V30 3135 H 303.817 5.22597 -1.77755 0
M  V30 3136 H 306.293 4.15735 -0.174139 0
M  V30 3137 H 305.169 5.4848 0.214771 0
M  V30 3138 H 305.43 4.19915 1.38288 0
M  V30 3139 N 304.489 0.459591 1.5075 0
M  V30 3140 C 305.735 -0.0994966 2.02556 0
M  V30 3141 C 306.068 -1.40399 1.3417 0
M  V30 3142 O 305.343 -1.88892 0.463683 0
M  V30 3143 C 305.626 -0.295242 3.58888 0
M  V30 3144 C 305.479 1.02947 4.37861 0
M  V30 3145 C 306.798 -1.05502 4.27267 0
M  V30 3146 H 303.917 -0.034686 0.736183 0
M  V30 3147 H 306.559 0.602938 1.8018 0
M  V30 3148 H 304.709 -0.893563 3.78084 0
M  V30 3149 H 306.381 1.66348 4.30263 0
M  V30 3150 H 304.624 1.62885 4.02058 0
M  V30 3151 H 305.295 0.846281 5.45474 0
M  V30 3152 H 307.771 -0.547993 4.12476 0
M  V30 3153 H 306.647 -1.16077 5.36486 0
M  V30 3154 H 306.908 -2.08875 3.89645 0
M  V30 3155 N 305.967 -1.56429 0.191757 0
M  V30 3156 C 306.915 -2.20273 -0.747174 0
M  V30 3157 C 307.909 -1.17288 -1.22229 0
M  V30 3158 O 309.115 -1.35441 -1.18557 0
M  V30 3159 H 305.49 -0.705885 -0.259289 0
M  V30 3160 H 307.461 -2.97826 -0.184963 0
M  V30 3161 C 306.21 -2.87356 -1.95759 0
M  V30 3162 H 305.533 -3.66341 -1.60106 0
M  V30 3163 H 306.973 -3.3547 -2.59299 0
M  V30 3164 C 305.432 -1.88213 -2.79423 0
M  V30 3165 O 305.962 -1.38033 -3.7724 0
M  V30 3166 N 304.168 -1.56516 -2.44849 0
M  V30 3167 H 303.715 -1.97516 -1.65364 0
M  V30 3168 H 303.673 -0.904369 -3.01112 0
M  V30 3169 N 307.445 0.0818655 -1.57387 0
M  V30 3170 C 308.408 1.08265 -2.02018 0
M  V30 3171 C 309.408 1.32183 -0.915664 0
M  V30 3172 O 310.598 1.28073 -1.18081 0
M  V30 3173 C 307.73 2.42871 -2.39221 0
M  V30 3174 H 308.923 0.698204 -2.91659 0
M  V30 3175 H 306.476 0.327303 -1.52835 0
M  V30 3176 H 307.211 2.86167 -1.52575 0
M  V30 3177 H 306.996 2.26855 -3.19811 0
M  V30 3178 H 308.486 3.14826 -2.74362 0
M  V30 3179 N 308.923 1.53595 0.353017 0
M  V30 3180 C 310.172 1.69603 1.09168 0
M  V30 3181 C 310.485 0.460925 1.90092 0
M  V30 3182 O 311.691 0.501774 2.66823 0
M  V30 3183 C 310.147 2.99872 1.9901 0
M  V30 3184 C 309.755 4.30687 1.23339 0
M  V30 3185 C 311.499 3.25246 2.72792 0
M  V30 3186 C 309.406 5.52036 2.12156 0
M  V30 3187 H 308.336 0.631966 0.411261 0
M  V30 3188 H 310.987 1.80096 0.351802 0
M  V30 3189 H 309.369 2.83212 2.7678 0
M  V30 3190 H 310.543 4.58019 0.505456 0
M  V30 3191 H 308.858 4.11853 0.613663 0
M  V30 3192 H 311.455 4.13095 3.39495 0
M  V30 3193 H 311.798 2.41846 3.38846 0
M  V30 3194 H 312.331 3.42638 2.021 0
M  V30 3195 H 309.07 6.37951 1.50659 0
M  V30 3196 H 308.59 5.28966 2.82764 0
M  V30 3197 H 310.269 5.87313 2.71427 0
M  V30 3198 N 310.401 -0.613514 1.45168 0
M  V30 3199 C 311.647 -1.37471 1.49096 0
M  V30 3200 C 311.98 -1.93765 0.129901 0
M  V30 3201 O 311.255 -1.74707 -0.854858 0
M  V30 3202 C 311.538 -2.52701 2.56542 0
M  V30 3203 C 311.391 -2.01643 4.0207 0
M  V30 3204 C 312.71 -3.54849 2.60327 0
M  V30 3205 H 309.829 -0.498502 0.54283 0
M  V30 3206 H 312.471 -0.692125 1.76945 0
M  V30 3207 H 310.621 -3.10931 2.32926 0
M  V30 3208 H 312.293 -1.48108 4.36877 0
M  V30 3209 H 310.536 -1.32688 4.13009 0
M  V30 3210 H 311.207 -2.84681 4.72928 0
M  V30 3211 H 313.683 -3.0645 2.81474 0
M  V30 3212 H 312.559 -4.32973 3.37381 0
M  V30 3213 H 312.82 -4.10079 1.6519 0
M  V30 3214 N 311.879 -1.3236 -0.855495 0
M  V30 3215 C 313.127 -1.22629 -1.60644 0
M  V30 3216 C 313.448 0.212136 -1.93843 0
M  V30 3217 O 312.718 1.13666 -1.59552 0
M  V30 3218 H 311.298 -0.450882 -0.595579 0
M  V30 3219 H 313.96 -1.65871 -1.02337 0
M  V30 3220 H 313.056 -1.80832 -2.54374 0
M  V30 3221 N 313.357 1.07166 -1.15556 0
M  V30 3222 C 314.289 2.14341 -0.811815 0
M  V30 3223 C 315.302 1.61835 0.177015 0
M  V30 3224 O 316.491 1.78439 -0.0464996 0
M  V30 3225 C 313.591 3.38387 -0.186481 0
M  V30 3226 C 312.764 4.20238 -1.21321 0
M  V30 3227 C 311.823 5.2266 -0.609302 0
M  V30 3228 O 310.849 5.54719 -1.27576 0
M  V30 3229 N 312.051 5.77306 0.608099 0
M  V30 3230 H 314.816 2.44431 -1.73417 0
M  V30 3231 H 312.377 1.23089 -1.0517 0
M  V30 3232 H 314.369 4.04044 0.230339 0
M  V30 3233 H 312.939 3.05994 0.639249 0
M  V30 3234 H 312.159 3.50369 -1.80652 0
M  V30 3235 H 313.447 4.71736 -1.90638 0
M  V30 3236 H 312.845 5.53513 1.1679 0
M  V30 3237 H 311.402 6.44583 0.96725 0
M  V30 3238 N 314.835 0.952656 1.25548 0
M  V30 3239 C 316.251 0.656769 1.4546 0
M  V30 3240 C 316.451 -0.78633 1.85524 0
M  V30 3241 O 315.507 -1.56183 1.98402 0
M  V30 3242 C 316.82 1.62801 2.52817 0
M  V30 3243 C 318.368 1.63897 2.66659 0
M  V30 3244 C 318.843 2.5978 3.77198 0
M  V30 3245 N 320.334 2.58133 3.84606 0
M  V30 3246 C 321.069 3.29003 4.69621 0
M  V30 3247 N 320.565 4.09339 5.58939 0
M  V30 3248 N 322.358 3.179 4.63569 0
M  V30 3249 H 314.509 1.88526 0.978344 0
M  V30 3250 H 316.772 0.810815 0.491206 0
M  V30 3251 H 316.478 2.65869 2.30232 0
M  V30 3252 H 316.352 1.38898 3.50695 0
M  V30 3253 H 318.739 0.615481 2.8861 0
M  V30 3254 H 318.82 1.91858 1.69187 0
M  V30 3255 H 318.464 3.62254 3.55997 0
M  V30 3256 H 318.394 2.29105 4.7415 0
M  V30 3257 H 320.885 1.99809 3.20757 0
M  V30 3258 H 321.198 4.6034 6.20731 0
M  V30 3259 H 319.543 4.13438 5.58654 0
M  V30 3260 H 322.734 2.54612 3.92798 0
M  V30 3261 H 322.907 3.73398 5.29602 0
M  V30 3262 N 316.313 -1.40141 0.720998 0
M  V30 3263 C 317.729 -1.54632 0.395113 0
M  V30 3264 C 317.929 -1.69115 -1.09555 0
M  V30 3265 O 316.985 -1.68377 -1.88163 0
M  V30 3266 C 318.298 -2.77177 1.1659 0
M  V30 3267 C 319.846 -2.91 1.15274 0
M  V30 3268 C 320.321 -4.16465 1.90579 0
M  V30 3269 N 321.812 -4.23476 1.87675 0
M  V30 3270 C 322.547 -5.19475 2.42762 0
M  V30 3271 N 322.043 -6.21348 3.06428 0
M  V30 3272 N 323.836 -5.11592 2.32874 0
M  V30 3273 H 315.987 -1.28986 1.68749 0
M  V30 3274 H 318.25 -0.62412 0.713567 0
M  V30 3275 H 317.956 -2.72771 2.22011 0
M  V30 3276 H 317.83 -3.69442 0.76108 0
M  V30 3277 H 320.217 -2.94907 0.106702 0
M  V30 3278 H 320.298 -1.99838 1.59682 0
M  V30 3279 H 319.942 -4.1332 2.95176 0
M  V30 3280 H 319.872 -5.06646 1.43587 0
M  V30 3281 H 322.363 -3.50497 1.41281 0
M  V30 3282 H 322.676 -6.91034 3.45965 0
M  V30 3283 H 321.021 -6.21777 3.10514 0
M  V30 3284 H 324.212 -4.30936 1.82789 0
M  V30 3285 H 324.385 -5.86233 2.76106 0
M  V30 3286 N 317.792 -0.46758 -1.50504 0
M  V30 3287 C 319.022 0.086288 -2.0642 0
M  V30 3288 C 319.43 1.34369 -1.33197 0
M  V30 3289 O 318.773 1.79431 -0.393747 0
M  V30 3290 C 318.835 0.443846 -3.5675 0
M  V30 3291 C 318.499 -0.711035 -4.51435 0
M  V30 3292 C 319.496 -1.59205 -4.94924 0
M  V30 3293 C 317.181 -0.900363 -4.94165 0
M  V30 3294 C 319.175 -2.64683 -5.79846 0
M  V30 3295 C 316.862 -1.95837 -5.7887 0
M  V30 3296 C 317.86 -2.82997 -6.21612 0
M  V30 3297 O 317.548 -3.86977 -7.0463 0
M  V30 3298 H 317.28 -0.00217814 -0.675996 0
M  V30 3299 H 319.834 -0.654346 -1.94698 0
M  V30 3300 H 318.064 1.23762 -3.6636 0
M  V30 3301 H 319.753 0.932386 -3.95046 0
M  V30 3302 H 320.519 -1.45745 -4.62583 0
M  V30 3303 H 316.398 -0.231427 -4.60419 0
M  V30 3304 H 319.942 -3.32745 -6.13128 0
M  V30 3305 H 315.839 -2.09305 -6.10624 0
M  V30 3306 H 316.607 -3.83923 -7.22873 0
M  V30 3307 N 319.27 1.56325 -0.20005 0
M  V30 3308 C 320.498 2.02105 0.442874 0
M  V30 3309 C 320.913 1.08014 1.5485 0
M  V30 3310 O 320.27 0.0858797 1.82298 0
M  V30 3311 C 320.321 3.47549 0.994583 0
M  V30 3312 O 320.042 4.38049 -0.0669322 0
M  V30 3313 C 321.543 4.0887 1.7129 0
M  V30 3314 H 318.763 0.661807 0.110691 0
M  V30 3315 H 321.307 2.02134 -0.310207 0
M  V30 3316 H 319.462 3.48204 1.69803 0
M  V30 3317 H 319.876 5.23368 0.344462 0
M  V30 3318 H 321.35 5.12475 2.05118 0
M  V30 3319 H 321.827 3.52615 2.61838 0
M  V30 3320 H 322.433 4.12002 1.05518 0
M  V30 3321 N 320.748 -0.0735177 1.57428 0
M  V30 3322 C 321.994 -0.774145 1.87443 0
M  V30 3323 C 322.327 -1.77311 0.792103 0
M  V30 3324 O 321.602 -1.93492 -0.197793 0
M  V30 3325 C 321.885 -1.48367 3.28115 0
M  V30 3326 C 321.738 -0.501227 4.46999 0
M  V30 3327 C 323.057 -2.429 3.66998 0
M  V30 3328 H 320.176 -0.279971 0.681752 0
M  V30 3329 H 322.818 -0.0373616 1.89963 0
M  V30 3330 H 320.968 -2.11171 3.26097 0
M  V30 3331 H 322.64 0.121468 4.6114 0
M  V30 3332 H 320.883 0.183593 4.33411 0
M  V30 3333 H 321.554 -1.03526 5.42205 0
M  V30 3334 H 324.03 -1.90175 3.70098 0
M  V30 3335 H 322.906 -2.89549 4.66318 0
M  V30 3336 H 323.167 -3.27628 2.96837 0
M  V30 3337 N 322.226 -1.5378 -0.344866 0
M  V30 3338 C 323.454 -1.74899 -1.10534 0
M  V30 3339 C 323.869 -0.487534 -1.82397 0
M  V30 3340 O 323.226 0.540741 -1.74305 0
M  V30 3341 C 323.277 -2.92822 -2.11984 0
M  V30 3342 O 322.998 -4.14089 -1.43044 0
M  V30 3343 C 324.499 -3.25982 -3.00417 0
M  V30 3344 H 321.719 -0.584426 -0.329678 0
M  V30 3345 H 324.263 -2.006 -0.397474 0
M  V30 3346 H 322.418 -2.69457 -2.78338 0
M  V30 3347 H 322.832 -4.80272 -2.10805 0
M  V30 3348 H 324.306 -4.11848 -3.67539 0
M  V30 3349 H 324.783 -2.42228 -3.66363 0
M  V30 3350 H 325.389 -3.51349 -2.39654 0
M  V30 3351 N 323.704 0.605807 -1.45491 0
M  V30 3352 C 324.634 1.72709 -1.57143 0
M  V30 3353 C 325.615 1.6476 -0.422884 0
M  V30 3354 O 326.8 1.83132 -0.646247 0
M  V30 3355 C 323.93 3.11316 -1.53948 0
M  V30 3356 C 322.884 3.34077 -2.67537 0
M  V30 3357 C 322.21 4.72975 -2.49397 0
M  V30 3358 C 323.51 3.24158 -4.09535 0
M  V30 3359 H 325.204 1.63214 -2.51001 0
M  V30 3360 H 322.75 0.78379 -1.208 0
M  V30 3361 H 324.703 3.89557 -1.60696 0
M  V30 3362 H 323.427 3.21655 -0.566205 0
M  V30 3363 H 322.086 2.58227 -2.6022 0
M  V30 3364 H 321.734 4.8005 -1.50205 0
M  V30 3365 H 321.434 4.8916 -3.25571 0
M  V30 3366 H 322.958 5.53414 -2.58002 0
M  V30 3367 H 324.372 3.92271 -4.18086 0
M  V30 3368 H 322.769 3.51872 -4.86113 0
M  V30 3369 H 323.839 2.2157 -4.31317 0
M  V30 3370 N 325.182 1.32811 0.848464 0
M  V30 3371 C 326.13 1.22231 1.97895 0
M  V30 3372 C 327.124 0.125749 1.68933 0
M  V30 3373 O 328.33 0.289083 1.77663 0
M  V30 3374 H 324.705 0.379058 0.649476 0
M  V30 3375 H 326.676 2.17828 2.03945 0
M  V30 3376 C 325.425 0.968572 3.33937 0
M  V30 3377 H 324.748 1.80458 3.56756 0
M  V30 3378 H 326.188 0.934808 4.13567 0
M  V30 3379 C 324.647 -0.328628 3.35293 0
M  V30 3380 O 325.177 -1.33848 3.78745 0
M  V30 3381 N 323.383 -0.352788 2.88451 0
M  V30 3382 H 322.93 0.469541 2.53285 0
M  V30 3383 H 322.888 -1.22057 2.89741 0
M  V30 3384 N 326.66 -1.06551 1.16123 0
M  V30 3385 C 327.908 -1.78947 0.939267 0
M  V30 3386 C 328.229 -1.87532 -0.534476 0
M  V30 3387 O 327.499 -1.38211 -1.38833 0
M  V30 3388 H 326.079 -0.662807 0.344523 0
M  V30 3389 H 328.741 -1.28725 1.46342 0
M  V30 3390 H 327.837 -2.81117 1.35572 0
M  V30 3391 N 328.138 -0.959301 -1.25041 0
M  V30 3392 C 329.048 -0.489994 -2.29426 0
M  V30 3393 C 330.064 0.444944 -1.68215 0
M  V30 3394 O 331.24 0.320046 -1.98841 0
M  V30 3395 C 328.305 0.220309 -3.45999 0
M  V30 3396 C 327.366 -0.753418 -4.22637 0
M  V30 3397 C 326.599 -0.076918 -5.33645 0
M  V30 3398 O 326.822 1.13649 -5.58963 0
M  V30 3399 O 325.756 -0.764824 -5.97021 0
M  V30 3400 H 329.582 -1.35755 -2.71669 0
M  V30 3401 H 327.167 -0.725961 -1.30576 0
M  V30 3402 H 329.049 0.619677 -4.16819 0
M  V30 3403 H 327.724 1.06296 -3.0575 0
M  V30 3404 H 326.631 -1.20308 -3.54227 0
M  V30 3405 H 327.964 -1.56423 -4.66683 0
M  V30 3406 N 329.616 1.39756 -0.72842 0
M  V30 3407 C 330.841 2.05472 -0.282159 0
M  V30 3408 C 331.266 1.54549 1.07221 0
M  V30 3409 O 330.624 0.686372 1.67805 0
M  V30 3410 C 330.672 3.59462 -0.286264 0
M  V30 3411 O 329.776 4.05918 0.728298 0
M  V30 3412 H 329.117 0.651226 -0.129618 0
M  V30 3413 H 331.647 1.78915 -0.992499 0
M  V30 3414 H 331.657 4.07798 -0.128373 0
M  V30 3415 H 330.332 3.95889 -1.27456 0
M  V30 3416 H 328.909 3.69012 0.537081 0
M  V30 3417 N 331.094 0.475555 1.50254 0
M  V30 3418 C 332.042 -0.330276 2.30243 0
M  V30 3419 C 333.036 -0.986306 1.37726 0
M  V30 3420 O 334.242 -0.9169 1.54897 0
M  V30 3421 H 330.617 -0.125353 0.741479 0
M  V30 3422 H 332.588 0.364702 2.96163 0
M  V30 3423 C 331.337 -1.39704 3.18399 0
M  V30 3424 H 330.66 -0.901621 3.89501 0
M  V30 3425 H 332.1 -1.93336 3.77355 0
M  V30 3426 C 330.559 -2.4014 2.36293 0
M  V30 3427 O 331.089 -3.45504 2.04914 0
M  V30 3428 N 329.295 -2.1197 1.98789 0
M  V30 3429 H 328.842 -1.2631 2.24507 0
M  V30 3430 H 328.8 -2.79403 1.44157 0
M  V30 3431 N 332.573 -1.56217 0.208337 0
M  V30 3432 C 333.523 -2.16324 -0.720281 0
M  V30 3433 C 334.507 -1.10775 -1.16695 0
M  V30 3434 O 335.699 -1.36801 -1.12314 0
M  V30 3435 C 332.828 -2.83644 -1.93393 0
M  V30 3436 C 331.914 -3.96401 -1.50755 0
M  V30 3437 N 332.305 -4.99546 -0.792937 0
M  V30 3438 C 330.603 -4.08246 -1.79585 0
M  V30 3439 C 331.304 -5.78828 -0.577364 0
M  V30 3440 N 330.28 -5.31723 -1.1301 0
M  V30 3441 H 334.082 -2.93432 -0.165725 0
M  V30 3442 H 331.596 -1.62397 0.00906463 0
M  V30 3443 H 333.593 -3.25107 -2.60981 0
M  V30 3444 H 332.253 -2.08027 -2.49308 0
M  V30 3445 H 333.264 -5.15967 -0.447004 0
M  V30 3446 H 329.941 -3.4377 -2.36915 0
M  V30 3447 H 331.331 -6.71899 -0.00952956 0
M  V30 3448 N 334.051 0.0651679 -1.57465 0
M  V30 3449 C 335.014 1.06117 -2.03155 0
M  V30 3450 C 336.014 1.31204 -0.929632 0
M  V30 3451 O 337.204 1.26813 -1.19432 0
M  V30 3452 C 334.336 2.4032 -2.41783 0
M  V30 3453 H 335.529 0.667231 -2.92383 0
M  V30 3454 H 333.082 0.311075 -1.53173 0
M  V30 3455 H 333.817 2.84532 -1.55601 0
M  V30 3456 H 333.602 2.23451 -3.22199 0
M  V30 3457 H 335.092 3.11898 -2.77685 0
M  V30 3458 N 335.529 1.53961 0.336706 0
M  V30 3459 C 336.777 1.71197 1.07405 0
M  V30 3460 C 337.098 0.481475 1.88962 0
M  V30 3461 O 336.368 -0.504585 1.8929 0
M  V30 3462 H 334.948 0.631185 0.399517 0
M  V30 3463 H 337.61 1.91232 0.376323 0
M  V30 3464 H 336.706 2.58587 1.74755 0
M  V30 3465 N 337.007 -0.598083 1.45811 0
M  V30 3466 C 338.235 -1.38322 1.53866 0
M  V30 3467 C 338.65 -1.87992 0.174479 0
M  V30 3468 O 338.007 -1.62756 -0.825627 0
M  V30 3469 C 338.058 -2.58125 2.53089 0
M  V30 3470 O 337.779 -2.10516 3.84206 0
M  V30 3471 C 339.28 -3.50869 2.70935 0
M  V30 3472 H 336.5 -0.423093 0.520801 0
M  V30 3473 H 339.044 -0.728527 1.91083 0
M  V30 3474 H 337.199 -3.19615 2.18917 0
M  V30 3475 H 337.613 -2.88425 4.38077 0
M  V30 3476 H 339.087 -4.31451 3.44317 0
M  V30 3477 H 339.564 -4.01822 1.77301 0
M  V30 3478 H 340.17 -2.95225 3.06141 0
M  V30 3479 N 338.485 -1.33259 -0.841409 0
M  V30 3480 C 339.713 -1.27605 -1.62864 0
M  V30 3481 C 340.128 0.153507 -1.88175 0
M  V30 3482 O 339.485 1.09485 -1.46011 0
M  V30 3483 C 339.536 -2.04596 -2.98031 0
M  V30 3484 O 339.257 -3.41975 -2.73834 0
M  V30 3485 C 340.758 -2.06122 -3.92465 0
M  V30 3486 H 337.978 -0.439718 -0.506842 0
M  V30 3487 H 340.522 -1.75591 -1.04824 0
M  V30 3488 H 338.677 -1.60299 -3.5268 0
M  V30 3489 H 339.091 -3.81549 -3.59889 0
M  V30 3490 H 340.565 -2.64451 -4.84531 0
M  V30 3491 H 341.042 -1.05083 -4.26444 0
M  V30 3492 H 341.648 -2.50427 -3.43753 0
M  V30 3493 N 339.963 1.05934 -1.16686 0
M  V30 3494 C 341.374 1.60263 -0.957745 0
M  V30 3495 C 341.725 1.89789 0.49745 0
M  V30 3496 O 340.85 1.67401 1.37135 0
M  V30 3497 C 341.445 2.91172 -1.73218 0
M  V30 3498 C 340.004 3.42188 -1.56794 0
M  V30 3499 C 339.151 2.16028 -1.73859 0
M  V30 3500 H 342.102 0.888392 -1.31504 0
M  V30 3501 H 342.123 3.60744 -1.21014 0
M  V30 3502 H 341.635 2.6965 -2.79124 0
M  V30 3503 H 339.736 3.68762 -0.533437 0
M  V30 3504 H 339.849 4.17273 -2.35414 0
M  V30 3505 H 338.213 2.26426 -1.16633 0
M  V30 3506 H 338.996 1.96985 -2.81161 0
M  V30 3507 N 341.441 0.965919 1.2453 0
M  V30 3508 C 342.374 0.4393 2.23932 0
M  V30 3509 C 343.352 -0.485615 1.55179 0
M  V30 3510 O 344.536 -0.417402 1.83821 0
M  V30 3511 C 341.663 -0.366042 3.36716 0
M  V30 3512 C 340.709 0.5009 4.23548 0
M  V30 3513 S 341.542 1.94002 4.99123 0
M  V30 3514 C 342.698 1.14342 6.15367 0
M  V30 3515 H 342.931 1.28167 2.68254 0
M  V30 3516 H 340.464 0.770819 1.33782 0
M  V30 3517 H 342.422 -0.824724 4.0213 0
M  V30 3518 H 341.083 -1.18337 2.90956 0
M  V30 3519 H 340.276 -0.117341 5.03863 0
M  V30 3520 H 339.878 0.89524 3.63127 0
M  V30 3521 H 342.17 0.397572 6.76332 0
M  V30 3522 H 343.113 1.92089 6.81548 0
M  V30 3523 H 343.521 0.668579 5.60527 0
M  V30 3524 N 342.919 -1.39368 0.735821 0
M  V30 3525 C 344.167 -2.00101 0.283562 0
M  V30 3526 C 344.488 -1.5868 -1.13338 0
M  V30 3527 O 343.758 -0.835423 -1.77193 0
M  V30 3528 H 342.338 -0.740024 0.101851 0
M  V30 3529 H 345 -1.70404 0.945962 0
M  V30 3530 H 344.096 -3.10323 0.332604 0
M  V30 3531 N 344.397 -0.483516 -1.5 0
M  V30 3532 C 345.627 0.0643896 -2.065 0
M  V30 3533 C 346.035 1.32949 -1.34615 0
M  V30 3534 O 345.378 1.79003 -0.412756 0
M  V30 3535 C 345.44 0.405983 -3.572 0
M  V30 3536 C 345.104 -0.758875 -4.50655 0
M  V30 3537 C 346.101 -1.64445 -4.93208 0
M  V30 3538 C 343.786 -0.952725 -4.93182 0
M  V30 3539 C 345.78 -2.70818 -5.77006 0
M  V30 3540 C 343.467 -2.01966 -5.76761 0
M  V30 3541 C 344.465 -2.89574 -6.18576 0
M  V30 3542 O 344.153 -3.94429 -7.00486 0
M  V30 3543 H 343.885 -0.00934786 -0.675935 0
M  V30 3544 H 346.439 -0.674959 -1.93993 0
M  V30 3545 H 344.669 1.19869 -3.67652 0
M  V30 3546 H 346.358 0.890433 -3.96013 0
M  V30 3547 H 347.124 -1.50643 -4.61012 0
M  V30 3548 H 343.003 -0.280247 -4.60147 0
M  V30 3549 H 346.547 -3.3923 -6.09565 0
M  V30 3550 H 342.444 -2.1577 -6.0837 0
M  V30 3551 H 343.212 -3.91568 -7.1876 0
M  V30 3552 N 345.875 1.56104 -0.216619 0
M  V30 3553 C 347.291 1.58995 0.13886 0
M  V30 3554 C 347.491 1.23333 1.59346 0
M  V30 3555 O 346.547 0.966234 2.33281 0
M  V30 3556 C 347.86 3.00143 -0.182968 0
M  V30 3557 C 349.408 3.12751 -0.124807 0
M  V30 3558 C 349.883 4.56068 -0.420241 0
M  V30 3559 N 351.374 4.61723 -0.369634 0
M  V30 3560 C 352.109 5.70542 -0.571789 0
M  V30 3561 N 351.605 6.87744 -0.835453 0
M  V30 3562 N 353.398 5.59831 -0.504563 0
M  V30 3563 H 345.549 1.77562 -1.16557 0
M  V30 3564 H 347.812 0.825091 -0.466828 0
M  V30 3565 H 347.518 3.30871 -1.19237 0
M  V30 3566 H 347.392 3.73813 0.504367 0
M  V30 3567 H 349.779 2.81822 0.875223 0
M  V30 3568 H 349.86 2.41421 -0.845544 0
M  V30 3569 H 349.504 4.87713 -1.41769 0
M  V30 3570 H 349.434 5.25617 0.321631 0
M  V30 3571 H 351.925 3.77502 -0.173338 0
M  V30 3572 H 352.238 7.66587 -0.977938 0
M  V30 3573 H 350.583 6.895 -0.872592 0
M  V30 3574 H 353.774 4.67145 -0.298842 0
M  V30 3575 H 353.947 6.44573 -0.665519 0
M  V30 3576 N 347.353 -0.0568162 1.57498 0
M  V30 3577 C 348.769 -0.411933 1.54192 0
M  V30 3578 C 348.969 -1.78287 0.938942 0
M  V30 3579 O 348.025 -2.46483 0.547919 0
M  V30 3580 C 349.338 -0.339244 2.9878 0
M  V30 3581 C 350.886 -0.418348 3.10192 0
M  V30 3582 C 351.361 -0.375407 4.56459 0
M  V30 3583 N 352.852 -0.435038 4.61153 0
M  V30 3584 C 353.587 -0.424265 5.71828 0
M  V30 3585 N 353.083 -0.367418 6.91825 0
M  V30 3586 N 354.876 -0.471938 5.60115 0
M  V30 3587 H 347.027 0.840684 1.95055 0
M  V30 3588 H 349.29 0.316987 0.893433 0
M  V30 3589 H 348.996 0.601742 3.46514 0
M  V30 3590 H 348.87 -1.14371 3.59443 0
M  V30 3591 H 351.257 -1.34976 2.62422 0
M  V30 3592 H 351.338 0.414962 2.52412 0
M  V30 3593 H 350.982 0.552219 5.04889 0
M  V30 3594 H 350.912 -1.22645 5.12119 0
M  V30 3595 H 353.403 -0.482612 3.74806 0
M  V30 3596 H 353.716 -0.363535 7.71944 0
M  V30 3597 H 352.061 -0.333879 6.94198 0
M  V30 3598 H 355.252 -0.514145 4.65268 0
M  V30 3599 H 355.425 -0.460073 6.46365 0
M  V30 3600 N 348.832 -1.54138 -0.328536 0
M  V30 3601 C 350.109 -1.62749 -1.08499 0
M  V30 3602 C 350.489 -0.458198 -2.06067 0
M  V30 3603 O 349.837 0.548046 -2.2183 0
M  V30 3604 C 350.047 -2.99519 -1.79135 0
M  V30 3605 C 351.395 -3.55394 -2.32337 0
M  V30 3606 O 352.419 -3.01792 -1.89209 0
M  V30 3607 O 351.278 -4.49186 -3.11279 0
M  V30 3608 H 348.372 -0.65886 -0.499832 0
M  V30 3609 H 350.918 -1.66484 -0.328826 0
M  V30 3610 H 349.69 -3.76061 -1.08139 0
M  V30 3611 H 349.313 -2.99441 -2.61574 0
M  V30 3612 N 350.31 0.590341 -1.46126 0
M  V30 3613 C 351.538 1.37504 -1.54597 0
M  V30 3614 C 351.953 1.87897 -0.184447 0
M  V30 3615 O 351.31 1.63192 0.816984 0
M  V30 3616 C 351.361 2.56779 -2.54454 0
M  V30 3617 O 351.082 2.08476 -3.85317 0
M  V30 3618 C 352.583 3.49427 -2.72792 0
M  V30 3619 H 349.803 0.420325 -0.523037 0
M  V30 3620 H 352.347 0.718383 -1.91467 0
M  V30 3621 H 350.502 3.1845 -2.20609 0
M  V30 3622 H 350.916 2.86097 -4.396 0
M  V30 3623 H 352.39 4.29619 -3.466 0
M  V30 3624 H 352.867 4.00876 -1.79429 0
M  V30 3625 H 353.473 2.93598 -3.07702 0
M  V30 3626 N 351.788 1.33704 0.83433 0
M  V30 3627 C 353.034 1.25603 1.59222 0
M  V30 3628 C 353.367 -0.176659 1.93395 0
M  V30 3629 O 352.642 -1.11915 1.59076 0
M  V30 3630 C 352.925 2.13576 2.89926 0
M  V30 3631 C 352.778 3.65326 2.62406 0
M  V30 3632 C 354.097 2.01238 3.91397 0
M  V30 3633 H 351.216 0.457613 0.577719 0
M  V30 3634 H 353.858 1.63848 0.961972 0
M  V30 3635 H 352.008 1.8109 3.43713 0
M  V30 3636 H 353.68 4.08124 2.15017 0
M  V30 3637 H 351.923 3.8698 1.96033 0
M  V30 3638 H 352.594 4.22232 3.55562 0
M  V30 3639 H 355.07 2.29738 3.46929 0
M  V30 3640 H 353.946 2.65036 4.80673 0
M  V30 3641 H 354.207 0.985951 4.30966 0
M  V30 3642 N 353.266 -1.05314 1.17247 0
M  V30 3643 C 354.496 -1.81707 0.983166 0
M  V30 3644 C 354.904 -1.83222 -0.471822 0
M  V30 3645 O 354.247 -1.25721 -1.3394 0
M  V30 3646 C 354.309 -3.29134 1.44606 0
M  V30 3647 C 353.973 -3.51304 2.92292 0
M  V30 3648 C 354.97 -3.4353 3.90235 0
M  V30 3649 C 352.655 -3.78306 3.30439 0
M  V30 3650 C 354.649 -3.62442 5.24323 0
M  V30 3651 C 352.336 -3.96866 4.64694 0
M  V30 3652 C 353.334 -3.88933 5.61445 0
M  V30 3653 O 353.022 -4.06976 6.93272 0
M  V30 3654 H 352.754 -0.579476 0.348114 0
M  V30 3655 H 355.308 -1.33705 1.55924 0
M  V30 3656 H 353.538 -3.78046 0.813537 0
M  V30 3657 H 355.227 -3.87049 1.22262 0
M  V30 3658 H 355.993 -3.22648 3.62109 0
M  V30 3659 H 351.872 -3.83585 2.55702 0
M  V30 3660 H 355.416 -3.56165 5.99827 0
M  V30 3661 H 351.313 -4.1724 4.92525 0
M  V30 3662 H 352.081 -4.24209 6.99992 0
M  V30 3663 N 354.744 -0.972509 -1.24016 0
M  V30 3664 C 355.707 -0.511403 -2.23422 0
M  V30 3665 C 356.707 0.394679 -1.55881 0
M  V30 3666 O 357.897 0.189469 -1.73167 0
M  V30 3667 C 355.029 0.258769 -3.39916 0
M  V30 3668 H 356.222 -1.39024 -2.6573 0
M  V30 3669 H 353.775 -0.757585 -1.36713 0
M  V30 3670 H 354.51 1.1545 -3.03054 0
M  V30 3671 H 354.295 -0.391522 -3.9014 0
M  V30 3672 H 355.785 0.570244 -4.13688 0
M  V30 3673 N 356.222 1.38976 -0.743202 0
M  V30 3674 C 357.469 2.00343 -0.294752 0
M  V30 3675 C 357.797 1.58983 1.12047 0
M  V30 3676 O 357.052 0.813809 1.77977 0
M  V30 3677 C 357.351 3.55647 -0.353517 0
M  V30 3678 C 357.017 4.16685 -1.72292 0
M  V30 3679 C 355.679 4.3307 -2.09771 0
M  V30 3680 C 358.031 4.50464 -2.62168 0
M  V30 3681 C 355.359 4.80526 -3.36618 0
M  V30 3682 C 357.711 4.99332 -3.88395 0
M  V30 3683 C 356.375 5.13924 -4.25956 0
M  V30 3684 H 355.645 0.733108 -0.107857 0
M  V30 3685 H 358.292 1.6618 -0.951651 0
M  V30 3686 H 356.597 3.89884 0.386954 0
M  V30 3687 H 358.294 4.00998 0.0117269 0
M  V30 3688 H 354.884 4.04339 -1.42155 0
M  V30 3689 H 359.068 4.37416 -2.3448 0
M  V30 3690 H 354.324 4.90008 -3.65653 0
M  V30 3691 H 358.498 5.2444 -4.58187 0
M  V30 3692 H 356.125 5.50457 -5.2431 0
M  V30 3693 N 357.7 0.491464 1.49741 0
M  V30 3694 C 358.925 -0.0557177 2.07325 0
M  V30 3695 C 359.35 -1.30925 1.35056 0
M  V30 3696 O 358.708 -1.76733 0.404365 0
M  V30 3697 C 358.756 -0.302074 3.59333 0
M  V30 3698 O 357.86 -1.37868 3.88672 0
M  V30 3699 H 357.201 0.0219956 0.663636 0
M  V30 3700 H 359.731 0.688352 1.92673 0
M  V30 3701 H 359.741 -0.536464 4.04458 0
M  V30 3702 H 358.416 0.61383 4.11345 0
M  V30 3703 H 356.993 -1.12999 3.55367 0
M  V30 3704 N 359.178 -1.55987 0.224894 0
M  V30 3705 C 360.594 -1.59066 -0.130426 0
M  V30 3706 C 360.794 -1.24176 -1.5869 0
M  V30 3707 O 359.85 -0.978592 -2.32766 0
M  V30 3708 C 361.163 -3.00042 0.198883 0
M  V30 3709 C 362.711 -3.1268 0.141391 0
M  V30 3710 C 363.186 -4.55839 0.444422 0
M  V30 3711 N 364.677 -4.6152 0.394115 0
M  V30 3712 C 365.412 -5.70231 0.602038 0
M  V30 3713 N 364.908 -6.87291 0.871914 0
M  V30 3714 N 366.701 -5.59555 0.534245 0
M  V30 3715 H 358.852 -1.76941 1.17497 0
M  V30 3716 H 361.115 -0.822604 0.471197 0
M  V30 3717 H 360.821 -3.30234 1.2099 0
M  V30 3718 H 360.695 -3.74075 -0.484535 0
M  V30 3719 H 363.082 -2.82283 -0.860265 0
M  V30 3720 H 363.163 -2.40969 0.858335 0
M  V30 3721 H 362.807 -4.86954 1.44353 0
M  V30 3722 H 362.737 -5.2578 -0.293752 0
M  V30 3723 H 365.228 -3.77405 0.193356 0
M  V30 3724 H 365.541 -7.66058 1.01858 0
M  V30 3725 H 363.886 -6.89028 0.909145 0
M  V30 3726 H 367.077 -4.6698 0.323612 0
M  V30 3727 H 367.25 -6.44211 0.699693 0
M  V30 3728 N 360.656 0.0484629 -1.57525 0
M  V30 3729 C 361.905 0.742065 -1.87553 0
M  V30 3730 C 362.218 1.77545 -0.820802 0
M  V30 3731 O 363.424 2.52027 -1.00967 0
M  V30 3732 C 361.88 1.37081 -3.32771 0
M  V30 3733 C 361.488 0.374786 -4.4643 0
M  V30 3734 C 363.232 2.04542 -3.71972 0
M  V30 3735 C 361.139 1.01077 -5.82698 0
M  V30 3736 H 360.069 0.280903 -0.699721 0
M  V30 3737 H 362.72 -0.00411877 -1.835 0
M  V30 3738 H 361.102 2.16605 -3.31509 0
M  V30 3739 H 362.276 -0.392331 -4.59127 0
M  V30 3740 H 360.591 -0.196653 -4.15935 0
M  V30 3741 H 363.188 2.52943 -4.71088 0
M  V30 3742 H 363.531 2.85515 -3.02964 0
M  V30 3743 H 364.064 1.31819 -3.75325 0
M  V30 3744 H 360.803 0.240878 -6.55057 0
M  V30 3745 H 360.323 1.74819 -5.73758 0
M  V30 3746 H 362.002 1.52383 -6.28799 0
M  V30 3747 N 362.134 1.5431 0.320358 0
M  V30 3748 C 363.374 1.74395 1.0661 0
M  V30 3749 C 363.738 0.508602 1.85141 0
M  V30 3750 O 364.939 0.586856 2.62316 0
M  V30 3751 C 363.21 2.98619 1.96371 0
M  V30 3752 S 364.769 3.39621 2.77854 0
M  V30 3753 H 361.587 0.613204 0.359863 0
M  V30 3754 H 364.189 1.9249 0.341727 0
M  V30 3755 H 362.893 3.86673 1.3752 0
M  V30 3756 H 362.424 2.83055 2.73209 0
M  V30 3757 H 364.439 2.95172 3.98858 0
M  V30 3758 N 363.613 -0.582584 1.46437 0
M  V30 3759 C 364.563 -1.68654 1.53426 0
M  V30 3760 C 365.547 -1.55971 0.395194 0
M  V30 3761 O 366.739 -1.64884 0.643612 0
M  V30 3762 C 363.868 -3.07439 1.52762 0
M  V30 3763 C 362.954 -3.25418 2.71963 0
M  V30 3764 N 363.345 -3.13556 3.96883 0
M  V30 3765 C 361.643 -3.56357 2.68189 0
M  V30 3766 C 362.344 -3.33543 4.76575 0
M  V30 3767 N 361.32 -3.58704 4.08451 0
M  V30 3768 H 365.122 -1.58014 2.47808 0
M  V30 3769 H 362.636 -0.786617 1.42078 0
M  V30 3770 H 364.633 -3.86671 1.55857 0
M  V30 3771 H 363.293 -3.1921 0.594573 0
M  V30 3772 H 364.304 -2.9142 4.28129 0
M  V30 3773 H 360.981 -3.74812 1.83908 0
M  V30 3774 H 362.371 -3.29555 5.85528 0
M  V30 3775 N 365.091 -1.34144 -0.827227 0
M  V30 3776 C 366.023 -1.21206 -1.9453 0
M  V30 3777 C 367.036 -0.140176 -1.62195 0
M  V30 3778 O 368.225 -0.391647 -1.7415 0
M  V30 3779 C 365.325 -0.839141 -3.28347 0
M  V30 3780 C 364.498 -2.0051 -3.88734 0
M  V30 3781 C 363.557 -1.61128 -5.00923 0
M  V30 3782 O 362.583 -2.32726 -5.19449 0
M  V30 3783 N 363.785 -0.522958 -5.7814 0
M  V30 3784 H 366.55 -2.17525 -2.06162 0
M  V30 3785 H 364.111 -1.27043 -1.00358 0
M  V30 3786 H 366.103 -0.557556 -4.00841 0
M  V30 3787 H 364.673 0.0337293 -3.12582 0
M  V30 3788 H 363.893 -2.45166 -3.08686 0
M  V30 3789 H 365.181 -2.78498 -4.25812 0
M  V30 3790 H 364.579 0.0723518 -5.65654 0
M  V30 3791 H 363.136 -0.301089 -6.51104 0
M  V30 3792 N 366.569 1.04691 -1.17803 0
M  V30 3793 C 367.794 1.81984 -0.994813 0
M  V30 3794 C 368.219 1.82586 0.452112 0
M  V30 3795 O 367.577 1.23854 1.324 0
M  V30 3796 C 367.625 3.2575 -1.54659 0
M  V30 3797 O 366.729 4.05267 -0.763728 0
M  V30 3798 H 366.07 0.562483 -0.352857 0
M  V30 3799 H 368.6 1.3189 -1.56417 0
M  V30 3800 H 368.61 3.76541 -1.57102 0
M  V30 3801 H 367.285 3.24627 -2.59981 0
M  V30 3802 H 365.862 3.63972 -0.811108 0
M  V30 3803 N 368.047 0.979072 1.23499 0
M  V30 3804 C 369.293 0.648178 1.92163 0
M  V30 3805 C 369.626 -0.816049 1.76222 0
M  V30 3806 O 368.901 -1.58849 1.12237 0
M  V30 3807 C 369.184 1.03773 3.44824 0
M  V30 3808 C 369.037 2.55948 3.69879 0
M  V30 3809 C 370.356 0.580653 4.36253 0
M  V30 3810 H 367.475 0.236952 0.69787 0
M  V30 3811 H 370.117 1.22012 1.45647 0
M  V30 3812 H 368.267 0.551058 3.84572 0
M  V30 3813 H 369.939 3.12179 3.3962 0
M  V30 3814 H 368.182 2.98641 3.14636 0
M  V30 3815 H 368.853 2.78255 4.76737 0
M  V30 3816 H 371.329 0.998465 4.03943 0
M  V30 3817 H 370.205 0.881663 5.41773 0
M  V30 3818 H 370.466 -0.519052 4.39042 0
M  V30 3819 N 369.525 -1.3858 0.750561 0
M  V30 3820 C 370.435 -2.34278 0.122825 0
M  V30 3821 C 371.451 -1.59116 -0.704131 0
M  V30 3822 O 372.627 -1.91326 -0.628987 0
M  V30 3823 C 369.692 -3.38221 -0.762086 0
M  V30 3824 C 368.753 -4.29227 0.078896 0
M  V30 3825 C 367.986 -5.28205 -0.763874 0
M  V30 3826 O 368.209 -5.34112 -2.00201 0
M  V30 3827 O 367.143 -6.01618 -0.18428 0
M  V30 3828 H 370.969 -2.89649 0.913088 0
M  V30 3829 H 368.554 -1.40374 0.511417 0
M  V30 3830 H 370.436 -4.01872 -1.26793 0
M  V30 3831 H 369.111 -2.85211 -1.5309 0
M  V30 3832 H 368.018 -3.68747 0.630621 0
M  V30 3833 H 369.351 -4.85484 0.810289 0
M  V30 3834 N 371.003 -0.499398 -1.49478 0
M  V30 3835 C 371.95 0.279881 -2.29097 0
M  V30 3836 C 372.92 0.961805 -1.3542 0
M  V30 3837 O 374.105 0.968777 -1.64376 0
M  V30 3838 C 371.245 1.33932 -3.18051 0
M  V30 3839 C 370.358 0.669333 -4.26783 0
M  V30 3840 C 369.493 1.70907 -5.02955 0
M  V30 3841 C 368.532 1.02087 -6.03527 0
M  V30 3842 N 367.669 2.00474 -6.7287 0
M  V30 3843 H 372.509 -0.405317 -2.95231 0
M  V30 3844 H 370.046 -0.211726 -1.45568 0
M  V30 3845 H 372.004 1.96553 -3.67998 0
M  V30 3846 H 370.634 1.9933 -2.53904 0
M  V30 3847 H 369.686 -0.0701234 -3.80335 0
M  V30 3848 H 370.998 0.127503 -4.98637 0
M  V30 3849 H 370.152 2.41037 -5.56764 0
M  V30 3850 H 368.891 2.28476 -4.30871 0
M  V30 3851 H 367.896 0.305338 -5.48951 0
M  V30 3852 H 369.121 0.451708 -6.77596 0
M  V30 3853 H 367.067 2.57007 -6.03559 0
M  V30 3854 H 366.984 1.51353 -7.40694 0
M  V30 3855 H 368.252 2.69897 -7.31284 0
M  V30 3856 N 372.481 1.55866 -0.233164 0
M  V30 3857 C 373.444 2.1953 0.658715 0
M  V30 3858 C 374.444 1.16053 1.11303 0
M  V30 3859 O 375.634 1.41218 1.01996 0
M  V30 3860 C 372.766 2.82791 1.90373 0
M  V30 3861 H 373.959 2.99721 0.10347 0
M  V30 3862 H 371.512 1.56291 0.0164245 0
M  V30 3863 H 372.247 2.06501 2.50056 0
M  V30 3864 H 372.032 3.58578 1.58632 0
M  V30 3865 H 373.522 3.31556 2.53891 0
M  V30 3866 N 373.959 -0.0401083 1.57549 0
M  V30 3867 C 374.906 -1.04413 2.05831 0
M  V30 3868 C 375.876 -1.36585 0.945184 0
M  V30 3869 O 377.061 -1.47112 1.21502 0
M  V30 3870 C 374.201 -2.34336 2.53339 0
M  V30 3871 C 373.314 -2.08419 3.78398 0
M  V30 3872 C 372.449 -3.32133 4.14561 0
M  V30 3873 C 371.488 -3.01721 5.3257 0
M  V30 3874 N 370.625 -4.17855 5.64218 0
M  V30 3875 H 375.465 -0.625442 2.91363 0
M  V30 3876 H 373.002 -0.297218 1.44066 0
M  V30 3877 H 374.96 -3.10234 2.78946 0
M  V30 3878 H 373.59 -2.73948 1.7074 0
M  V30 3879 H 372.642 -1.23069 3.59942 0
M  V30 3880 H 373.954 -1.81978 4.64419 0
M  V30 3881 H 373.108 -4.16406 4.41238 0
M  V30 3882 H 371.847 -3.61678 3.2717 0
M  V30 3883 H 370.852 -2.15849 5.05657 0
M  V30 3884 H 372.077 -2.73466 6.21605 0
M  V30 3885 H 370.023 -4.47372 4.79786 0
M  V30 3886 H 369.94 -3.94798 6.44725 0
M  V30 3887 H 371.208 -5.03033 5.95465 0
M  V30 3888 N 375.437 -1.54477 -0.31217 0
M  V30 3889 C 376.853 -1.45442 -0.657185 0
M  V30 3890 C 377.053 -0.63653 -1.91182 0
M  V30 3891 O 376.109 -0.139815 -2.52113 0
M  V30 3892 C 377.422 -2.89287 -0.82058 0
M  V30 3893 C 378.97 -2.9926 -0.917188 0
M  V30 3894 C 379.445 -4.44279 -1.11267 0
M  V30 3895 N 380.936 -4.4794 -1.17914 0
M  V30 3896 C 381.671 -5.57318 -1.34848 0
M  V30 3897 N 381.167 -6.76642 -1.48752 0
M  V30 3898 N 382.96 -5.44986 -1.37647 0
M  V30 3899 H 375.111 -2.06129 0.512313 0
M  V30 3900 H 377.374 -0.933088 0.167485 0
M  V30 3901 H 377.08 -3.51687 0.0302604 0
M  V30 3902 H 376.954 -3.36061 -1.71298 0
M  V30 3903 H 379.341 -2.36981 -1.75852 0
M  V30 3904 H 379.422 -2.558 -0.00101257 0
M  V30 3905 H 379.066 -5.07149 -0.27614 0
M  V30 3906 H 378.996 -4.85359 -2.04289 0
M  V30 3907 H 381.487 -3.61969 -1.08567 0
M  V30 3908 H 381.8 -7.55758 -1.61397 0
M  V30 3909 H 380.145 -6.79529 -1.45828 0
M  V30 3910 H 383.336 -4.50715 -1.26388 0
M  V30 3911 H 383.509 -6.3028 -1.50501 0
M  V30 3912 N 376.915 0.57481 -1.46744 0
M  V30 3913 C 377.848 1.69827 -1.52427 0
M  V30 3914 C 378.826 1.58151 -0.377744 0
M  V30 3915 O 380.01 1.79257 -0.58303 0
M  V30 3916 C 377.137 3.07943 -1.41027 0
M  V30 3917 C 376.183 3.38116 -2.59961 0
M  V30 3918 S 377.016 3.29313 -4.22272 0
M  V30 3919 C 378.172 4.69953 -4.13394 0
M  V30 3920 H 378.405 1.64748 -2.47478 0
M  V30 3921 H 375.938 0.754203 -1.34726 0
M  V30 3922 H 377.896 3.87619 -1.35137 0
M  V30 3923 H 376.557 3.10504 -0.473909 0
M  V30 3924 H 375.75 4.38762 -2.47999 0
M  V30 3925 H 375.352 2.66024 -2.62882 0
M  V30 3926 H 377.644 5.60517 -3.80562 0
M  V30 3927 H 378.587 4.86972 -5.14066 0
M  V30 3928 H 378.995 4.47174 -3.44522 0
M  V30 3929 N 378.394 1.34581 0.820102 0
M  V30 3930 C 379.642 1.26845 1.57336 0
M  V30 3931 C 379.963 -0.160667 1.94337 0
M  V30 3932 O 379.233 -1.09396 1.6251 0
M  V30 3933 H 377.813 0.466514 0.583415 0
M  V30 3934 H 380.475 1.68526 0.979027 0
M  V30 3935 H 379.571 1.87513 2.4949 0
M  V30 3936 N 379.872 -1.04064 1.18357 0
M  V30 3937 C 381.149 -1.74252 0.888581 0
M  V30 3938 C 381.529 -2.02138 -0.60856 0
M  V30 3939 O 380.877 -1.66656 -1.56327 0
M  V30 3940 C 381.087 -3.0277 1.73584 0
M  V30 3941 C 382.435 -3.76506 1.96286 0
M  V30 3942 O 383.459 -3.12668 1.70637 0
M  V30 3943 O 382.318 -4.91243 2.39464 0
M  V30 3944 H 379.412 -0.758271 0.330082 0
M  V30 3945 H 381.958 -1.1013 1.2911 0
M  V30 3946 H 380.73 -2.78299 2.75073 0
M  V30 3947 H 380.353 -3.74631 1.33183 0
M  V30 3948 N 381.35 -0.985608 -1.22978 0
M  V30 3949 C 382.761 -0.693593 -1.73338 0
M  V30 3950 C 383.112 0.789935 -1.79595 0
M  V30 3951 O 382.237 1.61771 -1.43733 0
M  V30 3952 C 382.832 -1.25235 -3.14804 0
M  V30 3953 C 381.391 -1.00987 -3.626 0
M  V30 3954 C 380.538 -1.37695 -2.40698 0
M  V30 3955 H 383.489 -1.15884 -1.08428 0
M  V30 3956 H 383.51 -0.627329 -3.75293 0
M  V30 3957 H 383.022 -2.33209 -3.10218 0
M  V30 3958 H 381.123 0.0535565 -3.72562 0
M  V30 3959 H 381.236 -1.66812 -4.49122 0
M  V30 3960 H 379.6 -0.795459 -2.4196 0
M  V30 3961 H 380.383 -2.46657 -2.38779 0
M  V30 3962 N 382.828 1.3818 -0.7579 0
M  V30 3963 C 383.758 2.33027 -0.148597 0
M  V30 3964 C 384.739 1.55085 0.69875 0
M  V30 3965 O 385.924 1.83384 0.639053 0
M  V30 3966 C 383.054 3.3928 0.742034 0
M  V30 3967 C 382.008 4.28 -0.00291946 0
M  V30 3968 C 381.334 5.25146 1.00625 0
M  V30 3969 C 382.634 5.08938 -1.17385 0
M  V30 3970 H 384.328 2.84231 -0.940909 0
M  V30 3971 H 381.874 1.36659 -0.453908 0
M  V30 3972 H 383.827 4.046 1.17799 0
M  V30 3973 H 382.551 2.86569 1.56671 0
M  V30 3974 H 381.21 3.64192 -0.419504 0
M  V30 3975 H 380.858 4.68721 1.8251 0
M  V30 3976 H 380.558 5.85361 0.512428 0
M  V30 3977 H 382.082 5.93342 1.44143 0
M  V30 3978 H 383.496 5.67474 -0.815224 0
M  V30 3979 H 381.893 5.7841 -1.59882 0
M  V30 3980 H 382.963 4.42424 -1.98468 0
M  V30 3981 N 384.306 0.507319 1.49211 0
M  V30 3982 C 385.552 -0.0350047 2.0277 0
M  V30 3983 C 385.885 -1.3606 1.38569 0
M  V30 3984 O 385.16 -1.87321 0.523542 0
M  V30 3985 C 385.443 -0.180916 3.59645 0
M  V30 3986 C 385.296 1.16825 4.34364 0
M  V30 3987 C 386.615 -0.918558 4.30407 0
M  V30 3988 H 383.734 -0.0112473 0.736914 0
M  V30 3989 H 386.376 0.659956 1.7817 0
M  V30 3990 H 384.526 -0.772826 3.80736 0
M  V30 3991 H 386.198 1.79952 4.24753 0
M  V30 3992 H 384.441 1.75594 3.96673 0
M  V30 3993 H 385.112 1.01939 5.42506 0
M  V30 3994 H 387.588 -0.41649 4.1401 0
M  V30 3995 H 386.464 -0.989505 5.39907 0
M  V30 3996 H 386.725 -1.96373 3.96093 0
M  V30 3997 N 385.784 -1.5574 0.241426 0
M  V30 3998 C 386.714 -2.24133 -0.654722 0
M  V30 3999 C 387.695 -1.21974 -1.1856 0
M  V30 4000 O 388.88 -1.50612 -1.22595 0
M  V30 4001 C 386.01 -2.93659 -1.85423 0
M  V30 4002 C 384.964 -4.0246 -1.45636 0
M  V30 4003 C 384.29 -4.59383 -2.73626 0
M  V30 4004 C 385.59 -5.18468 -0.631506 0
M  V30 4005 H 387.284 -2.99281 -0.0844353 0
M  V30 4006 H 384.83 -1.43947 -0.0391707 0
M  V30 4007 H 386.783 -3.40203 -2.48676 0
M  V30 4008 H 385.507 -2.15991 -2.44981 0
M  V30 4009 H 384.166 -3.56676 -0.847202 0
M  V30 4010 H 383.814 -3.78422 -3.3137 0
M  V30 4011 H 383.514 -5.32826 -2.4773 0
M  V30 4012 H 385.038 -5.08658 -3.37786 0
M  V30 4013 H 386.452 -5.61272 -1.1682 0
M  V30 4014 H 384.849 -5.98266 -0.468831 0
M  V30 4015 H 385.919 -4.8358 0.357506 0
M  V30 4016 N 387.262 0.0317525 -1.57568 0
M  V30 4017 C 388.49 0.734949 -1.93407 0
M  V30 4018 C 388.905 1.69036 -0.84096 0
M  V30 4019 O 388.262 1.81582 0.182836 0
M  V30 4020 C 388.313 1.49432 -3.29169 0
M  V30 4021 O 388.034 0.577261 -4.3428 0
M  V30 4022 C 389.535 2.29492 -3.79273 0
M  V30 4023 H 386.755 0.206706 -0.638368 0
M  V30 4024 H 389.299 -0.00992046 -2.04498 0
M  V30 4025 H 387.454 2.1911 -3.19483 0
M  V30 4026 H 387.868 1.10952 -5.1263 0
M  V30 4027 H 389.342 2.78172 -4.76785 0
M  V30 4028 H 389.819 3.10794 -3.10328 0
M  V30 4029 H 390.425 1.64894 -3.92033 0
M  V30 4030 N 388.74 1.54641 0.303973 0
M  V30 4031 C 389.987 1.7378 1.03955 0
M  V30 4032 C 390.315 0.521986 1.87365 0
M  V30 4033 O 389.57 -0.496099 1.89308 0
M  V30 4034 C 389.869 2.97753 1.97681 0
M  V30 4035 C 389.535 4.31671 1.30271 0
M  V30 4036 C 388.197 4.68075 1.11619 0
M  V30 4037 C 390.549 5.147 0.82055 0
M  V30 4038 C 387.877 5.8509 0.434304 0
M  V30 4039 C 390.229 6.32416 0.152395 0
M  V30 4040 C 388.893 6.67484 -0.0461067 0
M  V30 4041 H 388.163 0.635908 0.380398 0
M  V30 4042 H 390.81 1.88896 0.314718 0
M  V30 4043 H 389.115 2.77406 2.76682 0
M  V30 4044 H 390.812 3.09756 2.54661 0
M  V30 4045 H 387.402 4.03041 1.45795 0
M  V30 4046 H 391.586 4.87077 0.952374 0
M  V30 4047 H 386.842 6.10806 0.269495 0
M  V30 4048 H 391.016 6.96023 -0.229126 0
M  V30 4049 H 388.643 7.58011 -0.576494 0
M  V30 4050 N 390.218 -0.567019 1.47046 0
M  V30 4051 C 391.466 -1.322 1.52864 0
M  V30 4052 C 391.787 -1.94088 0.188388 0
M  V30 4053 O 391.057 -1.7941 -0.786693 0
M  V30 4054 H 389.637 -0.490894 0.563056 0
M  V30 4055 H 392.299 -0.662879 1.83281 0
M  V30 4056 H 391.395 -2.12062 2.2899 0
M  V30 4057 N 391.696 -1.35014 -0.812953 0
M  V30 4058 C 392.643 -1.27412 -1.92444 0
M  V30 4059 C 393.613 -0.14733 -1.65445 0
M  V30 4060 O 394.798 -0.329974 -1.87925 0
M  V30 4061 C 391.938 -1.04558 -3.28879 0
M  V30 4062 C 391.051 -2.26101 -3.68106 0
M  V30 4063 C 390.186 -1.96449 -4.9354 0
M  V30 4064 C 389.225 -3.14081 -5.25376 0
M  V30 4065 N 388.362 -2.84246 -6.41988 0
M  V30 4066 H 393.202 -2.22463 -1.98278 0
M  V30 4067 H 390.739 -1.10593 -0.969933 0
M  V30 4068 H 392.697 -0.893413 -4.07522 0
M  V30 4069 H 391.327 -0.131719 -3.22531 0
M  V30 4070 H 390.379 -2.52204 -2.84775 0
M  V30 4071 H 391.691 -3.13959 -3.87597 0
M  V30 4072 H 390.845 -1.78026 -5.79993 0
M  V30 4073 H 389.584 -1.05867 -4.76071 0
M  V30 4074 H 388.589 -3.33089 -4.37415 0
M  V30 4075 H 389.814 -4.05455 -5.44778 0
M  V30 4076 H 387.76 -1.96252 -6.25956 0
M  V30 4077 H 387.677 -3.65637 -6.61699 0
M  V30 4078 H 388.945 -2.6935 -7.31485 0
M  V30 4079 N 393.175 1.03435 -1.18907 0
M  V30 4080 C 394.421 1.77005 -0.989798 0
M  V30 4081 C 394.754 1.88205 0.478816 0
M  V30 4082 O 394.029 1.39481 1.35556 0
M  V30 4083 C 394.312 3.19925 -1.65287 0
M  V30 4084 C 394.165 3.1663 -3.19477 0
M  V30 4085 C 395.484 4.18189 -1.37134 0
M  V30 4086 H 392.603 0.642538 -0.360991 0
M  V30 4087 H 395.245 1.20784 -1.46667 0
M  V30 4088 H 393.395 3.67929 -1.24741 0
M  V30 4089 H 395.067 2.76567 -3.692 0
M  V30 4090 H 393.31 2.54491 -3.51307 0
M  V30 4091 H 393.981 4.1758 -3.61013 0
M  V30 4092 H 396.457 3.78761 -1.72276 0
M  V30 4093 H 395.333 5.16394 -1.86087 0
M  V30 4094 H 395.594 4.41112 -0.295424 0
M  V30 4095 N 394.653 0.992116 1.22453 0
M  V30 4096 C 395.563 0.55065 2.28046 0
M  V30 4097 C 396.579 -0.400189 1.69335 0
M  V30 4098 O 397.755 -0.267215 1.99619 0
M  V30 4099 C 394.82 -0.128496 3.46462 0
M  V30 4100 C 393.881 0.865208 4.20491 0
M  V30 4101 C 393.114 0.218377 5.33253 0
M  V30 4102 O 393.337 -0.987894 5.6178 0
M  V30 4103 O 392.271 0.922845 5.94783 0
M  V30 4104 H 396.097 1.4291 2.67975 0
M  V30 4105 H 393.682 0.760326 1.28606 0
M  V30 4106 H 395.564 -0.508947 4.18315 0
M  V30 4107 H 394.239 -0.981526 3.0846 0
M  V30 4108 H 393.146 1.29658 3.50913 0
M  V30 4109 H 394.479 1.68741 4.62371 0
M  V30 4110 N 396.131 -1.37776 0.765217 0
M  V30 4111 C 397.542 -1.82521 0.392819 0
M  V30 4112 C 397.893 -1.63789 -1.08017 0
M  V30 4113 O 397.018 -1.14542 -1.83601 0
M  V30 4114 C 397.613 -3.31358 0.706214 0
M  V30 4115 C 396.172 -3.74406 0.386952 0
M  V30 4116 C 395.319 -2.60394 0.953422 0
M  V30 4117 H 398.27 -1.2634 0.960412 0
M  V30 4118 H 398.291 -3.80498 -0.0114706 0
M  V30 4119 H 397.803 -3.44959 1.77833 0
M  V30 4120 H 395.904 -3.66377 -0.678112 0
M  V30 4121 H 396.017 -4.70749 0.890636 0
M  V30 4122 H 394.381 -2.51878 0.378064 0
M  V30 4123 H 395.164 -2.76791 2.03081 0
M  V30 4124 N 397.609 -0.515225 -1.4894 0
M  V30 4125 C 399.025 -0.172099 -1.58669 0
M  V30 4126 C 399.225 1.32405 -1.51892 0
M  V30 4127 O 398.281 2.10116 -1.40027 0
M  V30 4128 C 399.594 -0.761533 -2.90897 0
M  V30 4129 C 401.142 -0.728926 -3.04394 0
M  V30 4130 C 401.617 -1.29667 -4.39261 0
M  V30 4131 N 403.108 -1.25799 -4.4579 0
M  V30 4132 C 403.843 -1.66733 -5.48623 0
M  V30 4133 N 403.339 -2.15327 -6.58488 0
M  V30 4134 N 405.132 -1.58061 -5.39419 0
M  V30 4135 H 397.283 -1.48778 -1.51588 0
M  V30 4136 H 399.546 -0.617968 -0.718901 0
M  V30 4137 H 399.252 -1.81136 -3.01468 0
M  V30 4138 H 399.126 -0.230106 -3.76497 0
M  V30 4139 H 401.513 0.312098 -2.93445 0
M  V30 4140 H 401.594 -1.29766 -2.20442 0
M  V30 4141 H 401.238 -2.33655 -4.50963 0
M  V30 4142 H 401.168 -0.703752 -5.21876 0
M  V30 4143 H 403.659 -0.902102 -3.66975 0
M  V30 4144 H 403.972 -2.44594 -7.33071 0
M  V30 4145 H 402.317 -2.19311 -6.59491 0
M  V30 4146 H 405.508 -1.19906 -4.52482 0
M  V30 4147 H 405.681 -1.90284 -6.19432 0
M  V30 4148 N 399.087 1.5561 -0.249682 0
M  V30 4149 C 400.498 1.84979 0.252949 0
M  V30 4150 C 400.849 1.17153 1.57384 0
M  V30 4151 O 399.974 0.450884 2.11651 0
M  V30 4152 C 400.569 3.35584 0.465732 0
M  V30 4153 C 399.128 3.65169 0.912624 0
M  V30 4154 C 398.275 2.77299 -0.00859085 0
M  V30 4155 H 401.226 1.51513 -0.47217 0
M  V30 4156 H 401.247 3.57313 1.30795 0
M  V30 4157 H 400.759 3.8492 -0.49579 0
M  V30 4158 H 398.86 3.21312 1.88652 0
M  V30 4159 H 398.973 4.72912 0.767559 0
M  V30 4160 H 397.337 2.49678 0.50327 0
M  V30 4161 H 398.12 3.29442 -0.965537 0
M  V30 4162 N 400.565 -0.0233959 1.57583 0
M  V30 4163 C 401.513 -1.04063 2.08023 0
M  V30 4164 C 402.507 -1.37084 0.995204 0
M  V30 4165 O 403.713 -1.35923 1.18004 0
M  V30 4166 H 400.088 -0.353144 0.663922 0
M  V30 4167 H 402.059 -0.589453 2.9252 0
M  V30 4168 C 400.808 -2.33123 2.57971 0
M  V30 4169 H 400.131 -2.08577 3.4108 0
M  V30 4170 H 401.571 -3.02632 2.96967 0
M  V30 4171 C 400.03 -3.02483 1.48342 0
M  V30 4172 O 400.56 -3.92541 0.852898 0
M  V30 4173 N 398.766 -2.63909 1.21658 0
M  V30 4174 H 398.313 -1.90758 1.73116 0
M  V30 4175 H 398.271 -3.10633 0.485218 0
M  V30 4176 N 402.043 -1.548 -0.295768 0
M  V30 4177 C 403.271 -1.78327 -1.04914 0
M  V30 4178 C 403.686 -0.545316 -1.80753 0
M  V30 4179 O 403.043 0.485013 -1.75937 0
M  V30 4180 C 403.094 -2.99418 -2.02561 0
M  V30 4181 O 402.815 -4.18431 -1.29798 0
M  V30 4182 C 404.316 -3.35375 -2.89895 0
M  V30 4183 H 401.536 -0.594618 -0.310918 0
M  V30 4184 H 404.08 -2.01763 -0.333454 0
M  V30 4185 H 402.235 -2.78175 -2.69624 0
M  V30 4186 H 402.649 -4.86736 -1.95419 0
M  V30 4187 H 404.123 -4.23332 -3.54251 0
M  V30 4188 H 404.6 -2.53761 -3.58472 0
M  V30 4189 H 405.206 -3.58796 -2.28355 0
M  V30 4190 N 403.521 0.559213 -1.47345 0
M  V30 4191 C 404.767 1.31843 -1.54095 0
M  V30 4192 C 405.1 1.93149 -0.201726 0
M  V30 4193 O 404.375 1.77759 0.789428 0
M  V30 4194 C 404.658 2.43006 -2.65744 0
M  V30 4195 C 404.511 1.86581 -4.09277 0
M  V30 4196 C 405.83 3.44943 -2.73318 0
M  V30 4197 H 402.949 0.478012 -0.560957 0
M  V30 4198 H 405.591 0.625977 -1.79392 0
M  V30 4199 H 403.741 3.02072 -2.44305 0
M  V30 4200 H 405.413 1.31792 -4.42073 0
M  V30 4201 H 403.656 1.17268 -4.17649 0
M  V30 4202 H 404.327 2.66933 -4.83168 0
M  V30 4203 H 406.803 2.95793 -2.92653 0
M  V30 4204 H 405.679 4.20153 -3.53218 0
M  V30 4205 H 405.94 4.03665 -1.80296 0
M  V30 4206 N 404.999 1.35443 0.805782 0
M  V30 4207 C 405.947 1.28465 1.93906 0
M  V30 4208 C 406.941 0.17943 1.68447 0
M  V30 4209 O 408.147 0.345459 1.76654 0
M  V30 4210 H 404.522 0.399528 0.637088 0
M  V30 4211 H 406.493 2.24206 1.96912 0
M  V30 4212 C 405.242 1.07432 3.30687 0
M  V30 4213 H 404.565 1.91716 3.50835 0
M  V30 4214 H 406.005 1.06591 4.10383 0
M  V30 4215 C 404.464 -0.22179 3.36169 0
M  V30 4216 O 404.994 -1.21731 3.82811 0
M  V30 4217 N 403.2 -0.260841 2.89427 0
M  V30 4218 H 402.747 0.549884 2.51663 0
M  V30 4219 H 402.705 -1.12777 2.93477 0
M  V30 4220 N 406.477 -1.02803 1.19454 0
M  V30 4221 C 407.723 -1.76478 0.999171 0
M  V30 4222 C 408.056 -1.88456 -0.468828 0
M  V30 4223 O 407.331 -1.40198 -1.34814 0
M  V30 4224 C 407.614 -3.19044 1.66981 0
M  V30 4225 C 407.467 -3.14932 3.21151 0
M  V30 4226 C 408.786 -4.17456 1.39349 0
M  V30 4227 H 405.905 -0.640614 0.364393 0
M  V30 4228 H 408.547 -1.20005 1.47305 0
M  V30 4229 H 406.697 -3.67263 1.2669 0
M  V30 4230 H 408.369 -2.74605 3.70661 0
M  V30 4231 H 406.612 -2.52625 3.52652 0
M  V30 4232 H 407.283 -4.1566 3.63223 0
M  V30 4233 H 409.759 -3.77842 1.74283 0
M  V30 4234 H 408.635 -5.154 1.88823 0
M  V30 4235 H 408.896 -4.40949 0.318813 0
M  V30 4236 N 407.956 -0.998596 -1.21925 0
M  V30 4237 C 409.202 -0.678667 -1.91107 0
M  V30 4238 C 409.535 0.78791 -1.77498 0
M  V30 4239 O 408.81 1.57043 -1.1475 0
M  V30 4240 C 409.093 -1.09245 -3.43129 0
M  V30 4241 C 408.946 -2.61801 -3.6576 0
M  V30 4242 C 410.265 -0.649984 -4.35274 0
M  V30 4243 H 407.384 -0.248025 -0.694012 0
M  V30 4244 H 410.026 -1.24314 -1.43688 0
M  V30 4245 H 408.176 -0.612171 -3.83647 0
M  V30 4246 H 409.848 -3.17543 -3.34611 0
M  V30 4247 H 408.091 -3.03609 -3.09845 0
M  V30 4248 H 408.762 -2.85804 -4.7225 0
M  V30 4249 H 411.238 -1.0626 -4.02303 0
M  V30 4250 H 410.114 -0.967743 -5.40302 0
M  V30 4251 H 410.375 0.449139 -4.39813 0
M  V30 4252 N 409.434 1.37368 -0.772513 0
M  V30 4253 C 410.845 1.8231 -0.402493 0
M  V30 4254 C 411.196 1.6436 1.07146 0
M  V30 4255 O 410.321 1.15514 1.82991 0
M  V30 4256 C 410.916 3.30979 -0.723776 0
M  V30 4257 C 409.475 3.74195 -0.406802 0
M  V30 4258 C 408.622 2.59885 -0.967218 0
M  V30 4259 H 411.573 1.25829 -0.967099 0
M  V30 4260 H 411.594 3.80499 -0.00870832 0
M  V30 4261 H 411.106 3.44011 -1.7966 0
M  V30 4262 H 409.207 3.66732 0.658673 0
M  V30 4263 H 409.32 4.7027 -0.915588 0
M  V30 4264 H 407.684 2.51674 -0.391416 0
M  V30 4265 H 408.467 2.7571 -2.04546 0
M  V30 4266 N 410.912 0.523116 1.48665 0
M  V30 4267 C 412.16 -0.0134497 2.02096 0
M  V30 4268 C 412.481 -1.35418 1.40311 0
M  V30 4269 O 411.751 -1.87543 0.566074 0
M  V30 4270 H 410.331 -0.00795915 0.746958 0
M  V30 4271 H 412.993 0.685388 1.82451 0
M  V30 4272 H 412.089 -0.126849 3.11842 0
M  V30 4273 N 412.39 -1.55475 0.257931 0
M  V30 4274 C 413.337 -2.21837 -0.636939 0
M  V30 4275 C 414.307 -1.18596 -1.16294 0
M  V30 4276 O 415.492 -1.47081 -1.21539 0
M  V30 4277 C 412.632 -2.9301 -1.82317 0
M  V30 4278 C 411.745 -4.10931 -1.33265 0
M  V30 4279 C 410.88 -4.69791 -2.47931 0
M  V30 4280 C 409.919 -5.7994 -1.95796 0
M  V30 4281 N 409.056 -6.32935 -3.0387 0
M  V30 4282 H 413.896 -2.9793 -0.0643591 0
M  V30 4283 H 411.433 -1.47086 -0.0200031 0
M  V30 4284 H 413.391 -3.3248 -2.52018 0
M  V30 4285 H 412.021 -2.1937 -2.36805 0
M  V30 4286 H 411.073 -3.76699 -0.52931 0
M  V30 4287 H 412.385 -4.90417 -0.910654 0
M  V30 4288 H 411.539 -5.11892 -3.25656 0
M  V30 4289 H 410.278 -3.89545 -2.93438 0
M  V30 4290 H 409.283 -5.37305 -1.16546 0
M  V30 4291 H 410.508 -6.62043 -1.51246 0
M  V30 4292 H 408.454 -5.55591 -3.48791 0
M  V30 4293 H 408.371 -7.07645 -2.66035 0
M  V30 4294 H 409.639 -6.79695 -3.81621 0
M  V30 4295 N 413.868 0.0150385 -1.57593 0
M  V30 4296 C 415.096 0.714395 -1.94175 0
M  V30 4297 C 415.511 1.68135 -0.858841 0
M  V30 4298 O 414.868 1.81766 0.163567 0
M  V30 4299 C 414.919 1.45933 -3.30735 0
M  V30 4300 O 414.64 0.531167 -4.34868 0
M  V30 4301 C 416.141 2.25456 -3.81686 0
M  V30 4302 H 413.361 0.199923 -0.640525 0
M  V30 4303 H 415.905 -0.0316096 -2.04476 0
M  V30 4304 H 414.06 2.15709 -3.21789 0
M  V30 4305 H 414.474 1.05509 -5.13778 0
M  V30 4306 H 415.948 2.731 -4.79709 0
M  V30 4307 H 416.425 3.07485 -3.13607 0
M  V30 4308 H 417.031 1.60727 -3.9376 0
M  V30 4309 N 415.346 1.54954 0.287554 0
M  V30 4310 C 416.574 1.78881 1.03967 0
M  V30 4311 C 416.989 0.554894 1.80462 0
M  V30 4312 O 416.346 -0.475676 1.76192 0
M  V30 4313 C 416.397 3.00488 2.0097 0
M  V30 4314 O 416.118 4.19113 1.27577 0
M  V30 4315 C 417.619 3.36907 2.88112 0
M  V30 4316 H 414.839 0.596259 0.307761 0
M  V30 4317 H 417.383 2.01937 0.322749 0
M  V30 4318 H 415.538 2.79601 2.68145 0
M  V30 4319 H 415.952 4.87765 1.92835 0
M  V30 4320 H 417.426 4.25205 3.52001 0
M  V30 4321 H 417.903 2.55659 3.57121 0
M  V30 4322 H 418.509 3.60001 2.26449 0
M  V30 4323 N 416.824 -0.551391 1.4764 0
M  V30 4324 C 418.071 -1.3083 1.54563 0
M  V30 4325 C 418.399 -1.93359 0.210361 0
M  V30 4326 O 417.654 -1.78721 -0.797332 0
M  V30 4327 C 417.953 -2.43469 2.61644 0
M  V30 4328 C 417.619 -1.98732 4.04742 0
M  V30 4329 C 416.281 -1.86248 4.43695 0
M  V30 4330 C 418.633 -1.64659 4.94507 0
M  V30 4331 C 415.961 -1.37995 5.70241 0
M  V30 4332 C 418.313 -1.17875 6.21521 0
M  V30 4333 C 416.977 -1.03992 6.5935 0
M  V30 4334 H 416.247 -0.478741 0.565587 0
M  V30 4335 H 418.894 -0.617697 1.81264 0
M  V30 4336 H 417.199 -3.18109 2.28722 0
M  V30 4337 H 418.896 -3.01642 2.64222 0
M  V30 4338 H 415.486 -2.09393 3.73968 0
M  V30 4339 H 419.67 -1.73174 4.65107 0
M  V30 4340 H 414.926 -1.25915 5.98294 0
M  V30 4341 H 419.1 -0.905739 6.90485 0
M  V30 4342 H 416.727 -0.663794 7.57296 0
M  V30 4343 N 418.302 -1.35869 -0.798587 0
M  V30 4344 C 419.53 -1.32722 -1.58722 0
M  V30 4345 C 419.945 0.0935631 -1.88568 0
M  V30 4346 O 419.302 1.04784 -1.49421 0
M  V30 4347 C 419.353 -2.13974 -2.91371 0
M  V30 4348 O 419.074 -3.50514 -2.62815 0
M  V30 4349 C 420.575 -2.18504 -3.85708 0
M  V30 4350 H 417.795 -0.45562 -0.492596 0
M  V30 4351 H 420.339 -1.78837 -0.991843 0
M  V30 4352 H 418.494 -1.71438 -3.47402 0
M  V30 4353 H 418.908 -3.92806 -3.47568 0
M  V30 4354 H 420.382 -2.79732 -4.75872 0
M  V30 4355 H 420.859 -1.18597 -4.22885 0
M  V30 4356 H 421.465 -2.61236 -3.35612 0
M  V30 4357 N 419.78 1.02168 -1.19998 0
M  V30 4358 C 421.029 1.75091 -1.0013 0
M  V30 4359 C 421.342 1.89923 0.467835 0
M  V30 4360 O 422.548 2.59888 0.785515 0
M  V30 4361 C 421.004 3.14892 -1.74273 0
M  V30 4362 C 420.612 3.0809 -3.25245 0
M  V30 4363 C 422.356 3.9206 -1.62755 0
M  V30 4364 C 420.263 4.42867 -3.91948 0
M  V30 4365 H 419.193 0.656394 -0.37103 0
M  V30 4366 H 421.844 1.14284 -1.43567 0
M  V30 4367 H 420.226 3.7621 -1.2362 0
M  V30 4368 H 421.4 2.5611 -3.83072 0
M  V30 4369 H 419.715 2.44416 -3.3712 0
M  V30 4370 H 422.312 4.91764 -2.09934 0
M  V30 4371 H 422.655 4.12199 -0.582894 0
M  V30 4372 H 423.188 3.37359 -2.10793 0
M  V30 4373 H 419.927 4.27931 -4.96543 0
M  V30 4374 H 419.447 4.94874 -3.3891 0
M  V30 4375 H 421.126 5.11728 -3.95909 0
M  V30 4376 N 421.258 1.00505 1.21394 0
M  V30 4377 C 422.535 0.603277 1.86064 0
M  V30 4378 C 422.915 -0.919095 1.90042 0
M  V30 4379 O 422.263 -1.80607 1.39977 0
M  V30 4380 C 422.473 1.23772 3.26315 0
M  V30 4381 C 423.821 1.34586 4.02705 0
M  V30 4382 O 424.845 1.19304 3.35626 0
M  V30 4383 O 423.704 1.59169 5.22807 0
M  V30 4384 H 420.798 0.206634 0.800769 0
M  V30 4385 H 423.344 1.1017 1.29076 0
M  V30 4386 H 422.116 2.27848 3.18121 0
M  V30 4387 H 421.739 0.725648 3.90922 0
M  V30 4388 N 422.737 -1.36956 0.779787 0
M  V30 4389 C 423.977 -2.01328 0.353043 0
M  V30 4390 C 424.341 -1.60558 -1.05286 0
M  V30 4391 O 425.542 -2.1745 -1.58016 0
M  V30 4392 C 423.813 -3.53874 0.500822 0
M  V30 4393 S 425.372 -4.38506 0.16053 0
M  V30 4394 H 422.19 -0.69799 0.13539 0
M  V30 4395 H 424.792 -1.67016 1.01617 0
M  V30 4396 H 423.496 -3.81034 1.52451 0
M  V30 4397 H 423.027 -3.92994 -0.178574 0
M  V30 4398 H 425.042 -4.85153 -1.04121 0
M  V30 4399 N 424.215 -0.530993 -1.48385 0
M  V30 4400 C 425.631 -0.188919 -1.58478 0
M  V30 4401 C 425.831 1.30786 -1.53288 0
M  V30 4402 O 424.887 2.08619 -1.42248 0
M  V30 4403 C 426.2 -0.792343 -2.90073 0
M  V30 4404 C 427.748 -0.76117 -3.03604 0
M  V30 4405 C 428.223 -1.34319 -4.37861 0
M  V30 4406 N 429.714 -1.3052 -4.44431 0
M  V30 4407 C 430.449 -1.72543 -5.46824 0
M  V30 4408 N 429.945 -2.22299 -6.56167 0
M  V30 4409 N 431.738 -1.63773 -5.37712 0
M  V30 4410 H 423.889 -1.50377 -1.50002 0
M  V30 4411 H 426.152 -0.625559 -0.712306 0
M  V30 4412 H 425.858 -1.84323 -2.99529 0
M  V30 4413 H 425.732 -0.270026 -3.76232 0
M  V30 4414 H 428.119 0.280957 -2.93759 0
M  V30 4415 H 428.2 -1.32097 -2.19053 0
M  V30 4416 H 427.844 -2.38425 -4.4846 0
M  V30 4417 H 427.774 -0.759064 -5.21101 0
M  V30 4418 H 430.265 -0.940973 -3.65997 0
M  V30 4419 H 430.578 -2.52356 -7.30436 0
M  V30 4420 H 428.923 -2.26293 -6.57127 0
M  V30 4421 H 432.114 -1.24698 -4.51185 0
M  V30 4422 H 432.287 -1.96844 -6.17379 0
M  V30 4423 N 425.693 1.55336 -0.266172 0
M  V30 4424 C 426.643 2.18848 0.639497 0
M  V30 4425 C 427.627 1.1503 1.12503 0
M  V30 4426 O 428.819 1.40875 1.0716 0
M  V30 4427 C 425.948 2.90626 1.82733 0
M  V30 4428 C 425.034 4.01723 1.35939 0
M  V30 4429 N 425.425 5.02145 0.606988 0
M  V30 4430 C 423.723 4.1463 1.6431 0
M  V30 4431 C 424.424 5.80572 0.362138 0
M  V30 4432 N 423.4 5.35551 0.931971 0
M  V30 4433 H 427.202 2.93845 0.0567057 0
M  V30 4434 H 424.716 1.62252 -0.0693312 0
M  V30 4435 H 426.713 3.34569 2.48735 0
M  V30 4436 H 425.373 2.17137 2.41416 0
M  V30 4437 H 426.384 5.17271 0.255198 0
M  V30 4438 H 423.061 3.52326 2.23993 0
M  V30 4439 H 424.451 6.71472 -0.239848 0
M  V30 4440 N 427.171 -0.0066808 1.57599 0
M  V30 4441 C 428.399 -0.704087 1.94551 0
M  V30 4442 C 428.814 -1.67677 0.867746 0
M  V30 4443 O 428.171 -1.8185 -0.153925 0
M  V30 4444 C 428.222 -1.44177 3.31505 0
M  V30 4445 O 427.943 -0.508097 4.35144 0
M  V30 4446 C 429.444 -2.23429 3.82876 0
M  V30 4447 H 426.664 -0.196523 0.641576 0
M  V30 4448 H 429.208 0.042453 2.04456 0
M  V30 4449 H 427.363 -2.13999 3.22929 0
M  V30 4450 H 427.777 -1.02782 5.14331 0
M  V30 4451 H 429.251 -2.70552 4.8115 0
M  V30 4452 H 429.728 -3.05818 3.15233 0
M  V30 4453 H 430.334 -1.58636 3.94607 0
M  V30 4454 N 428.649 -1.55105 -0.279332 0
M  V30 4455 C 429.926 -1.66119 -1.03267 0
M  V30 4456 C 430.306 -0.523525 -2.04505 0
M  V30 4457 O 429.654 0.477194 -2.23462 0
M  V30 4458 C 429.864 -3.05067 -1.69515 0
M  V30 4459 C 431.212 -3.62606 -2.20912 0
M  V30 4460 O 432.236 -3.07659 -1.79512 0
M  V30 4461 O 431.095 -4.58861 -2.96831 0
M  V30 4462 H 428.189 -0.674429 -0.478618 0
M  V30 4463 H 430.735 -1.67446 -0.275694 0
M  V30 4464 H 429.507 -3.79311 -0.9612 0
M  V30 4465 H 429.13 -3.07611 -2.51915 0
M  V30 4466 N 430.127 0.543554 -1.4793 0
M  V30 4467 C 431.09 1.63156 -1.60975 0
M  V30 4468 C 432.09 1.53346 -0.483899 0
M  V30 4469 O 433.28 1.5726 -0.749339 0
M  V30 4470 C 430.412 3.02743 -1.56716 0
M  V30 4471 H 431.605 1.52934 -2.57975 0
M  V30 4472 H 429.158 0.764557 -1.36324 0
M  V30 4473 H 429.893 3.18484 -0.611418 0
M  V30 4474 H 429.678 3.11272 -2.38438 0
M  V30 4475 H 431.168 3.81871 -1.6901 0
M  V30 4476 N 431.605 1.3629 0.791371 0
M  V30 4477 C 432.568 1.30309 1.88553 0
M  V30 4478 C 433.568 0.211204 1.59407 0
M  V30 4479 O 434.758 0.465865 1.67855 0
M  V30 4480 C 431.89 1.01956 3.25297 0
M  V30 4481 H 433.083 2.27614 1.95273 0
M  V30 4482 H 430.636 1.21035 0.988953 0
M  V30 4483 H 431.371 0.050998 3.2426 0
M  V30 4484 H 431.156 1.80968 3.4784 0
M  V30 4485 H 432.646 1.0037 4.05359 0
M  V30 4486 N 433.083 -1.0153 1.20538 0
M  V30 4487 C 434.329 -1.75408 1.01783 0
M  V30 4488 C 434.662 -1.88943 -0.448814 0
M  V30 4489 O 433.937 -1.4162 -1.33319 0
M  V30 4490 C 434.22 -3.17255 1.70356 0
M  V30 4491 C 434.073 -3.11508 3.24473 0
M  V30 4492 C 435.392 -4.15955 1.43769 0
M  V30 4493 H 432.511 -0.636713 0.371167 0
M  V30 4494 H 435.153 -1.18436 1.4857 0
M  V30 4495 H 433.303 -3.65898 1.30578 0
M  V30 4496 H 434.975 -2.70658 3.73553 0
M  V30 4497 H 433.218 -2.4887 3.55311 0
M  V30 4498 H 433.889 -4.11784 3.67611 0
M  V30 4499 H 436.365 -3.75973 1.7828 0
M  V30 4500 H 435.241 -5.13368 1.94279 0
M  V30 4501 H 435.502 -4.40586 0.365564 0
M  V30 4502 N 434.561 -1.01147 -1.20859 0
M  V30 4503 C 435.491 -0.597663 -2.25722 0
M  V30 4504 C 436.472 0.384744 -1.65692 0
M  V30 4505 O 437.657 0.271303 -1.92296 0
M  V30 4506 C 434.787 0.0700149 -3.47229 0
M  V30 4507 C 433.741 -0.832843 -4.19819 0
M  V30 4508 C 433.067 -0.0312202 -5.34691 0
M  V30 4509 C 434.367 -2.1385 -4.76514 0
M  V30 4510 H 436.061 -1.47423 -2.60589 0
M  V30 4511 H 433.607 -0.710301 -1.25263 0
M  V30 4512 H 435.56 0.37103 -4.19763 0
M  V30 4513 H 434.284 0.981259 -3.11511 0
M  V30 4514 H 432.943 -1.11778 -3.49144 0
M  V30 4515 H 432.591 0.881515 -4.95215 0
M  V30 4516 H 432.291 -0.632434 -5.84187 0
M  V30 4517 H 433.815 0.26346 -6.10031 0
M  V30 4518 H 435.229 -1.9002 -5.40893 0
M  V30 4519 H 433.626 -2.69012 -5.36426 0
M  V30 4520 H 434.696 -2.80495 -3.95538 0
M  V30 4521 N 436.039 1.36541 -0.78704 0
M  V30 4522 C 437.455 1.52571 -0.46844 0
M  V30 4523 C 437.655 1.7415 1.01361 0
M  V30 4524 O 436.711 1.77163 1.79915 0
M  V30 4525 C 438.024 2.71299 -1.29682 0
M  V30 4526 C 439.572 2.85169 -1.29027 0
M  V30 4527 C 440.047 4.06898 -2.10233 0
M  V30 4528 N 441.538 4.1404 -2.07666 0
M  V30 4529 C 442.273 5.07301 -2.67271 0
M  V30 4530 N 441.769 6.06021 -3.35724 0
M  V30 4531 N 443.562 4.99898 -2.57018 0
M  V30 4532 H 435.713 1.20788 -1.74711 0
M  V30 4533 H 437.976 0.589364 -0.742532 0
M  V30 4534 H 437.682 2.61868 -2.34773 0
M  V30 4535 H 437.556 3.6539 -0.936479 0
M  V30 4536 H 439.943 2.94062 -0.247284 0
M  V30 4537 H 440.024 1.91992 -1.69035 0
M  V30 4538 H 439.668 3.98766 -3.1456 0
M  V30 4539 H 439.598 4.99218 -1.67597 0
M  V30 4540 H 442.089 3.43357 -1.57843 0
M  V30 4541 H 442.402 6.73741 -3.78541 0
M  V30 4542 H 440.747 6.06253 -3.39826 0
M  V30 4543 H 443.938 4.21724 -2.03142 0
M  V30 4544 H 444.111 5.72392 -3.03761 0
M  V30 4545 N 437.518 0.538854 1.48102 0
M  V30 4546 C 438.795 -0.0568108 1.95517 0
M  V30 4547 C 439.175 -1.50408 1.48124 0
M  V30 4548 O 438.523 -2.17133 0.711727 0
M  V30 4549 C 438.733 0.0696262 3.48931 0
M  V30 4550 C 440.081 -0.0851202 4.24515 0
M  V30 4551 O 441.105 -0.0037347 3.562 0
M  V30 4552 O 439.964 -0.257025 5.45895 0
M  V30 4553 H 437.058 -0.0743695 0.823649 0
M  V30 4554 H 439.604 0.604081 1.58584 0
M  V30 4555 H 438.376 1.07744 3.76174 0
M  V30 4556 H 437.999 -0.629714 3.92582 0
M  V30 4557 N 438.996 -1.55193 0.274407 0
M  V30 4558 C 440.243 -1.99581 -0.342579 0
M  V30 4559 C 440.571 -1.1628 -1.55914 0
M  V30 4560 O 439.826 -0.22029 -1.94456 0
M  V30 4561 C 440.125 -3.49019 -0.769458 0
M  V30 4562 C 439.791 -4.49598 0.342389 0
M  V30 4563 C 438.453 -4.76821 0.647686 0
M  V30 4564 C 440.805 -5.0964 1.09163 0
M  V30 4565 C 438.133 -5.61354 1.70581 0
M  V30 4566 C 440.485 -5.95323 2.13948 0
M  V30 4567 C 439.149 -6.20867 2.45113 0
M  V30 4568 H 438.419 -0.730319 -0.125358 0
M  V30 4569 H 441.066 -1.87529 0.387971 0
M  V30 4570 H 439.371 -3.58544 -1.57967 0
M  V30 4571 H 441.068 -3.8077 -1.25757 0
M  V30 4572 H 437.658 -4.28496 0.094318 0
M  V30 4573 H 441.842 -4.88632 0.869024 0
M  V30 4574 H 437.098 -5.79392 1.9523 0
M  V30 4575 H 441.272 -6.40881 2.72478 0
M  V30 4576 H 438.899 -6.86162 3.27239 0
M  V30 4577 N 440.474 -0.00167713 -1.576 0
M  V30 4578 C 441.702 0.693759 -1.94922 0
M  V30 4579 C 442.117 1.67215 -0.876626 0
M  V30 4580 O 441.474 1.81929 0.144279 0
M  V30 4581 C 441.525 1.42416 -3.32265 0
M  V30 4582 O 441.246 0.485014 -4.35407 0
M  V30 4583 C 442.747 2.21395 -3.84056 0
M  V30 4584 H 439.967 0.193118 -0.642609 0
M  V30 4585 H 442.511 -0.0532952 -2.04431 0
M  V30 4586 H 440.666 2.12284 -3.24059 0
M  V30 4587 H 441.08 1.00053 -5.14868 0
M  V30 4588 H 442.554 2.67996 -4.82578 0
M  V30 4589 H 443.031 3.04142 -3.16851 0
M  V30 4590 H 443.637 1.56542 -3.95443 0
M  V30 4591 N 441.952 1.55251 0.271103 0
M  V30 4592 C 442.884 1.84675 1.35749 0
M  V30 4593 C 443.897 0.731366 1.45447 0
M  V30 4594 O 445.086 1.00924 1.4723 0
M  V30 4595 C 442.186 1.99638 2.73857 0
M  V30 4596 C 441.359 3.30312 2.86727 0
M  V30 4597 C 440.418 3.35318 4.05522 0
M  V30 4598 O 439.444 4.08682 3.96191 0
M  V30 4599 N 440.646 2.62857 5.17577 0
M  V30 4600 H 443.411 2.78445 1.10853 0
M  V30 4601 H 440.972 1.55191 0.461218 0
M  V30 4602 H 442.964 2.00355 3.51625 0
M  V30 4603 H 441.534 1.12725 2.91568 0
M  V30 4604 H 440.754 3.42118 1.95829 0
M  V30 4605 H 442.042 4.16488 2.92258 0
M  V30 4606 H 441.44 2.02939 5.28046 0
M  V30 4607 H 439.997 2.69295 5.93568 0
M  V30 4608 N 443.43 -0.535701 1.48216 0
M  V30 4609 C 444.362 -1.65662 1.58394 0
M  V30 4610 C 445.375 -1.5591 0.468607 0
M  V30 4611 O 446.564 -1.62475 0.7392 0
M  V30 4612 C 443.664 -3.04276 1.4923 0
M  V30 4613 C 442.837 -3.39567 2.75705 0
M  V30 4614 C 441.896 -4.57436 2.60075 0
M  V30 4615 O 440.922 -4.60942 3.33948 0
M  V30 4616 N 442.124 -5.55259 1.69315 0
M  V30 4617 H 444.889 -1.5737 2.55058 0
M  V30 4618 H 442.45 -0.722845 1.44867 0
M  V30 4619 H 444.442 -3.80994 1.36477 0
M  V30 4620 H 443.012 -3.06677 0.605632 0
M  V30 4621 H 442.232 -2.52083 3.03064 0
M  V30 4622 H 443.52 -3.59929 3.59623 0
M  V30 4623 H 442.918 -5.552 1.08489 0
M  V30 4624 H 441.475 -6.31218 1.62504 0
M  V30 4625 N 444.908 -1.36708 -0.784132 0
M  V30 4626 C 445.838 -1.34153 -1.91116 0
M  V30 4627 C 446.819 -0.212121 -1.68772 0
M  V30 4628 O 448.004 -0.410581 -1.8981 0
M  V30 4629 C 445.134 -1.13535 -3.28218 0
M  V30 4630 C 444.088 -2.23356 -3.65097 0
M  V30 4631 C 443.414 -1.87875 -5.00607 0
M  V30 4632 C 444.714 -3.65473 -3.73131 0
M  V30 4633 H 446.408 -2.28459 -1.93512 0
M  V30 4634 H 443.954 -1.09973 -0.929618 0
M  V30 4635 H 445.907 -1.10381 -4.06687 0
M  V30 4636 H 444.631 -0.156804 -3.26223 0
M  V30 4637 H 443.29 -2.25645 -2.88929 0
M  V30 4638 H 442.938 -0.885814 -4.95139 0
M  V30 4639 H 442.638 -2.61406 -5.26252 0
M  V30 4640 H 444.162 -1.86286 -5.81489 0
M  V30 4641 H 445.576 -3.65382 -4.41779 0
M  V30 4642 H 443.973 -4.37953 -4.10265 0
M  V30 4643 H 445.043 -3.99995 -2.74102 0
M  V30 4644 N 446.386 1.0089 -1.21074 0
M  V30 4645 C 447.296 2.13039 -0.982425 0
M  V30 4646 C 448.312 1.73881 0.0642161 0
M  V30 4647 O 449.488 2.01012 -0.12496 0
M  V30 4648 C 446.553 3.42377 -0.545803 0
M  V30 4649 C 445.614 3.95731 -1.6642 0
M  V30 4650 C 444.847 5.18896 -1.24832 0
M  V30 4651 O 445.07 5.70273 -0.120265 0
M  V30 4652 O 444.004 5.65597 -2.05873 0
M  V30 4653 H 447.83 2.35175 -1.92163 0
M  V30 4654 H 445.415 1.1142 -0.995285 0
M  V30 4655 H 447.297 4.20244 -0.311912 0
M  V30 4656 H 445.972 3.21639 0.364727 0
M  V30 4657 H 444.879 3.19108 -1.95246 0
M  V30 4658 H 446.212 4.20872 -2.55201 0
M  V30 4659 N 447.864 1.01787 1.20321 0
M  V30 4660 C 448.812 0.58254 2.25187 0
M  V30 4661 C 449.806 -0.379359 1.65098 0
M  V30 4662 O 451.012 -0.249142 1.78267 0
M  V30 4663 H 447.387 0.170078 0.732514 0
M  V30 4664 H 449.358 1.47788 2.59232 0
M  V30 4665 C 448.107 -0.0620885 3.47645 0
M  V30 4666 H 447.43 0.669069 3.94162 0
M  V30 4667 H 448.87 -0.329784 4.22716 0
M  V30 4668 C 447.329 -1.3053 3.10586 0
M  V30 4669 O 447.859 -2.39848 3.22236 0
M  V30 4670 N 446.065 -1.18988 2.65123 0
M  V30 4671 H 445.612 -0.300341 2.55843 0
M  V30 4672 H 445.57 -2.02267 2.40698 0
M  V30 4673 N 449.342 -1.36122 0.79427 0
M  V30 4674 C 450.619 -1.93398 0.292685 0
M  V30 4675 C 450.999 -1.72567 -1.21589 0
M  V30 4676 O 450.347 -1.08745 -2.00965 0
M  V30 4677 C 450.557 -3.42099 0.690614 0
M  V30 4678 C 451.905 -4.19231 0.673105 0
M  V30 4679 O 452.929 -3.50559 0.631389 0
M  V30 4680 O 451.788 -5.41732 0.720362 0
M  V30 4681 H 448.882 -0.823712 0.0736693 0
M  V30 4682 H 451.428 -1.45273 0.87714 0
M  V30 4683 H 450.2 -3.50938 1.73085 0
M  V30 4684 H 449.823 -3.97519 0.0803036 0
M  V30 4685 N 450.82 -0.546701 -1.47814 0
M  V30 4686 C 451.753 0.254472 -2.26777 0
M  V30 4687 C 452.731 0.929809 -1.33392 0
M  V30 4688 O 453.915 0.950889 -1.62759 0
M  V30 4689 C 451.042 1.36171 -3.10121 0
M  V30 4690 C 450.088 0.796038 -4.19005 0
M  V30 4691 S 450.921 -0.349191 -5.3436 0
M  V30 4692 C 452.077 0.760122 -6.21267 0
M  V30 4693 H 452.31 -0.415612 -2.94381 0
M  V30 4694 H 449.843 -0.332809 -1.5077 0
M  V30 4695 H 451.801 1.99588 -3.58713 0
M  V30 4696 H 450.462 2.00359 -2.41899 0
M  V30 4697 H 449.655 1.62719 -4.7701 0
M  V30 4698 H 449.257 0.238246 -3.7324 0
M  V30 4699 H 451.549 1.65479 -6.5698 0
M  V30 4700 H 452.492 0.217673 -7.07765 0
M  V30 4701 H 452.9 1.04806 -5.54685 0
M  V30 4702 N 452.299 1.55045 -0.282633 0
M  V30 4703 C 453.715 1.59441 0.0712997 0
M  V30 4704 C 453.915 1.2998 1.53972 0
M  V30 4705 O 452.971 1.06431 2.28973 0
M  V30 4706 C 454.284 2.99097 -0.310104 0
M  V30 4707 C 455.832 3.1194 -0.257343 0
M  V30 4708 C 456.307 4.53875 -0.613297 0
M  V30 4709 N 457.798 4.5974 -0.565134 0
M  V30 4710 C 458.533 5.67603 -0.81326 0
M  V30 4711 N 458.029 6.83582 -1.1264 0
M  V30 4712 N 459.822 5.57187 -0.741553 0
M  V30 4713 H 451.973 1.72458 -1.23984 0
M  V30 4714 H 454.236 0.804549 -0.501403 0
M  V30 4715 H 453.942 3.25516 -1.33163 0
M  V30 4716 H 453.816 3.75616 0.345366 0
M  V30 4717 H 456.203 2.85281 0.754905 0
M  V30 4718 H 456.284 2.37618 -0.947178 0
M  V30 4719 H 455.928 4.81261 -1.62327 0
M  V30 4720 H 455.858 5.26508 0.09841 0
M  V30 4721 H 458.349 3.76427 -0.333294 0
M  V30 4722 H 458.662 7.6175 -1.30219 0
M  V30 4723 H 457.007 6.85179 -1.16425 0
M  V30 4724 H 460.198 4.65457 -0.496705 0
M  V30 4725 H 460.371 6.41171 -0.938306 0
M  V30 4726 N 453.777 0.010035 1.57597 0
M  V30 4727 C 454.74 -0.963029 2.07986 0
M  V30 4728 C 455.74 -1.26619 0.991173 0
M  V30 4729 O 456.93 -1.2097 1.25347 0
M  V30 4730 C 454.062 -2.2851 2.52974 0
M  V30 4731 H 455.255 -0.526971 2.95234 0
M  V30 4732 H 452.808 -0.237639 1.54483 0
M  V30 4733 H 453.543 -2.76784 1.69 0
M  V30 4734 H 453.328 -2.07824 3.32493 0
M  V30 4735 H 454.818 -2.98294 2.9225 0
M  V30 4736 N 455.255 -1.55392 -0.262866 0
M  V30 4737 C 456.504 -1.75679 -0.990943 0
M  V30 4738 C 456.817 -0.57097 -1.87081 0
M  V30 4739 O 458.023 -0.656486 -2.63444 0
M  V30 4740 C 456.479 -3.10964 -1.81188 0
M  V30 4741 C 456.087 -4.37146 -0.980188 0
M  V30 4742 C 457.831 -3.40597 -2.53365 0
M  V30 4743 C 455.738 -5.63466 -1.7961 0
M  V30 4744 H 454.668 -0.654868 -0.373716 0
M  V30 4745 H 457.319 -1.81841 -0.246203 0
M  V30 4746 H 455.701 -2.98867 -2.59797 0
M  V30 4747 H 456.875 -4.60187 -0.237558 0
M  V30 4748 H 455.19 -4.14731 -0.372497 0
M  V30 4749 H 457.787 -4.32186 -3.14833 0
M  V30 4750 H 458.13 -2.6119 -3.24169 0
M  V30 4751 H 458.663 -3.53838 -1.81779 0
M  V30 4752 H 455.402 -6.4565 -1.13209 0
M  V30 4753 H 454.922 -5.44552 -2.51443 0
M  V30 4754 H 456.601 -6.02139 -2.36723 0
M  V30 4755 N 456.733 0.527833 -1.48498 0
M  V30 4756 C 457.973 1.29401 -1.58224 0
M  V30 4757 C 458.337 1.90348 -0.251327 0
M  V30 4758 O 459.538 2.67868 -0.223588 0
M  V30 4759 C 457.809 2.35266 -2.69044 0
M  V30 4760 S 459.368 3.2158 -2.98549 0
M  V30 4761 H 456.186 0.440138 -0.558391 0
M  V30 4762 H 458.788 0.601079 -1.8603 0
M  V30 4763 H 457.492 1.88975 -3.64303 0
M  V30 4764 H 457.023 3.09263 -2.43146 0
M  V30 4765 H 459.038 4.35391 -2.38011 0
M  V30 4766 N 458.211 1.37122 0.776871 0
M  V30 4767 C 459.488 1.22586 1.52421 0
M  V30 4768 C 459.868 -0.182726 2.10308 0
M  V30 4769 O 459.216 -1.18979 1.9508 0
M  V30 4770 C 459.426 2.31782 2.60918 0
M  V30 4771 C 460.774 2.69071 3.2846 0
M  V30 4772 O 461.798 2.3092 2.71209 0
M  V30 4773 O 460.657 3.3478 4.31954 0
M  V30 4774 H 457.751 0.478045 0.674835 0
M  V30 4775 H 460.297 1.48888 0.814275 0
M  V30 4776 H 459.069 3.26131 2.16227 0
M  V30 4777 H 458.692 2.06916 3.39517 0
M  V30 4778 N 459.689 -1.00246 1.21608 0
M  V30 4779 C 460.599 -2.12515 0.993709 0
M  V30 4780 C 461.615 -1.73913 -0.0549939 0
M  V30 4781 O 462.791 -2.00943 0.135619 0
M  V30 4782 C 459.856 -3.42083 0.563953 0
M  V30 4783 C 458.917 -3.94843 1.68516 0
M  V30 4784 C 458.15 -5.18226 1.27582 0
M  V30 4785 O 458.373 -5.70201 0.150506 0
M  V30 4786 O 457.307 -5.64497 2.0887 0
M  V30 4787 H 461.133 -2.34152 1.93407 0
M  V30 4788 H 458.718 -1.10891 1.00118 0
M  V30 4789 H 460.6 -4.20073 0.334194 0
M  V30 4790 H 459.275 -3.21828 -0.347665 0
M  V30 4791 H 458.182 -3.18068 1.96935 0
M  V30 4792 H 459.515 -4.19512 2.5743 0
M  V30 4793 N 461.167 -1.02423 -1.1978 0
M  V30 4794 C 462.1 -0.545641 -2.21581 0
M  V30 4795 C 463.078 0.411024 -1.57319 0
M  V30 4796 O 464.262 0.329223 -1.85603 0
M  V30 4797 C 461.389 0.204973 -3.38079 0
M  V30 4798 C 460.435 -0.70241 -4.20676 0
M  V30 4799 S 461.268 -2.17595 -4.89298 0
M  V30 4800 C 462.424 -1.43572 -6.09211 0
M  V30 4801 H 462.657 -1.4082 -2.61834 0
M  V30 4802 H 460.19 -0.833771 -1.29952 0
M  V30 4803 H 462.148 0.631924 -4.05607 0
M  V30 4804 H 460.809 1.0432 -2.9627 0
M  V30 4805 H 460.002 -0.123193 -5.03849 0
M  V30 4806 H 459.604 -1.06747 -3.58442 0
M  V30 4807 H 461.896 -0.719806 -6.73665 0
M  V30 4808 H 462.839 -2.24388 -6.71607 0
M  V30 4809 H 463.247 -0.935252 -5.56699 0
M  V30 4810 N 462.645 1.35699 -0.801477 0
M  V30 4811 C 463.922 1.9324 -0.302937 0
M  V30 4812 C 464.302 1.73209 1.20672 0
M  V30 4813 O 463.65 1.09809 2.00385 0
M  V30 4814 C 463.86 3.41728 -0.708747 0
M  V30 4815 C 465.208 4.18868 -0.695328 0
M  V30 4816 O 466.232 3.5022 -0.649971 0
M  V30 4817 O 465.091 5.41342 -0.749081 0
M  V30 4818 H 462.185 0.82331 -0.0780367 0
M  V30 4819 H 464.731 1.44806 -0.884832 0
M  V30 4820 H 463.503 3.50015 -1.74944 0
M  V30 4821 H 463.126 3.97471 -0.101384 0
M  V30 4822 N 464.123 0.554532 1.47522 0
M  V30 4823 C 465.372 0.0273458 2.01681 0
M  V30 4824 C 465.685 -1.32962 1.43459 0
M  V30 4825 O 466.891 -1.94657 1.89265 0
M  V30 4826 C 465.347 -0.00159057 3.599 0
M  V30 4827 C 464.955 1.35197 4.27113 0
M  V30 4828 C 466.699 -0.476311 4.21819 0
M  V30 4829 C 464.606 1.28229 5.77331 0
M  V30 4830 H 463.536 0.00645269 0.753972 0
M  V30 4831 H 466.187 0.701985 1.69542 0
M  V30 4832 H 464.569 -0.741821 3.8899 0
M  V30 4833 H 465.743 2.1097 4.09668 0
M  V30 4834 H 464.058 1.76441 3.77171 0
M  V30 4835 H 466.655 -0.5468 5.31897 0
M  V30 4836 H 466.998 -1.4877 3.8881 0
M  V30 4837 H 467.531 0.20898 3.97251 0
M  V30 4838 H 464.27 2.26959 6.14955 0
M  V30 4839 H 463.79 0.566314 5.97121 0
M  V30 4840 H 465.469 0.983226 6.39485 0
M  V30 4841 N 465.601 -1.54893 0.290851 0
M  V30 4842 C 466.849 -1.99538 -0.320756 0
M  V30 4843 C 467.17 -1.18075 -1.55188 0
M  V30 4844 O 466.44 -0.274162 -1.93972 0
M  V30 4845 H 465.02 -0.737052 -0.121507 0
M  V30 4846 H 467.682 -1.90755 0.399832 0
M  V30 4847 H 466.778 -3.06282 -0.599802 0
M  V30 4848 N 467.08 -0.0183926 -1.57589 0
M  V30 4849 C 468.329 0.66185 -1.90532 0
M  V30 4850 C 468.642 1.73904 -0.895366 0
M  V30 4851 O 469.848 2.47518 -1.11566 0
M  V30 4852 C 468.304 1.22844 -3.38286 0
M  V30 4853 C 467.912 0.185103 -4.47617 0
M  V30 4854 C 469.656 1.88581 -3.80312 0
M  V30 4855 C 467.563 0.762723 -5.86461 0
M  V30 4856 H 466.493 0.250972 -0.711006 0
M  V30 4857 H 469.144 -0.0819435 -1.83317 0
M  V30 4858 H 467.526 2.0235 -3.40398 0
M  V30 4859 H 468.7 -0.58671 -4.5705 0
M  V30 4860 H 467.015 -0.372889 -4.14727 0
M  V30 4861 H 469.612 2.32735 -4.81392 0
M  V30 4862 H 469.955 2.72408 -3.14801 0
M  V30 4863 H 470.488 1.15782 -3.80578 0
M  V30 4864 H 467.227 -0.0371713 -6.55489 0
M  V30 4865 H 466.747 1.50327 -5.80656 0
M  V30 4866 H 468.426 1.25576 -6.34697 0
M  V30 4867 N 468.558 1.5553 0.254621 0
M  V30 4868 C 469.835 1.6774 1.00611 0
M  V30 4869 C 470.215 0.555993 2.03647 0
M  V30 4870 O 469.563 -0.441583 2.24193 0
M  V30 4871 C 469.773 3.07725 1.6464 0
M  V30 4872 C 471.121 3.66074 2.15116 0
M  V30 4873 O 472.145 3.10476 1.74595 0
M  V30 4874 O 471.004 4.63526 2.89493 0
M  V30 4875 H 468.098 0.681958 0.467828 0
M  V30 4876 H 470.644 1.67863 0.24902 0
M  V30 4877 H 469.416 3.80792 0.900734 0
M  V30 4878 H 469.039 3.1158 2.46989 0
M  V30 4879 N 470.036 -0.519951 1.48776 0
M  V30 4880 C 471.285 -1.27175 1.56555 0
M  V30 4881 C 471.598 -1.9401 0.248869 0
M  V30 4882 O 472.804 -2.70725 0.205004 0
M  V30 4883 C 471.26 -2.30811 2.76142 0
M  V30 4884 C 470.868 -1.7 4.14493 0
M  V30 4885 C 472.612 -3.06937 2.9324 0
M  V30 4886 C 470.519 -2.71635 5.25327 0
M  V30 4887 H 469.449 -0.478329 0.582853 0
M  V30 4888 H 472.1 -0.547916 1.75129 0
M  V30 4889 H 470.482 -3.06274 2.51023 0
M  V30 4890 H 471.656 -1.00658 4.49672 0
M  V30 4891 H 469.971 -1.06331 4.02595 0
M  V30 4892 H 472.568 -3.82905 3.73213 0
M  V30 4893 H 472.911 -3.63409 2.03075 0
M  V30 4894 H 473.444 -2.38589 3.18308 0
M  V30 4895 H 470.183 -2.1997 6.1749 0
M  V30 4896 H 469.703 -3.39275 4.94624 0
M  V30 4897 H 471.382 -3.34429 5.53865 0
M  V30 4898 N 471.514 -1.37532 -0.769588 0
M  V30 4899 C 472.791 -1.23392 -1.51768 0
M  V30 4900 C 473.171 0.17157 -2.10402 0
M  V30 4901 O 472.519 1.17943 -1.95708 0
M  V30 4902 C 472.729 -2.33163 -2.59685 0
M  V30 4903 C 474.077 -2.70809 -3.27028 0
M  V30 4904 O 475.101 -2.32355 -2.69981 0
M  V30 4905 O 473.96 -3.37066 -4.30173 0
M  V30 4906 H 471.054 -0.481617 -0.67229 0
M  V30 4907 H 473.6 -1.49318 -0.806368 0
M  V30 4908 H 472.372 -3.27273 -2.14494 0
M  V30 4909 H 471.995 -2.08713 -3.38415 0
M  V30 4910 N 472.992 0.995999 -1.22138 0
M  V30 4911 C 473.922 2.10387 -1.01289 0
M  V30 4912 C 474.903 1.69975 0.0651454 0
M  V30 4913 O 476.088 1.9396 -0.0964628 0
M  V30 4914 C 473.218 3.42312 -0.586517 0
M  V30 4915 C 472.172 3.96558 -1.61014 0
M  V30 4916 C 471.498 5.24494 -1.0397 0
M  V30 4917 C 472.798 4.27595 -2.99933 0
M  V30 4918 H 474.492 2.28086 -1.93951 0
M  V30 4919 H 472.038 1.09607 -0.933928 0
M  V30 4920 H 473.991 4.19223 -0.427793 0
M  V30 4921 H 472.715 3.24431 0.375761 0
M  V30 4922 H 471.374 3.21776 -1.75658 0
M  V30 4923 H 471.022 5.02953 -0.0688703 0
M  V30 4924 H 470.722 5.61755 -1.72352 0
M  V30 4925 H 472.246 6.04042 -0.892494 0
M  V30 4926 H 473.66 4.95315 -2.8868 0
M  V30 4927 H 472.057 4.76021 -3.6541 0
M  V30 4928 H 473.127 3.35498 -3.50099 0
M  V30 4929 N 474.47 1.03057 1.19235 0
M  V30 4930 C 475.716 0.738841 1.89506 0
M  V30 4931 C 476.071 -0.724807 1.78225 0
M  V30 4932 O 475.364 -1.52118 1.16494 0
M  V30 4933 C 475.558 1.1268 3.39172 0
M  V30 4934 C 475.387 2.62662 3.65019 0
M  V30 4935 C 474.157 3.29658 3.82954 0
M  V30 4936 C 476.355 3.60873 3.66436 0
M  V30 4937 N 474.337 4.68726 3.96446 0
M  V30 4938 C 475.708 4.85566 3.8552 0
M  V30 4939 C 477.763 3.54647 3.49471 0
M  V30 4940 C 476.466 6.04783 3.89397 0
M  V30 4941 C 478.492 4.73281 3.54625 0
M  V30 4942 C 477.854 5.96789 3.74196 0
M  V30 4943 H 473.953 0.322256 0.712513 0
M  V30 4944 H 476.537 1.31822 1.43287 0
M  V30 4945 H 474.708 0.575612 3.84111 0
M  V30 4946 H 476.44 0.787145 3.96971 0
M  V30 4947 H 473.195 2.8007 3.81913 0
M  V30 4948 H 473.619 5.40971 4.07037 0
M  V30 4949 H 478.261 2.60143 3.33295 0
M  V30 4950 H 475.979 6.99654 4.04364 0
M  V30 4951 H 479.565 4.70094 3.42787 0
M  V30 4952 H 478.445 6.87051 3.78061 0
M  V30 4953 N 475.948 -1.35272 0.808662 0
M  V30 4954 C 476.881 -2.27595 0.165994 0
M  V30 4955 C 477.859 -1.48189 -0.669241 0
M  V30 4956 O 479.043 -1.77444 -0.636073 0
M  V30 4957 C 476.17 -3.29843 -0.769505 0
M  V30 4958 C 475.216 -4.26498 -0.0136267 0
M  V30 4959 S 476.049 -5.18878 1.32384 0
M  V30 4960 C 477.205 -6.24666 0.392838 0
M  V30 4961 H 477.438 -2.81755 0.948756 0
M  V30 4962 H 474.971 -1.42103 0.603828 0
M  V30 4963 H 476.929 -3.89247 -1.30374 0
M  V30 4964 H 475.59 -2.74558 -1.52567 0
M  V30 4965 H 474.783 -4.98769 -0.724227 0
M  V30 4966 H 474.385 -3.71274 0.450713 0
M  V30 4967 H 476.677 -6.7619 -0.4211 0
M  V30 4968 H 477.62 -6.99741 1.0848 0
M  V30 4969 H 478.028 -5.64499 -0.0123908 0
M  V30 4970 N 477.426 -0.562348 -1.47226 0
M  V30 4971 C 478.703 0.0256985 -1.95583 0
M  V30 4972 C 479.083 1.48032 -1.50498 0
M  V30 4973 O 478.431 2.15973 -0.746181 0
M  V30 4974 C 478.641 -0.125129 -3.48776 0
M  V30 4975 C 479.989 0.0175728 -4.24596 0
M  V30 4976 O 481.013 -0.0529341 -3.56161 0
M  V30 4977 O 479.872 0.170145 -5.46235 0
M  V30 4978 H 476.966 0.0612565 -0.824728 0
M  V30 4979 H 479.512 -0.629233 -1.57603 0
M  V30 4980 H 478.284 -1.13715 -3.74412 0
M  V30 4981 H 477.907 0.567178 -3.93534 0
M  V30 4982 N 478.904 1.54736 -0.299062 0
M  V30 4983 C 479.814 2.27127 0.587413 0
M  V30 4984 C 480.83 1.30575 1.15005 0
M  V30 4985 O 482.006 1.63554 1.17525 0
M  V30 4986 C 479.071 2.99645 1.74395 0
M  V30 4987 C 478.132 4.11731 1.21559 0
M  V30 4988 C 477.365 4.80781 2.317 0
M  V30 4989 O 477.588 4.4918 3.51558 0
M  V30 4990 O 476.522 5.68226 1.98501 0
M  V30 4991 H 480.348 3.037 0.000250109 0
M  V30 4992 H 477.933 1.49256 -0.0655919 0
M  V30 4993 H 479.815 3.45138 2.4178 0
M  V30 4994 H 478.49 2.25969 2.31775 0
M  V30 4995 H 477.397 3.70641 0.507514 0
M  V30 4996 H 478.73 4.87379 0.687233 0
M  V30 4997 N 480.382 0.0267497 1.57577 0
M  V30 4998 C 481.292 -0.971633 2.13533 0
M  V30 4999 C 482.308 -1.35868 1.08701 0
M  V30 5000 O 483.484 -1.44058 1.40746 0
M  V30 5001 C 480.549 -2.23622 2.64941 0
M  V30 5002 C 479.61 -1.90982 3.8448 0
M  V30 5003 C 478.843 -3.11411 4.33427 0
M  V30 5004 O 479.066 -4.23992 3.81558 0
M  V30 5005 O 478 -2.93848 5.25297 0
M  V30 5006 H 481.826 -0.525853 2.99113 0
M  V30 5007 H 479.411 -0.193712 1.48139 0
M  V30 5008 H 481.293 -2.97864 2.98086 0
M  V30 5009 H 479.968 -2.67386 1.82446 0
M  V30 5010 H 478.875 -1.14132 3.56265 0
M  V30 5011 H 480.208 -1.52036 4.6813 0
M  V30 5012 N 481.861 -1.55662 -0.24637 0
M  V30 5013 C 483.272 -1.67953 -0.81539 0
M  V30 5014 C 483.623 -0.624302 -1.86002 0
M  V30 5015 O 482.748 0.229328 -2.15181 0
M  V30 5016 C 483.343 -3.04484 -1.48576 0
M  V30 5017 C 481.902 -3.18713 -2.00248 0
M  V30 5018 C 481.049 -2.6383 -0.853766 0
M  V30 5019 H 484 -1.58685 -0.0221692 0
M  V30 5020 H 484.021 -2.98959 -2.3538 0
M  V30 5021 H 483.533 -3.81264 -0.725222 0
M  V30 5022 H 481.634 -2.46757 -2.79181 0
M  V30 5023 H 481.747 -4.25628 -2.1995 0
M  V30 5024 H 480.111 -2.21667 -1.25442 0
M  V30 5025 H 480.894 -3.43135 -0.106302 0
M  V30 5026 N 483.339 0.512053 -1.4905 0
M  V30 5027 C 484.585 1.26874 -1.58212 0
M  V30 5028 C 484.918 1.9241 -0.263073 0
M  V30 5029 O 484.193 1.80181 0.732476 0
M  V30 5030 C 484.476 2.34428 -2.73341 0
M  V30 5031 C 484.329 1.73466 -4.15006 0
M  V30 5032 C 485.648 3.36073 -2.84154 0
M  V30 5033 H 482.767 0.459924 -0.575881 0
M  V30 5034 H 485.409 0.568587 -1.81293 0
M  V30 5035 H 483.559 2.94146 -2.53792 0
M  V30 5036 H 485.231 1.17661 -4.46042 0
M  V30 5037 H 483.474 1.03921 -4.21168 0
M  V30 5038 H 484.145 2.51426 -4.91415 0
M  V30 5039 H 486.621 2.86332 -3.01916 0
M  V30 5040 H 485.497 4.08703 -3.66406 0
M  V30 5041 H 485.758 3.97725 -1.93048 0
M  V30 5042 N 484.817 1.37938 0.762283 0
M  V30 5043 C 486.228 1.30094 1.33912 0
M  V30 5044 C 486.579 -0.0472026 1.96143 0
M  V30 5045 O 485.704 -0.94917 1.94473 0
M  V30 5046 C 486.299 2.35592 2.43478 0
M  V30 5047 C 484.858 2.31353 2.96905 0
M  V30 5048 C 484.005 2.18919 1.70205 0
M  V30 5049 H 486.956 1.48423 0.561816 0
M  V30 5050 H 486.977 2.00806 3.23199 0
M  V30 5051 H 486.489 3.33701 1.98155 0
M  V30 5052 H 484.59 1.36799 3.46579 0
M  V30 5053 H 484.703 3.25147 3.51875 0
M  V30 5054 H 483.067 1.65624 1.93496 0
M  V30 5055 H 483.85 3.18956 1.26973 0
M  V30 5056 N 486.295 -0.989507 1.22664 0
M  V30 5057 C 487.228 -2.07805 0.942985 0
M  V30 5058 C 488.206 -1.6219 -0.115356 0
M  V30 5059 O 489.39 -1.88492 0.0169565 0
M  V30 5060 C 486.517 -3.361 0.418898 0
M  V30 5061 C 485.563 -4.00643 1.46244 0
M  V30 5062 S 486.396 -4.41059 3.03689 0
M  V30 5063 C 487.552 -5.7252 2.52927 0
M  V30 5064 H 487.785 -2.31547 1.86476 0
M  V30 5065 H 485.318 -1.12446 1.05808 0
M  V30 5066 H 487.276 -4.10315 0.123114 0
M  V30 5067 H 485.937 -3.10383 -0.481818 0
M  V30 5068 H 485.13 -4.93033 1.04569 0
M  V30 5069 H 484.732 -3.32767 1.7071 0
M  V30 5070 H 487.024 -6.49017 1.94379 0
M  V30 5071 H 487.967 -6.19026 3.4382 0
M  V30 5072 H 488.375 -5.30083 1.94094 0
M  V30 5073 N 487.773 -1.03688 -1.18687 0
M  V30 5074 C 488.721 -0.618292 -2.24232 0
M  V30 5075 C 489.715 0.353045 -1.6568 0
M  V30 5076 O 490.921 0.220749 -1.78641 0
M  V30 5077 H 487.296 -0.181711 -0.729716 0
M  V30 5078 H 489.267 -1.51893 -2.56848 0
M  V30 5079 C 488.016 0.00677342 -3.47699 0
M  V30 5080 H 487.339 -0.731692 -3.93047 0
M  V30 5081 H 488.779 0.262492 -4.23187 0
M  V30 5082 C 487.238 1.25572 -3.12623 0
M  V30 5083 O 487.768 2.34691 -3.26011 0
M  V30 5084 N 485.974 1.14755 -2.66982 0
M  V30 5085 H 485.521 0.259601 -2.56289 0
M  V30 5086 H 485.479 1.98412 -2.43885 0
M  V30 5087 N 489.251 1.34841 -0.815825 0
M  V30 5088 C 490.198 2.29644 -0.230664 0
M  V30 5089 C 491.168 1.53253 0.640533 0
M  V30 5090 O 492.353 1.81653 0.583672 0
M  V30 5091 C 489.493 3.39715 0.607275 0
M  V30 5092 C 488.606 4.31056 -0.28538 0
M  V30 5093 C 487.741 5.28225 0.561446 0
M  V30 5094 C 486.78 6.11204 -0.331035 0
M  V30 5095 N 485.917 7.00483 0.476302 0
M  V30 5096 H 490.757 2.79095 -1.0445 0
M  V30 5097 H 488.294 1.37351 -0.526595 0
M  V30 5098 H 490.252 4.02208 1.10835 0
M  V30 5099 H 488.882 2.91517 1.38629 0
M  V30 5100 H 487.934 3.69487 -0.904621 0
M  V30 5101 H 489.246 4.89239 -0.97193 0
M  V30 5102 H 488.4 5.96135 1.12728 0
M  V30 5103 H 487.139 4.70562 1.28153 0
M  V30 5104 H 486.144 5.42232 -0.909069 0
M  V30 5105 H 487.369 6.70947 -1.04912 0
M  V30 5106 H 485.315 6.45296 1.18019 0
M  V30 5107 H 485.232 7.55847 -0.152008 0
M  V30 5108 H 486.5 7.7273 1.02512 0
M  V30 5109 N 490.729 0.570148 1.46925 0
M  V30 5110 C 491.639 -0.173061 2.33961 0
M  V30 5111 C 492.655 -0.898825 1.48987 0
M  V30 5112 O 493.831 -0.864825 1.81887 0
M  V30 5113 C 490.896 -1.18177 3.25937 0
M  V30 5114 C 489.957 -0.462041 4.26806 0
M  V30 5115 C 489.19 -1.4227 5.14388 0
M  V30 5116 O 489.413 -2.65842 5.04662 0
M  V30 5117 O 488.347 -0.940127 5.94513 0
M  V30 5118 H 492.173 0.541216 2.98839 0
M  V30 5119 H 489.758 0.330647 1.45695 0
M  V30 5120 H 491.64 -1.76372 3.82715 0
M  V30 5121 H 490.315 -1.87774 2.63671 0
M  V30 5122 H 489.222 0.161429 3.73752 0
M  V30 5123 H 490.555 0.192719 4.91823 0
M  V30 5124 N 492.207 -1.54576 0.307264 0
M  V30 5125 C 493.137 -2.26708 -0.55907 0
M  V30 5126 C 494.118 -1.26893 -1.1328 0
M  V30 5127 O 495.303 -1.55677 -1.16097 0
M  V30 5128 C 492.433 -3.01259 -1.72801 0
M  V30 5129 C 491.387 -4.08275 -1.28435 0
M  V30 5130 C 490.713 -4.70575 -2.53895 0
M  V30 5131 C 492.013 -5.2068 -0.411038 0
M  V30 5132 H 493.707 -2.9937 0.042576 0
M  V30 5133 H 491.253 -1.43983 0.0219173 0
M  V30 5134 H 493.206 -3.50444 -2.34023 0
M  V30 5135 H 491.93 -2.26187 -2.356 0
M  V30 5136 H 490.589 -3.59949 -0.695161 0
M  V30 5137 H 490.237 -3.92136 -3.15021 0
M  V30 5138 H 489.937 -5.42854 -2.24908 0
M  V30 5139 H 491.461 -5.22527 -3.15908 0
M  V30 5140 H 492.875 -5.65721 -0.929097 0
M  V30 5141 H 491.272 -5.99716 -0.214664 0
M  V30 5142 H 492.342 -4.81629 0.562287 0
M  V30 5143 N 493.685 -0.035106 -1.57561 0
M  V30 5144 C 494.931 0.64318 -1.92331 0
M  V30 5145 C 495.264 1.71434 -0.912368 0
M  V30 5146 O 494.539 1.94395 0.0640303 0
M  V30 5147 C 494.822 1.25411 -3.37556 0
M  V30 5148 C 494.675 0.192109 -4.4939 0
M  V30 5149 C 495.994 2.17041 -3.82859 0
M  V30 5150 H 493.113 0.232341 -0.699419 0
M  V30 5151 H 495.755 -0.0935889 -1.89769 0
M  V30 5152 H 493.905 1.88205 -3.39869 0
M  V30 5153 H 495.577 -0.438849 -4.59208 0
M  V30 5154 H 493.82 -0.481725 -4.31117 0
M  V30 5155 H 494.491 0.659292 -5.48049 0
M  V30 5156 H 496.967 1.64228 -3.8232 0
M  V30 5157 H 495.843 2.56738 -4.85157 0
M  V30 5158 H 496.104 3.06401 -3.18702 0
M  V30 5159 N 495.163 1.55791 0.238111 0
M  V30 5160 C 496.126 1.90239 1.27835 0
M  V30 5161 C 497.126 0.779552 1.4064 0
M  V30 5162 O 498.316 1.04747 1.3919 0
M  V30 5163 C 495.448 2.13859 2.65475 0
M  V30 5164 H 496.641 2.83262 0.985034 0
M  V30 5165 H 494.194 1.48818 0.477799 0
M  V30 5166 H 494.929 1.23334 2.99932 0
M  V30 5167 H 494.714 2.95643 2.57561 0
M  V30 5168 H 496.204 2.41664 3.40571 0
M  V30 5169 N 496.642 -0.504142 1.49319 0
M  V30 5170 C 497.87 -1.28256 1.62351 0
M  V30 5171 C 498.285 -1.86502 0.293682 0
M  V30 5172 O 497.642 -1.67678 -0.720449 0
M  V30 5173 C 497.693 -2.41507 2.68992 0
M  V30 5174 O 497.414 -1.85656 3.96817 0
M  V30 5175 C 498.915 -3.32929 2.927 0
M  V30 5176 H 496.135 -0.389115 0.546654 0
M  V30 5177 H 498.679 -0.605531 1.95329 0
M  V30 5178 H 496.834 -3.05046 2.38801 0
M  V30 5179 H 497.248 -2.59981 4.55533 0
M  V30 5180 H 498.722 -4.0868 3.71058 0
M  V30 5181 H 499.199 -3.89733 2.02496 0
M  V30 5182 H 499.805 -2.75158 3.24296 0
M  V30 5183 N 498.12 -1.38341 -0.754957 0
M  V30 5184 C 499.05 -1.38176 -1.88227 0
M  V30 5185 C 500.031 -0.247873 -1.68284 0
M  V30 5186 O 501.216 -0.45075 -1.88896 0
M  V30 5187 C 498.346 -1.20471 -3.25736 0
M  V30 5188 C 497.3 -2.3105 -3.60278 0
M  V30 5189 C 496.626 -1.98452 -4.96509 0
M  V30 5190 C 497.926 -3.73305 -3.65295 0
M  V30 5191 H 499.62 -2.32512 -1.88622 0
M  V30 5192 H 497.166 -1.1192 -0.906082 0
M  V30 5193 H 499.119 -1.18982 -4.04254 0
M  V30 5194 H 497.843 -0.225965 -3.25817 0
M  V30 5195 H 496.502 -2.31723 -2.84078 0
M  V30 5196 H 496.15 -0.990641 -4.93148 0
M  V30 5197 H 495.85 -2.7251 -5.20588 0
M  V30 5198 H 497.374 -1.98578 -5.77407 0
M  V30 5199 H 498.788 -3.7467 -4.3393 0
M  V30 5200 H 497.185 -4.46557 -4.00883 0
M  V30 5201 H 498.255 -4.05719 -2.65556 0
M  V30 5202 N 499.598 0.982988 -1.23187 0
M  V30 5203 C 500.826 1.75921 -1.08901 0
M  V30 5204 C 501.241 1.85341 0.359719 0
M  V30 5205 O 500.598 1.33072 1.24892 0
M  V30 5206 C 500.649 3.18742 -1.70545 0
M  V30 5207 O 500.37 3.09814 -3.09753 0
M  V30 5208 C 501.871 4.1277 -1.61667 0
M  V30 5209 H 499.091 0.552166 -0.381252 0
M  V30 5210 H 501.635 1.23516 -1.62985 0
M  V30 5211 H 499.79 3.68182 -1.20501 0
M  V30 5212 H 500.204 3.99703 -3.39614 0
M  V30 5213 H 501.678 5.10697 -2.09506 0
M  V30 5214 H 502.155 4.3542 -0.575009 0
M  V30 5215 H 502.761 3.69232 -2.11064 0
M  V30 5216 N 501.076 1.04316 1.18135 0
M  V30 5217 C 501.986 0.646876 2.25505 0
M  V30 5218 C 503.002 -0.328008 1.7088 0
M  V30 5219 O 504.178 -0.182309 2.00573 0
M  V30 5220 C 501.243 0.0185664 3.46695 0
M  V30 5221 C 500.304 1.04277 4.16443 0
M  V30 5222 C 499.537 0.444352 5.31847 0
M  V30 5223 O 499.76 -0.748735 5.65465 0
M  V30 5224 O 498.694 1.17428 5.90334 0
M  V30 5225 H 502.52 1.54147 2.61672 0
M  V30 5226 H 500.105 0.814188 1.25265 0
M  V30 5227 H 501.987 -0.331068 4.20097 0
M  V30 5228 H 500.662 -0.849814 3.12346 0
M  V30 5229 H 499.569 1.44425 3.45098 0
M  V30 5230 H 500.902 1.882 4.54798 0
M  V30 5231 N 502.554 -1.34406 0.822964 0
M  V30 5232 C 503.484 -2.32052 0.259608 0
M  V30 5233 C 504.465 -1.58243 -0.623961 0
M  V30 5234 O 505.65 -1.86224 -0.55083 0
M  V30 5235 C 502.78 -3.42434 -0.579314 0
M  V30 5236 C 501.734 -4.27499 0.20712 0
M  V30 5237 C 501.06 -5.29349 -0.754547 0
M  V30 5238 C 502.36 -5.02758 1.41533 0
M  V30 5239 H 504.054 -2.79418 1.07545 0
M  V30 5240 H 501.6 -1.34338 0.518593 0
M  V30 5241 H 503.553 -4.0976 -0.983612 0
M  V30 5242 H 502.277 -2.93717 -1.4282 0
M  V30 5243 H 500.936 -3.61776 0.592787 0
M  V30 5244 H 500.584 -4.76895 -1.59939 0
M  V30 5245 H 500.284 -5.8714 -0.232561 0
M  V30 5246 H 501.808 -5.99544 -1.1567 0
M  V30 5247 H 503.222 -5.62938 1.08504 0
M  V30 5248 H 501.619 -5.70123 1.87296 0
M  V30 5249 H 502.689 -4.32451 2.1935 0
M  V30 5250 N 504.032 -0.577932 -1.46621 0
M  V30 5251 C 505.272 -0.0643097 -2.04299 0
M  V30 5252 C 505.636 1.26967 -1.44026 0
M  V30 5253 O 506.837 1.87224 -1.92875 0
M  V30 5254 C 505.108 0.00547588 -3.574 0
M  V30 5255 S 506.667 0.462216 -4.36359 0
M  V30 5256 H 503.485 -0.0351573 -0.71013 0
M  V30 5257 H 506.087 -0.76935 -1.79725 0
M  V30 5258 H 504.791 -0.969423 -3.98786 0
M  V30 5259 H 504.322 0.733435 -3.86503 0
M  V30 5260 H 506.337 1.71791 -4.65513 0
M  V30 5261 N 505.51 1.54411 -0.315457 0
M  V30 5262 C 506.42 2.27737 0.56329 0
M  V30 5263 C 507.436 1.31787 1.13614 0
M  V30 5264 O 508.612 1.64791 1.15784 0
M  V30 5265 C 505.677 3.01478 1.71207 0
M  V30 5266 C 504.738 4.12997 1.17185 0
M  V30 5267 C 503.971 4.83212 2.26588 0
M  V30 5268 O 504.194 4.52884 3.46775 0
M  V30 5269 O 503.128 5.70299 1.92463 0
M  V30 5270 H 506.954 3.03683 -0.0319614 0
M  V30 5271 H 504.539 1.49178 -0.0814188 0
M  V30 5272 H 506.421 3.47683 2.38106 0
M  V30 5273 H 505.096 2.28414 2.29366 0
M  V30 5274 H 504.003 3.71159 0.468174 0
M  V30 5275 H 505.336 4.8808 0.635501 0
M  V30 5276 N 506.988 0.0434614 1.5754 0
M  V30 5277 C 508.404 -0.313039 1.565 0
M  V30 5278 C 508.604 -1.71954 1.05043 0
M  V30 5279 O 507.66 -2.425 0.703564 0
M  V30 5280 C 508.973 -0.148544 3.00333 0
M  V30 5281 C 510.521 -0.220231 3.12224 0
M  V30 5282 C 510.996 -0.0843565 4.57922 0
M  V30 5283 N 512.487 -0.140881 4.62986 0
M  V30 5284 C 513.222 -0.0597443 5.73369 0
M  V30 5285 N 512.718 0.0733004 6.92761 0
M  V30 5286 N 514.511 -0.11477 5.61983 0
M  V30 5287 H 506.662 0.96303 1.89313 0
M  V30 5288 H 508.925 0.373164 0.871466 0
M  V30 5289 H 508.631 0.820894 3.41986 0
M  V30 5290 H 508.505 -0.912798 3.65989 0
M  V30 5291 H 510.892 -1.18014 2.70475 0
M  V30 5292 H 510.973 0.574646 2.49262 0
M  V30 5293 H 510.617 0.872192 5.00355 0
M  V30 5294 H 510.547 -0.898281 5.18882 0
M  V30 5295 H 513.038 -0.243273 3.77116 0
M  V30 5296 H 513.351 0.128128 7.72694 0
M  V30 5297 H 511.696 0.10828 6.94916 0
M  V30 5298 H 514.887 -0.217212 4.67596 0
M  V30 5299 H 515.06 -0.0480779 6.47982 0
M  V30 5300 N 508.466 -1.55915 -0.229846 0
M  V30 5301 C 509.376 -1.94891 -1.30593 0
M  V30 5302 C 510.392 -0.851604 -1.51736 0
M  V30 5303 O 511.568 -1.15447 -1.65027 0
M  V30 5304 C 508.633 -2.25052 -2.63728 0
M  V30 5305 C 507.694 -3.48306 -2.5096 0
M  V30 5306 C 506.927 -3.77019 -3.77747 0
M  V30 5307 O 507.15 -3.07534 -4.80395 0
M  V30 5308 O 506.084 -4.70523 -3.75356 0
M  V30 5309 H 509.91 -2.86581 -1.00525 0
M  V30 5310 H 507.495 -1.43017 -0.432025 0
M  V30 5311 H 509.377 -2.45682 -3.42372 0
M  V30 5312 H 508.052 -1.36538 -2.93495 0
M  V30 5313 H 506.959 -3.32964 -1.70546 0
M  V30 5314 H 508.292 -4.37177 -2.26136 0
M  V30 5315 N 509.944 0.496216 -1.49584 0
M  V30 5316 C 510.891 1.59722 -1.66606 0
M  V30 5317 C 511.861 1.58158 -0.507477 0
M  V30 5318 O 513.046 1.76072 -0.735076 0
M  V30 5319 C 510.186 2.97844 -1.74308 0
M  V30 5320 C 509.299 3.09388 -3.01502 0
M  V30 5321 C 508.434 4.38271 -3.00153 0
M  V30 5322 C 507.473 4.43466 -4.21906 0
M  V30 5323 N 506.61 5.63784 -4.1844 0
M  V30 5324 H 511.45 1.44515 -2.60613 0
M  V30 5325 H 508.987 0.703048 -1.29212 0
M  V30 5326 H 510.945 3.77907 -1.76754 0
M  V30 5327 H 509.575 3.11743 -0.837619 0
M  V30 5328 H 508.627 2.22357 -3.08645 0
M  V30 5329 H 509.939 3.09085 -3.91494 0
M  V30 5330 H 509.093 5.2666 -3.01188 0
M  V30 5331 H 507.832 4.41146 -2.07947 0
M  V30 5332 H 506.837 3.53478 -4.21109 0
M  V30 5333 H 508.062 4.42303 -5.1531 0
M  V30 5334 H 506.008 5.67491 -3.29074 0
M  V30 5335 H 505.925 5.65118 -5.02173 0
M  V30 5336 H 507.193 6.54367 -4.23585 0
M  V30 5337 N 511.423 1.38739 0.74761 0
M  V30 5338 C 512.353 1.39173 1.87492 0
M  V30 5339 C 513.334 0.256794 1.6815 0
M  V30 5340 O 514.519 0.460762 1.88655 0
M  V30 5341 C 511.649 1.22197 3.25093 0
M  V30 5342 C 510.603 2.32957 3.59047 0
M  V30 5343 C 509.929 2.01082 4.95449 0
M  V30 5344 C 511.229 3.75237 3.6331 0
M  V30 5345 H 512.923 2.3351 1.87386 0
M  V30 5346 H 510.469 1.12399 0.900134 0
M  V30 5347 H 512.422 1.21124 4.03617 0
M  V30 5348 H 511.146 0.243241 3.25693 0
M  V30 5349 H 509.805 2.33226 2.82845 0
M  V30 5350 H 509.453 1.01678 4.92616 0
M  V30 5351 H 509.153 2.75267 5.19136 0
M  V30 5352 H 510.677 2.01638 5.76346 0
M  V30 5353 H 512.091 3.76966 4.31937 0
M  V30 5354 H 510.488 4.48677 3.98509 0
M  V30 5355 H 511.558 4.07122 2.634 0
M  V30 5356 N 512.901 -0.976442 1.23707 0
M  V30 5357 C 513.849 -2.09078 1.01927 0
M  V30 5358 C 514.843 -1.69345 -0.0430193 0
M  V30 5359 O 516.049 -1.79659 0.110814 0
M  V30 5360 H 512.424 -0.68398 0.312531 0
M  V30 5361 H 514.395 -2.24614 1.96447 0
M  V30 5362 C 513.144 -3.41919 0.631385 0
M  V30 5363 H 512.467 -3.72946 1.44053 0
M  V30 5364 H 513.907 -4.20817 0.518532 0
M  V30 5365 C 512.366 -3.30357 -0.660723 0
M  V30 5366 O 512.896 -3.63542 -1.70881 0
M  V30 5367 N 511.102 -2.83507 -0.638139 0
M  V30 5368 H 510.649 -2.567 0.215108 0
M  V30 5369 H 510.607 -2.76153 -1.50289 0
M  V30 5370 N 514.379 -1.04941 -1.1758 0
M  V30 5371 C 515.609 -0.777166 -1.91425 0
M  V30 5372 C 516.017 0.670647 -1.76915 0
M  V30 5373 O 515.36 1.46965 -1.10213 0
M  V30 5374 C 515.422 -1.07495 -3.43052 0
M  V30 5375 C 515.086 -2.51844 -3.81345 0
M  V30 5376 C 516.083 -3.50047 -3.844 0
M  V30 5377 C 513.768 -2.86787 -4.12382 0
M  V30 5378 C 515.762 -4.81239 -4.17957 0
M  V30 5379 C 513.449 -4.18182 -4.45608 0
M  V30 5380 C 514.447 -5.15219 -4.48373 0
M  V30 5381 O 514.135 -6.44258 -4.80819 0
M  V30 5382 H 513.867 -0.282209 -0.614275 0
M  V30 5383 H 516.421 -1.40258 -1.50056 0
M  V30 5384 H 514.651 -0.392437 -3.84704 0
M  V30 5385 H 516.34 -0.78912 -3.98155 0
M  V30 5386 H 517.106 -3.24391 -3.60548 0
M  V30 5387 H 512.985 -2.11922 -4.09402 0
M  V30 5388 H 516.529 -5.56974 -4.2003 0
M  V30 5389 H 512.426 -4.43602 -4.68922 0
M  V30 5390 H 513.194 -6.49041 -4.98686 0
M  V30 5391 N 515.857 1.33968 -0.830081 0
M  V30 5392 C 517.273 1.51003 -0.516742 0
M  V30 5393 C 517.473 1.77286 0.957694 0
M  V30 5394 O 516.529 1.82797 1.74188 0
M  V30 5395 C 517.842 2.67036 -1.38247 0
M  V30 5396 C 519.39 2.80919 -1.38034 0
M  V30 5397 C 519.865 4.00004 -2.23071 0
M  V30 5398 N 521.356 4.07224 -2.20733 0
M  V30 5399 C 522.091 4.98541 -2.83275 0
M  V30 5400 N 521.587 5.95033 -3.54835 0
M  V30 5401 N 523.38 4.91469 -2.72791 0
M  V30 5402 H 515.531 1.15168 -1.78466 0
M  V30 5403 H 517.794 0.565443 -0.760906 0
M  V30 5404 H 517.5 2.54266 -2.42985 0
M  V30 5405 H 517.374 3.62226 -1.05225 0
M  V30 5406 H 519.761 2.93127 -0.340713 0
M  V30 5407 H 519.842 1.86517 -1.75057 0
M  V30 5408 H 519.486 3.88557 -3.27087 0
M  V30 5409 H 519.416 4.93634 -1.83394 0
M  V30 5410 H 521.907 3.38162 -1.68687 0
M  V30 5411 H 522.22 6.61357 -3.99784 0
M  V30 5412 H 520.565 5.95135 -3.58942 0
M  V30 5413 H 523.756 4.15048 -2.16456 0
M  V30 5414 H 523.929 5.62439 -3.21818 0
M  V30 5415 N 517.335 0.585699 1.46312 0
M  V30 5416 C 518.581 0.0725284 2.0267 0
M  V30 5417 C 518.914 -1.28523 1.45586 0
M  V30 5418 O 518.189 -1.84283 0.622101 0
M  V30 5419 C 518.472 0.0099788 3.60099 0
M  V30 5420 C 518.325 1.39685 4.27561 0
M  V30 5421 C 519.644 -0.689117 4.34671 0
M  V30 5422 H 516.763 0.0278307 0.736474 0
M  V30 5423 H 519.405 0.753472 1.74421 0
M  V30 5424 H 517.555 -0.56992 3.84297 0
M  V30 5425 H 519.227 2.02215 4.14617 0
M  V30 5426 H 517.47 1.96374 3.86807 0
M  V30 5427 H 518.141 1.30553 5.36339 0
M  V30 5428 H 520.617 -0.196446 4.15636 0
M  V30 5429 H 519.493 -0.701921 5.44393 0
M  V30 5430 H 519.754 -1.75101 4.05946 0
M  V30 5431 N 518.813 -1.54241 0.323641 0
M  V30 5432 C 519.746 -2.20579 -0.584833 0
M  V30 5433 C 520.724 -1.18286 -1.11567 0
M  V30 5434 O 521.908 -1.47025 -1.17966 0
M  V30 5435 C 519.035 -2.86754 -1.80249 0
M  V30 5436 C 518.081 -4.02767 -1.4029 0
M  V30 5437 S 518.914 -5.33693 -0.439539 0
M  V30 5438 C 520.07 -6.03362 -1.66448 0
M  V30 5439 H 520.303 -2.97292 -0.0213238 0
M  V30 5440 H 517.836 -1.54024 0.107726 0
M  V30 5441 H 519.794 -3.25503 -2.50116 0
M  V30 5442 H 518.455 -2.09844 -2.33719 0
M  V30 5443 H 517.648 -4.47933 -2.31024 0
M  V30 5444 H 517.25 -3.65692 -0.783928 0
M  V30 5445 H 519.542 -6.25546 -2.6019 0
M  V30 5446 H 520.485 -6.9689 -1.25498 0
M  V30 5447 H 520.893 -5.33273 -1.85149 0
M  V30 5448 N 520.291 -0.0518155 -1.57515 0
M  V30 5449 C 521.241 0.932017 -2.0808 0
M  V30 5450 C 522.225 1.27141 -0.986098 0
M  V30 5451 O 523.417 1.25373 -1.24943 0
M  V30 5452 C 520.546 2.20665 -2.62986 0
M  V30 5453 C 519.632 1.89462 -3.79427 0
M  V30 5454 N 520.023 1.28621 -4.89173 0
M  V30 5455 C 518.321 2.19327 -3.88345 0
M  V30 5456 C 519.022 1.15062 -5.70207 0
M  V30 5457 N 517.998 1.65372 -5.17835 0
M  V30 5458 H 521.8 0.456964 -2.90326 0
M  V30 5459 H 519.314 0.152619 -1.61681 0
M  V30 5460 H 521.311 2.92044 -2.97516 0
M  V30 5461 H 519.971 2.68776 -1.8218 0
M  V30 5462 H 520.982 0.958341 -5.08956 0
M  V30 5463 H 517.659 2.69955 -3.18482 0
M  V30 5464 H 519.049 0.678243 -6.68468 0
M  V30 5465 N 521.769 1.56035 0.221574 0
M  V30 5466 C 522.994 1.83476 0.967026 0
M  V30 5467 C 523.419 0.632139 1.7716 0
M  V30 5468 O 522.777 -0.419082 1.7639 0
M  V30 5469 C 522.825 3.08907 1.86034 0
M  V30 5470 O 521.929 2.876 2.95567 0
M  V30 5471 H 521.27 0.604913 0.273817 0
M  V30 5472 H 523.8 2.03247 0.234893 0
M  V30 5473 H 523.81 3.3901 2.27016 0
M  V30 5474 H 522.485 3.96068 1.26898 0
M  V30 5475 H 521.062 2.6873 2.58532 0
M  V30 5476 N 523.247 -0.488276 1.49845 0
M  V30 5477 C 524.495 -1.23911 1.59657 0
M  V30 5478 C 524.816 -1.92816 0.291005 0
M  V30 5479 O 524.086 -1.83328 -0.690485 0
M  V30 5480 H 522.666 -0.460357 0.588286 0
M  V30 5481 H 525.328 -0.564794 1.86537 0
M  V30 5482 H 524.424 -1.99625 2.39909 0
M  V30 5483 N 524.725 -1.39134 -0.740242 0
M  V30 5484 C 525.688 -1.37217 -1.83587 0
M  V30 5485 C 526.688 -0.270221 -1.58513 0
M  V30 5486 O 527.878 -0.527843 -1.6601 0
M  V30 5487 C 525.01 -1.13959 -3.21288 0
M  V30 5488 H 526.203 -2.34705 -1.86691 0
M  V30 5489 H 523.756 -1.24622 -0.94335 0
M  V30 5490 H 524.491 -0.17131 -3.23847 0
M  V30 5491 H 524.276 -1.93754 -3.40884 0
M  V30 5492 H 525.766 -1.15346 -4.01354 0
M  V30 5493 N 526.204 0.969867 -1.24223 0
M  V30 5494 C 527.452 1.70918 -1.0785 0
M  V30 5495 C 527.773 1.91186 0.383763 0
M  V30 5496 O 527.043 1.48806 1.27411 0
M  V30 5497 H 525.623 0.633334 -0.396103 0
M  V30 5498 H 528.285 1.16689 -1.56108 0
M  V30 5499 H 527.381 2.69455 -1.57482 0
M  V30 5500 N 527.682 1.05563 1.17022 0
M  V30 5501 C 528.632 0.630007 2.19123 0
M  V30 5502 C 529.616 -0.335472 1.57364 0
M  V30 5503 O 530.808 -0.1521 1.76345 0
M  V30 5504 C 527.937 0.0101676 3.43298 0
M  V30 5505 C 527.023 0.999698 4.12149 0
M  V30 5506 N 527.414 2.17251 4.56766 0
M  V30 5507 C 525.712 0.829 4.38228 0
M  V30 5508 C 526.413 2.79883 5.09942 0
M  V30 5509 N 525.389 2.07656 5.02374 0
M  V30 5510 H 529.191 1.52353 2.51328 0
M  V30 5511 H 526.705 0.926288 1.33393 0
M  V30 5512 H 528.702 -0.312541 4.15727 0
M  V30 5513 H 527.362 -0.878707 3.12584 0
M  V30 5514 H 528.373 2.55067 4.50734 0
M  V30 5515 H 525.05 -0.00850974 4.17499 0
M  V30 5516 H 526.44 3.79362 5.54558 0
M  V30 5517 N 529.16 -1.33526 0.837174 0
M  V30 5518 C 530.437 -1.92369 0.354065 0
M  V30 5519 C 530.817 -1.76348 -1.16038 0
M  V30 5520 O 530.165 -1.15083 -1.97403 0
M  V30 5521 C 530.375 -3.39728 0.799101 0
M  V30 5522 C 531.723 -4.16877 0.806139 0
M  V30 5523 O 532.747 -3.48373 0.742597 0
M  V30 5524 O 531.606 -5.39166 0.892345 0
M  V30 5525 H 528.7 -0.820952 0.0998378 0
M  V30 5526 H 531.246 -1.42409 0.922913 0
M  V30 5527 H 530.018 -3.45254 1.84162 0
M  V30 5528 H 529.641 -3.97062 0.206731 0
M  V30 5529 N 530.638 -0.59345 -1.46 0
M  V30 5530 C 531.601 0.123538 -2.28867 0
M  V30 5531 C 532.601 0.808628 -1.38989 0
M  V30 5532 O 533.791 0.658945 -1.61256 0
M  V30 5533 C 530.923 1.1847 -3.19653 0
M  V30 5534 H 532.116 -0.604843 -2.93737 0
M  V30 5535 H 529.669 -0.351875 -1.52288 0
M  V30 5536 H 530.404 1.94431 -2.59552 0
M  V30 5537 H 530.189 0.69783 -3.8584 0
M  V30 5538 H 531.679 1.68726 -3.81997 0
M  V30 5539 N 532.116 1.54067 -0.331816 0
M  V30 5540 C 533.048 2.22139 0.564538 0
M  V30 5541 C 534.061 1.22408 1.07332 0
M  V30 5542 O 535.25 1.4883 0.985481 0
M  V30 5543 C 532.35 2.87876 1.78831 0
M  V30 5544 C 531.523 4.13817 1.41682 0
M  V30 5545 C 530.582 4.63072 2.49901 0
M  V30 5546 O 529.608 5.27562 2.13699 0
M  V30 5547 N 530.81 4.38001 3.80967 0
M  V30 5548 H 533.575 2.99694 -0.0183736 0
M  V30 5549 H 531.136 1.61153 -0.155396 0
M  V30 5550 H 533.128 3.17747 2.50637 0
M  V30 5551 H 531.698 2.13977 2.27887 0
M  V30 5552 H 530.918 3.9062 0.530044 0
M  V30 5553 H 532.206 4.95762 1.14443 0
M  V30 5554 H 531.604 3.864 4.13173 0
M  V30 5555 H 530.161 4.72507 4.48977 0
M  V30 5556 N 533.594 0.0601682 1.57485 0
M  V30 5557 C 534.843 -0.611101 1.9222 0
M  V30 5558 C 535.156 -1.71469 0.941159 0
M  V30 5559 O 536.362 -2.44473 1.18089 0
M  V30 5560 C 534.818 -1.13832 3.41424 0
M  V30 5561 C 534.426 -0.0663596 4.47951 0
M  V30 5562 C 536.17 -1.78432 3.85178 0
M  V30 5563 C 534.077 -0.606965 5.88277 0
M  V30 5564 H 533.007 -0.232033 0.71741 0
M  V30 5565 H 535.658 0.130518 1.83035 0
M  V30 5566 H 534.04 -1.93254 3.45643 0
M  V30 5567 H 535.214 0.707682 4.55333 0
M  V30 5568 H 533.529 0.482715 4.13593 0
M  V30 5569 H 536.126 -2.1989 4.87394 0
M  V30 5570 H 536.469 -2.63966 3.21913 0
M  V30 5571 H 537.002 -1.05651 3.83514 0
M  V30 5572 H 533.741 0.21095 6.5516 0
M  V30 5573 H 533.261 -1.34879 5.84438 0
M  V30 5574 H 534.94 -1.08704 6.37803 0
M  V30 5575 N 535.072 -1.5615 -0.213296 0
M  V30 5576 C 536.319 -1.79546 -0.936462 0
M  V30 5577 C 536.647 -0.630337 -1.84003 0
M  V30 5578 O 535.902 0.384883 -1.91878 0
M  V30 5579 C 536.201 -3.08772 -1.79985 0
M  V30 5580 C 535.867 -4.38532 -1.04882 0
M  V30 5581 C 534.529 -4.73787 -0.841393 0
M  V30 5582 C 536.881 -5.18609 -0.51907 0
M  V30 5583 C 534.209 -5.86627 -0.0924403 0
M  V30 5584 C 536.561 -6.32229 0.216581 0
M  V30 5585 C 535.225 -6.6608 0.435191 0
M  V30 5586 H 534.495 -0.657004 -0.342676 0
M  V30 5587 H 537.142 -1.9041 -0.204051 0
M  V30 5588 H 535.447 -2.93065 -2.60038 0
M  V30 5589 H 537.144 -3.24077 -2.36168 0
M  V30 5590 H 533.734 -4.10855 -1.22048 0
M  V30 5591 H 537.918 -4.91801 -0.666775 0
M  V30 5592 H 533.174 -6.11338 0.087081 0
M  V30 5593 H 537.348 -6.93503 0.634538 0
M  V30 5594 H 534.975 -7.5336 1.01746 0
M  V30 5595 N 536.55 0.480323 -1.50102 0
M  V30 5596 C 537.513 1.56181 -1.6775 0
M  V30 5597 C 538.513 1.51156 -0.548503 0
M  V30 5598 O 539.703 1.5394 -0.815363 0
M  V30 5599 C 536.835 2.95823 -1.69415 0
M  V30 5600 H 538.028 1.41855 -2.6423 0
M  V30 5601 H 535.581 0.70605 -1.39444 0
M  V30 5602 H 536.316 3.15604 -0.745948 0
M  V30 5603 H 536.101 3.00878 -2.51425 0
M  V30 5604 H 537.591 3.74359 -1.85054 0
M  V30 5605 N 538.028 1.39524 0.732853 0
M  V30 5606 C 539.439 1.32905 1.31122 0
M  V30 5607 C 539.79 -0.00558708 1.96199 0
M  V30 5608 O 538.915 -0.907706 1.96443 0
M  V30 5609 C 539.51 2.40704 2.38426 0
M  V30 5610 C 538.069 2.37599 2.91931 0
M  V30 5611 C 537.216 2.2248 1.65523 0
M  V30 5612 H 540.167 1.49581 0.530207 0
M  V30 5613 H 540.188 2.07616 3.18867 0
M  V30 5614 H 539.7 3.37829 1.91033 0
M  V30 5615 H 537.801 1.44119 3.43599 0
M  V30 5616 H 537.914 3.32538 3.44899 0
M  V30 5617 H 536.278 1.69691 1.8994 0
M  V30 5618 H 537.061 3.21577 1.20178 0
M  V30 5619 N 539.506 -0.963266 1.24736 0
M  V30 5620 C 540.922 -1.23273 1.01371 0
M  V30 5621 C 541.122 -1.99618 -0.274776 0
M  V30 5622 O 540.178 -2.32293 -0.989769 0
M  V30 5623 C 541.491 -2.01554 2.23152 0
M  V30 5624 C 543.039 -2.14629 2.27823 0
M  V30 5625 C 543.514 -2.96307 3.49237 0
M  V30 5626 N 545.005 -3.03887 3.49581 0
M  V30 5627 C 545.74 -3.67456 4.40186 0
M  V30 5628 N 545.236 -4.32706 5.41052 0
M  V30 5629 N 547.029 -3.64511 4.27888 0
M  V30 5630 H 539.18 -0.452294 2.07528 0
M  V30 5631 H 541.443 -0.262521 0.910926 0
M  V30 5632 H 541.149 -1.52847 3.1675 0
M  V30 5633 H 541.023 -3.02278 2.25628 0
M  V30 5634 H 543.41 -2.62537 1.34753 0
M  V30 5635 H 543.491 -1.13238 2.2937 0
M  V30 5636 H 543.135 -2.49091 4.42624 0
M  V30 5637 H 543.065 -3.97905 3.44933 0
M  V30 5638 H 545.556 -2.57477 2.76611 0
M  V30 5639 H 545.869 -4.79042 6.06415 0
M  V30 5640 H 544.214 -4.31361 5.44934 0
M  V30 5641 H 547.405 -3.12715 3.4832 0
M  V30 5642 H 547.578 -4.13768 4.98698 0
M  V30 5643 N 540.985 -1.06182 -1.16461 0
M  V30 5644 C 542.231 -0.779015 -1.87241 0
M  V30 5645 C 542.564 0.692715 -1.81425 0
M  V30 5646 O 541.839 1.5074 -1.22913 0
M  V30 5647 C 542.122 -1.2728 -3.36856 0
M  V30 5648 C 541.975 -2.80821 -3.51368 0
M  V30 5649 C 543.294 -0.879799 -4.31216 0
M  V30 5650 H 540.413 -0.284464 -0.679889 0
M  V30 5651 H 543.055 -1.31755 -1.36896 0
M  V30 5652 H 541.205 -0.814673 -3.79862 0
M  V30 5653 H 542.877 -3.34833 -3.17308 0
M  V30 5654 H 541.12 -3.19606 -2.93316 0
M  V30 5655 H 541.791 -3.10435 -4.56436 0
M  V30 5656 H 544.267 -1.27436 -3.96105 0
M  V30 5657 H 543.143 -1.25278 -5.34412 0
M  V30 5658 H 543.404 0.215372 -4.41575 0
M  V30 5659 N 542.463 1.3308 -0.844243 0
M  V30 5660 C 543.874 1.7992 -0.498566 0
M  V30 5661 C 544.225 1.69808 0.982834 0
M  V30 5662 O 543.35 1.25051 1.7661 0
M  V30 5663 C 543.945 3.26677 -0.898204 0
M  V30 5664 C 542.504 3.71513 -0.604583 0
M  V30 5665 C 541.651 2.54393 -1.10362 0
M  V30 5666 H 544.602 1.20526 -1.03244 0
M  V30 5667 H 544.623 3.79918 -0.21039 0
M  V30 5668 H 544.135 3.34004 -1.97643 0
M  V30 5669 H 542.236 3.69708 0.46335 0
M  V30 5670 H 542.349 4.64755 -1.16358 0
M  V30 5671 H 540.713 2.49246 -0.524273 0
M  V30 5672 H 541.496 2.6448 -2.18873 0
M  V30 5673 N 543.941 0.601185 1.45683 0
M  V30 5674 C 545.169 0.100054 2.06658 0
M  V30 5675 C 545.584 -1.21285 1.44691 0
M  V30 5676 O 544.941 -1.73735 0.558772 0
M  V30 5677 C 544.992 -0.0528579 3.61461 0
M  V30 5678 O 544.713 1.20809 4.21114 0
M  V30 5679 C 546.214 -0.586193 4.39407 0
M  V30 5680 H 543.434 0.065905 0.667756 0
M  V30 5681 H 545.978 0.827101 1.87028 0
M  V30 5682 H 544.133 -0.730203 3.80456 0
M  V30 5683 H 544.547 1.03368 5.14213 0
M  V30 5684 H 546.021 -0.642297 5.4825 0
M  V30 5685 H 546.498 -1.60713 4.0874 0
M  V30 5686 H 547.104 0.0568935 4.25262 0
M  V30 5687 N 545.419 -1.53889 0.339982 0
M  V30 5688 C 546.659 -2.02765 -0.258011 0
M  V30 5689 C 547.023 -1.22249 -1.48051 0
M  V30 5690 O 548.224 -1.61007 -2.15245 0
M  V30 5691 C 546.495 -3.5286 -0.567872 0
M  V30 5692 S 548.054 -4.23647 -1.14318 0
M  V30 5693 H 544.872 -0.706814 -0.0770389 0
M  V30 5694 H 547.474 -1.89594 0.476917 0
M  V30 5695 H 546.178 -4.09073 0.329745 0
M  V30 5696 H 545.709 -3.70144 -1.33256 0
M  V30 5697 H 547.724 -4.32676 -2.42911 0
M  V30 5698 N 546.897 -0.0685191 -1.57451 0
M  V30 5699 C 547.83 0.935736 -2.08133 0
M  V30 5700 C 548.808 1.29317 -0.985698 0
M  V30 5701 O 549.992 1.40304 -1.25886 0
M  V30 5702 C 547.119 2.2448 -2.53627 0
M  V30 5703 C 546.165 2.03917 -3.74593 0
M  V30 5704 S 546.998 1.30154 -5.19442 0
M  V30 5705 C 548.154 2.62346 -5.68265 0
M  V30 5706 H 548.387 0.504473 -2.92989 0
M  V30 5707 H 545.92 0.144169 -1.53725 0
M  V30 5708 H 547.878 2.99718 -2.80499 0
M  V30 5709 H 546.539 2.64731 -1.69045 0
M  V30 5710 H 545.732 3.00788 -4.04404 0
M  V30 5711 H 545.334 1.36815 -3.48077 0
M  V30 5712 H 547.626 3.58448 -5.7491 0
M  V30 5713 H 548.569 2.3715 -6.67207 0
M  V30 5714 H 548.977 2.69401 -4.96068 0
M  V30 5715 N 548.375 1.56261 0.205012 0
M  V30 5716 C 549.624 1.79236 0.925058 0
M  V30 5717 C 549.937 0.640011 1.84833 0
M  V30 5718 O 551.143 0.753809 2.60826 0
M  V30 5719 C 549.599 3.17475 1.69522 0
M  V30 5720 C 549.207 4.40482 0.817269 0
M  V30 5721 C 550.951 3.49766 2.4055 0
M  V30 5722 C 548.858 5.69744 1.58573 0
M  V30 5723 H 547.788 0.668287 0.349153 0
M  V30 5724 H 550.439 1.82629 0.178544 0
M  V30 5725 H 548.821 3.08304 2.48526 0
M  V30 5726 H 549.995 4.60752 0.0665988 0
M  V30 5727 H 548.31 4.15827 0.218316 0
M  V30 5728 H 550.907 4.43573 2.98575 0
M  V30 5729 H 551.25 2.73041 3.14252 0
M  V30 5730 H 551.783 3.60341 1.68522 0
M  V30 5731 H 548.522 6.49407 0.891679 0
M  V30 5732 H 548.042 5.53509 2.31059 0
M  V30 5733 H 549.721 6.1051 2.14212 0
M  V30 5734 N 549.853 -0.472356 1.50355 0
M  V30 5735 C 551.1 -1.22453 1.61281 0
M  V30 5736 C 551.428 -1.91972 0.31256 0
M  V30 5737 O 550.683 -1.82696 -0.701475 0
M  V30 5738 C 550.982 -2.29257 2.74182 0
M  V30 5739 C 550.648 -1.76999 4.14708 0
M  V30 5740 C 549.31 -1.62467 4.52944 0
M  V30 5741 C 551.662 -1.38215 5.0254 0
M  V30 5742 C 548.99 -1.07574 5.76754 0
M  V30 5743 C 551.342 -0.847638 6.26895 0
M  V30 5744 C 550.006 -0.688946 6.63935 0
M  V30 5745 H 549.276 -0.448087 0.590168 0
M  V30 5746 H 551.923 -0.520744 1.84284 0
M  V30 5747 H 550.228 -3.05538 2.45263 0
M  V30 5748 H 551.925 -2.87212 2.7984 0
M  V30 5749 H 548.515 -1.89276 3.84542 0
M  V30 5750 H 552.699 -1.48276 4.73633 0
M  V30 5751 H 547.955 -0.940237 6.04127 0
M  V30 5752 H 552.129 -0.538455 6.94315 0
M  V30 5753 H 549.756 -0.261435 7.5975 0
M  V30 5754 N 551.331 -1.39911 -0.725443 0
M  V30 5755 C 552.58 -1.36963 -1.48068 0
M  V30 5756 C 552.893 0.0284478 -1.95579 0
M  V30 5757 O 554.099 0.180535 -2.70899 0
M  V30 5758 C 552.555 -2.40664 -2.67598 0
M  V30 5759 C 552.163 -3.86234 -2.26997 0
M  V30 5760 C 553.907 -2.46807 -3.45379 0
M  V30 5761 C 551.814 -4.81554 -3.43307 0
M  V30 5762 H 550.744 -0.509223 -0.556065 0
M  V30 5763 H 553.395 -1.65602 -0.790454 0
M  V30 5764 H 551.777 -2.05109 -3.38742 0
M  V30 5765 H 552.951 -4.3088 -1.63337 0
M  V30 5766 H 551.266 -3.83475 -1.62284 0
M  V30 5767 H 553.863 -3.15213 -4.31909 0
M  V30 5768 H 554.206 -1.49552 -3.8851 0
M  V30 5769 H 554.739 -2.81303 -2.81271 0
M  V30 5770 H 551.478 -5.80106 -3.05217 0
M  V30 5771 H 550.998 -4.4158 -4.05915 0
M  V30 5772 H 552.677 -5.0091 -4.0951 0
M  V30 5773 N 552.809 0.956637 -1.25245 0
M  V30 5774 C 554.22 1.51569 -1.09012 0
M  V30 5775 C 554.571 1.93322 0.334813 0
M  V30 5776 O 553.696 1.78421 1.22454 0
M  V30 5777 C 554.291 2.75444 -1.97271 0
M  V30 5778 C 552.85 3.27669 -1.8523 0
M  V30 5779 C 551.997 2.00517 -1.91542 0
M  V30 5780 H 554.948 0.773746 -1.3856 0
M  V30 5781 H 554.969 3.4919 -1.51151 0
M  V30 5782 H 554.481 2.45024 -3.00973 0
M  V30 5783 H 552.582 3.62914 -0.844045 0
M  V30 5784 H 552.695 3.9582 -2.69932 0
M  V30 5785 H 551.059 2.15727 -1.35404 0
M  V30 5786 H 551.842 1.72448 -2.96844 0
M  V30 5787 N 554.287 1.06798 1.15896 0
M  V30 5788 C 555.512 0.808739 1.90982 0
M  V30 5789 C 555.937 -0.6316 1.77179 0
M  V30 5790 O 555.295 -1.4407 1.10061 0
M  V30 5791 C 555.343 1.21468 3.39526 0
M  V30 5792 O 554.447 0.356562 4.10856 0
M  V30 5793 H 553.788 0.29512 0.594811 0
M  V30 5794 H 556.318 1.42513 1.46804 0
M  V30 5795 H 556.328 1.18844 3.90308 0
M  V30 5796 H 555.003 2.26379 3.48891 0
M  V30 5797 H 553.58 0.444808 3.70238 0
M  V30 5798 N 555.766 -1.3263 0.851289 0
M  V30 5799 C 557.015 -1.96633 0.449267 0
M  V30 5800 C 557.328 -1.68131 -0.999562 0
M  V30 5801 O 558.534 -2.25845 -1.50685 0
M  V30 5802 C 556.99 -3.51946 0.752446 0
M  V30 5803 C 556.598 -3.89311 2.21678 0
M  V30 5804 C 558.342 -4.22437 0.417983 0
M  V30 5805 C 556.249 -5.37655 2.46336 0
M  V30 5806 H 555.179 -0.735888 0.164269 0
M  V30 5807 H 557.83 -1.51073 1.0416 0
M  V30 5808 H 556.212 -3.95899 0.0895858 0
M  V30 5809 H 557.386 -3.56378 2.92115 0
M  V30 5810 H 555.701 -3.31836 2.51543 0
M  V30 5811 H 558.298 -5.31549 0.579674 0
M  V30 5812 H 558.641 -4.11349 -0.640115 0
M  V30 5813 H 559.174 -3.84057 1.03659 0
M  V30 5814 H 555.913 -5.5376 3.50757 0
M  V30 5815 H 555.433 -5.72005 1.80473 0
M  V30 5816 H 557.112 -6.04695 2.30115 0
M  V30 5817 N 557.244 -0.608902 -1.45362 0
M  V30 5818 C 558.192 0.121639 -2.32282 0
M  V30 5819 C 559.186 0.858301 -1.46046 0
M  V30 5820 O 560.392 0.773718 -1.62523 0
M  V30 5821 H 556.767 0.058086 -0.749753 0
M  V30 5822 H 558.738 -0.629866 -2.91677 0
M  V30 5823 C 557.487 1.1047 -3.29684 0
M  V30 5824 H 556.81 0.547278 -3.96036 0
M  V30 5825 H 558.25 1.58576 -3.9323 0
M  V30 5826 C 556.709 2.17891 -2.56954 0
M  V30 5827 O 557.239 3.25652 -2.35189 0
M  V30 5828 N 555.445 1.93211 -2.17066 0
M  V30 5829 H 554.992 1.05584 -2.34967 0
M  V30 5830 H 554.95 2.6529 -1.68727 0
M  V30 5831 N 558.722 1.53707 -0.348139 0
M  V30 5832 C 559.97 2.00591 0.246478 0
M  V30 5833 C 560.291 1.23753 1.50699 0
M  V30 5834 O 559.561 0.345964 1.92821 0
M  V30 5835 H 558.141 0.741053 0.0940679 0
M  V30 5836 H 560.803 1.89139 -0.470354 0
M  V30 5837 H 559.899 3.08297 0.485714 0
M  V30 5838 N 560.2 0.0768682 1.57412 0
M  V30 5839 C 561.449 -0.590679 1.92857 0
M  V30 5840 C 561.762 -1.70461 0.959293 0
M  V30 5841 O 562.968 -2.43207 1.20675 0
M  V30 5842 C 561.424 -1.10204 3.42612 0
M  V30 5843 C 561.032 -0.0188447 4.47996 0
M  V30 5844 C 562.776 -1.74336 3.87049 0
M  V30 5845 C 560.683 -0.544536 5.88888 0
M  V30 5846 H 559.613 -0.224411 0.71983 0
M  V30 5847 H 562.264 0.149924 1.82887 0
M  V30 5848 H 560.646 -1.89577 3.47673 0
M  V30 5849 H 561.82 0.755936 4.54557 0
M  V30 5850 H 560.135 0.526555 4.13057 0
M  V30 5851 H 562.732 -2.14708 4.89699 0
M  V30 5852 H 563.075 -2.60537 3.24694 0
M  V30 5853 H 563.608 -1.01577 3.84613 0
M  V30 5854 H 560.347 0.280426 6.549 0
M  V30 5855 H 559.867 -1.28673 5.85836 0
M  V30 5856 H 561.546 -1.01933 6.3892 0
M  V30 5857 N 561.678 -1.56367 -0.196722 0
M  V30 5858 C 562.903 -1.84991 -0.937714 0
M  V30 5859 C 563.328 -0.660244 -1.76132 0
M  V30 5860 O 562.686 0.390967 -1.77034 0
M  V30 5861 C 562.734 -3.11828 -1.81096 0
M  V30 5862 O 561.838 -2.92266 -2.90955 0
M  V30 5863 H 561.179 -0.609193 -0.264159 0
M  V30 5864 H 563.709 -2.03595 -0.202529 0
M  V30 5865 H 563.719 -3.42579 -2.21594 0
M  V30 5866 H 562.394 -3.98037 -1.2058 0
M  V30 5867 H 560.971 -2.72809 -2.54224 0
M  V30 5868 N 563.156 0.464375 -1.50603 0
M  V30 5869 C 564.106 1.55929 -1.66343 0
M  V30 5870 C 565.09 1.52338 -0.517887 0
M  V30 5871 O 566.282 1.59248 -0.772601 0
M  V30 5872 C 563.411 2.94327 -1.7671 0
M  V30 5873 C 562.497 3.02777 -2.96962 0
M  V30 5874 N 562.888 2.81026 -4.20545 0
M  V30 5875 C 561.186 3.33919 -2.95659 0
M  V30 5876 C 561.887 2.94618 -5.01573 0
M  V30 5877 N 560.863 3.25112 -4.35664 0
M  V30 5878 H 564.665 1.37822 -2.59581 0
M  V30 5879 H 562.179 0.671227 -1.47879 0
M  V30 5880 H 564.176 3.73063 -1.86091 0
M  V30 5881 H 562.836 3.13476 -0.846353 0
M  V30 5882 H 563.847 2.56477 -4.49933 0
M  V30 5883 H 560.524 3.59013 -2.13111 0
M  V30 5884 H 561.914 2.81984 -6.09865 0
M  V30 5885 N 564.634 1.40294 0.718013 0
M  V30 5886 C 565.582 1.40536 1.85344 0
M  V30 5887 C 566.576 0.286192 1.66965 0
M  V30 5888 O 567.782 0.457105 1.74099 0
M  V30 5889 H 564.157 0.439236 0.61039 0
M  V30 5890 H 566.128 2.36275 1.82255 0
M  V30 5891 C 564.877 1.28245 3.23185 0
M  V30 5892 H 564.2 2.1364 3.37932 0
M  V30 5893 H 565.64 1.32474 4.02774 0
M  V30 5894 C 564.099 -0.0075503 3.36899 0
M  V30 5895 O 564.629 -0.971391 3.89778 0
M  V30 5896 N 562.835 -0.0762479 2.905 0
M  V30 5897 H 562.382 0.708819 2.47656 0
M  V30 5898 H 562.34 -0.938846 3.00055 0
M  V30 5899 N 566.112 -0.949982 1.2575 0
M  V30 5900 C 567.523 -1.50989 1.09815 0
M  V30 5901 C 567.874 -1.93497 -0.324556 0
M  V30 5902 O 566.999 -1.79068 -1.21506 0
M  V30 5903 C 567.594 -2.74394 1.98729 0
M  V30 5904 C 566.153 -3.26682 1.86965 0
M  V30 5905 C 565.3 -1.99498 1.92603 0
M  V30 5906 H 568.251 -0.766387 1.38968 0
M  V30 5907 H 568.272 -3.48383 1.53001 0
M  V30 5908 H 567.784 -2.43425 3.02268 0
M  V30 5909 H 565.885 -3.62461 0.863279 0
M  V30 5910 H 565.998 -3.94383 2.72027 0
M  V30 5911 H 564.362 -2.15005 1.36546 0
M  V30 5912 H 565.145 -1.70871 2.97755 0
M  V30 5913 N 567.59 -1.07411 -1.15328 0
M  V30 5914 C 568.553 -0.698914 -2.18284 0
M  V30 5915 C 569.553 0.261149 -1.58665 0
M  V30 5916 O 570.743 0.0420277 -1.74149 0
M  V30 5917 C 567.875 -0.0302427 -3.40887 0
M  V30 5918 H 569.068 -1.61045 -2.52991 0
M  V30 5919 H 566.621 -0.870724 -1.298 0
M  V30 5920 H 567.356 0.893505 -3.11748 0
M  V30 5921 H 567.141 -0.720759 -3.85419 0
M  V30 5922 H 568.631 0.21759 -4.17033 0
M  V30 5923 N 569.068 1.32177 -0.85831 0
M  V30 5924 C 569.978 2.32561 -0.308606 0
M  V30 5925 C 570.994 1.64209 0.575462 0
M  V30 5926 O 572.17 1.95719 0.474961 0
M  V30 5927 C 569.235 3.43207 0.490909 0
M  V30 5928 C 568.296 4.27243 -0.419733 0
M  V30 5929 C 567.529 5.32605 0.341719 0
M  V30 5930 O 567.752 5.48332 1.57125 0
M  V30 5931 O 566.686 6.0118 -0.294379 0
M  V30 5932 H 570.512 2.81477 -1.14037 0
M  V30 5933 H 568.097 1.35866 -0.621349 0
M  V30 5934 H 569.979 4.10677 0.944574 0
M  V30 5935 H 568.654 2.96474 1.29941 0
M  V30 5936 H 567.561 3.62569 -0.921652 0
M  V30 5937 H 568.894 4.7751 -1.19352 0
M  V30 5938 N 570.547 0.616602 1.45037 0
M  V30 5939 C 571.963 0.280994 1.57107 0
M  V30 5940 C 572.163 -1.21627 1.60653 0
M  V30 5941 O 571.219 -1.9997 1.54169 0
M  V30 5942 C 572.532 0.960116 2.8496 0
M  V30 5943 C 574.08 0.936884 2.98649 0
M  V30 5944 C 574.555 1.59619 4.29285 0
M  V30 5945 N 576.046 1.5621 4.36065 0
M  V30 5946 C 576.781 2.04131 5.35834 0
M  V30 5947 N 576.277 2.60177 6.4209 0
M  V30 5948 N 578.07 1.94845 5.27249 0
M  V30 5949 H 570.221 1.58867 1.40979 0
M  V30 5950 H 572.484 0.666024 0.674623 0
M  V30 5951 H 572.19 2.01473 2.88273 0
M  V30 5952 H 572.064 0.488921 3.74018 0
M  V30 5953 H 574.451 -0.109209 2.94898 0
M  V30 5954 H 574.532 1.44643 2.10979 0
M  V30 5955 H 574.176 2.64166 4.33796 0
M  V30 5956 H 574.106 1.06159 5.15789 0
M  V30 5957 H 576.597 1.15276 3.59889 0
M  V30 5958 H 576.91 2.94513 7.1448 0
M  V30 5959 H 575.255 2.64221 6.42816 0
M  V30 5960 H 578.446 1.50792 4.43147 0
M  V30 5961 H 578.619 2.32504 6.04852 0
M  V30 5962 N 572.025 -1.5352 0.356285 0
M  V30 5963 C 573.253 -2.05534 -0.237328 0
M  V30 5964 C 573.668 -1.23043 -1.43199 0
M  V30 5965 O 573.025 -0.268821 -1.80509 0
M  V30 5966 C 573.076 -3.55791 -0.639933 0
M  V30 5967 O 572.797 -4.35154 0.507233 0
M  V30 5968 C 574.298 -4.24027 -1.29292 0
M  V30 5969 H 571.518 -0.669585 -0.0435572 0
M  V30 5970 H 574.062 -1.97988 0.511963 0
M  V30 5971 H 572.217 -3.63518 -1.33915 0
M  V30 5972 H 572.631 -5.24178 0.18375 0
M  V30 5973 H 574.105 -5.30509 -1.52527 0
M  V30 5974 H 574.582 -3.77166 -2.25039 0
M  V30 5975 H 575.188 -4.20527 -0.63539 0
M  V30 5976 N 573.503 -0.0852151 -1.57369 0
M  V30 5977 C 574.451 0.894856 -2.14698 0
M  V30 5978 C 575.445 1.29903 -1.08727 0
M  V30 5979 O 576.651 1.27471 -1.27088 0
M  V30 5980 H 573.026 0.306569 -0.686673 0
M  V30 5981 H 574.997 0.386542 -2.95886 0
M  V30 5982 C 573.746 2.14798 -2.73417 0
M  V30 5983 H 573.069 1.84585 -3.54638 0
M  V30 5984 H 574.509 2.81456 -3.1711 0
M  V30 5985 C 572.968 2.91546 -1.68828 0
M  V30 5986 O 573.498 3.85733 -1.12129 0
M  V30 5987 N 571.704 2.54901 -1.39549 0
M  V30 5988 H 571.251 1.7838 -1.85845 0
M  V30 5989 H 571.209 3.06553 -0.698054 0
M  V30 5990 N 574.981 1.5647 0.188427 0
M  V30 5991 C 576.23 1.80207 0.905995 0
M  V30 5992 C 576.543 0.659579 1.84144 0
M  V30 5993 O 577.749 0.781431 2.60011 0
M  V30 5994 C 576.205 3.19255 1.66145 0
M  V30 5995 C 575.813 4.41324 0.770504 0
M  V30 5996 C 577.557 3.52298 2.36826 0
M  V30 5997 C 575.464 5.71394 1.52521 0
M  V30 5998 H 574.394 0.671953 0.342045 0
M  V30 5999 H 577.045 1.82808 0.159164 0
M  V30 6000 H 575.427 3.10922 2.45242 0
M  V30 6001 H 576.601 4.60797 0.0177261 0
M  V30 6002 H 574.916 4.16035 0.174199 0
M  V30 6003 H 577.513 4.46715 2.93854 0
M  V30 6004 H 577.856 2.76359 3.11338 0
M  V30 6005 H 578.389 3.62108 1.6469 0
M  V30 6006 H 575.128 6.50316 0.82275 0
M  V30 6007 H 574.648 5.55928 2.25175 0
M  V30 6008 H 576.327 6.12747 2.07725 0
M  V30 6009 N 576.459 -0.456382 1.50847 0
M  V30 6010 C 577.687 -1.23026 1.66349 0
M  V30 6011 C 578.102 -1.85473 0.352868 0
M  V30 6012 O 577.459 -1.69885 -0.666739 0
M  V30 6013 C 577.51 -2.32827 2.76539 0
M  V30 6014 O 577.231 -1.72938 4.02522 0
M  V30 6015 C 578.732 -3.23448 3.03144 0
M  V30 6016 H 575.952 -0.371527 0.558756 0
M  V30 6017 H 578.496 -0.543082 1.97157 0
M  V30 6018 H 576.651 -2.97294 2.48384 0
M  V30 6019 H 577.065 -2.45357 4.63573 0
M  V30 6020 H 578.539 -3.96669 3.83872 0
M  V30 6021 H 579.016 -3.83094 2.14793 0
M  V30 6022 H 579.622 -2.64702 3.32886 0
M  V30 6023 N 577.937 -1.40673 -0.710563 0
M  V30 6024 C 579.214 -1.29718 -1.46398 0
M  V30 6025 C 579.594 0.082177 -2.1094 0
M  V30 6026 O 578.942 1.09536 -2.00534 0
M  V30 6027 C 579.152 -2.43967 -2.49562 0
M  V30 6028 C 580.5 -2.84436 -3.15248 0
M  V30 6029 O 581.524 -2.43597 -2.59883 0
M  V30 6030 O 580.383 -3.55008 -4.1549 0
M  V30 6031 H 577.477 -0.509697 -0.651258 0
M  V30 6032 H 580.023 -1.52603 -0.742312 0
M  V30 6033 H 578.795 -3.36076 -2.0042 0
M  V30 6034 H 578.418 -2.22879 -3.29258 0
M  V30 6035 N 579.415 0.9433 -1.26252 0
M  V30 6036 C 580.345 2.05902 -1.10122 0
M  V30 6037 C 581.326 1.70099 -0.00700552 0
M  V30 6038 O 582.511 1.93377 -0.178641 0
M  V30 6039 C 579.641 3.39516 -0.731175 0
M  V30 6040 C 578.595 3.89372 -1.77688 0
M  V30 6041 C 577.921 5.19613 -1.26122 0
M  V30 6042 C 579.221 4.14489 -3.17799 0
M  V30 6043 H 580.915 2.19655 -2.03451 0
M  V30 6044 H 578.461 1.05548 -0.979576 0
M  V30 6045 H 580.414 4.17031 -0.605215 0
M  V30 6046 H 579.138 3.25733 0.23782 0
M  V30 6047 H 577.797 3.14036 -1.89148 0
M  V30 6048 H 577.445 5.02208 -0.282128 0
M  V30 6049 H 577.145 5.53939 -1.96023 0
M  V30 6050 H 578.669 5.99713 -1.14789 0
M  V30 6051 H 580.083 4.82625 -3.09428 0
M  V30 6052 H 578.48 4.60094 -3.85271 0
M  V30 6053 H 579.55 3.20347 -3.64014 0
M  V30 6054 N 580.893 1.08022 1.14757 0
M  V30 6055 C 581.856 0.71048 2.1791 0
M  V30 6056 C 582.856 -0.252731 1.58801 0
M  V30 6057 O 584.046 -0.0327915 1.74169 0
M  V30 6058 C 581.178 0.0483203 3.40866 0
M  V30 6059 H 582.371 1.62384 2.52134 0
M  V30 6060 H 579.924 0.877595 1.29337 0
M  V30 6061 H 580.659 -0.876959 3.12218 0
M  V30 6062 H 580.444 0.741189 3.85031 0
M  V30 6063 H 581.934 -0.195471 4.17142 0
M  V30 6064 N 582.371 -1.3172 0.865308 0
M  V30 6065 C 583.281 -2.32394 0.320935 0
M  V30 6066 C 584.297 -1.64511 -0.566746 0
M  V30 6067 O 585.473 -1.95969 -0.464575 0
M  V30 6068 C 582.538 -3.43462 -0.472701 0
M  V30 6069 C 581.599 -4.27015 0.442385 0
M  V30 6070 C 580.832 -5.32779 -0.313469 0
M  V30 6071 O 581.055 -5.49158 -1.54214 0
M  V30 6072 O 579.989 -6.01015 0.326257 0
M  V30 6073 H 583.815 -2.80868 1.15528 0
M  V30 6074 H 581.4 -1.35535 0.628545 0
M  V30 6075 H 583.282 -4.11172 -0.922781 0
M  V30 6076 H 581.957 -2.97159 -1.28367 0
M  V30 6077 H 580.864 -3.62075 0.940866 0
M  V30 6078 H 582.197 -4.76871 1.21882 0
M  V30 6079 N 583.85 -0.624285 -1.44708 0
M  V30 6080 C 585.098 -0.125802 -2.01708 0
M  V30 6081 C 585.418 1.2543 -1.49306 0
M  V30 6082 O 584.689 1.83198 -0.693924 0
M  V30 6083 H 583.269 -0.0435161 -0.745731 0
M  V30 6084 H 585.931 -0.809446 -1.77296 0
M  V30 6085 H 585.027 -0.0882734 -3.11975 0
M  V30 6086 N 585.328 1.53329 -0.364422 0
M  V30 6087 C 586.574 2.01537 0.225969 0
M  V30 6088 C 586.907 1.25128 1.48515 0
M  V30 6089 O 586.182 0.344653 1.91422 0
M  V30 6090 C 586.465 3.56339 0.519092 0
M  V30 6091 C 586.318 4.43441 -0.753639 0
M  V30 6092 C 587.637 4.19833 1.32015 0
M  V30 6093 H 584.756 0.732573 0.0806548 0
M  V30 6094 H 587.398 1.83597 -0.489084 0
M  V30 6095 H 585.548 3.71756 1.12825 0
M  V30 6096 H 587.22 4.39823 -1.39116 0
M  V30 6097 H 585.463 4.11457 -1.37424 0
M  V30 6098 H 586.134 5.49699 -0.503517 0
M  V30 6099 H 588.61 4.08242 0.804859 0
M  V30 6100 H 587.486 5.28177 1.49399 0
M  V30 6101 H 587.747 3.75821 2.32832 0
M  V30 6102 N 586.806 0.0935595 1.57322 0
M  V30 6103 C 587.753 -0.865935 2.1394 0
M  V30 6104 C 588.723 -1.28083 1.05754 0
M  V30 6105 O 589.908 -1.36285 1.33533 0
M  V30 6106 C 587.048 -2.12023 2.72287 0
M  V30 6107 C 586.161 -1.756 3.94701 0
M  V30 6108 C 585.296 -2.95804 4.41218 0
M  V30 6109 C 584.335 -2.555 5.56225 0
M  V30 6110 N 583.472 -3.68534 5.97601 0
M  V30 6111 H 588.312 -0.376261 2.95615 0
M  V30 6112 H 585.849 -0.174052 1.46067 0
M  V30 6113 H 587.807 -2.85477 3.04235 0
M  V30 6114 H 586.437 -2.58492 1.93343 0
M  V30 6115 H 585.489 -0.921208 3.69077 0
M  V30 6116 H 586.801 -1.41964 4.78171 0
M  V30 6117 H 585.955 -3.77513 4.74941 0
M  V30 6118 H 584.694 -3.32649 3.56645 0
M  V30 6119 H 583.699 -1.72218 5.22131 0
M  V30 6120 H 584.924 -2.19801 6.42545 0
M  V30 6121 H 582.87 -4.051 5.15974 0
M  V30 6122 H 582.787 -3.38737 6.75865 0
M  V30 6123 H 584.055 -4.50757 6.35955 0
M  V30 6124 N 588.284 -1.56567 -0.180126 0
M  V30 6125 C 589.512 -1.85618 -0.913972 0
M  V30 6126 C 589.927 -0.677892 -1.7621 0
M  V30 6127 O 589.284 0.353171 -1.7905 0
M  V30 6128 C 589.335 -3.13619 -1.79793 0
M  V30 6129 O 589.056 -4.26906 -0.98402 0
M  V30 6130 C 590.557 -3.55954 -2.64219 0
M  V30 6131 H 587.777 -0.616043 -0.265954 0
M  V30 6132 H 590.321 -2.03681 -0.182872 0
M  V30 6133 H 588.476 -2.97409 -2.48247 0
M  V30 6134 H 588.89 -4.9989 -1.58776 0
M  V30 6135 H 590.364 -4.48444 -3.21873 0
M  V30 6136 H 590.841 -2.79653 -3.38661 0
M  V30 6137 H 591.447 -3.74746 -2.01111 0
M  V30 6138 N 589.762 0.448376 -1.51087 0
M  V30 6139 C 590.692 1.55102 -1.74544 0
M  V30 6140 C 591.673 1.59357 -0.594932 0
M  V30 6141 O 592.858 1.75261 -0.836491 0
M  V30 6142 C 589.988 2.93268 -1.86041 0
M  V30 6143 C 588.942 3.03877 -3.01402 0
M  V30 6144 C 588.268 4.43914 -2.98068 0
M  V30 6145 C 589.568 2.7898 -4.41551 0
M  V30 6146 H 591.262 1.35724 -2.66869 0
M  V30 6147 H 588.808 0.651498 -1.28419 0
M  V30 6148 H 590.761 3.70356 -2.01034 0
M  V30 6149 H 589.485 3.13853 -0.903548 0
M  V30 6150 H 588.144 2.29227 -2.86096 0
M  V30 6151 H 587.792 4.6145 -2.00182 0
M  V30 6152 H 587.492 4.51944 -3.75527 0
M  V30 6153 H 589.016 5.22991 -3.1514 0
M  V30 6154 H 590.43 3.45805 -4.57265 0
M  V30 6155 H 588.827 2.98431 -5.20633 0
M  V30 6156 H 589.897 1.74663 -4.5235 0
M  V30 6157 N 591.24 1.41047 0.703093 0
M  V30 6158 C 592.203 1.42036 1.79884 0
M  V30 6159 C 593.203 0.312153 1.57741 0
M  V30 6160 O 594.393 0.571672 1.64553 0
M  V30 6161 C 591.525 1.22437 3.18154 0
M  V30 6162 H 592.718 2.39572 1.80403 0
M  V30 6163 H 590.271 1.27079 0.909977 0
M  V30 6164 H 591.006 0.257112 3.23279 0
M  V30 6165 H 590.791 2.02723 3.35627 0
M  V30 6166 H 592.281 1.25946 3.98155 0
M  V30 6167 N 592.718 -0.936591 1.26751 0
M  V30 6168 C 593.648 -2.05315 1.11212 0
M  V30 6169 C 594.629 -1.70092 0.0160262 0
M  V30 6170 O 595.814 -1.93279 0.188894 0
M  V30 6171 C 592.944 -3.39123 0.749171 0
M  V30 6172 C 591.898 -3.88425 1.79751 0
M  V30 6173 C 591.224 -5.18936 1.28876 0
M  V30 6174 C 592.524 -4.12798 3.19992 0
M  V30 6175 H 594.218 -2.18573 2.04613 0
M  V30 6176 H 591.764 -1.05027 0.985159 0
M  V30 6177 H 593.717 -4.16704 0.627323 0
M  V30 6178 H 592.441 -3.25855 -0.220543 0
M  V30 6179 H 591.1 -3.13028 1.90811 0
M  V30 6180 H 590.748 -5.02051 0.308757 0
M  V30 6181 H 590.448 -5.52892 1.98958 0
M  V30 6182 H 591.972 -5.99096 1.17967 0
M  V30 6183 H 593.386 -4.80977 3.11983 0
M  V30 6184 H 591.783 -4.58044 3.87705 0
M  V30 6185 H 592.853 -3.18412 3.65707 0
M  V30 6186 N 594.196 -1.08629 -1.14182 0
M  V30 6187 C 595.129 -0.662329 -2.18377 0
M  V30 6188 C 596.107 0.327054 -1.59277 0
M  V30 6189 O 597.291 0.230376 -1.87087 0
M  V30 6190 C 594.418 0.0254765 -3.3869 0
M  V30 6191 C 593.464 -0.924414 -4.16361 0
M  V30 6192 S 594.297 -2.43226 -4.77076 0
M  V30 6193 C 595.453 -1.75663 -6.00744 0
M  V30 6194 H 595.686 -1.54501 -2.54001 0
M  V30 6195 H 593.219 -0.901484 -1.2535 0
M  V30 6196 H 595.177 0.416032 -4.08386 0
M  V30 6197 H 593.838 0.884689 -3.01384 0
M  V30 6198 H 593.031 -0.390099 -5.02488 0
M  V30 6199 H 592.633 -1.25598 -3.5228 0
M  V30 6200 H 594.925 -1.07589 -6.68903 0
M  V30 6201 H 595.868 -2.59673 -6.58768 0
M  V30 6202 H 596.276 -1.22903 -5.50958 0
M  V30 6203 N 595.674 1.31259 -0.872281 0
M  V30 6204 C 596.604 2.30929 -0.345554 0
M  V30 6205 C 597.585 1.60449 0.5648 0
M  V30 6206 O 598.77 1.8814 0.481335 0
M  V30 6207 C 595.9 3.44348 0.451823 0
M  V30 6208 C 594.854 4.26435 -0.365641 0
M  V30 6209 C 594.18 5.31785 0.557562 0
M  V30 6210 C 595.48 4.97159 -1.60095 0
M  V30 6211 H 597.174 2.75234 -1.17841 0
M  V30 6212 H 594.72 1.3232 -0.568094 0
M  V30 6213 H 596.673 4.13128 0.830854 0
M  V30 6214 H 595.397 2.98816 1.31821 0
M  V30 6215 H 594.056 3.59326 -0.726649 0
M  V30 6216 H 593.704 4.82502 1.4213 0
M  V30 6217 H 593.404 5.87598 0.0144878 0
M  V30 6218 H 594.928 6.03424 0.933387 0
M  V30 6219 H 596.342 5.58523 -1.29323 0
M  V30 6220 H 594.739 5.62779 -2.08327 0
M  V30 6221 H 595.809 4.24012 -2.35249 0
M  V30 6222 N 597.152 0.631951 1.44375 0
M  V30 6223 C 598.382 0.143658 2.061 0
M  V30 6224 C 598.79 -1.18733 1.47306 0
M  V30 6225 O 598.133 -1.73943 0.590724 0
M  V30 6226 C 598.195 -0.0446102 3.59472 0
M  V30 6227 C 597.859 1.20835 4.40736 0
M  V30 6228 C 598.856 2.13224 4.74164 0
M  V30 6229 C 596.541 1.44399 4.81097 0
M  V30 6230 C 598.535 3.27487 5.46838 0
M  V30 6231 C 596.222 2.58959 5.53519 0
M  V30 6232 C 597.22 3.50329 5.86309 0
M  V30 6233 O 596.908 4.62891 6.57257 0
M  V30 6234 H 596.64 0.0772939 0.671567 0
M  V30 6235 H 599.194 0.866677 1.8622 0
M  V30 6236 H 597.424 -0.822783 3.77845 0
M  V30 6237 H 599.113 -0.487561 4.02961 0
M  V30 6238 H 599.879 1.96253 4.4352 0
M  V30 6239 H 595.758 0.741696 4.54994 0
M  V30 6240 H 599.302 3.98826 5.72349 0
M  V30 6241 H 595.199 2.75873 5.83579 0
M  V30 6242 H 595.967 4.61883 6.75726 0
M  V30 6243 N 598.631 -1.53133 0.372548 0
M  V30 6244 C 599.563 -2.23557 -0.505444 0
M  V30 6245 C 600.576 -1.25211 -1.04049 0
M  V30 6246 O 601.765 -1.51391 -0.945675 0
M  V30 6247 C 598.865 -2.92516 -1.71136 0
M  V30 6248 C 598.038 -4.17428 -1.30661 0
M  V30 6249 C 597.097 -4.69535 -2.37536 0
M  V30 6250 O 596.123 -5.33042 -1.99637 0
M  V30 6251 N 597.325 -4.47947 -3.6922 0
M  V30 6252 H 600.09 -2.9954 0.0978259 0
M  V30 6253 H 597.651 -1.60684 0.198068 0
M  V30 6254 H 599.643 -3.24281 -2.42124 0
M  V30 6255 H 598.213 -2.19944 -2.22134 0
M  V30 6256 H 597.433 -3.91888 -0.426292 0
M  V30 6257 H 598.721 -4.98622 -1.01259 0
M  V30 6258 H 598.119 -3.97219 -4.02783 0
M  V30 6259 H 596.676 -4.84245 -4.36292 0
M  V30 6260 N 600.109 -0.101901 -1.5727 0
M  V30 6261 C 601.039 0.851544 -2.17419 0
M  V30 6262 C 602.02 1.28942 -1.10941 0
M  V30 6263 O 603.205 1.35509 -1.39107 0
M  V30 6264 C 600.335 2.10816 -2.75996 0
M  V30 6265 C 599.289 1.80867 -3.87906 0
M  V30 6266 C 598.615 3.13413 -4.33216 0
M  V30 6267 C 599.915 1.0903 -5.10793 0
M  V30 6268 H 601.609 0.350381 -2.97343 0
M  V30 6269 H 599.155 0.16709 -1.43027 0
M  V30 6270 H 601.108 2.77959 -3.16729 0
M  V30 6271 H 599.832 2.63227 -1.93337 0
M  V30 6272 H 598.491 1.16119 -3.47724 0
M  V30 6273 H 598.139 3.63725 -3.47438 0
M  V30 6274 H 597.839 2.94155 -5.08671 0
M  V30 6275 H 599.363 3.81704 -4.76586 0
M  V30 6276 H 600.777 1.66295 -5.48652 0
M  V30 6277 H 599.174 0.99927 -5.91722 0
M  V30 6278 H 600.244 0.0741704 -4.84843 0
M  V30 6279 N 601.587 1.56661 0.17182 0
M  V30 6280 C 602.55 1.9549 1.19651 0
M  V30 6281 C 603.55 0.838501 1.37207 0
M  V30 6282 O 604.74 1.10556 1.34622 0
M  V30 6283 C 601.872 2.24927 2.56166 0
M  V30 6284 H 603.065 2.87184 0.864007 0
M  V30 6285 H 600.618 1.50711 0.41425 0
M  V30 6286 H 601.353 1.35944 2.94431 0
M  V30 6287 H 601.138 3.06301 2.4479 0
M  V30 6288 H 602.628 2.55891 3.30014 0
M  V30 6289 N 603.065 -0.440357 1.51323 0
M  V30 6290 C 604.311 -1.18874 1.65047 0
M  V30 6291 C 604.666 -1.88988 0.360742 0
M  V30 6292 O 603.959 -1.80479 -0.643272 0
M  V30 6293 C 604.153 -2.2339 2.78984 0
M  V30 6294 C 603.982 -1.63534 4.18911 0
M  V30 6295 C 602.752 -1.42158 4.84891 0
M  V30 6296 C 604.95 -1.11324 5.02107 0
M  V30 6297 N 602.932 -0.778679 6.08942 0
M  V30 6298 C 604.303 -0.595421 6.17134 0
M  V30 6299 C 606.358 -1.00471 4.87658 0
M  V30 6300 C 605.061 0.0202557 7.19297 0
M  V30 6301 C 607.087 -0.402928 5.90026 0
M  V30 6302 C 606.449 0.10436 7.04323 0
M  V30 6303 H 602.548 -0.422771 0.657866 0
M  V30 6304 H 605.132 -0.485814 1.88542 0
M  V30 6305 H 603.303 -2.91074 2.57158 0
M  V30 6306 H 605.035 -2.90366 2.81904 0
M  V30 6307 H 601.79 -1.68247 4.42707 0
M  V30 6308 H 602.214 -0.474755 6.75333 0
M  V30 6309 H 606.856 -1.38278 3.99548 0
M  V30 6310 H 604.574 0.410468 8.07057 0
M  V30 6311 H 608.16 -0.320897 5.80914 0
M  V30 6312 H 607.04 0.562697 7.82179 0
M  V30 6313 N 604.543 -1.41418 -0.695603 0
M  V30 6314 C 605.475 -1.39195 -1.82092 0
M  V30 6315 C 606.488 -0.294132 -1.60121 0
M  V30 6316 O 607.677 -0.555854 -1.69625 0
M  V30 6317 C 604.777 -1.14828 -3.18854 0
M  V30 6318 C 603.95 -2.36649 -3.67853 0
M  V30 6319 C 603.009 -2.08139 -4.83285 0
M  V30 6320 O 602.035 -2.81177 -4.94902 0
M  V30 6321 N 603.237 -1.07162 -5.70523 0
M  V30 6322 H 606.002 -2.36185 -1.84491 0
M  V30 6323 H 603.563 -1.3603 -0.877923 0
M  V30 6324 H 605.555 -0.937075 -3.93702 0
M  V30 6325 H 604.125 -0.264358 -3.1148 0
M  V30 6326 H 603.345 -2.73472 -2.83913 0
M  V30 6327 H 604.633 -3.17816 -3.97329 0
M  V30 6328 H 604.031 -0.467124 -5.63768 0
M  V30 6329 H 602.588 -0.920311 -6.4527 0
M  V30 6330 N 606.021 0.929856 -1.27246 0
M  V30 6331 C 606.968 2.03017 -1.09785 0
M  V30 6332 C 607.938 1.661 0.000456744 0
M  V30 6333 O 609.123 1.90116 -0.161462 0
M  V30 6334 C 606.263 3.36878 -0.748816 0
M  V30 6335 C 605.376 3.86763 -1.92453 0
M  V30 6336 C 604.511 5.09061 -1.51758 0
M  V30 6337 C 603.55 5.51237 -2.66091 0
M  V30 6338 N 602.687 6.64732 -2.25999 0
M  V30 6339 H 607.527 2.17285 -2.03939 0
M  V30 6340 H 605.064 1.06448 -1.01524 0
M  V30 6341 H 607.022 4.13855 -0.527283 0
M  V30 6342 H 605.652 3.22424 0.155771 0
M  V30 6343 H 604.704 3.06086 -2.25867 0
M  V30 6344 H 606.016 4.13994 -2.78227 0
M  V30 6345 H 605.17 5.93532 -1.25716 0
M  V30 6346 H 603.909 4.83602 -0.630896 0
M  V30 6347 H 602.914 4.65316 -2.92849 0
M  V30 6348 H 604.139 5.78692 -3.55377 0
M  V30 6349 H 602.085 6.40935 -1.3978 0
M  V30 6350 H 602.002 6.91607 -3.05313 0
M  V30 6351 H 603.27 7.52549 -2.03199 0
M  V30 6352 O 607.538 1.21494 1.06403 0
M  V30 6353 H 608.229 0.975073 1.67368 0
M  V30 END ATOM
M  V30 BEGIN BOND
M  V30 END BOND
M  V30 END CTAB
M  END
$$$$
