drugbank_target|P77454 Glutaminase 1 (DB01942)
 OpenBabel12092120233D

  0  0  0     0  0            999 V3000
M  V30 BEGIN CTAB
M  V30 COUNTS 4595 4637 0 0 0
M  V30 BEGIN ATOM
M  V30 1 H -0.908 1.98254 -0.117106 0
M  V30 2 N 0 1.576 0 0
M  V30 3 C 0.933 2.03868 1.02534 0
M  V30 4 C 1.911 0.928543 1.3348 0
M  V30 5 O 3.095 1.19667 1.45644 0
M  V30 6 C 0.222 2.43627 2.35294 0
M  V30 7 C -0.732 3.65373 2.2001 0
M  V30 8 S 0.101 5.13292 1.52614 0
M  V30 9 C 1.257 5.56322 2.86805 0
M  V30 10 H 1.49 2.90518 0.631377 0
M  V30 11 H -0.977 1.52953 0.210867 0
M  V30 12 H 0.981 2.67203 3.11629 0
M  V30 13 H -0.358 1.57376 2.7183 0
M  V30 14 H -1.165 3.90944 3.18086 0
M  V30 15 H -1.563 3.418 1.51819 0
M  V30 16 H 0.729 5.58782 3.83104 0
M  V30 17 H 1.672 6.56266 2.65933 0
M  V30 18 H 2.08 4.83886 2.90714 0
M  V30 19 N 1.4781 -0.272755 1.55222 0
M  V30 20 C 2.4081 -1.34136 1.91127 0
M  V30 21 C 3.3891 -1.51513 0.773168 0
M  V30 22 O 4.5741 -1.64552 1.03132 0
M  V30 23 C 1.7041 -2.70083 2.1834 0
M  V30 24 C 0.6581 -2.67437 3.34158 0
M  V30 25 C -0.0159 -4.06938 3.46851 0
M  V30 26 C 1.2841 -2.26686 4.70543 0
M  V30 27 H 2.9781 -1.04333 2.80633 0
M  V30 28 H 0.5241 -0.500454 1.35024 0
M  V30 29 H 2.4771 -3.44952 2.42046 0
M  V30 30 H 1.2011 -3.01469 1.25634 0
M  V30 31 H -0.1399 -1.95026 3.1042 0
M  V30 32 H -0.4919 -4.35547 2.51611 0
M  V30 33 H -0.7919 -4.06062 4.2472 0
M  V30 34 H 0.7321 -4.83545 3.72849 0
M  V30 35 H 2.1461 -2.91277 4.93792 0
M  V30 36 H 0.5431 -2.36971 5.5133 0
M  V30 37 H 1.6131 -1.21818 4.69349 0
M  V30 38 N 2.9562 -1.48159 -0.537278 0
M  V30 39 C 4.2332 -1.46291 -1.29839 0
M  V30 40 C 4.6132 -0.170613 -2.10409 0
M  V30 41 O 3.9612 0.847746 -2.12192 0
M  V30 42 C 4.1712 -2.72055 -2.18603 0
M  V30 43 C 5.5192 -3.20087 -2.7898 0
M  V30 44 O 6.5432 -2.72921 -2.28894 0
M  V30 45 O 5.4022 -4.02138 -3.70064 0
M  V30 46 H 2.4962 -0.583906 -0.585647 0
M  V30 47 H 5.0422 -1.60384 -0.554534 0
M  V30 48 H 3.8142 -3.57628 -1.58801 0
M  V30 49 H 3.4372 -2.60646 -3.00249 0
M  V30 50 N 4.4343 0.785586 -1.36625 0
M  V30 51 C 5.3973 1.87999 -1.31107 0
M  V30 52 C 6.3973 1.59316 -0.217959 0
M  V30 53 O 7.5873 1.67656 -0.472977 0
M  V30 54 C 4.7193 3.24861 -1.03334 0
M  V30 55 H 5.9123 1.94307 -2.2844 0
M  V30 56 H 3.4653 0.983813 -1.21453 0
M  V30 57 H 4.2003 3.24235 -0.0647432 0
M  V30 58 H 3.9853 3.4707 -1.82441 0
M  V30 59 H 5.4753 4.04929 -1.02088 0
M  V30 60 N 5.9124 1.20967 1.01018 0
M  V30 61 C 6.8604 0.961223 2.1181 0
M  V30 62 C 7.8544 -0.0897034 1.69162 0
M  V30 63 O 9.0604 0.0612271 1.79896 0
M  V30 64 H 5.4354 0.29355 0.692338 0
M  V30 65 H 7.4064 1.90178 2.29946 0
M  V30 66 C 6.1554 0.536854 3.4353 0
M  V30 67 H 5.4784 1.33713 3.76777 0
M  V30 68 H 6.9184 0.402286 4.22087 0
M  V30 69 C 5.3774 -0.751574 3.2841 0
M  V30 70 O 5.9074 -1.80841 3.58691 0
M  V30 71 N 4.1134 -0.716079 2.81639 0
M  V30 72 H 3.6604 0.144236 2.57196 0
M  V30 73 H 3.6184 -1.57847 2.71904 0
M  V30 74 N 7.3905 -1.2043 1.01659 0
M  V30 75 C 8.3375 -2.23215 0.586822 0
M  V30 76 C 9.3075 -1.61382 -0.393085 0
M  V30 77 O 10.4925 -1.88544 -0.292525 0
M  V30 78 C 7.6325 -3.45032 -0.0687464 0
M  V30 79 C 6.7455 -4.21296 0.955724 0
M  V30 80 C 5.8805 -5.30507 0.271208 0
M  V30 81 C 4.9195 -5.98515 1.28244 0
M  V30 82 N 4.0565 -6.99316 0.62459 0
M  V30 83 H 8.8965 -2.59336 1.46796 0
M  V30 84 H 6.4335 -1.27431 0.734836 0
M  V30 85 H 8.3915 -4.1459 -0.465965 0
M  V30 86 H 7.0215 -3.09604 -0.913529 0
M  V30 87 H 6.0735 -3.50803 1.4711 0
M  V30 88 H 7.3855 -4.6803 1.72479 0
M  V30 89 H 6.5395 -6.06428 -0.18151 0
M  V30 90 H 5.2785 -4.8481 -0.530163 0
M  V30 91 H 4.2835 -5.21355 1.74554 0
M  V30 92 H 5.5085 -6.46298 2.08509 0
M  V30 93 H 3.4545 -6.55812 -0.156914 0
M  V30 94 H 3.3715 -7.44178 1.33172 0
M  V30 95 H 4.6395 -7.79255 0.195462 0
M  V30 96 N 8.8686 -0.792821 -1.36206 0
M  V30 97 C 9.7986 -0.207853 -2.32573 0
M  V30 98 C 10.7796 0.659055 -1.56813 0
M  V30 99 O 11.9646 0.592176 -1.84951 0
M  V30 100 C 9.0946 0.655449 -3.41059 0
M  V30 101 C 8.0486 -0.111842 -4.27854 0
M  V30 102 C 7.3746 0.872274 -5.27537 0
M  V30 103 C 8.6746 -1.30299 -5.05786 0
M  V30 104 H 10.3686 -1.01294 -2.81744 0
M  V30 105 H 7.9146 -0.48854 -1.3546 0
M  V30 106 H 9.8676 1.07464 -4.07467 0
M  V30 107 H 8.5916 1.49328 -2.90463 0
M  V30 108 H 7.2506 -0.512053 -3.63006 0
M  V30 109 H 6.8986 1.70523 -4.73214 0
M  V30 110 H 6.5986 0.363291 -5.86476 0
M  V30 111 H 8.1226 1.28996 -5.96818 0
M  V30 112 H 9.5366 -0.959379 -5.65216 0
M  V30 113 H 7.9336 -1.7455 -5.74154 0
M  V30 114 H 9.0036 -2.09663 -4.37229 0
M  V30 115 N 10.3467 1.47872 -0.545128 0
M  V30 116 C 11.2787 2.27869 0.246621 0
M  V30 117 C 12.2917 1.36282 0.890561 0
M  V30 118 O 13.4807 1.61207 0.766449 0
M  V30 119 C 10.5807 3.10159 1.36582 0
M  V30 120 C 9.7537 4.29627 0.820954 0
M  V30 121 C 8.8127 4.93607 1.82314 0
M  V30 122 O 7.8387 5.52366 1.37406 0
M  V30 123 N 9.0407 4.87211 3.15603 0
M  V30 124 H 11.8057 2.96459 -0.439539 0
M  V30 125 H 9.3667 1.57367 -0.380421 0
M  V30 126 H 11.3587 3.49829 2.03474 0
M  V30 127 H 9.9287 2.43891 1.9554 0
M  V30 128 H 9.1487 3.94192 -0.0244032 0
M  V30 129 H 10.4367 5.06928 0.436063 0
M  V30 130 H 9.8347 4.40651 3.54744 0
M  V30 131 H 8.3917 5.30937 3.78087 0
M  V30 132 N 11.8248 0.280983 1.55075 0
M  V30 133 C 12.7568 -0.637268 2.20163 0
M  V30 134 C 13.7698 -1.11298 1.18813 0
M  V30 135 O 14.9588 -1.03388 1.4551 0
M  V30 136 C 12.0588 -1.88199 2.81841 0
M  V30 137 C 11.2318 -1.55211 4.08936 0
M  V30 138 C 10.2908 -2.64991 4.54606 0
M  V30 139 O 9.3168 -2.30929 5.2025 0
M  V30 140 N 10.5188 -3.95161 4.25238 0
M  V30 141 H 13.2838 -0.0801694 2.99593 0
M  V30 142 H 10.8448 0.102329 1.61576 0
M  V30 143 H 12.8368 -2.60948 3.09335 0
M  V30 144 H 11.4068 -2.34799 2.06369 0
M  V30 145 H 10.6268 -0.658185 3.88666 0
M  V30 146 H 11.9148 -1.30681 4.91732 0
M  V30 147 H 11.3128 -4.25653 3.72607 0
M  V30 148 H 9.8698 -4.6427 4.5749 0
M  V30 149 N 13.3029 -1.57598 0.00835791 0
M  V30 150 C 14.2659 -2.07884 -0.965242 0
M  V30 151 C 15.2659 -0.989825 -1.26725 0
M  V30 152 O 16.4559 -1.25218 -1.21104 0
M  V30 153 C 13.5879 -2.52731 -2.28779 0
M  V30 154 H 14.7809 -2.95178 -0.530112 0
M  V30 155 H 12.3339 -1.54458 -0.239283 0
M  V30 156 H 13.0689 -1.68705 -2.76964 0
M  V30 157 H 12.8539 -3.32272 -2.08177 0
M  V30 158 H 14.3439 -2.91933 -2.98605 0
M  V30 159 N 14.781 0.264519 -1.55364 0
M  V30 160 C 16.027 0.99646 -1.76631 0
M  V30 161 C 16.36 1.85632 -0.570478 0
M  V30 162 O 15.635 1.89647 0.43175 0
M  V30 163 C 15.918 1.87187 -3.07625 0
M  V30 164 C 15.771 1.04138 -4.37579 0
M  V30 165 C 17.09 2.85749 -3.34717 0
M  V30 166 H 14.209 0.360841 -0.642622 0
M  V30 167 H 16.851 0.268218 -1.88097 0
M  V30 168 H 15.001 2.49279 -2.9798 0
M  V30 169 H 16.673 0.440517 -4.59192 0
M  V30 170 H 14.916 0.345115 -4.32425 0
M  V30 171 H 15.587 1.68729 -5.2558 0
M  V30 172 H 18.063 2.33793 -3.4421 0
M  V30 173 H 16.939 3.44136 -4.27623 0
M  V30 174 H 17.2 3.61311 -2.54768 0
M  V30 175 N 16.2591 1.48442 0.529413 0
M  V30 176 C 17.5361 1.46978 1.29062 0
M  V30 177 C 17.9161 0.181769 2.10316 0
M  V30 178 O 17.2641 -0.836481 2.12639 0
M  V30 179 C 17.4741 2.7321 2.17157 0
M  V30 180 C 18.8221 3.21562 2.77278 0
M  V30 181 O 19.8461 2.74131 2.27444 0
M  V30 182 O 18.7051 4.04094 3.67927 0
M  V30 183 H 15.7991 0.587003 0.582543 0
M  V30 184 H 18.3451 1.60676 0.546021 0
M  V30 185 H 17.1171 3.58465 1.56903 0
M  V30 186 H 16.7401 2.62235 2.98862 0
M  V30 187 N 17.7372 -0.778329 1.37039 0
M  V30 188 C 18.6692 -1.90034 1.2814 0
M  V30 189 C 19.6822 -1.61585 0.198558 0
M  V30 190 O 20.8712 -1.72625 0.454175 0
M  V30 191 C 17.9712 -3.25108 0.956968 0
M  V30 192 C 17.1442 -3.81253 2.14394 0
M  V30 193 C 16.2032 -4.94789 1.79082 0
M  V30 194 O 15.2292 -5.10721 2.51301 0
M  V30 195 N 16.4312 -5.75878 0.731043 0
M  V30 196 H 19.1962 -1.98186 2.24816 0
M  V30 197 H 16.7572 -0.957129 1.30578 0
M  V30 198 H 18.7492 -3.9857 0.701701 0
M  V30 199 H 17.3192 -3.125 0.0789812 0
M  V30 200 H 16.5392 -2.99647 2.56135 0
M  V30 201 H 17.8272 -4.15495 2.93668 0
M  V30 202 H 17.2252 -5.65547 0.131618 0
M  V30 203 H 15.7822 -6.49596 0.535622 0
M  V30 204 N 19.2153 -1.21501 -1.00376 0
M  V30 205 C 20.1783 -0.976927 -2.07337 0
M  V30 206 C 21.1783 0.0525322 -1.60714 0
M  V30 207 O 22.3683 -0.184869 -1.73216 0
M  V30 208 C 19.5003 -0.473423 -3.37597 0
M  V30 209 H 20.6933 -1.92587 -2.29892 0
M  V30 210 H 18.2463 -1.03217 -1.17371 0
M  V30 211 H 18.9813 0.480379 -3.20722 0
M  V30 212 H 18.7663 -1.216 -3.72768 0
M  V30 213 H 20.2563 -0.32675 -4.1632 0
M  V30 214 N 20.6934 1.19889 -1.02296 0
M  V30 215 C 21.9234 1.93109 -0.734332 0
M  V30 216 C 22.3314 1.75377 0.709889 0
M  V30 217 O 21.6744 1.06912 1.49384 0
M  V30 218 C 21.7364 3.45362 -0.99827 0
M  V30 219 C 21.4004 3.8686 -2.43287 0
M  V30 220 C 22.3974 3.92102 -3.41397 0
M  V30 221 C 20.0824 4.18668 -2.77529 0
M  V30 222 C 22.0764 4.28573 -4.71809 0
M  V30 223 C 19.7634 4.54813 -4.08153 0
M  V30 224 C 20.7614 4.59739 -5.05103 0
M  V30 225 O 20.4494 4.95051 -6.33388 0
M  V30 226 H 20.1814 0.620409 -0.268456 0
M  V30 227 H 22.7354 1.53144 -1.3688 0
M  V30 228 H 20.9654 3.85482 -0.306645 0
M  V30 229 H 22.6544 3.99814 -0.700234 0
M  V30 230 H 23.4204 3.67685 -3.1628 0
M  V30 231 H 19.2994 4.14021 -2.0275 0
M  V30 232 H 22.8434 4.32333 -5.4748 0
M  V30 233 H 18.7404 4.78687 -4.33047 0
M  V30 234 H 19.5084 5.1302 -6.37772 0
M  V30 235 N 22.1715 0.800033 1.35784 0
M  V30 236 C 23.3995 0.389606 2.03199 0
M  V30 237 C 23.8145 -0.997375 1.60306 0
M  V30 238 O 23.1715 -1.64154 0.797481 0
M  V30 239 C 23.2225 0.455855 3.58614 0
M  V30 240 O 22.9435 1.78815 3.99946 0
M  V30 241 C 24.4445 0.0374032 4.43284 0
M  V30 242 H 21.6645 0.159132 0.651857 0
M  V30 243 H 24.2085 1.08183 1.73541 0
M  V30 244 H 22.3635 -0.188057 3.86943 0
M  V30 245 H 22.7775 1.74636 4.94573 0
M  V30 246 H 24.2515 0.134882 5.51835 0
M  V30 247 H 24.7285 -1.01651 4.27275 0
M  V30 248 H 25.3345 0.654215 4.20238 0
M  V30 249 N 23.6496 -1.47581 0.552962 0
M  V30 250 C 24.5816 -2.27997 -0.234533 0
M  V30 251 C 25.5946 -1.36753 -0.883321 0
M  V30 252 O 26.7836 -1.61612 -0.757889 0
M  V30 253 C 23.8836 -3.10879 -1.34935 0
M  V30 254 C 23.0566 -4.30056 -0.798158 0
M  V30 255 C 22.1156 -4.94567 -1.79694 0
M  V30 256 O 21.1416 -5.53087 -1.34474 0
M  V30 257 N 22.3436 -4.88878 -3.13015 0
M  V30 258 H 25.1086 -2.96222 0.455255 0
M  V30 259 H 22.6696 -1.57163 0.388761 0
M  V30 260 H 24.6616 -3.50903 -2.01616 0
M  V30 261 H 23.2316 -2.44924 -1.94244 0
M  V30 262 H 22.4516 -3.94174 0.0453079 0
M  V30 263 H 23.7396 -5.07152 -0.409173 0
M  V30 264 H 23.1376 -4.42526 -3.52402 0
M  V30 265 H 21.6946 -5.32934 -3.75266 0
M  V30 266 N 25.1277 -0.289203 -1.54924 0
M  V30 267 C 26.3747 0.323519 -1.99899 0
M  V30 268 C 26.7027 1.54797 -1.17762 0
M  V30 269 O 25.9577 1.94237 -0.238835 0
M  V30 270 C 26.2567 0.736119 -3.49737 0
M  V30 271 C 25.9227 -0.385276 -4.49251 0
M  V30 272 C 24.5847 -0.693156 -4.76181 0
M  V30 273 C 26.9367 -1.14021 -5.08575 0
M  V30 274 C 24.2647 -1.7593 -5.59701 0
M  V30 275 C 26.6167 -2.19619 -5.93254 0
M  V30 276 C 25.2807 -2.51026 -6.185 0
M  V30 277 H 24.5507 0.118384 -0.731482 0
M  V30 278 H 27.1977 -0.405847 -1.8715 0
M  V30 279 H 25.5027 1.54539 -3.60035 0
M  V30 280 H 27.1997 1.22118 -3.81953 0
M  V30 281 H 23.7897 -0.135202 -4.28387 0
M  V30 282 H 27.9737 -0.915611 -4.87781 0
M  V30 283 H 23.2297 -2.0075 -5.77503 0
M  V30 284 H 27.4037 -2.78581 -6.38252 0
M  V30 285 H 25.0307 -3.33772 -6.83008 0
M  V30 286 N 26.6058 1.57591 -0.0167156 0
M  V30 287 C 27.5558 2.05953 0.978137 0
M  V30 288 C 28.5398 0.957532 1.29306 0
M  V30 289 O 29.7318 1.22119 1.28125 0
M  V30 290 C 26.8608 2.58006 2.26468 0
M  V30 291 C 25.9468 3.75113 1.97867 0
M  V30 292 N 26.3378 4.86187 1.39486 0
M  V30 293 C 24.6358 3.83363 2.27924 0
M  V30 294 C 25.3368 5.67502 1.27735 0
M  V30 295 N 24.3128 5.14023 1.76866 0
M  V30 296 H 28.1148 2.89236 0.521522 0
M  V30 297 H 25.6288 1.61301 0.188596 0
M  V30 298 H 27.6258 2.90937 2.98599 0
M  V30 299 H 26.2858 1.76148 2.72767 0
M  V30 300 H 27.2968 5.06695 1.07147 0
M  V30 301 H 23.9738 3.1239 2.76982 0
M  V30 302 H 25.3638 6.66791 0.826978 0
M  V30 303 N 28.0839 -0.256276 1.55502 0
M  V30 304 C 29.3089 -1.00766 1.81276 0
M  V30 305 C 29.7339 -1.78524 0.59252 0
M  V30 306 O 29.0919 -1.75413 -0.45827 0
M  V30 307 C 29.1399 -1.92869 3.04687 0
M  V30 308 O 28.2439 -3.019 2.80945 0
M  V30 309 H 27.5849 -0.287224 0.598664 0
M  V30 310 H 30.1149 -0.280109 2.02674 0
M  V30 311 H 30.1249 -2.34511 3.33869 0
M  V30 312 H 28.7999 -1.35689 3.93143 0
M  V30 313 H 27.3769 -2.64454 2.62904 0
M  V30 314 N 29.562 -1.4872 -0.521534 0
M  V30 315 C 30.492 -1.66771 -1.63431 0
M  V30 316 C 31.473 -0.516499 -1.62069 0
M  V30 317 O 32.658 -0.750013 -1.79132 0
M  V30 318 C 29.788 -1.71515 -3.01993 0
M  V30 319 C 28.742 -2.86222 -3.18216 0
M  V30 320 C 28.068 -2.76061 -4.57924 0
M  V30 321 C 29.368 -4.27419 -3.00184 0
M  V30 322 H 31.062 -2.59932 -1.48579 0
M  V30 323 H 28.608 -1.25089 -0.713358 0
M  V30 324 H 30.561 -1.82731 -3.7972 0
M  V30 325 H 29.285 -0.749393 -3.17886 0
M  V30 326 H 27.944 -2.74575 -2.42908 0
M  V30 327 H 27.592 -1.77437 -4.70665 0
M  V30 328 H 27.292 -3.53037 -4.69722 0
M  V30 329 H 28.816 -2.89256 -5.37739 0
M  V30 330 H 30.23 -4.39855 -3.67697 0
M  V30 331 H 28.627 -5.05458 -3.2347 0
M  V30 332 H 29.697 -4.43293 -1.96518 0
M  V30 333 N 31.0401 0.771051 -1.3745 0
M  V30 334 C 31.9881 1.90574 -1.33358 0
M  V30 335 C 32.9821 1.67936 -0.22224 0
M  V30 336 O 34.1881 1.75717 -0.390304 0
M  V30 337 H 30.5631 0.626714 -0.415612 0
M  V30 338 H 32.5341 1.91142 -2.29144 0
M  V30 339 C 31.2831 3.27845 -1.15813 0
M  V30 340 H 30.6061 3.45842 -2.00583 0
M  V30 341 H 32.0461 4.07538 -1.17 0
M  V30 342 C 30.5051 3.36625 0.136165 0
M  V30 343 O 31.0351 3.85785 1.11949 0
M  V30 344 N 29.2411 2.89997 0.187099 0
M  V30 345 H 28.7881 2.50182 -0.613753 0
M  V30 346 H 28.7461 2.96252 1.05272 0
M  V30 347 N 32.5182 1.22032 0.997298 0
M  V30 348 C 33.7662 1.04016 1.73278 0
M  V30 349 C 34.0872 -0.426255 1.90284 0
M  V30 350 O 33.3572 -1.30694 1.45931 0
M  V30 351 H 31.9372 0.381897 0.642 0
M  V30 352 H 34.5992 1.5347 1.20137 0
M  V30 353 H 33.6952 1.51441 2.72896 0
M  V30 354 N 33.9963 -1.19345 1.0293 0
M  V30 355 C 35.2443 -1.88665 0.724574 0
M  V30 356 C 35.5653 -1.80036 -0.749144 0
M  V30 357 O 34.8353 -1.2111 -1.53978 0
M  V30 358 H 33.4153 -0.698406 0.265025 0
M  V30 359 H 36.0773 -1.44885 1.30362 0
M  V30 360 H 35.1733 -2.94987 1.01926 0
M  V30 361 N 35.4744 -0.807222 -1.35358 0
M  V30 362 C 36.4064 -0.175717 -2.28525 0
M  V30 363 C 37.4194 0.625354 -1.5031 0
M  V30 364 O 38.6084 0.457611 -1.72535 0
M  V30 365 C 35.7084 0.773471 -3.29956 0
M  V30 366 C 34.8814 0.0186296 -4.37396 0
M  V30 367 C 33.9404 0.886395 -5.18681 0
M  V30 368 O 32.9664 0.337106 -5.68201 0
M  V30 369 N 34.1684 2.20839 -5.36852 0
M  V30 370 H 36.9334 -0.976091 -2.83359 0
M  V30 371 H 34.4944 -0.662737 -1.47714 0
M  V30 372 H 36.4864 1.35824 -3.81227 0
M  V30 373 H 35.0564 1.47465 -2.75632 0
M  V30 374 H 34.2764 -0.747349 -3.87051 0
M  V30 375 H 35.5644 -0.501577 -5.06322 0
M  V30 376 H 34.9624 2.67858 -4.98265 0
M  V30 377 H 33.5194 2.74237 -5.91301 0
M  V30 378 N 36.9525 1.47285 -0.560781 0
M  V30 379 C 37.9005 2.31756 0.197942 0
M  V30 380 C 38.8945 1.43146 0.905854 0
M  V30 381 O 40.1005 1.59891 0.826733 0
M  V30 382 H 36.4755 0.747438 0.0827049 0
M  V30 383 H 38.4465 2.9359 -0.533629 0
M  V30 384 C 37.1955 3.25874 1.21249 0
M  V30 385 H 36.5185 3.94023 0.67719 0
M  V30 386 H 37.9585 3.87803 1.71419 0
M  V30 387 C 36.4175 2.49651 2.26221 0
M  V30 388 O 36.9475 2.24355 3.33208 0
M  V30 389 N 35.1535 2.10597 2.00243 0
M  V30 390 H 34.7005 2.31369 1.13252 0
M  V30 391 H 34.6585 1.59913 2.70694 0
M  V30 392 N 38.4306 0.297415 1.54768 0
M  V30 393 C 39.3936 -0.567375 2.22066 0
M  V30 394 C 40.3936 -1.06409 1.20556 0
M  V30 395 O 41.5836 -0.960691 1.45315 0
M  V30 396 C 38.7156 -1.78517 2.90421 0
M  V30 397 H 39.9086 0.0205534 2.99893 0
M  V30 398 H 37.4616 0.0482163 1.56226 0
M  V30 399 H 38.1966 -2.41303 2.16664 0
M  V30 400 H 37.9816 -1.43669 3.64831 0
M  V30 401 H 39.4716 -2.39964 3.41771 0
M  V30 402 N 39.9087 -1.5758 0.0250728 0
M  V30 403 C 41.1857 -1.82917 -0.692873 0
M  V30 404 C 41.5657 -0.908137 -1.90568 0
M  V30 405 O 40.9137 0.0372298 -2.2847 0
M  V30 406 C 41.1237 -3.32034 -1.07492 0
M  V30 407 C 42.4717 -3.98406 -1.46826 0
M  V30 408 O 43.4957 -3.36505 -1.16801 0
M  V30 409 O 42.3547 -5.07497 -2.02754 0
M  V30 410 H 39.4487 -0.754079 -0.33955 0
M  V30 411 H 41.9947 -1.69619 0.0524456 0
M  V30 412 H 40.7667 -3.90728 -0.211552 0
M  V30 413 H 40.3897 -3.50424 -1.87854 0
M  V30 414 N 41.3868 0.248026 -1.55636 0
M  V30 415 C 42.6168 0.992367 -1.81206 0
M  V30 416 C 43.0248 1.7949 -0.598324 0
M  V30 417 O 42.3678 1.78292 0.442434 0
M  V30 418 C 42.4298 1.97926 -3.00109 0
M  V30 419 C 42.0938 1.36377 -4.36177 0
M  V30 420 C 43.0908 0.76682 -5.14214 0
M  V30 421 C 40.7758 1.38347 -4.82872 0
M  V30 422 C 42.7698 0.197778 -6.37093 0
M  V30 423 C 40.4568 0.810574 -6.057 0
M  V30 424 C 41.4548 0.218754 -6.8265 0
M  V30 425 O 41.1428 -0.345298 -8.03158 0
M  V30 426 H 40.8748 0.297704 -0.606917 0
M  V30 427 H 43.4288 0.276517 -2.0353 0
M  V30 428 H 41.6588 2.73339 -2.73538 0
M  V30 429 H 43.3478 2.58694 -3.12781 0
M  V30 430 H 44.1138 0.744114 -4.79258 0
M  V30 431 H 39.9928 1.8335 -4.2297 0
M  V30 432 H 43.5368 -0.264788 -6.97097 0
M  V30 433 H 39.4338 0.830604 -6.40134 0
M  V30 434 H 40.2018 -0.237055 -8.18157 0
M  V30 435 N 42.8649 1.48995 0.513639 0
M  V30 436 C 44.1139 1.57093 1.2651 0
M  V30 437 C 44.4269 0.257091 1.93903 0
M  V30 438 O 45.6329 0.216478 2.70636 0
M  V30 439 C 44.0889 2.77118 2.29638 0
M  V30 440 C 43.6969 4.15209 1.68241 0
M  V30 441 C 45.4409 2.94538 3.05692 0
M  V30 442 C 43.3479 5.26474 2.69406 0
M  V30 443 H 42.2779 0.584876 0.475854 0
M  V30 444 H 44.9289 1.7536 0.540487 0
M  V30 445 H 43.3109 2.52319 3.05207 0
M  V30 446 H 44.4849 4.50094 0.987505 0
M  V30 447 H 42.7999 4.03042 1.04623 0
M  V30 448 H 45.3969 3.74832 3.8132 0
M  V30 449 H 45.7399 2.04614 3.62545 0
M  V30 450 H 46.2729 3.19316 2.37238 0
M  V30 451 H 43.0119 6.18417 2.17351 0
M  V30 452 H 42.5319 4.96058 3.37175 0
M  V30 453 H 44.2109 5.55277 3.32078 0
M  V30 454 N 44.343 -0.763751 1.37857 0
M  V30 455 C 45.754 -1.3405 1.29952 0
M  V30 456 C 46.105 -1.96138 -0.0492898 0
M  V30 457 O 45.23 -1.94372 -0.951239 0
M  V30 458 C 45.825 -2.43729 2.35333 0
M  V30 459 C 44.384 -2.97151 2.31037 0
M  V30 460 C 43.531 -1.70438 2.18738 0
M  V30 461 H 46.482 -0.563396 1.48363 0
M  V30 462 H 46.503 -3.23412 2.00462 0
M  V30 463 H 46.015 -1.9851 3.33489 0
M  V30 464 H 44.116 -3.46724 1.3643 0
M  V30 465 H 44.229 -3.52221 3.24772 0
M  V30 466 H 42.593 -1.93673 1.65418 0
M  V30 467 H 43.376 -1.27312 3.18821 0
M  V30 468 N 45.8211 -1.22559 -0.990812 0
M  V30 469 C 47.0681 -1.05141 -1.73065 0
M  V30 470 C 47.3961 0.413191 -1.9006 0
M  V30 471 O 46.6511 1.32257 -1.44245 0
M  V30 472 C 46.9501 -1.71011 -3.13831 0
M  V30 473 C 46.6161 -3.20911 -3.16745 0
M  V30 474 C 45.2781 -3.61812 -3.17247 0
M  V30 475 C 47.6301 -4.16846 -3.12872 0
M  V30 476 C 44.9581 -4.97127 -3.1158 0
M  V30 477 C 47.3101 -5.5214 -3.08746 0
M  V30 478 C 45.9741 -5.92419 -3.07565 0
M  V30 479 H 45.2441 -0.384738 -0.633291 0
M  V30 480 H 47.8911 -1.5235 -1.16025 0
M  V30 481 H 46.1961 -1.16133 -3.74193 0
M  V30 482 H 47.8931 -1.55023 -3.69823 0
M  V30 483 H 44.4831 -2.88344 -3.17105 0
M  V30 484 H 48.6671 -3.86263 -3.11632 0
M  V30 485 H 43.9231 -5.27562 -3.09012 0
M  V30 486 H 48.0971 -6.26201 -3.04705 0
M  V30 487 H 45.7241 -6.97236 -3.02929 0
M  V30 488 N 47.2992 1.18797 -1.03562 0
M  V30 489 C 48.2292 2.24472 -0.643019 0
M  V30 490 C 49.2102 1.66433 0.351283 0
M  V30 491 O 50.3952 1.92803 0.232505 0
M  V30 492 C 47.5252 3.473 4.24935e-05 0
M  V30 493 C 46.4792 4.18055 -0.917257 0
M  V30 494 C 45.8052 5.34519 -0.138941 0
M  V30 495 C 47.1052 4.72109 -2.23407 0
M  V30 496 H 48.7992 2.57566 -1.52643 0
M  V30 497 H 46.3452 1.23806 -0.735394 0
M  V30 498 H 48.2982 4.20426 0.286383 0
M  V30 499 H 47.0222 3.13424 0.918299 0
M  V30 500 H 45.6812 3.46821 -1.1879 0
M  V30 501 H 45.3292 4.96891 0.781562 0
M  V30 502 H 45.0292 5.82794 -0.750005 0
M  V30 503 H 46.5532 6.10438 0.1405 0
M  V30 504 H 47.9672 5.36955 -2.00879 0
M  V30 505 H 46.3642 5.30897 -2.79765 0
M  V30 506 H 47.4342 3.89807 -2.88407 0
M  V30 507 N 48.7773 0.814389 1.34928 0
M  V30 508 C 49.7403 0.235759 2.27984 0
M  V30 509 C 50.7403 -0.581412 1.49921 0
M  V30 510 O 51.9303 -0.398758 1.69575 0
M  V30 511 C 49.0623 -0.670433 3.34242 0
M  V30 512 H 50.2553 1.05659 2.80671 0
M  V30 513 H 47.8083 0.585614 1.44915 0
M  V30 514 H 48.5433 -1.51466 2.86755 0
M  V30 515 H 48.3283 -0.0860822 3.92005 0
M  V30 516 H 49.8183 -1.06935 4.03676 0
M  V30 517 N 50.2554 -1.46986 0.568584 0
M  V30 518 C 51.2034 -2.31858 -0.185649 0
M  V30 519 C 52.1974 -1.43624 -0.898249 0
M  V30 520 O 53.4034 -1.60327 -0.818242 0
M  V30 521 H 49.7784 -0.747866 -0.0787399 0
M  V30 522 H 51.7494 -2.93303 0.549191 0
M  V30 523 C 50.4984 -3.26513 -1.19519 0
M  V30 524 H 49.8214 -3.94377 -0.656285 0
M  V30 525 H 51.2614 -3.88707 -1.6936 0
M  V30 526 C 49.7204 -2.50847 -2.24894 0
M  V30 527 O 50.2504 -2.26119 -3.32014 0
M  V30 528 N 48.4564 -2.11656 -1.99124 0
M  V30 529 H 48.0034 -2.31966 -1.12024 0
M  V30 530 H 47.9614 -1.61347 -2.69842 0
M  V30 531 N 51.7335 -0.305618 -1.54608 0
M  V30 532 C 52.9795 0.302746 -2.00528 0
M  V30 533 C 53.3125 1.53184 -1.19367 0
M  V30 534 O 52.5875 1.92598 -0.271321 0
M  V30 535 C 52.8705 0.654756 -3.54097 0
M  V30 536 C 52.7235 -0.583793 -4.45995 0
M  V30 537 C 54.0425 1.47947 -4.14487 0
M  V30 538 H 51.1615 0.108564 -0.72896 0
M  V30 539 H 53.8035 -0.418634 -1.85331 0
M  V30 540 H 51.9535 1.26935 -3.67178 0
M  V30 541 H 53.6255 -1.22224 -4.44814 0
M  V30 542 H 51.8685 -1.21615 -4.16404 0
M  V30 543 H 52.5395 -0.293287 -5.5122 0
M  V30 544 H 55.0155 0.96013 -4.04871 0
M  V30 545 H 53.8915 1.69454 -5.22088 0
M  V30 546 H 54.1525 2.47011 -3.66658 0
M  V30 547 N 53.2116 1.57565 -0.0334293 0
M  V30 548 C 54.6226 1.79746 0.504798 0
M  V30 549 C 54.9736 0.944091 1.71992 0
M  V30 550 O 54.0986 0.155694 2.15839 0
M  V30 551 C 54.6936 3.25997 0.922567 0
M  V30 552 C 53.2526 3.49159 1.40588 0
M  V30 553 C 52.3996 2.74785 0.372633 0
M  V30 554 H 55.3506 1.56565 -0.259436 0
M  V30 555 H 55.3716 3.35945 1.78666 0
M  V30 556 H 54.8836 3.88081 0.0379825 0
M  V30 557 H 52.9846 2.92332 2.31025 0
M  V30 558 H 53.0976 4.57873 1.41028 0
M  V30 559 H 51.4616 2.40391 0.841672 0
M  V30 560 H 52.2446 3.39587 -0.503559 0
M  V30 561 N 54.6897 -0.239769 1.55765 0
M  V30 562 C 55.9377 -0.964892 1.77579 0
M  V30 563 C 56.2587 -1.85582 0.598699 0
M  V30 564 O 55.5287 -1.92075 -0.385226 0
M  V30 565 H 54.1087 -0.359265 0.654933 0
M  V30 566 H 56.7707 -0.256001 1.93211 0
M  V30 567 H 55.8667 -1.58243 2.69009 0
M  V30 568 N 56.1678 -1.49265 -0.50573 0
M  V30 569 C 57.0998 -1.617 -1.62437 0
M  V30 570 C 58.1128 -0.499924 -1.54934 0
M  V30 571 O 59.3018 -0.771785 -1.60953 0
M  V30 572 C 56.4018 -1.5533 -3.01207 0
M  V30 573 C 55.5748 -2.8249 -3.33943 0
M  V30 574 C 54.6338 -2.69238 -4.52103 0
M  V30 575 O 53.6598 -3.43167 -4.5412 0
M  V30 576 N 54.8618 -1.80468 -5.51735 0
M  V30 577 H 57.6268 -2.58177 -1.52199 0
M  V30 578 H 55.1878 -1.46294 -0.693511 0
M  V30 579 H 57.1798 -1.44125 -3.78167 0
M  V30 580 H 55.7498 -0.667297 -3.05395 0
M  V30 581 H 54.9698 -3.08081 -2.45926 0
M  V30 582 H 56.2578 -3.66802 -3.5261 0
M  V30 583 H 55.6558 -1.19653 -5.52901 0
M  V30 584 H 54.2128 -1.75188 -6.27816 0
M  V30 585 N 57.6459 0.756429 -1.3826 0
M  V30 586 C 58.5759 1.88374 -1.37976 0
M  V30 587 C 59.5569 1.68311 -0.246082 0
M  V30 588 O 60.7419 1.88944 -0.44874 0
M  V30 589 C 57.8719 3.25864 -1.20125 0
M  V30 590 C 56.8259 3.60523 -2.30666 0
M  V30 591 C 56.1519 4.9672 -1.97923 0
M  V30 592 C 57.4519 3.65692 -3.72916 0
M  V30 593 H 59.1459 1.88869 -2.32312 0
M  V30 594 H 56.6919 0.907272 -1.11824 0
M  V30 595 H 58.6449 4.0438 -1.18552 0
M  V30 596 H 57.3689 3.25841 -0.222498 0
M  V30 597 H 56.0279 2.84324 -2.3142 0
M  V30 598 H 55.6759 4.93253 -0.985393 0
M  V30 599 H 55.3759 5.20878 -2.71955 0
M  V30 600 H 56.8999 5.77618 -1.97964 0
M  V30 601 H 58.3139 4.34328 -3.74208 0
M  V30 602 H 56.7109 4.01358 -4.4613 0
M  V30 603 H 57.7809 2.65987 -4.05436 0
M  V30 604 N 59.124 1.23083 0.984299 0
M  V30 605 C 60.087 1.00979 2.05757 0
M  V30 606 C 61.087 -0.0269573 1.60777 0
M  V30 607 O 62.277 0.212403 1.729 0
M  V30 608 C 59.409 0.527072 3.36801 0
M  V30 609 H 60.602 1.9622 2.26799 0
M  V30 610 H 58.155 1.05072 1.15714 0
M  V30 611 H 58.89 -0.429294 3.21446 0
M  V30 612 H 58.675 1.27515 3.70786 0
M  V30 613 H 60.165 0.392942 4.15747 0
M  V30 614 N 60.6021 -1.18246 1.0419 0
M  V30 615 C 61.5651 -2.20128 0.638452 0
M  V30 616 C 62.5651 -1.57885 -0.304805 0
M  V30 617 O 63.7551 -1.73967 -0.0900369 0
M  V30 618 C 60.8871 -3.4084 -0.0637751 0
M  V30 619 H 62.0801 -2.57336 1.54007 0
M  V30 620 H 59.6331 -1.32152 0.834598 0
M  V30 621 H 60.3681 -3.09166 -0.979136 0
M  V30 622 H 60.1531 -3.8726 0.614198 0
M  V30 623 H 61.6431 -4.16274 -0.332512 0
M  V30 624 N 62.0802 -0.821533 -1.34494 0
M  V30 625 C 63.3262 -0.409552 -1.98622 0
M  V30 626 C 63.6592 1.0244 -1.64984 0
M  V30 627 O 62.9342 1.71325 -0.920758 0
M  V30 628 C 63.2172 -0.610458 -3.54888 0
M  V30 629 C 63.0702 -2.09043 -3.98273 0
M  V30 630 C 64.3892 -0.0455379 -4.40076 0
M  V30 631 H 61.5082 -0.15028 -0.721516 0
M  V30 632 H 64.1502 -1.03384 -1.59411 0
M  V30 633 H 62.3002 -0.079044 -3.8842 0
M  V30 634 H 63.9722 -2.68537 -3.75081 0
M  V30 635 H 62.2152 -2.58139 -3.48635 0
M  V30 636 H 62.8862 -2.18182 -5.07051 0
M  V30 637 H 65.3622 -0.499557 -4.1309 0
M  V30 638 H 64.2382 -0.215922 -5.48475 0
M  V30 639 H 64.4992 1.04939 -4.29465 0
M  V30 640 N 63.5583 1.46682 -0.576371 0
M  V30 641 C 64.5213 2.28707 0.150239 0
M  V30 642 C 65.5213 1.38035 0.824794 0
M  V30 643 O 66.7113 1.60476 0.677719 0
M  V30 644 C 63.8433 3.18248 1.22192 0
M  V30 645 H 65.0363 2.94423 -0.570521 0
M  V30 646 H 62.5893 1.52688 -0.334078 0
M  V30 647 H 63.3243 2.57265 1.97447 0
M  V30 648 H 63.1093 3.85 0.742812 0
M  V30 649 H 64.5993 3.80001 1.73172 0
M  V30 650 N 65.0364 0.313813 1.54444 0
M  V30 651 C 66.2854 -0.292519 1.99568 0
M  V30 652 C 66.5984 -1.54011 1.20582 0
M  V30 653 O 67.8044 -2.22183 1.56035 0
M  V30 654 C 66.2604 -0.571752 3.55329 0
M  V30 655 C 65.8684 0.658229 4.43138 0
M  V30 656 C 67.6124 -1.13857 4.08946 0
M  V30 657 C 65.5194 0.351439 5.90355 0
M  V30 658 H 64.4494 -0.113079 0.745472 0
M  V30 659 H 67.1004 0.424518 1.78522 0
M  V30 660 H 65.4824 -1.34872 3.72325 0
M  V30 661 H 66.6564 1.43403 4.37918 0
M  V30 662 H 64.9714 1.14458 4.0036 0
M  V30 663 H 67.5684 -1.38257 5.16516 0
M  V30 664 H 67.9114 -2.08489 3.6033 0
M  V30 665 H 68.4444 -0.423015 3.95544 0
M  V30 666 H 65.1834 1.26667 6.43145 0
M  V30 667 H 64.7034 -0.386842 5.98551 0
M  V30 668 H 66.3824 -0.0423134 6.46986 0
M  V30 669 N 66.5145 -1.57545 0.0417849 0
M  V30 670 C 67.7605 -1.92601 -0.635021 0
M  V30 671 C 68.0935 -0.919627 -1.71045 0
M  V30 672 O 67.3685 0.0557892 -1.9442 0
M  V30 673 C 67.6515 -3.38085 -1.23979 0
M  V30 674 C 67.5045 -4.49467 -0.173057 0
M  V30 675 C 68.8235 -3.83776 -2.15416 0
M  V30 676 H 65.9425 -0.700397 -0.229374 0
M  V30 677 H 68.5845 -1.89728 0.101633 0
M  V30 678 H 66.7345 -3.40664 -1.86762 0
M  V30 679 H 68.4065 -4.59018 0.458312 0
M  V30 680 H 66.6495 -4.30909 0.499996 0
M  V30 681 H 67.3205 -5.48323 -0.636054 0
M  V30 682 H 69.7965 -3.83013 -1.62605 0
M  V30 683 H 68.6725 -4.8624 -2.54679 0
M  V30 684 H 68.9335 -3.19998 -3.05047 0
M  V30 685 N 67.9926 0.231505 -1.5589 0
M  V30 686 C 69.2206 0.974505 -1.82513 0
M  V30 687 C 69.6356 1.78344 -0.619591 0
M  V30 688 O 68.9926 1.77792 0.411848 0
M  V30 689 C 69.0436 1.90007 -3.07538 0
M  V30 690 O 68.7646 1.12385 -4.2344 0
M  V30 691 C 70.2656 2.75779 -3.47075 0
M  V30 692 H 67.4856 0.286065 -0.606966 0
M  V30 693 H 70.0296 0.249739 -2.02969 0
M  V30 694 H 68.1846 2.57891 -2.89086 0
M  V30 695 H 68.5986 1.75125 -4.944 0
M  V30 696 H 70.0726 3.36443 -4.37619 0
M  V30 697 H 70.5496 3.47672 -2.68367 0
M  V30 698 H 71.1556 2.13323 -3.67931 0
M  V30 699 N 69.4707 1.49531 0.497807 0
M  V30 700 C 70.7107 1.60799 1.26187 0
M  V30 701 C 71.0747 0.289627 1.89803 0
M  V30 702 O 72.2757 0.277512 2.67364 0
M  V30 703 C 70.5467 2.73729 2.29798 0
M  V30 704 S 72.1057 3.04968 3.155 0
M  V30 705 H 68.9237 0.567145 0.428798 0
M  V30 706 H 71.5257 1.87204 0.563477 0
M  V30 707 H 70.2297 3.68036 1.81597 0
M  V30 708 H 69.7607 2.49328 3.04301 0
M  V30 709 H 71.7757 2.46735 4.30507 0
M  V30 710 N 70.9488 -0.749086 1.3866 0
M  V30 711 C 72.2258 -1.4992 1.25632 0
M  V30 712 C 72.6058 -2.10633 -0.140317 0
M  V30 713 O 71.9538 -1.97437 -1.15025 0
M  V30 714 C 72.1638 -2.56195 2.36992 0
M  V30 715 C 73.5118 -3.22972 2.75634 0
M  V30 716 O 74.5358 -2.66502 2.36337 0
M  V30 717 O 73.3948 -4.25122 3.43415 0
M  V30 718 H 70.4888 -0.665067 0.491544 0
M  V30 719 H 73.0348 -0.784113 1.50498 0
M  V30 720 H 71.8068 -2.09612 3.30422 0
M  V30 721 H 71.4298 -3.35279 2.13714 0
M  V30 722 N 72.4269 -1.23603 -0.977757 0
M  V30 723 C 73.6749 -1.06759 -1.71601 0
M  V30 724 C 73.9959 0.395929 -1.90938 0
M  V30 725 O 73.2659 1.28356 -1.47992 0
M  V30 726 H 71.8459 -0.392062 -0.635843 0
M  V30 727 H 74.5079 -1.55362 -1.1768 0
M  V30 728 H 73.6039 -1.55763 -2.70452 0
M  V30 729 N 73.905 1.17692 -1.04816 0
M  V30 730 C 74.853 2.23632 -0.63966 0
M  V30 731 C 75.847 1.6601 0.337219 0
M  V30 732 O 77.053 1.78844 0.203693 0
M  V30 733 H 73.428 0.727949 -0.188665 0
M  V30 734 H 75.399 2.55387 -1.54337 0
M  V30 735 C 74.148 3.4769 -0.0264051 0
M  V30 736 H 73.471 3.92331 -0.769164 0
M  V30 737 H 74.911 4.23418 0.222098 0
M  V30 738 C 73.37 3.13807 1.22584 0
M  V30 739 O 73.9 3.28236 2.31569 0
M  V30 740 N 72.106 2.68065 1.12202 0
M  V30 741 H 71.653 2.56525 0.235133 0
M  V30 742 H 71.611 2.45767 1.96076 0
M  V30 743 N 75.3831 0.828654 1.34056 0
M  V30 744 C 76.6291 0.42008 1.98402 0
M  V30 745 C 76.9621 -1.01564 1.65525 0
M  V30 746 O 76.2371 -1.70834 0.929831 0
M  V30 747 C 76.5201 0.62927 3.54559 0
M  V30 748 C 76.3731 2.11152 3.97159 0
M  V30 749 C 77.6921 0.0688756 4.40046 0
M  V30 750 H 74.8111 0.154104 0.720709 0
M  V30 751 H 77.4531 1.04228 1.5886 0
M  V30 752 H 75.6031 0.0996418 3.88372 0
M  V30 753 H 77.2751 2.70522 3.73651 0
M  V30 754 H 75.5181 2.59985 3.47261 0
M  V30 755 H 76.1891 2.20868 5.05887 0
M  V30 756 H 78.6651 0.521458 4.1282 0
M  V30 757 H 77.5411 0.245006 5.48353 0
M  V30 758 H 77.8021 -1.0266 4.30015 0
M  V30 759 N 76.8612 -1.46375 0.584142 0
M  V30 760 C 78.0912 -2.06461 0.0758195 0
M  V30 761 C 78.4992 -1.43322 -1.23512 0
M  V30 762 O 77.8422 -0.533216 -1.75791 0
M  V30 763 C 77.9042 -3.59131 -0.162773 0
M  V30 764 C 77.5682 -4.4447 1.06279 0
M  V30 765 C 78.5652 -4.80918 1.97519 0
M  V30 766 C 76.2502 -4.85584 1.28504 0
M  V30 767 C 78.2442 -5.57309 3.09331 0
M  V30 768 C 75.9312 -5.61734 2.4062 0
M  V30 769 C 76.9292 -5.9751 3.30863 0
M  V30 770 O 76.6172 -6.72121 4.41032 0
M  V30 771 H 76.3492 -0.673745 0.0551725 0
M  V30 772 H 78.9032 -1.88969 0.804984 0
M  V30 773 H 77.1332 -3.74936 -0.946565 0
M  V30 774 H 78.8222 -4.0114 -0.619782 0
M  V30 775 H 79.5882 -4.49732 1.81565 0
M  V30 776 H 75.4672 -4.57187 0.591702 0
M  V30 777 H 79.0112 -5.85152 3.79793 0
M  V30 778 H 74.9082 -5.92334 2.56537 0
M  V30 779 H 75.6762 -6.90547 4.39417 0
M  V30 780 N 78.3393 -0.321999 -1.54275 0
M  V30 781 C 79.5643 0.285791 -2.05422 0
M  V30 782 C 79.9893 1.45124 -1.19669 0
M  V30 783 O 79.3473 1.80132 -0.205441 0
M  V30 784 C 79.3953 0.69956 -3.53749 0
M  V30 785 O 78.4993 1.8021 -3.70942 0
M  V30 786 H 77.8403 0.0518962 -0.661969 0
M  V30 787 H 80.3703 -0.469954 -1.9913 0
M  V30 788 H 80.3803 0.982649 -3.9599 0
M  V30 789 H 79.0553 -0.152864 -4.15619 0
M  V30 790 H 77.6323 1.51794 -3.40607 0
M  V30 791 N 79.8174 1.5752 -0.0501392 0
M  V30 792 C 80.7804 2.1037 0.909786 0
M  V30 793 C 81.7804 1.02308 1.24056 0
M  V30 794 O 82.9704 1.28385 1.17741 0
M  V30 795 C 80.1024 2.58708 2.21998 0
M  V30 796 H 81.2954 2.96479 0.451665 0
M  V30 797 H 78.8484 1.55038 0.198248 0
M  V30 798 H 79.5834 1.75989 2.72394 0
M  V30 799 H 79.3684 3.37675 1.99295 0
M  V30 800 H 80.8584 2.99747 2.9076 0
M  V30 801 N 81.2955 -0.223234 1.56011 0
M  V30 802 C 82.5435 -0.946003 1.78592 0
M  V30 803 C 82.8645 -1.84936 0.618349 0
M  V30 804 O 82.1345 -1.92473 -0.364833 0
M  V30 805 H 80.7145 -0.352298 0.658707 0
M  V30 806 H 83.3765 -0.235494 1.93472 0
M  V30 807 H 82.4725 -1.55381 2.70672 0
M  V30 808 N 82.7736 -1.49793 -0.48987 0
M  V30 809 C 84.0506 -1.50348 -1.25119 0
M  V30 810 C 84.4306 -0.237466 -2.0976 0
M  V30 811 O 83.7786 0.77981 -2.14782 0
M  V30 812 C 83.9886 -2.78872 -2.09837 0
M  V30 813 C 85.3366 -3.288 -2.68655 0
M  V30 814 O 86.3606 -2.80065 -2.20096 0
M  V30 815 O 85.2196 -4.13707 -3.57083 0
M  V30 816 H 82.3136 -0.602242 -0.566775 0
M  V30 817 H 84.8596 -1.62067 -0.503229 0
M  V30 818 H 83.6316 -3.62499 -1.47343 0
M  V30 819 H 83.2546 -2.70066 -2.91805 0
M  V30 820 N 84.2517 0.741722 -1.39055 0
M  V30 821 C 85.4767 1.53607 -1.39354 0
M  V30 822 C 85.9017 1.88096 0.0116905 0
M  V30 823 O 85.2597 1.5143 0.996924 0
M  V30 824 C 85.3077 2.80441 -2.26682 0
M  V30 825 O 84.4117 3.76088 -1.69208 0
M  V30 826 H 83.7527 0.464142 -0.474835 0
M  V30 827 H 86.2827 0.915665 -1.82967 0
M  V30 828 H 86.2927 3.29246 -2.40959 0
M  V30 829 H 84.9677 2.5467 -3.2881 0
M  V30 830 H 83.5447 3.34833 -1.64138 0
M  V30 831 N 85.7298 1.2412 0.971189 0
M  V30 832 C 87.0068 0.986867 1.6888 0
M  V30 833 C 87.3868 -0.491857 2.0529 0
M  V30 834 O 86.7348 -1.46531 1.75331 0
M  V30 835 C 86.9448 1.9063 2.92338 0
M  V30 836 C 88.2928 2.17515 3.64654 0
M  V30 837 O 89.3168 1.88254 3.02388 0
M  V30 838 O 88.1758 2.6719 4.7673 0
M  V30 839 H 85.2698 0.372944 0.738134 0
M  V30 840 H 87.8158 1.35203 1.02559 0
M  V30 841 H 86.5878 2.90552 2.62097 0
M  V30 842 H 86.2108 1.54408 3.66393 0
M  V30 843 N 87.2079 -1.17134 1.05439 0
M  V30 844 C 88.4379 -1.91094 0.785274 0
M  V30 845 C 88.8459 -1.77198 -0.663142 0
M  V30 846 O 88.1889 -1.10835 -1.46497 0
M  V30 847 C 88.2509 -3.42594 1.08949 0
M  V30 848 C 87.9149 -3.80274 2.53458 0
M  V30 849 C 88.9119 -3.82912 3.51673 0
M  V30 850 C 86.5969 -4.11162 2.88532 0
M  V30 851 C 88.5909 -4.15913 4.83006 0
M  V30 852 C 86.2779 -4.43831 4.20068 0
M  V30 853 C 87.2759 -4.46185 5.17115 0
M  V30 854 O 86.9639 -4.78083 6.46291 0
M  V30 855 H 86.6959 -0.613073 0.284811 0
M  V30 856 H 89.2499 -1.49461 1.40893 0
M  V30 857 H 87.4799 -3.84534 0.408741 0
M  V30 858 H 89.1689 -3.97817 0.805991 0
M  V30 859 H 89.9349 -3.5917 3.25917 0
M  V30 860 H 85.8139 -4.085 2.13656 0
M  V30 861 H 89.3579 -4.17665 5.5875 0
M  V30 862 H 85.2549 -4.67037 4.45586 0
M  V30 863 H 86.0229 -4.9593 6.51149 0
M  V30 864 N 88.686 -0.835752 -1.33615 0
M  V30 865 C 90.102 -0.523139 -1.50783 0
M  V30 866 C 90.302 0.950171 -1.77691 0
M  V30 867 O 89.358 1.73411 -1.83534 0
M  V30 868 C 90.671 -1.39378 -2.66448 0
M  V30 869 C 92.219 -1.39223 -2.80332 0
M  V30 870 C 92.694 -2.24765 -3.99055 0
M  V30 871 N 94.185 -2.22458 -4.06284 0
M  V30 872 C 94.92 -2.85386 -4.97336 0
M  V30 873 N 94.416 -3.57354 -5.93523 0
M  V30 874 N 96.209 -2.74872 -4.90308 0
M  V30 875 H 88.36 -1.78952 -1.14411 0
M  V30 876 H 90.623 -0.763297 -0.562212 0
M  V30 877 H 90.329 -2.44061 -2.53234 0
M  V30 878 H 90.203 -1.0676 -3.61776 0
M  V30 879 H 92.59 -0.353136 -2.92979 0
M  V30 880 H 92.671 -1.75846 -1.85773 0
M  V30 881 H 92.315 -3.28732 -3.87167 0
M  V30 882 H 92.245 -1.85485 -4.92852 0
M  V30 883 H 94.736 -1.70119 -3.37443 0
M  V30 884 H 95.049 -4.02584 -6.59656 0
M  V30 885 H 93.394 -3.61461 -5.93608 0
M  V30 886 H 96.585 -2.18213 -4.14126 0
M  V30 887 H 96.758 -3.24199 -5.61069 0
M  V30 888 N 90.1641 1.46063 -0.591896 0
M  V30 889 C 91.4111 2.02338 -0.0809991 0
M  V30 890 C 91.7391 1.46228 1.28249 0
M  V30 891 O 90.9941 0.620818 1.85592 0
M  V30 892 C 91.2931 3.57391 0.0249813 0
M  V30 893 C 90.9591 4.32583 -1.27211 0
M  V30 894 C 89.6211 4.52844 -1.62745 0
M  V30 895 C 91.9731 4.75687 -2.13005 0
M  V30 896 C 89.3011 5.13462 -2.83855 0
M  V30 897 C 91.6531 5.37644 -3.3335 0
M  V30 898 C 90.3171 5.5613 -3.69155 0
M  V30 899 H 89.5871 0.740407 -0.0296397 0
M  V30 900 H 92.2341 1.75321 -0.770374 0
M  V30 901 H 90.5391 3.83597 0.797537 0
M  V30 902 H 92.2361 3.98621 0.436184 0
M  V30 903 H 88.8261 4.17116 -0.985499 0
M  V30 904 H 93.0101 4.59782 -1.86855 0
M  V30 905 H 88.2661 5.25965 -3.11722 0
M  V30 906 H 92.4401 5.7 -4.00092 0
M  V30 907 H 90.0671 6.0287 -4.63089 0
M  V30 908 N 91.6422 0.330177 1.54103 0
M  V30 909 C 92.6052 -0.520144 2.2322 0
M  V30 910 C 93.6052 -1.03828 1.22786 0
M  V30 911 O 94.7952 -0.929652 1.4732 0
M  V30 912 C 91.9272 -1.72317 2.94142 0
M  V30 913 H 93.1202 0.0841605 2.99782 0
M  V30 914 H 90.6732 0.0813433 1.56088 0
M  V30 915 H 91.4082 -2.36653 2.21734 0
M  V30 916 H 91.1932 -1.35898 3.67796 0
M  V30 917 H 92.6832 -2.3266 3.46784 0
M  V30 918 N 93.1203 -1.57491 0.0584922 0
M  V30 919 C 94.0503 -2.14988 -0.911178 0
M  V30 920 C 95.0313 -1.07343 -1.31952 0
M  V30 921 O 96.2163 -1.35318 -1.39294 0
M  V30 922 C 93.3463 -2.70078 -2.18347 0
M  V30 923 C 92.3003 -3.82771 -1.91495 0
M  V30 924 C 91.6263 -4.24408 -3.25241 0
M  V30 925 C 92.9263 -5.07592 -1.23075 0
M  V30 926 H 94.6203 -2.96263 -0.432246 0
M  V30 927 H 92.1663 -1.42512 -0.206469 0
M  V30 928 H 94.1193 -3.08943 -2.86587 0
M  V30 929 H 92.8433 -1.86005 -2.68458 0
M  V30 930 H 91.5023 -3.44389 -1.25664 0
M  V30 931 H 91.1503 -3.37275 -3.73168 0
M  V30 932 H 90.8503 -5.00366 -3.08071 0
M  V30 933 H 92.3743 -4.65879 -3.94701 0
M  V30 934 H 93.7883 -5.43857 -1.81362 0
M  V30 935 H 92.1853 -5.88741 -1.16207 0
M  V30 936 H 93.2553 -4.84454 -0.207847 0
M  V30 937 N 94.5984 0.214957 -1.56127 0
M  V30 938 C 95.5084 1.28727 -1.96129 0
M  V30 939 C 96.5244 1.50916 -0.866044 0
M  V30 940 O 97.7004 1.63918 -1.17016 0
M  V30 941 C 94.7654 2.61569 -2.27558 0
M  V30 942 C 93.8264 2.47625 -3.50685 0
M  V30 943 C 93.0594 3.74132 -3.80606 0
M  V30 944 O 93.2824 4.77438 -3.12104 0
M  V30 945 O 92.2164 3.70849 -4.74083 0
M  V30 946 H 96.0424 0.977855 -2.87527 0
M  V30 947 H 93.6274 0.418358 -1.43423 0
M  V30 948 H 95.5094 3.40012 -2.48938 0
M  V30 949 H 94.1844 2.92178 -1.39332 0
M  V30 950 H 93.0914 1.67361 -3.34576 0
M  V30 951 H 94.4244 2.21954 -4.39315 0
M  V30 952 N 96.0765 1.50051 0.48192 0
M  V30 953 C 97.3015 1.64508 1.26301 0
M  V30 954 C 97.7265 0.323851 1.85291 0
M  V30 955 O 97.0845 -0.710969 1.66778 0
M  V30 956 C 97.1325 2.7305 2.35533 0
M  V30 957 O 96.2365 2.3355 3.39895 0
M  V30 958 H 95.5775 0.549978 0.372048 0
M  V30 959 H 98.1075 1.9636 0.574786 0
M  V30 960 H 98.1175 2.95799 2.8101 0
M  V30 961 H 96.7925 3.68946 1.91967 0
M  V30 962 H 95.3695 2.21205 3.00204 0
M  V30 963 N 97.5546 -0.734337 1.39446 0
M  V30 964 C 98.8036 -1.48937 1.36017 0
M  V30 965 C 99.1166 -1.95557 -0.0409005 0
M  V30 966 O 100.323 -2.70779 -0.19778 0
M  V30 967 C 98.7786 -2.69125 2.38955 0
M  V30 968 C 98.3866 -2.29452 3.8478 0
M  V30 969 C 100.131 -3.46944 2.44603 0
M  V30 970 C 98.0376 -3.46366 4.79358 0
M  V30 971 H 96.9676 -0.559296 0.505672 0
M  V30 972 H 99.6186 -0.800983 1.65095 0
M  V30 973 H 98.0006 -3.40041 2.02948 0
M  V30 974 H 99.1746 -1.66077 4.29831 0
M  V30 975 H 97.4896 -1.64723 3.82433 0
M  V30 976 H 100.087 -4.33907 3.12456 0
M  V30 977 H 100.43 -3.89454 1.47076 0
M  V30 978 H 100.963 -2.83056 2.79507 0
M  V30 979 H 97.7016 -3.08905 5.78151 0
M  V30 980 H 97.2216 -4.08719 4.38986 0
M  V30 981 H 98.9006 -4.12691 4.98292 0
M  V30 982 N 99.0327 -1.24633 -0.964593 0
M  V30 983 C 100.258 -1.11596 -1.74818 0
M  V30 984 C 100.683 0.32723 -1.85232 0
M  V30 985 O 100.041 1.23695 -1.32549 0
M  V30 986 C 100.089 -1.76397 -3.1451 0
M  V30 987 O 99.1927 -1.03685 -3.99153 0
M  V30 988 H 98.5337 -0.390196 -0.537255 0
M  V30 989 H 101.064 -1.65002 -1.20977 0
M  V30 990 H 101.074 -1.8228 -3.65018 0
M  V30 991 H 99.7487 -2.81401 -3.06246 0
M  V30 992 H 98.3257 -1.05611 -3.57632 0
M  V30 993 N 100.511 1.16574 -1.06058 0
M  V30 994 C 101.458 2.20883 -0.669263 0
M  V30 995 C 102.428 1.62729 0.332918 0
M  V30 996 O 103.613 1.895 0.222346 0
M  V30 997 C 100.753 3.45049 -0.0593572 0
M  V30 998 C 99.8658 4.17458 -1.11143 0
M  V30 999 C 99.0008 5.29135 -0.467916 0
M  V30 1000 C 98.0398 5.93343 -1.50369 0
M  V30 1001 N 97.1768 6.96516 -0.883706 0
M  V30 1002 H 102.017 2.53709 -1.5632 0
M  V30 1003 H 99.5538 1.24616 -0.781625 0
M  V30 1004 H 101.512 4.16033 0.311771 0
M  V30 1005 H 100.142 3.12781 0.797992 0
M  V30 1006 H 99.1938 3.45101 -1.60029 0
M  V30 1007 H 100.506 4.61307 -1.89731 0
M  V30 1008 H 99.6598 6.06684 -0.0436871 0
M  V30 1009 H 98.3988 4.86443 0.349864 0
M  V30 1010 H 97.4038 5.14517 -1.93784 0
M  V30 1011 H 98.6288 6.38114 -2.32352 0
M  V30 1012 H 96.5748 6.55943 -0.086595 0
M  V30 1013 H 96.4918 7.38723 -1.607 0
M  V30 1014 H 97.7598 7.77993 -0.484543 0
M  V30 1015 N 101.989 0.842826 1.3317 0
M  V30 1016 C 103.235 0.441099 1.97945 0
M  V30 1017 C 103.568 -0.998024 1.66593 0
M  V30 1018 O 102.843 -1.69839 0.947898 0
M  V30 1019 C 103.126 0.666841 3.53872 0
M  V30 1020 C 102.979 2.15352 3.94897 0
M  V30 1021 C 104.298 0.115544 4.39948 0
M  V30 1022 H 101.417 0.161739 0.719034 0
M  V30 1023 H 104.059 1.05907 1.57746 0
M  V30 1024 H 102.209 0.140828 3.88245 0
M  V30 1025 H 103.881 2.7447 3.70761 0
M  V30 1026 H 102.124 2.63653 3.44484 0
M  V30 1027 H 102.795 2.26221 5.03516 0
M  V30 1028 H 105.271 0.565213 4.12243 0
M  V30 1029 H 104.147 0.303152 5.48062 0
M  V30 1030 H 104.408 -0.980935 4.3108 0
M  V30 1031 N 103.467 -1.45747 0.599634 0
M  V30 1032 C 104.707 -2.04181 0.0946309 0
M  V30 1033 C 105.071 -1.45895 -1.24815 0
M  V30 1034 O 106.272 -1.95633 -1.8434 0
M  V30 1035 C 104.543 -3.57368 0.047581 0
M  V30 1036 S 106.102 -4.36997 -0.397387 0
M  V30 1037 H 102.92 -0.70953 0.0456954 0
M  V30 1038 H 105.522 -1.78564 0.795946 0
M  V30 1039 H 104.226 -3.97303 1.02852 0
M  V30 1040 H 103.757 -3.87549 -0.675977 0
M  V30 1041 H 105.772 -4.68012 -1.64862 0
M  V30 1042 N 104.945 -0.338344 -1.53925 0
M  V30 1043 C 106.173 0.261298 -2.05243 0
M  V30 1044 C 106.588 1.44625 -1.21363 0
M  V30 1045 O 105.945 1.80811 -0.247736 0
M  V30 1046 C 105.996 0.681412 -3.5502 0
M  V30 1047 O 105.717 -0.456414 -4.35716 0
M  V30 1048 C 107.218 1.34232 -4.22489 0
M  V30 1049 H 104.438 0.0513685 -0.669031 0
M  V30 1050 H 106.982 -0.488822 -1.98572 0
M  V30 1051 H 105.137 1.38148 -3.61931 0
M  V30 1052 H 105.551 -0.122564 -5.24357 0
M  V30 1053 H 107.025 1.58708 -5.28693 0
M  V30 1054 H 107.502 2.29426 -3.74514 0
M  V30 1055 H 108.108 0.684424 -4.19757 0
M  V30 1056 N 106.423 1.57458 -0.0668435 0
M  V30 1057 C 107.353 2.15468 0.899764 0
M  V30 1058 C 108.334 1.08042 1.31381 0
M  V30 1059 O 109.519 1.36054 1.38574 0
M  V30 1060 C 106.649 2.71232 2.16911 0
M  V30 1061 C 105.603 3.83781 1.89463 0
M  V30 1062 C 104.929 4.26127 3.22986 0
M  V30 1063 C 106.229 5.08238 1.20381 0
M  V30 1064 H 107.923 2.96488 0.416529 0
M  V30 1065 H 105.469 1.4262 0.198908 0
M  V30 1066 H 107.422 3.10458 2.84945 0
M  V30 1067 H 106.146 1.87426 2.67468 0
M  V30 1068 H 104.805 3.45051 1.23836 0
M  V30 1069 H 104.453 3.39249 3.71374 0
M  V30 1070 H 104.153 5.01993 3.05413 0
M  V30 1071 H 105.677 4.67966 3.92225 0
M  V30 1072 H 107.091 5.44811 1.78475 0
M  V30 1073 H 105.488 5.89349 1.13083 0
M  V30 1074 H 106.558 4.84558 0.182153 0
M  V30 1075 N 107.901 -0.206675 1.56239 0
M  V30 1076 C 108.864 -1.23976 1.92776 0
M  V30 1077 C 109.864 -1.39041 0.807729 0
M  V30 1078 O 111.054 -1.37051 1.0753 0
M  V30 1079 C 108.186 -2.61112 2.19165 0
M  V30 1080 H 109.379 -0.927764 2.85189 0
M  V30 1081 H 106.932 -0.447718 1.4975 0
M  V30 1082 H 107.667 -2.97386 1.29352 0
M  V30 1083 H 107.452 -2.51552 3.00772 0
M  V30 1084 H 108.942 -3.35633 2.48476 0
M  V30 1085 N 109.379 -1.50304 -0.473955 0
M  V30 1086 C 110.309 -1.71886 -1.58042 0
M  V30 1087 C 111.29 -0.567799 -1.60344 0
M  V30 1088 O 112.475 -0.806623 -1.76656 0
M  V30 1089 C 109.605 -1.81036 -2.96384 0
M  V30 1090 C 108.559 -2.962 -3.08949 0
M  V30 1091 C 107.885 -2.9049 -4.48909 0
M  V30 1092 C 109.185 -4.36752 -2.86434 0
M  V30 1093 H 110.879 -2.64527 -1.40234 0
M  V30 1094 H 108.425 -1.27295 -0.673201 0
M  V30 1095 H 110.378 -1.94719 -3.73714 0
M  V30 1096 H 109.102 -0.850147 -3.15341 0
M  V30 1097 H 107.761 -2.82164 -2.3405 0
M  V30 1098 H 107.409 -1.92321 -4.64781 0
M  V30 1099 H 107.109 -3.67802 -4.58253 0
M  V30 1100 H 108.633 -3.06218 -5.28264 0
M  V30 1101 H 110.047 -4.5133 -3.53517 0
M  V30 1102 H 108.444 -5.15493 -3.07225 0
M  V30 1103 H 109.514 -4.49321 -1.82316 0
M  V30 1104 N 110.857 0.726932 -1.39834 0
M  V30 1105 C 111.82 1.82269 -1.38962 0
M  V30 1106 C 112.82 1.58248 -0.285334 0
M  V30 1107 O 114.01 1.65499 -0.54366 0
M  V30 1108 C 111.142 3.20186 -1.17019 0
M  V30 1109 H 112.335 1.84443 -2.36476 0
M  V30 1110 H 109.888 0.931416 -1.25516 0
M  V30 1111 H 110.623 3.23669 -0.202204 0
M  V30 1112 H 110.408 3.3902 -1.96998 0
M  V30 1113 H 111.898 4.00235 -1.1917 0
M  V30 1114 N 112.336 1.25143 0.95797 0
M  V30 1115 C 113.266 1.07711 2.07173 0
M  V30 1116 C 114.247 -0.0128462 1.70095 0
M  V30 1117 O 115.432 0.156061 1.93572 0
M  V30 1118 C 112.562 0.691503 3.40346 0
M  V30 1119 C 111.516 1.73132 3.9142 0
M  V30 1120 C 110.842 1.20049 5.21049 0
M  V30 1121 C 112.142 3.1294 4.1817 0
M  V30 1122 H 113.836 2.00873 2.22014 0
M  V30 1123 H 111.382 0.967191 1.06684 0
M  V30 1124 H 113.335 0.556505 4.17709 0
M  V30 1125 H 112.059 -0.275819 3.25433 0
M  V30 1126 H 110.718 1.8547 3.16222 0
M  V30 1127 H 110.366 0.223499 5.02503 0
M  V30 1128 H 110.066 1.89545 5.56189 0
M  V30 1129 H 111.59 1.07782 6.01012 0
M  V30 1130 H 113.004 3.03775 4.86203 0
M  V30 1131 H 111.401 3.79875 4.64559 0
M  V30 1132 H 112.471 3.6025 3.24573 0
M  V30 1133 N 113.814 -1.1601 1.06675 0
M  V30 1134 C 114.724 -2.24156 0.692179 0
M  V30 1135 C 115.74 -1.71507 -0.293513 0
M  V30 1136 O 116.916 -2.009 -0.141861 0
M  V30 1137 C 113.981 -3.46587 0.0884131 0
M  V30 1138 C 113.042 -4.14257 1.12646 0
M  V30 1139 C 112.275 -5.30844 0.551416 0
M  V30 1140 O 112.498 -5.66858 -0.634656 0
M  V30 1141 O 111.432 -5.87848 1.29298 0
M  V30 1142 H 115.258 -2.58513 1.59388 0
M  V30 1143 H 112.843 -1.23599 0.83926 0
M  V30 1144 H 114.725 -4.20679 -0.246361 0
M  V30 1145 H 113.4 -3.13994 -0.786712 0
M  V30 1146 H 112.307 -3.42118 1.51348 0
M  V30 1147 H 113.64 -4.50914 1.97325 0
M  V30 1148 N 115.292 -0.849877 -1.32721 0
M  V30 1149 C 116.569 -0.372405 -1.92022 0
M  V30 1150 C 116.949 1.1435 -1.77447 0
M  V30 1151 O 116.297 1.96296 -1.16962 0
M  V30 1152 C 116.507 -0.831482 -3.3895 0
M  V30 1153 C 117.855 -0.845882 -4.16089 0
M  V30 1154 O 118.879 -0.775806 -3.47649 0
M  V30 1155 O 117.738 -0.943753 -5.38289 0
M  V30 1156 H 114.832 -0.107667 -0.819961 0
M  V30 1157 H 117.378 -0.93646 -1.41522 0
M  V30 1158 H 116.15 -1.87448 -3.4348 0
M  V30 1159 H 115.773 -0.24461 -3.96847 0
M  V30 1160 N 116.77 1.45427 -0.607355 0
M  V30 1161 C 118.016 2.0254 -0.102607 0
M  V30 1162 C 118.349 1.47478 1.26348 0
M  V30 1163 O 117.624 0.64939 1.83339 0
M  V30 1164 C 117.907 3.60044 -0.0634347 0
M  V30 1165 C 117.76 4.2544 -1.46017 0
M  V30 1166 C 119.079 4.35646 0.624514 0
M  V30 1167 H 116.198 0.73598 -0.0387607 0
M  V30 1168 H 118.84 1.73284 -0.779282 0
M  V30 1169 H 116.99 3.85101 0.512808 0
M  V30 1170 H 118.662 4.11569 -2.08347 0
M  V30 1171 H 116.905 3.83849 -2.02094 0
M  V30 1172 H 117.576 5.34342 -1.385 0
M  V30 1173 H 120.052 4.15882 0.134723 0
M  V30 1174 H 118.928 5.45376 0.621028 0
M  V30 1175 H 119.189 4.08501 1.69055 0
M  V30 1176 N 118.248 0.346503 1.53744 0
M  V30 1177 C 119.496 -0.248612 2.00565 0
M  V30 1178 C 119.817 -1.5083 1.23593 0
M  V30 1179 O 119.087 -1.92858 0.343912 0
M  V30 1180 H 117.667 -0.0948564 0.740953 0
M  V30 1181 H 120.329 0.468341 1.89189 0
M  V30 1182 H 119.425 -0.488994 3.08245 0
M  V30 1183 N 119.726 -1.57421 0.075193 0
M  V30 1184 C 121.137 -1.81021 -0.456964 0
M  V30 1185 C 121.488 -0.98936 -1.69429 0
M  V30 1186 O 120.613 -0.212865 -2.15351 0
M  V30 1187 C 121.208 -3.28329 -0.83581 0
M  V30 1188 C 119.767 -3.52764 -1.31281 0
M  V30 1189 C 118.914 -2.75676 -0.299648 0
M  V30 1190 H 121.865 -1.55822 0.300856 0
M  V30 1191 H 121.886 -3.40564 -1.69696 0
M  V30 1192 H 121.398 -3.88046 0.0649238 0
M  V30 1193 H 119.499 -2.98355 -2.23193 0
M  V30 1194 H 119.612 -4.61451 -1.28839 0
M  V30 1195 H 117.976 -2.42538 -0.777641 0
M  V30 1196 H 118.759 -3.38132 0.593417 0
M  V30 1197 N 121.204 0.198386 -1.56346 0
M  V30 1198 C 122.136 1.26987 -1.90806 0
M  V30 1199 C 123.149 1.41877 -0.798419 0
M  V30 1200 O 124.338 1.42362 -1.07682 0
M  V30 1201 C 121.438 2.64246 -2.12196 0
M  V30 1202 C 120.611 2.71007 -3.43328 0
M  V30 1203 C 119.67 3.89439 -3.5387 0
M  V30 1204 O 118.696 3.76695 -4.26719 0
M  V30 1205 N 119.898 5.04752 -2.86715 0
M  V30 1206 H 122.663 0.977433 -2.83313 0
M  V30 1207 H 120.224 0.388322 -1.57174 0
M  V30 1208 H 122.216 3.41896 -2.1654 0
M  V30 1209 H 120.786 2.85992 -1.26204 0
M  V30 1210 H 120.006 1.79657 -3.50881 0
M  V30 1211 H 121.294 2.72512 -4.29668 0
M  V30 1212 H 120.692 5.18004 -2.2735 0
M  V30 1213 H 119.249 5.8036 -2.96691 0
M  V30 1214 N 122.682 1.50554 0.465978 0
M  V30 1215 C 123.645 1.69233 1.54574 0
M  V30 1216 C 124.645 0.562901 1.50626 0
M  V30 1217 O 125.835 0.830016 1.53155 0
M  V30 1218 C 122.967 1.7223 2.94193 0
M  V30 1219 H 124.16 2.65571 1.39327 0
M  V30 1220 H 121.713 1.40111 0.692711 0
M  V30 1221 H 122.448 0.77603 3.14878 0
M  V30 1222 H 122.233 2.54285 2.98466 0
M  V30 1223 H 123.723 1.88618 3.72576 0
M  V30 1224 N 124.16 -0.719506 1.40217 0
M  V30 1225 C 125.406 -1.48152 1.38488 0
M  V30 1226 C 125.739 -1.94195 -0.0141867 0
M  V30 1227 O 125.014 -1.67884 -0.982096 0
M  V30 1228 C 125.297 -2.71035 2.37091 0
M  V30 1229 C 125.15 -2.30912 3.86005 0
M  V30 1230 C 126.469 -3.73182 2.33288 0
M  V30 1231 H 123.588 -0.537395 0.504357 0
M  V30 1232 H 126.23 -0.821472 1.71324 0
M  V30 1233 H 124.38 -3.27352 2.0922 0
M  V30 1234 H 126.052 -1.80107 4.24687 0
M  V30 1235 H 124.295 -1.62958 4.02029 0
M  V30 1236 H 124.966 -3.18978 4.50508 0
M  V30 1237 H 127.442 -3.26485 2.57966 0
M  V30 1238 H 126.318 -4.56806 3.04334 0
M  V30 1239 H 126.579 -4.21202 1.34317 0
M  V30 1240 N 125.638 -1.25649 -0.95132 0
M  V30 1241 C 126.57 -1.02112 -2.05197 0
M  V30 1242 C 127.583 0.0150571 -1.62793 0
M  V30 1243 O 128.772 -0.223874 -1.77091 0
M  V30 1244 C 125.872 -0.522361 -3.3485 0
M  V30 1245 C 125.045 -1.62546 -4.06076 0
M  V30 1246 C 124.104 -1.12649 -5.14001 0
M  V30 1247 O 123.13 -1.82156 -5.39266 0
M  V30 1248 N 124.332 0.03047 -5.80492 0
M  V30 1249 H 127.097 -1.96885 -2.25957 0
M  V30 1250 H 124.658 -1.16899 -1.1201 0
M  V30 1251 H 126.65 -0.172961 -4.0433 0
M  V30 1252 H 125.22 0.33151 -3.10837 0
M  V30 1253 H 124.44 -2.14628 -3.30649 0
M  V30 1254 H 125.728 -2.36644 -4.50419 0
M  V30 1255 H 125.126 0.611169 -5.62389 0
M  V30 1256 H 123.683 0.320875 -6.5101 0
M  V30 1257 N 127.117 1.15442 -1.07289 0
M  V30 1258 C 128.394 1.82306 -0.708792 0
M  V30 1259 C 128.774 1.94991 0.808807 0
M  V30 1260 O 128.122 1.50085 1.72298 0
M  V30 1261 C 128.332 3.18695 -1.42247 0
M  V30 1262 C 129.68 3.94341 -1.57417 0
M  V30 1263 O 130.704 3.28247 -1.38319 0
M  V30 1264 O 129.563 5.12839 -1.88834 0
M  V30 1265 H 126.657 0.787628 -0.252132 0
M  V30 1266 H 129.203 1.22559 -1.17377 0
M  V30 1267 H 127.975 3.04557 -2.45684 0
M  V30 1268 H 127.598 3.86128 -0.948223 0
M  V30 1269 N 128.595 0.856903 1.32268 0
M  V30 1270 C 129.542 0.301172 2.28827 0
M  V30 1271 C 130.512 -0.593104 1.5515 0
M  V30 1272 O 131.697 -0.527537 1.83362 0
M  V30 1273 C 128.837 -0.502523 3.41422 0
M  V30 1274 C 127.95 0.417797 4.29975 0
M  V30 1275 C 127.085 -0.398749 5.29701 0
M  V30 1276 C 126.124 0.518827 6.09897 0
M  V30 1277 N 125.261 -0.260674 7.01616 0
M  V30 1278 H 130.101 1.12983 2.75751 0
M  V30 1279 H 127.638 0.568582 1.35667 0
M  V30 1280 H 129.596 -0.984141 4.05426 0
M  V30 1281 H 128.226 -1.29599 2.95642 0
M  V30 1282 H 127.278 1.01781 3.66531 0
M  V30 1283 H 128.59 1.12191 4.86019 0
M  V30 1284 H 127.744 -0.943435 5.9932 0
M  V30 1285 H 126.483 -1.13622 4.7428 0
M  V30 1286 H 125.488 1.07538 5.39181 0
M  V30 1287 H 126.713 1.25495 6.67404 0
M  V30 1288 H 124.659 -0.981198 6.4862 0
M  V30 1289 H 124.576 0.384364 7.55022 0
M  V30 1290 H 125.844 -0.787014 7.75517 0
M  V30 1291 N 130.073 -1.45103 0.615059 0
M  V30 1292 C 131.322 -2.01396 0.110718 0
M  V30 1293 C 131.635 -1.48834 -1.26916 0
M  V30 1294 O 132.841 -1.97152 -1.86664 0
M  V30 1295 C 131.297 -3.59599 0.14723 0
M  V30 1296 C 130.905 -4.21158 1.52743 0
M  V30 1297 C 132.649 -4.23428 -0.30148 0
M  V30 1298 C 130.556 -5.71535 1.51992 0
M  V30 1299 H 129.486 -0.753061 0.0376241 0
M  V30 1300 H 132.137 -1.66494 0.77149 0
M  V30 1301 H 130.519 -3.91724 -0.580339 0
M  V30 1302 H 131.693 -4.00594 2.2773 0
M  V30 1303 H 130.008 -3.69552 1.91886 0
M  V30 1304 H 132.605 -5.33703 -0.326392 0
M  V30 1305 H 132.948 -3.94629 -1.32565 0
M  V30 1306 H 133.481 -3.96047 0.373065 0
M  V30 1307 H 130.22 -6.05044 2.52193 0
M  V30 1308 H 129.74 -5.94268 0.81274 0
M  V30 1309 H 131.419 -6.34873 1.24681 0
M  V30 1310 N 131.551 -0.354651 -1.53558 0
M  V30 1311 C 132.799 0.237972 -2.00694 0
M  V30 1312 C 133.12 1.50173 -1.24391 0
M  V30 1313 O 132.39 1.92673 -0.354135 0
M  V30 1314 H 130.97 0.0909256 -0.741446 0
M  V30 1315 H 133.632 -0.478368 -1.88938 0
M  V30 1316 H 132.728 0.47264 -3.085 0
M  V30 1317 N 133.029 1.57378 -0.0835403 0
M  V30 1318 C 133.992 2.12252 0.864959 0
M  V30 1319 C 134.992 1.04916 1.21858 0
M  V30 1320 O 136.182 1.30853 1.14991 0
M  V30 1321 C 133.314 2.63358 2.16461 0
M  V30 1322 H 134.507 2.97371 0.388676 0
M  V30 1323 H 132.06 1.55423 0.165317 0
M  V30 1324 H 132.795 1.81727 2.686 0
M  V30 1325 H 132.58 3.41826 1.92087 0
M  V30 1326 H 134.07 3.05847 2.84337 0
M  V30 1327 N 134.507 -0.190092 1.56449 0
M  V30 1328 C 135.784 -0.935886 1.71757 0
M  V30 1329 C 136.164 -2.01173 0.639726 0
M  V30 1330 O 135.512 -2.25827 -0.348502 0
M  V30 1331 C 135.722 -1.51775 3.1427 0
M  V30 1332 C 137.07 -1.99794 3.74656 0
M  V30 1333 O 138.094 -1.61607 3.1743 0
M  V30 1334 O 136.953 -2.70079 4.751 0
M  V30 1335 H 134.047 -0.439229 0.700719 0
M  V30 1336 H 136.593 -0.179395 1.68749 0
M  V30 1337 H 135.365 -0.742505 3.84191 0
M  V30 1338 H 134.988 -2.33894 3.21527 0
M  V30 1339 N 135.985 -1.50799 -0.457987 0
M  V30 1340 C 137.396 -1.55152 -1.0385 0
M  V30 1341 C 137.747 -0.362719 -1.92818 0
M  V30 1342 O 136.872 0.522915 -2.09987 0
M  V30 1343 C 137.467 -2.81173 -1.89017 0
M  V30 1344 C 136.026 -2.88164 -2.42154 0
M  V30 1345 C 135.173 -2.49591 -1.20829 0
M  V30 1346 H 138.124 -1.56874 -0.240068 0
M  V30 1347 H 138.145 -2.63769 -2.74238 0
M  V30 1348 H 137.657 -3.67677 -1.24238 0
M  V30 1349 H 135.758 -2.06042 -3.10447 0
M  V30 1350 H 135.871 -3.91356 -2.76364 0
M  V30 1351 H 134.235 -2.02322 -1.54719 0
M  V30 1352 H 135.018 -3.38418 -0.576927 0
M  V30 1353 N 137.463 0.71206 -1.40597 0
M  V30 1354 C 138.691 1.50111 -1.42388 0
M  V30 1355 C 139.106 1.88784 -0.0245395 0
M  V30 1356 O 138.463 1.55681 0.952351 0
M  V30 1357 C 138.514 2.7742 -2.31776 0
M  V30 1358 O 138.235 2.40382 -3.66262 0
M  V30 1359 C 139.736 3.7129 -2.42196 0
M  V30 1360 H 136.956 0.46314 -0.485533 0
M  V30 1361 H 139.5 0.878068 -1.8469 0
M  V30 1362 H 137.655 3.36001 -1.92827 0
M  V30 1363 H 138.069 3.22324 -4.13772 0
M  V30 1364 H 139.543 4.57448 -3.08943 0
M  V30 1365 H 140.02 4.14641 -1.44809 0
M  V30 1366 H 140.626 3.18619 -2.81712 0
M  V30 1367 N 138.941 1.26152 0.944643 0
M  V30 1368 C 140.189 1.11271 1.6871 0
M  V30 1369 C 140.51 -0.345166 1.91921 0
M  V30 1370 O 139.78 -1.24387 1.51343 0
M  V30 1371 H 138.36 0.408783 0.625224 0
M  V30 1372 H 141.022 1.58427 1.1352 0
M  V30 1373 H 140.118 1.62879 2.66227 0
M  V30 1374 N 140.419 -1.14872 1.07899 0
M  V30 1375 C 141.349 -2.2193 0.725887 0
M  V30 1376 C 142.33 -1.67622 -0.28927 0
M  V30 1377 O 143.515 -1.93533 -0.160787 0
M  V30 1378 C 140.645 -3.47061 0.128856 0
M  V30 1379 C 139.599 -4.14363 1.07178 0
M  V30 1380 C 138.925 -5.33636 0.337229 0
M  V30 1381 C 140.225 -4.63492 2.40775 0
M  V30 1382 H 141.919 -2.51724 1.62097 0
M  V30 1383 H 139.465 -1.20991 0.780838 0
M  V30 1384 H 141.418 -4.21199 -0.130147 0
M  V30 1385 H 140.142 -3.16617 -0.80134 0
M  V30 1386 H 138.801 -3.42173 1.3158 0
M  V30 1387 H 138.449 -4.99449 -0.596606 0
M  V30 1388 H 138.149 -5.79609 0.965788 0
M  V30 1389 H 139.673 -6.10539 0.0861567 0
M  V30 1390 H 141.087 -5.2913 2.20669 0
M  V30 1391 H 139.484 -5.20148 2.99276 0
M  V30 1392 H 140.554 -3.78834 3.02676 0
M  V30 1393 N 141.898 -0.863906 -1.31812 0
M  V30 1394 C 143.309 -0.52522 -1.7916 0
M  V30 1395 C 143.66 0.957518 -1.71248 0
M  V30 1396 O 142.785 1.74734 -1.27659 0
M  V30 1397 C 143.38 -0.9466 -3.25307 0
M  V30 1398 C 141.939 -0.659668 -3.70574 0
M  V30 1399 C 141.086 -1.14126 -2.52726 0
M  V30 1400 H 144.037 -1.05022 -1.1898 0
M  V30 1401 H 144.058 -0.266766 -3.79564 0
M  V30 1402 H 143.57 -2.02579 -3.31034 0
M  V30 1403 H 141.671 0.408416 -3.70355 0
M  V30 1404 H 141.784 -1.23245 -4.62977 0
M  V30 1405 H 140.148 -0.561216 -2.4844 0
M  V30 1406 H 140.931 -2.22775 -2.61201 0
M  V30 1407 N 143.376 1.44774 -0.622745 0
M  V30 1408 C 144.623 2.02121 -0.1239 0
M  V30 1409 C 144.951 1.48915 1.25118 0
M  V30 1410 O 144.206 0.660045 1.84233 0
M  V30 1411 C 144.505 3.57364 -0.0508323 0
M  V30 1412 C 144.171 4.29787 -1.36358 0
M  V30 1413 C 142.833 4.4929 -1.72314 0
M  V30 1414 C 145.185 4.71062 -2.23048 0
M  V30 1415 C 142.513 5.07325 -2.94682 0
M  V30 1416 C 144.865 5.30452 -3.44679 0
M  V30 1417 C 143.529 5.48175 -3.80868 0
M  V30 1418 H 142.799 0.739612 -0.0453381 0
M  V30 1419 H 145.446 1.73648 -0.807389 0
M  V30 1420 H 143.751 3.85202 0.715991 0
M  V30 1421 H 145.448 3.99456 0.351533 0
M  V30 1422 H 142.038 4.14932 -1.07375 0
M  V30 1423 H 146.222 4.55715 -1.96565 0
M  V30 1424 H 141.478 5.19235 -3.22809 0
M  V30 1425 H 145.652 5.61385 -4.12092 0
M  V30 1426 H 143.279 5.92912 -4.75773 0
M  V30 1427 N 144.854 0.36279 1.53368 0
M  V30 1428 C 145.802 -0.500155 2.27159 0
M  V30 1429 C 146.796 -1.08575 1.3003 0
M  V30 1430 O 148.002 -1.02927 1.47668 0
M  V30 1431 H 144.377 -0.180009 0.730138 0
M  V30 1432 H 146.348 0.14401 2.98052 0
M  V30 1433 C 145.097 -1.62937 3.07159 0
M  V30 1434 H 144.42 -1.18806 3.8174 0
M  V30 1435 H 145.86 -2.20795 3.61975 0
M  V30 1436 C 144.319 -2.57007 2.17829 0
M  V30 1437 O 144.849 -3.59752 1.78721 0
M  V30 1438 N 143.055 -2.26131 1.82518 0
M  V30 1439 H 142.602 -1.42616 2.14519 0
M  V30 1440 H 142.56 -2.89327 1.23034 0
M  V30 1441 N 146.332 -1.57332 0.0918853 0
M  V30 1442 C 147.557 -1.98995 -0.584442 0
M  V30 1443 C 147.982 -0.970528 -1.61128 0
M  V30 1444 O 147.34 0.0613904 -1.81196 0
M  V30 1445 C 147.388 -3.39636 -1.21161 0
M  V30 1446 O 146.492 -3.40447 -2.32744 0
M  V30 1447 H 145.833 -0.647165 -0.148572 0
M  V30 1448 H 148.363 -2.03873 0.172347 0
M  V30 1449 H 148.373 -3.7726 -1.55367 0
M  V30 1450 H 147.048 -4.13356 -0.459313 0
M  V30 1451 H 145.625 -3.14614 -2.0018 0
M  V30 1452 N 147.81 0.181792 -1.56548 0
M  V30 1453 C 149.056 0.901431 -1.81665 0
M  V30 1454 C 149.389 1.82347 -0.668075 0
M  V30 1455 O 148.664 1.91669 0.330615 0
M  V30 1456 C 148.947 1.70618 -3.17115 0
M  V30 1457 C 148.8 0.807964 -4.42484 0
M  V30 1458 C 150.119 2.67605 -3.49393 0
M  V30 1459 H 147.238 0.32627 -0.660846 0
M  V30 1460 H 149.88 0.168134 -1.89255 0
M  V30 1461 H 148.03 2.33133 -3.10775 0
M  V30 1462 H 149.702 0.19649 -4.60881 0
M  V30 1463 H 147.945 0.115411 -4.33646 0
M  V30 1464 H 148.616 1.40632 -5.33785 0
M  V30 1465 H 151.092 2.15218 -3.56118 0
M  V30 1466 H 149.968 3.20985 -4.45264 0
M  V30 1467 H 150.229 3.47298 -2.73563 0
M  V30 1468 N 149.288 1.51039 0.449983 0
M  V30 1469 C 150.537 1.62317 1.19733 0
M  V30 1470 C 150.85 0.339101 1.92638 0
M  V30 1471 O 152.056 0.331069 2.69474 0
M  V30 1472 C 150.512 2.86608 2.17678 0
M  V30 1473 C 150.12 4.21972 1.50479 0
M  V30 1474 C 151.864 3.07239 2.92924 0
M  V30 1475 C 149.771 5.37426 2.46834 0
M  V30 1476 H 148.701 0.604532 0.450619 0
M  V30 1477 H 151.352 1.77494 0.465625 0
M  V30 1478 H 149.734 2.65037 2.94231 0
M  V30 1479 H 150.908 4.53878 0.795716 0
M  V30 1480 H 149.223 4.07117 0.874344 0
M  V30 1481 H 151.82 3.90668 3.65079 0
M  V30 1482 H 152.163 2.19807 3.5354 0
M  V30 1483 H 152.696 3.29091 2.23481 0
M  V30 1484 H 149.435 6.27079 1.90926 0
M  V30 1485 H 148.955 5.09912 3.15832 0
M  V30 1486 H 150.634 5.68862 3.08228 0
M  V30 1487 N 150.766 -0.704594 1.40972 0
M  V30 1488 C 151.729 -1.80035 1.41845 0
M  V30 1489 C 152.729 -1.57774 0.310474 0
M  V30 1490 O 153.919 -1.64613 0.56992 0
M  V30 1491 C 151.051 -3.18284 1.22098 0
M  V30 1492 H 152.244 -1.80658 2.3938 0
M  V30 1493 H 149.797 -0.911329 1.26982 0
M  V30 1494 H 150.532 -3.23306 0.253672 0
M  V30 1495 H 150.317 -3.35843 2.02366 0
M  V30 1496 H 151.807 -3.98289 1.25522 0
M  V30 1497 N 152.244 -1.26651 -0.937939 0
M  V30 1498 C 153.174 -1.10993 -2.05433 0
M  V30 1499 C 154.155 -0.0142161 -1.70094 0
M  V30 1500 O 155.34 -0.186837 -1.93299 0
M  V30 1501 C 152.47 -0.745561 -3.39203 0
M  V30 1502 C 151.424 -1.79337 -3.88616 0
M  V30 1503 C 150.75 -1.28324 -5.19073 0
M  V30 1504 C 152.05 -3.19553 -4.13138 0
M  V30 1505 H 153.744 -2.0438 -2.1879 0
M  V30 1506 H 151.29 -0.984041 -1.05131 0
M  V30 1507 H 153.243 -0.622888 -4.16771 0
M  V30 1508 H 151.967 0.22401 -3.25831 0
M  V30 1509 H 150.626 -1.90477 -3.13231 0
M  V30 1510 H 150.274 -0.303414 -5.02084 0
M  V30 1511 H 149.974 -1.98369 -5.53103 0
M  V30 1512 H 151.498 -1.1733 -5.99221 0
M  V30 1513 H 152.912 -3.11471 -4.81309 0
M  V30 1514 H 151.309 -3.87218 -4.58457 0
M  V30 1515 H 152.379 -3.65368 -3.18801 0
M  V30 1516 N 153.722 1.14298 -1.08507 0
M  V30 1517 C 154.632 2.23027 -0.727753 0
M  V30 1518 C 155.648 1.71952 0.26619 0
M  V30 1519 O 156.824 2.011 0.109882 0
M  V30 1520 C 153.889 3.46403 -0.143541 0
M  V30 1521 C 152.95 4.12413 -1.19223 0
M  V30 1522 C 152.183 5.29899 -0.635798 0
M  V30 1523 O 152.406 5.67796 0.544393 0
M  V30 1524 O 151.34 5.85717 -1.38634 0
M  V30 1525 H 155.166 2.55945 -1.63481 0
M  V30 1526 H 152.751 1.22248 -0.858817 0
M  V30 1527 H 154.633 4.21018 0.179404 0
M  V30 1528 H 153.308 3.15206 0.736659 0
M  V30 1529 H 152.215 3.39667 -1.56772 0
M  V30 1530 H 153.548 4.47718 -2.04474 0
M  V30 1531 N 155.201 0.870884 1.31352 0
M  V30 1532 C 156.131 0.343096 2.30966 0
M  V30 1533 C 157.112 -0.566507 1.60389 0
M  V30 1534 O 158.297 -0.483336 1.88089 0
M  V30 1535 C 155.427 -0.455487 3.443 0
M  V30 1536 C 154.381 0.361103 4.26474 0
M  V30 1537 C 153.707 -0.563221 5.31725 0
M  V30 1538 C 155.007 1.59566 4.97329 0
M  V30 1539 H 156.701 1.17548 2.75359 0
M  V30 1540 H 154.247 0.566686 1.32381 0
M  V30 1541 H 156.2 -0.83525 4.13039 0
M  V30 1542 H 154.924 -1.32139 2.98675 0
M  V30 1543 H 153.583 0.722825 3.59403 0
M  V30 1544 H 153.231 -1.42643 4.82351 0
M  V30 1545 H 152.931 -0.0207409 5.87596 0
M  V30 1546 H 154.455 -0.939808 6.03324 0
M  V30 1547 H 155.869 1.28728 5.58661 0
M  V30 1548 H 154.266 2.07728 5.63 0
M  V30 1549 H 155.336 2.34798 4.24262 0
M  V30 1550 N 156.679 -1.44442 0.630414 0
M  V30 1551 C 157.629 -2.27794 -0.0968103 0
M  V30 1552 C 158.613 -1.38624 -0.816834 0
M  V30 1553 O 159.805 -1.62438 -0.70306 0
M  V30 1554 C 156.934 -3.25929 -1.07819 0
M  V30 1555 C 156.02 -4.22588 -0.357826 0
M  V30 1556 N 156.411 -5.0207 0.613169 0
M  V30 1557 C 154.709 -4.41914 -0.602365 0
M  V30 1558 C 155.41 -5.72351 1.03871 0
M  V30 1559 N 154.386 -5.42287 0.377642 0
M  V30 1560 H 158.188 -2.86653 0.648621 0
M  V30 1561 H 155.702 -1.55871 0.455862 0
M  V30 1562 H 157.699 -3.84399 -1.61378 0
M  V30 1563 H 156.359 -2.68631 -1.82393 0
M  V30 1564 H 157.37 -5.08331 0.990947 0
M  V30 1565 H 154.047 -3.95714 -1.33103 0
M  V30 1566 H 155.437 -6.4619 1.84086 0
M  V30 1567 N 158.157 -0.370918 -1.53173 0
M  V30 1568 C 159.405 0.216673 -2.00935 0
M  V30 1569 C 159.726 1.48845 -1.25977 0
M  V30 1570 O 158.996 1.92286 -0.374551 0
M  V30 1571 H 157.576 0.0830565 -0.742368 0
M  V30 1572 H 160.238 -0.49838 -1.8842 0
M  V30 1573 H 159.334 0.439893 -3.08984 0
M  V30 1574 N 159.635 1.57281 -0.100228 0
M  V30 1575 C 160.883 1.94153 0.561157 0
M  V30 1576 C 161.204 0.983157 1.68401 0
M  V30 1577 O 160.474 0.0361132 1.95867 0
M  V30 1578 H 159.054 0.716791 0.210283 0
M  V30 1579 H 161.716 1.94202 -0.164765 0
M  V30 1580 H 160.812 2.96709 0.968008 0
M  V30 1581 N 161.113 -0.173488 1.56642 0
M  V30 1582 C 162.06 -1.21482 1.96242 0
M  V30 1583 C 163.03 -1.44104 0.826027 0
M  V30 1584 O 164.215 -1.5688 1.08597 0
M  V30 1585 C 161.355 -2.54964 2.32567 0
M  V30 1586 C 160.468 -2.39739 3.59373 0
M  V30 1587 C 159.603 -3.66072 3.84921 0
M  V30 1588 C 158.642 -3.45771 5.05083 0
M  V30 1589 N 157.779 -4.64169 5.26775 0
M  V30 1590 H 162.619 -0.870123 2.85014 0
M  V30 1591 H 160.156 -0.418245 1.41029 0
M  V30 1592 H 162.114 -3.32758 2.5165 0
M  V30 1593 H 160.744 -2.87433 1.46908 0
M  V30 1594 H 159.796 -1.53131 3.48217 0
M  V30 1595 H 161.108 -2.20683 4.47326 0
M  V30 1596 H 160.262 -4.52303 4.0436 0
M  V30 1597 H 159.001 -3.88105 2.9534 0
M  V30 1598 H 158.006 -2.57927 4.85545 0
M  V30 1599 H 159.231 -3.25163 5.96193 0
M  V30 1600 H 157.177 -4.86425 4.40144 0
M  V30 1601 H 157.094 -4.48019 6.08946 0
M  V30 1602 H 158.362 -5.51689 5.5069 0
M  V30 1603 N 162.591 -1.51276 -0.441967 0
M  V30 1604 C 164.002 -1.56244 -1.02199 0
M  V30 1605 C 164.353 -0.383149 -1.92422 0
M  V30 1606 O 163.478 0.500613 -2.1053 0
M  V30 1607 C 164.073 -2.83162 -1.86024 0
M  V30 1608 C 162.632 -2.90716 -2.39084 0
M  V30 1609 C 161.779 -2.50858 -1.18175 0
M  V30 1610 H 164.73 -1.5712 -0.223416 0
M  V30 1611 H 164.751 -2.66663 -2.71425 0
M  V30 1612 H 164.263 -3.68974 -1.20331 0
M  V30 1613 H 162.364 -2.09323 -3.08244 0
M  V30 1614 H 162.477 -3.94266 -2.72198 0
M  V30 1615 H 160.841 -2.03951 -1.52565 0
M  V30 1616 H 161.624 -3.3901 -0.541001 0
M  V30 1617 N 164.069 0.697108 -1.41344 0
M  V30 1618 C 164.999 1.82353 -1.45841 0
M  V30 1619 C 165.98 1.67115 -0.317247 0
M  V30 1620 O 167.165 1.86871 -0.528474 0
M  V30 1621 C 164.295 3.20476 -1.33838 0
M  V30 1622 C 163.249 3.50415 -2.4575 0
M  V30 1623 C 162.575 4.87878 -2.18813 0
M  V30 1624 C 163.875 3.49546 -3.88091 0
M  V30 1625 H 165.569 1.78846 -2.40113 0
M  V30 1626 H 163.115 0.859028 -1.15571 0
M  V30 1627 H 165.068 3.98988 -1.35596 0
M  V30 1628 H 163.792 3.24604 -0.360498 0
M  V30 1629 H 162.451 2.74253 -2.43271 0
M  V30 1630 H 162.099 4.8863 -1.19371 0
M  V30 1631 H 161.799 5.08875 -2.93803 0
M  V30 1632 H 163.323 5.68702 -2.22284 0
M  V30 1633 H 164.737 4.18066 -3.92293 0
M  V30 1634 H 163.134 3.82075 -4.62751 0
M  V30 1635 H 164.204 2.48552 -4.16353 0
M  V30 1636 N 165.547 1.27147 0.931209 0
M  V30 1637 C 166.772 1.16191 1.71797 0
M  V30 1638 C 167.197 -0.278004 1.86034 0
M  V30 1639 O 166.555 -1.20137 1.35782 0
M  V30 1640 C 166.603 1.84673 3.09723 0
M  V30 1641 O 165.707 1.14231 3.96264 0
M  V30 1642 H 165.048 0.404303 0.526721 0
M  V30 1643 H 167.578 1.68152 1.1656 0
M  V30 1644 H 167.588 1.91893 3.60057 0
M  V30 1645 H 166.263 2.89421 2.98677 0
M  V30 1646 H 164.84 1.15056 3.54706 0
M  V30 1647 N 167.025 -1.13721 1.09112 0
M  V30 1648 C 168.436 -1.6648 0.845068 0
M  V30 1649 C 168.787 -1.85911 -0.62701 0
M  V30 1650 O 167.912 -1.57556 -1.48341 0
M  V30 1651 C 168.507 -3.02413 1.52748 0
M  V30 1652 C 167.066 -3.52176 1.32849 0
M  V30 1653 C 166.213 -2.27492 1.58564 0
M  V30 1654 H 169.164 -0.976872 1.25072 0
M  V30 1655 H 169.185 -3.68223 0.958752 0
M  V30 1656 H 168.697 -2.88238 2.59885 0
M  V30 1657 H 166.798 -3.7156 0.278137 0
M  V30 1658 H 166.911 -4.32499 2.0611 0
M  V30 1659 H 165.275 -2.33923 1.00758 0
M  V30 1660 H 166.058 -2.15886 2.66924 0
M  V30 1661 N 168.503 -0.877838 -1.30888 0
M  V30 1662 C 169.433 -0.35534 -2.3078 0
M  V30 1663 C 170.414 0.557994 -1.60687 0
M  V30 1664 O 171.599 0.473355 -1.88343 0
M  V30 1665 C 168.729 0.437221 -3.44537 0
M  V30 1666 C 167.683 -0.383715 -4.26276 0
M  V30 1667 C 167.009 0.535014 -5.32017 0
M  V30 1668 C 168.309 -1.62201 -4.96476 0
M  V30 1669 H 170.003 -1.19007 -2.74732 0
M  V30 1670 H 167.549 -0.573698 -1.32078 0
M  V30 1671 H 169.502 0.813334 -4.13477 0
M  V30 1672 H 168.226 1.30553 -2.99372 0
M  V30 1673 H 166.885 -0.741874 -3.59015 0
M  V30 1674 H 166.533 1.40083 -4.831 0
M  V30 1675 H 166.233 -0.0104211 -5.87599 0
M  V30 1676 H 167.757 0.907799 -6.03814 0
M  V30 1677 H 169.171 -1.31689 -5.5797 0
M  V30 1678 H 167.568 -2.10711 -5.61891 0
M  V30 1679 H 168.638 -2.37044 -4.23011 0
M  V30 1680 N 169.982 1.44106 -0.638065 0
M  V30 1681 C 171.228 2.02277 -0.145546 0
M  V30 1682 C 171.561 1.50125 1.23191 0
M  V30 1683 O 170.836 0.688133 1.8192 0
M  V30 1684 C 171.119 3.59829 -0.139791 0
M  V30 1685 C 170.972 4.22247 -1.55008 0
M  V30 1686 C 172.291 4.36873 0.531966 0
M  V30 1687 H 169.41 0.734992 -0.0543632 0
M  V30 1688 H 172.052 1.71592 -0.815863 0
M  V30 1689 H 170.202 3.86102 0.431007 0
M  V30 1690 H 171.874 4.07057 -2.1703 0
M  V30 1691 H 170.117 3.79476 -2.10191 0
M  V30 1692 H 170.788 5.31284 -1.49804 0
M  V30 1693 H 173.264 4.16074 0.0464781 0
M  V30 1694 H 172.14 5.4657 0.505206 0
M  V30 1695 H 172.401 4.11995 1.60352 0
M  V30 1696 N 171.46 0.379036 1.52974 0
M  V30 1697 C 172.408 -0.476033 2.27677 0
M  V30 1698 C 173.402 -1.0719 1.31174 0
M  V30 1699 O 174.608 -1.01355 1.48752 0
M  V30 1700 H 170.983 -0.172255 0.732006 0
M  V30 1701 H 172.954 0.175615 2.97883 0
M  V30 1702 C 171.703 -1.5967 3.0887 0
M  V30 1703 H 171.026 -1.1475 3.82978 0
M  V30 1704 H 172.466 -2.16943 3.64296 0
M  V30 1705 C 170.925 -2.54682 2.20542 0
M  V30 1706 O 171.455 -3.57836 1.82527 0
M  V30 1707 N 169.661 -2.24183 1.84907 0
M  V30 1708 H 169.208 -1.40333 2.1602 0
M  V30 1709 H 169.166 -2.88006 1.26096 0
M  V30 1710 N 172.938 -1.57226 0.108567 0
M  V30 1711 C 173.901 -2.13602 -0.831082 0
M  V30 1712 C 174.901 -1.06841 -1.20173 0
M  V30 1713 O 176.091 -1.32666 -1.12895 0
M  V30 1714 C 173.223 -2.66769 -2.12243 0
M  V30 1715 H 174.416 -2.97951 -0.341317 0
M  V30 1716 H 171.969 -1.55667 -0.14057 0
M  V30 1717 H 172.704 -1.85977 -2.65675 0
M  V30 1718 H 172.489 -3.44839 -1.86625 0
M  V30 1719 H 173.979 -3.10332 -2.79435 0
M  V30 1720 N 174.416 0.165178 -1.56732 0
M  V30 1721 C 175.664 0.879068 -1.8198 0
M  V30 1722 C 175.985 1.82514 -0.686561 0
M  V30 1723 O 175.255 1.93694 0.293146 0
M  V30 1724 H 173.835 0.327608 -0.671329 0
M  V30 1725 H 176.497 0.163526 -1.94213 0
M  V30 1726 H 175.593 1.45228 -2.76252 0
M  V30 1727 N 175.894 1.51508 0.433938 0
M  V30 1728 C 176.857 1.72473 1.50949 0
M  V30 1729 C 177.857 0.594725 1.49398 0
M  V30 1730 O 179.047 0.862315 1.5136 0
M  V30 1731 C 176.179 1.78431 2.90474 0
M  V30 1732 H 177.372 2.68467 1.33662 0
M  V30 1733 H 174.925 1.41549 0.662836 0
M  V30 1734 H 175.66 0.842645 3.13161 0
M  V30 1735 H 175.445 2.60558 2.93005 0
M  V30 1736 H 176.935 1.96479 3.68491 0
M  V30 1737 N 177.372 -0.689602 1.41712 0
M  V30 1738 C 178.621 -1.44534 1.40686 0
M  V30 1739 C 178.934 -1.95588 0.0213352 0
M  V30 1740 O 180.14 -2.71271 -0.111534 0
M  V30 1741 C 178.596 -2.61387 2.47396 0
M  V30 1742 C 178.204 -2.17094 3.91885 0
M  V30 1743 C 179.948 -3.38986 2.55517 0
M  V30 1744 C 177.855 -3.3094 4.90135 0
M  V30 1745 H 176.785 -0.542925 0.52321 0
M  V30 1746 H 179.436 -0.748054 1.6756 0
M  V30 1747 H 177.818 -3.33412 2.13664 0
M  V30 1748 H 178.992 -1.52318 4.34897 0
M  V30 1749 H 177.307 -1.52473 3.8748 0
M  V30 1750 H 179.904 -4.23747 3.26102 0
M  V30 1751 H 180.247 -3.84578 1.59391 0
M  V30 1752 H 180.78 -2.74021 2.8837 0
M  V30 1753 H 177.519 -2.90355 5.87685 0
M  V30 1754 H 177.039 -3.94546 4.51767 0
M  V30 1755 H 178.718 -3.9663 5.11169 0
M  V30 1756 N 178.85 -1.27639 -0.924453 0
M  V30 1757 C 179.813 -1.10681 -2.00705 0
M  V30 1758 C 180.813 -0.0497823 -1.60723 0
M  V30 1759 O 182.003 -0.294654 -1.7169 0
M  V30 1760 C 179.135 -0.687164 -3.33902 0
M  V30 1761 H 180.328 -2.06817 -2.17179 0
M  V30 1762 H 177.881 -1.10473 -1.10569 0
M  V30 1763 H 178.616 0.275439 -3.23128 0
M  V30 1764 H 178.401 -1.45061 -3.6428 0
M  V30 1765 H 179.891 -0.590853 -4.13399 0
M  V30 1766 N 180.328 1.1314 -1.09713 0
M  V30 1767 C 181.556 1.88321 -0.856898 0
M  V30 1768 C 181.971 1.79276 0.592073 0
M  V30 1769 O 181.328 1.16142 1.40774 0
M  V30 1770 C 181.379 3.37812 -1.28706 0
M  V30 1771 O 181.1 3.46627 -2.67921 0
M  V30 1772 C 182.601 4.29952 -1.07964 0
M  V30 1773 H 179.821 0.596094 -0.308079 0
M  V30 1774 H 182.365 1.43205 -1.45988 0
M  V30 1775 H 180.52 3.805 -0.727912 0
M  V30 1776 H 180.934 4.39579 -2.8613 0
M  V30 1777 H 182.408 5.33159 -1.42986 0
M  V30 1778 H 182.885 4.39196 -0.0176577 0
M  V30 1779 H 183.491 3.93036 -1.62489 0
M  V30 1780 N 181.806 0.884767 1.30421 0
M  V30 1781 C 183.034 0.518044 2.0031 0
M  V30 1782 C 183.449 -0.893408 1.66324 0
M  V30 1783 O 182.806 -1.5875 0.900262 0
M  V30 1784 C 182.857 0.682997 3.54989 0
M  V30 1785 O 182.578 2.03888 3.87764 0
M  V30 1786 C 184.079 0.31924 4.42149 0
M  V30 1787 H 181.299 0.200265 0.640418 0
M  V30 1788 H 183.843 1.19001 1.6631 0
M  V30 1789 H 181.998 0.0584052 3.87356 0
M  V30 1790 H 182.412 2.05735 4.82466 0
M  V30 1791 H 183.886 0.485555 5.4986 0
M  V30 1792 H 184.363 -0.742717 4.32875 0
M  V30 1793 H 184.969 0.920147 4.15227 0
M  V30 1794 N 183.284 -1.43765 0.645699 0
M  V30 1795 C 184.509 -2.06767 0.161883 0
M  V30 1796 C 184.934 -1.48034 -1.16049 0
M  V30 1797 O 184.292 -0.587369 -1.71522 0
M  V30 1798 C 184.34 -3.60519 0.0762003 0
M  V30 1799 O 183.444 -4.00982 -0.963721 0
M  V30 1800 H 182.785 -0.657675 0.091429 0
M  V30 1801 H 185.315 -1.84397 0.886499 0
M  V30 1802 H 185.325 -4.07853 -0.109604 0
M  V30 1803 H 184 -4.02646 1.04157 0
M  V30 1804 H 182.577 -3.65253 -0.751312 0
M  V30 1805 N 184.763 -0.387143 -1.52771 0
M  V30 1806 C 185.693 0.440551 -2.29306 0
M  V30 1807 C 186.674 1.06535 -1.32606 0
M  V30 1808 O 187.859 1.07853 -1.61497 0
M  V30 1809 C 184.989 1.56919 -3.09829 0
M  V30 1810 C 183.943 1.07054 -4.14395 0
M  V30 1811 C 183.269 2.29109 -4.83129 0
M  V30 1812 C 184.569 0.140015 -5.22112 0
M  V30 1813 H 186.263 -0.198026 -2.98744 0
M  V30 1814 H 183.809 -0.09668 -1.43675 0
M  V30 1815 H 185.762 2.15503 -3.62128 0
M  V30 1816 H 184.486 2.23532 -2.3812 0
M  V30 1817 H 183.145 0.507247 -3.63074 0
M  V30 1818 H 182.793 2.94227 -4.0797 0
M  V30 1819 H 182.493 1.96406 -5.53804 0
M  V30 1820 H 184.017 2.88339 -5.38231 0
M  V30 1821 H 185.431 0.633978 -5.69784 0
M  V30 1822 H 183.828 -0.0971485 -6.00021 0
M  V30 1823 H 184.898 -0.811711 -4.78058 0
M  V30 1824 N 186.241 1.57166 -0.116904 0
M  V30 1825 C 187.49 1.94298 0.541407 0
M  V30 1826 C 187.803 1.00236 1.67964 0
M  V30 1827 O 189.009 1.26826 2.40057 0
M  V30 1828 C 187.465 3.45306 1.01449 0
M  V30 1829 C 187.073 4.47899 -0.0951738 0
M  V30 1830 C 188.817 3.91361 1.6443 0
M  V30 1831 C 186.724 5.90083 0.394491 0
M  V30 1832 H 185.654 0.725308 0.206019 0
M  V30 1833 H 188.305 1.82446 -0.196419 0
M  V30 1834 H 186.687 3.52385 1.80667 0
M  V30 1835 H 187.861 4.52486 -0.871374 0
M  V30 1836 H 186.176 4.11583 -0.631505 0
M  V30 1837 H 188.773 4.95004 2.02176 0
M  V30 1838 H 189.116 3.3122 2.52189 0
M  V30 1839 H 189.649 3.87073 0.917559 0
M  V30 1840 H 186.388 6.53974 -0.447004 0
M  V30 1841 H 185.908 5.88921 1.13722 0
M  V30 1842 H 187.587 6.41307 0.856399 0
M  V30 1843 N 187.719 -0.156864 1.56817 0
M  V30 1844 C 188.667 -1.21319 1.98455 0
M  V30 1845 C 189.661 -1.45025 0.875444 0
M  V30 1846 O 190.867 -1.45435 1.0606 0
M  V30 1847 H 187.242 -0.408142 0.631605 0
M  V30 1848 H 189.213 -0.835244 2.86472 0
M  V30 1849 C 187.962 -2.54148 2.37285 0
M  V30 1850 H 187.285 -2.36733 3.22176 0
M  V30 1851 H 188.725 -3.26712 2.70251 0
M  V30 1852 C 187.184 -3.13967 1.22173 0
M  V30 1853 O 187.714 -3.98357 0.517149 0
M  V30 1854 N 185.92 -2.7327 0.988536 0
M  V30 1855 H 185.467 -2.04744 1.56326 0
M  V30 1856 H 185.425 -3.13628 0.220209 0
M  V30 1857 N 189.197 -1.51736 -0.425897 0
M  V30 1858 C 190.16 -1.73271 -1.50032 0
M  V30 1859 C 191.16 -0.602639 -1.4908 0
M  V30 1860 O 192.35 -0.87033 -1.509 0
M  V30 1861 C 189.482 -1.79969 -2.89523 0
M  V30 1862 H 190.675 -2.69172 -1.32237 0
M  V30 1863 H 188.228 -1.41899 -0.65532 0
M  V30 1864 H 188.963 -0.859241 -3.1271 0
M  V30 1865 H 188.748 -2.62109 -2.91619 0
M  V30 1866 H 190.238 -1.9843 -3.67444 0
M  V30 1867 N 190.675 0.682077 -1.42076 0
M  V30 1868 C 191.585 1.82535 -1.47371 0
M  V30 1869 C 192.601 1.7017 -0.363079 0
M  V30 1870 O 193.777 1.91848 -0.612875 0
M  V30 1871 C 190.842 3.18624 -1.36674 0
M  V30 1872 C 189.903 3.42999 -2.58167 0
M  V30 1873 C 189.136 4.72595 -2.4797 0
M  V30 1874 O 189.359 5.50006 -1.5116 0
M  V30 1875 O 188.293 4.98054 -3.37974 0
M  V30 1876 H 192.119 1.81023 -2.43853 0
M  V30 1877 H 189.704 0.836887 -1.2376 0
M  V30 1878 H 191.586 3.99847 -1.33043 0
M  V30 1879 H 190.261 3.20789 -0.433138 0
M  V30 1880 H 189.168 2.61653 -2.67373 0
M  V30 1881 H 190.501 3.45659 -3.50401 0
M  V30 1882 N 192.153 1.28127 0.917671 0
M  V30 1883 C 193.101 1.11569 2.04096 0
M  V30 1884 C 194.095 0.0360242 1.69362 0
M  V30 1885 O 195.301 0.194501 1.78946 0
M  V30 1886 H 191.676 0.344097 0.668656 0
M  V30 1887 H 193.647 2.06711 2.15205 0
M  V30 1888 C 192.396 0.790197 3.38602 0
M  V30 1889 H 191.719 1.61293 3.6582 0
M  V30 1890 H 193.159 0.714271 4.1794 0
M  V30 1891 C 191.618 -0.505897 3.3308 0
M  V30 1892 O 192.148 -1.53736 3.71117 0
M  V30 1893 N 190.354 -0.505193 2.86175 0
M  V30 1894 H 189.901 0.334621 2.55417 0
M  V30 1895 H 189.859 -1.37243 2.82863 0
M  V30 1896 N 193.631 -1.12557 1.10312 0
M  V30 1897 C 194.877 -1.84311 0.846011 0
M  V30 1898 C 195.21 -1.83805 -0.626859 0
M  V30 1899 O 194.485 -1.28268 -1.46211 0
M  V30 1900 C 194.768 -3.32048 1.39341 0
M  V30 1901 C 194.621 -3.41016 2.93305 0
M  V30 1902 C 195.94 -4.27764 1.03468 0
M  V30 1903 H 193.059 -0.669192 0.30879 0
M  V30 1904 H 195.701 -1.32057 1.36605 0
M  V30 1905 H 193.851 -3.76678 0.951087 0
M  V30 1906 H 195.523 -3.05031 3.46055 0
M  V30 1907 H 193.766 -2.81603 3.29973 0
M  V30 1908 H 194.437 -4.44948 3.26689 0
M  V30 1909 H 196.913 -3.91253 1.41633 0
M  V30 1910 H 195.789 -5.29549 1.44463 0
M  V30 1911 H 196.05 -4.42064 -0.0560404 0
M  V30 1912 N 195.109 -0.891671 -1.2995 0
M  V30 1913 C 196.019 -0.367691 -2.31701 0
M  V30 1914 C 197.035 0.533486 -1.6562 0
M  V30 1915 O 198.211 0.424997 -1.96865 0
M  V30 1916 C 195.276 0.403406 -3.44345 0
M  V30 1917 C 194.337 -0.528328 -4.26037 0
M  V30 1918 C 193.57 0.206063 -5.33302 0
M  V30 1919 O 193.793 1.43119 -5.52153 0
M  V30 1920 O 192.727 -0.447281 -6.00236 0
M  V30 1921 H 196.553 -1.21163 -2.78484 0
M  V30 1922 H 194.138 -0.655725 -1.34241 0
M  V30 1923 H 196.02 0.839753 -4.12948 0
M  V30 1924 H 194.695 1.22354 -2.99685 0
M  V30 1925 H 193.602 -1.01362 -3.60106 0
M  V30 1926 H 194.935 -1.31465 -4.74318 0
M  V30 1927 N 196.587 1.43421 -0.653314 0
M  V30 1928 C 197.519 2.29071 0.0769134 0
M  V30 1929 C 198.532 1.42513 0.787017 0
M  V30 1930 O 199.721 1.66449 0.644757 0
M  V30 1931 C 196.821 3.19436 1.13199 0
M  V30 1932 C 195.994 4.34533 0.500006 0
M  V30 1933 C 195.053 5.05771 1.45198 0
M  V30 1934 O 194.079 5.61037 0.960538 0
M  V30 1935 N 195.281 5.0928 2.78594 0
M  V30 1936 H 198.046 2.92382 -0.658235 0
M  V30 1937 H 195.607 1.54112 -0.496104 0
M  V30 1938 H 197.599 3.63958 1.76964 0
M  V30 1939 H 196.169 2.57724 1.7691 0
M  V30 1940 H 195.389 3.92925 -0.316738 0
M  V30 1941 H 196.677 5.08766 0.0588345 0
M  V30 1942 H 196.075 4.65751 3.2108 0
M  V30 1943 H 194.632 5.57519 3.37662 0
M  V30 1944 N 198.065 0.39524 1.52563 0
M  V30 1945 C 199.481 0.0454682 1.59535 0
M  V30 1946 C 199.681 -1.44056 1.4089 0
M  V30 1947 O 198.737 -2.20579 1.22888 0
M  V30 1948 C 200.05 0.527963 2.96029 0
M  V30 1949 C 201.598 0.484733 3.09224 0
M  V30 1950 C 202.073 0.943512 4.48176 0
M  V30 1951 N 203.564 0.899765 4.54377 0
M  V30 1952 C 204.299 1.22609 5.60138 0
M  V30 1953 N 203.795 1.62319 6.73516 0
M  V30 1954 N 205.588 1.14696 5.50274 0
M  V30 1955 H 197.739 1.36261 1.62931 0
M  V30 1956 H 200.002 0.558887 0.765735 0
M  V30 1957 H 199.708 1.56607 3.14908 0
M  V30 1958 H 199.582 -0.0698056 3.77135 0
M  V30 1959 H 201.969 -0.544298 2.90037 0
M  V30 1960 H 202.05 1.11838 2.30056 0
M  V30 1961 H 201.694 1.9708 4.68104 0
M  V30 1962 H 201.624 0.286817 5.25818 0
M  V30 1963 H 204.115 0.607632 3.72983 0
M  V30 1964 H 204.428 1.85567 7.5019 0
M  V30 1965 H 202.773 1.66211 6.74833 0
M  V30 1966 H 205.964 0.835701 4.6058 0
M  V30 1967 H 206.137 1.40459 6.32594 0
M  V30 1968 N 199.544 -1.57102 0.125237 0
M  V30 1969 C 200.79 -1.96488 -0.525753 0
M  V30 1970 C 201.145 -1.00786 -1.6389 0
M  V30 1971 O 200.438 -0.038979 -1.9156 0
M  V30 1972 C 200.632 -3.40096 -1.09862 0
M  V30 1973 C 200.461 -4.4968 -0.0425004 0
M  V30 1974 C 199.231 -5.03781 0.391463 0
M  V30 1975 C 201.429 -5.08936 0.740829 0
M  V30 1976 N 199.411 -5.96948 1.4327 0
M  V30 1977 C 200.782 -5.98105 1.6331 0
M  V30 1978 C 202.837 -4.91576 0.791029 0
M  V30 1979 C 201.54 -6.71774 2.57122 0
M  V30 1980 C 203.566 -5.6593 1.71688 0
M  V30 1981 C 202.928 -6.5479 2.59672 0
M  V30 1982 H 199.027 -0.765072 -0.161831 0
M  V30 1983 H 201.611 -1.93511 0.214801 0
M  V30 1984 H 199.782 -3.43707 -1.80887 0
M  V30 1985 H 201.514 -3.66591 -1.71444 0
M  V30 1986 H 198.269 -4.736 -0.00213584 0
M  V30 1987 H 198.693 -6.48236 1.95243 0
M  V30 1988 H 203.335 -4.22615 0.124915 0
M  V30 1989 H 201.053 -7.39977 3.24744 0
M  V30 1990 H 204.639 -5.54501 1.76125 0
M  V30 1991 H 203.519 -7.11316 3.30149 0
M  V30 1992 N 201.022 0.148545 -1.56898 0
M  V30 1993 C 201.954 1.20852 -1.9475 0
M  V30 1994 C 202.967 1.39265 -0.843152 0
M  V30 1995 O 204.156 1.38864 -1.12156 0
M  V30 1996 C 201.256 2.57362 -2.20495 0
M  V30 1997 C 200.429 2.59947 -3.51776 0
M  V30 1998 C 199.488 3.77984 -3.6608 0
M  V30 1999 O 198.514 3.62929 -4.38487 0
M  V30 2000 N 199.716 4.95375 -3.02629 0
M  V30 2001 H 202.481 0.886804 -2.86279 0
M  V30 2002 H 200.042 0.338121 -1.5833 0
M  V30 2003 H 202.034 3.34833 -2.27307 0
M  V30 2004 H 200.604 2.81832 -1.35238 0
M  V30 2005 H 199.824 1.68403 -3.56419 0
M  V30 2006 H 201.112 2.58704 -4.38121 0
M  V30 2007 H 200.51 5.10509 -2.43715 0
M  V30 2008 H 199.067 5.70627 -3.15004 0
M  V30 2009 N 202.5 1.5196 0.417844 0
M  V30 2010 C 203.916 1.40569 0.755816 0
M  V30 2011 C 204.116 0.503316 1.95113 0
M  V30 2012 O 203.172 -0.0341925 2.52477 0
M  V30 2013 C 204.485 2.82947 1.01791 0
M  V30 2014 C 206.033 2.92231 1.12116 0
M  V30 2015 C 206.508 4.35559 1.41608 0
M  V30 2016 N 207.999 4.38753 1.48491 0
M  V30 2017 C 208.734 5.46705 1.7292 0
M  V30 2018 N 208.23 6.64788 1.95011 0
M  V30 2019 N 210.023 5.34209 1.74863 0
M  V30 2020 H 202.174 2.09168 -0.369098 0
M  V30 2021 H 204.437 0.942409 -0.102809 0
M  V30 2022 H 204.143 3.5106 0.212081 0
M  V30 2023 H 204.017 3.23462 1.94042 0
M  V30 2024 H 206.404 2.24304 1.9176 0
M  V30 2025 H 206.485 2.55185 0.177225 0
M  V30 2026 H 206.129 5.04042 0.624848 0
M  V30 2027 H 206.059 4.70133 2.37239 0
M  V30 2028 H 208.55 3.5363 1.33244 0
M  V30 2029 H 208.863 7.42845 2.13076 0
M  V30 2030 H 207.208 6.67869 1.92293 0
M  V30 2031 H 210.399 4.40937 1.57137 0
M  V30 2032 H 210.572 6.18415 1.93563 0
M  V30 2033 N 203.978 -0.674533 1.42435 0
M  V30 2034 C 205.227 -1.43034 1.42212 0
M  V30 2035 C 205.54 -1.95555 0.0420788 0
M  V30 2036 O 206.746 -2.71374 -0.0827558 0
M  V30 2037 C 205.202 -2.58748 2.50155 0
M  V30 2038 C 204.81 -2.12925 3.94166 0
M  V30 2039 C 206.554 -3.36257 2.59098 0
M  V30 2040 C 204.461 -3.25723 4.93618 0
M  V30 2041 H 203.391 -0.537345 0.528939 0
M  V30 2042 H 206.042 -0.73024 1.68344 0
M  V30 2043 H 204.424 -3.31128 2.17188 0
M  V30 2044 H 205.598 -1.47697 4.36488 0
M  V30 2045 H 203.913 -1.48354 3.89076 0
M  V30 2046 H 206.51 -4.20264 3.30578 0
M  V30 2047 H 206.853 -3.82866 1.63461 0
M  V30 2048 H 207.386 -2.70947 2.9126 0
M  V30 2049 H 204.125 -2.84105 5.90732 0
M  V30 2050 H 203.645 -3.89732 4.55926 0
M  V30 2051 H 205.324 -3.91186 5.15347 0
M  V30 2052 N 205.456 -1.28612 -0.910864 0
M  V30 2053 C 206.386 -1.15326 -2.03032 0
M  V30 2054 C 207.367 -0.0502924 -1.70026 0
M  V30 2055 O 208.552 -0.227797 -1.92859 0
M  V30 2056 C 205.682 -0.817343 -3.37545 0
M  V30 2057 C 204.636 -1.8754 -3.84724 0
M  V30 2058 C 203.962 -1.39305 -5.16235 0
M  V30 2059 C 205.262 -3.28244 -4.06267 0
M  V30 2060 H 206.956 -2.08975 -2.14406 0
M  V30 2061 H 204.502 -1.00612 -1.03021 0
M  V30 2062 H 206.455 -0.711151 -4.15356 0
M  V30 2063 H 205.179 0.154846 -3.26233 0
M  V30 2064 H 203.838 -1.97079 -3.09121 0
M  V30 2065 H 203.486 -0.409846 -5.01328 0
M  V30 2066 H 203.186 -2.10057 -5.48771 0
M  V30 2067 H 204.71 -1.30014 -5.96598 0
M  V30 2068 H 206.124 -3.21611 -4.74594 0
M  V30 2069 H 204.521 -3.96855 -4.5014 0
M  V30 2070 H 205.591 -3.72048 -3.10979 0
M  V30 2071 N 206.934 1.1197 -1.10907 0
M  V30 2072 C 207.884 2.15946 -0.731538 0
M  V30 2073 C 208.868 1.58758 0.261699 0
M  V30 2074 O 210.06 1.76863 0.0696722 0
M  V30 2075 C 207.189 3.42877 -0.170299 0
M  V30 2076 C 206.275 4.07037 -1.19087 0
M  V30 2077 N 206.666 4.46135 -2.38322 0
M  V30 2078 C 204.964 4.33884 -1.03252 0
M  V30 2079 C 205.665 4.96331 -3.03366 0
M  V30 2080 N 204.641 4.9214 -2.30865 0
M  V30 2081 H 208.443 2.43947 -1.63912 0
M  V30 2082 H 205.957 1.28927 -0.987505 0
M  V30 2083 H 207.954 4.16732 0.118271 0
M  V30 2084 H 206.614 3.16343 0.731935 0
M  V30 2085 H 207.625 4.38345 -2.75815 0
M  V30 2086 H 204.302 4.17084 -0.186256 0
M  V30 2087 H 205.692 5.36257 -4.04818 0
M  V30 2088 N 208.412 0.89855 1.29475 0
M  V30 2089 C 209.661 0.519863 1.94885 0
M  V30 2090 C 209.974 -0.9383 1.71625 0
M  V30 2091 O 211.18 -1.42445 2.31131 0
M  V30 2092 C 209.636 0.878836 3.49005 0
M  V30 2093 C 209.244 2.35569 3.81066 0
M  V30 2094 C 210.988 0.570004 4.20656 0
M  V30 2095 C 208.895 2.65558 5.28425 0
M  V30 2096 H 207.825 0.190692 0.729488 0
M  V30 2097 H 210.476 1.09539 1.47219 0
M  V30 2098 H 208.858 0.232253 3.95318 0
M  V30 2099 H 210.032 3.04773 3.45616 0
M  V30 2100 H 208.347 2.63343 3.22552 0
M  V30 2101 H 210.944 0.770925 5.29113 0
M  V30 2102 H 211.287 -0.491404 4.1339 0
M  V30 2103 H 211.82 1.17438 3.8007 0
M  V30 2104 H 208.559 3.70493 5.40754 0
M  V30 2105 H 208.079 2.00977 5.65127 0
M  V30 2106 H 209.758 2.51765 5.96006 0
M  V30 2107 N 209.89 -1.43072 0.660911 0
M  V30 2108 C 210.822 -2.29108 -0.0647641 0
M  V30 2109 C 211.835 -1.42928 -0.779448 0
M  V30 2110 O 213.024 -1.66788 -0.635921 0
M  V30 2111 C 210.124 -3.20032 -1.11503 0
M  V30 2112 C 209.297 -4.34792 -0.476955 0
M  V30 2113 C 208.356 -5.06534 -1.42513 0
M  V30 2114 O 207.382 -5.61538 -0.930771 0
M  V30 2115 N 208.584 -5.1075 -2.75889 0
M  V30 2116 H 211.349 -2.92029 0.673731 0
M  V30 2117 H 208.91 -1.53846 0.50427 0
M  V30 2118 H 210.902 -3.64892 -1.75032 0
M  V30 2119 H 209.472 -2.58658 -1.75541 0
M  V30 2120 H 208.692 -3.92752 0.337572 0
M  V30 2121 H 209.98 -5.0879 -0.0318525 0
M  V30 2122 H 209.378 -4.67447 -3.18606 0
M  V30 2123 H 207.935 -5.59302 -3.347 0
M  V30 2124 N 211.368 -0.403325 -1.52352 0
M  V30 2125 C 212.3 0.4603 -2.2453 0
M  V30 2126 C 213.313 1.01505 -1.27282 0
M  V30 2127 O 214.502 0.914982 -1.53266 0
M  V30 2128 C 211.602 1.65208 -2.95905 0
M  V30 2129 C 210.775 1.22224 -4.19976 0
M  V30 2130 C 209.834 2.28028 -4.74226 0
M  V30 2131 O 208.86 1.88857 -5.36956 0
M  V30 2132 N 210.062 3.6012 -4.55295 0
M  V30 2133 H 212.827 -0.158156 -2.99282 0
M  V30 2134 H 210.388 -0.230402 -1.60252 0
M  V30 2135 H 212.38 2.35541 -3.29093 0
M  V30 2136 H 210.95 2.17658 -2.24374 0
M  V30 2137 H 210.17 0.34725 -3.92668 0
M  V30 2138 H 211.458 0.911924 -5.00561 0
M  V30 2139 H 210.856 3.94698 -4.05253 0
M  V30 2140 H 209.413 4.26447 -4.92936 0
M  V30 2141 N 212.846 1.57033 -0.133567 0
M  V30 2142 C 213.778 2.13176 0.841944 0
M  V30 2143 C 214.791 1.07794 1.22001 0
M  V30 2144 O 215.98 1.35117 1.16643 0
M  V30 2145 C 213.08 2.62847 2.13926 0
M  V30 2146 C 212.253 3.92486 1.93064 0
M  V30 2147 C 211.312 4.27605 3.0666 0
M  V30 2148 O 210.338 4.96168 2.78937 0
M  V30 2149 N 211.54 3.861 4.33483 0
M  V30 2150 H 214.305 2.97503 0.362192 0
M  V30 2151 H 211.866 1.61821 0.05042 0
M  V30 2152 H 213.858 2.83363 2.88942 0
M  V30 2153 H 212.428 1.83319 2.53205 0
M  V30 2154 H 211.648 3.80732 1.02159 0
M  V30 2155 H 212.936 4.77225 1.76447 0
M  V30 2156 H 212.334 3.30828 4.58878 0
M  V30 2157 H 210.891 4.11694 5.05323 0
M  V30 2158 N 214.325 -0.140222 1.56975 0
M  V30 2159 C 215.255 -1.17456 2.01808 0
M  V30 2160 C 216.236 -1.44415 0.898794 0
M  V30 2161 O 217.421 -1.5522 1.16707 0
M  V30 2162 C 214.551 -2.50607 2.40444 0
M  V30 2163 C 213.505 -2.38155 3.55621 0
M  V30 2164 C 212.831 -3.76078 3.80091 0
M  V30 2165 C 214.131 -1.85991 4.88062 0
M  V30 2166 H 215.825 -0.801743 2.88466 0
M  V30 2167 H 213.371 -0.38422 1.38779 0
M  V30 2168 H 215.324 -3.23197 2.7041 0
M  V30 2169 H 214.048 -2.89737 1.50732 0
M  V30 2170 H 212.707 -1.68016 3.25832 0
M  V30 2171 H 212.355 -4.12656 2.87618 0
M  V30 2172 H 212.055 -3.68606 4.57606 0
M  V30 2173 H 213.579 -4.50206 4.12488 0
M  V30 2174 H 214.993 -2.4838 5.16701 0
M  V30 2175 H 213.39 -1.89393 5.6943 0
M  V30 2176 H 214.46 -0.816023 4.77984 0
M  V30 2177 N 215.803 -1.52179 -0.40978 0
M  V30 2178 C 216.766 -1.74853 -1.48186 0
M  V30 2179 C 217.766 -0.618417 -1.48433 0
M  V30 2180 O 218.956 -0.886286 -1.49969 0
M  V30 2181 C 216.088 -1.8303 -2.87598 0
M  V30 2182 H 217.281 -2.70559 -1.29374 0
M  V30 2183 H 214.834 -1.42586 -0.640233 0
M  V30 2184 H 215.569 -0.89236 -3.11781 0
M  V30 2185 H 215.354 -2.65187 -2.88822 0
M  V30 2186 H 216.844 -2.02316 -3.65319 0
M  V30 2187 N 217.281 0.66697 -1.42791 0
M  V30 2188 C 218.529 1.42417 -1.43394 0
M  V30 2189 C 218.85 1.94925 -0.0542373 0
M  V30 2190 O 218.12 1.73564 0.908415 0
M  V30 2191 H 216.7 0.528515 -0.527902 0
M  V30 2192 H 219.362 0.787562 -1.78279 0
M  V30 2193 H 218.458 2.27333 -2.13837 0
M  V30 2194 N 218.759 1.29093 0.90403 0
M  V30 2195 C 219.669 1.15727 2.0407 0
M  V30 2196 C 220.685 0.0815308 1.73809 0
M  V30 2197 O 221.861 0.292749 1.99261 0
M  V30 2198 C 218.926 0.830424 3.36608 0
M  V30 2199 C 217.987 1.98955 3.80415 0
M  V30 2200 C 217.22 1.6782 5.06628 0
M  V30 2201 O 217.443 0.597105 5.67266 0
M  V30 2202 O 216.377 2.52486 5.46383 0
M  V30 2203 H 220.203 2.11171 2.18267 0
M  V30 2204 H 217.788 1.08504 1.027 0
M  V30 2205 H 219.67 0.662521 4.16159 0
M  V30 2206 H 218.345 -0.0942678 3.23563 0
M  V30 2207 H 217.252 2.21267 3.01648 0
M  V30 2208 H 218.585 2.89529 3.98037 0
M  V30 2209 N 220.237 -1.11381 1.11499 0
M  V30 2210 C 221.169 -2.17207 0.731704 0
M  V30 2211 C 222.182 -1.61066 -0.236957 0
M  V30 2212 O 223.371 -1.78489 -0.0197591 0
M  V30 2213 C 220.471 -3.38846 0.0607624 0
M  V30 2214 C 219.644 -4.24451 1.0564 0
M  V30 2215 C 218.703 -5.24562 0.4149 0
M  V30 2216 O 217.729 -5.59071 1.069 0
M  V30 2217 N 218.931 -5.74651 -0.821943 0
M  V30 2218 H 221.696 -2.50699 1.64225 0
M  V30 2219 H 219.257 -1.26908 1.00529 0
M  V30 2220 H 221.249 -4.02911 -0.380139 0
M  V30 2221 H 219.819 -3.03411 -0.752376 0
M  V30 2222 H 219.039 -3.56833 1.67524 0
M  V30 2223 H 220.327 -4.78486 1.72998 0
M  V30 2224 H 219.725 -5.48797 -1.37252 0
M  V30 2225 H 218.282 -6.40549 -1.20582 0
M  V30 2226 N 221.715 -0.905404 -1.28997 0
M  V30 2227 C 222.961 -0.535039 -1.95615 0
M  V30 2228 C 223.294 0.917404 -1.71165 0
M  V30 2229 O 222.569 1.65123 -1.02785 0
M  V30 2230 C 222.852 -0.834918 -3.50287 0
M  V30 2231 C 222.705 -2.33948 -3.84172 0
M  V30 2232 C 224.024 -0.325318 -4.38896 0
M  V30 2233 H 221.143 -0.195861 -0.710498 0
M  V30 2234 H 223.785 -1.13313 -1.52513 0
M  V30 2235 H 221.935 -0.325904 -3.87131 0
M  V30 2236 H 223.607 -2.91847 -3.57243 0
M  V30 2237 H 221.85 -2.79789 -3.31513 0
M  V30 2238 H 222.521 -2.49987 -4.92149 0
M  V30 2239 H 224.997 -0.761256 -4.09077 0
M  V30 2240 H 223.873 -0.564295 -5.45992 0
M  V30 2241 H 224.134 0.774144 -4.35269 0
M  V30 2242 N 223.193 1.4272 -0.668489 0
M  V30 2243 C 224.156 2.292 0.00448567 0
M  V30 2244 C 225.156 1.43001 0.735339 0
M  V30 2245 O 226.346 1.64461 0.57429 0
M  V30 2246 C 223.478 3.25375 1.01705 0
M  V30 2247 H 224.671 2.90199 -0.756608 0
M  V30 2248 H 222.224 1.50254 -0.430506 0
M  V30 2249 H 222.959 2.69301 1.80686 0
M  V30 2250 H 222.744 3.88944 0.496463 0
M  V30 2251 H 224.234 3.90245 1.48655 0
M  V30 2252 N 224.671 0.411399 1.52136 0
M  V30 2253 C 225.601 -0.404015 2.29978 0
M  V30 2254 C 226.582 -1.04412 1.34284 0
M  V30 2255 O 227.767 -1.0527 1.63192 0
M  V30 2256 C 224.897 -1.5197 3.12286 0
M  V30 2257 C 223.851 -1.00448 4.16046 0
M  V30 2258 C 223.177 -2.21393 4.86712 0
M  V30 2259 C 224.477 -0.0569336 5.22269 0
M  V30 2260 H 226.171 0.245529 2.98392 0
M  V30 2261 H 223.717 0.119525 1.43503 0
M  V30 2262 H 225.67 -2.09715 3.6551 0
M  V30 2263 H 224.394 -2.19716 2.41646 0
M  V30 2264 H 223.053 -0.449421 3.63835 0
M  V30 2265 H 222.701 -2.87699 4.12599 0
M  V30 2266 H 222.401 -1.87571 5.56858 0
M  V30 2267 H 223.925 -2.7974 5.4275 0
M  V30 2268 H 225.339 -0.54325 5.7072 0
M  V30 2269 H 223.736 0.192594 5.99791 0
M  V30 2270 H 224.806 0.887663 4.76706 0
M  V30 2271 N 226.149 -1.5696 0.141893 0
M  V30 2272 C 227.374 -2.00754 -0.520838 0
M  V30 2273 C 227.799 -1.0213 -1.57959 0
M  V30 2274 O 227.157 0.00371324 -1.813 0
M  V30 2275 C 227.205 -3.43318 -1.10294 0
M  V30 2276 O 226.309 -3.47679 -2.21795 0
M  V30 2277 H 225.65 -0.651564 -0.127908 0
M  V30 2278 H 228.18 -2.03221 0.23712 0
M  V30 2279 H 228.19 -3.82012 -1.43287 0
M  V30 2280 H 226.865 -4.14608 -0.327574 0
M  V30 2281 H 225.442 -3.20824 -1.9007 0
M  V30 2282 N 227.627 0.131896 -1.57047 0
M  V30 2283 C 228.904 0.871495 -1.75112 0
M  V30 2284 C 229.284 1.9866 -0.713949 0
M  V30 2285 O 228.632 2.26965 0.264447 0
M  V30 2286 C 228.842 1.40007 -3.19686 0
M  V30 2287 C 230.19 1.85752 -3.81813 0
M  V30 2288 O 231.214 1.49715 -3.23209 0
M  V30 2289 O 230.073 2.5226 -4.84796 0
M  V30 2290 H 227.167 0.412919 -0.716538 0
M  V30 2291 H 229.713 0.116641 -1.69299 0
M  V30 2292 H 228.485 0.599404 -3.86682 0
M  V30 2293 H 228.108 2.218 -3.29986 0
M  V30 2294 N 229.106 1.52395 0.401703 0
M  V30 2295 C 230.016 1.7917 1.51444 0
M  V30 2296 C 231.032 0.677691 1.6026 0
M  V30 2297 O 232.208 0.963909 1.76835 0
M  V30 2298 C 229.273 1.94347 2.87107 0
M  V30 2299 C 228.334 3.18257 2.88116 0
M  V30 2300 C 227.567 3.32701 4.17308 0
M  V30 2301 O 227.79 2.52238 5.11598 0
M  V30 2302 O 226.724 4.25891 4.25324 0
M  V30 2303 H 230.55 2.73633 1.31752 0
M  V30 2304 H 228.135 1.3733 0.588296 0
M  V30 2305 H 230.017 2.06109 3.67555 0
M  V30 2306 H 228.692 1.03073 3.06851 0
M  V30 2307 H 227.599 3.11947 2.06494 0
M  V30 2308 H 228.932 4.09336 2.73322 0
M  V30 2309 N 230.584 -0.659388 1.43143 0
M  V30 2310 C 231.83 -1.42145 1.44647 0
M  V30 2311 C 232.163 -1.9408 0.0681907 0
M  V30 2312 O 231.438 -1.71899 -0.910007 0
M  V30 2313 C 231.721 -2.60735 2.48373 0
M  V30 2314 C 231.574 -2.14332 3.95451 0
M  V30 2315 C 232.893 -3.62951 2.48906 0
M  V30 2316 H 230.012 -0.51552 0.526696 0
M  V30 2317 H 232.654 -0.748069 1.74654 0
M  V30 2318 H 230.804 -3.18184 2.22916 0
M  V30 2319 H 232.476 -1.61932 4.31944 0
M  V30 2320 H 230.719 -1.4576 4.08578 0
M  V30 2321 H 231.39 -2.99583 4.63631 0
M  V30 2322 H 233.866 -3.1525 2.71582 0
M  V30 2323 H 232.742 -4.43487 3.23435 0
M  V30 2324 H 233.003 -4.15126 1.52061 0
M  V30 2325 N 232.062 -1.29571 -0.897171 0
M  V30 2326 C 233.01 -1.14802 -2.02295 0
M  V30 2327 C 234.004 -0.0629637 -1.69283 0
M  V30 2328 O 235.21 -0.222945 -1.78614 0
M  V30 2329 H 231.585 -0.354692 -0.663097 0
M  V30 2330 H 233.556 -2.10108 -2.11889 0
M  V30 2331 C 232.305 -0.843966 -3.37302 0
M  V30 2332 H 231.628 -1.67093 -3.63208 0
M  V30 2333 H 233.068 -0.780672 -4.16751 0
M  V30 2334 C 231.527 0.452843 -3.33843 0
M  V30 2335 O 232.057 1.47813 -3.73516 0
M  V30 2336 N 230.263 0.459601 -2.86943 0
M  V30 2337 H 229.81 -0.375213 -2.54853 0
M  V30 2338 H 229.768 1.32726 -2.85011 0
M  V30 2339 N 233.54 1.10788 -1.12088 0
M  V30 2340 C 234.472 2.16816 -0.743213 0
M  V30 2341 C 235.485 1.6119 0.228412 0
M  V30 2342 O 236.674 1.78497 0.0102931 0
M  V30 2343 C 233.774 3.38809 -0.0787313 0
M  V30 2344 C 232.947 4.23885 -1.0789 0
M  V30 2345 C 232.006 5.24334 -0.442713 0
M  V30 2346 O 231.032 5.58497 -1.09864 0
M  V30 2347 N 232.234 5.75079 0.791457 0
M  V30 2348 H 234.999 2.49825 -1.65552 0
M  V30 2349 H 232.56 1.26373 -1.012 0
M  V30 2350 H 234.552 4.03107 0.358766 0
M  V30 2351 H 233.122 3.03805 0.736275 0
M  V30 2352 H 232.342 3.55939 -1.69414 0
M  V30 2353 H 233.63 4.77562 -1.75533 0
M  V30 2354 H 233.028 5.49517 1.3434 0
M  V30 2355 H 231.585 6.4118 1.17183 0
M  V30 2356 N 235.018 0.912232 1.28515 0
M  V30 2357 C 236.243 0.559774 1.99703 0
M  V30 2358 C 236.668 -0.851393 1.67729 0
M  V30 2359 O 236.026 -1.56875 0.908834 0
M  V30 2360 C 236.074 0.773874 3.52198 0
M  V30 2361 O 235.178 -0.167842 4.12058 0
M  V30 2362 H 234.519 0.21723 0.627461 0
M  V30 2363 H 237.049 1.22725 1.63706 0
M  V30 2364 H 237.059 0.683386 4.02236 0
M  V30 2365 H 235.734 1.80261 3.74805 0
M  V30 2366 H 234.311 -0.0287509 3.72889 0
M  V30 2367 N 236.496 -1.42363 0.676048 0
M  V30 2368 C 237.406 -2.346 -0.00153389 0
M  V30 2369 C 238.422 -1.5516 -0.787485 0
M  V30 2370 O 239.598 -1.87723 -0.729521 0
M  V30 2371 C 236.663 -3.33705 -0.940298 0
M  V30 2372 C 235.724 -4.29042 -0.148739 0
M  V30 2373 C 234.957 -5.23413 -1.04279 0
M  V30 2374 O 235.18 -5.22749 -2.28232 0
M  V30 2375 O 234.114 -5.99795 -0.502925 0
M  V30 2376 H 237.94 -2.94082 0.758268 0
M  V30 2377 H 235.525 -1.42888 0.436289 0
M  V30 2378 H 237.407 -3.94586 -1.47917 0
M  V30 2379 H 236.082 -2.76695 -1.67993 0
M  V30 2380 H 234.989 -3.71571 0.43427 0
M  V30 2381 H 236.322 -4.89097 0.551805 0
M  V30 2382 N 237.974 -0.419461 -1.51915 0
M  V30 2383 C 238.906 0.43646 -2.25006 0
M  V30 2384 C 239.919 1.00149 -1.28351 0
M  V30 2385 O 241.108 0.898674 -1.54227 0
M  V30 2386 C 238.208 1.6206 -2.9764 0
M  V30 2387 C 237.381 1.17763 -4.21249 0
M  V30 2388 C 236.44 2.22985 -4.76617 0
M  V30 2389 O 235.466 1.83151 -5.38929 0
M  V30 2390 N 236.668 3.55271 -4.59089 0
M  V30 2391 H 239.433 -0.18989 -2.99098 0
M  V30 2392 H 236.994 -0.247386 -1.59999 0
M  V30 2393 H 238.986 2.32038 -3.31573 0
M  V30 2394 H 237.556 2.15266 -2.2667 0
M  V30 2395 H 236.776 0.305582 -3.93014 0
M  V30 2396 H 238.064 0.858781 -5.015 0
M  V30 2397 H 237.462 3.90377 -4.09417 0
M  V30 2398 H 236.019 4.21195 -4.97432 0
M  V30 2399 N 239.452 1.56882 -0.150215 0
M  V30 2400 C 240.68 2.00593 0.506948 0
M  V30 2401 C 241.095 1.03033 1.58208 0
M  V30 2402 O 240.452 0.0278396 1.82479 0
M  V30 2403 C 240.503 3.44209 1.10465 0
M  V30 2404 O 240.224 4.3804 0.0724636 0
M  V30 2405 C 241.725 4.03214 1.84211 0
M  V30 2406 H 238.945 0.65795 0.13169 0
M  V30 2407 H 241.489 2.03018 -0.245743 0
M  V30 2408 H 239.644 3.42625 1.80795 0
M  V30 2409 H 240.058 5.22007 0.510793 0
M  V30 2410 H 241.532 5.0569 2.21318 0
M  V30 2411 H 242.009 3.44107 2.72923 0
M  V30 2412 H 242.615 4.08437 1.18572 0
M  V30 2413 N 240.93 -0.123565 1.57115 0
M  V30 2414 C 242.158 -0.846461 1.88793 0
M  V30 2415 C 242.573 -1.73652 0.740976 0
M  V30 2416 O 241.93 -1.80207 -0.288393 0
M  V30 2417 C 241.981 -1.6837 3.19897 0
M  V30 2418 O 241.702 -0.829477 4.30176 0
M  V30 2419 C 243.203 -2.51214 3.65248 0
M  V30 2420 H 240.423 -0.243573 0.625231 0
M  V30 2421 H 242.967 -0.109324 2.04208 0
M  V30 2422 H 241.122 -2.37364 3.06165 0
M  V30 2423 H 241.536 -1.40651 5.0529 0
M  V30 2424 H 243.01 -3.05497 4.59756 0
M  V30 2425 H 243.487 -3.28359 2.9168 0
M  V30 2426 H 244.093 -1.8747 3.81752 0
M  V30 2427 N 242.408 -1.52605 -0.393616 0
M  V30 2428 C 243.356 -1.77688 -1.50099 0
M  V30 2429 C 244.35 -0.644615 -1.56656 0
M  V30 2430 O 245.556 -0.826997 -1.59877 0
M  V30 2431 H 241.931 -0.562159 -0.499481 0
M  V30 2432 H 243.902 -2.7043 -1.26135 0
M  V30 2433 C 242.651 -1.95858 -2.87289 0
M  V30 2434 H 241.974 -2.8241 -2.82992 0
M  V30 2435 H 243.414 -2.174 -3.64024 0
M  V30 2436 C 241.873 -0.729848 -3.28899 0
M  V30 2437 O 242.403 0.0949217 -4.01588 0
M  V30 2438 N 240.609 -0.561283 -2.85128 0
M  V30 2439 H 240.156 -1.23357 -2.26143 0
M  V30 2440 H 240.114 0.2595 -3.13327 0
M  V30 2441 N 243.887 0.651787 -1.4349 0
M  V30 2442 C 245.134 1.41167 -1.45183 0
M  V30 2443 C 245.462 1.94349 -0.0766601 0
M  V30 2444 O 244.717 1.72804 0.918555 0
M  V30 2445 C 245.016 2.60914 -2.44251 0
M  V30 2446 C 244.682 2.26142 -3.9009 0
M  V30 2447 C 243.344 2.16371 -4.2981 0
M  V30 2448 C 245.696 1.98334 -4.81989 0
M  V30 2449 C 243.024 1.7695 -5.5938 0
M  V30 2450 C 245.376 1.6041 -6.11924 0
M  V30 2451 C 244.04 1.49166 -6.5062 0
M  V30 2452 H 243.31 0.516566 -0.531263 0
M  V30 2453 H 245.957 0.741099 -1.76579 0
M  V30 2454 H 244.262 3.3311 -2.06265 0
M  V30 2455 H 245.959 3.19127 -2.42815 0
M  V30 2456 H 242.549 2.34658 -3.58655 0
M  V30 2457 H 246.733 2.04803 -4.52072 0
M  V30 2458 H 241.989 1.66831 -5.88198 0
M  V30 2459 H 246.163 1.37925 -6.82605 0
M  V30 2460 H 243.79 1.1839 -7.50925 0
M  V30 2461 N 245.365 1.30045 0.890287 0
M  V30 2462 C 246.315 1.12592 1.9826 0
M  V30 2463 C 247.299 0.0426021 1.60844 0
M  V30 2464 O 248.491 0.265346 1.75 0
M  V30 2465 C 245.62 0.814301 3.33503 0
M  V30 2466 C 244.706 1.93761 3.7725 0
M  V30 2467 N 245.097 3.18232 3.93143 0
M  V30 2468 C 243.395 1.83277 4.06602 0
M  V30 2469 C 244.096 3.9158 4.30163 0
M  V30 2470 N 243.072 3.19591 4.3973 0
M  V30 2471 H 246.874 2.07003 2.08631 0
M  V30 2472 H 244.388 1.21307 1.07974 0
M  V30 2473 H 246.385 0.67029 4.11476 0
M  V30 2474 H 245.045 -0.121797 3.24471 0
M  V30 2475 H 246.056 3.53581 3.78419 0
M  V30 2476 H 242.733 0.97001 4.06075 0
M  V30 2477 H 244.123 4.98744 4.50226 0
M  V30 2478 N 246.843 -1.10192 1.12674 0
M  V30 2479 C 247.791 -2.18694 0.792196 0
M  V30 2480 C 248.785 -1.67938 -0.222058 0
M  V30 2481 O 249.991 -1.79822 -0.0800074 0
M  V30 2482 H 246.366 -0.713223 0.238364 0
M  V30 2483 H 248.337 -2.44149 1.71564 0
M  V30 2484 C 247.086 -3.46682 0.265859 0
M  V30 2485 H 246.409 -3.86101 1.03761 0
M  V30 2486 H 247.849 -4.23942 0.0701128 0
M  V30 2487 C 246.308 -3.21506 -1.00675 0
M  V30 2488 O 246.838 -3.43408 -2.08408 0
M  V30 2489 N 245.044 -2.75158 -0.934692 0
M  V30 2490 H 244.591 -2.57535 -0.0578604 0
M  V30 2491 H 244.549 -2.58691 -1.7868 0
M  V30 2492 N 248.321 -0.919034 -1.28029 0
M  V30 2493 C 249.737 -0.617972 -1.4715 0
M  V30 2494 C 249.937 0.835242 -1.83374 0
M  V30 2495 O 248.993 1.61388 -1.94191 0
M  V30 2496 C 250.306 -1.56041 -2.57044 0
M  V30 2497 C 251.854 -1.56769 -2.7091 0
M  V30 2498 C 252.329 -2.49688 -3.83953 0
M  V30 2499 N 253.82 -2.47845 -3.91314 0
M  V30 2500 C 254.555 -3.16437 -4.78179 0
M  V30 2501 N 254.051 -3.94376 -5.69596 0
M  V30 2502 N 255.844 -3.05498 -4.71834 0
M  V30 2503 H 247.995 -1.85866 -1.02798 0
M  V30 2504 H 250.258 -0.797506 -0.512531 0
M  V30 2505 H 249.964 -2.59671 -2.372 0
M  V30 2506 H 249.838 -1.29551 -3.54255 0
M  V30 2507 H 252.225 -0.538745 -2.90141 0
M  V30 2508 H 252.306 -1.87305 -1.74214 0
M  V30 2509 H 251.95 -3.52688 -3.65477 0
M  V30 2510 H 251.88 -2.16453 -4.80058 0
M  V30 2511 H 254.371 -1.91234 -3.25941 0
M  V30 2512 H 254.684 -4.43721 -6.32718 0
M  V30 2513 H 253.029 -3.98481 -5.69419 0
M  V30 2514 H 256.22 -2.44108 -3.99411 0
M  V30 2515 H 256.393 -3.59225 -5.39316 0
M  V30 2516 N 249.799 1.42003 -0.683588 0
M  V30 2517 C 250.762 2.29191 -0.0198243 0
M  V30 2518 C 251.762 1.43773 0.72013 0
M  V30 2519 O 252.952 1.65061 0.556815 0
M  V30 2520 C 250.084 3.26435 0.982487 0
M  V30 2521 H 251.277 2.8938 -0.787345 0
M  V30 2522 H 248.83 1.49789 -0.446418 0
M  V30 2523 H 249.565 2.71203 1.77819 0
M  V30 2524 H 249.35 3.89449 0.455182 0
M  V30 2525 H 250.84 3.918 1.44508 0
M  V30 2526 N 251.277 0.427512 1.51691 0
M  V30 2527 C 252.526 -0.143679 2.01188 0
M  V30 2528 C 252.839 -1.44642 1.31674 0
M  V30 2529 O 254.045 -2.09997 1.72086 0
M  V30 2530 C 252.501 -0.306602 3.58592 0
M  V30 2531 C 252.109 0.985125 4.37035 0
M  V30 2532 C 253.853 -0.832091 4.16265 0
M  V30 2533 C 251.76 0.788382 5.86122 0
M  V30 2534 H 250.69 -0.0574701 0.751807 0
M  V30 2535 H 253.341 0.555772 1.74881 0
M  V30 2536 H 251.723 -1.06882 3.81303 0
M  V30 2537 H 252.897 1.75492 4.26074 0
M  V30 2538 H 251.212 1.4384 3.90767 0
M  V30 2539 H 253.809 -0.995617 5.25349 0
M  V30 2540 H 254.152 -1.81186 3.74803 0
M  V30 2541 H 254.685 -0.128444 3.97593 0
M  V30 2542 H 251.424 1.74025 6.31978 0
M  V30 2543 H 250.944 0.0582143 5.99772 0
M  V30 2544 H 252.623 0.437722 6.45518 0
M  V30 2545 N 252.755 -1.56801 0.158532 0
M  V30 2546 C 253.718 -2.16138 -0.762705 0
M  V30 2547 C 254.718 -1.1061 -1.16713 0
M  V30 2548 O 255.908 -1.36191 -1.08617 0
M  V30 2549 C 253.04 -2.73386 -2.03649 0
M  V30 2550 H 254.233 -2.98886 -0.246354 0
M  V30 2551 H 251.786 -1.56035 -0.0909744 0
M  V30 2552 H 252.521 -1.94335 -2.59623 0
M  V30 2553 H 252.306 -3.50601 -1.75559 0
M  V30 2554 H 253.796 -3.19065 -2.6942 0
M  V30 2555 N 254.233 0.115231 -1.57178 0
M  V30 2556 C 255.479 0.818565 -1.86202 0
M  V30 2557 C 255.834 1.77316 -0.746785 0
M  V30 2558 O 255.127 1.89923 0.25291 0
M  V30 2559 C 255.321 1.60324 -3.19423 0
M  V30 2560 C 255.15 0.726138 -4.43799 0
M  V30 2561 C 253.92 0.379535 -5.03873 0
M  V30 2562 C 256.118 0.0420774 -5.14283 0
M  V30 2563 N 254.1 -0.507841 -6.11796 0
M  V30 2564 C 255.471 -0.704152 -6.15988 0
M  V30 2565 C 257.526 -0.0339486 -4.97888 0
M  V30 2566 C 256.229 -1.51927 -7.03072 0
M  V30 2567 C 258.255 -0.835906 -5.85463 0
M  V30 2568 C 257.617 -1.57031 -6.86673 0
M  V30 2569 H 253.716 0.276343 -0.731545 0
M  V30 2570 H 256.3 0.0821032 -1.94527 0
M  V30 2571 H 254.471 2.31072 -3.12186 0
M  V30 2572 H 256.203 2.2522 -3.36241 0
M  V30 2573 H 252.958 0.722634 -4.68054 0
M  V30 2574 H 253.382 -0.94349 -6.70393 0
M  V30 2575 H 258.024 0.519496 -4.19596 0
M  V30 2576 H 255.742 -2.08386 -7.80769 0
M  V30 2577 H 259.328 -0.89714 -5.74841 0
M  V30 2578 H 258.208 -2.18088 -7.53264 0
M  V30 2579 N 255.711 1.52812 0.385517 0
M  V30 2580 C 256.641 1.80808 1.47752 0
M  V30 2581 C 257.622 0.660318 1.5676 0
M  V30 2582 O 258.807 0.908246 1.71652 0
M  V30 2583 C 255.937 1.98008 2.85324 0
M  V30 2584 C 254.891 3.13709 2.91154 0
M  V30 2585 C 254.217 3.16169 4.31209 0
M  V30 2586 C 255.517 4.52709 2.60483 0
M  V30 2587 H 257.211 2.72253 1.24573 0
M  V30 2588 H 254.757 1.31003 0.597839 0
M  V30 2589 H 256.71 2.16176 3.61726 0
M  V30 2590 H 255.434 1.03255 3.09848 0
M  V30 2591 H 254.093 2.95329 2.17201 0
M  V30 2592 H 253.741 2.19092 4.52778 0
M  V30 2593 H 253.441 3.93894 4.36029 0
M  V30 2594 H 254.965 3.36496 5.09512 0
M  V30 2595 H 256.379 4.71173 3.26602 0
M  V30 2596 H 254.776 5.32528 2.76648 0
M  V30 2597 H 255.846 4.59186 1.55809 0
M  V30 2598 N 257.189 -0.644168 1.43834 0
M  V30 2599 C 258.119 -1.76814 1.52509 0
M  V30 2600 C 259.1 -1.65823 0.379052 0
M  V30 2601 O 260.285 -1.84781 0.597466 0
M  V30 2602 C 257.415 -3.15288 1.4564 0
M  V30 2603 C 256.369 -3.41053 2.58586 0
M  V30 2604 C 255.695 -4.79421 2.36769 0
M  V30 2605 C 256.995 -3.34902 4.00797 0
M  V30 2606 H 258.689 -1.69812 2.46586 0
M  V30 2607 H 256.235 -0.815542 1.1868 0
M  V30 2608 H 258.188 -3.93681 1.50311 0
M  V30 2609 H 256.912 -3.23043 0.480725 0
M  V30 2610 H 255.571 -2.65035 2.53282 0
M  V30 2611 H 255.219 -4.83863 1.37424 0
M  V30 2612 H 254.919 -4.9762 3.12487 0
M  V30 2613 H 256.443 -5.6006 2.43238 0
M  V30 2614 H 257.857 -4.03218 4.07539 0
M  V30 2615 H 256.254 -3.64637 4.76613 0
M  V30 2616 H 257.324 -2.32928 4.25291 0
M  V30 2617 N 258.668 -1.30515 -0.883378 0
M  V30 2618 C 259.898 -1.22182 -1.66599 0
M  V30 2619 C 260.306 0.217507 -1.87946 0
M  V30 2620 O 259.649 1.1554 -1.42815 0
M  V30 2621 C 259.711 -1.88146 -3.06335 0
M  V30 2622 C 259.375 -3.37476 -3.08154 0
M  V30 2623 C 260.372 -4.33443 -2.87094 0
M  V30 2624 C 258.057 -3.7895 -3.29701 0
M  V30 2625 C 260.051 -5.68858 -2.8754 0
M  V30 2626 C 257.738 -5.14482 -3.29776 0
M  V30 2627 C 258.736 -6.09246 -3.0872 0
M  V30 2628 O 258.424 -7.42302 -3.08615 0
M  V30 2629 H 258.156 -0.423898 -0.52658 0
M  V30 2630 H 260.71 -1.72703 -1.11188 0
M  V30 2631 H 258.94 -1.32157 -3.63416 0
M  V30 2632 H 260.629 -1.7391 -3.66756 0
M  V30 2633 H 261.395 -4.02733 -2.70243 0
M  V30 2634 H 257.274 -3.05631 -3.45124 0
M  V30 2635 H 260.818 -6.428 -2.71024 0
M  V30 2636 H 256.715 -5.44832 -3.46163 0
M  V30 2637 H 257.483 -7.5131 -3.24769 0
M  V30 2638 N 260.146 1.09593 -1.13257 0
M  V30 2639 C 261.371 1.8604 -0.916732 0
M  V30 2640 C 261.796 1.80504 0.529146 0
M  V30 2641 O 261.154 1.18127 1.37534 0
M  V30 2642 C 261.202 3.32017 -1.40703 0
M  V30 2643 O 260.306 4.08141 -0.591153 0
M  V30 2644 H 259.647 0.576943 -0.328683 0
M  V30 2645 H 262.177 1.38405 -1.50682 0
M  V30 2646 H 262.187 3.82865 -1.4099 0
M  V30 2647 H 260.862 3.35361 -2.45979 0
M  V30 2648 H 259.439 3.67084 -0.656005 0
M  V30 2649 N 261.624 0.925811 1.2754 0
M  V30 2650 C 262.587 0.428129 2.25166 0
M  V30 2651 C 263.587 -0.452261 1.54309 0
M  V30 2652 O 264.777 -0.253608 1.72344 0
M  V30 2653 C 261.909 -0.384749 3.38722 0
M  V30 2654 H 263.102 1.29066 2.70706 0
M  V30 2655 H 260.655 0.706323 1.3943 0
M  V30 2656 H 261.39 -1.26618 2.98561 0
M  V30 2657 H 261.175 0.246454 3.91325 0
M  V30 2658 H 262.665 -0.723389 4.11287 0
M  V30 2659 N 263.102 -1.41638 0.69111 0
M  V30 2660 C 264.35 -2.00902 0.219758 0
M  V30 2661 C 264.671 -1.54994 -1.18329 0
M  V30 2662 O 263.941 -0.778628 -1.79762 0
M  V30 2663 H 262.521 -0.74289 0.0782558 0
M  V30 2664 H 265.183 -1.73327 0.891271 0
M  V30 2665 H 264.279 -3.11224 0.233708 0
M  V30 2666 N 264.58 -0.43555 -1.51462 0
M  V30 2667 C 265.81 0.130053 -2.0619 0
M  V30 2668 C 266.218 1.37164 -1.30317 0
M  V30 2669 O 265.561 1.80225 -0.355598 0
M  V30 2670 C 265.623 0.519418 -3.55728 0
M  V30 2671 C 265.287 -0.615119 -4.52841 0
M  V30 2672 C 266.284 -1.48671 -4.9819 0
M  V30 2673 C 263.969 -0.795341 -4.95963 0
M  V30 2674 C 265.963 -2.52324 -5.8533 0
M  V30 2675 C 263.65 -1.83514 -5.82894 0
M  V30 2676 C 264.648 -2.69748 -6.27475 0
M  V30 2677 O 264.336 -3.71944 -7.1268 0
M  V30 2678 H 264.068 0.0121612 -0.675891 0
M  V30 2679 H 266.622 -0.6129 -1.96043 0
M  V30 2680 H 264.852 1.31505 -3.63653 0
M  V30 2681 H 266.541 1.01597 -3.92979 0
M  V30 2682 H 267.307 -1.359 -4.65571 0
M  V30 2683 H 263.186 -0.133713 -4.60806 0
M  V30 2684 H 266.73 -3.19665 -6.20048 0
M  V30 2685 H 262.627 -1.96306 -6.14926 0
M  V30 2686 H 263.395 -3.68503 -7.30854 0
M  V30 2687 N 266.058 1.56714 -0.166846 0
M  V30 2688 C 266.988 2.20754 0.760913 0
M  V30 2689 C 267.969 1.16178 1.24244 0
M  V30 2690 O 269.154 1.44592 1.29641 0
M  V30 2691 C 266.284 2.84478 1.99223 0
M  V30 2692 C 265.238 3.95053 1.64672 0
M  V30 2693 C 264.564 4.45805 2.95232 0
M  V30 2694 C 265.864 5.14865 0.878155 0
M  V30 2695 H 267.558 2.98537 0.22713 0
M  V30 2696 H 265.104 1.43596 0.107805 0
M  V30 2697 H 267.057 3.27951 2.64624 0
M  V30 2698 H 265.781 2.04056 2.55007 0
M  V30 2699 H 264.44 3.52228 1.01641 0
M  V30 2700 H 264.088 3.62181 3.49047 0
M  V30 2701 H 263.788 5.204 2.7287 0
M  V30 2702 H 265.312 4.91962 3.6167 0
M  V30 2703 H 266.726 5.55059 1.43466 0
M  V30 2704 H 265.123 5.95348 0.753738 0
M  V30 2705 H 266.193 4.84735 -0.126377 0
M  V30 2706 N 267.536 -0.106894 1.57237 0
M  V30 2707 C 268.766 -0.825191 1.89405 0
M  V30 2708 C 269.174 -1.73374 0.757496 0
M  V30 2709 O 268.517 -1.81552 -0.280115 0
M  V30 2710 C 268.579 -1.70102 3.1671 0
M  V30 2711 C 268.243 -0.965523 4.46684 0
M  V30 2712 C 269.24 -0.300741 5.19029 0
M  V30 2713 C 266.925 -0.943105 4.93367 0
M  V30 2714 C 268.919 0.376622 6.36286 0
M  V30 2715 C 266.606 -0.261949 6.10538 0
M  V30 2716 C 267.604 0.396748 6.81847 0
M  V30 2717 O 267.292 1.06701 7.96787 0
M  V30 2718 H 267.024 -0.241852 0.631255 0
M  V30 2719 H 269.578 -0.0921491 2.05193 0
M  V30 2720 H 267.808 -2.47601 2.97036 0
M  V30 2721 H 269.497 -2.29483 3.34802 0
M  V30 2722 H 270.263 -0.309599 4.84011 0
M  V30 2723 H 266.142 -1.44524 4.3776 0
M  V30 2724 H 269.686 0.891334 6.91882 0
M  V30 2725 H 265.583 -0.250896 6.45012 0
M  V30 2726 H 266.351 0.972707 8.127 0
M  V30 2727 N 269.014 -1.53014 -0.377408 0
M  V30 2728 C 270.254 -1.70318 -1.1301 0
M  V30 2729 C 270.618 -0.439538 -1.86901 0
M  V30 2730 O 271.819 -0.489095 -2.64313 0
M  V30 2731 C 270.09 -2.91125 -2.07319 0
M  V30 2732 S 271.649 -3.29075 -2.90268 0
M  V30 2733 H 268.467 -0.599426 -0.382374 0
M  V30 2734 H 271.069 -1.91089 -0.412933 0
M  V30 2735 H 269.773 -3.81303 -1.51777 0
M  V30 2736 H 269.304 -2.7272 -2.83526 0
M  V30 2737 H 271.319 -2.80165 -4.09539 0
M  V30 2738 N 270.492 0.636531 -1.44174 0
M  V30 2739 C 271.769 1.39463 -1.37148 0
M  V30 2740 C 272.149 2.11082 -0.027507 0
M  V30 2741 O 271.497 2.05954 0.989716 0
M  V30 2742 C 271.707 2.36552 -2.56601 0
M  V30 2743 C 273.055 3.00048 -3.00427 0
M  V30 2744 O 274.079 2.46878 -2.56767 0
M  V30 2745 O 272.938 3.96488 -3.76111 0
M  V30 2746 H 270.032 0.623903 -0.542839 0
M  V30 2747 H 272.578 0.662039 -1.56253 0
M  V30 2748 H 271.35 1.82692 -3.46034 0
M  V30 2749 H 270.973 3.17236 -2.39681 0
M  V30 2750 N 271.97 1.30982 0.876444 0
M  V30 2751 C 272.933 1.18054 1.96459 0
M  V30 2752 C 273.933 0.109399 1.60427 0
M  V30 2753 O 275.123 0.358173 1.70478 0
M  V30 2754 C 272.255 0.810616 3.31122 0
M  V30 2755 H 273.448 2.14735 2.09354 0
M  V30 2756 H 271.001 1.145 1.06392 0
M  V30 2757 H 271.736 -0.155322 3.23928 0
M  V30 2758 H 271.521 1.58481 3.58645 0
M  V30 2759 H 273.011 0.743876 4.10921 0
M  V30 2760 N 273.449 -1.08991 1.13837 0
M  V30 2761 C 274.382 -2.15049 0.763477 0
M  V30 2762 C 275.36 -1.60629 -0.252398 0
M  V30 2763 O 276.544 -1.87958 -0.142853 0
M  V30 2764 C 273.671 -3.38441 0.132545 0
M  V30 2765 C 272.717 -4.11596 1.11763 0
M  V30 2766 S 273.55 -4.6521 2.65216 0
M  V30 2767 C 274.706 -5.91896 2.03495 0
M  V30 2768 H 274.939 -2.46518 1.66182 0
M  V30 2769 H 272.472 -1.21008 0.958976 0
M  V30 2770 H 274.43 -4.09883 -0.225074 0
M  V30 2771 H 273.091 -3.05182 -0.743135 0
M  V30 2772 H 272.284 -5.00121 0.624076 0
M  V30 2773 H 271.886 -3.46038 1.41894 0
M  V30 2774 H 274.178 -6.63156 1.38675 0
M  V30 2775 H 275.121 -6.45938 2.9012 0
M  V30 2776 H 275.529 -5.44625 1.48471 0
M  V30 2777 N 274.927 -0.932562 -1.27047 0
M  V30 2778 C 275.837 -0.441219 -2.30414 0
M  V30 2779 C 276.853 0.480525 -1.67233 0
M  V30 2780 O 278.029 0.362151 -1.98117 0
M  V30 2781 C 275.094 0.293651 -3.45454 0
M  V30 2782 C 274.155 -0.663601 -4.2414 0
M  V30 2783 C 273.388 0.0362932 -5.33688 0
M  V30 2784 O 273.611 1.2548 -5.56427 0
M  V30 2785 O 272.545 -0.638015 -5.98509 0
M  V30 2786 H 276.371 -1.29962 -2.74488 0
M  V30 2787 H 273.956 -0.6981 -1.32087 0
M  V30 2788 H 275.838 0.707951 -4.15411 0
M  V30 2789 H 274.513 1.12758 -3.03426 0
M  V30 2790 H 273.42 -1.12768 -3.56699 0
M  V30 2791 H 274.753 -1.46489 -4.69896 0
M  V30 2792 N 276.405 1.4127 -0.698611 0
M  V30 2793 C 277.368 2.29158 -0.044132 0
M  V30 2794 C 278.368 1.44529 0.704841 0
M  V30 2795 O 279.558 1.65643 0.539276 0
M  V30 2796 C 276.69 3.27459 0.947809 0
M  V30 2797 H 277.883 2.88529 -0.817994 0
M  V30 2798 H 275.436 1.49307 -0.46228 0
M  V30 2799 H 276.171 2.73073 1.74933 0
M  V30 2800 H 275.956 3.8991 0.41385 0
M  V30 2801 H 277.446 3.93311 1.40344 0
M  V30 2802 N 277.883 0.443576 1.51229 0
M  V30 2803 C 279.123 -0.119889 2.04048 0
M  V30 2804 C 279.487 -1.39418 1.32009 0
M  V30 2805 O 280.688 -2.03829 1.75235 0
M  V30 2806 C 278.959 -0.327233 3.55899 0
M  V30 2807 S 280.518 -0.853208 4.30425 0
M  V30 2808 H 277.336 -0.028921 0.710412 0
M  V30 2809 H 279.938 0.604413 1.85922 0
M  V30 2810 H 278.642 0.606445 4.05895 0
M  V30 2811 H 278.173 -1.07844 3.7833 0
M  V30 2812 H 280.188 -2.13005 4.48155 0
M  V30 2813 N 279.361 -1.56624 0.175154 0
M  V30 2814 C 280.638 -1.88688 -0.515373 0
M  V30 2815 C 281.018 -1.08564 -1.81044 0
M  V30 2816 O 280.366 -0.180703 -2.27784 0
M  V30 2817 C 280.576 -3.40768 -0.753552 0
M  V30 2818 C 281.924 -4.10587 -1.08184 0
M  V30 2819 O 282.948 -3.46106 -0.841961 0
M  V30 2820 O 281.807 -5.24512 -1.53459 0
M  V30 2821 H 278.901 -0.78301 -0.26613 0
M  V30 2822 H 281.447 -1.68347 0.213877 0
M  V30 2823 H 280.219 -3.90965 0.161829 0
M  V30 2824 H 279.842 -3.66733 -1.53598 0
M  V30 2825 N 280.839 0.0985539 -1.57292 0
M  V30 2826 C 282.085 0.803867 -1.86188 0
M  V30 2827 C 282.418 1.78549 -0.763794 0
M  V30 2828 O 281.693 1.93153 0.22855 0
M  V30 2829 C 281.976 1.53568 -3.25713 0
M  V30 2830 C 281.829 0.572277 -4.46145 0
M  V30 2831 C 283.148 2.48708 -3.63087 0
M  V30 2832 H 280.267 0.290781 -0.677211 0
M  V30 2833 H 282.909 0.0675783 -1.8988 0
M  V30 2834 H 281.059 2.16332 -3.22696 0
M  V30 2835 H 282.731 -0.0480894 -4.61275 0
M  V30 2836 H 280.974 -0.114618 -4.33649 0
M  V30 2837 H 281.645 1.12139 -5.40489 0
M  V30 2838 H 284.121 1.96039 -3.67026 0
M  V30 2839 H 282.997 2.96932 -4.61652 0
M  V30 2840 H 283.258 3.32309 -2.91588 0
M  V30 2841 N 282.317 1.53212 0.369288 0
M  V30 2842 C 283.547 1.72868 1.13139 0
M  V30 2843 C 283.955 0.455754 1.83629 0
M  V30 2844 O 283.298 -0.580861 1.74275 0
M  V30 2845 C 283.36 2.83667 2.20847 0
M  V30 2846 C 283.024 4.24142 1.70155 0
M  V30 2847 C 284.021 5.06619 1.16763 0
M  V30 2848 C 281.706 4.70539 1.7578 0
M  V30 2849 C 283.7 6.33581 0.696678 0
M  V30 2850 C 281.387 5.97481 1.28297 0
M  V30 2851 C 282.385 6.78833 0.753307 0
M  V30 2852 O 282.073 8.03393 0.285475 0
M  V30 2853 H 281.805 0.581707 0.344373 0
M  V30 2854 H 284.359 2.00736 0.435243 0
M  V30 2855 H 282.589 2.51265 2.93944 0
M  V30 2856 H 284.278 2.91536 2.82421 0
M  V30 2857 H 285.044 4.71948 1.11758 0
M  V30 2858 H 280.923 4.07293 2.15949 0
M  V30 2859 H 284.467 6.97027 0.282581 0
M  V30 2860 H 280.364 6.31651 1.32994 0
M  V30 2861 H 281.132 8.17497 0.405145 0
M  V30 2862 N 283.795 -0.628877 1.44509 0
M  V30 2863 C 285.023 -1.41554 1.50897 0
M  V30 2864 C 285.438 -1.8832 0.134564 0
M  V30 2865 O 284.795 -1.60969 -0.859965 0
M  V30 2866 C 284.846 -2.63435 2.47556 0
M  V30 2867 O 284.567 -2.18619 3.79654 0
M  V30 2868 C 286.068 -3.56537 2.63431 0
M  V30 2869 H 283.288 -0.434044 0.511709 0
M  V30 2870 H 285.832 -0.768895 1.89495 0
M  V30 2871 H 283.987 -3.24187 2.12089 0
M  V30 2872 H 284.401 -2.97652 4.31861 0
M  V30 2873 H 285.875 -4.38657 3.35088 0
M  V30 2874 H 286.352 -4.05493 1.68738 0
M  V30 2875 H 286.958 -3.01653 2.9981 0
M  V30 2876 N 285.273 -1.31445 -0.869486 0
M  V30 2877 C 286.689 -1.10113 -1.15531 0
M  V30 2878 C 286.889 0.128087 -2.01092 0
M  V30 2879 O 285.945 0.817276 -2.38908 0
M  V30 2880 C 287.258 -2.37291 -1.84698 0
M  V30 2881 C 288.806 -2.42906 -1.97397 0
M  V30 2882 C 289.281 -3.69967 -2.69979 0
M  V30 2883 N 290.772 -3.70864 -2.77514 0
M  V30 2884 C 291.507 -4.65875 -3.34287 0
M  V30 2885 N 291.003 -5.71242 -3.91988 0
M  V30 2886 N 292.796 -4.53394 -3.3225 0
M  V30 2887 H 284.947 -2.1028 -0.299347 0
M  V30 2888 H 287.21 -0.927683 -0.195214 0
M  V30 2889 H 286.916 -3.27078 -1.29278 0
M  V30 2890 H 286.79 -2.47125 -2.84972 0
M  V30 2891 H 289.177 -1.53588 -2.51982 0
M  V30 2892 H 289.258 -2.37036 -0.961643 0
M  V30 2893 H 288.902 -4.59652 -2.16062 0
M  V30 2894 H 288.832 -3.73103 -3.7162 0
M  V30 2895 H 291.323 -2.94697 -2.36563 0
M  V30 2896 H 291.636 -6.39817 -4.33421 0
M  V30 2897 H 289.981 -5.75015 -3.90362 0
M  V30 2898 H 293.172 -3.70252 -2.8641 0
M  V30 2899 H 293.345 -5.27617 -3.76197 0
M  V30 2900 N 286.751 1.08385 -1.14413 0
M  V30 2901 C 287.683 2.1519 -0.789036 0
M  V30 2902 C 288.696 1.61638 0.19417 0
M  V30 2903 O 289.885 1.78479 -0.0275711 0
M  V30 2904 C 286.985 3.38565 -0.15058 0
M  V30 2905 C 286.158 4.21501 -1.16857 0
M  V30 2906 C 285.217 5.23277 -0.553832 0
M  V30 2907 O 284.243 5.56041 -1.21686 0
M  V30 2908 N 285.445 5.76629 0.669296 0
M  V30 2909 H 288.21 2.46257 -1.70814 0
M  V30 2910 H 285.771 1.24198 -1.03858 0
M  V30 2911 H 287.763 4.03777 0.273181 0
M  V30 2912 H 286.333 3.05299 0.671667 0
M  V30 2913 H 285.553 3.52265 -1.76926 0
M  V30 2914 H 286.841 4.73731 -1.85624 0
M  V30 2915 H 286.239 5.52243 1.22654 0
M  V30 2916 H 284.796 6.43521 1.03556 0
M  V30 2917 N 288.23 0.939286 1.26551 0
M  V30 2918 C 289.47 0.5933 1.956 0
M  V30 2919 C 289.834 -0.851515 1.72085 0
M  V30 2920 O 291.035 -1.30634 2.34921 0
M  V30 2921 C 289.306 0.923996 3.45249 0
M  V30 2922 S 290.865 0.688269 4.33369 0
M  V30 2923 H 287.683 0.218591 0.676564 0
M  V30 2924 H 290.285 1.2102 1.5354 0
M  V30 2925 H 288.989 1.97297 3.59864 0
M  V30 2926 H 288.52 0.296746 3.92279 0
M  V30 2927 H 290.535 -0.448434 4.9417 0
M  V30 2928 N 289.708 -1.40897 0.706093 0
M  V30 2929 C 290.933 -2.05895 0.249435 0
M  V30 2930 C 291.358 -1.52823 -1.09666 0
M  V30 2931 O 290.716 -0.659589 -1.68876 0
M  V30 2932 C 290.764 -3.59872 0.22904 0
M  V30 2933 O 289.868 -4.04708 -0.792784 0
M  V30 2934 H 289.209 -0.653206 0.119241 0
M  V30 2935 H 291.739 -1.80471 0.96391 0
M  V30 2936 H 291.749 -4.07951 0.0634791 0
M  V30 2937 H 290.424 -3.97866 1.21141 0
M  V30 2938 H 289.001 -3.68111 -0.59572 0
M  V30 2939 N 291.186 -0.45159 -1.50991 0
M  V30 2940 C 292.414 0.108334 -2.06616 0
M  V30 2941 C 292.829 1.35224 -1.31757 0
M  V30 2942 O 292.186 1.78475 -0.381174 0
M  V30 2943 C 292.237 0.41619 -3.59096 0
M  V30 2944 O 291.958 -0.778361 -4.3113 0
M  V30 2945 C 293.459 1.02523 -4.31282 0
M  V30 2946 H 290.679 0.00159995 -0.670998 0
M  V30 2947 H 293.223 -0.634771 -1.94399 0
M  V30 2948 H 291.378 1.10921 -3.71181 0
M  V30 2949 H 291.792 -0.511181 -5.22003 0
M  V30 2950 H 293.266 1.19053 -5.39009 0
M  V30 2951 H 293.743 2.01013 -3.905 0
M  V30 2952 H 294.349 0.371173 -4.23677 0
M  V30 2953 N 292.664 1.56529 -0.183458 0
M  V30 2954 C 293.594 2.21549 0.737456 0
M  V30 2955 C 294.575 1.17489 1.23005 0
M  V30 2956 O 295.76 1.45959 1.281 0
M  V30 2957 C 292.89 2.86575 1.96194 0
M  V30 2958 C 291.844 3.96778 1.60473 0
M  V30 2959 C 291.17 4.48911 2.90487 0
M  V30 2960 C 292.47 5.15767 0.823497 0
M  V30 2961 H 294.164 2.98761 0.195453 0
M  V30 2962 H 291.71 1.43702 0.0925686 0
M  V30 2963 H 293.663 3.30739 2.61131 0
M  V30 2964 H 292.387 2.06749 2.52828 0
M  V30 2965 H 291.046 3.53286 0.978997 0
M  V30 2966 H 290.694 3.65862 3.45186 0
M  V30 2967 H 290.394 5.23265 2.67335 0
M  V30 2968 H 291.918 4.95771 3.56432 0
M  V30 2969 H 293.332 5.56549 1.37571 0
M  V30 2970 H 291.729 5.96114 0.690551 0
M  V30 2971 H 292.799 4.84574 -0.177782 0
M  V30 2972 N 294.142 -0.090211 1.57342 0
M  V30 2973 C 295.072 -1.10976 2.05443 0
M  V30 2974 C 296.053 -1.41482 0.944284 0
M  V30 2975 O 297.238 -1.51428 1.21586 0
M  V30 2976 C 294.368 -2.42831 2.48295 0
M  V30 2977 C 293.322 -2.26721 3.63018 0
M  V30 2978 C 292.648 -3.63796 3.91863 0
M  V30 2979 C 293.948 -1.7037 4.93732 0
M  V30 2980 H 295.642 -0.709564 2.9087 0
M  V30 2981 H 293.188 -0.339874 1.39932 0
M  V30 2982 H 295.141 -3.14431 2.80555 0
M  V30 2983 H 293.865 -2.84795 1.59873 0
M  V30 2984 H 292.524 -1.57565 3.31012 0
M  V30 2985 H 292.172 -4.03297 3.00601 0
M  V30 2986 H 291.872 -3.53861 4.69101 0
M  V30 2987 H 293.396 -4.36855 4.26603 0
M  V30 2988 H 294.81 -2.31816 5.24342 0
M  V30 2989 H 293.207 -1.71181 5.75167 0
M  V30 2990 H 294.277 -0.663542 4.80339 0
M  V30 2991 N 295.62 -1.53406 -0.361157 0
M  V30 2992 C 296.568 -1.80832 -1.46296 0
M  V30 2993 C 297.562 -0.677699 -1.55253 0
M  V30 2994 O 298.768 -0.860723 -1.58087 0
M  V30 2995 H 295.143 -0.572627 -0.487445 0
M  V30 2996 H 297.114 -2.73045 -1.20371 0
M  V30 2997 C 295.863 -2.01907 -2.8307 0
M  V30 2998 H 295.186 -2.88349 -2.76938 0
M  V30 2999 H 296.626 -2.25072 -3.59331 0
M  V30 3000 C 295.085 -0.799449 -3.27277 0
M  V30 3001 O 295.615 0.00971761 -4.01699 0
M  V30 3002 N 293.821 -0.621637 -2.83873 0
M  V30 3003 H 293.368 -1.28126 -2.23476 0
M  V30 3004 H 293.326 0.19298 -3.13807 0
M  V30 3005 N 297.098 0.621204 -1.44841 0
M  V30 3006 C 298.326 1.40752 -1.51646 0
M  V30 3007 C 298.741 1.88246 -0.144549 0
M  V30 3008 O 298.098 1.61422 0.851416 0
M  V30 3009 C 298.149 2.62119 -2.4895 0
M  V30 3010 O 297.87 2.16602 -3.80808 0
M  V30 3011 C 299.371 3.55135 -2.65319 0
M  V30 3012 H 296.591 0.431325 -0.514004 0
M  V30 3013 H 299.135 0.758835 -1.899 0
M  V30 3014 H 297.29 3.23058 -2.13805 0
M  V30 3015 H 297.704 2.95358 -4.33433 0
M  V30 3016 H 299.178 4.36874 -3.37409 0
M  V30 3017 H 299.655 4.04592 -1.70886 0
M  V30 3018 H 300.261 3.00058 -3.01405 0
M  V30 3019 N 298.576 1.31904 0.862503 0
M  V30 3020 C 299.825 1.21373 1.61094 0
M  V30 3021 C 300.138 -0.22504 1.94301 0
M  V30 3022 O 301.344 -0.452121 2.67709 0
M  V30 3023 C 299.8 2.12525 2.9045 0
M  V30 3024 C 299.408 3.61441 2.64697 0
M  V30 3025 C 301.152 2.10813 3.68454 0
M  V30 3026 C 299.059 4.44578 3.90006 0
M  V30 3027 H 297.989 0.450705 0.604468 0
M  V30 3028 H 300.64 1.56811 0.953027 0
M  V30 3029 H 299.022 1.69994 3.57656 0
M  V30 3030 H 300.196 4.12264 2.05851 0
M  V30 3031 H 298.511 3.65205 2.00036 0
M  V30 3032 H 301.108 2.70167 4.61426 0
M  V30 3033 H 301.451 1.09713 4.01583 0
M  V30 3034 H 301.984 2.51583 3.08141 0
M  V30 3035 H 298.723 5.46461 3.62023 0
M  V30 3036 H 298.243 3.98508 4.48276 0
M  V30 3037 H 299.922 4.57176 4.5782 0
M  V30 3038 N 300.054 -1.07777 1.14986 0
M  V30 3039 C 300.964 -2.18404 0.856546 0
M  V30 3040 C 301.98 -1.73211 -0.165485 0
M  V30 3041 O 303.156 -2.01399 0.00755219 0
M  V30 3042 C 300.221 -3.44977 0.34526 0
M  V30 3043 C 299.282 -4.0476 1.43065 0
M  V30 3044 C 298.515 -5.25291 0.943663 0
M  V30 3045 O 298.738 -5.70004 -0.212426 0
M  V30 3046 O 297.672 -5.76638 1.72547 0
M  V30 3047 H 301.498 -2.45978 1.78125 0
M  V30 3048 H 299.083 -1.17033 0.928631 0
M  V30 3049 H 300.965 -4.21348 0.0663671 0
M  V30 3050 H 299.64 -3.18965 -0.551631 0
M  V30 3051 H 298.547 -3.29949 1.76309 0
M  V30 3052 H 299.88 -4.35035 2.30229 0
M  V30 3053 N 301.532 -0.945985 -1.26051 0
M  V30 3054 C 302.462 -0.477172 -2.28572 0
M  V30 3055 C 303.443 0.472032 -1.63419 0
M  V30 3056 O 304.628 0.372853 -1.90587 0
M  V30 3057 C 301.758 0.253975 -3.4637 0
M  V30 3058 C 300.712 -0.609135 -4.23643 0
M  V30 3059 C 300.038 0.252252 -5.34105 0
M  V30 3060 C 301.338 -1.8829 -4.8718 0
M  V30 3061 H 303.032 -1.33402 -2.68038 0
M  V30 3062 H 300.578 -0.642904 -1.28852 0
M  V30 3063 H 302.531 0.593016 -4.17207 0
M  V30 3064 H 301.255 1.145 -3.05871 0
M  V30 3065 H 299.914 -0.931138 -3.54578 0
M  V30 3066 H 299.562 1.14278 -4.89846 0
M  V30 3067 H 299.262 -0.32188 -5.86718 0
M  V30 3068 H 300.786 0.586454 -6.07777 0
M  V30 3069 H 302.2 -1.61081 -5.50205 0
M  V30 3070 H 300.597 -2.40199 -5.49931 0
M  V30 3071 H 301.667 -2.59134 -4.09851 0
M  V30 3072 N 303.011 1.40521 -0.713556 0
M  V30 3073 C 303.974 2.29098 -0.0684347 0
M  V30 3074 C 304.974 1.45268 0.689472 0
M  V30 3075 O 306.164 1.66205 0.521677 0
M  V30 3076 C 303.296 3.28446 0.913024 0
M  V30 3077 H 304.489 2.87645 -0.84855 0
M  V30 3078 H 302.042 1.48809 -0.47809 0
M  V30 3079 H 302.777 2.74913 1.72027 0
M  V30 3080 H 302.562 3.90327 0.372472 0
M  V30 3081 H 304.052 3.94777 1.36165 0
M  V30 3082 N 304.489 0.459591 1.5075 0
M  V30 3083 C 305.717 -0.0973749 2.06671 0
M  V30 3084 C 306.132 -1.34524 1.32472 0
M  V30 3085 O 305.489 -1.7827 0.390634 0
M  V30 3086 C 305.54 -0.39714 3.59312 0
M  V30 3087 O 305.261 0.801214 4.30711 0
M  V30 3088 C 306.762 -1.00234 4.31819 0
M  V30 3089 H 303.982 0.00195854 0.670997 0
M  V30 3090 H 306.526 0.645072 1.94059 0
M  V30 3091 H 304.681 -1.08951 3.71764 0
M  V30 3092 H 305.095 0.538857 5.21725 0
M  V30 3093 H 306.569 -1.16193 5.39632 0
M  V30 3094 H 307.046 -1.98939 3.91561 0
M  V30 3095 H 307.652 -0.348699 4.23868 0
M  V30 3096 N 305.967 -1.56429 0.191757 0
M  V30 3097 C 306.897 -2.21937 -0.725696 0
M  V30 3098 C 307.878 -1.1814 -1.2238 0
M  V30 3099 O 309.063 -1.46636 -1.27325 0
M  V30 3100 C 306.193 -2.87611 -1.94672 0
M  V30 3101 C 305.147 -3.97623 -1.58366 0
M  V30 3102 C 304.473 -4.50446 -2.88102 0
M  V30 3103 C 305.773 -5.16197 -0.796133 0
M  V30 3104 H 307.467 -2.98861 -0.179606 0
M  V30 3105 H 305.013 -1.43749 -0.0849464 0
M  V30 3106 H 306.966 -3.3212 -2.59373 0
M  V30 3107 H 305.69 -2.08087 -2.51728 0
M  V30 3108 H 304.349 -3.53801 -0.960247 0
M  V30 3109 H 303.997 -3.67688 -3.43241 0
M  V30 3110 H 303.697 -5.24675 -2.64556 0
M  V30 3111 H 305.221 -4.97654 -3.53798 0
M  V30 3112 H 306.635 -5.57271 -1.34618 0
M  V30 3113 H 305.032 -5.96471 -0.658928 0
M  V30 3114 H 306.102 -4.84473 0.203478 0
M  V30 3115 N 307.445 0.0818655 -1.57387 0
M  V30 3116 C 308.693 0.781368 -1.86384 0
M  V30 3117 C 309.014 1.78618 -0.782342 0
M  V30 3118 O 308.284 1.94976 0.190061 0
M  V30 3119 H 306.864 0.291562 -0.687751 0
M  V30 3120 H 309.526 0.060348 -1.94807 0
M  V30 3121 H 308.622 1.3038 -2.83562 0
M  V30 3122 N 308.923 1.53595 0.353017 0
M  V30 3123 C 309.886 1.80232 1.41594 0
M  V30 3124 C 310.886 0.673081 1.46035 0
M  V30 3125 O 312.076 0.941335 1.46576 0
M  V30 3126 C 309.208 1.93578 2.80607 0
M  V30 3127 H 310.401 2.75174 1.19244 0
M  V30 3128 H 307.954 1.44864 0.586872 0
M  V30 3129 H 308.689 1.00746 3.08254 0
M  V30 3130 H 308.474 2.75724 2.78781 0
M  V30 3131 H 309.964 2.15735 3.57558 0
M  V30 3132 N 310.401 -0.613514 1.45168 0
M  V30 3133 C 311.629 -1.39946 1.5239 0
M  V30 3134 C 312.044 -1.88167 0.154531 0
M  V30 3135 O 311.401 -1.61872 -0.842843 0
M  V30 3136 C 311.452 -2.60795 2.50337 0
M  V30 3137 O 311.173 -2.1458 3.81952 0
M  V30 3138 C 312.674 -3.53723 2.67198 0
M  V30 3139 H 309.894 -0.428593 0.516284 0
M  V30 3140 H 312.438 -0.748753 1.903 0
M  V30 3141 H 310.593 -3.21919 2.15515 0
M  V30 3142 H 311.007 -2.93055 4.34993 0
M  V30 3143 H 312.481 -4.35079 3.39721 0
M  V30 3144 H 312.958 -4.0368 1.73029 0
M  V30 3145 H 313.564 -2.98456 3.02992 0
M  V30 3146 N 311.879 -1.3236 -0.855495 0
M  V30 3147 C 312.809 -1.23833 -1.97958 0
M  V30 3148 C 313.79 -0.122361 -1.69659 0
M  V30 3149 O 314.975 -0.30939 -1.9172 0
M  V30 3150 C 312.105 -0.959772 -3.33775 0
M  V30 3151 C 311.059 -2.03689 -3.76424 0
M  V30 3152 C 310.385 -1.61075 -5.09862 0
M  V30 3153 C 311.685 -3.4518 -3.9198 0
M  V30 3154 H 313.379 -2.1788 -2.0535 0
M  V30 3155 H 310.925 -1.04891 -0.986605 0
M  V30 3156 H 312.878 -0.886678 -4.11966 0
M  V30 3157 H 311.602 0.0163404 -3.26596 0
M  V30 3158 H 310.261 -2.10012 -3.00484 0
M  V30 3159 H 309.909 -0.622107 -4.99138 0
M  V30 3160 H 309.609 -2.33143 -5.39368 0
M  V30 3161 H 311.133 -1.55201 -5.90546 0
M  V30 3162 H 312.547 -3.4145 -4.60526 0
M  V30 3163 H 310.944 -4.1559 -4.32903 0
M  V30 3164 H 312.014 -3.84903 -2.94919 0
M  V30 3165 N 313.357 1.07166 -1.15556 0
M  V30 3166 C 314.32 2.12589 -0.856644 0
M  V30 3167 C 315.32 1.6015 0.14444 0
M  V30 3168 O 316.51 1.7399 -0.0854163 0
M  V30 3169 C 313.642 3.39753 -0.279405 0
M  V30 3170 H 314.835 2.40539 -1.79112 0
M  V30 3171 H 312.388 1.23086 -0.963298 0
M  V30 3172 H 313.123 3.17447 0.663174 0
M  V30 3173 H 312.908 3.79117 -1.00063 0
M  V30 3174 H 314.398 4.17507 -0.0879113 0
M  V30 3175 N 314.835 0.952656 1.25548 0
M  V30 3176 C 315.798 0.475794 2.24207 0
M  V30 3177 C 316.798 -0.419428 1.55234 0
M  V30 3178 O 317.988 -0.216994 1.72843 0
M  V30 3179 C 315.12 -0.312814 3.39462 0
M  V30 3180 H 316.313 1.34779 2.67908 0
M  V30 3181 H 313.866 0.735739 1.37901 0
M  V30 3182 H 314.601 -1.20257 3.01179 0
M  V30 3183 H 314.386 0.329404 3.90714 0
M  V30 3184 H 315.876 -0.635986 4.12729 0
M  V30 3185 N 316.313 -1.40141 0.720998 0
M  V30 3186 C 317.561 -2.0039 0.262323 0
M  V30 3187 C 317.882 -1.57469 -1.15015 0
M  V30 3188 O 317.152 -0.816582 -1.78069 0
M  V30 3189 H 315.732 -0.741063 0.093996 0
M  V30 3190 H 318.394 -1.71398 0.927835 0
M  V30 3191 H 317.49 -3.10658 0.299671 0
M  V30 3192 N 317.792 -0.46758 -1.50504 0
M  V30 3193 C 319.04 0.0884469 -2.01906 0
M  V30 3194 C 319.361 1.40532 -1.35188 0
M  V30 3195 O 318.631 1.89515 -0.496079 0
M  V30 3196 H 317.211 0.0356765 -0.746148 0
M  V30 3197 H 319.873 -0.6172 -1.84869 0
M  V30 3198 H 318.969 0.2425 -3.11156 0
M  V30 3199 N 319.27 1.56325 -0.20005 0
M  V30 3200 C 320.516 1.98012 0.438059 0
M  V30 3201 C 320.849 1.08702 1.60927 0
M  V30 3202 O 320.124 0.140064 1.93995 0
M  V30 3203 C 320.407 3.48841 0.893419 0
M  V30 3204 C 320.26 4.48928 -0.279947 0
M  V30 3205 C 321.579 4.03498 1.75719 0
M  V30 3206 H 318.698 0.719918 0.157757 0
M  V30 3207 H 321.34 1.87743 -0.291968 0
M  V30 3208 H 319.49 3.57723 1.51547 0
M  V30 3209 H 321.162 4.52079 -0.91772 0
M  V30 3210 H 319.405 4.23694 -0.930919 0
M  V30 3211 H 320.076 5.5194 0.0812601 0
M  V30 3212 H 322.552 3.97427 1.23253 0
M  V30 3213 H 321.428 5.09393 2.04476 0
M  V30 3214 H 321.689 3.4906 2.71311 0
M  V30 3215 N 320.748 -0.0735177 1.57428 0
M  V30 3216 C 321.696 -1.10628 2.04607 0
M  V30 3217 C 322.69 -1.40181 0.951088 0
M  V30 3218 O 323.896 -1.39608 1.1362 0
M  V30 3219 H 320.271 -0.374088 0.652351 0
M  V30 3220 H 322.242 -0.682218 2.90497 0
M  V30 3221 C 320.991 -2.41212 2.50423 0
M  V30 3222 H 320.314 -2.19322 3.34272 0
M  V30 3223 H 321.754 -3.11927 2.87189 0
M  V30 3224 C 320.213 -3.0705 1.38644 0
M  V30 3225 O 320.743 -3.95056 0.727582 0
M  V30 3226 N 318.949 -2.67645 1.132 0
M  V30 3227 H 318.496 -1.96169 1.66959 0
M  V30 3228 H 318.454 -3.1202 0.386147 0
M  V30 3229 N 322.226 -1.5378 -0.344866 0
M  V30 3230 C 323.637 -1.62428 -0.920552 0
M  V30 3231 C 323.988 -0.504747 -1.89596 0
M  V30 3232 O 323.113 0.365711 -2.13287 0
M  V30 3233 C 323.708 -2.94419 -1.67639 0
M  V30 3234 C 322.267 -3.05333 -2.20111 0
M  V30 3235 C 321.414 -2.57866 -1.01982 0
M  V30 3236 H 324.365 -1.58222 -0.123042 0
M  V30 3237 H 324.386 -2.83384 -2.53917 0
M  V30 3238 H 323.898 -3.7588 -0.966224 0
M  V30 3239 H 321.999 -2.28502 -2.94308 0
M  V30 3240 H 322.112 -4.10778 -2.46573 0
M  V30 3241 H 320.476 -2.13241 -1.39285 0
M  V30 3242 H 321.259 -3.41765 -0.324308 0
M  V30 3243 N 323.704 0.605807 -1.45491 0
M  V30 3244 C 324.634 1.72709 -1.57143 0
M  V30 3245 C 325.615 1.6476 -0.422884 0
M  V30 3246 O 326.8 1.83132 -0.646247 0
M  V30 3247 C 323.93 3.11316 -1.53948 0
M  V30 3248 C 322.884 3.34077 -2.67537 0
M  V30 3249 C 322.21 4.72975 -2.49397 0
M  V30 3250 C 323.51 3.24158 -4.09535 0
M  V30 3251 H 325.204 1.63214 -2.51001 0
M  V30 3252 H 322.75 0.78379 -1.208 0
M  V30 3253 H 324.703 3.89557 -1.60696 0
M  V30 3254 H 323.427 3.21655 -0.566205 0
M  V30 3255 H 322.086 2.58227 -2.6022 0
M  V30 3256 H 321.734 4.8005 -1.50205 0
M  V30 3257 H 321.434 4.8916 -3.25571 0
M  V30 3258 H 322.958 5.53414 -2.58002 0
M  V30 3259 H 324.372 3.92271 -4.18086 0
M  V30 3260 H 322.769 3.51872 -4.86113 0
M  V30 3261 H 323.839 2.2157 -4.31317 0
M  V30 3262 N 325.182 1.32811 0.848464 0
M  V30 3263 C 326.41 1.26739 1.63538 0
M  V30 3264 C 326.825 -0.163484 1.88091 0
M  V30 3265 O 326.182 -1.10258 1.45429 0
M  V30 3266 C 326.233 2.03013 2.99112 0
M  V30 3267 O 325.954 3.40518 2.75643 0
M  V30 3268 C 327.455 2.04038 3.93552 0
M  V30 3269 H 324.675 0.437024 0.509167 0
M  V30 3270 H 327.219 1.75033 1.05753 0
M  V30 3271 H 325.374 1.58426 3.53525 0
M  V30 3272 H 325.788 3.79635 3.61908 0
M  V30 3273 H 327.262 2.61877 4.85926 0
M  V30 3274 H 327.739 1.0282 4.26995 0
M  V30 3275 H 328.345 2.486 3.45077 0
M  V30 3276 N 326.66 -1.06551 1.16123 0
M  V30 3277 C 327.61 -2.12209 0.833736 0
M  V30 3278 C 328.594 -1.59825 -0.185656 0
M  V30 3279 O 329.786 -1.76994 0.0147906 0
M  V30 3280 C 326.915 -3.41674 0.333697 0
M  V30 3281 C 326.001 -4.00892 1.38372 0
M  V30 3282 N 326.392 -4.34256 2.59337 0
M  V30 3283 C 324.69 -4.28463 1.23836 0
M  V30 3284 C 325.391 -4.81291 3.26701 0
M  V30 3285 N 324.367 -4.80565 2.54083 0
M  V30 3286 H 328.169 -2.35849 1.75364 0
M  V30 3287 H 325.683 -1.24068 1.04789 0
M  V30 3288 H 327.68 -4.16822 0.0806918 0
M  V30 3289 H 326.34 -3.19475 -0.58017 0
M  V30 3290 H 327.351 -4.24687 2.96415 0
M  V30 3291 H 324.028 -4.15721 0.38504 0
M  V30 3292 H 325.418 -5.16332 4.29943 0
M  V30 3293 N 328.138 -0.959301 -1.25041 0
M  V30 3294 C 329.085 -0.482057 -2.2571 0
M  V30 3295 C 330.055 0.467939 -1.59372 0
M  V30 3296 O 331.24 0.380159 -1.86974 0
M  V30 3297 C 328.38 0.229623 -3.44335 0
M  V30 3298 C 327.493 -0.758156 -4.25295 0
M  V30 3299 C 326.628 -0.0234403 -5.31195 0
M  V30 3300 C 325.667 -1.00184 -6.03846 0
M  V30 3301 N 324.804 -0.29769 -7.01469 0
M  V30 3302 H 329.644 -1.34538 -2.65901 0
M  V30 3303 H 327.181 -0.674592 -1.3072 0
M  V30 3304 H 329.139 0.658856 -4.11965 0
M  V30 3305 H 327.769 1.05696 -3.05005 0
M  V30 3306 H 326.821 -1.30586 -3.57284 0
M  V30 3307 H 328.133 -1.50458 -4.75567 0
M  V30 3308 H 327.287 0.464201 -6.04922 0
M  V30 3309 H 326.026 0.755741 -4.81809 0
M  V30 3310 H 325.031 -1.50044 -5.2893 0
M  V30 3311 H 326.256 -1.78133 -6.55321 0
M  V30 3312 H 324.202 0.462668 -6.54366 0
M  V30 3313 H 324.119 -0.983128 -7.4958 0
M  V30 3314 H 325.387 0.16826 -7.79318 0
M  V30 3315 N 329.616 1.39756 -0.72842 0
M  V30 3316 C 331.032 1.5442 -0.403308 0
M  V30 3317 C 331.232 1.69694 1.08656 0
M  V30 3318 O 330.288 1.69373 1.87267 0
M  V30 3319 C 331.601 2.76555 -1.18058 0
M  V30 3320 C 333.149 2.90384 -1.16815 0
M  V30 3321 C 333.624 4.15449 -1.92785 0
M  V30 3322 N 335.115 4.22475 -1.89918 0
M  V30 3323 C 335.85 5.1818 -2.45514 0
M  V30 3324 N 335.346 6.19714 -3.09719 0
M  V30 3325 N 337.139 5.1035 -2.35584 0
M  V30 3326 H 329.29 1.28089 -1.69431 0
M  V30 3327 H 331.553 0.620327 -0.716867 0
M  V30 3328 H 331.259 2.7159 -2.23455 0
M  V30 3329 H 331.133 3.69033 -0.780662 0
M  V30 3330 H 333.52 2.94846 -0.12234 0
M  V30 3331 H 333.601 1.98988 -1.6074 0
M  V30 3332 H 333.245 4.11749 -2.97364 0
M  V30 3333 H 333.175 5.05877 -1.46272 0
M  V30 3334 H 335.666 3.49743 -1.43138 0
M  V30 3335 H 335.979 6.8919 -3.49625 0
M  V30 3336 H 334.324 6.20121 -3.13807 0
M  V30 3337 H 337.515 4.2996 -1.85072 0
M  V30 3338 H 337.688 5.84761 -2.79211 0
M  V30 3339 N 331.094 0.475555 1.50254 0
M  V30 3340 C 332.34 -0.0780073 2.0265 0
M  V30 3341 C 332.673 -1.38968 1.35652 0
M  V30 3342 O 331.948 -1.8839 0.483691 0
M  V30 3343 C 332.231 -0.257161 3.59181 0
M  V30 3344 C 332.084 1.07585 4.36744 0
M  V30 3345 C 333.403 -1.00965 4.28362 0
M  V30 3346 H 330.522 -0.0268758 0.73651 0
M  V30 3347 H 333.164 0.622015 1.7953 0
M  V30 3348 H 331.314 -0.853412 3.79011 0
M  V30 3349 H 332.986 1.70902 4.28474 0
M  V30 3350 H 331.229 1.6714 4.00308 0
M  V30 3351 H 331.9 0.904088 5.44546 0
M  V30 3352 H 334.376 -0.504214 4.13034 0
M  V30 3353 H 333.252 -1.10381 5.37687 0
M  V30 3354 H 333.513 -2.04731 3.91839 0
M  V30 3355 N 332.573 -1.56217 0.208337 0
M  V30 3356 C 333.503 -2.22694 -0.702116 0
M  V30 3357 C 334.484 -1.19432 -1.2112 0
M  V30 3358 O 335.669 -1.47978 -1.25762 0
M  V30 3359 C 332.799 -2.8966 -1.9161 0
M  V30 3360 C 331.753 -3.9928 -1.5414 0
M  V30 3361 C 331.079 -4.53476 -2.83308 0
M  V30 3362 C 332.379 -5.17012 -0.741339 0
M  V30 3363 H 334.073 -2.99034 -0.147898 0
M  V30 3364 H 331.619 -1.43831 -0.0696951 0
M  V30 3365 H 333.572 -3.34852 -2.55836 0
M  V30 3366 H 332.296 -2.10746 -2.49507 0
M  V30 3367 H 330.955 -3.54799 -0.922668 0
M  V30 3368 H 330.603 -3.71308 -3.39322 0
M  V30 3369 H 330.303 -5.27451 -2.58976 0
M  V30 3370 H 331.827 -5.01378 -3.485 0
M  V30 3371 H 333.241 -5.58667 -1.28699 0
M  V30 3372 H 331.638 -5.97137 -0.595627 0
M  V30 3373 H 332.708 -4.8423 0.254851 0
M  V30 3374 N 334.051 0.0651679 -1.57465 0
M  V30 3375 C 334.983 1.10359 -2.00882 0
M  V30 3376 C 335.996 1.346 -0.915788 0
M  V30 3377 O 337.185 1.32723 -1.1936 0
M  V30 3378 C 334.285 2.45312 -2.33828 0
M  V30 3379 C 333.458 2.40934 -3.65061 0
M  V30 3380 C 332.517 3.58047 -3.85602 0
M  V30 3381 O 331.543 3.39175 -4.57109 0
M  V30 3382 N 332.745 4.78637 -3.28462 0
M  V30 3383 H 335.51 0.733807 -2.90578 0
M  V30 3384 H 333.071 0.253719 -1.599 0
M  V30 3385 H 335.063 3.22314 -2.44737 0
M  V30 3386 H 333.633 2.74267 -1.49988 0
M  V30 3387 H 332.853 1.49273 -3.64844 0
M  V30 3388 H 334.141 2.35117 -4.51218 0
M  V30 3389 H 333.539 4.96872 -2.70433 0
M  V30 3390 H 332.096 5.53127 -3.44809 0
M  V30 3391 N 335.529 1.53961 0.336706 0
M  V30 3392 C 336.492 1.81724 1.39675 0
M  V30 3393 C 337.492 0.688532 1.45313 0
M  V30 3394 O 338.682 0.956829 1.45569 0
M  V30 3395 C 335.814 1.96543 2.78538 0
M  V30 3396 H 337.007 2.76424 1.16318 0
M  V30 3397 H 334.56 1.45478 0.571474 0
M  V30 3398 H 335.295 1.0401 3.07168 0
M  V30 3399 H 335.08 2.78665 2.75841 0
M  V30 3400 H 336.57 2.19516 3.5525 0
M  V30 3401 N 337.007 -0.598083 1.45811 0
M  V30 3402 C 338.284 -1.35777 1.40797 0
M  V30 3403 C 338.664 -2.10935 0.083462 0
M  V30 3404 O 338.012 -2.08505 -0.934763 0
M  V30 3405 C 338.222 -2.29666 2.62783 0
M  V30 3406 C 339.57 -2.91977 3.08277 0
M  V30 3407 O 340.594 -2.39984 2.63223 0
M  V30 3408 O 339.453 -3.86376 3.86491 0
M  V30 3409 H 336.547 -0.609291 0.55919 0
M  V30 3410 H 339.093 -0.620379 1.57954 0
M  V30 3411 H 337.865 -1.73454 3.50756 0
M  V30 3412 H 337.488 -3.1077 2.48008 0
M  V30 3413 N 338.485 -1.33259 -0.841409 0
M  V30 3414 C 339.433 -1.23279 -1.97244 0
M  V30 3415 C 340.427 -0.134706 -1.68864 0
M  V30 3416 O 341.633 -0.298501 -1.77508 0
M  V30 3417 H 338.008 -0.382497 -0.647457 0
M  V30 3418 H 339.979 -2.18906 -2.02787 0
M  V30 3419 C 338.728 -0.986268 -3.33419 0
M  V30 3420 H 338.051 -1.82347 -3.55794 0
M  V30 3421 H 339.491 -0.956728 -4.13065 0
M  V30 3422 C 337.95 0.310842 -3.35463 0
M  V30 3423 O 338.48 1.31838 -3.79449 0
M  V30 3424 N 336.686 0.337485 -2.88634 0
M  V30 3425 H 336.233 -0.482967 -2.53032 0
M  V30 3426 H 336.191 1.20518 -2.90384 0
M  V30 3427 N 339.963 1.05934 -1.16686 0
M  V30 3428 C 341.209 1.79065 -0.95203 0
M  V30 3429 C 341.542 1.87147 0.518629 0
M  V30 3430 O 340.817 1.36574 1.38484 0
M  V30 3431 C 341.1 3.23359 -1.58464 0
M  V30 3432 C 340.953 3.23336 -3.12689 0
M  V30 3433 C 342.272 4.21004 -1.28232 0
M  V30 3434 H 339.391 0.65005 -0.34728 0
M  V30 3435 H 342.033 1.23868 -1.44072 0
M  V30 3436 H 340.183 3.70493 -1.16908 0
M  V30 3437 H 341.855 2.84336 -3.6325 0
M  V30 3438 H 340.098 2.61886 -3.4583 0
M  V30 3439 H 340.769 4.25144 -3.52075 0
M  V30 3440 H 343.245 3.8233 -1.64203 0
M  V30 3441 H 342.121 5.20225 -1.75092 0
M  V30 3442 H 342.382 4.41639 -0.201791 0
M  V30 3443 N 341.441 0.965919 1.2453 0
M  V30 3444 C 342.852 0.665929 1.7442 0
M  V30 3445 C 343.203 -0.818407 1.78316 0
M  V30 3446 O 342.328 -1.64037 1.41141 0
M  V30 3447 C 342.923 1.20211 3.16757 0
M  V30 3448 C 341.482 0.952059 3.6416 0
M  V30 3449 C 340.629 1.33848 2.42858 0
M  V30 3450 H 343.58 1.14144 1.10258 0
M  V30 3451 H 343.601 0.567544 3.76244 0
M  V30 3452 H 343.113 2.28244 3.13889 0
M  V30 3453 H 341.214 -0.112821 3.72429 0
M  V30 3454 H 341.327 1.59645 4.51719 0
M  V30 3455 H 339.691 0.756864 2.43195 0
M  V30 3456 H 340.474 2.42827 2.42673 0
M  V30 3457 N 342.919 -1.39368 0.735821 0
M  V30 3458 C 344.149 -2.04498 0.293967 0
M  V30 3459 C 344.557 -1.55593 -1.07645 0
M  V30 3460 O 343.9 -0.716324 -1.69158 0
M  V30 3461 C 343.962 -3.58836 0.218342 0
M  V30 3462 C 343.626 -4.30721 1.52736 0
M  V30 3463 C 344.623 -4.57305 2.47322 0
M  V30 3464 C 342.308 -4.69251 1.79189 0
M  V30 3465 C 344.302 -5.21429 3.66593 0
M  V30 3466 C 341.989 -5.33104 2.98737 0
M  V30 3467 C 342.987 -5.59125 3.9226 0
M  V30 3468 O 342.675 -6.21653 5.09708 0
M  V30 3469 H 342.407 -0.664118 0.126189 0
M  V30 3470 H 344.961 -1.79385 1.00051 0
M  V30 3471 H 343.191 -3.8285 -0.544314 0
M  V30 3472 H 344.88 -4.05447 -0.191626 0
M  V30 3473 H 345.646 -4.27983 2.28156 0
M  V30 3474 H 341.525 -4.48354 1.07239 0
M  V30 3475 H 345.069 -5.41656 4.39607 0
M  V30 3476 H 340.966 -5.61846 3.17803 0
M  V30 3477 H 341.734 -6.40146 5.10054 0
M  V30 3478 N 344.397 -0.483516 -1.5 0
M  V30 3479 C 345.646 0.0689102 -2.01582 0
M  V30 3480 C 345.959 1.39655 -1.36952 0
M  V30 3481 O 347.165 2.03465 -1.79762 0
M  V30 3482 C 345.621 0.173302 -3.59483 0
M  V30 3483 C 345.229 -1.14665 -4.33077 0
M  V30 3484 C 346.973 0.677024 -4.19066 0
M  V30 3485 C 344.88 -1.00537 -5.82792 0
M  V30 3486 H 343.81 0.0295277 -0.753422 0
M  V30 3487 H 346.461 -0.620295 -1.72698 0
M  V30 3488 H 344.843 0.926569 -3.85007 0
M  V30 3489 H 346.017 -1.91184 -4.19268 0
M  V30 3490 H 344.332 -1.58244 -3.85159 0
M  V30 3491 H 346.929 0.799952 -5.28682 0
M  V30 3492 H 347.272 1.67151 -3.81269 0
M  V30 3493 H 347.805 -0.0192083 -3.97795 0
M  V30 3494 H 344.544 -1.9736 -6.25083 0
M  V30 3495 H 344.064 -0.280776 -5.99142 0
M  V30 3496 H 345.743 -0.677 -6.43448 0
M  V30 3497 N 345.875 1.56104 -0.216619 0
M  V30 3498 C 346.805 2.23063 0.690296 0
M  V30 3499 C 347.786 1.20072 1.20485 0
M  V30 3500 O 348.971 1.48643 1.24976 0
M  V30 3501 C 346.101 2.90672 1.90072 0
M  V30 3502 C 345.055 4.00092 1.5202 0
M  V30 3503 C 344.381 4.54972 2.80899 0
M  V30 3504 C 345.681 5.17398 0.71391 0
M  V30 3505 H 347.375 2.99109 0.132038 0
M  V30 3506 H 344.921 1.43866 0.0620664 0
M  V30 3507 H 346.874 3.36204 2.54057 0
M  V30 3508 H 345.598 2.12066 2.48386 0
M  V30 3509 H 344.257 3.55283 0.903839 0
M  V30 3510 H 343.905 3.73102 3.37348 0
M  V30 3511 H 343.605 5.28817 2.56176 0
M  V30 3512 H 345.129 5.0322 3.45836 0
M  V30 3513 H 346.543 5.59342 1.25735 0
M  V30 3514 H 344.94 5.97444 0.563951 0
M  V30 3515 H 346.01 4.84088 -0.280527 0
M  V30 3516 N 347.353 -0.0568162 1.57498 0
M  V30 3517 C 348.316 -1.05038 2.03715 0
M  V30 3518 C 349.316 -1.30709 0.936577 0
M  V30 3519 O 350.506 -1.26178 1.20103 0
M  V30 3520 C 347.638 -2.39034 2.43055 0
M  V30 3521 H 348.831 -0.651715 2.92733 0
M  V30 3522 H 346.384 -0.302947 1.53336 0
M  V30 3523 H 347.119 -2.83703 1.57108 0
M  V30 3524 H 346.904 -2.21739 3.2338 0
M  V30 3525 H 348.394 -3.10421 2.79336 0
M  V30 3526 N 348.832 -1.54138 -0.328536 0
M  V30 3527 C 349.742 -1.86192 -1.42723 0
M  V30 3528 C 350.758 -0.753382 -1.56844 0
M  V30 3529 O 351.934 -1.04718 -1.72035 0
M  V30 3530 C 348.999 -2.07824 -2.77507 0
M  V30 3531 C 348.06 -3.31641 -2.72603 0
M  V30 3532 C 347.293 -3.52232 -4.00959 0
M  V30 3533 O 347.516 -2.7636 -4.9898 0
M  V30 3534 O 346.45 -4.45699 -4.0452 0
M  V30 3535 H 350.276 -2.79608 -1.18547 0
M  V30 3536 H 347.861 -1.3998 -0.522104 0
M  V30 3537 H 349.743 -2.23411 -3.57303 0
M  V30 3538 H 348.418 -1.17596 -3.01584 0
M  V30 3539 H 347.325 -3.21444 -1.91376 0
M  V30 3540 H 348.658 -4.2191 -2.53481 0
M  V30 3541 N 350.31 0.590341 -1.46126 0
M  V30 3542 C 351.243 1.71434 -1.50617 0
M  V30 3543 C 352.221 1.58543 -0.360948 0
M  V30 3544 O 353.405 1.79865 -0.563985 0
M  V30 3545 C 350.532 3.09422 -1.37753 0
M  V30 3546 C 349.578 3.40854 -2.5636 0
M  V30 3547 S 350.411 3.33773 -4.18755 0
M  V30 3548 C 351.567 4.74312 -4.08386 0
M  V30 3549 H 351.8 1.67364 -2.45717 0
M  V30 3550 H 349.333 0.76845 -1.33919 0
M  V30 3551 H 351.291 3.8903 -1.31018 0
M  V30 3552 H 349.952 3.10989 -0.440949 0
M  V30 3553 H 349.145 4.41368 -2.43332 0
M  V30 3554 H 348.747 2.68798 -2.60046 0
M  V30 3555 H 351.039 5.64522 -3.74595 0
M  V30 3556 H 351.982 4.92397 -5.08872 0
M  V30 3557 H 352.39 4.50803 -3.3976 0
M  V30 3558 N 351.788 1.33704 0.83433 0
M  V30 3559 C 352.721 1.18675 1.94914 0
M  V30 3560 C 353.699 0.0811145 1.62398 0
M  V30 3561 O 354.883 0.244186 1.86912 0
M  V30 3562 C 352.01 0.821231 3.28593 0
M  V30 3563 C 351.056 1.93501 3.80079 0
M  V30 3564 S 351.889 3.54671 4.01209 0
M  V30 3565 C 353.045 3.20136 5.37833 0
M  V30 3566 H 353.278 2.13043 2.07364 0
M  V30 3567 H 350.811 1.18598 0.988624 0
M  V30 3568 H 352.769 0.617123 4.05835 0
M  V30 3569 H 351.43 -0.103927 3.13928 0
M  V30 3570 H 350.623 1.63273 4.76821 0
M  V30 3571 H 350.225 2.09601 3.09747 0
M  V30 3572 H 352.517 2.71242 6.20833 0
M  V30 3573 H 353.46 4.15975 5.73036 0
M  V30 3574 H 353.868 2.56613 5.02802 0
M  V30 3575 N 353.266 -1.05314 1.17247 0
M  V30 3576 C 354.199 -2.12512 0.831507 0
M  V30 3577 C 355.177 -1.61351 -0.201168 0
M  V30 3578 O 356.361 -1.88317 -0.0829831 0
M  V30 3579 C 353.488 -3.37848 0.24015 0
M  V30 3580 C 352.534 -4.07832 1.24801 0
M  V30 3581 S 353.367 -4.56537 2.79882 0
M  V30 3582 C 354.523 -5.85122 2.22223 0
M  V30 3583 H 354.756 -2.41106 1.7394 0
M  V30 3584 H 352.289 -1.17896 0.996988 0
M  V30 3585 H 354.247 -4.10391 -0.0945588 0
M  V30 3586 H 352.908 -3.07392 -0.645668 0
M  V30 3587 H 352.101 -4.97883 0.78287 0
M  V30 3588 H 351.703 -3.41348 1.52831 0
M  V30 3589 H 353.995 -6.58408 1.59703 0
M  V30 3590 H 354.938 -6.36381 3.10523 0
M  V30 3591 H 355.346 -5.39626 1.65722 0
M  V30 3592 N 354.744 -0.972509 -1.24016 0
M  V30 3593 C 355.654 -0.5143 -2.28893 0
M  V30 3594 C 356.67 0.427078 -1.68677 0
M  V30 3595 O 357.846 0.298939 -1.99169 0
M  V30 3596 C 354.911 0.183598 -3.46214 0
M  V30 3597 C 353.972 -0.798202 -4.21814 0
M  V30 3598 C 353.205 -0.133514 -5.33533 0
M  V30 3599 O 353.428 1.07714 -5.60137 0
M  V30 3600 O 352.362 -0.828103 -5.96176 0
M  V30 3601 H 356.188 -1.38629 -2.70214 0
M  V30 3602 H 353.773 -0.739769 -1.29799 0
M  V30 3603 H 355.655 0.575433 -4.17453 0
M  V30 3604 H 354.33 1.03048 -3.0686 0
M  V30 3605 H 353.237 -1.24059 -3.52931 0
M  V30 3606 H 354.57 -1.61364 -4.64997 0
M  V30 3607 N 356.222 1.38976 -0.743202 0
M  V30 3608 C 357.47 1.99948 -0.29417 0
M  V30 3609 C 357.791 1.59279 1.12495 0
M  V30 3610 O 357.061 0.844808 1.76748 0
M  V30 3611 H 355.641 0.739473 -0.105774 0
M  V30 3612 H 358.303 1.699 -0.954986 0
M  V30 3613 H 357.399 3.10142 -0.349056 0
M  V30 3614 N 357.7 0.491464 1.49741 0
M  V30 3615 C 358.63 -0.28154 2.31796 0
M  V30 3616 C 359.611 -0.971473 1.3963 0
M  V30 3617 O 360.796 -0.964719 1.68543 0
M  V30 3618 C 357.926 -1.35203 3.19902 0
M  V30 3619 C 356.88 -0.782529 4.20786 0
M  V30 3620 C 356.206 -1.95283 4.97764 0
M  V30 3621 C 357.506 0.21999 5.21837 0
M  V30 3622 H 359.2 0.403355 2.96671 0
M  V30 3623 H 356.746 0.195425 1.42668 0
M  V30 3624 H 358.699 -1.90045 3.76113 0
M  V30 3625 H 357.423 -2.06598 2.52953 0
M  V30 3626 H 356.082 -0.255928 3.65706 0
M  V30 3627 H 355.73 -2.65423 4.2727 0
M  V30 3628 H 355.43 -1.57789 5.66018 0
M  V30 3629 H 356.954 -2.50577 5.56816 0
M  V30 3630 H 358.368 -0.23996 5.72798 0
M  V30 3631 H 356.765 0.51026 5.97927 0
M  V30 3632 H 357.835 1.13911 4.7133 0
M  V30 3633 N 359.178 -1.55987 0.224894 0
M  V30 3634 C 360.408 -2.02489 -0.41007 0
M  V30 3635 C 360.816 -1.10391 -1.53657 0
M  V30 3636 O 360.159 -0.106458 -1.83391 0
M  V30 3637 C 360.221 -3.45319 -0.999757 0
M  V30 3638 C 359.885 -4.56999 -0.00827976 0
M  V30 3639 C 360.882 -5.13812 0.793314 0
M  V30 3640 C 358.567 -5.02176 0.111442 0
M  V30 3641 C 360.561 -6.14276 1.7013 0
M  V30 3642 C 358.248 -6.02477 1.02296 0
M  V30 3643 C 359.246 -6.58403 1.81643 0
M  V30 3644 O 358.934 -7.56751 2.71262 0
M  V30 3645 H 358.666 -0.667915 -0.104235 0
M  V30 3646 H 361.22 -2.0257 0.339782 0
M  V30 3647 H 359.45 -3.42318 -1.79876 0
M  V30 3648 H 361.139 -3.7545 -1.54248 0
M  V30 3649 H 361.905 -4.79756 0.711288 0
M  V30 3650 H 357.784 -4.58323 -0.49605 0
M  V30 3651 H 361.328 -6.57854 2.32107 0
M  V30 3652 H 357.225 -6.35954 1.10599 0
M  V30 3653 H 357.993 -7.74286 2.65375 0
M  V30 3654 N 360.656 0.0484629 -1.57525 0
M  V30 3655 C 361.904 0.741657 -1.88 0
M  V30 3656 C 362.225 1.76918 -0.820054 0
M  V30 3657 O 361.495 1.95335 0.148661 0
M  V30 3658 H 360.075 0.276908 -0.69378 0
M  V30 3659 H 362.737 0.019013 -1.94891 0
M  V30 3660 H 361.833 1.24336 -2.86264 0
M  V30 3661 N 362.134 1.5431 0.320358 0
M  V30 3662 C 363.55 1.45091 0.664889 0
M  V30 3663 C 363.75 0.626382 1.91517 0
M  V30 3664 O 362.806 0.126443 2.52183 0
M  V30 3665 C 364.119 2.88848 0.83591 0
M  V30 3666 C 365.667 2.9877 0.933046 0
M  V30 3667 C 366.142 4.43683 1.13621 0
M  V30 3668 N 367.633 4.47309 1.20287 0
M  V30 3669 C 368.368 5.56595 1.37801 0
M  V30 3670 N 367.864 6.75844 1.52338 0
M  V30 3671 N 369.657 5.44248 1.40535 0
M  V30 3672 H 361.808 2.06398 -0.501374 0
M  V30 3673 H 364.071 0.933963 -0.162534 0
M  V30 3674 H 363.777 3.51698 -0.0116092 0
M  V30 3675 H 363.651 3.35148 1.73078 0
M  V30 3676 H 366.038 2.36045 1.77107 0
M  V30 3677 H 366.119 2.55796 0.0145782 0
M  V30 3678 H 365.763 5.06995 0.303032 0
M  V30 3679 H 365.693 4.84269 2.0686 0
M  V30 3680 H 368.184 3.61388 1.10485 0
M  V30 3681 H 368.497 7.54892 1.65403 0
M  V30 3682 H 366.842 6.78746 1.4943 0
M  V30 3683 H 370.033 4.50038 1.28777 0
M  V30 3684 H 370.206 6.29473 1.53842 0
M  V30 3685 N 363.613 -0.582584 1.46437 0
M  V30 3686 C 364.838 -1.37168 1.55563 0
M  V30 3687 C 365.263 -1.87061 0.19743 0
M  V30 3688 O 364.621 -1.61572 -0.822451 0
M  V30 3689 C 364.669 -2.53511 2.56446 0
M  V30 3690 O 363.773 -3.54953 2.09958 0
M  V30 3691 H 363.114 -0.408494 0.523477 0
M  V30 3692 H 365.644 -0.706646 1.9201 0
M  V30 3693 H 365.654 -3.00426 2.76058 0
M  V30 3694 H 364.329 -2.16549 3.55076 0
M  V30 3695 H 362.906 -3.14516 2.00334 0
M  V30 3696 N 365.091 -1.34144 -0.827227 0
M  V30 3697 C 366.339 -1.26009 -1.58007 0
M  V30 3698 C 366.66 0.170971 -1.94249 0
M  V30 3699 O 365.93 1.10256 -1.61927 0
M  V30 3700 H 364.51 -0.463414 -0.585881 0
M  V30 3701 H 367.172 -1.68005 -0.987951 0
M  V30 3702 H 366.268 -1.86187 -2.50481 0
M  V30 3703 N 366.569 1.04691 -1.17803 0
M  V30 3704 C 367.846 1.7472 -0.879328 0
M  V30 3705 C 368.226 2.01812 0.619271 0
M  V30 3706 O 367.574 1.65824 1.57209 0
M  V30 3707 C 367.784 3.03686 -1.71976 0
M  V30 3708 C 369.132 3.77542 -1.94286 0
M  V30 3709 O 370.156 3.13569 -1.68976 0
M  V30 3710 O 369.015 4.92506 -2.36855 0
M  V30 3711 H 366.109 0.760011 -0.326056 0
M  V30 3712 H 368.655 1.10813 -1.28525 0
M  V30 3713 H 367.427 2.79754 -2.73594 0
M  V30 3714 H 367.05 3.75332 -1.31194 0
M  V30 3715 N 368.047 0.979072 1.23499 0
M  V30 3716 C 369.293 0.6578 1.9247 0
M  V30 3717 C 369.648 -0.799746 1.74991 0
M  V30 3718 O 368.941 -1.56922 1.09937 0
M  V30 3719 C 369.135 0.981932 3.43646 0
M  V30 3720 C 368.964 2.46944 3.75831 0
M  V30 3721 C 367.734 3.13119 3.96591 0
M  V30 3722 C 369.932 3.45006 3.81412 0
M  V30 3723 N 367.914 4.51489 4.15969 0
M  V30 3724 C 369.285 4.68778 4.05768 0
M  V30 3725 C 371.34 3.39505 3.64198 0
M  V30 3726 C 370.043 5.87723 4.14697 0
M  V30 3727 C 372.069 4.57814 3.7438 0
M  V30 3728 C 371.431 5.80381 3.99171 0
M  V30 3729 H 367.53 0.291746 0.72554 0
M  V30 3730 H 370.114 1.25626 1.48749 0
M  V30 3731 H 368.285 0.412179 3.86207 0
M  V30 3732 H 370.017 0.618068 3.99953 0
M  V30 3733 H 366.772 2.63619 3.93449 0
M  V30 3734 H 367.196 5.23221 4.29615 0
M  V30 3735 H 371.838 2.45773 3.44029 0
M  V30 3736 H 369.556 6.81874 4.33675 0
M  V30 3737 H 373.142 4.55132 3.62417 0
M  V30 3738 H 372.022 6.70398 4.06861 0
M  V30 3739 N 369.525 -1.3858 0.750561 0
M  V30 3740 C 370.488 -2.28836 0.129152 0
M  V30 3741 C 371.488 -1.47045 -0.650714 0
M  V30 3742 O 372.678 -1.6753 -0.477428 0
M  V30 3743 C 369.81 -3.30751 -0.825622 0
M  V30 3744 H 371.003 -2.85294 0.924516 0
M  V30 3745 H 368.556 -1.47489 0.517376 0
M  V30 3746 H 369.291 -2.79378 -1.64677 0
M  V30 3747 H 369.076 -3.91177 -0.268852 0
M  V30 3748 H 370.566 -3.98249 -1.2565 0
M  V30 3749 N 371.003 -0.499398 -1.49478 0
M  V30 3750 C 372.233 0.0424839 -2.06556 0
M  V30 3751 C 372.641 1.31514 -1.36018 0
M  V30 3752 O 371.984 1.78555 -0.431718 0
M  V30 3753 C 372.046 0.368074 -3.57611 0
M  V30 3754 C 371.71 -0.806631 -4.49825 0
M  V30 3755 C 372.707 -1.69667 -4.91436 0
M  V30 3756 C 370.392 -1.00498 -4.92144 0
M  V30 3757 C 372.386 -2.76923 -5.74101 0
M  V30 3758 C 370.073 -2.08072 -5.74586 0
M  V30 3759 C 371.071 -2.96119 -6.15469 0
M  V30 3760 O 370.759 -4.01836 -6.96264 0
M  V30 3761 H 370.491 -0.0165165 -0.675798 0
M  V30 3762 H 373.045 -0.695497 -1.93267 0
M  V30 3763 H 371.275 1.15963 -3.68903 0
M  V30 3764 H 372.964 0.848381 -3.96935 0
M  V30 3765 H 373.73 -1.55524 -4.59388 0
M  V30 3766 H 369.609 -0.329036 -4.59824 0
M  V30 3767 H 373.153 -3.45676 -6.05932 0
M  V30 3768 H 369.05 -2.22211 -6.06047 0
M  V30 3769 H 369.818 -3.9917 -7.14567 0
M  V30 3770 N 372.481 1.55866 -0.233164 0
M  V30 3771 C 373.897 1.59133 0.121988 0
M  V30 3772 C 374.097 1.25016 1.58029 0
M  V30 3773 O 373.153 0.990922 2.32243 0
M  V30 3774 C 374.466 2.99932 -0.214792 0
M  V30 3775 C 376.014 3.12601 -0.157971 0
M  V30 3776 C 376.489 4.55597 -0.46859 0
M  V30 3777 N 377.98 4.61305 -0.418585 0
M  V30 3778 C 378.715 5.69903 -0.63227 0
M  V30 3779 N 378.211 6.86819 -0.90835 0
M  V30 3780 N 380.004 5.59264 -0.563913 0
M  V30 3781 H 372.155 1.76315 -1.18434 0
M  V30 3782 H 374.418 0.820093 -0.475553 0
M  V30 3783 H 374.124 3.29588 -1.22739 0
M  V30 3784 H 373.998 3.74327 0.464691 0
M  V30 3785 H 376.385 2.82735 0.845283 0
M  V30 3786 H 376.466 2.40511 -0.871102 0
M  V30 3787 H 376.11 4.86182 -1.46934 0
M  V30 3788 H 376.04 5.25928 0.265865 0
M  V30 3789 H 378.531 3.77297 -0.213368 0
M  V30 3790 H 378.844 7.65507 -1.05919 0
M  V30 3791 H 377.189 6.88536 -0.945673 0
M  V30 3792 H 380.38 4.66802 -0.348372 0
M  V30 3793 H 380.553 6.43831 -0.733847 0
M  V30 3794 N 373.959 -0.0401083 1.57549 0
M  V30 3795 C 375.205 -0.734211 1.89043 0
M  V30 3796 C 375.538 -1.75591 0.829535 0
M  V30 3797 O 374.813 -1.93868 -0.156706 0
M  V30 3798 C 375.096 -1.41374 3.31188 0
M  V30 3799 C 374.949 -0.406299 4.47961 0
M  V30 3800 C 376.268 -2.35061 3.72068 0
M  V30 3801 H 373.387 -0.265447 0.687537 0
M  V30 3802 H 376.029 0.00294087 1.9 0
M  V30 3803 H 374.179 -2.04206 3.30503 0
M  V30 3804 H 375.851 0.219255 4.60779 0
M  V30 3805 H 374.094 0.275485 4.32924 0
M  V30 3806 H 374.765 -0.920022 5.44279 0
M  V30 3807 H 377.241 -1.82282 3.74049 0
M  V30 3808 H 376.117 -2.79593 4.72355 0
M  V30 3809 H 376.378 -3.21258 3.0372 0
M  V30 3810 N 375.437 -1.54477 -0.31217 0
M  V30 3811 C 376.685 -1.72884 -1.04668 0
M  V30 3812 C 377.006 -0.511477 -1.88173 0
M  V30 3813 O 376.276 0.474407 -1.90069 0
M  V30 3814 H 374.856 -0.637461 -0.389425 0
M  V30 3815 H 377.518 -1.91807 -0.345852 0
M  V30 3816 H 376.614 -2.61334 -1.70619 0
M  V30 3817 N 376.915 0.57481 -1.46744 0
M  V30 3818 C 377.845 1.69337 -1.60771 0
M  V30 3819 C 378.826 1.63825 -0.457736 0
M  V30 3820 O 380.011 1.8172 -0.684947 0
M  V30 3821 C 377.141 3.0798 -1.60517 0
M  V30 3822 C 376.095 3.28327 -2.74564 0
M  V30 3823 C 375.421 4.67578 -2.59373 0
M  V30 3824 C 376.721 3.15398 -4.16319 0
M  V30 3825 H 378.415 1.57853 -2.54407 0
M  V30 3826 H 375.961 0.75799 -1.22436 0
M  V30 3827 H 377.914 3.86061 -1.68923 0
M  V30 3828 H 376.638 3.20381 -0.634305 0
M  V30 3829 H 375.297 2.52649 -2.65639 0
M  V30 3830 H 374.945 4.76755 -1.60353 0
M  V30 3831 H 374.645 4.82144 -3.35873 0
M  V30 3832 H 376.169 5.47817 -2.69682 0
M  V30 3833 H 377.583 3.83315 -4.26313 0
M  V30 3834 H 375.98 3.41482 -4.93468 0
M  V30 3835 H 377.05 2.12372 -4.3592 0
M  V30 3836 N 378.394 1.34581 0.820102 0
M  V30 3837 C 379.805 1.24298 1.39309 0
M  V30 3838 C 380.156 -0.130351 1.95767 0
M  V30 3839 O 379.281 -1.0308 1.90272 0
M  V30 3840 C 379.876 2.25054 2.53251 0
M  V30 3841 C 378.435 2.18552 3.0645 0
M  V30 3842 C 377.582 2.11503 1.79337 0
M  V30 3843 H 380.533 1.45906 0.624262 0
M  V30 3844 H 380.554 1.86917 3.31425 0
M  V30 3845 H 380.066 3.24996 2.1213 0
M  V30 3846 H 378.167 1.21976 3.52069 0
M  V30 3847 H 378.28 3.0993 3.65349 0
M  V30 3848 H 376.644 1.57268 2.00347 0
M  V30 3849 H 377.427 3.13284 1.40386 0
M  V30 3850 N 379.872 -1.04064 1.18357 0
M  V30 3851 C 381.12 -1.76915 0.977013 0
M  V30 3852 C 381.441 -1.88624 -0.494577 0
M  V30 3853 O 380.711 -1.41125 -1.3587 0
M  V30 3854 H 379.291 -0.65535 0.358504 0
M  V30 3855 H 381.953 -1.25592 1.49039 0
M  V30 3856 H 381.049 -2.78178 1.41504 0
M  V30 3857 N 381.35 -0.985608 -1.22978 0
M  V30 3858 C 382.297 -0.529825 -2.24636 0
M  V30 3859 C 383.267 0.434028 -1.60329 0
M  V30 3860 O 384.452 0.340414 -1.87739 0
M  V30 3861 C 381.592 0.156533 -3.44745 0
M  V30 3862 C 380.705 -0.848197 -4.23591 0
M  V30 3863 C 379.84 -0.136109 -5.31026 0
M  V30 3864 C 378.879 -1.1297 -6.01585 0
M  V30 3865 N 378.016 -0.446415 -7.00679 0
M  V30 3866 H 382.856 -1.40148 -2.62988 0
M  V30 3867 H 380.393 -0.702168 -1.29259 0
M  V30 3868 H 382.351 0.571324 -4.1327 0
M  V30 3869 H 380.981 0.992025 -3.07179 0
M  V30 3870 H 380.033 -1.38135 -3.54433 0
M  V30 3871 H 381.345 -1.60512 -4.72268 0
M  V30 3872 H 380.499 0.335784 -6.0577 0
M  V30 3873 H 379.238 0.653373 -4.83304 0
M  V30 3874 H 378.243 -1.6123 -5.25628 0
M  V30 3875 H 379.468 -1.91993 -6.51395 0
M  V30 3876 H 377.414 0.323763 -6.55201 0
M  V30 3877 H 377.331 -1.1419 -7.47326 0
M  V30 3878 H 378.599 0.00291697 -7.795 0
M  V30 3879 N 382.828 1.3818 -0.7579 0
M  V30 3880 C 384.053 2.04827 -0.325679 0
M  V30 3881 C 384.478 1.56788 1.03919 0
M  V30 3882 O 383.836 0.721811 1.66312 0
M  V30 3883 C 383.884 3.58774 -0.362447 0
M  V30 3884 O 382.988 4.07372 0.642033 0
M  V30 3885 H 382.329 0.64833 -0.143402 0
M  V30 3886 H 384.859 1.7677 -1.03023 0
M  V30 3887 H 384.869 4.07434 -0.214844 0
M  V30 3888 H 383.544 3.93096 -1.35824 0
M  V30 3889 H 382.121 3.70068 0.458688 0
M  V30 3890 N 384.306 0.507319 1.49211 0
M  V30 3891 C 385.554 -0.0348839 2.0207 0
M  V30 3892 C 385.875 -1.36898 1.38866 0
M  V30 3893 O 385.145 -1.88133 0.546151 0
M  V30 3894 H 383.725 -0.0158812 0.746831 0
M  V30 3895 H 386.387 0.665998 1.83168 0
M  V30 3896 H 385.483 -0.159917 3.1169 0
M  V30 3897 N 385.784 -1.5574 0.241426 0
M  V30 3898 C 387.03 -1.99104 -0.385406 0
M  V30 3899 C 387.363 -1.1293 -1.57988 0
M  V30 3900 O 386.638 -0.191449 -1.93555 0
M  V30 3901 C 386.921 -3.51087 -0.800616 0
M  V30 3902 C 386.774 -4.48028 0.398874 0
M  V30 3903 C 388.093 -4.08015 -1.64959 0
M  V30 3904 H 385.212 -0.723848 -0.138614 0
M  V30 3905 H 387.854 -1.86903 0.341642 0
M  V30 3906 H 386.004 -3.61615 -1.4201 0
M  V30 3907 H 387.676 -4.49487 1.03726 0
M  V30 3908 H 385.919 -4.21077 1.04293 0
M  V30 3909 H 386.59 -5.51962 0.0651056 0
M  V30 3910 H 389.066 -4.00555 -1.12672 0
M  V30 3911 H 387.942 -5.14635 -1.90898 0
M  V30 3912 H 388.203 -3.56131 -2.61961 0
M  V30 3913 N 387.262 0.0317525 -1.57568 0
M  V30 3914 C 388.51 0.721676 -1.88776 0
M  V30 3915 C 388.831 1.76039 -0.838772 0
M  V30 3916 O 388.101 1.95482 0.127935 0
M  V30 3917 H 386.681 0.269534 -0.696678 0
M  V30 3918 H 389.343 -0.00165879 -1.949 0
M  V30 3919 H 388.439 1.21293 -2.87566 0
M  V30 3920 N 388.74 1.54641 0.303973 0
M  V30 3921 C 389.988 1.73437 1.0375 0
M  V30 3922 C 390.309 0.521449 1.87899 0
M  V30 3923 O 389.579 -0.46432 1.90318 0
M  V30 3924 H 388.159 0.639518 0.386039 0
M  V30 3925 H 390.821 1.91988 0.335675 0
M  V30 3926 H 389.917 2.62235 1.69231 0
M  V30 3927 N 390.218 -0.567019 1.47046 0
M  V30 3928 C 391.466 -1.322 1.52864 0
M  V30 3929 C 391.787 -1.94088 0.188388 0
M  V30 3930 O 391.057 -1.7941 -0.786693 0
M  V30 3931 H 389.637 -0.490894 0.563056 0
M  V30 3932 H 392.299 -0.662879 1.83281 0
M  V30 3933 H 391.395 -2.12062 2.2899 0
M  V30 3934 N 391.696 -1.35014 -0.812953 0
M  V30 3935 C 392.945 -1.27269 -1.56479 0
M  V30 3936 C 393.258 0.152771 -1.95002 0
M  V30 3937 O 394.464 0.352451 -2.69203 0
M  V30 3938 C 392.92 -2.23159 -2.82362 0
M  V30 3939 C 392.528 -3.71016 -2.511 0
M  V30 3940 C 394.272 -2.24342 -3.60376 0
M  V30 3941 C 392.179 -4.58746 -3.73237 0
M  V30 3942 H 391.109 -0.472829 -0.587324 0
M  V30 3943 H 393.76 -1.6024 -0.894171 0
M  V30 3944 H 392.142 -1.83151 -3.51101 0
M  V30 3945 H 393.316 -4.1962 -1.90409 0
M  V30 3946 H 391.631 -3.72378 -1.86343 0
M  V30 3947 H 394.228 -2.87107 -4.51081 0
M  V30 3948 H 394.571 -1.24542 -3.97234 0
M  V30 3949 H 395.104 -2.62846 -2.98591 0
M  V30 3950 H 391.843 -5.59521 -3.41492 0
M  V30 3951 H 391.363 -4.14871 -4.33176 0
M  V30 3952 H 393.042 -4.73852 -4.40537 0
M  V30 3953 N 393.175 1.03435 -1.18907 0
M  V30 3954 C 394.105 2.13503 -0.945448 0
M  V30 3955 C 395.086 1.69682 0.119189 0
M  V30 3956 O 396.271 1.94169 -0.034707 0
M  V30 3957 C 393.401 3.44004 -0.477316 0
M  V30 3958 C 392.355 4.0148 -1.48316 0
M  V30 3959 C 391.681 5.27537 -0.872311 0
M  V30 3960 C 392.981 4.36921 -2.86177 0
M  V30 3961 H 394.675 2.34141 -1.86597 0
M  V30 3962 H 392.221 1.12523 -0.898584 0
M  V30 3963 H 394.174 4.20372 -0.294204 0
M  V30 3964 H 392.898 3.23072 0.478786 0
M  V30 3965 H 391.557 3.27201 -1.65332 0
M  V30 3966 H 391.205 5.02917 0.0911752 0
M  V30 3967 H 390.905 5.66954 -1.54393 0
M  V30 3968 H 392.429 6.06576 -0.699871 0
M  V30 3969 H 393.843 5.04248 -2.72776 0
M  V30 3970 H 392.24 4.87405 -3.50081 0
M  V30 3971 H 393.31 3.46466 -3.39248 0
M  V30 3972 N 394.653 0.992116 1.22453 0
M  V30 3973 C 395.616 0.546883 2.2258 0
M  V30 3974 C 396.616 -0.369829 1.56489 0
M  V30 3975 O 397.806 -0.161896 1.73446 0
M  V30 3976 C 394.938 -0.204659 3.40285 0
M  V30 3977 H 396.131 1.43234 2.63484 0
M  V30 3978 H 393.684 0.779239 1.3549 0
M  V30 3979 H 394.419 -1.10614 3.04853 0
M  V30 3980 H 394.204 0.45354 3.89468 0
M  V30 3981 H 395.694 -0.504358 4.14543 0
M  V30 3982 N 396.131 -1.37776 0.765217 0
M  V30 3983 C 397.377 -2.00145 0.327072 0
M  V30 3984 C 397.71 -1.60607 -1.09175 0
M  V30 3985 O 396.985 -0.849127 -1.74986 0
M  V30 3986 C 397.268 -3.57109 0.46319 0
M  V30 3987 C 397.121 -4.06576 1.92395 0
M  V30 3988 C 398.44 -4.39888 -0.136473 0
M  V30 3989 H 395.559 -0.727113 0.120316 0
M  V30 3990 H 398.201 -1.63549 0.967039 0
M  V30 3991 H 396.351 -3.88414 -0.0816358 0
M  V30 3992 H 398.023 -3.85864 2.52798 0
M  V30 3993 H 396.266 -3.59011 2.43503 0
M  V30 3994 H 396.937 -5.15639 1.97028 0
M  V30 3995 H 399.413 -4.14803 0.328317 0
M  V30 3996 H 398.289 -5.48899 -0.0110582 0
M  V30 3997 H 398.55 -4.24758 -1.22608 0
M  V30 3998 N 397.609 -0.515225 -1.4894 0
M  V30 3999 C 398.855 0.0242508 -2.02785 0
M  V30 4000 C 399.188 1.35323 -1.39289 0
M  V30 4001 O 398.463 1.87041 -0.533469 0
M  V30 4002 C 398.746 0.16184 -3.59736 0
M  V30 4003 C 398.599 -1.19127 -4.33738 0
M  V30 4004 C 399.918 0.895719 -4.30888 0
M  V30 4005 H 397.037 0.00733914 -0.736963 0
M  V30 4006 H 399.679 -0.669395 -1.77818 0
M  V30 4007 H 397.829 0.752624 -3.8114 0
M  V30 4008 H 399.501 -1.82202 -4.23792 0
M  V30 4009 H 397.744 -1.77695 -3.95736 0
M  V30 4010 H 398.415 -1.04815 -5.41957 0
M  V30 4011 H 400.891 0.394528 -4.14225 0
M  V30 4012 H 399.767 0.960859 -5.40425 0
M  V30 4013 H 400.028 1.9427 -3.97129 0
M  V30 4014 N 399.087 1.5561 -0.249682 0
M  V30 4015 C 400.498 1.84979 0.252949 0
M  V30 4016 C 400.849 1.17153 1.57384 0
M  V30 4017 O 399.974 0.450884 2.11651 0
M  V30 4018 C 400.569 3.35584 0.465732 0
M  V30 4019 C 399.128 3.65169 0.912624 0
M  V30 4020 C 398.275 2.77299 -0.00859085 0
M  V30 4021 H 401.226 1.51513 -0.47217 0
M  V30 4022 H 401.247 3.57313 1.30795 0
M  V30 4023 H 400.759 3.8492 -0.49579 0
M  V30 4024 H 398.86 3.21312 1.88652 0
M  V30 4025 H 398.973 4.72912 0.767559 0
M  V30 4026 H 397.337 2.49678 0.50327 0
M  V30 4027 H 398.12 3.29442 -0.965537 0
M  V30 4028 N 400.565 -0.0233959 1.57583 0
M  V30 4029 C 401.813 -0.711654 1.89156 0
M  V30 4030 C 402.134 -1.75591 0.848096 0
M  V30 4031 O 401.404 -1.95547 -0.117566 0
M  V30 4032 H 399.984 -0.265835 0.698098 0
M  V30 4033 H 402.646 0.0119948 1.94896 0
M  V30 4034 H 401.742 -1.19766 2.88206 0
M  V30 4035 N 402.043 -1.548 -0.295768 0
M  V30 4036 C 403.289 -1.74588 -1.03184 0
M  V30 4037 C 403.622 -0.532962 -1.86744 0
M  V30 4038 O 402.897 0.469872 -1.88739 0
M  V30 4039 C 403.18 -3.03791 -1.93347 0
M  V30 4040 C 403.033 -4.35392 -1.12933 0
M  V30 4041 C 404.352 -3.28892 -2.92435 0
M  V30 4042 H 401.471 -0.635221 -0.373715 0
M  V30 4043 H 404.113 -1.87519 -0.30606 0
M  V30 4044 H 402.263 -2.92898 -2.55232 0
M  V30 4045 H 403.935 -4.58211 -0.532943 0
M  V30 4046 H 402.178 -4.31642 -0.432168 0
M  V30 4047 H 402.849 -5.22074 -1.79284 0
M  V30 4048 H 405.325 -3.39429 -2.4068 0
M  V30 4049 H 404.201 -4.20603 -3.52682 0
M  V30 4050 H 404.462 -2.47437 -3.6637 0
M  V30 4051 N 403.521 0.559213 -1.47345 0
M  V30 4052 C 404.454 1.68201 -1.5422 0
M  V30 4053 C 405.432 1.57742 -0.394497 0
M  V30 4054 O 406.616 1.78628 -0.60201 0
M  V30 4055 C 403.743 3.0643 -1.44285 0
M  V30 4056 C 402.789 3.3534 -2.63532 0
M  V30 4057 S 403.622 3.24816 -4.25741 0
M  V30 4058 C 404.778 4.65542 -4.18355 0
M  V30 4059 H 405.011 1.62114 -2.49211 0
M  V30 4060 H 402.544 0.739871 -1.35519 0
M  V30 4061 H 404.502 3.86164 -1.3924 0
M  V30 4062 H 403.163 3.09984 -0.506816 0
M  V30 4063 H 402.356 4.36107 -2.52639 0
M  V30 4064 H 401.958 2.63221 -2.65689 0
M  V30 4065 H 404.25 5.56449 -3.86485 0
M  V30 4066 H 405.193 4.81493 -5.19202 0
M  V30 4067 H 405.601 4.43495 -3.49246 0
M  V30 4068 N 404.999 1.35443 0.805782 0
M  V30 4069 C 406.247 1.28507 1.55982 0
M  V30 4070 C 406.568 -0.140046 1.94496 0
M  V30 4071 O 405.838 -1.07666 1.63661 0
M  V30 4072 H 404.418 0.472676 0.578434 0
M  V30 4073 H 407.08 1.69555 0.961098 0
M  V30 4074 H 406.176 1.90148 2.47488 0
M  V30 4075 N 406.477 -1.02803 1.19454 0
M  V30 4076 C 407.726 -1.7562 0.991996 0
M  V30 4077 C 408.039 -1.89672 -0.477901 0
M  V30 4078 O 409.245 -2.59468 -0.799287 0
M  V30 4079 C 407.701 -3.15812 1.72601 0
M  V30 4080 C 407.309 -3.0981 3.23607 0
M  V30 4081 C 409.053 -3.92918 1.60674 0
M  V30 4082 C 406.96 -4.44939 3.89594 0
M  V30 4083 H 405.89 -0.658352 0.367543 0
M  V30 4084 H 408.541 -1.15044 1.42959 0
M  V30 4085 H 406.923 -3.7686 1.21624 0
M  V30 4086 H 408.097 -2.58138 3.81709 0
M  V30 4087 H 406.412 -2.46201 3.35819 0
M  V30 4088 H 409.009 -4.9287 2.07323 0
M  V30 4089 H 409.352 -4.12502 0.561025 0
M  V30 4090 H 409.885 -3.38472 2.09001 0
M  V30 4091 H 406.624 -4.30559 4.94267 0
M  V30 4092 H 406.144 -4.96664 3.36281 0
M  V30 4093 H 407.823 -5.1382 3.93189 0
M  V30 4094 N 407.956 -0.998596 -1.21925 0
M  V30 4095 C 408.919 -0.558679 -2.22287 0
M  V30 4096 C 409.919 0.361525 -1.56683 0
M  V30 4097 O 411.109 0.152695 -1.73529 0
M  V30 4098 C 408.241 0.18661 -3.40389 0
M  V30 4099 H 409.434 -1.4463 -2.62721 0
M  V30 4100 H 406.987 -0.786413 -1.35075 0
M  V30 4101 H 407.722 1.08996 -3.05435 0
M  V30 4102 H 407.507 -0.474188 -3.89222 0
M  V30 4103 H 408.997 0.482367 -4.14805 0
M  V30 4104 N 409.434 1.37368 -0.772513 0
M  V30 4105 C 410.397 2.28601 -0.165541 0
M  V30 4106 C 411.397 1.48062 0.627238 0
M  V30 4107 O 412.587 1.68268 0.450715 0
M  V30 4108 C 409.719 3.32023 0.772897 0
M  V30 4109 H 410.912 2.83787 -0.969787 0
M  V30 4110 H 408.465 1.46647 -0.540775 0
M  V30 4111 H 409.2 2.81962 1.60212 0
M  V30 4112 H 408.985 3.91555 0.206585 0
M  V30 4113 H 410.475 4.00197 1.19298 0
M  V30 4114 N 410.912 0.523116 1.48665 0
M  V30 4115 C 412.159 -0.0134763 2.02496 0
M  V30 4116 C 412.487 -1.3493 1.40086 0
M  V30 4117 O 411.742 -1.88286 0.533567 0
M  V30 4118 C 412.041 -0.191671 3.56886 0
M  V30 4119 C 411.707 1.06893 4.38046 0
M  V30 4120 C 410.369 1.41443 4.59943 0
M  V30 4121 C 412.721 1.90584 4.85106 0
M  V30 4122 C 410.049 2.59594 5.26144 0
M  V30 4123 C 412.401 3.07907 5.52609 0
M  V30 4124 C 411.065 3.42811 5.72745 0
M  V30 4125 H 410.335 -0.00493133 0.740984 0
M  V30 4126 H 412.982 0.687751 1.78724 0
M  V30 4127 H 411.287 -0.97561 3.79459 0
M  V30 4128 H 412.984 -0.621659 3.96152 0
M  V30 4129 H 409.574 0.789848 4.21259 0
M  V30 4130 H 413.758 1.65203 4.67997 0
M  V30 4131 H 409.014 2.86847 5.39934 0
M  V30 4132 H 413.188 3.73066 5.88043 0
M  V30 4133 H 410.815 4.34462 6.23816 0
M  V30 4134 N 412.39 -1.55475 0.257931 0
M  V30 4135 C 413.615 -2.04064 -0.370488 0
M  V30 4136 C 414.04 -1.13565 -1.49948 0
M  V30 4137 O 413.398 -0.130781 -1.80828 0
M  V30 4138 C 413.446 -3.50554 -0.845237 0
M  V30 4139 O 412.55 -3.63173 -1.95394 0
M  V30 4140 H 411.891 -0.659257 -0.0792243 0
M  V30 4141 H 414.421 -2.00903 0.387212 0
M  V30 4142 H 414.431 -3.91588 -1.14555 0
M  V30 4143 H 413.106 -4.15896 -0.0191259 0
M  V30 4144 H 411.683 -3.34039 -1.65748 0
M  V30 4145 N 413.868 0.0150385 -1.57593 0
M  V30 4146 C 415.279 0.559832 -1.78109 0
M  V30 4147 C 415.63 1.74814 -0.890756 0
M  V30 4148 O 414.755 2.16216 -0.0892482 0
M  V30 4149 C 415.35 1.02238 -3.23006 0
M  V30 4150 C 413.909 1.51258 -3.44671 0
M  V30 4151 C 413.056 0.456955 -2.73509 0
M  V30 4152 H 416.007 -0.211169 -1.57289 0
M  V30 4153 H 416.028 1.88912 -3.30292 0
M  V30 4154 H 415.54 0.157302 -3.87781 0
M  V30 4155 H 413.641 2.39905 -2.8509 0
M  V30 4156 H 413.754 1.55042 -4.5332 0
M  V30 4157 H 412.118 0.915196 -2.37689 0
M  V30 4158 H 412.901 -0.398896 -3.40975 0
M  V30 4159 N 415.346 1.54954 0.287554 0
M  V30 4160 C 416.757 1.65732 0.859634 0
M  V30 4161 C 417.108 0.574767 1.87592 0
M  V30 4162 O 416.233 -0.286299 2.14498 0
M  V30 4163 C 416.828 3.00438 1.56597 0
M  V30 4164 C 415.387 3.13292 2.08627 0
M  V30 4165 C 414.534 2.61473 0.923416 0
M  V30 4166 H 417.485 1.5857 0.0642338 0
M  V30 4167 H 417.506 2.92613 2.43224 0
M  V30 4168 H 417.018 3.79207 0.826053 0
M  V30 4169 H 415.119 2.39268 2.85625 0
M  V30 4170 H 415.232 4.19647 2.31157 0
M  V30 4171 H 413.596 2.18264 1.31275 0
M  V30 4172 H 414.379 3.42733 0.197241 0
M  V30 4173 N 416.824 -0.551391 1.4764 0
M  V30 4174 C 417.754 -1.66757 1.63445 0
M  V30 4175 C 418.735 -1.63077 0.483742 0
M  V30 4176 O 419.92 -1.80607 0.71377 0
M  V30 4177 C 417.05 -3.05387 1.65396 0
M  V30 4178 C 416.004 -3.23918 2.79752 0
M  V30 4179 C 415.33 -4.63393 2.66779 0
M  V30 4180 C 416.63 -3.08735 4.21284 0
M  V30 4181 H 418.324 -1.53786 2.56886 0
M  V30 4182 H 415.87 -0.738415 1.23626 0
M  V30 4183 H 417.823 -3.83325 1.75043 0
M  V30 4184 H 416.547 -3.19332 0.685195 0
M  V30 4185 H 415.206 -2.48391 2.69625 0
M  V30 4186 H 414.854 -4.74144 1.67918 0
M  V30 4187 H 414.554 -4.7674 3.43501 0
M  V30 4188 H 416.078 -5.43458 2.78364 0
M  V30 4189 H 417.492 -3.76484 4.32357 0
M  V30 4190 H 415.889 -3.33588 4.98838 0
M  V30 4191 H 416.959 -2.0541 4.39243 0
M  V30 4192 N 418.302 -1.35869 -0.798587 0
M  V30 4193 C 419.579 -1.20145 -1.54352 0
M  V30 4194 C 419.959 0.216161 -2.0999 0
M  V30 4195 O 419.307 1.22068 -1.93162 0
M  V30 4196 C 419.517 -2.27602 -2.64572 0
M  V30 4197 C 420.865 -2.63811 -3.32699 0
M  V30 4198 O 421.889 -2.26576 -2.74849 0
M  V30 4199 O 420.748 -3.27866 -4.37226 0
M  V30 4200 H 417.842 -0.467248 -0.682355 0
M  V30 4201 H 420.388 -1.47574 -0.837859 0
M  V30 4202 H 419.16 -3.2265 -2.21388 0
M  V30 4203 H 418.783 -2.01488 -3.42766 0
M  V30 4204 N 419.78 1.02168 -1.19998 0
M  V30 4205 C 420.69 2.14069 -0.959774 0
M  V30 4206 C 421.706 1.73804 0.082655 0
M  V30 4207 O 422.882 2.01133 -0.103633 0
M  V30 4208 C 419.947 3.42936 -0.509459 0
M  V30 4209 C 419.008 3.97474 -1.62213 0
M  V30 4210 C 418.241 5.2019 -1.19321 0
M  V30 4211 O 418.464 5.70369 -0.0597726 0
M  V30 4212 O 417.398 5.67749 -1.99863 0
M  V30 4213 H 421.224 2.37199 -1.89658 0
M  V30 4214 H 418.809 1.12469 -0.983411 0
M  V30 4215 H 420.691 4.20551 -0.267322 0
M  V30 4216 H 419.366 3.21234 0.398821 0
M  V30 4217 H 418.273 3.21161 -1.9185 0
M  V30 4218 H 419.606 4.23555 -2.50723 0
M  V30 4219 N 421.258 1.00505 1.21394 0
M  V30 4220 C 422.535 0.603277 1.86064 0
M  V30 4221 C 422.915 -0.919095 1.90042 0
M  V30 4222 O 422.263 -1.80607 1.39977 0
M  V30 4223 C 422.473 1.23772 3.26315 0
M  V30 4224 C 423.821 1.34586 4.02705 0
M  V30 4225 O 424.845 1.19304 3.35626 0
M  V30 4226 O 423.704 1.59169 5.22807 0
M  V30 4227 H 420.798 0.206634 0.800769 0
M  V30 4228 H 423.344 1.1017 1.29076 0
M  V30 4229 H 422.116 2.27848 3.18121 0
M  V30 4230 H 421.739 0.725648 3.90922 0
M  V30 4231 N 422.737 -1.36956 0.779787 0
M  V30 4232 C 423.985 -1.99097 0.347079 0
M  V30 4233 C 424.306 -1.62206 -1.08232 0
M  V30 4234 O 423.576 -0.891373 -1.74446 0
M  V30 4235 H 422.156 -0.736409 0.125342 0
M  V30 4236 H 424.818 -1.67308 0.999696 0
M  V30 4237 H 423.914 -3.09107 0.431162 0
M  V30 4238 N 424.215 -0.530993 -1.48385 0
M  V30 4239 C 425.163 0.244595 -2.3131 0
M  V30 4240 C 426.157 0.93451 -1.41291 0
M  V30 4241 O 427.363 0.85878 -1.58193 0
M  V30 4242 H 423.738 0.0977472 -0.74562 0
M  V30 4243 H 425.709 -0.474369 -2.94605 0
M  V30 4244 C 424.458 1.2779 -3.23365 0
M  V30 4245 H 423.781 0.756439 -3.92579 0
M  V30 4246 H 425.221 1.79198 -3.84271 0
M  V30 4247 C 423.68 2.31205 -2.45042 0
M  V30 4248 O 424.21 3.37661 -2.17596 0
M  V30 4249 N 422.416 2.04446 -2.0652 0
M  V30 4250 H 421.963 1.17891 -2.2904 0
M  V30 4251 H 421.921 2.73861 -1.54427 0
M  V30 4252 N 425.693 1.55336 -0.266172 0
M  V30 4253 C 426.918 2.04258 0.359661 0
M  V30 4254 C 427.343 1.14359 1.49344 0
M  V30 4255 O 426.701 0.140369 1.80756 0
M  V30 4256 C 426.749 3.50997 0.826635 0
M  V30 4257 O 425.853 3.64204 1.93466 0
M  V30 4258 H 425.194 0.659668 0.075727 0
M  V30 4259 H 427.724 2.00694 -0.39786 0
M  V30 4260 H 427.734 3.9219 1.12477 0
M  V30 4261 H 426.409 4.159 -0.00293032 0
M  V30 4262 H 424.986 3.34913 1.63974 0
M  V30 4263 N 427.171 -0.0066808 1.57599 0
M  V30 4264 C 428.417 -0.693947 1.90558 0
M  V30 4265 C 428.75 -1.73792 0.866594 0
M  V30 4266 O 428.025 -1.94156 -0.115548 0
M  V30 4267 C 428.308 -1.34317 3.34112 0
M  V30 4268 C 428.161 -0.311189 4.48722 0
M  V30 4269 C 429.48 -2.27116 3.7697 0
M  V30 4270 H 426.599 -0.250803 0.693013 0
M  V30 4271 H 429.241 0.043242 1.89951 0
M  V30 4272 H 427.391 -1.9715 3.3476 0
M  V30 4273 H 429.063 0.316944 4.6021 0
M  V30 4274 H 427.306 0.367253 4.32243 0
M  V30 4275 H 427.977 -0.804366 5.46108 0
M  V30 4276 H 430.453 -1.74306 3.77831 0
M  V30 4277 H 429.329 -2.69511 4.78179 0
M  V30 4278 H 429.59 -3.14743 3.10466 0
M  V30 4279 N 428.649 -1.55105 -0.279332 0
M  V30 4280 C 430.065 -1.46803 -0.626187 0
M  V30 4281 C 430.265 -0.676939 -1.89789 0
M  V30 4282 O 429.321 -0.19326 -2.51759 0
M  V30 4283 C 430.634 -2.90962 -0.759034 0
M  V30 4284 C 432.182 -3.01138 -0.853504 0
M  V30 4285 C 432.657 -4.46539 -1.01818 0
M  V30 4286 N 434.148 -4.50341 -1.08386 0
M  V30 4287 C 434.883 -5.60053 -1.22996 0
M  V30 4288 N 434.379 -6.79645 -1.34366 0
M  V30 4289 N 436.172 -5.47783 -1.26056 0
M  V30 4290 H 428.323 -2.04996 0.555921 0
M  V30 4291 H 430.586 -0.929325 0.187239 0
M  V30 4292 H 430.292 -3.51544 0.104852 0
M  V30 4293 H 430.166 -3.39619 -1.64131 0
M  V30 4294 H 432.553 -2.40658 -1.70786 0
M  V30 4295 H 432.634 -2.55745 0.0532466 0
M  V30 4296 H 432.278 -5.0762 -0.168504 0
M  V30 4297 H 432.208 -4.89583 -1.93948 0
M  V30 4298 H 434.699 -3.64191 -1.00864 0
M  V30 4299 H 435.012 -7.59012 -1.4533 0
M  V30 4300 H 433.357 -6.82469 -1.31382 0
M  V30 4301 H 436.548 -4.53294 -1.168 0
M  V30 4302 H 436.721 -6.33331 -1.37098 0
M  V30 4303 N 430.127 0.543554 -1.4793 0
M  V30 4304 C 431.375 1.29752 -1.54948 0
M  V30 4305 C 431.696 1.93764 -0.219242 0
M  V30 4306 O 430.966 1.80639 0.75805 0
M  V30 4307 H 429.546 0.481874 -0.570795 0
M  V30 4308 H 432.208 0.633636 -1.84312 0
M  V30 4309 H 431.304 2.08392 -2.32334 0
M  V30 4310 N 431.605 1.3629 0.791371 0
M  V30 4311 C 432.537 1.26321 1.91248 0
M  V30 4312 C 433.55 0.18313 1.61767 0
M  V30 4313 O 434.739 0.437682 1.73051 0
M  V30 4314 C 431.839 0.925901 3.26007 0
M  V30 4315 C 431.012 2.10746 3.83281 0
M  V30 4316 C 430.071 1.74352 4.96475 0
M  V30 4317 O 429.097 2.46416 5.13096 0
M  V30 4318 N 430.299 0.676058 5.7655 0
M  V30 4319 H 433.064 2.22915 2.00323 0
M  V30 4320 H 430.625 1.29659 0.969546 0
M  V30 4321 H 432.617 0.663636 3.99222 0
M  V30 4322 H 431.187 0.0491581 3.12561 0
M  V30 4323 H 430.407 2.53264 3.02077 0
M  V30 4324 H 431.695 2.8969 4.18279 0
M  V30 4325 H 431.093 0.0776467 5.65647 0
M  V30 4326 H 429.65 0.473612 6.50077 0
M  V30 4327 N 433.083 -1.0153 1.20538 0
M  V30 4328 C 434.03 -2.10098 0.955383 0
M  V30 4329 C 435 -1.65702 -0.114878 0
M  V30 4330 O 436.185 -1.90776 0.0301118 0
M  V30 4331 C 433.325 -3.41236 0.514969 0
M  V30 4332 C 432.438 -3.99102 1.65353 0
M  V30 4333 C 431.573 -5.18306 1.16329 0
M  V30 4334 C 430.612 -5.68258 2.27485 0
M  V30 4335 N 429.749 -6.78722 1.7967 0
M  V30 4336 H 434.589 -2.30818 1.88486 0
M  V30 4337 H 432.126 -1.13189 0.939499 0
M  V30 4338 H 434.084 -4.16504 0.240935 0
M  V30 4339 H 432.714 -3.20585 -0.377512 0
M  V30 4340 H 431.766 -3.20918 2.04245 0
M  V30 4341 H 433.078 -4.32177 2.49047 0
M  V30 4342 H 432.232 -6.00782 0.845302 0
M  V30 4343 H 430.971 -4.86799 0.296254 0
M  V30 4344 H 429.976 -4.84385 2.60099 0
M  V30 4345 H 431.201 -6.01798 3.14667 0
M  V30 4346 H 429.147 -6.49042 0.95295 0
M  V30 4347 H 429.064 -7.10996 2.56944 0
M  V30 4348 H 430.332 -7.64759 1.50875 0
M  V30 4349 N 434.561 -1.01147 -1.20859 0
M  V30 4350 C 435.494 -0.522108 -2.22147 0
M  V30 4351 C 436.472 0.427686 -1.56874 0
M  V30 4352 O 437.656 0.34889 -1.85243 0
M  V30 4353 C 434.783 0.240819 -3.37843 0
M  V30 4354 C 433.829 -0.657752 -4.21398 0
M  V30 4355 S 434.662 -2.12393 -4.91578 0
M  V30 4356 C 435.818 -1.37102 -6.10699 0
M  V30 4357 H 436.051 -1.38035 -2.63313 0
M  V30 4358 H 433.584 -0.819941 -1.30829 0
M  V30 4359 H 435.542 0.674908 -4.04914 0
M  V30 4360 H 434.203 1.07457 -2.95147 0
M  V30 4361 H 433.396 -0.0697456 -5.03952 0
M  V30 4362 H 432.998 -1.0294 -3.59555 0
M  V30 4363 H 435.29 -0.648315 -6.74391 0
M  V30 4364 H 436.233 -2.17252 -6.73949 0
M  V30 4365 H 436.641 -0.876154 -5.57659 0
M  V30 4366 N 436.039 1.36541 -0.78704 0
M  V30 4367 C 437.285 1.99599 -0.358872 0
M  V30 4368 C 437.618 1.62323 1.06606 0
M  V30 4369 O 436.893 0.876858 1.73613 0
M  V30 4370 C 437.176 3.56327 -0.519944 0
M  V30 4371 C 437.029 4.03464 -1.98839 0
M  V30 4372 C 438.348 4.4005 0.0664737 0
M  V30 4373 H 435.467 0.725107 -0.131869 0
M  V30 4374 H 438.109 1.6199 -0.992936 0
M  V30 4375 H 436.259 3.88495 0.0198321 0
M  V30 4376 H 437.931 3.81793 -2.58905 0
M  V30 4377 H 436.174 3.55092 -2.49183 0
M  V30 4378 H 436.845 5.12439 -2.05207 0
M  V30 4379 H 439.321 4.14228 -0.394267 0
M  V30 4380 H 438.197 5.48847 -0.0762682 0
M  V30 4381 H 438.458 4.26655 1.15835 0
M  V30 4382 N 437.518 0.538854 1.48102 0
M  V30 4383 C 438.481 -0.208395 2.28251 0
M  V30 4384 C 439.481 -0.859656 1.35892 0
M  V30 4385 O 440.671 -0.71834 1.58699 0
M  V30 4386 C 437.803 -1.30252 3.15035 0
M  V30 4387 H 438.996 0.495407 2.9578 0
M  V30 4388 H 436.549 0.295112 1.53489 0
M  V30 4389 H 437.284 -2.0393 2.52157 0
M  V30 4390 H 437.069 -0.840551 3.82985 0
M  V30 4391 H 438.559 -1.82787 3.75471 0
M  V30 4392 N 438.996 -1.55193 0.274407 0
M  V30 4393 C 440.221 -2.04446 -0.348824 0
M  V30 4394 C 440.646 -1.15149 -1.48735 0
M  V30 4395 O 440.004 -0.149952 -1.80679 0
M  V30 4396 C 440.052 -3.51431 -0.808009 0
M  V30 4397 O 439.156 -3.65225 -1.91531 0
M  V30 4398 H 438.497 -0.66006 -0.0722276 0
M  V30 4399 H 441.027 -2.00481 0.408498 0
M  V30 4400 H 441.037 -3.92781 -1.10395 0
M  V30 4401 H 439.712 -4.15892 0.0249865 0
M  V30 4402 H 438.289 -3.35778 -1.62196 0
M  V30 4403 N 440.474 -0.00167713 -1.576 0
M  V30 4404 C 441.72 0.683832 -1.90923 0
M  V30 4405 C 442.053 1.7333 -0.875799 0
M  V30 4406 O 441.328 1.94215 0.10525 0
M  V30 4407 C 441.611 1.32543 -3.3482 0
M  V30 4408 C 441.464 0.287387 -4.48881 0
M  V30 4409 C 442.783 2.25114 -3.78169 0
M  V30 4410 H 439.902 0.247125 -0.694333 0
M  V30 4411 H 442.544 -0.0533149 -1.89925 0
M  V30 4412 H 440.694 1.95372 -3.35801 0
M  V30 4413 H 442.366 -0.341346 -4.60035 0
M  V30 4414 H 440.609 -0.39017 -4.32042 0
M  V30 4415 H 441.28 0.775393 -5.46527 0
M  V30 4416 H 443.756 1.723 -3.7875 0
M  V30 4417 H 442.632 2.66971 -4.79602 0
M  V30 4418 H 442.893 3.13092 -3.12131 0
M  V30 4419 N 441.952 1.55251 0.271103 0
M  V30 4420 C 442.915 1.87484 1.31842 0
M  V30 4421 C 443.915 0.749545 1.42262 0
M  V30 4422 O 445.105 1.01771 1.4138 0
M  V30 4423 C 442.237 2.0818 2.69951 0
M  V30 4424 H 443.43 2.81108 1.0449 0
M  V30 4425 H 440.983 1.47771 0.509258 0
M  V30 4426 H 441.718 1.16944 3.02481 0
M  V30 4427 H 441.503 2.90114 2.63774 0
M  V30 4428 H 442.993 2.34385 3.4562 0
M  V30 4429 N 443.43 -0.535701 1.48216 0
M  V30 4430 C 444.377 -1.64083 1.62312 0
M  V30 4431 C 445.347 -1.59448 0.465365 0
M  V30 4432 O 446.532 -1.77959 0.688135 0
M  V30 4433 C 443.672 -3.0236 1.66349 0
M  V30 4434 C 442.785 -3.17273 2.93193 0
M  V30 4435 C 441.92 -4.46075 2.88427 0
M  V30 4436 C 440.959 -4.54496 4.1 0
M  V30 4437 N 440.096 -5.7468 4.03345 0
M  V30 4438 H 444.936 -1.51374 2.5669 0
M  V30 4439 H 442.473 -0.737059 1.27302 0
M  V30 4440 H 444.431 -3.82461 1.66672 0
M  V30 4441 H 443.061 -3.13854 0.754672 0
M  V30 4442 H 442.113 -2.30462 3.02641 0
M  V30 4443 H 443.425 -3.19357 3.83162 0
M  V30 4444 H 442.579 -5.3446 2.87119 0
M  V30 4445 H 441.318 -4.46504 1.96177 0
M  V30 4446 H 440.323 -3.64519 4.11589 0
M  V30 4447 H 441.548 -4.5581 5.03402 0
M  V30 4448 H 439.494 -5.76017 3.13912 0
M  V30 4449 H 439.411 -5.78234 4.87013 0
M  V30 4450 H 440.679 -6.65367 4.06087 0
M  V30 4451 N 444.908 -1.36708 -0.784132 0
M  V30 4452 C 445.84 -1.27333 -1.90575 0
M  V30 4453 C 446.853 -0.191706 -1.61667 0
M  V30 4454 O 448.042 -0.446854 -1.72816 0
M  V30 4455 C 445.142 -0.943177 -3.25511 0
M  V30 4456 C 444.315 -2.12776 -3.82158 0
M  V30 4457 C 443.374 -1.76983 -4.95544 0
M  V30 4458 O 442.4 -2.49134 -5.11782 0
M  V30 4459 N 443.602 -0.706624 -5.76183 0
M  V30 4460 H 446.367 -2.23974 -1.99138 0
M  V30 4461 H 443.928 -1.30171 -0.962656 0
M  V30 4462 H 445.92 -0.684799 -3.98864 0
M  V30 4463 H 444.49 -0.0657333 -3.12531 0
M  V30 4464 H 443.71 -2.54863 -3.0073 0
M  V30 4465 H 444.998 -2.91904 -4.16737 0
M  V30 4466 H 444.396 -0.107643 -5.65598 0
M  V30 4467 H 442.953 -0.50808 -6.49817 0
M  V30 4468 N 446.386 1.0089 -1.21074 0
M  V30 4469 C 447.316 2.1145 -0.990523 0
M  V30 4470 C 448.297 1.69897 0.0831699 0
M  V30 4471 O 449.482 1.94052 -0.0758853 0
M  V30 4472 C 446.612 3.42914 -0.550177 0
M  V30 4473 C 445.566 3.98244 -1.56799 0
M  V30 4474 C 444.892 5.25568 -0.984013 0
M  V30 4475 C 446.192 4.30752 -2.95381 0
M  V30 4476 H 447.886 2.3013 -1.91521 0
M  V30 4477 H 445.432 1.10592 -0.92225 0
M  V30 4478 H 447.385 4.19653 -0.383305 0
M  V30 4479 H 446.109 3.24014 0.41015 0
M  V30 4480 H 444.768 3.23621 -1.72236 0
M  V30 4481 H 444.416 5.02998 -0.0155216 0
M  V30 4482 H 444.116 5.63551 -1.66384 0
M  V30 4483 H 445.64 6.04955 -0.828378 0
M  V30 4484 H 447.054 4.98349 -2.8341 0
M  V30 4485 H 445.451 4.79869 -3.60341 0
M  V30 4486 H 446.521 3.39192 -3.46521 0
M  V30 4487 N 447.864 1.01787 1.20321 0
M  V30 4488 C 449.112 0.706538 1.89347 0
M  V30 4489 C 449.433 -0.766289 1.79313 0
M  V30 4490 O 448.703 -1.55126 1.19635 0
M  V30 4491 H 447.283 0.258348 0.700903 0
M  V30 4492 H 449.945 1.28974 1.46122 0
M  V30 4493 H 449.041 0.991066 2.95946 0
M  V30 4494 N 449.342 -1.36122 0.79427 0
M  V30 4495 C 450.572 -2.03067 0.380437 0
M  V30 4496 C 450.98 -1.60018 -1.00949 0
M  V30 4497 O 450.323 -0.787425 -1.65968 0
M  V30 4498 C 450.385 -3.57587 0.37034 0
M  V30 4499 C 450.049 -4.23855 1.70867 0
M  V30 4500 C 451.046 -4.46404 2.66496 0
M  V30 4501 C 448.731 -4.61229 1.9893 0
M  V30 4502 C 450.725 -5.05412 3.88378 0
M  V30 4503 C 448.412 -5.19953 3.21079 0
M  V30 4504 C 449.41 -5.41985 4.15621 0
M  V30 4505 O 449.098 -5.99475 5.35616 0
M  V30 4506 H 448.83 -0.658168 0.154243 0
M  V30 4507 H 451.384 -1.7498 1.0757 0
M  V30 4508 H 449.614 -3.84814 -0.381444 0
M  V30 4509 H 451.303 -4.05895 -0.0194894 0
M  V30 4510 H 452.069 -4.17921 2.46103 0
M  V30 4511 H 447.948 -4.43402 1.26158 0
M  V30 4512 H 451.492 -5.22524 4.62185 0
M  V30 4513 H 447.389 -5.47862 3.41347 0
M  V30 4514 H 448.157 -6.17937 5.36745 0
M  V30 4515 N 450.82 -0.546701 -1.47814 0
M  V30 4516 C 451.768 0.220048 -2.31557 0
M  V30 4517 C 452.762 0.919472 -1.42275 0
M  V30 4518 O 453.968 0.841953 -1.59095 0
M  V30 4519 H 450.343 0.0898334 -0.746615 0
M  V30 4520 H 452.314 -0.505589 -2.94086 0
M  V30 4521 C 451.063 1.24353 -3.24702 0
M  V30 4522 H 450.386 0.714758 -3.93359 0
M  V30 4523 H 451.826 1.75112 -3.8615 0
M  V30 4524 C 450.285 2.28593 -2.47481 0
M  V30 4525 O 450.815 3.35334 -2.21165 0
M  V30 4526 N 449.021 2.02244 -2.08676 0
M  V30 4527 H 448.568 1.15455 -2.30278 0
M  V30 4528 H 448.526 2.72207 -1.57323 0
M  V30 4529 N 452.299 1.55045 -0.282633 0
M  V30 4530 C 453.545 2.00056 0.332481 0
M  V30 4531 C 453.878 1.1708 1.54939 0
M  V30 4532 O 453.153 0.2427 1.9298 0
M  V30 4533 C 453.436 3.53086 0.70725 0
M  V30 4534 C 453.289 4.46813 -0.517521 0
M  V30 4535 C 454.608 4.12245 1.54084 0
M  V30 4536 H 451.727 0.727268 0.119373 0
M  V30 4537 H 454.369 1.85932 -0.391076 0
M  V30 4538 H 452.519 3.65253 1.32372 0
M  V30 4539 H 454.191 4.46579 -1.15607 0
M  V30 4540 H 452.434 4.18163 -1.1542 0
M  V30 4541 H 453.105 5.51595 -0.211426 0
M  V30 4542 H 455.581 4.03401 1.02013 0
M  V30 4543 H 454.457 5.19515 1.77186 0
M  V30 4544 H 454.718 3.62951 2.52427 0
M  V30 4545 N 453.777 0.010035 1.57597 0
M  V30 4546 C 455.024 -0.6727 1.91 0
M  V30 4547 C 455.352 -1.73219 0.884614 0
M  V30 4548 O 454.607 -1.95395 -0.109215 0
M  V30 4549 C 454.906 -1.34434 3.31153 0
M  V30 4550 C 454.572 -0.417083 4.48967 0
M  V30 4551 C 453.234 -0.161809 4.80928 0
M  V30 4552 C 455.586 0.220753 5.20732 0
M  V30 4553 C 452.914 0.739426 5.82022 0
M  V30 4554 C 455.266 1.10993 6.22787 0
M  V30 4555 C 453.93 1.37428 6.532 0
M  V30 4556 H 453.2 -0.246158 0.698918 0
M  V30 4557 H 455.847 0.0677145 1.9138 0
M  V30 4558 H 454.152 -2.15905 3.26944 0
M  V30 4559 H 455.849 -1.87883 3.54261 0
M  V30 4560 H 452.439 -0.626217 4.24001 0
M  V30 4561 H 456.623 0.0365643 4.96287 0
M  V30 4562 H 451.879 0.952139 6.03941 0
M  V30 4563 H 456.053 1.61046 6.77523 0
M  V30 4564 H 453.68 2.0743 7.31353 0
M  V30 4565 N 455.255 -1.55392 -0.262866 0
M  V30 4566 C 456.202 -1.88966 -1.32516 0
M  V30 4567 C 457.172 -0.742187 -1.48596 0
M  V30 4568 O 458.357 -0.99439 -1.62839 0
M  V30 4569 C 455.497 -2.17592 -2.67858 0
M  V30 4570 C 454.61 -3.45061 -2.59917 0
M  V30 4571 C 453.745 -3.63336 -3.87505 0
M  V30 4572 C 452.784 -4.84462 -3.74116 0
M  V30 4573 N 451.921 -4.99342 -4.93561 0
M  V30 4574 H 456.761 -2.79566 -1.03184 0
M  V30 4575 H 454.298 -1.38404 -0.498285 0
M  V30 4576 H 456.256 -2.3219 -3.46617 0
M  V30 4577 H 454.886 -1.30215 -2.95371 0
M  V30 4578 H 453.938 -3.38881 -1.72812 0
M  V30 4579 H 455.25 -4.3396 -2.45926 0
M  V30 4580 H 454.404 -3.77807 -4.74707 0
M  V30 4581 H 453.143 -2.72641 -4.04374 0
M  V30 4582 H 452.148 -4.69985 -2.85297 0
M  V30 4583 H 453.373 -5.76603 -3.58757 0
M  V30 4584 H 451.319 -4.1158 -5.10821 0
M  V30 4585 H 451.236 -5.82303 -4.82141 0
M  V30 4586 H 452.504 -5.18208 -5.82306 0
M  V30 4587 N 456.733 0.527833 -1.48498 0
M  V30 4588 C 457.981 1.28101 -1.56316 0
M  V30 4589 C 458.302 1.9352 -0.239781 0
M  V30 4590 O 457.572 1.81433 0.738849 0
M  V30 4591 H 456.152 0.475793 -0.575873 0
M  V30 4592 H 458.814 0.614052 -1.84974 0
M  V30 4593 H 457.91 2.05916 -2.34532 0
M  V30 4594 O 458.25 1.46817 0.672841 0
M  V30 4595 H 458.941 1.41236 1.3256 0
M  V30 END ATOM
M  V30 BEGIN BOND
M  V30 END BOND
M  V30 END CTAB
M  END
$$$$
