drugbank_target|P77541 2-methylisocitrate lyase (DB01727)
 OpenBabel12092119503D

  0  0  0     0  0            999 V3000
M  V30 BEGIN CTAB
M  V30 COUNTS 4520 4555 0 0 0
M  V30 BEGIN ATOM
M  V30 1 H -0.908 1.98254 -0.117106 0
M  V30 2 N 0 1.576 0 0
M  V30 3 C 0.933 2.03868 1.02534 0
M  V30 4 C 1.911 0.928543 1.3348 0
M  V30 5 O 3.095 1.19667 1.45644 0
M  V30 6 C 0.222 2.43627 2.35294 0
M  V30 7 C -0.732 3.65373 2.2001 0
M  V30 8 S 0.101 5.13292 1.52614 0
M  V30 9 C 1.257 5.56322 2.86805 0
M  V30 10 H 1.49 2.90518 0.631377 0
M  V30 11 H -0.977 1.52953 0.210867 0
M  V30 12 H 0.981 2.67203 3.11629 0
M  V30 13 H -0.358 1.57376 2.7183 0
M  V30 14 H -1.165 3.90944 3.18086 0
M  V30 15 H -1.563 3.418 1.51819 0
M  V30 16 H 0.729 5.58782 3.83104 0
M  V30 17 H 1.672 6.56266 2.65933 0
M  V30 18 H 2.08 4.83886 2.90714 0
M  V30 19 N 1.4781 -0.272755 1.55222 0
M  V30 20 C 2.7031 -1.02683 1.80197 0
M  V30 21 C 3.1281 -1.79142 0.573551 0
M  V30 22 O 2.4861 -1.74917 -0.476849 0
M  V30 23 C 2.5341 -1.9609 3.02624 0
M  V30 24 O 1.6381 -3.04863 2.77727 0
M  V30 25 H 0.9791 -0.293557 0.595584 0
M  V30 26 H 3.5091 -0.30159 2.02365 0
M  V30 27 H 3.5191 -2.38039 3.31363 0
M  V30 28 H 2.1941 -1.39851 3.91682 0
M  V30 29 H 0.7711 -2.67228 2.60084 0
M  V30 30 N 2.9562 -1.48159 -0.537278 0
M  V30 31 C 3.8862 -1.65029 -1.6519 0
M  V30 32 C 4.8672 -0.499281 -1.62607 0
M  V30 33 O 6.0522 -0.730972 -1.79918 0
M  V30 34 C 3.1822 -1.68303 -3.03795 0
M  V30 35 C 2.1362 -2.8283 -3.21234 0
M  V30 36 C 1.4622 -2.71189 -4.60826 0
M  V30 37 C 2.7622 -4.24211 -3.04701 0
M  V30 38 H 4.4562 -2.58341 -1.51328 0
M  V30 39 H 2.0022 -1.24325 -0.726585 0
M  V30 40 H 3.9552 -1.78693 -3.81637 0
M  V30 41 H 2.6792 -0.715635 -3.18663 0
M  V30 42 H 1.3382 -2.71983 -2.45807 0
M  V30 43 H 0.9862 -1.72435 -4.7252 0
M  V30 44 H 0.6862 -3.48035 -4.7344 0
M  V30 45 H 2.2102 -2.83537 -5.40777 0
M  V30 46 H 3.6242 -4.3593 -3.72341 0
M  V30 47 H 2.0212 -5.01998 -3.28813 0
M  V30 48 H 3.0912 -4.41184 -2.01209 0
M  V30 49 N 4.4343 0.785586 -1.36625 0
M  V30 50 C 5.3843 1.88822 -1.27789 0
M  V30 51 C 6.3683 1.60014 -0.168579 0
M  V30 52 O 7.5603 1.72381 -0.401737 0
M  V30 53 C 4.6893 3.26092 -1.07327 0
M  V30 54 C 3.7753 3.60897 -2.22743 0
M  V30 55 N 4.1663 3.66982 -3.48077 0
M  V30 56 C 2.4643 3.90981 -2.14593 0
M  V30 57 C 3.1653 3.98137 -4.24101 0
M  V30 58 N 2.1413 4.13319 -3.53084 0
M  V30 59 H 5.9433 1.91759 -2.22723 0
M  V30 60 H 3.4573 0.981311 -1.29399 0
M  V30 61 H 5.4543 4.04954 -0.990842 0
M  V30 62 H 4.1143 3.24428 -0.132977 0
M  V30 63 H 5.1253 3.49531 -3.82163 0
M  V30 64 H 1.8023 3.9722 -1.2854 0
M  V30 65 H 3.1923 4.09737 -5.32509 0
M  V30 66 N 5.9124 1.20967 1.01018 0
M  V30 67 C 7.1374 1.0503 1.78839 0
M  V30 68 C 7.5624 -0.395752 1.8389 0
M  V30 69 O 6.9204 -1.28529 1.27867 0
M  V30 70 C 6.9684 1.64602 3.2084 0
M  V30 71 O 6.0724 0.887988 4.02726 0
M  V30 72 H 5.4134 0.369987 0.551367 0
M  V30 73 H 7.9434 1.60399 1.27018 0
M  V30 74 H 7.9534 1.68607 3.71532 0
M  V30 75 H 6.6284 2.69841 3.16479 0
M  V30 76 H 5.2054 0.922648 3.61305 0
M  V30 77 N 7.3905 -1.2043 1.01659 0
M  V30 78 C 8.8015 -1.71517 0.737482 0
M  V30 79 C 9.1525 -1.81547 -0.743973 0
M  V30 80 O 8.2775 -1.47803 -1.58061 0
M  V30 81 C 8.8725 -3.11515 1.33206 0
M  V30 82 C 7.4315 -3.59912 1.10183 0
M  V30 83 C 6.5785 -2.37116 1.43776 0
M  V30 84 H 9.5295 -1.05444 1.18606 0
M  V30 85 H 9.5505 -3.73575 0.722636 0
M  V30 86 H 9.0625 -3.04182 2.41028 0
M  V30 87 H 7.1635 -3.72577 0.0412756 0
M  V30 88 H 7.2765 -4.44731 1.78188 0
M  V30 89 H 5.6405 -2.39857 0.856778 0
M  V30 90 H 6.4235 -2.32424 2.52654 0
M  V30 91 N 8.8686 -0.792821 -1.36206 0
M  V30 92 C 10.1166 -0.366062 -1.98757 0
M  V30 93 C 10.4376 1.0668 -1.63231 0
M  V30 94 O 9.7076 1.73587 -0.907978 0
M  V30 95 H 8.2876 -0.132364 -0.735179 0
M  V30 96 H 10.9496 -1.01562 -1.66347 0
M  V30 97 H 10.0456 -0.460638 -3.08682 0
M  V30 98 N 10.3467 1.47872 -0.545128 0
M  V30 99 C 11.2937 2.29849 0.2093 0
M  V30 100 C 12.2637 1.38313 0.919707 0
M  V30 101 O 13.4487 1.67277 0.917772 0
M  V30 102 C 10.5887 3.22019 1.24088 0
M  V30 103 C 9.7017 4.2864 0.537778 0
M  V30 104 C 8.8367 5.07973 1.5536 0
M  V30 105 C 7.8757 6.06381 0.8348 0
M  V30 106 N 7.0127 6.78717 1.79688 0
M  V30 107 H 11.8527 2.93845 -0.49591 0
M  V30 108 H 9.3897 1.44848 -0.256389 0
M  V30 109 H 11.3477 3.73868 1.85144 0
M  V30 110 H 9.9777 2.59914 1.91428 0
M  V30 111 H 9.0297 3.7994 -0.187046 0
M  V30 112 H 10.3417 4.98793 -0.0258907 0
M  V30 113 H 9.4957 5.63912 2.23803 0
M  V30 114 H 8.2347 4.37693 2.15118 0
M  V30 115 H 7.2397 5.49631 0.136388 0
M  V30 116 H 8.4647 6.78665 0.24313 0
M  V30 117 H 6.4107 6.11177 2.38326 0
M  V30 118 H 6.3277 7.44998 1.28505 0
M  V30 119 H 7.5957 7.39237 2.47282 0
M  V30 120 N 11.8248 0.280983 1.55075 0
M  V30 121 C 12.7878 -0.590896 2.21452 0
M  V30 122 C 13.7878 -1.07682 1.19421 0
M  V30 123 O 14.9778 -0.97605 1.44288 0
M  V30 124 C 12.1098 -1.81587 2.88511 0
M  V30 125 H 13.3028 -0.0112554 2.99898 0
M  V30 126 H 10.8558 0.0316438 1.56268 0
M  V30 127 H 11.5908 -2.43587 2.14093 0
M  V30 128 H 11.3758 -1.4753 3.63287 0
M  V30 129 H 12.8658 -2.43575 3.39206 0
M  V30 130 N 13.3029 -1.57598 0.00835791 0
M  V30 131 C 14.5499 -1.90928 -0.674732 0
M  V30 132 C 14.8779 -0.88277 -1.73313 0
M  V30 133 O 14.1329 0.111294 -1.95383 0
M  V30 134 C 14.4319 -3.3101 -1.34787 0
M  V30 135 C 14.0979 -4.48922 -0.421861 0
M  V30 136 C 12.7599 -4.8091 -0.166927 0
M  V30 137 C 15.1119 -5.20755 0.215211 0
M  V30 138 C 12.4399 -5.821 0.733232 0
M  V30 139 C 14.7919 -6.22905 1.1033 0
M  V30 140 C 13.4559 -6.53346 1.36733 0
M  V30 141 H 12.7259 -0.698656 -0.246902 0
M  V30 142 H 15.3729 -1.91387 0.0656779 0
M  V30 143 H 13.6779 -3.26714 -2.16253 0
M  V30 144 H 15.3749 -3.54061 -1.8826 0
M  V30 145 H 11.9649 -4.23934 -0.630729 0
M  V30 146 H 16.1489 -4.9629 0.0312829 0
M  V30 147 H 11.4049 -6.04042 0.945712 0
M  V30 148 H 15.5789 -6.77694 1.60325 0
M  V30 149 H 13.2059 -7.31573 2.06652 0
M  V30 150 N 14.781 0.264519 -1.55364 0
M  V30 151 C 16.197 0.61215 -1.47394 0
M  V30 152 C 16.397 1.89134 -0.695018 0
M  V30 153 O 15.453 2.51563 -0.217275 0
M  V30 154 C 16.766 0.731235 -2.91674 0
M  V30 155 C 18.314 0.82473 -3.01939 0
M  V30 156 C 18.789 0.975522 -4.4749 0
M  V30 157 N 20.28 1.04083 -4.51354 0
M  V30 158 C 21.015 1.17646 -5.61201 0
M  V30 159 N 20.511 1.27874 -6.80896 0
M  V30 160 N 22.304 1.20823 -5.48961 0
M  V30 161 H 14.455 -0.575456 -2.04456 0
M  V30 162 H 16.718 -0.196099 -0.927496 0
M  V30 163 H 16.424 -0.138392 -3.51428 0
M  V30 164 H 16.298 1.60883 -3.41169 0
M  V30 165 H 18.685 1.68482 -2.42276 0
M  V30 166 H 18.766 -0.0776479 -2.55682 0
M  V30 167 H 18.41 0.120058 -5.07758 0
M  V30 168 H 18.34 1.89268 -4.91412 0
M  V30 169 H 20.831 0.973846 -3.65136 0
M  V30 170 H 21.144 1.38081 -7.60364 0
M  V30 171 H 19.489 1.24863 -6.83692 0
M  V30 172 H 22.68 1.12469 -4.54388 0
M  V30 173 H 22.853 1.31049 -6.3461 0
M  V30 174 N 16.2591 1.48442 0.529413 0
M  V30 175 C 17.2221 1.62524 1.61612 0
M  V30 176 C 18.2221 0.498509 1.52877 0
M  V30 177 O 19.4121 0.76431 1.56537 0
M  V30 178 C 16.5441 1.59597 3.01233 0
M  V30 179 H 17.7371 2.59423 1.50465 0
M  V30 180 H 15.2901 1.37047 0.751514 0
M  V30 181 H 16.0251 0.641781 3.17886 0
M  V30 182 H 15.8101 2.41397 3.08982 0
M  V30 183 H 17.3001 1.72646 3.80241 0
M  V30 184 N 17.7372 -0.778329 1.37039 0
M  V30 185 C 18.7002 -1.87301 1.32102 0
M  V30 186 C 19.7002 -1.59198 0.226405 0
M  V30 187 O 20.8902 -1.67403 0.481861 0
M  V30 188 C 18.0222 -3.24309 1.05055 0
M  V30 189 H 19.2152 -1.93093 2.29467 0
M  V30 190 H 16.7682 -0.977358 1.21973 0
M  V30 191 H 17.5032 -3.24196 0.0819373 0
M  V30 192 H 17.2882 -3.46098 1.84279 0
M  V30 193 H 18.7782 -4.04382 1.04234 0
M  V30 194 N 19.2153 -1.21501 -1.00376 0
M  V30 195 C 20.1453 -0.999478 -2.11028 0
M  V30 196 C 21.1263 0.0759671 -1.6993 0
M  V30 197 O 22.3113 -0.0841106 -1.94018 0
M  V30 198 C 19.4413 -0.564709 -3.42678 0
M  V30 199 C 18.3953 -1.58486 -3.97576 0
M  V30 200 C 17.7213 -1.00628 -5.25146 0
M  V30 201 C 19.0213 -2.97204 -4.29496 0
M  V30 202 H 20.7153 -1.92495 -2.29317 0
M  V30 203 H 18.2613 -0.92693 -1.102 0
M  V30 204 H 20.2143 -0.401091 -4.19487 0
M  V30 205 H 18.9383 0.396411 -3.24185 0
M  V30 206 H 17.5973 -1.73606 -3.22888 0
M  V30 207 H 17.2453 -0.0368439 -5.02987 0
M  V30 208 H 16.9453 -1.68771 -5.62841 0
M  V30 209 H 18.4693 -0.854015 -6.04598 0
M  V30 210 H 19.8833 -2.8552 -4.97143 0
M  V30 211 H 18.2803 -3.62372 -4.78338 0
M  V30 212 H 19.3503 -3.47956 -3.3772 0
M  V30 213 N 20.6934 1.19889 -1.02296 0
M  V30 214 C 21.9214 1.9339 -0.735399 0
M  V30 215 C 22.3364 1.75148 0.704887 0
M  V30 216 O 21.6934 1.06954 1.47875 0
M  V30 217 C 21.7444 3.45313 -1.06962 0
M  V30 218 O 21.4654 3.62964 -2.45334 0
M  V30 219 C 22.9664 4.35948 -0.804021 0
M  V30 220 H 20.1864 0.61448 -0.269546 0
M  V30 221 H 22.7304 1.522 -1.36585 0
M  V30 222 H 20.8854 3.84359 -0.484455 0
M  V30 223 H 21.2994 4.56886 -2.57595 0
M  V30 224 H 22.7734 5.41174 -1.0879 0
M  V30 225 H 23.2504 4.3842 0.261691 0
M  V30 226 H 23.8564 4.02574 -1.37164 0
M  V30 227 N 22.1715 0.800033 1.35784 0
M  V30 228 C 23.1185 0.203848 2.29898 0
M  V30 229 C 24.0885 -0.658375 1.52495 0
M  V30 230 O 25.2735 -0.604832 1.8096 0
M  V30 231 C 22.4135 -0.64688 3.38983 0
M  V30 232 C 21.5265 0.235054 4.3136 0
M  V30 233 C 20.6615 -0.623054 5.27533 0
M  V30 234 C 19.7005 0.259682 6.11549 0
M  V30 235 N 18.8375 -0.558019 6.99879 0
M  V30 236 H 23.6775 1.01186 2.80295 0
M  V30 237 H 21.2145 0.51053 1.37957 0
M  V30 238 H 23.1725 -1.15521 4.00887 0
M  V30 239 H 21.8025 -1.42021 2.89879 0
M  V30 240 H 20.8545 0.861438 3.70518 0
M  V30 241 H 22.1665 0.914768 4.9034 0
M  V30 242 H 21.3205 -1.19678 5.94779 0
M  V30 243 H 20.0595 -1.33636 4.69034 0
M  V30 244 H 19.0645 0.845726 5.43256 0
M  V30 245 H 20.2895 0.970748 6.72126 0
M  V30 246 H 18.2355 -1.25542 6.43875 0
M  V30 247 H 18.1525 0.0637872 7.55973 0
M  V30 248 H 19.4205 -1.11523 7.71481 0
M  V30 249 N 23.6496 -1.47581 0.552962 0
M  V30 250 C 24.5596 -2.33743 -0.200353 0
M  V30 251 C 25.5756 -1.47928 -0.916151 0
M  V30 252 O 26.7516 -1.80865 -0.885993 0
M  V30 253 C 23.8166 -3.24536 -1.21973 0
M  V30 254 C 22.8776 -4.26238 -0.511819 0
M  V30 255 C 22.1106 -5.12693 -1.48263 0
M  V30 256 O 22.3336 -5.01525 -2.71714 0
M  V30 257 O 21.2676 -5.93375 -1.00945 0
M  V30 258 H 25.0936 -2.9945 0.506304 0
M  V30 259 H 22.6786 -1.46071 0.313622 0
M  V30 260 H 24.5606 -3.80631 -1.80827 0
M  V30 261 H 23.2356 -2.61462 -1.90839 0
M  V30 262 H 22.1426 -3.73914 0.117799 0
M  V30 263 H 23.4756 -4.92014 0.135308 0
M  V30 264 N 25.1277 -0.289203 -1.54924 0
M  V30 265 C 26.0757 0.607966 -2.24514 0
M  V30 266 C 27.0697 1.14655 -1.24702 0
M  V30 267 O 28.2757 1.09856 -1.4259 0
M  V30 268 H 24.6507 0.21464 -0.720718 0
M  V30 269 H 26.6217 -0.00164182 -2.984 0
M  V30 270 C 25.3707 1.77406 -2.99036 0
M  V30 271 H 24.6937 1.36884 -3.75637 0
M  V30 272 H 26.1337 2.37814 -3.51028 0
M  V30 273 C 24.5927 2.67107 -2.05318 0
M  V30 274 O 25.1227 3.6787 -1.61353 0
M  V30 275 N 23.3287 2.34582 -1.71521 0
M  V30 276 H 22.8757 1.52688 -2.07471 0
M  V30 277 H 22.8337 2.94867 -1.0909 0
M  V30 278 N 26.6058 1.57591 -0.0167156 0
M  V30 279 C 28.0168 1.79201 0.523834 0
M  V30 280 C 28.3678 0.925796 1.72984 0
M  V30 281 O 27.4928 0.132792 2.15992 0
M  V30 282 C 28.0878 3.25 0.957091 0
M  V30 283 C 26.6468 3.47648 1.44283 0
M  V30 284 C 25.7938 2.74374 0.401757 0
M  V30 285 H 28.7448 1.56831 -0.242816 0
M  V30 286 H 28.7658 3.34031 1.82219 0
M  V30 287 H 28.2778 3.88019 0.0791415 0
M  V30 288 H 26.3788 2.89866 2.34113 0
M  V30 289 H 26.4918 4.56352 1.45877 0
M  V30 290 H 24.8558 2.39485 0.867121 0
M  V30 291 H 25.6388 3.40102 -0.467513 0
M  V30 292 N 28.0839 -0.256276 1.55502 0
M  V30 293 C 29.0139 -1.32102 1.92539 0
M  V30 294 C 29.9949 -1.50684 0.789194 0
M  V30 295 O 31.1799 -1.63449 1.04872 0
M  V30 296 C 28.3099 -2.67752 2.21192 0
M  V30 297 C 27.2639 -2.63878 3.36975 0
M  V30 298 C 26.5899 -4.03236 3.51147 0
M  V30 299 C 27.8899 -2.21682 4.72921 0
M  V30 300 H 29.5839 -1.01351 2.81724 0
M  V30 301 H 27.1299 -0.486105 1.35547 0
M  V30 302 H 29.0829 -3.42365 2.45691 0
M  V30 303 H 27.8069 -3.0012 1.28824 0
M  V30 304 H 26.4659 -1.91722 3.12471 0
M  V30 305 H 26.1139 -4.32854 2.56216 0
M  V30 306 H 25.8139 -4.01535 4.29003 0
M  V30 307 H 27.3379 -4.79563 3.77957 0
M  V30 308 H 28.7519 -2.86023 4.96854 0
M  V30 309 H 27.1489 -2.3111 5.53812 0
M  V30 310 H 28.2189 -1.16833 4.70615 0
M  V30 311 N 29.562 -1.4872 -0.521534 0
M  V30 312 C 30.494 -1.59968 -1.64143 0
M  V30 313 C 31.507 -0.483463 -1.55456 0
M  V30 314 O 32.696 -0.75467 -1.61762 0
M  V30 315 C 29.796 -1.52127 -3.02838 0
M  V30 316 C 28.969 -2.78932 -3.36921 0
M  V30 317 C 28.028 -2.64428 -4.54933 0
M  V30 318 O 27.054 -3.38331 -4.57735 0
M  V30 319 N 28.256 -1.74606 -5.53618 0
M  V30 320 H 31.021 -2.56548 -1.54929 0
M  V30 321 H 28.582 -1.45551 -0.708988 0
M  V30 322 H 30.574 -1.40106 -3.79674 0
M  V30 323 H 29.144 -0.634868 -3.06085 0
M  V30 324 H 28.364 -3.05455 -2.4918 0
M  V30 325 H 29.652 -3.63041 -3.56481 0
M  V30 326 H 29.05 -1.13782 -5.54139 0
M  V30 327 H 27.607 -1.6852 -6.29638 0
M  V30 328 N 31.0401 0.771051 -1.3745 0
M  V30 329 C 32.2891 1.52491 -1.3202 0
M  V30 330 C 32.6021 1.9538 0.0927347 0
M  V30 331 O 33.8081 2.70159 0.269503 0
M  V30 332 C 32.2641 2.75366 -2.31736 0
M  V30 333 C 31.8721 2.39573 -3.78562 0
M  V30 334 C 33.6161 3.53307 -2.35318 0
M  V30 335 C 31.5231 3.58954 -4.70007 0
M  V30 336 H 30.4531 0.572506 -0.490666 0
M  V30 337 H 33.1041 0.844474 -1.62914 0
M  V30 338 H 31.4861 3.45303 -1.93861 0
M  V30 339 H 32.6601 1.77415 -4.25277 0
M  V30 340 H 30.9751 1.74805 -3.77932 0
M  V30 341 H 33.5721 4.42039 -3.00842 0
M  V30 342 H 33.9151 3.93217 -1.36698 0
M  V30 343 H 34.4481 2.90367 -2.71904 0
M  V30 344 H 31.1871 3.24125 -5.69757 0
M  V30 345 H 30.7071 4.20214 -4.27996 0
M  V30 346 H 32.3861 4.25758 -4.87175 0
M  V30 347 N 32.5182 1.22032 0.997298 0
M  V30 348 C 33.7642 1.04376 1.73878 0
M  V30 349 C 34.0972 -0.420716 1.89588 0
M  V30 350 O 33.3722 -1.31202 1.43583 0
M  V30 351 C 33.6552 1.75047 3.14691 0
M  V30 352 C 33.5082 3.29062 3.06656 0
M  V30 353 C 34.8272 1.49928 4.13775 0
M  V30 354 H 31.9462 0.380578 0.631133 0
M  V30 355 H 34.5882 1.50312 1.16217 0
M  V30 356 H 32.7382 1.35996 3.63919 0
M  V30 357 H 34.4102 3.7753 2.65083 0
M  V30 358 H 32.6532 3.58967 2.43568 0
M  V30 359 H 33.3242 3.73683 4.06282 0
M  V30 360 H 35.8002 1.83842 3.73285 0
M  V30 361 H 34.6762 2.01878 5.10428 0
M  V30 362 H 34.9372 0.430929 4.39995 0
M  V30 363 N 33.9963 -1.19345 1.0293 0
M  V30 364 C 35.2443 -1.88665 0.724574 0
M  V30 365 C 35.5653 -1.80036 -0.749144 0
M  V30 366 O 34.8353 -1.2111 -1.53978 0
M  V30 367 H 33.4153 -0.698406 0.265025 0
M  V30 368 H 36.0773 -1.44885 1.30362 0
M  V30 369 H 35.1733 -2.94987 1.01926 0
M  V30 370 N 35.4744 -0.807222 -1.35358 0
M  V30 371 C 36.7024 -0.400377 -2.02989 0
M  V30 372 C 37.1174 0.988859 -1.60832 0
M  V30 373 O 36.4744 1.63729 -0.806175 0
M  V30 374 C 36.5254 -0.474867 -3.58368 0
M  V30 375 O 36.2464 -1.80933 -3.98992 0
M  V30 376 C 37.7474 -0.0609112 -4.43258 0
M  V30 377 H 34.9674 -0.162587 -0.651004 0
M  V30 378 H 37.5114 -1.09102 -1.72965 0
M  V30 379 H 35.6664 0.167534 -3.87038 0
M  V30 380 H 36.0804 -1.77256 -4.9364 0
M  V30 381 H 37.5544 -0.164145 -5.51756 0
M  V30 382 H 38.0314 0.993831 -4.27808 0
M  V30 383 H 38.6374 -0.676492 -4.19885 0
M  V30 384 N 36.9525 1.47285 -0.560781 0
M  V30 385 C 38.2015 2.01668 -0.035895 0
M  V30 386 C 38.5145 1.44021 1.32353 0
M  V30 387 O 39.7205 1.90088 1.93853 0
M  V30 388 C 38.1765 3.59897 -0.0136659 0
M  V30 389 C 37.7845 4.26536 -1.37006 0
M  V30 390 C 39.5285 4.22017 0.458425 0
M  V30 391 C 37.4355 5.76782 -1.30675 0
M  V30 392 H 36.3655 0.753938 -0.00964879 0
M  V30 393 H 39.0165 1.69243 -0.709166 0
M  V30 394 H 37.3985 3.89301 0.725325 0
M  V30 395 H 38.5725 4.0877 -2.12705 0
M  V30 396 H 36.8875 3.76419 -1.78038 0
M  V30 397 H 39.4845 5.32124 0.524247 0
M  V30 398 H 39.8275 3.89437 1.4712 0
M  V30 399 H 40.3605 3.97159 -0.225818 0
M  V30 400 H 37.0995 6.13988 -2.29564 0
M  V30 401 H 36.6195 5.96875 -0.591622 0
M  V30 402 H 38.2985 6.39063 -1.01033 0
M  V30 403 N 38.4306 0.297415 1.54768 0
M  V30 404 C 39.3786 -0.596051 2.24833 0
M  V30 405 C 40.3726 -1.13992 1.25308 0
M  V30 406 O 41.5786 -1.09098 1.4317 0
M  V30 407 H 37.9536 -0.210814 0.721846 0
M  V30 408 H 39.9246 0.0174667 2.98395 0
M  V30 409 C 38.6736 -1.75818 2.99972 0
M  V30 410 H 37.9966 -1.3489 3.76357 0
M  V30 411 H 39.4366 -2.35949 3.52284 0
M  V30 412 C 37.8956 -2.66014 2.06732 0
M  V30 413 O 38.4256 -3.67009 1.63302 0
M  V30 414 N 36.6316 -2.33669 1.72763 0
M  V30 415 H 36.1786 -1.51586 2.08277 0
M  V30 416 H 36.1366 -2.94285 1.10652 0
M  V30 417 N 39.9087 -1.5758 0.0250728 0
M  V30 418 C 40.8717 -2.08896 -0.943139 0
M  V30 419 C 41.8717 -1.00321 -1.25668 0
M  V30 420 O 43.0617 -1.26495 -1.19769 0
M  V30 421 C 40.1937 -2.55143 -2.26086 0
M  V30 422 H 41.3867 -2.95723 -0.498775 0
M  V30 423 H 38.9397 -1.54703 -0.222888 0
M  V30 424 H 39.6747 -1.71633 -2.75159 0
M  V30 425 H 39.4597 -3.34461 -2.04641 0
M  V30 426 H 40.9497 -2.95083 -2.95492 0
M  V30 427 N 41.3868 0.248026 -1.55636 0
M  V30 428 C 42.3348 1.32683 -1.91045 0
M  V30 429 C 43.3288 1.49883 -0.789401 0
M  V30 430 O 44.5348 1.51371 -0.974007 0
M  V30 431 H 40.9098 0.444272 -0.606734 0
M  V30 432 H 42.8808 1.00085 -2.81115 0
M  V30 433 C 41.6298 2.6755 -2.22064 0
M  V30 434 H 40.9528 2.55114 -3.07826 0
M  V30 435 H 42.3928 3.41912 -2.50743 0
M  V30 436 C 40.8518 3.20556 -1.0366 0
M  V30 437 O 41.3818 4.00695 -0.284016 0
M  V30 438 N 39.5878 2.78568 -0.82753 0
M  V30 439 H 39.1348 2.1351 -1.44123 0
M  V30 440 H 39.0928 3.14378 -0.0369803 0
M  V30 441 N 42.8649 1.48995 0.513639 0
M  V30 442 C 43.8149 1.61127 1.61314 0
M  V30 443 C 44.7989 0.467521 1.53958 0
M  V30 444 O 45.9909 0.719826 1.61702 0
M  V30 445 C 43.1199 1.66937 2.99978 0
M  V30 446 C 42.2059 2.86847 3.12377 0
M  V30 447 N 42.5969 4.11078 2.94701 0
M  V30 448 C 40.8949 2.84521 3.43459 0
M  V30 449 C 41.5959 4.91615 3.10949 0
M  V30 450 N 40.5719 4.24739 3.3926 0
M  V30 451 H 44.3739 2.54909 1.46282 0
M  V30 452 H 41.8879 1.45593 0.719483 0
M  V30 453 H 43.8849 1.73725 3.78979 0
M  V30 454 H 42.5449 0.742831 3.16089 0
M  V30 455 H 43.5559 4.41258 2.71131 0
M  V30 456 H 40.2329 2.01192 3.65825 0
M  V30 457 H 41.6229 6.00264 3.01882 0
M  V30 458 N 44.343 -0.763751 1.37857 0
M  V30 459 C 45.306 -1.85889 1.34081 0
M  V30 460 C 46.306 -1.58949 0.243277 0
M  V30 461 O 47.496 -1.66882 0.499589 0
M  V30 462 C 44.628 -3.23176 1.08489 0
M  V30 463 H 45.821 -1.90648 2.31502 0
M  V30 464 H 43.374 -0.964367 1.23003 0
M  V30 465 H 44.109 -3.24091 0.116318 0
M  V30 466 H 43.894 -3.44124 1.8794 0
M  V30 467 H 45.384 -4.03254 1.08517 0
M  V30 468 N 45.8211 -1.22559 -0.990812 0
M  V30 469 C 46.7511 -1.0218 -2.09956 0
M  V30 470 C 47.7321 0.0579394 -1.70001 0
M  V30 471 O 48.9171 -0.104684 -1.93918 0
M  V30 472 C 46.0471 -0.601023 -3.4206 0
M  V30 473 C 45.0011 -1.62694 -3.95872 0
M  V30 474 C 44.3271 -1.06193 -5.24049 0
M  V30 475 C 45.6271 -3.01743 -4.2632 0
M  V30 476 H 47.3211 -1.94916 -2.27262 0
M  V30 477 H 44.8671 -0.938566 -1.09211 0
M  V30 478 H 46.8201 -0.445561 -4.19038 0
M  V30 479 H 45.5441 0.362005 -3.24588 0
M  V30 480 H 44.2031 -1.77021 -3.21028 0
M  V30 481 H 43.8511 -0.0901903 -5.02919 0
M  V30 482 H 43.5511 -1.74732 -5.61019 0
M  V30 483 H 45.0751 -0.918092 -6.03658 0
M  V30 484 H 46.4891 -2.90777 -4.94087 0
M  V30 485 H 44.8861 -3.67425 -4.74467 0
M  V30 486 H 45.9561 -3.51518 -3.34011 0
M  V30 487 N 47.2992 1.18797 -1.03562 0
M  V30 488 C 48.2292 2.24472 -0.643019 0
M  V30 489 C 49.2102 1.66433 0.351283 0
M  V30 490 O 50.3952 1.92803 0.232505 0
M  V30 491 C 47.5252 3.473 4.24935e-05 0
M  V30 492 C 46.4792 4.18055 -0.917257 0
M  V30 493 C 45.8052 5.34519 -0.138941 0
M  V30 494 C 47.1052 4.72109 -2.23407 0
M  V30 495 H 48.7992 2.57566 -1.52643 0
M  V30 496 H 46.3452 1.23806 -0.735394 0
M  V30 497 H 48.2982 4.20426 0.286383 0
M  V30 498 H 47.0222 3.13424 0.918299 0
M  V30 499 H 45.6812 3.46821 -1.1879 0
M  V30 500 H 45.3292 4.96891 0.781562 0
M  V30 501 H 45.0292 5.82794 -0.750005 0
M  V30 502 H 46.5532 6.10438 0.1405 0
M  V30 503 H 47.9672 5.36955 -2.00879 0
M  V30 504 H 46.3642 5.30897 -2.79765 0
M  V30 505 H 47.4342 3.89807 -2.88407 0
M  V30 506 N 48.7773 0.814389 1.34928 0
M  V30 507 C 49.7403 0.235759 2.27984 0
M  V30 508 C 50.7403 -0.581412 1.49921 0
M  V30 509 O 51.9303 -0.398758 1.69575 0
M  V30 510 C 49.0623 -0.670433 3.34242 0
M  V30 511 H 50.2553 1.05659 2.80671 0
M  V30 512 H 47.8083 0.585614 1.44915 0
M  V30 513 H 48.5433 -1.51466 2.86755 0
M  V30 514 H 48.3283 -0.0860822 3.92005 0
M  V30 515 H 49.8183 -1.06935 4.03676 0
M  V30 516 N 50.2554 -1.46986 0.568584 0
M  V30 517 C 51.1874 -2.28233 -0.210337 0
M  V30 518 C 52.2004 -1.37682 -0.868767 0
M  V30 519 O 53.3894 -1.62406 -0.740705 0
M  V30 520 C 50.4894 -3.12293 -1.3163 0
M  V30 521 C 49.6624 -4.30878 -0.7525 0
M  V30 522 C 48.7214 -4.96445 -1.74439 0
M  V30 523 O 47.7474 -5.54482 -1.286 0
M  V30 524 N 48.9494 -4.92171 -3.07812 0
M  V30 525 H 51.7144 -2.95723 0.486648 0
M  V30 526 H 49.2754 -1.56742 0.405409 0
M  V30 527 H 51.2674 -3.53022 -1.97883 0
M  V30 528 H 49.8374 -2.46971 -1.91636 0
M  V30 529 H 49.0574 -3.94104 0.0871128 0
M  V30 530 H 50.3454 -5.07558 -0.35536 0
M  V30 531 H 49.7434 -4.46239 -3.47688 0
M  V30 532 H 48.3004 -5.36884 -3.69592 0
M  V30 533 N 51.7335 -0.305618 -1.54608 0
M  V30 534 C 53.1495 0.0476228 -1.59529 0
M  V30 535 C 53.3495 1.52025 -1.32252 0
M  V30 536 O 52.4055 2.27368 -1.09818 0
M  V30 537 C 53.7185 -0.354471 -2.98603 0
M  V30 538 C 55.2665 -0.303622 -3.11524 0
M  V30 539 C 55.7415 -0.680608 -4.52915 0
M  V30 540 N 57.2325 -0.63332 -4.5885 0
M  V30 541 C 57.9675 -0.897432 -5.66334 0
M  V30 542 N 57.4635 -1.22775 -6.81834 0
M  V30 543 N 59.2565 -0.824186 -5.56025 0
M  V30 544 H 51.4075 -1.2653 -1.70599 0
M  V30 545 H 53.6705 -0.513291 -0.797017 0
M  V30 546 H 53.3765 -1.3798 -3.23503 0
M  V30 547 H 53.2505 0.289568 -3.76087 0
M  V30 548 H 55.6375 0.712472 -2.8637 0
M  V30 549 H 55.7185 -0.982348 -2.36185 0
M  V30 550 H 55.3625 -1.69453 -4.78799 0
M  V30 551 H 55.2925 0.0202385 -5.26596 0
M  V30 552 H 57.7835 -0.389138 -3.75891 0
M  V30 553 H 58.0965 -1.41513 -7.59733 0
M  V30 554 H 56.4415 -1.26583 -6.83375 0
M  V30 555 H 59.6325 -0.565748 -4.64669 0
M  V30 556 H 59.8055 -1.03338 -6.39707 0
M  V30 557 N 53.2116 1.57565 -0.0334293 0
M  V30 558 C 54.1746 2.09393 0.932048 0
M  V30 559 C 55.1746 1.00986 1.25134 0
M  V30 560 O 56.3646 1.27129 1.19096 0
M  V30 561 C 53.4966 2.56338 2.2473 0
M  V30 562 H 54.6896 2.95984 0.483085 0
M  V30 563 H 52.2426 1.54819 0.21468 0
M  V30 564 H 52.9776 1.7309 2.74245 0
M  V30 565 H 52.7626 3.35542 2.02865 0
M  V30 566 H 54.2526 2.96646 2.93923 0
M  V30 567 N 54.6897 -0.239769 1.55765 0
M  V30 568 C 55.9377 -0.964892 1.77579 0
M  V30 569 C 56.2587 -1.85582 0.598699 0
M  V30 570 O 55.5287 -1.92075 -0.385226 0
M  V30 571 H 54.1087 -0.359265 0.654933 0
M  V30 572 H 56.7707 -0.256001 1.93211 0
M  V30 573 H 55.8667 -1.58243 2.69009 0
M  V30 574 N 56.1678 -1.49265 -0.50573 0
M  V30 575 C 57.3978 -1.61979 -1.28243 0
M  V30 576 C 57.8058 -0.288576 -1.86986 0
M  V30 577 O 57.1488 0.735408 -1.68337 0
M  V30 578 C 57.2108 -2.62632 -2.45489 0
M  V30 579 C 56.8748 -4.071 -2.07651 0
M  V30 580 C 57.8718 -4.94049 -1.61901 0
M  V30 581 C 55.5568 -4.52801 -2.17431 0
M  V30 582 C 57.5508 -6.24736 -1.26428 0
M  V30 583 C 55.2378 -5.83503 -1.8157 0
M  V30 584 C 56.2358 -6.69294 -1.36142 0
M  V30 585 O 55.9238 -7.9756 -1.00764 0
M  V30 586 H 55.6558 -0.54834 -0.395347 0
M  V30 587 H 58.2098 -1.96002 -0.614204 0
M  V30 588 H 56.4398 -2.2378 -3.15372 0
M  V30 589 H 58.1288 -2.64925 -3.07522 0
M  V30 590 H 58.8948 -4.5997 -1.53795 0
M  V30 591 H 54.7738 -3.86196 -2.51742 0
M  V30 592 H 58.3178 -6.91652 -0.908992 0
M  V30 593 H 54.2148 -6.17112 -1.89324 0
M  V30 594 H 54.9828 -8.10529 -1.13952 0
M  V30 595 N 57.6459 0.756429 -1.3826 0
M  V30 596 C 58.5779 1.87971 -1.31147 0
M  V30 597 C 59.5909 1.61248 -0.224239 0
M  V30 598 O 60.7799 1.71881 -0.481581 0
M  V30 599 C 57.8799 3.23545 -1.00857 0
M  V30 600 C 57.0529 3.77794 -2.20432 0
M  V30 601 C 56.1119 4.91877 -1.86931 0
M  V30 602 O 55.1379 5.06659 -2.59395 0
M  V30 603 N 56.3399 5.74643 -0.822568 0
M  V30 604 H 59.1049 1.94585 -2.2794 0
M  V30 605 H 56.6659 0.936234 -1.32084 0
M  V30 606 H 58.6579 3.97403 -0.765021 0
M  V30 607 H 57.2279 3.12335 -0.128687 0
M  V30 608 H 56.4479 2.95534 -2.6087 0
M  V30 609 H 57.7359 4.10771 -3.00241 0
M  V30 610 H 57.1339 5.65266 -0.221575 0
M  V30 611 H 55.6909 6.48661 -0.638899 0
M  V30 612 N 59.124 1.23083 0.984299 0
M  V30 613 C 60.087 1.00979 2.05757 0
M  V30 614 C 61.087 -0.0269573 1.60777 0
M  V30 615 O 62.277 0.212403 1.729 0
M  V30 616 C 59.409 0.527072 3.36801 0
M  V30 617 H 60.602 1.9622 2.26799 0
M  V30 618 H 58.155 1.05072 1.15714 0
M  V30 619 H 58.89 -0.429294 3.21446 0
M  V30 620 H 58.675 1.27515 3.70786 0
M  V30 621 H 60.165 0.392942 4.15747 0
M  V30 622 N 60.6021 -1.18246 1.0419 0
M  V30 623 C 61.8511 -1.87588 0.741194 0
M  V30 624 C 62.1641 -1.81303 -0.734066 0
M  V30 625 O 63.3701 -2.46019 -1.14834 0
M  V30 626 C 61.8261 -3.36538 1.27555 0
M  V30 627 C 61.4341 -3.51349 2.77953 0
M  V30 628 C 63.1781 -4.11273 1.05143 0
M  V30 629 C 61.0851 -4.94265 3.2474 0
M  V30 630 H 60.0151 -0.702622 0.273565 0
M  V30 631 H 62.6661 -1.33601 1.25789 0
M  V30 632 H 61.0481 -3.9 0.686703 0
M  V30 633 H 62.2221 -3.08153 3.42605 0
M  V30 634 H 60.5371 -2.90022 2.98791 0
M  V30 635 H 63.1341 -5.16689 1.37611 0
M  V30 636 H 63.4771 -4.16298 -0.0112774 0
M  V30 637 H 64.0101 -3.63987 1.60495 0
M  V30 638 H 60.7491 -4.94408 4.30396 0
M  V30 639 H 60.2691 -5.38172 2.64823 0
M  V30 640 H 61.9481 -5.62987 3.18834 0
M  V30 641 N 62.0802 -0.821533 -1.34494 0
M  V30 642 C 63.3102 -0.421272 -2.02259 0
M  V30 643 C 63.7182 0.977047 -1.6202 0
M  V30 644 O 63.0612 1.64348 -0.820703 0
M  V30 645 C 63.1232 -0.44231 -3.56769 0
M  V30 646 C 62.7872 -1.79372 -4.20327 0
M  V30 647 C 63.7842 -2.75435 -4.40944 0
M  V30 648 C 61.4692 -2.08182 -4.57127 0
M  V30 649 C 63.4632 -3.98482 -4.97484 0
M  V30 650 C 61.1502 -3.31489 -5.13379 0
M  V30 651 C 62.1482 -4.26457 -5.33501 0
M  V30 652 O 61.8362 -5.47585 -5.88562 0
M  V30 653 H 61.5682 -0.167473 -0.654927 0
M  V30 654 H 64.1222 -1.11073 -1.72777 0
M  V30 655 H 62.3522 0.303836 -3.85505 0
M  V30 656 H 64.0412 -0.0622925 -4.05852 0
M  V30 657 H 64.8072 -2.54473 -4.12878 0
M  V30 658 H 60.6862 -1.35066 -4.4077 0
M  V30 659 H 64.2302 -4.72618 -5.13106 0
M  V30 660 H 60.1272 -3.52316 -5.40873 0
M  V30 661 H 60.8952 -5.49086 -6.06998 0
M  V30 662 N 63.5583 1.46682 -0.576371 0
M  V30 663 C 64.4883 2.33028 0.148397 0
M  V30 664 C 65.4693 1.44961 0.889956 0
M  V30 665 O 66.6543 1.73789 0.866662 0
M  V30 666 C 63.7843 3.27117 1.1667 0
M  V30 667 C 62.7383 4.24575 0.540386 0
M  V30 668 C 62.0643 5.08126 1.6647 0
M  V30 669 C 63.3643 5.19722 -0.518331 0
M  V30 670 H 65.0583 2.93875 -0.572509 0
M  V30 671 H 62.6043 1.41315 -0.276768 0
M  V30 672 H 64.5573 3.86374 1.68204 0
M  V30 673 H 63.2813 2.64364 1.9178 0
M  V30 674 H 61.9403 3.66571 0.0461769 0
M  V30 675 H 61.5883 4.41762 2.40531 0
M  V30 676 H 61.2883 5.74122 1.25131 0
M  V30 677 H 62.8123 5.70246 2.18293 0
M  V30 678 H 64.2263 5.73232 -0.0883058 0
M  V30 679 H 62.6233 5.94026 -0.851679 0
M  V30 680 H 63.6933 4.64037 -1.40703 0
M  V30 681 N 65.0364 0.313813 1.54444 0
M  V30 682 C 66.2614 -0.296681 2.05267 0
M  V30 683 C 66.6864 -1.45757 1.18897 0
M  V30 684 O 66.0444 -1.80239 0.195886 0
M  V30 685 C 66.0924 -0.71831 3.53373 0
M  V30 686 O 65.1964 -1.82175 3.69981 0
M  V30 687 H 64.5374 -0.0554061 0.661684 0
M  V30 688 H 67.0674 0.459387 1.99376 0
M  V30 689 H 67.0774 -1.00364 3.95463 0
M  V30 690 H 65.7524 0.130821 4.15694 0
M  V30 691 H 64.3294 -1.53598 3.39797 0
M  V30 692 N 66.5145 -1.57545 0.0417849 0
M  V30 693 C 67.7625 -1.91937 -0.632829 0
M  V30 694 C 68.0835 -0.919978 -1.71934 0
M  V30 695 O 67.3535 0.0366064 -1.95866 0
M  V30 696 H 65.9335 -0.708493 -0.236742 0
M  V30 697 H 68.5955 -1.9468 0.0925745 0
M  V30 698 H 67.6915 -2.92912 -1.07746 0
M  V30 699 N 67.9926 0.231505 -1.5589 0
M  V30 700 C 69.2406 0.955461 -1.78088 0
M  V30 701 C 69.5616 1.85262 -0.608533 0
M  V30 702 O 68.8316 1.92277 0.375035 0
M  V30 703 H 67.4116 0.355787 -0.656829 0
M  V30 704 H 70.0736 0.245751 -1.93344 0
M  V30 705 H 69.1696 1.56814 -2.69844 0
M  V30 706 N 69.4707 1.49531 0.497807 0
M  V30 707 C 70.7187 1.58865 1.24926 0
M  V30 708 C 71.0397 0.278721 1.92998 0
M  V30 709 O 70.3097 -0.702144 1.82885 0
M  V30 710 H 68.8897 0.585343 0.464094 0
M  V30 711 H 71.5517 1.86174 0.57666 0
M  V30 712 H 70.6477 2.38633 2.01149 0
M  V30 713 N 70.9488 -0.749086 1.3866 0
M  V30 714 C 72.1948 -1.51056 1.35314 0
M  V30 715 C 72.5278 -1.94121 -0.0553751 0
M  V30 716 O 71.8028 -1.65763 -1.01749 0
M  V30 717 C 72.0858 -2.76003 2.31288 0
M  V30 718 C 71.9388 -2.39047 3.8102 0
M  V30 719 C 73.2578 -3.78046 2.2532 0
M  V30 720 H 70.3768 -0.547972 0.492844 0
M  V30 721 H 73.0188 -0.857628 1.69543 0
M  V30 722 H 71.1688 -3.31716 2.02229 0
M  V30 723 H 72.8408 -1.89074 4.20771 0
M  V30 724 H 71.0838 -1.71449 3.98482 0
M  V30 725 H 71.7548 -3.28462 4.4364 0
M  V30 726 H 74.2308 -3.31884 2.50983 0
M  V30 727 H 73.1068 -4.63159 2.94576 0
M  V30 728 H 73.3678 -4.23957 1.25352 0
M  V30 729 N 72.4269 -1.23603 -0.977757 0
M  V30 730 C 73.3899 -1.02069 -2.05218 0
M  V30 731 C 74.3899 0.0184305 -1.60789 0
M  V30 732 O 75.5799 -0.221569 -1.72785 0
M  V30 733 C 72.7119 -0.544926 -3.36517 0
M  V30 734 H 73.9049 -1.9742 -2.25755 0
M  V30 735 H 71.4579 -1.05684 -1.15155 0
M  V30 736 H 72.1929 0.412241 -3.21669 0
M  V30 737 H 71.9779 -1.2948 -3.70105 0
M  V30 738 H 73.4679 -0.414985 -4.15533 0
M  V30 739 N 73.905 1.17692 -1.04816 0
M  V30 740 C 74.868 2.19787 -0.650117 0
M  V30 741 C 75.868 1.58044 0.296427 0
M  V30 742 O 77.058 1.74012 0.0808097 0
M  V30 743 C 74.19 3.40869 0.0456987 0
M  V30 744 H 75.383 2.56516 -1.5537 0
M  V30 745 H 72.936 1.31708 -0.841594 0
M  V30 746 H 73.671 3.09681 0.962726 0
M  V30 747 H 73.456 3.86928 -0.634727 0
M  V30 748 H 74.946 4.16445 0.310432 0
M  V30 749 N 75.3831 0.828654 1.34056 0
M  V30 750 C 76.6311 0.41863 1.97717 0
M  V30 751 C 76.9521 -1.02314 1.66002 0
M  V30 752 O 76.2221 -1.71119 0.953683 0
M  V30 753 H 74.8021 0.151809 0.731412 0
M  V30 754 H 77.4641 1.05936 1.63596 0
M  V30 755 H 76.5601 0.542318 3.07352 0
M  V30 756 N 76.8612 -1.46375 0.584142 0
M  V30 757 C 78.0862 -2.07268 0.0740405 0
M  V30 758 C 78.5112 -1.42979 -1.22223 0
M  V30 759 O 77.8692 -0.514092 -1.73859 0
M  V30 760 C 77.9172 -3.60518 -0.0767769 0
M  V30 761 O 77.0212 -3.96533 -1.13292 0
M  V30 762 H 76.3622 -0.660961 0.0634524 0
M  V30 763 H 78.8922 -1.87991 0.807492 0
M  V30 764 H 78.9022 -4.07021 -0.282489 0
M  V30 765 H 77.5772 -4.06702 0.86986 0
M  V30 766 H 76.1542 -3.61738 -0.905553 0
M  V30 767 N 78.3393 -0.321999 -1.54275 0
M  V30 768 C 79.2693 0.537411 -2.27231 0
M  V30 769 C 80.2503 1.12064 -1.27968 0
M  V30 770 O 81.4353 1.14606 -1.56777 0
M  V30 771 C 78.5653 1.69919 -3.02894 0
M  V30 772 C 77.5193 1.24534 -4.09482 0
M  V30 773 C 76.8453 2.49394 -4.72977 0
M  V30 774 C 78.1453 0.361335 -5.21049 0
M  V30 775 H 79.8393 -0.0711406 -2.99315 0
M  V30 776 H 77.3853 -0.0356555 -1.43956 0
M  V30 777 H 79.3383 2.30668 -3.52662 0
M  V30 778 H 78.0623 2.33431 -2.28424 0
M  V30 779 H 76.7213 0.660782 -3.60596 0
M  V30 780 H 76.3693 3.11265 -3.95124 0
M  V30 781 H 76.0693 2.19718 -5.44975 0
M  V30 782 H 77.5933 3.10908 -5.25517 0
M  V30 783 H 79.0073 0.875072 -5.66582 0
M  V30 784 H 77.4043 0.157428 -5.99893 0
M  V30 785 H 78.4743 -0.60822 -4.8107 0
M  V30 786 N 79.8174 1.5752 -0.0501392 0
M  V30 787 C 81.0654 1.9227 0.622642 0
M  V30 788 C 81.3864 0.929083 1.71444 0
M  V30 789 O 80.6564 -0.0262186 1.95882 0
M  V30 790 H 79.2364 0.709739 0.232981 0
M  V30 791 H 81.8984 1.94628 -0.102898 0
M  V30 792 H 80.9944 2.93479 1.06191 0
M  V30 793 N 81.2955 -0.223234 1.56011 0
M  V30 794 C 82.2255 -1.27988 1.95298 0
M  V30 795 C 83.2065 -1.48976 0.820979 0
M  V30 796 O 84.3915 -1.61188 1.08315 0
M  V30 797 C 81.5215 -2.63 2.26822 0
M  V30 798 C 80.4755 -2.56671 3.42497 0
M  V30 799 C 79.8015 -3.95697 3.59622 0
M  V30 800 C 81.1015 -2.11601 4.77517 0
M  V30 801 H 82.7955 -0.953525 2.8381 0
M  V30 802 H 80.3415 -0.457244 1.36548 0
M  V30 803 H 82.2945 -3.37077 2.52898 0
M  V30 804 H 81.0185 -2.9732 1.35161 0
M  V30 805 H 79.6775 -1.85051 3.16467 0
M  V30 806 H 79.3255 -4.27322 2.6534 0
M  V30 807 H 79.0255 -3.92345 4.37424 0
M  V30 808 H 80.5495 -4.71438 3.88044 0
M  V30 809 H 81.9635 -2.7542 5.02809 0
M  V30 810 H 80.3605 -2.19311 5.5859 0
M  V30 811 H 81.4305 -1.06824 4.72987 0
M  V30 812 N 82.7736 -1.49793 -0.48987 0
M  V30 813 C 84.1846 -1.52914 -1.07118 0
M  V30 814 C 84.5356 -0.321738 -1.93544 0
M  V30 815 O 83.6606 0.567338 -2.08831 0
M  V30 816 C 84.2556 -2.771 -1.94938 0
M  V30 817 C 82.8146 -2.82963 -2.48212 0
M  V30 818 C 81.9616 -2.46972 -1.26096 0
M  V30 819 H 84.9126 -1.56329 -0.273289 0
M  V30 820 H 84.9336 -2.57892 -2.79771 0
M  V30 821 H 84.4456 -3.64959 -1.32009 0
M  V30 822 H 82.5466 -1.99411 -3.14748 0
M  V30 823 H 82.6596 -3.85406 -2.84603 0
M  V30 824 H 81.0236 -1.98994 -1.58976 0
M  V30 825 H 81.8066 -3.37118 -0.648581 0
M  V30 826 N 84.2517 0.741722 -1.39055 0
M  V30 827 C 85.5287 1.49252 -1.26425 0
M  V30 828 C 85.9087 2.10705 0.129144 0
M  V30 829 O 85.2567 1.98045 1.13976 0
M  V30 830 C 85.4667 2.54934 -2.38347 0
M  V30 831 C 86.8147 3.21506 -2.77343 0
M  V30 832 O 87.8387 2.65245 -2.37747 0
M  V30 833 O 86.6977 4.23294 -3.45665 0
M  V30 834 H 83.7917 0.662451 -0.495064 0
M  V30 835 H 86.3377 0.776121 -1.50912 0
M  V30 836 H 85.1097 2.07857 -3.31529 0
M  V30 837 H 84.7327 3.34141 -2.15489 0
M  V30 838 N 85.7298 1.2412 0.971189 0
M  V30 839 C 86.6598 1.05508 2.08304 0
M  V30 840 C 87.6408 -0.0308864 1.70072 0
M  V30 841 O 88.8258 0.135521 1.93727 0
M  V30 842 C 85.9558 0.655365 3.4106 0
M  V30 843 C 84.9098 1.68971 3.93234 0
M  V30 844 C 84.2358 1.14516 5.22293 0
M  V30 845 C 85.5358 3.08487 4.21465 0
M  V30 846 H 87.2298 1.98507 2.24132 0
M  V30 847 H 84.7758 0.955821 1.07704 0
M  V30 848 H 86.7288 0.51217 4.18276 0
M  V30 849 H 85.4528 -0.31032 3.25122 0
M  V30 850 H 84.1118 1.82106 3.18171 0
M  V30 851 H 83.7598 0.170189 5.02712 0
M  V30 852 H 83.4598 1.83635 5.58168 0
M  V30 853 H 84.9838 1.01401 6.02121 0
M  V30 854 H 86.3978 2.98601 4.89398 0
M  V30 855 H 84.7948 3.74926 4.68562 0
M  V30 856 H 85.8648 3.56787 3.28376 0
M  V30 857 N 87.2079 -1.17134 1.05439 0
M  V30 858 C 88.4559 -1.87085 0.764429 0
M  V30 859 C 88.7769 -1.81584 -0.710787 0
M  V30 860 O 88.0469 -1.24349 -1.51374 0
M  V30 861 H 86.6269 -0.692627 0.279779 0
M  V30 862 H 89.2889 -1.42087 1.33406 0
M  V30 863 H 88.3849 -2.92759 1.0816 0
M  V30 864 N 88.686 -0.835752 -1.33615 0
M  V30 865 C 89.935 -0.426289 -1.97144 0
M  V30 866 C 90.248 1.01912 -1.66953 0
M  V30 867 O 91.454 1.53311 -2.24072 0
M  V30 868 C 89.91 -0.711321 -3.52801 0
M  V30 869 C 89.518 -2.1712 -3.91871 0
M  V30 870 C 91.262 -0.368654 -4.22896 0
M  V30 871 C 89.169 -2.40044 -5.40493 0
M  V30 872 H 88.099 -0.15567 -0.737755 0
M  V30 873 H 90.75 -1.0239 -1.52278 0
M  V30 874 H 89.132 -0.0433766 -3.95976 0
M  V30 875 H 90.306 -2.87936 -3.59763 0
M  V30 876 H 88.621 -2.47654 -3.34749 0
M  V30 877 H 91.218 -0.517601 -5.32189 0
M  V30 878 H 91.561 0.688078 -4.10574 0
M  V30 879 H 92.094 -0.991702 -3.8524 0
M  V30 880 H 88.833 -3.44271 -5.57815 0
M  V30 881 H 88.353 -1.73785 -5.74072 0
M  V30 882 H 90.032 -2.23042 -6.0734 0
M  V30 883 N 90.1641 1.46063 -0.591896 0
M  V30 884 C 91.3891 2.07226 -0.0850314 0
M  V30 885 C 91.8141 1.43625 1.21463 0
M  V30 886 O 91.1721 0.523305 1.73583 0
M  V30 887 C 91.2201 3.60554 0.0576567 0
M  V30 888 O 90.3241 3.97128 1.11188 0
M  V30 889 H 89.6651 0.660615 -0.0669568 0
M  V30 890 H 92.1951 1.8756 -0.81745 0
M  V30 891 H 92.2051 4.07165 0.2609 0
M  V30 892 H 90.8801 4.06235 -0.891416 0
M  V30 893 H 89.4571 3.62213 0.886356 0
M  V30 894 N 91.6422 0.330177 1.54103 0
M  V30 895 C 92.8702 -0.272179 2.05102 0
M  V30 896 C 93.2852 -1.45267 1.20595 0
M  V30 897 O 92.6422 -1.8094 0.238144 0
M  V30 898 C 92.6932 -0.70023 3.54653 0
M  V30 899 O 92.4142 0.433301 4.35952 0
M  V30 900 C 93.9152 -1.3647 4.21771 0
M  V30 901 H 91.1352 -0.0549159 0.668749 0
M  V30 902 H 93.6792 0.478285 1.98828 0
M  V30 903 H 91.8342 -1.40066 3.61193 0
M  V30 904 H 92.2482 0.0947539 5.24414 0
M  V30 905 H 93.7222 -1.61509 5.27843 0
M  V30 906 H 94.1992 -2.31409 3.73292 0
M  V30 907 H 94.8052 -0.706675 4.19388 0
M  V30 908 N 93.1203 -1.57491 0.0584922 0
M  V30 909 C 94.0503 -2.14988 -0.911178 0
M  V30 910 C 95.0313 -1.07343 -1.31952 0
M  V30 911 O 96.2163 -1.35318 -1.39294 0
M  V30 912 C 93.3463 -2.70078 -2.18347 0
M  V30 913 C 92.3003 -3.82771 -1.91495 0
M  V30 914 C 91.6263 -4.24408 -3.25241 0
M  V30 915 C 92.9263 -5.07592 -1.23075 0
M  V30 916 H 94.6203 -2.96263 -0.432246 0
M  V30 917 H 92.1663 -1.42512 -0.206469 0
M  V30 918 H 94.1193 -3.08943 -2.86587 0
M  V30 919 H 92.8433 -1.86005 -2.68458 0
M  V30 920 H 91.5023 -3.44389 -1.25664 0
M  V30 921 H 91.1503 -3.37275 -3.73168 0
M  V30 922 H 90.8503 -5.00366 -3.08071 0
M  V30 923 H 92.3743 -4.65879 -3.94701 0
M  V30 924 H 93.7883 -5.43857 -1.81362 0
M  V30 925 H 92.1853 -5.88741 -1.16207 0
M  V30 926 H 93.2553 -4.84454 -0.207847 0
M  V30 927 N 94.5984 0.214957 -1.56127 0
M  V30 928 C 95.8754 0.963093 -1.70247 0
M  V30 929 C 96.2554 2.02166 -0.60764 0
M  V30 930 O 95.6034 2.25244 0.384385 0
M  V30 931 C 95.8134 1.56756 -3.11815 0
M  V30 932 C 97.1614 2.0573 -3.7143 0
M  V30 933 O 98.1854 1.66637 -3.14818 0
M  V30 934 O 97.0444 2.77603 -4.70743 0
M  V30 935 H 94.1384 0.450321 -0.693643 0
M  V30 936 H 96.6844 0.206219 -1.68442 0
M  V30 937 H 95.4564 0.803533 -3.82961 0
M  V30 938 H 95.0794 2.3898 -3.17765 0
M  V30 939 N 96.0765 1.50051 0.48192 0
M  V30 940 C 97.3535 1.51009 1.2432 0
M  V30 941 C 97.7335 0.248587 2.09631 0
M  V30 942 O 97.0815 -0.768409 2.15192 0
M  V30 943 C 97.2915 2.79981 2.08355 0
M  V30 944 C 98.6395 3.3022 2.66908 0
M  V30 945 O 99.6635 2.81228 2.18607 0
M  V30 946 O 98.5225 4.15595 3.54884 0
M  V30 947 H 95.6165 0.605239 0.563573 0
M  V30 948 H 98.1625 1.62332 0.494627 0
M  V30 949 H 96.9345 3.63275 1.45419 0
M  V30 950 H 96.5575 2.7161 2.90368 0
M  V30 951 N 97.5546 -0.734337 1.39446 0
M  V30 952 C 98.8006 -1.49613 1.36908 0
M  V30 953 C 99.1336 -1.94169 -0.0347829 0
M  V30 954 O 98.4086 -1.66833 -0.999847 0
M  V30 955 C 98.6916 -2.73534 2.34203 0
M  V30 956 C 98.5446 -2.34993 3.83534 0
M  V30 957 C 99.8636 -3.75635 2.29317 0
M  V30 958 H 96.9826 -0.542714 0.498629 0
M  V30 959 H 99.6246 -0.839597 1.70443 0
M  V30 960 H 97.7746 -3.29553 2.05736 0
M  V30 961 H 99.4466 -1.84601 4.22753 0
M  V30 962 H 97.6896 -1.67213 4.00278 0
M  V30 963 H 98.3606 -3.23738 4.47099 0
M  V30 964 H 100.837 -3.29203 2.54489 0
M  V30 965 H 99.7126 -4.60008 2.99472 0
M  V30 966 H 99.9736 -4.22603 1.29842 0
M  V30 967 N 99.0327 -1.24633 -0.964593 0
M  V30 968 C 99.9627 -1.06611 -2.07741 0
M  V30 969 C 100.944 0.0218666 -1.70086 0
M  V30 970 O 102.129 -0.145793 -1.93652 0
M  V30 971 C 99.2587 -0.673444 -3.40708 0
M  V30 972 C 98.2127 -1.71054 -3.92332 0
M  V30 973 C 97.5387 -1.17285 -5.21678 0
M  V30 974 C 98.8387 -3.10718 -4.19824 0
M  V30 975 H 100.533 -1.99693 -2.23076 0
M  V30 976 H 98.0787 -0.96152 -1.07195 0
M  V30 977 H 100.032 -0.534345 -4.17998 0
M  V30 978 H 98.7557 0.293073 -3.25282 0
M  V30 979 H 97.4147 -1.83791 -3.17201 0
M  V30 980 H 97.0627 -0.196847 -5.02615 0
M  V30 981 H 96.7627 -1.86592 -5.57187 0
M  V30 982 H 98.2867 -1.04593 -6.01575 0
M  V30 983 H 99.7007 -3.01192 -4.87808 0
M  V30 984 H 98.0977 -3.77406 -4.66567 0
M  V30 985 H 99.1677 -3.58524 -3.26479 0
M  V30 986 N 100.511 1.16574 -1.06058 0
M  V30 987 C 101.739 1.90952 -0.796552 0
M  V30 988 C 102.154 1.77302 0.648808 0
M  V30 989 O 101.511 1.11605 1.44397 0
M  V30 990 C 101.562 3.41736 -1.17894 0
M  V30 991 O 101.283 3.54975 -2.56758 0
M  V30 992 C 102.784 4.33169 -0.942308 0
M  V30 993 H 100.004 0.605594 -0.288959 0
M  V30 994 H 102.548 1.47777 -1.41358 0
M  V30 995 H 100.703 3.82623 -0.606491 0
M  V30 996 H 101.117 4.4846 -2.72 0
M  V30 997 H 102.591 5.37439 -1.25952 0
M  V30 998 H 103.068 4.3903 0.122078 0
M  V30 999 H 103.674 3.98007 -1.49902 0
M  V30 1000 N 101.989 0.842826 1.3317 0
M  V30 1001 C 103.266 0.362216 1.92217 0
M  V30 1002 C 103.646 -1.15289 1.76838 0
M  V30 1003 O 102.994 -1.96914 1.15919 0
M  V30 1004 C 103.204 0.813495 3.39387 0
M  V30 1005 C 104.552 0.823804 4.16532 0
M  V30 1006 O 105.576 0.757358 3.48055 0
M  V30 1007 O 104.435 0.915193 5.38782 0
M  V30 1008 H 101.529 0.103317 0.820521 0
M  V30 1009 H 104.075 0.928942 1.42017 0
M  V30 1010 H 102.847 1.85624 3.4447 0
M  V30 1011 H 102.47 0.223561 3.96971 0
M  V30 1012 N 103.467 -1.45747 0.599634 0
M  V30 1013 C 104.716 -2.01502 0.0893511 0
M  V30 1014 C 105.029 -1.4748 -1.28488 0
M  V30 1015 O 106.235 -1.95161 -1.88745 0
M  V30 1016 C 104.691 -3.59735 0.109082 0
M  V30 1017 C 104.299 -4.22754 1.48267 0
M  V30 1018 C 106.043 -4.23085 -0.346374 0
M  V30 1019 C 103.95 -5.73115 1.45921 0
M  V30 1020 H 102.88 -0.753417 0.0296347 0
M  V30 1021 H 105.531 -1.67303 0.753788 0
M  V30 1022 H 103.913 -3.91087 -0.621854 0
M  V30 1023 H 105.087 -4.02987 2.23468 0
M  V30 1024 H 103.402 -3.71567 1.87955 0
M  V30 1025 H 105.999 -5.33327 -0.38298 0
M  V30 1026 H 106.342 -3.93201 -1.36743 0
M  V30 1027 H 106.875 -3.9642 0.331038 0
M  V30 1028 H 103.614 -6.07685 2.45762 0
M  V30 1029 H 103.134 -5.95097 0.749665 0
M  V30 1030 H 104.813 -6.3616 1.17941 0
M  V30 1031 N 104.945 -0.338344 -1.53925 0
M  V30 1032 C 106.361 0.0137736 -1.59594 0
M  V30 1033 C 106.561 1.49186 -1.35447 0
M  V30 1034 O 105.617 2.24987 -1.14616 0
M  V30 1035 C 106.93 -0.41773 -2.97784 0
M  V30 1036 C 108.478 -0.369633 -3.1081 0
M  V30 1037 C 108.953 -0.776524 -4.51369 0
M  V30 1038 N 110.444 -0.730506 -4.57403 0
M  V30 1039 C 111.179 -1.01736 -5.64303 0
M  V30 1040 N 110.675 -1.3721 -6.79077 0
M  V30 1041 N 112.468 -0.941942 -5.54151 0
M  V30 1042 H 104.619 -1.3012 -1.67876 0
M  V30 1043 H 106.882 -0.530082 -0.78595 0
M  V30 1044 H 106.588 -1.44811 -3.20504 0
M  V30 1045 H 106.462 0.209729 -3.76616 0
M  V30 1046 H 108.849 0.651568 -2.87817 0
M  V30 1047 H 108.93 -1.03223 -2.34049 0
M  V30 1048 H 108.574 -1.79571 -4.75096 0
M  V30 1049 H 108.504 -0.0914649 -5.26521 0
M  V30 1050 H 110.995 -0.468783 -3.74981 0
M  V30 1051 H 111.308 -1.57597 -7.5656 0
M  V30 1052 H 109.653 -1.4105 -6.80536 0
M  V30 1053 H 112.844 -0.664184 -4.63364 0
M  V30 1054 H 113.017 -1.16884 -6.37371 0
M  V30 1055 N 106.423 1.57458 -0.0668435 0
M  V30 1056 C 107.839 1.56947 0.289772 0
M  V30 1057 C 108.039 1.07584 1.70376 0
M  V30 1058 O 107.095 0.739486 2.41429 0
M  V30 1059 C 108.408 3.0052 0.103943 0
M  V30 1060 C 109.956 3.12517 0.173857 0
M  V30 1061 C 110.431 4.57997 0.0163682 0
M  V30 1062 N 111.922 4.63144 0.0721352 0
M  V30 1063 C 112.657 5.73394 -0.0253794 0
M  V30 1064 N 112.153 6.92576 -0.176133 0
M  V30 1065 N 113.946 5.62091 0.0313305 0
M  V30 1066 H 106.097 1.87863 -0.991027 0
M  V30 1067 H 108.36 0.86583 -0.38606 0
M  V30 1068 H 108.066 3.40729 -0.871572 0
M  V30 1069 H 107.94 3.67304 0.858366 0
M  V30 1070 H 110.327 2.72197 1.13985 0
M  V30 1071 H 110.408 2.48381 -0.611586 0
M  V30 1072 H 110.052 4.99005 -0.946374 0
M  V30 1073 H 109.982 5.20158 0.821153 0
M  V30 1074 H 112.473 3.77436 0.187263 0
M  V30 1075 H 112.786 7.72418 -0.242821 0
M  V30 1076 H 111.131 6.94678 -0.211429 0
M  V30 1077 H 114.322 4.67867 0.147773 0
M  V30 1078 H 114.495 6.47982 -0.048121 0
M  V30 1079 N 107.901 -0.206675 1.56239 0
M  V30 1080 C 109.15 -0.926964 1.79138 0
M  V30 1081 C 109.463 -1.84901 0.638043 0
M  V30 1082 O 110.669 -2.60906 0.751033 0
M  V30 1083 C 109.125 -1.6986 3.17294 0
M  V30 1084 C 108.733 -0.821956 4.40395 0
M  V30 1085 C 110.477 -2.40922 3.4951 0
M  V30 1086 C 108.384 -1.59179 5.69575 0
M  V30 1087 H 107.314 -0.349864 0.667915 0
M  V30 1088 H 109.965 -0.180487 1.8261 0
M  V30 1089 H 108.347 -2.48853 3.08039 0
M  V30 1090 H 109.521 -0.0715019 4.60745 0
M  V30 1091 H 107.836 -0.222741 4.15804 0
M  V30 1092 H 110.433 -2.99047 4.43255 0
M  V30 1093 H 110.776 -3.14542 2.72707 0
M  V30 1094 H 111.309 -1.68905 3.60161 0
M  V30 1095 H 108.048 -0.898589 6.49312 0
M  V30 1096 H 107.568 -2.31648 5.53262 0
M  V30 1097 H 109.247 -2.14862 6.10281 0
M  V30 1098 N 109.379 -1.50304 -0.473955 0
M  V30 1099 C 110.607 -1.64902 -1.24959 0
M  V30 1100 C 111.022 -0.331198 -1.85872 0
M  V30 1101 O 110.379 0.68652 -1.69095 0
M  V30 1102 C 110.43 -2.73803 -2.36038 0
M  V30 1103 O 110.151 -4.00477 -1.77624 0
M  V30 1104 C 111.652 -2.99349 -3.26964 0
M  V30 1105 H 108.872 -0.554383 -0.378022 0
M  V30 1106 H 111.416 -1.9651 -0.566054 0
M  V30 1107 H 109.571 -2.44898 -3.00173 0
M  V30 1108 H 109.985 -4.60678 -2.5075 0
M  V30 1109 H 111.459 -3.79217 -4.01121 0
M  V30 1110 H 111.936 -2.10307 -3.85574 0
M  V30 1111 H 112.542 -3.29774 -2.68569 0
M  V30 1112 N 110.857 0.726932 -1.39834 0
M  V30 1113 C 112.134 1.47902 -1.28001 0
M  V30 1114 C 112.514 2.1083 0.106789 0
M  V30 1115 O 111.862 1.99242 1.11869 0
M  V30 1116 C 112.072 2.52392 -2.41038 0
M  V30 1117 C 113.42 3.18546 -2.80737 0
M  V30 1118 O 114.444 2.62708 -2.40547 0
M  V30 1119 O 113.303 4.19604 -3.50135 0
M  V30 1120 H 110.397 0.657163 -0.502062 0
M  V30 1121 H 112.943 0.760071 -1.51727 0
M  V30 1122 H 111.715 2.04329 -3.33715 0
M  V30 1123 H 111.338 3.31837 -2.19021 0
M  V30 1124 N 112.336 1.25143 0.95797 0
M  V30 1125 C 113.582 1.09855 1.70469 0
M  V30 1126 C 113.915 -0.360187 1.90831 0
M  V30 1127 O 113.19 -1.26568 1.47685 0
M  V30 1128 C 113.473 1.8497 3.08963 0
M  V30 1129 C 113.326 3.38652 2.96032 0
M  V30 1130 C 114.645 1.63016 4.08795 0
M  V30 1131 H 111.764 0.400465 0.618706 0
M  V30 1132 H 114.406 1.53933 1.11376 0
M  V30 1133 H 112.556 1.47505 3.59409 0
M  V30 1134 H 114.228 3.85772 2.52938 0
M  V30 1135 H 112.471 3.66534 2.32025 0
M  V30 1136 H 113.142 3.8642 3.94187 0
M  V30 1137 H 115.618 1.95625 3.67247 0
M  V30 1138 H 114.494 2.18015 5.03747 0
M  V30 1139 H 114.755 0.570692 4.38401 0
M  V30 1140 N 113.814 -1.1601 1.06675 0
M  V30 1141 C 115.054 -1.88304 0.795037 0
M  V30 1142 C 115.418 -1.80062 -0.666466 0
M  V30 1143 O 116.619 -2.47319 -1.05293 0
M  V30 1144 C 114.89 -3.33664 1.28076 0
M  V30 1145 S 116.449 -4.23768 1.13868 0
M  V30 1146 H 113.267 -0.649928 0.288296 0
M  V30 1147 H 115.869 -1.4001 1.36445 0
M  V30 1148 H 114.573 -3.37203 2.33927 0
M  V30 1149 H 114.104 -3.87009 0.706253 0
M  V30 1150 H 116.119 -4.96148 0.0719668 0
M  V30 1151 N 115.292 -0.849877 -1.32721 0
M  V30 1152 C 116.517 -0.463856 -2.02146 0
M  V30 1153 C 116.942 0.930449 -1.63476 0
M  V30 1154 O 116.3 1.61033 -0.832952 0
M  V30 1155 C 116.348 -0.604955 -3.55489 0
M  V30 1156 O 115.452 0.36425 -4.10788 0
M  V30 1157 H 114.793 -0.187046 -0.637111 0
M  V30 1158 H 117.323 -1.14775 -1.69375 0
M  V30 1159 H 117.333 -0.490696 -4.05038 0
M  V30 1160 H 116.008 -1.62174 -3.82978 0
M  V30 1161 H 114.585 0.206628 -3.72327 0
M  V30 1162 N 116.77 1.45427 -0.607355 0
M  V30 1163 C 117.7 2.3329 0.0989352 0
M  V30 1164 C 118.681 1.46816 0.859007 0
M  V30 1165 O 119.866 1.75588 0.829604 0
M  V30 1166 C 116.996 3.29518 1.09705 0
M  V30 1167 C 115.95 4.25626 0.450206 0
M  V30 1168 C 115.276 5.11542 1.55655 0
M  V30 1169 C 116.576 5.18505 -0.628455 0
M  V30 1170 H 118.27 2.92595 -0.634716 0
M  V30 1171 H 115.816 1.40696 -0.306681 0
M  V30 1172 H 117.769 3.89855 1.59971 0
M  V30 1173 H 116.493 2.68372 1.86129 0
M  V30 1174 H 115.152 3.66586 -0.0315886 0
M  V30 1175 H 114.8 4.46765 2.31107 0
M  V30 1176 H 114.5 5.76647 1.12925 0
M  V30 1177 H 116.024 5.74748 2.06148 0
M  V30 1178 H 117.438 5.72916 -0.209877 0
M  V30 1179 H 115.835 5.92085 -0.977489 0
M  V30 1180 H 116.905 4.60948 -1.50514 0
M  V30 1181 N 118.248 0.346503 1.53744 0
M  V30 1182 C 119.659 -0.136779 1.86198 0
M  V30 1183 C 120.01 -1.49749 1.26766 0
M  V30 1184 O 119.135 -2.08417 0.582355 0
M  V30 1185 C 119.73 -0.254966 3.37839 0
M  V30 1186 C 118.289 -0.682482 3.70161 0
M  V30 1187 C 117.436 0.181981 2.76702 0
M  V30 1188 H 120.387 0.565994 1.48264 0
M  V30 1189 H 120.408 -1.08195 3.64793 0
M  V30 1190 H 119.92 0.735526 3.81066 0
M  V30 1191 H 118.021 -1.68189 3.3248 0
M  V30 1192 H 118.134 -0.470326 4.76786 0
M  V30 1193 H 116.498 -0.34615 2.52337 0
M  V30 1194 H 117.281 1.16966 3.2276 0
M  V30 1195 N 119.726 -1.57421 0.075193 0
M  V30 1196 C 120.656 -2.15942 -0.888324 0
M  V30 1197 C 121.637 -1.08737 -1.30806 0
M  V30 1198 O 122.822 -1.36787 -1.37851 0
M  V30 1199 C 119.952 -2.72379 -2.1547 0
M  V30 1200 C 118.906 -3.8478 -1.87425 0
M  V30 1201 C 118.232 -4.27834 -3.20721 0
M  V30 1202 C 119.532 -5.08869 -1.17684 0
M  V30 1203 H 121.226 -2.96705 -0.400799 0
M  V30 1204 H 118.772 -1.42723 -0.191342 0
M  V30 1205 H 120.725 -3.11965 -2.83295 0
M  V30 1206 H 119.449 -1.88841 -2.6647 0
M  V30 1207 H 118.108 -3.45703 -1.22004 0
M  V30 1208 H 117.756 -3.41214 -3.6957 0
M  V30 1209 H 117.456 -5.03605 -3.02746 0
M  V30 1210 H 118.98 -4.70039 -3.89738 0
M  V30 1211 H 120.394 -5.4575 -1.75584 0
M  V30 1212 H 118.791 -5.8994 -1.09956 0
M  V30 1213 H 119.861 -4.84648 -0.156453 0
M  V30 1214 N 121.204 0.198386 -1.56346 0
M  V30 1215 C 122.134 1.24865 -1.9731 0
M  V30 1216 C 123.115 1.47651 -0.844576 0
M  V30 1217 O 124.3 1.59444 -1.10866 0
M  V30 1218 C 121.43 2.59358 -2.30977 0
M  V30 1219 C 120.384 2.5119 -3.46537 0
M  V30 1220 C 119.71 3.89926 -3.65871 0
M  V30 1221 C 121.01 2.03977 -4.80823 0
M  V30 1222 H 122.704 0.908252 -2.85291 0
M  V30 1223 H 120.25 0.435462 -1.37258 0
M  V30 1224 H 122.203 3.33011 -2.58228 0
M  V30 1225 H 120.927 2.95132 -1.39874 0
M  V30 1226 H 119.586 1.79993 -3.19371 0
M  V30 1227 H 119.234 4.23046 -2.72105 0
M  V30 1228 H 118.934 3.85336 -4.4361 0
M  V30 1229 H 120.458 4.65205 -3.95495 0
M  V30 1230 H 121.872 2.67386 -5.07127 0
M  V30 1231 H 120.269 2.10397 -5.62008 0
M  V30 1232 H 121.339 0.992861 -4.74626 0
M  V30 1233 N 122.682 1.50554 0.465978 0
M  V30 1234 C 123.928 1.62038 1.21949 0
M  V30 1235 C 124.261 0.322116 1.9151 0
M  V30 1236 O 123.536 -0.676723 1.82348 0
M  V30 1237 C 123.819 2.80421 2.25912 0
M  V30 1238 C 123.672 4.20144 1.60622 0
M  V30 1239 C 124.991 2.94354 3.27176 0
M  V30 1240 H 122.11 0.589752 0.441998 0
M  V30 1241 H 124.752 1.82956 0.51257 0
M  V30 1242 H 122.902 2.62717 2.86203 0
M  V30 1243 H 124.574 4.49449 1.03889 0
M  V30 1244 H 122.817 4.24165 0.909211 0
M  V30 1245 H 123.488 4.98914 2.36196 0
M  V30 1246 H 125.964 3.10578 2.76913 0
M  V30 1247 H 124.84 3.788 3.97242 0
M  V30 1248 H 125.101 2.05186 3.916 0
M  V30 1249 N 124.16 -0.719506 1.40217 0
M  V30 1250 C 125.437 -1.47221 1.28784 0
M  V30 1251 C 125.817 -2.10883 -0.0956067 0
M  V30 1252 O 125.165 -1.99833 -1.10811 0
M  V30 1253 C 125.375 -2.5111 2.42373 0
M  V30 1254 C 126.723 -3.17053 2.82423 0
M  V30 1255 O 127.747 -2.61429 2.41937 0
M  V30 1256 O 126.606 -4.17742 3.52355 0
M  V30 1257 H 123.7 -0.654491 0.50554 0
M  V30 1258 H 126.246 -0.752014 1.52128 0
M  V30 1259 H 125.018 -2.02556 3.34793 0
M  V30 1260 H 124.641 -3.3067 2.20778 0
M  V30 1261 N 125.638 -1.25649 -0.95132 0
M  V30 1262 C 126.601 -1.06399 -2.03007 0
M  V30 1263 C 127.601 -0.0156794 -1.60792 0
M  V30 1264 O 128.791 -0.25817 -1.72276 0
M  V30 1265 C 125.923 -0.616184 -3.35285 0
M  V30 1266 H 127.116 -2.02164 -2.21517 0
M  V30 1267 H 124.669 -1.08103 -1.12887 0
M  V30 1268 H 125.404 0.343917 -3.22471 0
M  V30 1269 H 125.189 -1.37301 -3.67275 0
M  V30 1270 H 126.679 -0.503032 -4.14559 0
M  V30 1271 N 127.117 1.15442 -1.07289 0
M  V30 1272 C 128.394 1.82306 -0.708792 0
M  V30 1273 C 128.774 1.94991 0.808807 0
M  V30 1274 O 128.122 1.50085 1.72298 0
M  V30 1275 C 128.332 3.18695 -1.42247 0
M  V30 1276 C 129.68 3.94341 -1.57417 0
M  V30 1277 O 130.704 3.28247 -1.38319 0
M  V30 1278 O 129.563 5.12839 -1.88834 0
M  V30 1279 H 126.657 0.787628 -0.252132 0
M  V30 1280 H 129.203 1.22559 -1.17377 0
M  V30 1281 H 127.975 3.04557 -2.45684 0
M  V30 1282 H 127.598 3.86128 -0.948223 0
M  V30 1283 N 128.595 0.856903 1.32268 0
M  V30 1284 C 129.844 0.457599 1.96441 0
M  V30 1285 C 130.157 -0.992426 1.68553 0
M  V30 1286 O 131.363 -1.49727 2.26482 0
M  V30 1287 C 129.819 0.767358 3.51624 0
M  V30 1288 C 129.427 2.23326 3.88367 0
M  V30 1289 C 131.171 0.435887 4.22256 0
M  V30 1290 C 129.078 2.48613 5.36606 0
M  V30 1291 H 128.008 0.167387 0.735185 0
M  V30 1292 H 130.659 1.048 1.5063 0
M  V30 1293 H 129.041 0.106367 3.95857 0
M  V30 1294 H 130.215 2.93623 3.55137 0
M  V30 1295 H 128.53 2.52948 3.30766 0
M  V30 1296 H 131.127 0.602202 5.31298 0
M  V30 1297 H 131.47 -0.622672 4.11617 0
M  V30 1298 H 132.003 1.05286 3.83614 0
M  V30 1299 H 128.742 3.53101 5.52268 0
M  V30 1300 H 128.262 1.82896 5.71235 0
M  V30 1301 H 129.941 2.32676 6.03714 0
M  V30 1302 N 130.073 -1.45103 0.615059 0
M  V30 1303 C 131.321 -2.01784 0.112955 0
M  V30 1304 C 131.642 -1.48504 -1.26378 0
M  V30 1305 O 130.912 -0.682245 -1.83636 0
M  V30 1306 H 129.492 -0.745993 0.0387668 0
M  V30 1307 H 132.154 -1.77808 0.798141 0
M  V30 1308 H 131.25 -3.12025 0.0684069 0
M  V30 1309 N 131.551 -0.354651 -1.53558 0
M  V30 1310 C 132.798 0.238443 -2.01091 0
M  V30 1311 C 133.126 1.49663 -1.24222 0
M  V30 1312 O 132.381 1.93049 -0.321003 0
M  V30 1313 C 132.68 0.587121 -3.52545 0
M  V30 1314 C 132.346 -0.575472 -4.47213 0
M  V30 1315 C 131.008 -0.894497 -4.72813 0
M  V30 1316 C 133.36 -1.35489 -5.03281 0
M  V30 1317 C 130.688 -1.99511 -5.51736 0
M  V30 1318 C 133.04 -2.44583 -5.83405 0
M  V30 1319 C 131.704 -2.77033 -6.07296 0
M  V30 1320 H 130.974 0.0872526 -0.735845 0
M  V30 1321 H 133.621 -0.484859 -1.8526 0
M  V30 1322 H 131.926 1.39129 -3.66265 0
M  V30 1323 H 133.623 1.05809 -3.86789 0
M  V30 1324 H 130.213 -0.316774 -4.27428 0
M  V30 1325 H 134.397 -1.12167 -4.83459 0
M  V30 1326 H 129.653 -2.25063 -5.68469 0
M  V30 1327 H 133.827 -3.05401 -6.25862 0
M  V30 1328 H 131.454 -3.6244 -6.68237 0
M  V30 1329 N 133.029 1.57378 -0.0835403 0
M  V30 1330 C 134.277 1.93547 0.581718 0
M  V30 1331 C 134.598 0.96524 1.69435 0
M  V30 1332 O 133.868 0.0153369 1.95894 0
M  V30 1333 H 132.448 0.714521 0.217874 0
M  V30 1334 H 135.11 1.94366 -0.144158 0
M  V30 1335 H 134.206 2.95665 0.999423 0
M  V30 1336 N 134.507 -0.190092 1.56449 0
M  V30 1337 C 135.732 -0.929864 1.85387 0
M  V30 1338 C 136.157 -1.7585 0.667704 0
M  V30 1339 O 135.515 -1.77198 -0.383459 0
M  V30 1340 C 135.563 -1.79773 3.12593 0
M  V30 1341 O 134.667 -2.89713 2.93496 0
M  V30 1342 H 134.008 -0.261574 0.610307 0
M  V30 1343 H 136.538 -0.193896 2.03679 0
M  V30 1344 H 136.548 -2.20139 3.43515 0
M  V30 1345 H 135.223 -1.18892 3.98544 0
M  V30 1346 H 133.8 -2.53065 2.73884 0
M  V30 1347 N 135.985 -1.50799 -0.457987 0
M  V30 1348 C 137.21 -1.66496 -1.23668 0
M  V30 1349 C 137.635 -0.353288 -1.84752 0
M  V30 1350 O 136.993 0.684346 -1.67888 0
M  V30 1351 C 137.041 -2.76763 -2.3116 0
M  V30 1352 O 136.145 -2.38928 -3.36136 0
M  V30 1353 H 135.486 -0.555828 -0.363252 0
M  V30 1354 H 138.016 -1.9725 -0.543474 0
M  V30 1355 H 138.026 -3.00232 -2.76269 0
M  V30 1356 H 136.701 -3.71954 -1.86073 0
M  V30 1357 H 135.278 -2.25953 -2.96647 0
M  V30 1358 N 137.463 0.71206 -1.40597 0
M  V30 1359 C 138.426 1.80785 -1.40888 0
M  V30 1360 C 139.426 1.57937 -0.302103 0
M  V30 1361 O 140.616 1.64913 -0.561182 0
M  V30 1362 C 137.748 3.18927 -1.20409 0
M  V30 1363 H 138.941 1.81924 -2.38419 0
M  V30 1364 H 136.494 0.91805 -1.26497 0
M  V30 1365 H 137.229 3.23436 -0.236522 0
M  V30 1366 H 137.014 3.36911 -2.00582 0
M  V30 1367 H 138.504 3.98949 -1.23408 0
M  V30 1368 N 138.941 1.26152 0.944643 0
M  V30 1369 C 140.188 1.11492 1.69044 0
M  V30 1370 C 140.516 -0.342366 1.91463 0
M  V30 1371 O 139.771 -1.26812 1.49054 0
M  V30 1372 C 140.07 1.82541 3.07268 0
M  V30 1373 C 139.736 3.32445 3.04616 0
M  V30 1374 C 138.398 3.73337 3.036 0
M  V30 1375 C 140.75 4.28171 2.97185 0
M  V30 1376 C 138.078 5.08348 2.92915 0
M  V30 1377 C 140.43 5.63218 2.88041 0
M  V30 1378 C 139.094 6.03426 2.85366 0
M  V30 1379 H 138.364 0.407977 0.618576 0
M  V30 1380 H 141.011 1.56551 1.10291 0
M  V30 1381 H 139.316 1.29941 3.69625 0
M  V30 1382 H 141.013 1.68642 3.63815 0
M  V30 1383 H 137.603 2.99915 3.06185 0
M  V30 1384 H 141.787 3.97563 2.97081 0
M  V30 1385 H 137.043 5.38667 2.89219 0
M  V30 1386 H 141.217 6.37078 2.81254 0
M  V30 1387 H 138.844 7.07999 2.76842 0
M  V30 1388 N 140.419 -1.14872 1.07899 0
M  V30 1389 C 141.367 -2.21857 0.698727 0
M  V30 1390 C 142.361 -1.66845 -0.293086 0
M  V30 1391 O 143.567 -1.79321 -0.156204 0
M  V30 1392 H 139.942 -0.722691 0.207899 0
M  V30 1393 H 141.913 -2.51205 1.61054 0
M  V30 1394 C 140.662 -3.47498 0.11858 0
M  V30 1395 H 139.985 -3.90154 0.872914 0
M  V30 1396 H 141.425 -4.23858 -0.109759 0
M  V30 1397 C 139.884 -3.16947 -1.1422 0
M  V30 1398 O 140.414 -3.3426 -2.22785 0
M  V30 1399 N 138.62 -2.70946 -1.05055 0
M  V30 1400 H 138.167 -2.57058 -0.167038 0
M  V30 1401 H 138.125 -2.50879 -1.89491 0
M  V30 1402 N 141.898 -0.863906 -1.31812 0
M  V30 1403 C 143.144 -0.472535 -1.97218 0
M  V30 1404 C 143.477 0.971394 -1.68159 0
M  V30 1405 O 142.752 1.68309 -0.974798 0
M  V30 1406 C 143.035 -0.723054 -3.52766 0
M  V30 1407 C 142.888 -2.21608 -3.91421 0
M  V30 1408 C 144.207 -0.185522 -4.39709 0
M  V30 1409 H 141.326 -0.173158 -0.71637 0
M  V30 1410 H 143.968 -1.08403 -1.56041 0
M  V30 1411 H 142.118 -0.202577 -3.87971 0
M  V30 1412 H 143.79 -2.80334 -3.66347 0
M  V30 1413 H 142.033 -2.691 -3.40246 0
M  V30 1414 H 142.704 -2.34203 -4.99853 0
M  V30 1415 H 145.18 -0.630726 -4.11292 0
M  V30 1416 H 144.056 -0.390306 -5.47511 0
M  V30 1417 H 144.317 0.912229 -4.32586 0
M  V30 1418 N 143.376 1.44774 -0.622745 0
M  V30 1419 C 144.339 2.29069 0.0774015 0
M  V30 1420 C 145.339 1.4059 0.780461 0
M  V30 1421 O 146.529 1.62551 0.626322 0
M  V30 1422 C 143.661 3.21974 1.12006 0
M  V30 1423 H 144.854 2.92459 -0.663901 0
M  V30 1424 H 142.407 1.51548 -0.382486 0
M  V30 1425 H 143.142 2.63417 1.89162 0
M  V30 1426 H 142.927 3.87168 0.619951 0
M  V30 1427 H 144.417 3.85318 1.60995 0
M  V30 1428 N 144.854 0.36279 1.53368 0
M  V30 1429 C 146.27 0.0116182 1.59596 0
M  V30 1430 C 146.47 -1.47012 1.37803 0
M  V30 1431 O 145.526 -2.23136 1.18181 0
M  V30 1432 C 146.839 0.465052 2.97082 0
M  V30 1433 C 148.387 0.419033 3.10182 0
M  V30 1434 C 148.862 0.848235 4.50077 0
M  V30 1435 N 150.353 0.803183 4.56183 0
M  V30 1436 C 151.088 1.107 5.62613 0
M  V30 1437 N 150.584 1.47996 6.76808 0
M  V30 1438 N 152.377 1.02998 5.52583 0
M  V30 1439 H 144.528 1.32775 1.65785 0
M  V30 1440 H 146.791 0.542518 0.777417 0
M  V30 1441 H 146.497 1.49892 3.18159 0
M  V30 1442 H 146.371 -0.149786 3.76902 0
M  V30 1443 H 148.758 -0.605696 2.88817 0
M  V30 1444 H 148.839 1.06933 2.32377 0
M  V30 1445 H 148.483 1.87107 4.7218 0
M  V30 1446 H 148.413 0.175218 5.26308 0
M  V30 1447 H 150.904 0.52838 3.74188 0
M  V30 1448 H 151.217 1.69613 7.53957 0
M  V30 1449 H 149.562 1.51859 6.78206 0
M  V30 1450 H 152.753 0.737817 4.62249 0
M  V30 1451 H 152.926 1.2701 6.35431 0
M  V30 1452 N 146.332 -1.57332 0.0918853 0
M  V30 1453 C 147.56 -1.98574 -0.581048 0
M  V30 1454 C 147.975 -0.970903 -1.61923 0
M  V30 1455 O 147.332 0.0399054 -1.82456 0
M  V30 1456 C 147.383 -3.39872 -1.23164 0
M  V30 1457 O 147.104 -4.37469 -0.234989 0
M  V30 1458 C 148.605 -3.96099 -1.99049 0
M  V30 1459 H 145.825 -0.65261 -0.156018 0
M  V30 1460 H 148.369 -2.0379 0.170225 0
M  V30 1461 H 146.524 -3.35679 -1.93386 0
M  V30 1462 H 146.938 -5.19751 -0.70418 0
M  V30 1463 H 148.412 -4.97127 -2.39934 0
M  V30 1464 H 148.889 -3.3374 -2.85507 0
M  V30 1465 H 149.495 -4.03755 -1.3365 0
M  V30 1466 N 147.81 0.181792 -1.56548 0
M  V30 1467 C 149.056 0.901431 -1.81665 0
M  V30 1468 C 149.389 1.82347 -0.668075 0
M  V30 1469 O 148.664 1.91669 0.330615 0
M  V30 1470 C 148.947 1.70618 -3.17115 0
M  V30 1471 C 148.8 0.807964 -4.42484 0
M  V30 1472 C 150.119 2.67605 -3.49393 0
M  V30 1473 H 147.238 0.32627 -0.660846 0
M  V30 1474 H 149.88 0.168134 -1.89255 0
M  V30 1475 H 148.03 2.33133 -3.10775 0
M  V30 1476 H 149.702 0.19649 -4.60881 0
M  V30 1477 H 147.945 0.115411 -4.33646 0
M  V30 1478 H 148.616 1.40632 -5.33785 0
M  V30 1479 H 151.092 2.15218 -3.56118 0
M  V30 1480 H 149.968 3.20985 -4.45264 0
M  V30 1481 H 150.229 3.47298 -2.73563 0
M  V30 1482 N 149.288 1.51039 0.449983 0
M  V30 1483 C 150.235 1.71439 1.54523 0
M  V30 1484 C 151.205 0.555871 1.56522 0
M  V30 1485 O 152.39 0.788871 1.73728 0
M  V30 1486 C 149.53 1.83384 2.92343 0
M  V30 1487 C 148.643 3.10873 2.9997 0
M  V30 1488 C 147.778 3.13488 4.28834 0
M  V30 1489 C 146.817 4.35343 4.30282 0
M  V30 1490 N 145.954 4.35579 5.5065 0
M  V30 1491 H 150.794 2.64934 1.36433 0
M  V30 1492 H 148.331 1.31312 0.662982 0
M  V30 1493 H 150.289 1.88291 3.72293 0
M  V30 1494 H 148.919 0.933086 3.0902 0
M  V30 1495 H 147.971 3.15336 2.12761 0
M  V30 1496 H 149.283 4.00814 2.96901 0
M  V30 1497 H 148.437 3.17241 5.17149 0
M  V30 1498 H 147.176 2.21414 4.34543 0
M  V30 1499 H 146.181 4.3178 3.40362 0
M  V30 1500 H 147.406 5.28668 4.26248 0
M  V30 1501 H 145.352 3.46369 5.57104 0
M  V30 1502 H 145.269 5.19313 5.49409 0
M  V30 1503 H 146.537 4.43507 6.41032 0
M  V30 1504 N 150.766 -0.704594 1.40972 0
M  V30 1505 C 151.991 -1.49858 1.43378 0
M  V30 1506 C 152.416 -1.88061 0.038184 0
M  V30 1507 O 151.774 -1.5402 -0.956425 0
M  V30 1508 C 151.822 -2.74333 2.34038 0
M  V30 1509 O 150.926 -3.7147 1.7912 0
M  V30 1510 H 150.267 -0.45139 0.486974 0
M  V30 1511 H 152.797 -0.866832 1.8533 0
M  V30 1512 H 152.807 -3.22741 2.49604 0
M  V30 1513 H 151.482 -2.45863 3.35446 0
M  V30 1514 H 150.059 -3.30363 1.72958 0
M  V30 1515 N 152.244 -1.26651 -0.937939 0
M  V30 1516 C 153.177 -1.02811 -2.03728 0
M  V30 1517 C 154.155 0.0481915 -1.62529 0
M  V30 1518 O 155.339 -0.0948839 -1.88261 0
M  V30 1519 C 152.466 -0.557517 -3.3408 0
M  V30 1520 C 151.512 -1.62686 -3.94253 0
M  V30 1521 S 152.345 -3.21667 -4.28125 0
M  V30 1522 C 153.501 -2.76384 -5.61572 0
M  V30 1523 H 153.734 -1.95891 -2.23638 0
M  V30 1524 H 151.267 -1.10367 -1.07974 0
M  V30 1525 H 153.225 -0.292674 -4.09455 0
M  V30 1526 H 151.886 0.353062 -3.12109 0
M  V30 1527 H 151.079 -1.24866 -4.88287 0
M  V30 1528 H 150.681 -1.84324 -3.25424 0
M  V30 1529 H 152.973 -2.2105 -6.40424 0
M  V30 1530 H 153.916 -3.69123 -6.0428 0
M  V30 1531 H 154.324 -2.15847 -5.21604 0
M  V30 1532 N 153.722 1.14298 -1.08507 0
M  V30 1533 C 154.971 1.84708 -0.810305 0
M  V30 1534 C 155.284 1.83903 0.666271 0
M  V30 1535 O 156.49 2.50112 1.05624 0
M  V30 1536 C 154.946 3.31572 -1.39957 0
M  V30 1537 C 154.554 3.40791 -2.90801 0
M  V30 1538 C 156.298 4.07087 -1.20334 0
M  V30 1539 C 154.205 4.81872 -3.4286 0
M  V30 1540 H 153.135 0.691985 -0.299454 0
M  V30 1541 H 155.786 1.28841 -1.30661 0
M  V30 1542 H 154.168 3.87183 -0.830976 0
M  V30 1543 H 155.342 2.95225 -3.53806 0
M  V30 1544 H 153.657 2.78732 -3.0935 0
M  V30 1545 H 156.254 5.11225 -1.56693 0
M  V30 1546 H 156.597 4.16054 -0.143237 0
M  V30 1547 H 157.13 3.57779 -1.73893 0
M  V30 1548 H 153.869 4.78094 -4.48449 0
M  V30 1549 H 153.389 5.27972 -2.84615 0
M  V30 1550 H 155.068 5.50765 -3.39509 0
M  V30 1551 N 155.201 0.870884 1.31352 0
M  V30 1552 C 156.148 0.325425 2.28494 0
M  V30 1553 C 157.118 -0.576615 1.5577 0
M  V30 1554 O 158.303 -0.508059 1.83911 0
M  V30 1555 C 155.443 -0.466283 3.41935 0
M  V30 1556 C 154.556 0.463378 4.29508 0
M  V30 1557 C 153.691 -0.342544 5.30094 0
M  V30 1558 C 152.73 0.583486 6.09313 0
M  V30 1559 N 151.867 -0.186244 7.01853 0
M  V30 1560 H 156.707 1.15901 2.74538 0
M  V30 1561 H 154.244 0.58294 1.35056 0
M  V30 1562 H 156.202 -0.941085 4.06447 0
M  V30 1563 H 154.832 -1.26456 2.97 0
M  V30 1564 H 153.884 1.05663 3.65431 0
M  V30 1565 H 155.196 1.1734 4.84802 0
M  V30 1566 H 154.35 -0.879816 6.00287 0
M  V30 1567 H 153.089 -1.08585 4.75458 0
M  V30 1568 H 152.094 1.13251 5.3801 0
M  V30 1569 H 153.319 1.32566 6.66035 0
M  V30 1570 H 151.265 -0.912348 6.49625 0
M  V30 1571 H 151.182 0.464422 7.54572 0
M  V30 1572 H 152.45 -0.704716 7.76308 0
M  V30 1573 N 156.679 -1.44442 0.630414 0
M  V30 1574 C 157.642 -2.29107 -0.0652523 0
M  V30 1575 C 158.642 -1.41002 -0.772995 0
M  V30 1576 O 159.832 -1.62881 -0.617692 0
M  V30 1577 C 156.964 -3.22564 -1.10296 0
M  V30 1578 H 158.157 -2.92103 0.679401 0
M  V30 1579 H 155.71 -1.51343 0.390517 0
M  V30 1580 H 156.445 -2.64416 -1.87762 0
M  V30 1581 H 156.23 -3.87491 -0.59941 0
M  V30 1582 H 157.72 -3.86167 -1.5895 0
M  V30 1583 N 158.157 -0.370918 -1.53173 0
M  V30 1584 C 159.405 0.216673 -2.00935 0
M  V30 1585 C 159.726 1.48845 -1.25977 0
M  V30 1586 O 158.996 1.92286 -0.374551 0
M  V30 1587 H 157.576 0.0830565 -0.742368 0
M  V30 1588 H 160.238 -0.49838 -1.8842 0
M  V30 1589 H 159.334 0.439893 -3.08984 0
M  V30 1590 N 159.635 1.57281 -0.100228 0
M  V30 1591 C 160.598 2.13158 0.842398 0
M  V30 1592 C 161.598 1.06202 1.20738 0
M  V30 1593 O 162.788 1.32066 1.13597 0
M  V30 1594 C 159.92 2.65639 2.13655 0
M  V30 1595 H 161.113 2.97766 0.357114 0
M  V30 1596 H 158.666 1.5559 0.148823 0
M  V30 1597 H 159.401 1.84566 2.66657 0
M  V30 1598 H 159.186 3.43844 1.88451 0
M  V30 1599 H 160.676 3.08846 2.81077 0
M  V30 1600 N 161.113 -0.173488 1.56642 0
M  V30 1601 C 162.076 -1.19859 1.95362 0
M  V30 1602 C 163.076 -1.37296 0.83704 0
M  V30 1603 O 164.266 -1.34739 1.10413 0
M  V30 1604 C 161.398 -2.56405 2.24654 0
M  V30 1605 H 162.591 -0.867062 2.87092 0
M  V30 1606 H 160.144 -0.415853 1.50666 0
M  V30 1607 H 160.879 -2.94576 1.35631 0
M  V30 1608 H 160.664 -2.45115 3.06041 0
M  V30 1609 H 162.154 -3.30287 2.5554 0
M  V30 1610 N 162.591 -1.51276 -0.441967 0
M  V30 1611 C 163.839 -1.63392 -1.18943 0
M  V30 1612 C 164.16 -0.350159 -1.9183 0
M  V30 1613 O 163.43 0.633784 -1.85364 0
M  V30 1614 H 162.01 -0.602164 -0.442049 0
M  V30 1615 H 164.672 -1.88186 -0.507165 0
M  V30 1616 H 163.768 -2.45934 -1.92154 0
M  V30 1617 N 164.069 0.697108 -1.41344 0
M  V30 1618 C 164.999 1.82353 -1.45841 0
M  V30 1619 C 165.98 1.67115 -0.317247 0
M  V30 1620 O 167.165 1.86871 -0.528474 0
M  V30 1621 C 164.295 3.20476 -1.33838 0
M  V30 1622 C 163.249 3.50415 -2.4575 0
M  V30 1623 C 162.575 4.87878 -2.18813 0
M  V30 1624 C 163.875 3.49546 -3.88091 0
M  V30 1625 H 165.569 1.78846 -2.40113 0
M  V30 1626 H 163.115 0.859028 -1.15571 0
M  V30 1627 H 165.068 3.98988 -1.35596 0
M  V30 1628 H 163.792 3.24604 -0.360498 0
M  V30 1629 H 162.451 2.74253 -2.43271 0
M  V30 1630 H 162.099 4.8863 -1.19371 0
M  V30 1631 H 161.799 5.08875 -2.93803 0
M  V30 1632 H 163.323 5.68702 -2.22284 0
M  V30 1633 H 164.737 4.18066 -3.92293 0
M  V30 1634 H 163.134 3.82075 -4.62751 0
M  V30 1635 H 164.204 2.48552 -4.16353 0
M  V30 1636 N 165.547 1.27147 0.931209 0
M  V30 1637 C 166.497 1.06227 2.01742 0
M  V30 1638 C 167.481 -0.00859065 1.60898 0
M  V30 1639 O 168.673 0.209537 1.75755 0
M  V30 1640 C 165.802 0.707787 3.35924 0
M  V30 1641 C 164.888 1.81661 3.83223 0
M  V30 1642 N 165.279 3.05564 4.03069 0
M  V30 1643 C 163.577 1.70249 4.12227 0
M  V30 1644 C 164.278 3.77697 4.42403 0
M  V30 1645 N 163.254 3.0544 4.49675 0
M  V30 1646 H 167.056 2.00261 2.15111 0
M  V30 1647 H 164.57 1.1781 1.11779 0
M  V30 1648 H 166.567 0.539043 4.134 0
M  V30 1649 H 165.227 -0.224964 3.2392 0
M  V30 1650 H 166.238 3.41363 3.89476 0
M  V30 1651 H 162.915 0.840329 4.08956 0
M  V30 1652 H 164.305 4.84168 4.65866 0
M  V30 1653 N 167.025 -1.13721 1.09112 0
M  V30 1654 C 168.274 -1.84275 0.82009 0
M  V30 1655 C 168.587 -1.84253 -0.656509 0
M  V30 1656 O 169.793 -2.50668 -1.04296 0
M  V30 1657 C 168.249 -3.30825 1.41714 0
M  V30 1658 C 167.857 -3.39244 2.92605 0
M  V30 1659 C 169.601 -4.06443 1.22492 0
M  V30 1660 C 167.508 -4.80047 3.45411 0
M  V30 1661 H 166.438 -0.690387 0.30312 0
M  V30 1662 H 169.089 -1.28146 1.31343 0
M  V30 1663 H 167.471 -3.86737 0.851498 0
M  V30 1664 H 168.645 -2.93344 3.55367 0
M  V30 1665 H 166.96 -2.77088 3.10823 0
M  V30 1666 H 169.557 -5.10387 1.59402 0
M  V30 1667 H 169.9 -4.15972 0.165299 0
M  V30 1668 H 170.433 -3.56852 1.75788 0
M  V30 1669 H 167.172 -4.75709 4.50978 0
M  V30 1670 H 166.692 -5.26455 2.87411 0
M  V30 1671 H 168.371 -5.48957 3.42425 0
M  V30 1672 N 168.503 -0.877838 -1.30888 0
M  V30 1673 C 169.413 -0.343096 -2.32078 0
M  V30 1674 C 170.429 0.551022 -1.65045 0
M  V30 1675 O 171.605 0.445854 -1.96403 0
M  V30 1676 C 168.67 0.439905 -3.43898 0
M  V30 1677 C 167.731 -0.483111 -4.26573 0
M  V30 1678 C 166.964 0.262616 -5.33053 0
M  V30 1679 O 167.187 1.48967 -5.50604 0
M  V30 1680 O 166.121 -0.383593 -6.00676 0
M  V30 1681 H 169.947 -1.18203 -2.79753 0
M  V30 1682 H 167.532 -0.64145 -1.34929 0
M  V30 1683 H 169.414 0.883504 -4.12034 0
M  V30 1684 H 168.089 1.25526 -2.98371 0
M  V30 1685 H 166.996 -0.975374 -3.61161 0
M  V30 1686 H 168.329 -1.26427 -4.75686 0
M  V30 1687 N 169.982 1.44106 -0.638065 0
M  V30 1688 C 171.259 1.95453 -0.0759321 0
M  V30 1689 C 171.639 1.57984 1.40015 0
M  V30 1690 O 170.987 0.857361 2.11806 0
M  V30 1691 C 171.197 3.47655 -0.306132 0
M  V30 1692 C 172.545 4.24114 -0.203008 0
M  V30 1693 O 173.569 3.55405 -0.237871 0
M  V30 1694 O 172.428 5.46381 -0.113827 0
M  V30 1695 H 169.522 0.826797 0.0183332 0
M  V30 1696 H 172.068 1.54122 -0.710251 0
M  V30 1697 H 170.84 3.68 -1.3301 0
M  V30 1698 H 170.463 3.95949 0.361991 0
M  V30 1699 N 171.46 0.379036 1.52974 0
M  V30 1700 C 172.392 -0.495963 2.2377 0
M  V30 1701 C 173.405 -1.03517 1.25651 0
M  V30 1702 O 174.594 -0.939249 1.51791 0
M  V30 1703 C 171.694 -1.69894 2.93239 0
M  V30 1704 C 170.867 -1.2889 4.17979 0
M  V30 1705 C 169.926 -2.35543 4.70538 0
M  V30 1706 O 168.952 -1.97375 5.33883 0
M  V30 1707 N 170.154 -3.67318 4.49508 0
M  V30 1708 H 172.919 0.110523 2.99496 0
M  V30 1709 H 170.48 0.204878 1.60598 0
M  V30 1710 H 172.472 -2.40747 3.25304 0
M  V30 1711 H 171.042 -2.212 2.20883 0
M  V30 1712 H 170.262 -0.409676 3.92065 0
M  V30 1713 H 171.55 -0.991443 4.99047 0
M  V30 1714 H 170.948 -4.01095 3.98923 0
M  V30 1715 H 169.505 -4.34235 4.8609 0
M  V30 1716 N 172.938 -1.57226 0.108567 0
M  V30 1717 C 174.184 -1.95121 -0.552761 0
M  V30 1718 C 174.517 -0.991345 -1.66991 0
M  V30 1719 O 173.792 -0.0267211 -1.94482 0
M  V30 1720 C 174.075 -3.43039 -1.09528 0
M  V30 1721 C 173.928 -4.49797 0.0177332 0
M  V30 1722 C 175.247 -3.92567 -1.98945 0
M  V30 1723 H 172.366 -0.709496 -0.199461 0
M  V30 1724 H 175.008 -1.89126 0.182011 0
M  V30 1725 H 173.158 -3.48279 -1.72146 0
M  V30 1726 H 174.83 -4.56661 0.652584 0
M  V30 1727 H 173.073 -4.284 0.682309 0
M  V30 1728 H 173.744 -5.50528 -0.402919 0
M  V30 1729 H 176.22 -3.89565 -1.46214 0
M  V30 1730 H 175.096 -4.96605 -2.33827 0
M  V30 1731 H 175.357 -3.32648 -2.91201 0
M  V30 1732 N 174.416 0.165178 -1.56732 0
M  V30 1733 C 175.664 0.879068 -1.8198 0
M  V30 1734 C 175.985 1.82514 -0.686561 0
M  V30 1735 O 175.255 1.93694 0.293146 0
M  V30 1736 H 173.835 0.327608 -0.671329 0
M  V30 1737 H 176.497 0.163526 -1.94213 0
M  V30 1738 H 175.593 1.45228 -2.76252 0
M  V30 1739 N 175.894 1.51508 0.433938 0
M  V30 1740 C 176.857 1.72473 1.50949 0
M  V30 1741 C 177.857 0.594725 1.49398 0
M  V30 1742 O 179.047 0.862315 1.5136 0
M  V30 1743 C 176.179 1.78431 2.90474 0
M  V30 1744 H 177.372 2.68467 1.33662 0
M  V30 1745 H 174.925 1.41549 0.662836 0
M  V30 1746 H 175.66 0.842645 3.13161 0
M  V30 1747 H 175.445 2.60558 2.93005 0
M  V30 1748 H 176.935 1.96479 3.68491 0
M  V30 1749 N 177.372 -0.689602 1.41712 0
M  V30 1750 C 178.319 -1.80345 1.44029 0
M  V30 1751 C 179.289 -1.63478 0.293948 0
M  V30 1752 O 180.474 -1.84244 0.495869 0
M  V30 1753 C 177.614 -3.18272 1.33405 0
M  V30 1754 C 176.727 -3.46529 2.57956 0
M  V30 1755 C 175.862 -4.74103 2.39582 0
M  V30 1756 C 174.901 -4.95347 3.5958 0
M  V30 1757 N 174.038 -6.14151 3.40239 0
M  V30 1758 H 178.878 -1.77698 2.39222 0
M  V30 1759 H 176.415 -0.867688 1.18784 0
M  V30 1760 H 178.373 -3.97956 1.25246 0
M  V30 1761 H 177.003 -3.2008 0.418164 0
M  V30 1762 H 176.055 -2.61207 2.76542 0
M  V30 1763 H 177.367 -3.58126 3.47199 0
M  V30 1764 H 176.521 -5.61853 2.28924 0
M  V30 1765 H 175.26 -4.64763 1.47805 0
M  V30 1766 H 174.265 -4.06044 3.70686 0
M  V30 1767 H 175.49 -5.06542 4.52318 0
M  V30 1768 H 173.436 -6.06013 2.51167 0
M  V30 1769 H 173.353 -6.26543 4.23061 0
M  V30 1770 H 174.621 -7.04619 3.33365 0
M  V30 1771 N 178.85 -1.27639 -0.924453 0
M  V30 1772 C 180.266 -1.05113 -1.20097 0
M  V30 1773 C 180.466 0.213262 -2.00368 0
M  V30 1774 O 179.522 0.91787 -2.35226 0
M  V30 1775 C 180.835 -2.29244 -1.94596 0
M  V30 1776 C 182.383 -2.34315 -2.07522 0
M  V30 1777 C 182.858 -3.58183 -2.85427 0
M  V30 1778 N 184.349 -3.5876 -2.92994 0
M  V30 1779 C 185.084 -4.51277 -3.53746 0
M  V30 1780 N 184.58 -5.54102 -4.15863 0
M  V30 1781 N 186.373 -4.38894 -3.51181 0
M  V30 1782 H 178.524 -2.08821 -0.388264 0
M  V30 1783 H 180.787 -0.918568 -0.234385 0
M  V30 1784 H 180.493 -3.21301 -1.43034 0
M  V30 1785 H 180.367 -2.34816 -2.95197 0
M  V30 1786 H 182.754 -1.42762 -2.58269 0
M  V30 1787 H 182.835 -2.32744 -1.06131 0
M  V30 1788 H 182.479 -4.50074 -2.35363 0
M  V30 1789 H 182.409 -3.57006 -3.8711 0
M  V30 1790 H 184.9 -2.84398 -2.4885 0
M  V30 1791 H 185.213 -6.20859 -4.60168 0
M  V30 1792 H 183.558 -5.57941 -4.144 0
M  V30 1793 H 186.749 -3.57772 -3.01856 0
M  V30 1794 H 186.922 -5.11186 -3.98237 0
M  V30 1795 N 180.328 1.1314 -1.09713 0
M  V30 1796 C 181.568 1.8613 -0.844683 0
M  V30 1797 C 181.932 1.81765 0.618491 0
M  V30 1798 O 183.133 2.50024 0.98699 0
M  V30 1799 C 181.404 3.30151 -1.36877 0
M  V30 1800 S 182.963 4.206 -1.25064 0
M  V30 1801 H 179.781 0.642056 -0.305427 0
M  V30 1802 H 182.383 1.36343 -1.4011 0
M  V30 1803 H 181.087 3.30883 -2.42786 0
M  V30 1804 H 180.618 3.85 -0.808614 0
M  V30 1805 H 182.633 4.95783 -0.203486 0
M  V30 1806 N 181.806 0.884767 1.30421 0
M  V30 1807 C 183.054 0.502112 1.95763 0
M  V30 1808 C 183.375 -0.951815 1.70192 0
M  V30 1809 O 182.645 -1.6692 1.0254 0
M  V30 1810 H 181.225 0.182694 0.724315 0
M  V30 1811 H 183.887 1.1278 1.58955 0
M  V30 1812 H 182.983 0.672188 3.04775 0
M  V30 1813 N 183.284 -1.43765 0.645699 0
M  V30 1814 C 184.234 -2.27884 -0.0726442 0
M  V30 1815 C 185.218 -1.39483 -0.802086 0
M  V30 1816 O 186.41 -1.63174 -0.685791 0
M  V30 1817 C 183.539 -3.27055 -1.04356 0
M  V30 1818 C 182.625 -4.22944 -0.312985 0
M  V30 1819 N 183.016 -5.01391 0.666386 0
M  V30 1820 C 181.314 -4.42528 -0.55546 0
M  V30 1821 C 182.015 -5.71217 1.09935 0
M  V30 1822 N 180.991 -5.41856 0.435137 0
M  V30 1823 H 184.793 -2.85949 0.678988 0
M  V30 1824 H 182.307 -1.55378 0.472368 0
M  V30 1825 H 184.304 -3.86089 -1.57292 0
M  V30 1826 H 182.964 -2.70551 -1.79534 0
M  V30 1827 H 183.975 -5.07252 1.04481 0
M  V30 1828 H 180.652 -3.97104 -1.28899 0
M  V30 1829 H 182.042 -6.44202 1.90929 0
M  V30 1830 N 184.763 -0.387143 -1.52771 0
M  V30 1831 C 186.179 -0.037007 -1.59557 0
M  V30 1832 C 186.379 1.44801 -1.40124 0
M  V30 1833 O 185.435 2.21227 -1.21716 0
M  V30 1834 C 186.748 -0.512256 -2.96305 0
M  V30 1835 C 188.296 -0.468328 -3.09476 0
M  V30 1836 C 188.771 -0.919731 -4.4867 0
M  V30 1837 N 190.262 -0.875656 -4.54848 0
M  V30 1838 C 190.997 -1.19637 -5.6078 0
M  V30 1839 N 190.493 -1.58745 -6.74368 0
M  V30 1840 N 192.286 -1.11776 -5.50874 0
M  V30 1841 H 184.437 -1.35395 -1.63652 0
M  V30 1842 H 186.7 -0.554818 -0.768688 0
M  V30 1843 H 186.406 -1.54935 -3.15734 0
M  V30 1844 H 186.28 0.089805 -3.77093 0
M  V30 1845 H 188.667 0.559671 -2.89744 0
M  V30 1846 H 188.748 -1.10616 -2.30646 0
M  V30 1847 H 188.392 -1.94595 -4.69143 0
M  V30 1848 H 188.322 -0.258927 -5.25963 0
M  V30 1849 H 190.813 -0.587843 -3.733 0
M  V30 1850 H 191.126 -1.81586 -7.51163 0
M  V30 1851 H 189.471 -1.6263 -6.75705 0
M  V30 1852 H 192.662 -0.811264 -4.61016 0
M  V30 1853 H 192.835 -1.37103 -6.3333 0
M  V30 1854 N 186.241 1.57166 -0.116904 0
M  V30 1855 C 187.652 1.82169 0.408809 0
M  V30 1856 C 188.003 1.03393 1.66746 0
M  V30 1857 O 187.128 0.269886 2.1471 0
M  V30 1858 C 187.723 3.30429 0.748466 0
M  V30 1859 C 186.282 3.5612 1.21882 0
M  V30 1860 C 185.429 2.76374 0.226452 0
M  V30 1861 H 188.38 1.5497 -0.342063 0
M  V30 1862 H 188.401 3.44943 1.60607 0
M  V30 1863 H 187.913 3.87737 -0.167784 0
M  V30 1864 H 186.014 3.04168 2.15204 0
M  V30 1865 H 186.127 4.64705 1.16559 0
M  V30 1866 H 184.491 2.44515 0.713063 0
M  V30 1867 H 185.274 3.3644 -0.682859 0
M  V30 1868 N 187.719 -0.156864 1.56817 0
M  V30 1869 C 188.667 -1.21319 1.98455 0
M  V30 1870 C 189.661 -1.45025 0.875444 0
M  V30 1871 O 190.867 -1.45435 1.0606 0
M  V30 1872 H 187.242 -0.408142 0.631605 0
M  V30 1873 H 189.213 -0.835244 2.86472 0
M  V30 1874 C 187.962 -2.54148 2.37285 0
M  V30 1875 H 187.285 -2.36733 3.22176 0
M  V30 1876 H 188.725 -3.26712 2.70251 0
M  V30 1877 C 187.184 -3.13967 1.22173 0
M  V30 1878 O 187.714 -3.98357 0.517149 0
M  V30 1879 N 185.92 -2.7327 0.988536 0
M  V30 1880 H 185.467 -2.04744 1.56326 0
M  V30 1881 H 185.425 -3.13628 0.220209 0
M  V30 1882 N 189.197 -1.51736 -0.425897 0
M  V30 1883 C 190.144 -1.73875 -1.51776 0
M  V30 1884 C 191.114 -0.580702 -1.55618 0
M  V30 1885 O 192.299 -0.81641 -1.72451 0
M  V30 1886 C 189.439 -1.88012 -2.89388 0
M  V30 1887 C 188.552 -3.15606 -2.94986 0
M  V30 1888 C 187.687 -3.20271 -4.23793 0
M  V30 1889 C 186.726 -4.42134 -4.23302 0
M  V30 1890 N 185.863 -4.44284 -5.43651 0
M  V30 1891 H 190.703 -2.67071 -1.32201 0
M  V30 1892 H 188.24 -1.32351 -0.642008 0
M  V30 1893 H 190.198 -1.9419 -3.69251 0
M  V30 1894 H 188.828 -0.98213 -3.07496 0
M  V30 1895 H 187.88 -3.18681 -2.07717 0
M  V30 1896 H 189.192 -4.05486 -2.90486 0
M  V30 1897 H 188.346 -3.25428 -5.12036 0
M  V30 1898 H 187.085 -2.28299 -4.30965 0
M  V30 1899 H 186.09 -4.3714 -3.3345 0
M  V30 1900 H 187.315 -5.35382 -4.17783 0
M  V30 1901 H 185.261 -3.55188 -5.51523 0
M  V30 1902 H 185.178 -5.27988 -5.41078 0
M  V30 1903 H 186.446 -4.53649 -6.33895 0
M  V30 1904 N 190.675 0.682077 -1.42076 0
M  V30 1905 C 191.638 1.77756 -1.44691 0
M  V30 1906 C 192.638 1.5726 -0.335535 0
M  V30 1907 O 193.828 1.63686 -0.596037 0
M  V30 1908 C 190.96 3.16301 -1.27146 0
M  V30 1909 H 192.153 1.76826 -2.42224 0
M  V30 1910 H 189.706 0.891012 -1.28416 0
M  V30 1911 H 190.441 3.22862 -0.305075 0
M  V30 1912 H 190.226 3.32581 -2.07683 0
M  V30 1913 H 191.716 3.96241 -1.31843 0
M  V30 1914 N 192.153 1.28127 0.917671 0
M  V30 1915 C 193.402 1.14432 1.66097 0
M  V30 1916 C 193.715 -0.307247 1.93172 0
M  V30 1917 O 194.921 -0.565259 2.65551 0
M  V30 1918 C 193.377 2.00015 2.99202 0
M  V30 1919 C 192.985 3.49889 2.79789 0
M  V30 1920 C 194.729 1.94996 3.77064 0
M  V30 1921 C 192.636 4.27636 4.08511 0
M  V30 1922 H 191.566 0.424662 0.62304 0
M  V30 1923 H 194.217 1.52628 1.01868 0
M  V30 1924 H 192.599 1.54672 3.64544 0
M  V30 1925 H 193.773 4.03162 2.23152 0
M  V30 1926 H 192.088 3.56392 2.15345 0
M  V30 1927 H 194.685 2.50354 4.72469 0
M  V30 1928 H 195.028 0.925819 4.05875 0
M  V30 1929 H 195.561 2.38287 3.18534 0
M  V30 1930 H 192.3 5.30615 3.84874 0
M  V30 1931 H 191.82 3.79137 4.64774 0
M  V30 1932 H 193.499 4.37346 4.76799 0
M  V30 1933 N 193.631 -1.12557 1.10312 0
M  V30 1934 C 194.877 -1.84311 0.846011 0
M  V30 1935 C 195.21 -1.83805 -0.626859 0
M  V30 1936 O 194.485 -1.28268 -1.46211 0
M  V30 1937 C 194.768 -3.32048 1.39341 0
M  V30 1938 C 194.621 -3.41016 2.93305 0
M  V30 1939 C 195.94 -4.27764 1.03468 0
M  V30 1940 H 193.059 -0.669192 0.30879 0
M  V30 1941 H 195.701 -1.32057 1.36605 0
M  V30 1942 H 193.851 -3.76678 0.951087 0
M  V30 1943 H 195.523 -3.05031 3.46055 0
M  V30 1944 H 193.766 -2.81603 3.29973 0
M  V30 1945 H 194.437 -4.44948 3.26689 0
M  V30 1946 H 196.913 -3.91253 1.41633 0
M  V30 1947 H 195.789 -5.29549 1.44463 0
M  V30 1948 H 196.05 -4.42064 -0.0560404 0
M  V30 1949 N 195.109 -0.891671 -1.2995 0
M  V30 1950 C 196.334 -0.527932 -2.00568 0
M  V30 1951 C 196.759 0.877969 -1.66353 0
M  V30 1952 O 196.117 1.58301 -0.883762 0
M  V30 1953 C 196.165 -0.717745 -3.53385 0
M  V30 1954 O 195.269 0.233376 -4.11739 0
M  V30 1955 H 194.61 -0.20722 -0.630837 0
M  V30 1956 H 197.14 -1.20105 -1.65638 0
M  V30 1957 H 197.15 -0.619307 -4.03272 0
M  V30 1958 H 195.825 -1.74276 -3.77625 0
M  V30 1959 H 194.402 0.0880706 -3.72796 0
M  V30 1960 N 196.587 1.43421 -0.653314 0
M  V30 1961 C 197.534 2.30768 0.0382271 0
M  V30 1962 C 198.504 1.44755 0.814576 0
M  V30 1963 O 199.689 1.73624 0.791162 0
M  V30 1964 C 196.829 3.30336 0.998599 0
M  V30 1965 C 195.942 4.31448 0.218342 0
M  V30 1966 C 195.077 5.18098 1.17252 0
M  V30 1967 C 194.116 6.10902 0.382702 0
M  V30 1968 N 193.253 6.90176 1.28848 0
M  V30 1969 H 198.093 2.89357 -0.712511 0
M  V30 1970 H 195.63 1.42548 -0.363128 0
M  V30 1971 H 197.588 3.86572 1.56901 0
M  V30 1972 H 196.218 2.73397 1.71621 0
M  V30 1973 H 195.27 3.77506 -0.46836 0
M  V30 1974 H 196.582 4.97227 -0.395812 0
M  V30 1975 H 195.736 5.7896 1.81356 0
M  V30 1976 H 194.475 4.52444 1.82058 0
M  V30 1977 H 193.48 5.49128 -0.27169 0
M  V30 1978 H 194.705 6.78598 -0.260957 0
M  V30 1979 H 192.651 6.27171 1.92334 0
M  V30 1980 H 192.568 7.52478 0.728887 0
M  V30 1981 H 193.836 7.55543 1.91766 0
M  V30 1982 N 198.065 0.39524 1.52563 0
M  V30 1983 C 198.975 -0.444232 2.30356 0
M  V30 1984 C 199.991 -1.06615 1.37511 0
M  V30 1985 O 201.167 -1.07067 1.70583 0
M  V30 1986 C 198.232 -1.55315 3.09964 0
M  V30 1987 C 197.293 -0.955734 4.18526 0
M  V30 1988 C 196.526 -2.01181 4.9433 0
M  V30 1989 O 196.749 -3.22781 4.70285 0
M  V30 1990 O 195.683 -1.62579 5.79527 0
M  V30 1991 H 199.509 0.189667 3.03107 0
M  V30 1992 H 197.094 0.1588 1.48554 0
M  V30 1993 H 198.976 -2.19724 3.59582 0
M  V30 1994 H 197.651 -2.17191 2.4002 0
M  V30 1995 H 196.558 -0.274743 3.7309 0
M  V30 1996 H 197.891 -0.381109 4.90722 0
M  V30 1997 N 199.544 -1.57102 0.125237 0
M  V30 1998 C 200.454 -2.19191 -0.8362 0
M  V30 1999 C 201.47 -1.16985 -1.28805 0
M  V30 2000 O 202.646 -1.49479 -1.34974 0
M  V30 2001 C 199.711 -2.78407 -2.06617 0
M  V30 2002 C 198.772 -3.9567 -1.66565 0
M  V30 2003 C 198.005 -4.52052 -2.83698 0
M  V30 2004 O 198.228 -4.07326 -3.99302 0
M  V30 2005 O 197.162 -5.42645 -2.60423 0
M  V30 2006 H 200.988 -3.01816 -0.337776 0
M  V30 2007 H 198.573 -1.4906 -0.100695 0
M  V30 2008 H 200.455 -3.16129 -2.7864 0
M  V30 2009 H 199.13 -1.9881 -2.55453 0
M  V30 2010 H 198.037 -3.62705 -0.916296 0
M  V30 2011 H 199.37 -4.76722 -1.22464 0
M  V30 2012 N 201.022 0.148545 -1.56898 0
M  V30 2013 C 201.955 1.21293 -1.93296 0
M  V30 2014 C 202.933 1.41637 -0.798599 0
M  V30 2015 O 204.117 1.56275 -1.05406 0
M  V30 2016 C 201.244 2.5721 -2.20365 0
M  V30 2017 C 200.29 2.53469 -3.4301 0
M  V30 2018 S 201.123 2.00315 -4.96623 0
M  V30 2019 C 202.279 3.37964 -5.26812 0
M  V30 2020 H 202.512 0.902393 -2.83274 0
M  V30 2021 H 200.045 0.354094 -1.50285 0
M  V30 2022 H 202.003 3.35427 -2.36641 0
M  V30 2023 H 200.664 2.85454 -1.31054 0
M  V30 2024 H 199.857 3.53518 -3.59223 0
M  V30 2025 H 199.459 1.83359 -3.25968 0
M  V30 2026 H 201.751 4.34066 -5.20185 0
M  V30 2027 H 202.694 3.26606 -6.28279 0
M  V30 2028 H 203.102 3.35028 -4.54331 0
M  V30 2029 N 202.5 1.5196 0.417844 0
M  V30 2030 C 203.746 1.65836 1.16732 0
M  V30 2031 C 204.079 0.382881 1.90388 0
M  V30 2032 O 203.354 -0.618368 1.84408 0
M  V30 2033 C 203.637 2.87466 2.16876 0
M  V30 2034 C 203.49 4.25041 1.47174 0
M  V30 2035 C 204.809 3.04613 3.17646 0
M  V30 2036 H 201.928 0.603515 0.423011 0
M  V30 2037 H 204.57 1.84494 0.454105 0
M  V30 2038 H 202.72 2.71689 2.777 0
M  V30 2039 H 204.392 4.52527 0.895376 0
M  V30 2040 H 202.635 4.26843 0.773806 0
M  V30 2041 H 203.306 5.06176 2.20204 0
M  V30 2042 H 205.782 3.1923 2.66892 0
M  V30 2043 H 204.658 3.91247 3.8499 0
M  V30 2044 H 204.919 2.17541 3.84874 0
M  V30 2045 N 203.978 -0.674533 1.42435 0
M  V30 2046 C 205.255 -1.4305 1.33402 0
M  V30 2047 C 205.635 -2.11081 -0.0284674 0
M  V30 2048 O 204.983 -2.03257 -1.04397 0
M  V30 2049 C 205.193 -2.43272 2.50239 0
M  V30 2050 C 206.541 -3.07907 2.92367 0
M  V30 2051 O 207.565 -2.53599 2.50132 0
M  V30 2052 O 206.424 -4.0632 3.65467 0
M  V30 2053 H 203.518 -0.638076 0.526106 0
M  V30 2054 H 206.064 -0.703235 1.54443 0
M  V30 2055 H 204.836 -1.91803 3.41068 0
M  V30 2056 H 204.459 -3.23479 2.31186 0
M  V30 2057 N 205.456 -1.28612 -0.910864 0
M  V30 2058 C 206.872 -1.06381 -1.18976 0
M  V30 2059 C 207.072 0.191998 -2.00583 0
M  V30 2060 O 206.128 0.892869 -2.36187 0
M  V30 2061 C 207.441 -2.31295 -1.92154 0
M  V30 2062 C 208.989 -2.36503 -2.05025 0
M  V30 2063 C 209.464 -3.61191 -2.81612 0
M  V30 2064 N 210.955 -3.61847 -2.89172 0
M  V30 2065 C 211.69 -4.55004 -3.4894 0
M  V30 2066 N 211.186 -5.58482 -4.09963 0
M  V30 2067 N 212.979 -4.42594 -3.46506 0
M  V30 2068 H 205.13 -2.09221 -0.366094 0
M  V30 2069 H 207.393 -0.921003 -0.224629 0
M  V30 2070 H 207.099 -3.228 -1.39618 0
M  V30 2071 H 206.973 -2.37934 -2.9269 0
M  V30 2072 H 209.36 -1.45494 -2.5674 0
M  V30 2073 H 209.441 -2.33857 -1.03657 0
M  V30 2074 H 209.085 -4.52545 -2.30576 0
M  V30 2075 H 209.015 -3.61092 -3.83302 0
M  V30 2076 H 211.506 -2.87022 -2.45819 0
M  V30 2077 H 211.819 -6.25704 -4.53557 0
M  V30 2078 H 210.164 -5.62305 -4.08459 0
M  V30 2079 H 213.355 -3.60953 -2.98045 0
M  V30 2080 H 213.528 -5.15381 -3.92793 0
M  V30 2081 N 206.934 1.1197 -1.10907 0
M  V30 2082 C 208.183 1.82947 -0.849302 0
M  V30 2083 C 208.496 1.85275 0.627112 0
M  V30 2084 O 209.702 2.52296 1.00295 0
M  V30 2085 C 208.158 3.28529 -1.46959 0
M  V30 2086 C 207.766 3.34546 -2.97965 0
M  V30 2087 C 209.51 4.04443 -1.28942 0
M  V30 2088 C 207.417 4.74491 -3.53004 0
M  V30 2089 H 206.347 0.685477 -0.314065 0
M  V30 2090 H 208.998 1.2604 -1.33365 0
M  V30 2091 H 207.38 3.85333 -0.912917 0
M  V30 2092 H 208.554 2.87654 -3.59989 0
M  V30 2093 H 206.869 2.72108 -3.15192 0
M  V30 2094 H 209.466 5.07787 -1.67502 0
M  V30 2095 H 209.809 4.15656 -0.231456 0
M  V30 2096 H 210.342 3.5401 -1.81443 0
M  V30 2097 H 207.081 4.68474 -4.58489 0
M  V30 2098 H 206.601 5.21816 -2.9575 0
M  V30 2099 H 208.28 5.4344 -3.51115 0
M  V30 2100 N 208.412 0.89855 1.29475 0
M  V30 2101 C 209.828 0.594483 1.48115 0
M  V30 2102 C 210.028 -0.86431 1.82022 0
M  V30 2103 O 209.084 -1.64457 1.91599 0
M  V30 2104 C 210.397 1.51932 2.59494 0
M  V30 2105 C 211.945 1.5244 2.7337 0
M  V30 2106 C 212.42 2.43548 3.87877 0
M  V30 2107 N 213.911 2.41589 3.95208 0
M  V30 2108 C 214.646 3.08789 4.83153 0
M  V30 2109 N 214.142 3.85265 5.75798 0
M  V30 2110 N 215.935 2.97952 4.76635 0
M  V30 2111 H 208.086 1.84207 1.05742 0
M  V30 2112 H 210.349 0.789251 0.525154 0
M  V30 2113 H 210.055 2.55865 2.41301 0
M  V30 2114 H 209.929 1.23899 3.56271 0
M  V30 2115 H 212.316 0.492518 2.90961 0
M  V30 2116 H 212.397 1.8451 1.77172 0
M  V30 2117 H 212.041 3.46829 3.71041 0
M  V30 2118 H 211.971 2.08788 4.83441 0
M  V30 2119 H 214.462 1.86025 3.28943 0
M  V30 2120 H 214.775 4.33598 6.39697 0
M  V30 2121 H 213.12 3.89371 5.75687 0
M  V30 2122 H 216.311 2.37723 4.03244 0
M  V30 2123 H 216.484 3.50599 5.44962 0
M  V30 2124 N 209.89 -1.43072 0.660911 0
M  V30 2125 C 210.853 -2.29194 -0.0166406 0
M  V30 2126 C 211.853 -1.42609 -0.742912 0
M  V30 2127 O 213.043 -1.64155 -0.583004 0
M  V30 2128 C 210.175 -3.24831 -1.0343 0
M  V30 2129 H 211.368 -2.90596 0.741208 0
M  V30 2130 H 208.921 -1.5048 0.422532 0
M  V30 2131 H 209.656 -2.68339 -1.82111 0
M  V30 2132 H 209.441 -3.88676 -0.517082 0
M  V30 2133 H 210.931 -3.89451 -1.50723 0
M  V30 2134 N 211.368 -0.403325 -1.52352 0
M  V30 2135 C 212.331 0.413051 -2.25447 0
M  V30 2136 C 213.331 0.978513 -1.276 0
M  V30 2137 O 214.521 0.858305 -1.51587 0
M  V30 2138 C 211.653 1.58087 -3.02029 0
M  V30 2139 H 212.846 -0.227094 -2.99039 0
M  V30 2140 H 210.399 -0.155722 -1.55522 0
M  V30 2141 H 211.134 2.25804 -2.32772 0
M  V30 2142 H 210.919 1.18195 -3.73861 0
M  V30 2143 H 212.409 2.1585 -3.57489 0
M  V30 2144 N 212.846 1.57033 -0.133567 0
M  V30 2145 C 214.092 1.95976 0.521649 0
M  V30 2146 C 214.425 1.01779 1.65393 0
M  V30 2147 O 213.7 0.0576581 1.94415 0
M  V30 2148 C 213.983 3.44738 1.04057 0
M  V30 2149 C 213.836 4.49711 -0.0892897 0
M  V30 2150 C 215.155 3.95682 1.92675 0
M  V30 2151 H 212.274 0.712579 0.188149 0
M  V30 2152 H 214.916 1.88813 -0.212076 0
M  V30 2153 H 213.066 3.50973 1.66583 0
M  V30 2154 H 214.738 4.55565 -0.725152 0
M  V30 2155 H 212.981 4.27261 -0.750378 0
M  V30 2156 H 213.652 5.51099 0.315284 0
M  V30 2157 H 216.128 3.91841 1.39998 0
M  V30 2158 H 215.004 5.00262 2.25897 0
M  V30 2159 H 215.265 3.37239 2.85872 0
M  V30 2160 N 214.325 -0.140222 1.56975 0
M  V30 2161 C 215.602 -0.880769 1.74648 0
M  V30 2162 C 215.982 -1.99036 0.703404 0
M  V30 2163 O 215.33 -2.26821 -0.27648 0
M  V30 2164 C 215.54 -1.417 3.18939 0
M  V30 2165 C 216.888 -1.87774 3.80823 0
M  V30 2166 O 217.912 -1.51427 3.2241 0
M  V30 2167 O 216.771 -2.54827 4.83452 0
M  V30 2168 H 213.865 -0.416713 0.714338 0
M  V30 2169 H 216.411 -0.125618 1.69234 0
M  V30 2170 H 215.183 -0.619902 3.86359 0
M  V30 2171 H 214.806 -2.23546 3.28805 0
M  V30 2172 N 215.803 -1.52179 -0.40978 0
M  V30 2173 C 216.766 -1.74853 -1.48186 0
M  V30 2174 C 217.766 -0.618417 -1.48433 0
M  V30 2175 O 218.956 -0.886286 -1.49969 0
M  V30 2176 C 216.088 -1.8303 -2.87598 0
M  V30 2177 H 217.281 -2.70559 -1.29374 0
M  V30 2178 H 214.834 -1.42586 -0.640233 0
M  V30 2179 H 215.569 -0.89236 -3.11781 0
M  V30 2180 H 215.354 -2.65187 -2.88822 0
M  V30 2181 H 216.844 -2.02316 -3.65319 0
M  V30 2182 N 217.281 0.66697 -1.42791 0
M  V30 2183 C 218.228 1.7803 -1.4688 0
M  V30 2184 C 219.198 1.6299 -0.319919 0
M  V30 2185 O 220.383 1.83432 -0.525118 0
M  V30 2186 C 217.523 3.1611 -1.38451 0
M  V30 2187 C 216.636 3.42381 -2.63437 0
M  V30 2188 C 215.771 4.70232 -2.47094 0
M  V30 2189 C 214.81 4.89564 -3.67415 0
M  V30 2190 N 213.947 6.08661 -3.49966 0
M  V30 2191 H 218.787 1.7387 -2.42019 0
M  V30 2192 H 216.324 0.84868 -1.20149 0
M  V30 2193 H 218.282 3.95914 -1.31561 0
M  V30 2194 H 216.912 3.19374 -0.469033 0
M  V30 2195 H 215.964 2.56774 -2.80662 0
M  V30 2196 H 217.276 3.52557 -3.52853 0
M  V30 2197 H 216.43 5.5814 -2.37834 0
M  V30 2198 H 215.169 4.62353 -1.5518 0
M  V30 2199 H 214.174 4.00096 -3.77099 0
M  V30 2200 H 215.399 4.99282 -4.6032 0
M  V30 2201 H 213.345 6.0194 -2.60776 0
M  V30 2202 H 213.262 6.19733 -4.32975 0
M  V30 2203 H 214.53 6.99226 -3.44532 0
M  V30 2204 N 218.759 1.29093 0.90403 0
M  V30 2205 C 219.987 1.19689 1.68766 0
M  V30 2206 C 220.402 -0.243113 1.87228 0
M  V30 2207 O 219.759 -1.16326 1.40621 0
M  V30 2208 C 219.81 1.90144 3.07453 0
M  V30 2209 O 219.531 3.2852 2.89838 0
M  V30 2210 C 221.032 1.87162 4.01852 0
M  V30 2211 H 218.252 0.415035 0.527244 0
M  V30 2212 H 220.796 1.7039 1.13082 0
M  V30 2213 H 218.951 1.43289 3.59926 0
M  V30 2214 H 219.365 3.63944 3.77684 0
M  V30 2215 H 220.839 2.41032 4.96596 0
M  V30 2216 H 221.316 0.84617 4.30972 0
M  V30 2217 H 221.922 2.33741 3.5531 0
M  V30 2218 N 220.237 -1.11381 1.11499 0
M  V30 2219 C 221.514 -1.7955 0.775965 0
M  V30 2220 C 221.894 -1.97859 -0.73588 0
M  V30 2221 O 221.242 -1.56376 -1.66609 0
M  V30 2222 C 221.452 -3.13196 1.53977 0
M  V30 2223 C 222.8 -3.88227 1.71944 0
M  V30 2224 O 223.824 -3.22887 1.50407 0
M  V30 2225 O 222.683 -5.05477 2.07738 0
M  V30 2226 H 219.777 -0.777728 0.28119 0
M  V30 2227 H 222.323 -1.18118 1.21845 0
M  V30 2228 H 221.095 -2.95229 2.56818 0
M  V30 2229 H 220.718 -3.82342 1.09088 0
M  V30 2230 N 221.715 -0.905404 -1.28997 0
M  V30 2231 C 223.126 -0.581953 -1.77398 0
M  V30 2232 C 223.477 0.902552 -1.74208 0
M  V30 2233 O 222.602 1.70584 -1.33154 0
M  V30 2234 C 223.197 -1.04961 -3.22131 0
M  V30 2235 C 221.756 -0.777229 -3.68288 0
M  V30 2236 C 220.903 -1.22109 -2.48967 0
M  V30 2237 H 223.854 -1.08754 -1.15578 0
M  V30 2238 H 223.875 -0.387387 -3.78523 0
M  V30 2239 H 223.387 -2.13008 -3.24421 0
M  V30 2240 H 221.488 0.290383 -3.71467 0
M  V30 2241 H 221.601 -1.37911 -4.58822 0
M  V30 2242 H 219.965 -0.639971 -2.46529 0
M  V30 2243 H 220.748 -2.30972 -2.53982 0
M  V30 2244 N 223.193 1.4272 -0.668489 0
M  V30 2245 C 224.47 1.95248 -0.117373 0
M  V30 2246 C 224.85 1.60919 1.36632 0
M  V30 2247 O 224.198 0.902095 2.09939 0
M  V30 2248 C 224.408 3.46927 -0.379806 0
M  V30 2249 C 225.756 4.23588 -0.292923 0
M  V30 2250 O 226.78 3.5482 -0.313204 0
M  V30 2251 O 225.639 5.46017 -0.229697 0
M  V30 2252 H 222.733 0.827 0.00079152 0
M  V30 2253 H 225.279 1.52581 -0.742783 0
M  V30 2254 H 224.051 3.65096 -1.40786 0
M  V30 2255 H 223.674 3.96627 0.277923 0
M  V30 2256 N 224.671 0.411399 1.52136 0
M  V30 2257 C 225.918 -0.163645 2.01838 0
M  V30 2258 C 226.246 -1.4495 1.29691 0
M  V30 2259 O 225.501 -1.91725 0.392431 0
M  V30 2260 C 225.8 -0.455872 3.54481 0
M  V30 2261 C 225.466 0.741055 4.44769 0
M  V30 2262 C 224.128 1.06936 4.69167 0
M  V30 2263 C 226.48 1.54075 4.97906 0
M  V30 2264 C 223.808 2.19851 5.43951 0
M  V30 2265 C 226.16 2.66067 5.73926 0
M  V30 2266 C 224.824 2.99381 5.96596 0
M  V30 2267 H 224.094 -0.0598821 0.738576 0
M  V30 2268 H 226.741 0.553283 1.83333 0
M  V30 2269 H 225.046 -1.2544 3.71177 0
M  V30 2270 H 226.743 -0.913802 3.90449 0
M  V30 2271 H 223.333 0.475192 4.25958 0
M  V30 2272 H 227.517 1.30033 4.78963 0
M  V30 2273 H 222.773 2.46006 5.59724 0
M  V30 2274 H 226.947 3.28419 6.14096 0
M  V30 2275 H 224.574 3.86992 6.54325 0
M  V30 2276 N 226.149 -1.5696 0.141893 0
M  V30 2277 C 227.395 -1.9625 -0.511248 0
M  V30 2278 C 227.728 -1.02654 -1.64851 0
M  V30 2279 O 227.003 -0.0679676 -1.94381 0
M  V30 2280 C 227.286 -3.45285 -1.02227 0
M  V30 2281 C 227.139 -4.49658 0.113138 0
M  V30 2282 C 228.458 -3.96698 -1.90574 0
M  V30 2283 H 225.577 -0.713567 -0.184367 0
M  V30 2284 H 228.219 -1.88698 0.222087 0
M  V30 2285 H 226.369 -3.51852 -1.64719 0
M  V30 2286 H 228.041 -4.55174 0.749302 0
M  V30 2287 H 226.284 -4.26857 0.773026 0
M  V30 2288 H 226.955 -5.51258 -0.286053 0
M  V30 2289 H 229.431 -3.92578 -1.37918 0
M  V30 2290 H 228.307 -5.01453 -2.2324 0
M  V30 2291 H 228.568 -3.3875 -2.84079 0
M  V30 2292 N 227.627 0.131896 -1.57047 0
M  V30 2293 C 228.876 0.84044 -1.83356 0
M  V30 2294 C 229.189 1.81646 -0.725535 0
M  V30 2295 O 230.395 2.57025 -0.874659 0
M  V30 2296 C 228.851 1.54528 -3.25037 0
M  V30 2297 C 228.459 0.610902 -4.43815 0
M  V30 2298 C 230.203 2.23972 -3.60606 0
M  V30 2299 C 228.11 1.31823 -5.76521 0
M  V30 2300 H 227.04 0.317599 -0.683847 0
M  V30 2301 H 229.691 0.0931561 -1.83263 0
M  V30 2302 H 228.073 2.33873 -3.19561 0
M  V30 2303 H 229.247 -0.148407 -4.60561 0
M  V30 2304 H 227.562 0.0241016 -4.16393 0
M  V30 2305 H 230.159 2.77558 -4.57018 0
M  V30 2306 H 230.502 3.01173 -2.87403 0
M  V30 2307 H 231.035 1.51529 -3.6781 0
M  V30 2308 H 227.774 0.587771 -6.52859 0
M  V30 2309 H 227.294 2.04987 -5.63685 0
M  V30 2310 H 228.973 1.855 -6.19838 0
M  V30 2311 N 229.106 1.52395 0.401703 0
M  V30 2312 C 230.039 1.70999 1.51111 0
M  V30 2313 C 231.017 0.55765 1.52738 0
M  V30 2314 O 232.201 0.785912 1.71335 0
M  V30 2315 C 229.328 1.75607 2.8962 0
M  V30 2316 C 228.374 2.97227 3.05873 0
M  V30 2317 S 229.207 4.57439 2.78405 0
M  V30 2318 C 230.363 4.64844 4.19131 0
M  V30 2319 H 230.596 2.6483 1.35102 0
M  V30 2320 H 228.129 1.42527 0.593762 0
M  V30 2321 H 230.087 1.78947 3.69443 0
M  V30 2322 H 228.748 0.828914 3.02965 0
M  V30 2323 H 227.941 2.96955 4.07227 0
M  V30 2324 H 227.543 2.91813 2.33925 0
M  V30 2325 H 229.835 4.42677 5.12877 0
M  V30 2326 H 230.778 5.66807 4.24424 0
M  V30 2327 H 231.186 3.93804 4.04448 0
M  V30 2328 N 230.584 -0.659388 1.43143 0
M  V30 2329 C 231.547 -1.75432 1.47501 0
M  V30 2330 C 232.547 -1.56707 0.360512 0
M  V30 2331 O 233.737 -1.62717 0.622002 0
M  V30 2332 C 230.869 -3.14239 1.32162 0
M  V30 2333 H 232.062 -1.7295 2.45006 0
M  V30 2334 H 229.615 -0.870469 1.29817 0
M  V30 2335 H 230.35 -3.22336 0.356401 0
M  V30 2336 H 230.135 -3.29235 2.12948 0
M  V30 2337 H 231.625 -3.94094 1.3813 0
M  V30 2338 N 232.062 -1.29571 -0.897171 0
M  V30 2339 C 233.478 -1.07637 -1.17841 0
M  V30 2340 C 233.678 0.170713 -2.00776 0
M  V30 2341 O 232.734 0.867768 -2.3712 0
M  V30 2342 C 234.047 -2.3332 -1.8969 0
M  V30 2343 C 235.595 -2.38664 -2.02505 0
M  V30 2344 C 236.07 -3.64157 -2.77765 0
M  V30 2345 N 237.561 -3.64894 -2.85318 0
M  V30 2346 C 238.296 -4.58679 -3.44094 0
M  V30 2347 N 237.792 -5.62799 -4.04017 0
M  V30 2348 N 239.585 -4.46245 -3.41793 0
M  V30 2349 H 231.736 -2.09598 -0.343883 0
M  V30 2350 H 233.999 -0.923333 -0.214848 0
M  V30 2351 H 233.705 -3.24262 -1.36187 0
M  V30 2352 H 233.579 -2.41025 -2.9015 0
M  V30 2353 H 235.966 -1.48208 -2.55183 0
M  V30 2354 H 236.047 -2.34943 -1.01171 0
M  V30 2355 H 235.691 -4.54965 -2.25763 0
M  V30 2356 H 235.621 -3.65137 -3.7945 0
M  V30 2357 H 238.112 -2.89613 -2.42761 0
M  V30 2358 H 238.425 -6.3048 -4.46895 0
M  V30 2359 H 236.77 -5.66605 -4.02472 0
M  V30 2360 H 239.961 -3.64094 -2.94199 0
M  V30 2361 H 240.134 -5.19518 -3.87304 0
M  V30 2362 N 233.54 1.10788 -1.12088 0
M  V30 2363 C 234.768 1.86461 -0.896651 0
M  V30 2364 C 235.183 1.80492 0.553912 0
M  V30 2365 O 234.54 1.19102 1.38278 0
M  V30 2366 C 234.591 3.35006 -1.35843 0
M  V30 2367 O 234.312 3.40866 -2.75213 0
M  V30 2368 C 235.813 4.27565 -1.1706 0
M  V30 2369 H 233.033 0.589425 -0.320654 0
M  V30 2370 H 235.577 1.40076 -1.48993 0
M  V30 2371 H 233.732 3.7887 -0.808458 0
M  V30 2372 H 234.146 4.33411 -2.9539 0
M  V30 2373 H 235.62 5.30007 -1.54263 0
M  V30 2374 H 236.097 4.3906 -0.110814 0
M  V30 2375 H 236.703 3.89501 -1.70789 0
M  V30 2376 N 235.018 0.912232 1.28515 0
M  V30 2377 C 236.295 0.463597 1.90027 0
M  V30 2378 C 236.675 -1.05753 1.82701 0
M  V30 2379 O 236.023 -1.90492 1.26194 0
M  V30 2380 C 236.233 0.992253 3.34597 0
M  V30 2381 C 237.581 1.04344 4.11579 0
M  V30 2382 O 238.605 0.94079 3.43551 0
M  V30 2383 O 237.464 1.1995 5.33174 0
M  V30 2384 H 234.558 0.146666 0.813891 0
M  V30 2385 H 237.104 1.00292 1.36893 0
M  V30 2386 H 235.876 2.03623 3.34146 0
M  V30 2387 H 235.499 0.433672 3.95228 0
M  V30 2388 N 236.496 -1.42363 0.676048 0
M  V30 2389 C 237.459 -2.29199 0.00766941 0
M  V30 2390 C 238.459 -1.43389 -0.727745 0
M  V30 2391 O 239.649 -1.64764 -0.56556 0
M  V30 2392 C 236.781 -3.2591 -0.999785 0
M  V30 2393 H 237.974 -2.89794 0.771988 0
M  V30 2394 H 235.527 -1.50024 0.438468 0
M  V30 2395 H 236.262 -2.70256 -1.79255 0
M  V30 2396 H 236.047 -3.89202 -0.475829 0
M  V30 2397 H 237.537 -3.91028 -1.46583 0
M  V30 2398 N 237.974 -0.419461 -1.51915 0
M  V30 2399 C 238.904 0.391813 -2.30189 0
M  V30 2400 C 239.885 1.03699 -1.34836 0
M  V30 2401 O 241.07 1.04403 -1.63748 0
M  V30 2402 C 238.2 1.50312 -3.13087 0
M  V30 2403 C 237.154 0.9824 -4.16573 0
M  V30 2404 C 236.48 2.18809 -4.8788 0
M  V30 2405 C 237.78 0.0292356 -5.22292 0
M  V30 2406 H 239.474 -0.26135 -2.98257 0
M  V30 2407 H 237.02 -0.127134 -1.43438 0
M  V30 2408 H 238.973 2.07773 -3.66617 0
M  V30 2409 H 237.697 2.18431 -2.42807 0
M  V30 2410 H 236.356 0.430119 -3.64068 0
M  V30 2411 H 236.004 2.85507 -4.14119 0
M  V30 2412 H 235.704 1.84615 -5.57845 0
M  V30 2413 H 237.228 2.76858 -5.44226 0
M  V30 2414 H 238.642 0.512976 -5.71 0
M  V30 2415 H 237.039 -0.2244 -5.9968 0
M  V30 2416 H 238.109 -0.912931 -4.76228 0
M  V30 2417 N 239.452 1.56882 -0.150215 0
M  V30 2418 C 240.415 2.1573 0.774157 0
M  V30 2419 C 241.415 1.0999 1.17298 0
M  V30 2420 O 242.605 1.35613 1.09338 0
M  V30 2421 C 239.737 2.72302 2.05096 0
M  V30 2422 H 240.93 2.98752 0.262201 0
M  V30 2423 H 238.483 1.55985 0.099248 0
M  V30 2424 H 239.218 1.92956 2.6065 0
M  V30 2425 H 239.003 3.49665 1.77416 0
M  V30 2426 H 240.493 3.17632 2.71109 0
M  V30 2427 N 240.93 -0.123565 1.57115 0
M  V30 2428 C 242.176 -0.833386 1.84885 0
M  V30 2429 C 242.509 -1.79742 0.735292 0
M  V30 2430 O 241.784 -1.92764 -0.25925 0
M  V30 2431 C 242.067 -1.5873 3.23228 0
M  V30 2432 C 241.92 -0.643183 4.45178 0
M  V30 2433 C 243.239 -2.54453 3.59085 0
M  V30 2434 H 240.358 -0.301518 0.6725 0
M  V30 2435 H 243 -0.097778 1.89748 0
M  V30 2436 H 241.15 -2.21438 3.19214 0
M  V30 2437 H 242.822 -0.0253015 4.61293 0
M  V30 2438 H 241.065 0.0456139 4.33776 0
M  V30 2439 H 241.736 -1.20724 5.38637 0
M  V30 2440 H 244.212 -2.01853 3.63861 0
M  V30 2441 H 243.088 -3.04238 4.5687 0
M  V30 2442 H 243.349 -3.36906 2.86264 0
M  V30 2443 N 242.408 -1.52605 -0.393616 0
M  V30 2444 C 243.318 -1.79971 -1.50492 0
M  V30 2445 C 244.334 -0.686181 -1.59899 0
M  V30 2446 O 245.51 -0.973274 -1.76322 0
M  V30 2447 C 242.575 -1.95867 -2.86072 0
M  V30 2448 C 241.636 -3.19781 -2.86424 0
M  V30 2449 C 240.869 -3.34909 -4.15538 0
M  V30 2450 O 241.092 -2.54948 -5.10253 0
M  V30 2451 O 240.026 -4.28141 -4.23059 0
M  V30 2452 H 243.852 -2.74328 -1.30299 0
M  V30 2453 H 241.437 -1.3764 -0.581005 0
M  V30 2454 H 243.319 -2.08056 -3.66457 0
M  V30 2455 H 241.994 -1.04699 -3.063 0
M  V30 2456 H 240.901 -3.13038 -2.04837 0
M  V30 2457 H 242.234 -4.1078 -2.71147 0
M  V30 2458 N 243.887 0.651787 -1.4349 0
M  V30 2459 C 245.135 1.40888 -1.44897 0
M  V30 2460 C 245.456 1.94856 -0.0749086 0
M  V30 2461 O 244.726 1.74518 0.889956 0
M  V30 2462 H 243.306 0.522887 -0.533478 0
M  V30 2463 H 245.968 0.768609 -1.79104 0
M  V30 2464 H 245.064 2.25052 -2.16236 0
M  V30 2465 N 245.365 1.30045 0.890287 0
M  V30 2466 C 246.295 1.18541 2.01172 0
M  V30 2467 C 247.276 0.0773356 1.69924 0
M  V30 2468 O 248.461 0.25845 1.92473 0
M  V30 2469 C 245.591 0.870941 3.36202 0
M  V30 2470 C 244.545 1.93637 3.81692 0
M  V30 2471 C 243.871 1.475 5.13953 0
M  V30 2472 C 245.171 3.34666 4.00994 0
M  V30 2473 H 246.865 2.12359 2.11054 0
M  V30 2474 H 244.411 1.02238 1.01407 0
M  V30 2475 H 246.364 0.777141 4.14172 0
M  V30 2476 H 245.088 -0.102926 3.26438 0
M  V30 2477 H 243.747 2.01972 3.05946 0
M  V30 2478 H 243.395 0.489551 5.00612 0
M  V30 2479 H 243.095 2.1876 5.4536 0
M  V30 2480 H 244.619 1.39489 5.94454 0
M  V30 2481 H 246.033 3.2912 4.69417 0
M  V30 2482 H 244.43 4.03966 4.43769 0
M  V30 2483 H 245.5 3.76949 3.05021 0
M  V30 2484 N 246.843 -1.10192 1.12674 0
M  V30 2485 C 248.12 -1.78717 0.794965 0
M  V30 2486 C 248.5 -1.98628 -0.714853 0
M  V30 2487 O 247.848 -1.58135 -1.64941 0
M  V30 2488 C 248.058 -3.11546 1.5729 0
M  V30 2489 C 249.406 -3.86382 1.76052 0
M  V30 2490 O 250.43 -3.21274 1.53823 0
M  V30 2491 O 249.289 -5.03246 2.13087 0
M  V30 2492 H 246.383 -0.774702 0.289423 0
M  V30 2493 H 248.929 -1.16819 1.23091 0
M  V30 2494 H 247.701 -2.92489 2.59935 0
M  V30 2495 H 247.324 -3.81164 1.13137 0
M  V30 2496 N 248.321 -0.919034 -1.28029 0
M  V30 2497 C 249.284 -0.416182 -2.2539 0
M  V30 2498 C 250.284 0.460438 -1.54067 0
M  V30 2499 O 251.474 0.262744 -1.72207 0
M  V30 2500 C 248.606 0.402707 -3.38513 0
M  V30 2501 H 249.799 -1.27629 -2.71387 0
M  V30 2502 H 247.352 -0.698919 -1.39803 0
M  V30 2503 H 248.087 1.282 -2.97885 0
M  V30 2504 H 247.872 -0.225698 -3.9145 0
M  V30 2505 H 249.362 0.745191 -4.10897 0
M  V30 2506 N 249.799 1.42003 -0.683588 0
M  V30 2507 C 250.762 2.29191 -0.0198243 0
M  V30 2508 C 251.762 1.43773 0.72013 0
M  V30 2509 O 252.952 1.65061 0.556815 0
M  V30 2510 C 250.084 3.26435 0.982487 0
M  V30 2511 H 251.277 2.8938 -0.787345 0
M  V30 2512 H 248.83 1.49789 -0.446418 0
M  V30 2513 H 249.565 2.71203 1.77819 0
M  V30 2514 H 249.35 3.89449 0.455182 0
M  V30 2515 H 250.84 3.918 1.44508 0
M  V30 2516 N 251.277 0.427512 1.51691 0
M  V30 2517 C 252.526 -0.143679 2.01188 0
M  V30 2518 C 252.839 -1.44642 1.31674 0
M  V30 2519 O 254.045 -2.09997 1.72086 0
M  V30 2520 C 252.501 -0.306602 3.58592 0
M  V30 2521 C 252.109 0.985125 4.37035 0
M  V30 2522 C 253.853 -0.832091 4.16265 0
M  V30 2523 C 251.76 0.788382 5.86122 0
M  V30 2524 H 250.69 -0.0574701 0.751807 0
M  V30 2525 H 253.341 0.555772 1.74881 0
M  V30 2526 H 251.723 -1.06882 3.81303 0
M  V30 2527 H 252.897 1.75492 4.26074 0
M  V30 2528 H 251.212 1.4384 3.90767 0
M  V30 2529 H 253.809 -0.995617 5.25349 0
M  V30 2530 H 254.152 -1.81186 3.74803 0
M  V30 2531 H 254.685 -0.128444 3.97593 0
M  V30 2532 H 251.424 1.74025 6.31978 0
M  V30 2533 H 250.944 0.0582143 5.99772 0
M  V30 2534 H 252.623 0.437722 6.45518 0
M  V30 2535 N 252.755 -1.56801 0.158532 0
M  V30 2536 C 253.665 -2.20916 -0.789518 0
M  V30 2537 C 254.681 -1.1969 -1.26294 0
M  V30 2538 O 255.857 -1.52308 -1.31773 0
M  V30 2539 C 252.922 -2.82727 -2.00665 0
M  V30 2540 C 251.983 -3.99114 -1.58134 0
M  V30 2541 C 251.216 -4.57968 -2.74045 0
M  V30 2542 O 251.439 -4.15704 -3.90572 0
M  V30 2543 O 250.373 -5.48047 -2.48855 0
M  V30 2544 H 254.199 -3.02464 -0.273681 0
M  V30 2545 H 251.784 -1.4924 -0.0690548 0
M  V30 2546 H 253.666 -3.21968 -2.71872 0
M  V30 2547 H 252.341 -2.04184 -2.51179 0
M  V30 2548 H 251.248 -3.64567 -0.839155 0
M  V30 2549 H 252.581 -4.79212 -1.12325 0
M  V30 2550 N 254.233 0.115231 -1.57178 0
M  V30 2551 C 255.649 0.468877 -1.52557 0
M  V30 2552 C 255.849 1.81649 -0.872125 0
M  V30 2553 O 254.905 2.48347 -0.45606 0
M  V30 2554 C 256.218 0.4499 -2.97315 0
M  V30 2555 C 257.766 0.533185 -3.08425 0
M  V30 2556 C 258.241 0.54456 -4.54751 0
M  V30 2557 N 259.732 0.605892 -4.5922 0
M  V30 2558 C 260.467 0.636203 -5.6986 0
M  V30 2559 N 259.963 0.623931 -6.89985 0
M  V30 2560 N 261.756 0.679496 -5.57978 0
M  V30 2561 H 253.907 -0.767712 -1.9804 0
M  V30 2562 H 256.17 -0.283609 -0.904583 0
M  V30 2563 H 255.876 -0.472721 -3.48509 0
M  V30 2564 H 255.75 1.27632 -3.5495 0
M  V30 2565 H 258.137 1.44623 -2.57232 0
M  V30 2566 H 258.218 -0.320995 -2.53778 0
M  V30 2567 H 257.862 -0.364452 -5.06591 0
M  V30 2568 H 257.792 1.41568 -5.07214 0
M  V30 2569 H 260.283 0.621386 -3.72756 0
M  V30 2570 H 260.596 0.649787 -7.70063 0
M  V30 2571 H 258.941 0.591296 -6.9248 0
M  V30 2572 H 262.132 0.686472 -4.63039 0
M  V30 2573 H 262.305 0.69965 -6.44212 0
M  V30 2574 N 255.711 1.52812 0.385517 0
M  V30 2575 C 256.674 1.77188 1.45386 0
M  V30 2576 C 257.674 0.641953 1.4743 0
M  V30 2577 O 258.864 0.910033 1.4854 0
M  V30 2578 C 255.996 1.87582 2.8465 0
M  V30 2579 H 257.189 2.72583 1.25054 0
M  V30 2580 H 254.742 1.43586 0.617467 0
M  V30 2581 H 255.477 0.941849 3.10322 0
M  V30 2582 H 255.262 2.69748 2.84567 0
M  V30 2583 H 256.752 2.08102 3.62054 0
M  V30 2584 N 257.189 -0.644168 1.43834 0
M  V30 2585 C 258.121 -1.76955 1.45669 0
M  V30 2586 C 259.134 -1.58956 0.351666 0
M  V30 2587 O 260.323 -1.6751 0.616644 0
M  V30 2588 C 257.423 -3.14507 1.26248 0
M  V30 2589 C 256.596 -3.59083 2.49757 0
M  V30 2590 C 255.655 -4.75467 2.25427 0
M  V30 2591 O 254.681 -4.84444 2.98836 0
M  V30 2592 N 255.883 -5.66289 1.27661 0
M  V30 2593 H 258.648 -1.75856 2.42682 0
M  V30 2594 H 256.209 -0.828312 1.39106 0
M  V30 2595 H 258.201 -3.90067 1.0784 0
M  V30 2596 H 256.771 -3.10325 0.376478 0
M  V30 2597 H 255.991 -2.7387 2.8353 0
M  V30 2598 H 257.279 -3.85613 3.31934 0
M  V30 2599 H 256.677 -5.61718 0.670064 0
M  V30 2600 H 255.234 -6.41533 1.15234 0
M  V30 2601 N 258.668 -1.30515 -0.883378 0
M  V30 2602 C 259.631 -1.1701 -1.97082 0
M  V30 2603 C 260.631 -0.10089 -1.60483 0
M  V30 2604 O 261.821 -0.349127 -1.70666 0
M  V30 2605 C 258.953 -0.793045 -3.31547 0
M  V30 2606 H 260.146 -2.13622 -2.10489 0
M  V30 2607 H 257.699 -1.13935 -1.06998 0
M  V30 2608 H 258.434 0.172499 -3.23841 0
M  V30 2609 H 258.219 -1.56576 -3.5948 0
M  V30 2610 H 259.709 -0.722073 -4.1131 0
M  V30 2611 N 260.146 1.09593 -1.13257 0
M  V30 2612 C 261.376 1.85231 -0.915049 0
M  V30 2613 C 261.784 1.81345 0.539498 0
M  V30 2614 O 261.127 1.20664 1.38513 0
M  V30 2615 C 261.189 3.34275 -1.3229 0
M  V30 2616 C 260.853 3.6191 -2.79052 0
M  V30 2617 C 261.85 3.57777 -3.77216 0
M  V30 2618 C 259.535 3.90309 -3.16171 0
M  V30 2619 C 261.529 3.81652 -5.1051 0
M  V30 2620 C 259.216 4.13839 -4.49644 0
M  V30 2621 C 260.214 4.09502 -5.46623 0
M  V30 2622 O 259.902 4.32426 -6.77689 0
M  V30 2623 H 259.634 0.591997 -0.326367 0
M  V30 2624 H 262.188 1.394 -1.50854 0
M  V30 2625 H 260.418 3.80805 -0.672667 0
M  V30 2626 H 262.107 3.9132 -1.07812 0
M  V30 2627 H 262.873 3.35865 -3.49885 0
M  V30 2628 H 258.752 3.92811 -2.41289 0
M  V30 2629 H 262.296 3.78182 -5.86195 0
M  V30 2630 H 258.193 4.35232 -4.767 0
M  V30 2631 H 258.961 4.49896 -6.83766 0
M  V30 2632 N 261.624 0.925811 1.2754 0
M  V30 2633 C 262.87 0.566092 1.94739 0
M  V30 2634 C 263.203 -0.890057 1.72603 0
M  V30 2635 O 262.478 -1.63467 1.05399 0
M  V30 2636 C 262.761 0.89054 3.48915 0
M  V30 2637 C 262.614 2.4003 3.80402 0
M  V30 2638 C 263.933 0.395101 4.38323 0
M  V30 2639 H 261.052 0.20714 0.707292 0
M  V30 2640 H 263.694 1.15725 1.50691 0
M  V30 2641 H 261.844 0.387452 3.86563 0
M  V30 2642 H 263.516 2.97494 3.52555 0
M  V30 2643 H 261.759 2.85028 3.2702 0
M  V30 2644 H 262.43 2.57785 4.8811 0
M  V30 2645 H 264.906 0.826241 4.07814 0
M  V30 2646 H 263.782 0.651086 5.45025 0
M  V30 2647 H 264.043 -0.704798 4.36446 0
M  V30 2648 N 263.102 -1.41638 0.69111 0
M  V30 2649 C 264.012 -2.34588 0.0233487 0
M  V30 2650 C 265.028 -1.55987 -0.770984 0
M  V30 2651 O 266.204 -1.88486 -0.709569 0
M  V30 2652 C 263.269 -3.34684 -0.904851 0
M  V30 2653 C 262.33 -4.29176 -0.103225 0
M  V30 2654 C 261.563 -5.2449 -0.987216 0
M  V30 2655 O 261.786 -5.2514 -2.22674 0
M  V30 2656 O 260.72 -6.00295 -0.439281 0
M  V30 2657 H 264.546 -2.93261 0.789416 0
M  V30 2658 H 262.131 -1.42417 0.45142 0
M  V30 2659 H 264.013 -3.96133 -1.43724 0
M  V30 2660 H 262.688 -2.78461 -1.65049 0
M  V30 2661 H 261.595 -3.71089 0.473655 0
M  V30 2662 H 262.928 -4.88484 0.60365 0
M  V30 2663 N 264.58 -0.43555 -1.51462 0
M  V30 2664 C 265.543 0.365137 -2.26273 0
M  V30 2665 C 266.543 0.951227 -1.29647 0
M  V30 2666 O 267.733 0.825958 -1.53374 0
M  V30 2667 C 264.865 1.51645 -3.05314 0
M  V30 2668 H 266.058 -0.290474 -2.9849 0
M  V30 2669 H 263.611 -0.188676 -1.55157 0
M  V30 2670 H 264.346 2.20816 -2.3751 0
M  V30 2671 H 264.131 1.10238 -3.76284 0
M  V30 2672 H 265.621 2.08218 -3.61987 0
M  V30 2673 N 266.058 1.56714 -0.166846 0
M  V30 2674 C 267.306 1.96358 0.478305 0
M  V30 2675 C 267.627 1.0537 1.6408 0
M  V30 2676 O 266.897 0.119154 1.95537 0
M  V30 2677 H 265.477 0.725065 0.179692 0
M  V30 2678 H 268.139 1.93329 -0.246985 0
M  V30 2679 H 267.235 3.00547 0.841292 0
M  V30 2680 N 267.536 -0.106894 1.57237 0
M  V30 2681 C 268.499 -1.11466 2.0027 0
M  V30 2682 C 269.499 -1.33623 0.894519 0
M  V30 2683 O 270.689 -1.29935 1.16028 0
M  V30 2684 C 267.821 -2.46646 2.35327 0
M  V30 2685 H 269.014 -0.744516 2.90512 0
M  V30 2686 H 266.567 -0.351576 1.52295 0
M  V30 2687 H 267.302 -2.88558 1.48003 0
M  V30 2688 H 267.087 -2.31915 3.16161 0
M  V30 2689 H 268.577 -3.19151 2.69318 0
M  V30 2690 N 269.014 -1.53014 -0.377408 0
M  V30 2691 C 269.924 -1.81557 -1.48574 0
M  V30 2692 C 270.94 -0.703102 -1.59162 0
M  V30 2693 O 272.116 -0.99192 -1.75279 0
M  V30 2694 C 269.181 -1.9889 -2.83978 0
M  V30 2695 C 268.242 -3.22801 -2.83016 0
M  V30 2696 C 267.475 -3.39298 -4.11962 0
M  V30 2697 O 267.698 -2.60345 -5.0752 0
M  V30 2698 O 266.632 -4.32604 -4.18494 0
M  V30 2699 H 270.458 -2.75695 -1.27382 0
M  V30 2700 H 268.043 -1.38248 -0.566373 0
M  V30 2701 H 269.925 -2.11931 -3.6423 0
M  V30 2702 H 268.6 -1.07942 -3.05172 0
M  V30 2703 H 267.507 -3.15193 -2.01505 0
M  V30 2704 H 268.84 -4.13632 -2.66775 0
M  V30 2705 N 270.492 0.636531 -1.44174 0
M  V30 2706 C 271.425 1.76139 -1.45087 0
M  V30 2707 C 272.403 1.59611 -0.310326 0
M  V30 2708 O 273.587 1.81568 -0.506477 0
M  V30 2709 C 270.714 3.13648 -1.27839 0
M  V30 2710 C 269.76 3.48838 -2.45386 0
M  V30 2711 S 270.593 3.46927 -4.07924 0
M  V30 2712 C 271.749 4.87064 -3.9309 0
M  V30 2713 H 271.982 1.75096 -2.40268 0
M  V30 2714 H 269.515 0.810666 -1.31406 0
M  V30 2715 H 271.473 3.93002 -1.18575 0
M  V30 2716 H 270.134 3.12235 -0.341787 0
M  V30 2717 H 269.327 4.48886 -2.29167 0
M  V30 2718 H 268.929 2.76935 -2.51362 0
M  V30 2719 H 271.221 5.76153 -3.56446 0
M  V30 2720 H 272.164 5.08337 -4.92949 0
M  V30 2721 H 272.572 4.61384 -3.25246 0
M  V30 2722 N 271.97 1.30982 0.876444 0
M  V30 2723 C 272.9 1.20668 1.99903 0
M  V30 2724 C 273.881 0.095354 1.69833 0
M  V30 2725 O 275.066 0.27885 1.92188 0
M  V30 2726 C 272.196 0.90655 3.3526 0
M  V30 2727 C 271.15 1.97675 3.79617 0
M  V30 2728 C 270.476 1.52943 5.1236 0
M  V30 2729 C 271.776 3.389 3.97422 0
M  V30 2730 H 273.47 2.14586 2.0879 0
M  V30 2731 H 271.016 1.03308 1.00317 0
M  V30 2732 H 272.969 0.821025 4.13324 0
M  V30 2733 H 271.693 -0.0682969 3.26529 0
M  V30 2734 H 270.352 2.05205 3.03787 0
M  V30 2735 H 270 0.54262 5.00065 0
M  V30 2736 H 269.7 2.24532 5.43009 0
M  V30 2737 H 271.224 1.45786 5.92941 0
M  V30 2738 H 272.638 3.34081 4.659 0
M  V30 2739 H 271.035 4.0865 4.3946 0
M  V30 2740 H 272.105 3.80163 3.01006 0
M  V30 2741 N 273.449 -1.08991 1.13837 0
M  V30 2742 C 274.696 -1.81258 0.902882 0
M  V30 2743 C 275.024 -1.85936 -0.570803 0
M  V30 2744 O 274.279 -1.3267 -1.43865 0
M  V30 2745 C 274.578 -3.27042 1.44147 0
M  V30 2746 C 274.244 -3.4249 2.93276 0
M  V30 2747 C 272.906 -3.46414 3.33992 0
M  V30 2748 C 275.258 -3.4666 3.892 0
M  V30 2749 C 272.586 -3.52091 4.69307 0
M  V30 2750 C 274.938 -3.53872 5.24364 0
M  V30 2751 C 273.602 -3.56066 5.646 0
M  V30 2752 H 272.872 -0.663268 0.330388 0
M  V30 2753 H 275.519 -1.28368 1.42105 0
M  V30 2754 H 273.824 -3.82599 0.844097 0
M  V30 2755 H 275.521 -3.81499 1.23528 0
M  V30 2756 H 272.111 -3.40124 2.60794 0
M  V30 2757 H 276.295 -3.42865 3.58828 0
M  V30 2758 H 271.551 -3.52079 4.9985 0
M  V30 2759 H 275.725 -3.56043 5.98503 0
M  V30 2760 H 273.352 -3.60218 6.69438 0
M  V30 2761 N 274.927 -0.932562 -1.27047 0
M  V30 2762 C 276.338 -0.619451 -1.76124 0
M  V30 2763 C 276.689 0.865397 -1.76083 0
M  V30 2764 O 275.814 1.67722 -1.36742 0
M  V30 2765 C 276.409 -1.11771 -3.19832 0
M  V30 2766 C 274.968 -0.855174 -3.66557 0
M  V30 2767 C 274.115 -1.27362 -2.46321 0
M  V30 2768 H 277.066 -1.11181 -1.13245 0
M  V30 2769 H 277.087 -0.46759 -3.77616 0
M  V30 2770 H 276.599 -2.19842 -3.1983 0
M  V30 2771 H 274.7 0.211524 -3.71999 0
M  V30 2772 H 274.813 -1.47613 -4.55793 0
M  V30 2773 H 273.177 -0.692119 -2.45116 0
M  V30 2774 H 273.96 -2.36307 -2.49025 0
M  V30 2775 N 276.405 1.4127 -0.698611 0
M  V30 2776 C 277.315 2.34573 -0.0357891 0
M  V30 2777 C 278.331 1.56393 0.762701 0
M  V30 2778 O 279.507 1.8886 0.699564 0
M  V30 2779 C 276.572 3.35159 0.887089 0
M  V30 2780 C 275.633 4.29225 0.0804634 0
M  V30 2781 C 274.866 5.25006 0.959387 0
M  V30 2782 O 275.089 5.26314 2.19886 0
M  V30 2783 O 274.023 6.00519 0.407439 0
M  V30 2784 H 277.849 2.92838 -0.804957 0
M  V30 2785 H 275.434 1.42175 -0.458966 0
M  V30 2786 H 277.316 3.9689 1.41621 0
M  V30 2787 H 275.991 2.79333 1.6357 0
M  V30 2788 H 274.898 3.70833 -0.493328 0
M  V30 2789 H 276.231 4.88157 -0.629547 0
M  V30 2790 N 277.883 0.443576 1.51229 0
M  V30 2791 C 278.846 -0.353132 2.26463 0
M  V30 2792 C 279.846 -0.944338 1.3015 0
M  V30 2793 O 281.036 -0.817813 1.5381 0
M  V30 2794 C 278.168 -1.50023 3.06114 0
M  V30 2795 H 279.361 0.3063 2.98332 0
M  V30 2796 H 276.914 0.196902 1.55055 0
M  V30 2797 H 277.649 -2.19553 2.38677 0
M  V30 2798 H 277.434 -1.08241 3.76864 0
M  V30 2799 H 278.924 -2.06296 3.63087 0
M  V30 2800 N 279.361 -1.56624 0.175154 0
M  V30 2801 C 280.61 -1.96173 -0.468921 0
M  V30 2802 C 280.923 -1.06401 -1.64128 0
M  V30 2803 O 282.129 -1.35648 -2.35185 0
M  V30 2804 C 280.585 -3.48833 -0.885633 0
M  V30 2805 C 280.193 -4.47237 0.261343 0
M  V30 2806 C 281.937 -3.97194 -1.49791 0
M  V30 2807 C 279.844 -5.9114 -0.175214 0
M  V30 2808 H 278.774 -0.732455 -0.178958 0
M  V30 2809 H 281.425 -1.81591 0.263997 0
M  V30 2810 H 279.807 -3.58848 -1.67464 0
M  V30 2811 H 280.981 -4.4894 1.03871 0
M  V30 2812 H 279.296 -4.08956 0.783827 0
M  V30 2813 H 281.893 -5.02167 -1.83665 0
M  V30 2814 H 282.236 -3.40351 -2.39722 0
M  V30 2815 H 282.769 -3.90212 -0.773267 0
M  V30 2816 H 279.508 -6.51865 0.689414 0
M  V30 2817 H 279.028 -5.92735 -0.91786 0
M  V30 2818 H 280.707 -6.44044 -0.617792 0
M  V30 2819 N 280.839 0.0985539 -1.57292 0
M  V30 2820 C 282.067 0.816318 -1.90115 0
M  V30 2821 C 282.482 1.72451 -0.768509 0
M  V30 2822 O 281.839 1.80643 0.259687 0
M  V30 2823 C 281.89 1.63259 -3.22535 0
M  V30 2824 O 281.611 0.760934 -4.31441 0
M  V30 2825 C 283.112 2.45372 -3.69199 0
M  V30 2826 H 280.332 0.233595 -0.629027 0
M  V30 2827 H 282.876 0.0768229 -2.04356 0
M  V30 2828 H 281.031 2.32463 -3.09903 0
M  V30 2829 H 281.445 1.32595 -5.07463 0
M  V30 2830 H 282.919 2.98144 -4.64558 0
M  V30 2831 H 283.396 3.23677 -2.96867 0
M  V30 2832 H 284.002 1.81373 -3.84687 0
M  V30 2833 N 282.317 1.53212 0.369288 0
M  V30 2834 C 283.227 1.82342 1.47609 0
M  V30 2835 C 284.243 0.711532 1.58787 0
M  V30 2836 O 285.419 1.0012 1.74751 0
M  V30 2837 C 282.484 2.00393 2.8292 0
M  V30 2838 C 281.545 3.24297 2.81301 0
M  V30 2839 C 280.778 3.41478 4.10157 0
M  V30 2840 O 281.001 2.63033 5.06132 0
M  V30 2841 O 279.935 4.34817 4.16194 0
M  V30 2842 H 283.761 2.76366 1.25918 0
M  V30 2843 H 281.346 1.38547 0.559034 0
M  V30 2844 H 283.228 2.13859 3.63101 0
M  V30 2845 H 281.903 1.09559 3.04596 0
M  V30 2846 H 280.81 3.16257 1.99831 0
M  V30 2847 H 282.143 4.15041 2.64578 0
M  V30 2848 N 283.795 -0.628877 1.44509 0
M  V30 2849 C 284.725 -1.75187 1.54376 0
M  V30 2850 C 285.706 -1.65411 0.396618 0
M  V30 2851 O 286.891 -1.84137 0.617031 0
M  V30 2852 C 284.021 -3.13725 1.48976 0
M  V30 2853 C 282.975 -3.38291 2.62189 0
M  V30 2854 C 282.301 -4.76883 2.41841 0
M  V30 2855 C 283.601 -3.30632 4.04326 0
M  V30 2856 H 285.295 -1.67187 2.48373 0
M  V30 2857 H 282.841 -0.802909 1.19538 0
M  V30 2858 H 284.794 -3.92064 1.54478 0
M  V30 2859 H 283.518 -3.22515 0.514961 0
M  V30 2860 H 282.177 -2.62334 2.56079 0
M  V30 2861 H 281.825 -4.82378 1.42548 0
M  V30 2862 H 281.525 -4.94278 3.17747 0
M  V30 2863 H 283.049 -5.57449 2.49165 0
M  V30 2864 H 284.463 -3.98873 4.11793 0
M  V30 2865 H 282.86 -3.59561 4.80454 0
M  V30 2866 H 283.93 -2.28404 4.27738 0
M  V30 2867 N 285.273 -1.31445 -0.869486 0
M  V30 2868 C 286.236 -1.19094 -1.9583 0
M  V30 2869 C 287.236 -0.117906 -1.60367 0
M  V30 2870 O 288.426 -0.367208 -1.70286 0
M  V30 2871 C 285.558 -0.828165 -3.30688 0
M  V30 2872 H 286.751 -2.15842 -2.08212 0
M  V30 2873 H 284.304 -1.15063 -1.05784 0
M  V30 2874 H 285.039 0.138142 -3.24006 0
M  V30 2875 H 284.824 -1.6038 -3.578 0
M  V30 2876 H 286.314 -0.765658 -4.10521 0
M  V30 2877 N 286.751 1.08385 -1.14413 0
M  V30 2878 C 287.684 2.14642 -0.774871 0
M  V30 2879 C 288.662 1.60761 0.243876 0
M  V30 2880 O 289.846 1.88031 0.132883 0
M  V30 2881 C 286.973 3.38366 -0.150491 0
M  V30 2882 C 286.019 4.10997 -1.13945 0
M  V30 2883 S 286.852 4.63797 -2.67679 0
M  V30 2884 C 288.008 5.90808 -2.06631 0
M  V30 2885 H 288.241 2.45633 -1.67487 0
M  V30 2886 H 285.774 1.20498 -0.96538 0
M  V30 2887 H 287.732 4.09996 0.203334 0
M  V30 2888 H 286.393 3.05572 0.72694 0
M  V30 2889 H 285.586 4.99783 -0.65059 0
M  V30 2890 H 285.188 3.4528 -1.43727 0
M  V30 2891 H 287.48 6.62411 -1.4219 0
M  V30 2892 H 288.423 6.4439 -2.93542 0
M  V30 2893 H 288.831 5.4383 -1.51357 0
M  V30 2894 N 288.23 0.939286 1.26551 0
M  V30 2895 C 289.46 0.601663 1.97645 0
M  V30 2896 C 289.868 -0.827206 1.70159 0
M  V30 2897 O 289.211 -1.56291 0.965338 0
M  V30 2898 C 289.273 0.761725 3.51337 0
M  V30 2899 C 288.937 2.16487 4.0247 0
M  V30 2900 C 289.934 3.14016 4.14355 0
M  V30 2901 C 287.619 2.48494 4.36527 0
M  V30 2902 C 289.613 4.41654 4.59587 0
M  V30 2903 C 287.3 3.76364 4.81449 0
M  V30 2904 C 288.298 4.72758 4.92939 0
M  V30 2905 O 287.986 5.98352 5.36871 0
M  V30 2906 H 287.718 0.225758 0.637189 0
M  V30 2907 H 290.272 1.26178 1.62075 0
M  V30 2908 H 288.502 0.0444808 3.86674 0
M  V30 2909 H 290.191 0.427442 4.03643 0
M  V30 2910 H 290.957 2.90613 3.8829 0
M  V30 2911 H 286.836 1.74202 4.26819 0
M  V30 2912 H 290.38 5.16896 4.68471 0
M  V30 2913 H 286.277 3.99582 5.06956 0
M  V30 2914 H 287.045 6.01507 5.55096 0
M  V30 2915 N 289.708 -1.40897 0.706093 0
M  V30 2916 C 291.124 -1.55042 0.37869 0
M  V30 2917 C 291.324 -1.67944 -1.11342 0
M  V30 2918 O 290.38 -1.66372 -1.89938 0
M  V30 2919 C 291.693 -2.78398 1.13643 0
M  V30 2920 C 293.241 -2.92206 1.12181 0
M  V30 2921 C 293.716 -4.18463 1.86152 0
M  V30 2922 N 295.207 -4.25443 1.83173 0
M  V30 2923 C 295.942 -5.2202 2.37239 0
M  V30 2924 N 295.438 -6.24563 2.99821 0
M  V30 2925 N 297.231 -5.14033 2.27435 0
M  V30 2926 H 289.382 -1.30769 1.67372 0
M  V30 2927 H 291.645 -0.631653 0.706907 0
M  V30 2928 H 291.351 -2.7511 2.19106 0
M  V30 2929 H 291.225 -3.70228 0.721853 0
M  V30 2930 H 293.612 -2.95004 0.0754171 0
M  V30 2931 H 293.693 -2.01521 1.57554 0
M  V30 2932 H 293.337 -4.16427 2.90776 0
M  V30 2933 H 293.267 -5.08141 1.38206 0
M  V30 2934 H 295.758 -3.51976 1.37556 0
M  V30 2935 H 296.071 -6.94665 3.38616 0
M  V30 2936 H 294.416 -6.25035 3.03902 0
M  V30 2937 H 297.607 -4.3285 1.78208 0
M  V30 2938 H 297.78 -5.89129 2.69873 0
M  V30 2939 N 291.186 -0.45159 -1.50991 0
M  V30 2940 C 292.118 0.388634 -2.25881 0
M  V30 2941 C 293.131 0.974041 -1.30446 0
M  V30 2942 O 294.32 0.865758 -1.56099 0
M  V30 2943 C 291.42 1.5571 -3.01011 0
M  V30 2944 C 290.593 1.08801 -4.23652 0
M  V30 2945 C 289.652 2.12825 -4.8124 0
M  V30 2946 O 288.678 1.71678 -5.42693 0
M  V30 2947 N 289.88 3.45453 -4.66522 0
M  V30 2948 H 292.645 -0.25329 -2.98628 0
M  V30 2949 H 290.206 -0.281268 -1.59438 0
M  V30 2950 H 292.198 2.24952 -3.3642 0
M  V30 2951 H 290.768 2.10409 -2.31186 0
M  V30 2952 H 289.988 0.22215 -3.93574 0
M  V30 2953 H 291.276 0.752213 -5.03209 0
M  V30 2954 H 290.674 3.81605 -4.17605 0
M  V30 2955 H 289.231 4.10549 -5.06254 0
M  V30 2956 N 292.664 1.56529 -0.183458 0
M  V30 2957 C 293.911 1.97244 0.458357 0
M  V30 2958 C 294.239 1.06992 1.62428 0
M  V30 2959 O 293.494 0.106542 1.9541 0
M  V30 2960 C 293.793 3.43939 0.971637 0
M  V30 2961 C 293.459 4.5083 -0.0796784 0
M  V30 2962 C 292.121 4.79786 -0.368584 0
M  V30 2963 C 294.473 5.15138 -0.792638 0
M  V30 2964 C 291.801 5.70345 -1.37563 0
M  V30 2965 C 294.153 6.06784 -1.78875 0
M  V30 2966 C 292.817 6.34102 -2.08497 0
M  V30 2967 H 292.087 0.721768 0.167725 0
M  V30 2968 H 294.734 1.89472 -0.277976 0
M  V30 2969 H 293.039 3.48724 1.78602 0
M  V30 2970 H 294.736 3.72791 1.47744 0
M  V30 2971 H 291.326 4.28317 0.155668 0
M  V30 2972 H 295.51 4.92868 -0.582659 0
M  V30 2973 H 290.766 5.89789 -1.61118 0
M  V30 2974 H 294.94 6.55677 -2.3465 0
M  V30 2975 H 292.567 7.04074 -2.86678 0
M  V30 2976 N 294.142 -0.090211 1.57342 0
M  V30 2977 C 295.105 -1.09335 2.01441 0
M  V30 2978 C 296.105 -1.32666 0.908641 0
M  V30 2979 O 297.295 -1.28697 1.174 0
M  V30 2980 C 294.427 -2.44136 2.3793 0
M  V30 2981 H 295.62 -0.713662 2.91285 0
M  V30 2982 H 293.173 -0.335404 1.52659 0
M  V30 2983 H 293.908 -2.86972 1.51055 0
M  V30 2984 H 293.693 -2.28548 3.18603 0
M  V30 2985 H 295.183 -3.16277 2.72688 0
M  V30 2986 N 295.62 -1.53406 -0.361157 0
M  V30 2987 C 296.897 -1.60411 -1.11927 0
M  V30 2988 C 297.277 -0.414385 -2.06993 0
M  V30 2989 O 296.625 0.594976 -2.20618 0
M  V30 2990 C 296.835 -2.95652 -1.85448 0
M  V30 2991 C 298.183 -3.50386 -2.39823 0
M  V30 2992 O 299.207 -2.97711 -1.95568 0
M  V30 2993 O 298.066 -4.42482 -3.20737 0
M  V30 2994 H 295.16 -0.64811 -0.513695 0
M  V30 2995 H 297.706 -1.65749 -0.364065 0
M  V30 2996 H 296.478 -3.73682 -1.16091 0
M  V30 2997 H 296.101 -2.93825 -2.67866 0
M  V30 2998 N 297.098 0.621204 -1.44841 0
M  V30 2999 C 298.061 1.71459 -1.521 0
M  V30 3000 C 299.061 1.55696 -0.401933 0
M  V30 3001 O 300.251 1.61011 -0.664925 0
M  V30 3002 C 297.383 3.10624 -1.40447 0
M  V30 3003 H 298.576 1.66394 -2.49506 0
M  V30 3004 H 296.129 0.835745 -1.3208 0
M  V30 3005 H 296.864 3.21277 -0.441737 0
M  V30 3006 H 296.649 3.23473 -2.21602 0
M  V30 3007 H 298.139 3.90293 -1.4853 0
M  V30 3008 N 298.576 1.31904 0.862503 0
M  V30 3009 C 299.822 1.22197 1.61851 0
M  V30 3010 C 300.155 -0.217641 1.92977 0
M  V30 3011 O 299.43 -1.15264 1.56666 0
M  V30 3012 C 299.713 2.07378 2.94391 0
M  V30 3013 C 299.566 3.59678 2.70096 0
M  V30 3014 C 300.885 1.92891 3.95577 0
M  V30 3015 H 298.004 0.445255 0.587296 0
M  V30 3016 H 300.646 1.6177 0.99651 0
M  V30 3017 H 298.796 1.73758 3.47477 0
M  V30 3018 H 300.468 4.03472 2.23625 0
M  V30 3019 H 298.711 3.82735 2.04197 0
M  V30 3020 H 299.382 4.14595 3.64438 0
M  V30 3021 H 301.858 2.22327 3.51724 0
M  V30 3022 H 300.734 2.54781 4.86187 0
M  V30 3023 H 300.995 0.894315 4.3296 0
M  V30 3024 N 300.054 -1.07777 1.14986 0
M  V30 3025 C 300.986 -2.14769 0.800436 0
M  V30 3026 C 301.999 -1.61739 -0.185595 0
M  V30 3027 O 303.188 -1.78462 0.0370358 0
M  V30 3028 C 300.288 -3.38481 0.168533 0
M  V30 3029 C 299.461 -4.20876 1.1909 0
M  V30 3030 C 298.52 -5.22976 0.581575 0
M  V30 3031 O 297.546 -5.55388 1.24633 0
M  V30 3032 N 298.748 -5.76976 -0.638706 0
M  V30 3033 H 301.513 -2.45348 1.72118 0
M  V30 3034 H 299.074 -1.23645 1.04515 0
M  V30 3035 H 301.066 -4.03916 -0.251764 0
M  V30 3036 H 299.636 -3.05651 -0.655467 0
M  V30 3037 H 298.856 -3.51322 1.78791 0
M  V30 3038 H 300.144 -4.7274 1.88133 0
M  V30 3039 H 299.542 -5.52886 -1.19723 0
M  V30 3040 H 298.099 -6.44061 -1.00142 0
M  V30 3041 N 301.532 -0.945985 -1.26051 0
M  V30 3042 C 302.778 -0.597002 -1.93814 0
M  V30 3043 C 303.111 0.862484 -1.73997 0
M  V30 3044 O 302.386 1.61769 -1.07986 0
M  V30 3045 C 302.669 -0.945937 -3.47454 0
M  V30 3046 C 302.522 -2.46052 -3.76535 0
M  V30 3047 C 303.841 -0.464785 -4.37639 0
M  V30 3048 H 300.96 -0.218366 -0.703907 0
M  V30 3049 H 303.602 -1.18107 -1.48831 0
M  V30 3050 H 301.752 -0.448902 -3.85898 0
M  V30 3051 H 303.424 -3.03065 -3.47778 0
M  V30 3052 H 301.667 -2.90194 -3.22444 0
M  V30 3053 H 302.338 -2.65517 -4.83947 0
M  V30 3054 H 304.814 -0.891016 -4.06448 0
M  V30 3055 H 303.69 -0.737712 -5.4392 0
M  V30 3056 H 303.951 0.635274 -4.37512 0
M  V30 3057 N 303.011 1.40521 -0.713556 0
M  V30 3058 C 304.422 1.83853 -0.324807 0
M  V30 3059 C 304.773 1.59667 1.14021 0
M  V30 3060 O 303.898 1.07649 1.87725 0
M  V30 3061 C 304.493 3.33751 -0.582746 0
M  V30 3062 C 303.052 3.75584 -0.247727 0
M  V30 3063 C 302.199 2.63753 -0.856121 0
M  V30 3064 H 305.15 1.29817 -0.91286 0
M  V30 3065 H 305.171 3.80194 0.152682 0
M  V30 3066 H 304.683 3.51322 -1.64908 0
M  V30 3067 H 302.784 3.63608 0.813624 0
M  V30 3068 H 302.897 4.7373 -0.715307 0
M  V30 3069 H 301.261 2.53108 -0.28432 0
M  V30 3070 H 302.044 2.84137 -1.92668 0
M  V30 3071 N 304.489 0.459591 1.5075 0
M  V30 3072 C 305.738 -0.100971 2.01447 0
M  V30 3073 C 306.051 -1.41816 1.34713 0
M  V30 3074 O 307.257 -2.06299 1.76502 0
M  V30 3075 C 305.713 -0.23047 3.59161 0
M  V30 3076 C 305.321 1.0776 4.34847 0
M  V30 3077 C 307.065 -0.743608 4.17936 0
M  V30 3078 C 304.972 0.91253 5.84317 0
M  V30 3079 H 303.902 -0.0415102 0.752856 0
M  V30 3080 H 306.553 0.592742 1.73663 0
M  V30 3081 H 304.935 -0.987703 3.83485 0
M  V30 3082 H 306.109 1.8449 4.22256 0
M  V30 3083 H 304.424 1.52097 3.87628 0
M  V30 3084 H 307.021 -0.883959 5.27343 0
M  V30 3085 H 307.364 -1.73196 3.78562 0
M  V30 3086 H 307.897 -0.04408 3.97776 0
M  V30 3087 H 304.636 1.87391 6.28144 0
M  V30 3088 H 304.156 0.185422 5.99513 0
M  V30 3089 H 305.835 0.574547 6.44444 0
M  V30 3090 N 305.967 -1.56429 0.191757 0
M  V30 3091 C 306.897 -2.21937 -0.725696 0
M  V30 3092 C 307.878 -1.1814 -1.2238 0
M  V30 3093 O 309.063 -1.46636 -1.27325 0
M  V30 3094 C 306.193 -2.87611 -1.94672 0
M  V30 3095 C 305.147 -3.97623 -1.58366 0
M  V30 3096 C 304.473 -4.50446 -2.88102 0
M  V30 3097 C 305.773 -5.16197 -0.796133 0
M  V30 3098 H 307.467 -2.98861 -0.179606 0
M  V30 3099 H 305.013 -1.43749 -0.0849464 0
M  V30 3100 H 306.966 -3.3212 -2.59373 0
M  V30 3101 H 305.69 -2.08087 -2.51728 0
M  V30 3102 H 304.349 -3.53801 -0.960247 0
M  V30 3103 H 303.997 -3.67688 -3.43241 0
M  V30 3104 H 303.697 -5.24675 -2.64556 0
M  V30 3105 H 305.221 -4.97654 -3.53798 0
M  V30 3106 H 306.635 -5.57271 -1.34618 0
M  V30 3107 H 305.032 -5.96471 -0.658928 0
M  V30 3108 H 306.102 -4.84473 0.203478 0
M  V30 3109 N 307.445 0.0818655 -1.57387 0
M  V30 3110 C 308.408 1.08265 -2.02018 0
M  V30 3111 C 309.408 1.32183 -0.915664 0
M  V30 3112 O 310.598 1.28073 -1.18081 0
M  V30 3113 C 307.73 2.42871 -2.39221 0
M  V30 3114 H 308.923 0.698204 -2.91659 0
M  V30 3115 H 306.476 0.327303 -1.52835 0
M  V30 3116 H 307.211 2.86167 -1.52575 0
M  V30 3117 H 306.996 2.26855 -3.19811 0
M  V30 3118 H 308.486 3.14826 -2.74362 0
M  V30 3119 N 308.923 1.53595 0.353017 0
M  V30 3120 C 309.871 1.81605 1.45335 0
M  V30 3121 C 310.865 0.685923 1.54892 0
M  V30 3122 O 312.071 0.869095 1.57628 0
M  V30 3123 H 308.446 0.575204 0.484401 0
M  V30 3124 H 310.417 2.73679 1.18921 0
M  V30 3125 C 309.166 2.03406 2.81995 0
M  V30 3126 H 308.489 2.89814 2.75405 0
M  V30 3127 H 309.929 2.26975 3.58132 0
M  V30 3128 C 308.388 0.816794 3.26849 0
M  V30 3129 O 308.918 0.0115856 4.01698 0
M  V30 3130 N 307.124 0.636682 2.8354 0
M  V30 3131 H 306.671 1.2931 2.22793 0
M  V30 3132 H 306.629 -0.176336 3.13905 0
M  V30 3133 N 310.401 -0.613514 1.45168 0
M  V30 3134 C 311.65 -1.36874 1.4815 0
M  V30 3135 C 311.963 -1.952 0.124982 0
M  V30 3136 O 313.169 -2.71481 0.0324176 0
M  V30 3137 C 311.625 -2.47905 2.60904 0
M  V30 3138 C 311.233 -1.96016 4.02842 0
M  V30 3139 C 312.977 -3.24965 2.73126 0
M  V30 3140 C 310.884 -3.04494 5.06988 0
M  V30 3141 H 309.814 -0.514428 0.551253 0
M  V30 3142 H 312.465 -0.658182 1.7129 0
M  V30 3143 H 310.847 -3.21618 2.31037 0
M  V30 3144 H 312.021 -1.29051 4.4236 0
M  V30 3145 H 310.336 -1.31719 3.95018 0
M  V30 3146 H 312.933 -4.05865 3.48106 0
M  V30 3147 H 313.276 -3.75588 1.79553 0
M  V30 3148 H 313.809 -2.5835 3.0249 0
M  V30 3149 H 310.548 -2.58795 6.0225 0
M  V30 3150 H 310.068 -3.70044 4.72046 0
M  V30 3151 H 311.747 -3.68976 5.31475 0
M  V30 3152 N 311.879 -1.3236 -0.855495 0
M  V30 3153 C 313.107 -1.2587 -1.64208 0
M  V30 3154 C 313.522 0.173457 -1.88002 0
M  V30 3155 O 312.879 1.11027 -1.44842 0
M  V30 3156 C 312.93 -2.01424 -3.00184 0
M  V30 3157 O 312.651 -3.39051 -2.77445 0
M  V30 3158 C 314.152 -2.01948 -3.94629 0
M  V30 3159 H 311.372 -0.434318 -0.511477 0
M  V30 3160 H 313.916 -1.74469 -1.0668 0
M  V30 3161 H 312.071 -1.56549 -3.5436 0
M  V30 3162 H 312.485 -3.77711 -3.63916 0
M  V30 3163 H 313.959 -2.59297 -4.87308 0
M  V30 3164 H 314.436 -1.00554 -4.27534 0
M  V30 3165 H 315.042 -2.46767 -3.4639 0
M  V30 3166 N 313.357 1.07166 -1.15556 0
M  V30 3167 C 314.267 2.17947 -0.868116 0
M  V30 3168 C 315.283 1.73297 0.156297 0
M  V30 3169 O 316.459 2.01392 -0.0182327 0
M  V30 3170 C 313.524 3.44789 -0.36355 0
M  V30 3171 C 312.585 4.03996 -1.45209 0
M  V30 3172 C 311.818 5.24783 -0.971508 0
M  V30 3173 O 312.041 5.70109 0.182194 0
M  V30 3174 O 310.975 5.75715 -1.75603 0
M  V30 3175 H 314.801 2.4503 -1.79427 0
M  V30 3176 H 312.386 1.16539 -0.934824 0
M  V30 3177 H 314.268 4.21307 -0.0887113 0
M  V30 3178 H 312.943 3.19253 0.534708 0
M  V30 3179 H 311.85 3.29009 -1.78056 0
M  V30 3180 H 313.183 4.33808 -2.32533 0
M  V30 3181 N 314.835 0.952656 1.25548 0
M  V30 3182 C 316.082 0.606373 1.93208 0
M  V30 3183 C 316.41 -0.85631 1.74636 0
M  V30 3184 O 315.665 -1.62951 1.08376 0
M  V30 3185 C 315.964 0.908818 3.45652 0
M  V30 3186 C 315.63 2.35722 3.84378 0
M  V30 3187 C 314.292 2.75312 3.9466 0
M  V30 3188 C 316.644 3.29793 4.03591 0
M  V30 3189 C 313.972 4.08047 4.21562 0
M  V30 3190 C 316.324 4.62138 4.31985 0
M  V30 3191 C 314.988 5.01528 4.40484 0
M  V30 3192 H 314.258 0.221888 0.706998 0
M  V30 3193 H 316.905 1.20132 1.49133 0
M  V30 3194 H 315.21 0.231456 3.91116 0
M  V30 3195 H 316.907 0.619498 3.96186 0
M  V30 3196 H 313.497 2.04017 3.76928 0
M  V30 3197 H 317.681 3.00397 3.95064 0
M  V30 3198 H 312.937 4.38212 4.26357 0
M  V30 3199 H 317.111 5.35012 4.45797 0
M  V30 3200 H 314.738 6.04406 4.61083 0
M  V30 3201 N 316.313 -1.40141 0.720998 0
M  V30 3202 C 317.561 -2.0039 0.262323 0
M  V30 3203 C 317.882 -1.57469 -1.15015 0
M  V30 3204 O 317.152 -0.816582 -1.78069 0
M  V30 3205 H 315.732 -0.741063 0.093996 0
M  V30 3206 H 318.394 -1.71398 0.927835 0
M  V30 3207 H 317.49 -3.10658 0.299671 0
M  V30 3208 N 317.792 -0.46758 -1.50504 0
M  V30 3209 C 318.755 0.317059 -2.26996 0
M  V30 3210 C 319.755 0.923513 -1.31635 0
M  V30 3211 O 320.945 0.793239 -1.55091 0
M  V30 3212 C 318.077 1.45134 -3.08462 0
M  V30 3213 H 319.27 -0.353723 -2.97807 0
M  V30 3214 H 316.823 -0.221545 -1.54722 0
M  V30 3215 H 317.558 2.15728 -2.4214 0
M  V30 3216 H 317.343 1.02232 -3.78538 0
M  V30 3217 H 318.833 2.00493 -3.66323 0
M  V30 3218 N 319.27 1.56325 -0.20005 0
M  V30 3219 C 320.498 2.02105 0.442874 0
M  V30 3220 C 320.913 1.08014 1.5485 0
M  V30 3221 O 320.27 0.0858797 1.82298 0
M  V30 3222 C 320.321 3.47549 0.994583 0
M  V30 3223 O 320.042 4.38049 -0.0669322 0
M  V30 3224 C 321.543 4.0887 1.7129 0
M  V30 3225 H 318.763 0.661807 0.110691 0
M  V30 3226 H 321.307 2.02134 -0.310207 0
M  V30 3227 H 319.462 3.48204 1.69803 0
M  V30 3228 H 319.876 5.23368 0.344462 0
M  V30 3229 H 321.35 5.12475 2.05118 0
M  V30 3230 H 321.827 3.52615 2.61838 0
M  V30 3231 H 322.433 4.12002 1.05518 0
M  V30 3232 N 320.748 -0.0735177 1.57428 0
M  V30 3233 C 322.159 -0.625551 1.75908 0
M  V30 3234 C 322.51 -1.78 0.825261 0
M  V30 3235 O 321.635 -2.16398 0.00893964 0
M  V30 3236 C 322.23 -1.14155 3.18989 0
M  V30 3237 C 320.789 -1.63946 3.38819 0
M  V30 3238 C 319.936 -0.558151 2.71625 0
M  V30 3239 H 322.887 0.152647 1.57964 0
M  V30 3240 H 322.908 -2.0104 3.23053 0
M  V30 3241 H 322.42 -0.301116 3.8693 0
M  V30 3242 H 320.521 -2.50321 2.7599 0
M  V30 3243 H 320.634 -1.71759 4.47253 0
M  V30 3244 H 318.998 -1.00278 2.34129 0
M  V30 3245 H 319.781 0.272071 3.4222 0
M  V30 3246 N 322.226 -1.5378 -0.344866 0
M  V30 3247 C 323.156 -1.84662 -1.42906 0
M  V30 3248 C 324.137 -0.701648 -1.54955 0
M  V30 3249 O 325.322 -0.953438 -1.69184 0
M  V30 3250 C 322.452 -2.05503 -2.79974 0
M  V30 3251 C 321.406 -3.21318 -2.82734 0
M  V30 3252 C 320.732 -3.2749 -4.22675 0
M  V30 3253 C 322.032 -4.59456 -2.48389 0
M  V30 3254 H 323.726 -2.75461 -1.17311 0
M  V30 3255 H 321.272 -1.32542 -0.562896 0
M  V30 3256 H 323.225 -2.25691 -3.55867 0
M  V30 3257 H 321.949 -1.11434 -3.07002 0
M  V30 3258 H 320.608 -3.00984 -2.09294 0
M  V30 3259 H 320.256 -2.31019 -4.4681 0
M  V30 3260 H 319.956 -4.05316 -4.25433 0
M  V30 3261 H 321.48 -3.49887 -5.00412 0
M  V30 3262 H 322.894 -4.79667 -3.13995 0
M  V30 3263 H 321.291 -5.39675 -2.62432 0
M  V30 3264 H 322.361 -4.63155 -1.4358 0
M  V30 3265 N 323.704 0.605807 -1.45491 0
M  V30 3266 C 324.951 1.36476 -1.49601 0
M  V30 3267 C 325.279 1.94007 -0.138452 0
M  V30 3268 O 324.534 1.75638 0.863114 0
M  V30 3269 C 324.833 2.53012 -2.52428 0
M  V30 3270 C 324.499 2.13617 -3.97087 0
M  V30 3271 C 323.161 2.02587 -4.36477 0
M  V30 3272 C 325.513 1.82899 -4.88055 0
M  V30 3273 C 322.841 1.59064 -5.64726 0
M  V30 3274 C 325.193 1.40861 -6.16718 0
M  V30 3275 C 323.857 1.28391 -6.55036 0
M  V30 3276 H 323.127 0.499402 -0.547429 0
M  V30 3277 H 325.774 0.684546 -1.78847 0
M  V30 3278 H 324.079 3.26379 -2.16758 0
M  V30 3279 H 325.776 3.1124 -2.52845 0
M  V30 3280 H 322.366 2.23129 -3.65939 0
M  V30 3281 H 326.55 1.90317 -4.58359 0
M  V30 3282 H 321.806 1.48034 -5.93208 0
M  V30 3283 H 325.98 1.16138 -6.86648 0
M  V30 3284 H 323.607 0.944403 -7.54311 0
M  V30 3285 N 325.182 1.32811 0.848464 0
M  V30 3286 C 326.41 1.26739 1.63538 0
M  V30 3287 C 326.825 -0.163484 1.88091 0
M  V30 3288 O 326.182 -1.10258 1.45429 0
M  V30 3289 C 326.233 2.03013 2.99112 0
M  V30 3290 O 325.954 3.40518 2.75643 0
M  V30 3291 C 327.455 2.04038 3.93552 0
M  V30 3292 H 324.675 0.437024 0.509167 0
M  V30 3293 H 327.219 1.75033 1.05753 0
M  V30 3294 H 325.374 1.58426 3.53525 0
M  V30 3295 H 325.788 3.79635 3.61908 0
M  V30 3296 H 327.262 2.61877 4.85926 0
M  V30 3297 H 327.739 1.0282 4.26995 0
M  V30 3298 H 328.345 2.486 3.45077 0
M  V30 3299 N 326.66 -1.06551 1.16123 0
M  V30 3300 C 327.888 -1.83005 0.965237 0
M  V30 3301 C 328.303 -1.82423 -0.486542 0
M  V30 3302 O 327.66 -1.24152 -1.33763 0
M  V30 3303 C 327.711 -3.29733 1.48183 0
M  V30 3304 O 327.432 -3.30416 2.87674 0
M  V30 3305 C 328.933 -4.22926 1.32848 0
M  V30 3306 H 326.153 -0.577118 0.342309 0
M  V30 3307 H 328.697 -1.3445 1.54089 0
M  V30 3308 H 326.852 -3.75609 0.948517 0
M  V30 3309 H 327.266 -4.22149 3.11272 0
M  V30 3310 H 328.74 -5.23916 1.73827 0
M  V30 3311 H 329.217 -4.38346 0.273692 0
M  V30 3312 H 329.823 -3.82894 1.85127 0
M  V30 3313 N 328.138 -0.959301 -1.25041 0
M  V30 3314 C 329.415 -0.533805 -1.88175 0
M  V30 3315 C 329.795 0.988994 -1.865 0
M  V30 3316 O 329.143 1.85677 -1.33177 0
M  V30 3317 C 329.353 -1.11575 -3.30684 0
M  V30 3318 C 330.701 -1.19548 -4.07423 0
M  V30 3319 O 331.725 -1.06765 -3.39823 0
M  V30 3320 O 330.584 -1.39656 -5.28354 0
M  V30 3321 H 327.678 -0.176772 -0.807887 0
M  V30 3322 H 330.224 -1.05303 -1.33076 0
M  V30 3323 H 328.996 -2.15884 -3.26358 0
M  V30 3324 H 328.619 -0.580059 -3.93346 0
M  V30 3325 N 329.616 1.39756 -0.72842 0
M  V30 3326 C 330.526 2.34444 -0.0855374 0
M  V30 3327 C 331.542 1.57976 0.729356 0
M  V30 3328 O 332.718 1.90301 0.659346 0
M  V30 3329 C 329.783 3.36965 0.815798 0
M  V30 3330 C 328.844 4.29299 -0.0105996 0
M  V30 3331 C 328.077 5.26923 0.84781 0
M  V30 3332 O 328.3 5.30859 2.08673 0
M  V30 3333 O 327.234 6.01249 0.279969 0
M  V30 3334 H 331.06 2.91065 -0.866892 0
M  V30 3335 H 328.645 1.4117 -0.48902 0
M  V30 3336 H 330.527 3.99804 1.33171 0
M  V30 3337 H 329.202 2.82739 1.57608 0
M  V30 3338 H 328.109 3.69703 -0.571877 0
M  V30 3339 H 329.442 4.86712 -0.73295 0
M  V30 3340 N 331.094 0.475555 1.50254 0
M  V30 3341 C 332.024 -0.30611 2.31485 0
M  V30 3342 C 333.005 -0.986228 1.38591 0
M  V30 3343 O 334.19 -0.982541 1.67511 0
M  V30 3344 C 331.32 -1.38588 3.1845 0
M  V30 3345 C 330.274 -0.827115 4.19932 0
M  V30 3346 C 329.6 -2.00551 4.95665 0
M  V30 3347 C 330.9 0.16463 5.2204 0
M  V30 3348 H 332.594 0.371866 2.97082 0
M  V30 3349 H 330.14 0.180282 1.42867 0
M  V30 3350 H 332.093 -1.94023 3.74076 0
M  V30 3351 H 330.817 -2.09269 2.50747 0
M  V30 3352 H 329.476 -0.294702 3.65414 0
M  V30 3353 H 329.124 -2.6994 4.2443 0
M  V30 3354 H 328.824 -1.63784 5.64313 0
M  V30 3355 H 330.348 -2.56468 5.54127 0
M  V30 3356 H 331.762 -0.300699 5.72511 0
M  V30 3357 H 330.159 0.446813 5.98434 0
M  V30 3358 H 331.229 1.08905 4.72512 0
M  V30 3359 N 332.573 -1.56217 0.208337 0
M  V30 3360 C 333.989 -1.58919 -0.14729 0
M  V30 3361 C 334.189 -1.22486 -1.59998 0
M  V30 3362 O 333.245 -0.953849 -2.3379 0
M  V30 3363 C 334.558 -3.00236 0.167048 0
M  V30 3364 C 336.106 -3.12813 0.108219 0
M  V30 3365 C 336.581 -4.56284 0.396049 0
M  V30 3366 N 338.072 -4.61912 0.345142 0
M  V30 3367 C 338.807 -5.70837 0.541523 0
M  V30 3368 N 338.303 -6.88178 0.798968 0
M  V30 3369 N 340.096 -5.60091 0.474867 0
M  V30 3370 H 332.247 -1.78177 1.15614 0
M  V30 3371 H 334.51 -0.827555 0.462446 0
M  V30 3372 H 334.216 -3.31499 1.1748 0
M  V30 3373 H 334.09 -3.7354 -0.524184 0
M  V30 3374 H 336.477 -2.81354 -0.890157 0
M  V30 3375 H 336.558 -2.41866 0.832729 0
M  V30 3376 H 336.202 -4.88458 1.3918 0
M  V30 3377 H 336.132 -5.25439 -0.349502 0
M  V30 3378 H 338.623 -3.77589 0.153316 0
M  V30 3379 H 338.936 -7.67095 0.93727 0
M  V30 3380 H 337.281 -6.89953 0.836013 0
M  V30 3381 H 340.472 -4.67297 0.274064 0
M  V30 3382 H 340.645 -6.44917 0.631326 0
M  V30 3383 N 334.051 0.0651679 -1.57465 0
M  V30 3384 C 335.276 0.779605 -1.9219 0
M  V30 3385 C 335.701 1.69988 -0.805333 0
M  V30 3386 O 335.059 1.79685 0.241435 0
M  V30 3387 C 335.107 1.54364 -3.2589 0
M  V30 3388 O 334.211 2.65474 -3.1559 0
M  V30 3389 H 333.552 0.212249 -0.629163 0
M  V30 3390 H 336.082 0.0314294 -2.04576 0
M  V30 3391 H 336.092 1.92146 -3.59922 0
M  V30 3392 H 334.767 0.868457 -4.06732 0
M  V30 3393 H 333.344 2.30501 -2.93128 0
M  V30 3394 N 335.529 1.53961 0.336706 0
M  V30 3395 C 336.492 1.81724 1.39675 0
M  V30 3396 C 337.492 0.688532 1.45313 0
M  V30 3397 O 338.682 0.956829 1.45569 0
M  V30 3398 C 335.814 1.96543 2.78538 0
M  V30 3399 H 337.007 2.76424 1.16318 0
M  V30 3400 H 334.56 1.45478 0.571474 0
M  V30 3401 H 335.295 1.0401 3.07168 0
M  V30 3402 H 335.08 2.78665 2.75841 0
M  V30 3403 H 336.57 2.19516 3.5525 0
M  V30 3404 N 337.007 -0.598083 1.45811 0
M  V30 3405 C 337.957 -1.70272 1.51629 0
M  V30 3406 C 338.941 -1.56382 0.378629 0
M  V30 3407 O 340.133 -1.65557 0.626087 0
M  V30 3408 C 337.262 -3.09042 1.49493 0
M  V30 3409 C 336.348 -3.28284 2.68496 0
M  V30 3410 N 336.739 -3.17748 3.93535 0
M  V30 3411 C 335.037 -3.59182 2.64394 0
M  V30 3412 C 335.738 -3.38579 4.7301 0
M  V30 3413 N 334.714 -3.63016 4.04624 0
M  V30 3414 H 338.516 -1.60634 2.46118 0
M  V30 3415 H 336.03 -0.801642 1.41235 0
M  V30 3416 H 338.027 -3.88302 1.51747 0
M  V30 3417 H 336.687 -3.19823 0.560683 0
M  V30 3418 H 337.698 -2.95944 4.25014 0
M  V30 3419 H 334.375 -3.76742 1.79922 0
M  V30 3420 H 335.765 -3.35747 5.82 0
M  V30 3421 N 338.485 -1.33259 -0.841409 0
M  V30 3422 C 339.731 -1.24757 -1.59886 0
M  V30 3423 C 340.064 0.186913 -1.93298 0
M  V30 3424 O 339.339 1.12757 -1.5848 0
M  V30 3425 C 339.622 -2.12036 -2.91055 0
M  V30 3426 C 339.475 -3.63929 -2.6434 0
M  V30 3427 C 340.794 -1.9916 -3.92458 0
M  V30 3428 H 337.913 -0.454542 -0.580138 0
M  V30 3429 H 340.555 -1.63335 -0.970647 0
M  V30 3430 H 338.705 -1.79265 -3.44669 0
M  V30 3431 H 340.377 -4.06978 -2.17178 0
M  V30 3432 H 338.62 -3.85935 -1.98082 0
M  V30 3433 H 339.291 -4.20341 -3.57796 0
M  V30 3434 H 341.767 -2.27895 -3.48143 0
M  V30 3435 H 340.643 -2.62484 -4.82072 0
M  V30 3436 H 340.904 -0.963082 -4.31482 0
M  V30 3437 N 339.963 1.05934 -1.16686 0
M  V30 3438 C 340.926 2.11669 -0.879144 0
M  V30 3439 C 341.926 1.60294 0.127445 0
M  V30 3440 O 343.116 1.7389 -0.103865 0
M  V30 3441 C 340.248 3.39438 -0.315425 0
M  V30 3442 H 341.441 2.38626 -1.81653 0
M  V30 3443 H 338.994 1.22058 -0.976299 0
M  V30 3444 H 339.729 3.18132 0.629468 0
M  V30 3445 H 339.514 3.78034 -1.04079 0
M  V30 3446 H 341.004 4.17391 -0.132189 0
M  V30 3447 N 341.441 0.965919 1.2453 0
M  V30 3448 C 342.374 0.4393 2.23932 0
M  V30 3449 C 343.352 -0.485615 1.55179 0
M  V30 3450 O 344.536 -0.417402 1.83821 0
M  V30 3451 C 341.663 -0.366042 3.36716 0
M  V30 3452 C 340.709 0.5009 4.23548 0
M  V30 3453 S 341.542 1.94002 4.99123 0
M  V30 3454 C 342.698 1.14342 6.15367 0
M  V30 3455 H 342.931 1.28167 2.68254 0
M  V30 3456 H 340.464 0.770819 1.33782 0
M  V30 3457 H 342.422 -0.824724 4.0213 0
M  V30 3458 H 341.083 -1.18337 2.90956 0
M  V30 3459 H 340.276 -0.117341 5.03863 0
M  V30 3460 H 339.878 0.89524 3.63127 0
M  V30 3461 H 342.17 0.397572 6.76332 0
M  V30 3462 H 343.113 1.92089 6.81548 0
M  V30 3463 H 343.521 0.668579 5.60527 0
M  V30 3464 N 342.919 -1.39368 0.735821 0
M  V30 3465 C 343.882 -2.2896 0.104874 0
M  V30 3466 C 344.882 -1.46347 -0.666274 0
M  V30 3467 O 346.072 -1.67014 -0.49517 0
M  V30 3468 C 343.204 -3.29857 -0.860656 0
M  V30 3469 H 344.397 -2.86259 0.894205 0
M  V30 3470 H 341.95 -1.48029 0.501704 0
M  V30 3471 H 342.685 -2.77615 -1.67631 0
M  V30 3472 H 342.47 -3.9087 -0.310327 0
M  V30 3473 H 343.96 -3.96893 -1.29867 0
M  V30 3474 N 344.397 -0.483516 -1.5 0
M  V30 3475 C 345.327 0.293829 -2.31644 0
M  V30 3476 C 346.308 0.978864 -1.39112 0
M  V30 3477 O 347.493 0.973644 -1.68029 0
M  V30 3478 C 344.623 1.36897 -3.19181 0
M  V30 3479 C 343.577 0.804833 -4.20365 0
M  V30 3480 C 342.903 1.9792 -4.96721 0
M  V30 3481 C 344.203 -0.192313 -5.21946 0
M  V30 3482 H 345.897 -0.387616 -2.9688 0
M  V30 3483 H 343.443 -0.187856 -1.42769 0
M  V30 3484 H 345.396 1.92037 -3.751 0
M  V30 3485 H 344.12 2.07936 -2.51853 0
M  V30 3486 H 342.779 0.275319 -3.65565 0
M  V30 3487 H 342.427 2.67686 -4.25856 0
M  V30 3488 H 342.127 1.60789 -5.65173 0
M  V30 3489 H 343.651 2.53526 -5.55479 0
M  V30 3490 H 345.065 0.270333 -5.72662 0
M  V30 3491 H 343.462 -0.478543 -5.98189 0
M  V30 3492 H 344.532 -1.11409 -4.71928 0
M  V30 3493 N 345.875 1.56104 -0.216619 0
M  V30 3494 C 347.105 2.02269 0.420802 0
M  V30 3495 C 347.513 1.09575 1.5424 0
M  V30 3496 O 346.856 0.0967308 1.83445 0
M  V30 3497 C 346.918 3.44784 1.01806 0
M  V30 3498 C 346.582 4.56988 0.0325154 0
M  V30 3499 C 347.579 5.14225 -0.766055 0
M  V30 3500 C 345.264 5.02228 -0.0848092 0
M  V30 3501 C 347.258 6.15169 -1.6687 0
M  V30 3502 C 344.945 6.03011 -0.990994 0
M  V30 3503 C 345.943 6.59357 -1.78149 0
M  V30 3504 O 345.631 7.58179 -2.67245 0
M  V30 3505 H 345.363 0.667353 0.107776 0
M  V30 3506 H 347.917 2.02747 -0.329034 0
M  V30 3507 H 346.147 3.41359 1.81689 0
M  V30 3508 H 347.836 3.74626 1.56237 0
M  V30 3509 H 348.602 4.80126 -0.685836 0
M  V30 3510 H 344.481 4.58054 0.520349 0
M  V30 3511 H 348.025 6.59076 -2.28615 0
M  V30 3512 H 343.922 6.36532 -1.07225 0
M  V30 3513 H 344.69 7.75682 -2.61265 0
M  V30 3514 N 347.353 -0.0568162 1.57498 0
M  V30 3515 C 348.764 -0.606858 1.76562 0
M  V30 3516 C 349.115 -1.77114 0.844094 0
M  V30 3517 O 348.24 -2.16376 0.0318911 0
M  V30 3518 C 348.835 -1.10766 3.20182 0
M  V30 3519 C 347.394 -1.60344 3.40539 0
M  V30 3520 C 346.541 -0.529311 2.72201 0
M  V30 3521 H 349.492 0.169393 1.57793 0
M  V30 3522 H 349.513 -1.97602 3.25167 0
M  V30 3523 H 349.025 -0.26006 3.87228 0
M  V30 3524 H 347.126 -2.47379 2.78629 0
M  V30 3525 H 347.239 -1.67006 4.4905 0
M  V30 3526 H 345.603 -0.977893 2.35179 0
M  V30 3527 H 346.386 0.308352 3.41912 0
M  V30 3528 N 348.832 -1.54138 -0.328536 0
M  V30 3529 C 349.762 -1.86167 -1.40939 0
M  V30 3530 C 350.743 -0.718044 -1.54202 0
M  V30 3531 O 351.928 -0.971328 -1.68163 0
M  V30 3532 C 349.058 -2.08461 -2.77779 0
M  V30 3533 C 348.012 -3.24299 -2.7931 0
M  V30 3534 C 347.338 -3.31955 -4.19178 0
M  V30 3535 C 348.638 -4.62065 -2.43502 0
M  V30 3536 H 350.332 -2.76689 -1.14383 0
M  V30 3537 H 347.878 -1.33132 -0.548806 0
M  V30 3538 H 349.831 -2.29453 -3.53454 0
M  V30 3539 H 348.555 -1.14684 -3.05802 0
M  V30 3540 H 347.214 -3.03187 -2.0609 0
M  V30 3541 H 346.862 -2.35745 -4.44335 0
M  V30 3542 H 346.562 -4.09805 -4.2111 0
M  V30 3543 H 348.086 -3.55175 -4.96672 0
M  V30 3544 H 349.5 -4.8297 -3.08889 0
M  V30 3545 H 347.897 -5.42429 -2.56693 0
M  V30 3546 H 348.967 -4.64652 -1.38659 0
M  V30 3547 N 350.31 0.590341 -1.46126 0
M  V30 3548 C 351.535 1.37991 -1.54833 0
M  V30 3549 C 351.96 1.87163 -0.187506 0
M  V30 3550 O 351.318 1.61133 0.831008 0
M  V30 3551 C 351.366 2.54867 -2.55098 0
M  V30 3552 O 350.47 3.56061 -2.08073 0
M  V30 3553 H 349.811 0.411265 -0.521303 0
M  V30 3554 H 352.341 0.716819 -1.91632 0
M  V30 3555 H 352.351 3.01886 -2.74461 0
M  V30 3556 H 351.026 2.18429 -3.53923 0
M  V30 3557 H 349.603 3.15574 -1.98664 0
M  V30 3558 N 351.788 1.33704 0.83433 0
M  V30 3559 C 352.751 1.24244 1.92603 0
M  V30 3560 C 353.751 0.160383 1.59998 0
M  V30 3561 O 354.941 0.412228 1.69252 0
M  V30 3562 C 352.073 0.91555 3.28376 0
M  V30 3563 H 353.266 2.21287 2.02416 0
M  V30 3564 H 350.819 1.17827 1.02696 0
M  V30 3565 H 351.554 -0.0521886 3.24258 0
M  V30 3566 H 351.339 1.69811 3.53422 0
M  V30 3567 H 352.829 0.874231 4.08347 0
M  V30 3568 N 353.266 -1.05314 1.17247 0
M  V30 3569 C 354.513 -1.78293 0.960091 0
M  V30 3570 C 354.841 -1.87658 -0.51136 0
M  V30 3571 O 354.096 -1.3718 -1.39571 0
M  V30 3572 C 354.395 -3.2229 1.54479 0
M  V30 3573 C 354.061 -3.32987 3.04024 0
M  V30 3574 C 352.723 -3.35613 3.44844 0
M  V30 3575 C 355.075 -3.34102 4.00031 0
M  V30 3576 C 352.403 -3.36982 4.8027 0
M  V30 3577 C 354.755 -3.3701 5.35357 0
M  V30 3578 C 353.419 -3.37923 5.75642 0
M  V30 3579 H 352.689 -0.652422 0.351322 0
M  V30 3580 H 355.336 -1.23782 1.46117 0
M  V30 3581 H 353.641 -3.7972 0.965391 0
M  V30 3582 H 355.338 -3.77376 1.35603 0
M  V30 3583 H 351.928 -3.31655 2.71483 0
M  V30 3584 H 356.112 -3.31276 3.69554 0
M  V30 3585 H 351.368 -3.35999 5.10798 0
M  V30 3586 H 355.542 -3.36822 6.09528 0
M  V30 3587 H 353.169 -3.38738 6.80559 0
M  V30 3588 N 354.744 -0.972509 -1.24016 0
M  V30 3589 C 356.16 -0.679827 -1.44397 0
M  V30 3590 C 356.36 0.756716 -1.86751 0
M  V30 3591 O 355.416 1.53007 -2.00861 0
M  V30 3592 C 356.729 -1.66803 -2.50195 0
M  V30 3593 C 358.277 -1.68119 -2.64017 0
M  V30 3594 C 358.752 -2.65748 -3.73017 0
M  V30 3595 N 360.243 -2.64219 -3.8045 0
M  V30 3596 C 360.978 -3.36433 -4.64328 0
M  V30 3597 N 360.474 -4.1818 -5.52356 0
M  V30 3598 N 362.267 -3.25235 -4.58453 0
M  V30 3599 H 354.418 -1.90059 -0.948228 0
M  V30 3600 H 356.681 -0.818527 -0.478245 0
M  V30 3601 H 356.387 -2.69498 -2.25973 0
M  V30 3602 H 356.261 -1.4446 -3.48441 0
M  V30 3603 H 358.648 -0.661319 -2.87594 0
M  V30 3604 H 358.729 -1.94525 -1.66113 0
M  V30 3605 H 358.373 -3.67872 -3.50189 0
M  V30 3606 H 358.303 -2.36619 -4.70446 0
M  V30 3607 H 360.794 -2.04887 -3.17537 0
M  V30 3608 H 361.107 -4.70157 -6.13329 0
M  V30 3609 H 359.452 -4.22273 -5.52006 0
M  V30 3610 H 362.643 -2.60829 -3.88698 0
M  V30 3611 H 362.816 -3.81776 -5.23594 0
M  V30 3612 N 356.222 1.38976 -0.743202 0
M  V30 3613 C 357.185 2.28901 -0.117014 0
M  V30 3614 C 358.185 1.46698 0.658503 0
M  V30 3615 O 359.375 1.67274 0.486305 0
M  V30 3616 C 356.507 3.30309 0.84315 0
M  V30 3617 H 357.7 2.8578 -0.909373 0
M  V30 3618 H 355.253 1.47761 -0.509547 0
M  V30 3619 H 355.988 2.785 1.66157 0
M  V30 3620 H 355.773 3.91029 0.289594 0
M  V30 3621 H 357.263 3.97577 1.2776 0
M  V30 3622 N 357.7 0.491464 1.49741 0
M  V30 3623 C 358.633 -0.338464 2.25676 0
M  V30 3624 C 359.611 -0.978676 1.29849 0
M  V30 3625 O 360.795 -1.01064 1.59117 0
M  V30 3626 C 357.922 -1.47588 3.04853 0
M  V30 3627 C 356.968 -0.951 4.15762 0
M  V30 3628 S 357.801 0.150626 5.35288 0
M  V30 3629 C 358.957 -0.990178 6.18018 0
M  V30 3630 H 359.19 0.306068 2.9572 0
M  V30 3631 H 356.723 0.276622 1.51902 0
M  V30 3632 H 358.681 -2.12764 3.51058 0
M  V30 3633 H 357.342 -2.09199 2.34296 0
M  V30 3634 H 356.535 -1.80311 4.70642 0
M  V30 3635 H 356.137 -0.376607 3.72099 0
M  V30 3636 H 358.429 -1.89748 6.50386 0
M  V30 3637 H 359.372 -0.480205 7.0647 0
M  V30 3638 H 359.78 -1.25321 5.50413 0
M  V30 3639 N 359.178 -1.55987 0.224894 0
M  V30 3640 C 360.126 -2.21808 -0.700283 0
M  V30 3641 C 361.12 -1.19854 -1.19714 0
M  V30 3642 O 362.326 -1.37925 -1.15658 0
M  V30 3643 H 358.701 -0.711226 -0.244258 0
M  V30 3644 H 360.672 -2.98152 -0.121749 0
M  V30 3645 C 359.421 -2.91444 -1.8962 0
M  V30 3646 H 358.744 -3.69655 -1.52299 0
M  V30 3647 H 360.184 -3.40894 -2.52125 0
M  V30 3648 C 358.643 -1.94098 -2.75368 0
M  V30 3649 O 359.173 -1.46004 -3.74227 0
M  V30 3650 N 357.379 -1.61675 -2.41474 0
M  V30 3651 H 356.926 -2.00979 -1.61137 0
M  V30 3652 H 356.884 -0.968036 -2.99126 0
M  V30 3653 N 360.656 0.0484629 -1.57525 0
M  V30 3654 C 362.072 0.40375 -1.54409 0
M  V30 3655 C 362.272 1.77786 -0.948384 0
M  V30 3656 O 361.328 2.46189 -0.560983 0
M  V30 3657 C 362.641 0.323394 -2.98956 0
M  V30 3658 C 364.189 0.401892 -3.10409 0
M  V30 3659 C 364.664 0.351195 -4.56652 0
M  V30 3660 N 366.155 0.410576 -4.61377 0
M  V30 3661 C 366.89 0.393933 -5.72045 0
M  V30 3662 N 366.386 0.330724 -6.9201 0
M  V30 3663 N 368.179 0.442227 -5.60358 0
M  V30 3664 H 360.33 -0.851016 -1.94606 0
M  V30 3665 H 362.593 -0.321721 -0.89174 0
M  V30 3666 H 362.299 -0.62011 -3.4619 0
M  V30 3667 H 362.173 1.12463 -3.60044 0
M  V30 3668 H 364.56 1.33582 -2.63134 0
M  V30 3669 H 364.641 -0.428342 -2.52188 0
M  V30 3670 H 364.285 -0.578987 -5.04589 0
M  V30 3671 H 364.215 1.19928 -5.12762 0
M  V30 3672 H 366.706 0.462729 -3.75056 0
M  V30 3673 H 367.019 0.322592 -7.72126 0
M  V30 3674 H 365.364 0.29706 -6.94365 0
M  V30 3675 H 368.555 0.489464 -4.65534 0
M  V30 3676 H 368.728 0.425788 -6.466 0
M  V30 3677 N 362.134 1.5431 0.320358 0
M  V30 3678 C 363.097 1.83195 1.3774 0
M  V30 3679 C 364.097 0.703906 1.44575 0
M  V30 3680 O 365.287 0.972214 1.44546 0
M  V30 3681 C 362.419 1.99487 2.76438 0
M  V30 3682 H 363.612 2.77642 1.1338 0
M  V30 3683 H 361.165 1.46076 0.556012 0
M  V30 3684 H 361.9 1.07262 3.06048 0
M  V30 3685 H 361.685 2.81575 2.7287 0
M  V30 3686 H 363.175 2.23271 3.52902 0
M  V30 3687 N 363.613 -0.582584 1.46437 0
M  V30 3688 C 364.576 -1.67366 1.56592 0
M  V30 3689 C 365.576 -1.54575 0.443072 0
M  V30 3690 O 366.766 -1.59191 0.707381 0
M  V30 3691 C 363.898 -3.06791 1.48634 0
M  V30 3692 H 365.091 -1.5972 2.5383 0
M  V30 3693 H 362.644 -0.800432 1.34249 0
M  V30 3694 H 363.379 -3.19993 0.526763 0
M  V30 3695 H 363.164 -3.17484 2.30101 0
M  V30 3696 H 364.654 -3.86218 1.58826 0
M  V30 3697 N 365.091 -1.34144 -0.827227 0
M  V30 3698 C 366.001 -1.27428 -1.96975 0
M  V30 3699 C 367.017 -0.182728 -1.73038 0
M  V30 3700 O 368.193 -0.408426 -1.97215 0
M  V30 3701 C 365.258 -1.02526 -3.31194 0
M  V30 3702 C 364.319 -2.20796 -3.68168 0
M  V30 3703 C 363.552 -1.97073 -4.95982 0
M  V30 3704 O 363.775 -0.926822 -5.6282 0
M  V30 3705 O 362.709 -2.83912 -5.30733 0
M  V30 3706 H 366.535 -2.23537 -2.05584 0
M  V30 3707 H 364.12 -1.14307 -0.961989 0
M  V30 3708 H 366.002 -0.904026 -4.11589 0
M  V30 3709 H 364.677 -0.0945389 -3.23562 0
M  V30 3710 H 363.584 -2.38477 -2.88235 0
M  V30 3711 H 364.917 -3.12243 -3.8048 0
M  V30 3712 N 366.569 1.04691 -1.17803 0
M  V30 3713 C 367.519 2.10856 -0.867391 0
M  V30 3714 C 368.503 1.601 0.160206 0
M  V30 3715 O 369.695 1.76948 -0.042947 0
M  V30 3716 C 366.824 3.411 -0.388012 0
M  V30 3717 C 365.91 3.9864 -1.44732 0
M  V30 3718 N 366.301 4.30075 -2.66212 0
M  V30 3719 C 364.599 4.26439 -1.30637 0
M  V30 3720 C 365.3 4.76033 -3.34317 0
M  V30 3721 N 364.276 4.76462 -2.61696 0
M  V30 3722 H 368.078 2.33029 -1.79094 0
M  V30 3723 H 365.592 1.22386 -1.0675 0
M  V30 3724 H 367.589 4.16641 -0.146994 0
M  V30 3725 H 366.249 3.20357 0.529271 0
M  V30 3726 H 367.26 4.19917 -3.03134 0
M  V30 3727 H 363.937 4.15056 -0.451129 0
M  V30 3728 H 365.327 5.09427 -4.38103 0
M  V30 3729 N 368.047 0.979072 1.23499 0
M  V30 3730 C 369.293 0.648178 1.92163 0
M  V30 3731 C 369.626 -0.816049 1.76222 0
M  V30 3732 O 368.901 -1.58849 1.12237 0
M  V30 3733 C 369.184 1.03773 3.44824 0
M  V30 3734 C 369.037 2.55948 3.69879 0
M  V30 3735 C 370.356 0.580653 4.36253 0
M  V30 3736 H 367.475 0.236952 0.69787 0
M  V30 3737 H 370.117 1.22012 1.45647 0
M  V30 3738 H 368.267 0.551058 3.84572 0
M  V30 3739 H 369.939 3.12179 3.3962 0
M  V30 3740 H 368.182 2.98641 3.14636 0
M  V30 3741 H 368.853 2.78255 4.76737 0
M  V30 3742 H 371.329 0.998465 4.03943 0
M  V30 3743 H 370.205 0.881663 5.41773 0
M  V30 3744 H 370.466 -0.519052 4.39042 0
M  V30 3745 N 369.525 -1.3858 0.750561 0
M  V30 3746 C 370.755 -2.04175 0.31564 0
M  V30 3747 C 371.163 -1.56726 -1.05989 0
M  V30 3748 O 370.506 -0.734225 -1.68389 0
M  V30 3749 C 370.568 -3.58585 0.256389 0
M  V30 3750 C 370.232 -4.29077 1.57296 0
M  V30 3751 C 371.229 -4.54656 2.52159 0
M  V30 3752 C 368.914 -4.67324 1.84156 0
M  V30 3753 C 370.908 -5.17512 3.72103 0
M  V30 3754 C 368.595 -5.29905 3.04374 0
M  V30 3755 C 369.593 -5.54933 3.98168 0
M  V30 3756 O 369.281 -6.16212 5.16273 0
M  V30 3757 H 369.013 -0.662742 0.133226 0
M  V30 3758 H 371.567 -1.78313 1.01948 0
M  V30 3759 H 369.797 -3.83406 -0.503677 0
M  V30 3760 H 371.486 -4.05628 -0.148612 0
M  V30 3761 H 372.252 -4.25539 2.32683 0
M  V30 3762 H 368.131 -4.47191 1.11988 0
M  V30 3763 H 371.675 -5.36963 4.45327 0
M  V30 3764 H 367.572 -5.58444 3.23745 0
M  V30 3765 H 368.34 -6.34701 5.16815 0
M  V30 3766 N 371.003 -0.499398 -1.49478 0
M  V30 3767 C 371.951 0.293604 -2.3074 0
M  V30 3768 C 372.945 0.96427 -1.39277 0
M  V30 3769 O 374.151 0.892141 -1.56336 0
M  V30 3770 H 370.526 0.113541 -0.743379 0
M  V30 3771 H 372.497 -0.411772 -2.95545 0
M  V30 3772 C 371.246 1.3462 -3.20582 0
M  V30 3773 H 370.569 0.83954 -3.90886 0
M  V30 3774 H 372.009 1.87308 -3.80384 0
M  V30 3775 C 370.468 2.36351 -2.40083 0
M  V30 3776 O 370.998 3.422 -2.10385 0
M  V30 3777 N 369.204 2.0878 -2.02137 0
M  V30 3778 H 368.751 1.22723 -2.26488 0
M  V30 3779 H 368.709 2.77075 -1.48583 0
M  V30 3780 N 372.481 1.55866 -0.233164 0
M  V30 3781 C 373.727 1.98897 0.395959 0
M  V30 3782 C 374.06 1.12091 1.58585 0
M  V30 3783 O 373.335 0.181182 1.93654 0
M  V30 3784 C 373.618 3.50658 0.819224 0
M  V30 3785 C 373.471 4.48233 -0.375109 0
M  V30 3786 C 374.79 4.07135 1.67121 0
M  V30 3787 H 371.909 0.723102 0.142451 0
M  V30 3788 H 374.551 1.87082 -0.331725 0
M  V30 3789 H 372.701 3.60857 1.43925 0
M  V30 3790 H 374.373 4.50031 -1.01341 0
M  V30 3791 H 372.616 4.21624 -1.02058 0
M  V30 3792 H 373.287 5.51988 -0.0358328 0
M  V30 3793 H 375.763 3.99952 1.14795 0
M  V30 3794 H 374.639 5.13615 1.93625 0
M  V30 3795 H 374.9 3.54736 2.63846 0
M  V30 3796 N 373.959 -0.0401083 1.57549 0
M  V30 3797 C 374.889 -1.04384 2.08869 0
M  V30 3798 C 375.87 -1.38407 0.988817 0
M  V30 3799 O 377.055 -1.47483 1.26342 0
M  V30 3800 C 374.185 -2.34808 2.55895 0
M  V30 3801 C 373.139 -2.15057 3.70047 0
M  V30 3802 C 372.465 -3.51145 4.03239 0
M  V30 3803 C 373.765 -1.54576 4.98902 0
M  V30 3804 H 375.459 -0.616666 2.92981 0
M  V30 3805 H 373.005 -0.295184 1.40942 0
M  V30 3806 H 374.958 -3.05346 2.90417 0
M  V30 3807 H 373.682 -2.79565 1.68853 0
M  V30 3808 H 372.341 -1.46954 3.35857 0
M  V30 3809 H 371.989 -3.93529 3.13279 0
M  V30 3810 H 371.689 -3.38758 4.80122 0
M  V30 3811 H 373.213 -4.23062 4.40285 0
M  V30 3812 H 374.627 -2.15017 5.31451 0
M  V30 3813 H 373.024 -1.52796 5.80322 0
M  V30 3814 H 374.094 -0.51039 4.82206 0
M  V30 3815 N 375.437 -1.54477 -0.31217 0
M  V30 3816 C 376.853 -1.45442 -0.657185 0
M  V30 3817 C 377.053 -0.63653 -1.91182 0
M  V30 3818 O 376.109 -0.139815 -2.52113 0
M  V30 3819 C 377.422 -2.89287 -0.82058 0
M  V30 3820 C 378.97 -2.9926 -0.917188 0
M  V30 3821 C 379.445 -4.44279 -1.11267 0
M  V30 3822 N 380.936 -4.4794 -1.17914 0
M  V30 3823 C 381.671 -5.57318 -1.34848 0
M  V30 3824 N 381.167 -6.76642 -1.48752 0
M  V30 3825 N 382.96 -5.44986 -1.37647 0
M  V30 3826 H 375.111 -2.06129 0.512313 0
M  V30 3827 H 377.374 -0.933088 0.167485 0
M  V30 3828 H 377.08 -3.51687 0.0302604 0
M  V30 3829 H 376.954 -3.36061 -1.71298 0
M  V30 3830 H 379.341 -2.36981 -1.75852 0
M  V30 3831 H 379.422 -2.558 -0.00101257 0
M  V30 3832 H 379.066 -5.07149 -0.27614 0
M  V30 3833 H 378.996 -4.85359 -2.04289 0
M  V30 3834 H 381.487 -3.61969 -1.08567 0
M  V30 3835 H 381.8 -7.55758 -1.61397 0
M  V30 3836 H 380.145 -6.79529 -1.45828 0
M  V30 3837 H 383.336 -4.50715 -1.26388 0
M  V30 3838 H 383.509 -6.3028 -1.50501 0
M  V30 3839 N 376.915 0.57481 -1.46744 0
M  V30 3840 C 377.847 1.69804 -1.53946 0
M  V30 3841 C 378.86 1.57098 -0.427106 0
M  V30 3842 O 380.049 1.64378 -0.695863 0
M  V30 3843 C 377.149 3.08125 -1.4111 0
M  V30 3844 C 376.322 3.46757 -2.66605 0
M  V30 3845 C 375.381 4.6417 -2.47855 0
M  V30 3846 O 374.407 4.69634 -3.21609 0
M  V30 3847 N 375.609 5.59553 -1.54534 0
M  V30 3848 H 378.374 1.64077 -2.50796 0
M  V30 3849 H 375.935 0.761 -1.429 0
M  V30 3850 H 377.927 3.84478 -1.26328 0
M  V30 3851 H 376.497 3.08175 -0.524109 0
M  V30 3852 H 375.717 2.6003 -2.96274 0
M  V30 3853 H 377.005 3.69337 -3.49954 0
M  V30 3854 H 376.403 5.57881 -0.937304 0
M  V30 3855 H 374.96 6.35304 -1.45711 0
M  V30 3856 N 378.394 1.34581 0.820102 0
M  V30 3857 C 379.304 1.28471 1.96297 0
M  V30 3858 C 380.32 0.191902 1.72939 0
M  V30 3859 O 381.496 0.418879 1.96996 0
M  V30 3860 C 378.561 1.04281 3.30645 0
M  V30 3861 C 377.622 2.22745 3.66992 0
M  V30 3862 C 376.855 1.997 4.9493 0
M  V30 3863 O 377.078 0.956656 5.6232 0
M  V30 3864 O 376.012 2.86723 5.2922 0
M  V30 3865 H 379.838 2.24624 2.04396 0
M  V30 3866 H 377.423 1.14816 0.955913 0
M  V30 3867 H 379.305 0.925841 4.11104 0
M  V30 3868 H 377.98 0.111697 3.23507 0
M  V30 3869 H 376.887 2.40003 2.86966 0
M  V30 3870 H 378.22 3.14257 3.78819 0
M  V30 3871 N 379.872 -1.04064 1.18357 0
M  V30 3872 C 381.12 -1.76915 0.977013 0
M  V30 3873 C 381.441 -1.88624 -0.494577 0
M  V30 3874 O 380.711 -1.41125 -1.3587 0
M  V30 3875 H 379.291 -0.65535 0.358504 0
M  V30 3876 H 381.953 -1.25592 1.49039 0
M  V30 3877 H 381.049 -2.78178 1.41504 0
M  V30 3878 N 381.35 -0.985608 -1.22978 0
M  V30 3879 C 382.578 -0.675582 -1.95559 0
M  V30 3880 C 382.993 0.758413 -1.72897 0
M  V30 3881 O 382.35 1.51094 -1.02357 0
M  V30 3882 C 382.401 -0.96293 -3.48439 0
M  V30 3883 O 382.122 -2.34057 -3.70336 0
M  V30 3884 C 383.623 -0.669585 -4.38214 0
M  V30 3885 H 380.843 -0.250523 -0.622478 0
M  V30 3886 H 383.387 -1.3184 -1.56328 0
M  V30 3887 H 381.542 -0.366033 -3.85667 0
M  V30 3888 H 381.956 -2.43424 -4.64591 0
M  V30 3889 H 383.43 -0.920967 -5.44263 0
M  V30 3890 H 383.907 0.396383 -4.37408 0
M  V30 3891 H 384.513 -1.2472 -4.06602 0
M  V30 3892 N 382.828 1.3818 -0.7579 0
M  V30 3893 C 383.76 2.2901 -0.0932177 0
M  V30 3894 C 384.773 1.47958 0.679136 0
M  V30 3895 O 385.962 1.70773 0.519514 0
M  V30 3896 C 383.062 3.26953 0.89192 0
M  V30 3897 C 382.235 4.37045 0.176303 0
M  V30 3898 C 381.294 5.15148 1.07281 0
M  V30 3899 O 380.32 5.66616 0.541728 0
M  V30 3900 N 381.522 5.28542 2.40049 0
M  V30 3901 H 384.287 2.86694 -0.873303 0
M  V30 3902 H 381.848 1.50007 -0.609054 0
M  V30 3903 H 383.84 3.76083 1.49479 0
M  V30 3904 H 382.41 2.70136 1.57306 0
M  V30 3905 H 381.63 3.89493 -0.607328 0
M  V30 3906 H 382.918 5.07801 -0.318718 0
M  V30 3907 H 382.316 4.88285 2.85647 0
M  V30 3908 H 380.873 5.8103 2.95376 0
M  V30 3909 N 384.306 0.507319 1.49211 0
M  V30 3910 C 385.253 -0.267728 2.29242 0
M  V30 3911 C 386.223 -0.954609 1.35928 0
M  V30 3912 O 387.408 -0.960046 1.64887 0
M  V30 3913 C 384.548 -1.32243 3.18756 0
M  V30 3914 C 383.661 -0.64669 4.27132 0
M  V30 3915 C 382.796 -1.68238 5.03855 0
M  V30 3916 C 381.835 -0.98885 6.0406 0
M  V30 3917 N 380.972 -1.96903 6.73924 0
M  V30 3918 H 385.812 0.420968 2.95012 0
M  V30 3919 H 383.349 0.219443 1.45454 0
M  V30 3920 H 385.307 -1.94599 3.69036 0
M  V30 3921 H 383.937 -1.97981 2.54958 0
M  V30 3922 H 382.989 0.0902926 3.80293 0
M  V30 3923 H 384.301 -0.101058 4.98698 0
M  V30 3924 H 383.455 -2.38081 5.58034 0
M  V30 3925 H 382.194 -2.26187 4.32077 0
M  V30 3926 H 381.199 -0.276222 5.49106 0
M  V30 3927 H 382.424 -0.415767 6.77826 0
M  V30 3928 H 380.37 -2.53803 6.04913 0
M  V30 3929 H 380.287 -1.47423 7.41487 0
M  V30 3930 H 381.555 -2.66015 7.32705 0
M  V30 3931 N 385.784 -1.5574 0.241426 0
M  V30 3932 C 387.009 -2.0366 -0.392111 0
M  V30 3933 C 387.434 -1.11969 -1.51144 0
M  V30 3934 O 386.792 -0.111594 -1.80956 0
M  V30 3935 C 386.84 -3.49638 -0.882371 0
M  V30 3936 O 385.944 -3.6108 -1.99235 0
M  V30 3937 H 385.285 -0.658379 -0.0862122 0
M  V30 3938 H 387.815 -2.01302 0.365881 0
M  V30 3939 H 387.825 -3.90351 -1.18702 0
M  V30 3940 H 386.5 -4.15852 -0.0632361 0
M  V30 3941 H 385.077 -3.32262 -1.69282 0
M  V30 3942 N 387.262 0.0317525 -1.57568 0
M  V30 3943 C 388.508 0.724175 -1.8943 0
M  V30 3944 C 388.841 1.75149 -0.838836 0
M  V30 3945 O 388.116 1.93948 0.146422 0
M  V30 3946 C 388.399 1.39615 -3.31933 0
M  V30 3947 C 388.252 0.382537 -4.4817 0
M  V30 3948 C 389.571 2.33084 -3.73309 0
M  V30 3949 H 386.69 0.261797 -0.688935 0
M  V30 3950 H 389.332 -0.013017 -1.89996 0
M  V30 3951 H 387.482 2.02451 -3.31581 0
M  V30 3952 H 389.154 -0.243689 -4.60656 0
M  V30 3953 H 387.397 -0.29844 -4.32772 0
M  V30 3954 H 388.068 0.891145 -5.44759 0
M  V30 3955 H 390.544 1.80295 -3.7501 0
M  V30 3956 H 389.42 2.77084 -4.73831 0
M  V30 3957 H 389.681 3.19643 -3.05419 0
M  V30 3958 N 388.74 1.54641 0.303973 0
M  V30 3959 C 389.989 1.7299 1.03717 0
M  V30 3960 C 390.302 0.521168 1.88529 0
M  V30 3961 O 391.508 0.586408 2.65092 0
M  V30 3962 C 389.964 3.06051 1.89369 0
M  V30 3963 C 389.572 4.34393 1.09574 0
M  V30 3964 C 391.316 3.3376 2.62306 0
M  V30 3965 C 389.223 5.58506 1.94486 0
M  V30 3966 H 388.153 0.64473 0.390947 0
M  V30 3967 H 390.804 1.81124 0.294328 0
M  V30 3968 H 389.186 2.91874 2.67629 0
M  V30 3969 H 390.36 4.59396 0.359485 0
M  V30 3970 H 388.675 4.13597 0.482324 0
M  V30 3971 H 391.272 4.23687 3.26181 0
M  V30 3972 H 391.615 2.52503 3.3098 0
M  V30 3973 H 392.148 3.48894 1.91097 0
M  V30 3974 H 388.887 6.42422 1.30287 0
M  V30 3975 H 388.407 5.37694 2.65792 0
M  V30 3976 H 390.086 5.95651 2.52605 0
M  V30 3977 N 390.218 -0.567019 1.47046 0
M  V30 3978 C 391.495 -1.3276 1.43646 0
M  V30 3979 C 391.875 -2.1071 0.128186 0
M  V30 3980 O 391.223 -2.10441 -0.890326 0
M  V30 3981 C 391.433 -2.2404 2.67595 0
M  V30 3982 C 392.781 -2.85372 3.14401 0
M  V30 3983 O 393.805 -2.34346 2.68254 0
M  V30 3984 O 392.664 -3.78091 3.946 0
M  V30 3985 H 389.758 -0.597293 0.571988 0
M  V30 3986 H 392.304 -0.586735 1.59234 0
M  V30 3987 H 391.076 -1.65975 3.54356 0
M  V30 3988 H 390.699 -3.05439 2.54544 0
M  V30 3989 N 391.696 -1.35014 -0.812953 0
M  V30 3990 C 392.924 -1.31031 -1.6012 0
M  V30 3991 C 393.339 0.113558 -1.88458 0
M  V30 3992 O 392.696 1.06363 -1.48301 0
M  V30 3993 C 392.747 -2.10872 -2.93624 0
M  V30 3994 O 392.468 -3.47706 -2.66518 0
M  V30 3995 C 393.969 -2.14401 -3.88004 0
M  V30 3996 H 391.189 -0.45037 -0.497401 0
M  V30 3997 H 393.733 -1.77775 -1.01076 0
M  V30 3998 H 391.888 -1.67744 -3.492 0
M  V30 3999 H 392.302 -3.89097 -3.51715 0
M  V30 4000 H 393.776 -2.74669 -4.78812 0
M  V30 4001 H 394.253 -1.14105 -4.24119 0
M  V30 4002 H 394.859 -2.57662 -3.38364 0
M  V30 4003 N 393.175 1.03435 -1.18907 0
M  V30 4004 C 394.108 2.11162 -0.86521 0
M  V30 4005 C 395.086 1.6165 0.175473 0
M  V30 4006 O 396.27 1.88425 0.0530129 0
M  V30 4007 C 393.397 3.37423 -0.293868 0
M  V30 4008 C 392.443 4.05795 -1.31274 0
M  V30 4009 S 393.276 4.52027 -2.8711 0
M  V30 4010 C 394.432 5.81513 -2.31504 0
M  V30 4011 H 394.665 2.38308 -1.77754 0
M  V30 4012 H 392.198 1.16295 -1.01562 0
M  V30 4013 H 394.156 4.1049 0.0292572 0
M  V30 4014 H 392.817 3.0838 0.596682 0
M  V30 4015 H 392.01 4.96574 -0.86198 0
M  V30 4016 H 391.612 3.38874 -1.58242 0
M  V30 4017 H 393.904 6.55784 -1.70157 0
M  V30 4018 H 394.847 6.3136 -3.20608 0
M  V30 4019 H 395.255 5.36921 -1.74286 0
M  V30 4020 N 394.653 0.992116 1.22453 0
M  V30 4021 C 395.585 0.500024 2.23679 0
M  V30 4022 C 396.598 -0.404463 1.57696 0
M  V30 4023 O 397.787 -0.206722 1.77299 0
M  V30 4024 C 394.887 -0.294711 3.37616 0
M  V30 4025 C 394.06 0.605723 4.33186 0
M  V30 4026 C 393.119 -0.13717 5.26021 0
M  V30 4027 O 392.145 0.477164 5.67196 0
M  V30 4028 N 393.347 -1.4197 5.62872 0
M  V30 4029 H 396.112 1.37045 2.66531 0
M  V30 4030 H 393.673 0.866741 1.36745 0
M  V30 4031 H 395.665 -0.800329 3.96707 0
M  V30 4032 H 394.235 -1.06623 2.93854 0
M  V30 4033 H 393.455 1.29202 3.72425 0
M  V30 4034 H 394.743 1.21896 4.93983 0
M  V30 4035 H 394.141 -1.94015 5.31389 0
M  V30 4036 H 392.698 -1.87052 6.24383 0
M  V30 4037 N 396.131 -1.37776 0.765217 0
M  V30 4038 C 397.359 -2.04124 0.337767 0
M  V30 4039 C 397.774 -1.57715 -1.03785 0
M  V30 4040 O 397.131 -0.755447 -1.6613 0
M  V30 4041 C 397.182 -3.59658 0.364442 0
M  V30 4042 O 396.903 -4.04367 1.68579 0
M  V30 4043 C 398.404 -4.43236 -0.0754221 0
M  V30 4044 H 395.624 -0.655696 0.142491 0
M  V30 4045 H 398.168 -1.76238 1.03732 0
M  V30 4046 H 396.323 -3.86339 -0.286471 0
M  V30 4047 H 396.737 -4.98857 1.61993 0
M  V30 4048 H 398.211 -5.52 -0.00560067 0
M  V30 4049 H 398.688 -4.2455 -1.12491 0
M  V30 4050 H 399.294 -4.21767 0.547055 0
M  V30 4051 N 397.609 -0.515225 -1.4894 0
M  V30 4052 C 399.025 -0.172099 -1.58669 0
M  V30 4053 C 399.225 1.32405 -1.51892 0
M  V30 4054 O 398.281 2.10116 -1.40027 0
M  V30 4055 C 399.594 -0.761533 -2.90897 0
M  V30 4056 C 401.142 -0.728926 -3.04394 0
M  V30 4057 C 401.617 -1.29667 -4.39261 0
M  V30 4058 N 403.108 -1.25799 -4.4579 0
M  V30 4059 C 403.843 -1.66733 -5.48623 0
M  V30 4060 N 403.339 -2.15327 -6.58488 0
M  V30 4061 N 405.132 -1.58061 -5.39419 0
M  V30 4062 H 397.283 -1.48778 -1.51588 0
M  V30 4063 H 399.546 -0.617968 -0.718901 0
M  V30 4064 H 399.252 -1.81136 -3.01468 0
M  V30 4065 H 399.126 -0.230106 -3.76497 0
M  V30 4066 H 401.513 0.312098 -2.93445 0
M  V30 4067 H 401.594 -1.29766 -2.20442 0
M  V30 4068 H 401.238 -2.33655 -4.50963 0
M  V30 4069 H 401.168 -0.703752 -5.21876 0
M  V30 4070 H 403.659 -0.902102 -3.66975 0
M  V30 4071 H 403.972 -2.44594 -7.33071 0
M  V30 4072 H 402.317 -2.19311 -6.59491 0
M  V30 4073 H 405.508 -1.19906 -4.52482 0
M  V30 4074 H 405.681 -1.90284 -6.19432 0
M  V30 4075 N 399.087 1.5561 -0.249682 0
M  V30 4076 C 400.035 2.22894 0.664906 0
M  V30 4077 C 401.029 1.21743 1.17792 0
M  V30 4078 O 402.235 1.39748 1.13449 0
M  V30 4079 H 398.61 0.715022 0.232912 0
M  V30 4080 H 400.581 2.98307 0.0742998 0
M  V30 4081 C 399.33 2.94424 1.84959 0
M  V30 4082 H 398.653 3.72031 1.46399 0
M  V30 4083 H 400.093 3.44862 2.4667 0
M  V30 4084 C 398.552 1.98454 2.72245 0
M  V30 4085 O 399.082 1.51939 3.71857 0
M  V30 4086 N 397.288 1.65496 2.38871 0
M  V30 4087 H 396.835 2.03517 1.57919 0
M  V30 4088 H 396.793 1.0155 2.97548 0
M  V30 4089 N 400.565 -0.0233959 1.57583 0
M  V30 4090 C 401.475 -1.03907 2.10334 0
M  V30 4091 C 402.491 -1.39257 1.04323 0
M  V30 4092 O 403.667 -1.48462 1.36091 0
M  V30 4093 C 400.732 -2.31938 2.57693 0
M  V30 4094 C 399.793 -2.03117 3.78209 0
M  V30 4095 C 399.026 -3.25043 4.233 0
M  V30 4096 O 399.249 -4.35916 3.67876 0
M  V30 4097 O 398.183 -3.10411 5.15683 0
M  V30 4098 H 402.009 -0.620748 2.97288 0
M  V30 4099 H 399.594 -0.240743 1.47448 0
M  V30 4100 H 401.476 -3.07196 2.88458 0
M  V30 4101 H 400.151 -2.73055 1.73847 0
M  V30 4102 H 399.058 -1.25408 3.52454 0
M  V30 4103 H 400.391 -1.66852 4.63056 0
M  V30 4104 N 402.043 -1.548 -0.295768 0
M  V30 4105 C 402.973 -1.89115 -1.36959 0
M  V30 4106 C 403.954 -0.75059 -1.52644 0
M  V30 4107 O 405.139 -1.00678 -1.66065 0
M  V30 4108 C 402.269 -2.14307 -2.73295 0
M  V30 4109 C 401.223 -3.30151 -2.72368 0
M  V30 4110 C 400.549 -3.40772 -4.12042 0
M  V30 4111 C 401.849 -4.67126 -2.33646 0
M  V30 4112 H 403.543 -2.79053 -1.08488 0
M  V30 4113 H 401.089 -1.34266 -0.520443 0
M  V30 4114 H 403.042 -2.36898 -3.48507 0
M  V30 4115 H 401.766 -1.21145 -3.03301 0
M  V30 4116 H 400.425 -3.0749 -1.99613 0
M  V30 4117 H 400.073 -2.45117 -4.39234 0
M  V30 4118 H 399.773 -4.18645 -4.12322 0
M  V30 4119 H 401.297 -3.6563 -4.89027 0
M  V30 4120 H 402.711 -4.89414 -2.98575 0
M  V30 4121 H 401.108 -5.47751 -2.45129 0
M  V30 4122 H 402.178 -4.67489 -1.28772 0
M  V30 4123 N 403.521 0.559213 -1.47345 0
M  V30 4124 C 404.751 1.33999 -1.57251 0
M  V30 4125 C 405.159 1.87905 -0.220978 0
M  V30 4126 O 404.502 1.65577 0.795617 0
M  V30 4127 C 404.564 2.54798 -2.53611 0
M  V30 4128 C 404.228 2.22192 -3.99349 0
M  V30 4129 C 405.225 1.79607 -4.87891 0
M  V30 4130 C 402.91 2.33613 -4.44669 0
M  V30 4131 C 404.904 1.48868 -6.19772 0
M  V30 4132 C 402.591 2.02487 -5.76578 0
M  V30 4133 C 403.589 1.60183 -6.63951 0
M  V30 4134 O 403.277 1.29451 -7.93409 0
M  V30 4135 H 403.009 0.414858 -0.533731 0
M  V30 4136 H 405.563 0.684465 -1.9366 0
M  V30 4137 H 403.793 3.23235 -2.12265 0
M  V30 4138 H 405.482 3.16873 -2.53666 0
M  V30 4139 H 406.248 1.70278 -4.54126 0
M  V30 4140 H 402.127 2.65501 -3.76869 0
M  V30 4141 H 405.671 1.15775 -6.87926 0
M  V30 4142 H 401.568 2.11448 -6.09885 0
M  V30 4143 H 402.336 1.43098 -8.05894 0
M  V30 4144 N 404.999 1.35443 0.805782 0
M  V30 4145 C 405.909 1.30546 1.94923 0
M  V30 4146 C 406.925 0.210233 1.72725 0
M  V30 4147 O 408.101 0.43975 1.9654 0
M  V30 4148 C 405.166 1.07782 3.29521 0
M  V30 4149 C 404.227 2.26625 3.64609 0
M  V30 4150 C 403.46 2.04938 4.92784 0
M  V30 4151 O 403.683 1.01624 5.61274 0
M  V30 4152 O 402.617 2.9232 5.26149 0
M  V30 4153 H 406.443 2.26779 2.02002 0
M  V30 4154 H 404.028 1.15823 0.943682 0
M  V30 4155 H 405.91 0.969392 4.10098 0
M  V30 4156 H 404.585 0.146003 3.23371 0
M  V30 4157 H 403.492 2.43033 2.84404 0
M  V30 4158 H 404.825 3.18257 3.75464 0
M  V30 4159 N 406.477 -1.02803 1.19454 0
M  V30 4160 C 407.702 -1.80378 1.02364 0
M  V30 4161 C 408.127 -1.83282 -0.423007 0
M  V30 4162 O 407.485 -1.25945 -1.30413 0
M  V30 4163 C 407.533 -3.23248 1.59821 0
M  V30 4164 O 406.637 -4.04 0.828105 0
M  V30 4165 H 405.978 -0.556799 0.361761 0
M  V30 4166 H 408.508 -1.29385 1.58495 0
M  V30 4167 H 408.518 -3.73994 1.63073 0
M  V30 4168 H 407.193 -3.2045 2.65113 0
M  V30 4169 H 405.77 -3.62635 0.86891 0
M  V30 4170 N 407.956 -0.998596 -1.21925 0
M  V30 4171 C 409.205 -0.673085 -1.90138 0
M  V30 4172 C 409.518 0.79895 -1.78539 0
M  V30 4173 O 410.724 1.23628 -2.4172 0
M  V30 4174 C 409.18 -1.15339 -3.40918 0
M  V30 4175 C 408.788 -2.65106 -3.61141 0
M  V30 4176 C 410.532 -0.902476 -4.14796 0
M  V30 4177 C 408.439 -3.0671 -5.05651 0
M  V30 4178 H 407.369 -0.248057 -0.712028 0
M  V30 4179 H 410.02 -1.20891 -1.38049 0
M  V30 4180 H 408.402 -0.545658 -3.92223 0
M  V30 4181 H 409.576 -3.31274 -3.20304 0
M  V30 4182 H 407.891 -2.88142 -3.00605 0
M  V30 4183 H 410.488 -1.18895 -5.21314 0
M  V30 4184 H 410.831 0.161349 -4.15987 0
M  V30 4185 H 411.364 -1.47269 -3.69536 0
M  V30 4186 H 408.103 -4.12292 -5.09603 0
M  V30 4187 H 407.623 -2.45249 -5.47369 0
M  V30 4188 H 409.302 -2.9833 -5.74115 0
M  V30 4189 N 409.434 1.37368 -0.772513 0
M  V30 4190 C 410.382 2.32134 -0.147111 0
M  V30 4191 C 411.376 1.54972 0.684106 0
M  V30 4192 O 412.582 1.70363 0.581083 0
M  V30 4193 H 408.957 0.751449 -0.028786 0
M  V30 4194 H 410.928 2.82464 -0.962112 0
M  V30 4195 C 409.677 3.40226 0.71703 0
M  V30 4196 H 409 3.99706 0.0867951 0
M  V30 4197 H 410.44 4.08897 1.12159 0
M  V30 4198 C 408.899 2.80372 1.86797 0
M  V30 4199 O 409.429 2.71183 2.96349 0
M  V30 4200 N 407.635 2.37904 1.66883 0
M  V30 4201 H 407.182 2.45578 0.777759 0
M  V30 4202 H 407.14 1.98202 2.44056 0
M  V30 4203 N 410.912 0.523116 1.48665 0
M  V30 4204 C 412.142 -0.00961724 2.06598 0
M  V30 4205 C 412.55 -1.29333 1.38093 0
M  V30 4206 O 411.893 -1.77846 0.46007 0
M  V30 4207 C 411.955 -0.311135 3.58151 0
M  V30 4208 C 411.619 0.878092 4.48485 0
M  V30 4209 C 412.616 1.77464 4.88674 0
M  V30 4210 C 410.301 1.08315 4.90483 0
M  V30 4211 C 412.295 2.86021 5.69623 0
M  V30 4212 C 409.982 2.17187 5.71203 0
M  V30 4213 C 410.98 3.05873 6.10681 0
M  V30 4214 O 410.668 4.12862 6.89783 0
M  V30 4215 H 410.4 0.0272658 0.67545 0
M  V30 4216 H 412.954 0.726156 1.92136 0
M  V30 4217 H 411.184 -1.10079 3.70701 0
M  V30 4218 H 412.873 -0.785125 3.98234 0
M  V30 4219 H 413.639 1.62813 4.56855 0
M  V30 4220 H 409.518 0.402149 4.59243 0
M  V30 4221 H 413.062 3.55272 6.00356 0
M  V30 4222 H 408.959 2.31824 6.02435 0
M  V30 4223 H 409.727 4.10487 7.08126 0
M  V30 4224 N 412.39 -1.55475 0.257931 0
M  V30 4225 C 413.62 -2.03314 -0.367026 0
M  V30 4226 C 414.028 -1.13625 -1.51281 0
M  V30 4227 O 413.371 -0.145334 -1.83124 0
M  V30 4228 C 413.433 -3.47362 -0.926284 0
M  V30 4229 C 413.097 -4.56914 0.0886584 0
M  V30 4230 C 414.094 -5.12013 0.902123 0
M  V30 4231 C 411.779 -5.01827 0.217936 0
M  V30 4232 C 413.773 -6.10529 1.83122 0
M  V30 4233 C 411.46 -6.00172 1.15052 0
M  V30 4234 C 412.458 -6.54402 1.95568 0
M  V30 4235 O 412.146 -7.50827 2.87253 0
M  V30 4236 H 411.878 -0.669976 -0.0900443 0
M  V30 4237 H 414.432 -2.01804 0.382673 0
M  V30 4238 H 412.662 -3.46056 -1.72575 0
M  V30 4239 H 414.351 -3.78637 -1.46249 0
M  V30 4240 H 415.117 -4.78139 0.812891 0
M  V30 4241 H 410.996 -4.59272 -0.398721 0
M  V30 4242 H 414.54 -6.52783 2.46008 0
M  V30 4243 H 410.437 -6.33465 1.24064 0
M  V30 4244 H 411.205 -7.68483 2.81739 0
M  V30 4245 N 413.868 0.0150385 -1.57593 0
M  V30 4246 C 414.8 1.03912 -2.04291 0
M  V30 4247 C 415.813 1.31618 -0.958146 0
M  V30 4248 O 417.002 1.28859 -1.23522 0
M  V30 4249 C 414.102 2.37749 -2.41514 0
M  V30 4250 C 413.275 2.29198 -3.72541 0
M  V30 4251 C 412.334 3.45598 -3.96797 0
M  V30 4252 O 411.36 3.24461 -4.67668 0
M  V30 4253 N 412.562 4.67945 -3.43523 0
M  V30 4254 H 415.327 0.64099 -2.92765 0
M  V30 4255 H 412.888 0.20272 -1.60626 0
M  V30 4256 H 414.88 3.14364 -2.54867 0
M  V30 4257 H 413.45 2.69357 -1.58637 0
M  V30 4258 H 412.67 1.3759 -3.69408 0
M  V30 4259 H 413.958 2.20642 -4.5847 0
M  V30 4260 H 413.356 4.88017 -2.86104 0
M  V30 4261 H 411.913 5.41878 -3.62232 0
M  V30 4262 N 415.346 1.54954 0.287554 0
M  V30 4263 C 416.576 1.78622 1.03816 0
M  V30 4264 C 416.984 0.552451 1.80955 0
M  V30 4265 O 416.327 -0.487665 1.77109 0
M  V30 4266 C 416.389 2.94975 2.055 0
M  V30 4267 C 416.053 4.32565 1.47433 0
M  V30 4268 C 417.05 5.12096 0.897436 0
M  V30 4269 C 414.735 4.79195 1.50591 0
M  V30 4270 C 416.729 6.36383 0.359851 0
M  V30 4271 C 414.416 6.03441 0.964459 0
M  V30 4272 C 415.414 6.81872 0.392413 0
M  V30 4273 O 415.102 8.03777 -0.140788 0
M  V30 4274 H 414.834 0.599144 0.313053 0
M  V30 4275 H 417.388 2.02761 0.328225 0
M  V30 4276 H 415.618 2.66493 2.80211 0
M  V30 4277 H 417.307 3.06097 2.6657 0
M  V30 4278 H 418.073 4.77209 0.865841 0
M  V30 4279 H 413.952 4.18167 1.94055 0
M  V30 4280 H 417.496 6.97545 -0.0872951 0
M  V30 4281 H 413.393 6.37813 0.993246 0
M  V30 4282 H 414.161 8.18495 -0.0287617 0
M  V30 4283 N 416.824 -0.551391 1.4764 0
M  V30 4284 C 417.734 -1.68525 1.63207 0
M  V30 4285 C 418.75 -1.6621 0.514815 0
M  V30 4286 O 419.926 -1.85551 0.783113 0
M  V30 4287 C 416.991 -3.05025 1.64805 0
M  V30 4288 C 416.052 -3.18362 2.88 0
M  V30 4289 C 415.285 -4.4835 2.89513 0
M  V30 4290 O 415.508 -5.34163 2.00065 0
M  V30 4291 O 414.442 -4.65602 3.81443 0
M  V30 4292 H 418.268 -1.58333 2.59161 0
M  V30 4293 H 415.853 -0.722063 1.30792 0
M  V30 4294 H 417.735 -3.86245 1.68502 0
M  V30 4295 H 416.41 -3.15587 0.720197 0
M  V30 4296 H 415.317 -2.36518 2.89845 0
M  V30 4297 H 416.65 -3.12707 3.80099 0
M  V30 4298 N 418.302 -1.35869 -0.798587 0
M  V30 4299 C 419.212 -1.31578 -1.94228 0
M  V30 4300 C 420.228 -0.21939 -1.72611 0
M  V30 4301 O 421.404 -0.450167 -1.96305 0
M  V30 4302 C 418.469 -1.09528 -3.28944 0
M  V30 4303 C 417.53 -2.28556 -3.63402 0
M  V30 4304 C 416.763 -2.07549 -4.9169 0
M  V30 4305 O 416.986 -1.046 -5.60727 0
M  V30 4306 O 415.92 -2.95106 -5.24591 0
M  V30 4307 H 419.746 -2.27847 -2.00796 0
M  V30 4308 H 417.331 -1.16322 -0.937526 0
M  V30 4309 H 419.213 -0.991127 -4.09579 0
M  V30 4310 H 417.888 -0.16315 -3.23289 0
M  V30 4311 H 416.795 -2.44538 -2.83112 0
M  V30 4312 H 418.128 -3.20244 -3.73771 0
M  V30 4313 N 419.78 1.02168 -1.19998 0
M  V30 4314 C 420.727 2.10601 -0.944228 0
M  V30 4315 C 421.697 1.65639 0.123664 0
M  V30 4316 O 422.882 1.9079 -0.0199941 0
M  V30 4317 C 420.022 3.41504 -0.496865 0
M  V30 4318 C 419.135 3.99973 -1.63234 0
M  V30 4319 C 418.27 5.18915 -1.13579 0
M  V30 4320 C 417.309 5.69456 -2.24468 0
M  V30 4321 N 416.446 6.79665 -1.76068 0
M  V30 4322 H 421.286 2.31814 -1.8726 0
M  V30 4323 H 418.823 1.13686 -0.933483 0
M  V30 4324 H 420.781 4.16626 -0.218843 0
M  V30 4325 H 419.411 3.2038 0.394508 0
M  V30 4326 H 418.463 3.21997 -2.0254 0
M  V30 4327 H 419.775 4.33492 -2.46752 0
M  V30 4328 H 418.929 6.01222 -0.813429 0
M  V30 4329 H 417.668 4.8695 -0.270434 0
M  V30 4330 H 416.673 4.85757 -2.57526 0
M  V30 4331 H 417.898 6.03459 -3.11472 0
M  V30 4332 H 415.844 6.49538 -0.918516 0
M  V30 4333 H 415.761 7.12349 -2.5317 0
M  V30 4334 H 417.029 7.65549 -1.46817 0
M  V30 4335 N 421.258 1.00505 1.21394 0
M  V30 4336 C 422.188 0.585684 2.26035 0
M  V30 4337 C 423.169 -0.393525 1.65485 0
M  V30 4338 O 424.354 -0.281497 1.92149 0
M  V30 4339 C 421.484 -0.0884283 3.47187 0
M  V30 4340 C 420.438 0.810567 4.20254 0
M  V30 4341 C 419.764 0.00286382 5.347 0
M  V30 4342 C 421.064 2.1132 4.77641 0
M  V30 4343 H 422.758 1.46039 2.61368 0
M  V30 4344 H 420.304 0.703648 1.25638 0
M  V30 4345 H 422.257 -0.393286 4.19561 0
M  V30 4346 H 420.981 -0.997766 3.10986 0
M  V30 4347 H 419.64 1.09925 3.49731 0
M  V30 4348 H 419.288 -0.907765 4.94741 0
M  V30 4349 H 418.988 0.601444 5.84514 0
M  V30 4350 H 420.512 -0.295808 6.09883 0
M  V30 4351 H 421.926 1.87148 5.41893 0
M  V30 4352 H 420.323 2.66164 5.37845 0
M  V30 4353 H 421.393 2.78393 3.9702 0
M  V30 4354 N 422.737 -1.36956 0.779787 0
M  V30 4355 C 424.014 -1.93697 0.272156 0
M  V30 4356 C 424.394 -1.71267 -1.23413 0
M  V30 4357 O 423.742 -1.06607 -2.02107 0
M  V30 4358 C 423.952 -3.42812 0.654291 0
M  V30 4359 C 425.3 -4.19921 0.628602 0
M  V30 4360 O 426.324 -3.51209 0.594172 0
M  V30 4361 O 425.183 -5.42465 0.662864 0
M  V30 4362 H 422.277 -0.824447 0.0649286 0
M  V30 4363 H 424.823 -1.46196 0.861682 0
M  V30 4364 H 423.595 -3.52754 1.69353 0
M  V30 4365 H 423.218 -3.97582 0.0381369 0
M  V30 4366 N 424.215 -0.530993 -1.48385 0
M  V30 4367 C 425.163 0.244595 -2.3131 0
M  V30 4368 C 426.157 0.93451 -1.41291 0
M  V30 4369 O 427.363 0.85878 -1.58193 0
M  V30 4370 H 423.738 0.0977472 -0.74562 0
M  V30 4371 H 425.709 -0.474369 -2.94605 0
M  V30 4372 C 424.458 1.2779 -3.23365 0
M  V30 4373 H 423.781 0.756439 -3.92579 0
M  V30 4374 H 425.221 1.79198 -3.84271 0
M  V30 4375 C 423.68 2.31205 -2.45042 0
M  V30 4376 O 424.21 3.37661 -2.17596 0
M  V30 4377 N 422.416 2.04446 -2.0652 0
M  V30 4378 H 421.963 1.17891 -2.2904 0
M  V30 4379 H 421.921 2.73861 -1.54427 0
M  V30 4380 N 425.693 1.55336 -0.266172 0
M  V30 4381 C 426.623 2.25146 0.618981 0
M  V30 4382 C 427.604 1.23845 1.16604 0
M  V30 4383 O 428.789 1.52544 1.20183 0
M  V30 4384 C 425.919 2.96572 1.80728 0
M  V30 4385 C 424.873 4.04726 1.39215 0
M  V30 4386 C 424.199 4.63678 2.66283 0
M  V30 4387 C 425.499 5.19407 0.548942 0
M  V30 4388 H 427.193 2.99377 0.0368116 0
M  V30 4389 H 424.739 1.43991 0.0162651 0
M  V30 4390 H 426.692 3.44116 2.43232 0
M  V30 4391 H 425.416 2.19861 2.41514 0
M  V30 4392 H 424.075 3.57979 0.790351 0
M  V30 4393 H 423.723 3.83646 3.25308 0
M  V30 4394 H 423.423 5.367 2.39222 0
M  V30 4395 H 424.947 5.13967 3.29651 0
M  V30 4396 H 426.361 5.63059 1.07876 0
M  V30 4397 H 424.758 5.98936 0.373593 0
M  V30 4398 H 425.828 4.8295 -0.434394 0
M  V30 4399 N 427.171 -0.0066808 1.57599 0
M  V30 4400 C 428.418 -0.69292 1.90276 0
M  V30 4401 C 428.746 -1.74148 0.866192 0
M  V30 4402 O 428.001 -1.95268 -0.129933 0
M  V30 4403 C 428.3 -1.37939 3.29708 0
M  V30 4404 C 427.966 -0.464679 4.48499 0
M  V30 4405 C 426.628 -0.212809 4.80729 0
M  V30 4406 C 428.98 0.16551 5.20937 0
M  V30 4407 C 426.308 0.677653 5.82773 0
M  V30 4408 C 428.66 1.04381 6.23929 0
M  V30 4409 C 427.324 1.30492 6.54621 0
M  V30 4410 H 426.594 -0.253558 0.696268 0
M  V30 4411 H 429.241 0.0474123 1.91441 0
M  V30 4412 H 427.546 -2.1936 3.24636 0
M  V30 4413 H 429.243 -1.9163 3.52249 0
M  V30 4414 H 425.833 -0.671153 4.23313 0
M  V30 4415 H 430.017 -0.0160756 4.96297 0
M  V30 4416 H 425.273 0.88803 6.04917 0
M  V30 4417 H 429.447 1.53851 6.79193 0
M  V30 4418 H 427.074 1.99662 7.33512 0
M  V30 4419 N 428.649 -1.55105 -0.279332 0
M  V30 4420 C 429.612 -1.86783 -1.32834 0
M  V30 4421 C 430.612 -0.74199 -1.42657 0
M  V30 4422 O 431.802 -1.0102 -1.41918 0
M  V30 4423 C 428.934 -2.06746 -2.71052 0
M  V30 4424 H 430.127 -2.8055 -1.05979 0
M  V30 4425 H 427.68 -1.47499 -0.517087 0
M  V30 4426 H 428.415 -1.15339 -3.03097 0
M  V30 4427 H 428.2 -2.88711 -2.65309 0
M  V30 4428 H 429.69 -2.32549 -3.46858 0
M  V30 4429 N 430.127 0.543554 -1.4793 0
M  V30 4430 C 431.543 0.870806 -1.3375 0
M  V30 4431 C 431.743 1.9864 -0.338261 0
M  V30 4432 O 430.799 2.51305 0.245371 0
M  V30 4433 C 432.112 1.25114 -2.73435 0
M  V30 4434 C 433.66 1.3618 -2.81823 0
M  V30 4435 C 434.135 1.77563 -4.22179 0
M  V30 4436 N 435.626 1.8469 -4.24787 0
M  V30 4437 C 436.361 2.18067 -5.30315 0
M  V30 4438 N 435.857 2.49963 -6.46135 0
M  V30 4439 N 437.65 2.18958 -5.17701 0
M  V30 4440 H 429.801 -0.19275 -2.11524 0
M  V30 4441 H 432.064 -0.0235777 -0.947707 0
M  V30 4442 H 431.77 0.50514 -3.48053 0
M  V30 4443 H 431.644 2.20431 -3.06088 0
M  V30 4444 H 434.031 2.09859 -2.07468 0
M  V30 4445 H 434.112 0.390169 -2.52807 0
M  V30 4446 H 433.756 1.04449 -4.97044 0
M  V30 4447 H 433.686 2.75753 -4.48629 0
M  V30 4448 H 436.177 1.62372 -3.41239 0
M  V30 4449 H 436.49 2.74497 -7.22406 0
M  V30 4450 H 434.835 2.47513 -6.49432 0
M  V30 4451 H 438.026 1.93488 -4.2624 0
M  V30 4452 H 438.199 2.44639 -6.00047 0
M  V30 4453 N 431.605 1.3629 0.791371 0
M  V30 4454 C 432.83 1.33726 1.58531 0
M  V30 4455 C 433.255 -0.0794933 1.87932 0
M  V30 4456 O 432.613 -1.05087 1.47738 0
M  V30 4457 C 432.661 2.16425 2.88431 0
M  V30 4458 O 431.765 1.5554 3.81944 0
M  V30 4459 H 431.106 0.457793 0.480959 0
M  V30 4460 H 433.636 1.79547 0.981031 0
M  V30 4461 H 433.646 2.28933 3.37718 0
M  V30 4462 H 432.321 3.19415 2.66359 0
M  V30 4463 H 430.898 1.51961 3.40532 0
M  V30 4464 N 433.083 -1.0153 1.20538 0
M  V30 4465 C 434.015 -2.10224 0.913155 0
M  V30 4466 C 435.028 -1.62495 -0.0995998 0
M  V30 4467 O 436.217 -1.78014 0.131582 0
M  V30 4468 C 433.317 -3.37111 0.347717 0
M  V30 4469 C 432.49 -4.13971 1.41233 0
M  V30 4470 C 431.549 -5.19158 0.857976 0
M  V30 4471 O 430.575 -5.48 1.53897 0
M  V30 4472 N 431.777 -5.7955 -0.331966 0
M  V30 4473 H 434.542 -2.35879 1.84881 0
M  V30 4474 H 432.103 -1.17931 1.10923 0
M  V30 4475 H 434.095 -4.04683 -0.0373026 0
M  V30 4476 H 432.665 -3.08696 -0.492527 0
M  V30 4477 H 431.885 -3.41351 1.97163 0
M  V30 4478 H 433.173 -4.62103 2.12928 0
M  V30 4479 H 432.571 -5.58455 -0.902478 0
M  V30 4480 H 431.128 -6.48464 -0.65861 0
M  V30 4481 N 434.561 -1.01147 -1.20859 0
M  V30 4482 C 435.807 -0.698899 -1.90377 0
M  V30 4483 C 436.14 0.76904 -1.78324 0
M  V30 4484 O 435.415 1.55817 -1.16409 0
M  V30 4485 C 435.698 -1.12878 -3.41951 0
M  V30 4486 C 435.551 -2.65665 -3.62963 0
M  V30 4487 C 436.87 -0.696114 -4.3456 0
M  V30 4488 H 433.989 -0.255372 -0.691342 0
M  V30 4489 H 436.631 -1.25831 -1.42361 0
M  V30 4490 H 434.781 -0.652827 -3.82976 0
M  V30 4491 H 436.453 -3.21074 -3.31224 0
M  V30 4492 H 434.696 -3.06878 -3.06608 0
M  V30 4493 H 435.367 -2.90797 -4.69192 0
M  V30 4494 H 437.843 -1.10521 -4.01154 0
M  V30 4495 H 436.719 -1.025 -5.39245 0
M  V30 4496 H 436.98 0.402465 -4.40264 0
M  V30 4497 N 436.039 1.36541 -0.78704 0
M  V30 4498 C 436.986 2.30082 -0.181901 0
M  V30 4499 C 437.956 1.5186 0.672896 0
M  V30 4500 O 439.141 1.80374 0.622072 0
M  V30 4501 C 436.281 3.3835 0.679197 0
M  V30 4502 C 435.394 4.31565 -0.193882 0
M  V30 4503 C 434.529 5.26915 0.673364 0
M  V30 4504 C 433.568 6.11769 -0.201315 0
M  V30 4505 N 432.705 6.99315 0.624777 0
M  V30 4506 H 437.545 2.81248 -0.985064 0
M  V30 4507 H 435.082 1.38437 -0.497342 0
M  V30 4508 H 437.04 3.99767 1.19341 0
M  V30 4509 H 435.67 2.8851 1.44781 0
M  V30 4510 H 434.722 3.71323 -0.826044 0
M  V30 4511 H 436.034 4.91191 -0.867937 0
M  V30 4512 H 435.188 5.9361 1.25348 0
M  V30 4513 H 433.927 4.67737 1.38105 0
M  V30 4514 H 432.932 5.44039 -0.793849 0
M  V30 4515 H 434.157 6.73022 -0.906568 0
M  V30 4516 H 432.103 6.42648 1.3168 0
M  V30 4517 H 432.02 7.56 0.00835237 0
M  V30 4518 H 433.288 7.70382 1.18879 0
M  V30 4519 O 437.556 0.680126 1.4648 0
M  V30 4520 H 438.247 0.213972 1.92515 0
M  V30 END ATOM
M  V30 BEGIN BOND
M  V30 END BOND
M  V30 END CTAB
M  END
$$$$
