drugbank_target|P77674 Gamma-aminobutyraldehyde dehydrogenase (DB04401)
 OpenBabel12092119563D

  0  0  0     0  0            999 V3000
M  V30 BEGIN CTAB
M  V30 COUNTS 7136 7210 0 0 0
M  V30 BEGIN ATOM
M  V30 1 H -0.908 1.98254 -0.117106 0
M  V30 2 N 0 1.576 0 0
M  V30 3 C 0.933 2.03868 1.02534 0
M  V30 4 C 1.911 0.928543 1.3348 0
M  V30 5 O 3.095 1.19667 1.45644 0
M  V30 6 C 0.222 2.43627 2.35294 0
M  V30 7 C -0.732 3.65373 2.2001 0
M  V30 8 S 0.101 5.13292 1.52614 0
M  V30 9 C 1.257 5.56322 2.86805 0
M  V30 10 H 1.49 2.90518 0.631377 0
M  V30 11 H -0.977 1.52953 0.210867 0
M  V30 12 H 0.981 2.67203 3.11629 0
M  V30 13 H -0.358 1.57376 2.7183 0
M  V30 14 H -1.165 3.90944 3.18086 0
M  V30 15 H -1.563 3.418 1.51819 0
M  V30 16 H 0.729 5.58782 3.83104 0
M  V30 17 H 1.672 6.56266 2.65933 0
M  V30 18 H 2.08 4.83886 2.90714 0
M  V30 19 N 1.4781 -0.272755 1.55222 0
M  V30 20 C 2.4101 -1.35946 1.8453 0
M  V30 21 C 3.4231 -1.45525 0.729818 0
M  V30 22 O 4.6121 -1.47337 1.00767 0
M  V30 23 C 1.7121 -2.74069 1.99347 0
M  V30 24 C 0.8851 -2.87079 3.30007 0
M  V30 25 C -0.0559 -4.05879 3.34886 0
M  V30 26 O -1.0299 -3.96626 4.08261 0
M  V30 27 N 0.1721 -5.17857 2.62307 0
M  V30 28 H 2.9371 -1.11149 2.78327 0
M  V30 29 H 0.4981 -0.462869 1.55142 0
M  V30 30 H 2.4901 -3.51838 1.99981 0
M  V30 31 H 1.0601 -2.91688 1.12415 0
M  V30 32 H 0.2801 -1.96193 3.41909 0
M  V30 33 H 1.5681 -2.92701 4.16177 0
M  V30 34 H 0.9661 -5.28261 2.02377 0
M  V30 35 H -0.4769 -5.93855 2.68663 0
M  V30 36 N 2.9562 -1.48159 -0.537278 0
M  V30 37 C 3.9062 -1.5854 -1.63857 0
M  V30 38 C 4.8902 -0.442969 -1.54682 0
M  V30 39 O 6.0822 -0.69401 -1.62827 0
M  V30 40 C 3.2112 -1.62144 -3.02596 0
M  V30 41 C 2.2972 -2.81841 -3.16901 0
M  V30 42 N 2.6882 -4.06337 -3.01204 0
M  V30 43 C 0.9862 -2.79021 -3.47942 0
M  V30 44 C 1.6872 -4.86606 -3.18731 0
M  V30 45 N 0.6632 -4.19288 -3.45974 0
M  V30 46 H 4.4652 -2.5255 -1.50319 0
M  V30 47 H 1.9792 -1.4443 -0.742555 0
M  V30 48 H 3.9762 -1.67674 -3.81695 0
M  V30 49 H 2.6362 -0.69245 -3.17231 0
M  V30 50 H 3.6472 -4.36888 -2.78117 0
M  V30 51 H 0.3242 -1.95347 -3.6898 0
M  V30 52 H 1.7142 -5.95385 -3.11394 0
M  V30 53 N 4.4343 0.785586 -1.36625 0
M  V30 54 C 5.3813 1.89838 -1.31264 0
M  V30 55 C 6.3513 1.65115 -0.180633 0
M  V30 56 O 7.5363 1.87222 -0.36777 0
M  V30 57 C 4.6763 3.26706 -1.11163 0
M  V30 58 C 3.7893 3.63476 -2.33472 0
M  V30 59 C 2.9243 4.89481 -2.06353 0
M  V30 60 C 1.9633 5.18941 -3.24602 0
M  V30 61 N 1.1003 6.36131 -2.97123 0
M  V30 62 H 5.9403 1.93756 -2.26413 0
M  V30 63 H 3.4773 0.947454 -1.12524 0
M  V30 64 H 5.4353 4.05639 -0.975337 0
M  V30 65 H 4.0653 3.222 -0.196674 0
M  V30 66 H 3.1173 2.79636 -2.57891 0
M  V30 67 H 4.4293 3.81193 -3.21704 0
M  V30 68 H 3.5833 5.76288 -1.89675 0
M  V30 69 H 2.3223 4.73841 -1.15437 0
M  V30 70 H 1.3273 4.30615 -3.41834 0
M  V30 71 H 2.5523 5.36498 -4.16349 0
M  V30 72 H 0.4983 6.21875 -2.08823 0
M  V30 73 H 0.4153 6.54198 -3.78894 0
M  V30 74 H 1.6833 7.2591 -2.84033 0
M  V30 75 N 5.9124 1.20967 1.01018 0
M  V30 76 C 6.8424 0.988272 2.11555 0
M  V30 77 C 7.8234 -0.0849778 1.69888 0
M  V30 78 O 9.0084 0.0738202 1.9406 0
M  V30 79 C 6.1384 0.546528 3.42973 0
M  V30 80 C 5.0924 1.56375 3.9841 0
M  V30 81 C 4.4184 0.97842 5.25672 0
M  V30 82 C 5.7184 2.94922 4.31066 0
M  V30 83 H 7.4124 1.91276 2.30334 0
M  V30 84 H 4.9584 0.921073 1.1069 0
M  V30 85 H 6.9114 0.378839 4.19694 0
M  V30 86 H 5.6354 -0.413598 3.23971 0
M  V30 87 H 4.2944 1.71891 3.23804 0
M  V30 88 H 3.9424 0.0101688 5.02999 0
M  V30 89 H 3.6424 1.65784 5.63728 0
M  V30 90 H 5.1664 0.821939 6.05043 0
M  V30 91 H 6.5804 2.8288 4.9865 0
M  V30 92 H 4.9774 3.5983 4.80253 0
M  V30 93 H 6.0474 3.4616 3.39561 0
M  V30 94 N 7.3905 -1.2043 1.01659 0
M  V30 95 C 8.3205 -2.25466 0.607226 0
M  V30 96 C 9.3015 -1.65853 -0.377716 0
M  V30 97 O 10.4865 -1.92409 -0.263149 0
M  V30 98 C 7.6165 -3.47256 -0.0552949 0
M  V30 99 C 6.5705 -4.19462 0.850632 0
M  V30 100 C 5.8965 -5.34673 0.0538859 0
M  V30 101 C 7.1965 -4.75603 2.15868 0
M  V30 102 H 8.8905 -2.59962 1.48526 0
M  V30 103 H 6.4365 -1.2496 0.715605 0
M  V30 104 H 8.3895 -4.19917 -0.353233 0
M  V30 105 H 7.1135 -3.11924 -0.968045 0
M  V30 106 H 5.7725 -3.48667 1.13257 0
M  V30 107 H 5.4205 -4.95585 -0.860514 0
M  V30 108 H 5.1205 -5.83913 0.657192 0
M  V30 109 H 6.6445 -6.10138 -0.237598 0
M  V30 110 H 8.0585 -5.40083 1.92311 0
M  V30 111 H 6.4555 -5.3528 2.71284 0
M  V30 112 H 7.5255 -3.94346 2.82169 0
M  V30 113 N 8.8686 -0.792821 -1.36206 0
M  V30 114 C 10.1176 -0.363353 -1.984 0
M  V30 115 C 10.4306 1.07172 -1.63626 0
M  V30 116 O 11.6366 1.60362 -2.19081 0
M  V30 117 C 10.0926 -0.59872 -3.54885 0
M  V30 118 C 9.7006 -2.04543 -3.9858 0
M  V30 119 C 11.4446 -0.233926 -4.23855 0
M  V30 120 C 9.3516 -2.22727 -5.47856 0
M  V30 121 H 8.2816 -0.13212 -0.742334 0
M  V30 122 H 10.9326 -0.974935 -1.55458 0
M  V30 123 H 9.3146 0.0826222 -3.95914 0
M  V30 124 H 10.4886 -2.76345 -3.68741 0
M  V30 125 H 8.8036 -2.36879 -3.42458 0
M  V30 126 H 11.4006 -0.348027 -5.33566 0
M  V30 127 H 11.7436 0.818351 -4.08177 0
M  V30 128 H 12.2766 -0.868639 -3.882 0
M  V30 129 H 9.0156 -3.2635 -5.68486 0
M  V30 130 H 8.5356 -1.55434 -5.7931 0
M  V30 131 H 10.2146 -2.03607 -6.14128 0
M  V30 132 N 10.3467 1.47872 -0.545128 0
M  V30 133 C 11.2947 2.31533 0.222512 0
M  V30 134 C 12.2887 1.42177 0.920985 0
M  V30 135 O 13.4947 1.59005 0.843645 0
M  V30 136 H 9.8697 0.746519 0.0906278 0
M  V30 137 H 11.8407 2.94139 -0.50246 0
M  V30 138 C 10.5897 3.2457 1.24699 0
M  V30 139 H 9.9127 3.93283 0.718944 0
M  V30 140 H 11.3527 3.85963 1.75523 0
M  V30 141 C 9.8117 2.47237 2.28856 0
M  V30 142 O 10.3417 2.20808 3.35569 0
M  V30 143 N 8.5477 2.08461 2.02466 0
M  V30 144 H 8.0947 2.30155 1.157 0
M  V30 145 H 8.0527 1.57033 2.72375 0
M  V30 146 N 11.8248 0.280983 1.55075 0
M  V30 147 C 13.0728 -0.333455 1.9933 0
M  V30 148 C 13.3938 -1.55937 1.17085 0
M  V30 149 O 12.6638 -1.94143 0.261805 0
M  V30 150 H 11.2438 -0.126197 0.736263 0
M  V30 151 H 13.9058 0.387678 1.91005 0
M  V30 152 H 13.0018 -0.619292 3.05894 0
M  V30 153 N 13.3029 -1.57598 0.00835791 0
M  V30 154 C 14.2129 -2.12385 -0.996487 0
M  V30 155 C 15.2289 -1.07108 -1.37127 0
M  V30 156 O 16.4049 -1.39055 -1.4569 0
M  V30 157 C 13.4699 -2.62314 -2.26699 0
M  V30 158 C 12.5309 -3.82225 -1.95456 0
M  V30 159 C 11.7639 -4.29763 -3.16449 0
M  V30 160 O 11.9869 -3.76584 -4.28416 0
M  V30 161 O 10.9209 -5.21832 -2.99958 0
M  V30 162 H 14.7469 -2.98479 -0.560725 0
M  V30 163 H 12.3319 -1.47903 -0.210987 0
M  V30 164 H 14.2139 -2.94589 -3.01322 0
M  V30 165 H 12.8889 -1.79313 -2.69497 0
M  V30 166 H 11.7959 -3.54909 -1.18282 0
M  V30 167 H 13.1289 -4.66324 -1.57489 0
M  V30 168 N 14.781 0.264519 -1.55364 0
M  V30 169 C 15.711 1.33121 -1.91836 0
M  V30 170 C 16.692 1.51101 -0.781192 0
M  V30 171 O 17.877 1.64003 -1.04003 0
M  V30 172 C 15.007 2.68921 -2.19769 0
M  V30 173 C 13.961 2.65661 -3.35571 0
M  V30 174 C 13.287 4.05093 -3.49004 0
M  V30 175 C 14.587 2.24187 -4.71739 0
M  V30 176 H 16.281 1.02844 -2.81182 0
M  V30 177 H 13.827 0.493286 -1.35287 0
M  V30 178 H 15.78 3.43663 -2.43872 0
M  V30 179 H 14.504 3.00799 -1.27231 0
M  V30 180 H 13.163 1.93377 -3.1145 0
M  V30 181 H 12.811 4.34206 -2.53917 0
M  V30 182 H 12.511 4.03804 -4.26868 0
M  V30 183 H 14.035 4.81561 -3.75408 0
M  V30 184 H 15.449 2.88654 -4.9533 0
M  V30 185 H 13.846 2.34044 -5.52579 0
M  V30 186 H 14.916 1.19327 -4.69988 0
M  V30 187 N 16.2591 1.48442 0.529413 0
M  V30 188 C 17.5051 1.5672 1.28711 0
M  V30 189 C 17.8381 0.2406 1.92704 0
M  V30 190 O 17.1131 -0.753454 1.79313 0
M  V30 191 C 17.3961 2.70587 2.37603 0
M  V30 192 C 17.2491 4.12953 1.78297 0
M  V30 193 C 18.5681 2.80212 3.39366 0
M  V30 194 H 15.6871 0.570474 0.466613 0
M  V30 195 H 18.3291 1.80617 0.589706 0
M  V30 196 H 16.4791 2.50342 2.97088 0
M  V30 197 H 18.1511 4.44639 1.22858 0
M  V30 198 H 16.3941 4.19927 1.0883 0
M  V30 199 H 17.0651 4.88448 2.57144 0
M  V30 200 H 19.5411 2.98553 2.89836 0
M  V30 201 H 18.4171 3.61611 4.12951 0
M  V30 202 H 18.6781 1.88393 3.99951 0
M  V30 203 N 17.7372 -0.778329 1.37039 0
M  V30 204 C 18.9622 -1.57248 1.35233 0
M  V30 205 C 19.3872 -1.87999 -0.0615568 0
M  V30 206 O 18.7452 -1.48734 -1.03672 0
M  V30 207 C 18.7932 -2.86353 2.19167 0
M  V30 208 O 17.8972 -3.80442 1.59178 0
M  V30 209 H 17.2382 -0.476569 0.462362 0
M  V30 210 H 19.7682 -0.963853 1.80474 0
M  V30 211 H 19.7782 -3.35519 2.32145 0
M  V30 212 H 18.4532 -2.63299 3.21942 0
M  V30 213 H 17.0302 -3.39067 1.55203 0
M  V30 214 N 19.2153 -1.21501 -1.00376 0
M  V30 215 C 20.4633 -1.03095 -1.73827 0
M  V30 216 C 20.7843 0.436341 -1.90055 0
M  V30 217 O 20.0543 1.31466 -1.45236 0
M  V30 218 H 18.6343 -0.378487 -0.644016 0
M  V30 219 H 21.2963 -1.52831 -1.20949 0
M  V30 220 H 20.3923 -1.49991 -2.73695 0
M  V30 221 N 20.6934 1.19889 -1.02296 0
M  V30 222 C 21.6034 2.26571 -0.608508 0
M  V30 223 C 22.6194 1.70299 0.356964 0
M  V30 224 O 23.7954 2.00235 0.216326 0
M  V30 225 C 20.8604 3.46677 0.0402814 0
M  V30 226 C 19.9214 4.18153 -0.97194 0
M  V30 227 C 19.1544 5.32525 -0.354016 0
M  V30 228 O 19.3774 5.64112 0.844604 0
M  V30 229 O 18.3114 5.92242 -1.07391 0
M  V30 230 H 22.1374 2.64251 -1.49684 0
M  V30 231 H 19.7224 1.26629 -0.792809 0
M  V30 232 H 21.6044 4.19475 0.402324 0
M  V30 233 H 20.2794 3.10858 0.902707 0
M  V30 234 H 19.1864 3.47499 -1.38546 0
M  V30 235 H 20.5194 4.57927 -1.80454 0
M  V30 236 N 22.1715 0.800033 1.35784 0
M  V30 237 C 23.4195 0.376597 1.9856 0
M  V30 238 C 23.7405 -1.05812 1.63795 0
M  V30 239 O 23.0105 -1.73103 0.917171 0
M  V30 240 H 21.5905 0.136261 0.734467 0
M  V30 241 H 24.2525 1.02442 1.65806 0
M  V30 242 H 23.3485 0.477002 3.08433 0
M  V30 243 N 23.6496 -1.47581 0.552962 0
M  V30 244 C 24.5596 -2.33743 -0.200353 0
M  V30 245 C 25.5756 -1.47928 -0.916151 0
M  V30 246 O 26.7516 -1.80865 -0.885993 0
M  V30 247 C 23.8166 -3.24536 -1.21973 0
M  V30 248 C 22.8776 -4.26238 -0.511819 0
M  V30 249 C 22.1106 -5.12693 -1.48263 0
M  V30 250 O 22.3336 -5.01525 -2.71714 0
M  V30 251 O 21.2676 -5.93375 -1.00945 0
M  V30 252 H 25.0936 -2.9945 0.506304 0
M  V30 253 H 22.6786 -1.46071 0.313622 0
M  V30 254 H 24.5606 -3.80631 -1.80827 0
M  V30 255 H 23.2356 -2.61462 -1.90839 0
M  V30 256 H 22.1426 -3.73914 0.117799 0
M  V30 257 H 23.4756 -4.92014 0.135308 0
M  V30 258 N 25.1277 -0.289203 -1.54924 0
M  V30 259 C 26.0747 0.592115 -2.23075 0
M  V30 260 C 27.0447 1.13881 -1.20915 0
M  V30 261 O 28.2297 1.18551 -1.495 0
M  V30 262 C 25.3697 1.76376 -2.96623 0
M  V30 263 C 24.4827 1.24959 -4.13533 0
M  V30 264 C 23.6177 2.38416 -4.74691 0
M  V30 265 C 22.6567 1.84072 -5.83767 0
M  V30 266 N 21.7937 2.91057 -6.38929 0
M  V30 267 H 26.6337 0.00432038 -2.98 0
M  V30 268 H 24.1707 -0.00963529 -1.47097 0
M  V30 269 H 26.1287 2.45268 -3.3749 0
M  V30 270 H 24.7587 2.32337 -2.24097 0
M  V30 271 H 23.8107 0.453307 -3.77689 0
M  V30 272 H 25.1227 0.811662 -4.92152 0
M  V30 273 H 24.2767 3.15276 -5.18349 0
M  V30 274 H 23.0157 2.8553 -3.95378 0
M  V30 275 H 22.0207 1.05697 -5.39545 0
M  V30 276 H 23.2457 1.37877 -6.64956 0
M  V30 277 H 21.1917 3.37526 -5.62505 0
M  V30 278 H 21.1087 2.51724 -7.12861 0
M  V30 279 H 22.3767 3.6785 -6.87246 0
M  V30 280 N 26.6058 1.57591 -0.0167156 0
M  V30 281 C 27.5378 2.06343 0.997753 0
M  V30 282 C 28.5508 0.984469 1.29661 0
M  V30 283 O 29.7398 1.26093 1.26344 0
M  V30 284 C 26.8398 2.46255 2.32834 0
M  V30 285 C 26.0128 3.77083 2.21646 0
M  V30 286 C 25.0718 4.0368 3.37534 0
M  V30 287 O 24.0978 4.7411 3.14973 0
M  V30 288 N 25.2998 3.52881 4.60929 0
M  V30 289 H 28.0648 2.93997 0.581875 0
M  V30 290 H 25.6258 1.61002 0.170316 0
M  V30 291 H 27.6178 2.61149 3.09166 0
M  V30 292 H 26.1878 1.64032 2.66106 0
M  V30 293 H 25.4078 3.72106 1.30119 0
M  V30 294 H 26.6958 4.62822 2.11361 0
M  V30 295 H 26.0938 2.95878 4.82154 0
M  V30 296 H 24.6508 3.73076 5.34469 0
M  V30 297 N 28.0839 -0.256276 1.55502 0
M  V30 298 C 29.4949 -0.826068 1.67431 0
M  V30 299 C 29.8459 -1.86396 0.612446 0
M  V30 300 O 28.9709 -2.15031 -0.243025 0
M  V30 301 C 29.5659 -1.50512 3.03532 0
M  V30 302 C 28.1249 -2.02273 3.17431 0
M  V30 303 C 27.2719 -0.870548 2.63281 0
M  V30 304 H 30.2229 -0.0322728 1.58667 0
M  V30 305 H 30.2439 -2.37279 2.97454 0
M  V30 306 H 29.7559 -0.749484 3.80794 0
M  V30 307 H 27.8569 -2.80746 2.44974 0
M  V30 308 H 27.9699 -2.22655 4.24219 0
M  V30 309 H 26.3339 -1.26851 2.20864 0
M  V30 310 H 27.1169 -0.128149 3.43061 0
M  V30 311 N 29.562 -1.4872 -0.521534 0
M  V30 312 C 30.808 -1.574 -1.27879 0
M  V30 313 C 31.141 -0.250817 -1.92573 0
M  V30 314 O 30.416 0.743934 -1.79711 0
M  V30 315 C 30.699 -2.71843 -2.36164 0
M  V30 316 C 30.552 -4.13893 -1.76105 0
M  V30 317 C 31.871 -2.82008 -3.37875 0
M  V30 318 H 28.99 -0.572941 -0.463581 0
M  V30 319 H 31.632 -1.80927 -0.580119 0
M  V30 320 H 29.782 -2.51914 -2.95756 0
M  V30 321 H 31.454 -4.45284 -1.20499 0
M  V30 322 H 29.697 -4.20498 -1.06601 0
M  V30 323 H 30.368 -4.89804 -2.5455 0
M  V30 324 H 32.844 -3.00086 -2.88249 0
M  V30 325 H 31.72 -3.63796 -4.11028 0
M  V30 326 H 31.981 -1.90511 -3.98946 0
M  V30 327 N 31.0401 0.771051 -1.3745 0
M  V30 328 C 32.2701 1.55789 -1.35696 0
M  V30 329 C 32.6781 1.89107 0.0594523 0
M  V30 330 O 32.0211 1.51984 1.03183 0
M  V30 331 C 32.0831 2.89515 -2.13123 0
M  V30 332 C 31.7471 2.78829 -3.62082 0
M  V30 333 C 32.7441 2.49812 -4.5595 0
M  V30 334 C 30.4291 2.9683 -4.05213 0
M  V30 335 C 32.4231 2.38923 -5.90927 0
M  V30 336 C 30.1101 2.85562 -5.40276 0
M  V30 337 C 31.1081 2.56649 -6.32946 0
M  V30 338 O 30.7961 2.45408 -7.65526 0
M  V30 339 H 30.5281 0.489257 -0.466481 0
M  V30 340 H 33.0821 0.963446 -1.81403 0
M  V30 341 H 31.3121 3.51081 -1.62107 0
M  V30 342 H 33.0011 3.50915 -2.03994 0
M  V30 343 H 33.7671 2.3559 -4.23937 0
M  V30 344 H 29.6461 3.18335 -3.33442 0
M  V30 345 H 33.1901 2.16277 -6.63227 0
M  V30 346 H 29.0871 2.99351 -5.71891 0
M  V30 347 H 29.8551 2.60753 -7.75855 0
M  V30 348 N 32.5182 1.22032 0.997298 0
M  V30 349 C 33.4662 0.983634 2.10778 0
M  V30 350 C 34.4602 -0.0717564 1.69248 0
M  V30 351 O 35.6662 0.080304 1.79821 0
M  V30 352 H 32.0412 0.300877 0.689186 0
M  V30 353 H 34.0122 1.92606 2.27916 0
M  V30 354 C 32.7612 0.57326 3.42942 0
M  V30 355 H 32.0842 1.37702 3.75338 0
M  V30 356 H 33.5242 0.447031 4.21637 0
M  V30 357 C 31.9832 -0.7167 3.29188 0
M  V30 358 O 32.5132 -1.77027 3.60589 0
M  V30 359 N 30.7192 -0.686167 2.82383 0
M  V30 360 H 30.2662 0.171507 2.57028 0
M  V30 361 H 30.2242 -1.54955 2.73562 0
M  V30 362 N 33.9963 -1.19345 1.0293 0
M  V30 363 C 35.4073 -1.70725 0.755633 0
M  V30 364 C 35.7583 -1.82326 -0.724676 0
M  V30 365 O 34.8833 -1.49471 -1.56484 0
M  V30 366 C 35.4783 -3.10084 1.36503 0
M  V30 367 C 34.0373 -3.58723 1.13994 0
M  V30 368 C 33.1843 -2.35577 1.46283 0
M  V30 369 H 36.1353 -1.0418 1.19718 0
M  V30 370 H 36.1563 -3.72787 0.762217 0
M  V30 371 H 35.6683 -3.01609 2.44241 0
M  V30 372 H 33.7693 -3.72512 0.0807901 0
M  V30 373 H 33.8823 -4.42816 1.82894 0
M  V30 374 H 32.2463 -2.38935 0.88217 0
M  V30 375 H 33.0293 -2.29731 2.55105 0
M  V30 376 N 35.4744 -0.807222 -1.35358 0
M  V30 377 C 36.4374 -0.223665 -2.28106 0
M  V30 378 C 37.4374 0.589354 -1.4961 0
M  V30 379 O 38.6274 0.407745 -1.69361 0
M  V30 380 C 35.7594 0.688149 -3.33882 0
M  V30 381 H 36.9524 -1.04169 -2.81227 0
M  V30 382 H 34.5054 -0.577921 -1.45223 0
M  V30 383 H 35.2404 1.52984 -2.85948 0
M  V30 384 H 35.0254 0.10687 -3.91954 0
M  V30 385 H 36.5154 1.09075 -4.03104 0
M  V30 386 N 36.9525 1.47285 -0.560781 0
M  V30 387 C 38.1805 2.06855 -0.0430262 0
M  V30 388 C 38.5955 1.41291 1.25229 0
M  V30 389 O 37.9525 0.510648 1.7521 0
M  V30 390 C 38.0035 3.61178 0.152518 0
M  V30 391 O 37.7245 4.24285 -1.0915 0
M  V30 392 C 39.2255 4.37624 0.707145 0
M  V30 393 H 36.4455 0.669319 -0.0474652 0
M  V30 394 H 38.9895 1.89237 -0.77521 0
M  V30 395 H 37.1445 3.78298 0.834843 0
M  V30 396 H 37.5585 5.16868 -0.891482 0
M  V30 397 H 39.0325 5.46271 0.793244 0
M  V30 398 H 39.5095 4.04152 1.71923 0
M  V30 399 H 40.1155 4.25257 0.0604027 0
M  V30 400 N 38.4306 0.297415 1.54768 0
M  V30 401 C 39.6786 -0.312295 1.99673 0
M  V30 402 C 39.9996 -1.54686 1.18732 0
M  V30 403 O 39.2696 -1.93854 0.282382 0
M  V30 404 H 37.8496 -0.118381 0.73756 0
M  V30 405 H 40.5116 0.407915 1.90583 0
M  V30 406 H 39.6076 -0.586813 3.06534 0
M  V30 407 N 39.9087 -1.5758 0.0250728 0
M  V30 408 C 41.1857 -1.82917 -0.692873 0
M  V30 409 C 41.5657 -0.908137 -1.90568 0
M  V30 410 O 40.9137 0.0372298 -2.2847 0
M  V30 411 C 41.1237 -3.32034 -1.07492 0
M  V30 412 C 42.4717 -3.98406 -1.46826 0
M  V30 413 O 43.4957 -3.36505 -1.16801 0
M  V30 414 O 42.3547 -5.07497 -2.02754 0
M  V30 415 H 39.4487 -0.754079 -0.33955 0
M  V30 416 H 41.9947 -1.69619 0.0524456 0
M  V30 417 H 40.7667 -3.90728 -0.211552 0
M  V30 418 H 40.3897 -3.50424 -1.87854 0
M  V30 419 N 41.3868 0.248026 -1.55636 0
M  V30 420 C 42.6328 0.97767 -1.77678 0
M  V30 421 C 42.9658 1.85016 -0.590135 0
M  V30 422 O 42.2408 1.90095 0.411611 0
M  V30 423 C 42.5238 1.83914 -3.09593 0
M  V30 424 C 42.3768 0.99491 -4.38659 0
M  V30 425 C 43.6958 2.82183 -3.37729 0
M  V30 426 H 40.8148 0.354005 -0.646413 0
M  V30 427 H 43.4568 0.248253 -1.88371 0
M  V30 428 H 41.6068 2.46104 -3.00608 0
M  V30 429 H 43.2788 0.391789 -4.59633 0
M  V30 430 H 41.5218 0.299231 -4.32767 0
M  V30 431 H 42.1928 1.63145 -5.2734 0
M  V30 432 H 44.6688 2.30129 -3.4667 0
M  V30 433 H 43.5448 3.39582 -4.31249 0
M  V30 434 H 43.8058 3.58588 -2.58586 0
M  V30 435 N 42.8649 1.48995 0.513639 0
M  V30 436 C 43.7949 1.67636 1.62544 0
M  V30 437 C 44.7759 0.525087 1.61793 0
M  V30 438 O 45.9609 0.759502 1.78732 0
M  V30 439 C 43.0909 1.73114 3.01079 0
M  V30 440 C 42.0449 2.87905 3.16693 0
M  V30 441 C 41.3709 2.78486 4.56453 0
M  V30 442 C 42.6709 4.29005 2.97913 0
M  V30 443 H 44.3649 2.60716 1.47198 0
M  V30 444 H 41.9109 1.25465 0.706714 0
M  V30 445 H 43.8639 1.84742 3.78746 0
M  V30 446 H 42.5879 0.766241 3.17484 0
M  V30 447 H 41.2469 2.75859 2.41448 0
M  V30 448 H 40.8949 1.7993 4.69717 0
M  V30 449 H 40.5949 3.55523 4.67843 0
M  V30 450 H 42.1189 2.92104 5.36197 0
M  V30 451 H 43.5329 4.41798 3.65359 0
M  V30 452 H 41.9299 5.07166 3.20785 0
M  V30 453 H 42.9999 4.44329 1.94165 0
M  V30 454 N 44.343 -0.763751 1.37857 0
M  V30 455 C 45.273 -1.89103 1.36975 0
M  V30 456 C 46.254 -1.68439 0.237152 0
M  V30 457 O 47.439 -1.8918 0.438713 0
M  V30 458 C 44.569 -3.26496 1.18395 0
M  V30 459 C 43.523 -3.61741 2.28751 0
M  V30 460 C 42.849 -4.97762 1.95286 0
M  V30 461 C 44.149 -3.67665 3.70972 0
M  V30 462 H 45.843 -1.90099 2.31307 0
M  V30 463 H 43.389 -0.91319 1.11341 0
M  V30 464 H 45.342 -4.05003 1.16406 0
M  V30 465 H 44.066 -3.25955 0.205215 0
M  V30 466 H 42.725 -2.85547 2.29909 0
M  V30 467 H 42.373 -4.93769 0.959221 0
M  V30 468 H 42.073 -5.22313 2.69189 0
M  V30 469 H 43.597 -5.7866 1.94898 0
M  V30 470 H 45.011 -4.36307 3.719 0
M  V30 471 H 43.408 -4.03718 4.43995 0
M  V30 472 H 44.478 -2.68134 4.0402 0
M  V30 473 N 45.8211 -1.22559 -0.990812 0
M  V30 474 C 46.7311 -1.01394 -2.11557 0
M  V30 475 C 47.7471 0.0383962 -1.73958 0
M  V30 476 O 48.9231 -0.154787 -2.00804 0
M  V30 477 C 45.9881 -0.596569 -3.41529 0
M  V30 478 C 45.0491 -1.72276 -3.93217 0
M  V30 479 C 44.2821 -1.32521 -5.16985 0
M  V30 480 O 44.5051 -0.204909 -5.70032 0
M  V30 481 O 43.4391 -2.14247 -5.62478 0
M  V30 482 H 47.2651 -1.95633 -2.32296 0
M  V30 483 H 44.8501 -1.01172 -1.0993 0
M  V30 484 H 46.7321 -0.374263 -4.19735 0
M  V30 485 H 45.4071 0.316939 -3.22145 0
M  V30 486 H 44.3141 -1.99961 -3.16174 0
M  V30 487 H 45.6471 -2.61421 -4.17037 0
M  V30 488 N 47.2992 1.18797 -1.03562 0
M  V30 489 C 48.5482 1.87978 -0.731235 0
M  V30 490 C 48.8612 1.80911 0.743671 0
M  V30 491 O 50.0672 2.45407 1.16137 0
M  V30 492 C 48.5232 3.3721 -1.25768 0
M  V30 493 C 48.1312 3.52818 -2.76085 0
M  V30 494 C 49.8752 4.11825 -1.0296 0
M  V30 495 C 47.7822 4.9598 -3.22114 0
M  V30 496 H 46.7122 0.704063 -0.269835 0
M  V30 497 H 49.3632 1.34266 -1.25079 0
M  V30 498 H 47.7452 3.90359 -0.666011 0
M  V30 499 H 48.9192 3.09965 -3.40966 0
M  V30 500 H 47.2342 2.91602 -2.97249 0
M  V30 501 H 49.8312 5.17411 -1.34869 0
M  V30 502 H 50.1742 4.16287 0.0333546 0
M  V30 503 H 50.7072 3.64833 -1.58562 0
M  V30 504 H 47.4462 4.96684 -4.27768 0
M  V30 505 H 46.9662 5.39569 -2.61965 0
M  V30 506 H 48.6452 5.6467 -3.15844 0
M  V30 507 N 48.7773 0.814389 1.34928 0
M  V30 508 C 49.7403 0.235759 2.27984 0
M  V30 509 C 50.7403 -0.581412 1.49921 0
M  V30 510 O 51.9303 -0.398758 1.69575 0
M  V30 511 C 49.0623 -0.670433 3.34242 0
M  V30 512 H 50.2553 1.05659 2.80671 0
M  V30 513 H 47.8083 0.585614 1.44915 0
M  V30 514 H 48.5433 -1.51466 2.86755 0
M  V30 515 H 48.3283 -0.0860822 3.92005 0
M  V30 516 H 49.8183 -1.06935 4.03676 0
M  V30 517 N 50.2554 -1.46986 0.568584 0
M  V30 518 C 51.1654 -2.33942 -0.17555 0
M  V30 519 C 52.1814 -1.48891 -0.90041 0
M  V30 520 O 53.3574 -1.81794 -0.86676 0
M  V30 521 C 50.4224 -3.25811 -1.18524 0
M  V30 522 C 49.4834 -4.26757 -0.466582 0
M  V30 523 C 48.7164 -5.14236 -1.42817 0
M  V30 524 O 48.9394 -5.04379 -2.66379 0
M  V30 525 O 47.8734 -5.94412 -0.946453 0
M  V30 526 H 51.6994 -2.98896 0.538036 0
M  V30 527 H 49.2844 -1.4573 0.329097 0
M  V30 528 H 51.1664 -3.82527 -1.76779 0
M  V30 529 H 49.8414 -2.63471 -1.88055 0
M  V30 530 H 48.7484 -3.73769 0.157451 0
M  V30 531 H 50.0814 -4.91843 0.187485 0
M  V30 532 N 51.7335 -0.305618 -1.54608 0
M  V30 533 C 52.6965 0.555591 -2.22364 0
M  V30 534 C 53.6965 1.05768 -1.21119 0
M  V30 535 O 54.8865 0.952972 -1.45822 0
M  V30 536 C 52.0185 1.76974 -2.91364 0
M  V30 537 H 53.2115 -0.0364572 -2.99878 0
M  V30 538 H 50.7645 -0.0565007 -1.56198 0
M  V30 539 H 51.4995 2.40151 -2.17941 0
M  V30 540 H 51.2845 1.41732 -3.65588 0
M  V30 541 H 52.7745 2.38148 -3.43038 0
M  V30 542 N 53.2116 1.57565 -0.0334293 0
M  V30 543 C 54.4366 1.96689 0.657895 0
M  V30 544 C 54.8616 0.910057 1.64619 0
M  V30 545 O 54.2196 -0.128598 1.80843 0
M  V30 546 C 54.2676 3.34905 1.33683 0
M  V30 547 O 53.3716 3.31574 2.45219 0
M  V30 548 H 52.7126 0.641205 0.172489 0
M  V30 549 H 55.2426 2.04372 -0.0965621 0
M  V30 550 H 55.2526 3.71234 1.69262 0
M  V30 551 H 53.9276 4.11366 0.612411 0
M  V30 552 H 52.5046 3.06968 2.11719 0
M  V30 553 N 54.6897 -0.239769 1.55765 0
M  V30 554 C 55.6527 -1.28038 1.90103 0
M  V30 555 C 56.6527 -1.40723 0.778055 0
M  V30 556 O 57.8427 -1.39301 1.04599 0
M  V30 557 C 54.9747 -2.65702 2.13577 0
M  V30 558 H 56.1677 -0.988048 2.83157 0
M  V30 559 H 53.7207 -0.479382 1.48767 0
M  V30 560 H 54.4557 -3.00063 1.23015 0
M  V30 561 H 54.2407 -2.57875 2.95369 0
M  V30 562 H 55.7307 -3.40828 2.41301 0
M  V30 563 N 56.1678 -1.49265 -0.50573 0
M  V30 564 C 57.0778 -1.68312 -1.63427 0
M  V30 565 C 58.0938 -0.565682 -1.64548 0
M  V30 566 O 59.2698 -0.839801 -1.83055 0
M  V30 567 C 56.3348 -1.74107 -2.99813 0
M  V30 568 C 55.3958 -2.97653 -3.09356 0
M  V30 569 C 54.6288 -3.03163 -4.39236 0
M  V30 570 O 54.8518 -2.16396 -5.27758 0
M  V30 571 O 53.7858 -3.9558 -4.53652 0
M  V30 572 H 57.6118 -2.63907 -1.50289 0
M  V30 573 H 55.1968 -1.32951 -0.681502 0
M  V30 574 H 57.0788 -1.803 -3.80881 0
M  V30 575 H 55.7538 -0.816901 -3.13223 0
M  V30 576 H 54.6608 -2.96981 -2.27493 0
M  V30 577 H 55.9938 -3.89535 -3.00871 0
M  V30 578 N 57.6459 0.756429 -1.3826 0
M  V30 579 C 58.5779 1.87971 -1.31147 0
M  V30 580 C 59.5909 1.61248 -0.224239 0
M  V30 581 O 60.7799 1.71881 -0.481581 0
M  V30 582 C 57.8799 3.23545 -1.00857 0
M  V30 583 C 57.0529 3.77794 -2.20432 0
M  V30 584 C 56.1119 4.91877 -1.86931 0
M  V30 585 O 55.1379 5.06659 -2.59395 0
M  V30 586 N 56.3399 5.74643 -0.822568 0
M  V30 587 H 59.1049 1.94585 -2.2794 0
M  V30 588 H 56.6659 0.936234 -1.32084 0
M  V30 589 H 58.6579 3.97403 -0.765021 0
M  V30 590 H 57.2279 3.12335 -0.128687 0
M  V30 591 H 56.4479 2.95534 -2.6087 0
M  V30 592 H 57.7359 4.10771 -3.00241 0
M  V30 593 H 57.1339 5.65266 -0.221575 0
M  V30 594 H 55.6909 6.48661 -0.638899 0
M  V30 595 N 59.124 1.23083 0.984299 0
M  V30 596 C 60.37 1.06214 1.72761 0
M  V30 597 C 60.703 -0.400584 1.90024 0
M  V30 598 O 59.978 -1.29672 1.44967 0
M  V30 599 C 60.261 1.78375 3.12817 0
M  V30 600 C 60.114 3.32296 3.03149 0
M  V30 601 C 61.433 1.54309 4.12161 0
M  V30 602 H 58.552 0.387251 0.627061 0
M  V30 603 H 61.194 1.51536 1.14616 0
M  V30 604 H 59.344 1.39848 3.62457 0
M  V30 605 H 61.016 3.8032 2.61064 0
M  V30 606 H 59.259 3.6153 2.39747 0
M  V30 607 H 59.93 3.77972 4.02295 0
M  V30 608 H 62.406 1.87791 3.71314 0
M  V30 609 H 61.282 2.07281 5.08258 0
M  V30 610 H 61.543 0.477572 4.39513 0
M  V30 611 N 60.6021 -1.18246 1.0419 0
M  V30 612 C 61.8791 -1.84121 0.660208 0
M  V30 613 C 62.2591 -1.92778 -0.860221 0
M  V30 614 O 61.6071 -1.45464 -1.76217 0
M  V30 615 C 61.8171 -3.22355 1.33747 0
M  V30 616 C 63.1651 -3.98376 1.46906 0
M  V30 617 O 64.1891 -3.31799 1.29568 0
M  V30 618 O 63.0481 -5.17665 1.75171 0
M  V30 619 H 60.1421 -0.794036 0.231161 0
M  V30 620 H 62.6881 -1.25628 1.14087 0
M  V30 621 H 61.4601 -3.10964 2.37522 0
M  V30 622 H 61.0831 -3.88506 0.845515 0
M  V30 623 N 62.0802 -0.821533 -1.34494 0
M  V30 624 C 63.0432 -0.247847 -2.27856 0
M  V30 625 C 64.0432 0.573453 -1.50227 0
M  V30 626 O 65.2332 0.389759 -1.69784 0
M  V30 627 C 62.3652 0.652698 -3.34593 0
M  V30 628 H 63.5582 -1.07146 -2.80107 0
M  V30 629 H 61.1112 -0.593291 -1.44602 0
M  V30 630 H 61.8462 1.49943 -2.87555 0
M  V30 631 H 61.6312 0.065292 -3.92046 0
M  V30 632 H 63.1212 1.04793 -4.04238 0
M  V30 633 N 63.5583 1.46682 -0.576371 0
M  V30 634 C 64.5213 2.28707 0.150239 0
M  V30 635 C 65.5213 1.38035 0.824794 0
M  V30 636 O 66.7113 1.60476 0.677719 0
M  V30 637 C 63.8433 3.18248 1.22192 0
M  V30 638 H 65.0363 2.94423 -0.570521 0
M  V30 639 H 62.5893 1.52688 -0.334078 0
M  V30 640 H 63.3243 2.57265 1.97447 0
M  V30 641 H 63.1093 3.85 0.742812 0
M  V30 642 H 64.5993 3.80001 1.73172 0
M  V30 643 N 65.0364 0.313813 1.54444 0
M  V30 644 C 66.2824 -0.292108 2.00685 0
M  V30 645 C 66.6154 -1.52548 1.20177 0
M  V30 646 O 65.8904 -1.92452 0.281531 0
M  V30 647 C 66.1734 -0.635968 3.5444 0
M  V30 648 C 66.0264 0.607437 4.4568 0
M  V30 649 C 67.3454 -1.45747 4.15266 0
M  V30 650 H 64.4644 -0.104697 0.729526 0
M  V30 651 H 67.1064 0.428457 1.85106 0
M  V30 652 H 65.2564 -1.24986 3.67846 0
M  V30 653 H 66.9284 1.24581 4.44159 0
M  V30 654 H 65.1714 1.23822 4.15753 0
M  V30 655 H 65.8424 0.322515 5.51057 0
M  V30 656 H 68.3184 -0.938645 4.05375 0
M  V30 657 H 67.1944 -1.66683 5.2298 0
M  V30 658 H 67.4554 -2.45063 3.67963 0
M  V30 659 N 66.5145 -1.57545 0.0417849 0
M  V30 660 C 67.9305 -1.56467 -0.314704 0
M  V30 661 C 68.1305 -1.04859 -1.72066 0
M  V30 662 O 67.1865 -0.700983 -2.42575 0
M  V30 663 C 68.4995 -3.00317 -0.15174 0
M  V30 664 C 70.0475 -3.12201 -0.223553 0
M  V30 665 C 70.5225 -4.57913 -0.0892295 0
M  V30 666 N 72.0135 -4.6297 -0.145808 0
M  V30 667 C 72.7485 -5.73362 -0.0658459 0
M  V30 668 N 72.2445 -6.92769 0.0659282 0
M  V30 669 N 74.0375 -5.6197 -0.12075 0
M  V30 670 H 66.1885 -1.89416 0.961014 0
M  V30 671 H 68.4515 -0.871862 0.372237 0
M  V30 672 H 68.1575 -3.42073 0.817254 0
M  V30 673 H 68.0315 -3.65892 -0.916692 0
M  V30 674 H 70.4185 -2.70349 -1.18301 0
M  V30 675 H 70.4995 -2.49323 0.571994 0
M  V30 676 H 70.1435 -5.00448 0.866867 0
M  V30 677 H 70.0735 -5.18786 -0.903802 0
M  V30 678 H 72.5645 -3.7709 -0.247286 0
M  V30 679 H 72.8775 -7.72707 0.119905 0
M  V30 680 H 71.2225 -6.94927 0.100885 0
M  V30 681 H 74.4135 -4.67572 -0.222187 0
M  V30 682 H 74.5865 -6.47977 -0.0549735 0
M  V30 683 N 67.9926 0.231505 -1.5589 0
M  V30 684 C 68.9556 1.27028 -1.90779 0
M  V30 685 C 69.9556 1.40308 -0.785507 0
M  V30 686 O 71.1456 1.38744 -1.05336 0
M  V30 687 C 68.2776 2.64566 -2.14983 0
M  V30 688 H 69.4706 0.973017 -2.83677 0
M  V30 689 H 67.0236 0.471486 -1.49019 0
M  V30 690 H 67.7586 2.99406 -1.24604 0
M  V30 691 H 67.5436 2.56305 -2.96732 0
M  V30 692 H 69.0336 3.39543 -2.43105 0
M  V30 693 N 69.4707 1.49531 0.497807 0
M  V30 694 C 70.4337 1.65916 1.58128 0
M  V30 695 C 71.4337 0.530825 1.51786 0
M  V30 696 O 72.6237 0.797342 1.54881 0
M  V30 697 C 69.7557 1.65951 2.9778 0
M  V30 698 H 70.9487 2.62556 1.44929 0
M  V30 699 H 68.5017 1.38611 0.722275 0
M  V30 700 H 69.2367 0.709065 3.16453 0
M  V30 701 H 69.0217 2.47897 3.03792 0
M  V30 702 H 70.5117 1.80673 3.76493 0
M  V30 703 N 70.9488 -0.749086 1.3866 0
M  V30 704 C 72.2258 -1.4992 1.25632 0
M  V30 705 C 72.6058 -2.10633 -0.140317 0
M  V30 706 O 71.9538 -1.97437 -1.15025 0
M  V30 707 C 72.1638 -2.56195 2.36992 0
M  V30 708 C 73.5118 -3.22972 2.75634 0
M  V30 709 O 74.5358 -2.66502 2.36337 0
M  V30 710 O 73.3948 -4.25122 3.43415 0
M  V30 711 H 70.4888 -0.665067 0.491544 0
M  V30 712 H 73.0348 -0.784113 1.50498 0
M  V30 713 H 71.8068 -2.09612 3.30422 0
M  V30 714 H 71.4298 -3.35279 2.13714 0
M  V30 715 N 72.4269 -1.23603 -0.977757 0
M  V30 716 C 73.3899 -1.02069 -2.05218 0
M  V30 717 C 74.3899 0.0184305 -1.60789 0
M  V30 718 O 75.5799 -0.221569 -1.72785 0
M  V30 719 C 72.7119 -0.544926 -3.36517 0
M  V30 720 H 73.9049 -1.9742 -2.25755 0
M  V30 721 H 71.4579 -1.05684 -1.15155 0
M  V30 722 H 72.1929 0.412241 -3.21669 0
M  V30 723 H 71.9779 -1.2948 -3.70105 0
M  V30 724 H 73.4679 -0.414985 -4.15533 0
M  V30 725 N 73.905 1.17692 -1.04816 0
M  V30 726 C 74.868 2.19787 -0.650117 0
M  V30 727 C 75.868 1.58044 0.296427 0
M  V30 728 O 77.058 1.74012 0.0808097 0
M  V30 729 C 74.19 3.40869 0.0456987 0
M  V30 730 H 75.383 2.56516 -1.5537 0
M  V30 731 H 72.936 1.31708 -0.841594 0
M  V30 732 H 73.671 3.09681 0.962726 0
M  V30 733 H 73.456 3.86928 -0.634727 0
M  V30 734 H 74.946 4.16445 0.310432 0
M  V30 735 N 75.3831 0.828654 1.34056 0
M  V30 736 C 76.6301 0.419458 1.98108 0
M  V30 737 C 76.9581 -1.01886 1.65679 0
M  V30 738 O 76.2131 -1.72539 0.923512 0
M  V30 739 C 76.5121 0.575226 3.52741 0
M  V30 740 C 76.1781 1.98012 4.05095 0
M  V30 741 C 74.8401 2.36442 4.19104 0
M  V30 742 C 77.1921 2.89824 4.33188 0
M  V30 743 C 74.5201 3.66009 4.58535 0
M  V30 744 C 76.8721 4.1886 4.74066 0
M  V30 745 C 75.5361 4.5726 4.86281 0
M  V30 746 H 74.8061 0.153491 0.724929 0
M  V30 747 H 77.4531 1.05371 1.59904 0
M  V30 748 H 75.7581 -0.142385 3.91541 0
M  V30 749 H 77.4551 0.239057 4.00287 0
M  V30 750 H 74.0451 1.67162 3.94658 0
M  V30 751 H 78.2291 2.61375 4.21897 0
M  V30 752 H 73.4851 3.95579 4.66184 0
M  V30 753 H 77.6591 4.90086 4.94761 0
M  V30 754 H 75.2861 5.57707 5.16592 0
M  V30 755 N 76.8612 -1.46375 0.584142 0
M  V30 756 C 77.8242 -2.28784 -0.138108 0
M  V30 757 C 78.8242 -1.38471 -0.817462 0
M  V30 758 O 80.0142 -1.60833 -0.669199 0
M  V30 759 C 77.1462 -3.18892 -1.20503 0
M  V30 760 H 78.3392 -2.94117 0.586127 0
M  V30 761 H 75.8922 -1.52509 0.342171 0
M  V30 762 H 76.6272 -2.58309 -1.96079 0
M  V30 763 H 76.4122 -3.85388 -0.722384 0
M  V30 764 H 77.9022 -3.80914 -1.71155 0
M  V30 765 N 78.3393 -0.321999 -1.54275 0
M  V30 766 C 79.2493 0.553631 -2.27974 0
M  V30 767 C 80.2653 1.13054 -1.32268 0
M  V30 768 O 81.4413 1.15084 -1.6528 0
M  V30 769 C 78.5063 1.69927 -3.02201 0
M  V30 770 C 77.5673 1.15433 -4.1349 0
M  V30 771 C 76.8003 2.24537 -4.84168 0
M  V30 772 O 77.0233 3.44852 -4.5435 0
M  V30 773 O 75.9573 1.90044 -5.7111 0
M  V30 774 H 79.7833 -0.0448345 -3.03667 0
M  V30 775 H 77.3683 -0.0877418 -1.49142 0
M  V30 776 H 79.2503 2.3663 -3.48689 0
M  V30 777 H 77.9253 2.28395 -2.29385 0
M  V30 778 H 76.8323 0.452436 -3.71354 0
M  V30 779 H 78.1653 0.614805 -4.88345 0
M  V30 780 N 79.8174 1.5752 -0.0501392 0
M  V30 781 C 81.0634 1.93755 0.618901 0
M  V30 782 C 81.4184 0.928514 1.68512 0
M  V30 783 O 80.7114 -0.0524613 1.91528 0
M  V30 784 C 80.9054 3.34467 1.25963 0
M  V30 785 C 80.7344 4.48965 0.257 0
M  V30 786 C 79.5044 5.05075 -0.150656 0
M  V30 787 C 81.7024 5.11891 -0.497166 0
M  V30 788 N 79.6844 6.03104 -1.14626 0
M  V30 789 C 81.0554 6.05216 -1.34588 0
M  V30 790 C 83.1104 4.9479 -0.55559 0
M  V30 791 C 81.8134 6.83277 -2.24778 0
M  V30 792 C 83.8394 5.73477 -1.44492 0
M  V30 793 C 83.2014 6.66433 -2.28136 0
M  V30 794 H 79.3004 0.756479 0.198149 0
M  V30 795 H 81.8844 1.94316 -0.122229 0
M  V30 796 H 80.0554 3.34685 1.97079 0
M  V30 797 H 81.7874 3.57994 1.88739 0
M  V30 798 H 78.5424 4.7305 0.228094 0
M  V30 799 H 78.9664 6.56813 -1.64092 0
M  V30 800 H 83.6084 4.2273 0.0768625 0
M  V30 801 H 81.3264 7.54629 -2.89069 0
M  V30 802 H 84.9124 5.62273 -1.49468 0
M  V30 803 H 83.7924 7.26258 -2.95835 0
M  V30 804 N 81.2955 -0.223234 1.56011 0
M  V30 805 C 82.5435 -0.946003 1.78592 0
M  V30 806 C 82.8645 -1.84936 0.618349 0
M  V30 807 O 82.1345 -1.92473 -0.364833 0
M  V30 808 H 80.7145 -0.352298 0.658707 0
M  V30 809 H 83.3765 -0.235494 1.93472 0
M  V30 810 H 82.4725 -1.55381 2.70672 0
M  V30 811 N 82.7736 -1.49793 -0.48987 0
M  V30 812 C 83.7056 -1.63413 -1.60713 0
M  V30 813 C 84.7186 -0.516329 -1.54395 0
M  V30 814 O 85.9076 -0.788812 -1.60125 0
M  V30 815 C 83.0076 -1.58516 -2.99543 0
M  V30 816 C 82.1806 -2.86016 -3.30928 0
M  V30 817 C 81.2396 -2.74018 -4.49222 0
M  V30 818 O 80.2656 -3.47964 -4.50455 0
M  V30 819 N 81.4676 -1.86309 -5.4979 0
M  V30 820 H 84.2326 -2.59777 -1.49452 0
M  V30 821 H 81.7936 -1.47022 -0.677955 0
M  V30 822 H 83.7856 -1.48128 -3.76617 0
M  V30 823 H 82.3556 -0.69965 -3.0467 0
M  V30 824 H 81.5756 -3.10672 -2.42645 0
M  V30 825 H 82.8636 -3.70521 -3.487 0
M  V30 826 H 82.2616 -1.2551 -5.51601 0
M  V30 827 H 80.8186 -1.81837 -6.25922 0
M  V30 828 N 84.2517 0.741722 -1.39055 0
M  V30 829 C 85.4797 1.53098 -1.39171 0
M  V30 830 C 85.8947 1.88794 0.0155099 0
M  V30 831 O 85.2517 1.53626 0.985159 0
M  V30 832 C 85.3027 2.82274 -2.2584 0
M  V30 833 O 85.0237 2.48097 -3.61081 0
M  V30 834 C 86.5247 3.76343 -2.34266 0
M  V30 835 H 83.7447 0.473335 -0.4756 0
M  V30 836 H 86.2887 0.917045 -1.82785 0
M  V30 837 H 84.4437 3.40015 -1.85656 0
M  V30 838 H 84.8577 3.31029 -4.06842 0
M  V30 839 H 86.3317 4.63898 -2.9917 0
M  V30 840 H 86.8087 4.17619 -1.35982 0
M  V30 841 H 87.4147 3.24523 -2.74891 0
M  V30 842 N 85.7298 1.2412 0.971189 0
M  V30 843 C 86.9578 1.10575 1.74874 0
M  V30 844 C 87.3728 -0.342017 1.85676 0
M  V30 845 O 86.7298 -1.23617 1.34258 0
M  V30 846 C 86.7808 1.73579 3.171 0
M  V30 847 O 86.5018 3.12695 3.06844 0
M  V30 848 C 88.0028 1.65598 4.11208 0
M  V30 849 H 85.2228 0.386504 0.548503 0
M  V30 850 H 87.7668 1.64156 1.21955 0
M  V30 851 H 85.9218 1.24009 3.67016 0
M  V30 852 H 86.3358 3.43412 3.96445 0
M  V30 853 H 87.8098 2.1437 5.08674 0
M  V30 854 H 88.2868 0.616532 4.34851 0
M  V30 855 H 88.8928 2.14578 3.67201 0
M  V30 856 N 87.2079 -1.17134 1.05439 0
M  V30 857 C 88.6189 -1.69084 0.791676 0
M  V30 858 C 88.9699 -1.83822 -0.685839 0
M  V30 859 O 88.0949 -1.52757 -1.53278 0
M  V30 860 C 88.6899 -3.07119 1.4305 0
M  V30 861 C 87.2489 -3.56225 1.21577 0
M  V30 862 C 86.3959 -2.32421 1.51247 0
M  V30 863 H 89.3469 -1.01617 1.219 0
M  V30 864 H 89.3679 -3.71087 0.84112 0
M  V30 865 H 88.8799 -2.9636 2.50584 0
M  V30 866 H 86.9809 -3.72257 0.159787 0
M  V30 867 H 87.0939 -4.38837 1.92246 0
M  V30 868 H 85.4579 -2.3701 0.932653 0
M  V30 869 H 86.2409 -2.24268 2.5992 0
M  V30 870 N 88.686 -0.835752 -1.33615 0
M  V30 871 C 89.633 -0.26473 -2.29277 0
M  V30 872 C 90.603 0.617712 -1.54187 0
M  V30 873 O 91.788 0.556641 -1.825 0
M  V30 874 C 88.928 0.556777 -3.40579 0
M  V30 875 C 88.041 -0.349339 -4.30585 0
M  V30 876 C 87.176 0.482969 -5.29 0
M  V30 877 C 86.215 -0.421732 -6.10645 0
M  V30 878 N 85.352 0.372262 -7.01112 0
M  V30 879 H 90.192 -1.08582 -2.77514 0
M  V30 880 H 87.729 -0.546927 -1.36554 0
M  V30 881 H 89.687 1.04852 -4.03809 0
M  V30 882 H 88.317 1.34286 -2.93542 0
M  V30 883 H 87.369 -0.959372 -3.68104 0
M  V30 884 H 88.681 -1.04445 -4.87742 0
M  V30 885 H 87.835 1.03866 -5.97743 0
M  V30 886 H 86.574 1.21153 -4.72412 0
M  V30 887 H 85.579 -0.989464 -5.40823 0
M  V30 888 H 86.804 -1.14861 -6.69316 0
M  V30 889 H 84.75 1.08426 -6.46977 0
M  V30 890 H 84.667 -0.264198 -7.55538 0
M  V30 891 H 85.935 0.910293 -7.74167 0
M  V30 892 N 90.1641 1.46063 -0.591896 0
M  V30 893 C 91.4101 2.02638 -0.0811191 0
M  V30 894 C 91.7431 1.4613 1.27905 0
M  V30 895 O 91.0181 0.629908 1.84017 0
M  V30 896 C 91.3011 3.60091 -0.0252436 0
M  V30 897 C 91.1541 4.26965 -1.41496 0
M  V30 898 C 92.4731 4.3496 0.670685 0
M  V30 899 H 89.5921 0.73635 -0.0309524 0
M  V30 900 H 92.2341 1.741 -0.760859 0
M  V30 901 H 90.3841 3.84535 0.553624 0
M  V30 902 H 92.0561 4.13756 -2.0397 0
M  V30 903 H 90.2991 3.85971 -1.98011 0
M  V30 904 H 90.9701 5.35781 -1.32825 0
M  V30 905 H 93.4461 4.15716 0.178825 0
M  V30 906 H 92.3221 5.44686 0.678837 0
M  V30 907 H 92.5831 4.06685 1.73379 0
M  V30 908 N 91.6422 0.330177 1.54103 0
M  V30 909 C 93.0582 -0.0222371 1.59585 0
M  V30 910 C 93.2582 -1.49902 1.34654 0
M  V30 911 O 92.3142 -2.25592 1.13421 0
M  V30 912 C 93.6272 0.401932 2.98002 0
M  V30 913 C 95.1752 0.353145 3.11001 0
M  V30 914 C 95.6502 0.752576 4.51775 0
M  V30 915 N 97.1412 0.706239 4.57784 0
M  V30 916 C 97.8762 0.987417 5.64834 0
M  V30 917 N 97.3722 1.33607 6.79795 0
M  V30 918 N 99.1652 0.91254 5.54643 0
M  V30 919 H 91.3162 1.29228 1.68564 0
M  V30 920 H 93.5792 0.525906 0.78875 0
M  V30 921 H 93.2852 1.4311 3.21267 0
M  V30 922 H 93.1592 -0.229699 3.765 0
M  V30 923 H 95.5462 -0.666822 2.87467 0
M  V30 924 H 95.6272 1.0198 2.34593 0
M  V30 925 H 95.2712 1.77049 4.76042 0
M  V30 926 H 95.2012 0.0635409 5.26562 0
M  V30 927 H 97.6922 0.44889 3.75224 0
M  V30 928 H 98.0052 1.53582 7.57385 0
M  V30 929 H 96.3502 1.37439 6.81275 0
M  V30 930 H 99.5412 0.639601 4.6371 0
M  V30 931 H 99.7142 1.13503 6.37982 0
M  V30 932 N 93.1203 -1.57491 0.0584922 0
M  V30 933 C 94.0833 -2.1085 -0.898617 0
M  V30 934 C 95.0833 -1.02964 -1.23511 0
M  V30 935 O 96.2733 -1.29007 -1.17059 0
M  V30 936 C 93.4053 -2.59881 -2.20623 0
M  V30 937 H 94.5983 -2.96715 -0.435936 0
M  V30 938 H 92.1513 -1.55141 -0.190023 0
M  V30 939 H 92.8863 -1.77431 -2.71457 0
M  V30 940 H 92.6713 -3.38727 -1.97501 0
M  V30 941 H 94.1613 -3.01285 -2.89166 0
M  V30 942 N 94.5984 0.214957 -1.56127 0
M  V30 943 C 95.5084 1.28727 -1.96129 0
M  V30 944 C 96.5244 1.50916 -0.866044 0
M  V30 945 O 97.7004 1.63918 -1.17016 0
M  V30 946 C 94.7654 2.61569 -2.27558 0
M  V30 947 C 93.8264 2.47625 -3.50685 0
M  V30 948 C 93.0594 3.74132 -3.80606 0
M  V30 949 O 93.2824 4.77438 -3.12104 0
M  V30 950 O 92.2164 3.70849 -4.74083 0
M  V30 951 H 96.0424 0.977855 -2.87527 0
M  V30 952 H 93.6274 0.418358 -1.43423 0
M  V30 953 H 95.5094 3.40012 -2.48938 0
M  V30 954 H 94.1844 2.92178 -1.39332 0
M  V30 955 H 93.0914 1.67361 -3.34576 0
M  V30 956 H 94.4244 2.21954 -4.39315 0
M  V30 957 N 96.0765 1.50051 0.48192 0
M  V30 958 C 97.3165 1.62128 1.24474 0
M  V30 959 C 97.6805 0.309742 1.89485 0
M  V30 960 O 98.8815 0.305854 2.67054 0
M  V30 961 C 97.1525 2.76151 2.26882 0
M  V30 962 S 98.7115 3.08297 3.12247 0
M  V30 963 H 95.5295 0.571661 0.422759 0
M  V30 964 H 98.1315 1.87791 0.54359 0
M  V30 965 H 96.8355 3.69942 1.77683 0
M  V30 966 H 96.3665 2.52541 3.0164 0
M  V30 967 H 98.3815 2.51287 4.27866 0
M  V30 968 N 97.5546 -0.734337 1.39446 0
M  V30 969 C 98.4846 -1.86155 1.40955 0
M  V30 970 C 99.4656 -1.67898 0.272827 0
M  V30 971 O 100.651 -1.88207 0.478743 0
M  V30 972 C 97.7806 -3.23912 1.25294 0
M  V30 973 C 96.7346 -3.56808 2.36373 0
M  V30 974 C 96.0606 -4.93508 2.058 0
M  V30 975 C 97.3606 -3.59713 3.78687 0
M  V30 976 H 99.0546 -1.8515 2.35287 0
M  V30 977 H 96.6006 -0.889367 1.13253 0
M  V30 978 H 98.5536 -4.02443 1.2497 0
M  V30 979 H 97.2776 -3.25446 0.274308 0
M  V30 980 H 95.9366 -2.80606 2.35914 0
M  V30 981 H 95.5846 -4.91623 1.06374 0
M  V30 982 H 95.2846 -5.16486 2.80208 0
M  V30 983 H 96.8086 -5.74396 2.07128 0
M  V30 984 H 98.2226 -4.2832 3.81071 0
M  V30 985 H 96.6196 -3.94209 4.52459 0
M  V30 986 H 97.6896 -2.59504 4.09617 0
M  V30 987 N 99.0327 -1.24633 -0.964593 0
M  V30 988 C 99.9627 -1.06611 -2.07741 0
M  V30 989 C 100.944 0.0218666 -1.70086 0
M  V30 990 O 102.129 -0.145793 -1.93652 0
M  V30 991 C 99.2587 -0.673444 -3.40708 0
M  V30 992 C 98.2127 -1.71054 -3.92332 0
M  V30 993 C 97.5387 -1.17285 -5.21678 0
M  V30 994 C 98.8387 -3.10718 -4.19824 0
M  V30 995 H 100.533 -1.99693 -2.23076 0
M  V30 996 H 98.0787 -0.96152 -1.07195 0
M  V30 997 H 100.032 -0.534345 -4.17998 0
M  V30 998 H 98.7557 0.293073 -3.25282 0
M  V30 999 H 97.4147 -1.83791 -3.17201 0
M  V30 1000 H 97.0627 -0.196847 -5.02615 0
M  V30 1001 H 96.7627 -1.86592 -5.57187 0
M  V30 1002 H 98.2867 -1.04593 -6.01575 0
M  V30 1003 H 99.7007 -3.01192 -4.87808 0
M  V30 1004 H 98.0977 -3.77406 -4.66567 0
M  V30 1005 H 99.1677 -3.58524 -3.26479 0
M  V30 1006 N 100.511 1.16574 -1.06058 0
M  V30 1007 C 101.458 2.20883 -0.669263 0
M  V30 1008 C 102.428 1.62729 0.332918 0
M  V30 1009 O 103.613 1.895 0.222346 0
M  V30 1010 C 100.753 3.45049 -0.0593572 0
M  V30 1011 C 99.8658 4.17458 -1.11143 0
M  V30 1012 C 99.0008 5.29135 -0.467916 0
M  V30 1013 C 98.0398 5.93343 -1.50369 0
M  V30 1014 N 97.1768 6.96516 -0.883706 0
M  V30 1015 H 102.017 2.53709 -1.5632 0
M  V30 1016 H 99.5538 1.24616 -0.781625 0
M  V30 1017 H 101.512 4.16033 0.311771 0
M  V30 1018 H 100.142 3.12781 0.797992 0
M  V30 1019 H 99.1938 3.45101 -1.60029 0
M  V30 1020 H 100.506 4.61307 -1.89731 0
M  V30 1021 H 99.6598 6.06684 -0.0436871 0
M  V30 1022 H 98.3988 4.86443 0.349864 0
M  V30 1023 H 97.4038 5.14517 -1.93784 0
M  V30 1024 H 98.6288 6.38114 -2.32352 0
M  V30 1025 H 96.5748 6.55943 -0.086595 0
M  V30 1026 H 96.4918 7.38723 -1.607 0
M  V30 1027 H 97.7598 7.77993 -0.484543 0
M  V30 1028 N 101.989 0.842826 1.3317 0
M  V30 1029 C 102.919 0.294028 2.31641 0
M  V30 1030 C 103.9 -0.600401 1.59151 0
M  V30 1031 O 105.085 -0.523124 1.87022 0
M  V30 1032 C 102.215 -0.528416 3.43257 0
M  V30 1033 C 101.169 0.27056 4.27144 0
M  V30 1034 C 100.495 -0.675881 5.30411 0
M  V30 1035 C 101.795 1.48981 5.00602 0
M  V30 1036 H 103.489 1.11681 2.77791 0
M  V30 1037 H 101.035 0.538478 1.33553 0
M  V30 1038 H 102.988 -0.922674 4.11175 0
M  V30 1039 H 101.712 -1.38445 2.95805 0
M  V30 1040 H 100.371 0.646427 3.60856 0
M  V30 1041 H 100.019 -1.52842 4.79216 0
M  V30 1042 H 99.7189 -0.145374 5.8742 0
M  V30 1043 H 101.243 -1.06757 6.01195 0
M  V30 1044 H 102.657 1.16849 5.61266 0
M  V30 1045 H 101.054 1.95739 5.6728 0
M  V30 1046 H 102.124 2.25746 4.29147 0
M  V30 1047 N 103.467 -1.45747 0.599634 0
M  V30 1048 C 104.43 -2.28917 -0.113835 0
M  V30 1049 C 105.43 -1.3933 -0.802729 0
M  V30 1050 O 106.62 -1.61534 -0.652103 0
M  V30 1051 C 103.752 -3.20152 -1.17114 0
M  V30 1052 H 104.945 -2.93478 0.617289 0
M  V30 1053 H 102.498 -1.52137 0.358327 0
M  V30 1054 H 103.233 -2.60374 -1.93329 0
M  V30 1055 H 103.018 -3.86133 -0.681468 0
M  V30 1056 H 104.508 -3.82708 -1.67105 0
M  V30 1057 N 104.945 -0.338344 -1.53925 0
M  V30 1058 C 106.222 0.314774 -1.93051 0
M  V30 1059 C 106.602 1.68669 -1.26941 0
M  V30 1060 O 105.95 2.24636 -0.418445 0
M  V30 1061 C 106.16 0.392249 -3.46789 0
M  V30 1062 C 107.508 0.645554 -4.19664 0
M  V30 1063 O 108.532 0.474575 -3.53024 0
M  V30 1064 O 107.391 0.976408 -5.37707 0
M  V30 1065 H 104.485 0.182598 -0.80659 0
M  V30 1066 H 107.031 -0.389141 -1.65178 0
M  V30 1067 H 105.803 -0.570702 -3.87116 0
M  V30 1068 H 105.426 1.14316 -3.80812 0
M  V30 1069 N 106.423 1.57458 -0.0668435 0
M  V30 1070 C 107.669 1.93587 0.6043 0
M  V30 1071 C 108.002 0.946722 1.69561 0
M  V30 1072 O 107.277 -0.0248516 1.94484 0
M  V30 1073 C 107.56 3.40014 1.18585 0
M  V30 1074 C 107.413 4.49685 0.101529 0
M  V30 1075 C 108.732 3.87154 2.09284 0
M  V30 1076 H 105.851 0.703958 0.218202 0
M  V30 1077 H 108.493 1.89542 -0.131804 0
M  V30 1078 H 106.643 3.43592 1.81319 0
M  V30 1079 H 108.315 4.5823 -0.531279 0
M  V30 1080 H 106.558 4.30059 -0.568487 0
M  V30 1081 H 107.229 5.49266 0.54874 0
M  V30 1082 H 109.705 3.85551 1.56491 0
M  V30 1083 H 108.581 4.90231 2.46911 0
M  V30 1084 H 108.842 3.2481 2.99918 0
M  V30 1085 N 107.901 -0.206675 1.56239 0
M  V30 1086 C 109.15 -0.926964 1.79138 0
M  V30 1087 C 109.463 -1.84901 0.638043 0
M  V30 1088 O 110.669 -2.60906 0.751033 0
M  V30 1089 C 109.125 -1.6986 3.17294 0
M  V30 1090 C 108.733 -0.821956 4.40395 0
M  V30 1091 C 110.477 -2.40922 3.4951 0
M  V30 1092 C 108.384 -1.59179 5.69575 0
M  V30 1093 H 107.314 -0.349864 0.667915 0
M  V30 1094 H 109.965 -0.180487 1.8261 0
M  V30 1095 H 108.347 -2.48853 3.08039 0
M  V30 1096 H 109.521 -0.0715019 4.60745 0
M  V30 1097 H 107.836 -0.222741 4.15804 0
M  V30 1098 H 110.433 -2.99047 4.43255 0
M  V30 1099 H 110.776 -3.14542 2.72707 0
M  V30 1100 H 111.309 -1.68905 3.60161 0
M  V30 1101 H 108.048 -0.898589 6.49312 0
M  V30 1102 H 107.568 -2.31648 5.53262 0
M  V30 1103 H 109.247 -2.14862 6.10281 0
M  V30 1104 N 109.379 -1.50304 -0.473955 0
M  V30 1105 C 110.289 -1.7174 -1.5982 0
M  V30 1106 C 111.305 -0.600457 -1.63311 0
M  V30 1107 O 112.481 -0.878441 -1.81233 0
M  V30 1108 C 109.546 -1.80427 -2.96052 0
M  V30 1109 C 108.607 -3.04148 -3.02972 0
M  V30 1110 C 107.84 -3.12411 -4.32706 0
M  V30 1111 O 108.063 -2.27542 -5.23049 0
M  V30 1112 O 106.997 -4.05113 -4.45159 0
M  V30 1113 H 110.823 -2.67035 -1.44657 0
M  V30 1114 H 108.408 -1.34366 -0.653148 0
M  V30 1115 H 110.29 -1.88338 -3.7697 0
M  V30 1116 H 108.965 -0.883156 -3.11419 0
M  V30 1117 H 107.872 -3.0174 -2.21142 0
M  V30 1118 H 109.205 -3.95829 -2.92541 0
M  V30 1119 N 110.857 0.726932 -1.39834 0
M  V30 1120 C 111.767 1.87131 -1.41489 0
M  V30 1121 C 112.783 1.71239 -0.308757 0
M  V30 1122 O 113.959 1.93701 -0.551529 0
M  V30 1123 C 111.024 3.22811 -1.26468 0
M  V30 1124 C 110.085 3.51039 -2.47124 0
M  V30 1125 C 109.318 4.80245 -2.3281 0
M  V30 1126 O 109.541 5.54537 -1.33585 0
M  V30 1127 O 108.475 5.08554 -3.21957 0
M  V30 1128 H 112.301 1.8869 -2.3797 0
M  V30 1129 H 109.886 0.875837 -1.21035 0
M  V30 1130 H 111.768 4.03877 -1.20255 0
M  V30 1131 H 110.443 3.22005 -0.330862 0
M  V30 1132 H 109.35 2.70027 -2.58914 0
M  V30 1133 H 110.683 3.56632 -3.39227 0
M  V30 1134 N 112.336 1.25143 0.95797 0
M  V30 1135 C 113.284 1.05019 2.07542 0
M  V30 1136 C 114.278 -0.0178751 1.69391 0
M  V30 1137 O 115.484 0.137472 1.79474 0
M  V30 1138 H 111.859 0.32265 0.679265 0
M  V30 1139 H 113.83 1.99759 2.21673 0
M  V30 1140 C 112.579 0.682074 3.40944 0
M  V30 1141 H 111.902 1.49573 3.70767 0
M  V30 1142 H 113.342 0.580945 4.20001 0
M  V30 1143 C 111.801 -0.611608 3.31302 0
M  V30 1144 O 112.331 -1.65465 3.66038 0
M  V30 1145 N 110.537 -0.595982 2.84423 0
M  V30 1146 H 110.084 0.253192 2.56353 0
M  V30 1147 H 110.042 -1.46173 2.78354 0
M  V30 1148 N 113.814 -1.1601 1.06675 0
M  V30 1149 C 115.062 -1.86264 0.784229 0
M  V30 1150 C 115.383 -1.82328 -0.691488 0
M  V30 1151 O 114.653 -1.25947 -1.50047 0
M  V30 1152 H 113.233 -0.689621 0.28711 0
M  V30 1153 H 115.895 -1.40664 1.34906 0
M  V30 1154 H 114.991 -2.91595 1.11259 0
M  V30 1155 N 115.292 -0.849877 -1.32721 0
M  V30 1156 C 116.224 -0.248332 -2.27851 0
M  V30 1157 C 117.237 0.577218 -1.52224 0
M  V30 1158 O 118.426 0.402489 -1.73903 0
M  V30 1159 C 115.526 0.668107 -3.32249 0
M  V30 1160 C 114.699 -0.120534 -4.37234 0
M  V30 1161 C 113.758 0.720932 -5.21238 0
M  V30 1162 O 112.784 0.156166 -5.68986 0
M  V30 1163 N 113.986 2.03647 -5.43607 0
M  V30 1164 H 116.751 -1.06575 -2.80111 0
M  V30 1165 H 114.312 -0.709395 -1.45531 0
M  V30 1166 H 116.304 1.23627 -3.85355 0
M  V30 1167 H 114.874 1.38621 -2.80184 0
M  V30 1168 H 114.094 -0.870108 -3.84477 0
M  V30 1169 H 115.382 -0.662406 -5.0447 0
M  V30 1170 H 114.78 2.51871 -5.06535 0
M  V30 1171 H 113.337 2.55287 -5.99727 0
M  V30 1172 N 116.77 1.45427 -0.607355 0
M  V30 1173 C 118.016 2.0254 -0.102607 0
M  V30 1174 C 118.349 1.47478 1.26348 0
M  V30 1175 O 117.624 0.64939 1.83339 0
M  V30 1176 C 117.907 3.60044 -0.0634347 0
M  V30 1177 C 117.76 4.2544 -1.46017 0
M  V30 1178 C 119.079 4.35646 0.624514 0
M  V30 1179 H 116.198 0.73598 -0.0387607 0
M  V30 1180 H 118.84 1.73284 -0.779282 0
M  V30 1181 H 116.99 3.85101 0.512808 0
M  V30 1182 H 118.662 4.11569 -2.08347 0
M  V30 1183 H 116.905 3.83849 -2.02094 0
M  V30 1184 H 117.576 5.34342 -1.385 0
M  V30 1185 H 120.052 4.15882 0.134723 0
M  V30 1186 H 118.928 5.45376 0.621028 0
M  V30 1187 H 119.189 4.08501 1.69055 0
M  V30 1188 N 118.248 0.346503 1.53744 0
M  V30 1189 C 119.495 -0.249104 2.00962 0
M  V30 1190 C 119.823 -1.5032 1.23426 0
M  V30 1191 O 119.078 -1.93217 0.310761 0
M  V30 1192 C 119.377 -0.605809 3.52228 0
M  V30 1193 C 119.043 0.551747 4.47512 0
M  V30 1194 C 117.705 0.86941 4.73281 0
M  V30 1195 C 120.057 1.32818 5.03993 0
M  V30 1196 C 117.385 1.96582 5.52786 0
M  V30 1197 C 119.737 2.41486 5.84694 0
M  V30 1198 C 118.401 2.73808 6.08757 0
M  V30 1199 H 117.671 -0.0911538 0.735372 0
M  V30 1200 H 120.318 0.475027 1.85515 0
M  V30 1201 H 118.623 -1.4107 3.65522 0
M  V30 1202 H 120.32 -1.07858 3.86222 0
M  V30 1203 H 116.91 0.294102 4.2759 0
M  V30 1204 H 121.094 1.09602 4.84047 0
M  V30 1205 H 116.35 2.22045 5.69654 0
M  V30 1206 H 120.524 3.02078 6.27473 0
M  V30 1207 H 118.151 3.58892 6.7015 0
M  V30 1208 N 119.726 -1.57421 0.075193 0
M  V30 1209 C 120.689 -2.11791 -0.876203 0
M  V30 1210 C 121.689 -1.04268 -1.22412 0
M  V30 1211 O 122.879 -1.30242 -1.15684 0
M  V30 1212 C 120.011 -2.62207 -2.17854 0
M  V30 1213 H 121.204 -2.9716 -0.40444 0
M  V30 1214 H 118.757 -1.55333 -0.173557 0
M  V30 1215 H 119.492 -1.803 -2.6956 0
M  V30 1216 H 119.277 -3.40802 -1.93897 0
M  V30 1217 H 120.767 -3.04335 -2.85955 0
M  V30 1218 N 121.204 0.198386 -1.56346 0
M  V30 1219 C 122.114 1.2664 -1.97483 0
M  V30 1220 C 123.13 1.49989 -0.882002 0
M  V30 1221 O 124.306 1.62668 -1.18748 0
M  V30 1222 C 121.371 2.59141 -2.30319 0
M  V30 1223 C 120.432 2.43892 -3.53292 0
M  V30 1224 C 119.665 3.70074 -3.84553 0
M  V30 1225 O 119.888 4.74101 -3.1715 0
M  V30 1226 O 118.822 3.658 -4.7799 0
M  V30 1227 H 122.648 0.947304 -2.88548 0
M  V30 1228 H 120.233 0.403123 -1.43859 0
M  V30 1229 H 122.115 3.37352 -2.5253 0
M  V30 1230 H 120.79 2.90684 -1.42423 0
M  V30 1231 H 119.697 1.63803 -3.36332 0
M  V30 1232 H 121.03 2.17282 -4.41644 0
M  V30 1233 N 122.682 1.50554 0.465978 0
M  V30 1234 C 123.612 1.72722 1.57128 0
M  V30 1235 C 124.593 0.576294 1.6004 0
M  V30 1236 O 125.778 0.81598 1.76225 0
M  V30 1237 C 122.908 1.82605 2.95419 0
M  V30 1238 C 121.862 2.97835 3.07373 0
M  V30 1239 C 121.188 2.92867 4.47363 0
M  V30 1240 C 122.488 4.38265 2.84114 0
M  V30 1241 H 124.182 2.65267 1.38829 0
M  V30 1242 H 121.728 1.2765 0.666441 0
M  V30 1243 H 123.681 1.96698 3.72677 0
M  V30 1244 H 122.405 0.866858 3.14886 0
M  V30 1245 H 121.064 2.83401 2.3255 0
M  V30 1246 H 120.712 1.94783 4.63755 0
M  V30 1247 H 120.412 3.70227 4.56296 0
M  V30 1248 H 121.936 3.09015 5.26633 0
M  V30 1249 H 123.35 4.53198 3.51118 0
M  V30 1250 H 121.747 5.17115 3.04487 0
M  V30 1251 H 122.817 4.50281 1.7993 0
M  V30 1252 N 124.16 -0.719506 1.40217 0
M  V30 1253 C 125.07 -1.86378 1.42479 0
M  V30 1254 C 126.086 -1.71073 0.317834 0
M  V30 1255 O 127.262 -1.93406 0.561794 0
M  V30 1256 C 124.327 -3.22136 1.28178 0
M  V30 1257 C 123.388 -3.49723 2.48982 0
M  V30 1258 C 122.621 -4.79004 2.35353 0
M  V30 1259 O 122.844 -5.53821 1.36524 0
M  V30 1260 O 121.778 -5.06839 3.2465 0
M  V30 1261 H 125.604 -1.87425 2.38968 0
M  V30 1262 H 123.189 -0.869405 1.21498 0
M  V30 1263 H 125.071 -4.03234 1.22395 0
M  V30 1264 H 123.746 -3.21825 0.347934 0
M  V30 1265 H 122.653 -2.6865 2.60342 0
M  V30 1266 H 123.986 -3.54828 3.41113 0
M  V30 1267 N 125.638 -1.25649 -0.95132 0
M  V30 1268 C 126.863 -1.13443 -1.73624 0
M  V30 1269 C 127.288 0.307565 -1.85568 0
M  V30 1270 O 126.646 1.22282 -1.33854 0
M  V30 1271 C 126.694 -1.79723 -3.12621 0
M  V30 1272 O 125.798 -1.07912 -3.98031 0
M  V30 1273 H 125.139 -0.395872 -0.533086 0
M  V30 1274 H 127.669 -1.66276 -1.1922 0
M  V30 1275 H 127.679 -1.86141 -3.63064 0
M  V30 1276 H 126.354 -2.84633 -3.03244 0
M  V30 1277 H 124.931 -1.09398 -3.56492 0
M  V30 1278 N 127.117 1.15442 -1.07289 0
M  V30 1279 C 128.533 1.38201 -0.798288 0
M  V30 1280 C 128.733 1.92429 0.597769 0
M  V30 1281 O 127.789 2.12962 1.3566 0
M  V30 1282 C 129.102 2.35357 -1.87156 0
M  V30 1283 C 130.65 2.49021 -1.89624 0
M  V30 1284 C 131.125 3.49468 -2.96034 0
M  V30 1285 N 132.616 3.57003 -2.95132 0
M  V30 1286 C 133.351 4.34543 -3.74112 0
M  V30 1287 N 132.847 5.15421 -4.6294 0
M  V30 1288 N 134.64 4.29625 -3.62462 0
M  V30 1289 H 126.791 0.78584 -1.97328 0
M  V30 1290 H 129.054 0.408065 -0.855679 0
M  V30 1291 H 128.76 2.02626 -2.87464 0
M  V30 1292 H 128.634 3.35129 -1.73114 0
M  V30 1293 H 131.021 2.81051 -0.899687 0
M  V30 1294 H 131.102 1.4925 -2.07745 0
M  V30 1295 H 130.746 3.18173 -3.95889 0
M  V30 1296 H 130.676 4.48992 -2.75161 0
M  V30 1297 H 133.167 2.99276 -2.30743 0
M  V30 1298 H 133.48 5.7183 -5.19837 0
M  V30 1299 H 131.825 5.14729 -4.66989 0
M  V30 1300 H 135.016 3.65505 -2.92444 0
M  V30 1301 H 135.189 4.89807 -4.24256 0
M  V30 1302 N 128.595 0.856903 1.32268 0
M  V30 1303 C 129.543 0.291987 2.3076 0
M  V30 1304 C 130.537 -0.585857 1.58947 0
M  V30 1305 O 131.743 -0.47341 1.73663 0
M  V30 1306 H 128.118 0.075721 0.748178 0
M  V30 1307 H 130.089 1.13687 2.75895 0
M  V30 1308 C 128.838 -0.502869 3.44044 0
M  V30 1309 H 128.161 0.163328 3.99466 0
M  V30 1310 H 129.601 -0.863691 4.1511 0
M  V30 1311 C 128.06 -1.68898 2.91505 0
M  V30 1312 O 128.59 -2.78811 2.89184 0
M  V30 1313 N 126.796 -1.51679 2.47875 0
M  V30 1314 H 126.343 -0.622666 2.49961 0
M  V30 1315 H 126.301 -2.31184 2.13076 0
M  V30 1316 N 130.073 -1.45103 0.615059 0
M  V30 1317 C 131.313 -2.04069 0.116282 0
M  V30 1318 C 131.677 -1.4721 -1.2326 0
M  V30 1319 O 132.878 -1.97577 -1.82255 0
M  V30 1320 C 131.149 -3.57298 0.085482 0
M  V30 1321 S 132.708 -4.37394 -0.351015 0
M  V30 1322 H 129.526 -0.709006 0.0532183 0
M  V30 1323 H 132.128 -1.77709 0.81484 0
M  V30 1324 H 130.832 -3.9619 1.0706 0
M  V30 1325 H 130.363 -3.88244 -0.634835 0
M  V30 1326 H 132.378 -4.69734 -1.59889 0
M  V30 1327 N 131.551 -0.354651 -1.53558 0
M  V30 1328 C 132.799 0.237972 -2.00694 0
M  V30 1329 C 133.12 1.50173 -1.24391 0
M  V30 1330 O 132.39 1.92673 -0.354135 0
M  V30 1331 H 130.97 0.0909256 -0.741446 0
M  V30 1332 H 133.632 -0.478368 -1.88938 0
M  V30 1333 H 132.728 0.47264 -3.085 0
M  V30 1334 N 133.029 1.57378 -0.0835403 0
M  V30 1335 C 133.976 2.13384 0.879539 0
M  V30 1336 C 134.946 1.04936 1.28754 0
M  V30 1337 O 136.131 1.32662 1.37133 0
M  V30 1338 C 133.271 2.70932 2.13752 0
M  V30 1339 C 132.384 3.93575 1.7811 0
M  V30 1340 C 131.519 4.39326 2.98607 0
M  V30 1341 C 130.558 5.54587 2.59037 0
M  V30 1342 N 129.695 5.95243 3.72331 0
M  V30 1343 H 134.535 2.9537 0.395076 0
M  V30 1344 H 132.072 1.45953 0.183349 0
M  V30 1345 H 134.03 3.02411 2.87408 0
M  V30 1346 H 132.66 1.91693 2.59718 0
M  V30 1347 H 131.712 3.68483 0.94469 0
M  V30 1348 H 133.024 4.77258 1.45005 0
M  V30 1349 H 132.178 4.72528 3.80529 0
M  V30 1350 H 130.917 3.5452 3.34913 0
M  V30 1351 H 129.922 5.21024 1.75539 0
M  V30 1352 H 131.147 6.41133 2.23887 0
M  V30 1353 H 129.093 5.13385 4.08378 0
M  V30 1354 H 129.01 6.73694 3.43034 0
M  V30 1355 H 130.278 6.33072 4.54797 0
M  V30 1356 N 134.507 -0.190092 1.56449 0
M  V30 1357 C 135.918 -0.754312 1.70784 0
M  V30 1358 C 136.269 -1.83631 0.690951 0
M  V30 1359 O 135.394 -2.15868 -0.151604 0
M  V30 1360 C 135.989 -1.37503 3.09642 0
M  V30 1361 C 134.548 -1.88628 3.25725 0
M  V30 1362 C 133.695 -0.758098 2.66736 0
M  V30 1363 H 136.646 0.0350524 1.58661 0
M  V30 1364 H 136.667 -2.2445 3.0725 0
M  V30 1365 H 136.179 -0.587302 3.83631 0
M  V30 1366 H 134.28 -2.70103 2.56661 0
M  V30 1367 H 134.393 -2.04462 4.3328 0
M  V30 1368 H 132.757 -1.17369 2.26046 0
M  V30 1369 H 133.54 0.0174705 3.43296 0
M  V30 1370 N 135.985 -1.50799 -0.457987 0
M  V30 1371 C 136.915 -1.73553 -1.5621 0
M  V30 1372 C 137.896 -0.584774 -1.59732 0
M  V30 1373 O 139.081 -0.825314 -1.7579 0
M  V30 1374 C 136.211 -1.84169 -2.94447 0
M  V30 1375 C 135.165 -2.99461 -3.0579 0
M  V30 1376 C 134.491 -2.95235 -4.45803 0
M  V30 1377 C 135.791 -4.39766 -2.81786 0
M  V30 1378 H 137.485 -2.66 -1.37421 0
M  V30 1379 H 135.031 -1.28002 -0.659662 0
M  V30 1380 H 136.984 -1.98672 -3.71628 0
M  V30 1381 H 135.708 -0.883545 -3.14422 0
M  V30 1382 H 134.367 -2.8463 -2.31044 0
M  V30 1383 H 134.015 -1.97239 -4.62715 0
M  V30 1384 H 133.715 -3.72642 -4.54326 0
M  V30 1385 H 135.239 -3.11803 -5.24987 0
M  V30 1386 H 136.653 -4.55054 -3.4871 0
M  V30 1387 H 135.05 -5.18722 -3.0174 0
M  V30 1388 H 136.12 -4.51229 -1.7754 0
M  V30 1389 N 137.463 0.71206 -1.40597 0
M  V30 1390 C 138.413 1.81783 -1.37619 0
M  V30 1391 C 139.397 1.58896 -0.253162 0
M  V30 1392 O 140.589 1.70009 -0.492547 0
M  V30 1393 C 137.718 3.19944 -1.24462 0
M  V30 1394 C 136.804 3.48582 -2.4156 0
M  V30 1395 N 137.195 3.48016 -3.67041 0
M  V30 1396 C 135.493 3.79056 -2.35016 0
M  V30 1397 C 136.194 3.75096 -4.44609 0
M  V30 1398 N 135.17 3.94022 -3.74497 0
M  V30 1399 H 138.972 1.79683 -2.32575 0
M  V30 1400 H 136.486 0.91134 -1.34419 0
M  V30 1401 H 138.483 3.99133 -1.20411 0
M  V30 1402 H 137.143 3.23267 -0.304762 0
M  V30 1403 H 138.154 3.28782 -4.00153 0
M  V30 1404 H 134.831 3.89848 -1.49415 0
M  V30 1405 H 136.221 3.80934 -5.53479 0
M  V30 1406 N 138.941 1.26152 0.944643 0
M  V30 1407 C 140.166 1.14363 1.7302 0
M  V30 1408 C 140.591 -0.29772 1.85729 0
M  V30 1409 O 139.949 -1.2157 1.34501 0
M  V30 1410 C 139.997 1.81378 3.11664 0
M  V30 1411 O 139.101 1.10022 3.97453 0
M  V30 1412 H 138.442 0.398694 0.53098 0
M  V30 1413 H 140.972 1.66906 1.18337 0
M  V30 1414 H 140.982 1.88064 3.62072 0
M  V30 1415 H 139.657 2.86237 3.0173 0
M  V30 1416 H 138.234 1.11287 3.55907 0
M  V30 1417 N 140.419 -1.14872 1.07899 0
M  V30 1418 C 141.382 -2.17986 0.708161 0
M  V30 1419 C 142.382 -1.58775 -0.25442 0
M  V30 1420 O 143.572 -1.74166 -0.034645 0
M  V30 1421 C 140.704 -3.40871 0.0446929 0
M  V30 1422 H 141.897 -2.52306 1.62116 0
M  V30 1423 H 139.45 -1.2943 0.876218 0
M  V30 1424 H 140.185 -3.12124 -0.880281 0
M  V30 1425 H 139.97 -3.8511 0.737091 0
M  V30 1426 H 141.46 -4.17121 -0.19991 0
M  V30 1427 N 141.898 -0.863906 -1.31812 0
M  V30 1428 C 143.145 -0.471836 -1.96926 0
M  V30 1429 C 143.473 0.974578 -1.68322 0
M  V30 1430 O 142.728 1.7003 -0.968933 0
M  V30 1431 C 143.027 -0.668547 -3.51091 0
M  V30 1432 C 142.693 -2.08683 -3.99703 0
M  V30 1433 C 141.355 -2.47471 -4.12688 0
M  V30 1434 C 143.707 -3.01207 -4.25351 0
M  V30 1435 C 141.035 -3.78037 -4.4867 0
M  V30 1436 C 143.387 -4.31282 -4.62794 0
M  V30 1437 C 142.051 -4.69992 -4.73987 0
M  V30 1438 H 141.321 -0.172657 -0.720604 0
M  V30 1439 H 143.968 -1.09573 -1.57054 0
M  V30 1440 H 142.273 0.0385252 -3.91781 0
M  V30 1441 H 143.97 -0.345102 -3.99512 0
M  V30 1442 H 140.56 -1.77566 -3.90087 0
M  V30 1443 H 144.744 -2.72469 -4.14819 0
M  V30 1444 H 140 -4.078 -4.55532 0
M  V30 1445 H 144.174 -5.03031 -4.81594 0
M  V30 1446 H 141.801 -5.71207 -5.01624 0
M  V30 1447 N 143.376 1.44774 -0.622745 0
M  V30 1448 C 144.324 2.32387 0.0994683 0
M  V30 1449 C 145.318 1.46859 0.844326 0
M  V30 1450 O 146.524 1.63254 0.758174 0
M  V30 1451 H 142.899 0.750273 0.0509291 0
M  V30 1452 H 144.87 2.91062 -0.65767 0
M  V30 1453 C 143.619 3.30723 1.07319 0
M  V30 1454 H 142.942 3.96541 0.509462 0
M  V30 1455 H 144.382 3.94725 1.54817 0
M  V30 1456 C 142.841 2.59021 2.15429 0
M  V30 1457 O 143.371 2.38286 3.23393 0
M  V30 1458 N 141.577 2.189 1.91131 0
M  V30 1459 H 141.124 2.35964 1.03337 0
M  V30 1460 H 141.082 1.71251 2.63668 0
M  V30 1461 N 144.854 0.36279 1.53368 0
M  V30 1462 C 146.131 -0.284021 1.93527 0
M  V30 1463 C 146.511 -1.66628 1.29608 0
M  V30 1464 O 145.859 -2.23942 0.45413 0
M  V30 1465 C 146.069 -0.337028 3.47369 0
M  V30 1466 C 147.417 -0.578708 4.20638 0
M  V30 1467 O 148.441 -0.418352 3.53735 0
M  V30 1468 O 147.3 -0.89074 5.39192 0
M  V30 1469 H 144.394 -0.169743 0.809393 0
M  V30 1470 H 146.94 0.41537 1.64538 0
M  V30 1471 H 145.712 0.632217 3.86159 0
M  V30 1472 H 145.335 -1.08243 3.82582 0
M  V30 1473 N 146.332 -1.57332 0.0918853 0
M  V30 1474 C 147.242 -2.17368 -0.882505 0
M  V30 1475 C 148.258 -1.14226 -1.31257 0
M  V30 1476 O 149.434 -1.46582 -1.38115 0
M  V30 1477 C 146.499 -2.73962 -2.12476 0
M  V30 1478 C 145.56 -3.92048 -1.7492 0
M  V30 1479 C 144.793 -4.45933 -2.93223 0
M  V30 1480 O 145.016 -3.98764 -4.07852 0
M  V30 1481 O 143.95 -5.36999 -2.71875 0
M  V30 1482 H 147.776 -3.01031 -0.40172 0
M  V30 1483 H 145.361 -1.48813 -0.132291 0
M  V30 1484 H 147.243 -3.10147 -2.85283 0
M  V30 1485 H 145.918 -1.93347 -2.59613 0
M  V30 1486 H 144.825 -3.6068 -0.993025 0
M  V30 1487 H 146.158 -4.74017 -1.32548 0
M  V30 1488 N 147.81 0.181792 -1.56548 0
M  V30 1489 C 149.059 0.898348 -1.8059 0
M  V30 1490 C 149.372 1.83862 -0.667379 0
M  V30 1491 O 150.578 2.59678 -0.792446 0
M  V30 1492 C 149.034 1.64791 -3.19956 0
M  V30 1493 C 148.642 0.751789 -4.41647 0
M  V30 1494 C 150.386 2.35331 -3.53298 0
M  V30 1495 C 148.293 1.50098 -5.72035 0
M  V30 1496 H 147.223 0.339194 -0.673397 0
M  V30 1497 H 149.874 0.151413 -1.82874 0
M  V30 1498 H 148.256 2.43921 -3.11959 0
M  V30 1499 H 149.43 -0.0018076 -4.608 0
M  V30 1500 H 147.745 0.156562 -4.16106 0
M  V30 1501 H 150.342 2.91958 -4.47956 0
M  V30 1502 H 150.685 3.10164 -2.77676 0
M  V30 1503 H 151.218 1.63154 -3.62803 0
M  V30 1504 H 147.957 0.795175 -6.50659 0
M  V30 1505 H 147.477 2.22817 -5.56878 0
M  V30 1506 H 149.156 2.05125 -6.13622 0
M  V30 1507 N 149.288 1.51039 0.449983 0
M  V30 1508 C 150.699 1.557 1.03026 0
M  V30 1509 C 151.05 0.372939 1.92623 0
M  V30 1510 O 150.175 -0.511771 2.10261 0
M  V30 1511 C 150.77 2.82171 1.87523 0
M  V30 1512 C 149.329 2.89444 2.40622 0
M  V30 1513 C 148.476 2.50228 1.19504 0
M  V30 1514 H 151.427 1.56999 0.231745 0
M  V30 1515 H 151.448 2.65219 2.72835 0
M  V30 1516 H 150.96 3.68331 1.22286 0
M  V30 1517 H 149.061 2.07685 3.0935 0
M  V30 1518 H 149.174 3.92816 2.74285 0
M  V30 1519 H 147.538 2.03139 1.53644 0
M  V30 1520 H 148.321 3.38719 0.558972 0
M  V30 1521 N 150.766 -0.704594 1.40972 0
M  V30 1522 C 151.729 -1.80035 1.41845 0
M  V30 1523 C 152.729 -1.57774 0.310474 0
M  V30 1524 O 153.919 -1.64613 0.56992 0
M  V30 1525 C 151.051 -3.18284 1.22098 0
M  V30 1526 H 152.244 -1.80658 2.3938 0
M  V30 1527 H 149.797 -0.911329 1.26982 0
M  V30 1528 H 150.532 -3.23306 0.253672 0
M  V30 1529 H 150.317 -3.35843 2.02366 0
M  V30 1530 H 151.807 -3.98289 1.25522 0
M  V30 1531 N 152.244 -1.26651 -0.937939 0
M  V30 1532 C 153.493 -1.11775 -1.67897 0
M  V30 1533 C 153.806 0.33794 -1.92659 0
M  V30 1534 O 155.012 0.607434 -2.64618 0
M  V30 1535 C 153.468 -1.9523 -3.02346 0
M  V30 1536 C 153.076 -3.45393 -2.8532 0
M  V30 1537 C 154.82 -1.88972 -3.80118 0
M  V30 1538 C 152.727 -4.21083 -4.15263 0
M  V30 1539 H 151.657 -0.414696 -0.629717 0
M  V30 1540 H 154.308 -1.50988 -1.04283 0
M  V30 1541 H 152.69 -1.48853 -3.66959 0
M  V30 1542 H 153.864 -3.99561 -2.29537 0
M  V30 1543 H 152.179 -3.52921 -2.20988 0
M  V30 1544 H 154.776 -2.42805 -4.76392 0
M  V30 1545 H 155.119 -0.86113 -4.07296 0
M  V30 1546 H 155.652 -2.33189 -3.22285 0
M  V30 1547 H 152.391 -5.24425 -3.93267 0
M  V30 1548 H 151.911 -3.71695 -4.70747 0
M  V30 1549 H 153.59 -4.29706 -4.83696 0
M  V30 1550 N 153.722 1.14298 -1.08507 0
M  V30 1551 C 154.968 1.85633 -0.816581 0
M  V30 1552 C 155.301 1.82784 0.656021 0
M  V30 1553 O 154.576 1.25926 1.48233 0
M  V30 1554 C 154.859 3.34223 -1.34041 0
M  V30 1555 C 154.712 3.45639 -2.87843 0
M  V30 1556 C 156.031 4.29356 -0.9665 0
M  V30 1557 H 153.15 0.67402 -0.298104 0
M  V30 1558 H 155.792 1.34214 -1.34487 0
M  V30 1559 H 153.942 3.78144 -0.89104 0
M  V30 1560 H 155.614 3.10498 -3.41158 0
M  V30 1561 H 153.857 2.86817 -3.25451 0
M  V30 1562 H 154.528 4.50089 -3.19569 0
M  V30 1563 H 157.004 3.93457 -1.35391 0
M  V30 1564 H 155.88 5.3178 -1.3602 0
M  V30 1565 H 156.141 4.41919 0.126362 0
M  V30 1566 N 155.201 0.870884 1.31352 0
M  V30 1567 C 156.478 0.402907 1.91405 0
M  V30 1568 C 156.858 -1.11512 1.79244 0
M  V30 1569 O 156.206 -1.94411 1.2007 0
M  V30 1570 C 156.416 0.885301 3.37585 0
M  V30 1571 C 157.764 0.911971 4.14691 0
M  V30 1572 O 158.788 0.831016 3.46371 0
M  V30 1573 O 157.647 1.02927 5.3672 0
M  V30 1574 H 154.741 0.120698 0.818145 0
M  V30 1575 H 157.287 0.958857 1.40014 0
M  V30 1576 H 156.059 1.92889 3.40455 0
M  V30 1577 H 155.682 0.307714 3.96407 0
M  V30 1578 N 156.679 -1.44442 0.630414 0
M  V30 1579 C 157.925 -2.02351 0.134816 0
M  V30 1580 C 158.258 -1.4947 -1.23986 0
M  V30 1581 O 157.533 -0.678475 -1.82283 0
M  V30 1582 C 157.816 -3.59898 0.120707 0
M  V30 1583 C 157.669 -4.23063 1.52767 0
M  V30 1584 C 158.988 -4.36585 -0.555127 0
M  V30 1585 H 156.107 -0.73527 0.0504646 0
M  V30 1586 H 158.749 -1.72022 0.806751 0
M  V30 1587 H 156.899 -3.85868 -0.451477 0
M  V30 1588 H 158.571 -4.08202 2.14869 0
M  V30 1589 H 156.814 -3.80586 2.08175 0
M  V30 1590 H 157.485 -5.32071 1.46984 0
M  V30 1591 H 159.961 -4.16044 -0.0685429 0
M  V30 1592 H 158.837 -5.46294 -0.534185 0
M  V30 1593 H 159.098 -4.11138 -1.62535 0
M  V30 1594 N 158.157 -0.370918 -1.53173 0
M  V30 1595 C 159.404 0.217102 -2.01333 0
M  V30 1596 C 159.732 1.48338 -1.25802 0
M  V30 1597 O 158.987 1.92698 -0.34146 0
M  V30 1598 C 159.286 0.549696 -3.53147 0
M  V30 1599 C 158.952 -0.622872 -4.46577 0
M  V30 1600 C 157.614 -0.944595 -4.71838 0
M  V30 1601 C 159.966 -1.40819 -5.01816 0
M  V30 1602 C 157.294 -2.05351 -5.49589 0
M  V30 1603 C 159.646 -2.50757 -5.80778 0
M  V30 1604 C 158.31 -2.83458 -6.04324 0
M  V30 1605 H 157.58 0.0794431 -0.736729 0
M  V30 1606 H 160.227 -0.504481 -1.84736 0
M  V30 1607 H 158.532 1.35237 -3.6772 0
M  V30 1608 H 160.229 1.017 -3.87889 0
M  V30 1609 H 156.819 -0.36209 -4.27068 0
M  V30 1610 H 161.003 -1.17289 -4.82242 0
M  V30 1611 H 156.259 -2.3108 -5.6605 0
M  V30 1612 H 160.433 -3.12022 -6.22588 0
M  V30 1613 H 158.06 -3.69508 -6.64355 0
M  V30 1614 N 159.635 1.57281 -0.100228 0
M  V30 1615 C 161.051 1.57527 0.256416 0
M  V30 1616 C 161.251 1.11173 1.68056 0
M  V30 1617 O 160.307 0.79053 2.39806 0
M  V30 1618 C 161.62 3.00673 0.0401747 0
M  V30 1619 C 163.168 3.12815 0.107528 0
M  V30 1620 C 163.643 4.57929 -0.0807834 0
M  V30 1621 N 165.134 4.63193 -0.0261207 0
M  V30 1622 C 165.869 5.73212 -0.146999 0
M  V30 1623 N 165.365 6.92047 -0.322999 0
M  V30 1624 N 167.158 5.62031 -0.0879044 0
M  V30 1625 H 159.309 1.85718 -1.03065 0
M  V30 1626 H 161.572 0.857446 -0.404339 0
M  V30 1627 H 161.278 3.38804 -0.943649 0
M  V30 1628 H 161.152 3.69042 0.780262 0
M  V30 1629 H 163.539 2.74554 1.08186 0
M  V30 1630 H 163.62 2.47028 -0.664134 0
M  V30 1631 H 163.264 4.96886 -1.05201 0
M  V30 1632 H 163.194 5.21783 0.710635 0
M  V30 1633 H 165.685 3.77748 0.107161 0
M  V30 1634 H 165.998 7.7173 -0.406608 0
M  V30 1635 H 164.343 6.94074 -0.358733 0
M  V30 1636 H 167.534 4.68075 0.048498 0
M  V30 1637 H 167.707 6.47734 -0.185557 0
M  V30 1638 N 161.113 -0.173488 1.56642 0
M  V30 1639 C 162.36 -0.890465 1.81871 0
M  V30 1640 C 162.688 -1.82339 0.67696 0
M  V30 1641 O 161.943 -1.92795 -0.335926 0
M  V30 1642 C 162.242 -1.72069 3.13252 0
M  V30 1643 C 161.908 -0.936878 4.41059 0
M  V30 1644 C 160.57 -0.720545 4.75775 0
M  V30 1645 C 162.922 -0.386919 5.19762 0
M  V30 1646 C 160.25 0.0568829 5.86672 0
M  V30 1647 C 162.602 0.37741 6.31473 0
M  V30 1648 C 161.266 0.604563 6.64757 0
M  V30 1649 H 160.536 -0.325844 0.665512 0
M  V30 1650 H 163.183 -0.155527 1.90867 0
M  V30 1651 H 161.488 -2.52496 2.99588 0
M  V30 1652 H 163.185 -2.27844 3.29982 0
M  V30 1653 H 159.775 -1.11553 4.13828 0
M  V30 1654 H 163.959 -0.541398 4.93338 0
M  V30 1655 H 159.215 0.242635 6.10918 0
M  V30 1656 H 163.389 0.810825 6.91664 0
M  V30 1657 H 161.016 1.20885 7.50527 0
M  V30 1658 N 162.591 -1.51276 -0.441967 0
M  V30 1659 C 163.838 -1.63715 -1.19179 0
M  V30 1660 C 164.166 -0.351175 -1.91303 0
M  V30 1661 O 163.421 0.664524 -1.84072 0
M  V30 1662 C 163.72 -2.78746 -2.23686 0
M  V30 1663 C 163.386 -4.18189 -1.68607 0
M  V30 1664 C 162.048 -4.56125 -1.53308 0
M  V30 1665 C 164.4 -5.05222 -1.28062 0
M  V30 1666 C 161.728 -5.78804 -0.959317 0
M  V30 1667 C 164.08 -6.28476 -0.721162 0
M  V30 1668 C 162.744 -6.65188 -0.55504 0
M  V30 1669 H 162.014 -0.599076 -0.436106 0
M  V30 1670 H 164.661 -1.85296 -0.48351 0
M  V30 1671 H 162.966 -2.51369 -3.00535 0
M  V30 1672 H 164.663 -2.8557 -2.81515 0
M  V30 1673 H 161.253 -3.88277 -1.8149 0
M  V30 1674 H 165.437 -4.76524 -1.38704 0
M  V30 1675 H 160.693 -6.05899 -0.81833 0
M  V30 1676 H 164.867 -6.95259 -0.398458 0
M  V30 1677 H 162.494 -7.60123 -0.108311 0
M  V30 1678 N 164.069 0.697108 -1.41344 0
M  V30 1679 C 165.032 1.79281 -1.42797 0
M  V30 1680 C 166.032 1.57607 -0.318837 0
M  V30 1681 O 167.222 1.64309 -0.578642 0
M  V30 1682 C 164.354 3.17632 -1.23785 0
M  V30 1683 H 165.547 1.79385 -2.40335 0
M  V30 1684 H 163.1 0.904582 -1.27464 0
M  V30 1685 H 163.835 3.23167 -0.270814 0
M  V30 1686 H 163.62 3.34765 -2.04144 0
M  V30 1687 H 165.11 3.97617 -1.27633 0
M  V30 1688 N 165.547 1.27147 0.931209 0
M  V30 1689 C 166.795 1.13055 1.6752 0
M  V30 1690 C 167.116 -0.324791 1.92276 0
M  V30 1691 O 166.386 -1.22775 1.52654 0
M  V30 1692 H 164.966 0.415391 0.620854 0
M  V30 1693 H 167.628 1.59623 1.11833 0
M  V30 1694 H 166.724 1.65694 2.64485 0
M  V30 1695 N 167.025 -1.13721 1.09112 0
M  V30 1696 C 167.988 -2.17222 0.731241 0
M  V30 1697 C 168.988 -1.59035 -0.237566 0
M  V30 1698 O 170.178 -1.74192 -0.0161704 0
M  V30 1699 C 167.31 -3.40804 0.0808443 0
M  V30 1700 H 168.503 -2.50573 1.64783 0
M  V30 1701 H 166.056 -1.28493 0.889897 0
M  V30 1702 H 166.791 -3.1304 -0.847127 0
M  V30 1703 H 166.576 -3.84306 0.777896 0
M  V30 1704 H 168.066 -4.1731 -0.155657 0
M  V30 1705 N 168.503 -0.877838 -1.30888 0
M  V30 1706 C 169.466 -0.344265 -2.266 0
M  V30 1707 C 170.466 0.50922 -1.52524 0
M  V30 1708 O 171.656 0.317398 -1.71284 0
M  V30 1709 C 168.788 0.510198 -3.37061 0
M  V30 1710 H 169.981 -1.1893 -2.7531 0
M  V30 1711 H 167.534 -0.654088 -1.41956 0
M  V30 1712 H 168.269 1.37612 -2.93655 0
M  V30 1713 H 168.054 -0.101047 -3.9197 0
M  V30 1714 H 169.544 0.875537 -4.08319 0
M  V30 1715 N 169.982 1.44106 -0.638065 0
M  V30 1716 C 171.398 1.56672 -0.304286 0
M  V30 1717 C 171.598 1.6244 1.19228 0
M  V30 1718 O 170.654 1.57121 1.9766 0
M  V30 1719 C 171.967 2.83503 -1.00231 0
M  V30 1720 C 173.515 2.97226 -0.981116 0
M  V30 1721 C 173.99 4.26868 -1.65974 0
M  V30 1722 N 175.481 4.33698 -1.62666 0
M  V30 1723 C 176.216 5.32745 -2.12063 0
M  V30 1724 N 175.712 6.38157 -2.6968 0
M  V30 1725 N 177.505 5.24299 -2.02651 0
M  V30 1726 H 169.656 1.38605 -1.60942 0
M  V30 1727 H 171.919 0.664661 -0.675965 0
M  V30 1728 H 171.625 2.85251 -2.0573 0
M  V30 1729 H 171.499 3.73251 -0.54439 0
M  V30 1730 H 173.886 2.95027 0.0654188 0
M  V30 1731 H 173.967 2.08808 -1.47759 0
M  V30 1732 H 173.611 4.29826 -2.70576 0
M  V30 1733 H 173.541 5.14156 -1.13804 0
M  V30 1734 H 176.032 3.58138 -1.20606 0
M  V30 1735 H 176.345 7.10029 -3.05087 0
M  V30 1736 H 174.69 6.38823 -2.73734 0
M  V30 1737 H 177.881 4.4086 -1.57353 0
M  V30 1738 H 178.054 6.01334 -2.41457 0
M  V30 1739 N 171.46 0.379036 1.52974 0
M  V30 1740 C 172.7 -0.206325 2.03356 0
M  V30 1741 C 173.064 -1.44892 1.25977 0
M  V30 1742 O 174.265 -2.11078 1.66432 0
M  V30 1743 C 172.536 -0.477887 3.54191 0
M  V30 1744 S 174.095 -1.035 4.26419 0
M  V30 1745 H 170.913 -0.0590259 0.708546 0
M  V30 1746 H 173.515 0.525013 1.88319 0
M  V30 1747 H 172.219 0.433745 4.08101 0
M  V30 1748 H 171.75 -1.23793 3.73415 0
M  V30 1749 H 173.765 -2.31821 4.38718 0
M  V30 1750 N 172.938 -1.57226 0.108567 0
M  V30 1751 C 173.868 -2.17778 -0.84232 0
M  V30 1752 C 174.849 -1.11487 -1.2847 0
M  V30 1753 O 176.034 -1.39681 -1.34918 0
M  V30 1754 C 173.164 -2.76888 -2.09644 0
M  V30 1755 C 172.118 -3.88669 -1.79221 0
M  V30 1756 C 171.444 -4.34541 -3.11574 0
M  V30 1757 C 172.744 -5.11251 -1.06864 0
M  V30 1758 H 174.438 -2.97489 -0.337774 0
M  V30 1759 H 171.984 -1.43097 -0.161025 0
M  V30 1760 H 173.937 -3.17904 -2.76614 0
M  V30 1761 H 172.661 -1.94451 -2.62405 0
M  V30 1762 H 171.32 -3.48213 -1.14644 0
M  V30 1763 H 170.968 -3.48977 -3.62249 0
M  V30 1764 H 170.668 -5.09914 -2.91996 0
M  V30 1765 H 172.192 -4.782 -3.7968 0
M  V30 1766 H 173.606 -5.49352 -1.63968 0
M  V30 1767 H 172.003 -5.9214 -0.974178 0
M  V30 1768 H 173.073 -4.8487 -0.0536168 0
M  V30 1769 N 174.416 0.165178 -1.56732 0
M  V30 1770 C 175.364 1.22369 -1.97809 0
M  V30 1771 C 176.358 1.45488 -0.867741 0
M  V30 1772 O 177.564 1.45995 -1.05288 0
M  V30 1773 H 173.939 0.411486 -0.629431 0
M  V30 1774 H 175.91 0.850425 -2.86025 0
M  V30 1775 C 174.659 2.55403 -2.35934 0
M  V30 1776 H 173.982 2.38438 -3.20916 0
M  V30 1777 H 175.422 3.2814 -2.68514 0
M  V30 1778 C 173.881 3.14611 -1.20506 0
M  V30 1779 O 174.411 3.98626 -0.496016 0
M  V30 1780 N 172.617 2.7379 -0.97403 0
M  V30 1781 H 172.164 2.0557 -1.55238 0
M  V30 1782 H 172.122 3.1374 -0.203573 0
M  V30 1783 N 175.894 1.51508 0.433938 0
M  V30 1784 C 177.142 1.6402 1.18075 0
M  V30 1785 C 177.463 0.360328 1.91642 0
M  V30 1786 O 176.733 -0.623945 1.85698 0
M  V30 1787 H 175.313 0.6045 0.43885 0
M  V30 1788 H 177.975 1.88452 0.497178 0
M  V30 1789 H 177.071 2.46949 1.90847 0
M  V30 1790 N 177.372 -0.689602 1.41712 0
M  V30 1791 C 178.302 -1.81577 1.46806 0
M  V30 1792 C 179.283 -1.66945 0.326105 0
M  V30 1793 O 180.468 -1.86588 0.538377 0
M  V30 1794 C 177.598 -3.19762 1.35535 0
M  V30 1795 C 176.552 -3.49107 2.47605 0
M  V30 1796 C 175.878 -4.86711 2.21397 0
M  V30 1797 C 177.178 -3.47483 3.89939 0
M  V30 1798 H 178.872 -1.7757 2.41058 0
M  V30 1799 H 176.418 -0.852887 1.16025 0
M  V30 1800 H 178.371 -3.98263 1.3771 0
M  V30 1801 H 177.095 -3.24409 0.377708 0
M  V30 1802 H 175.754 -2.72959 2.44722 0
M  V30 1803 H 175.402 -4.8799 1.21961 0
M  V30 1804 H 175.102 -5.0731 2.96497 0
M  V30 1805 H 176.626 -5.67515 2.25297 0
M  V30 1806 H 178.04 -4.1598 3.94505 0
M  V30 1807 H 176.437 -3.79615 4.64771 0
M  V30 1808 H 177.507 -2.46341 4.17665 0
M  V30 1809 N 178.85 -1.27639 -0.924453 0
M  V30 1810 C 179.813 -1.10681 -2.00705 0
M  V30 1811 C 180.813 -0.0497823 -1.60723 0
M  V30 1812 O 182.003 -0.294654 -1.7169 0
M  V30 1813 C 179.135 -0.687164 -3.33902 0
M  V30 1814 H 180.328 -2.06817 -2.17179 0
M  V30 1815 H 177.881 -1.10473 -1.10569 0
M  V30 1816 H 178.616 0.275439 -3.23128 0
M  V30 1817 H 178.401 -1.45061 -3.6428 0
M  V30 1818 H 179.891 -0.590853 -4.13399 0
M  V30 1819 N 180.328 1.1314 -1.09713 0
M  V30 1820 C 181.291 2.16831 -0.742751 0
M  V30 1821 C 182.291 1.59159 0.229129 0
M  V30 1822 O 183.481 1.74199 0.00693237 0
M  V30 1823 C 180.613 3.40756 -0.0989168 0
M  V30 1824 H 181.806 2.49695 -1.66109 0
M  V30 1825 H 179.359 1.2802 -0.896699 0
M  V30 1826 H 180.094 3.13485 0.830514 0
M  V30 1827 H 179.879 3.83888 -0.798265 0
M  V30 1828 H 181.369 4.17386 0.133524 0
M  V30 1829 N 181.806 0.884767 1.30421 0
M  V30 1830 C 183.054 0.502112 1.95763 0
M  V30 1831 C 183.375 -0.951815 1.70192 0
M  V30 1832 O 182.645 -1.6692 1.0254 0
M  V30 1833 H 181.225 0.182694 0.724315 0
M  V30 1834 H 183.887 1.1278 1.58955 0
M  V30 1835 H 182.983 0.672188 3.04775 0
M  V30 1836 N 183.284 -1.43765 0.645699 0
M  V30 1837 C 184.194 -2.34544 -0.0512957 0
M  V30 1838 C 185.21 -1.53455 -0.82022 0
M  V30 1839 O 186.386 -1.86133 -0.769176 0
M  V30 1840 C 183.451 -3.31636 -1.01087 0
M  V30 1841 C 182.512 -4.2863 -0.239712 0
M  V30 1842 C 181.745 -5.21084 -1.15358 0
M  V30 1843 O 181.968 -5.1779 -2.39269 0
M  V30 1844 O 180.902 -5.98593 -0.630038 0
M  V30 1845 H 184.728 -2.95624 0.695718 0
M  V30 1846 H 182.313 -1.43781 0.405882 0
M  V30 1847 H 184.195 -3.9136 -1.56254 0
M  V30 1848 H 182.87 -2.73069 -1.73824 0
M  V30 1849 H 181.777 -3.72408 0.355356 0
M  V30 1850 H 183.11 -4.90157 0.447936 0
M  V30 1851 N 184.763 -0.387143 -1.52771 0
M  V30 1852 C 185.993 0.195585 -2.05672 0
M  V30 1853 C 186.401 1.41241 -1.25887 0
M  V30 1854 O 185.744 1.81265 -0.298081 0
M  V30 1855 C 185.806 0.632327 -3.53895 0
M  V30 1856 C 185.47 -0.470739 -4.54569 0
M  V30 1857 C 186.467 -1.32746 -5.02667 0
M  V30 1858 C 184.152 -0.637151 -4.98243 0
M  V30 1859 C 186.146 -2.33574 -5.93061 0
M  V30 1860 C 183.833 -1.64877 -5.88438 0
M  V30 1861 C 184.831 -2.49649 -6.35739 0
M  V30 1862 O 184.519 -3.49082 -7.24153 0
M  V30 1863 H 184.251 0.033658 -0.675162 0
M  V30 1864 H 186.805 -0.550221 -1.97893 0
M  V30 1865 H 185.035 1.43008 -3.59285 0
M  V30 1866 H 186.724 1.14048 -3.89548 0
M  V30 1867 H 187.49 -1.21019 -4.69659 0
M  V30 1868 H 183.369 0.0129567 -4.60998 0
M  V30 1869 H 186.913 -2.99777 -6.29904 0
M  V30 1870 H 182.81 -1.76643 -6.2086 0
M  V30 1871 H 183.578 -3.45065 -7.42208 0
M  V30 1872 N 186.241 1.57166 -0.116904 0
M  V30 1873 C 187.171 2.18222 0.830759 0
M  V30 1874 C 188.152 1.12167 1.27877 0
M  V30 1875 O 189.337 1.40394 1.34176 0
M  V30 1876 C 186.467 2.77996 2.08172 0
M  V30 1877 C 185.421 3.89614 1.77157 0
M  V30 1878 C 184.747 4.36187 3.09265 0
M  V30 1879 C 186.047 5.1181 1.04151 0
M  V30 1880 H 187.741 2.97664 0.321992 0
M  V30 1881 H 185.287 1.4318 0.153434 0
M  V30 1882 H 187.24 3.19366 2.74924 0
M  V30 1883 H 185.964 1.9584 2.6137 0
M  V30 1884 H 184.623 3.48816 1.12796 0
M  V30 1885 H 184.271 3.50893 3.60393 0
M  V30 1886 H 183.971 5.11455 2.89288 0
M  V30 1887 H 185.495 4.80207 3.77139 0
M  V30 1888 H 186.909 5.50214 1.61052 0
M  V30 1889 H 185.306 5.92648 0.942762 0
M  V30 1890 H 186.376 4.84892 0.0279022 0
M  V30 1891 N 187.719 -0.156864 1.56817 0
M  V30 1892 C 188.629 -1.2136 2.00771 0
M  V30 1893 C 189.645 -1.47598 0.921459 0
M  V30 1894 O 190.821 -1.59462 1.2302 0
M  V30 1895 C 187.886 -2.52943 2.37109 0
M  V30 1896 C 186.947 -2.34439 3.59634 0
M  V30 1897 C 186.18 -3.59748 3.94229 0
M  V30 1898 O 186.403 -4.65526 3.29609 0
M  V30 1899 O 185.337 -3.52998 4.8752 0
M  V30 1900 H 189.163 -0.870468 2.90958 0
M  V30 1901 H 186.748 -0.36484 1.44877 0
M  V30 1902 H 188.63 -3.30538 2.61386 0
M  V30 1903 H 187.305 -2.86806 1.5008 0
M  V30 1904 H 186.212 -1.54828 3.40557 0
M  V30 1905 H 187.545 -2.05496 4.4725 0
M  V30 1906 N 189.197 -1.51736 -0.425897 0
M  V30 1907 C 190.445 -1.64644 -1.17204 0
M  V30 1908 C 190.766 -0.370486 -1.91448 0
M  V30 1909 O 190.036 0.614088 -1.86026 0
M  V30 1910 H 188.616 -0.606819 -0.435638 0
M  V30 1911 H 191.278 -1.88713 -0.487177 0
M  V30 1912 H 190.374 -2.47958 -1.89534 0
M  V30 1913 N 190.675 0.682077 -1.42076 0
M  V30 1914 C 191.625 1.78823 -1.41444 0
M  V30 1915 C 192.609 1.58323 -0.28681 0
M  V30 1916 O 193.801 1.68926 -0.528498 0
M  V30 1917 C 190.93 3.17232 -1.3122 0
M  V30 1918 C 190.016 3.4338 -2.489 0
M  V30 1919 N 190.407 3.40152 -3.7434 0
M  V30 1920 C 188.705 3.73986 -2.43003 0
M  V30 1921 C 189.406 3.65581 -4.52466 0
M  V30 1922 N 188.382 3.85989 -3.8277 0
M  V30 1923 H 192.184 1.7471 -2.36334 0
M  V30 1924 H 189.698 0.882622 -1.36321 0
M  V30 1925 H 191.695 3.96489 -1.2885 0
M  V30 1926 H 190.355 3.22547 -0.373263 0
M  V30 1927 H 191.366 3.20221 -4.07037 0
M  V30 1928 H 188.043 3.86591 -1.57651 0
M  V30 1929 H 189.433 3.69108 -5.61435 0
M  V30 1930 N 192.153 1.28127 0.917671 0
M  V30 1931 C 193.381 1.17892 1.70026 0
M  V30 1932 C 193.796 -0.262958 1.8696 0
M  V30 1933 O 193.153 -1.17811 1.3938 0
M  V30 1934 C 193.204 1.86872 3.09453 0
M  V30 1935 O 192.925 3.25428 2.93306 0
M  V30 1936 C 194.426 1.8289 4.03815 0
M  V30 1937 H 191.646 0.40942 0.531617 0
M  V30 1938 H 194.19 1.69181 1.14883 0
M  V30 1939 H 192.345 1.39464 3.61426 0
M  V30 1940 H 192.759 3.59918 3.81523 0
M  V30 1941 H 194.233 2.35751 4.99125 0
M  V30 1942 H 194.71 0.800412 4.31845 0
M  V30 1943 H 195.316 2.29959 3.57769 0
M  V30 1944 N 193.631 -1.12557 1.10312 0
M  V30 1945 C 194.856 -1.88405 0.867085 0
M  V30 1946 C 195.281 -1.79038 -0.576817 0
M  V30 1947 O 194.639 -1.14439 -1.40618 0
M  V30 1948 C 194.687 -3.3563 1.31851 0
M  V30 1949 O 193.791 -4.09565 0.482734 0
M  V30 1950 H 193.132 -0.585455 0.313271 0
M  V30 1951 H 195.662 -1.42352 1.4696 0
M  V30 1952 H 195.672 -3.86469 1.3079 0
M  V30 1953 H 194.347 -3.41765 2.37001 0
M  V30 1954 H 192.924 -3.68695 0.558448 0
M  V30 1955 N 195.109 -0.891671 -1.2995 0
M  V30 1956 C 196.042 -0.307994 -2.26112 0
M  V30 1957 C 197.02 0.575262 -1.52084 0
M  V30 1958 O 198.204 0.523864 -1.81074 0
M  V30 1959 C 195.331 0.561734 -3.34009 0
M  V30 1960 C 194.377 -0.253107 -4.25748 0
M  V30 1961 S 195.21 -1.64572 -5.09584 0
M  V30 1962 C 196.366 -0.782699 -6.20987 0
M  V30 1963 H 196.599 -1.12309 -2.75271 0
M  V30 1964 H 194.132 -0.691509 -1.38049 0
M  V30 1965 H 196.09 1.05777 -3.96638 0
M  V30 1966 H 194.751 1.35099 -2.83561 0
M  V30 1967 H 193.944 0.410908 -5.02322 0
M  V30 1968 H 193.546 -0.682004 -3.67729 0
M  V30 1969 H 195.838 -0.00257476 -6.775 0
M  V30 1970 H 196.781 -1.52026 -6.91588 0
M  V30 1971 H 197.189 -0.340638 -5.63471 0
M  V30 1972 N 196.587 1.43421 -0.653314 0
M  V30 1973 C 197.836 2.01032 -0.164076 0
M  V30 1974 C 198.149 1.52147 1.22926 0
M  V30 1975 O 199.355 2.02031 1.81371 0
M  V30 1976 C 197.811 3.59082 -0.24252 0
M  V30 1977 C 197.419 4.1696 -1.63855 0
M  V30 1978 C 199.163 4.24079 0.18911 0
M  V30 1979 C 197.07 5.67304 -1.67092 0
M  V30 1980 H 196 0.751798 -0.0575769 0
M  V30 1981 H 198.651 1.6439 -0.815362 0
M  V30 1982 H 197.033 3.93125 0.476276 0
M  V30 1983 H 198.207 3.94416 -2.38271 0
M  V30 1984 H 196.522 3.64335 -2.01616 0
M  V30 1985 H 199.119 5.34381 0.184775 0
M  V30 1986 H 199.462 3.98005 1.22056 0
M  V30 1987 H 199.995 3.94918 -0.477938 0
M  V30 1988 H 196.734 5.98145 -2.68146 0
M  V30 1989 H 196.254 5.91904 -0.970014 0
M  V30 1990 H 197.933 6.31344 -1.4147 0
M  V30 1991 N 198.065 0.39524 1.52563 0
M  V30 1992 C 199.481 0.0454682 1.59535 0
M  V30 1993 C 199.681 -1.44056 1.4089 0
M  V30 1994 O 198.737 -2.20579 1.22888 0
M  V30 1995 C 200.05 0.527963 2.96029 0
M  V30 1996 C 201.598 0.484733 3.09224 0
M  V30 1997 C 202.073 0.943512 4.48176 0
M  V30 1998 N 203.564 0.899765 4.54377 0
M  V30 1999 C 204.299 1.22609 5.60138 0
M  V30 2000 N 203.795 1.62319 6.73516 0
M  V30 2001 N 205.588 1.14696 5.50274 0
M  V30 2002 H 197.739 1.36261 1.62931 0
M  V30 2003 H 200.002 0.558887 0.765735 0
M  V30 2004 H 199.708 1.56607 3.14908 0
M  V30 2005 H 199.582 -0.0698056 3.77135 0
M  V30 2006 H 201.969 -0.544298 2.90037 0
M  V30 2007 H 202.05 1.11838 2.30056 0
M  V30 2008 H 201.694 1.9708 4.68104 0
M  V30 2009 H 201.624 0.286817 5.25818 0
M  V30 2010 H 204.115 0.607632 3.72983 0
M  V30 2011 H 204.428 1.85567 7.5019 0
M  V30 2012 H 202.773 1.66211 6.74833 0
M  V30 2013 H 205.964 0.835701 4.6058 0
M  V30 2014 H 206.137 1.40459 6.32594 0
M  V30 2015 N 199.544 -1.57102 0.125237 0
M  V30 2016 C 200.96 -1.57915 -0.231322 0
M  V30 2017 C 201.16 -1.13833 -1.66266 0
M  V30 2018 O 200.216 -0.828581 -2.38518 0
M  V30 2019 C 201.529 -3.00699 0.00766489 0
M  V30 2020 C 203.077 -3.12947 -0.0577483 0
M  V30 2021 C 203.552 -4.57742 0.153626 0
M  V30 2022 N 205.043 -4.63092 0.0998073 0
M  V30 2023 C 205.778 -5.72905 0.238174 0
M  V30 2024 N 205.274 -6.91445 0.433057 0
M  V30 2025 N 207.067 -5.6182 0.177308 0
M  V30 2026 H 199.218 -1.84055 1.06007 0
M  V30 2027 H 201.481 -0.850905 0.417929 0
M  V30 2028 H 201.187 -3.3726 0.997431 0
M  V30 2029 H 201.061 -3.70236 -0.721452 0
M  V30 2030 H 203.448 -2.7624 -1.03804 0
M  V30 2031 H 203.529 -2.4594 0.70335 0
M  V30 2032 H 203.173 -4.95149 1.13092 0
M  V30 2033 H 203.103 -5.22848 -0.627534 0
M  V30 2034 H 205.594 -3.77871 -0.047051 0
M  V30 2035 H 205.907 -7.70985 0.529332 0
M  V30 2036 H 204.252 -6.93415 0.469109 0
M  V30 2037 H 207.443 -4.68093 0.0259748 0
M  V30 2038 H 207.616 -6.47357 0.288582 0
M  V30 2039 N 201.022 0.148545 -1.56898 0
M  V30 2040 C 202.299 0.890019 -1.74178 0
M  V30 2041 C 202.679 1.99407 -0.692839 0
M  V30 2042 O 202.027 2.26671 0.288505 0
M  V30 2043 C 202.237 1.43389 -3.18183 0
M  V30 2044 C 203.585 1.89791 -3.79822 0
M  V30 2045 O 204.609 1.53134 -3.21603 0
M  V30 2046 O 203.468 2.57387 -4.82093 0
M  V30 2047 H 200.562 0.420496 -0.712118 0
M  V30 2048 H 203.108 0.134591 -1.69165 0
M  V30 2049 H 201.88 0.640383 -3.86024 0
M  V30 2050 H 201.503 2.25287 -3.27615 0
M  V30 2051 N 202.5 1.5196 0.417844 0
M  V30 2052 C 203.911 1.57851 0.997 0
M  V30 2053 C 204.262 0.413714 1.91789 0
M  V30 2054 O 203.387 -0.467057 2.113 0
M  V30 2055 C 203.982 2.86085 1.81496 0
M  V30 2056 C 202.541 2.94483 2.34428 0
M  V30 2057 C 201.688 2.52707 1.14169 0
M  V30 2058 H 204.639 1.57455 0.198392 0
M  V30 2059 H 204.66 2.70947 2.67148 0
M  V30 2060 H 204.172 3.70842 1.14446 0
M  V30 2061 H 202.273 2.142 3.04875 0
M  V30 2062 H 202.386 3.98546 2.65891 0
M  V30 2063 H 200.75 2.06353 1.49301 0
M  V30 2064 H 201.533 3.39828 0.486999 0
M  V30 2065 N 203.978 -0.674533 1.42435 0
M  V30 2066 C 204.908 -1.80009 1.48724 0
M  V30 2067 C 205.889 -1.6659 0.343793 0
M  V30 2068 O 207.074 -1.86007 0.558137 0
M  V30 2069 C 204.204 -3.18306 1.38919 0
M  V30 2070 C 203.158 -3.46461 2.51294 0
M  V30 2071 C 202.484 -4.84335 2.26547 0
M  V30 2072 C 203.784 -3.43328 3.93603 0
M  V30 2073 H 205.478 -1.75004 2.42928 0
M  V30 2074 H 203.024 -0.840533 1.16923 0
M  V30 2075 H 204.977 -3.9678 1.41927 0
M  V30 2076 H 203.701 -3.2399 0.412094 0
M  V30 2077 H 202.36 -2.70348 2.47604 0
M  V30 2078 H 202.008 -4.86669 1.2713 0
M  V30 2079 H 201.708 -5.04136 3.01861 0
M  V30 2080 H 203.232 -5.65094 2.31304 0
M  V30 2081 H 204.646 -4.11772 3.98894 0
M  V30 2082 H 203.043 -3.74664 4.68771 0
M  V30 2083 H 204.113 -2.41897 4.20255 0
M  V30 2084 N 205.456 -1.28612 -0.910864 0
M  V30 2085 C 206.704 -1.15705 -1.65701 0
M  V30 2086 C 207.025 0.29416 -1.92769 0
M  V30 2087 O 206.295 1.20331 -1.54588 0
M  V30 2088 H 204.875 -0.425216 -0.614167 0
M  V30 2089 H 207.537 -1.61381 -1.0928 0
M  V30 2090 H 206.633 -1.6988 -2.61815 0
M  V30 2091 N 206.934 1.1197 -1.10907 0
M  V30 2092 C 208.18 1.8386 -0.855773 0
M  V30 2093 C 208.513 1.84134 0.617103 0
M  V30 2094 O 207.788 1.29041 1.45529 0
M  V30 2095 C 208.071 3.31305 -1.411 0
M  V30 2096 C 207.924 3.39456 -2.9511 0
M  V30 2097 C 209.243 4.2721 -1.05736 0
M  V30 2098 H 206.362 0.667545 -0.312334 0
M  V30 2099 H 209.004 1.31331 -1.37303 0
M  V30 2100 H 207.154 3.76169 -0.97105 0
M  V30 2101 H 208.826 3.03191 -3.47668 0
M  V30 2102 H 207.069 2.79849 -3.31462 0
M  V30 2103 H 207.74 4.43209 -3.29044 0
M  V30 2104 H 210.216 3.90497 -1.43706 0
M  V30 2105 H 209.092 5.28775 -1.47269 0
M  V30 2106 H 209.353 4.42088 0.0325958 0
M  V30 2107 N 208.412 0.89855 1.29475 0
M  V30 2108 C 209.658 0.524658 1.95896 0
M  V30 2109 C 209.991 -0.926468 1.70676 0
M  V30 2110 O 209.266 -1.65665 1.01908 0
M  V30 2111 C 209.549 0.81633 3.50725 0
M  V30 2112 C 209.402 2.31907 3.85408 0
M  V30 2113 C 210.721 0.302038 4.39062 0
M  V30 2114 H 207.84 0.19209 0.711527 0
M  V30 2115 H 210.482 1.12502 1.53112 0
M  V30 2116 H 208.632 0.305369 3.87298 0
M  V30 2117 H 210.304 2.89949 3.58786 0
M  V30 2118 H 208.547 2.78027 3.32992 0
M  V30 2119 H 209.218 2.47373 4.93468 0
M  V30 2120 H 211.694 0.739551 4.09475 0
M  V30 2121 H 210.57 0.535331 5.46283 0
M  V30 2122 H 210.831 -0.797216 4.34853 0
M  V30 2123 N 209.89 -1.43072 0.660911 0
M  V30 2124 C 210.853 -2.29194 -0.0166406 0
M  V30 2125 C 211.853 -1.42609 -0.742912 0
M  V30 2126 O 213.043 -1.64155 -0.583004 0
M  V30 2127 C 210.175 -3.24831 -1.0343 0
M  V30 2128 H 211.368 -2.90596 0.741208 0
M  V30 2129 H 208.921 -1.5048 0.422532 0
M  V30 2130 H 209.656 -2.68339 -1.82111 0
M  V30 2131 H 209.441 -3.88676 -0.517082 0
M  V30 2132 H 210.931 -3.89451 -1.50723 0
M  V30 2133 N 211.368 -0.403325 -1.52352 0
M  V30 2134 C 212.593 0.176499 -2.06648 0
M  V30 2135 C 213.018 1.38577 -1.27193 0
M  V30 2136 O 212.376 1.7879 -0.300637 0
M  V30 2137 C 212.424 0.511061 -3.5696 0
M  V30 2138 O 211.528 1.60294 -3.79973 0
M  V30 2139 H 210.869 0.0167337 -0.663789 0
M  V30 2140 H 213.399 -0.574848 -1.96359 0
M  V30 2141 H 213.409 0.771362 -4.00642 0
M  V30 2142 H 212.084 -0.37296 -4.14224 0
M  V30 2143 H 210.661 1.33526 -3.48174 0
M  V30 2144 N 212.846 1.57033 -0.133567 0
M  V30 2145 C 214.095 1.94861 0.520768 0
M  V30 2146 C 214.408 1.02012 1.66892 0
M  V30 2147 O 215.614 1.29365 2.38699 0
M  V30 2148 C 214.07 3.46362 0.977809 0
M  V30 2149 C 213.678 4.47773 -0.142674 0
M  V30 2150 C 215.422 3.93083 1.60269 0
M  V30 2151 C 213.329 5.90468 0.331883 0
M  V30 2152 H 212.259 0.727453 0.198315 0
M  V30 2153 H 214.91 1.82227 -0.215759 0
M  V30 2154 H 213.292 3.54282 1.7692 0
M  V30 2155 H 214.466 4.51536 -0.919317 0
M  V30 2156 H 212.781 4.10891 -0.675124 0
M  V30 2157 H 215.378 4.97121 1.96914 0
M  V30 2158 H 215.721 3.33876 2.48662 0
M  V30 2159 H 216.254 3.88025 0.876453 0
M  V30 2160 H 212.993 6.53463 -0.516341 0
M  V30 2161 H 212.513 5.90094 1.07469 0
M  V30 2162 H 214.192 6.42179 0.788332 0
M  V30 2163 N 214.325 -0.140222 1.56975 0
M  V30 2164 C 215.288 -1.15689 1.97861 0
M  V30 2165 C 216.288 -1.3549 0.865974 0
M  V30 2166 O 217.478 -1.32367 1.13246 0
M  V30 2167 C 214.61 -2.51582 2.30042 0
M  V30 2168 H 215.803 -0.805971 2.88867 0
M  V30 2169 H 213.356 -0.383801 1.51515 0
M  V30 2170 H 214.091 -2.91632 1.41849 0
M  V30 2171 H 213.876 -2.38569 3.11171 0
M  V30 2172 H 215.366 -3.24792 2.62488 0
M  V30 2173 N 215.803 -1.52179 -0.40978 0
M  V30 2174 C 217.214 -1.58377 -0.988615 0
M  V30 2175 C 217.565 -0.423879 -1.91566 0
M  V30 2176 O 216.69 0.455844 -2.11544 0
M  V30 2177 C 217.285 -2.87044 -1.79976 0
M  V30 2178 C 215.844 -2.95722 -2.32863 0
M  V30 2179 C 214.991 -2.53309 -1.12828 0
M  V30 2180 H 217.942 -1.57558 -0.190039 0
M  V30 2181 H 217.963 -2.7236 -2.65707 0
M  V30 2182 H 217.475 -3.71444 -1.12478 0
M  V30 2183 H 215.576 -2.15814 -3.03735 0
M  V30 2184 H 215.689 -3.99951 -2.63773 0
M  V30 2185 H 214.053 -2.07142 -1.48204 0
M  V30 2186 H 214.836 -3.40082 -0.46897 0
M  V30 2187 N 217.281 0.66697 -1.42791 0
M  V30 2188 C 218.527 1.42754 -1.44889 0
M  V30 2189 C 218.882 1.92283 -0.0669755 0
M  V30 2190 O 218.175 1.68494 0.912154 0
M  V30 2191 C 218.369 2.6349 -2.4147 0
M  V30 2192 C 218.198 2.25776 -3.88915 0
M  V30 2193 C 216.968 2.1476 -4.57391 0
M  V30 2194 C 219.166 1.86927 -4.79127 0
M  V30 2195 N 217.148 1.70232 -5.89826 0
M  V30 2196 C 218.519 1.53378 -6.00729 0
M  V30 2197 C 220.574 1.73989 -4.66511 0
M  V30 2198 C 219.277 1.08187 -7.11117 0
M  V30 2199 C 221.303 1.30203 -5.76889 0
M  V30 2200 C 220.665 0.975818 -6.97608 0
M  V30 2201 H 216.764 0.518559 -0.585338 0
M  V30 2202 H 219.348 0.768906 -1.78874 0
M  V30 2203 H 217.519 3.27033 -2.09533 0
M  V30 2204 H 219.251 3.30123 -2.34096 0
M  V30 2205 H 216.006 2.3408 -4.11708 0
M  V30 2206 H 216.43 1.50369 -6.6009 0
M  V30 2207 H 221.072 1.97853 -3.7365 0
M  V30 2208 H 218.79 0.830701 -8.03819 0
M  V30 2209 H 222.376 1.20701 -5.69142 0
M  V30 2210 H 221.256 0.642157 -7.81566 0
M  V30 2211 N 218.759 1.29093 0.90403 0
M  V30 2212 C 219.707 1.13727 2.02901 0
M  V30 2213 C 220.701 0.0539853 1.69314 0
M  V30 2214 O 221.907 0.213469 1.7873 0
M  V30 2215 H 218.282 0.35117 0.664969 0
M  V30 2216 H 220.253 2.08982 2.13001 0
M  V30 2217 C 219.002 0.826066 3.37745 0
M  V30 2218 H 218.325 1.65164 3.64089 0
M  V30 2219 H 219.765 0.758559 4.17159 0
M  V30 2220 C 218.224 -0.470541 3.33598 0
M  V30 2221 O 218.754 -1.49792 3.72727 0
M  V30 2222 N 216.96 -0.474812 2.86695 0
M  V30 2223 H 216.507 0.361692 2.55048 0
M  V30 2224 H 216.465 -1.34236 2.84303 0
M  V30 2225 N 220.237 -1.11381 1.11499 0
M  V30 2226 C 221.467 -1.86663 0.885464 0
M  V30 2227 C 221.875 -1.80464 -0.568281 0
M  V30 2228 O 221.218 -1.18445 -1.40415 0
M  V30 2229 C 221.28 -3.36337 1.26956 0
M  V30 2230 C 220.944 -3.66304 2.73259 0
M  V30 2231 C 221.941 -3.63733 3.71476 0
M  V30 2232 C 219.626 -3.9529 3.09921 0
M  V30 2233 C 221.62 -3.89725 5.04374 0
M  V30 2234 C 219.307 -4.20941 4.43004 0
M  V30 2235 C 220.305 -4.18147 5.40039 0
M  V30 2236 O 219.993 -4.43153 6.70724 0
M  V30 2237 H 219.725 -0.597114 0.316908 0
M  V30 2238 H 222.279 -1.41782 1.48617 0
M  V30 2239 H 220.509 -3.81826 0.611999 0
M  V30 2240 H 222.198 -3.92986 1.01573 0
M  V30 2241 H 222.964 -3.41389 3.44498 0
M  V30 2242 H 218.843 -3.966 2.35009 0
M  V30 2243 H 222.387 -3.8746 5.80104 0
M  V30 2244 H 218.284 -4.42761 4.69716 0
M  V30 2245 H 219.052 -4.60717 6.76522 0
M  V30 2246 N 221.715 -0.905404 -1.28997 0
M  V30 2247 C 223.126 -0.581953 -1.77398 0
M  V30 2248 C 223.477 0.902552 -1.74208 0
M  V30 2249 O 222.602 1.70584 -1.33154 0
M  V30 2250 C 223.197 -1.04961 -3.22131 0
M  V30 2251 C 221.756 -0.777229 -3.68288 0
M  V30 2252 C 220.903 -1.22109 -2.48967 0
M  V30 2253 H 223.854 -1.08754 -1.15578 0
M  V30 2254 H 223.875 -0.387387 -3.78523 0
M  V30 2255 H 223.387 -2.13008 -3.24421 0
M  V30 2256 H 221.488 0.290383 -3.71467 0
M  V30 2257 H 221.601 -1.37911 -4.58822 0
M  V30 2258 H 219.965 -0.639971 -2.46529 0
M  V30 2259 H 220.748 -2.30972 -2.53982 0
M  V30 2260 N 223.193 1.4272 -0.668489 0
M  V30 2261 C 224.123 2.335 -0.000100175 0
M  V30 2262 C 225.104 1.50328 0.795964 0
M  V30 2263 O 226.289 1.78949 0.754385 0
M  V30 2264 C 223.419 3.33874 0.956302 0
M  V30 2265 C 222.373 4.27152 0.269278 0
M  V30 2266 C 221.699 5.17684 1.33818 0
M  V30 2267 C 222.999 5.15373 -0.847805 0
M  V30 2268 H 224.693 2.89639 -0.758244 0
M  V30 2269 H 222.239 1.39269 -0.366079 0
M  V30 2270 H 224.192 3.9629 1.43292 0
M  V30 2271 H 222.916 2.76025 1.74579 0
M  V30 2272 H 221.575 3.66123 -0.187042 0
M  V30 2273 H 221.223 4.56165 2.1195 0
M  V30 2274 H 220.923 5.80918 0.883659 0
M  V30 2275 H 222.447 5.82974 1.81586 0
M  V30 2276 H 223.861 5.7151 -0.452681 0
M  V30 2277 H 222.258 5.87407 -1.22773 0
M  V30 2278 H 223.328 4.5415 -1.69929 0
M  V30 2279 N 224.671 0.411399 1.52136 0
M  V30 2280 C 225.604 -0.457614 2.23565 0
M  V30 2281 C 226.582 -1.04613 1.24478 0
M  V30 2282 O 227.766 -1.09356 1.53536 0
M  V30 2283 C 224.893 -1.6354 2.96602 0
M  V30 2284 C 223.939 -1.17005 4.10137 0
M  V30 2285 S 224.772 -0.13333 5.35334 0
M  V30 2286 C 225.928 -1.31638 6.119 0
M  V30 2287 H 226.161 0.148883 2.96927 0
M  V30 2288 H 223.694 0.195713 1.53155 0
M  V30 2289 H 225.652 -2.31074 3.39286 0
M  V30 2290 H 224.313 -2.21324 2.22878 0
M  V30 2291 H 223.506 -2.05005 4.60422 0
M  V30 2292 H 223.108 -0.573319 3.6958 0
M  V30 2293 H 225.4 -2.23957 6.39413 0
M  V30 2294 H 226.343 -0.854014 7.02931 0
M  V30 2295 H 226.751 -1.54321 5.42997 0
M  V30 2296 N 226.149 -1.5696 0.141893 0
M  V30 2297 C 227.082 -2.12271 -0.837627 0
M  V30 2298 C 228.06 -1.04495 -1.24578 0
M  V30 2299 O 229.244 -1.32293 -1.34278 0
M  V30 2300 C 226.371 -2.63822 -2.12404 0
M  V30 2301 C 225.417 -3.83698 -1.86221 0
M  V30 2302 S 226.25 -5.24948 -1.05781 0
M  V30 2303 C 227.406 -5.79884 -2.35552 0
M  V30 2304 H 227.639 -2.95023 -0.367249 0
M  V30 2305 H 225.172 -1.54231 -0.0723014 0
M  V30 2306 H 227.13 -2.94175 -2.86307 0
M  V30 2307 H 225.791 -1.8121 -2.56557 0
M  V30 2308 H 224.984 -4.17995 -2.81596 0
M  V30 2309 H 224.586 -3.5408 -1.20429 0
M  V30 2310 H 226.878 -5.91005 -3.31239 0
M  V30 2311 H 227.821 -6.77544 -2.05767 0
M  V30 2312 H 228.229 -5.08095 -2.45967 0
M  V30 2313 N 227.627 0.131896 -1.57047 0
M  V30 2314 C 228.59 1.14638 -1.98471 0
M  V30 2315 C 229.59 1.35029 -0.873148 0
M  V30 2316 O 230.78 1.31764 -1.13946 0
M  V30 2317 C 227.912 2.50358 -2.31373 0
M  V30 2318 H 229.105 0.79064 -2.8929 0
M  V30 2319 H 226.658 0.375761 -1.51716 0
M  V30 2320 H 227.393 2.90876 -1.43393 0
M  V30 2321 H 227.178 2.36915 -3.12432 0
M  V30 2322 H 228.668 3.23395 -2.64207 0
M  V30 2323 N 229.106 1.52395 0.401703 0
M  V30 2324 C 230.069 1.75636 1.47257 0
M  V30 2325 C 231.069 0.62628 1.48103 0
M  V30 2326 O 232.259 0.894227 1.49497 0
M  V30 2327 C 229.391 1.84553 2.86624 0
M  V30 2328 H 230.584 2.71241 1.27938 0
M  V30 2329 H 228.137 1.42923 0.632662 0
M  V30 2330 H 228.872 0.908882 3.11303 0
M  V30 2331 H 228.657 2.66715 2.87412 0
M  V30 2332 H 230.147 2.04251 3.64241 0
M  V30 2333 N 230.584 -0.659388 1.43143 0
M  V30 2334 C 231.83 -1.41984 1.45644 0
M  V30 2335 C 232.185 -1.92245 0.0771718 0
M  V30 2336 O 231.478 -1.68976 -0.903205 0
M  V30 2337 C 231.672 -2.62206 2.42864 0
M  V30 2338 C 231.501 -2.23711 3.90107 0
M  V30 2339 C 230.271 -2.12332 4.58523 0
M  V30 2340 C 232.469 -1.84384 4.80112 0
M  V30 2341 N 230.451 -1.67102 5.9072 0
M  V30 2342 C 231.822 -1.5019 6.01534 0
M  V30 2343 C 233.877 -1.71512 4.67427 0
M  V30 2344 C 232.58 -1.04414 7.11681 0
M  V30 2345 C 234.606 -1.27142 5.77572 0
M  V30 2346 C 233.968 -0.938808 6.98116 0
M  V30 2347 H 230.067 -0.515448 0.588079 0
M  V30 2348 H 232.651 -0.759409 1.79279 0
M  V30 2349 H 230.822 -3.25917 2.11265 0
M  V30 2350 H 232.554 -3.28877 2.35843 0
M  V30 2351 H 229.309 -2.31893 4.12944 0
M  V30 2352 H 229.733 -1.46866 6.60878 0
M  V30 2353 H 234.375 -1.95868 3.74694 0
M  V30 2354 H 232.093 -0.788061 8.04248 0
M  V30 2355 H 235.679 -1.17681 5.69774 0
M  V30 2356 H 234.559 -0.6007 7.81896 0
M  V30 2357 N 232.062 -1.29571 -0.897171 0
M  V30 2358 C 233.009 -1.14916 -2.00158 0
M  V30 2359 C 233.979 -0.0418149 -1.66047 0
M  V30 2360 O 235.164 -0.209793 -1.89643 0
M  V30 2361 C 232.304 -0.834307 -3.34863 0
M  V30 2362 C 231.417 -2.02234 -3.8174 0
M  V30 2363 C 230.552 -1.64664 -5.05034 0
M  V30 2364 C 229.591 -2.80033 -5.44286 0
M  V30 2365 N 228.728 -2.42843 -6.58765 0
M  V30 2366 H 233.568 -2.09403 -2.12025 0
M  V30 2367 H 231.105 -1.042 -1.0383 0
M  V30 2368 H 233.063 -0.632436 -4.12379 0
M  V30 2369 H 231.693 0.0736656 -3.22716 0
M  V30 2370 H 230.745 -2.33583 -3.00238 0
M  V30 2371 H 232.057 -2.88673 -4.06779 0
M  V30 2372 H 231.211 -1.4078 -5.9014 0
M  V30 2373 H 229.95 -0.753766 -4.8184 0
M  V30 2374 H 228.955 -3.04596 -4.57713 0
M  V30 2375 H 230.18 -3.69989 -5.6946 0
M  V30 2376 H 228.126 -1.56046 -6.3717 0
M  V30 2377 H 228.043 -3.22815 -6.83613 0
M  V30 2378 H 229.311 -2.22285 -7.47134 0
M  V30 2379 N 233.54 1.10788 -1.12088 0
M  V30 2380 C 234.47 2.19083 -0.807755 0
M  V30 2381 C 235.451 1.6858 0.226859 0
M  V30 2382 O 236.636 1.93997 0.0888475 0
M  V30 2383 C 233.766 3.46344 -0.257576 0
M  V30 2384 C 232.72 4.101 -1.22483 0
M  V30 2385 C 232.046 5.32016 -0.535052 0
M  V30 2386 C 233.346 4.54236 -2.57811 0
M  V30 2387 H 235.04 2.45534 -1.71328 0
M  V30 2388 H 232.586 1.1801 -0.825205 0
M  V30 2389 H 234.539 4.21392 -0.0262679 0
M  V30 2390 H 233.263 3.19373 0.683278 0
M  V30 2391 H 231.922 3.37054 -1.44189 0
M  V30 2392 H 231.57 5.01319 0.410827 0
M  V30 2393 H 231.27 5.75625 -1.18024 0
M  V30 2394 H 232.794 6.09799 -0.312695 0
M  V30 2395 H 234.208 5.20575 -2.40155 0
M  V30 2396 H 232.605 5.08682 -3.18375 0
M  V30 2397 H 233.675 3.6734 -3.16528 0
M  V30 2398 N 235.018 0.912232 1.28515 0
M  V30 2399 C 235.981 0.404223 2.25607 0
M  V30 2400 C 236.981 -0.468602 1.53821 0
M  V30 2401 O 238.171 -0.271873 1.72065 0
M  V30 2402 C 235.303 -0.420653 3.38295 0
M  V30 2403 H 236.496 1.26188 2.7206 0
M  V30 2404 H 234.049 0.691495 1.40171 0
M  V30 2405 H 234.784 -1.29777 2.97201 0
M  V30 2406 H 234.569 0.204935 3.91564 0
M  V30 2407 H 236.059 -0.766971 4.10496 0
M  V30 2408 N 236.496 -1.42363 0.676048 0
M  V30 2409 C 237.907 -1.84649 0.275948 0
M  V30 2410 C 238.258 -1.56588 -1.18214 0
M  V30 2411 O 237.383 -1.02634 -1.90513 0
M  V30 2412 C 237.978 -3.35178 0.494053 0
M  V30 2413 C 236.537 -3.76109 0.148061 0
M  V30 2414 C 235.684 -2.65931 0.785891 0
M  V30 2415 H 238.635 -1.32192 0.878121 0
M  V30 2416 H 238.656 -3.79655 -0.25343 0
M  V30 2417 H 238.168 -3.55571 1.55535 0
M  V30 2418 H 236.269 -3.61323 -0.909742 0
M  V30 2419 H 236.382 -4.7546 0.589454 0
M  V30 2420 H 234.746 -2.53773 0.217113 0
M  V30 2421 H 235.529 -2.89146 1.85067 0
M  V30 2422 N 237.974 -0.419461 -1.51915 0
M  V30 2423 C 238.937 0.389116 -2.25873 0
M  V30 2424 C 239.937 0.964924 -1.28631 0
M  V30 2425 O 241.127 0.842179 -1.52489 0
M  V30 2426 C 238.259 1.54874 -3.03689 0
M  V30 2427 H 239.452 -0.258799 -2.98781 0
M  V30 2428 H 237.005 -0.172209 -1.55348 0
M  V30 2429 H 237.74 2.23323 -2.35154 0
M  V30 2430 H 237.525 1.14223 -3.75094 0
M  V30 2431 H 239.015 2.12046 -3.59759 0
M  V30 2432 N 239.452 1.56882 -0.150215 0
M  V30 2433 C 240.382 2.19935 0.784284 0
M  V30 2434 C 241.363 1.14854 1.25469 0
M  V30 2435 O 242.548 1.43209 1.31168 0
M  V30 2436 C 239.678 2.82349 2.02229 0
M  V30 2437 C 238.632 3.93285 1.68853 0
M  V30 2438 C 237.958 4.42649 2.99944 0
M  V30 2439 C 239.258 5.13904 0.932714 0
M  V30 2440 H 240.952 2.9828 0.258781 0
M  V30 2441 H 238.498 1.43473 0.123029 0
M  V30 2442 H 240.451 3.25126 2.68088 0
M  V30 2443 H 239.175 2.0134 2.57157 0
M  V30 2444 H 237.834 3.5113 1.05371 0
M  V30 2445 H 237.482 3.58458 3.52869 0
M  V30 2446 H 237.182 5.17476 2.78374 0
M  V30 2447 H 238.706 4.88099 3.66868 0
M  V30 2448 H 240.12 5.53506 1.49345 0
M  V30 2449 H 238.517 5.94515 0.81684 0
M  V30 2450 H 239.587 4.84842 -0.0749568 0
M  V30 2451 N 240.93 -0.123565 1.57115 0
M  V30 2452 C 241.893 -1.13583 1.99076 0
M  V30 2453 C 242.893 -1.34564 0.880296 0
M  V30 2454 O 244.083 -1.31158 1.14644 0
M  V30 2455 C 241.215 -2.49128 2.32698 0
M  V30 2456 H 242.408 -0.775287 2.89706 0
M  V30 2457 H 239.961 -0.36771 1.51913 0
M  V30 2458 H 240.696 -2.90111 1.44934 0
M  V30 2459 H 240.481 -2.35255 3.13684 0
M  V30 2460 H 241.971 -3.2199 2.65918 0
M  V30 2461 N 242.408 -1.52605 -0.393616 0
M  V30 2462 C 243.371 -1.76415 -1.46323 0
M  V30 2463 C 244.371 -0.634126 -1.47768 0
M  V30 2464 O 245.561 -0.902142 -1.4902 0
M  V30 2465 C 242.693 -1.8607 -2.85641 0
M  V30 2466 H 243.886 -2.71916 -1.26498 0
M  V30 2467 H 241.439 -1.43257 -0.625073 0
M  V30 2468 H 242.174 -0.925378 -3.10817 0
M  V30 2469 H 241.959 -2.68235 -2.85993 0
M  V30 2470 H 243.449 -2.06179 -3.63153 0
M  V30 2471 N 243.887 0.651787 -1.4349 0
M  V30 2472 C 245.135 1.40888 -1.44897 0
M  V30 2473 C 245.456 1.94856 -0.0749086 0
M  V30 2474 O 244.726 1.74518 0.889956 0
M  V30 2475 H 243.306 0.522887 -0.533478 0
M  V30 2476 H 245.968 0.768609 -1.79104 0
M  V30 2477 H 245.064 2.25052 -2.16236 0
M  V30 2478 N 245.365 1.30045 0.890287 0
M  V30 2479 C 246.313 1.15873 2.01683 0
M  V30 2480 C 247.307 0.0719403 1.69247 0
M  V30 2481 O 248.513 0.232414 1.78493 0
M  V30 2482 H 244.888 0.358203 0.661207 0
M  V30 2483 H 246.859 2.11229 2.10772 0
M  V30 2484 C 245.608 0.861842 3.36849 0
M  V30 2485 H 244.931 1.69016 3.62317 0
M  V30 2486 H 246.371 0.802762 4.16331 0
M  V30 2487 C 244.83 -0.435132 3.34078 0
M  V30 2488 O 245.36 -1.4583 3.74295 0
M  V30 2489 N 243.566 -0.444377 2.87182 0
M  V30 2490 H 243.113 0.388723 2.5465 0
M  V30 2491 H 243.071 -1.31213 2.85711 0
M  V30 2492 N 246.843 -1.10192 1.12674 0
M  V30 2493 C 248.083 -1.83825 0.893736 0
M  V30 2494 C 248.447 -1.83341 -0.570082 0
M  V30 2495 O 249.648 -2.52553 -0.920354 0
M  V30 2496 C 247.919 -3.26405 1.45582 0
M  V30 2497 S 249.478 -4.17136 1.36171 0
M  V30 2498 H 246.296 -0.633732 0.322342 0
M  V30 2499 H 248.898 -1.32581 1.43675 0
M  V30 2500 H 247.602 -3.24329 2.51473 0
M  V30 2501 H 247.133 -3.82721 0.910405 0
M  V30 2502 H 249.148 -4.95069 0.334863 0
M  V30 2503 N 248.321 -0.919034 -1.28029 0
M  V30 2504 C 249.567 -0.555757 -1.95036 0
M  V30 2505 C 249.9 0.899198 -1.72128 0
M  V30 2506 O 249.175 1.64023 -1.04531 0
M  V30 2507 C 249.458 -0.872024 -3.49382 0
M  V30 2508 C 249.311 -2.3801 -3.81669 0
M  V30 2509 C 250.63 -0.37185 -4.38526 0
M  V30 2510 H 247.749 -0.203386 -0.708381 0
M  V30 2511 H 250.391 -1.14924 -1.51303 0
M  V30 2512 H 248.541 -0.366946 -3.86763 0
M  V30 2513 H 250.213 -2.9562 -3.54128 0
M  V30 2514 H 248.456 -2.83289 -3.28526 0
M  V30 2515 H 249.127 -2.55192 -4.8947 0
M  V30 2516 H 251.603 -0.804602 -4.08247 0
M  V30 2517 H 250.479 -0.622173 -5.45362 0
M  V30 2518 H 250.74 0.727934 -4.36066 0
M  V30 2519 N 249.799 1.42003 -0.683588 0
M  V30 2520 C 251.045 2.01712 -0.209825 0
M  V30 2521 C 251.378 1.53968 1.18353 0
M  V30 2522 O 250.653 0.745661 1.79639 0
M  V30 2523 C 250.936 3.59202 -0.254197 0
M  V30 2524 C 250.789 4.17102 -1.68363 0
M  V30 2525 C 252.108 4.38344 0.392709 0
M  V30 2526 H 249.227 0.732891 -0.0777189 0
M  V30 2527 H 251.869 1.68909 -0.87004 0
M  V30 2528 H 250.019 3.87278 0.307954 0
M  V30 2529 H 251.691 3.99946 -2.29871 0
M  V30 2530 H 249.934 3.72597 -2.22157 0
M  V30 2531 H 250.605 5.26249 -1.6663 0
M  V30 2532 H 253.081 4.16011 -0.0859162 0
M  V30 2533 H 251.957 5.47901 0.331063 0
M  V30 2534 H 252.218 4.16887 1.47164 0
M  V30 2535 N 251.277 0.427512 1.51691 0
M  V30 2536 C 252.207 -0.3796 2.30394 0
M  V30 2537 C 253.188 -1.02982 1.35384 0
M  V30 2538 O 254.373 -1.03534 1.643 0
M  V30 2539 C 251.503 -1.48649 3.1388 0
M  V30 2540 C 250.457 -0.960294 4.17088 0
M  V30 2541 C 249.783 -2.16219 4.89033 0
M  V30 2542 C 251.083 -0.00153679 5.223 0
M  V30 2543 H 252.777 0.277164 2.98114 0
M  V30 2544 H 250.323 0.134739 1.43368 0
M  V30 2545 H 252.276 -2.05826 3.67714 0
M  V30 2546 H 251 -2.1714 2.43962 0
M  V30 2547 H 249.659 -0.410806 3.64291 0
M  V30 2548 H 249.307 -2.83307 4.15628 0
M  V30 2549 H 249.007 -1.81654 5.58816 0
M  V30 2550 H 250.531 -2.73968 5.45687 0
M  V30 2551 H 251.945 -0.482687 5.71264 0
M  V30 2552 H 250.342 0.256199 5.99553 0
M  V30 2553 H 251.412 0.938174 4.75738 0
M  V30 2554 N 252.755 -1.56801 0.158532 0
M  V30 2555 C 253.702 -2.17337 -0.776729 0
M  V30 2556 C 254.672 -1.1096 -1.23601 0
M  V30 2557 O 255.857 -1.39054 -1.30647 0
M  V30 2558 C 252.997 -2.80822 -2.00582 0
M  V30 2559 C 252.11 -4.01624 -1.59129 0
M  V30 2560 C 251.245 -4.53072 -2.77306 0
M  V30 2561 C 250.284 -5.66314 -2.32282 0
M  V30 2562 N 249.421 -6.12329 -3.43508 0
M  V30 2563 H 254.261 -2.96918 -0.253701 0
M  V30 2564 H 251.798 -1.46661 -0.113504 0
M  V30 2565 H 253.756 -3.15779 -2.72652 0
M  V30 2566 H 252.386 -2.03866 -2.50277 0
M  V30 2567 H 251.438 -3.72571 -0.767806 0
M  V30 2568 H 252.75 -4.83633 -1.2207 0
M  V30 2569 H 251.904 -4.90145 -3.57551 0
M  V30 2570 H 250.643 -3.70095 -3.17617 0
M  V30 2571 H 249.648 -5.28806 -1.5048 0
M  V30 2572 H 250.873 -6.51085 -1.93043 0
M  V30 2573 H 248.819 -5.32284 -3.83418 0
M  V30 2574 H 248.736 -6.89293 -3.105 0
M  V30 2575 H 250.004 -6.5405 -4.24075 0
M  V30 2576 N 254.233 0.115231 -1.57178 0
M  V30 2577 C 255.644 0.67197 -1.74188 0
M  V30 2578 C 255.995 1.80125 -0.777777 0
M  V30 2579 O 255.12 2.16346 0.0484376 0
M  V30 2580 C 255.715 1.22573 -3.1585 0
M  V30 2581 C 254.274 1.72872 -3.34353 0
M  V30 2582 C 253.421 0.629972 -2.70049 0
M  V30 2583 H 256.372 -0.110712 -1.58313 0
M  V30 2584 H 256.393 2.09535 -3.17609 0
M  V30 2585 H 255.905 0.403598 -3.85996 0
M  V30 2586 H 254.006 2.5755 -2.69256 0
M  V30 2587 H 254.119 1.83557 -4.42542 0
M  V30 2588 H 252.483 1.0645 -2.31388 0
M  V30 2589 H 253.266 -0.181241 -3.42821 0
M  V30 2590 N 255.711 1.52812 0.385517 0
M  V30 2591 C 256.936 1.72207 1.15583 0
M  V30 2592 C 257.361 0.441034 1.82857 0
M  V30 2593 O 256.719 -0.603465 1.70962 0
M  V30 2594 C 256.767 2.87476 2.17692 0
M  V30 2595 O 255.871 2.54693 3.24354 0
M  V30 2596 H 255.212 0.572526 0.336319 0
M  V30 2597 H 257.742 1.99618 0.448744 0
M  V30 2598 H 257.752 3.13072 2.6163 0
M  V30 2599 H 256.427 3.80408 1.68115 0
M  V30 2600 H 255.004 2.3985 2.85529 0
M  V30 2601 N 257.189 -0.644168 1.43834 0
M  V30 2602 C 258.099 -1.78563 1.52159 0
M  V30 2603 C 259.115 -1.69147 0.408069 0
M  V30 2604 O 260.291 -1.90156 0.663524 0
M  V30 2605 C 257.356 -3.14888 1.45073 0
M  V30 2606 C 256.417 -3.36034 2.6717 0
M  V30 2607 C 255.65 -4.65855 2.60413 0
M  V30 2608 O 255.873 -5.45805 1.65689 0
M  V30 2609 O 254.807 -4.88918 3.5106 0
M  V30 2610 H 258.633 -1.74494 2.48567 0
M  V30 2611 H 256.218 -0.80378 1.25935 0
M  V30 2612 H 258.1 -3.96179 1.43597 0
M  V30 2613 H 256.775 -3.19528 0.518037 0
M  V30 2614 H 255.682 -2.54472 2.74217 0
M  V30 2615 H 257.015 -3.36247 3.59442 0
M  V30 2616 N 258.668 -1.30515 -0.883378 0
M  V30 2617 C 259.917 -1.18795 -1.63005 0
M  V30 2618 C 260.23 0.255923 -1.93919 0
M  V30 2619 O 261.436 0.494654 -2.66956 0
M  V30 2620 C 259.892 -2.07878 -2.93794 0
M  V30 2621 C 259.5 -3.57184 -2.70414 0
M  V30 2622 C 261.244 -2.04924 -3.71761 0
M  V30 2623 C 259.151 -4.38317 -3.97029 0
M  V30 2624 H 258.081 -0.441031 -0.611562 0
M  V30 2625 H 260.732 -1.55275 -0.977854 0
M  V30 2626 H 259.114 -1.64283 -3.60315 0
M  V30 2627 H 260.288 -4.08937 -2.12384 0
M  V30 2628 H 258.603 -3.61976 -2.0582 0
M  V30 2629 H 261.2 -2.62792 -4.65665 0
M  V30 2630 H 261.543 -1.0331 -4.03277 0
M  V30 2631 H 262.076 -2.46649 -3.12104 0
M  V30 2632 H 258.815 -5.40632 -3.70671 0
M  V30 2633 H 258.335 -3.91326 -4.54559 0
M  V30 2634 H 260.014 -4.49834 -4.65036 0
M  V30 2635 N 260.146 1.09593 -1.13257 0
M  V30 2636 C 261.374 1.855 -0.916378 0
M  V30 2637 C 261.789 1.81069 0.534738 0
M  V30 2638 O 261.146 1.20562 1.37007 0
M  V30 2639 C 261.197 3.33546 -1.39388 0
M  V30 2640 O 260.918 3.37927 -2.78813 0
M  V30 2641 C 262.419 4.26299 -1.21588 0
M  V30 2642 H 259.639 0.585991 -0.326887 0
M  V30 2643 H 262.183 1.38488 -1.5047 0
M  V30 2644 H 260.338 3.77992 -0.848597 0
M  V30 2645 H 260.752 4.30254 -2.9997 0
M  V30 2646 H 262.226 5.28341 -1.59876 0
M  V30 2647 H 262.703 4.38918 -0.157376 0
M  V30 2648 H 263.309 3.87668 -1.7491 0
M  V30 2649 N 261.624 0.925811 1.2754 0
M  V30 2650 C 263.035 0.610102 1.7645 0
M  V30 2651 C 263.386 -0.874723 1.75622 0
M  V30 2652 O 262.511 -1.68444 1.35851 0
M  V30 2653 C 263.106 1.10073 3.20421 0
M  V30 2654 C 261.665 0.835723 3.67005 0
M  V30 2655 C 260.812 1.26054 2.46993 0
M  V30 2656 H 263.763 1.10579 1.13833 0
M  V30 2657 H 263.784 0.447557 3.77859 0
M  V30 2658 H 263.296 2.18143 3.20991 0
M  V30 2659 H 261.397 -0.231249 3.71882 0
M  V30 2660 H 261.51 1.45193 4.56569 0
M  V30 2661 H 259.874 0.679111 2.45479 0
M  V30 2662 H 260.657 2.34984 2.50275 0
M  V30 2663 N 263.102 -1.41638 0.69111 0
M  V30 2664 C 264.032 -2.3347 0.037248 0
M  V30 2665 C 265.013 -1.51575 -0.771947 0
M  V30 2666 O 266.198 -1.80126 -0.72582 0
M  V30 2667 C 263.328 -3.35354 -0.903064 0
M  V30 2668 C 262.282 -4.27526 -0.201288 0
M  V30 2669 C 261.608 -5.19747 -1.25565 0
M  V30 2670 C 262.908 -5.13959 0.929689 0
M  V30 2671 H 264.602 -2.88397 0.804227 0
M  V30 2672 H 262.148 -1.38669 0.388189 0
M  V30 2673 H 264.101 -3.98519 -1.36969 0
M  V30 2674 H 262.825 -2.78767 -1.70166 0
M  V30 2675 H 261.484 -3.65779 0.245265 0
M  V30 2676 H 261.132 -4.59479 -2.04666 0
M  V30 2677 H 260.832 -5.8225 -0.791128 0
M  V30 2678 H 262.356 -5.85789 -1.72288 0
M  V30 2679 H 263.77 -5.70718 0.543546 0
M  V30 2680 H 262.167 -5.85379 1.32103 0
M  V30 2681 H 263.237 -4.51389 1.77133 0
M  V30 2682 N 264.58 -0.43555 -1.51462 0
M  V30 2683 C 265.808 0.130242 -2.0649 0
M  V30 2684 C 266.223 1.36614 -1.30315 0
M  V30 2685 O 265.58 1.78869 -0.362223 0
M  V30 2686 C 265.631 0.454253 -3.58635 0
M  V30 2687 O 265.352 -0.73259 -4.31931 0
M  V30 2688 C 266.853 1.07091 -4.3017 0
M  V30 2689 H 264.073 0.00871669 -0.670943 0
M  V30 2690 H 266.617 -0.614117 -1.95061 0
M  V30 2691 H 264.772 1.14851 -3.69984 0
M  V30 2692 H 265.186 -0.455787 -5.22516 0
M  V30 2693 H 266.66 1.24764 -5.37716 0
M  V30 2694 H 267.137 2.05144 -3.88346 0
M  V30 2695 H 267.743 0.416089 -4.2326 0
M  V30 2696 N 266.058 1.56714 -0.166846 0
M  V30 2697 C 267.021 2.16539 0.751232 0
M  V30 2698 C 268.021 1.11228 1.16125 0
M  V30 2699 O 269.211 1.36765 1.07894 0
M  V30 2700 C 266.343 2.74462 2.02196 0
M  V30 2701 H 267.536 2.99013 0.230499 0
M  V30 2702 H 265.089 1.56081 0.0826982 0
M  V30 2703 H 265.824 1.95709 2.58589 0
M  V30 2704 H 265.609 3.51527 1.73698 0
M  V30 2705 H 267.099 3.20489 2.67725 0
M  V30 2706 N 267.536 -0.106894 1.57237 0
M  V30 2707 C 268.466 -1.13148 2.04254 0
M  V30 2708 C 269.447 -1.42476 0.929224 0
M  V30 2709 O 270.632 -1.52709 1.19973 0
M  V30 2710 C 267.762 -2.4545 2.45706 0
M  V30 2711 C 266.716 -2.30558 3.60592 0
M  V30 2712 C 266.042 -3.67931 3.87983 0
M  V30 2713 C 267.342 -1.75597 4.91897 0
M  V30 2714 H 269.036 -0.740374 2.90101 0
M  V30 2715 H 266.582 -0.354696 1.39563 0
M  V30 2716 H 268.535 -3.17389 2.77205 0
M  V30 2717 H 267.259 -2.86475 1.56843 0
M  V30 2718 H 265.918 -1.61067 3.29322 0
M  V30 2719 H 265.566 -4.06462 2.96306 0
M  V30 2720 H 265.266 -3.58817 4.65322 0
M  V30 2721 H 266.79 -4.41356 4.21945 0
M  V30 2722 H 268.204 -2.37364 5.21854 0
M  V30 2723 H 266.601 -1.77272 5.73319 0
M  V30 2724 H 267.671 -0.714451 4.79608 0
M  V30 2725 N 269.014 -1.53014 -0.377408 0
M  V30 2726 C 269.961 -1.78616 -1.46168 0
M  V30 2727 C 270.931 -0.629917 -1.53692 0
M  V30 2728 O 272.116 -0.870861 -1.69766 0
M  V30 2729 C 269.256 -1.97123 -2.8326 0
M  V30 2730 C 268.369 -3.24831 -2.84796 0
M  V30 2731 C 267.504 -3.33591 -4.13389 0
M  V30 2732 C 266.543 -4.55377 -4.09021 0
M  V30 2733 N 265.68 -4.61355 -5.29241 0
M  V30 2734 H 270.52 -2.71142 -1.23637 0
M  V30 2735 H 268.057 -1.34326 -0.599577 0
M  V30 2736 H 270.015 -2.05839 -3.62886 0
M  V30 2737 H 268.645 -1.07946 -3.04216 0
M  V30 2738 H 267.697 -3.25128 -1.97474 0
M  V30 2739 H 269.009 -4.14523 -2.77439 0
M  V30 2740 H 268.163 -3.41554 -5.01424 0
M  V30 2741 H 266.902 -2.41894 -4.23484 0
M  V30 2742 H 265.907 -4.47527 -3.19373 0
M  V30 2743 H 267.132 -5.48402 -4.00539 0
M  V30 2744 H 265.078 -3.72554 -5.39944 0
M  V30 2745 H 264.995 -5.44935 -5.24006 0
M  V30 2746 H 266.263 -4.73586 -6.19141 0
M  V30 2747 N 270.492 0.636531 -1.44174 0
M  V30 2748 C 271.422 1.76003 -1.53444 0
M  V30 2749 C 272.403 1.65619 -0.387841 0
M  V30 2750 O 273.588 1.84461 -0.607257 0
M  V30 2751 C 270.718 3.14511 -1.4731 0
M  V30 2752 C 269.672 3.39677 -2.60391 0
M  V30 2753 C 268.998 4.78159 -2.39308 0
M  V30 2754 C 270.298 3.32772 -4.02567 0
M  V30 2755 H 271.992 1.68501 -2.47483 0
M  V30 2756 H 269.538 0.809237 -1.19111 0
M  V30 2757 H 271.491 3.92878 -1.52397 0
M  V30 2758 H 270.215 3.22783 -0.49785 0
M  V30 2759 H 268.874 2.63688 -2.54684 0
M  V30 2760 H 268.522 4.83128 -1.39988 0
M  V30 2761 H 268.222 4.95956 -3.15122 0
M  V30 2762 H 269.746 5.58762 -2.46205 0
M  V30 2763 H 271.16 4.01051 -4.09672 0
M  V30 2764 H 269.557 3.62104 -4.7854 0
M  V30 2765 H 270.627 2.30669 -4.2652 0
M  V30 2766 N 271.97 1.30982 0.876444 0
M  V30 2767 C 272.933 1.18054 1.96459 0
M  V30 2768 C 273.933 0.109399 1.60427 0
M  V30 2769 O 275.123 0.358173 1.70478 0
M  V30 2770 C 272.255 0.810616 3.31122 0
M  V30 2771 H 273.448 2.14735 2.09354 0
M  V30 2772 H 271.001 1.145 1.06392 0
M  V30 2773 H 271.736 -0.155322 3.23928 0
M  V30 2774 H 271.521 1.58481 3.58645 0
M  V30 2775 H 273.011 0.743876 4.10921 0
M  V30 2776 N 273.449 -1.08991 1.13837 0
M  V30 2777 C 274.359 -2.19301 0.833333 0
M  V30 2778 C 275.375 -1.73026 -0.183847 0
M  V30 2779 O 276.551 -2.01395 -0.0138092 0
M  V30 2780 C 273.616 -3.45323 0.308651 0
M  V30 2781 C 272.677 -4.06255 1.38764 0
M  V30 2782 C 271.91 -5.26262 0.887896 0
M  V30 2783 O 272.133 -5.69747 -0.27287 0
M  V30 2784 O 271.067 -5.78435 1.66421 0
M  V30 2785 H 274.893 -2.47854 1.75506 0
M  V30 2786 H 272.478 -1.18012 0.916166 0
M  V30 2787 H 274.36 -4.21394 0.0216739 0
M  V30 2788 H 273.035 -3.18362 -0.585431 0
M  V30 2789 H 271.942 -3.318 1.72799 0
M  V30 2790 H 273.275 -4.37452 2.25602 0
M  V30 2791 N 274.927 -0.932562 -1.27047 0
M  V30 2792 C 275.857 -0.452902 -2.29066 0
M  V30 2793 C 276.838 0.489338 -1.62909 0
M  V30 2794 O 278.023 0.393046 -1.90181 0
M  V30 2795 C 275.153 0.290698 -3.46081 0
M  V30 2796 C 274.107 -0.564168 -4.24265 0
M  V30 2797 C 273.433 0.308886 -5.33807 0
M  V30 2798 C 274.733 -1.83112 -4.89149 0
M  V30 2799 H 276.427 -1.30552 -2.69437 0
M  V30 2800 H 273.973 -0.629201 -1.29526 0
M  V30 2801 H 275.926 0.637233 -4.16554 0
M  V30 2802 H 274.65 1.17738 -3.0464 0
M  V30 2803 H 273.309 -0.893477 -3.55545 0
M  V30 2804 H 272.957 1.19467 -4.88607 0
M  V30 2805 H 272.657 -0.259633 -5.87026 0
M  V30 2806 H 274.181 0.650884 -6.07121 0
M  V30 2807 H 275.595 -1.55236 -5.51883 0
M  V30 2808 H 273.992 -2.34353 -5.52448 0
M  V30 2809 H 275.062 -2.54772 -4.12576 0
M  V30 2810 N 276.405 1.4127 -0.698611 0
M  V30 2811 C 277.368 2.29158 -0.044132 0
M  V30 2812 C 278.368 1.44529 0.704841 0
M  V30 2813 O 279.558 1.65643 0.539276 0
M  V30 2814 C 276.69 3.27459 0.947809 0
M  V30 2815 H 277.883 2.88529 -0.817994 0
M  V30 2816 H 275.436 1.49307 -0.46228 0
M  V30 2817 H 276.171 2.73073 1.74933 0
M  V30 2818 H 275.956 3.8991 0.41385 0
M  V30 2819 H 277.446 3.93311 1.40344 0
M  V30 2820 N 277.883 0.443576 1.51229 0
M  V30 2821 C 278.83 -0.364716 2.279 0
M  V30 2822 C 279.8 -1.0114 1.31757 0
M  V30 2823 O 280.985 -1.02912 1.60667 0
M  V30 2824 C 278.125 -1.45644 3.12861 0
M  V30 2825 C 277.238 -0.827269 4.24005 0
M  V30 2826 C 276.373 -1.89456 4.96266 0
M  V30 2827 C 275.412 -1.24416 5.99322 0
M  V30 2828 N 274.549 -2.25309 6.64966 0
M  V30 2829 H 279.389 0.295464 2.96532 0
M  V30 2830 H 276.926 0.157554 1.46254 0
M  V30 2831 H 278.884 -2.10076 3.6045 0
M  V30 2832 H 277.514 -2.08616 2.46331 0
M  V30 2833 H 276.566 -0.0710839 3.80334 0
M  V30 2834 H 277.878 -0.312481 4.9782 0
M  V30 2835 H 277.032 -2.61535 5.47434 0
M  V30 2836 H 275.771 -2.4431 4.22095 0
M  V30 2837 H 274.776 -0.508868 5.4744 0
M  V30 2838 H 276.001 -0.702882 6.75453 0
M  V30 2839 H 273.947 -2.79231 5.93604 0
M  V30 2840 H 273.864 -1.78739 7.34567 0
M  V30 2841 H 275.132 -2.96853 7.20763 0
M  V30 2842 N 279.361 -1.56624 0.175154 0
M  V30 2843 C 280.638 -1.88688 -0.515373 0
M  V30 2844 C 281.018 -1.08564 -1.81044 0
M  V30 2845 O 280.366 -0.180703 -2.27784 0
M  V30 2846 C 280.576 -3.40768 -0.753552 0
M  V30 2847 C 281.924 -4.10587 -1.08184 0
M  V30 2848 O 282.948 -3.46106 -0.841961 0
M  V30 2849 O 281.807 -5.24512 -1.53459 0
M  V30 2850 H 278.901 -0.78301 -0.26613 0
M  V30 2851 H 281.447 -1.68347 0.213877 0
M  V30 2852 H 280.219 -3.90965 0.161829 0
M  V30 2853 H 279.842 -3.66733 -1.53598 0
M  V30 2854 N 280.839 0.0985539 -1.57292 0
M  V30 2855 C 282.088 0.801358 -1.85098 0
M  V30 2856 C 282.401 1.80066 -0.763902 0
M  V30 2857 O 283.607 2.55112 -0.928981 0
M  V30 2858 C 282.063 1.47599 -3.28242 0
M  V30 2859 C 281.671 0.516624 -4.45011 0
M  V30 2860 C 283.415 2.16272 -3.65276 0
M  V30 2861 C 281.322 1.19564 -5.79188 0
M  V30 2862 H 280.252 0.303022 -0.69043 0
M  V30 2863 H 282.903 0.0542623 -1.8342 0
M  V30 2864 H 281.285 2.27042 -3.2445 0
M  V30 2865 H 282.459 -0.246065 -4.60143 0
M  V30 2866 H 280.774 -0.064227 -4.1635 0
M  V30 2867 H 283.371 2.67802 -4.62803 0
M  V30 2868 H 283.714 2.95009 -2.93727 0
M  V30 2869 H 284.247 1.43693 -3.70941 0
M  V30 2870 H 280.986 0.449157 -6.53959 0
M  V30 2871 H 280.506 1.92984 -5.67906 0
M  V30 2872 H 282.185 1.7231 -6.23633 0
M  V30 2873 N 282.317 1.53212 0.369288 0
M  V30 2874 C 283.564 1.69215 1.11232 0
M  V30 2875 C 283.892 0.442048 1.8941 0
M  V30 2876 O 283.147 -0.575944 1.87033 0
M  V30 2877 C 283.446 2.89101 2.10132 0
M  V30 2878 C 283.112 4.25758 1.48463 0
M  V30 2879 C 281.774 4.6292 1.31372 0
M  V30 2880 C 284.126 5.10757 1.03811 0
M  V30 2881 C 281.454 5.82722 0.68207 0
M  V30 2882 C 283.806 6.31201 0.420487 0
M  V30 2883 C 282.47 6.67079 0.237038 0
M  V30 2884 H 281.74 0.619201 0.407027 0
M  V30 2885 H 284.387 1.87391 0.394552 0
M  V30 2886 H 282.692 2.65421 2.88199 0
M  V30 2887 H 284.389 2.98676 2.6757 0
M  V30 2888 H 280.979 3.96494 1.62758 0
M  V30 2889 H 285.163 4.82599 1.1581 0
M  V30 2890 H 280.419 6.09113 0.528316 0
M  V30 2891 H 284.593 6.96368 0.0662874 0
M  V30 2892 H 282.22 7.59774 -0.254477 0
M  V30 2893 N 283.795 -0.628877 1.44509 0
M  V30 2894 C 285.206 -1.21054 1.42137 0
M  V30 2895 C 285.557 -1.95715 0.137881 0
M  V30 2896 O 284.682 -2.02554 -0.761645 0
M  V30 2897 C 285.277 -2.20189 2.57493 0
M  V30 2898 C 283.836 -2.73777 2.58308 0
M  V30 2899 C 282.983 -1.48813 2.33987 0
M  V30 2900 H 285.934 -0.41942 1.53057 0
M  V30 2901 H 285.955 -3.02833 2.30375 0
M  V30 2902 H 285.467 -1.6582 3.50892 0
M  V30 2903 H 283.568 -3.32142 1.68856 0
M  V30 2904 H 283.681 -3.19662 3.56865 0
M  V30 2905 H 282.045 -1.77024 1.83124 0
M  V30 2906 H 282.828 -0.963442 3.29504 0
M  V30 2907 N 285.273 -1.31445 -0.869486 0
M  V30 2908 C 286.236 -1.19094 -1.9583 0
M  V30 2909 C 287.236 -0.117906 -1.60367 0
M  V30 2910 O 288.426 -0.367208 -1.70286 0
M  V30 2911 C 285.558 -0.828165 -3.30688 0
M  V30 2912 H 286.751 -2.15842 -2.08212 0
M  V30 2913 H 284.304 -1.15063 -1.05784 0
M  V30 2914 H 285.039 0.138142 -3.24006 0
M  V30 2915 H 284.824 -1.6038 -3.578 0
M  V30 2916 H 286.314 -0.765658 -4.10521 0
M  V30 2917 N 286.751 1.08385 -1.14413 0
M  V30 2918 C 287.999 1.80419 -0.910679 0
M  V30 2919 C 288.32 1.86658 0.564243 0
M  V30 2920 O 287.59 1.35985 1.41014 0
M  V30 2921 H 286.17 0.668204 -0.333934 0
M  V30 2922 H 288.832 1.31037 -1.44275 0
M  V30 2923 H 287.928 2.83238 -1.31082 0
M  V30 2924 N 288.23 0.939286 1.26551 0
M  V30 2925 C 289.476 0.586715 1.94128 0
M  V30 2926 C 289.809 -0.8717 1.73537 0
M  V30 2927 O 289.084 -1.62339 1.07127 0
M  V30 2928 C 289.367 0.927497 3.4795 0
M  V30 2929 C 289.22 2.44052 3.77834 0
M  V30 2930 C 290.539 0.441569 4.37879 0
M  V30 2931 H 287.658 0.21463 0.705055 0
M  V30 2932 H 290.3 1.17316 1.49455 0
M  V30 2933 H 288.45 0.428431 3.8613 0
M  V30 2934 H 290.122 3.01216 3.4938 0
M  V30 2935 H 288.365 2.8848 3.23978 0
M  V30 2936 H 289.036 2.62947 4.85348 0
M  V30 2937 H 291.512 0.869448 4.06915 0
M  V30 2938 H 290.388 0.708856 5.44304 0
M  V30 2939 H 290.649 -0.658467 4.37169 0
M  V30 2940 N 289.708 -1.40897 0.706093 0
M  V30 2941 C 290.957 -2.00284 0.238574 0
M  V30 2942 C 291.27 -1.56604 -1.17194 0
M  V30 2943 O 292.476 -2.08624 -1.73748 0
M  V30 2944 C 290.932 -3.57934 0.375623 0
M  V30 2945 C 290.54 -4.10591 1.79217 0
M  V30 2946 C 292.284 -4.24488 -0.0315857 0
M  V30 2947 C 290.191 -5.60712 1.88032 0
M  V30 2948 H 289.121 -0.749144 0.0854398 0
M  V30 2949 H 291.772 -1.61251 0.875813 0
M  V30 2950 H 290.154 -3.94622 -0.330042 0
M  V30 2951 H 291.328 -3.85301 2.52745 0
M  V30 2952 H 289.643 -3.56601 2.15 0
M  V30 2953 H 292.24 -5.34698 0.0136842 0
M  V30 2954 H 292.583 -4.02261 -1.072 0
M  V30 2955 H 293.116 -3.92873 0.624181 0
M  V30 2956 H 289.855 -5.87781 2.90161 0
M  V30 2957 H 289.375 -5.87896 1.18903 0
M  V30 2958 H 291.054 -6.25658 1.64805 0
M  V30 2959 N 291.186 -0.45159 -1.50991 0
M  V30 2960 C 292.134 0.366864 -2.29689 0
M  V30 2961 C 293.128 1.00809 -1.36139 0
M  V30 2962 O 294.334 0.941427 -1.53418 0
M  V30 2963 H 290.709 0.137133 -0.739391 0
M  V30 2964 H 292.68 -0.317538 -2.96706 0
M  V30 2965 C 291.429 1.44751 -3.16137 0
M  V30 2966 H 290.752 0.963473 -3.88017 0
M  V30 2967 H 292.192 1.99315 -3.74232 0
M  V30 2968 C 290.651 2.43869 -2.32442 0
M  V30 2969 O 291.181 3.4872 -1.99392 0
M  V30 2970 N 289.387 2.15105 -1.95392 0
M  V30 2971 H 288.934 1.29866 -2.22469 0
M  V30 2972 H 288.892 2.81661 -1.39693 0
M  V30 2973 N 292.664 1.56529 -0.183458 0
M  V30 2974 C 293.913 1.96419 0.458511 0
M  V30 2975 C 294.226 1.0727 1.63562 0
M  V30 2976 O 295.432 1.36893 2.34462 0
M  V30 2977 C 293.888 3.49298 0.867122 0
M  V30 2978 C 293.496 4.47092 -0.285057 0
M  V30 2979 C 295.24 3.97983 1.47683 0
M  V30 2980 C 293.147 5.91225 0.143862 0
M  V30 2981 H 292.077 0.733394 0.175071 0
M  V30 2982 H 294.728 1.81448 -0.273624 0
M  V30 2983 H 293.11 3.59731 1.65559 0
M  V30 2984 H 294.284 4.48383 -1.0625 0
M  V30 2985 H 292.599 4.08535 -0.805503 0
M  V30 2986 H 295.196 5.03134 1.80999 0
M  V30 2987 H 295.539 3.41618 2.37914 0
M  V30 2988 H 296.072 3.90617 0.752562 0
M  V30 2989 H 292.811 6.5149 -0.723974 0
M  V30 2990 H 292.331 5.93214 0.886413 0
M  V30 2991 H 294.01 6.44362 0.583628 0
M  V30 2992 N 294.142 -0.090211 1.57342 0
M  V30 2993 C 295.072 -1.10976 2.05443 0
M  V30 2994 C 296.053 -1.41482 0.944284 0
M  V30 2995 O 297.238 -1.51428 1.21586 0
M  V30 2996 C 294.368 -2.42831 2.48295 0
M  V30 2997 C 293.322 -2.26721 3.63018 0
M  V30 2998 C 292.648 -3.63796 3.91863 0
M  V30 2999 C 293.948 -1.7037 4.93732 0
M  V30 3000 H 295.642 -0.709564 2.9087 0
M  V30 3001 H 293.188 -0.339874 1.39932 0
M  V30 3002 H 295.141 -3.14431 2.80555 0
M  V30 3003 H 293.865 -2.84795 1.59873 0
M  V30 3004 H 292.524 -1.57565 3.31012 0
M  V30 3005 H 292.172 -4.03297 3.00601 0
M  V30 3006 H 291.872 -3.53861 4.69101 0
M  V30 3007 H 293.396 -4.36855 4.26603 0
M  V30 3008 H 294.81 -2.31816 5.24342 0
M  V30 3009 H 293.207 -1.71181 5.75167 0
M  V30 3010 H 294.277 -0.663542 4.80339 0
M  V30 3011 N 295.62 -1.53406 -0.361157 0
M  V30 3012 C 296.867 -1.69802 -1.10333 0
M  V30 3013 C 297.195 -0.452087 -1.89173 0
M  V30 3014 O 296.45 0.566017 -1.87336 0
M  V30 3015 C 296.749 -2.90211 -2.08596 0
M  V30 3016 C 296.415 -4.26539 -1.46203 0
M  V30 3017 C 295.077 -4.6361 -1.28915 0
M  V30 3018 C 297.429 -5.113 -1.01101 0
M  V30 3019 C 294.757 -5.83075 -0.651157 0
M  V30 3020 C 297.109 -6.31415 -0.387007 0
M  V30 3021 C 295.773 -6.67195 -0.201657 0
M  V30 3022 H 295.043 -0.621351 -0.403737 0
M  V30 3023 H 297.69 -1.87598 -0.384609 0
M  V30 3024 H 295.995 -2.66946 -2.86788 0
M  V30 3025 H 297.692 -3.00091 -2.65982 0
M  V30 3026 H 294.282 -3.97352 -1.60653 0
M  V30 3027 H 298.466 -4.83206 -1.13249 0
M  V30 3028 H 293.722 -6.09385 -0.496006 0
M  V30 3029 H 297.896 -6.96394 -0.0293563 0
M  V30 3030 H 295.523 -7.59628 0.294766 0
M  V30 3031 N 297.098 0.621204 -1.44841 0
M  V30 3032 C 298.346 1.37783 -1.47852 0
M  V30 3033 C 298.667 1.94653 -0.116224 0
M  V30 3034 O 297.937 1.76367 0.852737 0
M  V30 3035 H 296.517 0.511453 -0.544449 0
M  V30 3036 H 299.179 0.730446 -1.80694 0
M  V30 3037 H 298.275 2.20414 -2.20961 0
M  V30 3038 N 298.576 1.31904 0.862503 0
M  V30 3039 C 299.992 1.10724 1.14945 0
M  V30 3040 C 300.192 -0.117421 2.01158 0
M  V30 3041 O 299.248 -0.804595 2.39338 0
M  V30 3042 C 300.561 2.38267 1.83437 0
M  V30 3043 C 302.109 2.43949 1.96106 0
M  V30 3044 C 302.584 3.71394 2.68013 0
M  V30 3045 N 304.075 3.72331 2.75543 0
M  V30 3046 C 304.81 4.67641 3.31812 0
M  V30 3047 N 304.306 5.73313 3.88953 0
M  V30 3048 N 306.099 4.5515 3.29841 0
M  V30 3049 H 298.25 2.10436 0.288191 0
M  V30 3050 H 300.513 0.928705 0.190292 0
M  V30 3051 H 300.219 3.27759 1.27542 0
M  V30 3052 H 300.093 2.48633 2.83657 0
M  V30 3053 H 302.48 1.54922 2.51164 0
M  V30 3054 H 302.561 2.37543 0.949059 0
M  V30 3055 H 302.205 4.60791 2.13621 0
M  V30 3056 H 302.135 3.75069 3.69636 0
M  V30 3057 H 304.626 2.95947 2.34997 0
M  V30 3058 H 304.939 6.42107 4.30022 0
M  V30 3059 H 303.284 5.77077 3.87308 0
M  V30 3060 H 306.475 3.71766 2.84443 0
M  V30 3061 H 306.648 5.29604 3.73394 0
M  V30 3062 N 300.054 -1.07777 1.14986 0
M  V30 3063 C 301.302 -1.79934 0.920235 0
M  V30 3064 C 301.623 -1.86955 -0.554336 0
M  V30 3065 O 300.893 -1.36731 -1.40291 0
M  V30 3066 H 299.473 -0.666424 0.337473 0
M  V30 3067 H 302.135 -1.3027 1.44968 0
M  V30 3068 H 301.231 -2.82539 1.32583 0
M  V30 3069 N 301.532 -0.945985 -1.26051 0
M  V30 3070 C 302.479 -0.45809 -2.26208 0
M  V30 3071 C 303.449 0.484816 -1.58867 0
M  V30 3072 O 304.634 0.399969 -1.86561 0
M  V30 3073 C 301.774 0.266131 -3.44072 0
M  V30 3074 C 300.887 -0.713005 -4.26075 0
M  V30 3075 C 300.022 0.0329013 -5.3119 0
M  V30 3076 C 299.061 -0.93774 -6.04874 0
M  V30 3077 N 298.198 -0.223274 -7.01745 0
M  V30 3078 H 303.038 -1.3171 -2.67313 0
M  V30 3079 H 300.575 -0.66069 -1.31428 0
M  V30 3080 H 302.533 0.702514 -4.11243 0
M  V30 3081 H 301.163 1.08925 -3.03867 0
M  V30 3082 H 300.215 -1.26789 -3.58648 0
M  V30 3083 H 301.527 -1.45406 -4.77136 0
M  V30 3084 H 300.681 0.528335 -6.04395 0
M  V30 3085 H 299.42 0.806801 -4.8098 0
M  V30 3086 H 298.425 -1.44425 -5.30492 0
M  V30 3087 H 299.65 -1.71172 -6.57173 0
M  V30 3088 H 297.596 0.532046 -6.53839 0
M  V30 3089 H 297.513 -0.90357 -7.50581 0
M  V30 3090 H 298.781 0.250907 -7.79096 0
M  V30 3091 N 303.011 1.40521 -0.713556 0
M  V30 3092 C 304.239 2.05237 -0.261775 0
M  V30 3093 C 304.654 1.53755 1.09567 0
M  V30 3094 O 304.011 0.693268 1.6882 0
M  V30 3095 C 304.062 3.60763 -0.230706 0
M  V30 3096 O 303.783 4.10345 -1.53455 0
M  V30 3097 C 305.284 4.42651 0.239874 0
M  V30 3098 H 302.504 0.660533 -0.118057 0
M  V30 3099 H 305.048 1.79967 -0.971192 0
M  V30 3100 H 303.203 3.8501 0.429661 0
M  V30 3101 H 303.617 5.04526 -1.43366 0
M  V30 3102 H 305.091 5.51599 0.210468 0
M  V30 3103 H 305.568 4.20082 1.28171 0
M  V30 3104 H 306.174 4.23507 -0.390142 0
M  V30 3105 N 304.489 0.459591 1.5075 0
M  V30 3106 C 305.735 -0.0994966 2.02556 0
M  V30 3107 C 306.068 -1.40399 1.3417 0
M  V30 3108 O 305.343 -1.88892 0.463683 0
M  V30 3109 C 305.626 -0.295242 3.58888 0
M  V30 3110 C 305.479 1.02947 4.37861 0
M  V30 3111 C 306.798 -1.05502 4.27267 0
M  V30 3112 H 303.917 -0.034686 0.736183 0
M  V30 3113 H 306.559 0.602938 1.8018 0
M  V30 3114 H 304.709 -0.893563 3.78084 0
M  V30 3115 H 306.381 1.66348 4.30263 0
M  V30 3116 H 304.624 1.62885 4.02058 0
M  V30 3117 H 305.295 0.846281 5.45474 0
M  V30 3118 H 307.771 -0.547993 4.12476 0
M  V30 3119 H 306.647 -1.16077 5.36486 0
M  V30 3120 H 306.908 -2.08875 3.89645 0
M  V30 3121 N 305.967 -1.56429 0.191757 0
M  V30 3122 C 307.215 -1.97095 -0.447006 0
M  V30 3123 C 307.536 -1.07967 -1.62383 0
M  V30 3124 O 306.806 -0.150248 -1.95323 0
M  V30 3125 H 305.386 -0.727832 -0.168135 0
M  V30 3126 H 308.048 -1.92911 0.27771 0
M  V30 3127 H 307.144 -3.01848 -0.793371 0
M  V30 3128 N 307.445 0.0818655 -1.57387 0
M  V30 3129 C 308.722 0.815343 -1.77796 0
M  V30 3130 C 309.102 1.96289 -0.77679 0
M  V30 3131 O 308.45 2.27691 0.192106 0
M  V30 3132 C 308.66 1.29765 -3.23978 0
M  V30 3133 C 310.008 1.7351 -3.8753 0
M  V30 3134 O 311.032 1.39356 -3.27808 0
M  V30 3135 O 309.891 2.36708 -4.92576 0
M  V30 3136 H 306.985 0.389914 -0.729312 0
M  V30 3137 H 309.531 0.0627213 -1.69584 0
M  V30 3138 H 308.303 0.47608 -3.88393 0
M  V30 3139 H 307.926 2.11189 -3.36875 0
M  V30 3140 N 308.923 1.53595 0.353017 0
M  V30 3141 C 310.334 1.61937 0.929153 0
M  V30 3142 C 310.685 0.494686 1.89861 0
M  V30 3143 O 309.81 -0.377017 2.1309 0
M  V30 3144 C 310.405 2.93526 1.69199 0
M  V30 3145 C 308.964 3.04161 2.21727 0
M  V30 3146 C 308.111 2.57322 1.03348 0
M  V30 3147 H 311.062 1.58155 0.131431 0
M  V30 3148 H 311.083 2.82034 2.55416 0
M  V30 3149 H 310.595 3.75362 0.986144 0
M  V30 3150 H 308.696 2.26938 2.95516 0
M  V30 3151 H 308.809 4.09465 2.48748 0
M  V30 3152 H 307.173 2.12499 1.40414 0
M  V30 3153 H 307.956 3.41588 0.342428 0
M  V30 3154 N 310.401 -0.613514 1.45168 0
M  V30 3155 C 311.331 -1.7354 1.56225 0
M  V30 3156 C 312.312 -1.64981 0.41414 0
M  V30 3157 O 313.497 -1.83472 0.636526 0
M  V30 3158 C 310.627 -3.12128 1.52295 0
M  V30 3159 C 309.581 -3.35491 2.65762 0
M  V30 3160 C 308.907 -4.74291 2.46885 0
M  V30 3161 C 310.207 -3.26325 4.0781 0
M  V30 3162 H 311.901 -1.64543 2.50132 0
M  V30 3163 H 309.447 -0.790185 1.20383 0
M  V30 3164 H 311.4 -3.90404 1.58628 0
M  V30 3165 H 310.124 -3.2195 0.549139 0
M  V30 3166 H 308.783 -2.59603 2.58847 0
M  V30 3167 H 308.431 -4.80839 1.47657 0
M  V30 3168 H 308.131 -4.9088 3.22972 0
M  V30 3169 H 309.655 -5.54775 2.55063 0
M  V30 3170 H 311.069 -3.94483 4.16 0
M  V30 3171 H 309.466 -3.54445 4.8424 0
M  V30 3172 H 310.536 -2.23855 4.30136 0
M  V30 3173 N 311.879 -1.3236 -0.855495 0
M  V30 3174 C 313.107 -1.2587 -1.64208 0
M  V30 3175 C 313.522 0.173457 -1.88002 0
M  V30 3176 O 312.879 1.11027 -1.44842 0
M  V30 3177 C 312.93 -2.01424 -3.00184 0
M  V30 3178 O 312.651 -3.39051 -2.77445 0
M  V30 3179 C 314.152 -2.01948 -3.94629 0
M  V30 3180 H 311.372 -0.434318 -0.511477 0
M  V30 3181 H 313.916 -1.74469 -1.0668 0
M  V30 3182 H 312.071 -1.56549 -3.5436 0
M  V30 3183 H 312.485 -3.77711 -3.63916 0
M  V30 3184 H 313.959 -2.59297 -4.87308 0
M  V30 3185 H 314.436 -1.00554 -4.27534 0
M  V30 3186 H 315.042 -2.46767 -3.4639 0
M  V30 3187 N 313.357 1.07166 -1.15556 0
M  V30 3188 C 314.605 1.79443 -0.929764 0
M  V30 3189 C 314.926 1.87246 0.544414 0
M  V30 3190 O 314.196 1.37473 1.39564 0
M  V30 3191 H 312.776 0.664625 -0.341003 0
M  V30 3192 H 315.438 1.29499 -1.45657 0
M  V30 3193 H 314.534 2.81832 -1.34079 0
M  V30 3194 N 314.835 0.952656 1.25548 0
M  V30 3195 C 315.785 0.442033 2.23674 0
M  V30 3196 C 316.769 -0.467632 1.53955 0
M  V30 3197 O 317.961 -0.301006 1.74422 0
M  V30 3198 C 315.09 -0.280816 3.4215 0
M  V30 3199 C 314.176 0.646803 4.19139 0
M  V30 3200 N 314.567 1.77759 4.73535 0
M  V30 3201 C 312.865 0.454617 4.43677 0
M  V30 3202 C 313.566 2.35658 5.31827 0
M  V30 3203 N 312.542 1.64333 5.18166 0
M  V30 3204 H 316.344 1.30505 2.63336 0
M  V30 3205 H 313.858 0.809904 1.40763 0
M  V30 3206 H 315.855 -0.663747 4.11582 0
M  V30 3207 H 314.515 -1.14046 3.04012 0
M  V30 3208 H 315.526 2.15949 4.7073 0
M  V30 3209 H 312.203 -0.362312 4.15925 0
M  V30 3210 H 313.593 3.30998 5.84713 0
M  V30 3211 N 316.313 -1.40141 0.720998 0
M  V30 3212 C 317.724 -1.83678 0.334553 0
M  V30 3213 C 318.075 -1.6027 -1.13173 0
M  V30 3214 O 317.2 -1.08643 -1.87152 0
M  V30 3215 C 317.795 -3.33437 0.600437 0
M  V30 3216 C 316.354 -3.75447 0.267642 0
M  V30 3217 C 315.501 -2.63296 0.870097 0
M  V30 3218 H 318.452 -1.29331 0.919732 0
M  V30 3219 H 318.473 -3.80269 -0.132517 0
M  V30 3220 H 317.985 -3.50442 1.66768 0
M  V30 3221 H 316.086 -3.64035 -0.794329 0
M  V30 3222 H 316.199 -4.73344 0.74042 0
M  V30 3223 H 314.563 -2.52954 0.297739 0
M  V30 3224 H 315.346 -2.83112 1.94172 0
M  V30 3225 N 317.792 -0.46758 -1.50504 0
M  V30 3226 C 318.739 0.328413 -2.28452 0
M  V30 3227 C 319.709 0.990313 -1.33349 0
M  V30 3228 O 320.894 1.00343 -1.62284 0
M  V30 3229 C 318.034 1.40648 -3.15138 0
M  V30 3230 C 317.147 0.759709 -4.25267 0
M  V30 3231 C 316.282 1.81537 -4.99217 0
M  V30 3232 C 315.321 1.14866 -6.01226 0
M  V30 3233 N 314.458 2.14702 -6.68467 0
M  V30 3234 H 319.298 -0.342603 -2.96024 0
M  V30 3235 H 316.835 -0.180801 -1.45985 0
M  V30 3236 H 318.793 2.04315 -3.63746 0
M  V30 3237 H 317.423 2.04671 -2.49619 0
M  V30 3238 H 316.475 0.0105671 -3.80399 0
M  V30 3239 H 317.787 0.233243 -4.98254 0
M  V30 3240 H 316.941 2.52793 -5.51526 0
M  V30 3241 H 315.68 2.37564 -4.25928 0
M  V30 3242 H 314.685 0.42171 -5.4818 0
M  V30 3243 H 315.91 0.595334 -6.76485 0
M  V30 3244 H 313.856 2.69752 -5.97972 0
M  V30 3245 H 313.773 1.6703 -7.37317 0
M  V30 3246 H 315.041 2.85348 -7.25394 0
M  V30 3247 N 319.27 1.56325 -0.20005 0
M  V30 3248 C 320.516 1.98012 0.438059 0
M  V30 3249 C 320.849 1.08702 1.60927 0
M  V30 3250 O 320.124 0.140064 1.93995 0
M  V30 3251 C 320.407 3.48841 0.893419 0
M  V30 3252 C 320.26 4.48928 -0.279947 0
M  V30 3253 C 321.579 4.03498 1.75719 0
M  V30 3254 H 318.698 0.719918 0.157757 0
M  V30 3255 H 321.34 1.87743 -0.291968 0
M  V30 3256 H 319.49 3.57723 1.51547 0
M  V30 3257 H 321.162 4.52079 -0.91772 0
M  V30 3258 H 319.405 4.23694 -0.930919 0
M  V30 3259 H 320.076 5.5194 0.0812601 0
M  V30 3260 H 322.552 3.97427 1.23253 0
M  V30 3261 H 321.428 5.09393 2.04476 0
M  V30 3262 H 321.689 3.4906 2.71311 0
M  V30 3263 N 320.748 -0.0735177 1.57428 0
M  V30 3264 C 322.164 -0.428264 1.53747 0
M  V30 3265 C 322.364 -1.79272 0.91998 0
M  V30 3266 O 321.42 -2.47051 0.521745 0
M  V30 3267 C 322.733 -0.370914 2.98404 0
M  V30 3268 C 324.281 -0.451224 3.0973 0
M  V30 3269 C 324.756 -0.4238 4.56035 0
M  V30 3270 N 326.247 -0.483925 4.60665 0
M  V30 3271 C 326.982 -0.484891 5.71346 0
M  V30 3272 N 326.478 -0.440775 6.91396 0
M  V30 3273 N 328.271 -0.531319 5.59583 0
M  V30 3274 H 320.422 0.819949 1.95935 0
M  V30 3275 H 322.685 0.307493 0.896745 0
M  V30 3276 H 322.391 0.564956 3.47133 0
M  V30 3277 H 322.265 -1.18176 3.5821 0
M  V30 3278 H 324.652 -1.37752 2.60976 0
M  V30 3279 H 324.733 0.388167 2.52838 0
M  V30 3280 H 324.377 0.498638 5.05446 0
M  V30 3281 H 324.307 -1.2807 5.10789 0
M  V30 3282 H 326.798 -0.522338 3.74273 0
M  V30 3283 H 327.111 -0.44539 7.71515 0
M  V30 3284 H 325.456 -0.40749 6.93804 0
M  V30 3285 H 328.647 -0.563464 4.64696 0
M  V30 3286 H 328.82 -0.528603 6.4584 0
M  V30 3287 N 322.226 -1.5378 -0.344866 0
M  V30 3288 C 323.159 -1.7649 -1.4466 0
M  V30 3289 C 324.137 -0.613954 -1.50563 0
M  V30 3290 O 325.321 -0.84896 -1.683 0
M  V30 3291 C 322.448 -1.86235 -2.82903 0
M  V30 3292 C 321.494 -3.08375 -2.94631 0
M  V30 3293 S 322.327 -4.67457 -2.61236 0
M  V30 3294 C 323.483 -4.80079 -4.0159 0
M  V30 3295 H 323.716 -2.69661 -1.2518 0
M  V30 3296 H 321.249 -1.44632 -0.540455 0
M  V30 3297 H 323.207 -1.92535 -3.62547 0
M  V30 3298 H 321.868 -0.940786 -2.9968 0
M  V30 3299 H 321.061 -3.11865 -3.95925 0
M  V30 3300 H 320.663 -3.00294 -2.22934 0
M  V30 3301 H 322.955 -4.61407 -4.96094 0
M  V30 3302 H 323.898 -5.82168 -4.03095 0
M  V30 3303 H 324.306 -4.08544 -3.89554 0
M  V30 3304 N 323.704 0.605807 -1.45491 0
M  V30 3305 C 324.95 1.36679 -1.49823 0
M  V30 3306 C 325.283 1.93693 -0.140175 0
M  V30 3307 O 324.558 1.75158 0.845581 0
M  V30 3308 C 324.841 2.51337 -2.57879 0
M  V30 3309 C 324.694 1.99508 -4.03134 0
M  V30 3310 C 326.013 3.53463 -2.62205 0
M  V30 3311 H 323.132 0.495617 -0.545466 0
M  V30 3312 H 325.774 0.682732 -1.7731 0
M  V30 3313 H 323.924 3.09691 -2.34571 0
M  V30 3314 H 325.596 1.45789 -4.37656 0
M  V30 3315 H 323.839 1.30496 -4.13707 0
M  V30 3316 H 324.51 2.82169 -4.74431 0
M  V30 3317 H 326.986 3.04953 -2.83095 0
M  V30 3318 H 325.862 4.31178 -3.39672 0
M  V30 3319 H 326.123 4.09197 -1.67363 0
M  V30 3320 N 325.182 1.32811 0.848464 0
M  V30 3321 C 326.407 1.26882 1.6406 0
M  V30 3322 C 326.832 -0.15913 1.87426 0
M  V30 3323 O 326.19 -1.11258 1.43148 0
M  V30 3324 C 326.238 2.03997 2.97351 0
M  V30 3325 O 325.342 1.39201 3.88197 0
M  V30 3326 H 324.683 0.436982 0.499943 0
M  V30 3327 H 327.213 1.75224 1.0563 0
M  V30 3328 H 327.223 2.14403 3.47124 0
M  V30 3329 H 325.898 3.0783 2.79666 0
M  V30 3330 H 324.475 1.37381 3.46671 0
M  V30 3331 N 326.66 -1.06551 1.16123 0
M  V30 3332 C 327.59 -2.15935 0.88851 0
M  V30 3333 C 328.571 -1.69306 -0.164135 0
M  V30 3334 O 329.756 -1.94193 -0.0167857 0
M  V30 3335 C 326.886 -3.45149 0.385942 0
M  V30 3336 C 325.84 -4.05271 1.3762 0
M  V30 3337 C 325.166 -5.29664 0.732137 0
M  V30 3338 C 326.466 -4.44355 2.74493 0
M  V30 3339 H 328.16 -2.39006 1.80323 0
M  V30 3340 H 325.706 -1.14866 0.868435 0
M  V30 3341 H 327.659 -4.21004 0.182647 0
M  V30 3342 H 326.383 -3.21689 -0.564274 0
M  V30 3343 H 325.042 -3.3147 1.56599 0
M  V30 3344 H 324.69 -5.02499 -0.224483 0
M  V30 3345 H 324.39 -5.70848 1.39307 0
M  V30 3346 H 325.914 -6.08218 0.538802 0
M  V30 3347 H 327.328 -5.11303 2.59311 0
M  V30 3348 H 325.725 -4.96515 3.37035 0
M  V30 3349 H 326.795 -3.55339 3.29943 0
M  V30 3350 N 328.138 -0.959301 -1.25041 0
M  V30 3351 C 329.366 -0.633949 -1.96948 0
M  V30 3352 C 329.781 0.794916 -1.7125 0
M  V30 3353 O 329.138 1.53231 -0.991287 0
M  V30 3354 C 329.189 -0.888805 -3.50403 0
M  V30 3355 O 328.91 -2.26149 -3.75218 0
M  V30 3356 C 330.411 -0.576482 -4.39536 0
M  V30 3357 H 327.631 -0.237263 -0.627652 0
M  V30 3358 H 330.175 -1.28495 -1.59089 0
M  V30 3359 H 328.33 -0.284145 -3.86357 0
M  V30 3360 H 328.744 -2.33514 -4.6965 0
M  V30 3361 H 330.218 -0.805314 -5.46094 0
M  V30 3362 H 330.695 0.489075 -4.36468 0
M  V30 3363 H 331.301 -1.16067 -4.09156 0
M  V30 3364 N 329.616 1.39756 -0.72842 0
M  V30 3365 C 330.864 2.00248 -0.272946 0
M  V30 3366 C 331.185 1.58077 1.14178 0
M  V30 3367 O 330.455 0.826014 1.77634 0
M  V30 3368 H 329.035 0.740554 -0.0979247 0
M  V30 3369 H 331.697 1.70903 -0.936912 0
M  V30 3370 H 330.793 3.10495 -0.316142 0
M  V30 3371 N 331.094 0.475555 1.50254 0
M  V30 3372 C 332.319 -0.0777042 2.07254 0
M  V30 3373 C 332.744 -1.3235 1.3366 0
M  V30 3374 O 332.102 -1.77152 0.385597 0
M  V30 3375 C 332.15 -0.340169 3.58992 0
M  V30 3376 O 331.254 -1.41982 3.87188 0
M  V30 3377 H 330.595 0.0149556 0.663832 0
M  V30 3378 H 333.125 0.667878 1.93392 0
M  V30 3379 H 333.135 -0.579332 4.03866 0
M  V30 3380 H 331.81 0.570167 4.11973 0
M  V30 3381 H 330.387 -1.16762 3.54148 0
M  V30 3382 N 332.573 -1.56217 0.208337 0
M  V30 3383 C 333.822 -1.97124 -0.427204 0
M  V30 3384 C 334.135 -1.09859 -1.61835 0
M  V30 3385 O 335.341 -1.40606 -2.32255 0
M  V30 3386 C 333.797 -3.50633 -0.811442 0
M  V30 3387 C 333.405 -4.46582 0.35615 0
M  V30 3388 C 335.149 -4.00282 -1.41332 0
M  V30 3389 C 333.056 -5.91379 -0.0497852 0
M  V30 3390 H 331.986 -0.736086 -0.163381 0
M  V30 3391 H 334.637 -1.8099 0.302456 0
M  V30 3392 H 333.019 -3.62319 -1.59815 0
M  V30 3393 H 334.193 -4.46636 1.1337 0
M  V30 3394 H 332.508 -4.07202 0.870396 0
M  V30 3395 H 335.105 -5.0595 -1.72972 0
M  V30 3396 H 335.448 -3.45359 -2.32449 0
M  V30 3397 H 335.981 -3.91764 -0.690323 0
M  V30 3398 H 332.72 -6.50255 0.827529 0
M  V30 3399 H 332.24 -5.94549 -0.791926 0
M  V30 3400 H 333.919 -6.45209 -0.481042 0
M  V30 3401 N 334.051 0.0651679 -1.57465 0
M  V30 3402 C 335.014 1.06117 -2.03155 0
M  V30 3403 C 336.014 1.31204 -0.929632 0
M  V30 3404 O 337.204 1.26813 -1.19432 0
M  V30 3405 C 334.336 2.4032 -2.41783 0
M  V30 3406 H 335.529 0.667231 -2.92383 0
M  V30 3407 H 333.082 0.311075 -1.53173 0
M  V30 3408 H 333.817 2.84532 -1.55601 0
M  V30 3409 H 333.602 2.23451 -3.22199 0
M  V30 3410 H 335.092 3.11898 -2.77685 0
M  V30 3411 N 335.529 1.53961 0.336706 0
M  V30 3412 C 336.757 1.75483 1.09605 0
M  V30 3413 C 337.172 0.4972 1.82136 0
M  V30 3414 O 336.529 -0.53149 1.74589 0
M  V30 3415 C 336.58 2.93943 2.10428 0
M  V30 3416 O 336.301 4.14842 1.40846 0
M  V30 3417 C 337.802 3.27571 2.98684 0
M  V30 3418 H 335.022 0.586166 0.326574 0
M  V30 3419 H 337.566 2.00808 0.38683 0
M  V30 3420 H 335.721 2.70929 2.76905 0
M  V30 3421 H 336.135 4.81383 2.08255 0
M  V30 3422 H 337.609 4.13791 3.6535 0
M  V30 3423 H 338.086 2.44168 3.65074 0
M  V30 3424 H 338.692 3.52615 2.37787 0
M  V30 3425 N 337.007 -0.598083 1.45811 0
M  V30 3426 C 338.255 -1.35413 1.50026 0
M  V30 3427 C 338.576 -1.94444 0.147177 0
M  V30 3428 O 337.846 -1.77701 -0.824571 0
M  V30 3429 H 336.426 -0.502727 0.552517 0
M  V30 3430 H 339.088 -0.701606 1.81834 0
M  V30 3431 H 338.184 -2.16871 2.2444 0
M  V30 3432 N 338.485 -1.33259 -0.841409 0
M  V30 3433 C 339.395 -1.25332 -1.98316 0
M  V30 3434 C 340.411 -0.164364 -1.73222 0
M  V30 3435 O 341.587 -0.387486 -1.97637 0
M  V30 3436 C 338.652 -0.990078 -3.32262 0
M  V30 3437 C 337.713 -2.16879 -3.70489 0
M  V30 3438 C 336.946 -1.91801 -4.98044 0
M  V30 3439 O 337.169 -0.867075 -5.63771 0
M  V30 3440 O 336.103 -2.78267 -5.33714 0
M  V30 3441 H 339.929 -2.21344 -2.07944 0
M  V30 3442 H 337.514 -1.1328 -0.974058 0
M  V30 3443 H 339.396 -0.860321 -4.12524 0
M  V30 3444 H 338.071 -0.0602155 -3.23644 0
M  V30 3445 H 336.978 -2.35407 -2.90748 0
M  V30 3446 H 338.311 -3.0819 -3.8377 0
M  V30 3447 N 339.963 1.05934 -1.16686 0
M  V30 3448 C 340.913 2.11764 -0.844978 0
M  V30 3449 C 341.897 1.59922 0.177178 0
M  V30 3450 O 343.089 1.76983 -0.0241768 0
M  V30 3451 C 340.218 3.41493 -0.351812 0
M  V30 3452 C 339.304 4.00152 -1.40496 0
M  V30 3453 N 339.695 4.32874 -2.61636 0
M  V30 3454 C 337.993 4.278 -1.26106 0
M  V30 3455 C 338.694 4.79552 -3.29249 0
M  V30 3456 N 337.67 4.79211 -2.56628 0
M  V30 3457 H 341.472 2.34916 -1.76612 0
M  V30 3458 H 338.986 1.23511 -1.05446 0
M  V30 3459 H 340.983 4.16773 -0.102796 0
M  V30 3460 H 339.643 3.19778 0.56322 0
M  V30 3461 H 340.654 4.23109 -2.98663 0
M  V30 3462 H 337.331 4.15511 -0.407081 0
M  V30 3463 H 338.721 5.14045 -4.32675 0
M  V30 3464 N 341.441 0.965919 1.2453 0
M  V30 3465 C 342.69 0.622437 1.91856 0
M  V30 3466 C 343.003 -0.846006 1.76358 0
M  V30 3467 O 344.209 -1.29993 2.38357 0
M  V30 3468 C 342.665 1.0626 3.43856 0
M  V30 3469 C 342.273 2.55437 3.68043 0
M  V30 3470 C 344.017 0.792183 4.17043 0
M  V30 3471 C 341.924 2.93196 5.13605 0
M  V30 3472 H 340.854 0.229092 0.718354 0
M  V30 3473 H 343.505 1.17189 1.41206 0
M  V30 3474 H 341.887 0.441476 3.93531 0
M  V30 3475 H 343.061 3.22665 3.28974 0
M  V30 3476 H 341.376 2.8007 3.08139 0
M  V30 3477 H 343.973 1.05031 5.24283 0
M  V30 3478 H 344.316 -0.271584 4.15413 0
M  V30 3479 H 344.849 1.37419 3.73311 0
M  V30 3480 H 341.588 3.98636 5.20355 0
M  V30 3481 H 341.108 2.30651 5.53679 0
M  V30 3482 H 342.787 2.83004 5.81823 0
M  V30 3483 N 342.919 -1.39368 0.735821 0
M  V30 3484 C 344.168 -1.99733 0.281004 0
M  V30 3485 C 344.481 -1.59055 -1.13846 0
M  V30 3486 O 345.687 -2.12262 -1.69284 0
M  V30 3487 C 344.143 -3.57057 0.451462 0
M  V30 3488 C 343.751 -4.06697 1.87886 0
M  V30 3489 C 345.495 -4.2446 0.0584616 0
M  V30 3490 C 343.402 -5.56598 1.99883 0
M  V30 3491 H 342.332 -0.747163 0.101311 0
M  V30 3492 H 344.983 -1.59357 0.909819 0
M  V30 3493 H 343.365 -3.95234 -0.246263 0
M  V30 3494 H 344.539 -3.79853 2.60861 0
M  V30 3495 H 342.854 -3.5196 2.22515 0
M  V30 3496 H 345.451 -5.34549 0.127099 0
M  V30 3497 H 345.794 -4.04444 -0.986433 0
M  V30 3498 H 346.327 -3.9146 0.707374 0
M  V30 3499 H 343.066 -5.81494 3.02564 0
M  V30 3500 H 342.586 -5.85242 1.31346 0
M  V30 3501 H 344.265 -6.22022 1.78039 0
M  V30 3502 N 344.397 -0.483516 -1.5 0
M  V30 3503 C 345.622 0.0667119 -2.07293 0
M  V30 3504 C 346.047 1.3164 -1.3436 0
M  V30 3505 O 345.405 1.76945 -0.394987 0
M  V30 3506 C 345.453 0.321126 -3.59167 0
M  V30 3507 O 344.557 1.39927 -3.87936 0
M  V30 3508 H 343.898 -0.0184758 -0.663743 0
M  V30 3509 H 346.428 -0.678125 -1.93035 0
M  V30 3510 H 346.438 0.557906 -4.04168 0
M  V30 3511 H 345.113 -0.592007 -4.11665 0
M  V30 3512 H 343.69 1.14882 -3.54763 0
M  V30 3513 N 345.875 1.56104 -0.216619 0
M  V30 3514 C 346.825 2.16703 0.708798 0
M  V30 3515 C 347.809 1.11392 1.16106 0
M  V30 3516 O 349.001 1.37395 1.11587 0
M  V30 3517 C 346.13 2.84666 1.91886 0
M  V30 3518 C 345.216 3.97195 1.48651 0
M  V30 3519 N 345.607 4.99959 0.766434 0
M  V30 3520 C 343.905 4.09193 1.77418 0
M  V30 3521 C 344.606 5.79126 0.546659 0
M  V30 3522 N 343.582 5.32315 1.10188 0
M  V30 3523 H 347.384 2.93516 0.150162 0
M  V30 3524 H 344.898 1.6239 -0.0176768 0
M  V30 3525 H 346.895 3.26486 2.59253 0
M  V30 3526 H 345.555 2.09347 2.48202 0
M  V30 3527 H 346.566 5.16197 0.419634 0
M  V30 3528 H 343.243 3.45021 2.35088 0
M  V30 3529 H 344.633 6.71895 -0.026103 0
M  V30 3530 N 347.353 -0.0568162 1.57498 0
M  V30 3531 C 348.581 -0.765626 1.92213 0
M  V30 3532 C 348.996 -1.70353 0.813961 0
M  V30 3533 O 348.353 -1.81268 -0.211701 0
M  V30 3534 C 348.404 -1.5465 3.2675 0
M  V30 3535 O 348.125 -0.646278 4.33307 0
M  V30 3536 C 349.626 -2.35497 3.75574 0
M  V30 3537 H 346.846 -0.216835 0.634999 0
M  V30 3538 H 349.39 -0.0226146 2.04487 0
M  V30 3539 H 347.545 -2.24165 3.15957 0
M  V30 3540 H 347.959 -1.19093 5.108 0
M  V30 3541 H 349.433 -2.85722 4.72299 0
M  V30 3542 H 349.91 -3.15692 3.05344 0
M  V30 3543 H 350.516 -1.7111 3.8936 0
M  V30 3544 N 348.832 -1.54138 -0.328536 0
M  V30 3545 C 349.795 -1.82462 -1.38709 0
M  V30 3546 C 350.795 -0.696229 -1.44946 0
M  V30 3547 O 351.985 -0.964535 -1.4506 0
M  V30 3548 C 349.117 -1.98018 -2.77492 0
M  V30 3549 H 350.31 -2.77037 -1.14851 0
M  V30 3550 H 347.863 -1.45779 -0.563751 0
M  V30 3551 H 348.598 -1.05637 -3.06613 0
M  V30 3552 H 348.383 -2.80124 -2.74359 0
M  V30 3553 H 349.873 -2.21396 -3.54081 0
M  V30 3554 N 350.31 0.590341 -1.46126 0
M  V30 3555 C 351.535 1.37991 -1.54833 0
M  V30 3556 C 351.96 1.87163 -0.187506 0
M  V30 3557 O 351.318 1.61133 0.831008 0
M  V30 3558 C 351.366 2.54867 -2.55098 0
M  V30 3559 O 350.47 3.56061 -2.08073 0
M  V30 3560 H 349.811 0.411265 -0.521303 0
M  V30 3561 H 352.341 0.716819 -1.91632 0
M  V30 3562 H 352.351 3.01886 -2.74461 0
M  V30 3563 H 351.026 2.18429 -3.53923 0
M  V30 3564 H 349.603 3.15574 -1.98664 0
M  V30 3565 N 351.788 1.33704 0.83433 0
M  V30 3566 C 353.013 1.28615 1.62705 0
M  V30 3567 C 353.438 -0.139242 1.87584 0
M  V30 3568 O 352.796 -1.09734 1.4432 0
M  V30 3569 C 352.844 2.07139 2.95171 0
M  V30 3570 O 351.948 1.4331 3.86699 0
M  V30 3571 H 351.289 0.44226 0.49528 0
M  V30 3572 H 353.819 1.76335 1.03766 0
M  V30 3573 H 353.829 2.18073 3.44831 0
M  V30 3574 H 352.504 3.10779 2.76386 0
M  V30 3575 H 351.081 1.4105 3.45195 0
M  V30 3576 N 353.266 -1.05314 1.17247 0
M  V30 3577 C 354.515 -1.77685 0.954521 0
M  V30 3578 C 354.828 -1.88616 -0.518025 0
M  V30 3579 O 356.034 -2.57714 -0.854144 0
M  V30 3580 C 354.49 -3.19402 1.65863 0
M  V30 3581 C 354.098 -3.16605 3.16963 0
M  V30 3582 C 355.842 -3.96237 1.52303 0
M  V30 3583 C 353.749 -4.53103 3.80068 0
M  V30 3584 H 352.679 -0.666 0.353496 0
M  V30 3585 H 355.33 -1.1805 1.40486 0
M  V30 3586 H 353.712 -3.79355 1.13602 0
M  V30 3587 H 354.886 -2.66176 3.76148 0
M  V30 3588 H 353.201 -2.53268 3.30521 0
M  V30 3589 H 355.798 -4.97157 1.96822 0
M  V30 3590 H 356.141 -4.136 0.473401 0
M  V30 3591 H 356.674 -3.42829 2.01775 0
M  V30 3592 H 353.413 -4.40946 4.85023 0
M  V30 3593 H 352.933 -5.03686 3.2567 0
M  V30 3594 H 354.612 -5.22045 3.82202 0
M  V30 3595 N 354.744 -0.972509 -1.24016 0
M  V30 3596 C 355.691 -0.505969 -2.25186 0
M  V30 3597 C 356.661 0.451009 -1.5986 0
M  V30 3598 O 357.846 0.360307 -1.87367 0
M  V30 3599 C 354.986 0.193089 -3.44559 0
M  V30 3600 C 354.099 -0.803222 -4.24467 0
M  V30 3601 C 353.234 -0.0797793 -5.3114 0
M  V30 3602 C 352.273 -1.06583 -6.02749 0
M  V30 3603 N 351.41 -0.372074 -7.01113 0
M  V30 3604 H 356.25 -1.37351 -2.64459 0
M  V30 3605 H 353.787 -0.688419 -1.29997 0
M  V30 3606 H 355.745 0.615125 -4.1264 0
M  V30 3607 H 354.375 1.02455 -3.06109 0
M  V30 3608 H 353.427 -1.34368 -3.55878 0
M  V30 3609 H 354.739 -1.55494 -4.73944 0
M  V30 3610 H 353.893 0.400015 -6.0538 0
M  V30 3611 H 352.632 0.704597 -4.82583 0
M  V30 3612 H 351.637 -1.55645 -5.27309 0
M  V30 3613 H 352.862 -1.85074 -6.53395 0
M  V30 3614 H 350.808 0.393238 -6.5482 0
M  V30 3615 H 350.725 -1.06258 -7.48495 0
M  V30 3616 H 351.993 0.0855932 -7.79453 0
M  V30 3617 N 356.222 1.38976 -0.743202 0
M  V30 3618 C 357.638 1.53984 -0.419664 0
M  V30 3619 C 357.838 1.70837 1.0685 0
M  V30 3620 O 356.894 1.7135 1.8546 0
M  V30 3621 C 358.207 2.75287 -1.20985 0
M  V30 3622 C 359.755 2.89129 -1.19889 0
M  V30 3623 C 360.23 4.13381 -1.97181 0
M  V30 3624 N 361.721 4.20437 -1.94389 0
M  V30 3625 C 362.456 5.15547 -2.50996 0
M  V30 3626 N 361.952 6.16395 -3.16274 0
M  V30 3627 N 363.745 5.07822 -2.40984 0
M  V30 3628 H 355.896 1.26285 -1.7078 0
M  V30 3629 H 358.159 0.612689 -0.723406 0
M  V30 3630 H 357.865 2.69204 -2.26323 0
M  V30 3631 H 357.739 3.68184 -0.819759 0
M  V30 3632 H 360.126 2.947 -0.153606 0
M  V30 3633 H 360.207 1.97272 -1.62841 0
M  V30 3634 H 359.851 4.08572 -3.01714 0
M  V30 3635 H 359.781 5.04298 -1.51629 0
M  V30 3636 H 362.272 3.48205 -1.46839 0
M  V30 3637 H 362.585 6.85443 -3.56915 0
M  V30 3638 H 360.93 6.16758 -3.20367 0
M  V30 3639 H 364.121 4.27973 -1.89622 0
M  V30 3640 H 364.294 5.81767 -2.85397 0
M  V30 3641 N 357.7 0.491464 1.49741 0
M  V30 3642 C 358.928 -0.0535151 2.06831 0
M  V30 3643 C 359.343 -1.31683 1.35296 0
M  V30 3644 O 358.7 -1.77402 0.42836 0
M  V30 3645 C 358.751 -0.320835 3.60073 0
M  V30 3646 O 358.472 0.892394 4.28915 0
M  V30 3647 C 359.973 -0.910519 4.33848 0
M  V30 3648 H 357.193 0.0161909 0.670805 0
M  V30 3649 H 359.737 0.68609 1.92647 0
M  V30 3650 H 357.892 -1.0104 3.73991 0
M  V30 3651 H 358.306 0.649401 5.20464 0
M  V30 3652 H 359.78 -1.04721 5.41976 0
M  V30 3653 H 360.257 -1.90589 3.95692 0
M  V30 3654 H 360.863 -0.258712 4.24512 0
M  V30 3655 N 359.178 -1.55987 0.224894 0
M  V30 3656 C 360.128 -2.17076 -0.697296 0
M  V30 3657 C 361.112 -1.12006 -1.15514 0
M  V30 3658 O 362.304 -1.37985 -1.10857 0
M  V30 3659 C 359.433 -2.85679 -1.90374 0
M  V30 3660 C 358.519 -3.97977 -1.46543 0
M  V30 3661 N 358.91 -5.00359 -0.739909 0
M  V30 3662 C 357.208 -4.10128 -1.75245 0
M  V30 3663 C 357.909 -5.79407 -0.515939 0
M  V30 3664 N 356.885 -5.32892 -1.07364 0
M  V30 3665 H 360.687 -2.93592 -0.134594 0
M  V30 3666 H 358.201 -1.62379 0.0262885 0
M  V30 3667 H 360.198 -3.27857 -2.57518 0
M  V30 3668 H 358.858 -2.1066 -2.47088 0
M  V30 3669 H 359.869 -5.16412 -0.392253 0
M  V30 3670 H 356.546 -3.46263 -2.33255 0
M  V30 3671 H 357.936 -6.71872 0.0617349 0
M  V30 3672 N 360.656 0.0484629 -1.57525 0
M  V30 3673 C 361.589 1.08755 -2.00618 0
M  V30 3674 C 362.567 1.36272 -0.887058 0
M  V30 3675 O 363.751 1.49255 -1.15131 0
M  V30 3676 C 360.878 2.42675 -2.36277 0
M  V30 3677 C 359.924 2.31142 -3.58435 0
M  V30 3678 S 360.757 1.68326 -5.08357 0
M  V30 3679 C 361.913 3.03776 -5.47239 0
M  V30 3680 H 362.146 0.720415 -2.88439 0
M  V30 3681 H 359.679 0.257801 -1.52233 0
M  V30 3682 H 361.637 3.19699 -2.57494 0
M  V30 3683 H 360.298 2.76541 -1.48942 0
M  V30 3684 H 359.491 3.29957 -3.80978 0
M  V30 3685 H 359.093 1.62258 -3.36969 0
M  V30 3686 H 361.385 4.00106 -5.46737 0
M  V30 3687 H 362.328 2.85988 -6.47778 0
M  V30 3688 H 362.736 3.05456 -4.74718 0
M  V30 3689 N 362.134 1.5431 0.320358 0
M  V30 3690 C 363.044 1.86946 1.41734 0
M  V30 3691 C 364.06 0.761689 1.56443 0
M  V30 3692 O 365.236 1.05629 1.71477 0
M  V30 3693 C 362.301 2.09293 2.76401 0
M  V30 3694 C 361.362 3.33082 2.70841 0
M  V30 3695 C 360.595 3.54353 3.99086 0
M  V30 3696 O 360.818 2.79002 4.97508 0
M  V30 3697 O 359.752 4.47838 4.0215 0
M  V30 3698 H 363.578 2.80232 1.17062 0
M  V30 3699 H 361.163 1.40255 0.514673 0
M  V30 3700 H 363.045 2.25303 3.56113 0
M  V30 3701 H 361.72 1.19194 3.00956 0
M  V30 3702 H 360.627 3.22454 1.89668 0
M  V30 3703 H 361.96 4.23249 2.5124 0
M  V30 3704 N 363.613 -0.582584 1.46437 0
M  V30 3705 C 364.543 -1.70187 1.59871 0
M  V30 3706 C 365.524 -1.64066 0.449042 0
M  V30 3707 O 366.709 -1.82081 0.6753 0
M  V30 3708 C 363.839 -3.08827 1.58881 0
M  V30 3709 C 362.793 -3.29779 2.72819 0
M  V30 3710 C 362.119 -4.68947 2.5689 0
M  V30 3711 C 363.419 -3.17601 4.1464 0
M  V30 3712 H 365.113 -1.592 2.53566 0
M  V30 3713 H 362.659 -0.764472 1.22032 0
M  V30 3714 H 364.612 -3.86951 1.66873 0
M  V30 3715 H 363.336 -3.20713 0.617306 0
M  V30 3716 H 361.995 -2.54054 2.64296 0
M  V30 3717 H 361.643 -4.77599 1.57823 0
M  V30 3718 H 361.343 -4.83919 3.33312 0
M  V30 3719 H 362.867 -5.4924 2.66773 0
M  V30 3720 H 364.281 -3.8557 4.24274 0
M  V30 3721 H 362.678 -3.44094 4.9165 0
M  V30 3722 H 363.748 -2.14681 4.34788 0
M  V30 3723 N 365.091 -1.34144 -0.827227 0
M  V30 3724 C 366.339 -1.26009 -1.58007 0
M  V30 3725 C 366.66 0.170971 -1.94249 0
M  V30 3726 O 365.93 1.10256 -1.61927 0
M  V30 3727 H 364.51 -0.463414 -0.585881 0
M  V30 3728 H 367.172 -1.68005 -0.987951 0
M  V30 3729 H 366.268 -1.86187 -2.50481 0
M  V30 3730 N 366.569 1.04691 -1.17803 0
M  V30 3731 C 367.817 1.7743 -0.967617 0
M  V30 3732 C 368.138 1.88359 0.504574 0
M  V30 3733 O 367.408 1.40402 1.36617 0
M  V30 3734 H 365.988 0.657242 -0.355024 0
M  V30 3735 H 368.65 1.2638 -1.48371 0
M  V30 3736 H 367.746 2.78924 -1.40027 0
M  V30 3737 N 368.047 0.979072 1.23499 0
M  V30 3738 C 368.994 0.517904 2.24914 0
M  V30 3739 C 369.964 -0.442525 1.60097 0
M  V30 3740 O 371.149 -0.350365 1.87556 0
M  V30 3741 C 368.289 -0.174813 3.44657 0
M  V30 3742 C 367.402 0.825721 4.24035 0
M  V30 3743 C 366.537 0.107946 5.3109 0
M  V30 3744 C 365.576 1.09778 6.02175 0
M  V30 3745 N 364.713 0.40925 7.00906 0
M  V30 3746 H 369.553 1.38751 2.63727 0
M  V30 3747 H 367.09 0.695303 1.2963 0
M  V30 3748 H 369.048 -0.593233 4.12961 0
M  V30 3749 H 367.678 -1.0083 3.06648 0
M  V30 3750 H 366.73 1.36253 3.55161 0
M  V30 3751 H 368.042 1.58005 4.73113 0
M  V30 3752 H 367.196 -0.367904 6.05583 0
M  V30 3753 H 365.935 -0.678994 4.8295 0
M  V30 3754 H 364.94 1.5844 5.26476 0
M  V30 3755 H 366.165 1.88536 6.52404 0
M  V30 3756 H 364.111 -0.358506 6.5502 0
M  V30 3757 H 364.028 1.10226 7.47921 0
M  V30 3758 H 365.296 -0.0442557 7.79487 0
M  V30 3759 N 369.525 -1.3858 0.750561 0
M  V30 3760 C 370.488 -2.28836 0.129152 0
M  V30 3761 C 371.488 -1.47045 -0.650714 0
M  V30 3762 O 372.678 -1.6753 -0.477428 0
M  V30 3763 C 369.81 -3.30751 -0.825622 0
M  V30 3764 H 371.003 -2.85294 0.924516 0
M  V30 3765 H 368.556 -1.47489 0.517376 0
M  V30 3766 H 369.291 -2.79378 -1.64677 0
M  V30 3767 H 369.076 -3.91177 -0.268852 0
M  V30 3768 H 370.566 -3.98249 -1.2565 0
M  V30 3769 N 371.003 -0.499398 -1.49478 0
M  V30 3770 C 372.414 -0.051215 -1.8663 0
M  V30 3771 C 372.765 1.36238 -1.41186 0
M  V30 3772 O 371.89 2.01502 -0.789051 0
M  V30 3773 C 372.485 -0.0861651 -3.3869 0
M  V30 3774 C 371.044 0.30667 -3.75149 0
M  V30 3775 C 370.191 -0.459397 -2.73468 0
M  V30 3776 H 373.142 -0.712264 -1.41818 0
M  V30 3777 H 373.163 0.709507 -3.73826 0
M  V30 3778 H 372.675 -1.11512 -3.71735 0
M  V30 3779 H 370.776 1.33892 -3.47712 0
M  V30 3780 H 370.889 -0.0116669 -4.79099 0
M  V30 3781 H 369.253 0.0905645 -2.54539 0
M  V30 3782 H 370.036 -1.4884 -3.09357 0
M  V30 3783 N 372.481 1.55866 -0.233164 0
M  V30 3784 C 373.727 1.98897 0.395959 0
M  V30 3785 C 374.06 1.12091 1.58585 0
M  V30 3786 O 373.335 0.181182 1.93654 0
M  V30 3787 C 373.618 3.50658 0.819224 0
M  V30 3788 C 373.471 4.48233 -0.375109 0
M  V30 3789 C 374.79 4.07135 1.67121 0
M  V30 3790 H 371.909 0.723102 0.142451 0
M  V30 3791 H 374.551 1.87082 -0.331725 0
M  V30 3792 H 372.701 3.60857 1.43925 0
M  V30 3793 H 374.373 4.50031 -1.01341 0
M  V30 3794 H 372.616 4.21624 -1.02058 0
M  V30 3795 H 373.287 5.51988 -0.0358328 0
M  V30 3796 H 375.763 3.99952 1.14795 0
M  V30 3797 H 374.639 5.13615 1.93625 0
M  V30 3798 H 374.9 3.54736 2.63846 0
M  V30 3799 N 373.959 -0.0401083 1.57549 0
M  V30 3800 C 375.208 -0.732108 1.87944 0
M  V30 3801 C 375.521 -1.77107 0.830206 0
M  V30 3802 O 376.727 -2.51488 1.02302 0
M  V30 3803 C 375.183 -1.35315 3.33494 0
M  V30 3804 C 374.791 -0.351105 4.46622 0
M  V30 3805 C 376.535 -2.02566 3.73051 0
M  V30 3806 C 374.442 -0.979859 5.83226 0
M  V30 3807 H 373.372 -0.277188 0.701201 0
M  V30 3808 H 376.023 0.0138501 1.83495 0
M  V30 3809 H 374.405 -2.14844 3.32653 0
M  V30 3810 H 375.579 0.416674 4.58912 0
M  V30 3811 H 373.894 0.218708 4.15825 0
M  V30 3812 H 376.491 -2.50441 4.72423 0
M  V30 3813 H 376.834 -2.83904 3.04474 0
M  V30 3814 H 377.367 -1.29827 3.76018 0
M  V30 3815 H 374.106 -0.206135 6.55176 0
M  V30 3816 H 373.626 -1.71774 5.74677 0
M  V30 3817 H 375.305 -1.49046 6.29599 0
M  V30 3818 N 375.437 -1.54477 -0.31217 0
M  V30 3819 C 376.683 -1.73483 -1.0503 0
M  V30 3820 C 377.016 -0.513125 -1.87298 0
M  V30 3821 O 376.291 0.489864 -1.8823 0
M  V30 3822 C 376.574 -3.01723 -1.96558 0
M  V30 3823 C 376.427 -4.3417 -1.17545 0
M  V30 3824 C 377.746 -3.25772 -2.95907 0
M  V30 3825 H 374.865 -0.631222 -0.380432 0
M  V30 3826 H 377.507 -1.87184 -0.325932 0
M  V30 3827 H 375.657 -2.90174 -2.58324 0
M  V30 3828 H 377.329 -4.5762 -0.581513 0
M  V30 3829 H 375.572 -4.31159 -0.477925 0
M  V30 3830 H 376.243 -5.20143 -1.84811 0
M  V30 3831 H 378.719 -3.36857 -2.44267 0
M  V30 3832 H 377.595 -4.16838 -3.57123 0
M  V30 3833 H 377.856 -2.43537 -3.68974 0
M  V30 3834 N 376.915 0.57481 -1.46744 0
M  V30 3835 C 378.162 1.33272 -1.52462 0
M  V30 3836 C 378.49 1.93669 -0.179572 0
M  V30 3837 O 377.745 1.7743 0.825664 0
M  V30 3838 C 378.044 2.476 -2.57738 0
M  V30 3839 C 377.71 2.05146 -4.01529 0
M  V30 3840 C 376.372 1.93284 -4.40676 0
M  V30 3841 C 378.724 1.72506 -4.91824 0
M  V30 3842 C 376.052 1.47049 -5.67973 0
M  V30 3843 C 378.404 1.27748 -6.19567 0
M  V30 3844 C 377.068 1.14468 -6.57612 0
M  V30 3845 H 376.338 0.487678 -0.557899 0
M  V30 3846 H 378.985 0.646456 -1.80259 0
M  V30 3847 H 377.29 3.21708 -2.23632 0
M  V30 3848 H 378.987 3.05807 -2.5939 0
M  V30 3849 H 375.577 2.15316 -3.7059 0
M  V30 3850 H 379.761 1.80552 -4.62293 0
M  V30 3851 H 375.017 1.35417 -5.96215 0
M  V30 3852 H 379.191 1.01547 -6.88957 0
M  V30 3853 H 376.818 0.78419 -7.56145 0
M  V30 3854 N 378.394 1.34581 0.820102 0
M  V30 3855 C 379.671 1.17675 1.56244 0
M  V30 3856 C 380.051 -0.249541 2.0962 0
M  V30 3857 O 379.399 -1.25125 1.91196 0
M  V30 3858 C 379.609 2.23364 2.6816 0
M  V30 3859 C 380.957 2.58485 3.36854 0
M  V30 3860 O 381.981 2.22175 2.78418 0
M  V30 3861 O 380.84 3.20868 4.42386 0
M  V30 3862 H 377.934 0.456333 0.689702 0
M  V30 3863 H 380.48 1.46222 0.861231 0
M  V30 3864 H 379.252 3.19087 2.26493 0
M  V30 3865 H 378.875 1.96009 3.45928 0
M  V30 3866 N 379.872 -1.04064 1.18357 0
M  V30 3867 C 381.149 -1.74252 0.888581 0
M  V30 3868 C 381.529 -2.02138 -0.60856 0
M  V30 3869 O 380.877 -1.66656 -1.56327 0
M  V30 3870 C 381.087 -3.0277 1.73584 0
M  V30 3871 C 382.435 -3.76506 1.96286 0
M  V30 3872 O 383.459 -3.12668 1.70637 0
M  V30 3873 O 382.318 -4.91243 2.39464 0
M  V30 3874 H 379.412 -0.758271 0.330082 0
M  V30 3875 H 381.958 -1.1013 1.2911 0
M  V30 3876 H 380.73 -2.78299 2.75073 0
M  V30 3877 H 380.353 -3.74631 1.33183 0
M  V30 3878 N 381.35 -0.985608 -1.22978 0
M  V30 3879 C 382.313 -0.535071 -2.22867 0
M  V30 3880 C 383.313 0.378123 -1.56291 0
M  V30 3881 O 384.503 0.171092 -1.73358 0
M  V30 3882 C 381.635 0.222702 -3.40172 0
M  V30 3883 H 382.828 -1.41835 -2.6424 0
M  V30 3884 H 380.381 -0.772042 -1.35901 0
M  V30 3885 H 381.116 1.12229 -3.04262 0
M  V30 3886 H 380.901 -0.43288 -3.89703 0
M  V30 3887 H 382.391 0.526335 -4.1427 0
M  V30 3888 N 382.828 1.3818 -0.7579 0
M  V30 3889 C 384.105 1.94106 -0.241306 0
M  V30 3890 C 384.485 1.69282 1.26122 0
M  V30 3891 O 383.833 1.03378 2.03777 0
M  V30 3892 C 384.043 3.43809 -0.59967 0
M  V30 3893 C 385.391 4.20868 -0.561717 0
M  V30 3894 O 386.415 3.5211 -0.538222 0
M  V30 3895 O 385.274 5.43451 -0.576478 0
M  V30 3896 H 382.368 0.825376 -0.0518042 0
M  V30 3897 H 384.914 1.47548 -0.838315 0
M  V30 3898 H 383.686 3.55403 -1.6372 0
M  V30 3899 H 383.309 3.97592 0.0251197 0
M  V30 3900 N 384.306 0.507319 1.49211 0
M  V30 3901 C 385.555 -0.0368315 2.01666 0
M  V30 3902 C 385.868 -1.37459 1.39156 0
M  V30 3903 O 387.074 -2.00579 1.82976 0
M  V30 3904 C 385.53 -0.116089 3.59713 0
M  V30 3905 C 385.138 1.2154 4.31198 0
M  V30 3906 C 386.882 -0.610268 4.2009 0
M  V30 3907 C 384.789 1.09796 5.81119 0
M  V30 3908 H 383.719 -0.0175376 0.753796 0
M  V30 3909 H 386.37 0.647691 1.71689 0
M  V30 3910 H 384.752 -0.8652 3.86433 0
M  V30 3911 H 385.926 1.9783 4.16173 0
M  V30 3912 H 384.241 1.64352 3.82593 0
M  V30 3913 H 386.838 -0.715742 5.29888 0
M  V30 3914 H 387.181 -1.61064 3.8388 0
M  V30 3915 H 387.714 0.0824916 3.97714 0
M  V30 3916 H 384.453 2.0728 6.21864 0
M  V30 3917 H 383.973 0.376058 5.9862 0
M  V30 3918 H 385.652 0.779281 6.4229 0
M  V30 3919 N 385.784 -1.5574 0.241426 0
M  V30 3920 C 386.694 -2.2479 -0.671305 0
M  V30 3921 C 387.71 -1.26217 -1.19772 0
M  V30 3922 O 388.886 -1.59079 -1.23514 0
M  V30 3923 C 385.951 -2.92966 -1.85396 0
M  V30 3924 C 385.012 -4.06935 -1.36756 0
M  V30 3925 C 384.245 -4.71851 -2.49384 0
M  V30 3926 O 384.468 -4.35823 -3.67987 0
M  V30 3927 O 383.402 -5.60467 -2.19454 0
M  V30 3928 H 387.228 -3.0349 -0.112966 0
M  V30 3929 H 384.813 -1.49397 0.0101513 0
M  V30 3930 H 386.695 -3.35927 -2.54423 0
M  V30 3931 H 385.37 -2.17211 -2.40002 0
M  V30 3932 H 384.277 -3.68503 -0.644726 0
M  V30 3933 H 385.61 -4.84492 -0.867647 0
M  V30 3934 N 387.262 0.0317525 -1.57568 0
M  V30 3935 C 388.225 1.01783 -2.0536 0
M  V30 3936 C 389.225 1.29203 -0.957253 0
M  V30 3937 O 390.415 1.24251 -1.22095 0
M  V30 3938 C 387.547 2.35137 -2.46827 0
M  V30 3939 H 388.74 0.605062 -2.93733 0
M  V30 3940 H 386.293 0.278514 -1.53799 0
M  V30 3941 H 387.028 2.81168 -1.61602 0
M  V30 3942 H 386.813 2.16566 -3.26866 0
M  V30 3943 H 388.303 3.05938 -2.84239 0
M  V30 3944 N 388.74 1.54641 0.303973 0
M  V30 3945 C 389.986 1.74038 1.04109 0
M  V30 3946 C 390.319 0.523051 1.87024 0
M  V30 3947 O 389.594 -0.479874 1.88487 0
M  V30 3948 C 389.877 3.02761 1.94955 0
M  V30 3949 C 389.73 4.34787 1.1524 0
M  V30 3950 C 391.049 3.27336 2.94175 0
M  V30 3951 H 388.168 0.63323 0.377079 0
M  V30 3952 H 390.81 1.87354 0.316001 0
M  V30 3953 H 388.96 2.9154 2.56782 0
M  V30 3954 H 390.632 4.57922 0.557236 0
M  V30 3955 H 388.875 4.31407 0.455053 0
M  V30 3956 H 389.546 5.21116 1.8205 0
M  V30 3957 H 392.022 3.38148 2.42477 0
M  V30 3958 H 390.898 4.18726 3.54908 0
M  V30 3959 H 391.159 2.45491 3.67677 0
M  V30 3960 N 390.218 -0.567019 1.47046 0
M  V30 3961 C 391.464 -1.32658 1.53394 0
M  V30 3962 C 391.797 -1.93254 0.19148 0
M  V30 3963 O 391.072 -1.77338 -0.798844 0
M  V30 3964 C 391.355 -2.44412 2.64452 0
M  V30 3965 C 391.208 -1.88749 4.08282 0
M  V30 3966 C 392.527 -3.46387 2.71485 0
M  V30 3967 H 389.646 -0.48098 0.558415 0
M  V30 3968 H 392.288 -0.635481 1.79058 0
M  V30 3969 H 390.438 -3.03363 2.427 0
M  V30 3970 H 392.11 -1.34134 4.41368 0
M  V30 3971 H 390.353 -1.19481 4.17021 0
M  V30 3972 H 391.024 -2.69491 4.81745 0
M  V30 3973 H 393.5 -2.9734 2.91081 0
M  V30 3974 H 392.376 -4.2202 3.50985 0
M  V30 3975 H 392.637 -4.04616 1.78153 0
M  V30 3976 N 391.696 -1.35014 -0.812953 0
M  V30 3977 C 392.606 -1.2951 -1.95613 0
M  V30 3978 C 393.622 -0.20107 -1.72834 0
M  V30 3979 O 394.798 -0.42932 -1.96771 0
M  V30 3980 C 391.863 -1.06033 -3.30088 0
M  V30 3981 C 390.924 -2.24688 -3.65805 0
M  V30 3982 C 390.157 -2.02322 -4.93864 0
M  V30 3983 O 390.38 -0.986464 -5.61805 0
M  V30 3984 O 389.314 -2.89525 -5.27692 0
M  V30 3985 H 393.14 -2.25705 -2.03202 0
M  V30 3986 H 390.725 -1.15321 -0.949811 0
M  V30 3987 H 392.607 -0.94763 -4.10607 0
M  V30 3988 H 391.282 -0.128852 -3.23443 0
M  V30 3989 H 390.189 -2.41521 -2.85689 0
M  V30 3990 H 391.522 -3.16261 -3.77147 0
M  V30 3991 N 393.175 1.03435 -1.18907 0
M  V30 3992 C 394.423 1.76394 -0.986382 0
M  V30 3993 C 394.744 1.88883 0.484567 0
M  V30 3994 O 394.014 1.41843 1.3512 0
M  V30 3995 H 392.594 0.65344 -0.361975 0
M  V30 3996 H 395.256 1.248 -1.49703 0
M  V30 3997 H 394.352 2.77424 -1.42978 0
M  V30 3998 N 394.653 0.992116 1.22453 0
M  V30 3999 C 395.899 0.668523 1.91464 0
M  V30 4000 C 396.232 -0.797313 1.77078 0
M  V30 4001 O 395.507 -1.5765 1.13916 0
M  V30 4002 C 395.79 1.07424 3.43703 0
M  V30 4003 C 395.643 2.59857 3.67143 0
M  V30 4004 C 396.962 0.626891 4.35612 0
M  V30 4005 H 394.081 0.244341 0.695318 0
M  V30 4006 H 396.723 1.2355 1.44345 0
M  V30 4007 H 394.873 0.591816 3.83966 0
M  V30 4008 H 396.545 3.15764 3.3629 0
M  V30 4009 H 394.788 3.01961 3.11451 0
M  V30 4010 H 395.459 2.83296 4.73759 0
M  V30 4011 H 397.935 1.04125 4.02861 0
M  V30 4012 H 396.811 0.939076 5.40807 0
M  V30 4013 H 397.072 -0.472457 4.39568 0
M  V30 4014 N 396.131 -1.37776 0.765217 0
M  V30 4015 C 397.547 -1.53297 0.444108 0
M  V30 4016 C 397.747 -1.72515 -1.04119 0
M  V30 4017 O 396.803 -1.74278 -1.82711 0
M  V30 4018 C 398.116 -2.73328 1.25349 0
M  V30 4019 C 399.664 -2.87185 1.24473 0
M  V30 4020 C 400.139 -4.10191 2.03733 0
M  V30 4021 N 401.63 -4.17291 2.01053 0
M  V30 4022 C 402.365 -5.11488 2.59166 0
M  V30 4023 N 401.861 -6.11285 3.26041 0
M  V30 4024 N 403.654 -5.03924 2.49032 0
M  V30 4025 H 395.805 -1.23552 1.72768 0
M  V30 4026 H 398.068 -0.601103 0.733062 0
M  V30 4027 H 397.774 -2.6557 2.30577 0
M  V30 4028 H 397.648 -3.66834 0.87823 0
M  V30 4029 H 400.035 -2.94418 0.20047 0
M  V30 4030 H 400.116 -1.94657 1.65959 0
M  V30 4031 H 399.76 -4.0372 3.08176 0
M  V30 4032 H 399.69 -5.01821 1.59633 0
M  V30 4033 H 402.181 -3.45825 1.5236 0
M  V30 4034 H 402.494 -6.79678 3.67774 0
M  V30 4035 H 400.839 -6.11583 3.30138 0
M  V30 4036 H 404.03 -4.24902 1.96407 0
M  V30 4037 H 404.203 -5.77152 2.94617 0
M  V30 4038 N 397.609 -0.515225 -1.4894 0
M  V30 4039 C 398.837 0.0206034 -2.0689 0
M  V30 4040 C 399.252 1.29514 -1.37374 0
M  V30 4041 O 398.609 1.76698 -0.456529 0
M  V30 4042 C 398.66 0.26351 -3.60538 0
M  V30 4043 O 398.381 -0.960517 -4.27441 0
M  V30 4044 C 399.882 0.841383 -4.35242 0
M  V30 4045 H 397.102 -0.0268608 -0.670462 0
M  V30 4046 H 399.646 -0.716651 -1.91532 0
M  V30 4047 H 397.801 0.950777 -3.75552 0
M  V30 4048 H 398.215 -0.73212 -5.19365 0
M  V30 4049 H 399.689 0.96085 -5.43573 0
M  V30 4050 H 400.166 1.8427 -3.98674 0
M  V30 4051 H 400.772 0.191143 -4.2487 0
M  V30 4052 N 399.087 1.5561 -0.249682 0
M  V30 4053 C 400.334 1.99011 0.374287 0
M  V30 4054 C 400.662 1.13785 1.57744 0
M  V30 4055 O 399.917 0.189326 1.94782 0
M  V30 4056 C 400.216 3.4775 0.824887 0
M  V30 4057 C 399.882 4.50086 -0.270819 0
M  V30 4058 C 398.544 4.77791 -0.571746 0
M  V30 4059 C 400.896 5.11312 -1.01041 0
M  V30 4060 C 398.224 5.63997 -1.61629 0
M  V30 4061 C 400.576 5.98651 -2.0445 0
M  V30 4062 C 399.24 6.24688 -2.35204 0
M  V30 4063 H 398.51 0.728233 0.136961 0
M  V30 4064 H 401.157 1.88122 -0.358087 0
M  V30 4065 H 399.462 3.55985 1.63651 0
M  V30 4066 H 401.159 3.78721 1.31799 0
M  V30 4067 H 397.749 4.28592 -0.026136 0
M  V30 4068 H 401.933 4.89953 -0.791177 0
M  V30 4069 H 397.189 5.82425 -1.85988 0
M  V30 4070 H 401.363 6.45135 -2.62248 0
M  V30 4071 H 398.99 6.91281 -3.16282 0
M  V30 4072 N 400.565 -0.0233959 1.57583 0
M  V30 4073 C 401.813 -0.711654 1.89156 0
M  V30 4074 C 402.134 -1.75591 0.848096 0
M  V30 4075 O 401.404 -1.95547 -0.117566 0
M  V30 4076 H 399.984 -0.265835 0.698098 0
M  V30 4077 H 402.646 0.0119948 1.94896 0
M  V30 4078 H 401.742 -1.19766 2.88206 0
M  V30 4079 N 402.043 -1.548 -0.295768 0
M  V30 4080 C 403.273 -1.78069 -1.04762 0
M  V30 4081 C 403.681 -0.542847 -1.81245 0
M  V30 4082 O 403.024 0.497051 -1.76848 0
M  V30 4083 C 403.086 -2.93881 -2.07061 0
M  V30 4084 C 402.75 -4.31777 -1.49725 0
M  V30 4085 C 403.747 -5.11613 -0.924581 0
M  V30 4086 C 401.432 -4.78389 -1.5313 0
M  V30 4087 C 403.426 -6.36184 -0.393594 0
M  V30 4088 C 401.113 -6.02921 -0.996447 0
M  V30 4089 C 402.111 -6.81654 -0.428569 0
M  V30 4090 O 401.799 -8.0384 0.0981593 0
M  V30 4091 H 401.531 -0.597475 -0.316226 0
M  V30 4092 H 404.085 -2.02584 -0.338973 0
M  V30 4093 H 402.315 -2.65003 -2.81621 0
M  V30 4094 H 404.004 -3.04679 -2.6819 0
M  V30 4095 H 404.77 -4.76743 -0.891136 0
M  V30 4096 H 400.649 -4.17132 -1.9627 0
M  V30 4097 H 404.193 -6.97582 0.0503014 0
M  V30 4098 H 400.09 -6.37277 -1.02706 0
M  V30 4099 H 400.858 -8.18499 -0.0146455 0
M  V30 4100 N 403.521 0.559213 -1.47345 0
M  V30 4101 C 404.751 1.33999 -1.57251 0
M  V30 4102 C 405.159 1.87905 -0.220978 0
M  V30 4103 O 404.502 1.65577 0.795617 0
M  V30 4104 C 404.564 2.54798 -2.53611 0
M  V30 4105 C 404.228 2.22192 -3.99349 0
M  V30 4106 C 405.225 1.79607 -4.87891 0
M  V30 4107 C 402.91 2.33613 -4.44669 0
M  V30 4108 C 404.904 1.48868 -6.19772 0
M  V30 4109 C 402.591 2.02487 -5.76578 0
M  V30 4110 C 403.589 1.60183 -6.63951 0
M  V30 4111 O 403.277 1.29451 -7.93409 0
M  V30 4112 H 403.009 0.414858 -0.533731 0
M  V30 4113 H 405.563 0.684465 -1.9366 0
M  V30 4114 H 403.793 3.23235 -2.12265 0
M  V30 4115 H 405.482 3.16873 -2.53666 0
M  V30 4116 H 406.248 1.70278 -4.54126 0
M  V30 4117 H 402.127 2.65501 -3.76869 0
M  V30 4118 H 405.671 1.15775 -6.87926 0
M  V30 4119 H 401.568 2.11448 -6.09885 0
M  V30 4120 H 402.336 1.43098 -8.05894 0
M  V30 4121 N 404.999 1.35443 0.805782 0
M  V30 4122 C 405.947 1.28465 1.93906 0
M  V30 4123 C 406.941 0.17943 1.68447 0
M  V30 4124 O 408.147 0.345459 1.76654 0
M  V30 4125 H 404.522 0.399528 0.637088 0
M  V30 4126 H 406.493 2.24206 1.96912 0
M  V30 4127 C 405.242 1.07432 3.30687 0
M  V30 4128 H 404.565 1.91716 3.50835 0
M  V30 4129 H 406.005 1.06591 4.10383 0
M  V30 4130 C 404.464 -0.22179 3.36169 0
M  V30 4131 O 404.994 -1.21731 3.82811 0
M  V30 4132 N 403.2 -0.260841 2.89427 0
M  V30 4133 H 402.747 0.549884 2.51663 0
M  V30 4134 H 402.705 -1.12777 2.93477 0
M  V30 4135 N 406.477 -1.02803 1.19454 0
M  V30 4136 C 407.44 -2.09264 0.934955 0
M  V30 4137 C 408.44 -1.60576 -0.0849015 0
M  V30 4138 O 409.63 -1.73554 0.149933 0
M  V30 4139 C 406.762 -3.38482 0.40531 0
M  V30 4140 H 407.955 -2.33726 1.87916 0
M  V30 4141 H 405.508 -1.19426 1.00832 0
M  V30 4142 H 406.243 -3.19689 -0.544899 0
M  V30 4143 H 406.028 -3.75142 1.14065 0
M  V30 4144 H 407.518 -4.16894 0.242806 0
M  V30 4145 N 407.956 -0.998596 -1.21925 0
M  V30 4146 C 409.204 -0.676325 -1.90448 0
M  V30 4147 C 409.525 0.794719 -1.78071 0
M  V30 4148 O 408.795 1.5701 -1.17152 0
M  V30 4149 H 407.375 -0.247165 -0.704925 0
M  V30 4150 H 410.037 -1.26633 -1.48156 0
M  V30 4151 H 409.133 -0.943858 -2.97486 0
M  V30 4152 N 409.434 1.37368 -0.772513 0
M  V30 4153 C 410.366 2.28899 -0.117502 0
M  V30 4154 C 411.379 1.4867 0.663405 0
M  V30 4155 O 412.568 1.71314 0.501372 0
M  V30 4156 C 409.668 3.2788 0.857192 0
M  V30 4157 C 408.841 4.37207 0.129938 0
M  V30 4158 C 407.9 5.16257 1.01811 0
M  V30 4159 O 406.926 5.67159 0.481601 0
M  V30 4160 N 408.128 5.31058 2.3443 0
M  V30 4161 H 410.893 2.85752 -0.903662 0
M  V30 4162 H 408.454 1.49353 -0.62493 0
M  V30 4163 H 410.446 3.77647 1.45482 0
M  V30 4164 H 409.016 2.7179 1.54432 0
M  V30 4165 H 408.236 3.88827 -0.648605 0
M  V30 4166 H 409.524 5.07434 -0.372559 0
M  V30 4167 H 408.922 4.91287 2.80452 0
M  V30 4168 H 407.479 5.84131 2.89197 0
M  V30 4169 N 410.912 0.523116 1.48665 0
M  V30 4170 C 412.189 -0.0775449 1.95446 0
M  V30 4171 C 412.569 -1.5197 1.4652 0
M  V30 4172 O 411.917 -2.17876 0.688657 0
M  V30 4173 C 412.127 0.0326135 3.48985 0
M  V30 4174 C 413.475 -0.130141 4.24401 0
M  V30 4175 O 414.499 -0.0415142 3.56176 0
M  V30 4176 O 413.358 -0.31491 5.45592 0
M  V30 4177 H 410.452 -0.0831012 0.822814 0
M  V30 4178 H 412.998 0.587227 1.59216 0
M  V30 4179 H 411.77 1.03748 3.77296 0
M  V30 4180 H 411.393 -0.671317 3.91892 0
M  V30 4181 N 412.39 -1.55475 0.257931 0
M  V30 4182 C 413.63 -2.01112 -0.365129 0
M  V30 4183 C 413.994 -1.1423 -1.54323 0
M  V30 4184 O 415.195 -1.49371 -2.23477 0
M  V30 4185 C 413.466 -3.49353 -0.754117 0
M  V30 4186 S 415.025 -4.16992 -1.36614 0
M  V30 4187 H 411.843 -0.701737 -0.114397 0
M  V30 4188 H 414.445 -1.91855 0.375747 0
M  V30 4189 H 413.149 -4.10246 0.112441 0
M  V30 4190 H 412.68 -3.6256 -1.52689 0
M  V30 4191 H 414.695 -4.19191 -2.65505 0
M  V30 4192 N 413.868 0.0150385 -1.57593 0
M  V30 4193 C 415.096 0.714395 -1.94175 0
M  V30 4194 C 415.511 1.68135 -0.858841 0
M  V30 4195 O 414.868 1.81766 0.163567 0
M  V30 4196 C 414.919 1.45933 -3.30735 0
M  V30 4197 O 414.64 0.531167 -4.34868 0
M  V30 4198 C 416.141 2.25456 -3.81686 0
M  V30 4199 H 413.361 0.199923 -0.640525 0
M  V30 4200 H 415.905 -0.0316096 -2.04476 0
M  V30 4201 H 414.06 2.15709 -3.21789 0
M  V30 4202 H 414.474 1.05509 -5.13778 0
M  V30 4203 H 415.948 2.731 -4.79709 0
M  V30 4204 H 416.425 3.07485 -3.13607 0
M  V30 4205 H 417.031 1.60727 -3.9376 0
M  V30 4206 N 415.346 1.54954 0.287554 0
M  V30 4207 C 416.309 1.86076 1.33823 0
M  V30 4208 C 417.309 0.734414 1.43049 0
M  V30 4209 O 418.499 1.00266 1.42452 0
M  V30 4210 C 415.631 2.05305 2.72144 0
M  V30 4211 H 416.824 2.79984 1.07465 0
M  V30 4212 H 414.377 1.47223 0.524902 0
M  V30 4213 H 415.112 1.1373 3.03704 0
M  V30 4214 H 414.897 2.873 2.66836 0
M  V30 4215 H 416.387 2.30706 3.48087 0
M  V30 4216 N 416.824 -0.551391 1.4764 0
M  V30 4217 C 417.787 -1.64007 1.60107 0
M  V30 4218 C 418.787 -1.53601 0.47576 0
M  V30 4219 O 419.977 -1.57655 0.740988 0
M  V30 4220 C 417.109 -3.03569 1.55108 0
M  V30 4221 H 418.302 -1.543 2.57161 0
M  V30 4222 H 415.855 -0.771776 1.35917 0
M  V30 4223 H 416.59 -3.18804 0.594519 0
M  V30 4224 H 416.375 -3.12532 2.36783 0
M  V30 4225 H 417.865 -3.82762 1.66982 0
M  V30 4226 N 418.302 -1.35869 -0.798587 0
M  V30 4227 C 419.542 -1.30961 -1.56935 0
M  V30 4228 C 419.906 0.112404 -1.91671 0
M  V30 4229 O 421.107 0.285937 -2.67275 0
M  V30 4230 C 419.378 -2.19811 -2.81811 0
M  V30 4231 S 420.937 -2.32498 -3.72143 0
M  V30 4232 H 417.755 -0.465297 -0.537606 0
M  V30 4233 H 420.357 -1.71344 -0.941346 0
M  V30 4234 H 419.061 -3.22095 -2.54329 0
M  V30 4235 H 418.592 -1.80415 -3.49591 0
M  V30 4236 H 420.607 -1.5157 -4.72484 0
M  V30 4237 N 419.78 1.02168 -1.19998 0
M  V30 4238 C 421.196 1.27969 -0.953737 0
M  V30 4239 C 421.396 1.98079 0.369703 0
M  V30 4240 O 420.452 2.27306 1.09947 0
M  V30 4241 C 421.765 2.11971 -2.13281 0
M  V30 4242 C 423.313 2.25255 -2.17323 0
M  V30 4243 C 423.788 3.12632 -3.34702 0
M  V30 4244 N 425.279 3.2022 -3.34684 0
M  V30 4245 C 426.014 3.88039 -4.22153 0
M  V30 4246 N 425.51 4.58027 -5.19791 0
M  V30 4247 N 427.303 3.84511 -4.10009 0
M  V30 4248 H 419.454 0.550794 -2.05134 0
M  V30 4249 H 421.717 0.305683 -0.897364 0
M  V30 4250 H 421.423 1.67785 -3.09097 0
M  V30 4251 H 421.297 3.12699 -2.10949 0
M  V30 4252 H 423.684 2.68667 -1.22073 0
M  V30 4253 H 423.765 1.24053 -2.23706 0
M  V30 4254 H 423.409 2.69926 -4.30235 0
M  V30 4255 H 423.339 4.13909 -3.25556 0
M  V30 4256 H 425.83 2.70382 -2.64012 0
M  V30 4257 H 426.143 5.07429 -5.82868 0
M  V30 4258 H 424.488 4.56869 -5.23733 0
M  V30 4259 H 427.679 3.28978 -3.33003 0
M  V30 4260 H 427.852 4.3709 -4.78389 0
M  V30 4261 N 421.258 1.00505 1.21394 0
M  V30 4262 C 422.507 0.683159 1.89778 0
M  V30 4263 C 422.82 -0.789471 1.7896 0
M  V30 4264 O 424.026 -1.22344 2.42372 0
M  V30 4265 C 422.482 1.17146 3.40301 0
M  V30 4266 C 422.09 2.67017 3.5973 0
M  V30 4267 C 423.834 0.924461 4.14311 0
M  V30 4268 C 421.741 3.09387 5.04017 0
M  V30 4269 H 420.671 0.25183 0.710702 0
M  V30 4270 H 423.322 1.21622 1.37406 0
M  V30 4271 H 421.704 0.566451 3.91928 0
M  V30 4272 H 422.878 3.32968 3.18542 0
M  V30 4273 H 421.193 2.89732 2.99073 0
M  V30 4274 H 423.79 1.21658 5.20676 0
M  V30 4275 H 424.133 -0.139286 4.16067 0
M  V30 4276 H 424.666 1.49226 3.6875 0
M  V30 4277 H 421.405 4.14989 5.07409 0
M  V30 4278 H 420.925 2.48149 5.46061 0
M  V30 4279 H 422.604 3.01371 5.72525 0
M  V30 4280 N 422.737 -1.36956 0.779787 0
M  V30 4281 C 423.967 -2.03459 0.358877 0
M  V30 4282 C 424.375 -1.58939 -1.02641 0
M  V30 4283 O 423.718 -0.769777 -1.66794 0
M  V30 4284 C 423.78 -3.5796 0.332393 0
M  V30 4285 C 423.444 -4.25644 1.66362 0
M  V30 4286 C 424.441 -4.49205 2.61746 0
M  V30 4287 C 422.126 -4.63313 1.94027 0
M  V30 4288 C 424.12 -5.09503 3.82996 0
M  V30 4289 C 421.807 -5.2333 3.15546 0
M  V30 4290 C 422.805 -5.46363 4.0985 0
M  V30 4291 O 422.493 -6.05122 5.29228 0
M  V30 4292 H 422.225 -0.659767 0.147254 0
M  V30 4293 H 424.779 -1.76111 1.05708 0
M  V30 4294 H 423.009 -3.84388 -0.422237 0
M  V30 4295 H 424.698 -4.05852 -0.0625389 0
M  V30 4296 H 425.464 -4.20508 2.41657 0
M  V30 4297 H 421.343 -4.44715 1.21448 0
M  V30 4298 H 424.887 -5.27397 4.56617 0
M  V30 4299 H 420.784 -5.51451 3.35517 0
M  V30 4300 H 421.552 -6.23595 5.30161 0
M  V30 4301 N 424.215 -0.530993 -1.48385 0
M  V30 4302 C 425.178 0.220497 -2.28137 0
M  V30 4303 C 426.178 0.866851 -1.35434 0
M  V30 4304 O 427.368 0.726746 -1.58316 0
M  V30 4305 C 424.5 1.31921 -3.1434 0
M  V30 4306 H 425.693 -0.479714 -2.96038 0
M  V30 4307 H 423.246 -0.286968 -1.53643 0
M  V30 4308 H 423.981 2.05264 -2.51072 0
M  V30 4309 H 423.766 0.86085 -3.82533 0
M  V30 4310 H 425.256 1.84776 -3.74497 0
M  V30 4311 N 425.693 1.55336 -0.266172 0
M  V30 4312 C 426.625 2.19544 0.658247 0
M  V30 4313 C 427.638 1.17746 1.12427 0
M  V30 4314 O 428.827 1.44517 1.04772 0
M  V30 4315 C 425.927 2.80032 1.9088 0
M  V30 4316 C 425.1 4.07436 1.59106 0
M  V30 4317 C 424.159 4.52056 2.69317 0
M  V30 4318 O 423.185 5.18023 2.35883 0
M  V30 4319 N 424.387 4.21448 3.99201 0
M  V30 4320 H 427.152 2.99503 0.108754 0
M  V30 4321 H 424.713 1.61667 -0.0869059 0
M  V30 4322 H 426.705 3.06831 2.63888 0
M  V30 4323 H 425.275 2.04119 2.36758 0
M  V30 4324 H 424.495 3.88021 0.695243 0
M  V30 4325 H 425.783 4.90462 1.35367 0
M  V30 4326 H 425.181 3.68528 4.29189 0
M  V30 4327 H 423.738 4.53039 4.68614 0
M  V30 4328 N 427.171 -0.0066808 1.57599 0
M  V30 4329 C 428.118 -1.00024 2.08 0
M  V30 4330 C 429.088 -1.34549 0.973943 0
M  V30 4331 O 430.273 -1.44502 1.24595 0
M  V30 4332 C 427.413 -2.2891 2.58252 0
M  V30 4333 C 426.526 -2.00346 3.82734 0
M  V30 4334 C 425.661 -3.23265 4.21513 0
M  V30 4335 C 424.7 -2.90357 5.3885 0
M  V30 4336 N 423.837 -4.05793 5.72954 0
M  V30 4337 H 428.677 -0.563499 2.92624 0
M  V30 4338 H 426.214 -0.266592 1.44664 0
M  V30 4339 H 428.172 -3.04247 2.85464 0
M  V30 4340 H 426.802 -2.70265 1.76512 0
M  V30 4341 H 425.854 -1.15406 3.62471 0
M  V30 4342 H 427.166 -1.72086 4.68175 0
M  V30 4343 H 426.32 -4.06953 4.49971 0
M  V30 4344 H 425.059 -3.54657 3.34768 0
M  V30 4345 H 424.064 -2.05075 5.10122 0
M  V30 4346 H 425.289 -2.60219 6.27266 0
M  V30 4347 H 423.235 -4.37094 4.89167 0
M  V30 4348 H 423.152 -3.81034 6.52954 0
M  V30 4349 H 424.42 -4.90289 6.06001 0
M  V30 4350 N 428.649 -1.55105 -0.279332 0
M  V30 4351 C 429.897 -1.75066 -1.00977 0
M  V30 4352 C 430.218 -0.551276 -1.87045 0
M  V30 4353 O 429.488 0.433984 -1.91032 0
M  V30 4354 H 428.068 -0.645578 -0.375816 0
M  V30 4355 H 430.73 -1.92497 -0.305089 0
M  V30 4356 H 429.826 -2.64894 -1.65038 0
M  V30 4357 N 430.127 0.543554 -1.4793 0
M  V30 4358 C 431.376 1.29649 -1.54512 0
M  V30 4359 C 431.689 1.94382 -0.217973 0
M  V30 4360 O 432.895 2.71017 -0.161908 0
M  V30 4361 C 431.351 2.35175 -2.72435 0
M  V30 4362 C 430.959 1.76572 -4.11736 0
M  V30 4363 C 432.703 3.11564 -2.8832 0
M  V30 4364 C 430.61 2.79958 -5.20939 0
M  V30 4365 H 429.54 0.487541 -0.57517 0
M  V30 4366 H 432.191 0.575708 -1.74235 0
M  V30 4367 H 430.573 3.10229 -2.46118 0
M  V30 4368 H 431.747 1.07799 -4.48013 0
M  V30 4369 H 430.062 1.12722 -4.00852 0
M  V30 4370 H 432.659 3.88794 -3.67074 0
M  V30 4371 H 433.002 3.66594 -1.97268 0
M  V30 4372 H 433.535 2.43623 -3.14472 0
M  V30 4373 H 430.274 2.29766 -6.13912 0
M  V30 4374 H 429.794 3.47101 -4.89164 0
M  V30 4375 H 431.473 3.43198 -5.48474 0
M  V30 4376 N 431.605 1.3629 0.791371 0
M  V30 4377 C 432.835 1.33368 1.57786 0
M  V30 4378 C 433.243 -0.0875188 1.88997 0
M  V30 4379 O 432.586 -1.05427 1.50435 0
M  V30 4380 C 432.648 2.08802 2.92646 0
M  V30 4381 C 432.312 3.57903 2.84174 0
M  V30 4382 C 433.309 4.52191 2.56553 0
M  V30 4383 C 430.994 4.00762 3.02812 0
M  V30 4384 C 432.988 5.87315 2.47669 0
M  V30 4385 C 430.675 5.35977 2.93551 0
M  V30 4386 C 431.673 6.29066 2.66017 0
M  V30 4387 O 431.361 7.61798 2.56746 0
M  V30 4388 H 431.093 0.459166 0.496128 0
M  V30 4389 H 433.647 1.79952 0.990269 0
M  V30 4390 H 431.877 1.56878 3.53449 0
M  V30 4391 H 433.566 1.98762 3.53904 0
M  V30 4392 H 434.332 4.20393 2.41858 0
M  V30 4393 H 430.211 3.2868 3.2325 0
M  V30 4394 H 433.755 6.59943 2.26099 0
M  V30 4395 H 429.652 5.67384 3.07808 0
M  V30 4396 H 430.42 7.71898 2.72242 0
M  V30 4397 N 433.083 -1.0153 1.20538 0
M  V30 4398 C 434.36 -1.72327 0.925343 0
M  V30 4399 C 434.74 -2.03383 -0.565547 0
M  V30 4400 O 434.088 -1.69934 -1.52757 0
M  V30 4401 C 434.298 -2.9902 1.79967 0
M  V30 4402 C 435.646 -3.72258 2.04228 0
M  V30 4403 O 436.67 -3.08979 1.77231 0
M  V30 4404 O 435.529 -4.86053 2.4983 0
M  V30 4405 H 432.623 -0.751099 0.346092 0
M  V30 4406 H 435.169 -1.07366 1.31417 0
M  V30 4407 H 433.941 -2.72402 2.80915 0
M  V30 4408 H 433.564 -3.71721 1.41099 0
M  V30 4409 N 434.561 -1.01147 -1.20859 0
M  V30 4410 C 435.789 -0.716911 -1.94082 0
M  V30 4411 C 436.204 0.721568 -1.74467 0
M  V30 4412 O 435.561 1.48889 -1.05539 0
M  V30 4413 C 435.612 -1.03662 -3.46318 0
M  V30 4414 O 435.333 -2.4186 -3.65288 0
M  V30 4415 C 436.834 -0.762386 -4.36695 0
M  V30 4416 H 434.054 -0.26367 -0.617024 0
M  V30 4417 H 436.598 -1.35127 -1.53496 0
M  V30 4418 H 434.753 -0.447757 -3.84804 0
M  V30 4419 H 435.167 -2.53224 -4.59323 0
M  V30 4420 H 436.641 -1.03621 -5.42187 0
M  V30 4421 H 437.118 0.303514 -4.3815 0
M  V30 4422 H 437.724 -1.33316 -4.03865 0
M  V30 4423 N 436.039 1.36541 -0.78704 0
M  V30 4424 C 436.969 2.32659 -0.197992 0
M  V30 4425 C 437.95 1.56533 0.665697 0
M  V30 4426 O 439.135 1.84698 0.60001 0
M  V30 4427 C 436.265 3.40778 0.669901 0
M  V30 4428 C 435.219 4.27897 -0.0937039 0
M  V30 4429 C 434.545 5.27163 0.894629 0
M  V30 4430 C 435.845 5.06334 -1.28154 0
M  V30 4431 H 437.539 2.82171 -1.00099 0
M  V30 4432 H 435.085 1.35665 -0.482793 0
M  V30 4433 H 437.038 4.07008 1.09191 0
M  V30 4434 H 435.762 2.89827 1.50558 0
M  V30 4435 H 434.421 3.6322 -0.49666 0
M  V30 4436 H 434.069 4.72486 1.72527 0
M  V30 4437 H 433.769 5.86317 0.388149 0
M  V30 4438 H 435.293 5.96266 1.31525 0
M  V30 4439 H 436.707 5.65617 -0.93541 0
M  V30 4440 H 435.104 5.74888 -1.72115 0
M  V30 4441 H 436.174 4.38114 -2.07807 0
M  V30 4442 N 437.518 0.538854 1.48102 0
M  V30 4443 C 438.764 0.00801365 2.02798 0
M  V30 4444 C 439.097 -1.3309 1.41424 0
M  V30 4445 O 438.372 -1.86169 0.563158 0
M  V30 4446 C 438.655 -0.104589 3.59948 0
M  V30 4447 C 438.508 1.26012 4.31788 0
M  V30 4448 C 439.827 -0.827055 4.32259 0
M  V30 4449 H 436.946 0.00438624 0.736987 0
M  V30 4450 H 439.588 0.6976 1.7673 0
M  V30 4451 H 437.738 -0.691893 3.82289 0
M  V30 4452 H 439.41 1.88922 4.2084 0
M  V30 4453 H 437.653 1.83968 3.92859 0
M  V30 4454 H 438.324 1.13424 5.40221 0
M  V30 4455 H 440.8 -0.328578 4.14801 0
M  V30 4456 H 439.676 -0.87476 5.41885 0
M  V30 4457 H 439.937 -1.87927 4.0017 0
M  V30 4458 N 438.996 -1.55193 0.274407 0
M  V30 4459 C 439.906 -2.26164 -0.623473 0
M  V30 4460 C 440.922 -1.28729 -1.17068 0
M  V30 4461 O 442.098 -1.61663 -1.20112 0
M  V30 4462 C 439.163 -2.96833 -1.7914 0
M  V30 4463 C 438.224 -4.09745 -1.28093 0
M  V30 4464 C 437.457 -4.77034 -2.3932 0
M  V30 4465 O 437.68 -4.4353 -3.5866 0
M  V30 4466 O 436.614 -5.64996 -2.07516 0
M  V30 4467 H 440.44 -3.03661 -0.0485661 0
M  V30 4468 H 438.025 -1.49341 0.0418382 0
M  V30 4469 H 439.907 -3.41248 -2.4724 0
M  V30 4470 H 438.582 -2.22253 -2.35341 0
M  V30 4471 H 437.489 -3.69787 -0.566416 0
M  V30 4472 H 438.822 -4.86224 -0.764683 0
M  V30 4473 N 440.474 -0.00167713 -1.576 0
M  V30 4474 C 441.421 0.989195 -2.08527 0
M  V30 4475 C 442.391 1.34031 -0.981065 0
M  V30 4476 O 443.576 1.43839 -1.2536 0
M  V30 4477 C 440.716 2.27537 -2.59463 0
M  V30 4478 C 439.829 1.98314 -3.83791 0
M  V30 4479 C 438.964 3.21025 -4.23222 0
M  V30 4480 C 438.003 2.87495 -5.40382 0
M  V30 4481 N 437.14 4.02749 -5.75098 0
M  V30 4482 H 441.98 0.547973 -2.92919 0
M  V30 4483 H 439.517 0.258917 -1.44803 0
M  V30 4484 H 441.475 3.02729 -2.87073 0
M  V30 4485 H 440.105 2.69325 -1.77943 0
M  V30 4486 H 439.157 1.13482 -3.63078 0
M  V30 4487 H 440.469 1.69601 -4.69081 0
M  V30 4488 H 439.623 4.04561 -4.52123 0
M  V30 4489 H 438.362 3.52877 -3.36644 0
M  V30 4490 H 437.367 2.02367 -5.11202 0
M  V30 4491 H 438.592 2.56889 -6.28637 0
M  V30 4492 H 436.538 4.34494 -4.91478 0
M  V30 4493 H 436.455 3.77566 -6.54966 0
M  V30 4494 H 437.723 4.87068 -6.08592 0
M  V30 4495 N 441.952 1.55251 0.271103 0
M  V30 4496 C 442.882 1.9127 1.33933 0
M  V30 4497 C 443.863 0.77478 1.5143 0
M  V30 4498 O 445.048 1.03307 1.64442 0
M  V30 4499 C 442.178 2.18627 2.69851 0
M  V30 4500 C 441.132 3.34442 2.67081 0
M  V30 4501 C 440.458 3.47284 4.06569 0
M  V30 4502 C 441.758 4.70784 2.26185 0
M  V30 4503 H 443.452 2.80744 1.04035 0
M  V30 4504 H 440.998 1.35077 0.499017 0
M  V30 4505 H 442.951 2.42413 3.44694 0
M  V30 4506 H 441.675 1.25955 3.01335 0
M  V30 4507 H 440.334 3.10627 1.94695 0
M  V30 4508 H 439.982 2.52074 4.35279 0
M  V30 4509 H 439.682 4.25152 4.0561 0
M  V30 4510 H 441.206 3.73363 4.83148 0
M  V30 4511 H 442.62 4.94102 2.90751 0
M  V30 4512 H 441.017 5.51582 2.36384 0
M  V30 4513 H 442.087 4.69478 1.21319 0
M  V30 4514 N 443.43 -0.535701 1.48216 0
M  V30 4515 C 444.678 -1.28928 1.55634 0
M  V30 4516 C 444.999 -1.93645 0.229514 0
M  V30 4517 O 444.269 -1.81038 -0.74846 0
M  V30 4518 H 442.849 -0.47884 0.573342 0
M  V30 4519 H 445.511 -0.623853 1.84646 0
M  V30 4520 H 444.607 -2.07157 2.33436 0
M  V30 4521 N 444.908 -1.36708 -0.784132 0
M  V30 4522 C 445.871 -1.31307 -1.87859 0
M  V30 4523 C 446.871 -0.219654 -1.59293 0
M  V30 4524 O 448.061 -0.47476 -1.67606 0
M  V30 4525 C 445.193 -1.03679 -3.24751 0
M  V30 4526 H 446.386 -2.28647 -1.94064 0
M  V30 4527 H 443.939 -1.21558 -0.98252 0
M  V30 4528 H 444.674 -0.0681936 -3.24228 0
M  V30 4529 H 444.459 -1.82811 -3.46876 0
M  V30 4530 H 445.949 -1.02518 -4.04821 0
M  V30 4531 N 446.386 1.0089 -1.21074 0
M  V30 4532 C 447.349 2.0775 -0.968129 0
M  V30 4533 C 448.349 1.6069 0.0593445 0
M  V30 4534 O 449.539 1.73293 -0.177525 0
M  V30 4535 C 446.671 3.37794 -0.459108 0
M  V30 4536 H 447.864 2.30707 -1.9161 0
M  V30 4537 H 445.417 1.17807 -1.02719 0
M  V30 4538 H 446.152 3.20516 0.49397 0
M  V30 4539 H 445.937 3.7328 -1.20019 0
M  V30 4540 H 447.427 4.16454 -0.309099 0
M  V30 4541 N 447.864 1.01787 1.20321 0
M  V30 4542 C 449.11 0.708985 1.90003 0
M  V30 4543 C 449.443 -0.759572 1.78729 0
M  V30 4544 O 448.718 -1.55198 1.17234 0
M  V30 4545 C 449.001 1.1469 3.41348 0
M  V30 4546 C 448.854 2.67586 3.61549 0
M  V30 4547 C 450.173 0.71915 4.34185 0
M  V30 4548 H 447.292 0.259034 0.689978 0
M  V30 4549 H 449.934 1.26584 1.41692 0
M  V30 4550 H 448.084 0.673128 3.82624 0
M  V30 4551 H 449.756 3.22826 3.29517 0
M  V30 4552 H 447.999 3.085 3.04976 0
M  V30 4553 H 448.67 2.93281 4.67643 0
M  V30 4554 H 451.146 1.12647 4.00562 0
M  V30 4555 H 450.022 1.05358 5.38694 0
M  V30 4556 H 450.283 -0.379111 4.40472 0
M  V30 4557 N 449.342 -1.36122 0.79427 0
M  V30 4558 C 450.305 -2.28309 0.201889 0
M  V30 4559 C 451.305 -1.49041 -0.603603 0
M  V30 4560 O 452.495 -1.68964 -0.423888 0
M  V30 4561 C 449.627 -3.3321 -0.719978 0
M  V30 4562 H 450.82 -2.82208 1.01481 0
M  V30 4563 H 448.373 -1.45768 0.564037 0
M  V30 4564 H 449.108 -2.84475 -1.55706 0
M  V30 4565 H 448.893 -3.91835 -0.144266 0
M  V30 4566 H 450.383 -4.02044 -1.12916 0
M  V30 4567 N 450.82 -0.546701 -1.47814 0
M  V30 4568 C 452.048 -0.0232857 -2.06887 0
M  V30 4569 C 452.463 1.26571 -1.4009 0
M  V30 4570 O 451.82 1.7569 -0.493906 0
M  V30 4571 C 451.871 0.186975 -3.61016 0
M  V30 4572 O 451.592 -1.05097 -4.25307 0
M  V30 4573 C 453.093 0.748872 -4.36929 0
M  V30 4574 H 450.313 -0.0410763 -0.669742 0
M  V30 4575 H 452.857 -0.757117 -1.89968 0
M  V30 4576 H 451.012 0.870903 -3.77484 0
M  V30 4577 H 451.426 -0.842121 -5.17695 0
M  V30 4578 H 452.9 0.845334 -5.45489 0
M  V30 4579 H 453.377 1.75772 -4.02493 0
M  V30 4580 H 453.983 0.100979 -4.2518 0
M  V30 4581 N 452.299 1.55045 -0.282633 0
M  V30 4582 C 453.229 2.2579 0.595066 0
M  V30 4583 C 454.21 1.25074 1.15284 0
M  V30 4584 O 455.395 1.5381 1.18559 0
M  V30 4585 C 452.525 2.98472 1.77572 0
M  V30 4586 C 451.479 4.0618 1.34914 0
M  V30 4587 C 450.805 4.66477 2.6135 0
M  V30 4588 C 452.105 5.1996 0.493821 0
M  V30 4589 H 453.799 2.994 0.00505653 0
M  V30 4590 H 451.345 1.44 0.000992001 0
M  V30 4591 H 453.298 3.46677 2.39568 0
M  V30 4592 H 452.022 2.2241 2.39168 0
M  V30 4593 H 450.681 3.58797 0.752338 0
M  V30 4594 H 450.329 3.87074 3.2122 0
M  V30 4595 H 450.029 5.39207 2.33516 0
M  V30 4596 H 451.553 5.17435 3.24181 0
M  V30 4597 H 452.967 5.64172 1.01898 0
M  V30 4598 H 451.364 5.99299 0.310047 0
M  V30 4599 H 452.434 4.82462 -0.485593 0
M  V30 4600 N 453.777 0.010035 1.57597 0
M  V30 4601 C 454.724 -0.978122 2.09049 0
M  V30 4602 C 455.694 -1.33509 0.988159 0
M  V30 4603 O 456.879 -1.43172 1.26121 0
M  V30 4604 C 454.019 -2.26158 2.60666 0
M  V30 4605 C 453.132 -1.96275 3.84838 0
M  V30 4606 C 452.267 -3.18776 4.24918 0
M  V30 4607 C 451.306 -2.84625 5.41899 0
M  V30 4608 N 450.443 -3.99693 5.77226 0
M  V30 4609 H 455.283 -0.532431 2.93205 0
M  V30 4610 H 452.82 -0.251234 1.44939 0
M  V30 4611 H 454.778 -3.01202 2.88675 0
M  V30 4612 H 453.408 -2.68378 1.79369 0
M  V30 4613 H 452.46 -1.11555 3.63675 0
M  V30 4614 H 453.772 -1.67111 4.69974 0
M  V30 4615 H 452.926 -4.02157 4.54262 0
M  V30 4616 H 451.665 -3.51087 3.38511 0
M  V30 4617 H 450.67 -1.99653 5.12268 0
M  V30 4618 H 451.895 -2.53551 6.29991 0
M  V30 4619 H 449.841 -4.31882 4.93776 0
M  V30 4620 H 449.758 -3.74087 6.56959 0
M  V30 4621 H 451.026 -4.83834 6.11167 0
M  V30 4622 N 455.255 -1.55392 -0.262866 0
M  V30 4623 C 456.48 -1.80847 -1.01533 0
M  V30 4624 C 456.905 -0.584946 -1.78774 0
M  V30 4625 O 456.263 0.465701 -1.75217 0
M  V30 4626 C 456.311 -3.03866 -1.94159 0
M  V30 4627 O 455.415 -2.79662 -3.03089 0
M  V30 4628 H 454.756 -0.597441 -0.289759 0
M  V30 4629 H 457.286 -2.02553 -0.288698 0
M  V30 4630 H 457.296 -3.32872 -2.35924 0
M  V30 4631 H 455.971 -3.92564 -1.37354 0
M  V30 4632 H 454.548 -2.61781 -2.65566 0
M  V30 4633 N 456.733 0.527833 -1.48498 0
M  V30 4634 C 457.981 1.28101 -1.56316 0
M  V30 4635 C 458.302 1.9352 -0.239781 0
M  V30 4636 O 457.572 1.81433 0.738849 0
M  V30 4637 H 456.152 0.475793 -0.575873 0
M  V30 4638 H 458.814 0.614052 -1.84974 0
M  V30 4639 H 457.91 2.05916 -2.34532 0
M  V30 4640 N 458.211 1.37122 0.776871 0
M  V30 4641 C 459.174 1.32301 1.8716 0
M  V30 4642 C 460.174 0.228099 1.59174 0
M  V30 4643 O 461.364 0.483642 1.67352 0
M  V30 4644 C 458.496 1.054 3.24197 0
M  V30 4645 H 459.689 2.29673 1.92848 0
M  V30 4646 H 457.242 1.22077 0.97606 0
M  V30 4647 H 457.977 0.0853872 3.24188 0
M  V30 4648 H 457.762 1.84648 3.45901 0
M  V30 4649 H 459.252 1.04664 4.04271 0
M  V30 4650 N 459.689 -1.00246 1.21608 0
M  V30 4651 C 461.1 -1.55511 1.03312 0
M  V30 4652 C 461.451 -1.91946 -0.406332 0
M  V30 4653 O 460.576 -1.73753 -1.28992 0
M  V30 4654 C 461.171 -2.82576 1.86913 0
M  V30 4655 C 459.73 -3.34318 1.72941 0
M  V30 4656 C 458.877 -2.07487 1.83968 0
M  V30 4657 H 461.828 -0.824638 1.35593 0
M  V30 4658 H 461.849 -3.54559 1.38087 0
M  V30 4659 H 461.361 -2.56026 2.91672 0
M  V30 4660 H 459.462 -3.65797 0.70877 0
M  V30 4661 H 459.575 -4.05566 2.55055 0
M  V30 4662 H 457.939 -2.20603 1.27304 0
M  V30 4663 H 458.722 -1.83346 2.9024 0
M  V30 4664 N 461.167 -1.02423 -1.1978 0
M  V30 4665 C 462.444 -0.632802 -1.85081 0
M  V30 4666 C 462.824 0.888745 -1.9148 0
M  V30 4667 O 462.172 1.78357 -1.42832 0
M  V30 4668 C 462.382 -1.28947 -3.24305 0
M  V30 4669 C 463.73 -1.40976 -4.00513 0
M  V30 4670 O 464.754 -1.24628 -3.33686 0
M  V30 4671 O 463.613 -1.67467 -5.20209 0
M  V30 4672 H 460.707 -0.219348 -0.79738 0
M  V30 4673 H 463.253 -1.12209 -1.27307 0
M  V30 4674 H 462.025 -2.3288 -3.14456 0
M  V30 4675 H 461.648 -0.787748 -3.89718 0
M  V30 4676 N 462.645 1.35699 -0.801477 0
M  V30 4677 C 463.922 1.9324 -0.302937 0
M  V30 4678 C 464.302 1.73209 1.20672 0
M  V30 4679 O 463.65 1.09809 2.00385 0
M  V30 4680 C 463.86 3.41728 -0.708747 0
M  V30 4681 C 465.208 4.18868 -0.695328 0
M  V30 4682 O 466.232 3.5022 -0.649971 0
M  V30 4683 O 465.091 5.41342 -0.749081 0
M  V30 4684 H 462.185 0.82331 -0.0780367 0
M  V30 4685 H 464.731 1.44806 -0.884832 0
M  V30 4686 H 463.503 3.50015 -1.74944 0
M  V30 4687 H 463.126 3.97471 -0.101384 0
M  V30 4688 N 464.123 0.554532 1.47522 0
M  V30 4689 C 465.033 -0.197865 2.33764 0
M  V30 4690 C 466.049 -0.914576 1.48025 0
M  V30 4691 O 467.225 -0.884067 1.80959 0
M  V30 4692 C 464.29 -1.21628 3.24665 0
M  V30 4693 C 463.351 -0.507283 4.26292 0
M  V30 4694 C 462.584 -1.47718 5.1285 0
M  V30 4695 O 462.807 -2.7118 5.01814 0
M  V30 4696 O 461.741 -1.00313 5.93482 0
M  V30 4697 H 465.567 0.50949 2.99396 0
M  V30 4698 H 463.152 0.315176 1.46038 0
M  V30 4699 H 465.034 -1.80421 3.80823 0
M  V30 4700 H 463.709 -1.9056 2.61665 0
M  V30 4701 H 462.616 0.121778 3.73902 0
M  V30 4702 H 463.949 0.140544 4.91999 0
M  V30 4703 N 465.601 -1.54893 0.290851 0
M  V30 4704 C 466.826 -2.04804 -0.32712 0
M  V30 4705 C 467.251 -1.16721 -1.47506 0
M  V30 4706 O 466.609 -0.169107 -1.8051 0
M  V30 4707 C 466.657 -3.52268 -0.770689 0
M  V30 4708 O 465.761 -3.67236 -1.87647 0
M  V30 4709 H 465.102 -0.660789 -0.0652227 0
M  V30 4710 H 467.632 -2.00036 0.429739 0
M  V30 4711 H 467.642 -3.9393 -1.06223 0
M  V30 4712 H 466.317 -4.15843 0.069096 0
M  V30 4713 H 464.894 -3.37479 -1.58626 0
M  V30 4714 N 467.08 -0.0183926 -1.57589 0
M  V30 4715 C 468.308 0.673046 -1.95647 0
M  V30 4716 C 468.723 1.66275 -0.894312 0
M  V30 4717 O 468.08 1.82072 0.124975 0
M  V30 4718 C 468.131 1.38884 -3.33756 0
M  V30 4719 O 467.852 0.438806 -4.35897 0
M  V30 4720 C 469.353 2.1731 -3.86383 0
M  V30 4721 H 466.573 0.186292 -0.644621 0
M  V30 4722 H 469.117 -0.0749748 -2.04363 0
M  V30 4723 H 467.272 2.08835 -3.26293 0
M  V30 4724 H 467.686 0.945869 -5.15901 0
M  V30 4725 H 469.16 2.62863 -4.85394 0
M  V30 4726 H 469.637 3.00764 -3.20059 0
M  V30 4727 H 470.243 1.52339 -3.97081 0
M  V30 4728 N 468.558 1.5553 0.254621 0
M  V30 4729 C 469.468 1.92789 1.33677 0
M  V30 4730 C 470.484 0.827356 1.53071 0
M  V30 4731 O 471.66 1.12807 1.66843 0
M  V30 4732 C 468.725 2.20827 2.67275 0
M  V30 4733 C 467.786 3.4427 2.5647 0
M  V30 4734 C 467.019 3.70961 3.83697 0
M  V30 4735 O 467.242 2.99852 4.85227 0
M  V30 4736 O 466.176 4.64491 3.82794 0
M  V30 4737 H 470.002 2.84945 1.05071 0
M  V30 4738 H 467.587 1.42312 0.454723 0
M  V30 4739 H 469.469 2.40204 3.46237 0
M  V30 4740 H 468.144 1.31851 2.9563 0
M  V30 4741 H 467.051 3.30209 1.75821 0
M  V30 4742 H 468.384 4.33524 2.33062 0
M  V30 4743 N 470.036 -0.519951 1.48776 0
M  V30 4744 C 470.966 -1.63253 1.66945 0
M  V30 4745 C 471.947 -1.62014 0.518224 0
M  V30 4746 O 473.132 -1.79053 0.751919 0
M  V30 4747 C 470.262 -3.0181 1.71836 0
M  V30 4748 C 469.216 -3.17911 2.8656 0
M  V30 4749 C 468.542 -4.5763 2.76548 0
M  V30 4750 C 469.842 -2.99729 4.27738 0
M  V30 4751 H 471.536 -1.48302 2.6009 0
M  V30 4752 H 469.082 -0.712026 1.25165 0
M  V30 4753 H 471.035 -3.79525 1.83135 0
M  V30 4754 H 469.759 -3.17806 0.752775 0
M  V30 4755 H 468.418 -2.42616 2.74833 0
M  V30 4756 H 468.066 -4.70476 1.77937 0
M  V30 4757 H 467.766 -4.69346 3.53536 0
M  V30 4758 H 469.29 -5.37431 2.89828 0
M  V30 4759 H 470.704 -3.67228 4.40246 0
M  V30 4760 H 469.101 -3.22932 5.05801 0
M  V30 4761 H 470.171 -1.96047 4.43502 0
M  V30 4762 N 471.514 -1.37532 -0.769588 0
M  V30 4763 C 472.762 -1.32597 -1.5252 0
M  V30 4764 C 473.083 0.0884294 -1.94799 0
M  V30 4765 O 472.353 1.03289 -1.66458 0
M  V30 4766 H 470.933 -0.487846 -0.565699 0
M  V30 4767 H 473.595 -1.72044 -0.915806 0
M  V30 4768 H 472.691 -1.96643 -2.42359 0
M  V30 4769 N 472.992 0.995999 -1.22138 0
M  V30 4770 C 474.403 1.54961 -1.04135 0
M  V30 4771 C 474.754 1.92159 0.396147 0
M  V30 4772 O 473.879 1.74435 1.28069 0
M  V30 4773 C 474.474 2.81581 -1.88408 0
M  V30 4774 C 473.033 3.33396 -1.74712 0
M  V30 4775 C 472.18 2.06509 -1.85066 0
M  V30 4776 H 475.131 0.817436 -1.36028 0
M  V30 4777 H 475.152 3.53822 -1.39966 0
M  V30 4778 H 474.664 2.54476 -2.93025 0
M  V30 4779 H 472.765 3.65416 -0.728159 0
M  V30 4780 H 472.878 4.04208 -2.57202 0
M  V30 4781 H 471.242 2.19925 -1.28472 0
M  V30 4782 H 472.025 1.81804 -2.91208 0
M  V30 4783 N 474.47 1.03057 1.19235 0
M  V30 4784 C 475.4 0.633497 2.24742 0
M  V30 4785 C 476.381 -0.358335 1.66283 0
M  V30 4786 O 477.566 -0.240676 1.92703 0
M  V30 4787 C 474.696 -0.0147648 3.47297 0
M  V30 4788 C 473.65 0.899527 4.18441 0
M  V30 4789 C 472.976 0.116281 5.34574 0
M  V30 4790 C 474.276 2.21404 4.73051 0
M  V30 4791 H 475.97 1.5155 2.58211 0
M  V30 4792 H 473.516 0.73014 1.24117 0
M  V30 4793 H 475.469 -0.304202 4.20301 0
M  V30 4794 H 474.193 -0.931577 3.13032 0
M  V30 4795 H 472.852 1.17319 3.47321 0
M  V30 4796 H 472.5 -0.802619 4.96555 0
M  V30 4797 H 472.2 0.725293 5.83107 0
M  V30 4798 H 473.724 -0.166376 6.10373 0
M  V30 4799 H 475.138 1.98601 5.37802 0
M  V30 4800 H 473.535 2.77512 5.32078 0
M  V30 4801 H 474.605 2.86752 3.91026 0
M  V30 4802 N 475.948 -1.35272 0.808662 0
M  V30 4803 C 477.173 -2.03477 0.401475 0
M  V30 4804 C 477.598 -1.60537 -0.980279 0
M  V30 4805 O 476.956 -0.78304 -1.63518 0
M  V30 4806 C 477.004 -3.57181 0.495354 0
M  V30 4807 O 476.108 -4.09474 -0.490397 0
M  V30 4808 H 475.449 -0.642561 0.167366 0
M  V30 4809 H 477.979 -1.72824 1.09512 0
M  V30 4810 H 477.989 -4.06356 0.365912 0
M  V30 4811 H 476.664 -3.87784 1.5032 0
M  V30 4812 H 475.241 -3.71516 -0.321023 0
M  V30 4813 N 477.426 -0.562348 -1.47226 0
M  V30 4814 C 478.651 -0.0432632 -2.07355 0
M  V30 4815 C 479.076 1.24332 -1.41149 0
M  V30 4816 O 478.434 1.74603 -0.488226 0
M  V30 4817 C 478.482 0.130288 -3.60365 0
M  V30 4818 O 477.586 1.19166 -3.94808 0
M  V30 4819 H 476.927 -0.0536334 -0.66183 0
M  V30 4820 H 479.457 -0.779495 -1.89169 0
M  V30 4821 H 479.467 0.342881 -4.06557 0
M  V30 4822 H 478.142 -0.809389 -4.07948 0
M  V30 4823 H 476.719 0.959153 -3.60354 0
M  V30 4824 N 478.904 1.54736 -0.299062 0
M  V30 4825 C 479.834 2.26409 0.571085 0
M  V30 4826 C 480.815 1.2629 1.13951 0
M  V30 4827 O 482 1.55059 1.16921 0
M  V30 4828 C 479.13 3.00338 1.74396 0
M  V30 4829 C 478.084 4.07588 1.30599 0
M  V30 4830 C 477.41 4.69222 2.56387 0
M  V30 4831 C 478.71 5.20455 0.438645 0
M  V30 4832 H 480.404 2.99388 -0.0266991 0
M  V30 4833 H 477.95 1.43993 -0.0142812 0
M  V30 4834 H 479.903 3.49198 2.35878 0
M  V30 4835 H 478.627 2.24934 2.36796 0
M  V30 4836 H 477.286 3.59575 0.71424 0
M  V30 4837 H 476.934 3.9046 3.17097 0
M  V30 4838 H 476.634 5.41653 2.27784 0
M  V30 4839 H 478.158 5.20844 3.18675 0
M  V30 4840 H 479.572 5.65221 0.959085 0
M  V30 4841 H 477.969 5.99594 0.246466 0
M  V30 4842 H 479.039 4.8192 -0.536738 0
M  V30 4843 N 480.382 0.0267497 1.57577 0
M  V30 4844 C 481.345 -0.940916 2.08996 0
M  V30 4845 C 482.345 -1.25561 1.00455 0
M  V30 4846 O 483.535 -1.19634 1.26623 0
M  V30 4847 C 480.667 -2.25814 2.55384 0
M  V30 4848 H 481.86 -0.495628 2.95776 0
M  V30 4849 H 479.413 -0.221241 1.54726 0
M  V30 4850 H 480.148 -2.74976 1.71926 0
M  V30 4851 H 479.933 -2.04285 3.34679 0
M  V30 4852 H 481.423 -2.95178 2.95398 0
M  V30 4853 N 481.861 -1.55662 -0.24637 0
M  V30 4854 C 482.811 -1.86753 -1.30795 0
M  V30 4855 C 483.795 -0.728445 -1.43466 0
M  V30 4856 O 484.987 -0.99038 -1.46699 0
M  V30 4857 C 482.116 -2.16618 -2.66329 0
M  V30 4858 C 481.202 -3.36855 -2.57661 0
M  V30 4859 N 481.593 -4.56111 -2.18624 0
M  V30 4860 C 479.891 -3.39976 -2.88673 0
M  V30 4861 C 480.592 -5.38247 -2.20601 0
M  V30 4862 N 479.568 -4.77322 -2.60124 0
M  V30 4863 H 483.37 -2.76486 -0.996642 0
M  V30 4864 H 480.884 -1.55896 -0.454994 0
M  V30 4865 H 482.881 -2.37057 -3.42942 0
M  V30 4866 H 481.541 -1.28185 -2.98327 0
M  V30 4867 H 482.552 -4.81726 -1.9016 0
M  V30 4868 H 479.229 -2.61815 -3.25206 0
M  V30 4869 H 480.619 -6.43657 -1.92756 0
M  V30 4870 N 483.339 0.512053 -1.4905 0
M  V30 4871 C 484.269 1.62365 -1.67809 0
M  V30 4872 C 485.25 1.61737 -0.526809 0
M  V30 4873 O 486.435 1.78651 -0.761404 0
M  V30 4874 C 483.565 3.00895 -1.73435 0
M  V30 4875 C 482.519 3.16387 -2.88242 0
M  V30 4876 C 481.845 4.56157 -2.78971 0
M  V30 4877 C 483.145 2.97457 -4.29321 0
M  V30 4878 H 484.839 1.46921 -2.60873 0
M  V30 4879 H 482.385 0.705379 -1.2554 0
M  V30 4880 H 484.338 3.78549 -1.85145 0
M  V30 4881 H 483.062 3.17403 -0.769619 0
M  V30 4882 H 481.721 2.41155 -2.76116 0
M  V30 4883 H 481.369 4.69525 -1.8043 0
M  V30 4884 H 481.069 4.67465 -3.5602 0
M  V30 4885 H 482.593 5.35886 -2.92675 0
M  V30 4886 H 484.007 3.64888 -4.42187 0
M  V30 4887 H 482.404 3.20245 -5.07507 0
M  V30 4888 H 483.474 1.93692 -4.44535 0
M  V30 4889 N 484.817 1.37938 0.762283 0
M  V30 4890 C 485.727 1.36681 1.90671 0
M  V30 4891 C 486.743 0.265078 1.71969 0
M  V30 4892 O 487.919 0.502055 1.95042 0
M  V30 4893 C 484.984 1.18211 3.25925 0
M  V30 4894 C 484.045 2.3811 3.57214 0
M  V30 4895 C 483.278 2.20512 4.86014 0
M  V30 4896 O 483.501 1.19429 5.57757 0
M  V30 4897 O 482.435 3.08911 5.16583 0
M  V30 4898 H 486.261 2.33091 1.94685 0
M  V30 4899 H 483.846 1.18767 0.906356 0
M  V30 4900 H 485.728 1.09937 4.06807 0
M  V30 4901 H 484.403 0.248807 3.22742 0
M  V30 4902 H 483.31 2.51958 2.76529 0
M  V30 4903 H 484.643 3.30041 3.65149 0
M  V30 4904 N 486.295 -0.989507 1.22664 0
M  V30 4905 C 487.711 -1.25395 0.987331 0
M  V30 4906 C 487.911 -1.9899 -0.317056 0
M  V30 4907 O 486.967 -2.30141 -1.03882 0
M  V30 4908 C 488.28 -2.06242 2.18826 0
M  V30 4909 C 489.828 -2.19413 2.23219 0
M  V30 4910 C 490.303 -3.03648 3.42873 0
M  V30 4911 N 491.794 -3.11234 3.43056 0
M  V30 4912 C 492.529 -3.7671 4.32293 0
M  V30 4913 N 492.025 -4.44085 5.31752 0
M  V30 4914 N 493.818 -3.73505 4.2006 0
M  V30 4915 H 485.969 -0.496212 2.06522 0
M  V30 4916 H 488.232 -0.281784 0.905153 0
M  V30 4917 H 487.938 -1.59531 3.13437 0
M  V30 4918 H 487.812 -3.06996 2.19165 0
M  V30 4919 H 490.199 -2.65336 1.29154 0
M  V30 4920 H 490.28 -1.18078 2.26917 0
M  V30 4921 H 489.924 -2.58424 4.37241 0
M  V30 4922 H 489.854 -4.05132 3.36416 0
M  V30 4923 H 492.345 -2.63287 2.71088 0
M  V30 4924 H 492.658 -4.91797 5.96117 0
M  V30 4925 H 491.003 -4.42822 5.35662 0
M  V30 4926 H 494.194 -3.20033 3.41609 0
M  V30 4927 H 494.367 -4.24253 4.8981 0
M  V30 4928 N 487.773 -1.03688 -1.18687 0
M  V30 4929 C 489.019 -0.739123 -1.88851 0
M  V30 4930 C 489.352 0.731042 -1.79915 0
M  V30 4931 O 488.627 1.53313 -1.19688 0
M  V30 4932 C 488.91 -1.20106 -3.3948 0
M  V30 4933 C 488.763 -2.73304 -3.57246 0
M  V30 4934 C 490.082 -0.788134 -4.32986 0
M  V30 4935 H 487.201 -0.269978 -0.68577 0
M  V30 4936 H 489.843 -1.28822 -1.3966 0
M  V30 4937 H 487.993 -0.733915 -3.81505 0
M  V30 4938 H 489.665 -3.28027 -3.24339 0
M  V30 4939 H 487.908 -3.13313 -3.00029 0
M  V30 4940 H 488.579 -3.00684 -4.62918 0
M  V30 4941 H 491.055 -1.19005 -3.98719 0
M  V30 4942 H 489.931 -1.13915 -5.36949 0
M  V30 4943 H 490.192 0.308988 -4.41019 0
M  V30 4944 N 489.251 1.34841 -0.815825 0
M  V30 4945 C 490.499 1.98107 -0.399744 0
M  V30 4946 C 490.82 1.65019 1.03894 0
M  V30 4947 O 490.09 0.937311 1.72021 0
M  V30 4948 H 488.67 0.732827 -0.144823 0
M  V30 4949 H 491.332 1.64599 -1.0437 0
M  V30 4950 H 490.428 3.07856 -0.512965 0
M  V30 4951 N 490.729 0.570148 1.46925 0
M  V30 4952 C 491.676 -0.170257 2.30171 0
M  V30 4953 C 492.646 -0.896099 1.39855 0
M  V30 4954 O 493.831 -0.889248 1.68811 0
M  V30 4955 C 490.971 -1.18605 3.24079 0
M  V30 4956 C 490.084 -0.464947 4.29491 0
M  V30 4957 C 489.219 -1.46716 5.10537 0
M  V30 4958 C 488.258 -0.731758 6.0771 0
M  V30 4959 N 487.395 -1.68142 6.81669 0
M  V30 4960 H 492.235 0.545713 2.92961 0
M  V30 4961 H 489.772 0.280938 1.44392 0
M  V30 4962 H 491.73 -1.78771 3.76957 0
M  V30 4963 H 490.36 -1.86989 2.63125 0
M  V30 4964 H 489.412 0.251506 3.79568 0
M  V30 4965 H 490.724 0.110548 4.98677 0
M  V30 4966 H 489.878 -2.14199 5.6763 0
M  V30 4967 H 488.617 -2.07658 4.41282 0
M  V30 4968 H 487.622 -0.0430787 5.49783 0
M  V30 4969 H 488.847 -0.127904 6.7898 0
M  V30 4970 H 486.793 -2.27918 6.15134 0
M  V30 4971 H 486.71 -1.15841 7.47072 0
M  V30 4972 H 487.978 -2.347 7.43328 0
M  V30 4973 N 492.207 -1.54576 0.307264 0
M  V30 4974 C 493.17 -2.22423 -0.553224 0
M  V30 4975 C 494.17 -1.21231 -1.05639 0
M  V30 4976 O 495.36 -1.45923 -0.951419 0
M  V30 4977 C 492.492 -2.91552 -1.76664 0
M  V30 4978 H 493.685 -2.99874 0.0396484 0
M  V30 4979 H 491.238 -1.56192 0.0581629 0
M  V30 4980 H 491.973 -2.18196 -2.39918 0
M  V30 4981 H 491.758 -3.65738 -1.41343 0
M  V30 4982 H 493.248 -3.43292 -2.37783 0
M  V30 4983 N 493.685 -0.035106 -1.57561 0
M  V30 4984 C 494.931 0.64318 -1.92331 0
M  V30 4985 C 495.264 1.71434 -0.912368 0
M  V30 4986 O 494.539 1.94395 0.0640303 0
M  V30 4987 C 494.822 1.25411 -3.37556 0
M  V30 4988 C 494.675 0.192109 -4.4939 0
M  V30 4989 C 495.994 2.17041 -3.82859 0
M  V30 4990 H 493.113 0.232341 -0.699419 0
M  V30 4991 H 495.755 -0.0935889 -1.89769 0
M  V30 4992 H 493.905 1.88205 -3.39869 0
M  V30 4993 H 495.577 -0.438849 -4.59208 0
M  V30 4994 H 493.82 -0.481725 -4.31117 0
M  V30 4995 H 494.491 0.659292 -5.48049 0
M  V30 4996 H 496.967 1.64228 -3.8232 0
M  V30 4997 H 495.843 2.56738 -4.85157 0
M  V30 4998 H 496.104 3.06401 -3.18702 0
M  V30 4999 N 495.163 1.55791 0.238111 0
M  V30 5000 C 496.073 1.94196 1.31625 0
M  V30 5001 C 497.089 0.843545 1.52185 0
M  V30 5002 O 498.265 1.1457 1.65637 0
M  V30 5003 C 495.33 2.2365 2.64918 0
M  V30 5004 C 494.391 3.46971 2.52804 0
M  V30 5005 C 493.624 3.7501 3.79741 0
M  V30 5006 O 493.847 3.04982 4.82019 0
M  V30 5007 O 492.781 4.68525 3.77846 0
M  V30 5008 H 496.607 2.86044 1.02043 0
M  V30 5009 H 494.192 1.42786 0.439603 0
M  V30 5010 H 496.074 2.43863 3.4367 0
M  V30 5011 H 494.749 1.34979 2.94215 0
M  V30 5012 H 493.656 3.32055 1.72309 0
M  V30 5013 H 494.989 4.35971 2.28451 0
M  V30 5014 N 496.642 -0.504142 1.49319 0
M  V30 5015 C 497.552 -1.63248 1.68486 0
M  V30 5016 C 498.568 -1.64488 0.567432 0
M  V30 5017 O 499.744 -1.82966 0.841749 0
M  V30 5018 C 496.809 -2.99627 1.74426 0
M  V30 5019 C 495.87 -3.09039 2.97982 0
M  V30 5020 C 495.103 -4.38913 3.0363 0
M  V30 5021 O 495.326 -5.27528 2.16958 0
M  V30 5022 O 494.26 -4.53231 3.96062 0
M  V30 5023 H 498.086 -1.50008 2.64067 0
M  V30 5024 H 495.671 -0.680086 1.33023 0
M  V30 5025 H 497.553 -3.80689 1.80705 0
M  V30 5026 H 496.228 -3.13136 0.820233 0
M  V30 5027 H 495.135 -2.27177 2.97223 0
M  V30 5028 H 496.468 -3.00456 3.89855 0
M  V30 5029 N 498.12 -1.38341 -0.754957 0
M  V30 5030 C 499.083 -1.35262 -1.85032 0
M  V30 5031 C 500.083 -0.253393 -1.58791 0
M  V30 5032 O 501.273 -0.510205 -1.66561 0
M  V30 5033 C 498.405 -1.10544 -3.22479 0
M  V30 5034 H 499.598 -2.32712 -1.8917 0
M  V30 5035 H 497.151 -1.23614 -0.956515 0
M  V30 5036 H 497.886 -0.136952 -3.24011 0
M  V30 5037 H 497.671 -1.90127 -3.4292 0
M  V30 5038 H 499.161 -1.11082 -4.02555 0
M  V30 5039 N 499.598 0.982988 -1.23187 0
M  V30 5040 C 500.545 2.07491 -1.01075 0
M  V30 5041 C 501.515 1.65949 0.070905 0
M  V30 5042 O 502.7 1.90629 -0.0806822 0
M  V30 5043 C 499.84 3.39751 -0.605261 0
M  V30 5044 C 498.953 3.94578 -1.75876 0
M  V30 5045 C 498.088 5.15039 -1.3003 0
M  V30 5046 C 497.127 5.62027 -2.42472 0
M  V30 5047 N 496.264 6.73719 -1.97602 0
M  V30 5048 H 501.104 2.25739 -1.9454 0
M  V30 5049 H 498.641 1.10659 -0.969179 0
M  V30 5050 H 500.599 4.15719 -0.351279 0
M  V30 5051 H 499.229 3.21473 0.292382 0
M  V30 5052 H 498.281 3.1539 -2.12681 0
M  V30 5053 H 499.593 4.25422 -2.60418 0
M  V30 5054 H 498.747 5.9833 -1.00429 0
M  V30 5055 H 497.486 4.85843 -0.425216 0
M  V30 5056 H 496.491 4.77318 -2.7285 0
M  V30 5057 H 497.716 5.93244 -3.30512 0
M  V30 5058 H 495.662 6.46287 -1.1247 0
M  V30 5059 H 495.579 7.03934 -2.75705 0
M  V30 5060 H 496.847 7.6049 -1.71098 0
M  V30 5061 N 501.076 1.04316 1.18135 0
M  V30 5062 C 502.039 0.640794 2.2006 0
M  V30 5063 C 503.039 -0.303124 1.57917 0
M  V30 5064 O 504.229 -0.0881855 1.73977 0
M  V30 5065 C 501.361 -0.060148 3.40847 0
M  V30 5066 H 502.554 1.54281 2.57172 0
M  V30 5067 H 500.107 0.836004 1.32063 0
M  V30 5068 H 500.842 -0.975845 3.0927 0
M  V30 5069 H 500.627 0.618319 3.87194 0
M  V30 5070 H 502.117 -0.328082 4.16309 0
M  V30 5071 N 502.554 -1.34406 0.822964 0
M  V30 5072 C 503.782 -2.02508 0.424039 0
M  V30 5073 C 504.197 -1.61975 -0.970022 0
M  V30 5074 O 503.554 -0.825228 -1.62777 0
M  V30 5075 C 503.605 -3.57789 0.516657 0
M  V30 5076 O 503.326 -3.96853 1.85577 0
M  V30 5077 C 504.827 -4.43157 0.112637 0
M  V30 5078 H 502.047 -0.649063 0.170173 0
M  V30 5079 H 504.591 -1.7168 1.11113 0
M  V30 5080 H 502.746 -3.87207 -0.122353 0
M  V30 5081 H 503.16 -4.91538 1.83005 0
M  V30 5082 H 504.634 -5.51527 0.228526 0
M  V30 5083 H 505.111 -4.28939 -0.943837 0
M  V30 5084 H 505.717 -4.19067 0.725449 0
M  V30 5085 N 504.032 -0.577932 -1.46621 0
M  V30 5086 C 505.28 -0.061566 -2.02006 0
M  V30 5087 C 505.601 1.30117 -1.4524 0
M  V30 5088 O 504.871 1.85313 -0.63529 0
M  V30 5089 H 503.451 -0.0197692 -0.746738 0
M  V30 5090 H 506.113 -0.752631 -1.79782 0
M  V30 5091 H 505.209 0.0110238 -3.12098 0
M  V30 5092 N 505.51 1.54411 -0.315457 0
M  V30 5093 C 506.46 2.20772 0.569549 0
M  V30 5094 C 507.444 1.18551 1.08787 0
M  V30 5095 O 508.636 1.44213 1.02624 0
M  V30 5096 C 505.765 2.96293 1.73394 0
M  V30 5097 C 504.851 4.05844 1.2309 0
M  V30 5098 N 505.242 5.03822 0.446927 0
M  V30 5099 C 503.54 4.19648 1.51035 0
M  V30 5100 C 504.241 5.8143 0.17725 0
M  V30 5101 N 503.217 5.38245 0.761118 0
M  V30 5102 H 507.019 2.93877 -0.0368076 0
M  V30 5103 H 504.533 1.61949 -0.120915 0
M  V30 5104 H 506.53 3.42313 2.37965 0
M  V30 5105 H 505.19 2.24708 2.34386 0
M  V30 5106 H 506.201 5.17821 0.0905027 0
M  V30 5107 H 502.878 3.59274 2.1267 0
M  V30 5108 H 504.268 6.70369 -0.45335 0
M  V30 5109 N 506.988 0.0434614 1.5754 0
M  V30 5110 C 508.237 -0.631454 1.91561 0
M  V30 5111 C 508.55 -1.72457 0.92292 0
M  V30 5112 O 509.756 -2.45712 1.15489 0
M  V30 5113 C 508.212 -1.17447 3.40197 0
M  V30 5114 C 507.82 -0.113867 4.47855 0
M  V30 5115 C 509.564 -1.82507 3.83264 0
M  V30 5116 C 507.471 -0.669326 5.876 0
M  V30 5117 H 506.401 -0.239629 0.714908 0
M  V30 5118 H 509.052 0.111097 1.83163 0
M  V30 5119 H 507.434 -1.96909 3.43574 0
M  V30 5120 H 508.608 0.659348 4.56058 0
M  V30 5121 H 506.923 0.438821 4.14081 0
M  V30 5122 H 509.52 -2.25047 4.85034 0
M  V30 5123 H 509.863 -2.67365 3.19095 0
M  V30 5124 H 510.396 -1.09712 3.82372 0
M  V30 5125 H 507.135 0.141449 6.55347 0
M  V30 5126 H 506.655 -1.4107 5.82974 0
M  V30 5127 H 508.334 -1.15463 6.36614 0
M  V30 5128 N 508.466 -1.55915 -0.229846 0
M  V30 5129 C 509.413 -1.91734 -1.28478 0
M  V30 5130 C 510.383 -0.773539 -1.46988 0
M  V30 5131 O 511.568 -1.02871 -1.60693 0
M  V30 5132 C 508.708 -2.23224 -2.63182 0
M  V30 5133 C 507.821 -3.50497 -2.52539 0
M  V30 5134 C 506.956 -3.71474 -3.79711 0
M  V30 5135 C 505.995 -4.92289 -3.63755 0
M  V30 5136 N 505.132 -5.09698 -4.82858 0
M  V30 5137 H 509.972 -2.81692 -0.972308 0
M  V30 5138 H 507.509 -1.39429 -0.468815 0
M  V30 5139 H 509.467 -2.3949 -3.41614 0
M  V30 5140 H 508.097 -1.36451 -2.92542 0
M  V30 5141 H 507.149 -3.4247 -1.65585 0
M  V30 5142 H 508.461 -4.39079 -2.36666 0
M  V30 5143 H 507.615 -3.87791 -4.66586 0
M  V30 5144 H 506.354 -2.81157 -3.985 0
M  V30 5145 H 505.359 -4.7593 -2.75264 0
M  V30 5146 H 506.584 -5.84083 -3.46445 0
M  V30 5147 H 504.53 -4.22322 -5.01976 0
M  V30 5148 H 504.447 -5.92399 -4.69681 0
M  V30 5149 H 505.715 -5.30443 -5.71183 0
M  V30 5150 N 509.944 0.496216 -1.49584 0
M  V30 5151 C 511.19 1.25189 -1.59548 0
M  V30 5152 C 511.523 1.9212 -0.283466 0
M  V30 5153 O 510.798 1.80947 0.713324 0
M  V30 5154 C 511.081 2.31516 -2.75812 0
M  V30 5155 C 510.934 1.69054 -4.16822 0
M  V30 5156 C 512.253 3.3304 -2.87702 0
M  V30 5157 H 509.372 0.45379 -0.580727 0
M  V30 5158 H 512.014 0.549327 -1.81886 0
M  V30 5159 H 510.164 2.91438 -2.56897 0
M  V30 5160 H 511.836 1.12923 -4.47265 0
M  V30 5161 H 510.079 0.994485 -4.22247 0
M  V30 5162 H 510.75 2.462 -4.94054 0
M  V30 5163 H 513.226 2.83114 -3.04936 0
M  V30 5164 H 512.102 4.04794 -3.7072 0
M  V30 5165 H 512.363 3.95655 -1.97255 0
M  V30 5166 N 511.423 1.38739 0.74761 0
M  V30 5167 C 512.672 1.3459 1.50228 0
M  V30 5168 C 512.985 -0.0595592 1.95509 0
M  V30 5169 O 514.191 -0.22361 2.70578 0
M  V30 5170 C 512.647 2.36377 2.71393 0
M  V30 5171 C 512.255 3.82573 2.33113 0
M  V30 5172 C 513.999 2.41281 3.49262 0
M  V30 5173 C 511.906 4.76032 3.50924 0
M  V30 5174 H 510.836 0.500312 0.564096 0
M  V30 5175 H 513.487 1.64324 0.8167 0
M  V30 5176 H 511.869 1.99694 3.41962 0
M  V30 5177 H 513.043 4.28227 1.70171 0
M  V30 5178 H 511.358 3.80844 1.68365 0
M  V30 5179 H 513.955 3.08301 4.36869 0
M  V30 5180 H 514.298 1.43353 3.9084 0
M  V30 5181 H 514.831 2.76793 2.85711 0
M  V30 5182 H 511.57 5.75177 3.14408 0
M  V30 5183 H 511.09 4.35066 4.12889 0
M  V30 5184 H 512.769 4.94331 4.17427 0
M  V30 5185 N 512.901 -0.976442 1.23707 0
M  V30 5186 C 514.129 -1.75341 1.09833 0
M  V30 5187 C 514.544 -1.8553 -0.349885 0
M  V30 5188 O 513.901 -1.33732 -1.24185 0
M  V30 5189 C 513.952 -3.17833 1.72233 0
M  V30 5190 O 513.673 -3.08167 3.11391 0
M  V30 5191 C 515.174 -4.11906 1.63853 0
M  V30 5192 H 512.394 -0.550137 0.384175 0
M  V30 5193 H 514.938 -1.2265 1.63638 0
M  V30 5194 H 513.093 -3.67538 1.22452 0
M  V30 5195 H 513.507 -3.97897 3.41729 0
M  V30 5196 H 514.981 -5.09579 2.12211 0
M  V30 5197 H 515.458 -4.35109 0.598092 0
M  V30 5198 H 516.064 -3.68107 2.13019 0
M  V30 5199 N 514.379 -1.04941 -1.1758 0
M  V30 5200 C 515.627 -0.756492 -1.87408 0
M  V30 5201 C 515.948 0.718478 -1.81281 0
M  V30 5202 O 515.218 1.519 -1.23706 0
M  V30 5203 H 513.798 -0.276841 -0.693807 0
M  V30 5204 H 516.46 -1.32803 -1.42652 0
M  V30 5205 H 515.556 -1.06918 -2.93215 0
M  V30 5206 N 515.857 1.33968 -0.830081 0
M  V30 5207 C 517.105 1.97672 -0.420734 0
M  V30 5208 C 517.426 1.66111 1.02138 0
M  V30 5209 O 516.696 0.955503 1.71017 0
M  V30 5210 H 515.276 0.73125 -0.152587 0
M  V30 5211 H 517.938 1.63483 -1.0611 0
M  V30 5212 H 517.034 3.07294 -0.545588 0
M  V30 5213 N 517.335 0.585699 1.46312 0
M  V30 5214 C 518.245 -0.148236 2.34131 0
M  V30 5215 C 519.261 -0.882972 1.49932 0
M  V30 5216 O 520.437 -0.845484 1.82794 0
M  V30 5217 C 517.502 -1.14714 3.27172 0
M  V30 5218 C 516.563 -0.416746 4.27272 0
M  V30 5219 C 515.796 -1.36806 5.15868 0
M  V30 5220 O 516.019 -2.60475 5.07454 0
M  V30 5221 O 514.953 -0.877018 5.95476 0
M  V30 5222 H 518.779 0.572882 2.98248 0
M  V30 5223 H 516.364 0.346082 1.45336 0
M  V30 5224 H 518.246 -1.72303 3.84564 0
M  V30 5225 H 516.921 -1.84967 2.65648 0
M  V30 5226 H 515.828 0.201061 3.73559 0
M  V30 5227 H 517.161 0.244872 4.9159 0
M  V30 5228 N 518.813 -1.54241 0.323641 0
M  V30 5229 C 519.76 -2.24339 -0.542277 0
M  V30 5230 C 520.73 -1.23421 -1.11159 0
M  V30 5231 O 521.915 -1.52104 -1.15192 0
M  V30 5232 C 519.055 -3.00479 -1.69725 0
M  V30 5233 C 518.168 -4.16214 -1.15716 0
M  V30 5234 C 517.303 -4.79884 -2.27783 0
M  V30 5235 C 516.342 -5.87722 -1.71023 0
M  V30 5236 N 515.479 -6.45254 -2.76752 0
M  V30 5237 H 520.319 -2.97935 0.0620613 0
M  V30 5238 H 517.856 -1.47039 0.0423993 0
M  V30 5239 H 519.814 -3.42869 -2.3769 0
M  V30 5240 H 518.444 -2.29217 -2.27288 0
M  V30 5241 H 517.496 -3.78605 -0.369063 0
M  V30 5242 H 518.808 -4.93838 -0.701832 0
M  V30 5243 H 517.962 -5.25243 -3.03651 0
M  V30 5244 H 516.701 -4.01641 -2.76652 0
M  V30 5245 H 515.706 -5.41765 -0.936518 0
M  V30 5246 H 516.931 -6.67863 -1.2303 0
M  V30 5247 H 514.877 -5.69884 -3.24912 0
M  V30 5248 H 514.794 -7.18292 -2.35782 0
M  V30 5249 H 516.062 -6.95269 -3.5245 0
M  V30 5250 N 520.291 -0.0518155 -1.57515 0
M  V30 5251 C 521.707 0.304735 -1.56664 0
M  V30 5252 C 521.907 1.71395 -1.05953 0
M  V30 5253 O 520.963 2.42123 -0.716414 0
M  V30 5254 C 522.276 0.132614 -3.00407 0
M  V30 5255 C 523.824 0.20367 -3.12337 0
M  V30 5256 C 524.299 0.0600706 -4.57961 0
M  V30 5257 N 525.79 0.116326 -4.63054 0
M  V30 5258 C 526.525 0.0293363 -5.73392 0
M  V30 5259 N 526.021 -0.110038 -6.92713 0
M  V30 5260 N 527.814 0.0849651 -5.62036 0
M  V30 5261 H 519.965 -0.973056 -1.888 0
M  V30 5262 H 522.228 -0.377781 -0.869474 0
M  V30 5263 H 521.934 -0.839019 -3.41546 0
M  V30 5264 H 521.808 0.893376 -3.66468 0
M  V30 5265 H 524.195 1.16578 -2.71097 0
M  V30 5266 H 524.276 -0.587857 -2.48954 0
M  V30 5267 H 523.92 -0.898715 -4.99886 0
M  V30 5268 H 523.85 0.87075 -5.19351 0
M  V30 5269 H 526.341 0.22327 -3.7724 0
M  V30 5270 H 526.654 -0.169104 -7.72615 0
M  V30 5271 H 524.999 -0.145132 -6.94848 0
M  V30 5272 H 528.19 0.192411 -4.67704 0
M  V30 5273 H 528.363 0.0137131 -6.47999 0
M  V30 5274 N 521.769 1.56035 0.221574 0
M  V30 5275 C 522.716 1.92413 1.27459 0
M  V30 5276 C 523.686 0.781323 1.46576 0
M  V30 5277 O 524.871 1.03721 1.60145 0
M  V30 5278 C 522.011 2.24617 2.61995 0
M  V30 5279 C 521.124 3.51831 2.50677 0
M  V30 5280 C 520.259 3.73482 3.77736 0
M  V30 5281 C 519.298 4.94211 3.6114 0
M  V30 5282 N 518.435 5.12252 4.80148 0
M  V30 5283 H 523.275 2.82203 0.957355 0
M  V30 5284 H 520.812 1.39676 0.461415 0
M  V30 5285 H 522.77 2.41298 3.40339 0
M  V30 5286 H 521.4 1.38 2.91815 0
M  V30 5287 H 520.452 3.43343 1.63767 0
M  V30 5288 H 521.764 4.40328 2.34334 0
M  V30 5289 H 520.918 3.9026 4.64523 0
M  V30 5290 H 519.657 2.83266 3.97003 0
M  V30 5291 H 518.662 4.77384 2.72736 0
M  V30 5292 H 519.887 5.85912 3.43343 0
M  V30 5293 H 517.833 4.24978 4.99729 0
M  V30 5294 H 517.75 5.94881 4.66532 0
M  V30 5295 H 519.018 5.33465 5.68362 0
M  V30 5296 N 523.247 -0.488276 1.49845 0
M  V30 5297 C 524.495 -1.23911 1.59657 0
M  V30 5298 C 524.816 -1.92816 0.291005 0
M  V30 5299 O 524.086 -1.83328 -0.690485 0
M  V30 5300 H 522.666 -0.460357 0.588286 0
M  V30 5301 H 525.328 -0.564794 1.86537 0
M  V30 5302 H 524.424 -1.99625 2.39909 0
M  V30 5303 N 524.725 -1.39134 -0.740242 0
M  V30 5304 C 525.673 -1.3757 -1.87556 0
M  V30 5305 C 526.667 -0.259593 -1.67399 0
M  V30 5306 O 527.873 -0.429349 -1.74804 0
M  V30 5307 H 524.248 -0.42947 -0.6173 0
M  V30 5308 H 526.219 -2.33345 -1.85991 0
M  V30 5309 C 524.968 -1.23087 -3.25184 0
M  V30 5310 H 524.291 -2.08237 -3.41288 0
M  V30 5311 H 525.731 -1.26049 -4.0483 0
M  V30 5312 C 524.19 0.0611471 -3.36845 0
M  V30 5313 O 524.72 1.03328 -3.88183 0
M  V30 5314 N 522.926 0.122454 -2.90342 0
M  V30 5315 H 522.473 -0.669329 -2.48752 0
M  V30 5316 H 522.431 0.986463 -2.98523 0
M  V30 5317 N 526.204 0.969867 -1.24223 0
M  V30 5318 C 527.452 1.70918 -1.0785 0
M  V30 5319 C 527.773 1.91186 0.383763 0
M  V30 5320 O 527.043 1.48806 1.27411 0
M  V30 5321 H 525.623 0.633334 -0.396103 0
M  V30 5322 H 528.285 1.16689 -1.56108 0
M  V30 5323 H 527.381 2.69455 -1.57482 0
M  V30 5324 N 527.682 1.05563 1.17022 0
M  V30 5325 C 528.912 0.787307 1.91011 0
M  V30 5326 C 529.32 -0.661256 1.77268 0
M  V30 5327 O 528.663 -1.46379 1.10991 0
M  V30 5328 C 528.725 1.09313 3.42478 0
M  V30 5329 C 528.389 2.53863 3.80004 0
M  V30 5330 C 529.386 3.52081 3.82538 0
M  V30 5331 C 527.071 2.88969 4.10855 0
M  V30 5332 C 529.065 4.83449 4.15399 0
M  V30 5333 C 526.752 4.2054 4.43384 0
M  V30 5334 C 527.75 5.17589 4.45635 0
M  V30 5335 O 527.438 6.46799 4.77395 0
M  V30 5336 H 527.17 0.285463 0.61277 0
M  V30 5337 H 529.724 1.41051 1.49311 0
M  V30 5338 H 527.954 0.412833 3.8449 0
M  V30 5339 H 529.643 0.810224 3.97731 0
M  V30 5340 H 530.409 3.26299 3.58823 0
M  V30 5341 H 526.288 2.1409 4.08272 0
M  V30 5342 H 529.832 5.59194 4.1707 0
M  V30 5343 H 525.729 4.46083 4.66563 0
M  V30 5344 H 526.497 6.51677 4.95237 0
M  V30 5345 N 529.16 -1.33526 0.837174 0
M  V30 5346 C 530.39 -2.01754 0.444848 0
M  V30 5347 C 530.798 -1.63149 -0.958072 0
M  V30 5348 O 530.141 -0.839827 -1.63379 0
M  V30 5349 C 530.203 -3.56228 0.483917 0
M  V30 5350 C 529.867 -4.18205 1.84265 0
M  V30 5351 C 530.864 -4.37699 2.80563 0
M  V30 5352 C 528.549 -4.54667 2.13503 0
M  V30 5353 C 530.543 -4.928 4.04261 0
M  V30 5354 C 528.23 -5.09475 3.37458 0
M  V30 5355 C 529.228 -5.28488 4.32654 0
M  V30 5356 O 528.916 -5.82132 5.54417 0
M  V30 5357 H 528.648 -0.652928 0.175104 0
M  V30 5358 H 531.202 -1.71469 1.13082 0
M  V30 5359 H 529.432 -3.85833 -0.258826 0
M  V30 5360 H 531.121 -4.05752 0.109653 0
M  V30 5361 H 531.887 -4.0988 2.59274 0
M  V30 5362 H 527.766 -4.39164 1.40201 0
M  V30 5363 H 531.31 -5.07555 4.78574 0
M  V30 5364 H 527.207 -5.36725 3.58604 0
M  V30 5365 H 527.975 -6.00548 5.56133 0
M  V30 5366 N 530.638 -0.59345 -1.46 0
M  V30 5367 C 531.868 -0.0889642 -2.06408 0
M  V30 5368 C 532.276 1.22597 -1.44106 0
M  V30 5369 O 531.619 1.75448 -0.544398 0
M  V30 5370 C 531.681 0.139902 -3.59228 0
M  V30 5371 C 531.345 -1.09107 -4.43784 0
M  V30 5372 C 532.342 -2.00577 -4.79651 0
M  V30 5373 C 530.027 -1.31593 -4.84756 0
M  V30 5374 C 532.021 -3.12873 -5.55328 0
M  V30 5375 C 529.708 -2.44192 -5.60191 0
M  V30 5376 C 530.706 -3.34661 -5.95392 0
M  V30 5377 O 530.394 -4.45302 -6.69299 0
M  V30 5378 H 530.126 -0.0594613 -0.67338 0
M  V30 5379 H 532.68 -0.817 -1.88452 0
M  V30 5380 H 530.91 0.922672 -3.75531 0
M  V30 5381 H 532.599 0.594228 -4.01527 0
M  V30 5382 H 533.365 -1.84425 -4.48567 0
M  V30 5383 H 529.244 -0.620801 -4.56801 0
M  V30 5384 H 532.788 -3.83511 -5.82722 0
M  V30 5385 H 528.685 -2.60303 -5.90688 0
M  V30 5386 H 529.453 -4.43805 -6.87735 0
M  V30 5387 N 532.116 1.54067 -0.331816 0
M  V30 5388 C 533.079 2.23275 0.517768 0
M  V30 5389 C 534.079 1.22897 1.03697 0
M  V30 5390 O 535.269 1.47419 0.928084 0
M  V30 5391 C 532.401 2.94326 1.72004 0
M  V30 5392 H 533.594 2.99773 -0.0873507 0
M  V30 5393 H 531.147 1.56079 -0.0830042 0
M  V30 5394 H 531.882 2.21986 2.36417 0
M  V30 5395 H 531.667 3.67941 1.35507 0
M  V30 5396 H 533.157 3.47031 2.32291 0
M  V30 5397 N 533.594 0.0601682 1.57485 0
M  V30 5398 C 535.005 -0.474217 1.80577 0
M  V30 5399 C 535.356 -1.70365 0.973147 0
M  V30 5400 O 534.481 -2.15544 0.192306 0
M  V30 5401 C 535.076 -0.867102 3.27516 0
M  V30 5402 C 533.635 -1.34642 3.51495 0
M  V30 5403 C 532.782 -0.32594 2.75378 0
M  V30 5404 H 535.733 0.285973 1.56102 0
M  V30 5405 H 535.754 -1.72938 3.38929 0
M  V30 5406 H 535.266 0.0278927 3.8809 0
M  V30 5407 H 533.367 -2.2603 2.96212 0
M  V30 5408 H 533.48 -1.33237 4.60201 0
M  V30 5409 H 531.844 -0.800749 2.41785 0
M  V30 5410 H 532.627 0.561125 3.38683 0
M  V30 5411 N 535.072 -1.5615 -0.213296 0
M  V30 5412 C 536.3 -1.83638 -0.953139 0
M  V30 5413 C 536.715 -0.640362 -1.77609 0
M  V30 5414 O 536.072 0.391071 -1.78261 0
M  V30 5415 C 536.123 -3.09735 -1.86405 0
M  V30 5416 O 535.844 -4.24723 -1.07435 0
M  V30 5417 C 537.345 -3.5027 -2.71709 0
M  V30 5418 H 534.565 -0.610263 -0.278962 0
M  V30 5419 H 537.109 -2.03247 -0.226035 0
M  V30 5420 H 535.264 -2.92077 -2.545 0
M  V30 5421 H 535.678 -4.9641 -1.69343 0
M  V30 5422 H 537.152 -4.41515 -3.31313 0
M  V30 5423 H 537.629 -2.72406 -3.44516 0
M  V30 5424 H 538.235 -3.70396 -2.09015 0
M  V30 5425 N 536.55 0.480323 -1.50102 0
M  V30 5426 C 537.48 1.58769 -1.71215 0
M  V30 5427 C 538.461 1.60583 -0.560997 0
M  V30 5428 O 539.646 1.76996 -0.799127 0
M  V30 5429 C 536.776 2.97148 -1.79778 0
M  V30 5430 C 535.73 3.10201 -2.94888 0
M  V30 5431 C 535.056 4.50137 -2.88584 0
M  V30 5432 C 536.356 2.88283 -4.35534 0
M  V30 5433 H 538.05 1.41354 -2.6393 0
M  V30 5434 H 535.596 0.678591 -1.27008 0
M  V30 5435 H 537.549 3.74536 -1.93133 0
M  V30 5436 H 536.273 3.15699 -0.836772 0
M  V30 5437 H 534.932 2.35244 -2.81169 0
M  V30 5438 H 534.58 4.65593 -1.90349 0
M  V30 5439 H 534.28 4.59808 -3.65856 0
M  V30 5440 H 535.804 5.29558 -3.03976 0
M  V30 5441 H 537.218 3.55427 -4.49827 0
M  V30 5442 H 535.615 3.09408 -5.14186 0
M  V30 5443 H 536.685 1.84219 -4.48544 0
M  V30 5444 N 538.028 1.39524 0.732853 0
M  V30 5445 C 538.958 1.41153 1.86005 0
M  V30 5446 C 539.939 0.274614 1.67869 0
M  V30 5447 O 541.124 0.480745 1.88155 0
M  V30 5448 C 538.254 1.25638 3.23778 0
M  V30 5449 C 537.208 2.36752 3.56556 0
M  V30 5450 C 536.534 2.06326 4.93289 0
M  V30 5451 C 537.834 3.79069 3.5931 0
M  V30 5452 H 539.528 2.35484 1.84899 0
M  V30 5453 H 537.074 1.13348 0.888162 0
M  V30 5454 H 539.027 1.25398 4.0231 0
M  V30 5455 H 537.751 0.277772 3.25417 0
M  V30 5456 H 536.41 2.36213 2.80355 0
M  V30 5457 H 536.058 1.06897 4.9151 0
M  V30 5458 H 535.758 2.80757 5.16187 0
M  V30 5459 H 537.282 2.07739 5.74175 0
M  V30 5460 H 538.696 3.81526 4.27914 0
M  V30 5461 H 537.093 4.52878 3.93728 0
M  V30 5462 H 538.163 4.09893 2.59068 0
M  V30 5463 N 539.506 -0.963266 1.24736 0
M  V30 5464 C 540.469 -2.04013 1.04457 0
M  V30 5465 C 541.469 -1.608 0.000335555 0
M  V30 5466 O 542.659 -1.72515 0.241719 0
M  V30 5467 C 539.791 -3.35858 0.584162 0
M  V30 5468 H 540.984 -2.23436 2.00041 0
M  V30 5469 H 538.537 -1.13914 1.07021 0
M  V30 5470 H 539.272 -3.22128 -0.374673 0
M  V30 5471 H 539.057 -3.68568 1.3379 0
M  V30 5472 H 540.547 -4.1502 0.463451 0
M  V30 5473 N 540.985 -1.06182 -1.16461 0
M  V30 5474 C 542.233 -0.776326 -1.86595 0
M  V30 5475 C 542.554 0.69921 -1.82033 0
M  V30 5476 O 541.824 1.50579 -1.2531 0
M  V30 5477 H 540.404 -0.284184 -0.690832 0
M  V30 5478 H 543.066 -1.34308 -1.41235 0
M  V30 5479 H 542.162 -1.10022 -2.92064 0
M  V30 5480 N 542.463 1.3308 -0.844243 0
M  V30 5481 C 543.426 2.27403 -0.286485 0
M  V30 5482 C 544.426 1.51179 0.547872 0
M  V30 5483 O 545.616 1.70421 0.360886 0
M  V30 5484 C 542.748 3.35653 0.595813 0
M  V30 5485 H 543.941 2.78248 -1.11885 0
M  V30 5486 H 541.494 1.43574 -0.617749 0
M  V30 5487 H 542.229 2.90058 1.4504 0
M  V30 5488 H 542.014 3.921 -0.00125994 0
M  V30 5489 H 543.504 4.05958 0.979168 0
M  V30 5490 N 543.941 0.601185 1.45683 0
M  V30 5491 C 544.871 -0.108824 2.33246 0
M  V30 5492 C 545.852 -0.865223 1.46451 0
M  V30 5493 O 547.037 -0.83704 1.75235 0
M  V30 5494 C 544.167 -1.11101 3.2905 0
M  V30 5495 C 543.121 -0.468244 4.25431 0
M  V30 5496 C 542.447 -1.57822 5.10878 0
M  V30 5497 C 543.747 0.606469 5.18767 0
M  V30 5498 H 545.441 0.622306 2.92861 0
M  V30 5499 H 542.987 0.300714 1.40825 0
M  V30 5500 H 544.94 -1.61622 3.89174 0
M  V30 5501 H 543.664 -1.87265 2.67581 0
M  V30 5502 H 542.323 0.0160484 3.66596 0
M  V30 5503 H 541.971 -2.32998 4.45781 0
M  V30 5504 H 541.671 -1.15369 5.76163 0
M  V30 5505 H 543.195 -2.08583 5.73869 0
M  V30 5506 H 544.609 0.185589 5.73 0
M  V30 5507 H 543.006 0.952381 5.92494 0
M  V30 5508 H 544.076 1.48559 4.61582 0
M  V30 5509 N 545.419 -1.53889 0.339982 0
M  V30 5510 C 546.351 -2.22435 -0.55275 0
M  V30 5511 C 547.364 -1.22975 -1.06681 0
M  V30 5512 O 548.553 -1.49351 -0.977575 0
M  V30 5513 C 545.653 -2.8882 -1.77302 0
M  V30 5514 C 544.826 -4.14563 -1.39486 0
M  V30 5515 C 543.885 -4.64391 -2.47442 0
M  V30 5516 O 542.911 -5.28687 -2.10899 0
M  V30 5517 N 544.113 -4.40015 -3.78639 0
M  V30 5518 H 546.878 -2.9968 0.0342669 0
M  V30 5519 H 544.439 -1.61068 0.16394 0
M  V30 5520 H 546.431 -3.19072 -2.48948 0
M  V30 5521 H 545.001 -2.15182 -2.26749 0
M  V30 5522 H 544.221 -3.90896 -0.509321 0
M  V30 5523 H 545.509 -4.96362 -1.11813 0
M  V30 5524 H 544.907 -3.88586 -4.11118 0
M  V30 5525 H 543.464 -4.74881 -4.46465 0
M  V30 5526 N 546.897 -0.0685191 -1.57451 0
M  V30 5527 C 548.174 0.642167 -1.84758 0
M  V30 5528 C 548.554 1.87991 -0.960344 0
M  V30 5529 O 547.902 2.28485 -0.0257894 0
M  V30 5530 C 548.112 0.982946 -3.34872 0
M  V30 5531 C 549.46 1.35784 -4.02303 0
M  V30 5532 O 550.484 1.07477 -3.39598 0
M  V30 5533 O 549.343 1.88681 -5.12895 0
M  V30 5534 H 546.437 0.318625 -0.763156 0
M  V30 5535 H 548.983 -0.0992015 -1.6941 0
M  V30 5536 H 547.755 0.10372 -3.91163 0
M  V30 5537 H 547.378 1.78119 -3.55471 0
M  V30 5538 N 548.375 1.56261 0.205012 0
M  V30 5539 C 549.652 1.70856 0.952233 0
M  V30 5540 C 550.032 0.620501 2.01775 0
M  V30 5541 O 549.38 -0.370035 2.25484 0
M  V30 5542 C 549.59 3.12807 1.54767 0
M  V30 5543 C 550.938 3.72733 2.0336 0
M  V30 5544 O 551.962 3.15873 1.64629 0
M  V30 5545 O 550.821 4.72501 2.746 0
M  V30 5546 H 547.915 0.696496 0.445895 0
M  V30 5547 H 550.461 1.6857 0.195489 0
M  V30 5548 H 549.233 3.83465 0.779132 0
M  V30 5549 H 548.856 3.1928 2.36951 0
M  V30 5550 N 549.853 -0.472356 1.50355 0
M  V30 5551 C 550.816 -1.5529 1.68576 0
M  V30 5552 C 551.816 -1.50863 0.556511 0
M  V30 5553 O 553.006 -1.53505 0.823516 0
M  V30 5554 C 550.138 -2.94921 1.70981 0
M  V30 5555 H 551.331 -1.40451 2.64978 0
M  V30 5556 H 548.884 -0.698645 1.39816 0
M  V30 5557 H 549.619 -3.15204 0.762675 0
M  V30 5558 H 549.404 -2.99541 2.53017 0
M  V30 5559 H 550.894 -3.73372 1.87037 0
M  V30 5560 N 551.331 -1.39911 -0.725443 0
M  V30 5561 C 552.58 -1.36963 -1.48068 0
M  V30 5562 C 552.893 0.0284478 -1.95579 0
M  V30 5563 O 554.099 0.180535 -2.70899 0
M  V30 5564 C 552.555 -2.40664 -2.67598 0
M  V30 5565 C 552.163 -3.86234 -2.26997 0
M  V30 5566 C 553.907 -2.46807 -3.45379 0
M  V30 5567 C 551.814 -4.81554 -3.43307 0
M  V30 5568 H 550.744 -0.509223 -0.556065 0
M  V30 5569 H 553.395 -1.65602 -0.790454 0
M  V30 5570 H 551.777 -2.05109 -3.38742 0
M  V30 5571 H 552.951 -4.3088 -1.63337 0
M  V30 5572 H 551.266 -3.83475 -1.62284 0
M  V30 5573 H 553.863 -3.15213 -4.31909 0
M  V30 5574 H 554.206 -1.49552 -3.8851 0
M  V30 5575 H 554.739 -2.81303 -2.81271 0
M  V30 5576 H 551.478 -5.80106 -3.05217 0
M  V30 5577 H 550.998 -4.4158 -4.05915 0
M  V30 5578 H 552.677 -5.0091 -4.0951 0
M  V30 5579 N 552.809 0.956637 -1.25245 0
M  V30 5580 C 554.055 1.70352 -1.10036 0
M  V30 5581 C 554.388 1.90869 0.358156 0
M  V30 5582 O 553.663 1.47819 1.26411 0
M  V30 5583 C 553.946 3.08766 -1.85298 0
M  V30 5584 C 553.799 2.95672 -3.38966 0
M  V30 5585 C 555.118 4.08622 -1.63451 0
M  V30 5586 H 552.237 0.618279 -0.401123 0
M  V30 5587 H 554.879 1.11212 -1.54051 0
M  V30 5588 H 553.029 3.59252 -1.47887 0
M  V30 5589 H 554.701 2.52527 -3.86041 0
M  V30 5590 H 552.944 2.31634 -3.6678 0
M  V30 5591 H 553.615 3.93776 -3.86839 0
M  V30 5592 H 556.091 3.67038 -1.96015 0
M  V30 5593 H 554.967 5.03514 -2.18551 0
M  V30 5594 H 555.228 4.3834 -0.575357 0
M  V30 5595 N 554.287 1.06798 1.15896 0
M  V30 5596 C 555.219 0.641263 2.20046 0
M  V30 5597 C 556.232 -0.303355 1.59949 0
M  V30 5598 O 557.421 -0.0935478 1.78255 0
M  V30 5599 C 554.521 -0.0794029 3.38807 0
M  V30 5600 C 553.694 0.879986 4.28457 0
M  V30 5601 C 552.753 0.197638 5.25829 0
M  V30 5602 O 551.779 0.836913 5.63014 0
M  V30 5603 N 552.981 -1.05886 5.70761 0
M  V30 5604 H 555.746 1.53718 2.57276 0
M  V30 5605 H 553.307 0.951951 1.30956 0
M  V30 5606 H 555.299 -0.546418 4.00994 0
M  V30 5607 H 553.869 -0.877193 3.0004 0
M  V30 5608 H 553.089 1.52625 3.63454 0
M  V30 5609 H 554.377 1.53065 4.8523 0
M  V30 5610 H 553.775 -1.59828 5.42652 0
M  V30 5611 H 552.332 -1.46965 6.35015 0
M  V30 5612 N 555.766 -1.3263 0.851289 0
M  V30 5613 C 556.713 -2.28952 0.291469 0
M  V30 5614 C 557.683 -1.54897 -0.599676 0
M  V30 5615 O 558.868 -1.83137 -0.535305 0
M  V30 5616 C 556.008 -3.41206 -0.516992 0
M  V30 5617 C 555.121 -4.30148 0.399566 0
M  V30 5618 C 554.256 -5.29527 -0.4212 0
M  V30 5619 C 553.295 -6.10112 0.492969 0
M  V30 5620 N 552.432 -7.01499 -0.290414 0
M  V30 5621 H 557.272 -2.76228 1.11813 0
M  V30 5622 H 554.809 -1.35907 0.562826 0
M  V30 5623 H 556.767 -4.05005 -1.00132 0
M  V30 5624 H 555.397 -2.9509 -1.30851 0
M  V30 5625 H 554.449 -3.66959 1.00227 0
M  V30 5626 H 555.761 -4.8649 1.1013 0
M  V30 5627 H 554.915 -5.98914 -0.968832 0
M  V30 5628 H 553.654 -4.73794 -1.15632 0
M  V30 5629 H 552.659 -5.39632 1.05251 0
M  V30 5630 H 553.884 -6.6793 1.22664 0
M  V30 5631 H 551.83 -6.48199 -1.00868 0
M  V30 5632 H 551.747 -7.55178 0.352354 0
M  V30 5633 H 553.015 -7.75176 -0.819882 0
M  V30 5634 N 557.244 -0.608902 -1.45362 0
M  V30 5635 C 558.154 0.110969 -2.34337 0
M  V30 5636 C 559.17 0.859007 -1.51318 0
M  V30 5637 O 560.346 0.816296 -1.84116 0
M  V30 5638 C 557.411 1.09494 -3.28956 0
M  V30 5639 C 556.472 0.348718 -4.27881 0
M  V30 5640 C 555.705 1.28582 -5.17979 0
M  V30 5641 O 555.928 2.52369 -5.11533 0
M  V30 5642 O 554.862 0.782172 -5.96796 0
M  V30 5643 H 558.688 -0.620258 -2.97299 0
M  V30 5644 H 556.273 -0.36916 -1.44767 0
M  V30 5645 H 558.155 1.66163 -3.87257 0
M  V30 5646 H 556.83 1.80717 -2.68557 0
M  V30 5647 H 555.737 -0.260465 -3.73192 0
M  V30 5648 H 557.07 -0.323049 -4.91139 0
M  V30 5649 N 558.722 1.53707 -0.348139 0
M  V30 5650 C 559.968 2.01286 0.247332 0
M  V30 5651 C 560.301 1.23546 1.49834 0
M  V30 5652 O 559.576 0.324331 1.91777 0
M  V30 5653 C 559.859 3.55768 0.556858 0
M  V30 5654 C 559.712 4.44216 -0.706564 0
M  V30 5655 C 561.031 4.1841 1.3646 0
M  V30 5656 H 558.15 0.731677 0.0884201 0
M  V30 5657 H 560.792 1.84106 -0.469584 0
M  V30 5658 H 558.942 3.70539 1.16761 0
M  V30 5659 H 560.614 4.41274 -1.34444 0
M  V30 5660 H 558.857 4.12892 -1.33052 0
M  V30 5661 H 559.528 5.50202 -0.445186 0
M  V30 5662 H 562.004 4.07365 0.848113 0
M  V30 5663 H 560.88 5.26563 1.54992 0
M  V30 5664 H 561.141 3.7333 2.36805 0
M  V30 5665 N 560.2 0.0768682 1.57412 0
M  V30 5666 C 561.447 -0.591085 1.93681 0
M  V30 5667 C 561.775 -1.69311 0.957286 0
M  V30 5668 O 561.03 -1.95682 -0.0262428 0
M  V30 5669 C 561.329 -1.20268 3.36557 0
M  V30 5670 C 560.995 -0.226286 4.50332 0
M  V30 5671 C 559.657 0.0423142 4.81181 0
M  V30 5672 C 562.009 0.441415 5.19327 0
M  V30 5673 C 559.337 0.985616 5.78362 0
M  V30 5674 C 561.689 1.37307 6.17519 0
M  V30 5675 C 560.353 1.65009 6.46783 0
M  V30 5676 H 559.623 -0.216293 0.70873 0
M  V30 5677 H 562.27 0.148824 1.90921 0
M  V30 5678 H 560.575 -2.01844 3.35807 0
M  V30 5679 H 562.272 -1.72688 3.61911 0
M  V30 5680 H 558.862 -0.445821 4.26275 0
M  V30 5681 H 563.046 0.247023 4.95685 0
M  V30 5682 H 558.302 1.20743 5.99359 0
M  V30 5683 H 562.476 1.89637 6.70083 0
M  V30 5684 H 560.103 2.38263 7.21897 0
M  V30 5685 N 561.678 -1.56367 -0.196722 0
M  V30 5686 C 562.926 -1.80172 -0.915554 0
M  V30 5687 C 563.247 -0.649649 -1.8386 0
M  V30 5688 O 562.517 0.332111 -1.93064 0
M  V30 5689 H 561.097 -0.664592 -0.341067 0
M  V30 5690 H 563.759 -1.93844 -0.202622 0
M  V30 5691 H 562.855 -2.7327 -1.50764 0
M  V30 5692 N 563.156 0.464375 -1.50603 0
M  V30 5693 C 564.567 1.04507 -1.5471 0
M  V30 5694 C 564.918 1.9297 -0.354542 0
M  V30 5695 O 564.043 2.09763 0.531812 0
M  V30 5696 C 564.638 1.90207 -2.80369 0
M  V30 5697 C 563.197 2.43373 -2.87135 0
M  V30 5698 C 562.344 1.21886 -2.49076 0
M  V30 5699 H 565.295 0.246716 -1.56771 0
M  V30 5700 H 565.316 2.75353 -2.62604 0
M  V30 5701 H 564.828 1.25796 -3.67147 0
M  V30 5702 H 562.929 3.11318 -2.04724 0
M  V30 5703 H 563.042 2.7802 -3.90181 0
M  V30 5704 H 561.406 1.55575 -2.01664 0
M  V30 5705 H 562.189 0.591268 -3.3817 0
M  V30 5706 N 564.634 1.40294 0.718013 0
M  V30 5707 C 565.88 1.38645 1.48005 0
M  V30 5708 C 566.213 -0.0121202 1.94196 0
M  V30 5709 O 565.488 -0.980309 1.67989 0
M  V30 5710 C 565.771 2.37379 2.70782 0
M  V30 5711 C 565.624 3.8625 2.30501 0
M  V30 5712 C 566.943 2.33685 3.72933 0
M  V30 5713 H 564.062 0.504928 0.536858 0
M  V30 5714 H 566.704 1.71411 0.819649 0
M  V30 5715 H 564.854 2.09568 3.27129 0
M  V30 5716 H 566.526 4.24879 1.79655 0
M  V30 5717 H 564.769 4.02202 1.6253 0
M  V30 5718 H 565.44 4.50847 3.18498 0
M  V30 5719 H 567.916 2.58314 3.2621 0
M  V30 5720 H 566.792 3.0482 4.56482 0
M  V30 5721 H 567.053 1.34765 4.21059 0
M  V30 5722 N 566.112 -0.949982 1.2575 0
M  V30 5723 C 567.358 -1.69766 1.10938 0
M  V30 5724 C 567.691 -1.91056 -0.348028 0
M  V30 5725 O 566.966 -1.48488 -1.25625 0
M  V30 5726 C 567.249 -3.07779 1.86933 0
M  V30 5727 C 567.102 -2.9387 3.4053 0
M  V30 5728 C 568.421 -4.07749 1.65616 0
M  V30 5729 H 565.54 -0.616144 0.404396 0
M  V30 5730 H 568.182 -1.10394 1.54639 0
M  V30 5731 H 566.332 -3.58462 1.4979 0
M  V30 5732 H 568.004 -2.50476 3.87375 0
M  V30 5733 H 566.247 -2.29686 3.68004 0
M  V30 5734 H 566.918 -3.91719 3.88922 0
M  V30 5735 H 569.394 -3.65994 1.97959 0
M  V30 5736 H 568.27 -5.02348 2.21218 0
M  V30 5737 H 568.531 -4.38029 0.598595 0
M  V30 5738 N 567.59 -1.07411 -1.15328 0
M  V30 5739 C 568.815 -0.818856 -1.90551 0
M  V30 5740 C 569.24 0.622194 -1.77512 0
M  V30 5741 O 568.598 1.43484 -1.10824 0
M  V30 5742 C 568.646 -1.23267 -3.38877 0
M  V30 5743 O 567.75 -0.378345 -4.10661 0
M  V30 5744 H 567.091 -0.29827 -0.593238 0
M  V30 5745 H 569.621 -1.43289 -1.46046 0
M  V30 5746 H 569.631 -1.20912 -3.89672 0
M  V30 5747 H 568.306 -2.28226 -3.47686 0
M  V30 5748 H 566.883 -0.464437 -3.69996 0
M  V30 5749 N 569.068 1.32177 -0.85831 0
M  V30 5750 C 570.314 1.97417 -0.46417 0
M  V30 5751 C 570.647 1.67746 0.978514 0
M  V30 5752 O 569.922 0.967654 1.68721 0
M  V30 5753 C 570.205 3.53069 -0.708094 0
M  V30 5754 C 570.058 3.92357 -2.19946 0
M  V30 5755 C 571.377 4.39783 -0.166881 0
M  V30 5756 H 568.496 0.717097 -0.17012 0
M  V30 5757 H 571.138 1.56499 -1.07741 0
M  V30 5758 H 569.288 3.88054 -0.186128 0
M  V30 5759 H 570.96 3.67533 -2.78779 0
M  V30 5760 H 569.203 3.41384 -2.67656 0
M  V30 5761 H 569.874 5.00841 -2.32082 0
M  V30 5762 H 572.35 4.11556 -0.613285 0
M  V30 5763 H 571.226 5.47671 -0.367093 0
M  V30 5764 H 571.487 4.32196 0.930559 0
M  V30 5765 N 570.547 0.616602 1.45037 0
M  V30 5766 C 571.775 0.121968 2.0654 0
M  V30 5767 C 572.19 -1.19743 1.45969 0
M  V30 5768 O 571.547 -1.73133 0.577168 0
M  V30 5769 C 571.598 -0.0145171 3.61497 0
M  V30 5770 O 571.319 1.25269 4.19809 0
M  V30 5771 C 572.82 -0.539555 4.40004 0
M  V30 5772 H 570.04 0.0729837 0.667019 0
M  V30 5773 H 572.584 0.846891 1.8614 0
M  V30 5774 H 570.739 -0.689809 3.81209 0
M  V30 5775 H 571.153 1.08816 5.13088 0
M  V30 5776 H 572.627 -0.584112 5.48901 0
M  V30 5777 H 573.104 -1.56368 4.10421 0
M  V30 5778 H 573.71 0.101995 4.25178 0
M  V30 5779 N 572.025 -1.5352 0.356285 0
M  V30 5780 C 573.436 -1.86282 -0.12492 0
M  V30 5781 C 573.787 -1.27717 -1.48939 0
M  V30 5782 O 572.912 -0.595614 -2.08042 0
M  V30 5783 C 573.507 -3.37995 -0.23345 0
M  V30 5784 C 572.066 -3.70588 -0.658899 0
M  V30 5785 C 571.213 -2.76581 0.199596 0
M  V30 5786 H 574.164 -1.47901 0.575423 0
M  V30 5787 H 574.185 -3.65475 -1.0587 0
M  V30 5788 H 573.697 -3.8059 0.759776 0
M  V30 5789 H 571.798 -3.33544 -1.66069 0
M  V30 5790 H 571.911 -4.77076 -0.439957 0
M  V30 5791 H 570.275 -2.52552 -0.330076 0
M  V30 5792 H 571.058 -3.22008 1.19019 0
M  V30 5793 N 573.503 -0.0852151 -1.57369 0
M  V30 5794 C 574.75 0.580806 -1.93992 0
M  V30 5795 C 575.078 1.68801 -0.966252 0
M  V30 5796 O 574.333 1.95694 0.0158649 0
M  V30 5797 C 574.632 1.18482 -3.3719 0
M  V30 5798 C 574.298 0.2024 -4.50446 0
M  V30 5799 C 572.96 -0.0678318 -4.81152 0
M  V30 5800 C 575.312 -0.46895 -5.19086 0
M  V30 5801 C 572.64 -1.01627 -5.77831 0
M  V30 5802 C 574.992 -1.4058 -6.16782 0
M  V30 5803 C 573.656 -1.68436 -6.45899 0
M  V30 5804 H 572.926 0.212532 -0.709867 0
M  V30 5805 H 575.573 -0.158947 -1.90839 0
M  V30 5806 H 573.878 2.0006 -3.36873 0
M  V30 5807 H 575.575 1.70767 -3.62822 0
M  V30 5808 H 572.165 0.423208 -4.26505 0
M  V30 5809 H 576.349 -0.273307 -4.95547 0
M  V30 5810 H 571.605 -1.2392 -5.9871 0
M  V30 5811 H 575.779 -1.93188 -6.69068 0
M  V30 5812 H 573.406 -2.42088 -7.20623 0
M  V30 5813 N 574.981 1.5647 0.188427 0
M  V30 5814 C 576.258 1.71857 0.934058 0
M  V30 5815 C 576.638 0.641867 2.01105 0
M  V30 5816 O 575.986 -0.346098 2.25864 0
M  V30 5817 C 576.196 3.14431 1.5144 0
M  V30 5818 C 577.544 3.74869 1.99396 0
M  V30 5819 O 578.568 3.17601 1.61269 0
M  V30 5820 O 577.427 4.75387 2.69573 0
M  V30 5821 H 574.521 0.701186 0.438483 0
M  V30 5822 H 577.067 1.68768 0.177599 0
M  V30 5823 H 575.839 3.8427 0.738416 0
M  V30 5824 H 575.462 3.21775 2.33552 0
M  V30 5825 N 576.459 -0.456382 1.50847 0
M  V30 5826 C 577.407 -1.57318 1.71329 0
M  V30 5827 C 578.401 -1.59187 0.579287 0
M  V30 5828 O 579.607 -1.6316 0.76018 0
M  V30 5829 H 575.982 -0.5223 0.541024 0
M  V30 5830 H 577.953 -1.3721 2.64983 0
M  V30 5831 C 576.702 -2.95142 1.83811 0
M  V30 5832 H 576.025 -2.94428 2.70467 0
M  V30 5833 H 577.465 -3.72702 2.02161 0
M  V30 5834 C 575.924 -3.31636 0.593224 0
M  V30 5835 O 576.454 -4.00852 -0.260898 0
M  V30 5836 N 574.66 -2.87205 0.442902 0
M  V30 5837 H 574.207 -2.31051 1.13901 0
M  V30 5838 H 574.165 -3.11986 -0.38884 0
M  V30 5839 N 577.937 -1.40673 -0.710563 0
M  V30 5840 C 578.847 -1.43663 -1.85467 0
M  V30 5841 C 579.863 -0.328721 -1.70867 0
M  V30 5842 O 581.039 -0.574098 -1.93044 0
M  V30 5843 C 578.104 -1.30226 -3.21313 0
M  V30 5844 C 577.165 -2.51204 -3.48131 0
M  V30 5845 C 576.398 -2.38398 -4.77495 0
M  V30 5846 O 576.621 -1.40048 -5.5294 0
M  V30 5847 O 575.555 -3.2787 -5.04762 0
M  V30 5848 H 579.381 -2.40156 -1.859 0
M  V30 5849 H 576.966 -1.22049 -0.861652 0
M  V30 5850 H 578.848 -1.2496 -4.02446 0
M  V30 5851 H 577.523 -0.368419 -3.21597 0
M  V30 5852 H 576.43 -2.62048 -2.66987 0
M  V30 5853 H 577.763 -3.43366 -3.52648 0
M  V30 5854 N 579.415 0.9433 -1.26252 0
M  V30 5855 C 580.325 2.07532 -1.09397 0
M  V30 5856 C 581.341 1.73977 -0.0280449 0
M  V30 5857 O 582.517 2.00067 -0.231337 0
M  V30 5858 C 579.582 3.39002 -0.726523 0
M  V30 5859 C 578.643 3.86353 -1.87163 0
M  V30 5860 C 577.876 5.11549 -1.52162 0
M  V30 5861 O 578.099 5.68834 -0.422385 0
M  V30 5862 O 577.033 5.53889 -2.35565 0
M  V30 5863 H 580.859 2.24658 -2.04359 0
M  V30 5864 H 578.444 1.05988 -1.05295 0
M  V30 5865 H 580.326 4.18 -0.534236 0
M  V30 5866 H 579.001 3.2312 0.193721 0
M  V30 5867 H 577.908 3.0831 -2.11886 0
M  V30 5868 H 579.241 4.06752 -2.77152 0
M  V30 5869 N 580.893 1.08022 1.14757 0
M  V30 5870 C 581.825 0.664566 2.19354 0
M  V30 5871 C 582.838 -0.286374 1.60261 0
M  V30 5872 O 584.027 -0.0746362 1.78344 0
M  V30 5873 C 581.127 -0.0434634 3.38872 0
M  V30 5874 C 580.3 0.925381 4.27499 0
M  V30 5875 C 579.359 0.253398 5.2559 0
M  V30 5876 O 578.385 0.896581 5.62094 0
M  V30 5877 N 579.587 -0.998263 5.71852 0
M  V30 5878 H 582.352 1.56438 2.55631 0
M  V30 5879 H 579.913 0.965788 1.29939 0
M  V30 5880 H 581.905 -0.503857 4.01551 0
M  V30 5881 H 580.475 -0.845321 3.00954 0
M  V30 5882 H 579.695 1.56472 3.61815 0
M  V30 5883 H 580.983 1.58203 4.8358 0
M  V30 5884 H 580.381 -1.54063 5.44317 0
M  V30 5885 H 578.938 -1.40222 6.36538 0
M  V30 5886 N 582.371 -1.3172 0.865308 0
M  V30 5887 C 583.617 -1.97168 0.474633 0
M  V30 5888 C 583.95 -1.68263 -0.969604 0
M  V30 5889 O 583.225 -0.976588 -1.68205 0
M  V30 5890 C 583.508 -3.52689 0.726808 0
M  V30 5891 C 583.361 -3.91185 2.22024 0
M  V30 5892 C 584.68 -4.39689 0.190201 0
M  V30 5893 H 581.799 -0.716185 0.17392 0
M  V30 5894 H 584.441 -1.55925 1.08569 0
M  V30 5895 H 582.591 -3.8795 0.206705 0
M  V30 5896 H 584.263 -3.66049 2.80724 0
M  V30 5897 H 582.506 -3.3996 2.69462 0
M  V30 5898 H 583.177 -4.99604 2.34735 0
M  V30 5899 H 585.653 -4.11225 0.635103 0
M  V30 5900 H 584.529 -5.47469 0.396132 0
M  V30 5901 H 584.79 -4.32683 -0.907625 0
M  V30 5902 N 583.85 -0.624285 -1.44708 0
M  V30 5903 C 585.096 -0.126237 -2.02407 0
M  V30 5904 C 585.428 1.24618 -1.48943 0
M  V30 5905 O 584.704 1.82569 -0.670742 0
M  V30 5906 C 584.986 -0.105449 -3.59946 0
M  V30 5907 C 584.84 -1.50972 -4.23707 0
M  V30 5908 C 586.159 0.573629 -4.36346 0
M  V30 5909 H 583.278 -0.0473472 -0.735478 0
M  V30 5910 H 585.92 -0.799452 -1.72362 0
M  V30 5911 H 584.07 0.46783 -3.85673 0
M  V30 5912 H 585.742 -2.13136 -4.0911 0
M  V30 5913 H 583.985 -2.0656 -3.81465 0
M  V30 5914 H 584.656 -1.44727 -5.32689 0
M  V30 5915 H 587.132 0.0861787 -4.16011 0
M  V30 5916 H 586.008 0.557338 -5.46063 0
M  V30 5917 H 586.269 1.64276 -4.10446 0
M  V30 5918 N 585.328 1.53329 -0.364422 0
M  V30 5919 C 586.276 2.27212 0.497737 0
M  V30 5920 C 587.27 1.30146 1.08437 0
M  V30 5921 O 588.476 1.47778 1.0277 0
M  V30 5922 H 584.851 0.730329 0.179232 0
M  V30 5923 H 586.822 2.98037 -0.147182 0
M  V30 5924 C 585.571 3.07333 1.6261 0
M  V30 5925 H 584.894 3.81866 1.184 0
M  V30 5926 H 586.334 3.62209 2.20409 0
M  V30 5927 C 584.793 2.18102 2.56775 0
M  V30 5928 O 585.323 1.79104 3.59562 0
M  V30 5929 N 583.529 1.82759 2.25937 0
M  V30 5930 H 583.076 2.14671 1.42387 0
M  V30 5931 H 583.034 1.23342 2.89196 0
M  V30 5932 N 586.806 0.0935595 1.57322 0
M  V30 5933 C 588.052 -0.565234 1.95388 0
M  V30 5934 C 588.407 -1.65888 0.974632 0
M  V30 5935 O 587.7 -1.916 0.000376385 0
M  V30 5936 C 587.894 -1.16692 3.37813 0
M  V30 5937 C 587.723 -0.133091 4.49503 0
M  V30 5938 C 586.493 0.289884 5.04468 0
M  V30 5939 C 588.691 0.638141 5.10326 0
M  V30 5940 N 586.673 1.31214 5.99713 0
M  V30 5941 C 588.044 1.51227 6.01274 0
M  V30 5942 C 590.099 0.691827 4.9307 0
M  V30 5943 C 588.802 2.43536 6.76818 0
M  V30 5944 C 590.828 1.60251 5.69274 0
M  V30 5945 C 590.19 2.46427 6.59889 0
M  V30 5946 H 586.289 -0.177212 0.761656 0
M  V30 5947 H 588.873 0.175769 1.93905 0
M  V30 5948 H 587.044 -1.87775 3.39993 0
M  V30 5949 H 588.776 -1.78795 3.63063 0
M  V30 5950 H 585.531 -0.0975541 4.735 0
M  V30 5951 H 585.955 1.82143 6.52038 0
M  V30 5952 H 590.597 0.0397431 4.22781 0
M  V30 5953 H 588.315 3.0977 7.4637 0
M  V30 5954 H 591.901 1.64917 5.57937 0
M  V30 5955 H 590.781 3.15751 7.17824 0
M  V30 5956 N 588.284 -1.56567 -0.180126 0
M  V30 5957 C 589.247 -1.94852 -1.20686 0
M  V30 5958 C 590.247 -0.831212 -1.3765 0
M  V30 5959 O 591.437 -1.09841 -1.35206 0
M  V30 5960 C 588.569 -2.23565 -2.57355 0
M  V30 5961 H 589.762 -2.86722 -0.879225 0
M  V30 5962 H 587.315 -1.50489 -0.422237 0
M  V30 5963 H 588.05 -1.34381 -2.95148 0
M  V30 5964 H 587.835 -3.04999 -2.46411 0
M  V30 5965 H 589.325 -2.54137 -3.31367 0
M  V30 5966 N 589.762 0.448376 -1.51087 0
M  V30 5967 C 590.71 1.56407 -1.72161 0
M  V30 5968 C 591.704 1.58878 -0.587721 0
M  V30 5969 O 592.91 1.62755 -0.768822 0
M  V30 5970 H 589.285 0.519423 -0.543786 0
M  V30 5971 H 591.256 1.35803 -2.65707 0
M  V30 5972 C 590.005 2.94163 -1.85373 0
M  V30 5973 H 589.328 2.9299 -2.72024 0
M  V30 5974 H 590.768 3.71625 -2.04135 0
M  V30 5975 C 589.227 3.31317 -0.610803 0
M  V30 5976 O 589.757 4.00985 0.239636 0
M  V30 5977 N 587.963 2.86966 -0.458127 0
M  V30 5978 H 587.51 2.30443 -1.15124 0
M  V30 5979 H 587.468 3.12188 0.372289 0
M  V30 5980 N 591.24 1.41047 0.703093 0
M  V30 5981 C 592.517 1.30493 1.45708 0
M  V30 5982 C 592.897 -0.0709892 2.10981 0
M  V30 5983 O 592.245 -1.08471 2.01113 0
M  V30 5984 C 592.455 2.45287 2.48265 0
M  V30 5985 C 593.803 2.86104 3.13735 0
M  V30 5986 O 594.827 2.44971 2.58587 0
M  V30 5987 O 593.686 3.57206 4.13601 0
M  V30 5988 H 590.78 0.513144 0.648546 0
M  V30 5989 H 593.326 1.52995 0.734208 0
M  V30 5990 H 592.098 3.37135 1.98635 0
M  V30 5991 H 591.721 2.24622 3.28071 0
M  V30 5992 N 592.718 -0.936591 1.26751 0
M  V30 5993 C 593.943 -1.72288 1.15462 0
M  V30 5994 C 594.368 -1.85915 -0.285887 0
M  V30 5995 O 593.726 -1.35272 -1.20711 0
M  V30 5996 C 593.774 -3.10503 1.83359 0
M  V30 5997 O 592.878 -3.96745 1.1255 0
M  V30 5998 H 592.219 -0.52843 0.402067 0
M  V30 5999 H 594.749 -1.17271 1.67656 0
M  V30 6000 H 594.759 -3.60867 1.90365 0
M  V30 6001 H 593.434 -2.99901 2.88153 0
M  V30 6002 H 592.011 -3.55191 1.13551 0
M  V30 6003 N 594.196 -1.08629 -1.14182 0
M  V30 6004 C 595.128 -0.676189 -2.18998 0
M  V30 6005 C 596.141 0.277871 -1.60411 0
M  V30 6006 O 597.33 0.0651771 -1.78381 0
M  V30 6007 C 594.43 0.0254916 -3.3889 0
M  V30 6008 C 593.603 -0.948039 -4.27002 0
M  V30 6009 C 592.662 -0.281268 -5.25448 0
M  V30 6010 O 591.688 -0.926378 -5.61611 0
M  V30 6011 N 592.89 0.967923 -5.72374 0
M  V30 6012 H 595.655 -1.57792 -2.54798 0
M  V30 6013 H 593.216 -0.972665 -1.29425 0
M  V30 6014 H 595.208 0.482554 -4.01813 0
M  V30 6015 H 593.778 0.829348 -3.01398 0
M  V30 6016 H 592.998 -1.58388 -3.6098 0
M  V30 6017 H 594.286 -1.60765 -4.82734 0
M  V30 6018 H 593.684 1.51175 -5.45126 0
M  V30 6019 H 592.241 1.36844 -6.37273 0
M  V30 6020 N 595.674 1.31259 -0.872281 0
M  V30 6021 C 596.904 2.00504 -0.498183 0
M  V30 6022 C 597.312 1.65632 0.914479 0
M  V30 6023 O 596.655 0.882849 1.61095 0
M  V30 6024 C 596.717 3.5482 -0.578194 0
M  V30 6025 C 596.381 4.13172 -1.95289 0
M  V30 6026 C 597.378 4.30107 -2.92069 0
M  V30 6027 C 595.063 4.48846 -2.25483 0
M  V30 6028 C 597.057 4.81908 -4.17185 0
M  V30 6029 C 594.744 5.00349 -3.50847 0
M  V30 6030 C 595.742 5.16831 -4.46514 0
M  V30 6031 O 595.43 5.67228 -5.69656 0
M  V30 6032 H 595.162 0.648055 -0.192354 0
M  V30 6033 H 597.716 1.6841 -1.17589 0
M  V30 6034 H 595.946 3.86383 0.156438 0
M  V30 6035 H 597.635 4.05318 -0.217192 0
M  V30 6036 H 598.401 4.02862 -2.7005 0
M  V30 6037 H 594.28 4.35292 -1.51795 0
M  V30 6038 H 597.824 4.94688 -4.91863 0
M  V30 6039 H 593.721 5.27028 -3.72708 0
M  V30 6040 H 594.489 5.85592 -5.7186 0
M  V30 6041 N 597.152 0.631951 1.44375 0
M  V30 6042 C 598.4 0.136497 2.01639 0
M  V30 6043 C 598.721 -1.24637 1.49969 0
M  V30 6044 O 597.991 -1.82827 0.70363 0
M  V30 6045 H 596.571 0.0474703 0.74549 0
M  V30 6046 H 599.233 0.818837 1.76865 0
M  V30 6047 H 598.329 0.104817 3.11924 0
M  V30 6048 N 598.631 -1.53133 0.372548 0
M  V30 6049 C 599.561 -2.28876 -0.462412 0
M  V30 6050 C 600.542 -1.31583 -1.07796 0
M  V30 6051 O 601.727 -1.60461 -1.09389 0
M  V30 6052 C 598.857 -3.08317 -1.59868 0
M  V30 6053 C 597.811 -4.13355 -1.11003 0
M  V30 6054 C 597.137 -4.8092 -2.33708 0
M  V30 6055 C 598.437 -5.21955 -0.18983 0
M  V30 6056 H 600.131 -2.9892 0.169511 0
M  V30 6057 H 597.677 -1.43761 0.0829658 0
M  V30 6058 H 599.63 -3.60055 -2.18949 0
M  V30 6059 H 598.354 -2.35976 -2.25794 0
M  V30 6060 H 597.013 -3.62573 -0.541869 0
M  V30 6061 H 596.661 -4.05144 -2.98106 0
M  V30 6062 H 596.361 -5.51904 -2.01682 0
M  V30 6063 H 597.885 -5.35455 -2.93462 0
M  V30 6064 H 599.299 -5.69153 -0.688319 0
M  V30 6065 H 597.696 -6.00087 0.0398887 0
M  V30 6066 H 598.766 -4.78811 0.766057 0
M  V30 6067 N 600.109 -0.101901 -1.5727 0
M  V30 6068 C 601.072 0.840129 -2.13247 0
M  V30 6069 C 602.072 1.20625 -1.06331 0
M  V30 6070 O 603.262 1.13456 -1.32186 0
M  V30 6071 C 600.394 2.13372 -2.65867 0
M  V30 6072 H 601.587 0.353945 -2.97804 0
M  V30 6073 H 599.14 0.147167 -1.55606 0
M  V30 6074 H 599.875 2.66461 -1.84849 0
M  V30 6075 H 599.66 1.88085 -3.44044 0
M  V30 6076 H 601.15 2.80748 -3.09145 0
M  V30 6077 N 601.587 1.56661 0.17182 0
M  V30 6078 C 602.812 1.86459 0.908165 0
M  V30 6079 C 603.237 0.688181 1.75059 0
M  V30 6080 O 602.595 -0.362753 1.77634 0
M  V30 6081 C 602.643 3.14669 1.76112 0
M  V30 6082 O 601.747 2.96858 2.86268 0
M  V30 6083 H 601.088 0.613318 0.254434 0
M  V30 6084 H 603.618 2.03892 0.170113 0
M  V30 6085 H 603.628 3.46061 2.16115 0
M  V30 6086 H 602.303 3.99905 1.14233 0
M  V30 6087 H 600.88 2.76819 2.49852 0
M  V30 6088 N 603.065 -0.440357 1.51323 0
M  V30 6089 C 604.29 -1.21716 1.67928 0
M  V30 6090 C 604.715 -1.84328 0.374826 0
M  V30 6091 O 604.073 -1.68675 -0.664706 0
M  V30 6092 C 604.121 -2.27914 2.79442 0
M  V30 6093 O 603.225 -3.33325 2.42834 0
M  V30 6094 H 602.566 -0.35674 0.560029 0
M  V30 6095 H 605.096 -0.520417 1.97871 0
M  V30 6096 H 605.106 -2.72746 3.03436 0
M  V30 6097 H 603.781 -1.8172 3.741 0
M  V30 6098 H 602.358 -2.9399 2.294 0
M  V30 6099 N 604.543 -1.41418 -0.695603 0
M  V30 6100 C 605.789 -1.40982 -1.4578 0
M  V30 6101 C 606.122 -0.0187763 -1.94191 0
M  V30 6102 O 605.397 0.95346 -1.69527 0
M  V30 6103 C 605.68 -2.41657 -2.66972 0
M  V30 6104 C 605.533 -3.89869 -2.24327 0
M  V30 6105 C 606.852 -2.39589 -3.69168 0
M  V30 6106 H 603.971 -0.513405 -0.528757 0
M  V30 6107 H 606.613 -1.72693 -0.792275 0
M  V30 6108 H 604.763 -2.14746 -3.23754 0
M  V30 6109 H 606.435 -4.27683 -1.72872 0
M  V30 6110 H 604.678 -4.04737 -1.56111 0
M  V30 6111 H 605.349 -4.55857 -3.11285 0
M  V30 6112 H 607.825 -2.63471 -3.2206 0
M  V30 6113 H 606.701 -3.12044 -4.51575 0
M  V30 6114 H 606.962 -1.41447 -4.18862 0
M  V30 6115 N 606.021 0.929856 -1.27246 0
M  V30 6116 C 607.267 1.6802 -1.14634 0
M  V30 6117 C 607.622 1.89965 0.305151 0
M  V30 6118 O 606.915 1.47737 1.22001 0
M  V30 6119 C 607.109 3.05116 -1.86115 0
M  V30 6120 C 606.938 2.96549 -3.38066 0
M  V30 6121 C 605.708 2.98947 -4.0738 0
M  V30 6122 C 607.906 2.7583 -4.34077 0
M  V30 6123 N 605.888 2.80799 -5.45917 0
M  V30 6124 C 607.259 2.66364 -5.59866 0
M  V30 6125 C 609.314 2.60701 -4.24193 0
M  V30 6126 C 608.017 2.43313 -6.76898 0
M  V30 6127 C 610.043 2.39026 -5.40944 0
M  V30 6128 C 609.405 2.30302 -6.65688 0
M  V30 6129 H 605.504 0.62172 -0.474329 0
M  V30 6130 H 608.088 1.09947 -1.60685 0
M  V30 6131 H 606.259 3.61306 -1.42522 0
M  V30 6132 H 607.991 3.69076 -1.66027 0
M  V30 6133 H 604.746 3.09093 -3.58829 0
M  V30 6134 H 605.17 2.74861 -6.18692 0
M  V30 6135 H 609.812 2.66206 -3.28473 0
M  V30 6136 H 607.53 2.36548 -7.72704 0
M  V30 6137 H 611.116 2.28208 -5.35175 0
M  V30 6138 H 609.996 2.13756 -7.54505 0
M  V30 6139 N 607.499 1.09233 1.13605 0
M  V30 6140 C 608.727 0.848908 1.88683 0
M  V30 6141 C 609.142 -0.599667 1.79024 0
M  V30 6142 O 608.499 -1.41265 1.15544 0
M  V30 6143 C 608.55 1.27273 3.38355 0
M  V30 6144 O 608.271 2.66449 3.47759 0
M  V30 6145 C 609.772 1.0614 4.30406 0
M  V30 6146 H 606.992 0.305549 0.597395 0
M  V30 6147 H 609.536 1.4538 1.43823 0
M  V30 6148 H 607.691 0.711776 3.80805 0
M  V30 6149 H 608.105 2.84264 4.40788 0
M  V30 6150 H 609.579 1.40725 5.33761 0
M  V30 6151 H 610.056 -0.000960332 4.392 0
M  V30 6152 H 610.662 1.60821 3.93722 0
M  V30 6153 N 608.977 -1.30795 0.87923 0
M  V30 6154 C 609.924 -2.28282 0.339968 0
M  V30 6155 C 610.894 -1.56134 -0.566685 0
M  V30 6156 O 612.079 -1.84231 -0.496338 0
M  V30 6157 C 609.219 -3.42225 -0.444501 0
M  V30 6158 C 608.332 -4.29204 0.490717 0
M  V30 6159 C 607.467 -5.30302 -0.308784 0
M  V30 6160 C 606.506 -6.08929 0.622272 0
M  V30 6161 N 605.643 -7.01957 -0.14155 0
M  V30 6162 H 610.483 -2.73794 1.17647 0
M  V30 6163 H 608.02 -1.34682 0.591527 0
M  V30 6164 H 609.978 -4.07038 -0.915186 0
M  V30 6165 H 608.608 -2.97799 -1.24562 0
M  V30 6166 H 607.66 -3.6475 1.07988 0
M  V30 6167 H 608.972 -4.84045 1.20425 0
M  V30 6168 H 608.126 -6.00835 -0.841575 0
M  V30 6169 H 606.865 -4.7614 -1.05556 0
M  V30 6170 H 605.87 -5.37278 1.16674 0
M  V30 6171 H 607.095 -6.65178 1.36804 0
M  V30 6172 H 605.041 -6.50192 -0.870966 0
M  V30 6173 H 604.958 -7.54261 0.51246 0
M  V30 6174 H 606.226 -7.76741 -0.655271 0
M  V30 6175 N 610.455 -0.639598 -1.44038 0
M  V30 6176 C 611.732 -0.078012 -1.95444 0
M  V30 6177 C 612.112 1.39847 -1.58133 0
M  V30 6178 O 611.46 2.11714 -0.859614 0
M  V30 6179 C 611.67 -0.309832 -3.47622 0
M  V30 6180 C 613.018 -0.207521 -4.24093 0
M  V30 6181 O 614.042 -0.241653 -3.55379 0
M  V30 6182 O 612.901 -0.119641 -5.46369 0
M  V30 6183 H 609.995 0.0174534 -0.826816 0
M  V30 6184 H 612.541 -0.711891 -1.54046 0
M  V30 6185 H 611.313 -1.33401 -3.67858 0
M  V30 6186 H 610.936 0.357777 -3.95987 0
M  V30 6187 N 611.933 1.52934 -0.380664 0
M  V30 6188 C 613.179 2.01765 0.20458 0
M  V30 6189 C 613.512 1.26696 1.47179 0
M  V30 6190 O 612.787 0.364936 1.91046 0
M  V30 6191 C 613.07 3.56869 0.481269 0
M  V30 6192 C 612.923 4.42617 -0.800629 0
M  V30 6193 C 614.242 4.2121 1.27554 0
M  V30 6194 H 611.361 0.733388 0.0728803 0
M  V30 6195 H 614.003 1.83068 -0.50853 0
M  V30 6196 H 612.153 3.72932 1.08875 0
M  V30 6197 H 613.825 4.38323 -1.43773 0
M  V30 6198 H 612.068 4.09977 -1.4178 0
M  V30 6199 H 612.739 5.49134 -0.561791 0
M  V30 6200 H 615.215 4.09072 0.761514 0
M  V30 6201 H 614.091 5.29732 1.43788 0
M  V30 6202 H 614.352 3.78269 2.28833 0
M  V30 6203 N 613.412 0.11024 1.57214 0
M  V30 6204 C 614.66 -0.548783 1.94506 0
M  V30 6205 C 614.981 -1.67772 0.99386 0
M  V30 6206 O 614.251 -1.9584 0.0485841 0
M  V30 6207 H 612.831 -0.205715 0.718116 0
M  V30 6208 H 615.493 0.177127 1.94093 0
M  V30 6209 H 614.589 -0.949096 2.97319 0
M  V30 6210 N 614.89 -1.56749 -0.16351 0
M  V30 6211 C 616.306 -1.51043 -0.515567 0
M  V30 6212 C 616.506 -0.815855 -1.84245 0
M  V30 6213 O 615.562 -0.379477 -2.49632 0
M  V30 6214 C 616.875 -2.95791 -0.541114 0
M  V30 6215 C 618.423 -3.0664 -0.627776 0
M  V30 6216 C 618.898 -4.52861 -0.684141 0
M  V30 6217 N 620.389 -4.5714 -0.746818 0
M  V30 6218 C 621.124 -5.67634 -0.811137 0
M  V30 6219 N 620.62 -6.8774 -0.835811 0
M  V30 6220 N 622.413 -5.55624 -0.850756 0
M  V30 6221 H 614.564 -2.00307 0.70645 0
M  V30 6222 H 616.827 -0.912876 0.255659 0
M  V30 6223 H 616.533 -3.49797 0.365329 0
M  V30 6224 H 616.407 -3.50858 -1.38487 0
M  V30 6225 H 618.794 -2.52663 -1.52464 0
M  V30 6226 H 618.875 -2.54645 0.242805 0
M  V30 6227 H 618.519 -5.07472 0.2085 0
M  V30 6228 H 618.449 -5.02621 -1.57098 0
M  V30 6229 H 620.94 -3.70669 -0.735717 0
M  V30 6230 H 621.253 -7.67701 -0.886279 0
M  V30 6231 H 619.598 -6.90334 -0.803958 0
M  V30 6232 H 622.789 -4.60709 -0.828535 0
M  V30 6233 H 622.962 -6.41756 -0.897418 0
M  V30 6234 N 616.368 0.432326 -1.51554 0
M  V30 6235 C 617.331 1.50765 -1.72634 0
M  V30 6236 C 618.331 1.49334 -0.596314 0
M  V30 6237 O 619.521 1.51268 -0.863925 0
M  V30 6238 C 616.653 2.90284 -1.7874 0
M  V30 6239 H 617.846 1.33377 -2.68609 0
M  V30 6240 H 615.399 0.661329 -1.4162 0
M  V30 6241 H 616.134 3.13071 -0.845977 0
M  V30 6242 H 615.919 2.92727 -2.6087 0
M  V30 6243 H 617.409 3.68282 -1.96871 0
M  V30 6244 N 617.846 1.41785 0.688094 0
M  V30 6245 C 618.796 1.40684 1.79421 0
M  V30 6246 C 619.78 0.280096 1.58443 0
M  V30 6247 O 620.972 0.521332 1.69148 0
M  V30 6248 C 618.101 1.29874 3.17785 0
M  V30 6249 C 617.187 2.47442 3.44432 0
M  V30 6250 N 617.578 3.72895 3.41736 0
M  V30 6251 C 615.876 2.41416 3.75013 0
M  V30 6252 C 616.577 4.50912 3.67496 0
M  V30 6253 N 615.553 3.81131 3.87608 0
M  V30 6254 H 619.355 2.35591 1.7571 0
M  V30 6255 H 616.869 1.35946 0.888393 0
M  V30 6256 H 618.866 1.27168 3.97031 0
M  V30 6257 H 617.526 0.359587 3.22703 0
M  V30 6258 H 618.537 4.05676 3.21943 0
M  V30 6259 H 615.214 1.56011 3.87256 0
M  V30 6260 H 616.604 5.59865 3.71484 0
M  V30 6261 N 619.324 -0.923095 1.27737 0
M  V30 6262 C 620.74 -1.19985 1.05241 0
M  V30 6263 C 620.94 -2.00391 -0.21113 0
M  V30 6264 O 619.996 -2.35324 -0.915366 0
M  V30 6265 C 621.309 -1.94352 2.29451 0
M  V30 6266 C 622.857 -2.07273 2.34536 0
M  V30 6267 C 623.332 -2.85046 3.58487 0
M  V30 6268 N 624.823 -2.92612 3.59072 0
M  V30 6269 C 625.558 -3.53266 4.51654 0
M  V30 6270 N 625.054 -4.15274 5.54545 0
M  V30 6271 N 626.847 -3.50714 4.39268 0
M  V30 6272 H 618.998 -0.386042 2.08862 0
M  V30 6273 H 621.261 -0.233407 0.918817 0
M  V30 6274 H 620.967 -1.42692 3.21453 0
M  V30 6275 H 620.841 -2.94947 2.3513 0
M  V30 6276 H 623.228 -2.58117 1.43037 0
M  V30 6277 H 623.309 -1.05884 2.32857 0
M  V30 6278 H 622.953 -2.34884 4.50324 0
M  V30 6279 H 622.883 -3.8673 3.57418 0
M  V30 6280 H 625.374 -2.48547 2.84663 0
M  V30 6281 H 625.687 -4.59507 6.21348 0
M  V30 6282 H 624.032 -4.13806 5.58382 0
M  V30 6283 H 627.223 -3.01475 3.58093 0
M  V30 6284 H 627.396 -3.97693 5.1161 0
M  V30 6285 N 620.802 -1.09834 -1.13024 0
M  V30 6286 C 622.048 -0.83819 -1.84668 0
M  V30 6287 C 622.381 0.634645 -1.83537 0
M  V30 6288 O 621.656 1.46753 -1.27647 0
M  V30 6289 C 621.939 -1.37933 -3.32636 0
M  V30 6290 C 621.792 -2.91857 -3.42257 0
M  V30 6291 C 623.111 -1.01654 -4.28199 0
M  V30 6292 H 620.23 -0.30595 -0.670495 0
M  V30 6293 H 622.872 -1.36044 -1.32635 0
M  V30 6294 H 621.022 -0.935111 -3.77078 0
M  V30 6295 H 622.694 -3.44759 -3.06495 0
M  V30 6296 H 620.937 -3.28776 -2.83 0
M  V30 6297 H 621.608 -3.24799 -4.46329 0
M  V30 6298 H 624.084 -1.39973 -3.9185 0
M  V30 6299 H 622.96 -1.42217 -5.30156 0
M  V30 6300 H 623.221 0.0747794 -4.42037 0
M  V30 6301 N 622.28 1.30327 -0.886154 0
M  V30 6302 C 623.505 2.0079 -0.519425 0
M  V30 6303 C 623.93 1.65979 0.885013 0
M  V30 6304 O 623.288 0.877043 1.58675 0
M  V30 6305 C 623.336 3.53686 -0.702758 0
M  V30 6306 O 622.44 4.11637 0.250828 0
M  V30 6307 H 621.781 0.63171 -0.204544 0
M  V30 6308 H 624.311 1.66145 -1.19402 0
M  V30 6309 H 624.321 4.03531 -0.602207 0
M  V30 6310 H 622.996 3.78361 -1.72673 0
M  V30 6311 H 621.573 3.72755 0.103873 0
M  V30 6312 N 623.758 0.647228 1.43697 0
M  V30 6313 C 624.721 -0.0385101 2.29168 0
M  V30 6314 C 625.721 -0.756487 1.41894 0
M  V30 6315 O 626.911 -0.598641 1.63591 0
M  V30 6316 C 624.043 -1.06524 3.23829 0
M  V30 6317 H 625.236 0.713445 2.9129 0
M  V30 6318 H 622.789 0.408153 1.50877 0
M  V30 6319 H 623.524 -1.84664 2.66589 0
M  V30 6320 H 623.309 -0.554147 3.88164 0
M  V30 6321 H 624.799 -1.54432 3.87996 0
M  V30 6322 N 625.236 -1.5273 0.388769 0
M  V30 6323 C 626.652 -1.59553 0.0387049 0
M  V30 6324 C 626.852 -1.40278 -1.44652 0
M  V30 6325 O 625.908 -1.21951 -2.21098 0
M  V30 6326 C 627.221 -2.9625 0.515409 0
M  V30 6327 C 628.769 -3.09426 0.471621 0
M  V30 6328 C 629.244 -4.48572 0.924505 0
M  V30 6329 N 630.735 -4.54754 0.880496 0
M  V30 6330 C 631.47 -5.60653 1.20234 0
M  V30 6331 N 630.966 -6.74198 1.59463 0
M  V30 6332 N 632.759 -5.50755 1.12363 0
M  V30 6333 H 624.91 -1.63508 1.35569 0
M  V30 6334 H 627.173 -0.768097 0.555636 0
M  V30 6335 H 626.879 -3.15569 1.5527 0
M  V30 6336 H 626.753 -3.77102 -0.085792 0
M  V30 6337 H 629.14 -2.89804 -0.556588 0
M  V30 6338 H 629.221 -2.30528 1.10862 0
M  V30 6339 H 628.865 -4.68936 1.95094 0
M  V30 6340 H 628.795 -5.25935 0.264524 0
M  V30 6341 H 631.286 -3.73237 0.591815 0
M  V30 6342 H 631.599 -7.5097 1.82385 0
M  V30 6343 H 629.944 -6.75531 1.63349 0
M  V30 6344 H 633.135 -4.6093 0.816169 0
M  V30 6345 H 633.308 -6.33184 1.37777 0
M  V30 6346 N 626.714 -0.118576 -1.57153 0
M  V30 6347 C 627.644 0.828436 -2.1831 0
M  V30 6348 C 628.625 1.27758 -1.12303 0
M  V30 6349 O 629.81 1.34026 -1.40537 0
M  V30 6350 C 626.94 2.07876 -2.78217 0
M  V30 6351 C 625.894 1.76742 -3.89803 0
M  V30 6352 C 625.22 3.08801 -4.36516 0
M  V30 6353 C 626.52 1.03606 -5.11921 0
M  V30 6354 H 628.214 0.318824 -2.97698 0
M  V30 6355 H 625.76 0.151911 -1.43196 0
M  V30 6356 H 627.713 2.74584 -3.19659 0
M  V30 6357 H 626.437 2.61161 -1.96118 0
M  V30 6358 H 625.096 1.12424 -3.48936 0
M  V30 6359 H 624.744 3.6002 -3.51276 0
M  V30 6360 H 624.444 2.88743 -5.11763 0
M  V30 6361 H 625.968 3.76627 -4.80608 0
M  V30 6362 H 627.382 1.60467 -5.50385 0
M  V30 6363 H 625.779 0.936454 -5.92748 0
M  V30 6364 H 626.849 0.0227421 -4.84895 0
M  V30 6365 N 628.193 1.56834 0.155195 0
M  V30 6366 C 629.125 1.94235 1.21677 0
M  V30 6367 C 630.138 0.83724 1.39621 0
M  V30 6368 O 631.327 1.11567 1.39338 0
M  V30 6369 C 628.427 2.19402 2.58294 0
M  V30 6370 C 627.6 3.50671 2.61436 0
M  V30 6371 C 626.659 3.64475 3.79532 0
M  V30 6372 O 625.685 4.36945 3.64784 0
M  V30 6373 N 626.887 3.00526 4.96653 0
M  V30 6374 H 629.652 2.85901 0.898932 0
M  V30 6375 H 627.213 1.58185 0.34483 0
M  V30 6376 H 629.205 2.25886 3.35794 0
M  V30 6377 H 627.775 1.34042 2.82403 0
M  V30 6378 H 626.995 3.55702 1.69912 0
M  V30 6379 H 628.283 4.3702 2.60559 0
M  V30 6380 H 627.681 2.41549 5.11538 0
M  V30 6381 H 626.238 3.12583 5.71958 0
M  V30 6382 N 629.671 -0.424282 1.51781 0
M  V30 6383 C 630.901 -1.19297 1.68677 0
M  V30 6384 C 631.309 -1.85152 0.389258 0
M  V30 6385 O 630.652 -1.72067 -0.643311 0
M  V30 6386 C 630.714 -2.30929 2.75521 0
M  V30 6387 C 630.378 -1.85335 4.17732 0
M  V30 6388 C 631.375 -1.34951 5.0208 0
M  V30 6389 C 629.06 -1.92629 4.63896 0
M  V30 6390 C 631.054 -0.924636 6.30658 0
M  V30 6391 C 628.741 -1.49754 5.92467 0
M  V30 6392 C 629.739 -0.997543 6.75676 0
M  V30 6393 O 629.427 -0.57492 8.01842 0
M  V30 6394 H 629.159 -0.36512 0.568914 0
M  V30 6395 H 631.713 -0.507327 1.99036 0
M  V30 6396 H 629.943 -3.02811 2.40505 0
M  V30 6397 H 631.632 -2.92748 2.81165 0
M  V30 6398 H 632.398 -1.287 4.67612 0
M  V30 6399 H 628.277 -2.30491 3.99243 0
M  V30 6400 H 631.821 -0.533682 6.95556 0
M  V30 6401 H 627.718 -1.55679 6.26446 0
M  V30 6402 H 628.486 -0.699597 8.15505 0
M  V30 6403 N 631.149 -1.42148 -0.680565 0
M  V30 6404 C 632.397 -1.42029 -1.43779 0
M  V30 6405 C 632.718 -0.0356347 -1.94967 0
M  V30 6406 O 631.988 0.924936 -1.7269 0
M  V30 6407 H 630.568 -0.522835 -0.533529 0
M  V30 6408 H 633.23 -1.7752 -0.804538 0
M  V30 6409 H 632.326 -2.11658 -2.29363 0
M  V30 6410 N 632.627 0.916307 -1.28225 0
M  V30 6411 C 633.867 1.67964 -1.16479 0
M  V30 6412 C 634.231 1.8991 0.282494 0
M  V30 6413 O 635.432 2.63671 0.522607 0
M  V30 6414 C 633.703 3.00251 -1.93866 0
M  V30 6415 S 635.262 3.91353 -1.98465 0
M  V30 6416 H 632.08 0.576873 -0.415619 0
M  V30 6417 H 634.682 1.09006 -1.62289 0
M  V30 6418 H 633.386 2.81978 -2.98189 0
M  V30 6419 H 632.917 3.64257 -1.48595 0
M  V30 6420 H 634.932 4.84096 -1.0893 0
M  V30 6421 N 634.105 1.10431 1.1244 0
M  V30 6422 C 635.333 0.868872 1.87772 0
M  V30 6423 C 635.748 -0.580645 1.7965 0
M  V30 6424 O 635.105 -1.40031 1.17036 0
M  V30 6425 C 635.156 1.30855 3.36986 0
M  V30 6426 O 634.877 2.70123 3.44914 0
M  V30 6427 C 636.378 1.107 4.29256 0
M  V30 6428 H 633.598 0.311868 0.59412 0
M  V30 6429 H 636.142 1.46897 1.42273 0
M  V30 6430 H 634.297 0.752126 3.80029 0
M  V30 6431 H 634.711 2.88923 4.37748 0
M  V30 6432 H 636.185 1.46378 5.32238 0
M  V30 6433 H 636.662 0.0456228 4.39176 0
M  V30 6434 H 637.268 1.64988 3.91994 0
M  V30 6435 N 635.583 -1.29855 0.893053 0
M  V30 6436 C 636.829 -1.96488 0.52574 0
M  V30 6437 C 637.184 -1.69164 -0.916594 0
M  V30 6438 O 636.477 -0.990405 -1.64017 0
M  V30 6439 C 636.671 -3.49515 0.746588 0
M  V30 6440 C 636.5 -3.91715 2.20884 0
M  V30 6441 C 635.27 -4.16915 2.85499 0
M  V30 6442 C 637.468 -4.03934 3.18342 0
M  V30 6443 N 635.45 -4.45634 4.22236 0
M  V30 6444 C 636.821 -4.36629 4.40176 0
M  V30 6445 C 638.876 -3.86387 3.14021 0
M  V30 6446 C 637.579 -4.53605 5.58243 0
M  V30 6447 C 639.605 -4.04569 4.31367 0
M  V30 6448 C 638.967 -4.37617 5.5197 0
M  V30 6449 H 635.066 -0.743657 0.241863 0
M  V30 6450 H 637.65 -1.56927 1.15248 0
M  V30 6451 H 635.821 -3.88113 0.149281 0
M  V30 6452 H 637.553 -4.03224 0.345372 0
M  V30 6453 H 634.308 -4.10423 2.36326 0
M  V30 6454 H 634.732 -4.64114 4.92876 0
M  V30 6455 H 639.374 -3.59906 2.21873 0
M  V30 6456 H 637.092 -4.78925 6.50889 0
M  V30 6457 H 640.678 -3.92452 4.29503 0
M  V30 6458 H 639.558 -4.51395 6.41258 0
M  V30 6459 N 637.061 -0.65484 -1.43351 0
M  V30 6460 C 638.307 -0.169142 -2.02093 0
M  V30 6461 C 638.64 1.21431 -1.51553 0
M  V30 6462 O 637.915 1.81105 -0.709317 0
M  V30 6463 C 638.198 -0.181775 -3.59641 0
M  V30 6464 C 638.051 -1.59926 -4.20409 0
M  V30 6465 C 639.37 0.480945 -4.37464 0
M  V30 6466 H 636.489 -0.0629371 -0.734308 0
M  V30 6467 H 639.131 -0.835833 -1.70628 0
M  V30 6468 H 637.281 0.385918 -3.86578 0
M  V30 6469 H 638.953 -2.21766 -4.04497 0
M  V30 6470 H 637.196 -2.14605 -3.76998 0
M  V30 6471 H 637.867 -1.55994 -5.295 0
M  V30 6472 H 640.343 -0.00208273 -4.161 0
M  V30 6473 H 639.219 0.441384 -5.47122 0
M  V30 6474 H 639.48 1.55533 -4.13838 0
M  V30 6475 N 638.539 1.52521 -0.396863 0
M  V30 6476 C 639.487 2.28217 0.44943 0
M  V30 6477 C 640.481 1.32416 1.05652 0
M  V30 6478 O 641.687 1.49925 0.996124 0
M  V30 6479 H 638.062 0.733966 0.1637 0
M  V30 6480 H 640.033 2.97658 -0.210367 0
M  V30 6481 C 638.782 3.10713 1.56054 0
M  V30 6482 H 638.105 3.84291 1.10273 0
M  V30 6483 H 639.545 3.66803 2.12677 0
M  V30 6484 C 638.004 2.23499 2.52091 0
M  V30 6485 O 638.534 1.8669 3.55682 0
M  V30 6486 N 636.74 1.8751 2.2201 0
M  V30 6487 H 636.287 2.17643 1.37802 0
M  V30 6488 H 636.245 1.29448 2.86514 0
M  V30 6489 N 640.017 0.126909 1.57088 0
M  V30 6490 C 641.245 -0.53667 1.99819 0
M  V30 6491 C 641.66 -1.5972 1.00673 0
M  V30 6492 O 641.017 -1.825 0.000747365 0
M  V30 6493 C 641.068 -1.15563 3.42531 0
M  V30 6494 O 640.789 -0.137483 4.37884 0
M  V30 6495 C 642.29 -1.90176 4.00435 0
M  V30 6496 H 639.51 -0.141443 0.655923 0
M  V30 6497 H 642.054 0.215578 2.03361 0
M  V30 6498 H 640.209 -1.85861 3.39904 0
M  V30 6499 H 640.623 -0.588229 5.21191 0
M  V30 6500 H 642.097 -2.28801 5.02349 0
M  V30 6501 H 642.574 -2.78002 3.40017 0
M  V30 6502 H 643.18 -1.24623 4.06632 0
M  V30 6503 N 641.495 -1.56914 -0.146875 0
M  V30 6504 C 642.445 -1.94693 -1.18653 0
M  V30 6505 C 643.429 -0.81821 -1.38543 0
M  V30 6506 O 644.621 -1.08167 -1.40103 0
M  V30 6507 C 641.75 -2.33117 -2.52014 0
M  V30 6508 C 640.836 -3.5256 -2.35717 0
M  V30 6509 N 641.227 -4.69091 -1.89175 0
M  V30 6510 C 639.525 -3.57647 -2.66467 0
M  V30 6511 C 640.226 -5.51187 -1.85924 0
M  V30 6512 N 639.202 -4.92899 -2.29242 0
M  V30 6513 H 643.004 -2.82264 -0.81879 0
M  V30 6514 H 640.518 -1.58474 -0.354929 0
M  V30 6515 H 642.515 -2.58387 -3.27172 0
M  V30 6516 H 641.175 -1.46898 -2.89571 0
M  V30 6517 H 642.186 -4.92844 -1.59139 0
M  V30 6518 H 638.863 -2.81967 -3.07898 0
M  V30 6519 H 640.253 -6.54613 -1.51431 0
M  V30 6520 N 642.974 0.416227 -1.52004 0
M  V30 6521 C 644.221 1.16383 -1.65714 0
M  V30 6522 C 644.549 1.9068 -0.383594 0
M  V30 6523 O 643.804 1.85174 0.633185 0
M  V30 6524 C 644.103 2.18923 -2.82502 0
M  V30 6525 C 643.769 1.61485 -4.20991 0
M  V30 6526 C 642.431 1.45545 -4.58661 0
M  V30 6527 C 644.783 1.19468 -5.07323 0
M  V30 6528 C 642.111 0.860937 -5.80349 0
M  V30 6529 C 644.463 0.614386 -6.29609 0
M  V30 6530 C 643.127 0.442056 -6.66035 0
M  V30 6531 H 642.397 0.425875 -0.606392 0
M  V30 6532 H 645.044 0.45199 -1.8609 0
M  V30 6533 H 643.349 2.96225 -2.56433 0
M  V30 6534 H 645.046 2.76628 -2.90307 0
M  V30 6535 H 641.636 1.74873 -3.91302 0
M  V30 6536 H 645.82 1.30596 -4.78809 0
M  V30 6537 H 641.076 0.715372 -6.072 0
M  V30 6538 H 645.25 0.280393 -6.95835 0
M  V30 6539 H 642.877 -0.0207218 -7.60197 0
M  V30 6540 N 644.452 1.42507 0.673017 0
M  V30 6541 C 645.385 1.40557 1.79774 0
M  V30 6542 C 646.363 0.269606 1.60349 0
M  V30 6543 O 647.547 0.460105 1.82798 0
M  V30 6544 C 644.674 1.19815 3.168 0
M  V30 6545 C 643.72 2.36429 3.5497 0
M  V30 6546 S 644.553 3.98963 3.57196 0
M  V30 6547 C 645.709 3.80567 4.9691 0
M  V30 6548 H 645.942 2.35734 1.81154 0
M  V30 6549 H 643.475 1.293 0.843846 0
M  V30 6550 H 645.433 1.08535 3.95892 0
M  V30 6551 H 644.094 0.262215 3.13004 0
M  V30 6552 H 643.287 2.17669 4.54573 0
M  V30 6553 H 642.889 2.44233 2.83242 0
M  V30 6554 H 645.181 3.41668 5.85038 0
M  V30 6555 H 646.124 4.79852 5.20718 0
M  V30 6556 H 646.532 3.13399 4.69512 0
M  V30 6557 N 645.93 -0.909495 1.28709 0
M  V30 6558 C 646.86 -2.0291 1.15542 0
M  V30 6559 C 647.841 -1.7002 0.0521017 0
M  V30 6560 O 649.026 -1.92835 0.229849 0
M  V30 6561 C 646.156 -3.37458 0.820935 0
M  V30 6562 C 645.11 -3.84524 1.87949 0
M  V30 6563 C 644.436 -5.16086 1.39854 0
M  V30 6564 C 645.736 -4.05918 3.28676 0
M  V30 6565 H 647.43 -2.14183 2.09203 0
M  V30 6566 H 644.976 -1.02913 1.00722 0
M  V30 6567 H 646.929 -4.1528 0.715571 0
M  V30 6568 H 645.653 -3.26249 -0.151374 0
M  V30 6569 H 644.312 -3.08911 1.97408 0
M  V30 6570 H 643.96 -5.01284 0.41518 0
M  V30 6571 H 643.66 -5.48547 2.1064 0
M  V30 6572 H 645.184 -5.96459 1.30649 0
M  V30 6573 H 646.598 -4.74252 3.22115 0
M  V30 6574 H 644.995 -4.49717 3.97334 0
M  V30 6575 H 646.065 -3.10583 3.72379 0
M  V30 6576 N 647.408 -1.11026 -1.11852 0
M  V30 6577 C 648.654 -0.857729 -1.83768 0
M  V30 6578 C 648.987 0.615143 -1.842 0
M  V30 6579 O 648.262 1.45391 -1.29196 0
M  V30 6580 C 648.545 -1.41453 -3.31154 0
M  V30 6581 C 648.398 -2.95471 -3.39142 0
M  V30 6582 C 649.717 -1.0619 -4.27097 0
M  V30 6583 H 646.836 -0.313044 -0.667212 0
M  V30 6584 H 649.478 -1.37443 -1.31185 0
M  V30 6585 H 647.628 -0.975052 -3.76065 0
M  V30 6586 H 649.3 -3.4799 -3.02821 0
M  V30 6587 H 647.543 -3.31759 -2.79497 0
M  V30 6588 H 648.214 -3.29515 -4.42859 0
M  V30 6589 H 650.69 -1.44122 -3.90344 0
M  V30 6590 H 649.566 -1.47832 -5.28618 0
M  V30 6591 H 649.827 0.0278912 -4.42091 0
M  V30 6592 N 648.886 1.2938 -0.899927 0
M  V30 6593 C 650.111 2.00228 -0.540692 0
M  V30 6594 C 650.536 1.66909 0.867359 0
M  V30 6595 O 649.894 0.893824 1.57735 0
M  V30 6596 C 649.942 3.52921 -0.740232 0
M  V30 6597 O 649.046 4.11879 0.207154 0
M  V30 6598 H 648.387 0.629505 -0.211233 0
M  V30 6599 H 650.917 1.6487 -1.21158 0
M  V30 6600 H 650.927 4.0287 -0.644973 0
M  V30 6601 H 649.602 3.76508 -1.76677 0
M  V30 6602 H 648.179 3.72845 0.0643315 0
M  V30 6603 N 650.364 0.662433 1.43002 0
M  V30 6604 C 651.274 -0.0239199 2.34588 0
M  V30 6605 C 652.29 -0.802255 1.54402 0
M  V30 6606 O 653.466 -0.747401 1.87018 0
M  V30 6607 C 650.531 -0.972098 3.32793 0
M  V30 6608 C 649.592 -0.189673 4.28881 0
M  V30 6609 C 648.825 -1.09269 5.22395 0
M  V30 6610 O 649.048 -2.33209 5.20547 0
M  V30 6611 O 647.982 -0.560136 5.99288 0
M  V30 6612 H 651.808 0.730171 2.94792 0
M  V30 6613 H 649.393 0.422635 1.43297 0
M  V30 6614 H 651.275 -1.51676 3.93157 0
M  V30 6615 H 649.95 -1.70626 2.75079 0
M  V30 6616 H 648.857 0.398794 3.71968 0
M  V30 6617 H 650.19 0.50511 4.89601 0
M  V30 6618 N 651.842 -1.52309 0.404946 0
M  V30 6619 C 652.775 -2.23369 -0.467087 0
M  V30 6620 C 653.753 -1.24034 -1.0514 0
M  V30 6621 O 654.937 -1.53071 -1.10006 0
M  V30 6622 C 652.064 -2.95906 -1.64795 0
M  V30 6623 C 651.11 -4.09637 -1.18743 0
M  V30 6624 S 651.943 -5.35273 -0.156022 0
M  V30 6625 C 653.099 -6.11337 -1.34231 0
M  V30 6626 H 653.332 -2.96987 0.136294 0
M  V30 6627 H 650.865 -1.53236 0.189219 0
M  V30 6628 H 652.823 -3.38304 -2.3251 0
M  V30 6629 H 651.484 -2.21937 -2.22267 0
M  V30 6630 H 650.677 -4.59549 -2.06955 0
M  V30 6631 H 650.279 -3.69333 -0.588981 0
M  V30 6632 H 652.571 -6.38458 -2.26665 0
M  V30 6633 H 653.514 -7.02563 -0.883804 0
M  V30 6634 H 653.922 -5.42338 -1.56621 0
M  V30 6635 N 653.32 -0.135238 -1.57019 0
M  V30 6636 C 654.731 0.387521 -1.82634 0
M  V30 6637 C 655.082 1.65528 -1.05332 0
M  V30 6638 O 654.207 2.14381 -0.294926 0
M  V30 6639 C 654.802 0.709852 -3.3128 0
M  V30 6640 C 653.361 1.17718 -3.57518 0
M  V30 6641 C 652.508 0.194183 -2.76619 0
M  V30 6642 H 655.459 -0.360126 -1.5456 0
M  V30 6643 H 655.48 1.5657 -3.46794 0
M  V30 6644 H 654.992 -0.213024 -3.87515 0
M  V30 6645 H 653.093 2.1164 -3.06658 0
M  V30 6646 H 653.206 1.11128 -4.66034 0
M  V30 6647 H 651.57 0.684478 -2.4533 0
M  V30 6648 H 652.353 -0.722076 -3.3562 0
M  V30 6649 N 654.798 1.5699 0.138552 0
M  V30 6650 C 655.748 1.9532 1.17619 0
M  V30 6651 C 656.732 0.825545 1.38107 0
M  V30 6652 O 657.924 1.08908 1.39528 0
M  V30 6653 C 655.053 2.34451 2.50774 0
M  V30 6654 C 654.139 3.53805 2.33844 0
M  V30 6655 N 654.53 4.70088 1.86685 0
M  V30 6656 C 652.828 3.59055 2.64567 0
M  V30 6657 C 653.529 5.52165 1.82998 0
M  V30 6658 N 652.505 4.94108 2.26624 0
M  V30 6659 H 656.307 2.82694 0.803809 0
M  V30 6660 H 653.821 1.5866 0.346519 0
M  V30 6661 H 655.818 2.60119 3.25797 0
M  V30 6662 H 654.478 1.48431 2.88788 0
M  V30 6663 H 655.489 4.93681 1.56523 0
M  V30 6664 H 652.166 2.83596 3.06398 0
M  V30 6665 H 653.556 6.55407 1.47957 0
M  V30 6666 N 656.276 -0.40816 1.52223 0
M  V30 6667 C 657.524 -1.15274 1.66001 0
M  V30 6668 C 657.845 -1.91003 0.392803 0
M  V30 6669 O 657.115 -1.8673 -0.592336 0
M  V30 6670 H 655.695 -0.428526 0.611861 0
M  V30 6671 H 658.357 -0.46512 1.89269 0
M  V30 6672 H 657.453 -1.86628 2.50153 0
M  V30 6673 N 657.755 -1.42862 -0.66545 0
M  V30 6674 C 659.003 -1.43546 -1.42264 0
M  V30 6675 C 659.324 -0.0563116 -1.94919 0
M  V30 6676 O 658.594 0.906568 -1.73661 0
M  V30 6677 H 657.174 -0.528464 -0.527953 0
M  V30 6678 H 659.836 -1.78363 -0.785665 0
M  V30 6679 H 658.932 -2.14079 -2.27105 0
M  V30 6680 N 659.233 0.902656 -1.29189 0
M  V30 6681 C 660.165 2.01149 -1.09872 0
M  V30 6682 C 661.178 1.62732 -0.0471046 0
M  V30 6683 O 662.367 1.76107 -0.29132 0
M  V30 6684 C 659.467 3.32612 -0.649818 0
M  V30 6685 C 658.64 3.99574 -1.7793 0
M  V30 6686 C 657.699 5.09325 -1.32191 0
M  V30 6687 O 656.725 5.31919 -2.02611 0
M  V30 6688 N 657.927 5.80185 -0.191171 0
M  V30 6689 H 660.692 2.18276 -2.05368 0
M  V30 6690 H 658.253 1.07466 -1.2109 0
M  V30 6691 H 660.245 4.03375 -0.327199 0
M  V30 6692 H 658.815 3.11876 0.212597 0
M  V30 6693 H 658.035 3.22213 -2.27095 0
M  V30 6694 H 659.323 4.41056 -2.53668 0
M  V30 6695 H 658.721 5.64312 0.396016 0
M  V30 6696 H 657.278 6.5176 0.0721001 0
M  V30 6697 N 660.711 1.11618 1.11262 0
M  V30 6698 C 661.658 0.7762 2.17356 0
M  V30 6699 C 662.628 -0.253152 1.6416 0
M  V30 6700 O 663.813 -0.129655 1.90359 0
M  V30 6701 C 660.953 0.227581 3.44349 0
M  V30 6702 C 660.066 1.31372 4.1154 0
M  V30 6703 C 659.201 0.72544 5.26223 0
M  V30 6704 C 658.24 1.7913 5.85302 0
M  V30 6705 N 657.377 1.22237 6.91377 0
M  V30 6706 H 662.217 1.68508 2.45783 0
M  V30 6707 H 659.754 0.841475 1.20655 0
M  V30 6708 H 661.712 -0.108483 4.17059 0
M  V30 6709 H 660.342 -0.644486 3.16301 0
M  V30 6710 H 659.394 1.7667 3.36885 0
M  V30 6711 H 660.706 2.12005 4.51504 0
M  V30 6712 H 659.86 0.339541 6.05749 0
M  V30 6713 H 658.599 -0.112188 4.87571 0
M  V30 6714 H 657.604 2.18648 5.04453 0
M  V30 6715 H 658.829 2.63199 6.26022 0
M  V30 6716 H 656.775 0.406423 6.5474 0
M  V30 6717 H 656.692 1.9654 7.30006 0
M  V30 6718 H 657.96 0.863426 7.74703 0
M  V30 6719 N 662.189 -1.289 0.906776 0
M  V30 6720 C 663.119 -2.29932 0.406659 0
M  V30 6721 C 664.1 -1.6189 -0.522061 0
M  V30 6722 O 665.285 -1.8935 -0.431283 0
M  V30 6723 C 662.415 -3.45425 -0.360366 0
M  V30 6724 C 661.369 -4.25316 0.478574 0
M  V30 6725 C 660.695 -5.33076 -0.416373 0
M  V30 6726 C 661.995 -4.92739 1.7322 0
M  V30 6727 H 663.689 -2.72013 1.25097 0
M  V30 6728 H 661.235 -1.30768 0.602977 0
M  V30 6729 H 663.188 -4.15186 -0.721029 0
M  V30 6730 H 661.912 -3.02206 -1.23852 0
M  V30 6731 H 660.571 -3.57273 0.821662 0
M  V30 6732 H 660.219 -4.86101 -1.29287 0
M  V30 6733 H 659.919 -5.8743 0.141309 0
M  V30 6734 H 661.443 -6.05686 -0.773072 0
M  V30 6735 H 662.857 -5.54898 1.44086 0
M  V30 6736 H 661.254 -5.57057 2.23175 0
M  V30 6737 H 662.324 -4.17625 2.46408 0
M  V30 6738 N 663.667 -0.670007 -1.42649 0
M  V30 6739 C 664.892 -0.196955 -2.06463 0
M  V30 6740 C 665.317 1.1352 -1.49983 0
M  V30 6741 O 664.675 1.705 -0.616397 0
M  V30 6742 C 664.723 -0.137381 -3.60338 0
M  V30 6743 O 663.827 0.895523 -4.02559 0
M  V30 6744 H 663.168 -0.102579 -0.656029 0
M  V30 6745 H 665.698 -0.917669 -1.82866 0
M  V30 6746 H 665.708 0.0403625 -4.0798 0
M  V30 6747 H 664.383 -1.10977 -4.0082 0
M  V30 6748 H 662.96 0.689209 -3.66476 0
M  V30 6749 N 665.145 1.52092 -0.413018 0
M  V30 6750 C 666.393 2.01456 0.161178 0
M  V30 6751 C 666.714 1.30034 1.45314 0
M  V30 6752 O 665.984 0.427435 1.9118 0
M  V30 6753 H 664.564 0.744376 0.0625526 0
M  V30 6754 H 667.226 1.86974 -0.550151 0
M  V30 6755 H 666.322 3.1008 0.354517 0
M  V30 6756 N 666.623 0.143563 1.56945 0
M  V30 6757 C 667.853 -0.514699 2.00086 0
M  V30 6758 C 668.261 -1.59184 1.0226 0
M  V30 6759 O 667.604 -1.83697 0.0110514 0
M  V30 6760 C 667.666 -1.17778 3.39659 0
M  V30 6761 C 667.33 -0.245657 4.56339 0
M  V30 6762 C 668.327 0.525343 5.17239 0
M  V30 6763 C 666.012 -0.149564 5.02077 0
M  V30 6764 C 668.006 1.37992 6.22284 0
M  V30 6765 C 665.693 0.708621 6.06978 0
M  V30 6766 C 666.691 1.47197 6.6695 0
M  V30 6767 O 666.379 2.31586 7.6982 0
M  V30 6768 H 666.111 -0.138789 0.661599 0
M  V30 6769 H 668.665 0.234098 2.04062 0
M  V30 6770 H 666.895 -1.97415 3.32512 0
M  V30 6771 H 668.584 -1.73542 3.6693 0
M  V30 6772 H 669.35 0.461118 4.82803 0
M  V30 6773 H 665.229 -0.733457 4.55128 0
M  V30 6774 H 668.773 1.97621 6.69023 0
M  V30 6775 H 664.67 0.77415 6.40841 0
M  V30 6776 H 665.438 2.24796 7.87025 0
M  V30 6777 N 668.101 -1.57061 -0.130224 0
M  V30 6778 C 669.349 -1.83893 -0.838313 0
M  V30 6779 C 669.67 -0.727046 -1.80939 0
M  V30 6780 O 668.94 0.249927 -1.94299 0
M  V30 6781 H 667.52 -0.67846 -0.312573 0
M  V30 6782 H 670.182 -1.94529 -0.120224 0
M  V30 6783 H 669.278 -2.79419 -1.39038 0
M  V30 6784 N 669.579 0.400081 -1.52437 0
M  V30 6785 C 670.526 1.48803 -1.76426 0
M  V30 6786 C 671.496 1.5461 -0.607032 0
M  V30 6787 O 672.681 1.71041 -0.845563 0
M  V30 6788 C 669.821 2.86156 -1.92896 0
M  V30 6789 C 668.934 2.89587 -3.20567 0
M  V30 6790 C 668.069 4.18296 -3.27417 0
M  V30 6791 C 667.108 4.15736 -4.49255 0
M  V30 6792 N 666.245 5.36032 -4.53447 0
M  V30 6793 H 671.085 1.27649 -2.69276 0
M  V30 6794 H 668.622 0.619451 -1.33421 0
M  V30 6795 H 670.58 3.65901 -2.00429 0
M  V30 6796 H 669.21 3.05785 -1.03418 0
M  V30 6797 H 668.262 2.02278 -3.22161 0
M  V30 6798 H 669.574 2.83562 -4.10358 0
M  V30 6799 H 668.728 5.06439 -3.34072 0
M  V30 6800 H 667.467 4.27028 -2.35581 0
M  V30 6801 H 666.472 3.25982 -4.42737 0
M  V30 6802 H 667.697 4.08636 -5.42396 0
M  V30 6803 H 665.643 5.45415 -3.64498 0
M  V30 6804 H 665.56 5.32038 -5.37096 0
M  V30 6805 H 666.828 6.26104 -4.64343 0
M  V30 6806 N 671.057 1.43213 0.657864 0
M  V30 6807 C 672.334 1.35063 1.41483 0
M  V30 6808 C 672.714 -0.0038314 2.111 0
M  V30 6809 O 672.062 -1.02018 2.04462 0
M  V30 6810 C 672.272 2.53061 2.40335 0
M  V30 6811 C 673.62 2.9594 3.04474 0
M  V30 6812 O 674.644 2.53074 2.50663 0
M  V30 6813 O 673.503 3.70184 4.02027 0
M  V30 6814 H 670.597 0.533517 0.631893 0
M  V30 6815 H 673.143 1.55253 0.685162 0
M  V30 6816 H 671.915 3.43283 1.87809 0
M  V30 6817 H 671.538 2.34945 3.20759 0
M  V30 6818 N 672.536 -0.895792 1.29666 0
M  V30 6819 C 673.469 -2.00238 1.09453 0
M  V30 6820 C 674.447 -1.62599 0.00527044 0
M  V30 6821 O 675.631 -1.87847 0.156729 0
M  V30 6822 C 672.758 -3.32066 0.667054 0
M  V30 6823 C 671.804 -3.88691 1.7556 0
M  V30 6824 S 672.637 -4.17317 3.35569 0
M  V30 6825 C 673.793 -5.52181 2.94698 0
M  V30 6826 H 674.026 -2.17076 2.03138 0
M  V30 6827 H 671.559 -1.04287 1.13858 0
M  V30 6828 H 673.517 -4.08272 0.427136 0
M  V30 6829 H 672.178 -3.13101 -0.250256 0
M  V30 6830 H 671.371 -4.83918 1.40853 0
M  V30 6831 H 670.973 -3.19187 1.94924 0
M  V30 6832 H 673.265 -6.3281 2.41986 0
M  V30 6833 H 674.208 -5.91817 3.88791 0
M  V30 6834 H 674.616 -5.14225 2.32879 0
M  V30 6835 N 674.014 -1.12206 -1.10668 0
M  V30 6836 C 675.239 -0.898938 -1.86906 0
M  V30 6837 C 675.664 0.546346 -1.79991 0
M  V30 6838 O 675.022 1.38655 -1.1681 0
M  V30 6839 C 675.07 -1.37529 -3.33344 0
M  V30 6840 O 674.174 -0.55218 -4.08687 0
M  V30 6841 H 673.515 -0.323163 -0.580053 0
M  V30 6842 H 676.045 -1.49355 -1.39837 0
M  V30 6843 H 676.055 -1.3733 -3.84193 0
M  V30 6844 H 674.73 -2.42767 -3.37693 0
M  V30 6845 H 673.307 -0.620947 -3.67694 0
M  V30 6846 N 675.492 1.28418 -0.913599 0
M  V30 6847 C 676.422 2.29713 -0.418847 0
M  V30 6848 C 677.403 1.62165 0.513469 0
M  V30 6849 O 678.588 1.89576 0.421235 0
M  V30 6850 C 675.718 3.45612 0.342042 0
M  V30 6851 C 674.672 4.25056 -0.501123 0
M  V30 6852 C 673.998 5.3329 0.388097 0
M  V30 6853 C 675.298 4.91814 -1.75831 0
M  V30 6854 H 676.992 2.71346 -1.26538 0
M  V30 6855 H 674.538 1.30446 -0.609903 0
M  V30 6856 H 676.491 4.15562 0.699 0
M  V30 6857 H 675.215 3.02858 1.22248 0
M  V30 6858 H 673.874 3.56833 -0.840598 0
M  V30 6859 H 673.522 4.8678 1.26707 0
M  V30 6860 H 673.222 5.87347 -0.172459 0
M  V30 6861 H 674.746 6.06088 0.74094 0
M  V30 6862 H 676.16 5.54126 -1.47026 0
M  V30 6863 H 674.557 5.55866 -2.26126 0
M  V30 6864 H 675.627 4.16313 -2.4862 0
M  V30 6865 N 676.97 0.677563 1.42291 0
M  V30 6866 C 678.2 0.209155 2.05539 0
M  V30 6867 C 678.608 -1.13987 1.51009 0
M  V30 6868 O 677.951 -1.71976 0.645764 0
M  V30 6869 C 678.013 0.0697758 3.59432 0
M  V30 6870 C 677.677 1.34795 4.36668 0
M  V30 6871 C 678.674 2.28201 4.67141 0
M  V30 6872 C 676.359 1.59632 4.76259 0
M  V30 6873 C 678.353 3.44718 5.36142 0
M  V30 6874 C 676.04 2.76437 5.45 0
M  V30 6875 C 677.038 3.68805 5.74867 0
M  V30 6876 O 676.726 4.83567 6.42198 0
M  V30 6877 H 676.458 0.0986202 0.668768 0
M  V30 6878 H 679.012 0.925483 1.83368 0
M  V30 6879 H 677.242 -0.702157 3.80272 0
M  V30 6880 H 678.931 -0.359115 4.04308 0
M  V30 6881 H 679.697 2.10264 4.37052 0
M  V30 6882 H 675.576 0.886073 4.52404 0
M  V30 6883 H 679.12 4.16833 5.59371 0
M  V30 6884 H 675.017 2.94299 5.74507 0
M  V30 6885 H 675.785 4.83147 6.6069 0
M  V30 6886 N 678.448 -1.51871 0.421078 0
M  V30 6887 C 679.696 -2.01539 -0.150492 0
M  V30 6888 C 680.017 -1.30803 -1.44623 0
M  V30 6889 O 679.287 -0.437568 -1.90951 0
M  V30 6890 H 677.867 -0.744698 -0.0586041 0
M  V30 6891 H 680.529 -1.8668 0.560059 0
M  V30 6892 H 679.625 -3.10264 -0.338068 0
M  V30 6893 N 679.926 -0.151884 -1.56866 0
M  V30 6894 C 680.856 0.781943 -2.20018 0
M  V30 6895 C 681.837 1.25347 -1.14987 0
M  V30 6896 O 683.022 1.31015 -1.43348 0
M  V30 6897 C 680.152 2.01928 -2.82564 0
M  V30 6898 C 679.106 1.68434 -3.93464 0
M  V30 6899 C 678.432 2.99472 -4.42968 0
M  V30 6900 C 679.732 0.927244 -5.14003 0
M  V30 6901 H 681.426 0.255607 -2.98307 0
M  V30 6902 H 678.972 0.121502 -1.43486 0
M  V30 6903 H 680.925 2.67741 -3.25411 0
M  V30 6904 H 679.649 2.56943 -2.01614 0
M  V30 6905 H 678.308 1.04998 -3.51242 0
M  V30 6906 H 677.956 3.52488 -3.58834 0
M  V30 6907 H 677.656 2.77823 -5.17772 0
M  V30 6908 H 679.18 3.66348 -4.88489 0
M  V30 6909 H 680.594 1.48756 -5.53665 0
M  V30 6910 H 678.991 0.810513 -5.94601 0
M  V30 6911 H 680.061 -0.0801163 -4.84834 0
M  V30 6912 N 681.404 1.57128 0.121893 0
M  V30 6913 C 682.314 2.03425 1.16857 0
M  V30 6914 C 683.33 0.954108 1.45509 0
M  V30 6915 O 684.506 1.26541 1.56682 0
M  V30 6916 C 681.571 2.42685 2.47599 0
M  V30 6917 C 680.632 3.64767 2.2637 0
M  V30 6918 C 679.865 4.02145 3.50878 0
M  V30 6919 O 680.088 3.39897 4.58068 0
M  V30 6920 O 679.022 4.95262 3.42051 0
M  V30 6921 H 682.848 2.92825 0.80544 0
M  V30 6922 H 680.433 1.45654 0.332477 0
M  V30 6923 H 682.315 2.68684 3.24634 0
M  V30 6924 H 680.99 1.56432 2.83392 0
M  V30 6925 H 679.897 3.43922 1.47203 0
M  V30 6926 H 681.23 4.51716 1.95482 0
M  V30 6927 N 682.882 -0.391992 1.52647 0
M  V30 6928 C 684.159 -1.15136 1.58123 0
M  V30 6929 C 684.539 -2.07786 0.372597 0
M  V30 6930 O 683.887 -2.19374 -0.639304 0
M  V30 6931 C 684.097 -1.91367 2.91856 0
M  V30 6932 C 685.445 -2.46833 3.45483 0
M  V30 6933 O 686.469 -2.01527 2.9371 0
M  V30 6934 O 685.328 -3.29587 4.3593 0
M  V30 6935 H 682.422 -0.526649 0.637629 0
M  V30 6936 H 684.968 -0.397386 1.64982 0
M  V30 6937 H 683.74 -1.23597 3.71268 0
M  V30 6938 H 683.363 -2.73732 2.88369 0
M  V30 6939 N 684.36 -1.4356 -0.65026 0
M  V30 6940 C 685.59 -1.48563 -1.4357 0
M  V30 6941 C 685.998 -0.103041 -1.88919 0
M  V30 6942 O 685.341 0.897602 -1.60277 0
M  V30 6943 C 685.403 -2.37181 -2.70158 0
M  V30 6944 C 685.067 -3.84673 -2.4673 0
M  V30 6945 C 686.064 -4.75704 -2.09765 0
M  V30 6946 C 683.749 -4.29189 -2.60963 0
M  V30 6947 C 685.743 -6.09249 -1.87334 0
M  V30 6948 C 683.43 -5.62787 -2.38147 0
M  V30 6949 C 684.428 -6.52634 -2.01389 0
M  V30 6950 O 684.116 -7.83761 -1.78813 0
M  V30 6951 H 683.848 -0.506743 -0.447423 0
M  V30 6952 H 686.402 -1.89001 -0.80423 0
M  V30 6953 H 684.632 -1.91636 -3.35876 0
M  V30 6954 H 686.321 -2.33354 -3.32116 0
M  V30 6955 H 687.087 -4.42589 -1.98343 0
M  V30 6956 H 682.966 -3.59529 -2.88548 0
M  V30 6957 H 686.51 -6.7934 -1.58567 0
M  V30 6958 H 682.407 -5.95469 -2.49173 0
M  V30 6959 H 683.175 -7.95368 -1.93214 0
M  V30 6960 N 685.838 0.888903 -1.30139 0
M  V30 6961 C 687.066 1.67358 -1.21651 0
M  V30 6962 C 687.481 1.87499 0.221246 0
M  V30 6963 O 686.838 1.41969 1.14677 0
M  V30 6964 C 686.889 3.05213 -1.93719 0
M  V30 6965 O 686.61 2.85984 -3.31881 0
M  V30 6966 C 688.111 3.9964 -1.9184 0
M  V30 6967 H 685.331 0.522365 -0.42116 0
M  V30 6968 H 687.875 1.11086 -1.71698 0
M  V30 6969 H 686.03 3.5823 -1.4748 0
M  V30 6970 H 686.444 3.73411 -3.68327 0
M  V30 6971 H 687.918 4.93749 -2.46811 0
M  V30 6972 H 688.395 4.29955 -0.896409 0
M  V30 6973 H 689.001 3.52558 -2.37872 0
M  V30 6974 N 687.317 1.12792 1.10072 0
M  V30 6975 C 688.563 0.886857 1.82381 0
M  V30 6976 C 688.896 -0.58576 1.85155 0
M  V30 6977 O 688.171 -1.43317 1.31493 0
M  V30 6978 C 688.454 1.46703 3.28862 0
M  V30 6979 C 688.307 3.00829 3.34398 0
M  V30 6980 C 689.626 1.12971 4.25353 0
M  V30 6981 H 686.745 0.32362 0.662148 0
M  V30 6982 H 689.387 1.39513 1.28982 0
M  V30 6983 H 687.537 1.03476 3.74466 0
M  V30 6984 H 689.209 3.52764 2.97247 0
M  V30 6985 H 687.452 3.36164 2.74183 0
M  V30 6986 H 688.123 3.36519 4.3756 0
M  V30 6987 H 690.599 1.50313 3.88001 0
M  V30 6988 H 689.475 1.56223 5.26199 0
M  V30 6989 H 689.736 0.0424452 4.4208 0
M  V30 6990 N 688.795 -1.27931 0.920396 0
M  V30 6991 C 690.041 -1.94977 0.557832 0
M  V30 6992 C 690.374 -1.72224 -0.897365 0
M  V30 6993 O 689.649 -1.04705 -1.63912 0
M  V30 6994 C 689.932 -3.49289 0.875741 0
M  V30 6995 C 689.785 -3.81416 2.38416 0
M  V30 6996 C 691.104 -4.38486 0.376517 0
M  V30 6997 H 688.223 -0.708164 0.20414 0
M  V30 6998 H 690.865 -1.5118 1.15085 0
M  V30 6999 H 689.015 -3.86724 0.371062 0
M  V30 7000 H 690.687 -3.53813 2.95997 0
M  V30 7001 H 688.93 -3.28225 2.83639 0
M  V30 7002 H 689.601 -4.89198 2.55713 0
M  V30 7003 H 692.077 -4.08161 0.808945 0
M  V30 7004 H 690.953 -5.45296 0.627976 0
M  V30 7005 H 691.214 -4.36143 -0.723293 0
M  V30 7006 N 690.273 -0.685099 -1.4193 0
M  V30 7007 C 691.689 -0.355632 -1.55587 0
M  V30 7008 C 691.889 1.13823 -1.66273 0
M  V30 7009 O 690.945 1.92387 -1.63534 0
M  V30 7010 C 692.258 -1.09498 -2.80055 0
M  V30 7011 C 693.806 -1.07831 -2.93839 0
M  V30 7012 C 694.281 -1.79919 -4.21181 0
M  V30 7013 N 695.772 -1.76837 -4.28115 0
M  V30 7014 C 696.507 -2.29463 -5.25485 0
M  V30 7015 N 696.003 -2.90516 -6.28945 0
M  V30 7016 N 697.796 -2.19779 -5.17353 0
M  V30 7017 H 689.947 -1.65412 -1.33239 0
M  V30 7018 H 692.21 -0.697453 -0.642078 0
M  V30 7019 H 691.916 -2.14997 -2.78333 0
M  V30 7020 H 691.79 -0.666813 -3.71259 0
M  V30 7021 H 694.177 -0.0316152 -2.95083 0
M  V30 7022 H 694.258 -1.54545 -2.03837 0
M  V30 7023 H 693.902 -2.84562 -4.20698 0
M  V30 7024 H 693.832 -1.30647 -5.10136 0
M  V30 7025 H 696.323 -1.32315 -3.53979 0
M  V30 7026 H 696.636 -3.28266 -6.99615 0
M  V30 7027 H 694.981 -2.94589 -6.29478 0
M  V30 7028 H 698.172 -1.71763 -4.35448 0
M  V30 7029 H 698.345 -2.61097 -5.9307 0
M  V30 7030 N 691.751 1.51645 -0.429126 0
M  V30 7031 C 692.701 2.24388 0.404217 0
M  V30 7032 C 693.685 1.26294 0.996933 0
M  V30 7033 O 694.877 1.51428 0.916434 0
M  V30 7034 C 692.006 3.08338 1.50938 0
M  V30 7035 C 691.092 4.13857 0.926464 0
M  V30 7036 N 691.483 5.05749 0.0719732 0
M  V30 7037 C 689.781 4.29695 1.19491 0
M  V30 7038 C 690.482 5.81143 -0.254528 0
M  V30 7039 N 689.458 5.42408 0.359763 0
M  V30 7040 H 693.26 2.92794 -0.254697 0
M  V30 7041 H 690.774 1.60606 -0.240712 0
M  V30 7042 H 692.771 3.59022 2.11918 0
M  V30 7043 H 691.431 2.41475 2.17072 0
M  V30 7044 H 692.442 5.17066 -0.293854 0
M  V30 7045 H 689.119 3.74059 1.85434 0
M  V30 7046 H 690.509 6.65159 -0.949365 0
M  V30 7047 N 693.229 0.160201 1.56784 0
M  V30 7048 C 694.475 -0.48831 1.96833 0
M  V30 7049 C 694.808 -1.63641 1.04571 0
M  V30 7050 O 694.083 -1.94289 0.0906481 0
M  V30 7051 C 694.366 -0.981908 3.46454 0
M  V30 7052 C 694.219 0.165607 4.49495 0
M  V30 7053 C 695.538 -1.85931 3.98896 0
M  V30 7054 H 692.657 -0.176027 0.71567 0
M  V30 7055 H 695.299 0.244093 1.88426 0
M  V30 7056 H 693.449 -1.60602 3.5375 0
M  V30 7057 H 695.121 0.802372 4.54268 0
M  V30 7058 H 693.364 0.822789 4.25926 0
M  V30 7059 H 694.035 -0.221699 5.51555 0
M  V30 7060 H 696.511 -1.33327 3.94161 0
M  V30 7061 H 695.387 -2.17373 5.04024 0
M  V30 7062 H 695.648 -2.80106 3.42042 0
M  V30 7063 N 694.707 -1.5719 -0.113559 0
M  V30 7064 C 695.64 -1.9595 -1.16957 0
M  V30 7065 C 696.618 -0.829951 -1.39823 0
M  V30 7066 O 697.802 -1.08861 -1.53888 0
M  V30 7067 C 694.929 -2.2604 -2.52237 0
M  V30 7068 C 693.975 -3.48571 -2.45765 0
M  V30 7069 S 694.808 -5.00962 -1.89203 0
M  V30 7070 C 695.964 -5.3421 -3.26145 0
M  V30 7071 H 696.197 -2.85214 -0.839069 0
M  V30 7072 H 693.73 -1.51036 -0.320529 0
M  V30 7073 H 695.688 -2.44054 -3.30073 0
M  V30 7074 H 694.349 -1.3738 -2.82463 0
M  V30 7075 H 693.542 -3.67008 -3.45429 0
M  V30 7076 H 693.144 -3.29972 -1.76053 0
M  V30 7077 H 695.436 -5.29725 -4.22371 0
M  V30 7078 H 696.379 -6.35398 -3.12529 0
M  V30 7079 H 696.787 -4.61681 -3.24825 0
M  V30 7080 N 696.185 0.383891 -1.52853 0
M  V30 7081 C 697.431 1.13009 -1.68395 0
M  V30 7082 C 697.764 1.89488 -0.425195 0
M  V30 7083 O 697.039 1.8574 0.577136 0
M  V30 7084 C 697.322 2.10419 -2.92226 0
M  V30 7085 C 697.175 1.3767 -4.28214 0
M  V30 7086 C 698.494 3.10781 -3.11614 0
M  V30 7087 H 695.613 0.409463 -0.612788 0
M  V30 7088 H 698.255 0.412895 -1.85459 0
M  V30 7089 H 696.405 2.71579 -2.77808 0
M  V30 7090 H 698.077 0.794352 -4.54409 0
M  V30 7091 H 696.32 0.678533 -4.2846 0
M  V30 7092 H 696.991 2.08874 -5.10956 0
M  V30 7093 H 699.467 2.59715 -3.25096 0
M  V30 7094 H 698.343 3.76179 -3.99725 0
M  V30 7095 H 698.604 3.79933 -2.2606 0
M  V30 7096 N 697.663 1.43903 0.642637 0
M  V30 7097 C 698.61 1.49881 1.75512 0
M  V30 7098 C 699.58 0.347538 1.62423 0
M  V30 7099 O 700.765 0.556177 1.82514 0
M  V30 7100 C 697.905 1.43797 3.13714 0
M  V30 7101 C 697.018 2.6921 3.37861 0
M  V30 7102 C 696.153 2.5504 4.6597 0
M  V30 7103 C 695.192 3.75671 4.83257 0
M  V30 7104 N 694.329 3.60247 6.02633 0
M  V30 7105 H 699.169 2.44935 1.69737 0
M  V30 7106 H 696.706 1.21572 0.828165 0
M  V30 7107 H 698.664 1.38262 3.93624 0
M  V30 7108 H 697.294 0.523173 3.18532 0
M  V30 7109 H 696.346 2.8498 2.51973 0
M  V30 7110 H 697.658 3.58786 3.46517 0
M  V30 7111 H 696.812 2.47273 5.54023 0
M  V30 7112 H 695.551 1.63006 4.59653 0
M  V30 7113 H 694.556 3.83836 3.93637 0
M  V30 7114 H 695.781 4.68728 4.91397 0
M  V30 7115 H 693.727 2.70955 5.97427 0
M  V30 7116 H 693.644 4.43431 6.12295 0
M  V30 7117 H 694.912 3.56351 6.93278 0
M  V30 7118 N 699.141 -0.881989 1.30609 0
M  V30 7119 C 700.091 -1.97539 1.13852 0
M  V30 7120 C 701.075 -1.60813 0.0528428 0
M  V30 7121 O 702.267 -1.74827 0.276484 0
M  V30 7122 C 699.396 -3.32977 0.835519 0
M  V30 7123 C 698.482 -3.76008 1.96159 0
M  V30 7124 N 698.873 -3.91109 3.20729 0
M  V30 7125 C 697.171 -4.05427 1.85863 0
M  V30 7126 C 697.872 -4.27661 3.94311 0
M  V30 7127 N 696.848 -4.37686 3.22385 0
M  V30 7128 H 700.65 -2.07309 2.08327 0
M  V30 7129 H 698.164 -1.072 1.21992 0
M  V30 7130 H 700.161 -4.11041 0.696477 0
M  V30 7131 H 698.821 -3.24542 -0.101135 0
M  V30 7132 H 699.832 -3.7616 3.55984 0
M  V30 7133 H 696.509 -4.05449 0.995847 0
M  V30 7134 H 697.899 -4.47042 5.01601 0
M  V30 7135 O 700.658 -1.25359 -1.0182 0
M  V30 7136 H 701.349 -1.03652 -1.63634 0
M  V30 END ATOM
M  V30 BEGIN BOND
M  V30 END BOND
M  V30 END CTAB
M  END
$$$$
