drugbank_target|P77872 Catalase (DB01942)
 OpenBabel12092120233D

  0  0  0     0  0            999 V3000
M  V30 BEGIN CTAB
M  V30 COUNTS 8138 8265 0 0 0
M  V30 BEGIN ATOM
M  V30 1 H -0.908 1.98254 -0.117106 0
M  V30 2 N 0 1.576 0 0
M  V30 3 C 0.933 2.03868 1.02534 0
M  V30 4 C 1.911 0.928543 1.3348 0
M  V30 5 O 3.095 1.19667 1.45644 0
M  V30 6 C 0.222 2.43627 2.35294 0
M  V30 7 C -0.732 3.65373 2.2001 0
M  V30 8 S 0.101 5.13292 1.52614 0
M  V30 9 C 1.257 5.56322 2.86805 0
M  V30 10 H 1.49 2.90518 0.631377 0
M  V30 11 H -0.977 1.52953 0.210867 0
M  V30 12 H 0.981 2.67203 3.11629 0
M  V30 13 H -0.358 1.57376 2.7183 0
M  V30 14 H -1.165 3.90944 3.18086 0
M  V30 15 H -1.563 3.418 1.51819 0
M  V30 16 H 0.729 5.58782 3.83104 0
M  V30 17 H 1.672 6.56266 2.65933 0
M  V30 18 H 2.08 4.83886 2.90714 0
M  V30 19 N 1.4781 -0.272755 1.55222 0
M  V30 20 C 2.7241 -1.00581 1.761 0
M  V30 21 C 3.0571 -1.85932 0.560625 0
M  V30 22 O 2.3321 -1.89416 -0.441801 0
M  V30 23 C 2.6151 -1.88816 3.06628 0
M  V30 24 C 2.4681 -1.06457 4.37021 0
M  V30 25 C 3.7871 -2.8752 3.33197 0
M  V30 26 H 0.9061 -0.364244 0.640699 0
M  V30 27 H 3.5481 -0.278189 1.87952 0
M  V30 28 H 1.6981 -2.50856 2.96654 0
M  V30 29 H 3.3701 -0.464863 4.58952 0
M  V30 30 H 1.6131 -0.368043 4.32236 0
M  V30 31 H 2.2841 -1.71514 5.24678 0
M  V30 32 H 4.7601 -2.35615 3.42965 0
M  V30 33 H 3.6361 -3.46399 4.25792 0
M  V30 34 H 3.8971 -3.62657 2.52849 0
M  V30 35 N 2.9562 -1.48159 -0.537278 0
M  V30 36 C 3.9042 -1.62573 -1.66352 0
M  V30 37 C 4.8982 -0.492366 -1.62087 0
M  V30 38 O 6.1042 -0.670847 -1.67032 0
M  V30 39 H 2.4792 -0.511992 -0.550789 0
M  V30 40 H 4.4502 -2.57176 -1.51337 0
M  V30 41 C 3.1992 -1.67583 -3.04649 0
M  V30 42 H 2.5222 -2.54151 -3.08622 0
M  V30 43 H 3.9622 -1.81713 -3.83088 0
M  V30 44 C 2.4212 -0.413039 -3.34358 0
M  V30 45 O 2.9512 0.477259 -3.98855 0
M  V30 46 N 1.1572 -0.286961 -2.8918 0
M  V30 47 H 0.7042 -1.01241 -2.36871 0
M  V30 48 H 0.6622 0.556963 -3.09427 0
M  V30 49 N 4.4343 0.785586 -1.36625 0
M  V30 50 C 5.3813 1.89838 -1.31264 0
M  V30 51 C 6.3513 1.65115 -0.180633 0
M  V30 52 O 7.5363 1.87222 -0.36777 0
M  V30 53 C 4.6763 3.26706 -1.11163 0
M  V30 54 C 3.7893 3.63476 -2.33472 0
M  V30 55 C 2.9243 4.89481 -2.06353 0
M  V30 56 C 1.9633 5.18941 -3.24602 0
M  V30 57 N 1.1003 6.36131 -2.97123 0
M  V30 58 H 5.9403 1.93756 -2.26413 0
M  V30 59 H 3.4773 0.947454 -1.12524 0
M  V30 60 H 5.4353 4.05639 -0.975337 0
M  V30 61 H 4.0653 3.222 -0.196674 0
M  V30 62 H 3.1173 2.79636 -2.57891 0
M  V30 63 H 4.4293 3.81193 -3.21704 0
M  V30 64 H 3.5833 5.76288 -1.89675 0
M  V30 65 H 2.3223 4.73841 -1.15437 0
M  V30 66 H 1.3273 4.30615 -3.41834 0
M  V30 67 H 2.5523 5.36498 -4.16349 0
M  V30 68 H 0.4983 6.21875 -2.08823 0
M  V30 69 H 0.4153 6.54198 -3.78894 0
M  V30 70 H 1.6833 7.2591 -2.84033 0
M  V30 71 N 5.9124 1.20967 1.01018 0
M  V30 72 C 7.1894 0.93264 1.71934 0
M  V30 73 C 7.5694 -0.55692 2.03621 0
M  V30 74 O 6.9174 -1.52035 1.7058 0
M  V30 75 C 7.1274 1.81233 2.98254 0
M  V30 76 C 8.4754 2.05804 3.71389 0
M  V30 77 O 9.4994 1.78539 3.08225 0
M  V30 78 O 8.3584 2.51888 4.84989 0
M  V30 79 H 5.4524 0.349272 0.749625 0
M  V30 80 H 7.9984 1.31871 1.06808 0
M  V30 81 H 6.7704 2.82067 2.71208 0
M  V30 82 H 6.3934 1.42674 3.7112 0
M  V30 83 N 7.3905 -1.2043 1.01659 0
M  V30 84 C 8.6365 -1.90079 0.706963 0
M  V30 85 C 8.9695 -1.78648 -0.761474 0
M  V30 86 O 8.2445 -1.17069 -1.55323 0
M  V30 87 C 8.5275 -3.41469 1.14327 0
M  V30 88 C 8.3805 -3.61833 2.67201 0
M  V30 89 C 9.6995 -4.34261 0.714529 0
M  V30 90 H 6.8185 -0.690254 0.2583 0
M  V30 91 H 9.4605 -1.41826 1.26433 0
M  V30 92 H 7.6105 -3.82696 0.669056 0
M  V30 93 H 9.2825 -3.2986 3.22475 0
M  V30 94 H 7.5255 -3.05304 3.08175 0
M  V30 95 H 8.1965 -4.67955 2.92783 0
M  V30 96 H 10.6725 -4.00682 1.12221 0
M  V30 97 H 9.5485 -5.38806 1.04784 0
M  V30 98 H 9.8095 -4.40431 -0.383799 0
M  V30 99 N 8.8686 -0.792821 -1.36206 0
M  V30 100 C 9.8156 -0.191653 -2.30003 0
M  V30 101 C 10.7856 0.666453 -1.52143 0
M  V30 102 O 11.9706 0.61442 -1.80636 0
M  V30 103 C 9.1106 0.664848 -3.38635 0
M  V30 104 C 8.2236 -0.212175 -4.31479 0
M  V30 105 C 7.3586 0.651022 -5.27196 0
M  V30 106 C 6.3976 -0.227247 -6.11678 0
M  V30 107 N 5.5346 0.595127 -6.99573 0
M  V30 108 H 10.3746 -0.996978 -2.80828 0
M  V30 109 H 7.9116 -0.503206 -1.38225 0
M  V30 110 H 9.8696 1.17645 -4.00269 0
M  V30 111 H 8.4996 1.43557 -2.89122 0
M  V30 112 H 7.5516 -0.841777 -3.70969 0
M  V30 113 H 8.8636 -0.888751 -4.90818 0
M  V30 114 H 8.0176 1.2283 -5.94136 0
M  V30 115 H 6.7566 1.36121 -4.68319 0
M  V30 116 H 5.7616 -0.816904 -5.43697 0
M  V30 117 H 6.9866 -0.93509 -6.72631 0
M  V30 118 H 4.9326 1.28955 -6.432 0
M  V30 119 H 4.8496 -0.0236952 -7.55996 0
M  V30 120 H 6.1176 1.15613 -7.70879 0
M  V30 121 N 10.3467 1.47872 -0.545128 0
M  V30 122 C 11.2787 2.27869 0.246621 0
M  V30 123 C 12.2917 1.36282 0.890561 0
M  V30 124 O 13.4807 1.61207 0.766449 0
M  V30 125 C 10.5807 3.10159 1.36582 0
M  V30 126 C 9.7537 4.29627 0.820954 0
M  V30 127 C 8.8127 4.93607 1.82314 0
M  V30 128 O 7.8387 5.52366 1.37406 0
M  V30 129 N 9.0407 4.87211 3.15603 0
M  V30 130 H 11.8057 2.96459 -0.439539 0
M  V30 131 H 9.3667 1.57367 -0.380421 0
M  V30 132 H 11.3587 3.49829 2.03474 0
M  V30 133 H 9.9287 2.43891 1.9554 0
M  V30 134 H 9.1487 3.94192 -0.0244032 0
M  V30 135 H 10.4367 5.06928 0.436063 0
M  V30 136 H 9.8347 4.40651 3.54744 0
M  V30 137 H 8.3917 5.30937 3.78087 0
M  V30 138 N 11.8248 0.280983 1.55075 0
M  V30 139 C 13.0528 -0.337293 2.04132 0
M  V30 140 C 13.4678 -1.4903 1.15912 0
M  V30 141 O 12.8248 -1.81606 0.180459 0
M  V30 142 C 12.8758 -0.812706 3.52246 0
M  V30 143 O 12.5968 0.294387 4.3711 0
M  V30 144 C 14.0978 -1.4982 4.17216 0
M  V30 145 H 11.3178 -0.0761638 0.666663 0
M  V30 146 H 13.8618 0.414787 2.00249 0
M  V30 147 H 12.0168 -1.51486 3.56554 0
M  V30 148 H 12.4308 -0.0721325 5.2445 0
M  V30 149 H 13.9048 -1.7822 5.22438 0
M  V30 150 H 14.3818 -2.43168 3.65741 0
M  V30 151 H 14.9878 -0.839742 4.16927 0
M  V30 152 N 13.3029 -1.57598 0.00835791 0
M  V30 153 C 14.5309 -1.95214 -0.68549 0
M  V30 154 C 14.9459 -0.883706 -1.66841 0
M  V30 155 O 14.3029 0.136565 -1.81988 0
M  V30 156 C 14.3539 -3.32865 -1.41007 0
M  V30 157 O 14.0749 -4.35609 -0.466552 0
M  V30 158 C 15.5759 -3.84991 -2.19765 0
M  V30 159 H 12.7959 -0.643422 -0.190392 0
M  V30 160 H 15.3399 -2.04406 0.0619607 0
M  V30 161 H 13.4949 -3.24956 -2.10908 0
M  V30 162 H 13.9089 -5.15288 -0.978699 0
M  V30 163 H 15.3829 -4.8371 -2.65948 0
M  V30 164 H 15.8599 -3.18137 -3.02796 0
M  V30 165 H 16.4659 -3.96103 -1.54864 0
M  V30 166 N 14.781 0.264519 -1.55364 0
M  V30 167 C 15.744 1.31046 -1.88042 0
M  V30 168 C 16.744 1.41943 -0.755569 0
M  V30 169 O 17.934 1.40947 -1.02369 0
M  V30 170 C 15.066 2.69067 -2.09323 0
M  V30 171 H 16.259 1.03297 -2.81549 0
M  V30 172 H 13.812 0.502989 -1.47986 0
M  V30 173 H 14.547 3.01982 -1.18226 0
M  V30 174 H 14.332 2.62542 -2.91229 0
M  V30 175 H 15.822 3.44623 -2.35848 0
M  V30 176 N 16.2591 1.48442 0.529413 0
M  V30 177 C 17.5061 1.56488 1.28521 0
M  V30 178 C 17.8341 0.239042 1.93025 0
M  V30 179 O 17.0891 -0.770713 1.79885 0
M  V30 180 C 17.3881 2.6523 2.39558 0
M  V30 181 C 17.0541 4.07648 1.92702 0
M  V30 182 C 15.7161 4.46411 1.79641 0
M  V30 183 C 18.0681 4.96896 1.573 0
M  V30 184 C 15.3961 5.72226 1.29514 0
M  V30 185 C 17.7481 6.23202 1.08636 0
M  V30 186 C 16.4121 6.60821 0.941919 0
M  V30 187 H 15.6821 0.572631 0.470292 0
M  V30 188 H 18.3291 1.82161 0.59072 0
M  V30 189 H 16.6341 2.33419 3.14679 0
M  V30 190 H 18.3311 2.68671 2.97686 0
M  V30 191 H 14.9211 3.77036 2.03819 0
M  V30 192 H 19.1051 4.67626 1.66251 0
M  V30 193 H 14.3611 6.00097 1.17019 0
M  V30 194 H 18.5351 6.91753 0.803136 0
M  V30 195 H 16.1621 7.58198 0.5513 0
M  V30 196 N 17.7372 -0.778329 1.37039 0
M  V30 197 C 18.9852 -1.53361 1.31623 0
M  V30 198 C 19.3062 -1.94739 -0.100831 0
M  V30 199 O 18.5762 -1.65797 -1.04347 0
M  V30 200 H 17.1562 -0.568794 0.484234 0
M  V30 201 H 19.8182 -0.926742 1.71457 0
M  V30 202 H 18.9142 -2.43606 1.95096 0
M  V30 203 N 19.2153 -1.21501 -1.00376 0
M  V30 204 C 20.1783 -0.976927 -2.07337 0
M  V30 205 C 21.1783 0.0525322 -1.60714 0
M  V30 206 O 22.3683 -0.184869 -1.73216 0
M  V30 207 C 19.5003 -0.473423 -3.37597 0
M  V30 208 H 20.6933 -1.92587 -2.29892 0
M  V30 209 H 18.2463 -1.03217 -1.17371 0
M  V30 210 H 18.9813 0.480379 -3.20722 0
M  V30 211 H 18.7663 -1.216 -3.72768 0
M  V30 212 H 20.2563 -0.32675 -4.1632 0
M  V30 213 N 20.6934 1.19889 -1.02296 0
M  V30 214 C 22.1044 1.71124 -0.746568 0
M  V30 215 C 22.4554 1.81939 0.734335 0
M  V30 216 O 21.5804 1.48639 1.57275 0
M  V30 217 C 22.1754 3.10804 -1.34857 0
M  V30 218 C 20.7344 3.59323 -1.1209 0
M  V30 219 C 19.8814 2.3635 -1.45031 0
M  V30 220 H 22.8324 1.04813 -1.19163 0
M  V30 221 H 22.8534 3.73186 -0.742437 0
M  V30 222 H 22.3654 3.029 -2.42638 0
M  V30 223 H 20.4664 3.7255 -0.0610337 0
M  V30 224 H 20.5794 4.4378 -1.80544 0
M  V30 225 H 18.9434 2.39399 -0.869487 0
M  V30 226 H 19.7264 2.31081 -2.53883 0
M  V30 227 N 22.1715 0.800033 1.35784 0
M  V30 228 C 23.4175 0.377901 1.99248 0
M  V30 229 C 23.7505 -1.05052 1.63333 0
M  V30 230 O 23.0255 -1.72768 0.893385 0
M  V30 231 C 23.3085 0.553922 3.55814 0
M  V30 232 C 23.1615 2.0268 4.01548 0
M  V30 233 C 24.4805 -0.0244802 4.40093 0
M  V30 234 H 21.5995 0.138782 0.723815 0
M  V30 235 H 24.2415 1.00835 1.61035 0
M  V30 236 H 22.3915 0.0172398 3.88496 0
M  V30 237 H 24.0635 2.62536 3.79305 0
M  V30 238 H 22.3065 2.5256 3.52698 0
M  V30 239 H 22.9775 2.10087 5.10458 0
M  V30 240 H 25.4535 0.433775 4.13833 0
M  V30 241 H 24.3295 0.128637 5.48749 0
M  V30 242 H 24.5905 -1.11758 4.27741 0
M  V30 243 N 23.6496 -1.47581 0.552962 0
M  V30 244 C 24.8956 -2.03369 0.0355807 0
M  V30 245 C 25.2506 -1.42016 -1.29805 0
M  V30 246 O 24.5436 -0.564917 -1.83083 0
M  V30 247 C 24.7376 -3.57199 -0.119728 0
M  V30 248 C 24.5666 -4.33468 1.1973 0
M  V30 249 C 23.3366 -4.7353 1.76345 0
M  V30 250 C 25.5346 -4.68866 2.11351 0
M  V30 251 N 23.5166 -5.34426 3.02097 0
M  V30 252 C 24.8876 -5.3002 3.21681 0
M  V30 253 C 26.9426 -4.50795 2.11397 0
M  V30 254 C 25.6456 -5.75011 4.32151 0
M  V30 255 C 27.6716 -4.96782 3.20876 0
M  V30 256 C 27.0336 -5.57981 4.29926 0
M  V30 257 H 23.1326 -0.780058 0.0550806 0
M  V30 258 H 25.7166 -1.80117 0.739315 0
M  V30 259 H 23.8876 -3.80227 -0.792579 0
M  V30 260 H 25.6196 -3.99627 -0.638792 0
M  V30 261 H 22.3746 -4.55352 1.30196 0
M  V30 262 H 22.7986 -5.69421 3.66182 0
M  V30 263 H 27.4406 -4.0284 1.28372 0
M  V30 264 H 25.1586 -6.21959 5.15938 0
M  V30 265 H 28.7446 -4.84573 3.21994 0
M  V30 266 H 27.6246 -5.92918 5.13243 0
M  V30 267 N 25.1277 -0.289203 -1.54924 0
M  V30 268 C 26.4047 0.376032 -1.91951 0
M  V30 269 C 26.7847 1.72622 -1.21511 0
M  V30 270 O 26.1327 2.25853 -0.346767 0
M  V30 271 C 26.3427 0.502378 -3.45365 0
M  V30 272 C 27.6907 0.778741 -4.17398 0
M  V30 273 O 28.7147 0.586647 -3.51336 0
M  V30 274 O 27.5737 1.14698 -5.34328 0
M  V30 275 H 24.6677 0.208167 -0.800372 0
M  V30 276 H 27.2137 -0.336394 -1.66332 0
M  V30 277 H 25.9857 -0.447255 -3.88736 0
M  V30 278 H 25.6087 1.26373 -3.76982 0
M  V30 279 N 26.6058 1.57591 -0.0167156 0
M  V30 280 C 27.8828 1.82547 0.702564 0
M  V30 281 C 28.2628 0.898018 1.91047 0
M  V30 282 O 27.6108 -0.0493456 2.28447 0
M  V30 283 C 27.8208 3.31459 1.09251 0
M  V30 284 C 29.1688 3.97622 1.48937 0
M  V30 285 O 30.1928 3.35881 1.18584 0
M  V30 286 O 29.0518 5.06415 2.05442 0
M  V30 287 H 26.1458 0.752268 0.343544 0
M  V30 288 H 28.6918 1.69644 -0.0434495 0
M  V30 289 H 27.4638 3.9061 0.23227 0
M  V30 290 H 27.0868 3.49422 1.89709 0
M  V30 291 N 28.0839 -0.256276 1.55502 0
M  V30 292 C 29.0319 -1.33694 1.90338 0
M  V30 293 C 30.0259 -1.50299 0.781441 0
M  V30 294 O 31.2319 -1.51885 0.965966 0
M  V30 295 H 27.6069 -0.447483 0.60437 0
M  V30 296 H 29.5779 -1.01574 2.8058 0
M  V30 297 C 28.3269 -2.68724 2.20642 0
M  V30 298 H 27.6499 -2.56743 3.06469 0
M  V30 299 H 29.0899 -3.43237 2.48926 0
M  V30 300 C 27.5489 -3.21101 1.01959 0
M  V30 301 O 28.0789 -4.0084 0.262762 0
M  V30 302 N 26.2849 -2.79003 0.812746 0
M  V30 303 H 25.8319 -2.14271 1.42989 0
M  V30 304 H 25.7899 -3.14393 0.0203076 0
M  V30 305 N 29.562 -1.4872 -0.521534 0
M  V30 306 C 30.51 -1.64328 -1.64618 0
M  V30 307 C 31.504 -0.50953 -1.61555 0
M  V30 308 O 32.71 -0.688525 -1.66311 0
M  V30 309 H 29.085 -0.517805 -0.545328 0
M  V30 310 H 31.056 -2.58767 -1.48601 0
M  V30 311 C 29.805 -1.70805 -3.02855 0
M  V30 312 H 29.128 -2.5741 -3.05909 0
M  V30 313 H 30.568 -1.85766 -3.81139 0
M  V30 314 C 29.027 -0.448479 -3.33902 0
M  V30 315 O 29.557 0.434928 -3.99339 0
M  V30 316 N 27.763 -0.317616 -2.88859 0
M  V30 317 H 27.31 -1.03748 -2.35784 0
M  V30 318 H 27.268 0.524113 -3.10001 0
M  V30 319 N 31.0401 0.771051 -1.3745 0
M  V30 320 C 32.2861 1.5319 -1.32894 0
M  V30 321 C 32.6191 1.94008 0.0862511 0
M  V30 322 O 31.8941 1.64124 1.04373 0
M  V30 323 C 32.1771 2.79648 -2.26868 0
M  V30 324 C 32.0301 2.45079 -3.77169 0
M  V30 325 C 33.3491 3.81583 -2.19277 0
M  V30 326 H 30.4681 0.555744 -0.484064 0
M  V30 327 H 33.1101 0.884492 -1.68157 0
M  V30 328 H 31.2601 3.34891 -1.96926 0
M  V30 329 H 32.9321 1.95745 -4.1771 0
M  V30 330 H 31.1751 1.77767 -3.95704 0
M  V30 331 H 31.8461 3.35478 -4.38359 0
M  V30 332 H 34.3221 3.35835 -2.45671 0
M  V30 333 H 33.1981 4.67787 -2.87171 0
M  V30 334 H 33.4591 4.25897 -1.18592 0
M  V30 335 N 32.5182 1.22032 0.997298 0
M  V30 336 C 33.7672 1.03637 1.73038 0
M  V30 337 C 34.0802 -0.429475 1.90827 0
M  V30 338 O 35.2862 -0.732995 2.61418 0
M  V30 339 C 33.7422 1.80582 3.11317 0
M  V30 340 C 33.3502 3.31387 3.01474 0
M  V30 341 C 35.0942 1.70621 3.88701 0
M  V30 342 C 33.0012 4.00791 4.3488 0
M  V30 343 H 31.9312 0.384179 0.648785 0
M  V30 344 H 34.5822 1.4584 1.11368 0
M  V30 345 H 32.9642 1.31175 3.73643 0
M  V30 346 H 34.1382 3.88155 2.4834 0
M  V30 347 H 32.4532 3.41976 2.37575 0
M  V30 348 H 35.0502 2.19799 4.87434 0
M  V30 349 H 35.3932 0.665823 4.10941 0
M  V30 350 H 35.9262 2.17547 3.33044 0
M  V30 351 H 32.6652 5.05064 4.1784 0
M  V30 352 H 32.1852 3.48811 4.87945 0
M  V30 353 H 33.8642 4.06139 5.03647 0
M  V30 354 N 33.9963 -1.19345 1.0293 0
M  V30 355 C 35.2243 -1.92997 0.745644 0
M  V30 356 C 35.6393 -1.75519 -0.695589 0
M  V30 357 O 34.9963 -1.07737 -1.47306 0
M  V30 358 C 35.0473 -3.44741 1.08792 0
M  V30 359 O 34.7683 -3.61658 2.47256 0
M  V30 360 C 36.2693 -4.35515 0.827129 0
M  V30 361 H 33.4893 -0.613042 0.272801 0
M  V30 362 H 36.0333 -1.51473 1.3739 0
M  V30 363 H 34.1883 -3.84097 0.504832 0
M  V30 364 H 34.6023 -4.55514 2.60015 0
M  V30 365 H 36.0763 -5.40589 1.11658 0
M  V30 366 H 36.5533 -4.38552 -0.238436 0
M  V30 367 H 37.1593 -4.01841 1.39297 0
M  V30 368 N 35.4744 -0.807222 -1.35358 0
M  V30 369 C 36.4374 -0.223665 -2.28106 0
M  V30 370 C 37.4374 0.589354 -1.4961 0
M  V30 371 O 38.6274 0.407745 -1.69361 0
M  V30 372 C 35.7594 0.688149 -3.33882 0
M  V30 373 H 36.9524 -1.04169 -2.81227 0
M  V30 374 H 34.5054 -0.577921 -1.45223 0
M  V30 375 H 35.2404 1.52984 -2.85948 0
M  V30 376 H 35.0254 0.10687 -3.91954 0
M  V30 377 H 36.5154 1.09075 -4.03104 0
M  V30 378 N 36.9525 1.47285 -0.560781 0
M  V30 379 C 38.2005 2.02064 -0.0379868 0
M  V30 380 C 38.5215 1.43711 1.31803 0
M  V30 381 O 37.7915 0.61362 1.86042 0
M  V30 382 H 36.3715 0.746918 -0.0110531 0
M  V30 383 H 39.0335 1.80648 -0.731598 0
M  V30 384 H 38.1295 3.12064 0.0474463 0
M  V30 385 N 38.4306 0.297415 1.54768 0
M  V30 386 C 39.8416 -0.195947 1.85669 0
M  V30 387 C 40.1926 -1.53707 1.21937 0
M  V30 388 O 39.3176 -2.10164 0.515754 0
M  V30 389 C 39.9126 -0.362318 3.36857 0
M  V30 390 C 38.4716 -0.799901 3.67802 0
M  V30 391 C 37.6186 0.0938578 2.77141 0
M  V30 392 H 40.5696 0.518538 1.4999 0
M  V30 393 H 40.5906 -1.19745 3.61167 0
M  V30 394 H 40.1026 0.613921 3.83214 0
M  V30 395 H 38.2036 -1.78682 3.26961 0
M  V30 396 H 38.3166 -0.621773 4.75048 0
M  V30 397 H 36.6806 -0.426254 2.51108 0
M  V30 398 H 37.4636 1.06639 3.26318 0
M  V30 399 N 39.9087 -1.5758 0.0250728 0
M  V30 400 C 41.3247 -1.56124 -0.331282 0
M  V30 401 C 41.5247 -1.03029 -1.73169 0
M  V30 402 O 40.5807 -0.675215 -2.43305 0
M  V30 403 C 41.8937 -3.00139 -0.183584 0
M  V30 404 C 43.4417 -3.11946 -0.256654 0
M  V30 405 C 43.9167 -4.57793 -0.137792 0
M  V30 406 N 45.4077 -4.6279 -0.194904 0
M  V30 407 C 46.1427 -5.7326 -0.126655 0
M  V30 408 N 45.6387 -6.928 -0.00755288 0
M  V30 409 N 47.4317 -5.61811 -0.180348 0
M  V30 410 H 39.5827 -1.90424 0.94087 0
M  V30 411 H 41.8457 -0.875761 0.362968 0
M  V30 412 H 41.5517 -3.4292 0.780927 0
M  V30 413 H 41.4257 -3.64899 -0.955448 0
M  V30 414 H 43.8127 -2.69079 -1.21162 0
M  V30 415 H 43.8937 -2.49915 0.545517 0
M  V30 416 H 43.5377 -5.01339 0.813739 0
M  V30 417 H 43.4677 -5.17798 -0.958775 0
M  V30 418 H 45.9587 -3.76807 -0.287267 0
M  V30 419 H 46.2717 -7.72791 0.0379428 0
M  V30 420 H 44.6167 -6.94995 0.0271731 0
M  V30 421 H 47.8077 -4.6731 -0.271767 0
M  V30 422 H 47.9807 -6.47882 -0.123697 0
M  V30 423 N 41.3868 0.248026 -1.55636 0
M  V30 424 C 42.6348 0.974295 -1.77065 0
M  V30 425 C 42.9558 1.85897 -0.588849 0
M  V30 426 O 42.2258 1.91868 0.395407 0
M  V30 427 H 40.8058 0.362733 -0.653019 0
M  V30 428 H 43.4678 0.266244 -1.93073 0
M  V30 429 H 42.5638 1.59667 -2.68166 0
M  V30 430 N 42.8649 1.48995 0.513639 0
M  V30 431 C 44.2759 1.5119 1.09537 0
M  V30 432 C 44.6269 0.290906 1.94031 0
M  V30 433 O 43.7519 -0.60049 2.07902 0
M  V30 434 C 44.3469 2.73964 1.99322 0
M  V30 435 C 42.9059 2.78978 2.52682 0
M  V30 436 C 42.0529 2.44934 1.30009 0
M  V30 437 H 45.0039 1.55875 0.298125 0
M  V30 438 H 45.0249 2.53409 2.83838 0
M  V30 439 H 44.5369 3.62813 1.37799 0
M  V30 440 H 42.6379 1.94378 3.1788 0
M  V30 441 H 42.7509 3.8083 2.90698 0
M  V30 442 H 41.1149 1.9644 1.62122 0
M  V30 443 H 41.8979 3.36043 0.702131 0
M  V30 444 N 44.343 -0.763751 1.37857 0
M  V30 445 C 45.589 -1.52483 1.33704 0
M  V30 446 C 45.922 -1.94051 -0.0759612 0
M  V30 447 O 45.197 -1.64675 -1.03501 0
M  V30 448 C 45.48 -2.78441 2.28348 0
M  V30 449 C 45.333 -2.43075 3.78463 0
M  V30 450 C 46.652 -3.80415 2.21298 0
M  V30 451 H 43.771 -0.553169 0.487005 0
M  V30 452 H 46.413 -0.875562 1.68624 0
M  V30 453 H 44.563 -3.33842 1.987 0
M  V30 454 H 46.235 -1.93527 4.18742 0
M  V30 455 H 44.478 -1.75666 3.96641 0
M  V30 456 H 45.149 -3.33149 4.40132 0
M  V30 457 H 47.625 -3.34527 2.47449 0
M  V30 458 H 46.501 -4.66257 2.89647 0
M  V30 459 H 46.762 -4.25262 1.20849 0
M  V30 460 N 45.8211 -1.22559 -0.990812 0
M  V30 461 C 46.7511 -1.0218 -2.09956 0
M  V30 462 C 47.7321 0.0579394 -1.70001 0
M  V30 463 O 48.9171 -0.104684 -1.93918 0
M  V30 464 C 46.0471 -0.601023 -3.4206 0
M  V30 465 C 45.0011 -1.62694 -3.95872 0
M  V30 466 C 44.3271 -1.06193 -5.24049 0
M  V30 467 C 45.6271 -3.01743 -4.2632 0
M  V30 468 H 47.3211 -1.94916 -2.27262 0
M  V30 469 H 44.8671 -0.938566 -1.09211 0
M  V30 470 H 46.8201 -0.445561 -4.19038 0
M  V30 471 H 45.5441 0.362005 -3.24588 0
M  V30 472 H 44.2031 -1.77021 -3.21028 0
M  V30 473 H 43.8511 -0.0901903 -5.02919 0
M  V30 474 H 43.5511 -1.74732 -5.61019 0
M  V30 475 H 45.0751 -0.918092 -6.03658 0
M  V30 476 H 46.4891 -2.90777 -4.94087 0
M  V30 477 H 44.8861 -3.67425 -4.74467 0
M  V30 478 H 45.9561 -3.51518 -3.34011 0
M  V30 479 N 47.2992 1.18797 -1.03562 0
M  V30 480 C 48.2292 2.24472 -0.643019 0
M  V30 481 C 49.2102 1.66433 0.351283 0
M  V30 482 O 50.3952 1.92803 0.232505 0
M  V30 483 C 47.5252 3.473 4.24935e-05 0
M  V30 484 C 46.4792 4.18055 -0.917257 0
M  V30 485 C 45.8052 5.34519 -0.138941 0
M  V30 486 C 47.1052 4.72109 -2.23407 0
M  V30 487 H 48.7992 2.57566 -1.52643 0
M  V30 488 H 46.3452 1.23806 -0.735394 0
M  V30 489 H 48.2982 4.20426 0.286383 0
M  V30 490 H 47.0222 3.13424 0.918299 0
M  V30 491 H 45.6812 3.46821 -1.1879 0
M  V30 492 H 45.3292 4.96891 0.781562 0
M  V30 493 H 45.0292 5.82794 -0.750005 0
M  V30 494 H 46.5532 6.10438 0.1405 0
M  V30 495 H 47.9672 5.36955 -2.00879 0
M  V30 496 H 46.3642 5.30897 -2.79765 0
M  V30 497 H 47.4342 3.89807 -2.88407 0
M  V30 498 N 48.7773 0.814389 1.34928 0
M  V30 499 C 49.7093 0.187834 2.28429 0
M  V30 500 C 50.7223 -0.617374 1.5064 0
M  V30 501 O 51.9113 -0.448454 1.72775 0
M  V30 502 C 49.0113 -0.755962 3.30361 0
M  V30 503 C 48.1843 0.00456686 4.374 0
M  V30 504 C 47.2433 -0.858876 5.19143 0
M  V30 505 O 46.2693 -0.306968 5.68372 0
M  V30 506 N 47.4713 -2.17988 5.38016 0
M  V30 507 H 50.2363 0.991105 2.82838 0
M  V30 508 H 47.7973 0.670561 1.4736 0
M  V30 509 H 49.7893 -1.338 3.81942 0
M  V30 510 H 48.3593 -1.46001 2.7641 0
M  V30 511 H 47.5793 0.767865 3.86649 0
M  V30 512 H 48.8673 0.528422 5.06049 0
M  V30 513 H 48.2653 -2.65212 4.99679 0
M  V30 514 H 46.8223 -2.71098 5.92747 0
M  V30 515 N 50.2554 -1.46986 0.568584 0
M  V30 516 C 51.4804 -2.07335 0.0520528 0
M  V30 517 C 51.9054 -1.41675 -1.23733 0
M  V30 518 O 51.2634 -0.495623 -1.74394 0
M  V30 519 C 51.3114 -3.60417 -0.11501 0
M  V30 520 O 50.4154 -3.95309 -1.17492 0
M  V30 521 H 49.7564 -0.661597 0.0564385 0
M  V30 522 H 52.2864 -1.88837 0.787507 0
M  V30 523 H 52.2964 -4.06698 -0.325644 0
M  V30 524 H 50.9714 -4.07601 0.826675 0
M  V30 525 H 49.5484 -3.60757 -0.943869 0
M  V30 526 N 51.7335 -0.305618 -1.54608 0
M  V30 527 C 52.9615 0.304775 -2.04643 0
M  V30 528 C 53.3765 1.47167 -1.18268 0
M  V30 529 O 52.7335 1.81296 -0.209328 0
M  V30 530 C 52.7845 0.756564 -3.53495 0
M  V30 531 O 52.5055 -0.36389 -4.36586 0
M  V30 532 C 54.0065 1.43163 -4.19546 0
M  V30 533 H 51.2265 0.0655481 -0.667791 0
M  V30 534 H 53.7705 -0.446592 -1.99564 0
M  V30 535 H 51.9255 1.45794 -3.58919 0
M  V30 536 H 52.3395 -0.0113121 -5.24499 0
M  V30 537 H 53.8135 1.69886 -5.25207 0
M  V30 538 H 54.2905 2.37318 -3.69563 0
M  V30 539 H 54.8965 0.773307 -4.18211 0
M  V30 540 N 53.2116 1.57565 -0.0334293 0
M  V30 541 C 54.4576 1.93088 0.639417 0
M  V30 542 C 54.8126 0.910589 1.69488 0
M  V30 543 O 54.1056 -0.0727725 1.91462 0
M  V30 544 C 54.2996 3.33112 1.29504 0
M  V30 545 C 54.1286 4.48667 0.304604 0
M  V30 546 C 52.8986 5.05207 -0.0970777 0
M  V30 547 C 55.0966 5.1239 -0.442845 0
M  V30 548 N 53.0786 6.04286 -1.08223 0
M  V30 549 C 54.4496 6.06609 -1.28161 0
M  V30 550 C 56.5046 4.95352 -0.50308 0
M  V30 551 C 55.2076 6.85622 -2.17519 0
M  V30 552 C 57.2336 5.74978 -1.38401 0
M  V30 553 C 56.5956 6.68816 -2.21054 0
M  V30 554 H 52.6946 0.754335 0.206161 0
M  V30 555 H 55.2786 1.94435 -0.101613 0
M  V30 556 H 53.4496 3.32576 2.00618 0
M  V30 557 H 55.1816 3.55972 1.92525 0
M  V30 558 H 51.9366 4.72782 0.278255 0
M  V30 559 H 52.3606 6.58516 -1.57117 0
M  V30 560 H 57.0026 4.22625 0.121694 0
M  V30 561 H 54.7206 7.57652 -2.81049 0
M  V30 562 H 58.3066 5.63826 -1.43496 0
M  V30 563 H 57.1866 7.29355 -2.88116 0
M  V30 564 N 54.6897 -0.239769 1.55765 0
M  V30 565 C 55.9367 -0.966801 1.7793 0
M  V30 566 C 56.2647 -1.85046 0.599015 0
M  V30 567 O 55.5197 -1.91197 -0.417395 0
M  V30 568 C 55.8187 -1.852 3.05672 0
M  V30 569 C 55.4847 -1.1231 4.36689 0
M  V30 570 C 54.1467 -0.921689 4.72291 0
M  V30 571 C 56.4987 -0.607019 5.17653 0
M  V30 572 C 53.8267 -0.191996 5.86386 0
M  V30 573 C 56.1787 0.109241 6.32506 0
M  V30 574 C 54.8427 0.322073 6.66723 0
M  V30 575 H 54.1127 -0.353778 0.651093 0
M  V30 576 H 56.7597 -0.23634 1.90036 0
M  V30 577 H 55.0647 -2.64975 2.8861 0
M  V30 578 H 56.7617 -2.41635 3.20021 0
M  V30 579 H 53.3517 -1.29004 4.08725 0
M  V30 580 H 57.5357 -0.750153 4.90598 0
M  V30 581 H 52.7917 -0.0166949 6.11398 0
M  V30 582 H 56.9657 0.516737 6.9448 0
M  V30 583 H 54.5927 0.88944 7.54979 0
M  V30 584 N 56.1678 -1.49265 -0.50573 0
M  V30 585 C 57.0978 -1.68495 -1.61653 0
M  V30 586 C 58.0788 -0.53366 -1.61512 0
M  V30 587 O 59.2638 -0.76897 -1.78327 0
M  V30 588 C 56.3938 -1.74709 -3.00157 0
M  V30 589 C 55.3478 -2.89581 -3.15162 0
M  V30 590 C 54.6738 -2.80903 -4.5497 0
M  V30 591 C 55.9738 -4.30578 -2.95634 0
M  V30 592 H 57.6678 -2.61493 -1.45814 0
M  V30 593 H 55.2138 -1.25838 -0.70005 0
M  V30 594 H 57.1668 -1.86748 -3.77761 0
M  V30 595 H 55.8908 -0.783067 -3.17074 0
M  V30 596 H 54.5498 -2.77136 -2.39982 0
M  V30 597 H 54.1978 -1.82419 -4.68756 0
M  V30 598 H 53.8978 -3.57999 -4.65951 0
M  V30 599 H 55.4218 -2.94944 -5.34641 0
M  V30 600 H 56.8358 -4.4373 -3.63011 0
M  V30 601 H 55.2328 -5.0886 -3.18091 0
M  V30 602 H 56.3028 -4.45352 -1.91806 0
M  V30 603 N 57.6459 0.756429 -1.3826 0
M  V30 604 C 58.5559 1.9009 -1.37488 0
M  V30 605 C 59.5719 1.71855 -0.272366 0
M  V30 606 O 60.7479 1.94827 -0.510318 0
M  V30 607 C 57.8129 3.25421 -1.19592 0
M  V30 608 C 56.8739 3.56202 -2.39622 0
M  V30 609 C 56.1069 4.85075 -2.2257 0
M  V30 610 O 56.3299 5.57246 -1.21793 0
M  V30 611 O 55.2639 5.15269 -3.11098 0
M  V30 612 H 59.0899 1.93695 -2.33914 0
M  V30 613 H 56.6749 0.901313 -1.1915 0
M  V30 614 H 58.5569 4.06337 -1.11661 0
M  V30 615 H 57.2319 3.22634 -0.262486 0
M  V30 616 H 56.1389 2.75458 -2.53128 0
M  V30 617 H 57.4719 3.63747 -3.31586 0
M  V30 618 N 59.124 1.23083 0.984299 0
M  V30 619 C 60.071 1.00854 2.07598 0
M  V30 620 C 61.041 -0.0726709 1.65941 0
M  V30 621 O 62.226 0.0786535 1.90638 0
M  V30 622 C 59.366 0.601645 3.39815 0
M  V30 623 C 58.479 1.75456 3.94765 0
M  V30 624 C 57.614 1.29482 5.15177 0
M  V30 625 C 56.653 2.41873 5.62284 0
M  V30 626 N 55.79 1.96885 6.73929 0
M  V30 627 H 60.63 1.943 2.25946 0
M  V30 628 H 58.167 0.968001 1.10762 0
M  V30 629 H 60.125 0.346854 4.15756 0
M  V30 630 H 58.755 -0.295803 3.21442 0
M  V30 631 H 57.807 2.12346 3.15616 0
M  V30 632 H 59.119 2.59965 4.25699 0
M  V30 633 H 58.273 0.997923 5.98437 0
M  V30 634 H 57.012 0.420046 4.85888 0
M  V30 635 H 56.017 2.72342 4.77608 0
M  V30 636 H 57.242 3.29881 5.93595 0
M  V30 637 H 55.188 1.11782 6.46406 0
M  V30 638 H 55.105 2.74956 7.04227 0
M  V30 639 H 56.373 1.70289 7.60672 0
M  V30 640 N 60.6021 -1.18246 1.0419 0
M  V30 641 C 61.5321 -2.24127 0.654914 0
M  V30 642 C 62.5131 -1.66617 -0.342451 0
M  V30 643 O 63.6981 -1.92924 -0.222277 0
M  V30 644 C 60.8281 -3.47295 0.0183757 0
M  V30 645 C 59.7821 -4.17563 0.939414 0
M  V30 646 C 59.1081 -5.34438 0.167286 0
M  V30 647 C 60.4081 -4.70917 2.25908 0
M  V30 648 H 62.1021 -2.56753 1.54007 0
M  V30 649 H 59.6481 -1.23414 0.74195 0
M  V30 650 H 61.6011 -4.20572 -0.264082 0
M  V30 651 H 60.3251 -3.13907 -0.901664 0
M  V30 652 H 58.9841 -3.46186 1.20628 0
M  V30 653 H 58.6321 -4.97298 -0.7552 0
M  V30 654 H 58.3321 -5.82388 0.780901 0
M  V30 655 H 59.8561 -6.10504 -0.108125 0
M  V30 656 H 61.2701 -5.35882 2.03724 0
M  V30 657 H 59.6671 -5.29406 2.82577 0
M  V30 658 H 60.7371 -3.88272 2.9047 0
M  V30 659 N 62.0802 -0.821533 -1.34494 0
M  V30 660 C 63.0432 -0.247847 -2.27856 0
M  V30 661 C 64.0432 0.573453 -1.50227 0
M  V30 662 O 65.2332 0.389759 -1.69784 0
M  V30 663 C 62.3652 0.652698 -3.34593 0
M  V30 664 H 63.5582 -1.07146 -2.80107 0
M  V30 665 H 61.1112 -0.593291 -1.44602 0
M  V30 666 H 61.8462 1.49943 -2.87555 0
M  V30 667 H 61.6312 0.065292 -3.92046 0
M  V30 668 H 63.1212 1.04793 -4.04238 0
M  V30 669 N 63.5583 1.46682 -0.576371 0
M  V30 670 C 64.5213 2.28707 0.150239 0
M  V30 671 C 65.5213 1.38035 0.824794 0
M  V30 672 O 66.7113 1.60476 0.677719 0
M  V30 673 C 63.8433 3.18248 1.22192 0
M  V30 674 H 65.0363 2.94423 -0.570521 0
M  V30 675 H 62.5893 1.52688 -0.334078 0
M  V30 676 H 63.3243 2.57265 1.97447 0
M  V30 677 H 63.1093 3.85 0.742812 0
M  V30 678 H 64.5993 3.80001 1.73172 0
M  V30 679 N 65.0364 0.313813 1.54444 0
M  V30 680 C 66.2834 -0.291675 2.00388 0
M  V30 681 C 66.6114 -1.52904 1.2021 0
M  V30 682 O 65.8664 -1.93833 0.269707 0
M  V30 683 C 66.1654 -0.680386 3.50864 0
M  V30 684 C 65.8314 0.456699 4.48581 0
M  V30 685 C 64.4934 0.768824 4.75018 0
M  V30 686 C 66.8454 1.22098 5.06697 0
M  V30 687 C 64.1734 1.84812 5.56831 0
M  V30 688 C 66.5254 2.29029 5.89685 0
M  V30 689 C 65.1894 2.60834 6.14428 0
M  V30 690 H 64.4594 -0.106732 0.733273 0
M  V30 691 H 67.1064 0.43557 1.86481 0
M  V30 692 H 65.4114 -1.48791 3.62448 0
M  V30 693 H 67.1084 -1.16026 3.83847 0
M  V30 694 H 63.6984 0.203337 4.28117 0
M  V30 695 H 67.8824 0.993096 4.86263 0
M  V30 696 H 63.1384 2.09912 5.74236 0
M  V30 697 H 67.3124 2.887 6.33739 0
M  V30 698 H 64.9394 3.44596 6.77612 0
M  V30 699 N 66.5145 -1.57545 0.0417849 0
M  V30 700 C 67.7915 -1.83642 -0.673433 0
M  V30 701 C 68.1715 -0.928298 -1.89594 0
M  V30 702 O 67.5195 0.0129955 -2.28496 0
M  V30 703 C 67.7295 -3.33155 -1.03964 0
M  V30 704 C 69.0775 -3.99941 -1.42592 0
M  V30 705 O 70.1015 -3.37725 -1.13226 0
M  V30 706 O 68.9605 -5.09619 -1.9736 0
M  V30 707 H 66.0545 -0.757638 -0.331533 0
M  V30 708 H 68.6005 -1.69554 0.070433 0
M  V30 709 H 67.3725 -3.9093 -0.170098 0
M  V30 710 H 66.9955 -3.52396 -1.84126 0
M  V30 711 N 67.9926 0.231505 -1.5589 0
M  V30 712 C 69.4086 0.580748 -1.48659 0
M  V30 713 C 69.6086 1.87617 -0.73498 0
M  V30 714 O 68.6646 2.51046 -0.270586 0
M  V30 715 C 69.9776 0.669202 -2.93159 0
M  V30 716 C 71.5256 0.760499 -3.03621 0
M  V30 717 C 72.0006 0.880383 -4.49459 0
M  V30 718 N 73.4916 0.944861 -4.53461 0
M  V30 719 C 74.2266 1.05716 -5.63571 0
M  V30 720 N 73.7226 1.13403 -6.83456 0
M  V30 721 N 75.5156 1.09152 -5.514 0
M  V30 722 H 67.6666 -0.618695 -2.03189 0
M  V30 723 H 69.9296 -0.215728 -0.923128 0
M  V30 724 H 69.6356 -0.212904 -3.51055 0
M  V30 725 H 69.5096 1.5361 -3.44505 0
M  V30 726 H 71.8966 1.63305 -2.45796 0
M  V30 727 H 71.9776 -0.131864 -2.5546 0
M  V30 728 H 71.6216 0.0123284 -5.07899 0
M  V30 729 H 71.5516 1.78802 -4.95316 0
M  V30 730 H 74.0426 0.896176 -3.6712 0
M  V30 731 H 74.3556 1.21921 -7.63122 0
M  V30 732 H 72.7006 1.10333 -6.86186 0
M  V30 733 H 75.8916 1.02805 -4.56671 0
M  V30 734 H 76.0646 1.17558 -6.37247 0
M  V30 735 N 69.4707 1.49531 0.497807 0
M  V30 736 C 70.3807 1.69176 1.62532 0
M  V30 737 C 71.3967 0.5744 1.64246 0
M  V30 738 O 72.5727 0.849497 1.82608 0
M  V30 739 C 69.6377 1.75695 2.98885 0
M  V30 740 C 68.6987 2.9929 3.07773 0
M  V30 741 C 67.9317 3.05488 4.37622 0
M  V30 742 O 68.1547 2.19192 5.26603 0
M  V30 743 O 67.0887 3.9798 4.51548 0
M  V30 744 H 70.9147 2.647 1.48887 0
M  V30 745 H 68.4997 1.3331 0.674441 0
M  V30 746 H 70.3817 1.82317 3.79919 0
M  V30 747 H 69.0567 0.8335 3.12785 0
M  V30 748 H 67.9637 2.98183 2.25915 0
M  V30 749 H 69.2967 3.91125 2.98801 0
M  V30 750 N 70.9488 -0.749086 1.3866 0
M  V30 751 C 72.3648 -1.05276 1.19955 0
M  V30 752 C 72.5648 -2.01435 0.05134 0
M  V30 753 O 71.6208 -2.45232 -0.60147 0
M  V30 754 C 72.9338 -1.62853 2.52783 0
M  V30 755 C 74.4818 -1.75002 2.59506 0
M  V30 756 C 74.9568 -2.35991 3.92521 0
M  V30 757 N 76.4478 -2.43416 3.94085 0
M  V30 758 C 77.1828 -2.91511 4.9377 0
M  V30 759 N 76.6788 -3.39608 6.03853 0
M  V30 760 N 78.4718 -2.90592 4.81157 0
M  V30 761 H 70.6228 -0.111066 2.12109 0
M  V30 762 H 72.8858 -0.111901 0.941373 0
M  V30 763 H 72.5918 -0.99664 3.37283 0
M  V30 764 H 72.4658 -2.61854 2.715 0
M  V30 765 H 74.8528 -2.37317 1.75398 0
M  V30 766 H 74.9338 -0.74693 2.44652 0
M  V30 767 H 74.5778 -1.74308 4.77053 0
M  V30 768 H 74.5078 -3.3695 4.04688 0
M  V30 769 H 76.9988 -2.09405 3.14576 0
M  V30 770 H 77.3118 -3.74775 6.75843 0
M  V30 771 H 75.6568 -3.37653 6.07466 0
M  V30 772 H 78.8478 -2.52332 3.94267 0
M  V30 773 H 79.0208 -3.27762 5.58996 0
M  V30 774 N 72.4269 -1.23603 -0.977757 0
M  V30 775 C 73.6759 -1.06377 -1.71368 0
M  V30 776 C 73.9889 0.399062 -1.91486 0
M  V30 777 O 75.1949 0.691312 -2.62551 0
M  V30 778 C 73.6509 -1.85512 -3.08404 0
M  V30 779 C 73.2589 -3.36141 -2.96164 0
M  V30 780 C 75.0029 -1.76783 -3.85938 0
M  V30 781 C 72.9099 -4.07659 -4.28449 0
M  V30 782 H 71.8399 -0.394452 -0.642591 0
M  V30 783 H 74.4909 -1.47594 -1.09034 0
M  V30 784 H 72.8729 -1.37103 -3.71509 0
M  V30 785 H 74.0469 -3.92056 -2.42133 0
M  V30 786 H 72.3619 -3.45712 -2.32104 0
M  V30 787 H 74.9589 -2.27526 -4.83876 0
M  V30 788 H 75.3019 -0.731116 -4.0983 0
M  V30 789 H 75.8349 -2.22818 -3.2954 0
M  V30 790 H 72.5739 -5.11648 -4.09752 0
M  V30 791 H 72.0939 -3.5653 -4.82334 0
M  V30 792 H 73.7729 -4.141 -4.97122 0
M  V30 793 N 73.905 1.17692 -1.04816 0
M  V30 794 C 75.316 1.69501 -0.782698 0
M  V30 795 C 75.667 1.83456 0.695577 0
M  V30 796 O 74.792 1.51942 1.54086 0
M  V30 797 C 75.387 3.07874 -1.41419 0
M  V30 798 C 73.946 3.56864 -1.19686 0
M  V30 799 C 73.093 2.3322 -1.50012 0
M  V30 800 H 76.044 1.02262 -1.2136 0
M  V30 801 H 76.065 3.71528 -0.821428 0
M  V30 802 H 75.577 2.97685 -2.49009 0
M  V30 803 H 73.678 3.72337 -0.140043 0
M  V30 804 H 73.791 4.39851 -1.89916 0
M  V30 805 H 72.155 2.37501 -0.920071 0
M  V30 806 H 72.938 2.25644 -2.58727 0
M  V30 807 N 75.3831 0.828654 1.34056 0
M  V30 808 C 76.2931 0.256725 2.33191 0
M  V30 809 C 77.3091 -0.611898 1.62886 0
M  V30 810 O 78.4851 -0.51844 1.94613 0
M  V30 811 C 75.5501 -0.567238 3.42028 0
M  V30 812 C 74.6111 0.324458 4.28072 0
M  V30 813 C 73.8441 -0.460274 5.31712 0
M  V30 814 O 74.0671 -1.693 5.44696 0
M  V30 815 O 73.0011 0.160391 6.01686 0
M  V30 816 H 76.8271 1.07739 2.83947 0
M  V30 817 H 74.4121 0.59093 1.37217 0
M  V30 818 H 76.2941 -1.03582 4.08471 0
M  V30 819 H 74.9691 -1.36513 2.93506 0
M  V30 820 H 73.8761 0.840659 3.64532 0
M  V30 821 H 75.2091 1.08685 4.8005 0
M  V30 822 N 76.8612 -1.46375 0.584142 0
M  V30 823 C 78.2772 -1.57694 0.245929 0
M  V30 824 C 78.4772 -1.57903 -1.25175 0
M  V30 825 O 77.5332 -1.49676 -2.03355 0
M  V30 826 C 78.8462 -2.87028 0.896402 0
M  V30 827 C 80.3942 -3.00662 0.870127 0
M  V30 828 C 80.8692 -4.32734 1.50017 0
M  V30 829 N 82.3602 -4.39436 1.46458 0
M  V30 830 C 83.0952 -5.40248 1.92144 0
M  V30 831 N 82.5912 -6.47726 2.4581 0
M  V30 832 N 84.3842 -5.31459 1.83052 0
M  V30 833 H 76.5352 -1.44483 1.55687 0
M  V30 834 H 78.7982 -0.689291 0.650831 0
M  V30 835 H 78.5042 -2.9269 1.95002 0
M  V30 836 H 78.3782 -3.75014 0.405486 0
M  V30 837 H 80.7652 -2.94581 -0.174871 0
M  V30 838 H 80.8462 -2.14148 1.39908 0
M  V30 839 H 80.4902 -4.39573 2.54437 0
M  V30 840 H 80.4202 -5.18025 0.946432 0
M  V30 841 H 82.9112 -3.62367 1.07231 0
M  V30 842 H 83.2242 -7.20863 2.78525 0
M  V30 843 H 81.5692 -6.48542 2.49836 0
M  V30 844 H 84.7602 -4.46396 1.40883 0
M  V30 845 H 84.9332 -6.09881 2.18973 0
M  V30 846 N 78.3393 -0.321999 -1.54275 0
M  V30 847 C 79.5853 0.281461 -2.00837 0
M  V30 848 C 79.9183 1.51909 -1.20985 0
M  V30 849 O 79.1933 1.923 -0.291733 0
M  V30 850 C 79.4763 0.617162 -3.54772 0
M  V30 851 C 79.3293 -0.631064 -4.45351 0
M  V30 852 C 80.6483 1.43542 -4.16033 0
M  V30 853 H 77.7673 0.100826 -0.730071 0
M  V30 854 H 80.4093 -0.438268 -1.84876 0
M  V30 855 H 78.5593 1.23034 -3.68504 0
M  V30 856 H 80.2313 -1.26934 -4.43492 0
M  V30 857 H 78.4743 -1.26025 -4.15091 0
M  V30 858 H 79.1453 -0.351735 -5.50878 0
M  V30 859 H 81.6213 0.917134 -4.05867 0
M  V30 860 H 80.4973 1.63907 -5.23856 0
M  V30 861 H 80.7583 2.43108 -3.69257 0
M  V30 862 N 79.8174 1.5752 -0.0501392 0
M  V30 863 C 81.0634 1.92936 0.624798 0
M  V30 864 C 81.3964 0.928685 1.70555 0
M  V30 865 O 80.6714 -0.0454779 1.94447 0
M  V30 866 C 80.9544 3.38737 1.22185 0
M  V30 867 C 80.8074 4.49552 0.149218 0
M  V30 868 C 82.1264 3.84913 2.13378 0
M  V30 869 H 79.2454 0.701604 0.225657 0
M  V30 870 H 81.8874 1.89671 -0.111693 0
M  V30 871 H 80.0374 3.4165 1.84953 0
M  V30 872 H 81.7094 4.58768 -0.482648 0
M  V30 873 H 79.9524 4.30638 -0.522841 0
M  V30 874 H 80.6234 5.48653 0.606966 0
M  V30 875 H 83.0994 3.8387 1.60572 0
M  V30 876 H 81.9754 4.87584 2.52097 0
M  V30 877 H 82.2364 3.21611 3.03346 0
M  V30 878 N 81.2955 -0.223234 1.56011 0
M  V30 879 C 82.2455 -1.28008 1.88674 0
M  V30 880 C 83.2295 -1.42369 0.749663 0
M  V30 881 O 84.4215 -1.45212 1.01205 0
M  V30 882 C 81.5505 -2.63084 2.20548 0
M  V30 883 C 80.6365 -2.52632 3.40643 0
M  V30 884 N 81.0275 -2.11829 4.59306 0
M  V30 885 C 79.3255 -2.83594 3.44224 0
M  V30 886 C 80.0265 -2.12587 5.41463 0
M  V30 887 N 79.0025 -2.5301 4.81131 0
M  V30 888 H 82.8045 -0.955487 2.77935 0
M  V30 889 H 80.3185 -0.431801 1.56554 0
M  V30 890 H 82.3155 -3.39385 2.42122 0
M  V30 891 H 80.9755 -2.96391 1.32599 0
M  V30 892 H 81.9865 -1.82988 4.84496 0
M  V30 893 H 78.6635 -3.21284 2.66614 0
M  V30 894 H 80.0535 -1.83179 6.46448 0
M  V30 895 N 82.7736 -1.49793 -0.48987 0
M  V30 896 C 83.7366 -1.66752 -1.57246 0
M  V30 897 C 84.7366 -0.538867 -1.51502 0
M  V30 898 O 85.9266 -0.805545 -1.54456 0
M  V30 899 C 83.0586 -1.67528 -2.96896 0
M  V30 900 H 84.2516 -2.63321 -1.43534 0
M  V30 901 H 81.8046 -1.38992 -0.714914 0
M  V30 902 H 82.5396 -0.725837 -3.16073 0
M  V30 903 H 82.3246 -2.49504 -3.02473 0
M  V30 904 H 83.8146 -1.82667 -3.7553 0
M  V30 905 N 84.2517 0.741722 -1.39055 0
M  V30 906 C 85.1987 1.85566 -1.37237 0
M  V30 907 C 86.1687 1.64457 -0.233072 0
M  V30 908 O 87.3537 1.85957 -0.427147 0
M  V30 909 C 84.4937 3.23004 -1.215 0
M  V30 910 C 83.6067 3.55864 -2.44918 0
M  V30 911 C 82.7417 4.82669 -2.21821 0
M  V30 912 C 81.7807 5.08351 -3.40948 0
M  V30 913 N 80.9177 6.26356 -3.17211 0
M  V30 914 H 85.7577 1.86455 -2.32462 0
M  V30 915 H 83.2947 0.911176 -1.15482 0
M  V30 916 H 85.2527 4.02331 -1.10389 0
M  V30 917 H 83.8827 3.21411 -0.29908 0
M  V30 918 H 82.9347 2.7129 -2.66657 0
M  V30 919 H 84.2467 3.70765 -3.33668 0
M  V30 920 H 83.4007 5.69962 -2.07914 0
M  V30 921 H 82.1397 4.69929 -1.30454 0
M  V30 922 H 81.1447 4.19522 -3.55361 0
M  V30 923 H 82.3697 5.22981 -4.33207 0
M  V30 924 H 80.3157 6.14917 -2.28502 0
M  V30 925 H 80.2327 6.41813 -3.99515 0
M  V30 926 H 81.5007 7.16506 -3.06984 0
M  V30 927 N 85.7298 1.2412 0.971189 0
M  V30 928 C 86.9778 1.07668 1.71032 0
M  V30 929 C 87.2988 -0.385797 1.91146 0
M  V30 930 O 86.5688 -1.27569 1.4867 0
M  V30 931 H 85.1488 0.395429 0.633755 0
M  V30 932 H 87.8108 1.55984 1.16855 0
M  V30 933 H 86.9068 1.57195 2.69622 0
M  V30 934 N 87.2079 -1.17134 1.05439 0
M  V30 935 C 88.4329 -1.91913 0.786396 0
M  V30 936 C 88.8579 -1.7643 -0.652234 0
M  V30 937 O 88.2159 -1.08372 -1.45345 0
M  V30 938 C 88.2639 -3.40921 1.17497 0
M  V30 939 O 87.3679 -4.11244 0.308589 0
M  V30 940 H 86.7089 -0.598215 0.288158 0
M  V30 941 H 89.2389 -1.48457 1.4079 0
M  V30 942 H 89.2489 -3.91668 1.14281 0
M  V30 943 H 87.9239 -3.5151 2.22292 0
M  V30 944 H 86.5009 -3.70731 0.40157 0
M  V30 945 N 88.686 -0.835752 -1.33615 0
M  V30 946 C 89.934 -0.429109 -1.97492 0
M  V30 947 C 90.255 1.01433 -1.66543 0
M  V30 948 O 89.525 1.70611 -0.962744 0
M  V30 949 H 88.105 -0.155686 -0.730596 0
M  V30 950 H 90.767 -1.06802 -1.63031 0
M  V30 951 H 89.863 -0.55861 -3.0706 0
M  V30 952 N 90.1641 1.46063 -0.591896 0
M  V30 953 C 91.1271 2.28854 0.125973 0
M  V30 954 C 92.1271 1.38903 0.810107 0
M  V30 955 O 93.3171 1.61186 0.66066 0
M  V30 956 C 90.4491 3.19526 1.1881 0
M  V30 957 H 91.6421 2.93802 -0.601717 0
M  V30 958 H 89.1951 1.52325 -0.350254 0
M  V30 959 H 89.9301 2.59345 1.94707 0
M  V30 960 H 89.7151 3.85766 0.701936 0
M  V30 961 H 91.2051 3.81817 1.69132 0
M  V30 962 N 91.6422 0.330177 1.54103 0
M  V30 963 C 92.8722 -0.271784 2.04805 0
M  V30 964 C 93.2802 -1.45816 1.20559 0
M  V30 965 O 92.6232 -1.82247 0.2306 0
M  V30 966 C 92.6852 -0.763238 3.51305 0
M  V30 967 C 92.3492 0.301705 4.56003 0
M  V30 968 C 93.3462 1.13999 5.07248 0
M  V30 969 C 91.0312 0.451793 5.00264 0
M  V30 970 C 93.0252 2.11402 6.01322 0
M  V30 971 C 90.7122 1.42924 5.94151 0
M  V30 972 C 91.7102 2.25882 6.44567 0
M  V30 973 O 91.3982 3.21965 7.3661 0
M  V30 974 H 91.1302 -0.058693 0.673447 0
M  V30 975 H 93.6842 0.476395 1.99799 0
M  V30 976 H 91.9142 -1.56244 3.5373 0
M  V30 977 H 93.6032 -1.28427 3.85047 0
M  V30 978 H 94.3692 1.03505 4.73827 0
M  V30 979 H 90.2482 -0.184044 4.60632 0
M  V30 980 H 93.7922 2.76192 6.40596 0
M  V30 981 H 89.6892 1.53479 6.26988 0
M  V30 982 H 90.4572 3.17281 7.54503 0
M  V30 983 N 93.1203 -1.57491 0.0584922 0
M  V30 984 C 94.3683 -1.92597 -0.612436 0
M  V30 985 C 94.6893 -0.938162 -1.70949 0
M  V30 986 O 93.9593 0.0158301 -1.95894 0
M  V30 987 H 92.5393 -0.710964 -0.229214 0
M  V30 988 H 95.2013 -1.94571 0.113218 0
M  V30 989 H 94.2973 -2.94038 -1.04633 0
M  V30 990 N 94.5984 0.214957 -1.56127 0
M  V30 991 C 95.8264 0.955092 -1.83536 0
M  V30 992 C 96.2414 1.77677 -0.638472 0
M  V30 993 O 95.5984 1.78219 0.392968 0
M  V30 994 C 95.6494 1.86734 -3.09536 0
M  V30 995 O 95.3704 1.07887 -4.24608 0
M  V30 996 C 96.8714 2.72082 -3.4998 0
M  V30 997 H 94.0914 0.279611 -0.609966 0
M  V30 998 H 96.6354 0.228197 -2.03223 0
M  V30 999 H 94.7904 2.5481 -2.91806 0
M  V30 1000 H 95.2044 1.69872 -4.9623 0
M  V30 1001 H 96.6784 3.31782 -4.41163 0
M  V30 1002 H 97.1554 3.44806 -2.7204 0
M  V30 1003 H 97.7614 2.09409 -3.70173 0
M  V30 1004 N 96.0765 1.50051 0.48192 0
M  V30 1005 C 97.3235 1.60498 1.23477 0
M  V30 1006 C 97.6515 0.300331 1.92167 0
M  V30 1007 O 96.9065 -0.713094 1.82246 0
M  V30 1008 C 97.2055 2.72717 2.30998 0
M  V30 1009 C 96.8715 4.13572 1.79636 0
M  V30 1010 C 95.5335 4.519 1.65348 0
M  V30 1011 C 97.8855 5.01649 1.41412 0
M  V30 1012 C 95.2135 5.76057 1.11244 0
M  V30 1013 C 97.5655 6.26343 0.887538 0
M  V30 1014 C 96.2295 6.63483 0.731207 0
M  V30 1015 H 95.4995 0.587303 0.451836 0
M  V30 1016 H 98.1465 1.83948 0.532468 0
M  V30 1017 H 96.4515 2.43312 3.07094 0
M  V30 1018 H 98.1485 2.78006 2.88988 0
M  V30 1019 H 94.7385 3.83329 1.91721 0
M  V30 1020 H 98.9225 4.72679 1.51289 0
M  V30 1021 H 94.1785 6.03516 0.978686 0
M  V30 1022 H 98.3525 6.93958 0.582654 0
M  V30 1023 H 95.9795 7.59568 0.309806 0
M  V30 1024 N 97.5546 -0.734337 1.39446 0
M  V30 1025 C 98.7826 -1.52358 1.39981 0
M  V30 1026 C 99.1976 -1.88799 -0.0054975 0
M  V30 1027 O 98.5546 -1.54146 -0.976998 0
M  V30 1028 C 98.6056 -2.81072 2.27333 0
M  V30 1029 O 98.3266 -2.46178 3.62392 0
M  V30 1030 C 99.8276 -3.75096 2.36259 0
M  V30 1031 H 97.0476 -0.470806 0.478103 0
M  V30 1032 H 99.5916 -0.907339 1.83269 0
M  V30 1033 H 97.7466 -3.39026 1.87457 0
M  V30 1034 H 98.1606 -3.28866 4.08592 0
M  V30 1035 H 99.6346 -4.62305 3.01626 0
M  V30 1036 H 100.112 -4.16892 1.38194 0
M  V30 1037 H 100.718 -3.23061 2.76608 0
M  V30 1038 N 99.0327 -1.24633 -0.964593 0
M  V30 1039 C 100.279 -1.08949 -1.71049 0
M  V30 1040 C 100.612 0.370302 -1.90637 0
M  V30 1041 O 99.8867 1.27349 -1.47011 0
M  V30 1042 C 100.17 -1.83329 -3.0994 0
M  V30 1043 C 100.023 -3.37077 -2.97824 0
M  V30 1044 C 101.342 -1.60846 -4.09654 0
M  V30 1045 H 98.4607 -0.397178 -0.620821 0
M  V30 1046 H 101.103 -1.5334 -1.12191 0
M  V30 1047 H 99.2527 -1.45597 -3.60186 0
M  V30 1048 H 100.925 -3.84425 -2.5498 0
M  V30 1049 H 99.1677 -3.65298 -2.33965 0
M  V30 1050 H 99.8387 -3.84324 -3.96231 0
M  V30 1051 H 102.315 -1.93674 -3.68279 0
M  V30 1052 H 101.191 -2.1534 -5.04896 0
M  V30 1053 H 101.452 -0.547434 -4.38698 0
M  V30 1054 N 100.511 1.16574 -1.06058 0
M  V30 1055 C 101.739 1.90952 -0.796552 0
M  V30 1056 C 102.154 1.77302 0.648808 0
M  V30 1057 O 101.511 1.11605 1.44397 0
M  V30 1058 C 101.562 3.41736 -1.17894 0
M  V30 1059 O 101.283 3.54975 -2.56758 0
M  V30 1060 C 102.784 4.33169 -0.942308 0
M  V30 1061 H 100.004 0.605594 -0.288959 0
M  V30 1062 H 102.548 1.47777 -1.41358 0
M  V30 1063 H 100.703 3.82623 -0.606491 0
M  V30 1064 H 101.117 4.4846 -2.72 0
M  V30 1065 H 102.591 5.37439 -1.25952 0
M  V30 1066 H 103.068 4.3903 0.122078 0
M  V30 1067 H 103.674 3.98007 -1.49902 0
M  V30 1068 N 101.989 0.842826 1.3317 0
M  V30 1069 C 102.936 0.276885 2.29133 0
M  V30 1070 C 103.906 -0.609527 1.54512 0
M  V30 1071 O 105.091 -0.546955 1.82792 0
M  V30 1072 C 102.231 -0.538707 3.40869 0
M  V30 1073 C 101.344 0.372169 4.30394 0
M  V30 1074 C 100.479 -0.454908 5.29249 0
M  V30 1075 C 99.5179 0.45411 6.10413 0
M  V30 1076 N 98.6549 -0.335075 7.013 0
M  V30 1077 H 103.495 1.10052 2.76934 0
M  V30 1078 H 101.032 0.554161 1.36262 0
M  V30 1079 H 102.99 -1.02709 4.0436 0
M  V30 1080 H 101.62 -1.32727 2.9425 0
M  V30 1081 H 100.672 0.97888 3.6759 0
M  V30 1082 H 101.984 1.0703 4.87182 0
M  V30 1083 H 101.138 -1.00695 5.98285 0
M  V30 1084 H 99.8769 -1.18646 4.73048 0
M  V30 1085 H 98.8819 1.01813 5.40291 0
M  V30 1086 H 100.107 1.18409 6.68697 0
M  V30 1087 H 98.0529 -1.04994 6.47543 0
M  V30 1088 H 97.9699 0.304262 7.55387 0
M  V30 1089 H 99.2379 -0.869224 7.74638 0
M  V30 1090 N 103.467 -1.45747 0.599634 0
M  V30 1091 C 104.744 -1.95585 0.0240846 0
M  V30 1092 C 105.124 -1.54217 -1.44154 0
M  V30 1093 O 104.472 -0.800903 -2.14004 0
M  V30 1094 C 104.682 -3.48344 0.21385 0
M  V30 1095 C 106.03 -4.24504 0.0904902 0
M  V30 1096 O 107.054 -3.55911 0.143558 0
M  V30 1097 O 105.913 -5.46491 -0.0310766 0
M  V30 1098 H 103.007 -0.82602 -0.0402478 0
M  V30 1099 H 105.553 -1.55951 0.669139 0
M  V30 1100 H 104.325 -3.71397 1.23206 0
M  V30 1101 H 103.948 -3.9485 -0.466842 0
M  V30 1102 N 104.945 -0.338344 -1.53925 0
M  V30 1103 C 106.194 0.260732 -2.00008 0
M  V30 1104 C 106.507 1.52073 -1.23017 0
M  V30 1105 O 107.713 2.19672 -1.5955 0
M  V30 1106 C 106.169 0.51515 -3.56194 0
M  V30 1107 C 105.777 -0.728645 -4.42035 0
M  V30 1108 C 107.521 1.07337 -4.10706 0
M  V30 1109 C 105.428 -0.445315 -5.89721 0
M  V30 1110 H 104.358 0.101205 -0.747177 0
M  V30 1111 H 107.009 -0.452866 -1.77824 0
M  V30 1112 H 105.391 1.28932 -3.74423 0
M  V30 1113 H 106.565 -1.50352 -4.35581 0
M  V30 1114 H 104.88 -1.20813 -3.98489 0
M  V30 1115 H 107.477 1.30022 -5.18651 0
M  V30 1116 H 107.82 2.0273 -3.63602 0
M  V30 1117 H 108.353 0.360034 -3.96167 0
M  V30 1118 H 105.092 -1.36883 -6.41049 0
M  V30 1119 H 104.612 0.291569 -5.99091 0
M  V30 1120 H 106.291 -0.0606218 -6.46972 0
M  V30 1121 N 106.423 1.57458 -0.0668435 0
M  V30 1122 C 107.651 1.97624 0.612565 0
M  V30 1123 C 108.066 0.94502 1.63447 0
M  V30 1124 O 107.423 -0.0689276 1.8237 0
M  V30 1125 C 107.474 3.37869 1.28555 0
M  V30 1126 O 107.195 4.3704 0.304557 0
M  V30 1127 C 108.696 3.92882 2.05325 0
M  V30 1128 H 105.916 0.650045 0.166381 0
M  V30 1129 H 108.46 2.04035 -0.137782 0
M  V30 1130 H 106.615 3.3256 1.98702 0
M  V30 1131 H 107.029 5.18565 0.786779 0
M  V30 1132 H 108.503 4.93247 2.47812 0
M  V30 1133 H 108.98 3.29156 2.9078 0
M  V30 1134 H 109.586 4.01577 1.40056 0
M  V30 1135 N 107.901 -0.206675 1.56239 0
M  V30 1136 C 108.848 -1.25617 1.93621 0
M  V30 1137 C 109.818 -1.45824 0.795274 0
M  V30 1138 O 111.003 -1.59148 1.05245 0
M  V30 1139 C 108.143 -2.59839 2.27107 0
M  V30 1140 C 107.256 -2.47308 3.54207 0
M  V30 1141 C 106.391 -3.74155 3.7707 0
M  V30 1142 C 105.43 -3.56407 4.97635 0
M  V30 1143 N 104.567 -4.75238 5.1681 0
M  V30 1144 H 109.407 -0.930383 2.83104 0
M  V30 1145 H 106.944 -0.448065 1.4011 0
M  V30 1146 H 108.902 -3.38021 2.44535 0
M  V30 1147 H 107.532 -2.90485 1.40778 0
M  V30 1148 H 106.584 -1.60483 3.4489 0
M  V30 1149 H 107.896 -2.30122 4.42544 0
M  V30 1150 H 107.05 -4.60778 3.94675 0
M  V30 1151 H 105.789 -3.94282 2.87042 0
M  V30 1152 H 104.794 -2.68168 4.79964 0
M  V30 1153 H 106.019 -3.37736 5.89161 0
M  V30 1154 H 103.965 -4.95651 4.29728 0
M  V30 1155 H 103.882 -4.60835 5.99306 0
M  V30 1156 H 105.15 -5.63246 5.38864 0
M  V30 1157 N 109.379 -1.50304 -0.473955 0
M  V30 1158 C 110.609 -1.64663 -1.24778 0
M  V30 1159 C 111.017 -0.328174 -1.86332 0
M  V30 1160 O 110.36 0.699536 -1.69859 0
M  V30 1161 C 110.422 -2.6778 -2.39863 0
M  V30 1162 C 110.086 -4.11413 -1.98969 0
M  V30 1163 C 111.083 -4.97372 -1.51385 0
M  V30 1164 C 108.768 -4.57312 -2.07777 0
M  V30 1165 C 110.762 -6.27277 -1.13148 0
M  V30 1166 C 108.449 -5.87223 -1.69152 0
M  V30 1167 C 109.447 -6.72031 -1.21915 0
M  V30 1168 O 109.135 -7.99518 -0.838237 0
M  V30 1169 H 108.867 -0.556602 -0.383627 0
M  V30 1170 H 111.421 -1.9726 -0.572491 0
M  V30 1171 H 109.651 -2.30419 -3.10554 0
M  V30 1172 H 111.34 -2.71388 -3.01833 0
M  V30 1173 H 112.106 -4.63128 -1.44004 0
M  V30 1174 H 107.985 -3.91449 -2.43493 0
M  V30 1175 H 111.529 -6.93425 -0.762077 0
M  V30 1176 H 107.426 -6.20989 -1.76191 0
M  V30 1177 H 108.194 -8.12764 -0.967339 0
M  V30 1178 N 110.857 0.726932 -1.39834 0
M  V30 1179 C 112.085 1.51613 -1.40787 0
M  V30 1180 C 112.5 1.88799 -0.00451505 0
M  V30 1181 O 111.857 1.54662 0.968809 0
M  V30 1182 C 111.908 2.79863 -2.28821 0
M  V30 1183 O 111.629 2.44253 -3.63692 0
M  V30 1184 C 113.13 3.73837 -2.38245 0
M  V30 1185 H 110.35 0.468264 -0.480593 0
M  V30 1186 H 112.894 0.897607 -1.83748 0
M  V30 1187 H 111.049 3.38027 -1.89252 0
M  V30 1188 H 111.463 3.26695 -4.1033 0
M  V30 1189 H 112.937 4.60699 -3.04073 0
M  V30 1190 H 113.414 4.16153 -1.40403 0
M  V30 1191 H 114.02 3.21589 -2.78317 0
M  V30 1192 N 112.336 1.25143 0.95797 0
M  V30 1193 C 113.283 1.05235 2.05412 0
M  V30 1194 C 114.253 -0.0374561 1.66058 0
M  V30 1195 O 115.438 0.119073 1.90428 0
M  V30 1196 C 112.578 0.673589 3.38462 0
M  V30 1197 C 111.691 1.8379 3.90954 0
M  V30 1198 C 110.826 1.40381 5.12315 0
M  V30 1199 C 109.865 2.53746 5.57027 0
M  V30 1200 N 109.002 2.11136 6.69601 0
M  V30 1201 H 113.842 1.99048 2.21774 0
M  V30 1202 H 111.379 0.991277 1.08683 0
M  V30 1203 H 113.337 0.434964 4.14926 0
M  V30 1204 H 111.967 -0.227554 3.21997 0
M  V30 1205 H 111.019 2.18992 3.11041 0
M  V30 1206 H 112.331 2.68937 4.20089 0
M  V30 1207 H 111.485 1.12464 5.96185 0
M  V30 1208 H 110.224 0.523015 4.84887 0
M  V30 1209 H 109.229 2.82412 4.71724 0
M  V30 1210 H 110.454 3.42398 5.86464 0
M  V30 1211 H 108.4 1.25468 6.4389 0
M  V30 1212 H 108.317 2.89832 6.98236 0
M  V30 1213 H 109.585 1.86385 7.56889 0
M  V30 1214 N 113.814 -1.1601 1.06675 0
M  V30 1215 C 114.777 -2.18724 0.685001 0
M  V30 1216 C 115.777 -1.58496 -0.271246 0
M  V30 1217 O 116.967 -1.74119 -0.0531156 0
M  V30 1218 C 114.099 -3.40899 0.00853648 0
M  V30 1219 H 115.292 -2.54011 1.59431 0
M  V30 1220 H 112.845 -1.30352 0.862441 0
M  V30 1221 H 113.58 -3.11173 -0.913337 0
M  V30 1222 H 113.365 -3.8587 0.696204 0
M  V30 1223 H 114.855 -4.16886 -0.24414 0
M  V30 1224 N 115.292 -0.849877 -1.32721 0
M  V30 1225 C 116.239 -0.289033 -2.28983 0
M  V30 1226 C 117.209 0.601324 -1.54833 0
M  V30 1227 O 118.394 0.537253 -1.8308 0
M  V30 1228 C 115.534 0.520623 -3.4115 0
M  V30 1229 C 114.647 -0.394989 -4.3019 0
M  V30 1230 C 113.782 0.426834 -5.29482 0
M  V30 1231 C 112.821 -0.486476 -6.10164 0
M  V30 1232 N 111.958 0.297879 -7.01468 0
M  V30 1233 H 116.798 -1.11519 -2.76347 0
M  V30 1234 H 114.335 -0.56138 -1.35967 0
M  V30 1235 H 116.293 1.00563 -4.04899 0
M  V30 1236 H 114.923 1.31165 -2.9495 0
M  V30 1237 H 113.975 -0.99836 -3.67065 0
M  V30 1238 H 115.287 -1.09612 -4.86607 0
M  V30 1239 H 114.441 0.975205 -5.98811 0
M  V30 1240 H 113.18 1.16136 -4.73671 0
M  V30 1241 H 112.185 -1.04677 -5.39743 0
M  V30 1242 H 113.41 -1.21953 -6.6806 0
M  V30 1243 H 111.356 1.01558 -6.48091 0
M  V30 1244 H 111.273 -0.344318 -7.55216 0
M  V30 1245 H 112.541 0.828131 -7.75089 0
M  V30 1246 N 116.77 1.45427 -0.607355 0
M  V30 1247 C 118.019 2.01452 -0.100036 0
M  V30 1248 C 118.332 1.48159 1.27704 0
M  V30 1249 O 119.538 1.96159 1.87707 0
M  V30 1250 C 117.994 3.59672 -0.128158 0
M  V30 1251 C 117.602 4.21962 -1.50507 0
M  V30 1252 C 119.346 4.23262 0.323932 0
M  V30 1253 C 117.253 5.72333 -1.48959 0
M  V30 1254 H 116.183 0.75325 -0.0336299 0
M  V30 1255 H 118.834 1.66901 -0.76265 0
M  V30 1256 H 117.216 3.91411 0.601105 0
M  V30 1257 H 118.39 4.01796 -2.25602 0
M  V30 1258 H 116.705 3.70565 -1.89923 0
M  V30 1259 H 119.302 5.33522 0.354691 0
M  V30 1260 H 119.645 3.93921 1.34656 0
M  V30 1261 H 120.178 3.96239 -0.352056 0
M  V30 1262 H 116.917 6.06373 -2.48981 0
M  V30 1263 H 116.437 5.94691 -0.781214 0
M  V30 1264 H 118.116 6.35525 -1.21313 0
M  V30 1265 N 118.248 0.346503 1.53744 0
M  V30 1266 C 119.495 -0.249104 2.00962 0
M  V30 1267 C 119.823 -1.5032 1.23426 0
M  V30 1268 O 119.078 -1.93217 0.310761 0
M  V30 1269 C 119.377 -0.605809 3.52228 0
M  V30 1270 C 119.043 0.551747 4.47512 0
M  V30 1271 C 117.705 0.86941 4.73281 0
M  V30 1272 C 120.057 1.32818 5.03993 0
M  V30 1273 C 117.385 1.96582 5.52786 0
M  V30 1274 C 119.737 2.41486 5.84694 0
M  V30 1275 C 118.401 2.73808 6.08757 0
M  V30 1276 H 117.671 -0.0911538 0.735372 0
M  V30 1277 H 120.318 0.475027 1.85515 0
M  V30 1278 H 118.623 -1.4107 3.65522 0
M  V30 1279 H 120.32 -1.07858 3.86222 0
M  V30 1280 H 116.91 0.294102 4.2759 0
M  V30 1281 H 121.094 1.09602 4.84047 0
M  V30 1282 H 116.35 2.22045 5.69654 0
M  V30 1283 H 120.524 3.02078 6.27473 0
M  V30 1284 H 118.151 3.58892 6.7015 0
M  V30 1285 N 119.726 -1.57421 0.075193 0
M  V30 1286 C 120.951 -1.98364 -0.605515 0
M  V30 1287 C 121.376 -0.953383 -1.62149 0
M  V30 1288 O 120.734 0.0806053 -1.81121 0
M  V30 1289 C 120.782 -3.38332 -1.24756 0
M  V30 1290 O 119.886 -3.37959 -2.36342 0
M  V30 1291 H 119.227 -0.645553 -0.155428 0
M  V30 1292 H 121.757 -2.04044 0.150714 0
M  V30 1293 H 121.767 -3.75591 -1.5936 0
M  V30 1294 H 120.442 -4.12846 -0.503129 0
M  V30 1295 H 119.019 -3.12474 -2.03506 0
M  V30 1296 N 121.204 0.198386 -1.56346 0
M  V30 1297 C 122.151 1.24589 -1.94284 0
M  V30 1298 C 123.121 1.454 -0.802997 0
M  V30 1299 O 124.306 1.58588 -1.06087 0
M  V30 1300 C 121.446 2.58631 -2.28482 0
M  V30 1301 C 120.559 2.45426 -3.55514 0
M  V30 1302 C 119.694 3.7215 -3.79049 0
M  V30 1303 C 118.733 3.53763 -4.99518 0
M  V30 1304 N 117.87 4.72491 -5.19323 0
M  V30 1305 H 122.71 0.915356 -2.83593 0
M  V30 1306 H 120.247 0.440629 -1.40346 0
M  V30 1307 H 122.205 3.3672 -2.46324 0
M  V30 1308 H 120.835 2.89734 -1.42317 0
M  V30 1309 H 119.887 1.58652 -3.45737 0
M  V30 1310 H 121.199 2.27772 -4.43758 0
M  V30 1311 H 120.353 4.58679 -3.97113 0
M  V30 1312 H 119.092 3.92754 -2.89129 0
M  V30 1313 H 118.097 2.65619 -4.8138 0
M  V30 1314 H 119.322 3.34607 -5.90944 0
M  V30 1315 H 117.268 4.93365 -4.3235 0
M  V30 1316 H 117.185 4.5765 -6.01741 0
M  V30 1317 H 118.453 5.6038 -5.41843 0
M  V30 1318 N 122.682 1.50554 0.465978 0
M  V30 1319 C 123.928 1.62038 1.21949 0
M  V30 1320 C 124.261 0.322116 1.9151 0
M  V30 1321 O 123.536 -0.676723 1.82348 0
M  V30 1322 C 123.819 2.80421 2.25912 0
M  V30 1323 C 123.672 4.20144 1.60622 0
M  V30 1324 C 124.991 2.94354 3.27176 0
M  V30 1325 H 122.11 0.589752 0.441998 0
M  V30 1326 H 124.752 1.82956 0.51257 0
M  V30 1327 H 122.902 2.62717 2.86203 0
M  V30 1328 H 124.574 4.49449 1.03889 0
M  V30 1329 H 122.817 4.24165 0.909211 0
M  V30 1330 H 123.488 4.98914 2.36196 0
M  V30 1331 H 125.964 3.10578 2.76913 0
M  V30 1332 H 124.84 3.788 3.97242 0
M  V30 1333 H 125.101 2.05186 3.916 0
M  V30 1334 N 124.16 -0.719506 1.40217 0
M  V30 1335 C 125.408 -1.47641 1.3801 0
M  V30 1336 C 125.729 -1.94992 -0.018145 0
M  V30 1337 O 124.999 -1.70073 -0.972207 0
M  V30 1338 H 123.579 -0.547744 0.507923 0
M  V30 1339 H 126.241 -0.853187 1.75233 0
M  V30 1340 H 125.337 -2.35112 2.05253 0
M  V30 1341 N 125.638 -1.25649 -0.95132 0
M  V30 1342 C 126.585 -1.06323 -2.04851 0
M  V30 1343 C 127.555 0.0286491 -1.66075 0
M  V30 1344 O 128.74 -0.12917 -1.90362 0
M  V30 1345 C 125.88 -0.691529 -3.381 0
M  V30 1346 C 124.993 -1.85861 -3.89974 0
M  V30 1347 C 124.128 -1.43096 -5.11563 0
M  V30 1348 C 123.167 -2.56696 -5.55674 0
M  V30 1349 N 122.304 -2.14684 -6.68472 0
M  V30 1350 H 127.144 -2.00222 -2.20715 0
M  V30 1351 H 124.681 -0.997027 -1.08156 0
M  V30 1352 H 126.639 -0.456963 -4.1469 0
M  V30 1353 H 125.269 0.210474 -3.22113 0
M  V30 1354 H 124.321 -2.20639 -3.09875 0
M  V30 1355 H 125.633 -2.71161 -4.18657 0
M  V30 1356 H 124.787 -1.15624 -5.9558 0
M  V30 1357 H 123.526 -0.548722 -4.84603 0
M  V30 1358 H 122.531 -2.84909 -4.7022 0
M  V30 1359 H 123.756 -3.45503 -5.8464 0
M  V30 1360 H 121.702 -1.28881 -6.43215 0
M  V30 1361 H 121.619 -2.9353 -6.96689 0
M  V30 1362 H 122.887 -1.90397 -7.5589 0
M  V30 1363 N 127.117 1.15442 -1.07289 0
M  V30 1364 C 128.064 2.20161 -0.692653 0
M  V30 1365 C 129.034 1.63073 0.31564 0
M  V30 1366 O 130.219 1.89725 0.202235 0
M  V30 1367 C 127.359 3.44967 -0.0959509 0
M  V30 1368 C 126.472 4.16256 -1.15564 0
M  V30 1369 C 125.607 5.28609 -0.524011 0
M  V30 1370 C 124.646 5.91715 -1.56653 0
M  V30 1371 N 123.783 6.9554 -0.957531 0
M  V30 1372 H 128.623 2.52037 -1.59002 0
M  V30 1373 H 126.16 1.2378 -0.794798 0
M  V30 1374 H 128.118 4.16341 0.267628 0
M  V30 1375 H 126.748 3.1361 0.764772 0
M  V30 1376 H 125.8 3.43385 -1.6368 0
M  V30 1377 H 127.112 4.59268 -1.94613 0
M  V30 1378 H 126.266 6.06604 -0.108032 0
M  V30 1379 H 125.005 4.86787 0.29825 0
M  V30 1380 H 124.01 5.12433 -1.9923 0
M  V30 1381 H 125.235 6.35614 -2.39107 0
M  V30 1382 H 123.181 6.55814 -0.156162 0
M  V30 1383 H 123.098 7.36977 -1.68526 0
M  V30 1384 H 124.366 7.77435 -0.567032 0
M  V30 1385 N 128.595 0.856903 1.32268 0
M  V30 1386 C 129.823 0.475439 2.01363 0
M  V30 1387 C 130.238 -0.928486 1.64392 0
M  V30 1388 O 129.595 -1.60624 0.866387 0
M  V30 1389 C 129.646 0.607545 3.56358 0
M  V30 1390 O 129.367 1.95617 3.92002 0
M  V30 1391 C 130.868 0.225382 4.42727 0
M  V30 1392 H 128.088 0.186636 0.644521 0
M  V30 1393 H 130.632 1.15446 1.68797 0
M  V30 1394 H 128.787 -0.0237719 3.87393 0
M  V30 1395 H 129.201 1.95455 4.86721 0
M  V30 1396 H 130.675 0.368813 5.50767 0
M  V30 1397 H 131.152 -0.834369 4.31202 0
M  V30 1398 H 131.758 0.831864 4.17085 0
M  V30 1399 N 130.073 -1.45103 0.615059 0
M  V30 1400 C 130.983 -2.34382 -0.101034 0
M  V30 1401 C 131.999 -1.51681 -0.852585 0
M  V30 1402 O 133.175 -1.8446 -0.808484 0
M  V30 1403 C 130.24 -3.29417 -1.08099 0
M  V30 1404 C 129.301 -4.28025 -0.330577 0
M  V30 1405 C 128.534 -5.1852 -1.26385 0
M  V30 1406 O 128.757 -5.12598 -2.50198 0
M  V30 1407 O 127.691 -5.97122 -0.756866 0
M  V30 1408 H 131.517 -2.97033 0.632855 0
M  V30 1409 H 129.102 -1.4461 0.375293 0
M  V30 1410 H 130.984 -3.87958 -1.6452 0
M  V30 1411 H 129.659 -2.69321 -1.79577 0
M  V30 1412 H 128.566 -3.73078 0.276283 0
M  V30 1413 H 129.899 -4.90997 0.343866 0
M  V30 1414 N 131.551 -0.354651 -1.53558 0
M  V30 1415 C 132.791 0.238651 -2.03002 0
M  V30 1416 C 133.155 1.46878 -1.23656 0
M  V30 1417 O 134.356 2.13699 -1.63053 0
M  V30 1418 C 132.627 0.534175 -3.53386 0
M  V30 1419 S 134.186 1.10271 -4.24719 0
M  V30 1420 H 131.004 0.0702908 -0.707517 0
M  V30 1421 H 133.606 -0.494987 -1.8913 0
M  V30 1422 H 132.31 -0.368765 -4.0874 0
M  V30 1423 H 131.841 1.29718 -3.71398 0
M  V30 1424 H 133.856 2.38772 -4.34974 0
M  V30 1425 N 133.029 1.57378 -0.0835403 0
M  V30 1426 C 134.276 1.9393 0.58287 0
M  V30 1427 C 134.604 0.964455 1.68904 0
M  V30 1428 O 133.859 -0.0179474 1.95692 0
M  V30 1429 C 134.158 3.37063 1.1884 0
M  V30 1430 C 133.824 4.50424 0.207194 0
M  V30 1431 C 132.486 4.81159 -0.0627115 0
M  V30 1432 C 134.838 5.19136 -0.463426 0
M  V30 1433 C 132.166 5.77939 -1.01012 0
M  V30 1434 C 134.518 6.16931 -1.39924 0
M  V30 1435 C 133.182 6.46078 -1.67749 0
M  V30 1436 H 132.452 0.70964 0.213287 0
M  V30 1437 H 135.099 1.90856 -0.156916 0
M  V30 1438 H 133.404 3.3666 2.00418 0
M  V30 1439 H 135.101 3.6264 1.71153 0
M  V30 1440 H 131.691 4.2646 0.427747 0
M  V30 1441 H 135.875 4.95576 -0.268034 0
M  V30 1442 H 131.131 5.98842 -1.23283 0
M  V30 1443 H 135.305 6.69273 -1.92476 0
M  V30 1444 H 132.932 7.2088 -2.41321 0
M  V30 1445 N 134.507 -0.190092 1.56449 0
M  V30 1446 C 135.754 -0.909705 1.80916 0
M  V30 1447 C 136.082 -1.83047 0.657583 0
M  V30 1448 O 135.337 -1.92428 -0.356356 0
M  V30 1449 C 135.636 -1.75382 3.1141 0
M  V30 1450 C 135.302 -0.983606 4.40041 0
M  V30 1451 C 133.964 -0.770967 4.74984 0
M  V30 1452 C 136.316 -0.442024 5.19322 0
M  V30 1453 C 133.644 -0.0053448 5.867 0
M  V30 1454 C 135.996 0.310412 6.31838 0
M  V30 1455 C 134.66 0.534023 6.6536 0
M  V30 1456 H 133.93 -0.332885 0.662019 0
M  V30 1457 H 136.577 -0.175762 1.90692 0
M  V30 1458 H 134.882 -2.55659 2.96893 0
M  V30 1459 H 136.579 -2.31331 3.27547 0
M  V30 1460 H 133.169 -1.15936 4.12622 0
M  V30 1461 H 137.353 -0.593693 4.92736 0
M  V30 1462 H 132.609 0.177825 6.11141 0
M  V30 1463 H 136.783 0.737419 6.92485 0
M  V30 1464 H 134.41 1.12918 7.51767 0
M  V30 1465 N 135.985 -1.50799 -0.457987 0
M  V30 1466 C 137.401 -1.38515 -0.792819 0
M  V30 1467 C 137.601 -0.451409 -1.96379 0
M  V30 1468 O 136.657 0.10112 -2.52297 0
M  V30 1469 C 137.97 -2.80149 -1.09258 0
M  V30 1470 C 139.518 -2.89156 -1.19825 0
M  V30 1471 C 139.993 -4.31651 -1.53106 0
M  V30 1472 N 141.484 -4.34662 -1.60072 0
M  V30 1473 C 142.219 -5.41928 -1.87354 0
M  V30 1474 N 141.715 -6.59384 -2.12568 0
M  V30 1475 N 143.508 -5.29385 -1.88965 0
M  V30 1476 H 135.659 -2.10073 0.313511 0
M  V30 1477 H 137.922 -0.944803 0.0777862 0
M  V30 1478 H 137.628 -3.50374 -0.305084 0
M  V30 1479 H 137.502 -3.18204 -2.02549 0
M  V30 1480 H 139.889 -2.19141 -1.97639 0
M  V30 1481 H 139.97 -2.54626 -0.244821 0
M  V30 1482 H 139.614 -5.02208 -0.758266 0
M  V30 1483 H 139.544 -4.63678 -2.49621 0
M  V30 1484 H 142.035 -3.49973 -1.42573 0
M  V30 1485 H 142.348 -7.36934 -2.32696 0
M  V30 1486 H 140.693 -6.62535 -2.09933 0
M  V30 1487 H 143.884 -4.36616 -1.68772 0
M  V30 1488 H 144.057 -6.13066 -2.09891 0
M  V30 1489 N 137.463 0.71206 -1.40597 0
M  V30 1490 C 138.71 1.47197 -1.39065 0
M  V30 1491 C 139.038 1.94499 0.00583891 0
M  V30 1492 O 138.293 1.68752 0.99102 0
M  V30 1493 C 138.592 2.71039 -2.32965 0
M  V30 1494 C 138.258 2.42484 -3.80148 0
M  V30 1495 C 136.92 2.34406 -4.20247 0
M  V30 1496 C 139.272 2.18598 -4.73143 0
M  V30 1497 C 136.6 2.00516 -5.51371 0
M  V30 1498 C 138.952 1.8622 -6.0457 0
M  V30 1499 C 137.616 1.76626 -6.43708 0
M  V30 1500 H 136.886 0.538634 -0.508876 0
M  V30 1501 H 139.533 0.815325 -1.73276 0
M  V30 1502 H 137.838 3.41558 -1.91951 0
M  V30 1503 H 139.535 3.29138 -2.29061 0
M  V30 1504 H 136.125 2.49659 -3.4838 0
M  V30 1505 H 140.309 2.23793 -4.42979 0
M  V30 1506 H 135.565 1.91628 -5.80593 0
M  V30 1507 H 139.739 1.66752 -6.76141 0
M  V30 1508 H 137.366 1.50133 -7.45228 0
M  V30 1509 N 138.941 1.26152 0.944643 0
M  V30 1510 C 140.166 1.14363 1.7302 0
M  V30 1511 C 140.591 -0.29772 1.85729 0
M  V30 1512 O 139.949 -1.2157 1.34501 0
M  V30 1513 C 139.997 1.81378 3.11664 0
M  V30 1514 O 139.101 1.10022 3.97453 0
M  V30 1515 H 138.442 0.398694 0.53098 0
M  V30 1516 H 140.972 1.66906 1.18337 0
M  V30 1517 H 140.982 1.88064 3.62072 0
M  V30 1518 H 139.657 2.86237 3.0173 0
M  V30 1519 H 138.234 1.11287 3.55907 0
M  V30 1520 N 140.419 -1.14872 1.07899 0
M  V30 1521 C 141.647 -1.89661 0.82683 0
M  V30 1522 C 142.062 -1.78312 -0.620519 0
M  V30 1523 O 141.419 -1.13888 -1.42604 0
M  V30 1524 C 141.47 -3.39817 1.23316 0
M  V30 1525 O 141.191 -3.50845 2.62372 0
M  V30 1526 C 142.692 -4.31615 1.0111 0
M  V30 1527 H 139.912 -0.60092 0.298557 0
M  V30 1528 H 142.456 -1.4551 1.43691 0
M  V30 1529 H 140.611 -3.8161 0.667286 0
M  V30 1530 H 141.025 -4.44076 2.79101 0
M  V30 1531 H 142.499 -5.35367 1.34486 0
M  V30 1532 H 142.976 -4.39169 -0.0522168 0
M  V30 1533 H 143.582 -3.95572 1.56215 0
M  V30 1534 N 141.898 -0.863906 -1.31812 0
M  V30 1535 C 143.144 -0.472535 -1.97218 0
M  V30 1536 C 143.477 0.971394 -1.68159 0
M  V30 1537 O 142.752 1.68309 -0.974798 0
M  V30 1538 C 143.035 -0.723054 -3.52766 0
M  V30 1539 C 142.888 -2.21608 -3.91421 0
M  V30 1540 C 144.207 -0.185522 -4.39709 0
M  V30 1541 H 141.326 -0.173158 -0.71637 0
M  V30 1542 H 143.968 -1.08403 -1.56041 0
M  V30 1543 H 142.118 -0.202577 -3.87971 0
M  V30 1544 H 143.79 -2.80334 -3.66347 0
M  V30 1545 H 142.033 -2.691 -3.40246 0
M  V30 1546 H 142.704 -2.34203 -4.99853 0
M  V30 1547 H 145.18 -0.630726 -4.11292 0
M  V30 1548 H 144.056 -0.390306 -5.47511 0
M  V30 1549 H 144.317 0.912229 -4.32586 0
M  V30 1550 N 143.376 1.44774 -0.622745 0
M  V30 1551 C 144.339 2.29069 0.0774015 0
M  V30 1552 C 145.339 1.4059 0.780461 0
M  V30 1553 O 146.529 1.62551 0.626322 0
M  V30 1554 C 143.661 3.21974 1.12006 0
M  V30 1555 H 144.854 2.92459 -0.663901 0
M  V30 1556 H 142.407 1.51548 -0.382486 0
M  V30 1557 H 143.142 2.63417 1.89162 0
M  V30 1558 H 142.927 3.87168 0.619951 0
M  V30 1559 H 144.417 3.85318 1.60995 0
M  V30 1560 N 144.854 0.36279 1.53368 0
M  V30 1561 C 146.102 -0.227326 2.00817 0
M  V30 1562 C 146.423 -1.49511 1.25186 0
M  V30 1563 O 145.693 -1.92482 0.364348 0
M  V30 1564 H 144.273 -0.0869923 0.741917 0
M  V30 1565 H 146.935 0.488381 1.88682 0
M  V30 1566 H 146.031 -0.456273 3.08747 0
M  V30 1567 N 146.332 -1.57332 0.0918853 0
M  V30 1568 C 147.242 -2.17368 -0.882505 0
M  V30 1569 C 148.258 -1.14226 -1.31257 0
M  V30 1570 O 149.434 -1.46582 -1.38115 0
M  V30 1571 C 146.499 -2.73962 -2.12476 0
M  V30 1572 C 145.56 -3.92048 -1.7492 0
M  V30 1573 C 144.793 -4.45933 -2.93223 0
M  V30 1574 O 145.016 -3.98764 -4.07852 0
M  V30 1575 O 143.95 -5.36999 -2.71875 0
M  V30 1576 H 147.776 -3.01031 -0.40172 0
M  V30 1577 H 145.361 -1.48813 -0.132291 0
M  V30 1578 H 147.243 -3.10147 -2.85283 0
M  V30 1579 H 145.918 -1.93347 -2.59613 0
M  V30 1580 H 144.825 -3.6068 -0.993025 0
M  V30 1581 H 146.158 -4.74017 -1.32548 0
M  V30 1582 N 147.81 0.181792 -1.56548 0
M  V30 1583 C 149.226 0.53316 -1.50431 0
M  V30 1584 C 149.426 1.85184 -0.794297 0
M  V30 1585 O 148.482 2.50058 -0.350318 0
M  V30 1586 C 149.795 0.575597 -2.9514 0
M  V30 1587 C 151.343 0.663519 -3.05886 0
M  V30 1588 C 151.818 0.736946 -4.52032 0
M  V30 1589 N 153.309 0.800118 -4.56237 0
M  V30 1590 C 154.044 0.877327 -5.66649 0
M  V30 1591 N 153.54 0.916016 -6.86718 0
M  V30 1592 N 155.333 0.915542 -5.54594 0
M  V30 1593 H 147.484 -0.683025 -2.01118 0
M  V30 1594 H 149.747 -0.244988 -0.915797 0
M  V30 1595 H 149.453 -0.324482 -3.502 0
M  V30 1596 H 149.327 1.42572 -3.49218 0
M  V30 1597 H 151.714 1.55403 -2.50867 0
M  V30 1598 H 151.795 -0.21307 -2.54911 0
M  V30 1599 H 151.439 -0.149262 -5.07681 0
M  V30 1600 H 151.369 1.62953 -5.00753 0
M  V30 1601 H 153.86 0.778926 -3.69785 0
M  V30 1602 H 154.173 0.975813 -7.66614 0
M  V30 1603 H 152.518 0.884469 -6.89349 0
M  V30 1604 H 155.709 0.882245 -4.59711 0
M  V30 1605 H 155.882 0.972253 -6.40665 0
M  V30 1606 N 149.288 1.51039 0.449983 0
M  V30 1607 C 150.536 1.62759 1.19808 0
M  V30 1608 C 150.857 0.339981 1.92013 0
M  V30 1609 O 150.127 -0.643606 1.85026 0
M  V30 1610 H 148.707 0.599811 0.445237 0
M  V30 1611 H 151.369 1.87914 0.517138 0
M  V30 1612 H 150.465 2.44911 1.93455 0
M  V30 1613 N 150.766 -0.704594 1.40972 0
M  V30 1614 C 151.991 -1.49858 1.43378 0
M  V30 1615 C 152.416 -1.88061 0.038184 0
M  V30 1616 O 151.774 -1.5402 -0.956425 0
M  V30 1617 C 151.822 -2.74333 2.34038 0
M  V30 1618 O 150.926 -3.7147 1.7912 0
M  V30 1619 H 150.267 -0.45139 0.486974 0
M  V30 1620 H 152.797 -0.866832 1.8533 0
M  V30 1621 H 152.807 -3.22741 2.49604 0
M  V30 1622 H 151.482 -2.45863 3.35446 0
M  V30 1623 H 150.059 -3.30363 1.72958 0
M  V30 1624 N 152.244 -1.26651 -0.937939 0
M  V30 1625 C 153.207 -1.08546 -2.01867 0
M  V30 1626 C 154.207 -0.0327327 -1.60767 0
M  V30 1627 O 155.397 -0.276427 -1.71993 0
M  V30 1628 C 152.529 -0.651711 -3.34613 0
M  V30 1629 H 153.722 -2.04502 -2.1936 0
M  V30 1630 H 151.275 -1.09294 -1.11734 0
M  V30 1631 H 152.01 0.309696 -3.22818 0
M  V30 1632 H 151.795 -1.41189 -3.65798 0
M  V30 1633 H 153.285 -0.546973 -4.14002 0
M  V30 1634 N 153.722 1.14298 -1.08507 0
M  V30 1635 C 154.999 1.81544 -0.728088 0
M  V30 1636 C 155.379 1.95838 0.78808 0
M  V30 1637 O 154.727 1.51904 1.70697 0
M  V30 1638 C 154.937 3.17169 -1.45619 0
M  V30 1639 C 156.285 3.9265 -1.61591 0
M  V30 1640 O 157.309 3.26762 -1.41793 0
M  V30 1641 O 156.168 5.10807 -1.94263 0
M  V30 1642 H 153.262 0.78491 -0.260471 0
M  V30 1643 H 155.808 1.21307 -1.18671 0
M  V30 1644 H 154.58 3.01934 -2.489 0
M  V30 1645 H 154.203 3.851 -0.989124 0
M  V30 1646 N 155.201 0.870884 1.31352 0
M  V30 1647 C 156.164 0.332243 2.26779 0
M  V30 1648 C 157.164 -0.517302 1.52252 0
M  V30 1649 O 158.354 -0.326477 1.71113 0
M  V30 1650 C 155.486 -0.528066 3.36785 0
M  V30 1651 H 156.679 1.17469 2.75937 0
M  V30 1652 H 154.232 0.64655 1.423 0
M  V30 1653 H 154.967 -1.39167 2.92922 0
M  V30 1654 H 154.752 0.0802582 3.92018 0
M  V30 1655 H 156.242 -0.897179 4.07849 0
M  V30 1656 N 156.679 -1.44442 0.630414 0
M  V30 1657 C 157.925 -2.02351 0.134816 0
M  V30 1658 C 158.258 -1.4947 -1.23986 0
M  V30 1659 O 157.533 -0.678475 -1.82283 0
M  V30 1660 C 157.816 -3.59898 0.120707 0
M  V30 1661 C 157.669 -4.23063 1.52767 0
M  V30 1662 C 158.988 -4.36585 -0.555127 0
M  V30 1663 H 156.107 -0.73527 0.0504646 0
M  V30 1664 H 158.749 -1.72022 0.806751 0
M  V30 1665 H 156.899 -3.85868 -0.451477 0
M  V30 1666 H 158.571 -4.08202 2.14869 0
M  V30 1667 H 156.814 -3.80586 2.08175 0
M  V30 1668 H 157.485 -5.32071 1.46984 0
M  V30 1669 H 159.961 -4.16044 -0.0685429 0
M  V30 1670 H 158.837 -5.46294 -0.534185 0
M  V30 1671 H 159.098 -4.11138 -1.62535 0
M  V30 1672 N 158.157 -0.370918 -1.53173 0
M  V30 1673 C 159.573 -0.0200818 -1.59587 0
M  V30 1674 C 159.773 1.46279 -1.38581 0
M  V30 1675 O 158.829 2.22506 -1.19363 0
M  V30 1676 C 160.142 -0.4808 -2.96831 0
M  V30 1677 C 161.69 -0.435477 -3.09956 0
M  V30 1678 C 162.165 -0.872092 -4.4962 0
M  V30 1679 N 163.656 -0.827364 -4.55751 0
M  V30 1680 C 164.391 -1.13683 -5.62018 0
M  V30 1681 N 163.887 -1.51584 -6.76014 0
M  V30 1682 N 165.68 -1.05927 -5.52029 0
M  V30 1683 H 157.831 -1.33652 -1.65079 0
M  V30 1684 H 160.094 -0.546634 -0.774529 0
M  V30 1685 H 159.8 -1.51577 -3.1736 0
M  V30 1686 H 159.674 0.129796 -3.76977 0
M  V30 1687 H 162.061 0.590371 -2.89134 0
M  V30 1688 H 162.142 -1.08164 -2.31806 0
M  V30 1689 H 161.786 -1.89608 -4.71181 0
M  V30 1690 H 161.716 -0.203127 -5.26208 0
M  V30 1691 H 164.207 -0.548216 -3.73902 0
M  V30 1692 H 164.52 -1.73609 -7.53047 0
M  V30 1693 H 162.865 -1.55454 -6.77391 0
M  V30 1694 H 166.056 -0.762321 -4.61851 0
M  V30 1695 H 166.229 -1.30378 -6.34749 0
M  V30 1696 N 159.635 1.57281 -0.100228 0
M  V30 1697 C 160.912 1.86014 0.604812 0
M  V30 1698 C 161.292 0.998025 1.86018 0
M  V30 1699 O 160.64 0.0718184 2.28387 0
M  V30 1700 C 160.85 3.36784 0.915278 0
M  V30 1701 C 162.198 4.04957 1.27651 0
M  V30 1702 O 163.222 3.41695 1.00613 0
M  V30 1703 O 162.081 5.16593 1.7831 0
M  V30 1704 H 159.175 0.76942 0.303185 0
M  V30 1705 H 161.721 1.69176 -0.133313 0
M  V30 1706 H 160.493 3.91292 0.0248896 0
M  V30 1707 H 160.116 3.58987 1.70921 0
M  V30 1708 N 161.113 -0.173488 1.56642 0
M  V30 1709 C 162.524 -0.736155 1.71574 0
M  V30 1710 C 162.875 -1.82888 0.710389 0
M  V30 1711 O 162 -2.16017 -0.1287 0
M  V30 1712 C 162.595 -1.34211 3.11083 0
M  V30 1713 C 161.154 -1.85162 3.27707 0
M  V30 1714 C 160.301 -0.729765 2.67525 0
M  V30 1715 H 163.252 0.0518786 1.58615 0
M  V30 1716 H 163.273 -2.21178 3.09613 0
M  V30 1717 H 162.785 -0.546579 3.84232 0
M  V30 1718 H 160.886 -2.67366 2.59512 0
M  V30 1719 H 160.999 -1.99855 4.35425 0
M  V30 1720 H 159.363 -1.14965 2.27278 0
M  V30 1721 H 160.146 0.0538806 3.43258 0
M  V30 1722 N 162.591 -1.51276 -0.441967 0
M  V30 1723 C 164.007 -1.39349 -0.778083 0
M  V30 1724 C 164.207 -0.472212 -1.95889 0
M  V30 1725 O 163.263 0.0743551 -2.5239 0
M  V30 1726 C 164.576 -2.81292 -1.0628 0
M  V30 1727 C 166.124 -2.9041 -1.16751 0
M  V30 1728 C 166.599 -4.33251 -1.48519 0
M  V30 1729 N 168.09 -4.36336 -1.55453 0
M  V30 1730 C 168.825 -5.43885 -1.81596 0
M  V30 1731 N 168.321 -6.61601 -2.05562 0
M  V30 1732 N 170.114 -5.3136 -1.8334 0
M  V30 1733 H 162.265 -2.09729 0.335774 0
M  V30 1734 H 164.528 -0.943925 0.0878028 0
M  V30 1735 H 164.234 -3.50678 -0.267905 0
M  V30 1736 H 164.108 -3.20334 -1.99163 0
M  V30 1737 H 166.495 -2.21225 -1.95304 0
M  V30 1738 H 166.576 -2.54871 -0.217801 0
M  V30 1739 H 166.22 -5.02984 -0.704958 0
M  V30 1740 H 166.15 -4.66299 -2.44689 0
M  V30 1741 H 168.641 -3.51466 -1.38853 0
M  V30 1742 H 168.954 -7.39361 -2.24867 0
M  V30 1743 H 167.299 -6.64725 -2.02894 0
M  V30 1744 H 170.49 -4.38382 -1.64132 0
M  V30 1745 H 170.663 -6.15258 -2.03377 0
M  V30 1746 N 164.069 0.697108 -1.41344 0
M  V30 1747 C 165.317 1.45426 -1.40341 0
M  V30 1748 C 165.638 1.94996 -0.0128787 0
M  V30 1749 O 164.908 1.71599 0.945027 0
M  V30 1750 H 163.488 0.539594 -0.516573 0
M  V30 1751 H 166.15 0.825201 -1.76569 0
M  V30 1752 H 165.246 2.31817 -2.08967 0
M  V30 1753 N 165.547 1.27147 0.931209 0
M  V30 1754 C 166.794 1.13278 1.67852 0
M  V30 1755 C 167.122 -0.32204 1.91815 0
M  V30 1756 O 166.377 -1.25224 1.50391 0
M  V30 1757 C 166.676 1.8579 3.05314 0
M  V30 1758 C 166.342 3.35657 3.01073 0
M  V30 1759 C 165.004 3.76536 2.99623 0
M  V30 1760 C 167.356 4.31299 2.92627 0
M  V30 1761 C 164.684 5.11426 2.87506 0
M  V30 1762 C 167.036 5.66242 2.82051 0
M  V30 1763 C 165.7 6.06418 2.7895 0
M  V30 1764 H 164.97 0.414515 0.614214 0
M  V30 1765 H 167.617 1.57712 1.08624 0
M  V30 1766 H 165.922 1.33854 3.68226 0
M  V30 1767 H 167.619 1.72491 3.62005 0
M  V30 1768 H 164.209 3.03146 3.02986 0
M  V30 1769 H 168.393 4.00692 2.92848 0
M  V30 1770 H 163.649 5.41705 2.83489 0
M  V30 1771 H 167.823 6.40026 2.74481 0
M  V30 1772 H 165.45 7.10895 2.69318 0
M  V30 1773 N 167.025 -1.13721 1.09112 0
M  V30 1774 C 167.988 -2.17222 0.731241 0
M  V30 1775 C 168.988 -1.59035 -0.237566 0
M  V30 1776 O 170.178 -1.74192 -0.0161704 0
M  V30 1777 C 167.31 -3.40804 0.0808443 0
M  V30 1778 H 168.503 -2.50573 1.64783 0
M  V30 1779 H 166.056 -1.28493 0.889897 0
M  V30 1780 H 166.791 -3.1304 -0.847127 0
M  V30 1781 H 166.576 -3.84306 0.777896 0
M  V30 1782 H 168.066 -4.1731 -0.155657 0
M  V30 1783 N 168.503 -0.877838 -1.30888 0
M  V30 1784 C 169.436 -0.283995 -2.26426 0
M  V30 1785 C 170.414 0.591361 -1.51465 0
M  V30 1786 O 171.598 0.54304 -1.80509 0
M  V30 1787 C 168.725 0.597129 -3.33395 0
M  V30 1788 C 167.771 -0.207937 -4.25993 0
M  V30 1789 S 168.604 -1.59158 -5.11301 0
M  V30 1790 C 169.76 -0.716791 -6.21782 0
M  V30 1791 H 169.993 -1.09383 -2.76446 0
M  V30 1792 H 167.526 -0.676828 -1.38775 0
M  V30 1793 H 169.484 1.09978 -3.95493 0
M  V30 1794 H 168.145 1.38099 -2.82113 0
M  V30 1795 H 167.338 0.464163 -5.01858 0
M  V30 1796 H 166.94 -0.642963 -3.68432 0
M  V30 1797 H 169.232 0.0692833 -6.77465 0
M  V30 1798 H 170.175 -1.44682 -6.93161 0
M  V30 1799 H 170.583 -0.280855 -5.63801 0
M  V30 1800 N 169.982 1.44106 -0.638065 0
M  V30 1801 C 170.929 2.30715 0.062701 0
M  V30 1802 C 171.899 1.43882 0.829883 0
M  V30 1803 O 173.084 1.72775 0.809532 0
M  V30 1804 C 170.224 3.29258 1.03358 0
M  V30 1805 C 169.337 4.31192 0.26409 0
M  V30 1806 C 168.472 5.16825 1.22741 0
M  V30 1807 C 167.511 6.10462 0.447475 0
M  V30 1808 N 166.648 6.8877 1.36161 0
M  V30 1809 H 171.488 2.90096 -0.681781 0
M  V30 1810 H 169.025 1.42925 -0.347988 0
M  V30 1811 H 170.983 3.84886 1.60992 0
M  V30 1812 H 169.613 2.71562 1.74511 0
M  V30 1813 H 168.665 3.77981 -0.428295 0
M  V30 1814 H 169.977 4.97619 -0.343052 0
M  V30 1815 H 169.131 5.77004 1.87487 0
M  V30 1816 H 167.87 4.50488 1.86847 0
M  V30 1817 H 166.875 5.49386 -0.213433 0
M  V30 1818 H 168.1 6.78837 -0.188968 0
M  V30 1819 H 166.046 6.25096 1.98975 0
M  V30 1820 H 165.963 7.51663 0.808656 0
M  V30 1821 H 167.231 7.53467 1.99769 0
M  V30 1822 N 171.46 0.379036 1.52974 0
M  V30 1823 C 172.69 -0.20649 2.05566 0
M  V30 1824 C 173.098 -1.41906 1.25137 0
M  V30 1825 O 172.441 -1.81421 0.288464 0
M  V30 1826 C 172.503 -0.651086 3.53555 0
M  V30 1827 C 172.167 0.446626 4.54812 0
M  V30 1828 C 173.164 1.30079 5.03364 0
M  V30 1829 C 170.849 0.610719 4.98573 0
M  V30 1830 C 172.843 2.30426 5.94292 0
M  V30 1831 C 170.53 1.61754 5.89304 0
M  V30 1832 C 171.528 2.46274 6.37054 0
M  V30 1833 O 171.216 3.45237 7.25994 0
M  V30 1834 H 170.948 -0.0372381 0.674974 0
M  V30 1835 H 173.502 0.539718 1.98182 0
M  V30 1836 H 171.732 -1.44911 3.58522 0
M  V30 1837 H 173.421 -1.16112 3.88938 0
M  V30 1838 H 174.187 1.18527 4.70294 0
M  V30 1839 H 170.066 -0.0374044 4.60985 0
M  V30 1840 H 173.61 2.96432 6.31485 0
M  V30 1841 H 169.507 1.73348 6.21788 0
M  V30 1842 H 170.275 3.41124 7.44027 0
M  V30 1843 N 172.938 -1.57226 0.108567 0
M  V30 1844 C 174.168 -1.9889 -0.559142 0
M  V30 1845 C 174.576 -0.986889 -1.61422 0
M  V30 1846 O 173.919 0.0298705 -1.83676 0
M  V30 1847 C 173.981 -3.36952 -1.25315 0
M  V30 1848 C 173.645 -4.55679 -0.347248 0
M  V30 1849 C 174.642 -5.18281 0.409996 0
M  V30 1850 C 172.327 -5.0162 -0.261367 0
M  V30 1851 C 174.321 -6.25203 1.24096 0
M  V30 1852 C 172.008 -6.08405 0.573238 0
M  V30 1853 C 173.006 -6.70063 1.32304 0
M  V30 1854 O 172.694 -7.74788 2.14381 0
M  V30 1855 H 172.426 -0.658343 -0.153492 0
M  V30 1856 H 174.98 -2.04532 0.188584 0
M  V30 1857 H 173.21 -3.28032 -2.04773 0
M  V30 1858 H 174.899 -3.62974 -1.81673 0
M  V30 1859 H 175.665 -4.8371 0.353457 0
M  V30 1860 H 171.544 -4.53381 -0.834656 0
M  V30 1861 H 175.088 -6.73259 1.82669 0
M  V30 1862 H 170.985 -6.42406 0.631208 0
M  V30 1863 H 171.753 -7.91837 2.07209 0
M  V30 1864 N 174.416 0.165178 -1.56732 0
M  V30 1865 C 175.644 0.896218 -1.86482 0
M  V30 1866 C 176.059 1.75555 -0.694675 0
M  V30 1867 O 175.416 1.79379 0.33607 0
M  V30 1868 C 175.467 1.76792 -3.1532 0
M  V30 1869 O 175.188 0.943239 -4.27825 0
M  V30 1870 C 176.689 2.6081 -3.58459 0
M  V30 1871 H 173.909 0.260064 -0.618553 0
M  V30 1872 H 176.453 0.163428 -2.03846 0
M  V30 1873 H 174.608 2.45398 -2.99764 0
M  V30 1874 H 175.022 1.53998 -5.01383 0
M  V30 1875 H 176.496 3.17579 -4.51495 0
M  V30 1876 H 176.973 3.35977 -2.82872 0
M  V30 1877 H 177.579 1.97526 -3.76648 0
M  V30 1878 N 175.894 1.51508 0.433938 0
M  V30 1879 C 176.804 1.75917 1.5521 0
M  V30 1880 C 177.82 0.643545 1.61662 0
M  V30 1881 O 178.996 0.926183 1.7884 0
M  V30 1882 C 176.061 1.88213 2.91164 0
M  V30 1883 C 175.122 3.12074 2.94802 0
M  V30 1884 C 174.355 3.23774 4.24271 0
M  V30 1885 O 174.578 2.4133 5.16833 0
M  V30 1886 O 173.512 4.16774 4.34262 0
M  V30 1887 H 177.338 2.70777 1.37527 0
M  V30 1888 H 174.923 1.36051 0.617293 0
M  V30 1889 H 176.805 1.98267 3.71845 0
M  V30 1890 H 175.48 0.965413 3.08968 0
M  V30 1891 H 174.387 3.07497 2.13065 0
M  V30 1892 H 175.72 4.03446 2.81943 0
M  V30 1893 N 177.372 -0.689602 1.41712 0
M  V30 1894 C 178.282 -1.83314 1.46401 0
M  V30 1895 C 179.298 -1.7036 0.35405 0
M  V30 1896 O 180.474 -1.92171 0.602692 0
M  V30 1897 C 177.539 -3.19344 1.34982 0
M  V30 1898 C 176.6 -3.44363 2.56344 0
M  V30 1899 C 175.833 -4.73904 2.45461 0
M  V30 1900 O 176.056 -5.508 1.48241 0
M  V30 1901 O 174.99 -4.99839 3.35328 0
M  V30 1902 H 178.816 -1.82314 2.42889 0
M  V30 1903 H 176.401 -0.843438 1.23315 0
M  V30 1904 H 178.283 -4.00547 1.3092 0
M  V30 1905 H 176.958 -3.21014 0.41612 0
M  V30 1906 H 175.865 -2.63067 2.65982 0
M  V30 1907 H 177.198 -3.47512 3.48563 0
M  V30 1908 N 178.85 -1.27639 -0.924453 0
M  V30 1909 C 180.098 -1.13941 -1.66918 0
M  V30 1910 C 180.419 0.314589 -1.92446 0
M  V30 1911 O 179.689 1.21964 -1.53303 0
M  V30 1912 H 178.269 -0.418678 -0.618642 0
M  V30 1913 H 180.931 -1.60213 -1.10985 0
M  V30 1914 H 180.027 -1.67094 -2.63602 0
M  V30 1915 N 180.328 1.1314 -1.09713 0
M  V30 1916 C 181.276 2.20717 -0.733934 0
M  V30 1917 C 182.27 1.6729 0.266506 0
M  V30 1918 O 183.476 1.79547 0.127656 0
M  V30 1919 H 179.851 0.719292 -0.21937 0
M  V30 1920 H 181.822 2.48611 -1.6503 0
M  V30 1921 C 180.571 3.47265 -0.173849 0
M  V30 1922 H 179.894 3.88716 -0.934873 0
M  V30 1923 H 181.334 4.23979 0.0423126 0
M  V30 1924 C 179.793 3.18724 1.09164 0
M  V30 1925 O 180.323 3.37762 2.17439 0
M  V30 1926 N 178.529 2.72583 1.00732 0
M  V30 1927 H 178.076 2.57291 0.126121 0
M  V30 1928 H 178.034 2.53862 1.85476 0
M  V30 1929 N 181.806 0.884767 1.30421 0
M  V30 1930 C 183.052 0.513218 1.96819 0
M  V30 1931 C 183.407 -0.927347 1.68577 0
M  V30 1932 O 182.7 -1.64644 0.979941 0
M  V30 1933 C 182.894 0.724318 3.49983 0
M  V30 1934 C 182.723 2.18385 3.93113 0
M  V30 1935 C 181.493 2.82839 4.18725 0
M  V30 1936 C 183.691 3.15763 4.05953 0
M  V30 1937 N 181.673 4.1939 4.48314 0
M  V30 1938 C 183.044 4.37387 4.39423 0
M  V30 1939 C 185.099 3.11555 3.88379 0
M  V30 1940 C 183.802 5.55343 4.5715 0
M  V30 1941 C 185.828 4.28782 4.07308 0
M  V30 1942 C 185.19 5.49172 4.41123 0
M  V30 1943 H 181.289 0.237123 0.745182 0
M  V30 1944 H 183.873 1.14246 1.57658 0
M  V30 1945 H 182.044 0.124565 3.882 0
M  V30 1946 H 183.776 0.31969 4.03435 0
M  V30 1947 H 180.531 2.33708 4.11919 0
M  V30 1948 H 180.955 4.89911 4.67243 0
M  V30 1949 H 185.597 2.19576 3.61312 0
M  V30 1950 H 183.315 6.47826 4.8306 0
M  V30 1951 H 186.901 4.26995 3.95179 0
M  V30 1952 H 185.781 6.38371 4.55469 0
M  V30 1953 N 183.284 -1.43765 0.645699 0
M  V30 1954 C 184.561 -1.9541 0.0862963 0
M  V30 1955 C 184.941 -1.58725 -1.39175 0
M  V30 1956 O 184.289 -0.868581 -2.11348 0
M  V30 1957 C 184.499 -3.47488 0.324565 0
M  V30 1958 C 185.847 -4.24001 0.225497 0
M  V30 1959 O 186.871 -3.55274 0.256715 0
M  V30 1960 O 185.73 -5.46313 0.142801 0
M  V30 1961 H 182.824 -0.826882 -0.0139483 0
M  V30 1962 H 185.37 -1.53743 0.718415 0
M  V30 1963 H 184.142 -3.67289 1.3496 0
M  V30 1964 H 183.765 -3.96135 -0.340987 0
M  V30 1965 N 184.763 -0.387143 -1.52771 0
M  V30 1966 C 185.693 0.440551 -2.29306 0
M  V30 1967 C 186.674 1.06535 -1.32606 0
M  V30 1968 O 187.859 1.07853 -1.61497 0
M  V30 1969 C 184.989 1.56919 -3.09829 0
M  V30 1970 C 183.943 1.07054 -4.14395 0
M  V30 1971 C 183.269 2.29109 -4.83129 0
M  V30 1972 C 184.569 0.140015 -5.22112 0
M  V30 1973 H 186.263 -0.198026 -2.98744 0
M  V30 1974 H 183.809 -0.09668 -1.43675 0
M  V30 1975 H 185.762 2.15503 -3.62128 0
M  V30 1976 H 184.486 2.23532 -2.3812 0
M  V30 1977 H 183.145 0.507247 -3.63074 0
M  V30 1978 H 182.793 2.94227 -4.0797 0
M  V30 1979 H 182.493 1.96406 -5.53804 0
M  V30 1980 H 184.017 2.88339 -5.38231 0
M  V30 1981 H 185.431 0.633978 -5.69784 0
M  V30 1982 H 183.828 -0.0971485 -6.00021 0
M  V30 1983 H 184.898 -0.811711 -4.78058 0
M  V30 1984 N 186.241 1.57166 -0.116904 0
M  V30 1985 C 187.487 1.95412 0.542405 0
M  V30 1986 C 187.82 1.00019 1.66463 0
M  V30 1987 O 187.095 0.0370346 1.94465 0
M  V30 1988 C 187.378 3.43615 1.07708 0
M  V30 1989 C 187.231 4.49781 -0.0415868 0
M  V30 1990 C 188.55 3.93616 1.96861 0
M  V30 1991 H 185.669 0.710543 0.195696 0
M  V30 1992 H 188.311 1.89027 -0.192038 0
M  V30 1993 H 186.461 3.49187 1.70296 0
M  V30 1994 H 188.133 4.56308 -0.676793 0
M  V30 1995 H 186.376 4.28033 -0.705019 0
M  V30 1996 H 187.047 5.50733 0.373717 0
M  V30 1997 H 189.523 3.90335 1.44146 0
M  V30 1998 H 188.399 4.97838 2.3119 0
M  V30 1999 H 188.66 3.34188 2.89432 0
M  V30 2000 N 187.719 -0.156864 1.56817 0
M  V30 2001 C 188.967 -0.869404 1.82444 0
M  V30 2002 C 189.288 -1.82147 0.69623 0
M  V30 2003 O 188.558 -1.93847 -0.28287 0
M  V30 2004 H 187.138 -0.324043 0.673056 0
M  V30 2005 H 189.8 -0.153224 1.94297 0
M  V30 2006 H 188.896 -1.43761 2.77019 0
M  V30 2007 N 189.197 -1.51736 -0.425897 0
M  V30 2008 C 190.145 -1.74464 -1.53834 0
M  V30 2009 C 191.139 -0.611241 -1.57988 0
M  V30 2010 O 192.345 -0.792899 -1.61596 0
M  V30 2011 H 188.72 -0.551437 -0.511293 0
M  V30 2012 H 190.691 -2.67694 -1.31843 0
M  V30 2013 C 189.44 -1.8972 -2.91379 0
M  V30 2014 H 188.763 -2.76344 -2.88919 0
M  V30 2015 H 190.203 -2.09629 -3.68553 0
M  V30 2016 C 188.662 -0.65992 -3.30374 0
M  V30 2017 O 189.192 0.180083 -4.01296 0
M  V30 2018 N 187.398 -0.500677 -2.86254 0
M  V30 2019 H 186.945 -1.18532 -2.28709 0
M  V30 2020 H 186.903 0.325903 -3.12706 0
M  V30 2021 N 190.675 0.682077 -1.42076 0
M  V30 2022 C 191.623 1.81707 -1.45208 0
M  V30 2023 C 192.617 1.66183 -0.328591 0
M  V30 2024 O 193.823 1.7288 -0.501264 0
M  V30 2025 H 190.198 0.599014 -0.454628 0
M  V30 2026 H 192.169 1.76183 -2.40836 0
M  V30 2027 C 190.918 3.19816 -1.36428 0
M  V30 2028 H 190.241 3.32385 -2.22171 0
M  V30 2029 H 191.681 3.99272 -1.42681 0
M  V30 2030 C 190.14 3.36809 -0.078191 0
M  V30 2031 O 190.67 3.92124 0.87188 0
M  V30 2032 N 188.876 2.906 0.00229266 0
M  V30 2033 H 188.423 2.45772 -0.771616 0
M  V30 2034 H 188.381 3.02347 0.862179 0
M  V30 2035 N 192.153 1.28127 0.917671 0
M  V30 2036 C 193.381 1.17892 1.70026 0
M  V30 2037 C 193.796 -0.262958 1.8696 0
M  V30 2038 O 193.153 -1.17811 1.3938 0
M  V30 2039 C 193.204 1.86872 3.09453 0
M  V30 2040 O 192.925 3.25428 2.93306 0
M  V30 2041 C 194.426 1.8289 4.03815 0
M  V30 2042 H 191.646 0.40942 0.531617 0
M  V30 2043 H 194.19 1.69181 1.14883 0
M  V30 2044 H 192.345 1.39464 3.61426 0
M  V30 2045 H 192.759 3.59918 3.81523 0
M  V30 2046 H 194.233 2.35751 4.99125 0
M  V30 2047 H 194.71 0.800412 4.31845 0
M  V30 2048 H 195.316 2.29959 3.57769 0
M  V30 2049 N 193.631 -1.12557 1.10312 0
M  V30 2050 C 195.042 -1.65574 0.862678 0
M  V30 2051 C 195.393 -1.86566 -0.607256 0
M  V30 2052 O 194.518 -1.59121 -1.46662 0
M  V30 2053 C 195.113 -3.00776 1.55947 0
M  V30 2054 C 193.672 -3.50748 1.36576 0
M  V30 2055 C 192.819 -2.25797 1.60968 0
M  V30 2056 H 195.77 -0.963552 1.26101 0
M  V30 2057 H 195.791 -3.67185 0.997753 0
M  V30 2058 H 195.303 -2.85465 2.62928 0
M  V30 2059 H 193.404 -3.71245 0.317531 0
M  V30 2060 H 193.517 -4.30289 2.10686 0
M  V30 2061 H 191.881 -2.32841 1.03234 0
M  V30 2062 H 192.664 -2.13043 2.69198 0
M  V30 2063 N 195.109 -0.891671 -1.2995 0
M  V30 2064 C 196.355 -0.514261 -1.96171 0
M  V30 2065 C 196.688 0.935506 -1.70182 0
M  V30 2066 O 195.963 1.66204 -1.01028 0
M  V30 2067 C 196.246 -0.797719 -3.51153 0
M  V30 2068 C 196.099 -2.2986 -3.86632 0
M  V30 2069 C 197.418 -0.278749 -4.39216 0
M  V30 2070 H 194.537 -0.188314 -0.712535 0
M  V30 2071 H 197.179 -1.11689 -1.53706 0
M  V30 2072 H 195.329 -0.284826 -3.87455 0
M  V30 2073 H 197.001 -2.88042 -3.60319 0
M  V30 2074 H 195.244 -2.76257 -3.34462 0
M  V30 2075 H 195.915 -2.44753 -4.94773 0
M  V30 2076 H 198.391 -0.717825 -4.09862 0
M  V30 2077 H 197.267 -0.506353 -5.46559 0
M  V30 2078 H 197.528 0.820266 -4.34424 0
M  V30 2079 N 196.587 1.43421 -0.653314 0
M  V30 2080 C 197.834 2.01812 -0.166745 0
M  V30 2081 C 198.162 1.51535 1.21931 0
M  V30 2082 O 197.417 0.698975 1.82792 0
M  V30 2083 C 197.716 3.57176 -0.126623 0
M  V30 2084 C 197.382 4.26798 -1.45444 0
M  V30 2085 C 196.044 4.45534 -1.81805 0
M  V30 2086 C 198.396 4.66225 -2.32989 0
M  V30 2087 C 195.724 5.00961 -3.05377 0
M  V30 2088 C 198.076 5.23021 -3.55853 0
M  V30 2089 C 196.74 5.39973 -3.9241 0
M  V30 2090 H 196.01 0.738484 -0.0610162 0
M  V30 2091 H 198.657 1.71896 -0.84404 0
M  V30 2092 H 196.962 3.86634 0.634123 0
M  V30 2093 H 198.659 4.00112 0.266723 0
M  V30 2094 H 195.249 4.12561 -1.16153 0
M  V30 2095 H 199.433 4.51443 -2.06187 0
M  V30 2096 H 194.689 5.12271 -3.3375 0
M  V30 2097 H 198.863 5.52518 -4.23907 0
M  V30 2098 H 196.49 5.82687 -4.88242 0
M  V30 2099 N 198.065 0.39524 1.52563 0
M  V30 2100 C 199.312 -0.185044 2.01653 0
M  V30 2101 C 199.64 -1.46317 1.28146 0
M  V30 2102 O 198.895 -1.9213 0.372074 0
M  V30 2103 C 199.194 -0.493444 3.53977 0
M  V30 2104 C 198.86 0.69384 4.4553 0
M  V30 2105 C 197.522 1.01954 4.70275 0
M  V30 2106 C 199.874 1.48785 4.99512 0
M  V30 2107 C 197.202 2.14069 5.46252 0
M  V30 2108 C 199.554 2.59965 5.76716 0
M  V30 2109 C 198.218 2.93037 5.99738 0
M  V30 2110 H 197.488 -0.0677123 0.7379 0
M  V30 2111 H 200.135 0.533807 1.8391 0
M  V30 2112 H 198.44 -1.29369 3.69825 0
M  V30 2113 H 200.137 -0.955163 3.89458 0
M  V30 2114 H 196.727 0.429987 4.26438 0
M  V30 2115 H 200.911 1.24946 4.80315 0
M  V30 2116 H 196.167 2.40056 5.62302 0
M  V30 2117 H 200.341 3.21887 6.17545 0
M  V30 2118 H 197.968 3.8003 6.58393 0
M  V30 2119 N 199.544 -1.57102 0.125237 0
M  V30 2120 C 200.793 -1.94582 -0.531095 0
M  V30 2121 C 201.106 -1.01126 -1.6743 0
M  V30 2122 O 202.312 -1.28097 -2.39381 0
M  V30 2123 C 200.768 -3.45839 -0.996164 0
M  V30 2124 C 200.376 -4.47842 0.118926 0
M  V30 2125 C 202.12 -3.92227 -1.62352 0
M  V30 2126 C 200.027 -5.90284 -0.363192 0
M  V30 2127 H 198.957 -0.726391 -0.20217 0
M  V30 2128 H 201.608 -1.82339 0.206092 0
M  V30 2129 H 199.99 -3.53338 -1.78796 0
M  V30 2130 H 201.164 -4.52018 0.895358 0
M  V30 2131 H 199.479 -4.11243 0.653324 0
M  V30 2132 H 202.076 -4.96069 -1.99548 0
M  V30 2133 H 202.419 -3.32552 -2.50429 0
M  V30 2134 H 202.952 -3.87554 -0.897019 0
M  V30 2135 H 199.691 -6.53728 0.481679 0
M  V30 2136 H 199.211 -5.89515 -1.10597 0
M  V30 2137 H 200.89 -6.41752 -0.822377 0
M  V30 2138 N 201.022 0.148545 -1.56898 0
M  V30 2139 C 202.438 0.501131 -1.51528 0
M  V30 2140 C 202.638 1.83458 -0.833399 0
M  V30 2141 O 201.694 2.49259 -0.40328 0
M  V30 2142 C 203.007 0.512864 -2.96294 0
M  V30 2143 C 204.555 0.598487 -3.07225 0
M  V30 2144 C 205.03 0.640897 -4.53494 0
M  V30 2145 N 206.521 0.703163 -4.57832 0
M  V30 2146 C 207.256 0.756935 -5.68382 0
M  V30 2147 N 206.752 0.770147 -6.88506 0
M  V30 2148 N 208.545 0.797698 -5.56411 0
M  V30 2149 H 200.696 -0.725532 -1.99624 0
M  V30 2150 H 202.959 -0.264358 -0.910395 0
M  V30 2151 H 202.665 -0.398691 -3.49433 0
M  V30 2152 H 202.539 1.35133 -3.52163 0
M  V30 2153 H 204.926 1.50046 -2.54106 0
M  V30 2154 H 205.007 -0.267093 -2.54402 0
M  V30 2155 H 204.651 -0.256915 -5.0725 0
M  V30 2156 H 204.581 1.52295 -5.04097 0
M  V30 2157 H 207.072 0.700314 -3.71354 0
M  V30 2158 H 207.385 0.812983 -7.68512 0
M  V30 2159 H 205.73 0.738049 -6.9107 0
M  V30 2160 H 208.921 0.784535 -4.61479 0
M  V30 2161 H 209.094 0.83614 -6.42583 0
M  V30 2162 N 202.5 1.5196 0.417844 0
M  V30 2163 C 203.777 1.56146 1.17803 0
M  V30 2164 C 204.157 0.337275 2.08388 0
M  V30 2165 O 203.505 -0.676447 2.18258 0
M  V30 2166 C 203.715 2.88566 1.96293 0
M  V30 2167 C 205.063 3.41244 2.52662 0
M  V30 2168 O 206.087 2.90247 2.06483 0
M  V30 2169 O 204.946 4.30273 3.36938 0
M  V30 2170 H 202.04 0.628598 0.537395 0
M  V30 2171 H 204.586 1.64283 0.425331 0
M  V30 2172 H 203.358 3.69116 1.2988 0
M  V30 2173 H 202.981 2.83681 2.78587 0
M  V30 2174 N 203.978 -0.674533 1.42435 0
M  V30 2175 C 204.941 -1.76986 1.45632 0
M  V30 2176 C 205.941 -1.5708 0.343871 0
M  V30 2177 O 207.131 -1.63367 0.604709 0
M  V30 2178 C 204.263 -3.15623 1.28822 0
M  V30 2179 H 205.456 -1.75539 2.43158 0
M  V30 2180 H 203.009 -0.884189 1.28887 0
M  V30 2181 H 203.744 -3.22696 0.322193 0
M  V30 2182 H 203.529 -3.31475 2.09444 0
M  V30 2183 H 205.019 -3.95537 1.33942 0
M  V30 2184 N 205.456 -1.28612 -0.910864 0
M  V30 2185 C 206.705 -1.15311 -1.65488 0
M  V30 2186 C 207.018 0.296999 -1.93332 0
M  V30 2187 O 208.224 0.551168 -2.65847 0
M  V30 2188 C 206.68 -2.01599 -2.98137 0
M  V30 2189 C 206.288 -3.51367 -2.7793 0
M  V30 2190 C 208.032 -1.96993 -3.76024 0
M  V30 2191 C 205.939 -4.29797 -4.06237 0
M  V30 2192 H 204.869 -0.42796 -0.620779 0
M  V30 2193 H 207.52 -1.53166 -1.01057 0
M  V30 2194 H 205.902 -1.56603 -3.63719 0
M  V30 2195 H 207.076 -4.0434 -2.21011 0
M  V30 2196 H 205.391 -3.57529 -2.13452 0
M  V30 2197 H 207.988 -2.52856 -4.71135 0
M  V30 2198 H 208.331 -0.94733 -4.05378 0
M  V30 2199 H 208.864 -2.39973 -3.17266 0
M  V30 2200 H 205.603 -5.32648 -3.82055 0
M  V30 2201 H 205.123 -3.81596 -4.62757 0
M  V30 2202 H 206.802 -4.39869 -4.74473 0
M  V30 2203 N 206.934 1.1197 -1.10907 0
M  V30 2204 C 207.881 2.17846 -0.762345 0
M  V30 2205 C 208.851 1.63995 0.263599 0
M  V30 2206 O 210.036 1.90273 0.141773 0
M  V30 2207 C 207.176 3.44487 -0.205651 0
M  V30 2208 C 206.289 4.12369 -1.28748 0
M  V30 2209 C 205.424 5.26674 -0.691919 0
M  V30 2210 C 204.463 5.86431 -1.75399 0
M  V30 2211 N 203.6 6.92142 -1.17833 0
M  V30 2212 H 208.44 2.46851 -1.6694 0
M  V30 2213 H 205.977 1.21188 -0.833776 0
M  V30 2214 H 207.935 4.16981 0.135037 0
M  V30 2215 H 206.565 3.15884 0.664613 0
M  V30 2216 H 205.617 3.38003 -1.74522 0
M  V30 2217 H 206.929 4.52844 -2.09125 0
M  V30 2218 H 206.083 6.05953 -0.300963 0
M  V30 2219 H 204.822 4.8749 0.143232 0
M  V30 2220 H 203.827 5.05835 -2.15432 0
M  V30 2221 H 205.052 6.27685 -2.59208 0
M  V30 2222 H 202.998 6.54985 -0.364725 0
M  V30 2223 H 202.915 7.31242 -1.91887 0
M  V30 2224 H 204.183 7.75237 -0.81408 0
M  V30 2225 N 208.412 0.89855 1.29475 0
M  V30 2226 C 209.659 0.523882 1.95606 0
M  V30 2227 C 209.987 -0.929608 1.70847 0
M  V30 2228 O 209.242 -1.67401 1.01367 0
M  V30 2229 C 209.541 0.761398 3.49195 0
M  V30 2230 C 209.207 2.19207 3.94029 0
M  V30 2231 C 207.869 2.58326 4.05982 0
M  V30 2232 C 210.221 3.12379 4.17216 0
M  V30 2233 C 207.549 3.898 4.38489 0
M  V30 2234 C 209.901 4.43401 4.51197 0
M  V30 2235 C 208.565 4.82394 4.61359 0
M  V30 2236 H 207.835 0.191702 0.715773 0
M  V30 2237 H 210.482 1.13699 1.54094 0
M  V30 2238 H 208.787 0.0653622 3.91745 0
M  V30 2239 H 210.484 0.450904 3.98457 0
M  V30 2240 H 207.074 1.87846 3.85242 0
M  V30 2241 H 211.258 2.83371 4.07449 0
M  V30 2242 H 206.514 4.19734 4.44559 0
M  V30 2243 H 210.688 5.15623 4.68087 0
M  V30 2244 H 208.315 5.84306 4.86303 0
M  V30 2245 N 209.89 -1.43072 0.660911 0
M  V30 2246 C 211.301 -1.84932 0.256348 0
M  V30 2247 C 211.652 -1.55325 -1.19868 0
M  V30 2248 O 210.777 -1.00607 -1.91591 0
M  V30 2249 C 211.372 -3.35684 0.458475 0
M  V30 2250 C 209.931 -3.76245 0.108161 0
M  V30 2251 C 209.078 -2.66749 0.757641 0
M  V30 2252 H 212.029 -1.33116 0.864051 0
M  V30 2253 H 212.05 -3.79365 -0.293683 0
M  V30 2254 H 211.562 -3.572 1.51755 0
M  V30 2255 H 209.663 -3.60338 -0.948014 0
M  V30 2256 H 209.776 -4.76058 0.538992 0
M  V30 2257 H 208.14 -2.53989 0.190185 0
M  V30 2258 H 208.923 -2.91092 1.81989 0
M  V30 2259 N 211.368 -0.403325 -1.52352 0
M  V30 2260 C 212.645 0.232611 -1.94212 0
M  V30 2261 C 213.025 1.63133 -1.33981 0
M  V30 2262 O 212.373 2.22659 -0.513344 0
M  V30 2263 C 212.583 0.244811 -3.4814 0
M  V30 2264 C 213.931 0.46698 -4.22024 0
M  V30 2265 O 214.955 0.324419 -3.5472 0
M  V30 2266 O 213.814 0.74747 -5.41364 0
M  V30 2267 H 210.908 0.148223 -0.813609 0
M  V30 2268 H 213.454 -0.458848 -1.63379 0
M  V30 2269 H 212.226 -0.734378 -3.84347 0
M  V30 2270 H 211.849 0.980611 -3.85318 0
M  V30 2271 N 212.846 1.57033 -0.133567 0
M  V30 2272 C 214.093 1.95686 0.520877 0
M  V30 2273 C 214.421 1.0177 1.6575 0
M  V30 2274 O 213.676 0.0443195 1.9565 0
M  V30 2275 C 213.975 3.40674 1.08057 0
M  V30 2276 C 213.641 4.50855 0.0637899 0
M  V30 2277 C 212.303 4.80716 -0.215757 0
M  V30 2278 C 214.655 5.17398 -0.62835 0
M  V30 2279 C 211.983 5.74433 -1.19348 0
M  V30 2280 C 214.335 6.12167 -1.5948 0
M  V30 2281 C 212.999 6.40414 -1.88218 0
M  V30 2282 H 212.269 0.716067 0.190602 0
M  V30 2283 H 214.916 1.9026 -0.217556 0
M  V30 2284 H 213.221 3.42865 1.89606 0
M  V30 2285 H 214.918 3.67902 1.59529 0
M  V30 2286 H 211.508 4.27605 0.291855 0
M  V30 2287 H 215.692 4.94472 -0.425562 0
M  V30 2288 H 210.948 5.94616 -1.42272 0
M  V30 2289 H 215.122 6.6281 -2.13671 0
M  V30 2290 H 212.749 7.12838 -2.64133 0
M  V30 2291 N 214.325 -0.140222 1.56975 0
M  V30 2292 C 215.574 -0.850152 1.82908 0
M  V30 2293 C 215.887 -1.82028 0.715892 0
M  V30 2294 O 217.093 -2.57485 0.861016 0
M  V30 2295 C 215.549 -1.5625 3.24213 0
M  V30 2296 C 215.157 -0.63443 4.43485 0
M  V30 2297 C 216.901 -2.25881 3.59413 0
M  V30 2298 C 214.808 -1.34879 5.75814 0
M  V30 2299 H 213.738 -0.321221 0.682153 0
M  V30 2300 H 216.389 -0.102874 1.83211 0
M  V30 2301 H 214.771 -2.35565 3.18316 0
M  V30 2302 H 215.945 0.12398 4.60633 0
M  V30 2303 H 214.26 -0.0461836 4.16374 0
M  V30 2304 H 216.857 -2.79978 4.5554 0
M  V30 2305 H 217.2 -3.02693 2.85802 0
M  V30 2306 H 217.733 -1.53477 3.67001 0
M  V30 2307 H 214.472 -0.622385 6.52539 0
M  V30 2308 H 213.992 -2.07974 5.6259 0
M  V30 2309 H 215.671 -1.88784 6.18845 0
M  V30 2310 N 215.803 -1.52179 -0.40978 0
M  V30 2311 C 216.753 -1.71857 -1.49831 0
M  V30 2312 C 217.737 -0.572469 -1.50372 0
M  V30 2313 O 218.929 -0.829509 -1.56359 0
M  V30 2314 C 216.058 -1.87206 -2.87765 0
M  V30 2315 C 215.144 -3.07685 -2.91875 0
M  V30 2316 N 215.535 -4.30403 -2.65683 0
M  V30 2317 C 213.833 -3.07505 -3.23043 0
M  V30 2318 C 214.534 -5.11868 -2.76344 0
M  V30 2319 N 213.51 -4.47101 -3.09195 0
M  V30 2320 H 217.312 -2.64381 -1.28375 0
M  V30 2321 H 214.826 -1.50203 -0.617479 0
M  V30 2322 H 216.823 -1.99419 -3.66111 0
M  V30 2323 H 215.483 -0.958814 -3.10221 0
M  V30 2324 H 216.494 -4.58887 -2.4009 0
M  V30 2325 H 213.171 -2.25915 -3.51096 0
M  V30 2326 H 214.561 -6.19634 -2.59814 0
M  V30 2327 N 217.281 0.66697 -1.42791 0
M  V30 2328 C 218.509 1.45505 -1.47091 0
M  V30 2329 C 218.924 1.8861 -0.0845873 0
M  V30 2330 O 218.281 1.58632 0.90234 0
M  V30 2331 C 218.332 2.69906 -2.40485 0
M  V30 2332 O 218.053 2.28608 -3.73725 0
M  V30 2333 C 219.554 3.63396 -2.53886 0
M  V30 2334 H 216.774 0.447459 -0.500022 0
M  V30 2335 H 219.318 0.818866 -1.8739 0
M  V30 2336 H 217.473 3.29696 -2.03419 0
M  V30 2337 H 217.887 3.08997 -4.23817 0
M  V30 2338 H 219.361 4.47387 -3.2334 0
M  V30 2339 H 219.838 4.09824 -1.57927 0
M  V30 2340 H 220.444 3.09495 -2.91706 0
M  V30 2341 N 218.759 1.29093 0.90403 0
M  V30 2342 C 219.691 1.09658 2.01266 0
M  V30 2343 C 220.704 0.0453729 1.62737 0
M  V30 2344 O 221.893 0.289446 1.76138 0
M  V30 2345 C 218.993 0.646278 3.32681 0
M  V30 2346 C 218.166 1.77505 3.99763 0
M  V30 2347 C 217.225 1.31649 5.09465 0
M  V30 2348 O 216.251 2.02045 5.32134 0
M  V30 2349 N 217.453 0.184997 5.80205 0
M  V30 2350 H 220.218 2.05135 2.18494 0
M  V30 2351 H 217.779 1.20975 1.07594 0
M  V30 2352 H 219.771 0.322906 4.0341 0
M  V30 2353 H 218.341 -0.215916 3.11853 0
M  V30 2354 H 217.561 2.26752 3.22455 0
M  V30 2355 H 218.849 2.53198 4.41325 0
M  V30 2356 H 218.247 -0.402021 5.6427 0
M  V30 2357 H 216.804 -0.0790358 6.51752 0
M  V30 2358 N 220.237 -1.11381 1.11499 0
M  V30 2359 C 221.184 -2.17439 0.773887 0
M  V30 2360 C 222.154 -1.64132 -0.254899 0
M  V30 2361 O 223.339 -1.90345 -0.13168 0
M  V30 2362 C 220.479 -3.44373 0.223917 0
M  V30 2363 C 219.592 -4.1168 1.30934 0
M  V30 2364 C 218.727 -5.263 0.71984 0
M  V30 2365 C 217.766 -5.85493 1.78507 0
M  V30 2366 N 216.903 -6.91507 1.21502 0
M  V30 2367 H 221.743 -2.45962 1.68246 0
M  V30 2368 H 219.28 -1.20744 0.840191 0
M  V30 2369 H 221.238 -4.17047 -0.112921 0
M  V30 2370 H 219.868 -3.16232 -0.647851 0
M  V30 2371 H 218.92 -3.37073 1.76312 0
M  V30 2372 H 220.232 -4.51729 2.11524 0
M  V30 2373 H 219.386 -6.05785 0.333094 0
M  V30 2374 H 218.125 -4.87559 -0.117377 0
M  V30 2375 H 217.13 -5.04686 2.18111 0
M  V30 2376 H 218.355 -6.26301 2.62533 0
M  V30 2377 H 216.301 -6.54783 0.399455 0
M  V30 2378 H 216.218 -7.30214 1.95763 0
M  V30 2379 H 217.486 -7.74795 0.855181 0
M  V30 2380 N 221.715 -0.905404 -1.28997 0
M  V30 2381 C 223.131 -0.60233 -1.47798 0
M  V30 2382 C 223.331 0.854645 -1.82478 0
M  V30 2383 O 222.387 1.63439 -1.92468 0
M  V30 2384 C 223.7 -1.53306 -2.58685 0
M  V30 2385 C 225.248 -1.53887 -2.72558 0
M  V30 2386 C 225.723 -2.45602 -3.86579 0
M  V30 2387 N 227.214 -2.43681 -3.93921 0
M  V30 2388 C 227.949 -3.11347 -4.81509 0
M  V30 2389 N 227.445 -3.88313 -5.73746 0
M  V30 2390 N 229.238 -3.00476 -4.75048 0
M  V30 2391 H 221.389 -1.84765 -1.04764 0
M  V30 2392 H 223.652 -0.792025 -0.520961 0
M  V30 2393 H 223.358 -2.57141 -2.39941 0
M  V30 2394 H 223.232 -1.25787 -3.55609 0
M  V30 2395 H 225.619 -0.507941 -2.90696 0
M  V30 2396 H 225.7 -1.85447 -1.76191 0
M  V30 2397 H 225.344 -3.48792 -3.69197 0
M  V30 2398 H 225.274 -2.11349 -4.82327 0
M  V30 2399 H 227.765 -1.87767 -3.27951 0
M  V30 2400 H 228.078 -4.36985 -6.37389 0
M  V30 2401 H 226.423 -3.92419 -5.73614 0
M  V30 2402 H 229.614 -2.39858 -4.01977 0
M  V30 2403 H 229.787 -3.53485 -5.43095 0
M  V30 2404 N 223.193 1.4272 -0.668489 0
M  V30 2405 C 224.47 1.95248 -0.117373 0
M  V30 2406 C 224.85 1.60919 1.36632 0
M  V30 2407 O 224.198 0.902095 2.09939 0
M  V30 2408 C 224.408 3.46927 -0.379806 0
M  V30 2409 C 225.756 4.23588 -0.292923 0
M  V30 2410 O 226.78 3.5482 -0.313204 0
M  V30 2411 O 225.639 5.46017 -0.229697 0
M  V30 2412 H 222.733 0.827 0.00079152 0
M  V30 2413 H 225.279 1.52581 -0.742783 0
M  V30 2414 H 224.051 3.65096 -1.40786 0
M  V30 2415 H 223.674 3.96627 0.277923 0
M  V30 2416 N 224.671 0.411399 1.52136 0
M  V30 2417 C 226.082 -0.0576826 1.86611 0
M  V30 2418 C 226.433 -1.44238 1.33003 0
M  V30 2419 O 225.558 -2.05759 0.670228 0
M  V30 2420 C 226.153 -0.111448 3.38617 0
M  V30 2421 C 224.712 -0.52487 3.72723 0
M  V30 2422 C 223.859 0.299176 2.75681 0
M  V30 2423 H 226.81 0.628368 1.4573 0
M  V30 2424 H 226.831 -0.926252 3.69054 0
M  V30 2425 H 226.343 0.896488 3.77604 0
M  V30 2426 H 224.444 -1.53936 3.39315 0
M  V30 2427 H 224.557 -0.267681 4.78352 0
M  V30 2428 H 222.921 -0.238814 2.53578 0
M  V30 2429 H 223.704 1.3055 3.17508 0
M  V30 2430 N 226.149 -1.5696 0.141893 0
M  V30 2431 C 227.081 -2.13619 -0.830627 0
M  V30 2432 C 228.094 -1.08439 -1.21428 0
M  V30 2433 O 229.283 -1.35734 -1.15925 0
M  V30 2434 C 226.383 -2.63978 -2.12529 0
M  V30 2435 C 225.556 -3.93504 -1.9098 0
M  V30 2436 C 224.615 -4.29225 -3.04388 0
M  V30 2437 O 223.641 -4.97641 -2.76302 0
M  V30 2438 N 224.843 -3.88393 -4.31429 0
M  V30 2439 H 227.608 -2.97691 -0.34641 0
M  V30 2440 H 225.169 -1.61846 -0.0418375 0
M  V30 2441 H 227.161 -2.84891 -2.87436 0
M  V30 2442 H 225.731 -1.84659 -2.52229 0
M  V30 2443 H 224.951 -3.81269 -1.00139 0
M  V30 2444 H 226.239 -4.78154 -1.73914 0
M  V30 2445 H 225.637 -3.33257 -4.57117 0
M  V30 2446 H 224.194 -4.14368 -5.03133 0
M  V30 2447 N 227.627 0.131896 -1.57047 0
M  V30 2448 C 228.855 0.856461 -1.88341 0
M  V30 2449 C 229.27 1.74042 -0.731757 0
M  V30 2450 O 228.627 1.80051 0.297945 0
M  V30 2451 C 228.678 1.70064 -3.18999 0
M  V30 2452 O 228.399 0.852278 -4.2973 0
M  V30 2453 C 229.9 2.53148 -3.63911 0
M  V30 2454 H 227.12 0.246885 -0.62393 0
M  V30 2455 H 229.664 0.120152 -2.04147 0
M  V30 2456 H 227.819 2.38984 -3.04902 0
M  V30 2457 H 228.233 1.43329 -5.04537 0
M  V30 2458 H 229.707 3.07931 -4.58129 0
M  V30 2459 H 230.184 3.29901 -2.89935 0
M  V30 2460 H 230.79 1.89492 -3.80753 0
M  V30 2461 N 229.106 1.52395 0.401703 0
M  V30 2462 C 230.054 1.7689 1.51039 0
M  V30 2463 C 231.048 0.636298 1.56996 0
M  V30 2464 O 232.254 0.818507 1.60314 0
M  V30 2465 H 228.629 0.559502 0.502456 0
M  V30 2466 H 230.6 2.69757 1.27568 0
M  V30 2467 C 229.349 1.94331 2.88324 0
M  V30 2468 H 228.672 2.80905 2.84486 0
M  V30 2469 H 230.112 2.15466 3.65172 0
M  V30 2470 C 228.571 0.712396 3.29282 0
M  V30 2471 O 229.101 -0.116218 4.01532 0
M  V30 2472 N 227.307 0.546154 2.85422 0
M  V30 2473 H 226.854 1.22156 2.26794 0
M  V30 2474 H 226.812 -0.276113 3.13185 0
M  V30 2475 N 230.584 -0.659388 1.43143 0
M  V30 2476 C 231.514 -1.78422 1.50625 0
M  V30 2477 C 232.495 -1.66216 0.361443 0
M  V30 2478 O 233.68 -1.85404 0.577834 0
M  V30 2479 C 230.81 -3.16815 1.42287 0
M  V30 2480 C 229.764 -3.43777 2.54954 0
M  V30 2481 C 229.09 -4.81905 2.31671 0
M  V30 2482 C 230.39 -3.39134 3.97222 0
M  V30 2483 H 232.084 -1.72417 2.44771 0
M  V30 2484 H 229.63 -0.828084 1.17808 0
M  V30 2485 H 231.583 -3.95253 1.46127 0
M  V30 2486 H 230.307 -3.23534 0.446435 0
M  V30 2487 H 228.966 -2.67707 2.50457 0
M  V30 2488 H 228.614 -4.85294 1.32284 0
M  V30 2489 H 228.314 -5.00906 3.07192 0
M  V30 2490 H 229.838 -5.62609 2.37284 0
M  V30 2491 H 231.252 -4.07518 4.03239 0
M  V30 2492 H 229.649 -3.69671 4.72719 0
M  V30 2493 H 230.719 -2.37426 4.22797 0
M  V30 2494 N 232.062 -1.29571 -0.897171 0
M  V30 2495 C 233.473 -1.15964 -1.46319 0
M  V30 2496 C 233.824 0.244267 -1.94674 0
M  V30 2497 O 232.949 1.13998 -1.83939 0
M  V30 2498 C 233.544 -2.09906 -2.65942 0
M  V30 2499 C 232.103 -2.00314 -3.18671 0
M  V30 2500 C 231.25 -2.00687 -1.91363 0
M  V30 2501 H 234.201 -1.42019 -0.708268 0
M  V30 2502 H 234.222 -1.67276 -3.41759 0
M  V30 2503 H 233.734 -3.12075 -2.30718 0
M  V30 2504 H 231.835 -1.01242 -3.58582 0
M  V30 2505 H 231.948 -2.88102 -3.82798 0
M  V30 2506 H 230.312 -1.45319 -2.09175 0
M  V30 2507 H 231.095 -3.04566 -1.58413 0
M  V30 2508 N 233.54 1.10788 -1.12088 0
M  V30 2509 C 234.488 2.19111 -0.780587 0
M  V30 2510 C 235.482 1.67818 0.230961 0
M  V30 2511 O 236.688 1.79777 0.0895427 0
M  V30 2512 H 233.063 0.714477 -0.234578 0
M  V30 2513 H 235.034 2.45055 -1.70266 0
M  V30 2514 C 233.783 3.46818 -0.24747 0
M  V30 2515 H 233.106 3.86646 -1.01712 0
M  V30 2516 H 234.546 4.23973 -0.0476291 0
M  V30 2517 C 233.005 3.20968 1.02378 0
M  V30 2518 O 233.535 3.42298 2.10226 0
M  V30 2519 N 231.741 2.74658 0.949271 0
M  V30 2520 H 231.288 2.57501 0.0715173 0
M  V30 2521 H 231.246 2.57739 1.80049 0
M  V30 2522 N 235.018 0.912232 1.28515 0
M  V30 2523 C 235.968 0.370649 2.24967 0
M  V30 2524 C 236.952 -0.516375 1.52389 0
M  V30 2525 O 238.144 -0.356345 1.73376 0
M  V30 2526 C 235.273 -0.389526 3.41083 0
M  V30 2527 C 234.359 0.51313 4.20984 0
M  V30 2528 N 234.75 1.62604 4.78951 0
M  V30 2529 C 233.048 0.313235 4.44899 0
M  V30 2530 C 233.749 2.18619 5.39055 0
M  V30 2531 N 232.725 1.47765 5.23132 0
M  V30 2532 H 236.527 1.22061 2.67354 0
M  V30 2533 H 234.041 0.764712 1.43269 0
M  V30 2534 H 236.038 -0.794353 4.09262 0
M  V30 2535 H 234.698 -1.2366 3.0023 0
M  V30 2536 H 235.709 2.00864 4.77362 0
M  V30 2537 H 232.386 -0.494452 4.14562 0
M  V30 2538 H 233.776 3.12228 5.94948 0
M  V30 2539 N 236.496 -1.42363 0.676048 0
M  V30 2540 C 237.773 -1.95183 0.127726 0
M  V30 2541 C 238.153 -1.61641 -1.35777 0
M  V30 2542 O 237.501 -0.913216 -2.09458 0
M  V30 2543 C 237.711 -3.46721 0.398199 0
M  V30 2544 C 239.059 -4.23427 0.315383 0
M  V30 2545 O 240.083 -3.54649 0.332016 0
M  V30 2546 O 238.942 -5.45888 0.25865 0
M  V30 2547 H 236.036 -0.826992 0.00359427 0
M  V30 2548 H 238.582 -1.52184 0.750864 0
M  V30 2549 H 237.354 -3.64344 1.4272 0
M  V30 2550 H 236.977 -3.96769 -0.256885 0
M  V30 2551 N 237.974 -0.419461 -1.51915 0
M  V30 2552 C 238.907 0.445751 -2.23804 0
M  V30 2553 C 239.885 1.03951 -1.25031 0
M  V30 2554 O 241.069 1.08541 -1.54114 0
M  V30 2555 C 238.196 1.61964 -2.97465 0
M  V30 2556 C 237.242 1.14828 -4.10751 0
M  V30 2557 S 238.075 0.104938 -5.35397 0
M  V30 2558 C 239.231 1.28391 -6.1259 0
M  V30 2559 H 239.464 -0.164627 -2.96844 0
M  V30 2560 H 236.997 -0.203833 -1.53049 0
M  V30 2561 H 238.955 2.29271 -3.40507 0
M  V30 2562 H 237.616 2.20139 -2.24048 0
M  V30 2563 H 236.809 2.02561 -4.61503 0
M  V30 2564 H 236.411 0.553712 -3.69878 0
M  V30 2565 H 238.703 2.20563 -6.40592 0
M  V30 2566 H 239.646 0.816724 -7.03374 0
M  V30 2567 H 240.054 1.51439 -5.43807 0
M  V30 2568 N 239.452 1.56882 -0.150215 0
M  V30 2569 C 240.698 1.96518 0.500834 0
M  V30 2570 C 241.031 1.03527 1.64304 0
M  V30 2571 O 240.306 0.0782751 1.94342 0
M  V30 2572 C 240.589 3.45822 1.00395 0
M  V30 2573 C 240.442 4.49591 -0.136983 0
M  V30 2574 C 241.761 3.97704 1.88467 0
M  V30 2575 H 238.88 0.714535 0.18058 0
M  V30 2576 H 241.522 1.88577 -0.232091 0
M  V30 2577 H 239.672 3.5272 1.62851 0
M  V30 2578 H 241.344 4.5477 -0.77343 0
M  V30 2579 H 239.587 4.26441 -0.795652 0
M  V30 2580 H 240.258 5.51402 0.256815 0
M  V30 2581 H 242.734 3.93304 1.35834 0
M  V30 2582 H 241.61 5.0263 2.20578 0
M  V30 2583 H 241.871 3.40252 2.82279 0
M  V30 2584 N 240.93 -0.123565 1.57115 0
M  V30 2585 C 242.176 -0.828428 1.85765 0
M  V30 2586 C 242.531 -1.77709 0.737371 0
M  V30 2587 O 241.824 -1.89787 -0.262978 0
M  V30 2588 C 242.018 -1.62016 3.18568 0
M  V30 2589 C 241.847 -0.749663 4.43407 0
M  V30 2590 C 240.617 -0.406251 5.03664 0
M  V30 2591 C 242.815 -0.0693505 5.14253 0
M  V30 2592 N 240.797 0.475389 6.12057 0
M  V30 2593 C 242.168 0.671474 6.16353 0
M  V30 2594 C 244.223 0.00754393 4.97899 0
M  V30 2595 C 242.926 1.48197 7.03868 0
M  V30 2596 C 244.952 0.804845 5.85898 0
M  V30 2597 C 244.314 1.53388 6.87497 0
M  V30 2598 H 240.413 -0.280219 0.73007 0
M  V30 2599 H 242.997 -0.0924183 1.94481 0
M  V30 2600 H 241.168 -2.32724 3.10957 0
M  V30 2601 H 242.9 -2.27 3.35042 0
M  V30 2602 H 239.655 -0.747446 4.67665 0
M  V30 2603 H 240.079 0.907924 6.70884 0
M  V30 2604 H 244.721 -0.541741 4.19315 0
M  V30 2605 H 242.439 2.04242 7.81864 0
M  V30 2606 H 246.025 0.866642 5.75309 0
M  V30 2607 H 244.905 2.1409 7.5441 0
M  V30 2608 N 242.408 -1.52605 -0.393616 0
M  V30 2609 C 243.685 -1.58001 -1.15304 0
M  V30 2610 C 244.065 -0.370385 -2.07825 0
M  V30 2611 O 243.413 0.641638 -2.19306 0
M  V30 2612 C 243.623 -2.91652 -1.91677 0
M  V30 2613 C 244.971 -3.4522 -2.47201 0
M  V30 2614 O 245.995 -2.93495 -2.01839 0
M  V30 2615 O 244.854 -4.35579 -3.3005 0
M  V30 2616 H 241.948 -0.637068 -0.527327 0
M  V30 2617 H 244.494 -1.64939 -0.399141 0
M  V30 2618 H 243.266 -3.71136 -1.23992 0
M  V30 2619 H 242.889 -2.88077 -2.74039 0
M  V30 2620 N 243.887 0.651787 -1.4349 0
M  V30 2621 C 245.134 1.41167 -1.45183 0
M  V30 2622 C 245.462 1.94349 -0.0766601 0
M  V30 2623 O 244.717 1.72804 0.918555 0
M  V30 2624 C 245.016 2.60914 -2.44251 0
M  V30 2625 C 244.682 2.26142 -3.9009 0
M  V30 2626 C 243.344 2.16371 -4.2981 0
M  V30 2627 C 245.696 1.98334 -4.81989 0
M  V30 2628 C 243.024 1.7695 -5.5938 0
M  V30 2629 C 245.376 1.6041 -6.11924 0
M  V30 2630 C 244.04 1.49166 -6.5062 0
M  V30 2631 H 243.31 0.516566 -0.531263 0
M  V30 2632 H 245.957 0.741099 -1.76579 0
M  V30 2633 H 244.262 3.3311 -2.06265 0
M  V30 2634 H 245.959 3.19127 -2.42815 0
M  V30 2635 H 242.549 2.34658 -3.58655 0
M  V30 2636 H 246.733 2.04803 -4.52072 0
M  V30 2637 H 241.989 1.66831 -5.88198 0
M  V30 2638 H 246.163 1.37925 -6.82605 0
M  V30 2639 H 243.79 1.1839 -7.50925 0
M  V30 2640 N 245.365 1.30045 0.890287 0
M  V30 2641 C 246.611 1.19747 1.64415 0
M  V30 2642 C 246.966 -0.246591 1.90813 0
M  V30 2643 O 246.259 -1.174 1.51419 0
M  V30 2644 C 246.453 1.95409 2.99249 0
M  V30 2645 C 246.282 3.47025 2.86013 0
M  V30 2646 C 245.052 4.1638 2.86279 0
M  V30 2647 C 247.25 4.42353 2.62351 0
M  V30 2648 N 245.232 5.54293 2.63879 0
M  V30 2649 C 246.603 5.67792 2.49022 0
M  V30 2650 C 248.658 4.32009 2.47533 0
M  V30 2651 C 247.361 6.8406 2.22383 0
M  V30 2652 C 249.387 5.48038 2.22279 0
M  V30 2653 C 248.749 6.72455 2.09722 0
M  V30 2654 H 244.848 0.493223 0.60684 0
M  V30 2655 H 247.432 1.6399 1.04954 0
M  V30 2656 H 245.603 1.53565 3.56752 0
M  V30 2657 H 247.335 1.77298 3.63796 0
M  V30 2658 H 244.09 3.68164 2.97913 0
M  V30 2659 H 244.514 6.26852 2.55706 0
M  V30 2660 H 249.156 3.36503 2.55979 0
M  V30 2661 H 246.874 7.79612 2.12675 0
M  V30 2662 H 250.46 5.41939 2.11643 0
M  V30 2663 H 249.34 7.60722 1.90453 0
M  V30 2664 N 246.843 -1.10192 1.12674 0
M  V30 2665 C 248.068 -1.86523 0.906853 0
M  V30 2666 C 248.493 -1.80221 -0.538711 0
M  V30 2667 O 247.851 -1.17396 -1.38158 0
M  V30 2668 C 247.899 -3.32758 1.3894 0
M  V30 2669 O 247.003 -4.08449 0.5695 0
M  V30 2670 H 246.344 -0.578678 0.325619 0
M  V30 2671 H 248.874 -1.39203 1.49946 0
M  V30 2672 H 248.884 -3.83608 1.38958 0
M  V30 2673 H 247.559 -3.36661 2.44197 0
M  V30 2674 H 246.136 -3.67427 0.636528 0
M  V30 2675 N 248.321 -0.919034 -1.28029 0
M  V30 2676 C 249.269 -0.401753 -2.29104 0
M  V30 2677 C 250.263 0.509354 -1.61561 0
M  V30 2678 O 251.469 0.390014 -1.75724 0
M  V30 2679 H 247.844 -0.111331 -0.743713 0
M  V30 2680 H 249.815 -1.2672 -2.70156 0
M  V30 2681 C 248.564 0.338148 -3.46052 0
M  V30 2682 H 247.887 -0.353732 -3.98232 0
M  V30 2683 H 249.327 0.664653 -4.18758 0
M  V30 2684 C 247.786 1.54798 -2.99231 0
M  V30 2685 O 248.316 2.64696 -3.02157 0
M  V30 2686 N 246.522 1.3968 -2.54829 0
M  V30 2687 H 246.069 0.502698 -2.52647 0
M  V30 2688 H 246.027 2.20755 -2.23863 0
M  V30 2689 N 249.799 1.42003 -0.683588 0
M  V30 2690 C 251.045 2.01712 -0.209825 0
M  V30 2691 C 251.378 1.53968 1.18353 0
M  V30 2692 O 250.653 0.745661 1.79639 0
M  V30 2693 C 250.936 3.59202 -0.254197 0
M  V30 2694 C 250.789 4.17102 -1.68363 0
M  V30 2695 C 252.108 4.38344 0.392709 0
M  V30 2696 H 249.227 0.732891 -0.0777189 0
M  V30 2697 H 251.869 1.68909 -0.87004 0
M  V30 2698 H 250.019 3.87278 0.307954 0
M  V30 2699 H 251.691 3.99946 -2.29871 0
M  V30 2700 H 249.934 3.72597 -2.22157 0
M  V30 2701 H 250.605 5.26249 -1.6663 0
M  V30 2702 H 253.081 4.16011 -0.0859162 0
M  V30 2703 H 251.957 5.47901 0.331063 0
M  V30 2704 H 252.218 4.16887 1.47164 0
M  V30 2705 N 251.277 0.427512 1.51691 0
M  V30 2706 C 252.688 -0.0378867 1.86662 0
M  V30 2707 C 253.039 -1.42819 1.34525 0
M  V30 2708 O 252.164 -2.05037 0.692014 0
M  V30 2709 C 252.759 -0.0755266 3.38716 0
M  V30 2710 C 251.318 -0.485309 3.73258 0
M  V30 2711 C 250.465 0.328399 2.75349 0
M  V30 2712 H 253.416 0.64379 1.45055 0
M  V30 2713 H 253.437 -0.887056 3.70016 0
M  V30 2714 H 252.949 0.936487 3.76632 0
M  V30 2715 H 251.05 -1.50329 3.40928 0
M  V30 2716 H 251.163 -0.21693 4.78609 0
M  V30 2717 H 249.527 -0.211905 2.53817 0
M  V30 2718 H 250.31 1.3391 3.16106 0
M  V30 2719 N 252.755 -1.56801 0.158532 0
M  V30 2720 C 253.665 -2.20916 -0.789518 0
M  V30 2721 C 254.681 -1.1969 -1.26294 0
M  V30 2722 O 255.857 -1.52308 -1.31773 0
M  V30 2723 C 252.922 -2.82727 -2.00665 0
M  V30 2724 C 251.983 -3.99114 -1.58134 0
M  V30 2725 C 251.216 -4.57968 -2.74045 0
M  V30 2726 O 251.439 -4.15704 -3.90572 0
M  V30 2727 O 250.373 -5.48047 -2.48855 0
M  V30 2728 H 254.199 -3.02464 -0.273681 0
M  V30 2729 H 251.784 -1.4924 -0.0690548 0
M  V30 2730 H 253.666 -3.21968 -2.71872 0
M  V30 2731 H 252.341 -2.04184 -2.51179 0
M  V30 2732 H 251.248 -3.64567 -0.839155 0
M  V30 2733 H 252.581 -4.79212 -1.12325 0
M  V30 2734 N 254.233 0.115231 -1.57178 0
M  V30 2735 C 255.458 0.840354 -1.89612 0
M  V30 2736 C 255.883 1.72464 -0.750845 0
M  V30 2737 O 255.241 1.78826 0.298478 0
M  V30 2738 C 255.289 1.64654 -3.20814 0
M  V30 2739 O 254.393 2.7538 -3.06985 0
M  V30 2740 H 253.734 0.232158 -0.622092 0
M  V30 2741 H 256.264 0.0964977 -2.04372 0
M  V30 2742 H 256.274 2.03499 -3.53627 0
M  V30 2743 H 254.949 0.997416 -4.03763 0
M  V30 2744 H 253.526 2.3971 -2.85646 0
M  V30 2745 N 255.711 1.52812 0.385517 0
M  V30 2746 C 256.641 1.80808 1.47752 0
M  V30 2747 C 257.622 0.660318 1.5676 0
M  V30 2748 O 258.807 0.908246 1.71652 0
M  V30 2749 C 255.937 1.98008 2.85324 0
M  V30 2750 C 254.891 3.13709 2.91154 0
M  V30 2751 C 254.217 3.16169 4.31209 0
M  V30 2752 C 255.517 4.52709 2.60483 0
M  V30 2753 H 257.211 2.72253 1.24573 0
M  V30 2754 H 254.757 1.31003 0.597839 0
M  V30 2755 H 256.71 2.16176 3.61726 0
M  V30 2756 H 255.434 1.03255 3.09848 0
M  V30 2757 H 254.093 2.95329 2.17201 0
M  V30 2758 H 253.741 2.19092 4.52778 0
M  V30 2759 H 253.441 3.93894 4.36029 0
M  V30 2760 H 254.965 3.36496 5.09512 0
M  V30 2761 H 256.379 4.71173 3.26602 0
M  V30 2762 H 254.776 5.32528 2.76648 0
M  V30 2763 H 255.846 4.59186 1.55809 0
M  V30 2764 N 257.189 -0.644168 1.43834 0
M  V30 2765 C 258.419 -1.42939 1.49171 0
M  V30 2766 C 258.827 -1.88874 0.111048 0
M  V30 2767 O 258.17 -1.60656 -0.8908 0
M  V30 2768 C 258.232 -2.69151 2.38324 0
M  V30 2769 C 257.896 -2.45097 3.85715 0
M  V30 2770 C 258.893 -2.07747 4.76589 0
M  V30 2771 C 256.578 -2.59141 4.30292 0
M  V30 2772 C 258.572 -1.8475 6.10038 0
M  V30 2773 C 256.259 -2.35759 5.63792 0
M  V30 2774 C 257.257 -1.9862 6.53482 0
M  V30 2775 O 256.945 -1.75489 7.84512 0
M  V30 2776 H 256.677 -0.445271 0.508635 0
M  V30 2777 H 259.231 -0.79621 1.8934 0
M  V30 2778 H 257.461 -3.3506 1.93058 0
M  V30 2779 H 259.15 -3.31123 2.3476 0
M  V30 2780 H 259.916 -1.96465 4.43426 0
M  V30 2781 H 255.795 -2.87022 3.60749 0
M  V30 2782 H 259.339 -1.55686 6.80006 0
M  V30 2783 H 255.236 -2.46646 5.9652 0
M  V30 2784 H 256.004 -1.89841 7.9618 0
M  V30 2785 N 258.668 -1.30515 -0.883378 0
M  V30 2786 C 259.6 -1.12846 -1.99496 0
M  V30 2787 C 260.613 -0.0712571 -1.62644 0
M  V30 2788 O 261.802 -0.317432 -1.75655 0
M  V30 2789 C 258.902 -0.699123 -3.3161 0
M  V30 2790 C 258.075 -1.83842 -3.96889 0
M  V30 2791 C 257.134 -1.39737 -5.07307 0
M  V30 2792 O 256.16 -2.10485 -5.28852 0
M  V30 2793 N 257.362 -0.277279 -5.79837 0
M  V30 2794 H 260.127 -2.08585 -2.15203 0
M  V30 2795 H 257.688 -1.22672 -1.05656 0
M  V30 2796 H 259.68 -0.387044 -4.02845 0
M  V30 2797 H 258.25 0.166276 -3.12157 0
M  V30 2798 H 257.47 -2.31853 -3.18807 0
M  V30 2799 H 258.758 -2.60187 -4.37241 0
M  V30 2800 H 258.156 0.3122 -5.64838 0
M  V30 2801 H 256.713 -0.0246623 -6.51795 0
M  V30 2802 N 260.146 1.09593 -1.13257 0
M  V30 2803 C 261.392 1.82003 -0.89458 0
M  V30 2804 C 261.725 1.85402 0.577906 0
M  V30 2805 O 261 1.32099 1.42759 0
M  V30 2806 C 261.283 3.28237 -1.48096 0
M  V30 2807 C 261.136 3.3312 -3.02244 0
M  V30 2808 C 262.455 4.24871 -1.14774 0
M  V30 2809 H 259.574 0.66077 -0.326424 0
M  V30 2810 H 262.216 1.28389 -1.40058 0
M  V30 2811 H 260.366 3.74024 -1.05062 0
M  V30 2812 H 262.038 2.95748 -3.54021 0
M  V30 2813 H 260.281 2.72756 -3.37323 0
M  V30 2814 H 260.952 4.3613 -3.38371 0
M  V30 2815 H 263.428 3.87361 -1.51957 0
M  V30 2816 H 262.304 5.25532 -1.58452 0
M  V30 2817 H 262.565 4.42058 -0.0611849 0
M  V30 2818 N 261.624 0.925811 1.2754 0
M  V30 2819 C 262.852 0.581509 1.9856 0
M  V30 2820 C 263.267 -0.840041 1.69082 0
M  V30 2821 O 262.624 -1.55805 0.950312 0
M  V30 2822 C 262.675 0.795589 3.52637 0
M  V30 2823 O 262.396 2.16121 3.81082 0
M  V30 2824 C 263.897 0.459744 4.4091 0
M  V30 2825 H 261.117 0.220538 0.633722 0
M  V30 2826 H 263.661 1.24232 1.6244 0
M  V30 2827 H 261.816 0.18161 3.86974 0
M  V30 2828 H 262.23 2.2098 4.75676 0
M  V30 2829 H 263.704 0.660244 5.48037 0
M  V30 2830 H 264.181 -0.604625 4.35018 0
M  V30 2831 H 264.787 1.05178 4.12089 0
M  V30 2832 N 263.102 -1.41638 0.69111 0
M  V30 2833 C 264.348 -2.02104 0.229258 0
M  V30 2834 C 264.703 -1.53741 -1.15678 0
M  V30 2835 O 263.996 -0.736849 -1.76865 0
M  V30 2836 C 264.19 -3.56714 0.221277 0
M  V30 2837 C 264.019 -4.20083 1.605 0
M  V30 2838 C 262.789 -4.54566 2.20676 0
M  V30 2839 C 264.987 -4.46587 2.55078 0
M  V30 2840 N 262.969 -5.03199 3.5166 0
M  V30 2841 C 264.34 -4.96946 3.70735 0
M  V30 2842 C 266.395 -4.28593 2.53401 0
M  V30 2843 C 265.098 -5.31203 4.8499 0
M  V30 2844 C 267.124 -4.63936 3.66765 0
M  V30 2845 C 266.486 -5.14463 4.81152 0
M  V30 2846 H 262.585 -0.771256 0.12918 0
M  V30 2847 H 265.169 -1.72251 0.907626 0
M  V30 2848 H 263.34 -3.86051 -0.426562 0
M  V30 2849 H 265.072 -4.03896 -0.254983 0
M  V30 2850 H 261.827 -4.4087 1.73005 0
M  V30 2851 H 262.251 -5.31926 4.18789 0
M  V30 2852 H 266.893 -3.88771 1.66184 0
M  V30 2853 H 264.611 -5.69951 5.72871 0
M  V30 2854 H 268.197 -4.51677 3.66714 0
M  V30 2855 H 267.077 -5.41299 5.67419 0
M  V30 2856 N 264.58 -0.43555 -1.51462 0
M  V30 2857 C 265.826 0.131709 -2.02372 0
M  V30 2858 C 266.159 1.42516 -1.3192 0
M  V30 2859 O 265.434 1.89606 -0.433573 0
M  V30 2860 C 265.717 0.352301 -3.58373 0
M  V30 2861 C 265.57 -0.959676 -4.39443 0
M  V30 2862 C 266.889 1.12286 -4.25535 0
M  V30 2863 H 264.008 0.0463936 -0.735538 0
M  V30 2864 H 266.65 -0.574197 -1.81116 0
M  V30 2865 H 264.8 0.9536 -3.76615 0
M  V30 2866 H 266.472 -1.59482 -4.32855 0
M  V30 2867 H 264.715 -1.56468 -4.04599 0
M  V30 2868 H 265.386 -0.759394 -5.46752 0
M  V30 2869 H 267.862 0.613545 -4.11552 0
M  V30 2870 H 266.738 1.24598 -5.34571 0
M  V30 2871 H 266.999 2.15048 -3.86273 0
M  V30 2872 N 266.058 1.56714 -0.166846 0
M  V30 2873 C 266.991 2.13577 0.80375 0
M  V30 2874 C 267.969 1.06464 1.22899 0
M  V30 2875 O 269.153 1.34413 1.32157 0
M  V30 2876 C 266.28 2.67168 2.0818 0
M  V30 2877 C 265.326 3.86612 1.80093 0
M  V30 2878 S 266.159 5.26565 0.97416 0
M  V30 2879 C 267.315 5.83558 2.26297 0
M  V30 2880 H 267.548 2.9557 0.320267 0
M  V30 2881 H 265.081 1.54326 0.0477555 0
M  V30 2882 H 267.039 2.98692 2.8159 0
M  V30 2883 H 265.7 1.85269 2.53642 0
M  V30 2884 H 264.893 4.22422 2.7491 0
M  V30 2885 H 264.495 3.55951 1.14781 0
M  V30 2886 H 266.787 5.962 3.21795 0
M  V30 2887 H 267.73 6.80731 1.94962 0
M  V30 2888 H 268.138 5.11944 2.37853 0
M  V30 2889 N 267.536 -0.106894 1.57237 0
M  V30 2890 C 268.761 -0.830287 1.90055 0
M  V30 2891 C 269.186 -1.72064 0.75998 0
M  V30 2892 O 268.544 -1.78982 -0.288991 0
M  V30 2893 C 268.592 -1.6295 3.21683 0
M  V30 2894 O 267.696 -2.73748 3.08441 0
M  V30 2895 H 267.037 -0.228855 0.623315 0
M  V30 2896 H 269.567 -0.085658 2.04421 0
M  V30 2897 H 269.577 -2.01621 3.54701 0
M  V30 2898 H 268.252 -0.975989 4.04286 0
M  V30 2899 H 266.829 -2.38192 2.86913 0
M  V30 2900 N 269.014 -1.53014 -0.377408 0
M  V30 2901 C 270.291 -1.59215 -1.13622 0
M  V30 2902 C 270.671 -0.392407 -2.07421 0
M  V30 2903 O 270.019 0.618342 -2.19975 0
M  V30 2904 C 270.229 -2.93669 -1.88573 0
M  V30 2905 C 271.577 -3.47822 -2.43526 0
M  V30 2906 O 272.601 -2.9562 -1.98715 0
M  V30 2907 O 271.46 -4.39055 -3.25412 0
M  V30 2908 H 268.554 -0.642625 -0.52054 0
M  V30 2909 H 271.1 -1.65353 -0.381625 0
M  V30 2910 H 269.872 -3.7243 -1.20048 0
M  V30 2911 H 269.495 -2.90968 -2.70968 0
M  V30 2912 N 270.492 0.636531 -1.44174 0
M  V30 2913 C 271.908 0.954104 -1.27941 0
M  V30 2914 C 272.108 2.0039 -0.211248 0
M  V30 2915 O 271.164 2.49236 0.404695 0
M  V30 2916 C 272.477 1.4225 -2.64925 0
M  V30 2917 C 274.025 1.53827 -2.72592 0
M  V30 2918 C 274.5 2.04053 -4.10032 0
M  V30 2919 N 275.991 2.11331 -4.12182 0
M  V30 2920 C 276.726 2.51352 -5.15374 0
M  V30 2921 N 276.222 2.90549 -6.2893 0
M  V30 2922 N 278.015 2.51438 -5.02728 0
M  V30 2923 H 270.166 -0.0578386 -2.12321 0
M  V30 2924 H 272.429 0.0367406 -0.947288 0
M  V30 2925 H 272.135 0.725466 -3.44136 0
M  V30 2926 H 272.009 2.39451 -2.9145 0
M  V30 2927 H 274.396 2.22628 -1.93702 0
M  V30 2928 H 274.477 0.550154 -2.49814 0
M  V30 2929 H 274.121 1.35848 -4.89395 0
M  V30 2930 H 274.051 3.03726 -4.30184 0
M  V30 2931 H 276.542 1.83745 -3.30222 0
M  V30 2932 H 276.855 3.19884 -7.03487 0
M  V30 2933 H 275.2 2.88313 -6.32377 0
M  V30 2934 H 278.391 2.20203 -4.13072 0
M  V30 2935 H 278.564 2.82304 -5.83274 0
M  V30 2936 N 271.97 1.30982 0.876444 0
M  V30 2937 C 273.218 1.20058 1.62575 0
M  V30 2938 C 273.539 -0.242947 1.93481 0
M  V30 2939 O 272.809 -1.1619 1.57724 0
M  V30 2940 H 271.389 0.44135 0.602677 0
M  V30 2941 H 274.051 1.64222 1.04962 0
M  V30 2942 H 273.147 1.76762 2.57219 0
M  V30 2943 N 273.449 -1.08991 1.13837 0
M  V30 2944 C 274.698 -1.80631 0.897509 0
M  V30 2945 C 275.011 -1.86872 -0.57777 0
M  V30 2946 O 276.217 -2.54866 -0.935701 0
M  V30 2947 C 274.673 -3.24517 1.55618 0
M  V30 2948 C 274.281 -3.26529 3.0673 0
M  V30 2949 C 276.025 -4.00882 1.3962 0
M  V30 2950 C 273.932 -4.64965 3.65461 0
M  V30 2951 H 272.862 -0.67691 0.332129 0
M  V30 2952 H 275.513 -1.2246 1.3666 0
M  V30 2953 H 273.895 -3.82778 1.01476 0
M  V30 2954 H 275.069 -2.78008 3.67489 0
M  V30 2955 H 273.384 -2.63656 3.22296 0
M  V30 2956 H 275.981 -5.03167 1.80906 0
M  V30 2957 H 276.324 -4.14896 0.341578 0
M  V30 2958 H 276.857 -3.49075 1.90766 0
M  V30 2959 H 273.596 -4.56153 4.70749 0
M  V30 2960 H 273.116 -5.13792 3.09481 0
M  V30 2961 H 274.795 -5.3394 3.654 0
M  V30 2962 N 274.927 -0.932562 -1.27047 0
M  V30 2963 C 276.338 -0.619451 -1.76124 0
M  V30 2964 C 276.689 0.865397 -1.76083 0
M  V30 2965 O 275.814 1.67722 -1.36742 0
M  V30 2966 C 276.409 -1.11771 -3.19832 0
M  V30 2967 C 274.968 -0.855174 -3.66557 0
M  V30 2968 C 274.115 -1.27362 -2.46321 0
M  V30 2969 H 277.066 -1.11181 -1.13245 0
M  V30 2970 H 277.087 -0.46759 -3.77616 0
M  V30 2971 H 276.599 -2.19842 -3.1983 0
M  V30 2972 H 274.7 0.211524 -3.71999 0
M  V30 2973 H 274.813 -1.47613 -4.55793 0
M  V30 2974 H 273.177 -0.692119 -2.45116 0
M  V30 2975 H 273.96 -2.36307 -2.49025 0
M  V30 2976 N 276.405 1.4127 -0.698611 0
M  V30 2977 C 277.352 2.30773 -0.0352094 0
M  V30 2978 C 278.322 1.47273 0.768111 0
M  V30 2979 O 279.507 1.76053 0.735524 0
M  V30 2980 C 276.647 3.33346 0.893 0
M  V30 2981 C 275.76 4.31924 0.0809695 0
M  V30 2982 C 274.895 5.21566 1.0071 0
M  V30 2983 C 273.934 6.11811 0.188155 0
M  V30 2984 N 273.071 6.93926 1.06825 0
M  V30 2985 H 277.911 2.86943 -0.804207 0
M  V30 2986 H 275.448 1.4132 -0.408294 0
M  V30 2987 H 277.406 3.91368 1.44523 0
M  V30 2988 H 276.036 2.78719 1.62836 0
M  V30 2989 H 275.088 3.75825 -0.588224 0
M  V30 2990 H 276.4 4.95716 -0.553801 0
M  V30 2991 H 275.554 5.84437 1.62845 0
M  V30 2992 H 274.293 4.58008 1.67572 0
M  V30 2993 H 273.298 5.47986 -0.446254 0
M  V30 2994 H 274.523 6.77425 -0.476716 0
M  V30 2995 H 272.469 6.32973 1.72283 0
M  V30 2996 H 272.386 7.54416 0.489123 0
M  V30 2997 H 273.654 7.61262 1.67632 0
M  V30 2998 N 277.883 0.443576 1.51229 0
M  V30 2999 C 279.108 -0.121648 2.07043 0
M  V30 3000 C 279.533 -1.35156 1.30823 0
M  V30 3001 O 278.891 -1.7793 0.347934 0
M  V30 3002 C 278.939 -0.41624 3.5819 0
M  V30 3003 O 278.043 -1.50163 3.8409 0
M  V30 3004 H 277.384 0.000871367 0.663999 0
M  V30 3005 H 279.914 0.626706 1.94765 0
M  V30 3006 H 279.924 -0.664867 4.02546 0
M  V30 3007 H 278.599 0.482653 4.1309 0
M  V30 3008 H 277.176 -1.24248 3.51592 0
M  V30 3009 N 279.361 -1.56624 0.175154 0
M  V30 3010 C 280.608 -1.96999 -0.468811 0
M  V30 3011 C 280.936 -1.06129 -1.62994 0
M  V30 3012 O 280.191 -0.0961771 -1.95464 0
M  V30 3013 C 280.49 -3.43419 -0.989864 0
M  V30 3014 C 280.156 -4.50866 0.0557687 0
M  V30 3015 C 278.818 -4.79975 0.343134 0
M  V30 3016 C 281.17 -5.15551 0.765308 0
M  V30 3017 C 278.498 -5.71066 1.34536 0
M  V30 3018 C 280.85 -6.07724 1.75654 0
M  V30 3019 C 279.514 -6.35199 2.05132 0
M  V30 3020 H 278.784 -0.720869 -0.17155 0
M  V30 3021 H 281.431 -1.89616 0.267924 0
M  V30 3022 H 279.736 -3.47772 -1.80449 0
M  V30 3023 H 281.433 -3.72002 -1.49719 0
M  V30 3024 H 278.023 -4.28229 -0.178381 0
M  V30 3025 H 282.207 -4.9317 0.556513 0
M  V30 3026 H 277.463 -5.90635 1.57988 0
M  V30 3027 H 281.637 -6.56912 2.31169 0
M  V30 3028 H 279.264 -7.05584 2.8294 0
M  V30 3029 N 280.839 0.0985539 -1.57292 0
M  V30 3030 C 282.255 0.45267 -1.53046 0
M  V30 3031 C 282.455 1.80713 -0.891342 0
M  V30 3032 O 281.511 2.4785 -0.482375 0
M  V30 3033 C 282.824 0.418341 -2.97776 0
M  V30 3034 C 284.372 0.500443 -3.08973 0
M  V30 3035 C 284.847 0.496297 -4.55303 0
M  V30 3036 N 286.338 0.557151 -4.59837 0
M  V30 3037 C 287.073 0.575726 -5.70502 0
M  V30 3038 N 286.569 0.550714 -6.90608 0
M  V30 3039 N 288.362 0.620277 -5.58667 0
M  V30 3040 H 280.513 -0.788673 -1.97215 0
M  V30 3041 H 282.776 -0.293188 -0.901524 0
M  V30 3042 H 282.482 -0.509659 -3.47988 0
M  V30 3043 H 282.356 1.2386 -3.56284 0
M  V30 3044 H 284.743 1.41886 -2.58751 0
M  V30 3045 H 284.824 -0.347894 -2.53423 0
M  V30 3046 H 284.468 -0.418162 -5.06176 0
M  V30 3047 H 284.398 1.3618 -5.08687 0
M  V30 3048 H 286.889 0.581816 -3.73394 0
M  V30 3049 H 287.202 0.568075 -7.70709 0
M  V30 3050 H 285.547 0.517816 -6.93068 0
M  V30 3051 H 288.738 0.637322 -4.63741 0
M  V30 3052 H 288.911 0.631283 -6.44918 0
M  V30 3053 N 282.317 1.53212 0.369288 0
M  V30 3054 C 283.267 1.75769 1.45222 0
M  V30 3055 C 284.251 0.612136 1.48801 0
M  V30 3056 O 285.443 0.870674 1.54105 0
M  V30 3057 C 282.572 1.94769 2.82701 0
M  V30 3058 C 281.658 3.15315 2.83615 0
M  V30 3059 N 282.049 4.37295 2.54178 0
M  V30 3060 C 280.347 3.15962 3.14776 0
M  V30 3061 C 281.048 5.19015 2.62675 0
M  V30 3062 N 280.024 4.55142 2.97232 0
M  V30 3063 H 283.826 2.67691 1.2132 0
M  V30 3064 H 281.34 1.51787 0.577438 0
M  V30 3065 H 283.337 2.09056 3.60696 0
M  V30 3066 H 281.997 1.04073 3.07569 0
M  V30 3067 H 283.008 4.65091 2.27839 0
M  V30 3068 H 279.685 2.35144 3.44983 0
M  V30 3069 H 281.075 6.26305 2.43294 0
M  V30 3070 N 283.795 -0.628877 1.44509 0
M  V30 3071 C 284.728 -1.75367 1.46019 0
M  V30 3072 C 285.706 -1.59444 0.318787 0
M  V30 3073 O 286.89 -1.81297 0.516099 0
M  V30 3074 C 284.017 -3.12965 1.29501 0
M  V30 3075 C 283.063 -3.47532 2.47233 0
M  V30 3076 S 283.896 -3.44758 4.09758 0
M  V30 3077 C 285.052 -4.84973 3.95667 0
M  V30 3078 H 285.285 -1.7382 2.41193 0
M  V30 3079 H 282.818 -0.803686 1.31834 0
M  V30 3080 H 284.776 -3.92367 1.20658 0
M  V30 3081 H 283.437 -3.12049 0.358341 0
M  V30 3082 H 282.63 -4.47664 2.31544 0
M  V30 3083 H 282.232 -2.75598 2.52828 0
M  V30 3084 H 284.524 -5.74255 3.59496 0
M  V30 3085 H 285.467 -5.05716 4.95638 0
M  V30 3086 H 285.875 -4.59653 3.27688 0
M  V30 3087 N 285.273 -1.31445 -0.869486 0
M  V30 3088 C 286.55 -1.11795 -1.60503 0
M  V30 3089 C 286.93 0.327168 -2.08549 0
M  V30 3090 O 286.278 1.32135 -1.8642 0
M  V30 3091 C 286.488 -2.13258 -2.76265 0
M  V30 3092 C 287.836 -2.45805 -3.46215 0
M  V30 3093 O 288.86 -2.11688 -2.86473 0
M  V30 3094 O 287.719 -3.04228 -4.5399 0
M  V30 3095 H 284.813 -0.430421 -0.706163 0
M  V30 3096 H 287.359 -1.42925 -0.914907 0
M  V30 3097 H 286.131 -3.10461 -2.3818 0
M  V30 3098 H 285.754 -1.83035 -3.52964 0
M  V30 3099 N 286.751 1.08385 -1.14413 0
M  V30 3100 C 287.999 1.80419 -0.910679 0
M  V30 3101 C 288.32 1.86658 0.564243 0
M  V30 3102 O 287.59 1.35985 1.41014 0
M  V30 3103 H 286.17 0.668204 -0.333934 0
M  V30 3104 H 288.832 1.31037 -1.44275 0
M  V30 3105 H 287.928 2.83238 -1.31082 0
M  V30 3106 N 288.23 0.939286 1.26551 0
M  V30 3107 C 289.477 0.585847 1.9384 0
M  V30 3108 C 289.805 -0.874784 1.73718 0
M  V30 3109 O 289.06 -1.64092 1.06642 0
M  V30 3110 C 289.359 0.872106 3.46596 0
M  V30 3111 C 289.025 2.31632 3.86856 0
M  V30 3112 C 287.687 2.71111 3.97558 0
M  V30 3113 C 290.039 3.25494 4.07066 0
M  V30 3114 C 287.367 4.03553 4.25866 0
M  V30 3115 C 289.719 4.57531 4.36862 0
M  V30 3116 C 288.383 4.96828 4.45778 0
M  V30 3117 H 287.653 0.214377 0.709312 0
M  V30 3118 H 290.3 1.18544 1.50398 0
M  V30 3119 H 288.605 0.18996 3.91339 0
M  V30 3120 H 290.302 0.577442 3.96821 0
M  V30 3121 H 286.892 2.00008 3.79071 0
M  V30 3122 H 291.076 2.9619 3.98227 0
M  V30 3123 H 286.332 4.33665 4.30981 0
M  V30 3124 H 290.506 5.30254 4.51446 0
M  V30 3125 H 288.133 5.99482 4.67468 0
M  V30 3126 N 289.708 -1.40897 0.706093 0
M  V30 3127 C 290.956 -2.00657 0.241054 0
M  V30 3128 C 291.277 -1.56241 -1.16678 0
M  V30 3129 O 290.547 -0.79765 -1.78926 0
M  V30 3130 H 289.127 -0.742018 0.0861308 0
M  V30 3131 H 291.789 -1.72372 0.909604 0
M  V30 3132 H 290.885 -3.10958 0.266705 0
M  V30 3133 N 291.186 -0.45159 -1.50991 0
M  V30 3134 C 292.411 0.110667 -2.07105 0
M  V30 3135 C 292.836 1.3446 -1.31538 0
M  V30 3136 O 292.194 1.77743 -0.357365 0
M  V30 3137 C 292.242 0.397238 -3.58405 0
M  V30 3138 O 291.346 1.48124 -3.84881 0
M  V30 3139 H 290.687 -0.00439271 -0.663985 0
M  V30 3140 H 293.217 -0.637026 -1.9443 0
M  V30 3141 H 293.227 0.64351 -4.02893 0
M  V30 3142 H 291.902 -0.504553 -4.12828 0
M  V30 3143 H 290.479 1.22381 -3.52246 0
M  V30 3144 N 292.664 1.56529 -0.183458 0
M  V30 3145 C 293.614 2.1515 0.754605 0
M  V30 3146 C 294.598 1.08904 1.18443 0
M  V30 3147 O 295.79 1.34997 1.14476 0
M  V30 3148 C 292.919 2.80531 1.97881 0
M  V30 3149 C 292.005 3.93952 1.57043 0
M  V30 3150 N 292.396 4.98221 0.87231 0
M  V30 3151 C 290.694 4.05338 1.86057 0
M  V30 3152 C 291.395 5.77836 0.669377 0
M  V30 3153 N 290.371 5.29858 1.21454 0
M  V30 3154 H 294.173 2.93132 0.212387 0
M  V30 3155 H 291.687 1.62391 0.0167725 0
M  V30 3156 H 293.684 3.20914 2.6612 0
M  V30 3157 H 292.344 2.04035 2.52586 0
M  V30 3158 H 293.355 5.15191 0.529033 0
M  V30 3159 H 290.032 3.39957 2.42354 0
M  V30 3160 H 291.422 6.71799 0.116422 0
M  V30 3161 N 294.142 -0.090211 1.57342 0
M  V30 3162 C 295.37 -0.806224 1.90546 0
M  V30 3163 C 295.785 -1.72041 0.777644 0
M  V30 3164 O 295.142 -1.80778 -0.250103 0
M  V30 3165 C 295.193 -1.61546 3.23396 0
M  V30 3166 O 294.914 -0.738043 4.31839 0
M  V30 3167 C 296.415 -2.4341 3.70495 0
M  V30 3168 H 293.635 -0.230256 0.630257 0
M  V30 3169 H 296.179 -0.0659843 2.04394 0
M  V30 3170 H 294.334 -2.30816 3.11131 0
M  V30 3171 H 294.748 -1.29901 5.08159 0
M  V30 3172 H 296.222 -2.95676 4.66133 0
M  V30 3173 H 296.699 -3.22098 2.98579 0
M  V30 3174 H 297.305 -1.79331 3.85643 0
M  V30 3175 N 295.62 -1.53406 -0.361157 0
M  V30 3176 C 296.867 -1.69802 -1.10333 0
M  V30 3177 C 297.195 -0.452087 -1.89173 0
M  V30 3178 O 296.45 0.566017 -1.87336 0
M  V30 3179 C 296.749 -2.90211 -2.08596 0
M  V30 3180 C 296.415 -4.26539 -1.46203 0
M  V30 3181 C 295.077 -4.6361 -1.28915 0
M  V30 3182 C 297.429 -5.113 -1.01101 0
M  V30 3183 C 294.757 -5.83075 -0.651157 0
M  V30 3184 C 297.109 -6.31415 -0.387007 0
M  V30 3185 C 295.773 -6.67195 -0.201657 0
M  V30 3186 H 295.043 -0.621351 -0.403737 0
M  V30 3187 H 297.69 -1.87598 -0.384609 0
M  V30 3188 H 295.995 -2.66946 -2.86788 0
M  V30 3189 H 297.692 -3.00091 -2.65982 0
M  V30 3190 H 294.282 -3.97352 -1.60653 0
M  V30 3191 H 298.466 -4.83206 -1.13249 0
M  V30 3192 H 293.722 -6.09385 -0.496006 0
M  V30 3193 H 297.896 -6.96394 -0.0293563 0
M  V30 3194 H 295.523 -7.59628 0.294766 0
M  V30 3195 N 297.098 0.621204 -1.44841 0
M  V30 3196 C 298.323 1.41244 -1.51871 0
M  V30 3197 C 298.748 1.87519 -0.147764 0
M  V30 3198 O 298.106 1.59334 0.865 0
M  V30 3199 C 298.154 2.60221 -2.49634 0
M  V30 3200 O 297.258 3.60395 -2.00473 0
M  V30 3201 H 296.599 0.42223 -0.512463 0
M  V30 3202 H 299.129 0.757305 -1.90069 0
M  V30 3203 H 299.139 3.0764 -2.67996 0
M  V30 3204 H 297.814 2.25887 -3.4921 0
M  V30 3205 H 296.391 3.19717 -1.91925 0
M  V30 3206 N 298.576 1.31904 0.862503 0
M  V30 3207 C 299.506 1.22782 1.98612 0
M  V30 3208 C 300.487 0.113362 1.69722 0
M  V30 3209 O 301.672 0.299218 1.91881 0
M  V30 3210 C 298.802 0.942058 3.34279 0
M  V30 3211 C 297.756 2.0169 3.77499 0
M  V30 3212 C 297.082 1.58369 5.10709 0
M  V30 3213 C 298.382 3.43096 3.93805 0
M  V30 3214 H 300.076 2.16788 2.06502 0
M  V30 3215 H 297.622 1.04366 0.992154 0
M  V30 3216 H 299.575 0.864818 4.1243 0
M  V30 3217 H 298.299 -0.0336603 3.26583 0
M  V30 3218 H 296.958 2.08416 3.01593 0
M  V30 3219 H 296.606 0.595628 4.99461 0
M  V30 3220 H 296.306 2.30279 5.40597 0
M  V30 3221 H 297.83 1.52067 5.91361 0
M  V30 3222 H 299.244 3.39003 4.62331 0
M  V30 3223 H 297.641 4.13288 4.35101 0
M  V30 3224 H 298.711 3.83334 2.96957 0
M  V30 3225 N 300.054 -1.07777 1.14986 0
M  V30 3226 C 301.303 -1.79669 0.916617 0
M  V30 3227 C 301.616 -1.87474 -0.557917 0
M  V30 3228 O 302.822 -2.55845 -0.908617 0
M  V30 3229 C 301.278 -3.22848 1.59051 0
M  V30 3230 C 300.886 -3.23257 3.10176 0
M  V30 3231 C 302.63 -3.99379 1.43864 0
M  V30 3232 C 300.537 -4.61063 3.70372 0
M  V30 3233 H 299.467 -0.673349 0.33929 0
M  V30 3234 H 302.118 -1.21003 1.37951 0
M  V30 3235 H 300.5 -3.8168 1.0553 0
M  V30 3236 H 301.674 -2.74095 3.70417 0
M  V30 3237 H 299.989 -2.60222 3.25074 0
M  V30 3238 H 302.586 -5.0122 1.86232 0
M  V30 3239 H 302.929 -4.14511 0.385564 0
M  V30 3240 H 303.462 -3.47032 1.94457 0
M  V30 3241 H 300.201 -4.51135 4.7556 0
M  V30 3242 H 299.721 -5.1048 3.14913 0
M  V30 3243 H 301.4 -5.30034 3.71043 0
M  V30 3244 N 301.532 -0.945985 -1.26051 0
M  V30 3245 C 302.48 -0.450259 -2.282 0
M  V30 3246 C 303.474 0.47497 -1.62605 0
M  V30 3247 O 304.68 0.352653 -1.76512 0
M  V30 3248 H 301.055 -0.127081 -0.741184 0
M  V30 3249 H 303.026 -1.32422 -2.67408 0
M  V30 3250 C 301.775 0.26467 -3.46691 0
M  V30 3251 H 301.098 -0.438123 -3.97392 0
M  V30 3252 H 302.538 0.575678 -4.20074 0
M  V30 3253 C 300.997 1.48416 -3.02447 0
M  V30 3254 O 301.527 2.58227 -3.07704 0
M  V30 3255 N 299.733 1.34243 -2.57735 0
M  V30 3256 H 299.28 0.448994 -2.53657 0
M  V30 3257 H 299.238 2.15957 -2.28495 0
M  V30 3258 N 303.011 1.40521 -0.713556 0
M  V30 3259 C 303.974 2.29098 -0.0684347 0
M  V30 3260 C 304.974 1.45268 0.689472 0
M  V30 3261 O 306.164 1.66205 0.521677 0
M  V30 3262 C 303.296 3.28446 0.913024 0
M  V30 3263 H 304.489 2.87645 -0.84855 0
M  V30 3264 H 302.042 1.48809 -0.47809 0
M  V30 3265 H 302.777 2.74913 1.72027 0
M  V30 3266 H 302.562 3.90327 0.372472 0
M  V30 3267 H 304.052 3.94777 1.36165 0
M  V30 3268 N 304.489 0.459591 1.5075 0
M  V30 3269 C 305.436 -0.340524 2.28274 0
M  V30 3270 C 306.406 -0.997371 1.32822 0
M  V30 3271 O 307.591 -1.01202 1.61749 0
M  V30 3272 C 304.731 -1.42317 3.14388 0
M  V30 3273 C 303.844 -0.782251 4.24859 0
M  V30 3274 C 302.979 -1.84182 4.98247 0
M  V30 3275 C 302.018 -1.18053 6.00608 0
M  V30 3276 N 301.155 -2.18244 6.67319 0
M  V30 3277 H 305.995 0.326899 2.96202 0
M  V30 3278 H 303.532 0.173057 1.46078 0
M  V30 3279 H 305.49 -2.06241 3.62658 0
M  V30 3280 H 304.12 -2.05992 2.4853 0
M  V30 3281 H 303.172 -0.0307404 3.80388 0
M  V30 3282 H 304.484 -0.259663 4.98124 0
M  V30 3283 H 303.638 -2.55714 5.50177 0
M  V30 3284 H 302.377 -2.39819 4.24662 0
M  V30 3285 H 301.382 -0.450776 5.47949 0
M  V30 3286 H 302.607 -0.631202 6.7616 0
M  V30 3287 H 300.553 -2.72919 5.96533 0
M  V30 3288 H 300.47 -1.70938 7.36421 0
M  V30 3289 H 301.738 -2.89191 7.23871 0
M  V30 3290 N 305.967 -1.56429 0.191757 0
M  V30 3291 C 307.215 -1.97095 -0.447006 0
M  V30 3292 C 307.536 -1.07967 -1.62383 0
M  V30 3293 O 306.806 -0.150248 -1.95323 0
M  V30 3294 H 305.386 -0.727832 -0.168135 0
M  V30 3295 H 308.048 -1.92911 0.27771 0
M  V30 3296 H 307.144 -3.01848 -0.793371 0
M  V30 3297 N 307.445 0.0818655 -1.57387 0
M  V30 3298 C 308.355 1.11642 -2.06333 0
M  V30 3299 C 309.371 1.43033 -0.99083 0
M  V30 3300 O 310.547 1.53411 -1.30488 0
M  V30 3301 C 307.612 2.41342 -2.48907 0
M  V30 3302 C 306.673 2.17014 -3.7041 0
M  V30 3303 C 305.906 3.4053 -4.10944 0
M  V30 3304 O 306.129 4.4927 -3.51444 0
M  V30 3305 O 305.063 3.29336 -5.03807 0
M  V30 3306 H 308.889 0.730657 -2.9478 0
M  V30 3307 H 306.474 0.295301 -1.46452 0
M  V30 3308 H 308.356 3.17691 -2.76858 0
M  V30 3309 H 307.031 2.79319 -1.63593 0
M  V30 3310 H 305.938 1.38403 -3.47556 0
M  V30 3311 H 307.271 1.83923 -4.56545 0
M  V30 3312 N 308.923 1.53595 0.353017 0
M  V30 3313 C 310.339 1.43648 0.695516 0
M  V30 3314 C 310.539 0.585617 1.92802 0
M  V30 3315 O 309.595 0.0729223 2.52395 0
M  V30 3316 C 310.908 2.8701 0.896991 0
M  V30 3317 C 312.456 2.96723 0.996209 0
M  V30 3318 C 312.931 4.41173 1.23007 0
M  V30 3319 N 314.422 4.44657 1.29749 0
M  V30 3320 C 315.157 5.53547 1.49577 0
M  V30 3321 N 314.653 6.72461 1.66639 0
M  V30 3322 N 316.446 5.41145 1.52048 0
M  V30 3323 H 308.597 2.07415 -0.457481 0
M  V30 3324 H 310.86 0.9372 -0.142687 0
M  V30 3325 H 310.566 3.51644 0.0629938 0
M  V30 3326 H 310.44 3.31401 1.80148 0
M  V30 3327 H 312.827 2.32235 1.82074 0
M  V30 3328 H 312.908 2.55707 0.0688331 0
M  V30 3329 H 312.552 5.06238 0.410505 0
M  V30 3330 H 312.482 4.79772 2.17086 0
M  V30 3331 H 314.973 3.58963 1.18126 0
M  V30 3332 H 315.286 7.51214 1.81378 0
M  V30 3333 H 313.631 6.75423 1.63794 0
M  V30 3334 H 316.822 4.47205 1.38294 0
M  V30 3335 H 316.995 6.26068 1.67159 0
M  V30 3336 N 310.401 -0.613514 1.45168 0
M  V30 3337 C 311.648 -1.37268 1.48875 0
M  V30 3338 C 311.976 -1.94077 0.128161 0
M  V30 3339 O 311.231 -1.75178 -0.872416 0
M  V30 3340 C 311.53 -2.54347 2.51083 0
M  V30 3341 C 311.196 -2.1572 3.95949 0
M  V30 3342 C 309.858 -2.04899 4.35396 0
M  V30 3343 C 312.21 -1.85485 4.87078 0
M  V30 3344 C 309.538 -1.62057 5.63875 0
M  V30 3345 C 311.89 -1.4413 6.15962 0
M  V30 3346 C 310.554 -1.31863 6.54346 0
M  V30 3347 H 309.824 -0.502299 0.544773 0
M  V30 3348 H 312.471 -0.694021 1.78481 0
M  V30 3349 H 310.776 -3.27524 2.15024 0
M  V30 3350 H 312.473 -3.12577 2.51191 0
M  V30 3351 H 309.063 -2.25066 3.64751 0
M  V30 3352 H 313.247 -1.92745 4.57343 0
M  V30 3353 H 308.503 -1.51177 5.92415 0
M  V30 3354 H 312.677 -1.19778 6.86022 0
M  V30 3355 H 310.304 -0.984392 7.538 0
M  V30 3356 N 311.879 -1.3236 -0.855495 0
M  V30 3357 C 313.125 -1.24064 -1.61182 0
M  V30 3358 C 313.48 0.195914 -1.914 0
M  V30 3359 O 312.773 1.13345 -1.54478 0
M  V30 3360 C 312.967 -2.03275 -2.93963 0
M  V30 3361 C 312.796 -3.54486 -2.76712 0
M  V30 3362 C 311.566 -4.23824 -2.75139 0
M  V30 3363 C 313.764 -4.49154 -2.50531 0
M  V30 3364 N 311.746 -5.61095 -2.4909 0
M  V30 3365 C 313.117 -5.74195 -2.3388 0
M  V30 3366 C 315.172 -4.3842 -2.35992 0
M  V30 3367 C 313.875 -6.89716 -2.04168 0
M  V30 3368 C 315.901 -5.53739 -2.0767 0
M  V30 3369 C 315.263 -6.77779 -1.9182 0
M  V30 3370 H 311.362 -0.509139 -0.59355 0
M  V30 3371 H 313.946 -1.66715 -1.00569 0
M  V30 3372 H 312.117 -1.6297 -3.52555 0
M  V30 3373 H 313.849 -1.86881 -3.58967 0
M  V30 3374 H 310.604 -3.75934 -2.88047 0
M  V30 3375 H 311.028 -6.33411 -2.38996 0
M  V30 3376 H 315.67 -3.43172 -2.46967 0
M  V30 3377 H 313.388 -7.84977 -1.9193 0
M  V30 3378 H 316.974 -5.4736 -1.97201 0
M  V30 3379 H 315.854 -7.65504 -1.70217 0
M  V30 3380 N 313.357 1.07166 -1.15556 0
M  V30 3381 C 314.603 1.80065 -0.932984 0
M  V30 3382 C 314.936 1.86586 0.53845 0
M  V30 3383 O 314.211 1.35098 1.39924 0
M  V30 3384 C 314.494 3.25022 -1.55025 0
M  V30 3385 C 314.347 3.26634 -3.09242 0
M  V30 3386 C 315.666 4.22341 -1.2376 0
M  V30 3387 H 312.785 0.653697 -0.340366 0
M  V30 3388 H 315.427 1.25389 -1.4275 0
M  V30 3389 H 313.577 3.71712 -1.12972 0
M  V30 3390 H 315.249 2.88173 -3.60214 0
M  V30 3391 H 313.492 2.65539 -3.43033 0
M  V30 3392 H 314.163 4.28854 -3.47546 0
M  V30 3393 H 316.639 3.8405 -1.60139 0
M  V30 3394 H 315.515 5.22053 -1.69564 0
M  V30 3395 H 315.776 4.41828 -0.154938 0
M  V30 3396 N 314.835 0.952656 1.25548 0
M  V30 3397 C 315.782 0.47008 2.25962 0
M  V30 3398 C 316.752 -0.476384 1.59122 0
M  V30 3399 O 317.937 -0.39007 1.8677 0
M  V30 3400 C 315.077 -0.247881 3.44209 0
M  V30 3401 C 314.19 0.735591 4.25691 0
M  V30 3402 C 313.325 -0.0047306 5.312 0
M  V30 3403 C 312.364 0.969805 6.04368 0
M  V30 3404 N 311.501 0.260486 7.01617 0
M  V30 3405 H 316.341 1.33126 2.66611 0
M  V30 3406 H 313.878 0.66765 1.31076 0
M  V30 3407 H 315.836 -0.680695 4.1161 0
M  V30 3408 H 314.466 -1.07312 3.0444 0
M  V30 3409 H 313.518 1.28689 3.57971 0
M  V30 3410 H 314.83 1.47934 4.76358 0
M  V30 3411 H 313.984 -0.496275 6.04667 0
M  V30 3412 H 312.723 -0.781282 4.81401 0
M  V30 3413 H 311.728 1.47237 5.29718 0
M  V30 3414 H 312.953 1.74655 6.56256 0
M  V30 3415 H 310.899 -0.497364 6.54112 0
M  V30 3416 H 310.816 0.943362 7.50091 0
M  V30 3417 H 312.084 -0.209587 7.79218 0
M  V30 3418 N 316.313 -1.40141 0.720998 0
M  V30 3419 C 317.56 -2.00787 0.262842 0
M  V30 3420 C 317.888 -1.5718 -1.14563 0
M  V30 3421 O 317.143 -0.785391 -1.79249 0
M  V30 3422 C 317.442 -3.56165 0.296892 0
M  V30 3423 C 317.108 -4.19373 1.65641 0
M  V30 3424 C 315.77 -4.36352 2.02855 0
M  V30 3425 C 318.122 -4.54578 2.54968 0
M  V30 3426 C 315.45 -4.8582 3.28931 0
M  V30 3427 C 317.802 -5.05447 3.80402 0
M  V30 3428 C 316.466 -5.20635 4.17726 0
M  V30 3429 H 315.736 -0.734731 0.0961807 0
M  V30 3430 H 318.383 -1.67673 0.925093 0
M  V30 3431 H 316.688 -3.8922 -0.448932 0
M  V30 3432 H 318.385 -4.00929 -0.0755208 0
M  V30 3433 H 314.975 -4.06549 1.35704 0
M  V30 3434 H 319.159 -4.41091 2.27491 0
M  V30 3435 H 314.415 -4.95764 3.57811 0
M  V30 3436 H 318.589 -5.31663 4.49786 0
M  V30 3437 H 316.216 -5.58728 5.15487 0
M  V30 3438 N 317.792 -0.46758 -1.50504 0
M  V30 3439 C 318.742 0.34698 -2.25344 0
M  V30 3440 C 319.726 0.964469 -1.2879 0
M  V30 3441 O 320.918 0.8776 -1.53711 0
M  V30 3442 C 318.047 1.43042 -3.1208 0
M  V30 3443 C 317.133 0.82084 -4.16081 0
M  V30 3444 N 317.524 -0.0567602 -5.05768 0
M  V30 3445 C 315.822 1.08517 -4.32597 0
M  V30 3446 C 316.523 -0.402343 -5.80307 0
M  V30 3447 N 315.499 0.221607 -5.43148 0
M  V30 3448 H 319.301 -0.329129 -2.92051 0
M  V30 3449 H 316.815 -0.281508 -1.59942 0
M  V30 3450 H 318.812 2.02712 -3.64299 0
M  V30 3451 H 317.472 2.10856 -2.46921 0
M  V30 3452 H 318.483 -0.425349 -5.1615 0
M  V30 3453 H 315.16 1.75855 -3.78657 0
M  V30 3454 H 316.55 -1.11834 -6.62528 0
M  V30 3455 N 319.27 1.56325 -0.20005 0
M  V30 3456 C 320.517 1.97719 0.437411 0
M  V30 3457 C 320.845 1.08709 1.61284 0
M  V30 3458 O 320.1 0.127261 1.95286 0
M  V30 3459 C 320.399 3.4495 0.935103 0
M  V30 3460 C 320.065 4.5072 -0.12749 0
M  V30 3461 C 318.727 4.79368 -0.419451 0
M  V30 3462 C 321.079 5.14268 -0.847231 0
M  V30 3463 C 318.407 5.68854 -1.43604 0
M  V30 3464 C 320.759 6.04852 -1.85301 0
M  V30 3465 C 319.423 6.31855 -2.15211 0
M  V30 3466 H 318.693 0.723507 0.16006 0
M  V30 3467 H 321.34 1.89166 -0.298056 0
M  V30 3468 H 319.645 3.50599 1.74894 0
M  V30 3469 H 321.342 3.74337 1.43781 0
M  V30 3470 H 317.932 4.28458 0.11023 0
M  V30 3471 H 322.116 4.92222 -0.634901 0
M  V30 3472 H 317.372 5.88047 -1.67364 0
M  V30 3473 H 321.546 6.53152 -2.41591 0
M  V30 3474 H 319.173 7.00994 -2.94129 0
M  V30 3475 N 320.748 -0.0735177 1.57428 0
M  V30 3476 C 321.698 -1.09442 2.00016 0
M  V30 3477 C 322.682 -1.34575 0.881947 0
M  V30 3478 O 323.874 -1.34905 1.14585 0
M  V30 3479 C 321.003 -2.40865 2.4462 0
M  V30 3480 C 320.089 -2.19014 3.63172 0
M  V30 3481 N 320.48 -1.67087 4.77405 0
M  V30 3482 C 318.778 -2.49494 3.69688 0
M  V30 3483 C 319.479 -1.6001 5.5926 0
M  V30 3484 N 318.455 -2.05999 5.03056 0
M  V30 3485 H 322.257 -0.686227 2.85776 0
M  V30 3486 H 319.771 -0.280617 1.59957 0
M  V30 3487 H 321.768 -3.14763 2.73368 0
M  V30 3488 H 320.428 -2.82403 1.60246 0
M  V30 3489 H 321.439 -1.35975 4.99731 0
M  V30 3490 H 318.116 -2.94409 2.96023 0
M  V30 3491 H 319.506 -1.2073 6.60964 0
M  V30 3492 N 322.226 -1.5378 -0.344866 0
M  V30 3493 C 323.454 -1.74899 -1.10534 0
M  V30 3494 C 323.869 -0.487534 -1.82397 0
M  V30 3495 O 323.226 0.540741 -1.74305 0
M  V30 3496 C 323.277 -2.92822 -2.11984 0
M  V30 3497 O 322.998 -4.14089 -1.43044 0
M  V30 3498 C 324.499 -3.25982 -3.00417 0
M  V30 3499 H 321.719 -0.584426 -0.329678 0
M  V30 3500 H 324.263 -2.006 -0.397474 0
M  V30 3501 H 322.418 -2.69457 -2.78338 0
M  V30 3502 H 322.832 -4.80272 -2.10805 0
M  V30 3503 H 324.306 -4.11848 -3.67539 0
M  V30 3504 H 324.783 -2.42228 -3.66363 0
M  V30 3505 H 325.389 -3.51349 -2.39654 0
M  V30 3506 N 323.704 0.605807 -1.45491 0
M  V30 3507 C 324.637 1.73022 -1.48791 0
M  V30 3508 C 325.615 1.58917 -0.344112 0
M  V30 3509 O 326.799 1.80453 -0.544876 0
M  V30 3510 C 323.926 3.10865 -1.34463 0
M  V30 3511 C 322.972 3.43554 -2.5273 0
M  V30 3512 S 323.805 3.38196 -4.15191 0
M  V30 3513 C 324.961 4.78616 -4.03333 0
M  V30 3514 H 325.194 1.69961 -2.43928 0
M  V30 3515 H 322.727 0.782611 -1.33096 0
M  V30 3516 H 324.685 3.90398 -1.26884 0
M  V30 3517 H 323.346 3.1144 -0.40794 0
M  V30 3518 H 322.539 4.43924 -2.38637 0
M  V30 3519 H 322.141 2.71541 -2.5718 0
M  V30 3520 H 324.433 5.68463 -3.68587 0
M  V30 3521 H 325.376 4.97767 -5.03621 0
M  V30 3522 H 325.784 4.54381 -3.34959 0
M  V30 3523 N 325.182 1.32811 0.848464 0
M  V30 3524 C 326.114 1.18095 1.96433 0
M  V30 3525 C 327.127 0.114354 1.62398 0
M  V30 3526 O 328.316 0.363892 1.74751 0
M  V30 3527 C 325.416 0.786798 3.2964 0
M  V30 3528 C 324.589 1.943 3.91875 0
M  V30 3529 C 323.648 1.53138 5.03423 0
M  V30 3530 O 322.674 2.24432 5.23086 0
M  V30 3531 N 323.876 0.430915 5.78898 0
M  V30 3532 H 326.641 2.14218 2.09597 0
M  V30 3533 H 324.202 1.2543 1.02367 0
M  V30 3534 H 326.194 0.493715 4.01677 0
M  V30 3535 H 324.764 -0.0834541 3.12489 0
M  V30 3536 H 323.984 2.40224 3.12547 0
M  V30 3537 H 325.272 2.71689 4.30189 0
M  V30 3538 H 324.67 -0.162333 5.65467 0
M  V30 3539 H 323.227 0.197466 6.51501 0
M  V30 3540 N 326.66 -1.06551 1.16123 0
M  V30 3541 C 327.908 -1.78947 0.939267 0
M  V30 3542 C 328.229 -1.87532 -0.534476 0
M  V30 3543 O 327.499 -1.38211 -1.38833 0
M  V30 3544 H 326.079 -0.662807 0.344523 0
M  V30 3545 H 328.741 -1.28725 1.46342 0
M  V30 3546 H 327.837 -2.81117 1.35572 0
M  V30 3547 N 328.138 -0.959301 -1.25041 0
M  V30 3548 C 329.384 -0.617525 -1.9317 0
M  V30 3549 C 329.717 0.843981 -1.74902 0
M  V30 3550 O 328.992 1.60615 -1.09696 0
M  V30 3551 C 329.275 -0.982736 -3.46431 0
M  V30 3552 C 329.128 -2.50032 -3.73904 0
M  V30 3553 C 330.447 -0.511176 -4.37121 0
M  V30 3554 H 327.566 -0.22582 -0.701552 0
M  V30 3555 H 330.208 -1.19679 -1.4757 0
M  V30 3556 H 328.358 -0.489806 -3.854 0
M  V30 3557 H 330.03 -3.06737 -3.44544 0
M  V30 3558 H 328.273 -2.93598 -3.19348 0
M  V30 3559 H 328.944 -2.70635 -4.81103 0
M  V30 3560 H 331.42 -0.934075 -4.0548 0
M  V30 3561 H 330.296 -0.795361 -5.43107 0
M  V30 3562 H 330.557 0.588834 -4.38161 0
M  V30 3563 N 329.616 1.39756 -0.72842 0
M  V30 3564 C 330.563 2.30647 -0.0841519 0
M  V30 3565 C 331.533 1.48869 0.7367 0
M  V30 3566 O 332.718 1.77574 0.698015 0
M  V30 3567 C 329.858 3.35165 0.822091 0
M  V30 3568 C 328.971 4.31999 -0.0106663 0
M  V30 3569 C 328.106 5.23585 0.896241 0
M  V30 3570 C 327.145 6.12072 0.0583381 0
M  V30 3571 N 326.282 6.96035 0.920818 0
M  V30 3572 H 331.122 2.85173 -0.864891 0
M  V30 3573 H 328.659 1.40422 -0.438179 0
M  V30 3574 H 330.617 3.94345 1.36189 0
M  V30 3575 H 329.247 2.8211 1.56888 0
M  V30 3576 H 328.299 3.74492 -0.66781 0
M  V30 3577 H 329.611 4.9443 -0.658825 0
M  V30 3578 H 328.765 5.87759 1.50412 0
M  V30 3579 H 327.504 4.61459 1.57819 0
M  V30 3580 H 326.509 5.46916 -0.562389 0
M  V30 3581 H 327.734 6.76261 -0.6203 0
M  V30 3582 H 325.68 6.36485 1.58818 0
M  V30 3583 H 325.597 7.55284 0.32899 0
M  V30 3584 H 326.865 7.64646 1.51447 0
M  V30 3585 N 331.094 0.475555 1.50254 0
M  V30 3586 C 332.044 -0.335025 2.25525 0
M  V30 3587 C 333.028 -0.957625 1.29299 0
M  V30 3588 O 334.22 -0.869436 1.54175 0
M  V30 3589 C 331.349 -1.41385 3.12834 0
M  V30 3590 C 330.435 -0.798762 4.1651 0
M  V30 3591 N 330.826 0.0835815 5.05731 0
M  V30 3592 C 329.124 -1.06221 4.33166 0
M  V30 3593 C 329.825 0.433113 5.80085 0
M  V30 3594 N 328.801 -0.1928 5.43258 0
M  V30 3595 H 332.603 0.344612 2.91873 0
M  V30 3596 H 330.117 0.289986 1.5979 0
M  V30 3597 H 332.114 -2.00777 3.65368 0
M  V30 3598 H 330.774 -2.09543 2.48036 0
M  V30 3599 H 331.785 0.452715 5.15918 0
M  V30 3600 H 328.462 -1.73844 3.79585 0
M  V30 3601 H 329.852 1.15346 6.61925 0
M  V30 3602 N 332.573 -1.56217 0.208337 0
M  V30 3603 C 333.503 -2.22694 -0.702116 0
M  V30 3604 C 334.484 -1.19432 -1.2112 0
M  V30 3605 O 335.669 -1.47978 -1.25762 0
M  V30 3606 C 332.799 -2.8966 -1.9161 0
M  V30 3607 C 331.753 -3.9928 -1.5414 0
M  V30 3608 C 331.079 -4.53476 -2.83308 0
M  V30 3609 C 332.379 -5.17012 -0.741339 0
M  V30 3610 H 334.073 -2.99034 -0.147898 0
M  V30 3611 H 331.619 -1.43831 -0.0696951 0
M  V30 3612 H 333.572 -3.34852 -2.55836 0
M  V30 3613 H 332.296 -2.10746 -2.49507 0
M  V30 3614 H 330.955 -3.54799 -0.922668 0
M  V30 3615 H 330.603 -3.71308 -3.39322 0
M  V30 3616 H 330.303 -5.27451 -2.58976 0
M  V30 3617 H 331.827 -5.01378 -3.485 0
M  V30 3618 H 333.241 -5.58667 -1.28699 0
M  V30 3619 H 331.638 -5.97137 -0.595627 0
M  V30 3620 H 332.708 -4.8423 0.254851 0
M  V30 3621 N 334.051 0.0651679 -1.57465 0
M  V30 3622 C 335.279 0.775808 -1.91804 0
M  V30 3623 C 335.694 1.70782 -0.804916 0
M  V30 3624 O 335.051 1.81153 0.221311 0
M  V30 3625 C 335.102 1.56381 -3.25925 0
M  V30 3626 O 334.823 0.669248 -4.32958 0
M  V30 3627 C 336.324 2.37485 -3.7432 0
M  V30 3628 H 333.544 0.2202 -0.63384 0
M  V30 3629 H 336.088 0.0334587 -2.04473 0
M  V30 3630 H 334.243 2.25837 -3.14764 0
M  V30 3631 H 334.657 1.21801 -5.10162 0
M  V30 3632 H 336.131 2.88223 -4.70778 0
M  V30 3633 H 336.608 3.17307 -3.03666 0
M  V30 3634 H 337.214 1.73173 -3.88447 0
M  V30 3635 N 335.529 1.53961 0.336706 0
M  V30 3636 C 336.477 1.83136 1.43401 0
M  V30 3637 C 337.471 0.702313 1.54156 0
M  V30 3638 O 338.677 0.885765 1.56698 0
M  V30 3639 H 335.052 0.580309 0.478273 0
M  V30 3640 H 337.023 2.74925 1.16012 0
M  V30 3641 C 335.772 2.06385 2.79822 0
M  V30 3642 H 335.095 2.92718 2.72316 0
M  V30 3643 H 336.535 2.30761 3.55704 0
M  V30 3644 C 334.994 0.851414 3.25964 0
M  V30 3645 O 335.524 0.0541904 4.01663 0
M  V30 3646 N 333.73 0.66672 2.82848 0
M  V30 3647 H 333.277 1.31665 2.21409 0
M  V30 3648 H 333.235 -0.143032 3.14074 0
M  V30 3649 N 337.007 -0.598083 1.45811 0
M  V30 3650 C 337.917 -1.73632 1.57763 0
M  V30 3651 C 338.933 -1.67763 0.461676 0
M  V30 3652 O 340.109 -1.87949 0.723685 0
M  V30 3653 C 337.174 -3.10114 1.55018 0
M  V30 3654 C 336.235 -3.27364 2.77726 0
M  V30 3655 C 335.468 -4.57334 2.75102 0
M  V30 3656 O 335.691 -5.40258 1.8297 0
M  V30 3657 O 334.625 -4.77502 3.66437 0
M  V30 3658 H 338.451 -1.66498 2.53992 0
M  V30 3659 H 336.036 -0.763308 1.28429 0
M  V30 3660 H 337.918 -3.9141 1.56129 0
M  V30 3661 H 336.593 -3.17718 0.619431 0
M  V30 3662 H 335.5 -2.45619 2.82174 0
M  V30 3663 H 336.833 -3.24641 3.69958 0
M  V30 3664 N 338.485 -1.33259 -0.841409 0
M  V30 3665 C 339.395 -1.25332 -1.98316 0
M  V30 3666 C 340.411 -0.164364 -1.73222 0
M  V30 3667 O 341.587 -0.387486 -1.97637 0
M  V30 3668 C 338.652 -0.990078 -3.32262 0
M  V30 3669 C 337.713 -2.16879 -3.70489 0
M  V30 3670 C 336.946 -1.91801 -4.98044 0
M  V30 3671 O 337.169 -0.867075 -5.63771 0
M  V30 3672 O 336.103 -2.78267 -5.33714 0
M  V30 3673 H 339.929 -2.21344 -2.07944 0
M  V30 3674 H 337.514 -1.1328 -0.974058 0
M  V30 3675 H 339.396 -0.860321 -4.12524 0
M  V30 3676 H 338.071 -0.0602155 -3.23644 0
M  V30 3677 H 336.978 -2.35407 -2.90748 0
M  V30 3678 H 338.311 -3.0819 -3.8377 0
M  V30 3679 N 339.963 1.05934 -1.16686 0
M  V30 3680 C 340.926 2.11669 -0.879144 0
M  V30 3681 C 341.926 1.60294 0.127445 0
M  V30 3682 O 343.116 1.7389 -0.103865 0
M  V30 3683 C 340.248 3.39438 -0.315425 0
M  V30 3684 H 341.441 2.38626 -1.81653 0
M  V30 3685 H 338.994 1.22058 -0.976299 0
M  V30 3686 H 339.729 3.18132 0.629468 0
M  V30 3687 H 339.514 3.78034 -1.04079 0
M  V30 3688 H 341.004 4.17391 -0.132189 0
M  V30 3689 N 341.441 0.965919 1.2453 0
M  V30 3690 C 342.404 0.499547 2.2369 0
M  V30 3691 C 343.404 -0.40294 1.5567 0
M  V30 3692 O 344.594 -0.19865 1.73064 0
M  V30 3693 C 341.726 -0.276792 3.39774 0
M  V30 3694 H 342.919 1.37613 2.66463 0
M  V30 3695 H 340.472 0.750324 1.37112 0
M  V30 3696 H 341.207 -1.17055 3.02438 0
M  V30 3697 H 340.992 0.370826 3.90343 0
M  V30 3698 H 342.482 -0.592175 4.1338 0
M  V30 3699 N 342.919 -1.39368 0.735821 0
M  V30 3700 C 343.829 -2.34395 0.0979693 0
M  V30 3701 C 344.845 -1.58361 -0.720968 0
M  V30 3702 O 346.021 -1.90648 -0.649245 0
M  V30 3703 C 343.086 -3.37393 -0.797916 0
M  V30 3704 C 342.147 -4.29287 0.0333662 0
M  V30 3705 C 341.38 -5.27365 -0.819854 0
M  V30 3706 O 341.603 -5.31959 -2.05855 0
M  V30 3707 O 340.537 -6.01389 -0.248079 0
M  V30 3708 H 344.363 -2.90601 0.882315 0
M  V30 3709 H 341.948 -1.40909 0.4965 0
M  V30 3710 H 343.83 -4.00505 -1.31048 0
M  V30 3711 H 342.505 -2.83571 -1.56106 0
M  V30 3712 H 341.412 -3.69395 0.591475 0
M  V30 3713 H 342.745 -4.86317 0.758752 0
M  V30 3714 N 344.397 -0.483516 -1.5 0
M  V30 3715 C 345.643 0.0672592 -2.02688 0
M  V30 3716 C 345.976 1.38247 -1.36387 0
M  V30 3717 O 345.251 1.88131 -0.493675 0
M  V30 3718 C 345.534 0.238109 -3.59312 0
M  V30 3719 C 345.387 -1.099 -4.36168 0
M  V30 3720 C 346.706 0.986916 -4.28892 0
M  V30 3721 H 343.825 0.0229696 -0.736642 0
M  V30 3722 H 346.467 -0.631527 -1.79197 0
M  V30 3723 H 344.617 0.8333 -3.79458 0
M  V30 3724 H 346.289 -1.73172 -4.27562 0
M  V30 3725 H 344.532 -1.69261 -3.99416 0
M  V30 3726 H 345.203 -0.932954 -5.44059 0
M  V30 3727 H 347.679 0.482302 -4.13295 0
M  V30 3728 H 346.555 1.07527 -5.38265 0
M  V30 3729 H 346.816 2.0265 -3.92919 0
M  V30 3730 N 345.875 1.56104 -0.216619 0
M  V30 3731 C 347.291 1.58995 0.13886 0
M  V30 3732 C 347.491 1.23333 1.59346 0
M  V30 3733 O 346.547 0.966234 2.33281 0
M  V30 3734 C 347.86 3.00143 -0.182968 0
M  V30 3735 C 349.408 3.12751 -0.124807 0
M  V30 3736 C 349.883 4.56068 -0.420241 0
M  V30 3737 N 351.374 4.61723 -0.369634 0
M  V30 3738 C 352.109 5.70542 -0.571789 0
M  V30 3739 N 351.605 6.87744 -0.835453 0
M  V30 3740 N 353.398 5.59831 -0.504563 0
M  V30 3741 H 345.549 1.77562 -1.16557 0
M  V30 3742 H 347.812 0.825091 -0.466828 0
M  V30 3743 H 347.518 3.30871 -1.19237 0
M  V30 3744 H 347.392 3.73813 0.504367 0
M  V30 3745 H 349.779 2.81822 0.875223 0
M  V30 3746 H 349.86 2.41421 -0.845544 0
M  V30 3747 H 349.504 4.87713 -1.41769 0
M  V30 3748 H 349.434 5.25617 0.321631 0
M  V30 3749 H 351.925 3.77502 -0.173338 0
M  V30 3750 H 352.238 7.66587 -0.977938 0
M  V30 3751 H 350.583 6.895 -0.872592 0
M  V30 3752 H 353.774 4.67145 -0.298842 0
M  V30 3753 H 353.947 6.44573 -0.665519 0
M  V30 3754 N 347.353 -0.0568162 1.57498 0
M  V30 3755 C 348.3 -1.06591 2.04712 0
M  V30 3756 C 349.27 -1.3758 0.930644 0
M  V30 3757 O 350.455 -1.48392 1.19935 0
M  V30 3758 C 347.595 -2.3701 2.50839 0
M  V30 3759 C 346.708 -2.12421 3.76167 0
M  V30 3760 C 345.843 -3.36511 4.11015 0
M  V30 3761 C 344.882 -3.07353 5.2934 0
M  V30 3762 N 344.019 -4.23816 5.59754 0
M  V30 3763 H 348.859 -0.65631 2.90683 0
M  V30 3764 H 346.396 -0.312481 1.43743 0
M  V30 3765 H 348.354 -3.13175 2.7564 0
M  V30 3766 H 346.984 -2.75744 1.67825 0
M  V30 3767 H 346.036 -1.2688 3.58616 0
M  V30 3768 H 347.348 -1.86894 4.62463 0
M  V30 3769 H 346.502 -4.21062 4.36797 0
M  V30 3770 H 345.241 -3.65128 3.23315 0
M  V30 3771 H 344.246 -2.212 5.03339 0
M  V30 3772 H 345.471 -2.80043 6.1867 0
M  V30 3773 H 343.417 -4.52436 4.75014 0
M  V30 3774 H 343.334 -4.01614 6.40501 0
M  V30 3775 H 344.602 -5.0932 5.90096 0
M  V30 3776 N 348.832 -1.54138 -0.328536 0
M  V30 3777 C 350.062 -1.75807 -1.08516 0
M  V30 3778 C 350.47 -0.50428 -1.82356 0
M  V30 3779 O 349.813 0.534451 -1.75754 0
M  V30 3780 C 349.875 -2.89423 -2.13248 0
M  V30 3781 C 349.539 -4.28504 -1.5885 0
M  V30 3782 C 350.536 -5.09536 -1.03289 0
M  V30 3783 C 348.221 -4.75034 -1.63243 0
M  V30 3784 C 350.215 -6.35206 -0.52845 0
M  V30 3785 C 347.902 -6.00672 -1.12411 0
M  V30 3786 C 348.9 -6.80592 -0.573062 0
M  V30 3787 O 348.588 -8.03867 -0.0723692 0
M  V30 3788 H 348.32 -0.590633 -0.328829 0
M  V30 3789 H 350.874 -2.01819 -0.381868 0
M  V30 3790 H 349.104 -2.5897 -2.87178 0
M  V30 3791 H 350.793 -2.98921 -2.74592 0
M  V30 3792 H 351.559 -4.74745 -0.99206 0
M  V30 3793 H 347.438 -4.12875 -2.05074 0
M  V30 3794 H 350.982 -6.97532 -0.0976774 0
M  V30 3795 H 346.879 -6.34955 -1.162 0
M  V30 3796 H 347.647 -8.18283 -0.188258 0
M  V30 3797 N 350.31 0.590341 -1.46126 0
M  V30 3798 C 351.587 1.35029 -1.41515 0
M  V30 3799 C 351.967 2.10888 -0.0946472 0
M  V30 3800 O 351.315 2.08998 0.923693 0
M  V30 3801 C 351.525 2.28269 -2.63997 0
M  V30 3802 C 352.873 2.90338 -3.09821 0
M  V30 3803 O 353.897 2.38585 -2.64492 0
M  V30 3804 O 352.756 3.84321 -3.88535 0
M  V30 3805 H 349.85 0.606317 -0.562413 0
M  V30 3806 H 352.396 0.611994 -1.58281 0
M  V30 3807 H 351.168 1.71591 -3.51671 0
M  V30 3808 H 350.791 3.0945 -2.49652 0
M  V30 3809 N 351.788 1.33704 0.83433 0
M  V30 3810 C 353.199 1.22813 1.4062 0
M  V30 3811 C 353.55 -0.151107 1.95617 0
M  V30 3812 O 352.675 -1.05092 1.89168 0
M  V30 3813 C 353.27 2.22355 2.55624 0
M  V30 3814 C 351.829 2.1529 3.08751 0
M  V30 3815 C 350.976 2.09589 1.8157 0
M  V30 3816 H 353.927 1.45236 0.639702 0
M  V30 3817 H 353.948 1.83391 3.33389 0
M  V30 3818 H 353.46 3.22728 2.15566 0
M  V30 3819 H 351.561 1.18235 3.53343 0
M  V30 3820 H 351.674 3.06038 3.68616 0
M  V30 3821 H 350.038 1.55134 2.02004 0
M  V30 3822 H 350.821 3.11777 1.43701 0
M  V30 3823 N 353.266 -1.05314 1.17247 0
M  V30 3824 C 354.543 -1.75184 0.87005 0
M  V30 3825 C 354.923 -2.01481 -0.629965 0
M  V30 3826 O 354.271 -1.64988 -1.58086 0
M  V30 3827 C 354.481 -3.04594 1.70363 0
M  V30 3828 C 355.829 -3.78567 1.92281 0
M  V30 3829 O 356.853 -3.14461 1.67311 0
M  V30 3830 O 355.712 -4.93755 2.3424 0
M  V30 3831 H 352.806 -0.761729 0.322021 0
M  V30 3832 H 355.352 -1.11493 1.27935 0
M  V30 3833 H 354.124 -2.81201 2.72106 0
M  V30 3834 H 353.747 -3.76022 1.29202 0
M  V30 3835 N 354.744 -0.972509 -1.24016 0
M  V30 3836 C 355.969 -0.654417 -1.96805 0
M  V30 3837 C 356.394 0.770398 -1.716 0
M  V30 3838 O 355.752 1.52361 -0.982647 0
M  V30 3839 C 355.8 -0.941031 -3.48105 0
M  V30 3840 O 354.904 -0.0289472 -4.1239 0
M  V30 3841 H 354.245 -0.24692 -0.616382 0
M  V30 3842 H 356.775 -1.30396 -1.57664 0
M  V30 3843 H 356.785 -0.87452 -3.98517 0
M  V30 3844 H 355.46 -1.97939 -3.65777 0
M  V30 3845 H 354.037 -0.149192 -3.72601 0
M  V30 3846 N 356.222 1.38976 -0.743202 0
M  V30 3847 C 357.17 2.32394 -0.0978389 0
M  V30 3848 C 358.164 1.53486 0.716824 0
M  V30 3849 O 359.37 1.69092 0.617088 0
M  V30 3850 H 355.745 0.75189 -0.0128402 0
M  V30 3851 H 357.716 2.84441 -0.901981 0
M  V30 3852 C 356.465 3.38629 0.789036 0
M  V30 3853 H 355.788 3.99432 0.171559 0
M  V30 3854 H 357.228 4.06426 1.20807 0
M  V30 3855 C 355.687 2.76347 1.92702 0
M  V30 3856 O 356.217 2.64836 3.02034 0
M  V30 3857 N 354.423 2.34311 1.71891 0
M  V30 3858 H 353.97 2.43873 0.829675 0
M  V30 3859 H 353.928 1.9298 2.48205 0
M  V30 3860 N 357.7 0.491464 1.49741 0
M  V30 3861 C 358.632 -0.328609 2.26832 0
M  V30 3862 C 359.645 -0.939113 1.32983 0
M  V30 3863 O 360.834 -0.824067 1.58339 0
M  V30 3864 C 357.934 -1.47675 3.05033 0
M  V30 3865 C 357.107 -0.975305 4.26388 0
M  V30 3866 C 356.166 -1.99991 4.86714 0
M  V30 3867 O 355.192 -1.57229 5.47054 0
M  V30 3868 N 356.394 -3.32962 4.75517 0
M  V30 3869 H 359.159 0.332377 2.97851 0
M  V30 3870 H 356.72 0.323441 1.58636 0
M  V30 3871 H 358.712 -2.15954 3.42266 0
M  V30 3872 H 357.282 -2.04206 2.36683 0
M  V30 3873 H 356.502 -0.117723 3.94024 0
M  V30 3874 H 357.79 -0.618531 5.05026 0
M  V30 3875 H 357.188 -3.70399 4.27576 0
M  V30 3876 H 355.745 -3.96982 5.16961 0
M  V30 3877 N 359.178 -1.55987 0.224894 0
M  V30 3878 C 360.594 -1.59066 -0.130426 0
M  V30 3879 C 360.794 -1.24176 -1.5869 0
M  V30 3880 O 359.85 -0.978592 -2.32766 0
M  V30 3881 C 361.163 -3.00042 0.198883 0
M  V30 3882 C 362.711 -3.1268 0.141391 0
M  V30 3883 C 363.186 -4.55839 0.444422 0
M  V30 3884 N 364.677 -4.6152 0.394115 0
M  V30 3885 C 365.412 -5.70231 0.602038 0
M  V30 3886 N 364.908 -6.87291 0.871914 0
M  V30 3887 N 366.701 -5.59555 0.534245 0
M  V30 3888 H 358.852 -1.76941 1.17497 0
M  V30 3889 H 361.115 -0.822604 0.471197 0
M  V30 3890 H 360.821 -3.30234 1.2099 0
M  V30 3891 H 360.695 -3.74075 -0.484535 0
M  V30 3892 H 363.082 -2.82283 -0.860265 0
M  V30 3893 H 363.163 -2.40969 0.858335 0
M  V30 3894 H 362.807 -4.86954 1.44353 0
M  V30 3895 H 362.737 -5.2578 -0.293752 0
M  V30 3896 H 365.228 -3.77405 0.193356 0
M  V30 3897 H 365.541 -7.66058 1.01858 0
M  V30 3898 H 363.886 -6.89028 0.909145 0
M  V30 3899 H 367.077 -4.6698 0.323612 0
M  V30 3900 H 367.25 -6.44211 0.699693 0
M  V30 3901 N 360.656 0.0484629 -1.57525 0
M  V30 3902 C 361.933 0.777447 -1.79486 0
M  V30 3903 C 362.313 1.94597 -0.818251 0
M  V30 3904 O 361.661 2.28047 0.143767 0
M  V30 3905 C 361.871 1.22864 -3.26658 0
M  V30 3906 C 363.219 1.65251 -3.91123 0
M  V30 3907 O 364.243 1.32372 -3.3069 0
M  V30 3908 O 363.102 2.26207 -4.97486 0
M  V30 3909 H 360.196 0.374357 -0.737419 0
M  V30 3910 H 362.742 0.0267359 -1.69679 0
M  V30 3911 H 361.514 0.393589 -3.89316 0
M  V30 3912 H 361.137 2.03996 -3.41279 0
M  V30 3913 N 362.134 1.5431 0.320358 0
M  V30 3914 C 363.064 1.86912 1.3995 0
M  V30 3915 C 364.045 0.726211 1.53819 0
M  V30 3916 O 365.23 0.980233 1.67646 0
M  V30 3917 C 362.36 2.09932 2.7667 0
M  V30 3918 C 361.314 3.25776 2.77586 0
M  V30 3919 C 360.64 3.34173 4.17412 0
M  V30 3920 C 361.94 4.6335 2.41048 0
M  V30 3921 H 363.634 2.77292 1.12914 0
M  V30 3922 H 361.18 1.33421 0.541738 0
M  V30 3923 H 363.133 2.31324 3.52232 0
M  V30 3924 H 361.857 1.16304 3.0519 0
M  V30 3925 H 360.516 3.04276 2.04479 0
M  V30 3926 H 360.164 2.38098 4.43078 0
M  V30 3927 H 359.864 4.12033 4.18931 0
M  V30 3928 H 361.388 3.57803 4.94782 0
M  V30 3929 H 362.802 4.84602 3.06324 0
M  V30 3930 H 361.199 5.43782 2.53813 0
M  V30 3931 H 362.269 4.65381 1.36193 0
M  V30 3932 N 363.613 -0.582584 1.46437 0
M  V30 3933 C 364.86 -1.34079 1.51753 0
M  V30 3934 C 365.188 -1.93762 0.169299 0
M  V30 3935 O 364.443 -1.76989 -0.835062 0
M  V30 3936 C 364.742 -2.48964 2.56421 0
M  V30 3937 C 364.408 -2.07273 4.00436 0
M  V30 3938 C 363.07 -1.95618 4.39644 0
M  V30 3939 C 365.422 -1.75111 4.90903 0
M  V30 3940 C 362.75 -1.5006 5.67185 0
M  V30 3941 C 365.102 -1.31032 6.18881 0
M  V30 3942 C 363.766 -1.17954 6.56996 0
M  V30 3943 H 363.036 -0.49063 0.555304 0
M  V30 3944 H 365.683 -0.656007 1.79913 0
M  V30 3945 H 363.988 -3.22889 2.21923 0
M  V30 3946 H 365.685 -3.07178 2.57765 0
M  V30 3947 H 362.275 -2.17279 3.69443 0
M  V30 3948 H 366.459 -1.83001 4.61329 0
M  V30 3949 H 361.715 -1.38577 5.95488 0
M  V30 3950 H 365.889 -1.052 6.88408 0
M  V30 3951 H 363.516 -0.824279 7.55718 0
M  V30 3952 N 365.091 -1.34144 -0.827227 0
M  V30 3953 C 366.039 -1.25364 -1.95925 0
M  V30 3954 C 367.033 -0.152608 -1.68711 0
M  V30 3955 O 368.239 -0.317311 -1.77181 0
M  V30 3956 H 364.614 -0.389342 -0.643364 0
M  V30 3957 H 366.585 -2.21045 -2.00454 0
M  V30 3958 C 365.334 -1.02158 -3.32354 0
M  V30 3959 H 364.657 -1.86111 -3.5384 0
M  V30 3960 H 366.097 -1.00048 -4.12027 0
M  V30 3961 C 364.556 0.275244 -3.35774 0
M  V30 3962 O 365.086 1.27806 -3.80826 0
M  V30 3963 N 363.292 0.306853 -2.88975 0
M  V30 3964 H 362.839 -0.509777 -2.52506 0
M  V30 3965 H 362.797 1.17432 -2.91646 0
M  V30 3966 N 366.569 1.04691 -1.17803 0
M  V30 3967 C 367.532 2.10724 -0.901545 0
M  V30 3968 C 368.532 1.6042 0.110437 0
M  V30 3969 O 369.722 1.7377 -0.122303 0
M  V30 3970 C 366.854 3.39084 -0.351409 0
M  V30 3971 H 368.047 2.36686 -1.84174 0
M  V30 3972 H 365.6 1.21015 -0.98919 0
M  V30 3973 H 366.335 3.18782 0.59569 0
M  V30 3974 H 366.12 3.76909 -1.08083 0
M  V30 3975 H 367.61 4.17227 -0.176451 0
M  V30 3976 N 368.047 0.979072 1.23499 0
M  V30 3977 C 369.296 0.642751 1.91185 0
M  V30 3978 C 369.609 -0.827253 1.77245 0
M  V30 3979 O 370.815 -1.27458 2.39722 0
M  V30 3980 C 369.271 1.09901 3.42709 0
M  V30 3981 C 368.879 2.59327 3.65313 0
M  V30 3982 C 370.623 0.836371 4.16179 0
M  V30 3983 C 368.53 2.98627 5.10467 0
M  V30 3984 H 367.46 0.236698 0.715884 0
M  V30 3985 H 370.111 1.1868 1.39955 0
M  V30 3986 H 368.493 0.48319 3.93041 0
M  V30 3987 H 369.667 3.26136 3.25533 0
M  V30 3988 H 367.982 2.83323 3.05151 0
M  V30 3989 H 370.579 1.10586 5.23139 0
M  V30 3990 H 370.922 -0.227509 4.15678 0
M  V30 3991 H 371.455 1.41371 3.71832 0
M  V30 3992 H 368.194 4.04133 5.16098 0
M  V30 3993 H 367.714 2.3651 5.51201 0
M  V30 3994 H 369.393 2.89159 5.78788 0
M  V30 3995 N 369.525 -1.3858 0.750561 0
M  V30 3996 C 370.488 -2.28836 0.129152 0
M  V30 3997 C 371.488 -1.47045 -0.650714 0
M  V30 3998 O 372.678 -1.6753 -0.477428 0
M  V30 3999 C 369.81 -3.30751 -0.825622 0
M  V30 4000 H 371.003 -2.85294 0.924516 0
M  V30 4001 H 368.556 -1.47489 0.517376 0
M  V30 4002 H 369.291 -2.79378 -1.64677 0
M  V30 4003 H 369.076 -3.91177 -0.268852 0
M  V30 4004 H 370.566 -3.98249 -1.2565 0
M  V30 4005 N 371.003 -0.499398 -1.49478 0
M  V30 4006 C 372.419 -0.155261 -1.58843 0
M  V30 4007 C 372.619 1.34008 -1.50479 0
M  V30 4008 O 371.675 2.11589 -1.37791 0
M  V30 4009 C 372.988 -0.730636 -2.91689 0
M  V30 4010 C 374.536 -0.696599 -3.0515 0
M  V30 4011 C 375.011 -1.25001 -4.40612 0
M  V30 4012 N 376.502 -1.21064 -4.47099 0
M  V30 4013 C 377.237 -1.60905 -5.50361 0
M  V30 4014 N 376.733 -2.08331 -6.60735 0
M  V30 4015 N 378.526 -1.52331 -5.41065 0
M  V30 4016 H 370.677 -1.47162 -1.53158 0
M  V30 4017 H 372.94 -0.610309 -0.725415 0
M  V30 4018 H 372.646 -1.77928 -3.03372 0
M  V30 4019 H 372.52 -0.190161 -3.7672 0
M  V30 4020 H 374.907 0.343204 -2.93097 0
M  V30 4021 H 374.988 -1.2742 -2.21806 0
M  V30 4022 H 374.632 -2.28859 -4.53416 0
M  V30 4023 H 374.562 -0.64836 -5.22593 0
M  V30 4024 H 377.053 -0.863128 -3.67911 0
M  V30 4025 H 377.366 -2.36805 -7.35624 0
M  V30 4026 H 375.711 -2.12304 -6.6178 0
M  V30 4027 H 378.902 -1.151 -4.53729 0
M  V30 4028 H 379.075 -1.83704 -6.21415 0
M  V30 4029 N 372.481 1.55866 -0.233164 0
M  V30 4030 C 373.729 1.9821 0.394593 0
M  V30 4031 C 374.05 1.12234 1.59463 0
M  V30 4032 O 373.32 0.201981 1.94856 0
M  V30 4033 H 371.9 0.732034 0.148778 0
M  V30 4034 H 374.562 1.92107 -0.32876 0
M  V30 4035 H 373.658 3.03845 0.713063 0
M  V30 4036 N 373.959 -0.0401083 1.57549 0
M  V30 4037 C 375.236 -0.767917 1.79896 0
M  V30 4038 C 375.616 -1.9416 0.82856 0
M  V30 4039 O 374.964 -2.2812 -0.131671 0
M  V30 4040 C 375.174 -1.2113 3.27305 0
M  V30 4041 C 376.522 -1.63175 3.91994 0
M  V30 4042 O 377.546 -1.30616 3.31388 0
M  V30 4043 O 376.405 -2.23565 4.98679 0
M  V30 4044 H 373.499 -0.370441 0.739393 0
M  V30 4045 H 376.045 -0.017737 1.69691 0
M  V30 4046 H 374.817 -0.372937 3.89519 0
M  V30 4047 H 374.44 -2.02183 3.42356 0
M  V30 4048 N 375.437 -1.54477 -0.31217 0
M  V30 4049 C 376.684 -1.73227 -1.04875 0
M  V30 4050 C 377.012 -0.512042 -1.87639 0
M  V30 4051 O 376.267 0.506131 -1.89042 0
M  V30 4052 C 376.566 -2.967 -1.99258 0
M  V30 4053 C 376.232 -4.30974 -1.32559 0
M  V30 4054 C 374.894 -4.67477 -1.141 0
M  V30 4055 C 377.246 -5.14258 -0.847835 0
M  V30 4056 C 374.574 -5.84852 -0.465326 0
M  V30 4057 C 376.926 -6.32327 -0.185931 0
M  V30 4058 C 375.59 -6.67499 0.0107077 0
M  V30 4059 H 374.86 -0.633881 -0.383765 0
M  V30 4060 H 377.507 -1.88727 -0.324731 0
M  V30 4061 H 375.812 -2.75935 -2.7815 0
M  V30 4062 H 377.509 -3.08401 -2.563 0
M  V30 4063 H 374.099 -4.02262 -1.4793 0
M  V30 4064 H 378.283 -4.86565 -0.978192 0
M  V30 4065 H 373.539 -6.10654 -0.301883 0
M  V30 4066 H 377.713 -6.96135 0.192211 0
M  V30 4067 H 375.34 -7.58306 0.536287 0
M  V30 4068 N 376.915 0.57481 -1.46744 0
M  V30 4069 C 378.326 1.15695 -1.46532 0
M  V30 4070 C 378.677 1.95068 -0.210425 0
M  V30 4071 O 377.802 2.05241 0.685944 0
M  V30 4072 C 378.397 2.1048 -2.65487 0
M  V30 4073 C 376.956 2.64002 -2.68291 0
M  V30 4074 C 376.103 1.40026 -2.39349 0
M  V30 4075 H 379.054 0.362325 -1.54509 0
M  V30 4076 H 379.075 2.94074 -2.41455 0
M  V30 4077 H 378.587 1.52683 -3.56805 0
M  V30 4078 H 376.688 3.25646 -1.81067 0
M  V30 4079 H 376.801 3.06197 -3.68483 0
M  V30 4080 H 375.165 1.70106 -1.89568 0
M  V30 4081 H 375.948 0.840485 -3.32852 0
M  V30 4082 N 378.394 1.34581 0.820102 0
M  V30 4083 C 379.341 1.2639 1.93117 0
M  V30 4084 C 380.311 0.138554 1.65521 0
M  V30 4085 O 381.496 0.320004 1.88097 0
M  V30 4086 C 378.636 1.02812 3.29429 0
M  V30 4087 C 377.749 2.24146 3.693 0
M  V30 4088 C 376.884 1.93829 4.94574 0
M  V30 4089 C 375.923 3.1129 5.27034 0
M  V30 4090 N 375.06 2.80838 6.43486 0
M  V30 4091 H 379.9 2.21408 1.99455 0
M  V30 4092 H 377.437 1.10077 0.975784 0
M  V30 4093 H 379.395 0.871788 4.0799 0
M  V30 4094 H 378.025 0.114612 3.22596 0
M  V30 4095 H 377.077 2.50691 2.86109 0
M  V30 4096 H 378.389 3.11899 3.89257 0
M  V30 4097 H 377.543 1.74948 5.80929 0
M  V30 4098 H 376.282 1.03341 4.76626 0
M  V30 4099 H 375.287 3.30764 4.39175 0
M  V30 4100 H 376.512 4.02561 5.4692 0
M  V30 4101 H 374.458 1.92929 6.26988 0
M  V30 4102 H 374.375 3.62123 6.63629 0
M  V30 4103 H 375.643 2.65467 7.32903 0
M  V30 4104 N 379.872 -1.04064 1.18357 0
M  V30 4105 C 381.118 -1.77658 0.990412 0
M  V30 4106 C 381.473 -1.86446 -0.474944 0
M  V30 4107 O 380.766 -1.36153 -1.34807 0
M  V30 4108 C 380.96 -3.20634 1.57888 0
M  V30 4109 C 380.789 -3.25782 3.09994 0
M  V30 4110 C 379.559 -3.34411 3.7881 0
M  V30 4111 C 381.757 -3.13791 4.0748 0
M  V30 4112 N 379.739 -3.28809 5.18418 0
M  V30 4113 C 381.11 -3.15689 5.33611 0
M  V30 4114 C 383.165 -2.97833 3.98998 0
M  V30 4115 C 381.868 -3.03268 6.52243 0
M  V30 4116 C 383.894 -2.86759 5.17227 0
M  V30 4117 C 383.256 -2.893 6.4225 0
M  V30 4118 H 379.355 -0.661901 0.416427 0
M  V30 4119 H 381.939 -1.23968 1.50133 0
M  V30 4120 H 380.11 -3.7267 1.09414 0
M  V30 4121 H 381.842 -3.82525 1.32124 0
M  V30 4122 H 378.597 -3.40144 3.29543 0
M  V30 4123 H 379.021 -3.29448 5.91433 0
M  V30 4124 H 383.663 -2.94698 3.03171 0
M  V30 4125 H 381.381 -3.05156 7.48268 0
M  V30 4126 H 384.967 -2.75465 5.12455 0
M  V30 4127 H 383.847 -2.80818 7.32196 0
M  V30 4128 N 381.35 -0.985608 -1.22978 0
M  V30 4129 C 382.297 -0.529825 -2.24636 0
M  V30 4130 C 383.267 0.434028 -1.60329 0
M  V30 4131 O 384.452 0.340414 -1.87739 0
M  V30 4132 C 381.592 0.156533 -3.44745 0
M  V30 4133 C 380.705 -0.848197 -4.23591 0
M  V30 4134 C 379.84 -0.136109 -5.31026 0
M  V30 4135 C 378.879 -1.1297 -6.01585 0
M  V30 4136 N 378.016 -0.446415 -7.00679 0
M  V30 4137 H 382.856 -1.40148 -2.62988 0
M  V30 4138 H 380.393 -0.702168 -1.29259 0
M  V30 4139 H 382.351 0.571324 -4.1327 0
M  V30 4140 H 380.981 0.992025 -3.07179 0
M  V30 4141 H 380.033 -1.38135 -3.54433 0
M  V30 4142 H 381.345 -1.60512 -4.72268 0
M  V30 4143 H 380.499 0.335784 -6.0577 0
M  V30 4144 H 379.238 0.653373 -4.83304 0
M  V30 4145 H 378.243 -1.6123 -5.25628 0
M  V30 4146 H 379.468 -1.91993 -6.51395 0
M  V30 4147 H 377.414 0.323763 -6.55201 0
M  V30 4148 H 377.331 -1.1419 -7.47326 0
M  V30 4149 H 378.599 0.00291697 -7.795 0
M  V30 4150 N 382.828 1.3818 -0.7579 0
M  V30 4151 C 383.758 2.33027 -0.148597 0
M  V30 4152 C 384.739 1.55085 0.69875 0
M  V30 4153 O 385.924 1.83384 0.639053 0
M  V30 4154 C 383.054 3.3928 0.742034 0
M  V30 4155 C 382.008 4.28 -0.00291946 0
M  V30 4156 C 381.334 5.25146 1.00625 0
M  V30 4157 C 382.634 5.08938 -1.17385 0
M  V30 4158 H 384.328 2.84231 -0.940909 0
M  V30 4159 H 381.874 1.36659 -0.453908 0
M  V30 4160 H 383.827 4.046 1.17799 0
M  V30 4161 H 382.551 2.86569 1.56671 0
M  V30 4162 H 381.21 3.64192 -0.419504 0
M  V30 4163 H 380.858 4.68721 1.8251 0
M  V30 4164 H 380.558 5.85361 0.512428 0
M  V30 4165 H 382.082 5.93342 1.44143 0
M  V30 4166 H 383.496 5.67474 -0.815224 0
M  V30 4167 H 381.893 5.7841 -1.59882 0
M  V30 4168 H 382.963 4.42424 -1.98468 0
M  V30 4169 N 384.306 0.507319 1.49211 0
M  V30 4170 C 385.531 -0.033725 2.07373 0
M  V30 4171 C 385.956 -1.29485 1.36437 0
M  V30 4172 O 385.314 -1.76294 0.423087 0
M  V30 4173 C 385.362 -0.263945 3.59633 0
M  V30 4174 O 384.466 -1.33737 3.90113 0
M  V30 4175 H 383.807 0.0290331 0.663365 0
M  V30 4176 H 386.337 0.708749 1.91932 0
M  V30 4177 H 386.347 -0.493536 4.05004 0
M  V30 4178 H 385.022 0.657424 4.10671 0
M  V30 4179 H 383.599 -1.09224 3.56545 0
M  V30 4180 N 385.784 -1.5574 0.241426 0
M  V30 4181 C 387.033 -1.97986 -0.385295 0
M  V30 4182 C 387.346 -1.13267 -1.59468 0
M  V30 4183 O 388.552 -1.45501 -2.2922 0
M  V30 4184 C 387.008 -3.52275 -0.736884 0
M  V30 4185 C 386.616 -4.45726 0.450796 0
M  V30 4186 C 388.36 -4.03189 -1.3281 0
M  V30 4187 C 386.267 -5.91352 0.0756662 0
M  V30 4188 H 385.197 -0.739386 -0.147731 0
M  V30 4189 H 387.848 -1.80308 0.340779 0
M  V30 4190 H 386.23 -3.65628 -1.52094 0
M  V30 4191 H 387.404 -4.44131 1.22819 0
M  V30 4192 H 385.719 -4.05264 0.956573 0
M  V30 4193 H 388.316 -5.09505 -1.62201 0
M  V30 4194 H 388.659 -3.50212 -2.25071 0
M  V30 4195 H 389.192 -3.93141 -0.607069 0
M  V30 4196 H 385.931 -6.48354 0.965272 0
M  V30 4197 H 385.451 -5.96095 -0.665635 0
M  V30 4198 H 387.13 -6.46084 -0.344075 0
M  V30 4199 N 387.262 0.0317525 -1.57568 0
M  V30 4200 C 388.194 1.06073 -2.03178 0
M  V30 4201 C 389.207 1.32627 -0.944132 0
M  V30 4202 O 390.396 1.30162 -1.22148 0
M  V30 4203 C 387.496 2.40297 -2.38978 0
M  V30 4204 C 386.669 2.33137 -3.70089 0
M  V30 4205 C 385.728 3.49787 -3.9311 0
M  V30 4206 O 384.754 3.29403 -4.64201 0
M  V30 4207 N 385.956 4.71562 -3.38541 0
M  V30 4208 H 388.721 0.672006 -2.92069 0
M  V30 4209 H 386.282 0.219745 -1.60402 0
M  V30 4210 H 388.274 3.1705 -2.51518 0
M  V30 4211 H 386.844 2.71024 -1.55771 0
M  V30 4212 H 386.064 1.415 -3.67928 0
M  V30 4213 H 387.352 2.25493 -4.56104 0
M  V30 4214 H 386.75 4.91024 -2.80912 0
M  V30 4215 H 385.307 5.45689 -3.56464 0
M  V30 4216 N 388.74 1.54641 0.303973 0
M  V30 4217 C 389.986 1.74038 1.04109 0
M  V30 4218 C 390.319 0.523051 1.87024 0
M  V30 4219 O 389.594 -0.479874 1.88487 0
M  V30 4220 C 389.877 3.02761 1.94955 0
M  V30 4221 C 389.73 4.34787 1.1524 0
M  V30 4222 C 391.049 3.27336 2.94175 0
M  V30 4223 H 388.168 0.63323 0.377079 0
M  V30 4224 H 390.81 1.87354 0.316001 0
M  V30 4225 H 388.96 2.9154 2.56782 0
M  V30 4226 H 390.632 4.57922 0.557236 0
M  V30 4227 H 388.875 4.31407 0.455053 0
M  V30 4228 H 389.546 5.21116 1.8205 0
M  V30 4229 H 392.022 3.38148 2.42477 0
M  V30 4230 H 390.898 4.18726 3.54908 0
M  V30 4231 H 391.159 2.45491 3.67677 0
M  V30 4232 N 390.218 -0.567019 1.47046 0
M  V30 4233 C 391.151 -1.69016 1.53326 0
M  V30 4234 C 392.129 -1.57949 0.386126 0
M  V30 4235 O 393.313 -1.78945 0.592529 0
M  V30 4236 C 390.44 -3.07191 1.42658 0
M  V30 4237 C 389.486 -3.36733 2.6175 0
M  V30 4238 S 390.319 -3.27069 4.24012 0
M  V30 4239 C 391.475 -4.67755 4.1588 0
M  V30 4240 H 391.708 -1.63434 2.48348 0
M  V30 4241 H 389.241 -0.747048 1.35124 0
M  V30 4242 H 391.199 -3.86897 1.37191 0
M  V30 4243 H 389.86 -3.10249 0.490369 0
M  V30 4244 H 389.053 -4.37441 2.50323 0
M  V30 4245 H 388.655 -2.64627 2.64289 0
M  V30 4246 H 390.947 -5.58491 3.83529 0
M  V30 4247 H 391.89 -4.84239 5.16641 0
M  V30 4248 H 392.298 -4.45341 3.46889 0
M  V30 4249 N 391.696 -1.35014 -0.812953 0
M  V30 4250 C 393.107 -1.25035 -1.38648 0
M  V30 4251 C 393.458 0.119967 -1.95833 0
M  V30 4252 O 392.583 1.02069 -1.90816 0
M  V30 4253 C 393.178 -2.26394 -2.52054 0
M  V30 4254 C 391.737 -2.20175 -3.05287 0
M  V30 4255 C 390.884 -2.12451 -1.78213 0
M  V30 4256 H 393.835 -1.46235 -0.616516 0
M  V30 4257 H 393.856 -1.88672 -3.30429 0
M  V30 4258 H 393.368 -3.26116 -2.10404 0
M  V30 4259 H 391.469 -1.23841 -3.51417 0
M  V30 4260 H 391.582 -3.11863 -3.63701 0
M  V30 4261 H 389.946 -1.58328 -1.9951 0
M  V30 4262 H 390.729 -3.14024 -1.38723 0
M  V30 4263 N 393.175 1.03435 -1.18907 0
M  V30 4264 C 394.085 2.15075 -0.937015 0
M  V30 4265 C 395.101 1.73706 0.101085 0
M  V30 4266 O 396.277 2.01232 -0.0822948 0
M  V30 4267 C 393.342 3.43458 -0.473057 0
M  V30 4268 C 392.403 3.99172 -1.57989 0
M  V30 4269 C 391.636 5.21427 -1.13797 0
M  V30 4270 O 391.859 5.704 0.000725941 0
M  V30 4271 O 390.793 5.69837 -1.9383 0
M  V30 4272 H 394.619 2.39198 -1.87131 0
M  V30 4273 H 392.204 1.13506 -0.971427 0
M  V30 4274 H 394.086 4.20811 -0.222702 0
M  V30 4275 H 392.761 3.20793 0.432869 0
M  V30 4276 H 391.668 3.23178 -1.88433 0
M  V30 4277 H 393.001 4.2619 -2.46217 0
M  V30 4278 N 394.653 0.992116 1.22453 0
M  V30 4279 C 395.563 0.55065 2.28046 0
M  V30 4280 C 396.579 -0.400189 1.69335 0
M  V30 4281 O 397.755 -0.267215 1.99619 0
M  V30 4282 C 394.82 -0.128496 3.46462 0
M  V30 4283 C 393.881 0.865208 4.20491 0
M  V30 4284 C 393.114 0.218377 5.33253 0
M  V30 4285 O 393.337 -0.987894 5.6178 0
M  V30 4286 O 392.271 0.922845 5.94783 0
M  V30 4287 H 396.097 1.4291 2.67975 0
M  V30 4288 H 393.682 0.760326 1.28606 0
M  V30 4289 H 395.564 -0.508947 4.18315 0
M  V30 4290 H 394.239 -0.981526 3.0846 0
M  V30 4291 H 393.146 1.29658 3.50913 0
M  V30 4292 H 394.479 1.68741 4.62371 0
M  V30 4293 N 396.131 -1.37776 0.765217 0
M  V30 4294 C 397.408 -1.93975 0.251596 0
M  V30 4295 C 397.788 -1.69949 -1.25222 0
M  V30 4296 O 397.136 -1.04457 -2.03226 0
M  V30 4297 C 397.346 -3.43487 0.617895 0
M  V30 4298 C 398.694 -4.20564 0.584029 0
M  V30 4299 O 399.718 -3.5182 0.556888 0
M  V30 4300 O 398.577 -5.43138 0.605291 0
M  V30 4301 H 395.671 -0.82509 0.0561806 0
M  V30 4302 H 398.217 -1.47101 0.846128 0
M  V30 4303 H 396.989 -3.5453 1.65602 0
M  V30 4304 H 396.612 -3.976 -0.00403411 0
M  V30 4305 N 397.609 -0.515225 -1.4894 0
M  V30 4306 C 398.572 0.244681 -2.2789 0
M  V30 4307 C 399.572 0.881166 -1.34507 0
M  V30 4308 O 400.762 0.743497 -1.57537 0
M  V30 4309 C 397.894 1.35247 -3.12923 0
M  V30 4310 H 399.087 -0.448289 -2.96531 0
M  V30 4311 H 396.64 -0.270656 -1.53939 0
M  V30 4312 H 397.375 2.07916 -2.48881 0
M  V30 4313 H 397.16 0.901374 -3.81599 0
M  V30 4314 H 398.65 1.88737 -3.72516 0
M  V30 4315 N 399.087 1.5561 -0.249682 0
M  V30 4316 C 400.034 2.21496 0.648694 0
M  V30 4317 C 401.004 1.17977 1.16921 0
M  V30 4318 O 402.189 1.46434 1.22318 0
M  V30 4319 C 399.329 2.92039 1.83868 0
M  V30 4320 C 398.442 4.10219 1.35442 0
M  V30 4321 C 397.577 4.6847 2.50419 0
M  V30 4322 C 396.616 5.78893 1.98869 0
M  V30 4323 N 395.753 6.31315 3.07223 0
M  V30 4324 H 400.593 2.97892 0.0801582 0
M  V30 4325 H 398.13 1.47074 0.0278031 0
M  V30 4326 H 400.088 3.31138 2.53778 0
M  V30 4327 H 398.718 2.18111 2.37965 0
M  V30 4328 H 397.77 3.76413 0.54928 0
M  V30 4329 H 399.082 4.89927 0.936649 0
M  V30 4330 H 398.236 5.10158 3.28366 0
M  V30 4331 H 396.975 3.87984 2.95499 0
M  V30 4332 H 395.98 5.3668 1.19393 0
M  V30 4333 H 397.205 6.61232 1.54755 0
M  V30 4334 H 395.151 5.53733 3.51732 0
M  V30 4335 H 395.068 7.06224 2.69784 0
M  V30 4336 H 396.336 6.77662 3.8522 0
M  V30 4337 N 400.565 -0.0233959 1.57583 0
M  V30 4338 C 401.512 -1.02224 2.06927 0
M  V30 4339 C 402.482 -1.35575 0.959617 0
M  V30 4340 O 403.667 -1.45815 1.23055 0
M  V30 4341 C 400.807 -2.31636 2.5581 0
M  V30 4342 C 399.92 -2.04394 3.80588 0
M  V30 4343 C 399.055 -3.27717 4.18061 0
M  V30 4344 C 398.094 -2.96056 5.3574 0
M  V30 4345 N 397.231 -4.11847 5.68618 0
M  V30 4346 H 402.071 -0.594504 2.9201 0
M  V30 4347 H 399.608 -0.281921 1.44373 0
M  V30 4348 H 401.566 -3.07258 2.82221 0
M  V30 4349 H 400.196 -2.72122 1.73636 0
M  V30 4350 H 399.248 -1.19244 3.61227 0
M  V30 4351 H 400.56 -1.77042 4.66323 0
M  V30 4352 H 399.714 -4.11702 4.4563 0
M  V30 4353 H 398.453 -3.58188 3.30988 0
M  V30 4354 H 397.458 -2.10474 5.07918 0
M  V30 4355 H 398.683 -2.66857 6.24471 0
M  V30 4356 H 396.629 -4.42258 4.84504 0
M  V30 4357 H 396.546 -3.87938 6.48876 0
M  V30 4358 H 397.814 -4.96689 6.00766 0
M  V30 4359 N 402.043 -1.548 -0.295768 0
M  V30 4360 C 403.273 -1.78069 -1.04762 0
M  V30 4361 C 403.681 -0.542847 -1.81245 0
M  V30 4362 O 403.024 0.497051 -1.76848 0
M  V30 4363 C 403.086 -2.93881 -2.07061 0
M  V30 4364 C 402.75 -4.31777 -1.49725 0
M  V30 4365 C 403.747 -5.11613 -0.924581 0
M  V30 4366 C 401.432 -4.78389 -1.5313 0
M  V30 4367 C 403.426 -6.36184 -0.393594 0
M  V30 4368 C 401.113 -6.02921 -0.996447 0
M  V30 4369 C 402.111 -6.81654 -0.428569 0
M  V30 4370 O 401.799 -8.0384 0.0981593 0
M  V30 4371 H 401.531 -0.597475 -0.316226 0
M  V30 4372 H 404.085 -2.02584 -0.338973 0
M  V30 4373 H 402.315 -2.65003 -2.81621 0
M  V30 4374 H 404.004 -3.04679 -2.6819 0
M  V30 4375 H 404.77 -4.76743 -0.891136 0
M  V30 4376 H 400.649 -4.17132 -1.9627 0
M  V30 4377 H 404.193 -6.97582 0.0503014 0
M  V30 4378 H 400.09 -6.37277 -1.02706 0
M  V30 4379 H 400.858 -8.18499 -0.0146455 0
M  V30 4380 N 403.521 0.559213 -1.47345 0
M  V30 4381 C 404.937 0.884943 -1.32819 0
M  V30 4382 C 405.137 1.98988 -0.317173 0
M  V30 4383 O 404.193 2.51031 0.272011 0
M  V30 4384 C 405.506 1.28007 -2.72093 0
M  V30 4385 C 407.054 1.39161 -2.80363 0
M  V30 4386 C 407.529 1.82031 -4.20272 0
M  V30 4387 N 409.02 1.89185 -4.22804 0
M  V30 4388 C 409.755 2.2368 -5.27973 0
M  V30 4389 N 409.251 2.56802 -6.43447 0
M  V30 4390 N 411.044 2.24436 -5.15349 0
M  V30 4391 H 403.195 -0.170304 -2.11716 0
M  V30 4392 H 405.458 -0.0135247 -0.947904 0
M  V30 4393 H 405.164 0.542027 -3.47498 0
M  V30 4394 H 405.038 2.23665 -3.03733 0
M  V30 4395 H 407.425 2.12048 -2.05231 0
M  V30 4396 H 407.506 0.41696 -2.52379 0
M  V30 4397 H 407.15 1.09715 -4.95908 0
M  V30 4398 H 407.08 2.80495 -4.45679 0
M  V30 4399 H 409.571 1.65982 -3.39497 0
M  V30 4400 H 409.884 2.82144 -7.19454 0
M  V30 4401 H 408.229 2.54387 -6.46771 0
M  V30 4402 H 411.42 1.97998 -4.24163 0
M  V30 4403 H 411.593 2.50989 -5.97418 0
M  V30 4404 N 404.999 1.35443 0.805782 0
M  V30 4405 C 406.246 1.28761 1.56291 0
M  V30 4406 C 406.574 -0.137747 1.94012 0
M  V30 4407 O 405.829 -1.1032 1.61642 0
M  V30 4408 C 406.128 2.14045 2.86216 0
M  V30 4409 C 405.794 3.62826 2.67709 0
M  V30 4410 C 404.456 4.0338 2.6237 0
M  V30 4411 C 406.808 4.57227 2.50186 0
M  V30 4412 C 404.136 5.36501 2.37451 0
M  V30 4413 C 406.488 5.90547 2.26797 0
M  V30 4414 C 405.152 6.30245 2.1988 0
M  V30 4415 H 404.422 0.471171 0.571908 0
M  V30 4416 H 407.069 1.67347 0.930974 0
M  V30 4417 H 405.374 1.68342 3.53791 0
M  V30 4418 H 407.071 2.0621 3.43917 0
M  V30 4419 H 403.661 3.30644 2.72713 0
M  V30 4420 H 407.845 4.2678 2.53323 0
M  V30 4421 H 403.101 5.66259 2.30567 0
M  V30 4422 H 407.275 6.63274 2.12228 0
M  V30 4423 H 404.902 7.33328 2.00333 0
M  V30 4424 N 406.477 -1.02803 1.19454 0
M  V30 4425 C 407.427 -2.0945 0.900827 0
M  V30 4426 C 408.411 -1.60335 -0.134715 0
M  V30 4427 O 409.603 -1.76857 0.0710924 0
M  V30 4428 C 406.732 -3.4044 0.442229 0
M  V30 4429 C 405.818 -3.96286 1.51056 0
M  V30 4430 N 406.209 -4.25785 2.73021 0
M  V30 4431 C 404.507 -4.24307 1.37404 0
M  V30 4432 C 405.208 -4.70654 3.41848 0
M  V30 4433 N 404.184 -4.72238 2.69243 0
M  V30 4434 H 407.986 -2.3015 1.82779 0
M  V30 4435 H 405.5 -1.20672 1.08683 0
M  V30 4436 H 407.497 -4.16354 0.21326 0
M  V30 4437 H 406.157 -3.21159 -0.478238 0
M  V30 4438 H 407.168 -4.15041 3.09776 0
M  V30 4439 H 403.845 -4.14285 0.517103 0
M  V30 4440 H 405.235 -5.02392 4.46152 0
M  V30 4441 N 407.956 -0.998596 -1.21925 0
M  V30 4442 C 409.367 -0.711939 -1.72593 0
M  V30 4443 C 409.718 0.770842 -1.80423 0
M  V30 4444 O 408.843 1.60237 -1.4544 0
M  V30 4445 C 409.438 -1.28567 -3.13458 0
M  V30 4446 C 407.997 -1.04828 -3.61508 0
M  V30 4447 C 407.144 -1.4024 -2.39224 0
M  V30 4448 H 410.095 -1.17027 -1.07193 0
M  V30 4449 H 410.116 -0.667098 -3.74607 0
M  V30 4450 H 409.628 -2.36486 -3.07727 0
M  V30 4451 H 407.729 0.0140383 -3.72597 0
M  V30 4452 H 407.842 -1.71566 -4.47328 0
M  V30 4453 H 406.206 -0.821077 -2.41103 0
M  V30 4454 H 406.989 -2.49176 -2.36149 0
M  V30 4455 N 409.434 1.37368 -0.772513 0
M  V30 4456 C 410.681 1.99673 -0.337182 0
M  V30 4457 C 411.009 1.61324 1.0865 0
M  V30 4458 O 410.264 0.851377 1.7621 0
M  V30 4459 C 410.563 3.54817 -0.428876 0
M  V30 4460 C 410.229 4.12936 -1.81092 0
M  V30 4461 C 408.891 4.28523 -2.1891 0
M  V30 4462 C 411.243 4.44801 -2.71664 0
M  V30 4463 C 408.571 4.73277 -3.46735 0
M  V30 4464 C 410.923 4.90981 -3.98899 0
M  V30 4465 C 409.587 5.04773 -4.36761 0
M  V30 4466 H 408.857 0.730656 -0.123384 0
M  V30 4467 H 411.504 1.64124 -0.986686 0
M  V30 4468 H 409.809 3.90618 0.304167 0
M  V30 4469 H 411.506 4.00933 -0.0733334 0
M  V30 4470 H 408.096 4.01233 -1.50699 0
M  V30 4471 H 412.28 4.32344 -2.43706 0
M  V30 4472 H 407.536 4.82142 -3.75964 0
M  V30 4473 H 411.71 5.14603 -4.69208 0
M  V30 4474 H 409.337 5.39211 -5.35868 0
M  V30 4475 N 410.912 0.523116 1.48665 0
M  V30 4476 C 412.189 -0.0775449 1.95446 0
M  V30 4477 C 412.569 -1.5197 1.4652 0
M  V30 4478 O 411.917 -2.17876 0.688657 0
M  V30 4479 C 412.127 0.0326135 3.48985 0
M  V30 4480 C 413.475 -0.130141 4.24401 0
M  V30 4481 O 414.499 -0.0415142 3.56176 0
M  V30 4482 O 413.358 -0.31491 5.45592 0
M  V30 4483 H 410.452 -0.0831012 0.822814 0
M  V30 4484 H 412.998 0.587227 1.59216 0
M  V30 4485 H 411.77 1.03748 3.77296 0
M  V30 4486 H 411.393 -0.671317 3.91892 0
M  V30 4487 N 412.39 -1.55475 0.257931 0
M  V30 4488 C 413.636 -1.99502 -0.364266 0
M  V30 4489 C 413.969 -1.146 -1.56782 0
M  V30 4490 O 413.244 -0.211968 -1.93342 0
M  V30 4491 C 413.527 -3.51917 -0.763333 0
M  V30 4492 C 413.38 -4.4758 0.446371 0
M  V30 4493 C 414.699 -4.09742 -1.60623 0
M  V30 4494 H 411.818 -0.725277 -0.130929 0
M  V30 4495 H 414.46 -1.8653 0.361446 0
M  V30 4496 H 412.61 -3.63101 -1.38166 0
M  V30 4497 H 414.282 -4.48362 1.08487 0
M  V30 4498 H 412.525 -4.19947 1.08753 0
M  V30 4499 H 413.196 -5.51862 0.123645 0
M  V30 4500 H 415.672 -4.01727 -1.08418 0
M  V30 4501 H 414.548 -5.16631 -1.85429 0
M  V30 4502 H 414.809 -3.58889 -2.58169 0
M  V30 4503 N 413.868 0.0150385 -1.57593 0
M  V30 4504 C 415.096 0.714395 -1.94175 0
M  V30 4505 C 415.511 1.68135 -0.858841 0
M  V30 4506 O 414.868 1.81766 0.163567 0
M  V30 4507 C 414.919 1.45933 -3.30735 0
M  V30 4508 O 414.64 0.531167 -4.34868 0
M  V30 4509 C 416.141 2.25456 -3.81686 0
M  V30 4510 H 413.361 0.199923 -0.640525 0
M  V30 4511 H 415.905 -0.0316096 -2.04476 0
M  V30 4512 H 414.06 2.15709 -3.21789 0
M  V30 4513 H 414.474 1.05509 -5.13778 0
M  V30 4514 H 415.948 2.731 -4.79709 0
M  V30 4515 H 416.425 3.07485 -3.13607 0
M  V30 4516 H 417.031 1.60727 -3.9376 0
M  V30 4517 N 415.346 1.54954 0.287554 0
M  V30 4518 C 416.293 1.86834 1.35505 0
M  V30 4519 C 417.263 0.718452 1.49758 0
M  V30 4520 O 418.448 0.968358 1.644 0
M  V30 4521 C 415.588 2.13303 2.71286 0
M  V30 4522 C 414.701 3.40883 2.65373 0
M  V30 4523 C 413.836 3.57125 3.93236 0
M  V30 4524 C 412.875 4.78449 3.81776 0
M  V30 4525 N 412.012 4.91426 5.01443 0
M  V30 4526 H 416.852 2.77889 1.07619 0
M  V30 4527 H 414.389 1.37593 0.520241 0
M  V30 4528 H 416.347 2.26646 3.50267 0
M  V30 4529 H 414.977 1.25499 2.97405 0
M  V30 4530 H 414.029 3.36088 1.78182 0
M  V30 4531 H 415.341 4.29993 2.52799 0
M  V30 4532 H 414.495 3.70207 4.80658 0
M  V30 4533 H 413.234 2.66173 4.0866 0
M  V30 4534 H 412.239 4.65386 2.92738 0
M  V30 4535 H 413.464 5.70822 3.67884 0
M  V30 4536 H 411.41 4.03401 5.17304 0
M  V30 4537 H 411.327 5.74559 4.91343 0
M  V30 4538 H 412.595 5.08879 5.90477 0
M  V30 4539 N 416.824 -0.551391 1.4764 0
M  V30 4540 C 418.073 -1.30467 1.53822 0
M  V30 4541 C 418.386 -1.94495 0.207661 0
M  V30 4542 O 419.592 -2.71099 0.147533 0
M  V30 4543 C 418.048 -2.36616 2.71184 0
M  V30 4544 C 417.656 -1.78754 4.10793 0
M  V30 4545 C 419.4 -3.13088 2.86663 0
M  V30 4546 C 417.307 -2.82717 5.19447 0
M  V30 4547 H 416.237 -0.490584 0.572576 0
M  V30 4548 H 418.888 -0.58494 1.73927 0
M  V30 4549 H 417.27 -3.11529 2.4447 0
M  V30 4550 H 418.444 -1.10173 4.47435 0
M  V30 4551 H 416.759 -1.14846 4.00249 0
M  V30 4552 H 419.356 -3.90736 3.65007 0
M  V30 4553 H 419.699 -3.67635 1.95321 0
M  V30 4554 H 420.232 -2.45288 3.13175 0
M  V30 4555 H 416.971 -2.33018 6.12685 0
M  V30 4556 H 416.491 -3.4969 4.87316 0
M  V30 4557 H 418.17 -3.46102 5.46646 0
M  V30 4558 N 418.302 -1.35869 -0.798587 0
M  V30 4559 C 419.548 -1.30788 -1.55775 0
M  V30 4560 C 419.903 0.114558 -1.92059 0
M  V30 4561 O 419.196 1.06691 -1.59147 0
M  V30 4562 C 419.39 -2.1556 -2.85077 0
M  V30 4563 C 419.219 -3.65904 -2.61428 0
M  V30 4564 C 417.989 -4.35112 -2.56915 0
M  V30 4565 C 420.187 -4.59375 -2.31255 0
M  V30 4566 N 418.169 -5.71155 -2.25068 0
M  V30 4567 C 419.54 -5.83598 -2.09316 0
M  V30 4568 C 421.595 -4.48035 -2.17185 0
M  V30 4569 C 420.298 -6.97755 -1.74731 0
M  V30 4570 C 422.324 -5.62049 -1.83998 0
M  V30 4571 C 421.686 -6.85305 -1.629 0
M  V30 4572 H 417.785 -0.533855 -0.571422 0
M  V30 4573 H 420.369 -1.7083 -0.934079 0
M  V30 4574 H 418.54 -1.77776 -3.45326 0
M  V30 4575 H 420.272 -2.01938 -3.50718 0
M  V30 4576 H 417.027 -3.87812 -2.71843 0
M  V30 4577 H 417.451 -6.42978 -2.11916 0
M  V30 4578 H 422.093 -3.53338 -2.3219 0
M  V30 4579 H 419.811 -7.92411 -1.58464 0
M  V30 4580 H 423.397 -5.55232 -1.73808 0
M  V30 4581 H 422.277 -7.72034 -1.37596 0
M  V30 4582 N 419.78 1.02168 -1.19998 0
M  V30 4583 C 421.01 1.79036 -1.031 0
M  V30 4584 C 421.418 1.84409 0.423078 0
M  V30 4585 O 420.761 1.29228 1.30559 0
M  V30 4586 C 420.823 3.25185 -1.53281 0
M  V30 4587 C 420.487 3.43431 -3.01503 0
M  V30 4588 C 421.484 3.33063 -3.99206 0
M  V30 4589 C 419.169 3.69412 -3.40353 0
M  V30 4590 C 421.163 3.48413 -5.33748 0
M  V30 4591 C 418.85 3.84406 -4.75053 0
M  V30 4592 C 419.848 3.7391 -5.71559 0
M  V30 4593 O 419.536 3.88452 -7.03818 0
M  V30 4594 H 419.268 0.570043 -0.363355 0
M  V30 4595 H 421.822 1.29524 -1.59414 0
M  V30 4596 H 420.052 3.75756 -0.913483 0
M  V30 4597 H 421.741 3.83671 -1.32481 0
M  V30 4598 H 422.507 3.12934 -3.70537 0
M  V30 4599 H 418.386 3.76671 -2.65782 0
M  V30 4600 H 421.93 3.40137 -6.09059 0
M  V30 4601 H 417.827 4.04035 -5.03415 0
M  V30 4602 H 418.595 4.055 -7.10993 0
M  V30 4603 N 421.258 1.00505 1.21394 0
M  V30 4604 C 422.188 0.585684 2.26035 0
M  V30 4605 C 423.169 -0.393525 1.65485 0
M  V30 4606 O 424.354 -0.281497 1.92149 0
M  V30 4607 C 421.484 -0.0884283 3.47187 0
M  V30 4608 C 420.438 0.810567 4.20254 0
M  V30 4609 C 419.764 0.00286382 5.347 0
M  V30 4610 C 421.064 2.1132 4.77641 0
M  V30 4611 H 422.758 1.46039 2.61368 0
M  V30 4612 H 420.304 0.703648 1.25638 0
M  V30 4613 H 422.257 -0.393286 4.19561 0
M  V30 4614 H 420.981 -0.997766 3.10986 0
M  V30 4615 H 419.64 1.09925 3.49731 0
M  V30 4616 H 419.288 -0.907765 4.94741 0
M  V30 4617 H 418.988 0.601444 5.84514 0
M  V30 4618 H 420.512 -0.295808 6.09883 0
M  V30 4619 H 421.926 1.87148 5.41893 0
M  V30 4620 H 420.323 2.66164 5.37845 0
M  V30 4621 H 421.393 2.78393 3.9702 0
M  V30 4622 N 422.737 -1.36956 0.779787 0
M  V30 4623 C 423.669 -2.28833 0.129639 0
M  V30 4624 C 424.682 -1.4902 -0.655511 0
M  V30 4625 O 425.871 -1.71578 -0.492279 0
M  V30 4626 C 422.971 -3.2833 -0.839792 0
M  V30 4627 C 422.144 -4.3727 -0.10675 0
M  V30 4628 C 421.203 -5.16789 -0.990717 0
M  V30 4629 O 420.229 -5.67406 -0.451516 0
M  V30 4630 N 421.431 -5.32294 -2.3161 0
M  V30 4631 H 424.196 -2.85268 0.918803 0
M  V30 4632 H 421.757 -1.49019 0.632841 0
M  V30 4633 H 423.749 -3.78413 -1.43477 0
M  V30 4634 H 422.319 -2.72605 -1.52988 0
M  V30 4635 H 421.539 -3.88478 0.669216 0
M  V30 4636 H 422.827 -5.07229 0.399464 0
M  V30 4637 H 422.225 -4.92768 -2.77843 0
M  V30 4638 H 420.782 -5.85656 -2.86095 0
M  V30 4639 N 424.215 -0.530993 -1.48385 0
M  V30 4640 C 425.492 0.0671788 -1.95485 0
M  V30 4641 C 425.872 1.51191 -1.47324 0
M  V30 4642 O 425.22 2.17507 -0.700202 0
M  V30 4643 C 425.43 -0.0511206 -3.48963 0
M  V30 4644 C 426.778 0.107632 -4.24464 0
M  V30 4645 O 427.802 0.0226248 -3.56193 0
M  V30 4646 O 426.661 0.285972 -5.45751 0
M  V30 4647 H 423.755 0.0787365 -0.823243 0
M  V30 4648 H 426.301 -0.595662 -1.58902 0
M  V30 4649 H 425.073 -1.05747 -3.7674 0
M  V30 4650 H 424.696 0.650525 -3.92242 0
M  V30 4651 N 425.693 1.55336 -0.266172 0
M  V30 4652 C 426.923 2.03506 0.356239 0
M  V30 4653 C 427.331 1.14426 1.50676 0
M  V30 4654 O 426.674 0.155043 1.83045 0
M  V30 4655 C 426.736 3.47848 0.90785 0
M  V30 4656 C 426.4 4.56861 -0.112888 0
M  V30 4657 C 427.397 5.11528 -0.929264 0
M  V30 4658 C 425.082 5.01704 -0.244546 0
M  V30 4659 C 427.076 6.09549 -1.86357 0
M  V30 4660 C 424.763 5.99553 -1.18234 0
M  V30 4661 C 425.761 6.53356 -1.99036 0
M  V30 4662 O 425.449 7.49293 -2.91231 0
M  V30 4663 H 425.181 0.670444 0.08649 0
M  V30 4664 H 427.735 2.01598 -0.39337 0
M  V30 4665 H 425.965 3.46967 1.70737 0
M  V30 4666 H 427.654 3.79407 1.44239 0
M  V30 4667 H 428.42 4.77701 -0.838237 0
M  V30 4668 H 424.299 4.59477 0.374359 0
M  V30 4669 H 427.843 6.51469 -2.49467 0
M  V30 4670 H 423.74 6.32799 -1.27421 0
M  V30 4671 H 424.508 7.66978 -2.8581 0
M  V30 4672 N 427.171 -0.0066808 1.57599 0
M  V30 4673 C 428.582 -0.550379 1.78403 0
M  V30 4674 C 428.933 -1.74339 0.900014 0
M  V30 4675 O 428.058 -2.16166 0.100713 0
M  V30 4676 C 428.653 -1.00523 3.23544 0
M  V30 4677 C 427.212 -1.49428 3.45468 0
M  V30 4678 C 426.359 -0.442444 2.73748 0
M  V30 4679 H 429.31 0.219508 1.57175 0
M  V30 4680 H 429.331 -1.87157 3.31289 0
M  V30 4681 H 428.843 -0.136735 3.87859 0
M  V30 4682 H 426.944 -2.3839 2.86358 0
M  V30 4683 H 427.057 -1.52635 4.54136 0
M  V30 4684 H 425.421 -0.902578 2.38171 0
M  V30 4685 H 426.204 0.416973 3.40758 0
M  V30 4686 N 428.649 -1.55105 -0.279332 0
M  V30 4687 C 429.579 -1.90557 -1.34945 0
M  V30 4688 C 430.56 -0.766738 -1.51839 0
M  V30 4689 O 431.745 -1.02434 -1.64988 0
M  V30 4690 C 428.875 -2.17193 -2.71006 0
M  V30 4691 C 427.829 -3.33021 -2.68851 0
M  V30 4692 C 427.155 -3.45123 -4.08405 0
M  V30 4693 C 428.455 -4.69578 -2.28678 0
M  V30 4694 H 430.149 -2.80188 -1.05522 0
M  V30 4695 H 427.695 -1.34811 -0.506173 0
M  V30 4696 H 429.648 -2.40581 -3.45975 0
M  V30 4697 H 428.372 -1.24355 -3.01999 0
M  V30 4698 H 427.031 -3.0959 -1.9634 0
M  V30 4699 H 426.679 -2.49762 -4.3661 0
M  V30 4700 H 426.379 -4.22995 -4.07859 0
M  V30 4701 H 427.903 -3.70796 -4.85121 0
M  V30 4702 H 429.317 -4.92553 -2.93368 0
M  V30 4703 H 427.714 -5.5032 -2.39306 0
M  V30 4704 H 428.784 -4.68828 -1.23807 0
M  V30 4705 N 430.127 0.543554 -1.4793 0
M  V30 4706 C 431.06 1.66556 -1.55995 0
M  V30 4707 C 432.038 1.57315 -0.411205 0
M  V30 4708 O 433.222 1.7798 -0.620922 0
M  V30 4709 C 430.349 3.04883 -1.47527 0
M  V30 4710 C 429.395 3.32526 -2.67074 0
M  V30 4711 S 430.228 3.20282 -4.29162 0
M  V30 4712 C 431.384 4.61079 -4.23269 0
M  V30 4713 H 431.617 1.59462 -2.50917 0
M  V30 4714 H 429.15 0.725456 -1.36296 0
M  V30 4715 H 431.108 3.84665 -1.43328 0
M  V30 4716 H 429.769 3.09429 -0.539665 0
M  V30 4717 H 428.962 4.33403 -2.5725 0
M  V30 4718 H 428.564 2.60389 -2.68466 0
M  V30 4719 H 430.856 5.52318 -3.92365 0
M  V30 4720 H 431.799 4.75959 -5.24279 0
M  V30 4721 H 432.207 4.39766 -3.5393 0
M  V30 4722 N 431.605 1.3629 0.791371 0
M  V30 4723 C 432.515 1.32606 1.93527 0
M  V30 4724 C 433.531 0.228541 1.72493 0
M  V30 4725 O 434.707 0.460571 1.96063 0
M  V30 4726 C 431.772 1.11271 3.28359 0
M  V30 4727 C 430.833 2.3048 3.62185 0
M  V30 4728 C 430.066 2.10154 4.90583 0
M  V30 4729 O 430.289 1.07572 5.60165 0
M  V30 4730 O 429.223 2.97884 5.23019 0
M  V30 4731 H 433.049 2.28909 1.99585 0
M  V30 4732 H 430.634 1.16818 0.931344 0
M  V30 4733 H 432.516 1.01283 4.09047 0
M  V30 4734 H 431.191 0.180292 3.23198 0
M  V30 4735 H 430.098 2.46036 2.81811 0
M  V30 4736 H 431.431 3.22221 3.72068 0
M  V30 4737 N 433.083 -1.0153 1.20538 0
M  V30 4738 C 434.329 -1.75408 1.01783 0
M  V30 4739 C 434.662 -1.88943 -0.448814 0
M  V30 4740 O 433.937 -1.4162 -1.33319 0
M  V30 4741 C 434.22 -3.17255 1.70356 0
M  V30 4742 C 434.073 -3.11508 3.24473 0
M  V30 4743 C 435.392 -4.15955 1.43769 0
M  V30 4744 H 432.511 -0.636713 0.371167 0
M  V30 4745 H 435.153 -1.18436 1.4857 0
M  V30 4746 H 433.303 -3.65898 1.30578 0
M  V30 4747 H 434.975 -2.70658 3.73553 0
M  V30 4748 H 433.218 -2.4887 3.55311 0
M  V30 4749 H 433.889 -4.11784 3.67611 0
M  V30 4750 H 436.365 -3.75973 1.7828 0
M  V30 4751 H 435.241 -5.13368 1.94279 0
M  V30 4752 H 435.502 -4.40586 0.365564 0
M  V30 4753 N 434.561 -1.01147 -1.20859 0
M  V30 4754 C 435.809 -0.696486 -1.89719 0
M  V30 4755 C 436.13 0.775788 -1.78904 0
M  V30 4756 O 435.4 1.55759 -1.18811 0
M  V30 4757 H 433.98 -0.254628 -0.702263 0
M  V30 4758 H 436.642 -1.28197 -1.46804 0
M  V30 4759 H 435.738 -0.975357 -2.96468 0
M  V30 4760 N 436.039 1.36541 -0.78704 0
M  V30 4761 C 437.288 1.98552 -0.35494 0
M  V30 4762 C 437.601 1.63171 1.07864 0
M  V30 4763 O 438.807 2.18399 1.61289 0
M  V30 4764 C 437.263 3.55136 -0.583671 0
M  V30 4765 C 436.871 3.99444 -2.02851 0
M  V30 4766 C 438.615 4.2395 -0.215957 0
M  V30 4767 C 436.522 5.48796 -2.20403 0
M  V30 4768 H 435.452 0.742888 -0.128972 0
M  V30 4769 H 438.103 1.5587 -0.968337 0
M  V30 4770 H 436.485 3.95875 0.0994046 0
M  V30 4771 H 437.659 3.6991 -2.74779 0
M  V30 4772 H 435.974 3.43459 -2.35425 0
M  V30 4773 H 438.571 5.33709 -0.325405 0
M  V30 4774 H 438.914 4.07827 0.835646 0
M  V30 4775 H 439.447 3.88565 -0.852175 0
M  V30 4776 H 436.186 5.69864 -3.23937 0
M  V30 4777 H 435.706 5.79964 -1.52977 0
M  V30 4778 H 437.385 6.14986 -2.01002 0
M  V30 4779 N 437.518 0.538854 1.48102 0
M  V30 4780 C 438.764 0.00801365 2.02798 0
M  V30 4781 C 439.097 -1.3309 1.41424 0
M  V30 4782 O 438.372 -1.86169 0.563158 0
M  V30 4783 C 438.655 -0.104589 3.59948 0
M  V30 4784 C 438.508 1.26012 4.31788 0
M  V30 4785 C 439.827 -0.827055 4.32259 0
M  V30 4786 H 436.946 0.00438624 0.736987 0
M  V30 4787 H 439.588 0.6976 1.7673 0
M  V30 4788 H 437.738 -0.691893 3.82289 0
M  V30 4789 H 439.41 1.88922 4.2084 0
M  V30 4790 H 437.653 1.83968 3.92859 0
M  V30 4791 H 438.324 1.13424 5.40221 0
M  V30 4792 H 440.8 -0.328578 4.14801 0
M  V30 4793 H 439.676 -0.87476 5.41885 0
M  V30 4794 H 439.937 -1.87927 4.0017 0
M  V30 4795 N 438.996 -1.55193 0.274407 0
M  V30 4796 C 439.906 -2.26164 -0.623473 0
M  V30 4797 C 440.922 -1.28729 -1.17068 0
M  V30 4798 O 442.098 -1.61663 -1.20112 0
M  V30 4799 C 439.163 -2.96833 -1.7914 0
M  V30 4800 C 438.224 -4.09745 -1.28093 0
M  V30 4801 C 437.457 -4.77034 -2.3932 0
M  V30 4802 O 437.68 -4.4353 -3.5866 0
M  V30 4803 O 436.614 -5.64996 -2.07516 0
M  V30 4804 H 440.44 -3.03661 -0.0485661 0
M  V30 4805 H 438.025 -1.49341 0.0418382 0
M  V30 4806 H 439.907 -3.41248 -2.4724 0
M  V30 4807 H 438.582 -2.22253 -2.35341 0
M  V30 4808 H 437.489 -3.69787 -0.566416 0
M  V30 4809 H 438.822 -4.86224 -0.764683 0
M  V30 4810 N 440.474 -0.00167713 -1.576 0
M  V30 4811 C 441.404 0.988091 -2.11563 0
M  V30 4812 C 442.385 1.35736 -1.02517 0
M  V30 4813 O 443.57 1.44082 -1.30208 0
M  V30 4814 C 440.7 2.27941 -2.62031 0
M  V30 4815 C 439.654 2.0517 -3.75619 0
M  V30 4816 C 438.98 3.4033 -4.12407 0
M  V30 4817 C 440.28 1.41294 -5.02825 0
M  V30 4818 H 441.974 0.538771 -2.94513 0
M  V30 4819 H 439.52 0.257712 -1.41675 0
M  V30 4820 H 441.473 2.97539 -2.9841 0
M  V30 4821 H 440.197 2.74989 -1.76205 0
M  V30 4822 H 438.856 1.37998 -3.39635 0
M  V30 4823 H 438.504 3.85085 -3.23603 0
M  V30 4824 H 438.204 3.25909 -4.88935 0
M  V30 4825 H 439.728 4.1124 -4.51347 0
M  V30 4826 H 441.142 2.00851 -5.36965 0
M  V30 4827 H 439.539 1.37356 -5.84169 0
M  V30 4828 H 440.609 0.382362 -4.8339 0
M  V30 4829 N 441.952 1.55251 0.271103 0
M  V30 4830 C 442.9 1.89054 1.35504 0
M  V30 4831 C 443.894 0.767064 1.51038 0
M  V30 4832 O 445.1 0.951429 1.528 0
M  V30 4833 H 441.475 0.600072 0.45323 0
M  V30 4834 H 443.446 2.79598 1.04247 0
M  V30 4835 C 442.195 2.18068 2.70817 0
M  V30 4836 H 441.518 3.04005 2.59656 0
M  V30 4837 H 442.958 2.4564 3.45597 0
M  V30 4838 C 441.417 0.988901 3.2206 0
M  V30 4839 O 441.947 0.224501 4.01072 0
M  V30 4840 N 440.153 0.786085 2.79766 0
M  V30 4841 H 439.7 1.40937 2.15626 0
M  V30 4842 H 439.658 -0.00969349 3.14399 0
M  V30 4843 N 443.43 -0.535701 1.48216 0
M  V30 4844 C 444.377 -1.64083 1.62312 0
M  V30 4845 C 445.347 -1.59448 0.465365 0
M  V30 4846 O 446.532 -1.77959 0.688135 0
M  V30 4847 C 443.672 -3.0236 1.66349 0
M  V30 4848 C 442.785 -3.17273 2.93193 0
M  V30 4849 C 441.92 -4.46075 2.88427 0
M  V30 4850 C 440.959 -4.54496 4.1 0
M  V30 4851 N 440.096 -5.7468 4.03345 0
M  V30 4852 H 444.936 -1.51374 2.5669 0
M  V30 4853 H 442.473 -0.737059 1.27302 0
M  V30 4854 H 444.431 -3.82461 1.66672 0
M  V30 4855 H 443.061 -3.13854 0.754672 0
M  V30 4856 H 442.113 -2.30462 3.02641 0
M  V30 4857 H 443.425 -3.19357 3.83162 0
M  V30 4858 H 442.579 -5.3446 2.87119 0
M  V30 4859 H 441.318 -4.46504 1.96177 0
M  V30 4860 H 440.323 -3.64519 4.11589 0
M  V30 4861 H 441.548 -4.5581 5.03402 0
M  V30 4862 H 439.494 -5.76017 3.13912 0
M  V30 4863 H 439.411 -5.78234 4.87013 0
M  V30 4864 H 440.679 -6.65367 4.06087 0
M  V30 4865 N 444.908 -1.36708 -0.784132 0
M  V30 4866 C 445.856 -1.31533 -1.91838 0
M  V30 4867 C 446.85 -0.206205 -1.6814 0
M  V30 4868 O 448.056 -0.373519 -1.76082 0
M  V30 4869 H 444.431 -0.409613 -0.630651 0
M  V30 4870 H 446.402 -2.2731 -1.9332 0
M  V30 4871 C 445.151 -1.12679 -3.28936 0
M  V30 4872 H 444.474 -1.97274 -3.4774 0
M  V30 4873 H 445.914 -1.13106 -4.08636 0
M  V30 4874 C 444.373 0.168281 -3.36479 0
M  V30 4875 O 444.903 1.15625 -3.84699 0
M  V30 4876 N 443.109 0.214762 -2.89805 0
M  V30 4877 H 442.656 -0.589852 -2.50756 0
M  V30 4878 H 442.614 1.08094 -2.95234 0
M  V30 4879 N 446.386 1.0089 -1.21074 0
M  V30 4880 C 447.797 1.56056 -1.02486 0
M  V30 4881 C 448.148 1.91728 0.416506 0
M  V30 4882 O 447.273 1.73066 1.29912 0
M  V30 4883 C 447.868 2.83563 -1.85411 0
M  V30 4884 C 446.427 3.3523 -1.71166 0
M  V30 4885 C 445.574 2.0846 -1.82865 0
M  V30 4886 H 448.525 0.831818 -1.35154 0
M  V30 4887 H 448.546 3.55286 -1.36205 0
M  V30 4888 H 448.058 2.57569 -2.9031 0
M  V30 4889 H 446.159 3.66167 -0.689361 0
M  V30 4890 H 446.272 4.06913 -2.52901 0
M  V30 4891 H 444.636 2.21275 -1.26132 0
M  V30 4892 H 445.419 1.84883 -2.89263 0
M  V30 4893 N 447.864 1.01787 1.20321 0
M  V30 4894 C 448.774 0.598898 2.26827 0
M  V30 4895 C 449.79 -0.36418 1.70146 0
M  V30 4896 O 450.966 -0.224812 2.00141 0
M  V30 4897 C 448.031 -0.0549769 3.46656 0
M  V30 4898 C 447.092 0.954205 4.18561 0
M  V30 4899 C 446.325 0.331439 5.3267 0
M  V30 4900 O 446.548 -0.86851 5.63749 0
M  V30 4901 O 445.482 1.0488 5.92692 0
M  V30 4902 H 449.308 1.48562 2.64883 0
M  V30 4903 H 446.893 0.787434 1.26964 0
M  V30 4904 H 448.775 -0.420102 4.19301 0
M  V30 4905 H 447.45 -0.915876 3.10473 0
M  V30 4906 H 446.357 1.37072 3.48083 0
M  V30 4907 H 447.69 1.78511 4.58688 0
M  V30 4908 N 449.342 -1.36122 0.79427 0
M  V30 4909 C 450.29 -2.31871 0.184023 0
M  V30 4910 C 451.284 -1.56041 -0.659365 0
M  V30 4911 O 452.49 -1.71266 -0.553906 0
M  V30 4912 H 448.865 -0.750896 0.0407373 0
M  V30 4913 H 450.836 -2.80898 1.00693 0
M  V30 4914 C 449.585 -3.41324 -0.662813 0
M  V30 4915 H 448.908 -3.99793 -0.0231944 0
M  V30 4916 H 450.348 -4.10629 -1.05639 0
M  V30 4917 C 448.807 -2.83308 -1.82313 0
M  V30 4918 O 449.337 -2.75863 -2.91997 0
M  V30 4919 N 447.543 -2.40529 -1.63077 0
M  V30 4920 H 447.09 -2.46785 -0.738591 0
M  V30 4921 H 447.048 -2.02059 -2.40872 0
M  V30 4922 N 450.82 -0.546701 -1.47814 0
M  V30 4923 C 452.05 -0.0232519 -2.06587 0
M  V30 4924 C 452.458 1.2712 -1.40133 0
M  V30 4925 O 451.801 1.77091 -0.488305 0
M  V30 4926 C 451.863 0.254117 -3.58601 0
M  V30 4927 C 451.527 -0.949331 -4.47031 0
M  V30 4928 C 452.524 -1.85216 -4.85789 0
M  V30 4929 C 450.209 -1.16104 -4.88697 0
M  V30 4930 C 452.203 -2.95047 -5.65001 0
M  V30 4931 C 449.89 -2.26247 -5.67676 0
M  V30 4932 C 450.888 -3.1555 -6.05737 0
M  V30 4933 O 450.576 -4.23784 -6.83127 0
M  V30 4934 H 450.308 -0.0380082 -0.674931 0
M  V30 4935 H 452.862 -0.756631 -1.90956 0
M  V30 4936 H 451.092 1.04168 -3.72406 0
M  V30 4937 H 452.781 0.72167 -3.99433 0
M  V30 4938 H 453.547 -1.70061 -4.54207 0
M  V30 4939 H 449.426 -0.475159 -4.58545 0
M  V30 4940 H 452.97 -3.64778 -5.94628 0
M  V30 4941 H 448.867 -2.41379 -5.98671 0
M  V30 4942 H 449.635 -4.21701 -7.01506 0
M  V30 4943 N 452.299 1.55045 -0.282633 0
M  V30 4944 C 453.546 1.9976 0.33199 0
M  V30 4945 C 453.874 1.17105 1.55295 0
M  V30 4946 O 453.129 0.230599 1.94337 0
M  V30 4947 C 453.428 3.49422 0.750938 0
M  V30 4948 C 453.094 4.4941 -0.366228 0
M  V30 4949 C 451.756 4.76471 -0.672964 0
M  V30 4950 C 454.108 5.09054 -1.11864 0
M  V30 4951 C 451.436 5.60442 -1.73556 0
M  V30 4952 C 453.788 5.9418 -2.17102 0
M  V30 4953 C 452.452 6.19558 -2.48402 0
M  V30 4954 H 451.722 0.730974 0.121484 0
M  V30 4955 H 454.369 1.8732 -0.39791 0
M  V30 4956 H 452.674 3.59377 1.56063 0
M  V30 4957 H 454.371 3.81432 1.23736 0
M  V30 4958 H 450.961 4.2844 -0.117041 0
M  V30 4959 H 455.145 4.88165 -0.894925 0
M  V30 4960 H 450.401 5.78349 -1.983 0
M  V30 4961 H 454.575 6.39427 -2.75873 0
M  V30 4962 H 452.202 6.84417 -3.30874 0
M  V30 4963 N 453.777 0.010035 1.57597 0
M  V30 4964 C 454.74 -0.963029 2.07986 0
M  V30 4965 C 455.74 -1.26619 0.991173 0
M  V30 4966 O 456.93 -1.2097 1.25347 0
M  V30 4967 C 454.062 -2.2851 2.52974 0
M  V30 4968 H 455.255 -0.526971 2.95234 0
M  V30 4969 H 452.808 -0.237639 1.54483 0
M  V30 4970 H 453.543 -2.76784 1.69 0
M  V30 4971 H 453.328 -2.07824 3.32493 0
M  V30 4972 H 454.818 -2.98294 2.9225 0
M  V30 4973 N 455.255 -1.55392 -0.262866 0
M  V30 4974 C 456.165 -1.92077 -1.34698 0
M  V30 4975 C 457.181 -0.819227 -1.53508 0
M  V30 4976 O 458.357 -1.11921 -1.67439 0
M  V30 4977 C 455.422 -2.19407 -2.68443 0
M  V30 4978 C 454.483 -3.42905 -2.58292 0
M  V30 4979 C 453.716 -3.68921 -3.85659 0
M  V30 4980 O 453.939 -2.97275 -4.8681 0
M  V30 4981 O 452.873 -4.62455 -3.85252 0
M  V30 4982 H 456.699 -2.84384 -1.06581 0
M  V30 4983 H 454.284 -1.42069 -0.462264 0
M  V30 4984 H 456.166 -2.38365 -3.47506 0
M  V30 4985 H 454.841 -1.30282 -2.96325 0
M  V30 4986 H 453.748 -3.29272 -1.7757 0
M  V30 4987 H 455.081 -4.32282 -2.35358 0
M  V30 4988 N 456.733 0.527833 -1.48498 0
M  V30 4989 C 457.979 1.28545 -1.56857 0
M  V30 4990 C 458.312 1.92678 -0.242651 0
M  V30 4991 O 457.587 1.79394 0.751545 0
M  V30 4992 C 457.87 2.37314 -2.70839 0
M  V30 4993 C 457.723 1.77858 -4.13142 0
M  V30 4994 C 459.042 3.39068 -2.80573 0
M  V30 4995 H 456.161 0.466006 -0.570971 0
M  V30 4996 H 458.803 0.587784 -1.8068 0
M  V30 4997 H 456.953 2.96821 -2.50658 0
M  V30 4998 H 458.625 1.22385 -4.44769 0
M  V30 4999 H 456.868 1.08383 -4.20042 0
M  V30 5000 H 457.539 2.56624 -4.88721 0
M  V30 5001 H 460.015 2.89518 -2.98862 0
M  V30 5002 H 458.891 4.12566 -3.6205 0
M  V30 5003 H 459.152 3.9975 -1.88818 0
M  V30 5004 N 458.211 1.37122 0.776871 0
M  V30 5005 C 459.121 1.34651 1.9211 0
M  V30 5006 C 460.137 0.246824 1.7224 0
M  V30 5007 O 461.313 0.48134 1.95563 0
M  V30 5008 C 458.378 1.14748 3.2716 0
M  V30 5009 C 457.439 2.34308 3.5972 0
M  V30 5010 C 456.672 2.15345 4.88326 0
M  V30 5011 O 456.895 1.13507 5.58992 0
M  V30 5012 O 455.829 3.03414 5.1983 0
M  V30 5013 H 459.655 2.31013 1.97146 0
M  V30 5014 H 457.24 1.17799 0.918901 0
M  V30 5015 H 459.122 1.05616 4.0795 0
M  V30 5016 H 457.797 0.214562 3.22988 0
M  V30 5017 H 456.704 2.49011 2.79185 0
M  V30 5018 H 458.037 3.26149 3.68629 0
M  V30 5019 N 459.689 -1.00246 1.21608 0
M  V30 5020 C 460.621 -2.09244 0.935401 0
M  V30 5021 C 461.634 -1.62592 -0.0823594 0
M  V30 5022 O 462.823 -1.77865 0.150456 0
M  V30 5023 C 459.923 -3.36724 0.383453 0
M  V30 5024 C 459.096 -4.1245 1.45615 0
M  V30 5025 C 458.155 -5.18219 0.912991 0
M  V30 5026 O 457.181 -5.46337 1.59701 0
M  V30 5027 N 458.383 -5.7987 -0.270478 0
M  V30 5028 H 461.148 -2.33905 1.87373 0
M  V30 5029 H 458.709 -1.16748 1.12167 0
M  V30 5030 H 460.701 -4.047 0.00562157 0
M  V30 5031 H 459.271 -3.09201 -0.459758 0
M  V30 5032 H 458.491 -3.39241 2.00772 0
M  V30 5033 H 459.779 -4.59819 2.17817 0
M  V30 5034 H 459.177 -5.59381 -0.843195 0
M  V30 5035 H 457.734 -6.49126 -0.589794 0
M  V30 5036 N 461.167 -1.02423 -1.1978 0
M  V30 5037 C 462.13 -0.605703 -2.21052 0
M  V30 5038 C 463.13 0.328209 -1.57415 0
M  V30 5039 O 464.32 0.115853 -1.73814 0
M  V30 5040 C 461.452 0.114366 -3.40708 0
M  V30 5041 H 462.645 -1.5017 -2.59594 0
M  V30 5042 H 460.198 -0.814888 -1.33376 0
M  V30 5043 H 460.933 1.02492 -3.07678 0
M  V30 5044 H 460.718 -0.556641 -3.88129 0
M  V30 5045 H 462.208 0.394272 -4.15735 0
M  V30 5046 N 462.645 1.35699 -0.801477 0
M  V30 5047 C 463.608 2.28199 -0.213994 0
M  V30 5048 C 464.608 1.49359 0.595691 0
M  V30 5049 O 465.798 1.69186 0.414921 0
M  V30 5050 C 462.93 3.33587 0.702297 0
M  V30 5051 H 464.123 2.81666 -1.02976 0
M  V30 5052 H 461.676 1.45467 -0.571759 0
M  V30 5053 H 462.411 2.85297 1.54195 0
M  V30 5054 H 462.196 3.91906 0.123484 0
M  V30 5055 H 463.686 4.02638 1.10783 0
M  V30 5056 N 464.123 0.554532 1.47522 0
M  V30 5057 C 465.37 0.029479 2.02479 0
M  V30 5058 C 465.698 -1.31929 1.42916 0
M  V30 5059 O 464.953 -1.87112 0.573385 0
M  V30 5060 C 465.252 -0.115927 3.57212 0
M  V30 5061 C 464.918 1.16161 4.3568 0
M  V30 5062 C 463.58 1.51168 4.56839 0
M  V30 5063 C 465.932 2.0083 4.80954 0
M  V30 5064 C 463.26 2.70696 5.2052 0
M  V30 5065 C 465.612 3.19559 5.45953 0
M  V30 5066 C 464.276 3.54882 5.65345 0
M  V30 5067 H 463.546 0.0107871 0.740921 0
M  V30 5068 H 466.193 0.725506 1.77225 0
M  V30 5069 H 464.498 -0.894902 3.81443 0
M  V30 5070 H 466.195 -0.53749 3.97381 0
M  V30 5071 H 462.785 0.879026 4.19489 0
M  V30 5072 H 466.969 1.75093 4.64388 0
M  V30 5073 H 462.225 2.98236 5.33728 0
M  V30 5074 H 466.399 3.85456 5.79997 0
M  V30 5075 H 464.026 4.47596 6.1446 0
M  V30 5076 N 465.601 -1.54893 0.290851 0
M  V30 5077 C 466.826 -2.04804 -0.32712 0
M  V30 5078 C 467.251 -1.16721 -1.47506 0
M  V30 5079 O 466.609 -0.169107 -1.8051 0
M  V30 5080 C 466.657 -3.52268 -0.770689 0
M  V30 5081 O 465.761 -3.67236 -1.87647 0
M  V30 5082 H 465.102 -0.660789 -0.0652227 0
M  V30 5083 H 467.632 -2.00036 0.429739 0
M  V30 5084 H 467.642 -3.9393 -1.06223 0
M  V30 5085 H 466.317 -4.15843 0.069096 0
M  V30 5086 H 464.894 -3.37479 -1.58626 0
M  V30 5087 N 467.08 -0.0183926 -1.57589 0
M  V30 5088 C 468.491 0.521927 -1.79256 0
M  V30 5089 C 468.842 1.72885 -0.927636 0
M  V30 5090 O 467.967 2.15978 -0.135091 0
M  V30 5091 C 468.562 0.953632 -3.25102 0
M  V30 5092 C 467.121 1.43913 -3.47801 0
M  V30 5093 C 466.268 0.398837 -2.74417 0
M  V30 5094 H 469.219 -0.244485 -1.56805 0
M  V30 5095 H 469.24 1.81863 -3.34224 0
M  V30 5096 H 468.752 0.0750123 -3.88028 0
M  V30 5097 H 466.853 2.33804 -2.90115 0
M  V30 5098 H 466.966 1.45391 -4.56507 0
M  V30 5099 H 465.33 0.864572 -2.39577 0
M  V30 5100 H 466.113 -0.471132 -3.40052 0
M  V30 5101 N 468.558 1.5553 0.254621 0
M  V30 5102 C 469.521 1.88872 1.29846 0
M  V30 5103 C 470.521 0.764591 1.41459 0
M  V30 5104 O 471.711 1.03265 1.40293 0
M  V30 5105 C 468.843 2.11032 2.67728 0
M  V30 5106 H 470.036 2.82201 1.01502 0
M  V30 5107 H 467.589 1.48303 0.493556 0
M  V30 5108 H 468.324 1.20146 3.01223 0
M  V30 5109 H 468.109 2.92895 2.60682 0
M  V30 5110 H 469.599 2.38038 3.43115 0
M  V30 5111 N 470.036 -0.519951 1.48776 0
M  V30 5112 C 470.984 -1.64443 1.64503 0
M  V30 5113 C 471.978 -1.61501 0.511248 0
M  V30 5114 O 473.184 -1.66238 0.690294 0
M  V30 5115 H 469.559 -0.544776 0.518385 0
M  V30 5116 H 471.53 -1.48325 2.58925 0
M  V30 5117 C 470.279 -3.02673 1.71127 0
M  V30 5118 H 469.602 -3.05635 2.57735 0
M  V30 5119 H 471.042 -3.80941 1.86172 0
M  V30 5120 C 469.501 -3.33854 0.452032 0
M  V30 5121 O 470.031 -3.99385 -0.430678 0
M  V30 5122 N 468.237 -2.88825 0.32069 0
M  V30 5123 H 467.784 -2.35674 1.03998 0
M  V30 5124 H 467.742 -3.10056 -0.520814 0
M  V30 5125 N 471.514 -1.37532 -0.769588 0
M  V30 5126 C 472.76 -1.33057 -1.53048 0
M  V30 5127 C 473.093 0.0841865 -1.94017 0
M  V30 5128 O 472.368 1.04198 -1.64235 0
M  V30 5129 C 472.651 -2.27166 -2.79406 0
M  V30 5130 C 472.504 -3.77429 -2.44677 0
M  V30 5131 C 473.823 -2.19683 -3.81349 0
M  V30 5132 H 470.942 -0.484655 -0.555228 0
M  V30 5133 H 473.584 -1.68251 -0.882702 0
M  V30 5134 H 471.734 -1.97283 -3.34682 0
M  V30 5135 H 473.406 -4.17918 -1.953 0
M  V30 5136 H 471.649 -3.95892 -1.77346 0
M  V30 5137 H 472.32 -4.38716 -3.35011 0
M  V30 5138 H 474.796 -2.46029 -3.35573 0
M  V30 5139 H 473.672 -2.87668 -4.67481 0
M  V30 5140 H 473.933 -1.19045 -4.25771 0
M  V30 5141 N 472.992 0.995999 -1.22138 0
M  V30 5142 C 474.238 1.73767 -1.04561 0
M  V30 5143 C 474.571 1.89633 0.418698 0
M  V30 5144 O 473.846 1.43723 1.3105 0
M  V30 5145 C 474.129 3.14505 -1.75382 0
M  V30 5146 C 473.982 3.06306 -3.29388 0
M  V30 5147 C 475.301 4.13615 -1.50369 0
M  V30 5148 H 472.42 0.630728 -0.38125 0
M  V30 5149 H 475.062 1.16057 -1.50435 0
M  V30 5150 H 473.212 3.63775 -1.36383 0
M  V30 5151 H 474.884 2.64681 -3.77812 0
M  V30 5152 H 473.127 2.43186 -3.59226 0
M  V30 5153 H 473.798 4.05884 -3.74116 0
M  V30 5154 H 476.274 3.73089 -1.84239 0
M  V30 5155 H 475.15 5.10212 -2.02421 0
M  V30 5156 H 475.411 4.39949 -0.435611 0
M  V30 5157 N 474.47 1.03057 1.19235 0
M  V30 5158 C 475.881 0.757449 1.70645 0
M  V30 5159 C 476.232 -0.722735 1.82403 0
M  V30 5160 O 475.357 -1.56325 1.49638 0
M  V30 5161 C 475.952 1.36833 3.09939 0
M  V30 5162 C 474.511 1.14375 3.58602 0
M  V30 5163 C 473.658 1.46533 2.35422 0
M  V30 5164 H 476.609 1.19828 1.04052 0
M  V30 5165 H 476.63 0.766184 3.72706 0
M  V30 5166 H 476.142 2.44562 3.01349 0
M  V30 5167 H 474.243 0.0847542 3.72504 0
M  V30 5168 H 474.356 1.83366 4.42622 0
M  V30 5169 H 472.72 0.884712 2.38841 0
M  V30 5170 H 473.503 2.55349 2.2946 0
M  V30 5171 N 475.948 -1.35272 0.808662 0
M  V30 5172 C 477.196 -1.98316 0.389233 0
M  V30 5173 C 477.517 -1.64465 -1.04767 0
M  V30 5174 O 476.787 -0.928175 -1.72516 0
M  V30 5175 H 475.367 -0.733585 0.140935 0
M  V30 5176 H 478.029 -1.6515 1.03496 0
M  V30 5177 H 477.125 -3.08123 0.496631 0
M  V30 5178 N 477.426 -0.562348 -1.47226 0
M  V30 5179 C 478.675 -0.038041 -2.01664 0
M  V30 5180 C 478.988 1.32199 -1.44162 0
M  V30 5181 O 480.194 1.9365 -1.90294 0
M  V30 5182 C 478.65 -0.0174958 -3.59896 0
M  V30 5183 C 478.258 -1.3746 -4.2639 0
M  V30 5184 C 480.002 0.453934 -4.22066 0
M  V30 5185 C 477.909 -1.31289 -5.76643 0
M  V30 5186 H 476.839 -0.0104511 -0.753928 0
M  V30 5187 H 479.49 -0.710966 -1.69167 0
M  V30 5188 H 477.872 0.721182 -3.89378 0
M  V30 5189 H 479.046 -2.1314 -4.08544 0
M  V30 5190 H 477.361 -1.78438 -3.7623 0
M  V30 5191 H 479.958 0.518584 -5.32179 0
M  V30 5192 H 480.301 1.46706 -3.89594 0
M  V30 5193 H 480.834 -0.230044 -3.97134 0
M  V30 5194 H 477.573 -2.30217 -6.13743 0
M  V30 5195 H 477.093 -0.597973 -5.96812 0
M  V30 5196 H 478.772 -1.01713 -6.38955 0
M  V30 5197 N 478.904 1.54736 -0.299062 0
M  V30 5198 C 480.152 1.99706 0.31017 0
M  V30 5199 C 480.473 1.18896 1.54559 0
M  V30 5200 O 479.743 0.284445 1.93824 0
M  V30 5201 H 478.323 0.737686 0.117596 0
M  V30 5202 H 480.985 1.9054 -0.409943 0
M  V30 5203 H 480.081 3.06596 0.58355 0
M  V30 5204 N 480.382 0.0267497 1.57577 0
M  V30 5205 C 481.612 -0.6617 1.95717 0
M  V30 5206 C 482.02 -1.66331 0.901706 0
M  V30 5207 O 481.363 -1.83273 -0.125241 0
M  V30 5208 C 481.425 -1.42649 3.29987 0
M  V30 5209 C 481.089 -0.583482 4.5326 0
M  V30 5210 C 482.086 0.140221 5.19711 0
M  V30 5211 C 479.771 -0.521581 4.99585 0
M  V30 5212 C 481.765 0.914523 6.30805 0
M  V30 5213 C 479.452 0.256428 6.10562 0
M  V30 5214 C 480.45 0.973189 6.76031 0
M  V30 5215 O 480.138 1.73845 7.84878 0
M  V30 5216 H 479.87 -0.187483 0.649481 0
M  V30 5217 H 482.424 0.0820847 2.05236 0
M  V30 5218 H 480.654 -2.21536 3.16952 0
M  V30 5219 H 482.343 -2.00282 3.53047 0
M  V30 5220 H 483.109 0.101716 4.84893 0
M  V30 5221 H 478.988 -1.06904 4.48433 0
M  V30 5222 H 482.532 1.4745 6.81839 0
M  V30 5223 H 478.429 0.296657 6.44818 0
M  V30 5224 H 479.197 1.65797 8.01532 0
M  V30 5225 N 481.861 -1.55662 -0.24637 0
M  V30 5226 C 483.086 -1.81914 -0.996093 0
M  V30 5227 C 483.511 -0.603875 -1.78143 0
M  V30 5228 O 482.869 0.447091 -1.75701 0
M  V30 5229 C 482.917 -3.05908 -1.90925 0
M  V30 5230 O 482.021 -2.82861 -3.00105 0
M  V30 5231 H 481.362 -0.600481 -0.283406 0
M  V30 5232 H 483.892 -2.02848 -0.267199 0
M  V30 5233 H 483.902 -3.35356 -2.3238 0
M  V30 5234 H 482.577 -3.93999 -1.33183 0
M  V30 5235 H 481.154 -2.64583 -2.62775 0
M  V30 5236 N 483.339 0.512053 -1.4905 0
M  V30 5237 C 484.75 1.09376 -1.51307 0
M  V30 5238 C 485.101 1.94 -0.292971 0
M  V30 5239 O 484.226 2.07965 0.598277 0
M  V30 5240 C 484.821 1.99031 -2.74176 0
M  V30 5241 C 483.38 2.52385 -2.79247 0
M  V30 5242 C 482.527 1.29749 -2.45073 0
M  V30 5243 H 485.478 0.296467 -1.55906 0
M  V30 5244 H 485.499 2.83569 -2.53711 0
M  V30 5245 H 485.011 1.37412 -3.62959 0
M  V30 5246 H 483.112 3.17673 -1.94716 0
M  V30 5247 H 483.225 2.90293 -3.81139 0
M  V30 5248 H 481.589 1.61912 -1.96612 0
M  V30 5249 H 482.372 0.698555 -3.36118 0
M  V30 5250 N 484.817 1.37938 0.762283 0
M  V30 5251 C 486.094 1.24196 1.51112 0
M  V30 5252 C 486.474 -0.160409 2.1049 0
M  V30 5253 O 485.822 -1.16904 1.96331 0
M  V30 5254 C 486.032 2.34537 2.58445 0
M  V30 5255 C 487.38 2.7254 3.25588 0
M  V30 5256 O 488.404 2.33783 2.68745 0
M  V30 5257 O 487.263 3.39343 4.28379 0
M  V30 5258 H 484.357 0.485175 0.669727 0
M  V30 5259 H 486.903 1.49743 0.798438 0
M  V30 5260 H 485.675 3.28406 2.12756 0
M  V30 5261 H 485.298 2.10505 3.37303 0
M  V30 5262 N 486.295 -0.989507 1.22664 0
M  V30 5263 C 487.711 -1.25395 0.987331 0
M  V30 5264 C 487.911 -1.9899 -0.317056 0
M  V30 5265 O 486.967 -2.30141 -1.03882 0
M  V30 5266 C 488.28 -2.06242 2.18826 0
M  V30 5267 C 489.828 -2.19413 2.23219 0
M  V30 5268 C 490.303 -3.03648 3.42873 0
M  V30 5269 N 491.794 -3.11234 3.43056 0
M  V30 5270 C 492.529 -3.7671 4.32293 0
M  V30 5271 N 492.025 -4.44085 5.31752 0
M  V30 5272 N 493.818 -3.73505 4.2006 0
M  V30 5273 H 485.969 -0.496212 2.06522 0
M  V30 5274 H 488.232 -0.281784 0.905153 0
M  V30 5275 H 487.938 -1.59531 3.13437 0
M  V30 5276 H 487.812 -3.06996 2.19165 0
M  V30 5277 H 490.199 -2.65336 1.29154 0
M  V30 5278 H 490.28 -1.18078 2.26917 0
M  V30 5279 H 489.924 -2.58424 4.37241 0
M  V30 5280 H 489.854 -4.05132 3.36416 0
M  V30 5281 H 492.345 -2.63287 2.71088 0
M  V30 5282 H 492.658 -4.91797 5.96117 0
M  V30 5283 H 491.003 -4.42822 5.35662 0
M  V30 5284 H 494.194 -3.20033 3.41609 0
M  V30 5285 H 494.367 -4.24253 4.8981 0
M  V30 5286 N 487.773 -1.03688 -1.18687 0
M  V30 5287 C 488.706 -0.569112 -2.2099 0
M  V30 5288 C 489.684 0.394315 -1.57746 0
M  V30 5289 O 490.868 0.309519 -1.85941 0
M  V30 5290 C 487.995 0.169104 -3.38278 0
M  V30 5291 C 487.041 -0.746989 -4.19908 0
M  V30 5292 S 487.874 -2.22773 -4.86963 0
M  V30 5293 C 489.03 -1.50025 -6.07654 0
M  V30 5294 H 489.263 -1.43589 -2.60326 0
M  V30 5295 H 486.796 -0.847507 -1.29061 0
M  V30 5296 H 488.754 0.588868 -4.06254 0
M  V30 5297 H 487.415 1.01172 -2.9736 0
M  V30 5298 H 486.608 -0.176626 -5.0369 0
M  V30 5299 H 486.21 -1.10543 -3.5729 0
M  V30 5300 H 488.502 -0.791217 -6.72864 0
M  V30 5301 H 489.445 -2.31498 -6.69189 0
M  V30 5302 H 489.853 -0.994245 -5.55675 0
M  V30 5303 N 489.251 1.34841 -0.815825 0
M  V30 5304 C 490.181 2.32187 -0.247298 0
M  V30 5305 C 491.162 1.5791 0.632344 0
M  V30 5306 O 492.347 1.8593 0.560698 0
M  V30 5307 C 489.477 3.42122 0.597466 0
M  V30 5308 C 488.431 4.27602 -0.184446 0
M  V30 5309 C 487.757 5.28942 0.782609 0
M  V30 5310 C 489.057 5.03502 -1.38865 0
M  V30 5311 H 490.751 2.79985 -1.06061 0
M  V30 5312 H 488.297 1.34611 -0.511461 0
M  V30 5313 H 490.25 4.09232 1.00533 0
M  V30 5314 H 488.974 2.92956 1.44376 0
M  V30 5315 H 487.633 3.62085 -0.573592 0
M  V30 5316 H 487.281 4.7604 1.62466 0
M  V30 5317 H 486.981 5.87008 0.263695 0
M  V30 5318 H 488.505 5.98922 1.18848 0
M  V30 5319 H 489.919 5.63506 -1.05518 0
M  V30 5320 H 488.316 5.71108 -1.8427 0
M  V30 5321 H 489.386 4.33608 -2.17054 0
M  V30 5322 N 490.729 0.570148 1.46925 0
M  V30 5323 C 491.661 -0.207909 2.28255 0
M  V30 5324 C 492.674 -0.867301 1.37774 0
M  V30 5325 O 493.863 -0.738976 1.62485 0
M  V30 5326 C 490.963 -1.31298 3.12433 0
M  V30 5327 C 490.136 -0.747915 4.30958 0
M  V30 5328 C 489.195 -1.7391 4.9663 0
M  V30 5329 O 488.221 -1.2801 5.54619 0
M  V30 5330 N 489.423 -3.07288 4.92498 0
M  V30 5331 H 492.188 0.489794 2.95671 0
M  V30 5332 H 489.749 0.407076 1.56699 0
M  V30 5333 H 491.741 -1.97507 3.53232 0
M  V30 5334 H 490.311 -1.91373 2.47175 0
M  V30 5335 H 489.531 0.0913066 3.94094 0
M  V30 5336 H 490.819 -0.349958 5.07595 0
M  V30 5337 H 490.217 -3.47213 4.46609 0
M  V30 5338 H 488.774 -3.69021 5.37277 0
M  V30 5339 N 492.207 -1.54576 0.307264 0
M  V30 5340 C 493.455 -1.99867 -0.299574 0
M  V30 5341 C 493.776 -1.19714 -1.53927 0
M  V30 5342 O 493.046 -0.29472 -1.9367 0
M  V30 5343 H 491.626 -0.738299 -0.113683 0
M  V30 5344 H 494.288 -1.9032 0.420042 0
M  V30 5345 H 493.384 -3.06901 -0.567283 0
M  V30 5346 N 493.685 -0.035106 -1.57561 0
M  V30 5347 C 495.101 0.321334 -1.56332 0
M  V30 5348 C 495.301 1.72509 -1.04129 0
M  V30 5349 O 494.357 2.4287 -0.690694 0
M  V30 5350 C 495.67 0.164469 -3.0025 0
M  V30 5351 C 497.218 0.236786 -3.12103 0
M  V30 5352 C 497.693 0.10864 -4.57871 0
M  V30 5353 N 499.184 0.165433 -4.62904 0
M  V30 5354 C 499.919 0.0901506 -5.73329 0
M  V30 5355 N 499.415 -0.0365606 -6.9279 0
M  V30 5356 N 501.208 0.144572 -5.61914 0
M  V30 5357 H 493.359 -0.952976 -1.89821 0
M  V30 5358 H 495.622 -0.368537 -0.873432 0
M  V30 5359 H 495.328 -0.802746 -3.42416 0
M  V30 5360 H 495.202 0.932194 -3.655 0
M  V30 5361 H 497.589 1.19446 -2.69845 0
M  V30 5362 H 497.67 -0.561419 -2.49563 0
M  V30 5363 H 497.314 -0.845644 -5.00811 0
M  V30 5364 H 497.244 0.925786 -5.18398 0
M  V30 5365 H 499.735 0.263269 -3.76982 0
M  V30 5366 H 500.048 -0.0871487 -7.72751 0
M  V30 5367 H 498.393 -0.0714256 -6.94963 0
M  V30 5368 H 501.584 0.242006 -4.67474 0
M  V30 5369 H 501.757 0.0824413 -6.47948 0
M  V30 5370 N 495.163 1.55791 0.238111 0
M  V30 5371 C 496.093 1.94068 1.29846 0
M  V30 5372 C 497.074 0.806726 1.49753 0
M  V30 5373 O 498.259 1.06772 1.62214 0
M  V30 5374 C 495.389 2.24302 2.65153 0
M  V30 5375 C 494.343 3.40032 2.59927 0
M  V30 5376 C 493.669 3.55829 3.99111 0
M  V30 5377 C 494.969 4.75476 2.16148 0
M  V30 5378 H 496.663 2.82887 0.980563 0
M  V30 5379 H 494.209 1.36105 0.470253 0
M  V30 5380 H 496.162 2.4967 3.39475 0
M  V30 5381 H 494.886 1.32318 2.98596 0
M  V30 5382 H 493.545 3.14687 1.88063 0
M  V30 5383 H 493.193 2.6125 4.29834 0
M  V30 5384 H 492.893 4.3366 3.96501 0
M  V30 5385 H 494.417 3.83528 4.7512 0
M  V30 5386 H 495.831 5.00158 2.80205 0
M  V30 5387 H 494.228 5.56472 2.24631 0
M  V30 5388 H 495.298 4.71946 1.11333 0
M  V30 5389 N 496.642 -0.504142 1.49319 0
M  V30 5390 C 497.889 -1.25846 1.58647 0
M  V30 5391 C 498.217 -1.92592 0.27177 0
M  V30 5392 O 497.472 -1.81167 -0.74007 0
M  V30 5393 C 497.771 -2.35021 2.69258 0
M  V30 5394 C 497.437 -1.85755 4.1086 0
M  V30 5395 C 496.099 -1.72038 4.49395 0
M  V30 5396 C 498.451 -1.48844 4.99495 0
M  V30 5397 C 495.779 -1.19783 5.74342 0
M  V30 5398 C 498.131 -0.980422 6.24956 0
M  V30 5399 C 496.795 -0.829622 6.62324 0
M  V30 5400 H 496.065 -0.460505 0.580531 0
M  V30 5401 H 498.712 -0.559716 1.83138 0
M  V30 5402 H 497.017 -3.10672 2.38726 0
M  V30 5403 H 498.714 -2.93083 2.73685 0
M  V30 5404 H 495.304 -1.9739 3.80441 0
M  V30 5405 H 499.488 -1.5829 4.70381 0
M  V30 5406 H 494.744 -1.06817 6.01997 0
M  V30 5407 H 498.918 -0.685608 6.93017 0
M  V30 5408 H 496.545 -0.42253 7.59025 0
M  V30 5409 N 498.12 -1.38341 -0.754957 0
M  V30 5410 C 499.345 -1.37882 -1.5493 0
M  V30 5411 C 499.77 0.0296385 -1.88077 0
M  V30 5412 O 499.128 1.01133 -1.50472 0
M  V30 5413 C 499.176 -2.23996 -2.82592 0
M  V30 5414 O 498.28 -1.65612 -3.77686 0
M  V30 5415 H 497.621 -0.470384 -0.468652 0
M  V30 5416 H 500.151 -1.82084 -0.933082 0
M  V30 5417 H 500.161 -2.37806 -3.3153 0
M  V30 5418 H 498.836 -3.26365 -2.57796 0
M  V30 5419 H 497.413 -1.60936 -3.36384 0
M  V30 5420 N 499.598 0.982988 -1.23187 0
M  V30 5421 C 500.828 1.75666 -1.08743 0
M  V30 5422 C 501.236 1.85662 0.364195 0
M  V30 5423 O 500.579 1.33317 1.26382 0
M  V30 5424 C 500.641 3.20144 -1.63549 0
M  V30 5425 C 500.305 3.33665 -3.12277 0
M  V30 5426 C 501.302 3.20194 -4.096 0
M  V30 5427 C 498.987 3.58397 -3.51933 0
M  V30 5428 C 500.981 3.31256 -5.44563 0
M  V30 5429 C 498.668 3.69098 -4.87042 0
M  V30 5430 C 499.666 3.55537 -5.83166 0
M  V30 5431 O 499.354 3.65864 -7.1582 0
M  V30 5432 H 499.086 0.558194 -0.381307 0
M  V30 5433 H 501.64 1.24387 -1.63454 0
M  V30 5434 H 499.87 3.72659 -1.03256 0
M  V30 5435 H 501.559 3.79262 -1.4462 0
M  V30 5436 H 502.325 3.00987 -3.80305 0
M  V30 5437 H 498.204 3.68025 -2.77631 0
M  V30 5438 H 501.748 3.20588 -6.19572 0
M  V30 5439 H 497.645 3.87814 -5.16014 0
M  V30 5440 H 498.413 3.82675 -7.23534 0
M  V30 5441 N 501.076 1.04316 1.18135 0
M  V30 5442 C 502.324 0.746542 1.87806 0
M  V30 5443 C 502.645 -0.728082 1.80898 0
M  V30 5444 O 501.915 -1.52554 1.22899 0
M  V30 5445 H 500.495 0.273157 0.695265 0
M  V30 5446 H 503.157 1.32044 1.43354 0
M  V30 5447 H 502.253 1.05362 2.93778 0
M  V30 5448 N 502.554 -1.34406 0.822964 0
M  V30 5449 C 503.831 -1.92733 0.333641 0
M  V30 5450 C 504.211 -1.75107 -1.17901 0
M  V30 5451 O 503.559 -1.12983 -1.98613 0
M  V30 5452 C 503.769 -3.40557 0.763023 0
M  V30 5453 C 505.117 -4.17709 0.761879 0
M  V30 5454 O 506.141 -3.49141 0.705606 0
M  V30 5455 O 505 -5.40082 0.835109 0
M  V30 5456 H 502.094 -0.821964 0.0911249 0
M  V30 5457 H 504.64 -1.4338 0.907757 0
M  V30 5458 H 503.412 -3.47187 1.8049 0
M  V30 5459 H 503.035 -3.97259 0.164605 0
M  V30 5460 N 504.032 -0.577932 -1.46621 0
M  V30 5461 C 505.26 -0.0671642 -2.06791 0
M  V30 5462 C 505.675 1.23571 -1.42743 0
M  V30 5463 O 505.032 1.74602 -0.531062 0
M  V30 5464 C 505.083 0.110357 -3.61332 0
M  V30 5465 O 504.804 -1.14095 -4.22982 0
M  V30 5466 C 506.305 0.656025 -4.38419 0
M  V30 5467 H 503.525 -0.0552732 -0.66872 0
M  V30 5468 H 506.069 -0.797242 -1.8832 0
M  V30 5469 H 504.224 0.790637 -3.79246 0
M  V30 5470 H 504.638 -0.951742 -5.15793 0
M  V30 5471 H 506.112 0.729438 -5.47159 0
M  V30 5472 H 506.589 1.67195 -4.06131 0
M  V30 5473 H 507.195 0.0107692 -4.25299 0
M  V30 5474 N 505.51 1.54411 -0.315457 0
M  V30 5475 C 506.46 2.20772 0.569549 0
M  V30 5476 C 507.444 1.18551 1.08787 0
M  V30 5477 O 508.636 1.44213 1.02624 0
M  V30 5478 C 505.765 2.96293 1.73394 0
M  V30 5479 C 504.851 4.05844 1.2309 0
M  V30 5480 N 505.242 5.03822 0.446927 0
M  V30 5481 C 503.54 4.19648 1.51035 0
M  V30 5482 C 504.241 5.8143 0.17725 0
M  V30 5483 N 503.217 5.38245 0.761118 0
M  V30 5484 H 507.019 2.93877 -0.0368076 0
M  V30 5485 H 504.533 1.61949 -0.120915 0
M  V30 5486 H 506.53 3.42313 2.37965 0
M  V30 5487 H 505.19 2.24708 2.34386 0
M  V30 5488 H 506.201 5.17821 0.0905027 0
M  V30 5489 H 502.878 3.59274 2.1267 0
M  V30 5490 H 504.268 6.70369 -0.45335 0
M  V30 5491 N 506.988 0.0434614 1.5754 0
M  V30 5492 C 508.404 -0.313039 1.565 0
M  V30 5493 C 508.604 -1.71954 1.05043 0
M  V30 5494 O 507.66 -2.425 0.703564 0
M  V30 5495 C 508.973 -0.148544 3.00333 0
M  V30 5496 C 510.521 -0.220231 3.12224 0
M  V30 5497 C 510.996 -0.0843565 4.57922 0
M  V30 5498 N 512.487 -0.140881 4.62986 0
M  V30 5499 C 513.222 -0.0597443 5.73369 0
M  V30 5500 N 512.718 0.0733004 6.92761 0
M  V30 5501 N 514.511 -0.11477 5.61983 0
M  V30 5502 H 506.662 0.96303 1.89313 0
M  V30 5503 H 508.925 0.373164 0.871466 0
M  V30 5504 H 508.631 0.820894 3.41986 0
M  V30 5505 H 508.505 -0.912798 3.65989 0
M  V30 5506 H 510.892 -1.18014 2.70475 0
M  V30 5507 H 510.973 0.574646 2.49262 0
M  V30 5508 H 510.617 0.872192 5.00355 0
M  V30 5509 H 510.547 -0.898281 5.18882 0
M  V30 5510 H 513.038 -0.243273 3.77116 0
M  V30 5511 H 513.351 0.128128 7.72694 0
M  V30 5512 H 511.696 0.10828 6.94916 0
M  V30 5513 H 514.887 -0.217212 4.67596 0
M  V30 5514 H 515.06 -0.0480779 6.47982 0
M  V30 5515 N 508.466 -1.55915 -0.229846 0
M  V30 5516 C 509.696 -1.82352 -0.971152 0
M  V30 5517 C 510.104 -0.619231 -1.7878 0
M  V30 5518 O 509.447 0.421597 -1.78797 0
M  V30 5519 C 509.509 -3.02399 -1.9441 0
M  V30 5520 C 509.173 -4.37739 -1.31277 0
M  V30 5521 C 510.17 -5.15074 -0.706757 0
M  V30 5522 C 507.855 -4.84454 -1.32702 0
M  V30 5523 C 509.849 -6.37281 -0.123413 0
M  V30 5524 C 507.536 -6.06605 -0.739831 0
M  V30 5525 C 508.534 -6.82858 -0.139071 0
M  V30 5526 O 508.222 -8.027 0.439007 0
M  V30 5527 H 507.954 -0.61035 -0.290601 0
M  V30 5528 H 510.508 -2.03839 -0.252746 0
M  V30 5529 H 508.738 -2.76709 -2.70128 0
M  V30 5530 H 510.427 -3.15779 -2.55026 0
M  V30 5531 H 511.193 -4.80093 -0.688131 0
M  V30 5532 H 507.072 -4.25081 -1.78402 0
M  V30 5533 H 510.616 -6.96741 0.346124 0
M  V30 5534 H 506.513 -6.4106 -0.755841 0
M  V30 5535 H 507.281 -8.17824 0.332521 0
M  V30 5536 N 509.944 0.496216 -1.49584 0
M  V30 5537 C 511.36 0.827814 -1.36453 0
M  V30 5538 C 511.56 1.97464 -0.401285 0
M  V30 5539 O 510.616 2.51958 0.165296 0
M  V30 5540 C 511.929 1.16352 -2.77277 0
M  V30 5541 C 513.477 1.27145 -2.86013 0
M  V30 5542 C 513.952 1.64042 -4.27615 0
M  V30 5543 N 515.443 1.71082 -4.30448 0
M  V30 5544 C 516.178 2.01085 -5.36984 0
M  V30 5545 N 515.674 2.2928 -6.5376 0
M  V30 5546 N 517.467 2.02376 -5.24405 0
M  V30 5547 H 509.618 -0.259947 -2.10803 0
M  V30 5548 H 511.881 -0.0537163 -0.946477 0
M  V30 5549 H 511.587 0.394153 -3.49484 0
M  V30 5550 H 511.461 2.10582 -3.12946 0
M  V30 5551 H 513.848 2.03152 -2.1404 0
M  V30 5552 H 513.929 0.309542 -2.5392 0
M  V30 5553 H 513.573 0.88583 -5.00115 0
M  V30 5554 H 513.503 2.6134 -4.57175 0
M  V30 5555 H 515.994 1.51434 -3.46232 0
M  V30 5556 H 516.307 2.51376 -7.30774 0
M  V30 5557 H 514.652 2.26726 -6.56978 0
M  V30 5558 H 517.843 1.79829 -4.32179 0
M  V30 5559 H 518.016 2.25425 -6.07526 0
M  V30 5560 N 511.423 1.38739 0.74761 0
M  V30 5561 C 512.353 1.39173 1.87492 0
M  V30 5562 C 513.334 0.256794 1.6815 0
M  V30 5563 O 514.519 0.460762 1.88655 0
M  V30 5564 C 511.649 1.22197 3.25093 0
M  V30 5565 C 510.603 2.32957 3.59047 0
M  V30 5566 C 509.929 2.01082 4.95449 0
M  V30 5567 C 511.229 3.75237 3.6331 0
M  V30 5568 H 512.923 2.3351 1.87386 0
M  V30 5569 H 510.469 1.12399 0.900134 0
M  V30 5570 H 512.422 1.21124 4.03617 0
M  V30 5571 H 511.146 0.243241 3.25693 0
M  V30 5572 H 509.805 2.33226 2.82845 0
M  V30 5573 H 509.453 1.01678 4.92616 0
M  V30 5574 H 509.153 2.75267 5.19136 0
M  V30 5575 H 510.677 2.01638 5.76346 0
M  V30 5576 H 512.091 3.76966 4.31937 0
M  V30 5577 H 510.488 4.48677 3.98509 0
M  V30 5578 H 511.558 4.07122 2.634 0
M  V30 5579 N 512.901 -0.976442 1.23707 0
M  V30 5580 C 514.149 -1.71487 1.06942 0
M  V30 5581 C 514.47 -1.9098 -0.393897 0
M  V30 5582 O 513.74 -1.48128 -1.28198 0
M  V30 5583 H 512.32 -0.635425 0.392739 0
M  V30 5584 H 514.982 -1.17515 1.55487 0
M  V30 5585 H 514.078 -2.70286 1.56051 0
M  V30 5586 N 514.379 -1.04941 -1.1758 0
M  V30 5587 C 515.625 -0.759112 -1.88057 0
M  V30 5588 C 515.958 0.711918 -1.8068 0
M  V30 5589 O 515.233 1.52035 -1.21308 0
M  V30 5590 C 515.516 -1.237 -3.38187 0
M  V30 5591 C 515.369 -2.77078 -3.54327 0
M  V30 5592 C 516.688 -0.834014 -4.32125 0
M  V30 5593 H 513.807 -0.277237 -0.682868 0
M  V30 5594 H 516.449 -1.30296 -1.38286 0
M  V30 5595 H 514.599 -0.774337 -3.80705 0
M  V30 5596 H 516.271 -3.31449 -3.20842 0
M  V30 5597 H 514.514 -3.16477 -2.96689 0
M  V30 5598 H 515.185 -3.05577 -4.59703 0
M  V30 5599 H 517.661 -1.23228 -3.97434 0
M  V30 5600 H 516.537 -1.19603 -5.35711 0
M  V30 5601 H 516.798 0.262195 -4.41322 0
M  V30 5602 N 515.857 1.33968 -0.830081 0
M  V30 5603 C 516.805 2.31301 -0.245435 0
M  V30 5604 C 517.799 1.57734 0.617762 0
M  V30 5605 O 519.005 1.72674 0.508303 0
M  V30 5606 H 515.38 0.749552 -0.0606316 0
M  V30 5607 H 517.351 2.78129 -1.08105 0
M  V30 5608 C 516.1 3.42961 0.572084 0
M  V30 5609 H 515.423 3.99714 -0.0828118 0
M  V30 5610 H 516.863 4.13286 0.94715 0
M  V30 5611 C 515.322 2.88043 1.74737 0
M  V30 5612 O 515.852 2.83508 2.8458 0
M  V30 5613 N 514.058 2.44768 1.56642 0
M  V30 5614 H 513.605 2.48656 0.672901 0
M  V30 5615 H 513.563 2.08375 2.3543 0
M  V30 5616 N 517.335 0.585699 1.46312 0
M  V30 5617 C 518.565 0.0780166 2.06453 0
M  V30 5618 C 518.973 -1.2336 1.43454 0
M  V30 5619 O 518.316 -1.75734 0.535086 0
M  V30 5620 C 518.378 -0.158951 3.59148 0
M  V30 5621 C 518.042 1.06752 4.44357 0
M  V30 5622 C 519.039 1.98031 4.80708 0
M  V30 5623 C 516.724 1.2902 4.85447 0
M  V30 5624 C 518.718 3.09924 5.5698 0
M  V30 5625 C 516.405 2.41218 5.61478 0
M  V30 5626 C 517.403 3.31499 5.97158 0
M  V30 5627 O 517.091 4.41747 6.71651 0
M  V30 5628 H 516.823 0.0558894 0.673686 0
M  V30 5629 H 519.377 0.806994 1.88883 0
M  V30 5630 H 517.607 -0.942575 3.75037 0
M  V30 5631 H 519.296 -0.615513 4.01206 0
M  V30 5632 H 520.062 1.82043 4.49539 0
M  V30 5633 H 515.941 0.596567 4.57124 0
M  V30 5634 H 519.485 3.80415 5.84748 0
M  V30 5635 H 515.382 2.57167 5.9206 0
M  V30 5636 H 516.15 4.40152 6.90079 0
M  V30 5637 N 518.813 -1.54241 0.323641 0
M  V30 5638 C 520.224 -1.85975 -0.164405 0
M  V30 5639 C 520.575 -1.24529 -1.51615 0
M  V30 5640 O 519.7 -0.551351 -2.09258 0
M  V30 5641 C 520.295 -3.37424 -0.305091 0
M  V30 5642 C 518.854 -3.69107 -0.737358 0
M  V30 5643 C 518.001 -2.76942 0.140884 0
M  V30 5644 H 520.952 -1.49088 0.543922 0
M  V30 5645 H 520.973 -3.63147 -1.13598 0
M  V30 5646 H 520.485 -3.82116 0.678876 0
M  V30 5647 H 518.586 -3.29947 -1.73107 0
M  V30 5648 H 518.699 -4.76035 -0.541053 0
M  V30 5649 H 517.063 -2.51795 -0.383572 0
M  V30 5650 H 517.846 -3.24461 1.12162 0
M  V30 5651 N 520.291 -0.0518155 -1.57515 0
M  V30 5652 C 521.223 0.951542 -2.08515 0
M  V30 5653 C 522.236 1.27436 -1.01311 0
M  V30 5654 O 523.425 1.23504 -1.28876 0
M  V30 5655 C 520.525 2.27291 -2.5138 0
M  V30 5656 C 519.698 2.13191 -3.81927 0
M  V30 5657 C 518.757 3.28458 -4.11098 0
M  V30 5658 O 517.783 3.04334 -4.81009 0
M  V30 5659 N 518.985 4.52954 -3.63061 0
M  V30 5660 H 521.75 0.516242 -2.9522 0
M  V30 5661 H 519.311 0.13441 -1.61341 0
M  V30 5662 H 521.303 3.03272 -2.67971 0
M  V30 5663 H 519.873 2.62386 -1.69919 0
M  V30 5664 H 519.093 1.21798 -3.74912 0
M  V30 5665 H 520.381 2.00999 -4.67415 0
M  V30 5666 H 519.779 4.75444 -3.06545 0
M  V30 5667 H 518.336 5.26026 -3.84889 0
M  V30 5668 N 521.769 1.56035 0.221574 0
M  V30 5669 C 523.018 1.78245 0.944016 0
M  V30 5670 C 523.331 0.620371 1.85501 0
M  V30 5671 O 524.537 0.726103 2.6161 0
M  V30 5672 C 522.993 3.15659 1.7288 0
M  V30 5673 C 522.601 4.39591 0.863942 0
M  V30 5674 C 524.345 3.47195 2.44246 0
M  V30 5675 C 522.252 5.6803 1.64607 0
M  V30 5676 H 521.182 0.664547 0.356222 0
M  V30 5677 H 523.833 1.8243 0.197904 0
M  V30 5678 H 522.215 3.0565 2.51781 0
M  V30 5679 H 523.389 4.60655 0.115464 0
M  V30 5680 H 521.704 4.15572 0.262407 0
M  V30 5681 H 524.301 4.40381 3.03263 0
M  V30 5682 H 524.644 2.69693 3.1713 0
M  V30 5683 H 525.177 3.58533 1.72334 0
M  V30 5684 H 521.916 6.48425 0.960507 0
M  V30 5685 H 521.436 5.51027 2.36917 0
M  V30 5686 H 523.115 6.08203 2.20675 0
M  V30 5687 N 523.247 -0.488276 1.49845 0
M  V30 5688 C 524.658 -1.06955 1.53028 0
M  V30 5689 C 525.009 -1.9351 0.323797 0
M  V30 5690 O 524.134 -2.08891 -0.565116 0
M  V30 5691 C 524.729 -1.94643 2.77307 0
M  V30 5692 C 523.288 -2.4791 2.83227 0
M  V30 5693 C 522.435 -1.25833 2.47106 0
M  V30 5694 H 525.386 -0.271626 1.56358 0
M  V30 5695 H 525.407 -2.79496 2.5819 0
M  V30 5696 H 524.919 -1.31621 3.65099 0
M  V30 5697 H 523.02 -3.14535 1.99745 0
M  V30 5698 H 523.133 -2.84193 3.85709 0
M  V30 5699 H 521.497 -1.58764 1.99163 0
M  V30 5700 H 522.28 -0.644993 3.37186 0
M  V30 5701 N 524.725 -1.39134 -0.740242 0
M  V30 5702 C 525.971 -1.36273 -1.50192 0
M  V30 5703 C 526.304 0.0430136 -1.94152 0
M  V30 5704 O 525.579 1.00691 -1.66408 0
M  V30 5705 C 525.862 -2.33041 -2.74525 0
M  V30 5706 C 525.715 -3.82535 -2.36617 0
M  V30 5707 C 527.034 -2.27723 -3.76604 0
M  V30 5708 H 524.153 -0.496323 -0.544823 0
M  V30 5709 H 526.795 -1.70085 -0.846815 0
M  V30 5710 H 524.945 -2.04337 -3.30422 0
M  V30 5711 H 526.617 -4.21967 -1.86391 0
M  V30 5712 H 524.86 -3.99565 -1.68909 0
M  V30 5713 H 525.531 -4.45723 -3.2563 0
M  V30 5714 H 528.007 -2.53091 -3.30279 0
M  V30 5715 H 526.883 -2.97519 -4.61274 0
M  V30 5716 H 527.144 -1.28049 -4.2315 0
M  V30 5717 N 526.204 0.969867 -1.24223 0
M  V30 5718 C 527.152 2.08535 -1.03034 0
M  V30 5719 C 528.146 1.69366 0.0340379 0
M  V30 5720 O 529.352 1.79597 -0.12034 0
M  V30 5721 H 525.727 0.682313 -0.316154 0
M  V30 5722 H 527.698 2.23569 -1.97635 0
M  V30 5723 C 526.447 3.4158 -0.649509 0
M  V30 5724 H 525.77 3.72177 -1.46028 0
M  V30 5725 H 527.21 4.20536 -0.540841 0
M  V30 5726 C 525.669 3.30703 0.643194 0
M  V30 5727 O 526.199 3.64443 1.68951 0
M  V30 5728 N 524.405 2.83841 0.623095 0
M  V30 5729 H 523.952 2.56583 -0.228719 0
M  V30 5730 H 523.91 2.76946 1.48823 0
M  V30 5731 N 527.682 1.05563 1.17022 0
M  V30 5732 C 528.629 0.659893 2.21165 0
M  V30 5733 C 529.599 -0.339813 1.62587 0
M  V30 5734 O 530.784 -0.230378 1.89404 0
M  V30 5735 C 527.924 0.0447297 3.45071 0
M  V30 5736 C 527.037 1.09372 4.17926 0
M  V30 5737 C 526.172 0.445481 5.29329 0
M  V30 5738 C 525.211 1.47852 5.93975 0
M  V30 5739 N 524.348 0.854172 6.96885 0
M  V30 5740 H 529.188 1.55243 2.54369 0
M  V30 5741 H 526.725 0.776336 1.24946 0
M  V30 5742 H 528.683 -0.329404 4.15898 0
M  V30 5743 H 527.313 -0.811244 3.1244 0
M  V30 5744 H 526.365 1.58564 3.45777 0
M  V30 5745 H 527.677 1.87773 4.62107 0
M  V30 5746 H 526.831 0.0179688 6.06697 0
M  V30 5747 H 525.57 -0.370481 4.86291 0
M  V30 5748 H 524.575 1.91601 5.15334 0
M  V30 5749 H 525.8 2.29645 6.39093 0
M  V30 5750 H 523.746 0.0587882 6.55974 0
M  V30 5751 H 523.663 1.57567 7.39397 0
M  V30 5752 H 524.931 0.451559 7.78191 0
M  V30 5753 N 529.16 -1.33526 0.837174 0
M  V30 5754 C 530.571 -1.80182 0.489017 0
M  V30 5755 C 530.922 -1.69285 -0.991826 0
M  V30 5756 O 530.047 -1.24113 -1.77271 0
M  V30 5757 C 530.642 -3.27149 0.880866 0
M  V30 5758 C 529.201 -3.71828 0.584872 0
M  V30 5759 C 528.348 -2.54974 1.09011 0
M  V30 5760 H 531.299 -1.21071 1.02603 0
M  V30 5761 H 531.32 -3.80024 0.190239 0
M  V30 5762 H 530.832 -3.35048 1.95869 0
M  V30 5763 H 528.933 -3.69457 -0.48295 0
M  V30 5764 H 529.046 -4.65366 1.13892 0
M  V30 5765 H 527.41 -2.4952 0.511047 0
M  V30 5766 H 528.193 -2.65637 2.17467 0
M  V30 5767 N 530.638 -0.59345 -1.46 0
M  V30 5768 C 532.054 -0.255965 -1.57534 0
M  V30 5769 C 532.254 1.24167 -1.58697 0
M  V30 5770 O 531.31 2.02398 -1.50968 0
M  V30 5771 C 532.623 -0.91466 -2.86451 0
M  V30 5772 C 534.171 -0.889253 -3.00102 0
M  V30 5773 C 534.646 -1.52769 -4.3177 0
M  V30 5774 N 536.137 -1.49253 -4.38495 0
M  V30 5775 C 536.872 -1.9558 -5.39014 0
M  V30 5776 N 536.368 -2.49929 -6.46148 0
M  V30 5777 N 538.161 -1.86432 -5.30282 0
M  V30 5778 H 530.312 -1.56604 -1.43489 0
M  V30 5779 H 532.575 -0.655207 -0.685133 0
M  V30 5780 H 532.281 -1.96861 -2.91442 0
M  V30 5781 H 532.155 -0.429356 -3.74748 0
M  V30 5782 H 534.542 0.156111 -2.94687 0
M  V30 5783 H 534.623 -1.41268 -2.13253 0
M  V30 5784 H 534.267 -2.57231 -4.37944 0
M  V30 5785 H 534.197 -0.979398 -5.17412 0
M  V30 5786 H 536.688 -1.09536 -3.61677 0
M  V30 5787 H 537.001 -2.83109 -7.19075 0
M  V30 5788 H 535.346 -2.53961 -6.46938 0
M  V30 5789 H 538.537 -1.43722 -4.4549 0
M  V30 5790 H 538.71 -2.22852 -6.08474 0
M  V30 5791 N 532.116 1.54067 -0.331816 0
M  V30 5792 C 533.356 2.02625 0.26876 0
M  V30 5793 C 533.72 1.21462 1.48697 0
M  V30 5794 O 534.921 1.59863 2.16096 0
M  V30 5795 C 533.192 3.52554 0.586577 0
M  V30 5796 S 534.751 4.23035 1.16563 0
M  V30 5797 H 531.569 0.706395 0.0807862 0
M  V30 5798 H 534.171 1.89844 -0.466856 0
M  V30 5799 H 532.875 4.09242 -0.308046 0
M  V30 5800 H 532.406 3.69432 1.35217 0
M  V30 5801 H 534.421 4.31382 2.45203 0
M  V30 5802 N 533.594 0.0601682 1.57485 0
M  V30 5803 C 535.005 -0.474217 1.80577 0
M  V30 5804 C 535.356 -1.70365 0.973147 0
M  V30 5805 O 534.481 -2.15544 0.192306 0
M  V30 5806 C 535.076 -0.867102 3.27516 0
M  V30 5807 C 533.635 -1.34642 3.51495 0
M  V30 5808 C 532.782 -0.32594 2.75378 0
M  V30 5809 H 535.733 0.285973 1.56102 0
M  V30 5810 H 535.754 -1.72938 3.38929 0
M  V30 5811 H 535.266 0.0278927 3.8809 0
M  V30 5812 H 533.367 -2.2603 2.96212 0
M  V30 5813 H 533.48 -1.33237 4.60201 0
M  V30 5814 H 531.844 -0.800749 2.41785 0
M  V30 5815 H 532.627 0.561125 3.38683 0
M  V30 5816 N 535.072 -1.5615 -0.213296 0
M  V30 5817 C 536.319 -1.79546 -0.936462 0
M  V30 5818 C 536.647 -0.630337 -1.84003 0
M  V30 5819 O 535.902 0.384883 -1.91878 0
M  V30 5820 C 536.201 -3.08772 -1.79985 0
M  V30 5821 C 535.867 -4.38532 -1.04882 0
M  V30 5822 C 534.529 -4.73787 -0.841393 0
M  V30 5823 C 536.881 -5.18609 -0.51907 0
M  V30 5824 C 534.209 -5.86627 -0.0924403 0
M  V30 5825 C 536.561 -6.32229 0.216581 0
M  V30 5826 C 535.225 -6.6608 0.435191 0
M  V30 5827 H 534.495 -0.657004 -0.342676 0
M  V30 5828 H 537.142 -1.9041 -0.204051 0
M  V30 5829 H 535.447 -2.93065 -2.60038 0
M  V30 5830 H 537.144 -3.24077 -2.36168 0
M  V30 5831 H 533.734 -4.10855 -1.22048 0
M  V30 5832 H 537.918 -4.91801 -0.666775 0
M  V30 5833 H 533.174 -6.11338 0.087081 0
M  V30 5834 H 537.348 -6.93503 0.634538 0
M  V30 5835 H 534.975 -7.5336 1.01746 0
M  V30 5836 N 536.55 0.480323 -1.50102 0
M  V30 5837 C 537.5 1.57685 -1.6468 0
M  V30 5838 C 538.484 1.52878 -0.5017 0
M  V30 5839 O 539.676 1.60058 -0.755668 0
M  V30 5840 C 536.805 2.96185 -1.73578 0
M  V30 5841 C 535.891 3.0591 -2.93734 0
M  V30 5842 N 536.282 2.85471 -4.1754 0
M  V30 5843 C 534.58 3.37036 -2.92101 0
M  V30 5844 C 535.281 2.99921 -4.9842 0
M  V30 5845 N 534.257 3.29715 -4.32191 0
M  V30 5846 H 538.059 1.40568 -2.58104 0
M  V30 5847 H 535.573 0.686874 -1.47159 0
M  V30 5848 H 537.57 3.75015 -1.82124 0
M  V30 5849 H 536.23 3.14356 -0.813057 0
M  V30 5850 H 537.241 2.61235 -4.47188 0
M  V30 5851 H 533.918 3.61253 -2.09291 0
M  V30 5852 H 535.308 2.88436 -6.06839 0
M  V30 5853 N 538.028 1.39524 0.732853 0
M  V30 5854 C 539.253 1.40329 1.52717 0
M  V30 5855 C 539.678 0.000286574 1.881 0
M  V30 5856 O 539.036 -0.987262 1.52062 0
M  V30 5857 C 539.084 2.28464 2.78992 0
M  V30 5858 O 538.188 1.716 3.75003 0
M  V30 5859 H 537.529 0.47778 0.461109 0
M  V30 5860 H 540.059 1.83546 0.903996 0
M  V30 5861 H 540.069 2.43051 3.27705 0
M  V30 5862 H 538.744 3.30425 2.52572 0
M  V30 5863 H 537.321 1.66267 3.33781 0
M  V30 5864 N 539.506 -0.963266 1.24736 0
M  V30 5865 C 540.731 -1.74699 1.11781 0
M  V30 5866 C 541.156 -1.85267 -0.325258 0
M  V30 5867 O 540.514 -1.32681 -1.23553 0
M  V30 5868 C 540.562 -3.14322 1.76731 0
M  V30 5869 O 539.666 -3.99043 1.04109 0
M  V30 5870 H 539.007 -0.53684 0.390767 0
M  V30 5871 H 541.537 -1.20801 1.65131 0
M  V30 5872 H 541.547 -3.64824 1.82668 0
M  V30 5873 H 540.222 -3.05946 2.81726 0
M  V30 5874 H 538.799 -3.5752 1.05991 0
M  V30 5875 N 540.985 -1.06182 -1.16461 0
M  V30 5876 C 542.21 -0.798599 -1.91408 0
M  V30 5877 C 542.635 0.640987 -1.76842 0
M  V30 5878 O 541.993 1.44652 -1.09296 0
M  V30 5879 C 542.041 -1.19665 -3.40165 0
M  V30 5880 O 541.145 -0.334768 -4.11039 0
M  V30 5881 H 540.486 -0.291961 -0.596368 0
M  V30 5882 H 543.016 -1.41732 -1.47557 0
M  V30 5883 H 543.026 -1.16772 -3.90933 0
M  V30 5884 H 541.701 -2.24526 -3.50087 0
M  V30 5885 H 540.278 -0.425168 -3.70468 0
M  V30 5886 N 542.463 1.3308 -0.844243 0
M  V30 5887 C 543.879 1.50447 -0.532729 0
M  V30 5888 C 544.079 1.78292 0.938837 0
M  V30 5889 O 543.135 1.84635 1.72239 0
M  V30 5890 C 544.448 2.65555 -1.41072 0
M  V30 5891 C 545.996 2.7944 -1.41005 0
M  V30 5892 C 546.471 3.97616 -2.27301 0
M  V30 5893 N 547.962 4.0486 -2.2504 0
M  V30 5894 C 548.697 4.95508 -2.88547 0
M  V30 5895 N 548.193 5.91236 -3.61126 0
M  V30 5896 N 549.986 4.88548 -2.77989 0
M  V30 5897 H 542.137 1.13269 -1.79677 0
M  V30 5898 H 544.4 0.55734 -0.766861 0
M  V30 5899 H 544.106 2.51675 -2.45668 0
M  V30 5900 H 543.98 3.61089 -1.09061 0
M  V30 5901 H 546.367 2.92749 -0.371784 0
M  V30 5902 H 546.448 1.8465 -1.77026 0
M  V30 5903 H 546.092 3.85066 -3.3119 0
M  V30 5904 H 546.022 4.91661 -1.88619 0
M  V30 5905 H 548.513 3.36353 -1.72264 0
M  V30 5906 H 548.826 6.57079 -4.06776 0
M  V30 5907 H 547.171 5.91295 -3.65234 0
M  V30 5908 H 550.362 4.12729 -2.20846 0
M  V30 5909 H 550.535 5.58994 -3.27765 0
M  V30 5910 N 543.941 0.601185 1.45683 0
M  V30 5911 C 545.218 0.0261659 1.95582 0
M  V30 5912 C 545.598 -1.4399 1.5437 0
M  V30 5913 O 544.946 -2.13919 0.80318 0
M  V30 5914 C 545.156 0.217557 3.48321 0
M  V30 5915 C 546.504 0.0950076 4.24494 0
M  V30 5916 O 547.528 0.147345 3.55895 0
M  V30 5917 O 546.387 -0.025261 5.46494 0
M  V30 5918 H 543.481 -0.0393688 0.826062 0
M  V30 5919 H 546.027 0.670798 1.55879 0
M  V30 5920 H 544.799 1.23601 3.71266 0
M  V30 5921 H 544.422 -0.46264 3.94899 0
M  V30 5922 N 545.419 -1.53889 0.339982 0
M  V30 5923 C 546.667 -2.00458 -0.257112 0
M  V30 5924 C 546.988 -1.22953 -1.51353 0
M  V30 5925 O 546.258 -0.335734 -1.93002 0
M  V30 5926 H 544.838 -0.740544 -0.0979965 0
M  V30 5927 H 547.5 -1.89386 0.460317 0
M  V30 5928 H 546.596 -3.08035 -0.502057 0
M  V30 5929 N 546.897 -0.0685191 -1.57451 0
M  V30 5930 C 548.127 0.609577 -1.97402 0
M  V30 5931 C 548.535 1.63882 -0.945489 0
M  V30 5932 O 547.878 1.8354 0.0766052 0
M  V30 5933 C 547.94 1.3385 -3.33653 0
M  V30 5934 C 547.604 0.463103 -4.54648 0
M  V30 5935 C 548.601 -0.277964 -5.19156 0
M  V30 5936 C 546.286 0.388941 -5.00792 0
M  V30 5937 C 548.28 -1.08145 -6.28159 0
M  V30 5938 C 545.967 -0.418217 -6.09667 0
M  V30 5939 C 546.965 -1.15208 -6.73213 0
M  V30 5940 O 546.653 -1.94594 -7.79993 0
M  V30 5941 H 546.385 0.170197 -0.654224 0
M  V30 5942 H 548.939 -0.13647 -2.04946 0
M  V30 5943 H 547.169 2.13055 -3.22714 0
M  V30 5944 H 548.858 1.90851 -3.58233 0
M  V30 5945 H 549.624 -0.230241 -4.84453 0
M  V30 5946 H 545.503 0.949769 -4.5111 0
M  V30 5947 H 549.047 -1.65476 -6.7769 0
M  V30 5948 H 544.944 -0.467515 -6.43805 0
M  V30 5949 H 545.712 -1.8699 -7.96854 0
M  V30 5950 N 548.375 1.56261 0.205012 0
M  V30 5951 C 549.308 1.88797 1.28183 0
M  V30 5952 C 550.286 0.747018 1.44424 0
M  V30 5953 O 551.47 0.997039 1.59973 0
M  V30 5954 C 548.597 2.10949 2.64987 0
M  V30 5955 C 547.643 3.33649 2.6567 0
M  V30 5956 S 548.476 4.89078 2.18088 0
M  V30 5957 C 549.632 5.14286 3.56736 0
M  V30 5958 H 549.865 2.79837 1.00393 0
M  V30 5959 H 547.398 1.48911 0.408042 0
M  V30 5960 H 549.356 2.24395 3.4374 0
M  V30 5961 H 548.017 1.20678 2.89993 0
M  V30 5962 H 547.21 3.46245 3.66239 0
M  V30 5963 H 546.812 3.19146 1.94992 0
M  V30 5964 H 549.104 5.04198 4.52537 0
M  V30 5965 H 550.047 6.16096 3.49043 0
M  V30 5966 H 550.455 4.41957 3.51189 0
M  V30 5967 N 549.853 -0.472356 1.50355 0
M  V30 5968 C 550.785 -1.58795 1.65278 0
M  V30 5969 C 551.798 -1.53782 0.534313 0
M  V30 5970 O 552.987 -1.59193 0.807446 0
M  V30 5971 C 550.087 -2.97672 1.62001 0
M  V30 5972 C 549.26 -3.27568 2.89859 0
M  V30 5973 C 548.319 -4.45993 2.79242 0
M  V30 5974 O 547.345 -4.46364 3.53197 0
M  V30 5975 N 548.547 -5.47578 1.92713 0
M  V30 5976 H 551.312 -1.46411 2.61503 0
M  V30 5977 H 548.873 -0.660751 1.47803 0
M  V30 5978 H 550.865 -3.74862 1.52513 0
M  V30 5979 H 549.435 -3.03832 0.735159 0
M  V30 5980 H 548.655 -2.39003 3.13483 0
M  V30 5981 H 549.943 -3.44352 3.74565 0
M  V30 5982 H 549.341 -5.50099 1.31939 0
M  V30 5983 H 547.898 -6.23757 1.8913 0
M  V30 5984 N 551.331 -1.39911 -0.725443 0
M  V30 5985 C 552.279 -1.39552 -1.86086 0
M  V30 5986 C 553.273 -0.277334 -1.67114 0
M  V30 5987 O 554.479 -0.447865 -1.74339 0
M  V30 5988 H 550.854 -0.435993 -0.612711 0
M  V30 5989 H 552.825 -2.35305 -1.83505 0
M  V30 5990 C 551.574 -1.26529 -3.2386 0
M  V30 5991 H 550.897 -2.11845 -3.3906 0
M  V30 5992 H 552.337 -1.30336 -4.03471 0
M  V30 5993 C 550.796 0.0254168 -3.3689 0
M  V30 5994 O 551.326 0.992048 -3.89257 0
M  V30 5995 N 549.532 0.0916528 -2.90455 0
M  V30 5996 H 549.079 -0.695675 -2.48028 0
M  V30 5997 H 549.037 0.954745 -2.99553 0
M  V30 5998 N 552.809 0.956637 -1.25245 0
M  V30 5999 C 554.057 1.69764 -1.09657 0
M  V30 6000 C 554.378 1.91583 0.363464 0
M  V30 6001 O 553.648 1.50149 1.25825 0
M  V30 6002 H 552.228 0.629097 -0.402798 0
M  V30 6003 H 554.89 1.15026 -1.57337 0
M  V30 6004 H 553.986 2.67769 -1.60331 0
M  V30 6005 N 554.287 1.06798 1.15896 0
M  V30 6006 C 555.517 0.807522 1.90165 0
M  V30 6007 C 555.925 -0.642417 1.7796 0
M  V30 6008 O 555.268 -1.45193 1.12537 0
M  V30 6009 C 555.33 1.12939 3.41299 0
M  V30 6010 C 554.994 2.57879 3.7729 0
M  V30 6011 C 555.991 3.56118 3.78782 0
M  V30 6012 C 553.676 2.93311 4.07767 0
M  V30 6013 C 555.67 4.87827 4.10248 0
M  V30 6014 C 553.357 4.25219 4.38899 0
M  V30 6015 C 554.355 5.22287 4.4012 0
M  V30 6016 O 554.043 6.51826 4.70508 0
M  V30 6017 H 553.775 0.291946 0.609708 0
M  V30 6018 H 556.329 1.42627 1.47806 0
M  V30 6019 H 554.559 0.45359 3.84031 0
M  V30 6020 H 556.248 0.852363 3.9685 0
M  V30 6021 H 557.014 3.30086 3.55342 0
M  V30 6022 H 552.893 2.18409 4.05979 0
M  V30 6023 H 556.437 5.63586 4.11116 0
M  V30 6024 H 552.334 4.51006 4.61805 0
M  V30 6025 H 553.102 6.56893 4.88298 0
M  V30 6026 N 555.766 -1.3263 0.851289 0
M  V30 6027 C 556.996 -2.01271 0.466222 0
M  V30 6028 C 557.404 -1.64156 -0.940714 0
M  V30 6029 O 556.747 -0.857109 -1.62479 0
M  V30 6030 C 556.809 -3.55695 0.521672 0
M  V30 6031 C 556.473 -4.16227 1.88691 0
M  V30 6032 C 557.47 -4.34699 2.85189 0
M  V30 6033 C 555.155 -4.52377 2.18313 0
M  V30 6034 C 557.149 -4.88484 4.09465 0
M  V30 6035 C 554.836 -5.05868 3.42843 0
M  V30 6036 C 555.834 -5.23869 4.38235 0
M  V30 6037 O 555.522 -5.76218 5.6056 0
M  V30 6038 H 555.254 -0.651034 0.18202 0
M  V30 6039 H 557.808 -1.7026 1.14894 0
M  V30 6040 H 556.038 -3.86086 -0.217888 0
M  V30 6041 H 557.727 -4.05613 0.152682 0
M  V30 6042 H 558.493 -4.07107 2.63607 0
M  V30 6043 H 554.372 -4.37652 1.44851 0
M  V30 6044 H 557.916 -5.02451 4.83931 0
M  V30 6045 H 553.813 -5.32891 3.64277 0
M  V30 6046 H 554.581 -5.94616 5.62471 0
M  V30 6047 N 557.244 -0.608902 -1.45362 0
M  V30 6048 C 558.492 -0.104401 -2.0183 0
M  V30 6049 C 558.813 1.27007 -1.47967 0
M  V30 6050 O 558.083 1.83924 -0.674455 0
M  V30 6051 H 556.663 -0.0356042 -0.746151 0
M  V30 6052 H 559.325 -0.790596 -1.78145 0
M  V30 6053 H 558.421 -0.0551793 -3.12051 0
M  V30 6054 N 558.722 1.53707 -0.348139 0
M  V30 6055 C 559.947 2.05877 0.250883 0
M  V30 6056 C 560.372 1.22115 1.43072 0
M  V30 6057 O 559.73 0.235986 1.79758 0
M  V30 6058 C 559.778 3.54886 0.639416 0
M  V30 6059 O 558.882 3.73948 1.73888 0
M  V30 6060 H 558.223 0.662754 0.040653 0
M  V30 6061 H 560.753 1.98303 -0.503685 0
M  V30 6062 H 560.763 3.97601 0.915295 0
M  V30 6063 H 559.438 4.153 -0.223386 0
M  V30 6064 H 558.015 3.43134 1.45991 0
M  V30 6065 N 560.2 0.0768682 1.57412 0
M  V30 6066 C 561.13 -0.886026 2.16037 0
M  V30 6067 C 562.111 -1.30691 1.08876 0
M  V30 6068 O 563.296 -1.37705 1.36934 0
M  V30 6069 C 560.426 -2.1518 2.72608 0
M  V30 6070 C 559.38 -1.87015 3.8498 0
M  V30 6071 C 558.706 -3.20266 4.28175 0
M  V30 6072 C 560.006 -1.17143 5.08994 0
M  V30 6073 H 561.7 -0.397642 2.96748 0
M  V30 6074 H 559.246 -0.189823 1.42743 0
M  V30 6075 H 561.199 -2.82962 3.12266 0
M  V30 6076 H 559.923 -2.66269 1.89125 0
M  V30 6077 H 558.582 -1.21636 3.45833 0
M  V30 6078 H 558.23 -3.69207 3.41607 0
M  V30 6079 H 557.93 -3.0221 5.03927 0
M  V30 6080 H 559.454 -3.89237 4.70454 0
M  V30 6081 H 560.868 -1.75003 5.45937 0
M  V30 6082 H 559.265 -1.09328 5.90057 0
M  V30 6083 H 560.335 -0.151295 4.84664 0
M  V30 6084 N 561.678 -1.56367 -0.196722 0
M  V30 6085 C 562.61 -1.90941 -1.26784 0
M  V30 6086 C 563.623 -0.799928 -1.41792 0
M  V30 6087 O 564.812 -1.07833 -1.42247 0
M  V30 6088 C 561.912 -2.12477 -2.6402 0
M  V30 6089 C 561.085 -3.43616 -2.70641 0
M  V30 6090 C 560.144 -3.54284 -3.89062 0
M  V30 6091 O 559.17 -4.2712 -3.76241 0
M  V30 6092 N 560.372 -2.87252 -5.04447 0
M  V30 6093 H 563.137 -2.83417 -0.974417 0
M  V30 6094 H 560.698 -1.57215 -0.386649 0
M  V30 6095 H 562.69 -2.16904 -3.41665 0
M  V30 6096 H 561.26 -1.26508 -2.85857 0
M  V30 6097 H 560.48 -3.51072 -1.79283 0
M  V30 6098 H 561.768 -4.29958 -2.72054 0
M  V30 6099 H 561.166 -2.27901 -5.17762 0
M  V30 6100 H 559.723 -2.97308 -5.80044 0
M  V30 6101 N 563.156 0.464375 -1.50603 0
M  V30 6102 C 564.104 1.58224 -1.70493 0
M  V30 6103 C 565.098 1.59492 -0.570836 0
M  V30 6104 O 566.304 1.63561 -0.751517 0
M  V30 6105 H 562.679 0.525161 -0.538247 0
M  V30 6106 H 564.65 1.38613 -2.64252 0
M  V30 6107 C 563.399 2.96113 -1.82243 0
M  V30 6108 H 562.722 2.95858 -2.68901 0
M  V30 6109 H 564.162 3.73769 -2.00182 0
M  V30 6110 C 562.621 3.31946 -0.575628 0
M  V30 6111 O 563.151 4.00708 0.282152 0
M  V30 6112 N 561.357 2.87436 -0.427665 0
M  V30 6113 H 560.904 2.31652 -1.12674 0
M  V30 6114 H 560.862 3.11776 0.405379 0
M  V30 6115 N 564.634 1.40294 0.718013 0
M  V30 6116 C 565.864 1.41544 1.50495 0
M  V30 6117 C 566.272 0.0127877 1.89196 0
M  V30 6118 O 565.615 -0.97305 1.55812 0
M  V30 6119 C 565.677 2.24021 2.81167 0
M  V30 6120 C 565.341 3.72463 2.64803 0
M  V30 6121 C 566.338 4.65154 2.32223 0
M  V30 6122 C 564.023 4.1625 2.81143 0
M  V30 6123 C 566.017 5.99618 2.16189 0
M  V30 6124 C 563.704 5.50784 2.64727 0
M  V30 6125 C 564.702 6.42283 2.32297 0
M  V30 6126 O 564.39 7.74337 2.16004 0
M  V30 6127 H 564.122 0.484819 0.471091 0
M  V30 6128 H 566.676 1.84948 0.893488 0
M  V30 6129 H 564.906 1.75393 3.44636 0
M  V30 6130 H 566.595 2.17243 3.42871 0
M  V30 6131 H 567.361 4.32622 2.19234 0
M  V30 6132 H 563.24 3.45352 3.05373 0
M  V30 6133 H 566.784 6.71 1.90799 0
M  V30 6134 H 562.681 5.82902 2.773 0
M  V30 6135 H 563.449 7.85244 2.30942 0
M  V30 6136 N 566.112 -0.949982 1.2575 0
M  V30 6137 C 567.34 -1.72972 1.13527 0
M  V30 6138 C 567.755 -1.8623 -0.310453 0
M  V30 6139 O 567.112 -1.36336 -1.2132 0
M  V30 6140 C 567.163 -3.14108 1.78936 0
M  V30 6141 O 566.884 -3.01493 3.17858 0
M  V30 6142 C 568.385 -4.08338 1.72554 0
M  V30 6143 H 565.605 -0.541864 0.395758 0
M  V30 6144 H 568.149 -1.19151 1.66202 0
M  V30 6145 H 566.304 -3.64858 1.30221 0
M  V30 6146 H 566.718 -3.90559 3.50092 0
M  V30 6147 H 568.192 -5.04963 2.22973 0
M  V30 6148 H 568.669 -4.33742 0.690251 0
M  V30 6149 H 569.275 -3.63506 2.2078 0
M  V30 6150 N 567.59 -1.07411 -1.15328 0
M  V30 6151 C 569.001 -0.820261 -1.67716 0
M  V30 6152 C 569.352 0.654539 -1.8496 0
M  V30 6153 O 568.477 1.50664 -1.55337 0
M  V30 6154 C 569.072 -1.48242 -3.04647 0
M  V30 6155 C 567.631 -1.27606 -3.5411 0
M  V30 6156 C 566.778 -1.5517 -2.29821 0
M  V30 6157 H 569.729 -1.23608 -0.995332 0
M  V30 6158 H 569.75 -0.903984 -3.69606 0
M  V30 6159 H 569.262 -2.55578 -2.92064 0
M  V30 6160 H 567.363 -0.222948 -3.71932 0
M  V30 6161 H 567.476 -1.99667 -4.35511 0
M  V30 6162 H 565.84 -0.972747 -2.35393 0
M  V30 6163 H 566.623 -2.63689 -2.19824 0
M  V30 6164 N 569.068 1.32177 -0.85831 0
M  V30 6165 C 570.293 2.01847 -0.476718 0
M  V30 6166 C 570.718 1.64065 0.920021 0
M  V30 6167 O 570.076 0.843189 1.60499 0
M  V30 6168 C 570.124 3.55097 -0.627578 0
M  V30 6169 O 569.228 4.11012 0.338086 0
M  V30 6170 H 568.569 0.635907 -0.191099 0
M  V30 6171 H 571.099 1.68641 -1.15851 0
M  V30 6172 H 571.109 4.04718 -0.516476 0
M  V30 6173 H 569.784 3.81938 -1.64609 0
M  V30 6174 H 568.361 3.72451 0.182917 0
M  V30 6175 N 570.547 0.616602 1.45037 0
M  V30 6176 C 571.772 0.120192 2.07051 0
M  V30 6177 C 572.197 -1.19008 1.45666 0
M  V30 6178 O 571.555 -1.7267 0.552692 0
M  V30 6179 C 571.603 0.00354901 3.606 0
M  V30 6180 O 570.707 -1.04431 3.98958 0
M  V30 6181 H 570.048 0.0781599 0.659384 0
M  V30 6182 H 572.578 0.849167 1.86146 0
M  V30 6183 H 572.588 -0.191754 4.07549 0
M  V30 6184 H 571.263 0.960239 4.04663 0
M  V30 6185 H 569.84 -0.824749 3.63665 0
M  V30 6186 N 572.025 -1.5352 0.356285 0
M  V30 6187 C 572.955 -2.28372 -0.486661 0
M  V30 6188 C 573.936 -1.30432 -1.09185 0
M  V30 6189 O 575.121 -1.59291 -1.11085 0
M  V30 6190 C 572.251 -3.06604 -1.63129 0
M  V30 6191 C 571.205 -4.12154 -1.15381 0
M  V30 6192 C 570.531 -4.78415 -2.38796 0
M  V30 6193 C 571.831 -5.21724 -0.245179 0
M  V30 6194 H 573.525 -2.99083 0.137797 0
M  V30 6195 H 571.071 -1.43841 0.0677134 0
M  V30 6196 H 573.024 -3.57712 -2.22755 0
M  V30 6197 H 571.748 -2.33568 -2.28284 0
M  V30 6198 H 570.407 -3.61978 -0.580294 0
M  V30 6199 H 570.055 -4.01959 -3.02387 0
M  V30 6200 H 569.755 -5.49734 -2.07524 0
M  V30 6201 H 571.279 -5.32313 -2.99125 0
M  V30 6202 H 572.693 -5.68391 -0.748646 0
M  V30 6203 H 571.09 -6.00095 -0.0237608 0
M  V30 6204 H 572.16 -4.79596 0.715229 0
M  V30 6205 N 573.503 -0.0852151 -1.57369 0
M  V30 6206 C 574.914 0.445428 -1.81309 0
M  V30 6207 C 575.265 1.68795 -1.00013 0
M  V30 6208 O 574.39 2.15211 -0.226573 0
M  V30 6209 C 574.985 0.814887 -3.28854 0
M  V30 6210 C 573.544 1.29032 -3.53592 0
M  V30 6211 C 572.691 0.282089 -2.75861 0
M  V30 6212 H 575.642 -0.310771 -1.55627 0
M  V30 6213 H 575.663 1.67524 -3.41637 0
M  V30 6214 H 575.175 -0.0896309 -3.87996 0
M  V30 6215 H 573.276 2.21289 -2.9977 0
M  V30 6216 H 573.389 1.25898 -4.62262 0
M  V30 6217 H 571.753 0.762182 -2.43029 0
M  V30 6218 H 572.536 -0.614936 -3.37748 0
M  V30 6219 N 574.981 1.5647 0.188427 0
M  V30 6220 C 576.229 1.80655 0.905986 0
M  V30 6221 C 576.55 0.659391 1.83513 0
M  V30 6222 O 575.82 -0.321868 1.93238 0
M  V30 6223 H 574.4 0.666391 0.337538 0
M  V30 6224 H 577.062 1.93949 0.192339 0
M  V30 6225 H 576.158 2.74066 1.49313 0
M  V30 6226 N 576.459 -0.456382 1.50847 0
M  V30 6227 C 577.689 -1.22848 1.66108 0
M  V30 6228 C 578.097 -1.85936 0.349897 0
M  V30 6229 O 577.44 -1.70664 -0.679665 0
M  V30 6230 C 577.502 -2.36722 2.70561 0
M  V30 6231 C 577.166 -1.94154 4.13707 0
M  V30 6232 C 578.163 -1.4557 4.99105 0
M  V30 6233 C 575.848 -2.02426 4.59705 0
M  V30 6234 C 577.842 -1.0582 6.28555 0
M  V30 6235 C 575.529 -1.62287 5.89157 0
M  V30 6236 C 576.527 -1.14064 6.73408 0
M  V30 6237 O 576.215 -0.744873 8.00442 0
M  V30 6238 H 575.947 -0.377105 0.561042 0
M  V30 6239 H 578.501 -0.549431 1.97915 0
M  V30 6240 H 576.731 -3.07844 2.34027 0
M  V30 6241 H 578.42 -2.98646 2.74892 0
M  V30 6242 H 579.186 -1.38589 4.64777 0
M  V30 6243 H 575.065 -2.38908 3.94264 0
M  V30 6244 H 578.609 -0.6811 6.94267 0
M  V30 6245 H 574.506 -1.68932 6.23003 0
M  V30 6246 H 575.274 -0.87242 8.13837 0
M  V30 6247 N 577.937 -1.40673 -0.710563 0
M  V30 6248 C 578.884 -1.41336 -1.82463 0
M  V30 6249 C 579.854 -0.269648 -1.63897 0
M  V30 6250 O 581.039 -0.468463 -1.8496 0
M  V30 6251 C 578.179 -1.28665 -3.20218 0
M  V30 6252 C 577.292 -2.52784 -3.5032 0
M  V30 6253 C 576.427 -2.32517 -4.77608 0
M  V30 6254 C 575.466 -3.52187 -5.0063 0
M  V30 6255 N 574.603 -3.31084 -6.19135 0
M  V30 6256 H 579.443 -2.36558 -1.8123 0
M  V30 6257 H 576.98 -1.17483 -0.885226 0
M  V30 6258 H 578.938 -1.19324 -3.99772 0
M  V30 6259 H 577.568 -0.370602 -3.20666 0
M  V30 6260 H 576.62 -2.72634 -2.65283 0
M  V30 6261 H 577.932 -3.41845 -3.63241 0
M  V30 6262 H 577.086 -2.20558 -5.65189 0
M  V30 6263 H 575.825 -1.40889 -4.66906 0
M  V30 6264 H 574.83 -3.64617 -4.11502 0
M  V30 6265 H 576.055 -4.44749 -5.13201 0
M  V30 6266 H 574.001 -2.42143 -6.09674 0
M  V30 6267 H 573.918 -4.13713 -6.32754 0
M  V30 6268 H 575.186 -3.22868 -7.0949 0
M  V30 6269 N 579.415 0.9433 -1.26252 0
M  V30 6270 C 580.325 2.07532 -1.09397 0
M  V30 6271 C 581.341 1.73977 -0.0280449 0
M  V30 6272 O 582.517 2.00067 -0.231337 0
M  V30 6273 C 579.582 3.39002 -0.726523 0
M  V30 6274 C 578.643 3.86353 -1.87163 0
M  V30 6275 C 577.876 5.11549 -1.52162 0
M  V30 6276 O 578.099 5.68834 -0.422385 0
M  V30 6277 O 577.033 5.53889 -2.35565 0
M  V30 6278 H 580.859 2.24658 -2.04359 0
M  V30 6279 H 578.444 1.05988 -1.05295 0
M  V30 6280 H 580.326 4.18 -0.534236 0
M  V30 6281 H 579.001 3.2312 0.193721 0
M  V30 6282 H 577.908 3.0831 -2.11886 0
M  V30 6283 H 579.241 4.06752 -2.77152 0
M  V30 6284 N 580.893 1.08022 1.14757 0
M  V30 6285 C 582.17 0.720386 1.81851 0
M  V30 6286 C 582.55 -0.796375 1.95502 0
M  V30 6287 O 581.898 -1.71339 1.51179 0
M  V30 6288 C 582.108 1.44273 3.17783 0
M  V30 6289 C 583.456 1.59925 3.93331 0
M  V30 6290 O 584.48 1.40407 3.2736 0
M  V30 6291 O 583.339 1.92096 5.11626 0
M  V30 6292 H 580.433 0.257142 0.786007 0
M  V30 6293 H 582.979 1.18155 1.21809 0
M  V30 6294 H 581.751 2.47618 3.02987 0
M  V30 6295 H 581.374 0.97279 3.85516 0
M  V30 6296 N 582.371 -1.3172 0.865308 0
M  V30 6297 C 583.318 -2.2863 0.315736 0
M  V30 6298 C 584.288 -1.55524 -0.583213 0
M  V30 6299 O 585.473 -1.83694 -0.51585 0
M  V30 6300 C 582.613 -3.41735 -0.480773 0
M  V30 6301 C 581.726 -4.297 0.445167 0
M  V30 6302 C 580.861 -5.29944 -0.365012 0
M  V30 6303 C 579.9 -6.09554 0.557651 0
M  V30 6304 N 579.037 -7.01768 -0.215994 0
M  V30 6305 H 583.877 -2.75026 1.14736 0
M  V30 6306 H 581.414 -1.35302 0.577209 0
M  V30 6307 H 583.372 -4.06045 -0.958306 0
M  V30 6308 H 582.002 -2.96461 -1.27714 0
M  V30 6309 H 581.054 -3.65875 1.04113 0
M  V30 6310 H 582.366 -4.85295 1.15284 0
M  V30 6311 H 581.52 -5.99908 -0.905255 0
M  V30 6312 H 580.259 -4.74994 -1.106 0
M  V30 6313 H 579.264 -5.38485 1.10969 0
M  V30 6314 H 580.489 -6.66591 1.29742 0
M  V30 6315 H 578.435 -6.49232 -0.939878 0
M  V30 6316 H 578.352 -7.54762 0.432431 0
M  V30 6317 H 579.62 -7.76002 -0.737618 0
M  V30 6318 N 583.85 -0.624285 -1.44708 0
M  V30 6319 C 585.075 -0.131171 -2.06985 0
M  V30 6320 C 585.5 1.18234 -1.46295 0
M  V30 6321 O 584.858 1.72375 -0.561842 0
M  V30 6322 C 584.906 -0.0226724 -3.60593 0
M  V30 6323 O 584.01 1.02314 -3.99507 0
M  V30 6324 H 583.351 -0.0816556 -0.65896 0
M  V30 6325 H 585.88 -0.859027 -1.85693 0
M  V30 6326 H 585.891 0.170138 -4.07645 0
M  V30 6327 H 584.566 -0.981685 -4.04148 0
M  V30 6328 H 583.143 0.805452 -3.64097 0
M  V30 6329 N 585.328 1.53329 -0.364422 0
M  V30 6330 C 586.291 2.24323 0.470292 0
M  V30 6331 C 587.291 1.25068 1.01067 0
M  V30 6332 O 588.481 1.49354 0.896605 0
M  V30 6333 C 585.613 2.97908 1.65722 0
M  V30 6334 H 586.806 2.9952 -0.150917 0
M  V30 6335 H 584.359 1.55868 -0.116092 0
M  V30 6336 H 585.094 2.2695 2.31655 0
M  V30 6337 H 584.879 3.70732 1.27671 0
M  V30 6338 H 586.369 3.5188 2.24878 0
M  V30 6339 N 586.806 0.0935595 1.57322 0
M  V30 6340 C 588.222 -0.263091 1.57417 0
M  V30 6341 C 588.422 -1.68526 1.1046 0
M  V30 6342 O 587.478 -2.40139 0.780357 0
M  V30 6343 C 588.791 -0.0529201 3.00653 0
M  V30 6344 C 590.339 -0.120788 3.12767 0
M  V30 6345 C 590.814 0.0613707 4.57959 0
M  V30 6346 N 592.305 0.00648534 4.632 0
M  V30 6347 C 593.04 0.122699 5.73269 0
M  V30 6348 N 592.536 0.29366 6.92177 0
M  V30 6349 N 594.329 0.0640787 5.62063 0
M  V30 6350 H 586.48 1.02277 1.86154 0
M  V30 6351 H 588.743 0.4007 0.859153 0
M  V30 6352 H 588.449 0.929279 3.39201 0
M  V30 6353 H 588.323 -0.795899 3.68708 0
M  V30 6354 H 590.71 -1.09349 2.74093 0
M  V30 6355 H 590.791 0.653656 2.47307 0
M  V30 6356 H 590.435 1.03093 4.97327 0
M  V30 6357 H 590.365 -0.732748 5.21477 0
M  V30 6358 H 592.856 -0.123173 3.77699 0
M  V30 6359 H 593.169 0.37389 7.71895 0
M  V30 6360 H 591.514 0.329307 6.94219 0
M  V30 6361 H 594.705 -0.0683396 4.6805 0
M  V30 6362 H 594.878 0.158097 6.47807 0
M  V30 6363 N 588.284 -1.56567 -0.180126 0
M  V30 6364 C 589.561 -1.7235 -0.924931 0
M  V30 6365 C 589.941 -0.652523 -2.00762 0
M  V30 6366 O 589.289 0.334115 -2.26044 0
M  V30 6367 C 589.499 -3.1523 -1.49771 0
M  V30 6368 C 590.847 -3.75921 -1.97405 0
M  V30 6369 O 591.871 -3.18452 -1.59583 0
M  V30 6370 O 590.73 -4.7681 -2.67048 0
M  V30 6371 H 587.824 -0.703502 -0.434758 0
M  V30 6372 H 590.37 -1.6886 -0.168647 0
M  V30 6373 H 589.142 -3.84656 -0.718027 0
M  V30 6374 H 588.765 -3.23009 -2.31842 0
M  V30 6375 N 589.762 0.448376 -1.51087 0
M  V30 6376 C 591.173 1.0286 -1.5581 0
M  V30 6377 C 591.524 1.92583 -0.374989 0
M  V30 6378 O 590.649 2.10316 0.509533 0
M  V30 6379 C 591.244 1.87223 -2.8237 0
M  V30 6380 C 589.803 2.40314 -2.897 0
M  V30 6381 C 588.95 1.19238 -2.50355 0
M  V30 6382 H 591.901 0.230075 -1.57023 0
M  V30 6383 H 591.922 2.72553 -2.6551 0
M  V30 6384 H 591.434 1.21894 -3.68461 0
M  V30 6385 H 589.535 3.09129 -2.08014 0
M  V30 6386 H 589.648 2.73866 -3.93108 0
M  V30 6387 H 588.012 1.53428 -2.03303 0
M  V30 6388 H 588.795 0.555367 -3.38778 0
M  V30 6389 N 591.24 1.41047 0.703093 0
M  V30 6390 C 592.187 1.42302 1.81711 0
M  V30 6391 C 593.157 0.278336 1.63751 0
M  V30 6392 O 594.342 0.478266 1.84709 0
M  V30 6393 C 591.482 1.30362 3.19531 0
M  V30 6394 C 590.595 2.54638 3.48975 0
M  V30 6395 C 589.73 2.35047 4.76368 0
M  V30 6396 C 588.769 3.54837 4.98756 0
M  V30 6397 N 587.906 3.34363 6.1737 0
M  V30 6398 H 592.746 2.37516 1.79973 0
M  V30 6399 H 590.283 1.1795 0.878983 0
M  V30 6400 H 592.241 1.21443 3.99134 0
M  V30 6401 H 590.871 0.387602 3.20464 0
M  V30 6402 H 589.923 2.74037 2.63833 0
M  V30 6403 H 591.235 3.43766 3.61423 0
M  V30 6404 H 590.389 2.23552 5.64012 0
M  V30 6405 H 589.128 1.43363 4.66153 0
M  V30 6406 H 588.133 3.66795 4.09563 0
M  V30 6407 H 589.358 4.47464 5.10835 0
M  V30 6408 H 587.304 2.45373 6.08382 0
M  V30 6409 H 587.221 4.17063 6.30551 0
M  V30 6410 H 588.489 3.26626 7.07768 0
M  V30 6411 N 592.718 -0.936591 1.26751 0
M  V30 6412 C 593.965 -1.68331 1.12566 0
M  V30 6413 C 594.293 -1.91677 -0.330168 0
M  V30 6414 O 593.548 -1.49859 -1.2586 0
M  V30 6415 C 593.847 -3.06099 1.84494 0
M  V30 6416 C 593.513 -3.02493 3.34378 0
M  V30 6417 C 592.175 -3.01217 3.75262 0
M  V30 6418 C 594.527 -2.94453 4.30055 0
M  V30 6419 C 591.855 -2.89672 5.10203 0
M  V30 6420 C 594.207 -2.84449 5.65041 0
M  V30 6421 C 592.871 -2.81518 6.0523 0
M  V30 6422 H 592.141 -0.615965 0.411907 0
M  V30 6423 H 594.788 -1.09292 1.5725 0
M  V30 6424 H 593.093 -3.6879 1.32292 0
M  V30 6425 H 594.79 -3.62733 1.70955 0
M  V30 6426 H 591.38 -3.04269 3.01858 0
M  V30 6427 H 595.564 -2.94544 3.99447 0
M  V30 6428 H 590.82 -2.85783 5.40498 0
M  V30 6429 H 594.994 -2.77192 6.38856 0
M  V30 6430 H 592.621 -2.72329 7.09747 0
M  V30 6431 N 594.196 -1.08629 -1.14182 0
M  V30 6432 C 595.144 -0.71284 -2.21408 0
M  V30 6433 C 596.138 0.282457 -1.67029 0
M  V30 6434 O 597.344 0.144783 -1.79417 0
M  V30 6435 H 593.719 -0.212497 -0.721352 0
M  V30 6436 H 595.69 -1.6265 -2.50175 0
M  V30 6437 C 594.439 -0.140704 -3.47415 0
M  V30 6438 H 593.762 -0.897739 -3.8959 0
M  V30 6439 H 595.202 0.0827677 -4.23919 0
M  V30 6440 C 593.661 1.122 -3.17668 0
M  V30 6441 O 594.191 2.20652 -3.35672 0
M  V30 6442 N 592.397 1.03328 -2.71609 0
M  V30 6443 H 591.944 0.150666 -2.57159 0
M  V30 6444 H 591.902 1.8789 -2.52081 0
M  V30 6445 N 595.674 1.31259 -0.872281 0
M  V30 6446 C 596.604 2.30929 -0.345554 0
M  V30 6447 C 597.585 1.60449 0.5648 0
M  V30 6448 O 598.77 1.8814 0.481335 0
M  V30 6449 C 595.9 3.44348 0.451823 0
M  V30 6450 C 594.854 4.26435 -0.365641 0
M  V30 6451 C 594.18 5.31785 0.557562 0
M  V30 6452 C 595.48 4.97159 -1.60095 0
M  V30 6453 H 597.174 2.75234 -1.17841 0
M  V30 6454 H 594.72 1.3232 -0.568094 0
M  V30 6455 H 596.673 4.13128 0.830854 0
M  V30 6456 H 595.397 2.98816 1.31821 0
M  V30 6457 H 594.056 3.59326 -0.726649 0
M  V30 6458 H 593.704 4.82502 1.4213 0
M  V30 6459 H 593.404 5.87598 0.0144878 0
M  V30 6460 H 594.928 6.03424 0.933387 0
M  V30 6461 H 596.342 5.58523 -1.29323 0
M  V30 6462 H 594.739 5.62779 -2.08327 0
M  V30 6463 H 595.809 4.24012 -2.35249 0
M  V30 6464 N 597.152 0.631951 1.44375 0
M  V30 6465 C 598.115 -0.0628142 2.29114 0
M  V30 6466 C 599.115 -0.771494 1.41084 0
M  V30 6467 O 600.305 -0.615959 1.62947 0
M  V30 6468 C 597.437 -1.09953 3.22681 0
M  V30 6469 H 598.63 0.682509 2.92031 0
M  V30 6470 H 596.183 0.392128 1.51301 0
M  V30 6471 H 596.918 -1.87481 2.64616 0
M  V30 6472 H 596.703 -0.595286 3.87555 0
M  V30 6473 H 598.193 -1.58538 3.86336 0
M  V30 6474 N 598.631 -1.53133 0.372548 0
M  V30 6475 C 599.581 -2.22733 -0.487218 0
M  V30 6476 C 600.565 -1.22506 -1.04312 0
M  V30 6477 O 601.757 -1.47923 -0.972005 0
M  V30 6478 C 598.886 -3.02524 -1.62278 0
M  V30 6479 C 597.972 -4.10133 -1.07943 0
M  V30 6480 N 598.363 -5.05133 -0.259629 0
M  V30 6481 C 596.661 -4.24964 -1.35356 0
M  V30 6482 C 597.362 -5.81687 0.0386656 0
M  V30 6483 N 596.338 -5.40699 -0.560827 0
M  V30 6484 H 600.14 -2.93538 0.145853 0
M  V30 6485 H 597.654 -1.61389 0.180938 0
M  V30 6486 H 599.651 -3.50909 -2.25096 0
M  V30 6487 H 598.311 -2.33252 -2.25884 0
M  V30 6488 H 599.322 -5.178 0.101746 0
M  V30 6489 H 595.999 -3.66919 -1.9919 0
M  V30 6490 H 597.389 -6.68224 0.701841 0
M  V30 6491 N 600.109 -0.101901 -1.5727 0
M  V30 6492 C 601.358 0.559922 -1.93772 0
M  V30 6493 C 601.671 1.68913 -0.98629 0
M  V30 6494 O 602.877 2.41256 -1.24529 0
M  V30 6495 C 601.333 1.04739 -3.44322 0
M  V30 6496 C 600.941 -0.05243 -4.47969 0
M  V30 6497 C 602.685 1.68157 -3.89774 0
M  V30 6498 C 600.592 0.450781 -5.8968 0
M  V30 6499 H 599.522 0.212931 -0.723309 0
M  V30 6500 H 602.173 -0.179001 -1.82625 0
M  V30 6501 H 600.555 1.84021 -3.50645 0
M  V30 6502 H 601.729 -0.828157 -4.53297 0
M  V30 6503 H 600.044 -0.592202 -4.12167 0
M  V30 6504 H 602.641 2.0689 -4.93052 0
M  V30 6505 H 602.984 2.55338 -3.28798 0
M  V30 6506 H 603.517 0.954453 -3.8618 0
M  V30 6507 H 600.256 -0.38458 -6.54371 0
M  V30 6508 H 599.776 1.19336 -5.87809 0
M  V30 6509 H 601.455 0.917555 -6.40461 0
M  V30 6510 N 601.587 1.56661 0.17182 0
M  V30 6511 C 602.497 1.99604 1.2327 0
M  V30 6512 C 603.513 0.907333 1.4847 0
M  V30 6513 O 604.689 1.21492 1.60629 0
M  V30 6514 C 601.754 2.34685 2.55194 0
M  V30 6515 C 600.815 3.57381 2.3786 0
M  V30 6516 C 600.048 3.90779 3.63494 0
M  V30 6517 O 600.271 3.25152 4.6865 0
M  V30 6518 O 599.205 4.84129 3.57634 0
M  V30 6519 H 603.031 2.90114 0.898192 0
M  V30 6520 H 600.616 1.44522 0.378647 0
M  V30 6521 H 602.498 2.5822 3.33017 0
M  V30 6522 H 601.173 1.47336 2.88225 0
M  V30 6523 H 600.08 3.39064 1.5807 0
M  V30 6524 H 601.413 4.45268 2.09754 0
M  V30 6525 N 603.065 -0.440357 1.51323 0
M  V30 6526 C 604.012 -1.53429 1.72419 0
M  V30 6527 C 604.982 -1.56165 0.565826 0
M  V30 6528 O 606.167 -1.73222 0.799917 0
M  V30 6529 C 603.307 -2.91169 1.85242 0
M  V30 6530 C 602.42 -2.97985 3.12777 0
M  V30 6531 C 601.555 -4.26829 3.16212 0
M  V30 6532 C 600.594 -4.27501 4.38074 0
M  V30 6533 N 599.731 -5.47866 4.39076 0
M  V30 6534 H 604.571 -1.34743 2.65797 0
M  V30 6535 H 602.108 -0.654608 1.31732 0
M  V30 6536 H 604.066 -3.71087 1.90658 0
M  V30 6537 H 602.696 -3.0842 0.952744 0
M  V30 6538 H 601.748 -2.10749 3.16685 0
M  V30 6539 H 603.06 -2.94342 4.02696 0
M  V30 6540 H 602.214 -5.15118 3.20527 0
M  V30 6541 H 600.953 -4.33124 2.24176 0
M  V30 6542 H 599.958 -3.37606 4.33938 0
M  V30 6543 H 601.183 -4.22873 5.31371 0
M  V30 6544 H 599.129 -5.54887 3.49909 0
M  V30 6545 H 599.046 -5.46091 5.22801 0
M  V30 6546 H 600.314 -6.38195 4.4758 0
M  V30 6547 N 604.543 -1.41418 -0.695603 0
M  V30 6548 C 605.453 -1.45622 -1.83933 0
M  V30 6549 C 606.469 -0.346825 -1.70508 0
M  V30 6550 O 607.645 -0.59454 -1.92424 0
M  V30 6551 C 604.71 -1.33627 -3.19914 0
M  V30 6552 C 603.771 -2.54882 -3.45447 0
M  V30 6553 C 603.004 -2.43449 -4.7494 0
M  V30 6554 O 603.227 -1.45905 -5.51424 0
M  V30 6555 O 602.161 -3.33206 -5.01256 0
M  V30 6556 H 605.987 -2.42114 -1.83342 0
M  V30 6557 H 603.572 -1.22956 -0.848658 0
M  V30 6558 H 605.454 -1.29221 -4.01098 0
M  V30 6559 H 604.129 -0.402508 -3.21188 0
M  V30 6560 H 603.036 -2.64865 -2.64192 0
M  V30 6561 H 604.369 -3.47087 -3.48987 0
M  V30 6562 N 606.021 0.929856 -1.27246 0
M  V30 6563 C 607.268 1.67731 -1.13457 0
M  V30 6564 C 607.596 1.9185 0.319998 0
M  V30 6565 O 606.851 1.50524 1.25064 0
M  V30 6566 C 607.15 3.05116 -1.86115 0
M  V30 6567 C 606.816 3.00715 -3.35978 0
M  V30 6568 C 605.478 2.99222 -3.76855 0
M  V30 6569 C 607.83 2.92168 -4.3161 0
M  V30 6570 C 605.158 2.86962 -5.11732 0
M  V30 6571 C 607.51 2.81449 -5.66542 0
M  V30 6572 C 606.174 2.78305 -6.06715 0
M  V30 6573 H 605.444 0.613772 -0.415168 0
M  V30 6574 H 608.091 1.08456 -1.57827 0
M  V30 6575 H 606.396 3.68083 -1.34246 0
M  V30 6576 H 608.093 3.61822 -1.72876 0
M  V30 6577 H 604.683 3.02664 -3.03468 0
M  V30 6578 H 608.867 2.92421 -4.01003 0
M  V30 6579 H 604.123 2.82913 -5.42006 0
M  V30 6580 H 608.297 2.738 -6.40317 0
M  V30 6581 H 605.924 2.68561 -7.11181 0
M  V30 6582 N 607.499 1.09233 1.13605 0
M  V30 6583 C 608.409 0.741939 2.22559 0
M  V30 6584 C 609.425 -0.255236 1.72118 0
M  V30 6585 O 610.601 -0.0970747 2.01166 0
M  V30 6586 C 607.666 0.165595 3.46304 0
M  V30 6587 C 606.727 1.21846 4.11645 0
M  V30 6588 C 605.96 0.669526 5.29484 0
M  V30 6589 O 606.183 -0.508228 5.68131 0
M  V30 6590 O 605.117 1.42361 5.84822 0
M  V30 6591 H 608.943 1.65107 2.54899 0
M  V30 6592 H 606.528 0.866584 1.21699 0
M  V30 6593 H 608.41 -0.152592 4.21124 0
M  V30 6594 H 607.085 -0.716573 3.15669 0
M  V30 6595 H 605.992 1.58931 3.38662 0
M  V30 6596 H 607.325 2.07321 4.46407 0
M  V30 6597 N 608.977 -1.30795 0.87923 0
M  V30 6598 C 610.223 -1.96653 0.495519 0
M  V30 6599 C 610.556 -1.69282 -0.951703 0
M  V30 6600 O 609.831 -0.994374 -1.6716 0
M  V30 6601 C 610.114 -3.51898 0.764174 0
M  V30 6602 C 609.967 -3.88808 2.2616 0
M  V30 6603 C 611.286 -4.39462 0.236825 0
M  V30 6604 H 608.405 -0.7143 0.181507 0
M  V30 6605 H 611.047 -1.54765 1.10217 0
M  V30 6606 H 609.197 -3.87709 0.247841 0
M  V30 6607 H 610.869 -3.63051 2.8459 0
M  V30 6608 H 609.112 -3.37082 2.73053 0
M  V30 6609 H 609.783 -4.97086 2.4002 0
M  V30 6610 H 612.259 -4.10528 0.678683 0
M  V30 6611 H 611.135 -5.47018 0.454176 0
M  V30 6612 H 611.396 -4.33621 -0.861683 0
M  V30 6613 N 610.455 -0.639598 -1.44038 0
M  V30 6614 C 611.701 -0.156248 -2.02799 0
M  V30 6615 C 612.056 1.21145 -1.49471 0
M  V30 6616 O 611.349 1.79406 -0.672608 0
M  V30 6617 C 611.543 -0.0925348 -3.5728 0
M  V30 6618 C 611.372 -1.45252 -4.25596 0
M  V30 6619 C 610.142 -2.04145 -4.62226 0
M  V30 6620 C 612.34 -2.38812 -4.55492 0
M  V30 6621 N 610.322 -3.3329 -5.15549 0
M  V30 6622 C 611.693 -3.52578 -5.09989 0
M  V30 6623 C 613.748 -2.37785 -4.3745 0
M  V30 6624 C 612.451 -4.65525 -5.48342 0
M  V30 6625 C 614.477 -3.49802 -4.76857 0
M  V30 6626 C 613.839 -4.62292 -5.31475 0
M  V30 6627 H 609.938 -0.101292 -0.775412 0
M  V30 6628 H 612.522 -0.844938 -1.75411 0
M  V30 6629 H 610.693 0.565459 -3.84262 0
M  V30 6630 H 612.425 0.400426 -4.02714 0
M  V30 6631 H 609.18 -1.56999 -4.4682 0
M  V30 6632 H 609.604 -3.9934 -5.46678 0
M  V30 6633 H 614.246 -1.52061 -3.94509 0
M  V30 6634 H 611.964 -5.51951 -5.90233 0
M  V30 6635 H 615.55 -3.50193 -4.64603 0
M  V30 6636 H 614.43 -5.47536 -5.61403 0
M  V30 6637 N 611.933 1.52934 -0.380664 0
M  V30 6638 C 612.881 2.27727 0.47361 0
M  V30 6639 C 613.875 1.31288 1.0705 0
M  V30 6640 O 615.081 1.4886 1.01197 0
M  V30 6641 H 611.456 0.732189 0.171475 0
M  V30 6642 H 613.427 2.97864 -0.178785 0
M  V30 6643 C 612.176 3.0904 1.59341 0
M  V30 6644 H 611.499 3.831 1.14343 0
M  V30 6645 H 612.939 3.64527 2.16555 0
M  V30 6646 C 611.398 2.20813 2.54447 0
M  V30 6647 O 611.928 1.82907 3.57642 0
M  V30 6648 N 610.134 1.85145 2.23986 0
M  V30 6649 H 609.681 2.16169 1.40103 0
M  V30 6650 H 609.639 1.26402 2.87871 0
M  V30 6651 N 613.412 0.11024 1.57214 0
M  V30 6652 C 614.658 -0.544479 1.95977 0
M  V30 6653 C 615.013 -1.64845 0.992171 0
M  V30 6654 O 614.306 -1.91589 0.0206981 0
M  V30 6655 C 614.5 -1.13102 3.39032 0
M  V30 6656 C 614.329 -0.0854079 4.49619 0
M  V30 6657 C 613.099 0.343373 5.04132 0
M  V30 6658 C 615.297 0.692232 5.0962 0
M  V30 6659 N 613.279 1.37567 5.98288 0
M  V30 6660 C 614.65 1.57596 5.99636 0
M  V30 6661 C 616.705 0.744085 4.92309 0
M  V30 6662 C 615.408 2.50701 6.74197 0
M  V30 6663 C 617.434 1.6628 5.67543 0
M  V30 6664 C 616.796 2.53412 6.57238 0
M  V30 6665 H 612.895 -0.169124 0.763493 0
M  V30 6666 H 615.479 0.196326 1.93708 0
M  V30 6667 H 613.65 -1.84158 3.41965 0
M  V30 6668 H 615.382 -1.74934 3.64939 0
M  V30 6669 H 612.137 -0.0473277 4.73576 0
M  V30 6670 H 612.561 1.89048 6.50069 0
M  V30 6671 H 617.203 0.0845825 4.22715 0
M  V30 6672 H 614.921 3.17669 7.43043 0
M  V30 6673 H 618.507 1.70825 5.56156 0
M  V30 6674 H 617.387 3.23347 7.14434 0
M  V30 6675 N 614.89 -1.56749 -0.16351 0
M  V30 6676 C 616.167 -1.73321 -0.906599 0
M  V30 6677 C 616.547 -0.673779 -2.00059 0
M  V30 6678 O 615.895 0.310121 -2.26386 0
M  V30 6679 C 616.105 -3.168 -1.46419 0
M  V30 6680 C 617.453 -3.77993 -1.93407 0
M  V30 6681 O 618.477 -3.20127 -1.56196 0
M  V30 6682 O 617.336 -4.79615 -2.61976 0
M  V30 6683 H 614.43 -0.708073 -0.427272 0
M  V30 6684 H 616.976 -1.69029 -0.150727 0
M  V30 6685 H 615.748 -3.85396 -0.677189 0
M  V30 6686 H 615.371 -3.2545 -2.28403 0
M  V30 6687 N 616.368 0.432326 -1.51554 0
M  V30 6688 C 617.598 1.2019 -1.68042 0
M  V30 6689 C 618.006 1.85356 -0.379434 0
M  V30 6690 O 617.349 1.71724 0.652427 0
M  V30 6691 C 617.411 2.32387 -2.74292 0
M  V30 6692 C 617.075 1.87548 -4.16743 0
M  V30 6693 C 618.072 1.37611 -5.01357 0
M  V30 6694 C 615.757 1.95087 -4.62868 0
M  V30 6695 C 617.751 0.958069 -6.30159 0
M  V30 6696 C 615.438 1.52894 -5.91664 0
M  V30 6697 C 616.436 1.03336 -6.75137 0
M  V30 6698 O 616.124 0.617435 -8.01525 0
M  V30 6699 H 615.856 0.368132 -0.56697 0
M  V30 6700 H 618.41 0.517875 -1.98764 0
M  V30 6701 H 616.64 3.04082 -2.38895 0
M  V30 6702 H 618.329 2.94235 -2.79608 0
M  V30 6703 H 619.095 1.31178 -4.66923 0
M  V30 6704 H 614.974 2.32606 -3.98015 0
M  V30 6705 H 618.518 0.570562 -6.95263 0
M  V30 6706 H 614.415 1.58999 -6.25611 0
M  V30 6707 H 615.183 0.742835 -8.15122 0
M  V30 6708 N 617.846 1.41785 0.688094 0
M  V30 6709 C 619.262 1.24419 0.999608 0
M  V30 6710 C 619.462 0.138868 2.01021 0
M  V30 6711 O 618.518 -0.494283 2.47615 0
M  V30 6712 C 619.831 2.59625 1.51709 0
M  V30 6713 C 621.379 2.66869 1.63554 0
M  V30 6714 C 621.854 4.0241 2.18702 0
M  V30 6715 N 623.345 4.04295 2.26053 0
M  V30 6716 C 624.08 5.05977 2.69768 0
M  V30 6717 N 623.576 6.18047 3.13033 0
M  V30 6718 N 625.369 4.93336 2.69398 0
M  V30 6719 H 617.52 2.12392 0.0187427 0
M  V30 6720 H 619.783 0.945347 0.0708673 0
M  V30 6721 H 619.489 3.41297 0.849059 0
M  V30 6722 H 619.363 2.82628 2.49803 0
M  V30 6723 H 621.75 1.8555 2.29467 0
M  V30 6724 H 621.831 2.47668 0.639857 0
M  V30 6725 H 621.475 4.8418 1.53402 0
M  V30 6726 H 621.405 4.18955 3.19037 0
M  V30 6727 H 623.896 3.23383 1.9553 0
M  V30 6728 H 624.209 6.91498 3.45038 0
M  V30 6729 H 622.554 6.21572 3.10923 0
M  V30 6730 H 625.745 4.04865 2.34952 0
M  V30 6731 H 625.918 5.72717 3.03148 0
M  V30 6732 N 619.324 -0.923095 1.27737 0
M  V30 6733 C 620.287 -2.00587 1.10894 0
M  V30 6734 C 621.287 -1.60718 0.0514927 0
M  V30 6735 O 622.477 -1.71658 0.296481 0
M  V30 6736 C 619.609 -3.33829 0.690717 0
M  V30 6737 H 620.802 -2.16959 2.07048 0
M  V30 6738 H 618.355 -1.10451 1.1059 0
M  V30 6739 H 619.09 -3.23157 -0.272 0
M  V30 6740 H 618.875 -3.64125 1.45448 0
M  V30 6741 H 620.365 -4.13336 0.595252 0
M  V30 6742 N 620.802 -1.09834 -1.13024 0
M  V30 6743 C 622.079 -0.749225 -1.80682 0
M  V30 6744 C 622.459 0.765171 -1.96744 0
M  V30 6745 O 621.807 1.68912 -1.53886 0
M  V30 6746 C 622.017 -1.49311 -3.15448 0
M  V30 6747 C 623.365 -1.66162 -3.90737 0
M  V30 6748 O 624.389 -1.45597 -3.25085 0
M  V30 6749 O 623.248 -2.00211 -5.08505 0
M  V30 6750 H 620.342 -0.269614 -0.781817 0
M  V30 6751 H 622.888 -1.20078 -1.19914 0
M  V30 6752 H 621.66 -2.52407 -2.99009 0
M  V30 6753 H 621.283 -1.034 -3.8392 0
M  V30 6754 N 622.28 1.30327 -0.886154 0
M  V30 6755 C 623.557 1.90922 -0.425217 0
M  V30 6756 C 623.937 1.80533 1.09413 0
M  V30 6757 O 623.285 1.2233 1.92996 0
M  V30 6758 C 623.495 3.36529 -0.924638 0
M  V30 6759 C 624.843 4.13598 -0.960305 0
M  V30 6760 O 625.867 3.45377 -0.871382 0
M  V30 6761 O 624.726 5.35482 -1.09184 0
M  V30 6762 H 621.82 0.81668 -0.130238 0
M  V30 6763 H 624.366 1.38886 -0.975132 0
M  V30 6764 H 623.138 3.38181 -1.96849 0
M  V30 6765 H 622.761 3.96021 -0.353955 0
M  V30 6766 N 623.758 0.647228 1.43697 0
M  V30 6767 C 624.983 0.164083 2.0675 0
M  V30 6768 C 625.408 -1.15892 1.48158 0
M  V30 6769 O 624.766 -1.71459 0.589194 0
M  V30 6770 C 624.814 0.0800368 3.60511 0
M  V30 6771 O 623.918 -0.959453 4.01084 0
M  V30 6772 H 623.259 0.0921288 0.657578 0
M  V30 6773 H 625.789 0.88846 1.84303 0
M  V30 6774 H 625.799 -0.105263 4.07864 0
M  V30 6775 H 624.474 1.04586 4.02535 0
M  V30 6776 H 623.051 -0.747425 3.65333 0
M  V30 6777 N 625.236 -1.5273 0.388769 0
M  V30 6778 C 626.513 -1.93981 -0.251133 0
M  V30 6779 C 626.893 -1.32418 -1.64404 0
M  V30 6780 O 626.241 -0.492074 -2.23139 0
M  V30 6781 C 626.451 -3.47891 -0.27802 0
M  V30 6782 C 627.799 -4.21559 -0.507229 0
M  V30 6783 O 628.823 -3.54394 -0.358252 0
M  V30 6784 O 627.682 -5.40626 -0.799094 0
M  V30 6785 H 624.776 -0.812157 -0.15598 0
M  V30 6786 H 627.322 -1.63809 0.443237 0
M  V30 6787 H 626.094 -3.8503 0.697669 0
M  V30 6788 H 625.717 -3.84364 -1.01733 0
M  V30 6789 N 626.714 -0.118576 -1.57153 0
M  V30 6790 C 627.944 0.546466 -1.99242 0
M  V30 6791 C 628.352 1.60791 -0.997148 0
M  V30 6792 O 627.695 1.83691 0.0181745 0
M  V30 6793 C 627.757 1.23167 -3.37743 0
M  V30 6794 C 627.421 0.318226 -4.55891 0
M  V30 6795 C 628.418 -0.442988 -5.18009 0
M  V30 6796 C 626.103 0.229421 -5.01776 0
M  V30 6797 C 628.097 -1.28074 -6.244 0
M  V30 6798 C 625.784 -0.611966 -6.08028 0
M  V30 6799 C 626.782 -1.36568 -6.69207 0
M  V30 6800 O 626.47 -2.1931 -7.73407 0
M  V30 6801 H 626.202 0.149297 -0.659307 0
M  V30 6802 H 628.756 -0.201603 -2.04408 0
M  V30 6803 H 626.986 2.0268 -3.29329 0
M  V30 6804 H 628.675 1.79358 -3.64123 0
M  V30 6805 H 629.441 -0.38425 -4.83475 0
M  V30 6806 H 625.32 0.805771 -4.53903 0
M  V30 6807 H 628.864 -1.86952 -6.72082 0
M  V30 6808 H 624.761 -0.6721 -6.41991 0
M  V30 6809 H 625.529 -2.12247 -7.90502 0
M  V30 6810 N 628.193 1.56834 0.155195 0
M  V30 6811 C 629.423 1.86778 0.883044 0
M  V30 6812 C 629.831 0.703824 1.75622 0
M  V30 6813 O 629.174 -0.33581 1.80605 0
M  V30 6814 C 629.236 3.1133 1.79761 0
M  V30 6815 C 628.9 4.43504 1.10242 0
M  V30 6816 C 629.897 5.17859 0.460204 0
M  V30 6817 C 627.582 4.90233 1.09437 0
M  V30 6818 C 629.576 6.37144 -0.180782 0
M  V30 6819 C 627.263 6.09444 0.449569 0
M  V30 6820 C 628.261 6.82744 -0.186888 0
M  V30 6821 O 627.949 7.99692 -0.821486 0
M  V30 6822 H 627.681 0.62352 0.261149 0
M  V30 6823 H 630.235 2.04813 0.155204 0
M  V30 6824 H 628.465 2.89282 2.56618 0
M  V30 6825 H 630.154 3.27587 2.39669 0
M  V30 6826 H 630.92 4.8283 0.458289 0
M  V30 6827 H 626.799 4.33109 1.57917 0
M  V30 6828 H 630.343 6.94296 -0.678154 0
M  V30 6829 H 626.24 6.43936 0.449123 0
M  V30 6830 H 627.008 8.15306 -0.722337 0
M  V30 6831 N 629.671 -0.424282 1.51781 0
M  V30 6832 C 630.899 -1.1947 1.68921 0
M  V30 6833 C 631.314 -1.84683 0.39213 0
M  V30 6834 O 630.671 -1.71261 -0.630554 0
M  V30 6835 C 630.722 -2.26909 2.81416 0
M  V30 6836 O 630.443 -1.64361 4.061 0
M  V30 6837 C 631.944 -3.16945 3.09937 0
M  V30 6838 H 629.164 -0.359591 0.566511 0
M  V30 6839 H 631.708 -0.501139 1.98265 0
M  V30 6840 H 629.863 -2.91959 2.54635 0
M  V30 6841 H 630.277 -2.35468 4.68674 0
M  V30 6842 H 631.751 -3.88437 3.922 0
M  V30 6843 H 632.228 -3.78451 2.22871 0
M  V30 6844 H 632.834 -2.57581 3.38426 0
M  V30 6845 N 631.149 -1.42148 -0.680565 0
M  V30 6846 C 632.081 -1.41119 -1.80605 0
M  V30 6847 C 633.094 -0.311099 -1.598 0
M  V30 6848 O 634.283 -0.573813 -1.69026 0
M  V30 6849 C 631.383 -1.18204 -3.17618 0
M  V30 6850 C 630.556 -2.40537 -3.65322 0
M  V30 6851 C 629.615 -2.13254 -4.8105 0
M  V30 6852 O 628.641 -2.8641 -4.91892 0
M  V30 6853 N 629.843 -1.13208 -5.69354 0
M  V30 6854 H 632.608 -2.38128 -1.81975 0
M  V30 6855 H 630.169 -1.36953 -0.863446 0
M  V30 6856 H 632.161 -0.97878 -3.92686 0
M  V30 6857 H 630.731 -0.29738 -3.11182 0
M  V30 6858 H 629.951 -2.76468 -2.80996 0
M  V30 6859 H 631.239 -3.22012 -3.93936 0
M  V30 6860 H 630.637 -0.526893 -5.63241 0
M  V30 6861 H 629.194 -0.988699 -6.44258 0
M  V30 6862 N 632.627 0.916307 -1.28225 0
M  V30 6863 C 634.038 1.48024 -1.13779 0
M  V30 6864 C 634.389 1.94289 0.273139 0
M  V30 6865 O 633.514 1.82226 1.16716 0
M  V30 6866 C 634.109 2.69029 -2.05935 0
M  V30 6867 C 632.668 3.2161 -1.95561 0
M  V30 6868 C 631.815 1.94321 -1.97825 0
M  V30 6869 H 634.766 0.729272 -1.40951 0
M  V30 6870 H 634.787 3.44204 -1.62184 0
M  V30 6871 H 634.299 2.35325 -3.08616 0
M  V30 6872 H 632.4 3.60045 -0.959076 0
M  V30 6873 H 632.513 3.87032 -2.82388 0
M  V30 6874 H 630.877 2.1131 -1.42198 0
M  V30 6875 H 631.66 1.62917 -3.0218 0
M  V30 6876 N 634.105 1.10431 1.1244 0
M  V30 6877 C 635.353 0.845045 1.83585 0
M  V30 6878 C 635.674 -0.631168 1.84503 0
M  V30 6879 O 634.944 -1.45825 1.30813 0
M  V30 6880 H 633.524 0.309628 0.679809 0
M  V30 6881 H 636.186 1.39458 1.36153 0
M  V30 6882 H 635.282 1.20786 2.8778 0
M  V30 6883 N 635.583 -1.29855 0.893053 0
M  V30 6884 C 636.86 -1.90694 0.435336 0
M  V30 6885 C 637.24 -1.8111 -1.08454 0
M  V30 6886 O 636.588 -1.23352 -1.92345 0
M  V30 6887 C 636.798 -3.36033 0.942472 0
M  V30 6888 C 638.146 -4.13083 0.982226 0
M  V30 6889 O 639.17 -3.4491 0.889686 0
M  V30 6890 O 638.029 -5.34896 1.12022 0
M  V30 6891 H 635.123 -0.815978 0.134567 0
M  V30 6892 H 637.669 -1.38367 0.982484 0
M  V30 6893 H 636.441 -3.37132 1.9864 0
M  V30 6894 H 636.064 -3.95828 0.374952 0
M  V30 6895 N 637.061 -0.65484 -1.43351 0
M  V30 6896 C 638.291 -0.176429 -2.05845 0
M  V30 6897 C 638.699 1.16375 -1.49176 0
M  V30 6898 O 638.042 1.72981 -0.618322 0
M  V30 6899 C 638.104 -0.0125844 -3.59498 0
M  V30 6900 C 637.768 -1.27831 -4.38758 0
M  V30 6901 C 638.765 -2.2074 -4.70712 0
M  V30 6902 C 636.45 -1.52035 -4.78739 0
M  V30 6903 C 638.444 -3.36145 -5.41558 0
M  V30 6904 C 636.131 -2.67732 -5.49329 0
M  V30 6905 C 637.129 -3.59612 -5.80662 0
M  V30 6906 O 636.817 -4.73289 -6.4981 0
M  V30 6907 H 636.549 -0.0879682 -0.670252 0
M  V30 6908 H 639.103 -0.896193 -1.84818 0
M  V30 6909 H 637.333 0.762567 -3.79107 0
M  V30 6910 H 639.022 0.423392 -4.03686 0
M  V30 6911 H 639.788 -2.03284 -4.40341 0
M  V30 6912 H 635.667 -0.813987 -4.53757 0
M  V30 6913 H 639.211 -4.07881 -5.65932 0
M  V30 6914 H 635.108 -2.85122 -5.79116 0
M  V30 6915 H 635.876 -4.72575 -6.68293 0
M  V30 6916 N 638.539 1.52521 -0.396863 0
M  V30 6917 C 639.769 2.05792 0.182485 0
M  V30 6918 C 640.177 1.26784 1.40436 0
M  V30 6919 O 639.52 0.309617 1.81072 0
M  V30 6920 C 639.582 3.54291 0.609781 0
M  V30 6921 C 639.246 4.5426 -0.499674 0
M  V30 6922 C 640.243 5.01812 -1.35944 0
M  V30 6923 C 637.928 4.97827 -0.668864 0
M  V30 6924 C 639.922 5.91562 -2.37346 0
M  V30 6925 C 637.609 5.87376 -1.68621 0
M  V30 6926 C 638.607 6.34137 -2.53692 0
M  V30 6927 O 638.295 7.21915 -3.53686 0
M  V30 6928 H 638.027 0.675362 0.0293583 0
M  V30 6929 H 640.581 1.97539 -0.56281 0
M  V30 6930 H 638.811 3.60188 1.40717 0
M  V30 6931 H 640.5 3.90267 1.11565 0
M  V30 6932 H 641.266 4.68879 -1.24008 0
M  V30 6933 H 637.145 4.60997 -0.0163971 0
M  V30 6934 H 640.689 6.27983 -3.03782 0
M  V30 6935 H 636.586 6.19723 -1.80593 0
M  V30 6936 H 637.354 7.39996 -3.49784 0
M  V30 6937 N 640.017 0.126909 1.57088 0
M  V30 6938 C 641.433 -0.229641 1.57939 0
M  V30 6939 C 641.633 -1.66145 1.1401 0
M  V30 6940 O 640.689 -2.3843 0.831119 0
M  V30 6941 C 642.002 0.0108648 3.00698 0
M  V30 6942 C 643.55 -0.054418 3.12953 0
M  V30 6943 C 644.025 0.158497 4.57726 0
M  V30 6944 N 645.516 0.104735 4.63082 0
M  V30 6945 C 646.251 0.24427 5.72879 0
M  V30 6946 N 645.747 0.440415 6.91399 0
M  V30 6947 N 647.54 0.183286 5.61801 0
M  V30 6948 H 639.691 1.06203 1.83942 0
M  V30 6949 H 641.954 0.418834 0.85046 0
M  V30 6950 H 641.66 1.00102 3.37154 0
M  V30 6951 H 641.534 -0.717512 3.70313 0
M  V30 6952 H 643.921 -1.0351 2.7635 0
M  V30 6953 H 644.002 0.705967 2.45865 0
M  V30 6954 H 643.646 1.13619 4.95028 0
M  V30 6955 H 643.576 -0.62197 5.22914 0
M  V30 6956 H 646.067 -0.0430298 3.77876 0
M  V30 6957 H 646.38 0.537536 7.70928 0
M  V30 6958 H 644.725 0.476488 6.93365 0
M  V30 6959 H 647.916 0.0309561 4.6809 0
M  V30 6960 H 648.089 0.295471 6.47326 0
M  V30 6961 N 641.495 -1.56914 -0.146875 0
M  V30 6962 C 642.72 -1.87881 -0.878386 0
M  V30 6963 C 643.145 -0.715945 -1.73942 0
M  V30 6964 O 642.503 0.334447 -1.78189 0
M  V30 6965 C 642.551 -3.17431 -1.71084 0
M  V30 6966 O 641.655 -3.01374 -2.81509 0
M  V30 6967 H 640.996 -0.617289 -0.244644 0
M  V30 6968 H 643.526 -2.04136 -0.137654 0
M  V30 6969 H 643.536 -3.49455 -2.10582 0
M  V30 6970 H 642.211 -4.01671 -1.07856 0
M  V30 6971 H 640.788 -2.80758 -2.45416 0
M  V30 6972 N 642.974 0.416227 -1.52004 0
M  V30 6973 C 643.904 1.51365 -1.77795 0
M  V30 6974 C 644.885 1.58059 -0.628601 0
M  V30 6975 O 646.07 1.73447 -0.873478 0
M  V30 6976 C 643.2 2.89256 -1.92219 0
M  V30 6977 C 642.154 2.97415 -3.0778 0
M  V30 6978 C 641.48 4.37492 -3.07417 0
M  V30 6979 C 642.78 2.69551 -4.47369 0
M  V30 6980 H 644.474 1.30033 -2.69688 0
M  V30 6981 H 642.02 0.624112 -1.29772 0
M  V30 6982 H 643.973 3.66008 -2.08845 0
M  V30 6983 H 642.697 3.11866 -0.969917 0
M  V30 6984 H 641.356 2.23107 -2.90893 0
M  V30 6985 H 641.004 4.571 -2.09925 0
M  V30 6986 H 640.704 4.43877 -3.85029 0
M  V30 6987 H 642.228 5.16188 -3.26162 0
M  V30 6988 H 643.642 3.36028 -4.64497 0
M  V30 6989 H 642.039 2.87321 -5.26846 0
M  V30 6990 H 643.109 1.65029 -4.55953 0
M  V30 6991 N 644.452 1.42507 0.673017 0
M  V30 6992 C 645.863 1.38347 1.25367 0
M  V30 6993 C 646.214 0.0776327 1.96046 0
M  V30 6994 O 645.339 -0.823571 2.00116 0
M  V30 6995 C 645.934 2.506 2.28002 0
M  V30 6996 C 644.493 2.49767 2.81591 0
M  V30 6997 C 643.64 2.293 1.55938 0
M  V30 6998 H 646.591 1.51695 0.466288 0
M  V30 6999 H 646.612 2.20953 3.09774 0
M  V30 7000 H 646.124 3.45627 1.76532 0
M  V30 7001 H 644.225 1.58563 3.37177 0
M  V30 7002 H 644.338 3.46867 3.30485 0
M  V30 7003 H 642.702 1.77594 1.82572 0
M  V30 7004 H 643.485 3.26385 1.06431 0
M  V30 7005 N 645.93 -0.909495 1.28709 0
M  V30 7006 C 646.893 -1.99399 1.13016 0
M  V30 7007 C 647.893 -1.60654 0.068536 0
M  V30 7008 O 649.083 -1.71334 0.314671 0
M  V30 7009 C 646.215 -3.33078 0.726085 0
M  V30 7010 H 647.408 -2.14751 2.09338 0
M  V30 7011 H 644.961 -1.09272 1.11756 0
M  V30 7012 H 645.696 -3.23428 -0.23771 0
M  V30 7013 H 645.481 -3.62562 1.49302 0
M  V30 7014 H 646.971 -4.12681 0.639058 0
M  V30 7015 N 647.408 -1.11026 -1.11852 0
M  V30 7016 C 648.685 -0.768347 -1.79877 0
M  V30 7017 C 649.065 0.744261 -1.97545 0
M  V30 7018 O 648.413 1.67271 -1.55669 0
M  V30 7019 C 648.623 -1.52648 -3.13846 0
M  V30 7020 C 649.971 -1.70297 -3.88953 0
M  V30 7021 O 650.995 -1.49037 -3.23522 0
M  V30 7022 O 649.854 -2.05593 -5.06353 0
M  V30 7023 H 646.948 -0.277891 -0.778913 0
M  V30 7024 H 649.494 -1.21343 -1.18633 0
M  V30 7025 H 648.266 -2.55564 -2.96315 0
M  V30 7026 H 647.889 -1.07466 -3.82801 0
M  V30 7027 N 648.886 1.2938 -0.899927 0
M  V30 7028 C 649.796 2.31462 -0.382437 0
M  V30 7029 C 650.812 1.65956 0.522929 0
M  V30 7030 O 651.988 1.97131 0.412454 0
M  V30 7031 C 649.053 3.44595 0.381472 0
M  V30 7032 C 648.114 4.25692 -0.555444 0
M  V30 7033 C 647.347 5.33422 0.172102 0
M  V30 7034 O 647.57 5.53053 1.396 0
M  V30 7035 O 646.504 5.99939 -0.485491 0
M  V30 7036 H 650.33 2.77706 -1.22934 0
M  V30 7037 H 647.915 1.33821 -0.664259 0
M  V30 7038 H 649.797 4.13474 0.813442 0
M  V30 7039 H 648.472 3.00458 1.20443 0
M  V30 7040 H 647.379 3.59453 -1.03653 0
M  V30 7041 H 648.712 4.73471 -1.34483 0
M  V30 7042 N 650.364 0.662433 1.43002 0
M  V30 7043 C 651.311 -0.0235324 2.30788 0
M  V30 7044 C 652.281 -0.805342 1.4527 0
M  V30 7045 O 653.466 -0.78009 1.74124 0
M  V30 7046 C 650.606 -0.977545 3.30965 0
M  V30 7047 C 649.719 -0.190865 4.31578 0
M  V30 7048 C 648.854 -1.13951 5.18834 0
M  V30 7049 C 647.893 -0.343796 6.11134 0
M  V30 7050 N 647.03 -1.2445 6.90982 0
M  V30 7051 H 651.87 0.730921 2.88897 0
M  V30 7052 H 649.407 0.372197 1.42313 0
M  V30 7053 H 651.365 -1.54437 3.87563 0
M  V30 7054 H 649.995 -1.69877 2.74484 0
M  V30 7055 H 649.047 0.492388 3.772 0
M  V30 7056 H 650.359 0.427464 4.96965 0
M  V30 7057 H 649.513 -1.77666 5.80103 0
M  V30 7058 H 648.252 -1.79174 4.53595 0
M  V30 7059 H 647.257 0.30665 5.48944 0
M  V30 7060 H 648.482 0.304161 6.78419 0
M  V30 7061 H 646.428 -1.88336 6.28383 0
M  V30 7062 H 646.345 -0.680959 7.52927 0
M  V30 7063 H 647.613 -1.86952 7.56749 0
M  V30 7064 N 651.842 -1.52309 0.404946 0
M  V30 7065 C 652.752 -2.30634 -0.429555 0
M  V30 7066 C 653.768 -1.38187 -1.05737 0
M  V30 7067 O 654.944 -1.71261 -1.05979 0
M  V30 7068 C 652.009 -3.10947 -1.53339 0
M  V30 7069 C 651.07 -4.19126 -0.929065 0
M  V30 7070 C 650.303 -4.95601 -1.9803 0
M  V30 7071 O 650.526 -4.72331 -3.1978 0
M  V30 7072 O 649.46 -5.80551 -1.58886 0
M  V30 7073 H 653.286 -3.0298 0.208963 0
M  V30 7074 H 650.871 -1.4845 0.168255 0
M  V30 7075 H 652.753 -3.60974 -2.1743 0
M  V30 7076 H 651.428 -2.41399 -2.15658 0
M  V30 7077 H 650.335 -3.73257 -0.250982 0
M  V30 7078 H 651.668 -4.90955 -0.349855 0
M  V30 7079 N 653.32 -0.135238 -1.57019 0
M  V30 7080 C 654.736 0.221262 -1.58059 0
M  V30 7081 C 654.936 1.65538 -1.14889 0
M  V30 7082 O 653.992 2.37985 -0.843751 0
M  V30 7083 C 655.305 -0.0268114 -3.00688 0
M  V30 7084 C 656.853 0.0378206 -3.12977 0
M  V30 7085 C 657.328 -0.182769 -4.57635 0
M  V30 7086 N 658.819 -0.129292 -4.6302 0
M  V30 7087 C 659.554 -0.274648 -5.72742 0
M  V30 7088 N 659.05 -0.477075 -6.91155 0
M  V30 7089 N 660.843 -0.213077 -5.61696 0
M  V30 7090 H 652.994 -1.07177 -1.83376 0
M  V30 7091 H 655.257 -0.423338 -0.848227 0
M  V30 7092 H 654.963 -1.01889 -3.36618 0
M  V30 7093 H 654.837 0.697863 -3.70688 0
M  V30 7094 H 657.224 1.02043 -2.76896 0
M  V30 7095 H 657.305 -0.718996 -2.45487 0
M  V30 7096 H 656.949 -1.16243 -4.94419 0
M  V30 7097 H 656.879 0.59423 -5.23237 0
M  V30 7098 H 659.37 0.0229896 -3.77893 0
M  V30 7099 H 659.683 -0.578413 -7.70632 0
M  V30 7100 H 658.028 -0.513252 -6.93102 0
M  V30 7101 H 661.219 -0.0557796 -4.68067 0
M  V30 7102 H 661.392 -0.329796 -6.4716 0
M  V30 7103 N 654.798 1.5699 0.138552 0
M  V30 7104 C 655.728 2.01933 1.17241 0
M  V30 7105 C 656.709 0.90033 1.44319 0
M  V30 7106 O 657.894 1.16872 1.55095 0
M  V30 7107 C 655.024 2.40711 2.50351 0
M  V30 7108 C 653.978 3.55874 2.37776 0
M  V30 7109 C 653.304 3.80491 3.75674 0
M  V30 7110 C 654.604 4.8826 1.85472 0
M  V30 7111 H 656.298 2.88551 0.798672 0
M  V30 7112 H 653.844 1.3882 0.382743 0
M  V30 7113 H 655.797 2.70754 3.22909 0
M  V30 7114 H 654.521 1.5104 2.89576 0
M  V30 7115 H 653.18 3.2601 1.67669 0
M  V30 7116 H 652.828 2.88057 4.12349 0
M  V30 7117 H 652.528 4.57998 3.68119 0
M  V30 7118 H 654.052 4.12967 4.49767 0
M  V30 7119 H 655.466 5.16965 2.4783 0
M  V30 7120 H 653.863 5.69631 1.88787 0
M  V30 7121 H 654.933 4.78071 0.810935 0
M  V30 7122 N 656.276 -0.40816 1.52223 0
M  V30 7123 C 657.226 -1.49648 1.72016 0
M  V30 7124 C 658.21 -1.50311 0.574069 0
M  V30 7125 O 659.402 -1.56271 0.831173 0
M  V30 7126 C 656.531 -2.87566 1.87512 0
M  V30 7127 C 655.617 -2.91547 3.07995 0
M  V30 7128 N 656.008 -2.65225 4.30685 0
M  V30 7129 C 654.306 -3.22715 3.07849 0
M  V30 7130 C 655.007 -2.75799 5.12162 0
M  V30 7131 N 653.983 -3.08719 4.4743 0
M  V30 7132 H 657.785 -1.28093 2.64517 0
M  V30 7133 H 655.299 -0.61588 1.50269 0
M  V30 7134 H 657.296 -3.65899 1.99809 0
M  V30 7135 H 655.956 -3.10118 0.962114 0
M  V30 7136 H 656.967 -2.39601 4.59142 0
M  V30 7137 H 653.644 -3.50856 2.26289 0
M  V30 7138 H 655.034 -2.59155 6.1991 0
M  V30 7139 N 657.755 -1.42862 -0.66545 0
M  V30 7140 C 659.032 -1.3431 -1.42197 0
M  V30 7141 C 659.412 0.0150265 -2.11095 0
M  V30 7142 O 658.76 1.03101 -2.03918 0
M  V30 7143 C 658.97 -2.51783 -2.41674 0
M  V30 7144 C 660.318 -2.94321 -3.0604 0
M  V30 7145 O 661.342 -2.51741 -2.52001 0
M  V30 7146 O 660.201 -3.68047 -4.03985 0
M  V30 7147 H 657.295 -0.530159 -0.634713 0
M  V30 7148 H 659.841 -1.54888 -0.693386 0
M  V30 7149 H 658.613 -3.42282 -1.89627 0
M  V30 7150 H 658.236 -2.33241 -3.22001 0
M  V30 7151 N 659.233 0.902656 -1.29189 0
M  V30 7152 C 660.461 1.68639 -1.19869 0
M  V30 7153 C 660.876 1.87254 0.241121 0
M  V30 7154 O 660.233 1.40745 1.16177 0
M  V30 7155 C 660.284 3.07251 -1.90471 0
M  V30 7156 O 660.005 2.89488 -3.28829 0
M  V30 7157 C 661.506 4.01653 -1.8759 0
M  V30 7158 H 658.726 0.526802 -0.415596 0
M  V30 7159 H 661.27 1.12901 -1.7051 0
M  V30 7160 H 659.425 3.59774 -1.43672 0
M  V30 7161 H 659.839 3.77296 -3.64346 0
M  V30 7162 H 661.313 4.96339 -2.4156 0
M  V30 7163 H 661.79 4.30881 -0.850756 0
M  V30 7164 H 662.396 3.55061 -2.34119 0
M  V30 7165 N 660.711 1.11618 1.11262 0
M  V30 7166 C 661.96 0.860934 1.82403 0
M  V30 7167 C 662.273 -0.615303 1.8567 0
M  V30 7168 O 663.479 -0.986861 2.52929 0
M  V30 7169 C 661.935 1.49048 3.27586 0
M  V30 7170 C 661.543 3.00089 3.32642 0
M  V30 7171 C 663.287 1.31515 4.03614 0
M  V30 7172 C 661.194 3.56019 4.72234 0
M  V30 7173 H 660.124 0.318423 0.683464 0
M  V30 7174 H 662.775 1.34165 1.25188 0
M  V30 7175 H 661.157 0.937434 3.84744 0
M  V30 7176 H 662.331 3.61813 2.85356 0
M  V30 7177 H 660.646 3.16919 2.70096 0
M  V30 7178 H 663.243 1.70732 5.0671 0
M  V30 7179 H 663.586 0.257917 4.155 0
M  V30 7180 H 664.119 1.83694 3.52848 0
M  V30 7181 H 660.858 4.61463 4.65545 0
M  V30 7182 H 660.378 2.99066 5.19923 0
M  V30 7183 H 662.057 3.54568 5.41193 0
M  V30 7184 N 662.189 -1.289 0.906776 0
M  V30 7185 C 663.437 -1.94883 0.535266 0
M  V30 7186 C 663.758 -1.71784 -0.922791 0
M  V30 7187 O 663.028 -1.05359 -1.65156 0
M  V30 7188 H 661.608 -0.721109 0.194962 0
M  V30 7189 H 664.27 -1.57018 1.15461 0
M  V30 7190 H 663.366 -3.03591 0.723821 0
M  V30 7191 N 663.667 -0.670007 -1.42649 0
M  V30 7192 C 664.577 0.0114788 -2.34597 0
M  V30 7193 C 665.593 0.794055 -1.54825 0
M  V30 7194 O 666.769 0.737472 -1.87412 0
M  V30 7195 C 663.834 0.954436 -3.33304 0
M  V30 7196 C 662.895 0.166925 -4.28975 0
M  V30 7197 C 662.128 1.06497 -5.22967 0
M  V30 7198 O 662.351 2.30446 -5.21777 0
M  V30 7199 O 661.285 0.528347 -5.99577 0
M  V30 7200 H 665.111 -0.745794 -2.944 0
M  V30 7201 H 662.696 -0.430228 -1.43071 0
M  V30 7202 H 664.578 1.49589 -3.93956 0
M  V30 7203 H 663.253 1.69164 -2.7598 0
M  V30 7204 H 662.16 -0.418515 -3.71752 0
M  V30 7205 H 663.493 -0.531067 -4.89327 0
M  V30 7206 N 665.145 1.52092 -0.413018 0
M  V30 7207 C 666.37 2.06756 0.163338 0
M  V30 7208 C 666.795 1.28073 1.37764 0
M  V30 7209 O 666.153 0.312015 1.78595 0
M  V30 7210 C 666.201 3.57278 0.488322 0
M  V30 7211 O 665.305 3.80986 1.57871 0
M  V30 7212 H 664.646 0.663882 0.0125068 0
M  V30 7213 H 667.176 1.95988 -0.587339 0
M  V30 7214 H 667.186 4.01125 0.745836 0
M  V30 7215 H 665.861 4.13978 -0.399327 0
M  V30 7216 H 664.438 3.49017 1.31306 0
M  V30 7217 N 666.623 0.143563 1.56945 0
M  V30 7218 C 667.553 -0.7936 2.196 0
M  V30 7219 C 668.534 -1.25955 1.14321 0
M  V30 7220 O 669.719 -1.31773 1.42651 0
M  V30 7221 C 666.849 -2.03424 2.81489 0
M  V30 7222 C 665.803 -1.70519 3.92565 0
M  V30 7223 C 665.129 -3.01817 4.41373 0
M  V30 7224 C 666.429 -0.95449 5.13504 0
M  V30 7225 H 668.123 -0.271423 2.98167 0
M  V30 7226 H 665.669 -0.12911 1.4342 0
M  V30 7227 H 667.622 -2.69463 3.23987 0
M  V30 7228 H 666.346 -2.58008 2.00248 0
M  V30 7229 H 665.005 -1.06859 3.5068 0
M  V30 7230 H 664.653 -3.54386 3.56959 0
M  V30 7231 H 664.353 -2.80565 5.16292 0
M  V30 7232 H 665.877 -3.68934 4.86539 0
M  V30 7233 H 667.291 -1.5169 5.52868 0
M  V30 7234 H 665.688 -0.842035 5.94163 0
M  V30 7235 H 666.758 0.0544033 4.84869 0
M  V30 7236 N 668.101 -1.57061 -0.130224 0
M  V30 7237 C 669.064 -1.98593 -1.14426 0
M  V30 7238 C 670.064 -0.874584 -1.34936 0
M  V30 7239 O 671.254 -1.14086 -1.31643 0
M  V30 7240 C 668.386 -2.31639 -2.50112 0
M  V30 7241 H 669.579 -2.89374 -0.787561 0
M  V30 7242 H 667.132 -1.51756 -0.374146 0
M  V30 7243 H 667.867 -1.43703 -2.90723 0
M  V30 7244 H 667.652 -3.12684 -2.36583 0
M  V30 7245 H 669.142 -2.64551 -3.23114 0
M  V30 7246 N 669.579 0.400081 -1.52437 0
M  V30 7247 C 670.529 1.48734 -1.72807 0
M  V30 7248 C 671.513 1.50004 -0.582032 0
M  V30 7249 O 672.705 1.55828 -0.839449 0
M  V30 7250 C 669.834 2.86568 -1.89034 0
M  V30 7251 C 668.92 2.8991 -3.09537 0
M  V30 7252 N 669.311 2.62937 -4.32086 0
M  V30 7253 C 667.609 3.21078 -3.09556 0
M  V30 7254 C 668.31 2.73079 -5.13617 0
M  V30 7255 N 667.286 3.06342 -4.49061 0
M  V30 7256 H 671.088 1.26689 -2.65193 0
M  V30 7257 H 668.602 0.607902 -1.50593 0
M  V30 7258 H 670.599 3.64834 -2.01746 0
M  V30 7259 H 669.259 3.09604 -0.978547 0
M  V30 7260 H 670.27 2.37163 -4.60406 0
M  V30 7261 H 666.947 3.49651 -2.28146 0
M  V30 7262 H 668.337 2.55863 -6.21276 0
M  V30 7263 N 671.057 1.43213 0.657864 0
M  V30 7264 C 672.303 1.44798 1.41991 0
M  V30 7265 C 672.636 0.070256 1.94073 0
M  V30 7266 O 671.911 -0.908177 1.71995 0
M  V30 7267 C 672.194 2.4865 2.60471 0
M  V30 7268 C 672.047 3.95679 2.13911 0
M  V30 7269 C 673.366 2.49292 3.62686 0
M  V30 7270 H 670.485 0.527244 0.514959 0
M  V30 7271 H 673.127 1.74733 0.74621 0
M  V30 7272 H 671.277 2.23254 3.17946 0
M  V30 7273 H 672.949 4.32116 1.61472 0
M  V30 7274 H 671.192 4.08733 1.45325 0
M  V30 7275 H 671.863 4.6395 2.99089 0
M  V30 7276 H 674.339 2.71917 3.14961 0
M  V30 7277 H 673.215 3.23907 4.43143 0
M  V30 7278 H 673.476 1.52502 4.14964 0
M  V30 7279 N 672.536 -0.895792 1.29666 0
M  V30 7280 C 673.764 -1.68001 1.20761 0
M  V30 7281 C 674.179 -1.87379 -0.231187 0
M  V30 7282 O 673.536 -1.41359 -1.15429 0
M  V30 7283 C 673.587 -3.06236 1.92098 0
M  V30 7284 O 673.308 -2.8774 3.30359 0
M  V30 7285 C 674.809 -4.00652 1.89717 0
M  V30 7286 H 672.029 -0.524591 0.418384 0
M  V30 7287 H 674.573 -1.11995 1.71106 0
M  V30 7288 H 672.728 -3.59007 1.45578 0
M  V30 7289 H 673.142 -3.75359 3.66342 0
M  V30 7290 H 674.616 -4.95051 2.44189 0
M  V30 7291 H 675.093 -4.30424 0.873595 0
M  V30 7292 H 675.699 -3.53815 2.35998 0
M  V30 7293 N 674.014 -1.12206 -1.10668 0
M  V30 7294 C 674.964 -0.75669 -2.15077 0
M  V30 7295 C 675.948 0.243154 -1.59052 0
M  V30 7296 O 677.14 0.0490268 -1.76932 0
M  V30 7297 C 674.269 -0.210303 -3.42655 0
M  V30 7298 C 673.355 -1.23829 -4.05619 0
M  V30 7299 N 673.746 -2.43513 -4.43323 0
M  V30 7300 C 672.044 -1.08309 -4.32649 0
M  V30 7301 C 672.745 -3.09138 -4.92756 0
M  V30 7302 N 671.721 -2.36593 -4.89413 0
M  V30 7303 H 675.523 -1.66747 -2.42018 0
M  V30 7304 H 673.037 -1.00248 -1.27765 0
M  V30 7305 H 675.034 0.0696287 -4.16842 0
M  V30 7306 H 673.694 0.694967 -3.17176 0
M  V30 7307 H 674.705 -2.80912 -4.35097 0
M  V30 7308 H 671.382 -0.234919 -4.16839 0
M  V30 7309 H 672.772 -4.11049 -5.31496 0
M  V30 7310 N 675.492 1.28418 -0.913599 0
M  V30 7311 C 676.439 2.27301 -0.400373 0
M  V30 7312 C 677.409 1.57582 0.52509 0
M  V30 7313 O 678.594 1.85482 0.447318 0
M  V30 7314 C 675.734 3.43284 0.35361 0
M  V30 7315 C 674.847 4.27752 -0.604341 0
M  V30 7316 C 673.982 5.30934 0.168075 0
M  V30 7317 C 673.021 6.07065 -0.783499 0
M  V30 7318 N 672.158 7.02086 -0.0446112 0
M  V30 7319 H 676.998 2.70579 -1.24865 0
M  V30 7320 H 674.535 1.33067 -0.627028 0
M  V30 7321 H 676.493 4.09322 0.806945 0
M  V30 7322 H 675.123 3.00997 1.16623 0
M  V30 7323 H 674.175 3.61759 -1.17621 0
M  V30 7324 H 675.487 4.80682 -1.33216 0
M  V30 7325 H 674.641 6.02855 0.681979 0
M  V30 7326 H 673.38 4.78771 0.928947 0
M  V30 7327 H 672.385 5.33995 -1.30878 0
M  V30 7328 H 673.61 6.61317 -1.54392 0
M  V30 7329 H 671.556 6.52273 0.698272 0
M  V30 7330 H 671.473 7.52637 -0.712258 0
M  V30 7331 H 672.741 7.78205 0.449102 0
M  V30 7332 N 676.97 0.677563 1.42291 0
M  V30 7333 C 677.88 0.000962654 2.346 0
M  V30 7334 C 678.896 -0.785833 1.55244 0
M  V30 7335 O 680.072 -0.727523 1.87801 0
M  V30 7336 C 677.137 -0.936746 3.33805 0
M  V30 7337 C 676.198 -0.144173 4.29058 0
M  V30 7338 C 675.431 -1.03722 5.23524 0
M  V30 7339 O 675.654 -2.27675 5.22992 0
M  V30 7340 O 674.588 -0.496542 5.99848 0
M  V30 7341 H 678.414 0.761397 2.94001 0
M  V30 7342 H 675.999 0.43781 1.42841 0
M  V30 7343 H 677.881 -1.47497 3.94744 0
M  V30 7344 H 676.556 -1.67698 2.76874 0
M  V30 7345 H 675.463 0.438224 3.71524 0
M  V30 7346 H 676.796 0.55701 4.89038 0
M  V30 7347 N 678.448 -1.51871 0.421078 0
M  V30 7348 C 679.697 -2.01125 -0.152206 0
M  V30 7349 C 680.01 -1.3106 -1.45199 0
M  V30 7350 O 681.216 -1.71195 -2.10724 0
M  V30 7351 C 679.672 -3.58458 -0.3218 0
M  V30 7352 C 679.28 -4.37448 0.96659 0
M  V30 7353 C 681.024 -4.15908 -0.84973 0
M  V30 7354 C 678.931 -5.86451 0.763529 0
M  V30 7355 H 677.861 -0.751556 -0.0606565 0
M  V30 7356 H 680.512 -1.75115 0.548354 0
M  V30 7357 H 678.894 -3.80847 -1.08498 0
M  V30 7358 H 680.068 -4.26814 1.73684 0
M  V30 7359 H 678.383 -3.91373 1.42183 0
M  V30 7360 H 680.98 -5.24922 -1.01788 0
M  V30 7361 H 681.323 -3.74031 -1.82774 0
M  V30 7362 H 681.856 -3.97535 -0.145297 0
M  V30 7363 H 678.595 -6.3271 1.71344 0
M  V30 7364 H 678.115 -5.99791 0.0327889 0
M  V30 7365 H 679.794 -6.45697 0.410354 0
M  V30 7366 N 679.926 -0.151884 -1.56866 0
M  V30 7367 C 681.172 0.498742 -1.96572 0
M  V30 7368 C 681.505 1.64194 -1.03702 0
M  V30 7369 O 680.78 1.94334 -0.0803432 0
M  V30 7370 C 681.063 1.00027 -3.45929 0
M  V30 7371 C 680.916 -0.141767 -4.49577 0
M  V30 7372 C 682.235 1.88044 -3.97904 0
M  V30 7373 H 679.354 0.17982 -0.714726 0
M  V30 7374 H 681.996 -0.234097 -1.88552 0
M  V30 7375 H 680.146 1.62476 -3.52894 0
M  V30 7376 H 681.818 -0.778269 -4.54687 0
M  V30 7377 H 680.061 -0.80019 -4.26356 0
M  V30 7378 H 680.732 0.250947 -5.51429 0
M  V30 7379 H 683.208 1.35416 -3.93449 0
M  V30 7380 H 682.084 2.20043 -5.02864 0
M  V30 7381 H 682.345 2.81916 -3.40552 0
M  V30 7382 N 681.404 1.57128 0.121893 0
M  V30 7383 C 682.681 1.75664 0.860327 0
M  V30 7384 C 683.061 0.726585 1.98202 0
M  V30 7385 O 682.409 -0.24999 2.27128 0
M  V30 7386 C 682.619 3.20571 1.37968 0
M  V30 7387 C 683.967 3.82988 1.83317 0
M  V30 7388 O 684.991 3.24156 1.47654 0
M  V30 7389 O 683.85 4.86393 2.49168 0
M  V30 7390 H 680.944 0.719153 0.408348 0
M  V30 7391 H 683.49 1.6937 0.105859 0
M  V30 7392 H 682.262 3.87056 0.57477 0
M  V30 7393 H 681.885 3.31392 2.19694 0
M  V30 7394 N 682.882 -0.391992 1.52647 0
M  V30 7395 C 683.829 -1.47866 1.77213 0
M  V30 7396 C 684.799 -1.54286 0.615223 0
M  V30 7397 O 685.984 -1.7059 0.854622 0
M  V30 7398 C 683.124 -2.85129 1.94411 0
M  V30 7399 C 682.237 -2.87883 3.22098 0
M  V30 7400 C 681.372 -4.16553 3.29631 0
M  V30 7401 C 680.411 -4.13348 4.51453 0
M  V30 7402 N 679.548 -5.33619 4.56284 0
M  V30 7403 H 684.388 -1.26219 2.6995 0
M  V30 7404 H 681.925 -0.612367 1.33748 0
M  V30 7405 H 683.883 -3.64833 2.02367 0
M  V30 7406 H 682.513 -3.05232 1.05038 0
M  V30 7407 H 681.565 -2.00567 3.23229 0
M  V30 7408 H 682.877 -2.81382 4.11856 0
M  V30 7409 H 682.031 -5.0466 3.36753 0
M  V30 7410 H 680.77 -4.25773 2.37842 0
M  V30 7411 H 679.775 -3.23629 4.44459 0
M  V30 7412 H 681 -4.05754 5.44555 0
M  V30 7413 H 678.946 -5.43474 3.67385 0
M  V30 7414 H 678.863 -5.29182 5.3991 0
M  V30 7415 H 680.131 -6.23632 4.67657 0
M  V30 7416 N 684.36 -1.4356 -0.65026 0
M  V30 7417 C 685.292 -1.44918 -1.77571 0
M  V30 7418 C 686.305 -0.344925 -1.59104 0
M  V30 7419 O 687.494 -0.609537 -1.6777 0
M  V30 7420 C 684.594 -1.24914 -3.15039 0
M  V30 7421 C 683.767 -2.48232 -3.60138 0
M  V30 7422 C 682.826 -2.23409 -4.76419 0
M  V30 7423 O 681.852 -2.9678 -4.85706 0
M  V30 7424 N 683.054 -1.25259 -5.66825 0
M  V30 7425 H 685.819 -2.41935 -1.76883 0
M  V30 7426 H 683.38 -1.38754 -0.834202 0
M  V30 7427 H 685.372 -1.06185 -3.90521 0
M  V30 7428 H 683.942 -0.363319 -3.10481 0
M  V30 7429 H 683.162 -2.82366 -2.75069 0
M  V30 7430 H 684.45 -3.30296 -3.87017 0
M  V30 7431 H 683.848 -0.646246 -5.61997 0
M  V30 7432 H 682.405 -1.12513 -6.42016 0
M  V30 7433 N 685.838 0.888903 -1.30139 0
M  V30 7434 C 686.768 2.01046 -1.18755 0
M  V30 7435 C 687.749 1.69916 -0.0791438 0
M  V30 7436 O 688.934 1.92445 -0.260498 0
M  V30 7437 C 686.064 3.36109 -0.874518 0
M  V30 7438 C 685.018 3.81486 -1.94043 0
M  V30 7439 C 684.344 5.13796 -1.48047 0
M  V30 7440 C 685.644 4.00637 -3.35093 0
M  V30 7441 H 687.338 2.10828 -2.12584 0
M  V30 7442 H 684.884 1.01298 -1.02346 0
M  V30 7443 H 686.837 4.14089 -0.781548 0
M  V30 7444 H 685.561 3.26449 0.0994519 0
M  V30 7445 H 684.22 3.05731 -2.02297 0
M  V30 7446 H 683.868 5.0056 -0.494878 0
M  V30 7447 H 683.568 5.45127 -2.19341 0
M  V30 7448 H 685.092 5.94305 -1.40121 0
M  V30 7449 H 686.506 4.69067 -3.2962 0
M  V30 7450 H 684.903 4.43339 -4.04438 0
M  V30 7451 H 685.973 3.0462 -3.77273 0
M  V30 7452 N 687.317 1.12792 1.10072 0
M  V30 7453 C 688.227 0.812369 2.20086 0
M  V30 7454 C 689.243 -0.200349 1.72843 0
M  V30 7455 O 690.419 -0.0330262 2.01373 0
M  V30 7456 C 687.484 0.275685 3.45602 0
M  V30 7457 C 686.545 1.34881 4.07561 0
M  V30 7458 C 685.778 0.837639 5.27086 0
M  V30 7459 O 686.001 -0.327224 5.69461 0
M  V30 7460 O 684.935 1.60894 5.79997 0
M  V30 7461 H 688.761 1.73133 2.49517 0
M  V30 7462 H 686.346 0.904863 1.18881 0
M  V30 7463 H 688.228 -0.0185375 4.21396 0
M  V30 7464 H 686.903 -0.615783 3.17789 0
M  V30 7465 H 685.81 1.69625 3.33434 0
M  V30 7466 H 687.143 2.21418 4.39585 0
M  V30 7467 N 688.795 -1.27931 0.920396 0
M  V30 7468 C 689.745 -2.24727 0.384966 0
M  V30 7469 C 690.729 -1.52715 -0.506661 0
M  V30 7470 O 691.921 -1.73599 -0.345298 0
M  V30 7471 C 689.05 -3.41324 -0.3678 0
M  V30 7472 C 688.136 -4.20649 0.539925 0
M  V30 7473 N 688.527 -4.77906 1.6565 0
M  V30 7474 C 686.825 -4.4469 0.341557 0
M  V30 7475 C 687.526 -5.37652 2.22047 0
M  V30 7476 N 686.502 -5.2218 1.51093 0
M  V30 7477 H 690.304 -2.66572 1.23761 0
M  V30 7478 H 687.818 -1.42779 0.773819 0
M  V30 7479 H 689.815 -4.0976 -0.768277 0
M  V30 7480 H 688.475 -3.01012 -1.21746 0
M  V30 7481 H 689.486 -4.76073 2.03899 0
M  V30 7482 H 686.163 -4.14868 -0.468045 0
M  V30 7483 H 687.553 -5.92948 3.1601 0
M  V30 7484 N 690.273 -0.685099 -1.4193 0
M  V30 7485 C 691.52 -0.211658 -2.01391 0
M  V30 7486 C 691.848 1.18526 -1.54214 0
M  V30 7487 O 691.103 1.81189 -0.739519 0
M  V30 7488 C 691.402 -0.206154 -3.56805 0
M  V30 7489 C 691.068 -1.54915 -4.23453 0
M  V30 7490 C 689.73 -1.91684 -4.41373 0
M  V30 7491 C 692.082 -2.43317 -4.60919 0
M  V30 7492 C 689.41 -3.16461 -4.94034 0
M  V30 7493 C 691.762 -3.67415 -5.14965 0
M  V30 7494 C 690.426 -4.04341 -5.31098 0
M  V30 7495 H 689.696 -0.0774511 -0.736941 0
M  V30 7496 H 692.343 -0.882121 -1.69973 0
M  V30 7497 H 690.648 0.547841 -3.87951 0
M  V30 7498 H 692.345 0.17753 -4.00607 0
M  V30 7499 H 688.935 -1.25314 -4.09871 0
M  V30 7500 H 693.119 -2.16192 -4.46738 0
M  V30 7501 H 688.375 -3.45078 -5.04709 0
M  V30 7502 H 692.549 -4.3611 -5.42938 0
M  V30 7503 H 690.176 -5.01101 -5.71666 0
M  V30 7504 N 691.751 1.51645 -0.429126 0
M  V30 7505 C 692.698 2.27542 0.386446 0
M  V30 7506 C 693.668 1.30786 1.02393 0
M  V30 7507 O 694.853 1.59678 1.0444 0
M  V30 7508 C 691.993 3.11457 1.48623 0
M  V30 7509 C 691.106 4.23196 0.867691 0
M  V30 7510 C 690.241 4.94435 1.94183 0
M  V30 7511 C 689.28 5.98108 1.30129 0
M  V30 7512 N 688.417 6.62786 2.31644 0
M  V30 7513 H 693.257 2.968 -0.267155 0
M  V30 7514 H 690.794 1.46397 -0.143591 0
M  V30 7515 H 692.752 3.58429 2.13506 0
M  V30 7516 H 691.382 2.44329 2.10957 0
M  V30 7517 H 690.434 3.80248 0.107373 0
M  V30 7518 H 691.746 4.97499 0.35997 0
M  V30 7519 H 690.9 5.44914 2.66747 0
M  V30 7520 H 689.639 4.19744 2.48326 0
M  V30 7521 H 688.644 5.4693 0.561082 0
M  V30 7522 H 689.869 6.74751 0.767303 0
M  V30 7523 H 687.815 5.90913 2.84883 0
M  V30 7524 H 687.732 7.32828 1.85741 0
M  V30 7525 H 689 7.17897 3.03717 0
M  V30 7526 N 693.229 0.160201 1.56784 0
M  V30 7527 C 694.176 -0.774416 2.1742 0
M  V30 7528 C 695.146 -1.23483 1.11091 0
M  V30 7529 O 696.331 -1.30499 1.39193 0
M  V30 7530 C 693.471 -2.00283 2.81035 0
M  V30 7531 C 692.584 -1.58701 4.01793 0
M  V30 7532 C 691.719 -2.76824 4.53367 0
M  V30 7533 C 690.758 -2.31679 5.66561 0
M  V30 7534 N 689.895 -3.42856 6.12694 0
M  V30 7535 H 694.735 -0.250542 2.96945 0
M  V30 7536 H 692.272 -0.111943 1.46673 0
M  V30 7537 H 694.23 -2.72316 3.16069 0
M  V30 7538 H 692.86 -2.5006 2.04132 0
M  V30 7539 H 691.912 -0.76384 3.72652 0
M  V30 7540 H 693.224 -1.21555 4.83762 0
M  V30 7541 H 692.378 -3.57029 4.90525 0
M  V30 7542 H 691.117 -3.17223 3.70433 0
M  V30 7543 H 690.122 -1.49917 5.28966 0
M  V30 7544 H 691.347 -1.9235 6.5129 0
M  V30 7545 H 689.293 -3.82852 5.32692 0
M  V30 7546 H 689.21 -3.09767 6.89624 0
M  V30 7547 H 690.478 -4.23379 6.545 0
M  V30 7548 N 694.707 -1.5719 -0.113559 0
M  V30 7549 C 695.67 -1.99796 -1.12314 0
M  V30 7550 C 696.67 -0.888847 -1.34001 0
M  V30 7551 O 697.86 -1.15476 -1.30426 0
M  V30 7552 C 694.992 -2.34279 -2.47641 0
M  V30 7553 H 696.185 -2.90193 -0.756825 0
M  V30 7554 H 693.738 -1.52144 -0.358029 0
M  V30 7555 H 694.473 -1.46778 -2.89183 0
M  V30 7556 H 694.258 -3.15175 -2.33253 0
M  V30 7557 H 695.748 -2.67963 -3.2029 0
M  V30 7558 N 696.185 0.383891 -1.52853 0
M  V30 7559 C 697.462 1.14296 -1.58732 0
M  V30 7560 C 697.842 2.07585 -0.383611 0
M  V30 7561 O 697.19 2.1971 0.627661 0
M  V30 7562 C 697.4 1.89816 -2.92867 0
M  V30 7563 C 698.748 2.44998 -3.46787 0
M  V30 7564 O 699.772 1.99966 -2.94774 0
M  V30 7565 O 698.631 3.2727 -4.37672 0
M  V30 7566 H 695.725 0.52326 -0.640413 0
M  V30 7567 H 698.271 0.388631 -1.6519 0
M  V30 7568 H 697.043 1.21626 -3.71918 0
M  V30 7569 H 696.666 2.72199 -2.89816 0
M  V30 7570 N 697.663 1.43903 0.642637 0
M  V30 7571 C 699.074 1.40975 1.22404 0
M  V30 7572 C 699.425 0.1192 1.95838 0
M  V30 7573 O 698.55 -0.780939 2.01818 0
M  V30 7574 C 699.145 2.5538 2.22636 0
M  V30 7575 C 697.704 2.55684 2.76229 0
M  V30 7576 C 696.851 2.32556 1.51039 0
M  V30 7577 H 699.802 1.5265 0.434006 0
M  V30 7578 H 699.823 2.27474 3.05017 0
M  V30 7579 H 699.335 3.49294 1.69161 0
M  V30 7580 H 697.436 1.65679 3.33738 0
M  V30 7581 H 697.549 3.53799 3.23053 0
M  V30 7582 H 695.913 1.81427 1.78764 0
M  V30 7583 H 696.696 3.28569 0.99484 0
M  V30 7584 N 699.141 -0.881989 1.30609 0
M  V30 7585 C 700.088 -1.98803 1.17244 0
M  V30 7586 C 701.058 -1.65987 0.0611905 0
M  V30 7587 O 702.243 -1.89385 0.231911 0
M  V30 7588 C 699.383 -3.33867 0.87333 0
M  V30 7589 C 698.496 -3.79354 2.06675 0
M  V30 7590 C 697.631 -5.03078 1.70547 0
M  V30 7591 C 696.67 -5.40981 2.86366 0
M  V30 7592 N 695.807 -6.55886 2.50514 0
M  V30 7593 H 700.647 -2.09566 2.11863 0
M  V30 7594 H 698.184 -1.02607 1.05405 0
M  V30 7595 H 700.142 -4.11612 0.680519 0
M  V30 7596 H 698.772 -3.2278 -0.0359983 0
M  V30 7597 H 697.824 -2.97492 2.37071 0
M  V30 7598 H 699.136 -4.03382 2.93401 0
M  V30 7599 H 698.29 -5.88457 1.47658 0
M  V30 7600 H 697.029 -4.80927 0.809947 0
M  V30 7601 H 696.034 -4.54127 3.09917 0
M  V30 7602 H 697.259 -5.65104 3.76609 0
M  V30 7603 H 695.205 -6.35306 1.63471 0
M  V30 7604 H 695.122 -6.79799 3.30771 0
M  V30 7605 H 696.39 -7.44489 2.30989 0
M  V30 7606 N 700.619 -1.13374 -1.09472 0
M  V30 7607 C 701.849 -0.917019 -1.85133 0
M  V30 7608 C 702.257 0.537568 -1.81402 0
M  V30 7609 O 701.6 1.38385 -1.20811 0
M  V30 7610 C 701.662 -1.32646 -3.34134 0
M  V30 7611 C 701.326 -2.79437 -3.61613 0
M  V30 7612 C 702.323 -3.77596 -3.57375 0
M  V30 7613 C 700.008 -3.16586 -3.89973 0
M  V30 7614 C 702.002 -5.10916 -3.81108 0
M  V30 7615 C 699.689 -4.50085 -4.13361 0
M  V30 7616 C 700.687 -5.47059 -4.0892 0
M  V30 7617 O 700.375 -6.78149 -4.31705 0
M  V30 7618 H 700.107 -0.326997 -0.591649 0
M  V30 7619 H 702.661 -1.51002 -1.39239 0
M  V30 7620 H 700.891 -0.676719 -3.80733 0
M  V30 7621 H 702.58 -1.08229 -3.91205 0
M  V30 7622 H 703.346 -3.50242 -3.35493 0
M  V30 7623 H 699.225 -2.41707 -3.92554 0
M  V30 7624 H 702.769 -5.86597 -3.77558 0
M  V30 7625 H 698.666 -4.77163 -4.34724 0
M  V30 7626 H 699.434 -6.84244 -4.49168 0
M  V30 7627 N 702.098 1.27442 -0.927168 0
M  V30 7628 C 703.061 2.2512 -0.430525 0
M  V30 7629 C 704.061 1.54357 0.450619 0
M  V30 7630 O 705.251 1.72371 0.251774 0
M  V30 7631 C 702.383 3.38763 0.381144 0
M  V30 7632 H 703.576 2.70569 -1.29354 0
M  V30 7633 H 701.129 1.39355 -0.707806 0
M  V30 7634 H 701.864 2.98695 1.263 0
M  V30 7635 H 701.649 3.91298 -0.250618 0
M  V30 7636 H 703.139 4.11364 0.719012 0
M  V30 7637 N 703.576 0.692616 1.41565 0
M  V30 7638 C 704.486 0.0258451 2.34586 0
M  V30 7639 C 705.502 -0.769324 1.56069 0
M  V30 7640 O 706.678 -0.707563 1.88562 0
M  V30 7641 C 703.743 -0.901289 3.3478 0
M  V30 7642 C 702.804 -0.0986579 4.29187 0
M  V30 7643 C 702.037 -0.981634 5.24595 0
M  V30 7644 O 702.26 -2.22115 5.25377 0
M  V30 7645 O 701.194 -0.432892 6.00341 0
M  V30 7646 H 705.02 0.792537 2.93177 0
M  V30 7647 H 702.605 0.452935 1.42369 0
M  V30 7648 H 704.487 -1.43302 3.96286 0
M  V30 7649 H 703.162 -1.64752 2.78637 0
M  V30 7650 H 702.069 0.477604 3.71039 0
M  V30 7651 H 703.402 0.608848 4.8842 0
M  V30 7652 N 705.054 -1.51416 0.437162 0
M  V30 7653 C 706.302 -2.01687 -0.129108 0
M  V30 7654 C 706.623 -1.32329 -1.43227 0
M  V30 7655 O 705.893 -0.457796 -1.90476 0
M  V30 7656 H 704.473 -0.745277 -0.0507023 0
M  V30 7657 H 707.135 -1.86075 0.579828 0
M  V30 7658 H 706.231 -3.10605 -0.305141 0
M  V30 7659 N 706.532 -0.168513 -1.56696 0
M  V30 7660 C 707.778 0.477865 -1.9709 0
M  V30 7661 C 708.111 1.63084 -1.05438 0
M  V30 7662 O 707.386 1.94238 -0.10095 0
M  V30 7663 C 707.669 0.963521 -3.4697 0
M  V30 7664 C 707.522 -0.189443 -4.49401 0
M  V30 7665 C 708.841 1.83813 -3.99876 0
M  V30 7666 H 705.96 0.172229 -0.716593 0
M  V30 7667 H 708.602 -0.254083 -1.88293 0
M  V30 7668 H 706.752 1.58724 -3.54597 0
M  V30 7669 H 708.424 -0.826451 -4.53836 0
M  V30 7670 H 706.667 -0.845366 -4.25483 0
M  V30 7671 H 707.338 0.192446 -5.51664 0
M  V30 7672 H 709.814 1.31235 -3.94863 0
M  V30 7673 H 708.69 2.14697 -5.0517 0
M  V30 7674 H 708.951 2.78289 -3.43523 0
M  V30 7675 N 708.01 1.57248 0.105221 0
M  V30 7676 C 708.957 2.01338 1.12835 0
M  V30 7677 C 709.927 0.887897 1.40377 0
M  V30 7678 O 711.112 1.15315 1.5201 0
M  V30 7679 C 708.252 2.43432 2.44611 0
M  V30 7680 C 707.365 3.69457 2.23888 0
M  V30 7681 C 706.5 4.00473 3.48991 0
M  V30 7682 C 705.539 5.19638 3.23485 0
M  V30 7683 N 704.676 5.46457 4.40828 0
M  V30 7684 H 709.516 2.88527 0.745386 0
M  V30 7685 H 707.053 1.42714 0.356535 0
M  V30 7686 H 709.011 2.65879 3.21503 0
M  V30 7687 H 707.641 1.59266 2.80774 0
M  V30 7688 H 706.693 3.54545 1.37847 0
M  V30 7689 H 708.005 4.56497 2.01026 0
M  V30 7690 H 707.159 4.23642 4.34295 0
M  V30 7691 H 705.898 3.11935 3.74897 0
M  V30 7692 H 704.903 4.96299 2.36574 0
M  V30 7693 H 706.128 6.09766 2.98935 0
M  V30 7694 H 704.074 4.60876 4.66829 0
M  V30 7695 H 703.991 6.27849 4.2112 0
M  V30 7696 H 705.259 5.74155 5.27225 0
M  V30 7697 N 709.488 -0.375779 1.53054 0
M  V30 7698 C 710.435 -1.45978 1.78771 0
M  V30 7699 C 711.405 -1.53625 0.631552 0
M  V30 7700 O 712.59 -1.69674 0.872667 0
M  V30 7701 C 709.73 -2.8305 1.97425 0
M  V30 7702 C 708.843 -2.84451 3.25134 0
M  V30 7703 C 707.978 -4.13034 3.34031 0
M  V30 7704 C 707.017 -4.08536 4.55812 0
M  V30 7705 N 706.154 -5.2875 4.61918 0
M  V30 7706 H 710.994 -1.23349 2.71273 0
M  V30 7707 H 708.531 -0.598147 1.3439 0
M  V30 7708 H 710.489 -3.62666 2.06225 0
M  V30 7709 H 709.119 -3.04101 1.0827 0
M  V30 7710 H 708.171 -1.97127 3.25338 0
M  V30 7711 H 709.483 -2.76998 4.14818 0
M  V30 7712 H 708.637 -5.0106 3.42087 0
M  V30 7713 H 707.376 -4.23226 2.42345 0
M  V30 7714 H 706.381 -3.18897 4.47867 0
M  V30 7715 H 707.606 -3.99955 5.48828 0
M  V30 7716 H 705.552 -5.39547 3.73129 0
M  V30 7717 H 705.469 -5.23426 5.45492 0
M  V30 7718 H 706.737 -6.18637 4.74245 0
M  V30 7719 N 710.966 -1.44241 -0.634997 0
M  V30 7720 C 711.929 -1.50457 -1.72903 0
M  V30 7721 C 712.929 -0.387058 -1.56072 0
M  V30 7722 O 714.119 -0.649531 -1.61638 0
M  V30 7723 C 711.251 -1.37477 -3.1195 0
M  V30 7724 H 712.444 -2.47907 -1.68767 0
M  V30 7725 H 709.997 -1.31276 -0.84831 0
M  V30 7726 H 710.732 -0.41106 -3.21684 0
M  V30 7727 H 710.517 -2.18506 -3.25573 0
M  V30 7728 H 712.007 -1.44799 -3.91692 0
M  V30 7729 N 712.444 0.87505 -1.31075 0
M  V30 7730 C 713.374 1.99775 -1.20881 0
M  V30 7731 C 714.355 1.69822 -0.0971612 0
M  V30 7732 O 715.54 1.92158 -0.280895 0
M  V30 7733 C 712.67 3.35163 -0.910118 0
M  V30 7734 C 711.624 3.79406 -1.98078 0
M  V30 7735 C 710.95 5.12197 -1.53488 0
M  V30 7736 C 712.25 3.97061 -3.39323 0
M  V30 7737 H 713.944 2.08562 -2.14808 0
M  V30 7738 H 711.49 1.00207 -1.03415 0
M  V30 7739 H 713.443 4.13237 -0.825423 0
M  V30 7740 H 712.167 3.26536 0.064822 0
M  V30 7741 H 710.826 3.03568 -2.05528 0
M  V30 7742 H 710.474 5.00007 -0.547941 0
M  V30 7743 H 710.174 5.4277 -2.2511 0
M  V30 7744 H 711.698 5.92785 -1.46417 0
M  V30 7745 H 713.112 4.65545 -3.34576 0
M  V30 7746 H 711.509 4.39025 -4.09118 0
M  V30 7747 H 712.579 3.00601 -3.80483 0
M  V30 7748 N 713.922 1.13953 1.08869 0
M  V30 7749 C 714.832 0.835666 2.19212 0
M  V30 7750 C 715.848 -0.182005 1.73045 0
M  V30 7751 O 717.024 -0.0116661 2.01397 0
M  V30 7752 C 714.089 0.312325 3.4529 0
M  V30 7753 C 713.15 1.39196 4.06107 0
M  V30 7754 C 712.383 0.893496 5.26168 0
M  V30 7755 O 712.606 -0.266807 5.69776 0
M  V30 7756 O 711.54 1.67037 5.78258 0
M  V30 7757 H 715.366 1.75769 2.47667 0
M  V30 7758 H 712.951 0.917421 1.17914 0
M  V30 7759 H 714.833 0.0261582 4.21392 0
M  V30 7760 H 713.508 -0.582042 3.18424 0
M  V30 7761 H 712.415 1.73152 3.31616 0
M  V30 7762 H 713.748 2.26068 4.37212 0
M  V30 7763 N 715.4 -1.26948 0.933913 0
M  V30 7764 C 716.347 -2.26635 0.436484 0
M  V30 7765 C 717.317 -1.58397 -0.499953 0
M  V30 7766 O 718.502 -1.86171 -0.417753 0
M  V30 7767 C 715.642 -3.43803 -0.298951 0
M  V30 7768 C 714.755 -4.26736 0.672316 0
M  V30 7769 C 713.89 -5.31134 -0.0835872 0
M  V30 7770 C 712.929 -6.05742 0.879979 0
M  V30 7771 N 712.066 -7.01926 0.156301 0
M  V30 7772 H 716.906 -2.68558 1.29154 0
M  V30 7773 H 714.443 -1.32052 0.648118 0
M  V30 7774 H 716.401 -4.10554 -0.741723 0
M  V30 7775 H 715.031 -3.02814 -1.1182 0
M  V30 7776 H 714.083 -3.59842 1.23361 0
M  V30 7777 H 715.395 -4.78502 1.40846 0
M  V30 7778 H 714.549 -6.03863 -0.585984 0
M  V30 7779 H 713.288 -4.80188 -0.852661 0
M  V30 7780 H 712.293 -5.31846 1.39357 0
M  V30 7781 H 713.518 -6.58777 1.64894 0
M  V30 7782 H 711.464 -6.53301 -0.594413 0
M  V30 7783 H 711.381 -7.51409 0.831906 0
M  V30 7784 H 712.649 -7.78821 -0.325239 0
M  V30 7785 N 716.879 -0.700114 -1.41195 0
M  V30 7786 C 717.829 -0.0144098 -2.27995 0
M  V30 7787 C 718.813 0.748249 -1.42443 0
M  V30 7788 O 720.005 0.622995 -1.65674 0
M  V30 7789 C 717.134 0.917938 -3.308 0
M  V30 7790 C 716.22 0.151286 -4.2383 0
M  V30 7791 N 716.611 -0.85732 -4.98481 0
M  V30 7792 C 714.909 0.386108 -4.44326 0
M  V30 7793 C 715.61 -1.31663 -5.66604 0
M  V30 7794 N 714.586 -0.641689 -5.39799 0
M  V30 7795 H 718.388 -0.787662 -2.83149 0
M  V30 7796 H 715.902 -0.531344 -1.53462 0
M  V30 7797 H 717.899 1.42437 -3.91813 0
M  V30 7798 H 716.559 1.69074 -2.77208 0
M  V30 7799 H 717.57 -1.2377 -5.02893 0
M  V30 7800 H 714.247 1.13644 -4.01735 0
M  V30 7801 H 715.637 -2.15384 -6.36443 0
M  V30 7802 N 718.357 1.51182 -0.445186 0
M  V30 7803 C 719.289 2.25714 0.398206 0
M  V30 7804 C 720.302 1.30032 0.979562 0
M  V30 7805 O 721.491 1.55731 0.872368 0
M  V30 7806 C 718.591 3.00348 1.56985 0
M  V30 7807 C 717.764 4.23187 1.10596 0
M  V30 7808 C 716.823 4.80334 2.14863 0
M  V30 7809 O 715.849 5.4196 1.73977 0
M  V30 7810 N 717.051 4.65053 3.47427 0
M  V30 7811 H 719.816 2.98732 -0.240629 0
M  V30 7812 H 717.377 1.59556 -0.274507 0
M  V30 7813 H 719.369 3.35464 2.26376 0
M  V30 7814 H 717.939 2.30291 2.11387 0
M  V30 7815 H 717.159 3.93476 0.238832 0
M  V30 7816 H 718.447 5.02886 0.773537 0
M  V30 7817 H 717.845 4.15984 3.83372 0
M  V30 7818 H 716.402 5.04509 4.12691 0
M  V30 7819 N 719.835 0.176821 1.56605 0
M  V30 7820 C 720.782 -0.751312 2.18229 0
M  V30 7821 C 721.752 -1.22297 1.12395 0
M  V30 7822 O 722.937 -1.29015 1.40569 0
M  V30 7823 C 720.077 -1.97291 2.83143 0
M  V30 7824 C 719.19 -1.54431 4.03454 0
M  V30 7825 C 718.325 -2.72 4.56278 0
M  V30 7826 C 717.364 -2.25657 5.68986 0
M  V30 7827 N 716.501 -3.36338 6.16296 0
M  V30 7828 H 721.341 -0.219033 2.97194 0
M  V30 7829 H 718.878 -0.0963803 1.46784 0
M  V30 7830 H 720.836 -2.68949 3.1894 0
M  V30 7831 H 719.466 -2.4788 2.06773 0
M  V30 7832 H 718.518 -0.724273 3.73441 0
M  V30 7833 H 719.83 -1.16417 4.85024 0
M  V30 7834 H 718.984 -3.51806 4.94285 0
M  V30 7835 H 717.723 -3.13277 3.73777 0
M  V30 7836 H 716.728 -1.44299 5.30526 0
M  V30 7837 H 717.953 -1.85432 6.53293 0
M  V30 7838 H 715.899 -3.7718 5.36723 0
M  V30 7839 H 715.816 -3.02435 6.9287 0
M  V30 7840 H 717.084 -4.16413 6.58954 0
M  V30 7841 N 721.313 -1.57302 -0.09688 0
M  V30 7842 C 722.246 -1.97179 -1.14872 0
M  V30 7843 C 723.224 -0.844734 -1.38935 0
M  V30 7844 O 724.408 -1.10487 -1.52725 0
M  V30 7845 C 721.535 -2.28703 -2.49826 0
M  V30 7846 C 720.581 -3.51158 -2.42054 0
M  V30 7847 S 721.414 -5.0294 -1.83879 0
M  V30 7848 C 722.57 -5.37639 -3.2046 0
M  V30 7849 H 722.803 -2.86088 -0.808771 0
M  V30 7850 H 720.336 -1.51368 -0.304492 0
M  V30 7851 H 722.294 -2.47541 -3.27466 0
M  V30 7852 H 720.955 -1.40368 -2.8099 0
M  V30 7853 H 720.148 -3.70651 -3.41517 0
M  V30 7854 H 719.75 -3.31821 -1.72543 0
M  V30 7855 H 722.042 -5.34175 -4.16729 0
M  V30 7856 H 722.985 -6.38677 -3.05773 0
M  V30 7857 H 723.393 -4.651 -3.19909 0
M  V30 7858 N 722.791 0.367657 -1.53252 0
M  V30 7859 C 723.724 1.47264 -1.74323 0
M  V30 7860 C 724.702 1.51458 -0.591535 0
M  V30 7861 O 725.886 1.69542 -0.823883 0
M  V30 7862 C 723.013 2.85637 -1.82015 0
M  V30 7863 C 722.059 2.99176 -3.03967 0
M  V30 7864 S 722.892 2.68147 -4.63527 0
M  V30 7865 C 724.048 4.08673 -4.74065 0
M  V30 7866 H 724.281 1.29169 -2.67773 0
M  V30 7867 H 721.814 0.561866 -1.43814 0
M  V30 7868 H 723.772 3.65365 -1.87132 0
M  V30 7869 H 722.433 3.01043 -0.896195 0
M  V30 7870 H 721.626 4.00511 -3.05953 0
M  V30 7871 H 721.228 2.27367 -2.96952 0
M  V30 7872 H 723.52 5.02889 -4.53992 0
M  V30 7873 H 724.463 4.11693 -5.7612 0
M  V30 7874 H 724.871 3.95576 -4.02716 0
M  V30 7875 N 724.269 1.44576 0.627338 0
M  V30 7876 C 725.216 1.51734 1.73912 0
M  V30 7877 C 726.186 0.364745 1.62046 0
M  V30 7878 O 727.371 0.575503 1.81914 0
M  V30 7879 C 724.511 1.47116 3.12171 0
M  V30 7880 C 723.624 2.72778 3.34986 0
M  V30 7881 C 722.759 2.59968 4.63239 0
M  V30 7882 C 721.798 3.80776 4.79245 0
M  V30 7883 N 720.935 3.66618 5.98778 0
M  V30 7884 H 725.775 2.46722 1.6713 0
M  V30 7885 H 723.312 1.22444 0.815224 0
M  V30 7886 H 725.27 1.42429 3.92135 0
M  V30 7887 H 723.9 0.556928 3.17959 0
M  V30 7888 H 722.952 2.87637 2.48936 0
M  V30 7889 H 724.264 3.62441 3.42692 0
M  V30 7890 H 723.418 2.53135 5.51369 0
M  V30 7891 H 722.157 1.67872 4.57898 0
M  V30 7892 H 721.162 3.87989 3.89544 0
M  V30 7893 H 722.387 4.73913 4.86398 0
M  V30 7894 H 720.333 2.77277 5.9452 0
M  V30 7895 H 720.25 4.499 6.07557 0
M  V30 7896 H 721.518 3.63684 6.89459 0
M  V30 7897 N 725.747 -0.868086 1.31537 0
M  V30 7898 C 727.024 -1.60384 1.11965 0
M  V30 7899 C 727.404 -2.08584 -0.324949 0
M  V30 7900 O 726.752 -1.86561 -1.31937 0
M  V30 7901 C 726.962 -2.76038 2.13551 0
M  V30 7902 C 728.31 -3.45954 2.46173 0
M  V30 7903 O 729.334 -2.86247 2.11993 0
M  V30 7904 O 728.193 -4.53666 3.04711 0
M  V30 7905 H 725.287 -0.705705 0.431172 0
M  V30 7906 H 727.833 -0.913385 1.43022 0
M  V30 7907 H 726.605 -2.37849 3.10714 0
M  V30 7908 H 726.228 -3.52769 1.83411 0
M  V30 7909 N 727.225 -1.14528 -1.08264 0
M  V30 7910 C 728.158 -0.777154 -2.14559 0
M  V30 7911 C 729.136 0.242165 -1.60787 0
M  V30 7912 O 730.32 0.130882 -1.88045 0
M  V30 7913 C 727.447 -0.154092 -3.38349 0
M  V30 7914 C 726.493 -1.14382 -4.10876 0
M  V30 7915 S 727.326 -2.68173 -4.63512 0
M  V30 7916 C 728.482 -2.0726 -5.90588 0
M  V30 7917 H 728.715 -1.67748 -2.45454 0
M  V30 7918 H 726.248 -0.966661 -1.20395 0
M  V30 7919 H 728.206 0.19897 -4.10018 0
M  V30 7920 H 726.867 0.723688 -3.05649 0
M  V30 7921 H 726.06 -0.655908 -4.99714 0
M  V30 7922 H 725.662 -1.44095 -3.45127 0
M  V30 7923 H 727.954 -1.42895 -6.62259 0
M  V30 7924 H 728.897 -2.94227 -6.44078 0
M  V30 7925 H 729.305 -1.51935 -5.43669 0
M  V30 7926 N 728.703 1.26451 -0.940633 0
M  V30 7927 C 729.653 2.24086 -0.420669 0
M  V30 7928 C 730.637 1.53501 0.482301 0
M  V30 7929 O 731.829 1.74127 0.317636 0
M  V30 7930 C 728.958 3.41866 0.313452 0
M  V30 7931 C 728.044 4.19737 -0.606779 0
M  V30 7932 N 728.435 4.7521 -1.73232 0
M  V30 7933 C 726.733 4.44091 -0.41226 0
M  V30 7934 C 727.434 5.34052 -2.30572 0
M  V30 7935 N 726.41 5.1971 -1.59381 0
M  V30 7936 H 730.212 2.64569 -1.27986 0
M  V30 7937 H 727.726 1.4153 -0.796436 0
M  V30 7938 H 729.723 4.1093 0.702991 0
M  V30 7939 H 728.383 3.0291 1.16942 0
M  V30 7940 H 729.394 4.72769 -2.11447 0
M  V30 7941 H 726.071 4.1556 0.401984 0
M  V30 7942 H 727.461 5.87845 -3.25404 0
M  V30 7943 N 730.181 0.707592 1.40822 0
M  V30 7944 C 731.429 0.243189 2.00632 0
M  V30 7945 C 731.75 -1.16512 1.56365 0
M  V30 7946 O 731.02 -1.78841 0.799553 0
M  V30 7947 H 729.6 0.0869203 0.741926 0
M  V30 7948 H 732.262 0.911438 1.72275 0
M  V30 7949 H 731.358 0.270014 3.1093 0
M  V30 7950 N 731.66 -1.50943 0.453197 0
M  V30 7951 C 732.607 -2.28128 -0.350197 0
M  V30 7952 C 733.577 -1.32398 -1.00299 0
M  V30 7953 O 734.762 -1.61319 -1.01887 0
M  V30 7954 C 731.902 -3.13782 -1.43649 0
M  V30 7955 C 731.015 -4.24523 -0.800255 0
M  V30 7956 C 730.15 -4.97462 -1.86293 0
M  V30 7957 C 729.189 -6.00102 -1.20598 0
M  V30 7958 N 728.326 -6.66387 -2.21071 0
M  V30 7959 H 733.166 -2.96337 0.31434 0
M  V30 7960 H 730.703 -1.46151 0.166863 0
M  V30 7961 H 732.661 -3.6178 -2.07776 0
M  V30 7962 H 731.291 -2.47655 -2.07044 0
M  V30 7963 H 730.343 -3.80371 -0.0468651 0
M  V30 7964 H 731.655 -4.98009 -0.280777 0
M  V30 7965 H 730.809 -5.49088 -2.58044 0
M  V30 7966 H 729.548 -4.23642 -2.41617 0
M  V30 7967 H 728.553 -5.47753 -0.474 0
M  V30 7968 H 729.778 -6.75887 -0.659859 0
M  V30 7969 H 727.724 -5.9537 -2.75446 0
M  V30 7970 H 727.641 -7.3569 -1.74058 0
M  V30 7971 H 728.909 -7.22638 -2.92257 0
M  V30 7972 N 733.138 -0.185124 -1.56509 0
M  V30 7973 C 734.415 0.503348 -1.89013 0
M  V30 7974 C 734.795 1.80349 -1.09715 0
M  V30 7975 O 734.143 2.27665 -0.195203 0
M  V30 7976 C 734.353 0.731839 -3.41241 0
M  V30 7977 C 735.701 1.05568 -4.11267 0
M  V30 7978 O 736.725 0.819906 -3.46635 0
M  V30 7979 O 735.584 1.50116 -5.25478 0
M  V30 7980 H 732.678 0.261139 -0.784688 0
M  V30 7981 H 735.224 -0.224592 -1.68207 0
M  V30 7982 H 733.996 -0.18672 -3.90854 0
M  V30 7983 H 733.619 1.5126 -3.67704 0
M  V30 7984 N 734.616 1.57351 0.0885366 0
M  V30 7985 C 735.549 1.97786 1.13825 0
M  V30 7986 C 736.527 0.852091 1.38485 0
M  V30 7987 O 737.711 1.11296 1.52137 0
M  V30 7988 C 734.838 2.30024 2.48609 0
M  V30 7989 C 733.884 3.52437 2.40189 0
M  V30 7990 S 734.717 5.03908 1.81209 0
M  V30 7991 C 735.873 5.39331 3.17605 0
M  V30 7992 H 736.106 2.86513 0.793587 0
M  V30 7993 H 733.639 1.51527 0.29646 0
M  V30 7994 H 735.597 2.49274 3.26148 0
M  V30 7995 H 734.258 1.41856 2.80242 0
M  V30 7996 H 733.451 3.72457 3.39546 0
M  V30 7997 H 733.053 3.32731 1.70781 0
M  V30 7998 H 735.345 5.36378 4.13891 0
M  V30 7999 H 736.288 6.4029 3.02381 0
M  V30 8000 H 736.696 4.6679 3.17438 0
M  V30 8001 N 736.094 -0.359525 1.53444 0
M  V30 8002 C 737.044 -1.441 1.7669 0
M  V30 8003 C 738.028 -1.48408 0.621599 0
M  V30 8004 O 739.22 -1.53547 0.880468 0
M  V30 8005 C 736.349 -2.81455 1.96566 0
M  V30 8006 C 735.435 -2.81601 3.17115 0
M  V30 8007 N 735.826 -2.51388 4.38905 0
M  V30 8008 C 734.124 -3.12758 3.1796 0
M  V30 8009 C 734.825 -2.59365 5.20677 0
M  V30 8010 N 733.801 -2.94328 4.57025 0
M  V30 8011 H 737.603 -1.19613 2.68458 0
M  V30 8012 H 735.117 -0.567761 1.52152 0
M  V30 8013 H 737.114 -3.59357 2.11348 0
M  V30 8014 H 735.774 -3.06901 1.06029 0
M  V30 8015 H 736.785 -2.24873 4.66533 0
M  V30 8016 H 733.462 -3.43479 2.37336 0
M  V30 8017 H 734.852 -2.39301 6.27841 0
M  V30 8018 N 737.572 -1.44907 -0.619662 0
M  V30 8019 C 738.522 -1.49085 -1.72504 0
M  V30 8020 C 739.506 -0.355372 -1.56926 0
M  V30 8021 O 740.698 -0.601441 -1.66468 0
M  V30 8022 C 737.827 -1.44889 -3.11227 0
M  V30 8023 C 736.913 -2.63593 -3.32234 0
M  V30 8024 N 737.304 -3.88775 -3.23555 0
M  V30 8025 C 735.602 -2.59033 -3.63067 0
M  V30 8026 C 736.303 -4.67932 -3.45564 0
M  V30 8027 N 735.279 -3.9919 -3.68983 0
M  V30 8028 H 739.081 -2.43706 -1.6427 0
M  V30 8029 H 736.595 -1.4003 -0.82252 0
M  V30 8030 H 738.592 -1.45966 -3.90512 0
M  V30 8031 H 737.252 -0.513143 -3.2062 0
M  V30 8032 H 738.263 -4.20574 -3.02221 0
M  V30 8033 H 734.94 -1.7431 -3.79371 0
M  V30 8034 H 736.33 -5.76952 -3.44349 0
M  V30 8035 N 739.05 0.861098 -1.31996 0
M  V30 8036 C 740.278 1.6474 -1.25173 0
M  V30 8037 C 740.693 1.87926 0.181425 0
M  V30 8038 O 740.05 1.4437 1.1164 0
M  V30 8039 C 740.101 3.01036 -2.0015 0
M  V30 8040 O 739.822 2.7888 -3.37872 0
M  V30 8041 C 741.323 3.95481 -2.00273 0
M  V30 8042 H 738.543 0.513314 -0.432146 0
M  V30 8043 H 741.087 1.07419 -1.74016 0
M  V30 8044 H 739.242 3.55021 -1.55046 0
M  V30 8045 H 739.656 3.65514 -3.76165 0
M  V30 8046 H 741.13 4.88403 -2.57229 0
M  V30 8047 H 741.607 4.27957 -0.987407 0
M  V30 8048 H 742.213 3.47433 -2.45296 0
M  V30 8049 N 740.528 1.15101 1.07655 0
M  V30 8050 C 741.475 0.844958 2.14777 0
M  V30 8051 C 742.445 -0.200798 1.64882 0
M  V30 8052 O 743.63 -0.0690278 1.90675 0
M  V30 8053 C 740.77 0.337018 3.4345 0
M  V30 8054 C 739.883 1.44398 4.07153 0
M  V30 8055 C 739.018 0.892487 5.23649 0
M  V30 8056 C 738.057 1.9766 5.79307 0
M  V30 8057 N 737.194 1.44171 6.87138 0
M  V30 8058 H 742.034 1.76242 2.40297 0
M  V30 8059 H 739.571 0.879435 1.17917 0
M  V30 8060 H 741.529 0.024256 4.17193 0
M  V30 8061 H 740.159 -0.543531 3.18191 0
M  V30 8062 H 739.211 1.87299 3.31094 0
M  V30 8063 H 740.523 2.26262 4.4453 0
M  V30 8064 H 739.677 0.532083 6.04362 0
M  V30 8065 H 738.416 0.0429854 4.87681 0
M  V30 8066 H 737.421 2.34586 4.97242 0
M  V30 8067 H 738.646 2.82982 6.17331 0
M  V30 8068 H 736.592 0.614518 6.53115 0
M  V30 8069 H 736.509 2.19665 7.23383 0
M  V30 8070 H 737.777 1.10945 7.71564 0
M  V30 8071 N 742.006 -1.2595 0.947325 0
M  V30 8072 C 742.953 -2.26159 0.460497 0
M  V30 8073 C 743.923 -1.58919 -0.483125 0
M  V30 8074 O 745.108 -1.86603 -0.397983 0
M  V30 8075 C 742.248 -3.441 -0.26247 0
M  V30 8076 C 741.361 -4.25999 0.717539 0
M  V30 8077 C 740.496 -5.31193 -0.0272486 0
M  V30 8078 C 739.535 -6.04774 0.944177 0
M  V30 8079 N 738.672 -7.01721 0.230741 0
M  V30 8080 H 743.512 -2.67173 1.31995 0
M  V30 8081 H 741.049 -1.31358 0.662088 0
M  V30 8082 H 743.007 -4.11317 -0.698137 0
M  V30 8083 H 741.637 -3.03983 -1.08602 0
M  V30 8084 H 740.689 -3.58513 1.27171 0
M  V30 8085 H 742.001 -4.76981 1.45913 0
M  V30 8086 H 741.155 -6.04451 -0.521903 0
M  V30 8087 H 739.894 -4.81066 -0.801682 0
M  V30 8088 H 738.899 -5.30338 1.4499 0
M  V30 8089 H 740.124 -6.56991 1.71872 0
M  V30 8090 H 738.07 -6.53895 -0.525088 0
M  V30 8091 H 737.987 -7.50484 0.911556 0
M  V30 8092 H 739.255 -7.79122 -0.242616 0
M  V30 8093 N 743.484 -0.715051 -1.40445 0
M  V30 8094 C 744.431 -0.0621393 -2.30716 0
M  V30 8095 C 745.401 0.750871 -1.48159 0
M  V30 8096 O 746.586 0.714928 -1.76899 0
M  V30 8097 C 743.726 0.854036 -3.34365 0
M  V30 8098 C 742.839 0.0305565 -4.31989 0
M  V30 8099 C 741.974 0.946162 -5.22706 0
M  V30 8100 C 741.013 0.116741 -6.11989 0
M  V30 8101 N 740.15 0.987194 -6.95125 0
M  V30 8102 H 744.99 -0.83764 -2.85985 0
M  V30 8103 H 742.527 -0.424759 -1.40834 0
M  V30 8104 H 744.485 1.39946 -3.93028 0
M  V30 8105 H 743.115 1.59572 -2.806 0
M  V30 8106 H 742.167 -0.632044 -3.75112 0
M  V30 8107 H 743.479 -0.611615 -4.95036 0
M  V30 8108 H 742.633 1.56014 -5.86297 0
M  V30 8109 H 741.372 1.62216 -4.59932 0
M  V30 8110 H 740.377 -0.510176 -5.47428 0
M  V30 8111 H 741.602 -0.555742 -6.76822 0
M  V30 8112 H 739.548 1.64885 -6.3494 0
M  V30 8113 H 739.465 0.401046 -7.54936 0
M  V30 8114 H 740.733 1.58737 -7.63166 0
M  V30 8115 N 744.962 1.50701 -0.461195 0
M  V30 8116 C 745.909 2.2831 0.338094 0
M  V30 8117 C 746.879 1.32928 0.995957 0
M  V30 8118 O 748.064 1.61857 1.0103 0
M  V30 8119 C 745.204 3.14539 1.41983 0
M  V30 8120 C 744.317 4.24942 0.77773 0
M  V30 8121 C 743.452 4.98443 1.83652 0
M  V30 8122 C 742.491 6.00733 1.17413 0
M  V30 8123 N 741.628 6.6755 2.17533 0
M  V30 8124 H 746.468 2.96167 -0.330051 0
M  V30 8125 H 744.005 1.4606 -0.174611 0
M  V30 8126 H 745.963 3.62877 2.05855 0
M  V30 8127 H 744.593 2.48749 2.05727 0
M  V30 8128 H 743.645 3.80391 0.0266924 0
M  V30 8129 H 744.957 4.98151 0.254362 0
M  V30 8130 H 744.111 5.50449 2.55129 0
M  V30 8131 H 742.85 4.24917 2.39367 0
M  V30 8132 H 741.855 5.47997 0.444944 0
M  V30 8133 H 743.08 6.76227 0.624006 0
M  V30 8134 H 741.026 5.96823 2.72284 0
M  V30 8135 H 740.943 7.36603 1.70154 0
M  V30 8136 H 742.211 7.24178 2.88421 0
M  V30 8137 O 746.479 0.334734 1.57993 0
M  V30 8138 H 747.17 -0.222689 1.92416 0
M  V30 END ATOM
M  V30 BEGIN BOND
M  V30 END BOND
M  V30 END CTAB
M  END
$$$$
