drugbank_target|P77967 Cryptochrome DASH (DB03147)
 OpenBabel12092120263D

  0  0  0     0  0            999 V3000
M  V30 BEGIN CTAB
M  V30 COUNTS 7981 8103 0 0 0
M  V30 BEGIN ATOM
M  V30 1 H -0.908 1.98254 -0.117106 0
M  V30 2 N 0 1.576 0 0
M  V30 3 C 0.933 2.03868 1.02534 0
M  V30 4 C 1.911 0.928543 1.3348 0
M  V30 5 O 3.095 1.19667 1.45644 0
M  V30 6 C 0.222 2.43627 2.35294 0
M  V30 7 C -0.732 3.65373 2.2001 0
M  V30 8 S 0.101 5.13292 1.52614 0
M  V30 9 C 1.257 5.56322 2.86805 0
M  V30 10 H 1.49 2.90518 0.631377 0
M  V30 11 H -0.977 1.52953 0.210867 0
M  V30 12 H 0.981 2.67203 3.11629 0
M  V30 13 H -0.358 1.57376 2.7183 0
M  V30 14 H -1.165 3.90944 3.18086 0
M  V30 15 H -1.563 3.418 1.51819 0
M  V30 16 H 0.729 5.58782 3.83104 0
M  V30 17 H 1.672 6.56266 2.65933 0
M  V30 18 H 2.08 4.83886 2.90714 0
M  V30 19 N 1.4781 -0.272755 1.55222 0
M  V30 20 C 2.4251 -1.33716 1.88119 0
M  V30 21 C 3.3951 -1.49066 0.73271 0
M  V30 22 O 4.5801 -1.63469 0.984002 0
M  V30 23 C 1.7201 -2.69238 2.15882 0
M  V30 24 C 0.8331 -2.62108 3.43399 0
M  V30 25 C -0.0319 -3.89811 3.60861 0
M  V30 26 C -0.9929 -3.77193 4.8207 0
M  V30 27 N -1.8559 -4.9673 4.96189 0
M  V30 28 H 2.9841 -1.04962 2.78903 0
M  V30 29 H 0.5211 -0.507088 1.38083 0
M  V30 30 H 2.4791 -3.48089 2.29978 0
M  V30 31 H 1.1091 -2.96194 1.28331 0
M  V30 32 H 0.1611 -1.74967 3.37773 0
M  V30 33 H 1.4731 -2.48685 4.32386 0
M  V30 34 H 0.6271 -4.77103 3.74777 0
M  V30 35 H -0.6339 -4.06102 2.7006 0
M  V30 36 H -1.6289 -2.88284 4.68159 0
M  V30 37 H -0.4039 -3.62421 5.74307 0
M  V30 38 H -2.4579 -5.13431 4.08319 0
M  V30 39 H -2.5409 -4.85839 5.79221 0
M  V30 40 H -1.2729 -5.85594 5.1449 0
M  V30 41 N 2.9562 -1.48159 -0.537278 0
M  V30 42 C 3.9062 -1.5854 -1.63857 0
M  V30 43 C 4.8902 -0.442969 -1.54682 0
M  V30 44 O 6.0822 -0.69401 -1.62827 0
M  V30 45 C 3.2112 -1.62144 -3.02596 0
M  V30 46 C 2.2972 -2.81841 -3.16901 0
M  V30 47 N 2.6882 -4.06337 -3.01204 0
M  V30 48 C 0.9862 -2.79021 -3.47942 0
M  V30 49 C 1.6872 -4.86606 -3.18731 0
M  V30 50 N 0.6632 -4.19288 -3.45974 0
M  V30 51 H 4.4652 -2.5255 -1.50319 0
M  V30 52 H 1.9792 -1.4443 -0.742555 0
M  V30 53 H 3.9762 -1.67674 -3.81695 0
M  V30 54 H 2.6362 -0.69245 -3.17231 0
M  V30 55 H 3.6472 -4.36888 -2.78117 0
M  V30 56 H 0.3242 -1.95347 -3.6898 0
M  V30 57 H 1.7142 -5.95385 -3.11394 0
M  V30 58 N 4.4343 0.785586 -1.36625 0
M  V30 59 C 5.6803 1.54591 -1.31261 0
M  V30 60 C 6.0133 1.93906 0.106823 0
M  V30 61 O 5.2883 1.63007 1.06108 0
M  V30 62 C 5.5713 2.82038 -2.23889 0
M  V30 63 C 5.4243 2.49066 -3.74548 0
M  V30 64 C 6.7433 3.83887 -2.15217 0
M  V30 65 H 3.8623 0.560846 -0.478143 0
M  V30 66 H 6.5043 0.902278 -1.67209 0
M  V30 67 H 4.6543 3.36961 -1.93363 0
M  V30 68 H 6.3263 2.00164 -4.15611 0
M  V30 69 H 4.5693 1.81954 -3.93796 0
M  V30 70 H 5.2403 3.40109 -4.34776 0
M  V30 71 H 7.7163 3.38421 -2.42096 0
M  V30 72 H 6.5923 4.70806 -2.82193 0
M  V30 73 H 6.8533 4.27131 -1.14068 0
M  V30 74 N 5.9124 1.20967 1.01018 0
M  V30 75 C 7.3234 1.02319 1.56165 0
M  V30 76 C 7.6744 -0.418546 1.91684 0
M  V30 77 O 6.7994 -1.30096 1.72928 0
M  V30 78 C 7.3944 1.85109 2.8376 0
M  V30 79 C 5.9534 1.70809 3.35412 0
M  V30 80 C 5.1004 1.82643 2.08655 0
M  V30 81 H 8.0514 1.35065 0.833255 0
M  V30 82 H 8.0724 1.35827 3.55431 0
M  V30 83 H 7.5844 2.90035 2.57878 0
M  V30 84 H 5.6854 0.685464 3.66241 0
M  V30 85 H 5.7984 2.52467 4.07182 0
M  V30 86 H 4.1624 1.25896 2.21409 0
M  V30 87 H 4.9454 2.89066 1.85191 0
M  V30 88 N 7.3905 -1.2043 1.01659 0
M  V30 89 C 8.8015 -1.71517 0.737482 0
M  V30 90 C 9.1525 -1.81547 -0.743973 0
M  V30 91 O 8.2775 -1.47803 -1.58061 0
M  V30 92 C 8.8725 -3.11515 1.33206 0
M  V30 93 C 7.4315 -3.59912 1.10183 0
M  V30 94 C 6.5785 -2.37116 1.43776 0
M  V30 95 H 9.5295 -1.05444 1.18606 0
M  V30 96 H 9.5505 -3.73575 0.722636 0
M  V30 97 H 9.0625 -3.04182 2.41028 0
M  V30 98 H 7.1635 -3.72577 0.0412756 0
M  V30 99 H 7.2765 -4.44731 1.78188 0
M  V30 100 H 5.6405 -2.39857 0.856778 0
M  V30 101 H 6.4235 -2.32424 2.52654 0
M  V30 102 N 8.8686 -0.792821 -1.36206 0
M  V30 103 C 10.0966 -0.378825 -2.03402 0
M  V30 104 C 10.5116 1.00586 -1.59774 0
M  V30 105 O 9.8686 1.64574 -0.788764 0
M  V30 106 C 9.9196 -0.43683 -3.58851 0
M  V30 107 O 9.6406 -1.76691 -4.00889 0
M  V30 108 C 11.1416 -0.0138943 -4.43298 0
M  V30 109 H 8.3616 -0.155673 -0.652692 0
M  V30 110 H 10.9056 -1.07261 -1.74113 0
M  V30 111 H 9.0606 0.208575 -3.86838 0
M  V30 112 H 9.4746 -1.72011 -4.95492 0
M  V30 113 H 10.9486 -0.105615 -5.51899 0
M  V30 114 H 11.4256 1.03915 -4.2673 0
M  V30 115 H 12.0316 -0.63192 -4.20579 0
M  V30 116 N 10.3467 1.47872 -0.545128 0
M  V30 117 C 11.5927 2.02793 -0.0166104 0
M  V30 118 C 11.9257 1.41987 1.32489 0
M  V30 119 O 11.2007 0.571045 1.85928 0
M  V30 120 C 11.4837 3.59989 0.0893294 0
M  V30 121 C 11.3367 4.3125 -1.27841 0
M  V30 122 C 12.6557 4.32606 0.808724 0
M  V30 123 H 9.7747 0.736962 -0.00751035 0
M  V30 124 H 12.4167 1.76433 -0.705085 0
M  V30 125 H 10.5667 3.82579 0.675681 0
M  V30 126 H 12.2387 4.20035 -1.90704 0
M  V30 127 H 10.4817 3.92076 -1.85632 0
M  V30 128 H 11.1527 5.39736 -1.15713 0
M  V30 129 H 13.6287 4.14936 0.310992 0
M  V30 130 H 12.5047 5.42251 0.851782 0
M  V30 131 H 12.7657 4.00963 1.86229 0
M  V30 132 N 11.8248 0.280983 1.55075 0
M  V30 133 C 12.7548 -0.597469 2.25727 0
M  V30 134 C 13.7358 -1.15417 1.24952 0
M  V30 135 O 14.9208 -1.18722 1.53684 0
M  V30 136 C 12.0508 -1.7789 2.98283 0
M  V30 137 C 11.0048 -1.35347 4.06036 0
M  V30 138 C 10.3308 -2.61846 4.66198 0
M  V30 139 C 11.6308 -0.499354 5.19907 0
M  V30 140 H 13.3248 -0.00824265 2.99399 0
M  V30 141 H 10.8708 -0.0025244 1.44 0
M  V30 142 H 12.8238 -2.39937 3.46422 0
M  V30 143 H 11.5478 -2.39405 2.22155 0
M  V30 144 H 10.2068 -0.756156 3.58717 0
M  V30 145 H 9.8548 -3.21632 3.86732 0
M  V30 146 H 9.5548 -2.3409 5.38958 0
M  V30 147 H 11.0788 -3.24732 5.1709 0
M  V30 148 H 12.4928 -1.02498 5.64063 0
M  V30 149 H 10.8898 -0.316424 5.99265 0
M  V30 150 H 11.9598 0.480459 4.82514 0
M  V30 151 N 13.3029 -1.57598 0.00835791 0
M  V30 152 C 14.5489 -1.91211 -0.675732 0
M  V30 153 C 14.8819 -0.883139 -1.72958 0
M  V30 154 O 14.1569 0.097016 -1.94258 0
M  V30 155 C 14.4399 -3.35379 -1.31123 0
M  V30 156 C 14.2929 -4.48999 -0.268356 0
M  V30 157 C 15.6119 -3.7912 -2.23508 0
M  V30 158 H 12.7309 -0.695374 -0.244179 0
M  V30 159 H 15.3729 -1.89901 0.0613655 0
M  V30 160 H 13.5229 -3.36626 -1.93946 0
M  V30 161 H 15.1949 -4.59887 0.360844 0
M  V30 162 H 13.4379 -4.31873 0.408482 0
M  V30 163 H 14.1089 -5.46851 -0.752218 0
M  V30 164 H 16.5849 -3.79477 -1.70693 0
M  V30 165 H 15.4609 -4.80729 -2.64936 0
M  V30 166 H 15.7219 -3.13455 -3.11766 0
M  V30 167 N 14.781 0.264519 -1.55364 0
M  V30 168 C 16.027 0.992314 -1.77552 0
M  V30 169 C 16.382 1.83626 -0.574379 0
M  V30 170 O 15.675 1.86648 0.432782 0
M  V30 171 C 15.869 1.9004 -3.02687 0
M  V30 172 C 15.698 1.14583 -4.34857 0
M  V30 173 C 14.468 0.858068 -4.97961 0
M  V30 174 C 16.666 0.532069 -5.1154 0
M  V30 175 N 14.648 0.0775974 -6.13851 0
M  V30 176 C 16.019 -0.113823 -6.19896 0
M  V30 177 C 18.074 0.440763 -4.95945 0
M  V30 178 C 16.777 -0.842231 -7.14352 0
M  V30 179 C 18.803 -0.274072 -5.90765 0
M  V30 180 C 18.165 -0.90867 -6.98515 0
M  V30 181 H 14.264 0.344811 -0.701875 0
M  V30 182 H 16.848 0.267141 -1.92859 0
M  V30 183 H 15.019 2.59775 -2.88741 0
M  V30 184 H 16.751 2.56243 -3.13243 0
M  V30 185 H 13.506 1.16547 -4.59036 0
M  V30 186 H 13.93 -0.300216 -6.76334 0
M  V30 187 H 18.572 0.917064 -4.12735 0
M  V30 188 H 16.29 -1.33019 -7.97077 0
M  V30 189 H 19.876 -0.345151 -5.80775 0
M  V30 190 H 18.756 -1.45299 -7.70622 0
M  V30 191 N 16.2591 1.48442 0.529413 0
M  V30 192 C 17.5061 1.56488 1.28521 0
M  V30 193 C 17.8341 0.239042 1.93025 0
M  V30 194 O 17.0891 -0.770713 1.79885 0
M  V30 195 C 17.3881 2.6523 2.39558 0
M  V30 196 C 17.0541 4.07648 1.92702 0
M  V30 197 C 15.7161 4.46411 1.79641 0
M  V30 198 C 18.0681 4.96896 1.573 0
M  V30 199 C 15.3961 5.72226 1.29514 0
M  V30 200 C 17.7481 6.23202 1.08636 0
M  V30 201 C 16.4121 6.60821 0.941919 0
M  V30 202 H 15.6821 0.572631 0.470292 0
M  V30 203 H 18.3291 1.82161 0.59072 0
M  V30 204 H 16.6341 2.33419 3.14679 0
M  V30 205 H 18.3311 2.68671 2.97686 0
M  V30 206 H 14.9211 3.77036 2.03819 0
M  V30 207 H 19.1051 4.67626 1.66251 0
M  V30 208 H 14.3611 6.00097 1.17019 0
M  V30 209 H 18.5351 6.91753 0.803136 0
M  V30 210 H 16.1621 7.58198 0.5513 0
M  V30 211 N 17.7372 -0.778329 1.37039 0
M  V30 212 C 19.1532 -1.07796 1.17695 0
M  V30 213 C 19.3532 -2.01498 0.00860115 0
M  V30 214 O 18.4092 -2.43901 -0.653352 0
M  V30 215 C 19.7222 -1.68178 2.49272 0
M  V30 216 C 21.2702 -1.80467 2.55735 0
M  V30 217 C 21.7452 -2.44263 3.87427 0
M  V30 218 N 23.2362 -2.51721 3.88833 0
M  V30 219 C 23.9712 -3.01919 4.87476 0
M  V30 220 N 23.4672 -3.5234 5.96513 0
M  V30 221 N 25.2602 -3.00733 4.74885 0
M  V30 222 H 17.4112 -0.156032 2.11826 0
M  V30 223 H 19.6742 -0.131844 0.938787 0
M  V30 224 H 19.3802 -1.06796 3.35093 0
M  V30 225 H 19.2542 -2.67554 2.65885 0
M  V30 226 H 21.6412 -2.40984 1.70325 0
M  V30 227 H 21.7222 -0.798656 2.43013 0
M  V30 228 H 21.3662 -1.84388 4.73248 0
M  V30 229 H 21.2962 -3.45458 3.9745 0
M  V30 230 H 23.7872 -2.1603 3.10063 0
M  V30 231 H 24.1002 -3.89027 6.67741 0
M  V30 232 H 22.4452 -3.50462 6.00168 0
M  V30 233 H 25.6362 -2.60638 3.88826 0
M  V30 234 H 25.8092 -3.39545 5.51918 0
M  V30 235 N 19.2153 -1.21501 -1.00376 0
M  V30 236 C 20.1633 -0.972442 -2.11297 0
M  V30 237 C 21.1573 0.080731 -1.69208 0
M  V30 238 O 22.3633 -0.0707666 -1.79861 0
M  V30 239 H 18.7383 -0.297218 -0.690772 0
M  V30 240 H 20.7093 -1.91394 -2.28934 0
M  V30 241 C 19.4583 -0.555065 -3.43241 0
M  V30 242 H 18.7813 -1.35709 -3.76062 0
M  V30 243 H 20.2213 -0.424664 -4.21868 0
M  V30 244 C 18.6803 0.734147 -3.28804 0
M  V30 245 O 19.2103 1.78937 -3.59645 0
M  V30 246 N 17.4163 0.701133 -2.82015 0
M  V30 247 H 16.9633 -0.157874 -2.57116 0
M  V30 248 H 16.9213 1.56403 -2.72737 0
M  V30 249 N 20.6934 1.19889 -1.02296 0
M  V30 250 C 21.9704 1.85148 -0.630832 0
M  V30 251 C 22.3504 1.91385 0.890782 0
M  V30 252 O 21.6984 1.42642 1.78509 0
M  V30 253 C 21.9084 3.24442 -1.28602 0
M  V30 254 C 23.2564 4.00663 -1.4055 0
M  V30 255 O 24.2804 3.33818 -1.24273 0
M  V30 256 O 23.1394 5.20387 -1.66913 0
M  V30 257 H 20.2334 0.797613 -0.218499 0
M  V30 258 H 22.7794 1.27427 -1.12074 0
M  V30 259 H 21.5514 3.14704 -2.32545 0
M  V30 260 H 21.1744 3.89802 -0.7836 0
M  V30 261 N 22.1715 0.800033 1.35784 0
M  V30 262 C 23.1015 0.220184 2.3246 0
M  V30 263 C 24.0825 -0.65073 1.57161 0
M  V30 264 O 25.2675 -0.582359 1.85263 0
M  V30 265 C 22.3975 -0.637353 3.41402 0
M  V30 266 C 21.3515 0.134531 4.27789 0
M  V30 267 C 20.6775 -0.844285 5.27992 0
M  V30 268 C 21.9775 1.32979 5.05088 0
M  V30 269 H 23.6715 1.02787 2.81203 0
M  V30 270 H 21.2175 0.495717 1.35199 0
M  V30 271 H 23.1705 -1.05302 4.08031 0
M  V30 272 H 21.8945 -1.47785 2.91251 0
M  V30 273 H 20.5535 0.531296 3.6273 0
M  V30 274 H 20.2015 -1.68011 4.74111 0
M  V30 275 H 19.9015 -0.332184 5.8666 0
M  V30 276 H 21.4255 -1.2583 5.97494 0
M  V30 277 H 22.8395 0.98934 5.64699 0
M  V30 278 H 21.2365 1.77593 5.7322 0
M  V30 279 H 22.3065 2.11978 4.36111 0
M  V30 280 N 23.6496 -1.47581 0.552962 0
M  V30 281 C 25.0656 -1.5818 0.212424 0
M  V30 282 C 25.2656 -1.55213 -1.28496 0
M  V30 283 O 24.3216 -1.45329 -2.06484 0
M  V30 284 C 25.6346 -2.88865 0.835318 0
M  V30 285 C 27.1826 -3.0244 0.806156 0
M  V30 286 C 27.6576 -4.35819 1.40804 0
M  V30 287 N 29.1486 -4.42444 1.37103 0
M  V30 288 C 29.8836 -5.44202 1.80641 0
M  V30 289 N 29.3796 -6.52795 2.32015 0
M  V30 290 N 31.1726 -5.35222 1.71738 0
M  V30 291 H 23.3236 -1.47753 1.52587 0
M  V30 292 H 25.5866 -0.702941 0.636064 0
M  V30 293 H 25.2926 -2.9676 1.88749 0
M  V30 294 H 25.1666 -3.7579 0.325848 0
M  V30 295 H 27.5536 -2.94144 -0.237317 0
M  V30 296 H 27.6346 -2.17068 1.35334 0
M  V30 297 H 27.2786 -4.44871 2.45056 0
M  V30 298 H 27.2086 -5.19916 0.836338 0
M  V30 299 H 29.6996 -3.6456 0.995202 0
M  V30 300 H 30.0126 -7.26609 2.63171 0
M  V30 301 H 28.3576 -6.53696 2.36023 0
M  V30 302 H 31.5486 -4.49284 1.31382 0
M  V30 303 H 31.7216 -6.14389 2.05987 0
M  V30 304 N 25.1277 -0.289203 -1.54924 0
M  V30 305 C 26.0577 0.58549 -2.2604 0
M  V30 306 C 27.0387 1.14753 -1.25562 0
M  V30 307 O 28.2237 1.17906 -1.54311 0
M  V30 308 C 25.3537 1.76305 -2.99222 0
M  V30 309 C 24.3077 1.33191 -4.06748 0
M  V30 310 C 23.6337 2.5937 -4.6758 0
M  V30 311 C 24.9337 0.471775 -5.20165 0
M  V30 312 H 26.6277 -0.00763532 -2.99399 0
M  V30 313 H 24.1737 -0.00511229 -1.43999 0
M  V30 314 H 26.1267 2.38097 -3.47689 0
M  V30 315 H 24.8507 2.38223 -2.23422 0
M  V30 316 H 23.5097 0.737121 -3.59113 0
M  V30 317 H 23.1577 3.19576 -3.88433 0
M  V30 318 H 22.8577 2.31228 -5.40192 0
M  V30 319 H 24.3817 3.21985 -5.18804 0
M  V30 320 H 25.7957 0.995056 -5.64599 0
M  V30 321 H 24.1927 0.284639 -5.99425 0
M  V30 322 H 25.2627 -0.506041 -4.82252 0
M  V30 323 N 26.6058 1.57591 -0.0167156 0
M  V30 324 C 27.5558 2.05953 0.978137 0
M  V30 325 C 28.5398 0.957532 1.29306 0
M  V30 326 O 29.7318 1.22119 1.28125 0
M  V30 327 C 26.8608 2.58006 2.26468 0
M  V30 328 C 25.9468 3.75113 1.97867 0
M  V30 329 N 26.3378 4.86187 1.39486 0
M  V30 330 C 24.6358 3.83363 2.27924 0
M  V30 331 C 25.3368 5.67502 1.27735 0
M  V30 332 N 24.3128 5.14023 1.76866 0
M  V30 333 H 28.1148 2.89236 0.521522 0
M  V30 334 H 25.6288 1.61301 0.188596 0
M  V30 335 H 27.6258 2.90937 2.98599 0
M  V30 336 H 26.2858 1.76148 2.72767 0
M  V30 337 H 27.2968 5.06695 1.07147 0
M  V30 338 H 23.9738 3.1239 2.76982 0
M  V30 339 H 25.3638 6.66791 0.826978 0
M  V30 340 N 28.0839 -0.256276 1.55502 0
M  V30 341 C 29.3609 -1.00789 1.67633 0
M  V30 342 C 29.7409 -2.03706 0.553826 0
M  V30 343 O 29.0889 -2.24145 -0.443969 0
M  V30 344 C 29.2989 -1.64968 3.07549 0
M  V30 345 C 30.6469 -2.15505 3.65845 0
M  V30 346 O 31.6709 -1.74925 3.1029 0
M  V30 347 O 30.5299 -2.89986 4.63217 0
M  V30 348 H 27.6239 -0.468553 0.681459 0
M  V30 349 H 30.1699 -0.250806 1.67836 0
M  V30 350 H 28.9419 -0.904785 3.80696 0
M  V30 351 H 28.5649 -2.47321 3.11317 0
M  V30 352 N 29.562 -1.4872 -0.521534 0
M  V30 353 C 30.512 -1.60269 -1.62166 0
M  V30 354 C 31.496 -0.45935 -1.54204 0
M  V30 355 O 32.688 -0.711241 -1.62081 0
M  V30 356 C 29.817 -1.65344 -3.00859 0
M  V30 357 C 28.903 -2.85187 -3.13894 0
M  V30 358 N 29.294 -4.09509 -2.96877 0
M  V30 359 C 27.592 -2.82695 -3.44963 0
M  V30 360 C 28.293 -4.89959 -3.13552 0
M  V30 361 N 27.269 -4.22934 -3.41508 0
M  V30 362 H 31.071 -2.5413 -1.47632 0
M  V30 363 H 28.585 -1.45209 -0.727194 0
M  V30 364 H 30.582 -1.71713 -3.79895 0
M  V30 365 H 29.242 -0.726058 -3.16478 0
M  V30 366 H 30.253 -4.39814 -2.73467 0
M  V30 367 H 26.93 -1.99249 -3.66887 0
M  V30 368 H 28.32 -5.98654 -3.05061 0
M  V30 369 N 31.0401 0.771051 -1.3745 0
M  V30 370 C 31.9501 1.91538 -1.35464 0
M  V30 371 C 32.9661 1.72134 -0.254123 0
M  V30 372 O 34.1421 1.95358 -0.489626 0
M  V30 373 C 31.2071 3.26671 -1.16134 0
M  V30 374 C 30.2681 3.58723 -2.35831 0
M  V30 375 C 29.5011 4.87409 -2.17413 0
M  V30 376 O 29.7241 5.58506 -1.15876 0
M  V30 377 O 28.6581 5.18539 -3.05615 0
M  V30 378 H 32.4841 1.96165 -2.31847 0
M  V30 379 H 30.0691 0.9139 -1.18187 0
M  V30 380 H 31.9511 4.07499 -1.07345 0
M  V30 381 H 30.6261 3.22894 -0.228251 0
M  V30 382 H 29.5331 2.78127 -2.50192 0
M  V30 383 H 30.8661 3.67243 -3.27709 0
M  V30 384 N 32.5182 1.22032 0.997298 0
M  V30 385 C 33.9292 1.0397 1.55071 0
M  V30 386 C 34.2802 -0.398192 1.92117 0
M  V30 387 O 33.4052 -1.28254 1.74298 0
M  V30 388 C 34.0002 1.88109 2.81781 0
M  V30 389 C 32.5592 1.74357 3.33581 0
M  V30 390 C 31.7062 1.84846 2.06706 0
M  V30 391 H 34.6572 1.35941 0.818883 0
M  V30 392 H 34.6782 1.39589 3.53971 0
M  V30 393 H 34.1902 2.92754 2.54787 0
M  V30 394 H 32.2912 0.72427 3.65493 0
M  V30 395 H 32.4042 2.56772 4.04481 0
M  V30 396 H 30.7682 1.28238 2.20062 0
M  V30 397 H 31.5512 2.91014 1.82114 0
M  V30 398 N 33.9963 -1.19345 1.0293 0
M  V30 399 C 34.9263 -2.2481 0.631105 0
M  V30 400 C 35.9073 -1.66245 -0.360104 0
M  V30 401 O 37.0923 -1.92677 -0.242726 0
M  V30 402 C 34.2223 -3.47295 -0.0184607 0
M  V30 403 C 33.1763 -4.18536 0.895073 0
M  V30 404 C 32.5023 -5.34586 0.110592 0
M  V30 405 C 33.8023 -4.73287 2.209 0
M  V30 406 H 35.4963 -2.58372 1.51275 0
M  V30 407 H 33.0423 -1.24194 0.728818 0
M  V30 408 H 34.9953 -4.20268 -0.308675 0
M  V30 409 H 33.7193 -3.12933 -0.934907 0
M  V30 410 H 32.3783 -3.47446 1.16949 0
M  V30 411 H 32.0263 -4.96469 -0.807902 0
M  V30 412 H 31.7263 -5.83183 0.719087 0
M  V30 413 H 33.2503 -6.10355 -0.172871 0
M  V30 414 H 34.6643 -5.38013 1.98028 0
M  V30 415 H 33.0613 -5.32373 2.76946 0
M  V30 416 H 34.1313 -3.91331 2.86336 0
M  V30 417 N 35.4744 -0.807222 -1.35358 0
M  V30 418 C 36.4244 -0.190706 -2.27201 0
M  V30 419 C 37.4084 0.635838 -1.47804 0
M  V30 420 O 38.6004 0.492991 -1.69996 0
M  V30 421 C 35.7294 0.659337 -3.36909 0
M  V30 422 C 34.8154 -0.176971 -4.23731 0
M  V30 423 N 35.2064 -1.24029 -4.90357 0
M  V30 424 C 33.5044 0.0412953 -4.45981 0
M  V30 425 C 34.2054 -1.75092 -5.54723 0
M  V30 426 N 33.1814 -1.05727 -5.33219 0
M  V30 427 H 36.9834 -1.0043 -2.76208 0
M  V30 428 H 34.4974 -0.648445 -1.48892 0
M  V30 429 H 36.4944 1.11706 -4.01656 0
M  V30 430 H 35.1544 1.47127 -2.89454 0
M  V30 431 H 36.1654 -1.62295 -4.91814 0
M  V30 432 H 32.8424 0.82232 -4.09322 0
M  V30 433 H 34.2324 -2.63963 -6.17878 0
M  V30 434 N 36.9525 1.47285 -0.560781 0
M  V30 435 C 38.3685 1.58065 -0.22081 0
M  V30 436 C 38.5685 1.55892 1.27671 0
M  V30 437 O 37.6245 1.46422 2.0571 0
M  V30 438 C 38.9375 2.88418 -0.850625 0
M  V30 439 C 40.4855 3.02009 -0.822184 0
M  V30 440 C 40.9605 4.35066 -1.43113 0
M  V30 441 N 42.4515 4.41711 -1.39448 0
M  V30 442 C 43.1865 5.43237 -1.83525 0
M  V30 443 N 42.6825 6.51555 -2.35474 0
M  V30 444 N 44.4755 5.34304 -1.74574 0
M  V30 445 H 36.6265 1.46941 -1.53369 0
M  V30 446 H 38.8895 0.699558 -0.639783 0
M  V30 447 H 38.5955 2.95755 -1.9032 0
M  V30 448 H 38.4695 3.75612 -0.345773 0
M  V30 449 H 40.8565 2.94266 0.221714 0
M  V30 450 H 40.9375 2.16347 -1.36483 0
M  V30 451 H 40.5815 4.43565 -2.47412 0
M  V30 452 H 40.5115 5.19465 -0.863899 0
M  V30 453 H 43.0025 3.64027 -1.01452 0
M  V30 454 H 43.3155 7.25203 -2.67021 0
M  V30 455 H 41.6605 6.52435 -2.39487 0
M  V30 456 H 44.8515 4.48581 -1.33763 0
M  V30 457 H 45.0245 6.13288 -2.09242 0
M  V30 458 N 38.4306 0.297415 1.54768 0
M  V30 459 C 39.3936 -0.567375 2.22066 0
M  V30 460 C 40.3936 -1.06409 1.20556 0
M  V30 461 O 41.5836 -0.960691 1.45315 0
M  V30 462 C 38.7156 -1.78517 2.90421 0
M  V30 463 H 39.9086 0.0205534 2.99893 0
M  V30 464 H 37.4616 0.0482163 1.56226 0
M  V30 465 H 38.1966 -2.41303 2.16664 0
M  V30 466 H 37.9816 -1.43669 3.64831 0
M  V30 467 H 39.4716 -2.39964 3.41771 0
M  V30 468 N 39.9087 -1.5758 0.0250728 0
M  V30 469 C 40.8387 -2.13007 -0.956575 0
M  V30 470 C 41.8197 -1.0452 -1.342 0
M  V30 471 O 43.0047 -1.32332 -1.42133 0
M  V30 472 C 40.1347 -2.65386 -2.24026 0
M  V30 473 C 39.0887 -3.78623 -1.99571 0
M  V30 474 C 38.4147 -4.17414 -3.3417 0
M  V30 475 C 39.7147 -5.04867 -1.33814 0
M  V30 476 H 41.4087 -2.9528 -0.494991 0
M  V30 477 H 38.9547 -1.42042 -0.236651 0
M  V30 478 H 40.9077 -3.02794 -2.93076 0
M  V30 479 H 39.6317 -1.80268 -2.72343 0
M  V30 480 H 38.2907 -3.41646 -1.32941 0
M  V30 481 H 37.9387 -3.29284 -3.80238 0
M  V30 482 H 37.6387 -4.93719 -3.18615 0
M  V30 483 H 39.1627 -4.57402 -4.04495 0
M  V30 484 H 40.5767 -5.39888 -1.92857 0
M  V30 485 H 38.9737 -5.86144 -1.28669 0
M  V30 486 H 40.0437 -4.83904 -0.310561 0
M  V30 487 N 41.3868 0.248026 -1.55636 0
M  V30 488 C 42.3338 1.30707 -1.90222 0
M  V30 489 C 43.3038 1.47881 -0.756332 0
M  V30 490 O 44.4888 1.61883 -1.00988 0
M  V30 491 C 41.6288 2.65769 -2.20138 0
M  V30 492 C 40.7418 2.56612 -3.47526 0
M  V30 493 C 39.8768 3.8402 -3.67017 0
M  V30 494 C 38.9158 3.69476 -4.8801 0
M  V30 495 N 38.0528 4.88774 -5.04029 0
M  V30 496 H 42.8928 1.00512 -2.80538 0
M  V30 497 H 40.4298 0.485055 -1.38873 0
M  V30 498 H 42.3878 3.44386 -2.35487 0
M  V30 499 H 41.0178 2.94115 -1.33027 0
M  V30 500 H 40.0698 1.69571 -3.40514 0
M  V30 501 H 41.3818 2.41774 -4.36287 0
M  V30 502 H 40.5358 4.7108 -3.8232 0
M  V30 503 H 39.2748 4.01754 -2.76487 0
M  V30 504 H 38.2798 2.80799 -4.72686 0
M  V30 505 H 39.5048 3.53238 -5.8 0
M  V30 506 H 37.4508 5.0687 -4.16435 0
M  V30 507 H 37.3678 4.76562 -5.86877 0
M  V30 508 H 38.6358 5.77335 -5.23741 0
M  V30 509 N 42.8649 1.48995 0.513639 0
M  V30 510 C 44.0899 1.61792 1.29762 0
M  V30 511 C 44.5149 0.284475 1.85936 0
M  V30 512 O 43.8729 -0.746185 1.65232 0
M  V30 513 C 43.9209 2.67993 2.41272 0
M  V30 514 O 43.0249 2.26287 3.44772 0
M  V30 515 H 42.3659 0.541963 0.38363 0
M  V30 516 H 44.8959 1.95097 0.616307 0
M  V30 517 H 44.9059 2.89772 2.87221 0
M  V30 518 H 43.5809 3.64791 1.9975 0
M  V30 519 H 42.1579 2.14788 3.04829 0
M  V30 520 N 44.343 -0.763751 1.37857 0
M  V30 521 C 45.591 -1.51957 1.33243 0
M  V30 522 C 45.912 -1.94835 -0.0801709 0
M  V30 523 O 45.182 -1.66894 -1.02582 0
M  V30 524 H 43.762 -0.563626 0.49024 0
M  V30 525 H 46.424 -0.908504 1.7243 0
M  V30 526 H 45.52 -2.41523 1.97669 0
M  V30 527 N 45.8211 -1.22559 -0.990812 0
M  V30 528 C 46.7511 -1.0218 -2.09956 0
M  V30 529 C 47.7321 0.0579394 -1.70001 0
M  V30 530 O 48.9171 -0.104684 -1.93918 0
M  V30 531 C 46.0471 -0.601023 -3.4206 0
M  V30 532 C 45.0011 -1.62694 -3.95872 0
M  V30 533 C 44.3271 -1.06193 -5.24049 0
M  V30 534 C 45.6271 -3.01743 -4.2632 0
M  V30 535 H 47.3211 -1.94916 -2.27262 0
M  V30 536 H 44.8671 -0.938566 -1.09211 0
M  V30 537 H 46.8201 -0.445561 -4.19038 0
M  V30 538 H 45.5441 0.362005 -3.24588 0
M  V30 539 H 44.2031 -1.77021 -3.21028 0
M  V30 540 H 43.8511 -0.0901903 -5.02919 0
M  V30 541 H 43.5511 -1.74732 -5.61019 0
M  V30 542 H 45.0751 -0.918092 -6.03658 0
M  V30 543 H 46.4891 -2.90777 -4.94087 0
M  V30 544 H 44.8861 -3.67425 -4.74467 0
M  V30 545 H 45.9561 -3.51518 -3.34011 0
M  V30 546 N 47.2992 1.18797 -1.03562 0
M  V30 547 C 48.2622 2.20464 -0.626769 0
M  V30 548 C 49.2622 1.57721 0.313173 0
M  V30 549 O 50.4522 1.73917 0.0992615 0
M  V30 550 C 47.5842 3.40802 0.0818498 0
M  V30 551 H 48.7772 2.58149 -1.5264 0
M  V30 552 H 46.3302 1.32593 -0.827578 0
M  V30 553 H 47.0652 3.08642 0.995518 0
M  V30 554 H 46.8502 3.8758 -0.593652 0
M  V30 555 H 48.3402 4.16092 0.354584 0
M  V30 556 N 48.7773 0.814389 1.34928 0
M  V30 557 C 50.0263 0.394871 1.97797 0
M  V30 558 C 50.3393 -1.04555 1.65311 0
M  V30 559 O 51.5453 -1.56856 2.21604 0
M  V30 560 C 50.0013 0.655103 3.53888 0
M  V30 561 C 49.6093 2.10858 3.95276 0
M  V30 562 C 51.3533 0.301329 4.23429 0
M  V30 563 C 49.2603 2.31415 5.44244 0
M  V30 564 H 48.1903 0.143913 0.740139 0
M  V30 565 H 50.8413 0.999544 1.53888 0
M  V30 566 H 49.2233 -0.0196253 3.95995 0
M  V30 567 H 50.3973 2.82176 3.64298 0
M  V30 568 H 48.7123 2.42297 3.38646 0
M  V30 569 H 51.3093 0.432869 5.32945 0
M  V30 570 H 51.6523 -0.75331 4.09428 0
M  V30 571 H 52.1853 0.930288 3.86769 0
M  V30 572 H 48.9243 3.35353 5.63222 0
M  V30 573 H 48.4443 1.6463 5.76764 0
M  V30 574 H 50.1233 2.13352 6.10811 0
M  V30 575 N 50.2554 -1.46986 0.568584 0
M  V30 576 C 51.4834 -2.0683 0.0539956 0
M  V30 577 C 51.8984 -1.41953 -1.24478 0
M  V30 578 O 51.2554 -0.519933 -1.74937 0
M  V30 579 C 51.3064 -3.61254 -0.133362 0
M  V30 580 O 51.0274 -4.237 1.11399 0
M  V30 581 C 52.5284 -4.37992 -0.683927 0
M  V30 582 H 49.7484 -0.669058 0.0510141 0
M  V30 583 H 52.2924 -1.88824 0.785234 0
M  V30 584 H 50.4474 -3.78735 -0.81477 0
M  V30 585 H 50.8614 -5.16388 0.91888 0
M  V30 586 H 52.3354 -5.46684 -0.764263 0
M  V30 587 H 52.8124 -4.05058 -1.69778 0
M  V30 588 H 53.4184 -4.25283 -0.0378494 0
M  V30 589 N 51.7335 -0.305618 -1.54608 0
M  V30 590 C 52.6965 0.555591 -2.22364 0
M  V30 591 C 53.6965 1.05768 -1.21119 0
M  V30 592 O 54.8865 0.952972 -1.45822 0
M  V30 593 C 52.0185 1.76974 -2.91364 0
M  V30 594 H 53.2115 -0.0364572 -2.99878 0
M  V30 595 H 50.7645 -0.0565007 -1.56198 0
M  V30 596 H 51.4995 2.40151 -2.17941 0
M  V30 597 H 51.2845 1.41732 -3.65588 0
M  V30 598 H 52.7745 2.38148 -3.43038 0
M  V30 599 N 53.2116 1.57565 -0.0334293 0
M  V30 600 C 54.4576 1.92262 0.645226 0
M  V30 601 C 54.7906 0.910543 1.71531 0
M  V30 602 O 54.0656 -0.066099 1.94388 0
M  V30 603 C 54.3486 3.37422 1.2577 0
M  V30 604 C 54.2016 4.49369 0.196891 0
M  V30 605 C 55.5206 3.82628 2.17449 0
M  V30 606 H 52.6396 0.699171 0.233085 0
M  V30 607 H 55.2816 1.89779 -0.0915694 0
M  V30 608 H 53.4316 3.39669 1.88566 0
M  V30 609 H 55.1036 4.59254 -0.433962 0
M  V30 610 H 53.3466 4.31168 -0.477137 0
M  V30 611 H 54.0176 5.47978 0.665124 0
M  V30 612 H 56.4936 3.82145 1.64634 0
M  V30 613 H 55.3696 4.84883 2.57254 0
M  V30 614 H 55.6306 3.18376 3.0674 0
M  V30 615 N 54.6897 -0.239769 1.55765 0
M  V30 616 C 55.9197 -0.982743 1.8173 0
M  V30 617 C 56.3277 -1.7917 0.607835 0
M  V30 618 O 55.6707 -1.78525 -0.432973 0
M  V30 619 C 55.7327 -1.96332 3.01155 0
M  V30 620 C 55.3967 -1.34062 4.36894 0
M  V30 621 C 56.3937 -0.739539 5.14613 0
M  V30 622 C 54.0787 -1.35784 4.83599 0
M  V30 623 C 56.0727 -0.163989 6.37189 0
M  V30 624 C 53.7597 -0.778441 6.06122 0
M  V30 625 C 54.7577 -0.182548 6.82756 0
M  V30 626 O 54.4457 0.387887 8.02964 0
M  V30 627 H 54.1777 -0.294481 0.608487 0
M  V30 628 H 56.7317 -0.26572 2.03674 0
M  V30 629 H 54.9617 -2.71884 2.74984 0
M  V30 630 H 56.6507 -2.57032 3.14149 0
M  V30 631 H 57.4167 -0.718687 4.79646 0
M  V30 632 H 53.2957 -1.81105 4.23936 0
M  V30 633 H 56.8397 0.301753 6.96947 0
M  V30 634 H 52.7367 -0.796645 6.40565 0
M  V30 635 H 53.5047 0.28044 8.18019 0
M  V30 636 N 56.1678 -1.49265 -0.50573 0
M  V30 637 C 57.4078 -1.60128 -1.27038 0
M  V30 638 C 57.7718 -0.279557 -1.89954 0
M  V30 639 O 58.9728 -0.263329 -2.67507 0
M  V30 640 C 57.2438 -2.72507 -2.31246 0
M  V30 641 S 58.8028 -3.0329 -3.17113 0
M  V30 642 H 55.6208 -0.564863 -0.4318 0
M  V30 643 H 58.2228 -1.86902 -0.573397 0
M  V30 644 H 56.9268 -3.67068 -1.83546 0
M  V30 645 H 56.4578 -2.4771 -3.05619 0
M  V30 646 H 58.4728 -2.44448 -4.31809 0
M  V30 647 N 57.6459 0.756429 -1.3826 0
M  V30 648 C 58.8759 1.54341 -1.3734 0
M  V30 649 C 59.2839 1.89159 0.0393917 0
M  V30 650 O 58.6269 1.5307 1.01565 0
M  V30 651 C 58.6889 2.87238 -2.16182 0
M  V30 652 C 58.3529 2.74973 -3.65019 0
M  V30 653 C 59.3499 2.44962 -4.58574 0
M  V30 654 C 57.0349 2.92515 -4.08338 0
M  V30 655 C 59.0289 2.32642 -5.93428 0
M  V30 656 C 56.7159 2.79815 -5.43274 0
M  V30 657 C 57.7139 2.49921 -6.35632 0
M  V30 658 O 57.4019 2.37275 -7.68086 0
M  V30 659 H 57.1339 0.484281 -0.471643 0
M  V30 660 H 59.6879 0.944152 -1.82414 0
M  V30 661 H 57.9179 3.49342 -1.65822 0
M  V30 662 H 59.6069 3.48731 -2.07705 0
M  V30 663 H 60.3729 2.31081 -4.26412 0
M  V30 664 H 56.2519 3.14781 -3.368 0
M  V30 665 H 59.7959 2.0923 -6.65484 0
M  V30 666 H 55.6929 2.93269 -5.75034 0
M  V30 667 H 56.4609 2.52509 -7.78577 0
M  V30 668 N 59.124 1.23083 0.984299 0
M  V30 669 C 60.401 0.9689 1.69917 0
M  V30 670 C 60.781 -0.513604 2.04757 0
M  V30 671 O 60.129 -1.48383 1.73767 0
M  V30 672 C 60.339 1.87518 2.94343 0
M  V30 673 C 61.687 2.13636 3.6694 0
M  V30 674 O 62.711 1.85036 3.04368 0
M  V30 675 O 61.57 2.62119 4.79537 0
M  V30 676 H 58.664 0.365095 0.742048 0
M  V30 677 H 61.21 1.34107 1.03987 0
M  V30 678 H 59.982 2.87756 2.65164 0
M  V30 679 H 59.605 1.50514 3.6801 0
M  V30 680 N 60.6021 -1.18246 1.0419 0
M  V30 681 C 62.0131 -1.69914 0.773698 0
M  V30 682 C 62.3641 -1.83085 -0.705297 0
M  V30 683 O 61.4891 -1.51123 -1.5489 0
M  V30 684 C 62.0841 -3.08619 1.39784 0
M  V30 685 C 60.6431 -3.57494 1.17792 0
M  V30 686 C 59.7901 -2.34013 1.48773 0
M  V30 687 H 62.7411 -1.02904 1.20816 0
M  V30 688 H 62.7621 -3.71958 0.801714 0
M  V30 689 H 62.2741 -2.99001 2.47426 0
M  V30 690 H 60.3751 -3.72406 0.120295 0
M  V30 691 H 60.4881 -4.40852 1.87581 0
M  V30 692 H 58.8521 -2.37986 0.907463 0
M  V30 693 H 59.6351 -2.27013 2.57527 0
M  V30 694 N 62.0802 -0.821533 -1.34494 0
M  V30 695 C 63.4962 -0.507117 -1.51329 0
M  V30 696 C 63.6962 0.968964 -1.76673 0
M  V30 697 O 62.7522 1.75348 -1.81685 0
M  V30 698 C 64.0652 -1.36544 -2.67911 0
M  V30 699 C 65.6132 -1.36242 -2.81793 0
M  V30 700 C 66.0882 -2.2052 -4.01416 0
M  V30 701 N 67.5792 -2.18136 -4.08621 0
M  V30 702 C 68.3142 -2.80095 -5.00334 0
M  V30 703 N 67.8102 -3.51039 -5.9728 0
M  V30 704 N 69.6032 -2.69656 -4.93196 0
M  V30 705 H 61.7542 -1.77729 -1.16302 0
M  V30 706 H 64.0172 -0.757291 -0.570276 0
M  V30 707 H 63.7232 -2.41361 -2.55808 0
M  V30 708 H 63.5972 -1.02917 -3.62888 0
M  V30 709 H 65.9842 -0.322041 -2.93338 0
M  V30 710 H 66.0652 -1.73866 -1.87628 0
M  V30 711 H 65.7092 -3.24607 -3.90631 0
M  V30 712 H 65.6392 -1.80247 -4.94791 0
M  V30 713 H 68.1302 -1.6653 -3.39229 0
M  V30 714 H 68.4432 -3.95565 -6.63889 0
M  V30 715 H 66.7882 -3.55145 -5.97409 0
M  V30 716 H 69.9792 -2.13808 -4.16418 0
M  V30 717 H 70.1522 -3.1823 -5.64476 0
M  V30 718 N 63.5583 1.46682 -0.576371 0
M  V30 719 C 64.4903 2.28341 0.198231 0
M  V30 720 C 65.5033 1.38141 0.861453 0
M  V30 721 O 66.6923 1.62797 0.732082 0
M  V30 722 C 63.7923 3.12986 1.29972 0
M  V30 723 C 62.9653 4.31271 0.729639 0
M  V30 724 C 62.0243 4.97363 1.71803 0
M  V30 725 O 61.0503 5.55156 1.25658 0
M  V30 726 N 62.2523 4.93796 3.05198 0
M  V30 727 H 65.0173 2.9546 -0.502324 0
M  V30 728 H 62.5783 1.56525 -0.413715 0
M  V30 729 H 64.5703 3.54066 1.96008 0
M  V30 730 H 63.1403 2.47984 1.90323 0
M  V30 731 H 62.3603 3.94052 -0.108012 0
M  V30 732 H 63.6483 5.07739 0.328438 0
M  V30 733 H 63.0463 4.48077 3.45317 0
M  V30 734 H 61.6033 5.38837 3.6674 0
M  V30 735 N 65.0364 0.313813 1.54444 0
M  V30 736 C 66.2834 -0.291675 2.00388 0
M  V30 737 C 66.6114 -1.52904 1.2021 0
M  V30 738 O 65.8664 -1.93833 0.269707 0
M  V30 739 C 66.1654 -0.680386 3.50864 0
M  V30 740 C 65.8314 0.456699 4.48581 0
M  V30 741 C 64.4934 0.768824 4.75018 0
M  V30 742 C 66.8454 1.22098 5.06697 0
M  V30 743 C 64.1734 1.84812 5.56831 0
M  V30 744 C 66.5254 2.29029 5.89685 0
M  V30 745 C 65.1894 2.60834 6.14428 0
M  V30 746 H 64.4594 -0.106732 0.733273 0
M  V30 747 H 67.1064 0.43557 1.86481 0
M  V30 748 H 65.4114 -1.48791 3.62448 0
M  V30 749 H 67.1084 -1.16026 3.83847 0
M  V30 750 H 63.6984 0.203337 4.28117 0
M  V30 751 H 67.8824 0.993096 4.86263 0
M  V30 752 H 63.1384 2.09912 5.74236 0
M  V30 753 H 67.3124 2.887 6.33739 0
M  V30 754 H 64.9394 3.44596 6.77612 0
M  V30 755 N 66.5145 -1.57545 0.0417849 0
M  V30 756 C 67.4775 -2.09885 -0.92093 0
M  V30 757 C 68.4775 -1.01648 -1.24596 0
M  V30 758 O 69.6675 -1.27759 -1.1842 0
M  V30 759 C 66.7995 -2.57527 -2.23367 0
M  V30 760 H 67.9925 -2.96236 -0.467382 0
M  V30 761 H 65.5455 -1.5493 -0.206467 0
M  V30 762 H 66.2805 -1.74542 -2.73323 0
M  V30 763 H 66.0655 -3.36613 -2.01083 0
M  V30 764 H 67.5555 -2.98201 -2.92346 0
M  V30 765 N 67.9926 0.231505 -1.5589 0
M  V30 766 C 68.9246 1.31006 -1.8807 0
M  V30 767 C 69.9376 1.43539 -0.768145 0
M  V30 768 O 71.1266 1.44614 -1.04638 0
M  V30 769 C 68.2266 2.68688 -2.06543 0
M  V30 770 C 67.3996 2.78228 -3.37502 0
M  V30 771 C 66.4586 3.96857 -3.4553 0
M  V30 772 O 65.4846 3.85662 -4.18633 0
M  V30 773 N 66.6866 5.1072 -2.75944 0
M  V30 774 H 69.4516 1.03731 -2.81176 0
M  V30 775 H 67.0126 0.421573 -1.56315 0
M  V30 776 H 69.0046 3.46412 -2.09239 0
M  V30 777 H 67.5746 2.88605 -1.20109 0
M  V30 778 H 66.7946 1.87059 -3.46991 0
M  V30 779 H 68.0826 2.81564 -4.23791 0
M  V30 780 H 67.4806 5.2271 -2.16311 0
M  V30 781 H 66.0376 5.86523 -2.84314 0
M  V30 782 N 69.4707 1.49531 0.497807 0
M  V30 783 C 70.6987 1.62893 1.27567 0
M  V30 784 C 71.1137 0.301585 1.86376 0
M  V30 785 O 70.4707 -0.713335 1.67982 0
M  V30 786 C 70.5217 2.70013 2.40364 0
M  V30 787 O 70.2427 3.976 1.83972 0
M  V30 788 C 71.7437 2.94109 3.31685 0
M  V30 789 H 68.9637 0.548298 0.386794 0
M  V30 790 H 71.5077 1.95584 0.597245 0
M  V30 791 H 69.6627 2.40092 3.04031 0
M  V30 792 H 70.0767 4.56631 2.58047 0
M  V30 793 H 71.5507 3.72788 4.07104 0
M  V30 794 H 72.0277 2.04147 3.88871 0
M  V30 795 H 72.6337 3.2546 2.73781 0
M  V30 796 N 70.9488 -0.749086 1.3866 0
M  V30 797 C 71.8988 -1.85368 1.32751 0
M  V30 798 C 72.8828 -1.59511 0.210945 0
M  V30 799 O 74.0748 -1.71255 0.447299 0
M  V30 800 C 71.2038 -3.23131 1.15935 0
M  V30 801 C 70.2898 -3.54864 2.32233 0
M  V30 802 N 70.6808 -3.57625 3.57684 0
M  V30 803 C 68.9788 -3.85154 2.24883 0
M  V30 804 C 69.6798 -3.86753 4.34508 0
M  V30 805 N 68.6558 -4.03812 3.63918 0
M  V30 806 H 72.4578 -1.85787 2.27729 0
M  V30 807 H 69.9718 -0.946658 1.31955 0
M  V30 808 H 71.9688 -4.02185 1.09786 0
M  V30 809 H 70.6288 -3.23961 0.218947 0
M  V30 810 H 71.6398 -3.39276 3.91295 0
M  V30 811 H 68.3168 -3.93672 1.39027 0
M  V30 812 H 69.7068 -3.95474 5.43185 0
M  V30 813 N 72.4269 -1.23603 -0.977757 0
M  V30 814 C 73.3589 -0.977369 -2.07317 0
M  V30 815 C 74.3719 0.0495845 -1.62724 0
M  V30 816 O 75.5609 -0.186261 -1.77526 0
M  V30 817 C 72.6609 -0.451216 -3.35883 0
M  V30 818 C 71.8339 -1.53896 -4.09432 0
M  V30 819 C 70.8929 -1.01721 -5.16274 0
M  V30 820 O 69.9189 -1.70676 -5.43009 0
M  V30 821 N 71.1209 0.153594 -5.80297 0
M  V30 822 H 73.8859 -1.92047 -2.30082 0
M  V30 823 H 71.4469 -1.14497 -1.14465 0
M  V30 824 H 73.4389 -0.0871574 -4.04606 0
M  V30 825 H 72.0089 0.397368 -3.10064 0
M  V30 826 H 71.2289 -2.07566 -3.35127 0
M  V30 827 H 72.5169 -2.27037 -4.55337 0
M  V30 828 H 71.9149 0.730323 -5.60966 0
M  V30 829 H 70.4719 0.458892 -6.50183 0
M  V30 830 N 73.905 1.17692 -1.04816 0
M  V30 831 C 75.153 1.87488 -0.754497 0
M  V30 832 C 75.474 1.81205 0.720407 0
M  V30 833 O 74.744 1.23544 1.52032 0
M  V30 834 H 73.324 0.694101 -0.276102 0
M  V30 835 H 75.986 1.42793 -1.32651 0
M  V30 836 H 75.082 2.93328 -1.06606 0
M  V30 837 N 75.3831 0.828654 1.34056 0
M  V30 838 C 76.6301 0.419458 1.98108 0
M  V30 839 C 76.9581 -1.01886 1.65679 0
M  V30 840 O 76.2131 -1.72539 0.923512 0
M  V30 841 C 76.5121 0.575226 3.52741 0
M  V30 842 C 76.1781 1.98012 4.05095 0
M  V30 843 C 74.8401 2.36442 4.19104 0
M  V30 844 C 77.1921 2.89824 4.33188 0
M  V30 845 C 74.5201 3.66009 4.58535 0
M  V30 846 C 76.8721 4.1886 4.74066 0
M  V30 847 C 75.5361 4.5726 4.86281 0
M  V30 848 H 74.8061 0.153491 0.724929 0
M  V30 849 H 77.4531 1.05371 1.59904 0
M  V30 850 H 75.7581 -0.142385 3.91541 0
M  V30 851 H 77.4551 0.239057 4.00287 0
M  V30 852 H 74.0451 1.67162 3.94658 0
M  V30 853 H 78.2291 2.61375 4.21897 0
M  V30 854 H 73.4851 3.95579 4.66184 0
M  V30 855 H 77.6591 4.90086 4.94761 0
M  V30 856 H 75.2861 5.57707 5.16592 0
M  V30 857 N 76.8612 -1.46375 0.584142 0
M  V30 858 C 77.8242 -2.28784 -0.138108 0
M  V30 859 C 78.8242 -1.38471 -0.817462 0
M  V30 860 O 80.0142 -1.60833 -0.669199 0
M  V30 861 C 77.1462 -3.18892 -1.20503 0
M  V30 862 H 78.3392 -2.94117 0.586127 0
M  V30 863 H 75.8922 -1.52509 0.342171 0
M  V30 864 H 76.6272 -2.58309 -1.96079 0
M  V30 865 H 76.4122 -3.85388 -0.722384 0
M  V30 866 H 77.9022 -3.80914 -1.71155 0
M  V30 867 N 78.3393 -0.321999 -1.54275 0
M  V30 868 C 79.2863 0.544664 -2.24281 0
M  V30 869 C 80.2563 1.1129 -1.23303 0
M  V30 870 O 81.4413 1.15354 -1.51981 0
M  V30 871 C 78.5813 1.70045 -3.00298 0
M  V30 872 C 77.6943 1.16159 -4.1609 0
M  V30 873 C 76.8293 2.28293 -4.79641 0
M  V30 874 C 75.8683 1.71648 -5.8754 0
M  V30 875 N 75.0053 2.77438 -6.44959 0
M  V30 876 H 79.8453 -0.0588907 -2.97942 0
M  V30 877 H 77.3823 -0.0408345 -1.47043 0
M  V30 878 H 79.3403 2.38054 -3.42616 0
M  V30 879 H 77.9703 2.27531 -2.28975 0
M  V30 880 H 77.0223 0.373092 -3.78566 0
M  V30 881 H 78.3343 0.707087 -4.93763 0
M  V30 882 H 77.4883 3.0421 -5.2492 0
M  V30 883 H 76.2273 2.77079 -4.01346 0
M  V30 884 H 75.2323 0.942282 -5.41665 0
M  V30 885 H 76.4573 1.23741 -6.67731 0
M  V30 886 H 74.4033 3.25519 -5.69538 0
M  V30 887 H 74.3203 2.36547 -7.1804 0
M  V30 888 H 75.5883 3.53189 -6.94894 0
M  V30 889 N 79.8174 1.5752 -0.0501392 0
M  V30 890 C 81.0454 1.96963 0.633492 0
M  V30 891 C 81.4604 0.927631 1.6444 0
M  V30 892 O 80.8174 -0.0882665 1.82286 0
M  V30 893 C 80.8684 3.36487 1.32132 0
M  V30 894 O 80.5894 4.36693 0.350894 0
M  V30 895 C 82.0904 3.90682 2.09481 0
M  V30 896 H 79.3104 0.648244 0.173266 0
M  V30 897 H 81.8544 2.0417 -0.116134 0
M  V30 898 H 80.0094 3.30434 2.02218 0
M  V30 899 H 80.4234 5.17702 0.841735 0
M  V30 900 H 81.8974 4.90591 2.5303 0
M  V30 901 H 82.3744 3.26053 2.94255 0
M  V30 902 H 82.9804 4.00069 1.44307 0
M  V30 903 N 81.2955 -0.223234 1.56011 0
M  V30 904 C 82.5435 -0.946003 1.78592 0
M  V30 905 C 82.8645 -1.84936 0.618349 0
M  V30 906 O 82.1345 -1.92473 -0.364833 0
M  V30 907 H 80.7145 -0.352298 0.658707 0
M  V30 908 H 83.3765 -0.235494 1.93472 0
M  V30 909 H 82.4725 -1.55381 2.70672 0
M  V30 910 N 82.7736 -1.49793 -0.48987 0
M  V30 911 C 84.1846 -1.52914 -1.07118 0
M  V30 912 C 84.5356 -0.321738 -1.93544 0
M  V30 913 O 83.6606 0.567338 -2.08831 0
M  V30 914 C 84.2556 -2.771 -1.94938 0
M  V30 915 C 82.8146 -2.82963 -2.48212 0
M  V30 916 C 81.9616 -2.46972 -1.26096 0
M  V30 917 H 84.9126 -1.56329 -0.273289 0
M  V30 918 H 84.9336 -2.57892 -2.79771 0
M  V30 919 H 84.4456 -3.64959 -1.32009 0
M  V30 920 H 82.5466 -1.99411 -3.14748 0
M  V30 921 H 82.6596 -3.85406 -2.84603 0
M  V30 922 H 81.0236 -1.98994 -1.58976 0
M  V30 923 H 81.8066 -3.37118 -0.648581 0
M  V30 924 N 84.2517 0.741722 -1.39055 0
M  V30 925 C 85.4977 1.50234 -1.37118 0
M  V30 926 C 85.8527 1.92368 0.0350439 0
M  V30 927 O 85.1457 1.63422 1.00019 0
M  V30 928 C 85.3397 2.7592 -2.27163 0
M  V30 929 C 85.1687 2.46074 -3.76401 0
M  V30 930 C 83.9387 2.38704 -4.45364 0
M  V30 931 C 86.1367 2.12062 -4.68545 0
M  V30 932 N 84.1187 2.01258 -5.79973 0
M  V30 933 C 85.4897 1.85005 -5.91754 0
M  V30 934 C 87.5447 1.98473 -4.56632 0
M  V30 935 C 86.2477 1.4573 -7.04383 0
M  V30 936 C 88.2737 1.60599 -5.69176 0
M  V30 937 C 87.6357 1.34423 -6.91455 0
M  V30 938 H 83.7347 0.548858 -0.557027 0
M  V30 939 H 86.3187 0.862642 -1.74547 0
M  V30 940 H 84.4897 3.3768 -1.91904 0
M  V30 941 H 86.2217 3.42068 -2.16267 0
M  V30 942 H 82.9767 2.55574 -3.98721 0
M  V30 943 H 83.4007 1.85147 -6.51191 0
M  V30 944 H 88.0427 2.17381 -3.62637 0
M  V30 945 H 85.7607 1.25562 -7.98286 0
M  V30 946 H 89.3467 1.507 -5.61944 0
M  V30 947 H 88.2267 1.05555 -7.77064 0
M  V30 948 N 85.7298 1.2412 0.971189 0
M  V30 949 C 87.1458 1.00584 1.23916 0
M  V30 950 C 87.3458 -0.287481 1.99439 0
M  V30 951 O 86.4018 -1.00454 2.31658 0
M  V30 952 C 87.7148 2.21864 2.0297 0
M  V30 953 C 89.2628 2.26452 2.16076 0
M  V30 954 C 89.7378 3.47343 2.98524 0
M  V30 955 N 91.2288 3.47639 3.06107 0
M  V30 956 C 91.9638 4.37837 3.70251 0
M  V30 957 N 91.4598 5.38286 4.36142 0
M  V30 958 N 93.2528 4.25558 3.67228 0
M  V30 959 H 85.4038 2.07236 0.465499 0
M  V30 960 H 87.6668 0.909236 0.268315 0
M  V30 961 H 87.3728 3.15771 1.54861 0
M  V30 962 H 87.2468 2.23698 3.03709 0
M  V30 963 H 89.6338 1.33078 2.6339 0
M  V30 964 H 89.7148 2.28645 1.14696 0
M  V30 965 H 89.3588 4.41029 2.51905 0
M  V30 966 H 89.2888 3.42393 4.00093 0
M  V30 967 H 91.7798 2.74966 2.59233 0
M  V30 968 H 92.0928 6.03352 4.82894 0
M  V30 969 H 90.4378 5.42176 4.34822 0
M  V30 970 H 93.6288 3.46322 3.14927 0
M  V30 971 H 93.8018 4.96054 4.16935 0
M  V30 972 N 87.2079 -1.17134 1.05439 0
M  V30 973 C 88.4329 -1.91913 0.786396 0
M  V30 974 C 88.8579 -1.7643 -0.652234 0
M  V30 975 O 88.2159 -1.08372 -1.45345 0
M  V30 976 C 88.2639 -3.40921 1.17497 0
M  V30 977 O 87.3679 -4.11244 0.308589 0
M  V30 978 H 86.7089 -0.598215 0.288158 0
M  V30 979 H 89.2389 -1.48457 1.4079 0
M  V30 980 H 89.2489 -3.91668 1.14281 0
M  V30 981 H 87.9239 -3.5151 2.22292 0
M  V30 982 H 86.5009 -3.70731 0.40157 0
M  V30 983 N 88.686 -0.835752 -1.33615 0
M  V30 984 C 89.634 -0.255238 -2.31195 0
M  V30 985 C 90.628 0.61107 -1.57995 0
M  V30 986 O 91.834 0.500979 -1.72888 0
M  V30 987 H 88.209 -0.0638085 -0.749288 0
M  V30 988 H 90.18 -1.09283 -2.77669 0
M  V30 989 C 88.929 0.55754 -3.43201 0
M  V30 990 H 88.252 -0.0997553 -3.99676 0
M  V30 991 H 89.692 0.929622 -4.13683 0
M  V30 992 C 88.151 1.73515 -2.88781 0
M  V30 993 O 88.681 2.83376 -2.84712 0
M  V30 994 N 86.887 1.55603 -2.4543 0
M  V30 995 H 86.434 0.662354 -2.48939 0
M  V30 996 H 86.392 2.34545 -2.09371 0
M  V30 997 N 90.1641 1.46063 -0.591896 0
M  V30 998 C 91.4111 2.02338 -0.0809991 0
M  V30 999 C 91.7391 1.46228 1.28249 0
M  V30 1000 O 90.9941 0.620818 1.85592 0
M  V30 1001 C 91.2931 3.57391 0.0249813 0
M  V30 1002 C 90.9591 4.32583 -1.27211 0
M  V30 1003 C 89.6211 4.52844 -1.62745 0
M  V30 1004 C 91.9731 4.75687 -2.13005 0
M  V30 1005 C 89.3011 5.13462 -2.83855 0
M  V30 1006 C 91.6531 5.37644 -3.3335 0
M  V30 1007 C 90.3171 5.5613 -3.69155 0
M  V30 1008 H 89.5871 0.740407 -0.0296397 0
M  V30 1009 H 92.2341 1.75321 -0.770374 0
M  V30 1010 H 90.5391 3.83597 0.797537 0
M  V30 1011 H 92.2361 3.98621 0.436184 0
M  V30 1012 H 88.8261 4.17116 -0.985499 0
M  V30 1013 H 93.0101 4.59782 -1.86855 0
M  V30 1014 H 88.2661 5.25965 -3.11722 0
M  V30 1015 H 92.4401 5.7 -4.00092 0
M  V30 1016 H 90.0671 6.0287 -4.63089 0
M  V30 1017 N 91.6422 0.330177 1.54103 0
M  V30 1018 C 92.5722 -0.525353 2.27513 0
M  V30 1019 C 93.5532 -1.11383 1.2856 0
M  V30 1020 O 94.7382 -1.13773 1.57383 0
M  V30 1021 C 91.8682 -1.6831 3.03791 0
M  V30 1022 C 90.8222 -1.2236 4.10137 0
M  V30 1023 C 90.1482 -2.46882 4.74293 0
M  V30 1024 C 91.4482 -0.333697 5.21233 0
M  V30 1025 H 93.1422 0.087013 2.99274 0
M  V30 1026 H 90.6882 0.0432893 1.43935 0
M  V30 1027 H 92.6412 -2.28795 3.5388 0
M  V30 1028 H 91.3652 -2.32216 2.29659 0
M  V30 1029 H 90.0242 -0.64165 3.60941 0
M  V30 1030 H 89.6722 -3.09165 3.96769 0
M  V30 1031 H 89.3722 -2.16825 5.46133 0
M  V30 1032 H 90.8962 -3.08117 5.27159 0
M  V30 1033 H 92.3102 -0.845013 5.67038 0
M  V30 1034 H 90.7072 -0.125612 5.99969 0
M  V30 1035 H 91.7772 0.633724 4.80741 0
M  V30 1036 N 93.1203 -1.57491 0.0584922 0
M  V30 1037 C 94.0523 -2.08916 -0.942694 0
M  V30 1038 C 95.0653 -1.0185 -1.27006 0
M  V30 1039 O 96.2543 -1.29398 -1.22957 0
M  V30 1040 C 93.3543 -2.52341 -2.26224 0
M  V30 1041 C 92.5273 -3.82827 -2.1157 0
M  V30 1042 C 91.5863 -4.12487 -3.26712 0
M  V30 1043 O 90.6123 -4.82295 -3.02292 0
M  V30 1044 N 91.8143 -3.64978 -4.5141 0
M  V30 1045 H 94.5793 -2.95437 -0.503722 0
M  V30 1046 H 92.1403 -1.61397 -0.12757 0
M  V30 1047 H 94.1323 -2.69254 -3.02133 0
M  V30 1048 H 92.7023 -1.7103 -2.61663 0
M  V30 1049 H 91.9223 -3.75425 -1.20208 0
M  V30 1050 H 93.2103 -4.68263 -1.99015 0
M  V30 1051 H 92.6083 -3.08558 -4.7414 0
M  V30 1052 H 91.1653 -3.87115 -5.2439 0
M  V30 1053 N 94.5984 0.214957 -1.56127 0
M  V30 1054 C 95.5304 1.29004 -1.89448 0
M  V30 1055 C 96.5434 1.42716 -0.783326 0
M  V30 1056 O 97.7324 1.43496 -1.06166 0
M  V30 1057 C 94.8324 2.66482 -2.09381 0
M  V30 1058 C 94.0054 2.74633 -3.40434 0
M  V30 1059 C 93.0644 3.9317 -3.49719 0
M  V30 1060 O 92.0904 3.812 -4.227 0
M  V30 1061 N 93.2924 5.07765 -2.81346 0
M  V30 1062 H 96.0574 1.00743 -2.82261 0
M  V30 1063 H 93.6184 0.40497 -1.56753 0
M  V30 1064 H 95.6104 3.44173 -2.12901 0
M  V30 1065 H 94.1804 2.87314 -1.23163 0
M  V30 1066 H 93.4004 1.83368 -3.48955 0
M  V30 1067 H 94.6884 2.77054 -4.26754 0
M  V30 1068 H 94.0864 5.20386 -2.21843 0
M  V30 1069 H 92.6434 5.83474 -2.90519 0
M  V30 1070 N 96.0765 1.50051 0.48192 0
M  V30 1071 C 97.3015 1.64508 1.26301 0
M  V30 1072 C 97.7265 0.323851 1.85291 0
M  V30 1073 O 97.0845 -0.710969 1.66778 0
M  V30 1074 C 97.1325 2.7305 2.35533 0
M  V30 1075 O 96.2365 2.3355 3.39895 0
M  V30 1076 H 95.5775 0.549978 0.372048 0
M  V30 1077 H 98.1075 1.9636 0.574786 0
M  V30 1078 H 98.1175 2.95799 2.8101 0
M  V30 1079 H 96.7925 3.68946 1.91967 0
M  V30 1080 H 95.3695 2.21205 3.00204 0
M  V30 1081 N 97.5546 -0.734337 1.39446 0
M  V30 1082 C 98.8006 -1.49613 1.36908 0
M  V30 1083 C 99.1336 -1.94169 -0.0347829 0
M  V30 1084 O 98.4086 -1.66833 -0.999847 0
M  V30 1085 C 98.6916 -2.73534 2.34203 0
M  V30 1086 C 98.5446 -2.34993 3.83534 0
M  V30 1087 C 99.8636 -3.75635 2.29317 0
M  V30 1088 H 96.9826 -0.542714 0.498629 0
M  V30 1089 H 99.6246 -0.839597 1.70443 0
M  V30 1090 H 97.7746 -3.29553 2.05736 0
M  V30 1091 H 99.4466 -1.84601 4.22753 0
M  V30 1092 H 97.6896 -1.67213 4.00278 0
M  V30 1093 H 98.3606 -3.23738 4.47099 0
M  V30 1094 H 100.837 -3.29203 2.54489 0
M  V30 1095 H 99.7126 -4.60008 2.99472 0
M  V30 1096 H 99.9736 -4.22603 1.29842 0
M  V30 1097 N 99.0327 -1.24633 -0.964593 0
M  V30 1098 C 99.9647 -0.999302 -2.06268 0
M  V30 1099 C 100.978 0.0323226 -1.62768 0
M  V30 1100 O 102.167 -0.205079 -1.77318 0
M  V30 1101 C 99.2667 -0.486816 -3.35385 0
M  V30 1102 C 98.4397 -1.5823 -4.07777 0
M  V30 1103 C 97.4987 -1.07191 -5.15166 0
M  V30 1104 O 96.5247 -1.76426 -5.41168 0
M  V30 1105 N 97.7267 0.0920373 -5.80427 0
M  V30 1106 H 100.492 -1.94477 -2.28033 0
M  V30 1107 H 98.0527 -1.15704 -1.13244 0
M  V30 1108 H 100.045 -0.130066 -4.04491 0
M  V30 1109 H 98.6147 0.364459 -3.10468 0
M  V30 1110 H 97.8347 -2.11109 -3.32906 0
M  V30 1111 H 99.1227 -2.31854 -4.52903 0
M  V30 1112 H 98.5207 0.670784 -5.61709 0
M  V30 1113 H 97.0777 0.389905 -6.50633 0
M  V30 1114 N 100.511 1.16574 -1.06058 0
M  V30 1115 C 101.459 2.22941 -0.663343 0
M  V30 1116 C 102.453 1.66358 0.319593 0
M  V30 1117 O 103.659 1.7905 0.184713 0
M  V30 1118 H 100.034 0.725907 -0.196376 0
M  V30 1119 H 102.005 2.53736 -1.57037 0
M  V30 1120 C 100.754 3.47642 -0.0632808 0
M  V30 1121 H 100.077 3.91493 -0.810733 0
M  V30 1122 H 101.517 4.2363 0.177177 0
M  V30 1123 C 99.9758 3.1509 1.19248 0
M  V30 1124 O 100.506 3.30673 2.28075 0
M  V30 1125 N 98.7118 2.6924 1.09353 0
M  V30 1126 H 98.2588 2.5676 0.207912 0
M  V30 1127 H 98.2168 2.47833 1.93458 0
M  V30 1128 N 101.989 0.842826 1.3317 0
M  V30 1129 C 102.919 0.294028 2.31641 0
M  V30 1130 C 103.9 -0.600401 1.59151 0
M  V30 1131 O 105.085 -0.523124 1.87022 0
M  V30 1132 C 102.215 -0.528416 3.43257 0
M  V30 1133 C 101.169 0.27056 4.27144 0
M  V30 1134 C 100.495 -0.675881 5.30411 0
M  V30 1135 C 101.795 1.48981 5.00602 0
M  V30 1136 H 103.489 1.11681 2.77791 0
M  V30 1137 H 101.035 0.538478 1.33553 0
M  V30 1138 H 102.988 -0.922674 4.11175 0
M  V30 1139 H 101.712 -1.38445 2.95805 0
M  V30 1140 H 100.371 0.646427 3.60856 0
M  V30 1141 H 100.019 -1.52842 4.79216 0
M  V30 1142 H 99.7189 -0.145374 5.8742 0
M  V30 1143 H 101.243 -1.06757 6.01195 0
M  V30 1144 H 102.657 1.16849 5.61266 0
M  V30 1145 H 101.054 1.95739 5.6728 0
M  V30 1146 H 102.124 2.25746 4.29147 0
M  V30 1147 N 103.467 -1.45747 0.599634 0
M  V30 1148 C 104.43 -2.28917 -0.113835 0
M  V30 1149 C 105.43 -1.3933 -0.802729 0
M  V30 1150 O 106.62 -1.61534 -0.652103 0
M  V30 1151 C 103.752 -3.20152 -1.17114 0
M  V30 1152 H 104.945 -2.93478 0.617289 0
M  V30 1153 H 102.498 -1.52137 0.358327 0
M  V30 1154 H 103.233 -2.60374 -1.93329 0
M  V30 1155 H 103.018 -3.86133 -0.681468 0
M  V30 1156 H 104.508 -3.82708 -1.67105 0
M  V30 1157 N 104.945 -0.338344 -1.53925 0
M  V30 1158 C 105.855 0.529421 -2.28548 0
M  V30 1159 C 106.871 1.11645 -1.3346 0
M  V30 1160 O 108.047 1.13325 -1.66492 0
M  V30 1161 C 105.112 1.66713 -3.03987 0
M  V30 1162 C 104.173 1.11041 -4.14691 0
M  V30 1163 C 103.406 2.19389 -4.86522 0
M  V30 1164 O 103.629 3.40013 -4.57982 0
M  V30 1165 O 102.563 1.83976 -5.73094 0
M  V30 1166 H 106.389 -0.0770399 -3.03602 0
M  V30 1167 H 103.974 -0.103555 -1.49041 0
M  V30 1168 H 105.856 2.32918 -3.5118 0
M  V30 1169 H 104.531 2.25949 -2.31794 0
M  V30 1170 H 103.438 0.413024 -3.71813 0
M  V30 1171 H 104.771 0.562975 -4.8897 0
M  V30 1172 N 106.423 1.57458 -0.0668435 0
M  V30 1173 C 107.648 1.9804 0.616027 0
M  V30 1174 C 108.073 0.944771 1.62652 0
M  V30 1175 O 107.431 -0.0902094 1.81075 0
M  V30 1176 C 107.479 3.37665 1.26549 0
M  V30 1177 O 106.583 3.36701 2.38131 0
M  V30 1178 H 105.924 0.644719 0.158849 0
M  V30 1179 H 108.454 2.04121 -0.139891 0
M  V30 1180 H 108.464 3.7474 1.6135 0
M  V30 1181 H 107.139 4.12573 0.525016 0
M  V30 1182 H 105.716 3.1139 2.0516 0
M  V30 1183 N 107.901 -0.206675 1.56239 0
M  V30 1184 C 108.831 -1.25909 1.96645 0
M  V30 1185 C 109.812 -1.48097 0.836734 0
M  V30 1186 O 110.997 -1.6003 1.10019 0
M  V30 1187 C 108.127 -2.6058 2.29599 0
M  V30 1188 C 107.081 -2.53024 3.452 0
M  V30 1189 C 106.407 -3.91861 3.63798 0
M  V30 1190 C 107.707 -2.06524 4.79734 0
M  V30 1191 H 109.401 -0.923369 2.84806 0
M  V30 1192 H 106.947 -0.442735 1.37025 0
M  V30 1193 H 108.9 -3.34375 2.56459 0
M  V30 1194 H 107.624 -2.95869 1.38307 0
M  V30 1195 H 106.283 -1.81684 3.18412 0
M  V30 1196 H 105.931 -4.24483 2.69857 0
M  V30 1197 H 105.631 -3.87683 4.4156 0
M  V30 1198 H 107.155 -4.67296 3.93022 0
M  V30 1199 H 108.569 -2.70072 5.05702 0
M  V30 1200 H 106.966 -2.13374 5.60885 0
M  V30 1201 H 108.036 -1.01802 4.74093 0
M  V30 1202 N 109.379 -1.50304 -0.473955 0
M  V30 1203 C 110.311 -1.65109 -1.58971 0
M  V30 1204 C 111.324 -0.532676 -1.53839 0
M  V30 1205 O 112.513 -0.805751 -1.59279 0
M  V30 1206 C 109.613 -1.61684 -2.97845 0
M  V30 1207 C 108.786 -2.8951 -3.27876 0
M  V30 1208 C 107.845 -2.78768 -4.4629 0
M  V30 1209 O 106.871 -3.52722 -4.46739 0
M  V30 1210 N 108.073 -1.9213 -5.47783 0
M  V30 1211 H 110.838 -2.61347 -1.46689 0
M  V30 1212 H 108.399 -1.47732 -0.662324 0
M  V30 1213 H 110.391 -1.52114 -3.75024 0
M  V30 1214 H 108.961 -0.731925 -3.03911 0
M  V30 1215 H 108.181 -3.13228 -2.39336 0
M  V30 1216 H 109.469 -3.74199 -3.4475 0
M  V30 1217 H 108.867 -1.31353 -5.50239 0
M  V30 1218 H 107.424 -1.88466 -6.23958 0
M  V30 1219 N 110.857 0.726932 -1.39834 0
M  V30 1220 C 111.804 1.841 -1.39197 0
M  V30 1221 C 112.774 1.642 -0.250502 0
M  V30 1222 O 113.959 1.85494 -0.446846 0
M  V30 1223 C 111.099 3.21697 -1.24919 0
M  V30 1224 C 110.212 3.53247 -2.48678 0
M  V30 1225 C 109.347 4.80289 -2.26928 0
M  V30 1226 C 108.386 5.04707 -3.4632 0
M  V30 1227 N 107.523 6.22956 -3.23836 0
M  V30 1228 H 112.363 1.83979 -2.34427 0
M  V30 1229 H 109.9 0.898876 -1.16442 0
M  V30 1230 H 111.858 4.01137 -1.1465 0
M  V30 1231 H 110.488 3.21076 -0.333153 0
M  V30 1232 H 109.54 2.68447 -2.69519 0
M  V30 1233 H 110.852 3.67205 -3.37582 0
M  V30 1234 H 110.006 5.67725 -2.13947 0
M  V30 1235 H 108.745 4.68519 -1.35431 0
M  V30 1236 H 107.75 4.1573 -3.5979 0
M  V30 1237 H 108.975 5.18357 -4.38729 0
M  V30 1238 H 106.921 6.12459 -2.35011 0
M  V30 1239 H 106.838 6.37539 -4.063 0
M  V30 1240 H 108.106 7.1321 -3.14566 0
M  V30 1241 N 112.336 1.25143 0.95797 0
M  V30 1242 C 113.582 1.09855 1.70469 0
M  V30 1243 C 113.915 -0.360187 1.90831 0
M  V30 1244 O 113.19 -1.26568 1.47685 0
M  V30 1245 C 113.473 1.8497 3.08963 0
M  V30 1246 C 113.326 3.38652 2.96032 0
M  V30 1247 C 114.645 1.63016 4.08795 0
M  V30 1248 H 111.764 0.400465 0.618706 0
M  V30 1249 H 114.406 1.53933 1.11376 0
M  V30 1250 H 112.556 1.47505 3.59409 0
M  V30 1251 H 114.228 3.85772 2.52938 0
M  V30 1252 H 112.471 3.66534 2.32025 0
M  V30 1253 H 113.142 3.8642 3.94187 0
M  V30 1254 H 115.618 1.95625 3.67247 0
M  V30 1255 H 114.494 2.18015 5.03747 0
M  V30 1256 H 114.755 0.570692 4.38401 0
M  V30 1257 N 113.814 -1.1601 1.06675 0
M  V30 1258 C 115.062 -1.86264 0.784229 0
M  V30 1259 C 115.383 -1.82328 -0.691488 0
M  V30 1260 O 114.653 -1.25947 -1.50047 0
M  V30 1261 H 113.233 -0.689621 0.28711 0
M  V30 1262 H 115.895 -1.40664 1.34906 0
M  V30 1263 H 114.991 -2.91595 1.11259 0
M  V30 1264 N 115.292 -0.849877 -1.32721 0
M  V30 1265 C 116.24 -0.279745 -2.30912 0
M  V30 1266 C 117.234 0.594278 -1.58634 0
M  V30 1267 O 118.44 0.482613 -1.73409 0
M  V30 1268 H 114.815 -0.0717521 -0.748569 0
M  V30 1269 H 116.786 -1.12222 -2.76494 0
M  V30 1270 C 115.535 0.521108 -3.43773 0
M  V30 1271 H 114.858 -0.142141 -3.99547 0
M  V30 1272 H 116.298 0.885693 -4.14646 0
M  V30 1273 C 114.757 1.70442 -2.90605 0
M  V30 1274 O 115.287 2.8034 -2.87702 0
M  V30 1275 N 113.493 1.52991 -2.47067 0
M  V30 1276 H 113.04 0.635914 -2.49628 0
M  V30 1277 H 112.998 2.32311 -2.11847 0
M  V30 1278 N 116.77 1.45427 -0.607355 0
M  V30 1279 C 117.717 2.3053 0.111625 0
M  V30 1280 C 118.687 1.4209 0.860216 0
M  V30 1281 O 119.872 1.71019 0.845998 0
M  V30 1282 C 117.012 3.26992 1.10319 0
M  V30 1283 C 116.125 4.30535 0.355493 0
M  V30 1284 C 115.26 5.14105 1.33676 0
M  V30 1285 C 114.299 6.09376 0.576862 0
M  V30 1286 N 113.436 6.85727 1.5074 0
M  V30 1287 H 118.276 2.91477 -0.620093 0
M  V30 1288 H 115.813 1.43631 -0.317594 0
M  V30 1289 H 117.771 3.81385 1.6912 0
M  V30 1290 H 116.401 2.67799 1.80232 0
M  V30 1291 H 115.453 3.78805 -0.348023 0
M  V30 1292 H 116.765 4.98235 -0.237423 0
M  V30 1293 H 115.919 5.72897 1.99684 0
M  V30 1294 H 114.658 4.46423 1.9636 0
M  V30 1295 H 113.663 5.49715 -0.0968519 0
M  V30 1296 H 114.888 6.79085 -0.0449341 0
M  V30 1297 H 112.834 6.20735 2.12189 0
M  V30 1298 H 112.751 7.49778 0.967913 0
M  V30 1299 H 114.019 7.4906 2.15706 0
M  V30 1300 N 118.248 0.346503 1.53744 0
M  V30 1301 C 119.178 -0.501193 2.28058 0
M  V30 1302 C 120.159 -1.10014 1.29734 0
M  V30 1303 O 121.344 -1.12097 1.58581 0
M  V30 1304 C 118.474 -1.65078 3.05559 0
M  V30 1305 C 117.428 -1.18003 4.11411 0
M  V30 1306 C 116.754 -2.41837 4.76884 0
M  V30 1307 C 118.054 -0.278394 5.21558 0
M  V30 1308 H 119.748 0.11875 2.99164 0
M  V30 1309 H 117.294 0.0585531 1.43881 0
M  V30 1310 H 119.247 -2.25028 3.56287 0
M  V30 1311 H 117.971 -2.29767 2.32109 0
M  V30 1312 H 116.63 -0.603331 3.61601 0
M  V30 1313 H 116.278 -3.0494 4.00026 0
M  V30 1314 H 115.978 -2.1102 5.48402 0
M  V30 1315 H 117.502 -3.02508 5.30397 0
M  V30 1316 H 118.916 -0.784823 5.67903 0
M  V30 1317 H 117.313 -0.0619707 6.00068 0
M  V30 1318 H 118.383 0.684677 4.80042 0
M  V30 1319 N 119.726 -1.57421 0.075193 0
M  V30 1320 C 120.656 -2.15942 -0.888324 0
M  V30 1321 C 121.637 -1.08737 -1.30806 0
M  V30 1322 O 122.822 -1.36787 -1.37851 0
M  V30 1323 C 119.952 -2.72379 -2.1547 0
M  V30 1324 C 118.906 -3.8478 -1.87425 0
M  V30 1325 C 118.232 -4.27834 -3.20721 0
M  V30 1326 C 119.532 -5.08869 -1.17684 0
M  V30 1327 H 121.226 -2.96705 -0.400799 0
M  V30 1328 H 118.772 -1.42723 -0.191342 0
M  V30 1329 H 120.725 -3.11965 -2.83295 0
M  V30 1330 H 119.449 -1.88841 -2.6647 0
M  V30 1331 H 118.108 -3.45703 -1.22004 0
M  V30 1332 H 117.756 -3.41214 -3.6957 0
M  V30 1333 H 117.456 -5.03605 -3.02746 0
M  V30 1334 H 118.98 -4.70039 -3.89738 0
M  V30 1335 H 120.394 -5.4575 -1.75584 0
M  V30 1336 H 118.791 -5.8994 -1.09956 0
M  V30 1337 H 119.861 -4.84648 -0.156453 0
M  V30 1338 N 121.204 0.198386 -1.56346 0
M  V30 1339 C 122.45 0.920648 -1.80698 0
M  V30 1340 C 122.783 1.83045 -0.648697 0
M  V30 1341 O 122.058 1.91308 0.350925 0
M  V30 1342 C 122.341 1.73971 -3.15287 0
M  V30 1343 C 122.194 0.85485 -4.41602 0
M  V30 1344 C 123.513 2.71296 -3.46535 0
M  V30 1345 H 120.632 0.333261 -0.657348 0
M  V30 1346 H 123.274 0.188198 -1.89066 0
M  V30 1347 H 121.424 2.36416 -3.08285 0
M  V30 1348 H 123.096 0.245362 -4.60647 0
M  V30 1349 H 121.339 0.161398 -4.335 0
M  V30 1350 H 122.01 1.46286 -5.32264 0
M  V30 1351 H 124.486 2.18983 -3.53816 0
M  V30 1352 H 123.362 3.2569 -4.41834 0
M  V30 1353 H 123.623 3.5018 -2.69864 0
M  V30 1354 N 122.682 1.50554 0.465978 0
M  V30 1355 C 123.91 1.65563 1.24083 0
M  V30 1356 C 124.325 0.341051 1.85694 0
M  V30 1357 O 123.682 -0.677543 1.69457 0
M  V30 1358 C 123.733 2.75051 2.34583 0
M  V30 1359 O 123.454 4.01413 1.75497 0
M  V30 1360 C 124.955 3.01078 3.25372 0
M  V30 1361 H 122.175 0.55638 0.375077 0
M  V30 1362 H 124.719 1.96807 0.555624 0
M  V30 1363 H 122.874 2.46486 2.9887 0
M  V30 1364 H 123.288 4.62002 2.48303 0
M  V30 1365 H 124.762 3.81339 3.99105 0
M  V30 1366 H 125.239 2.12349 3.84453 0
M  V30 1367 H 125.845 3.31194 2.66816 0
M  V30 1368 N 124.16 -0.719506 1.40217 0
M  V30 1369 C 125.388 -1.50864 1.41589 0
M  V30 1370 C 125.803 -1.88794 0.0145275 0
M  V30 1371 O 125.16 -1.55174 -0.960594 0
M  V30 1372 C 125.211 -2.78646 2.30302 0
M  V30 1373 O 124.932 -2.42321 3.64983 0
M  V30 1374 C 126.433 -3.72569 2.40224 0
M  V30 1375 H 123.653 -0.465709 0.48307 0
M  V30 1376 H 126.197 -0.88785 1.84221 0
M  V30 1377 H 124.352 -3.37019 1.91042 0
M  V30 1378 H 124.766 -3.24514 4.12057 0
M  V30 1379 H 126.24 -4.5908 3.06512 0
M  V30 1380 H 126.717 -4.15403 1.42608 0
M  V30 1381 H 127.323 -3.20109 2.80019 0
M  V30 1382 N 125.638 -1.25649 -0.95132 0
M  V30 1383 C 126.886 -1.10375 -1.69298 0
M  V30 1384 C 127.207 0.355339 -1.91735 0
M  V30 1385 O 126.477 1.25188 -1.50681 0
M  V30 1386 H 125.057 -0.405461 -0.627384 0
M  V30 1387 H 127.719 -1.57823 -1.14358 0
M  V30 1388 H 126.815 -1.61465 -2.67087 0
M  V30 1389 N 127.117 1.15442 -1.07289 0
M  V30 1390 C 128.047 2.22312 -0.714107 0
M  V30 1391 C 129.028 1.67467 0.298155 0
M  V30 1392 O 130.213 1.93445 0.171048 0
M  V30 1393 C 127.343 3.47124 -0.110448 0
M  V30 1394 C 126.297 4.14926 -1.04979 0
M  V30 1395 C 125.623 5.33807 -0.308924 0
M  V30 1396 C 126.923 4.64762 -2.38314 0
M  V30 1397 H 128.617 2.5258 -1.6076 0
M  V30 1398 H 126.163 1.21404 -0.77441 0
M  V30 1399 H 128.116 4.21124 0.152482 0
M  V30 1400 H 126.84 3.16187 0.81812 0
M  V30 1401 H 125.499 3.42866 -1.29764 0
M  V30 1402 H 125.147 4.99126 0.623084 0
M  V30 1403 H 124.847 5.80113 -0.935036 0
M  V30 1404 H 126.371 6.10576 -0.0537771 0
M  V30 1405 H 127.785 5.30292 -2.1786 0
M  V30 1406 H 126.182 5.21728 -2.96514 0
M  V30 1407 H 127.252 3.80434 -3.00663 0
M  V30 1408 N 128.595 0.856903 1.32268 0
M  V30 1409 C 130.006 0.515711 1.79436 0
M  V30 1410 C 130.357 -0.966586 1.70738 0
M  V30 1411 O 129.482 -1.75409 1.26731 0
M  V30 1412 C 130.077 0.929335 3.25805 0
M  V30 1413 C 128.636 0.640006 3.70919 0
M  V30 1414 C 127.783 1.12784 2.53328 0
M  V30 1415 H 130.734 1.04389 1.19535 0
M  V30 1416 H 130.755 0.246633 3.797 0
M  V30 1417 H 130.267 2.00821 3.32103 0
M  V30 1418 H 128.368 -0.428051 3.70133 0
M  V30 1419 H 128.481 1.20788 4.63624 0
M  V30 1420 H 126.845 0.548033 2.48734 0
M  V30 1421 H 127.628 2.21387 2.62379 0
M  V30 1422 N 130.073 -1.45103 0.615059 0
M  V30 1423 C 130.983 -2.34382 -0.101034 0
M  V30 1424 C 131.999 -1.51681 -0.852585 0
M  V30 1425 O 133.175 -1.8446 -0.808484 0
M  V30 1426 C 130.24 -3.29417 -1.08099 0
M  V30 1427 C 129.301 -4.28025 -0.330577 0
M  V30 1428 C 128.534 -5.1852 -1.26385 0
M  V30 1429 O 128.757 -5.12598 -2.50198 0
M  V30 1430 O 127.691 -5.97122 -0.756866 0
M  V30 1431 H 131.517 -2.97033 0.632855 0
M  V30 1432 H 129.102 -1.4461 0.375293 0
M  V30 1433 H 130.984 -3.87958 -1.6452 0
M  V30 1434 H 129.659 -2.69321 -1.79577 0
M  V30 1435 H 128.566 -3.73078 0.276283 0
M  V30 1436 H 129.899 -4.90997 0.343866 0
M  V30 1437 N 131.551 -0.354651 -1.53558 0
M  V30 1438 C 132.483 0.5315 -2.22952 0
M  V30 1439 C 133.496 1.05503 -1.23988 0
M  V30 1440 O 134.685 0.963279 -1.50277 0
M  V30 1441 C 131.785 1.74538 -2.90499 0
M  V30 1442 C 130.958 1.35524 -4.15875 0
M  V30 1443 C 130.017 2.42999 -4.66731 0
M  V30 1444 O 129.043 2.05844 -5.30676 0
M  V30 1445 N 130.245 3.74423 -4.43608 0
M  V30 1446 H 133.01 -0.0628615 -2.99634 0
M  V30 1447 H 130.571 -0.179302 -1.60904 0
M  V30 1448 H 132.563 2.45892 -3.21433 0
M  V30 1449 H 131.133 2.24686 -2.17336 0
M  V30 1450 H 130.353 0.471998 -3.91364 0
M  V30 1451 H 131.641 1.07071 -4.97406 0
M  V30 1452 H 131.039 4.07391 -3.92491 0
M  V30 1453 H 129.596 4.41913 -4.7912 0
M  V30 1454 N 133.029 1.57378 -0.0835403 0
M  V30 1455 C 134.275 1.94217 0.583733 0
M  V30 1456 C 134.608 0.964653 1.68547 0
M  V30 1457 O 133.883 -0.00422258 1.945 0
M  V30 1458 C 134.166 3.41253 1.14972 0
M  V30 1459 C 134.019 4.49768 0.0538277 0
M  V30 1460 C 135.338 3.89352 2.05166 0
M  V30 1461 H 132.457 0.706233 0.210724 0
M  V30 1462 H 135.099 1.89392 -0.1519 0
M  V30 1463 H 133.249 3.45496 1.77665 0
M  V30 1464 H 134.921 4.57641 -0.579851 0
M  V30 1465 H 133.164 4.29432 -0.614068 0
M  V30 1466 H 133.835 5.49817 0.490452 0
M  V30 1467 H 136.311 3.87189 1.52393 0
M  V30 1468 H 135.187 4.92822 2.41698 0
M  V30 1469 H 135.448 3.27973 2.96456 0
M  V30 1470 N 134.507 -0.190092 1.56449 0
M  V30 1471 C 135.756 -0.907912 1.80111 0
M  V30 1472 C 136.069 -1.84214 0.657619 0
M  V30 1473 O 137.275 -2.60094 0.778663 0
M  V30 1474 C 135.731 -1.66485 3.19078 0
M  V30 1475 C 135.339 -0.7752 4.41242 0
M  V30 1476 C 137.083 -2.37201 3.52045 0
M  V30 1477 C 134.99 -1.53129 5.71231 0
M  V30 1478 H 133.92 -0.34276 0.671589 0
M  V30 1479 H 136.571 -0.161109 1.82791 0
M  V30 1480 H 134.953 -2.45572 3.10661 0
M  V30 1481 H 136.127 -0.0226298 4.60794 0
M  V30 1482 H 134.442 -0.178627 4.16017 0
M  V30 1483 H 137.039 -2.94329 4.46402 0
M  V30 1484 H 137.382 -3.11632 2.76028 0
M  V30 1485 H 137.915 -1.65075 3.61932 0
M  V30 1486 H 134.654 -0.82967 6.50228 0
M  V30 1487 H 134.174 -2.25767 5.55688 0
M  V30 1488 H 135.853 -2.08377 6.12526 0
M  V30 1489 N 135.985 -1.50799 -0.457987 0
M  V30 1490 C 137.396 -1.55152 -1.0385 0
M  V30 1491 C 137.747 -0.362719 -1.92818 0
M  V30 1492 O 136.872 0.522915 -2.09987 0
M  V30 1493 C 137.467 -2.81173 -1.89017 0
M  V30 1494 C 136.026 -2.88164 -2.42154 0
M  V30 1495 C 135.173 -2.49591 -1.20829 0
M  V30 1496 H 138.124 -1.56874 -0.240068 0
M  V30 1497 H 138.145 -2.63769 -2.74238 0
M  V30 1498 H 137.657 -3.67677 -1.24238 0
M  V30 1499 H 135.758 -2.06042 -3.10447 0
M  V30 1500 H 135.871 -3.91356 -2.76364 0
M  V30 1501 H 134.235 -2.02322 -1.54719 0
M  V30 1502 H 135.018 -3.38418 -0.576927 0
M  V30 1503 N 137.463 0.71206 -1.40597 0
M  V30 1504 C 138.395 1.83704 -1.37061 0
M  V30 1505 C 139.408 1.60453 -0.275426 0
M  V30 1506 O 140.597 1.70262 -0.53602 0
M  V30 1507 C 137.697 3.20172 -1.11099 0
M  V30 1508 C 136.87 3.7059 -2.3234 0
M  V30 1509 C 135.929 4.85681 -2.02485 0
M  V30 1510 O 134.955 4.9815 -2.75382 0
M  V30 1511 N 136.157 5.71735 -1.00497 0
M  V30 1512 H 138.922 1.87235 -2.34016 0
M  V30 1513 H 136.483 0.893739 -1.34996 0
M  V30 1514 H 138.475 3.94768 -0.891064 0
M  V30 1515 H 137.045 3.11767 -0.227989 0
M  V30 1516 H 136.265 2.87085 -2.7014 0
M  V30 1517 H 137.553 4.01011 -3.13157 0
M  V30 1518 H 136.951 5.64275 -0.401298 0
M  V30 1519 H 135.508 6.463 -0.844942 0
M  V30 1520 N 138.941 1.26152 0.944643 0
M  V30 1521 C 140.19 1.10883 1.68487 0
M  V30 1522 C 140.503 -0.348153 1.92477 0
M  V30 1523 O 141.709 -0.621459 2.64292 0
M  V30 1524 C 140.165 1.93624 3.03377 0
M  V30 1525 C 139.773 3.43875 2.87148 0
M  V30 1526 C 141.517 1.86954 3.81115 0
M  V30 1527 C 139.424 4.18875 4.1749 0
M  V30 1528 H 138.354 0.41135 0.631907 0
M  V30 1529 H 141.005 1.50433 1.05082 0
M  V30 1530 H 139.387 1.46904 3.67743 0
M  V30 1531 H 140.561 3.98338 2.31653 0
M  V30 1532 H 138.876 3.51744 2.22856 0
M  V30 1533 H 141.473 2.40275 4.77673 0
M  V30 1534 H 141.816 0.839518 4.07747 0
M  V30 1535 H 142.349 2.31477 3.23517 0
M  V30 1536 H 139.088 5.22332 3.96043 0
M  V30 1537 H 138.608 3.69193 4.72712 0
M  V30 1538 H 140.287 4.27134 4.85968 0
M  V30 1539 N 140.419 -1.14872 1.07899 0
M  V30 1540 C 141.382 -2.17986 0.708161 0
M  V30 1541 C 142.382 -1.58775 -0.25442 0
M  V30 1542 O 143.572 -1.74166 -0.034645 0
M  V30 1543 C 140.704 -3.40871 0.0446929 0
M  V30 1544 H 141.897 -2.52306 1.62116 0
M  V30 1545 H 139.45 -1.2943 0.876218 0
M  V30 1546 H 140.185 -3.12124 -0.880281 0
M  V30 1547 H 139.97 -3.8511 0.737091 0
M  V30 1548 H 141.46 -4.17121 -0.19991 0
M  V30 1549 N 141.898 -0.863906 -1.31812 0
M  V30 1550 C 142.845 -0.313303 -2.28664 0
M  V30 1551 C 143.815 0.584868 -1.55462 0
M  V30 1552 O 145 0.517805 -1.83639 0
M  V30 1553 C 142.14 0.48441 -3.41683 0
M  V30 1554 C 141.253 -0.440594 -4.29747 0
M  V30 1555 C 140.388 0.370652 -5.29905 0
M  V30 1556 C 139.427 -0.551164 -6.09613 0
M  V30 1557 N 138.564 0.223462 -7.01744 0
M  V30 1558 H 143.404 -1.14444 -2.75148 0
M  V30 1559 H 140.941 -0.575769 -1.35364 0
M  V30 1560 H 142.899 0.962627 -4.05943 0
M  V30 1561 H 141.529 1.28029 -2.96325 0
M  V30 1562 H 140.581 -1.03724 -3.65986 0
M  V30 1563 H 141.893 -1.14767 -4.85417 0
M  V30 1564 H 141.047 0.911638 -5.99812 0
M  V30 1565 H 139.786 1.11105 -4.74876 0
M  V30 1566 H 138.791 -1.10396 -5.38603 0
M  V30 1567 H 140.016 -1.29032 -6.66729 0
M  V30 1568 H 137.962 0.946787 -6.49132 0
M  V30 1569 H 137.879 -0.424399 -7.54808 0
M  V30 1570 H 139.147 0.745876 -7.75923 0
M  V30 1571 N 143.376 1.44774 -0.622745 0
M  V30 1572 C 144.308 2.28856 0.125485 0
M  V30 1573 C 145.321 1.40811 0.817069 0
M  V30 1574 O 146.51 1.65044 0.679918 0
M  V30 1575 C 143.61 3.16963 1.19949 0
M  V30 1576 C 142.783 4.33374 0.592064 0
M  V30 1577 C 141.842 5.02577 1.55893 0
M  V30 1578 O 140.868 5.58873 1.07933 0
M  V30 1579 N 142.07 5.03256 2.89334 0
M  V30 1580 H 144.835 2.93713 -0.596068 0
M  V30 1581 H 142.396 1.55129 -0.463303 0
M  V30 1582 H 144.388 3.60123 1.84644 0
M  V30 1583 H 142.958 2.53913 1.82337 0
M  V30 1584 H 142.178 3.93509 -0.233322 0
M  V30 1585 H 143.466 5.08527 0.166738 0
M  V30 1586 H 142.864 4.58836 3.30887 0
M  V30 1587 H 141.421 5.50232 3.49412 0
M  V30 1588 N 144.854 0.36279 1.53368 0
M  V30 1589 C 146.103 -0.22888 2.00397 0
M  V30 1590 C 146.416 -1.50096 1.25421 0
M  V30 1591 O 147.622 -2.17106 1.63025 0
M  V30 1592 C 146.078 -0.458417 3.56969 0
M  V30 1593 C 145.686 0.798877 4.4082 0
M  V30 1594 C 147.43 -1.00789 4.12361 0
M  V30 1595 C 145.337 0.539078 5.88938 0
M  V30 1596 H 144.267 -0.089305 0.748693 0
M  V30 1597 H 146.918 0.481099 1.77081 0
M  V30 1598 H 145.3 -1.22959 3.76427 0
M  V30 1599 H 146.474 1.57262 4.33134 0
M  V30 1600 H 144.789 1.27137 3.96516 0
M  V30 1601 H 147.386 -1.21754 5.20653 0
M  V30 1602 H 147.729 -1.9692 3.66781 0
M  V30 1603 H 148.262 -0.296961 3.9669 0
M  V30 1604 H 145.001 1.47064 6.3879 0
M  V30 1605 H 144.521 -0.196222 5.99479 0
M  V30 1606 H 146.2 0.163542 6.46793 0
M  V30 1607 N 146.332 -1.57332 0.0918853 0
M  V30 1608 C 147.28 -2.15075 -0.885747 0
M  V30 1609 C 148.274 -1.09277 -1.29441 0
M  V30 1610 O 149.48 -1.27627 -1.26931 0
M  V30 1611 H 145.855 -0.687966 -0.303656 0
M  V30 1612 H 147.826 -2.96047 -0.373995 0
M  V30 1613 C 146.575 -2.74325 -2.13638 0
M  V30 1614 H 145.898 -3.55418 -1.8308 0
M  V30 1615 H 147.338 -3.183 -2.80109 0
M  V30 1616 C 145.797 -1.70062 -2.90827 0
M  V30 1617 O 146.327 -1.13763 -3.85254 0
M  V30 1618 N 144.533 -1.40628 -2.54307 0
M  V30 1619 H 144.08 -1.866 -1.7759 0
M  V30 1620 H 144.038 -0.711043 -3.06254 0
M  V30 1621 N 147.81 0.181792 -1.56548 0
M  V30 1622 C 148.773 1.20894 -1.94724 0
M  V30 1623 C 149.773 1.37738 -0.829747 0
M  V30 1624 O 150.963 1.35323 -1.09697 0
M  V30 1625 C 148.095 2.57593 -2.23291 0
M  V30 1626 H 149.288 0.882275 -2.86629 0
M  V30 1627 H 146.841 0.423838 -1.50444 0
M  V30 1628 H 147.576 2.95291 -1.34067 0
M  V30 1629 H 147.361 2.46735 -3.04736 0
M  V30 1630 H 148.851 3.31637 -2.53785 0
M  V30 1631 N 149.288 1.51039 0.449983 0
M  V30 1632 C 150.235 1.71439 1.54523 0
M  V30 1633 C 151.205 0.555871 1.56522 0
M  V30 1634 O 152.39 0.788871 1.73728 0
M  V30 1635 C 149.53 1.83384 2.92343 0
M  V30 1636 C 148.643 3.10873 2.9997 0
M  V30 1637 C 147.778 3.13488 4.28834 0
M  V30 1638 C 146.817 4.35343 4.30282 0
M  V30 1639 N 145.954 4.35579 5.5065 0
M  V30 1640 H 150.794 2.64934 1.36433 0
M  V30 1641 H 148.331 1.31312 0.662982 0
M  V30 1642 H 150.289 1.88291 3.72293 0
M  V30 1643 H 148.919 0.933086 3.0902 0
M  V30 1644 H 147.971 3.15336 2.12761 0
M  V30 1645 H 149.283 4.00814 2.96901 0
M  V30 1646 H 148.437 3.17241 5.17149 0
M  V30 1647 H 147.176 2.21414 4.34543 0
M  V30 1648 H 146.181 4.3178 3.40362 0
M  V30 1649 H 147.406 5.28668 4.26248 0
M  V30 1650 H 145.352 3.46369 5.57104 0
M  V30 1651 H 145.269 5.19313 5.49409 0
M  V30 1652 H 146.537 4.43507 6.41032 0
M  V30 1653 N 150.766 -0.704594 1.40972 0
M  V30 1654 C 151.994 -1.49354 1.43182 0
M  V30 1655 C 152.409 -1.88768 0.0345508 0
M  V30 1656 O 151.766 -1.56184 -0.944081 0
M  V30 1657 C 151.817 -2.76187 2.33244 0
M  V30 1658 O 151.538 -2.38436 3.67532 0
M  V30 1659 C 153.039 -3.7 2.44162 0
M  V30 1660 H 150.259 -0.460559 0.487982 0
M  V30 1661 H 152.803 -0.868261 1.85153 0
M  V30 1662 H 150.958 -3.34974 1.94606 0
M  V30 1663 H 151.372 -3.20126 4.15475 0
M  V30 1664 H 152.846 -4.55803 3.11364 0
M  V30 1665 H 153.323 -4.13867 1.47006 0
M  V30 1666 H 153.929 -3.17121 2.83398 0
M  V30 1667 N 152.244 -1.26651 -0.937939 0
M  V30 1668 C 153.493 -1.11775 -1.67897 0
M  V30 1669 C 153.806 0.33794 -1.92659 0
M  V30 1670 O 155.012 0.607434 -2.64618 0
M  V30 1671 C 153.468 -1.9523 -3.02346 0
M  V30 1672 C 153.076 -3.45393 -2.8532 0
M  V30 1673 C 154.82 -1.88972 -3.80118 0
M  V30 1674 C 152.727 -4.21083 -4.15263 0
M  V30 1675 H 151.657 -0.414696 -0.629717 0
M  V30 1676 H 154.308 -1.50988 -1.04283 0
M  V30 1677 H 152.69 -1.48853 -3.66959 0
M  V30 1678 H 153.864 -3.99561 -2.29537 0
M  V30 1679 H 152.179 -3.52921 -2.20988 0
M  V30 1680 H 154.776 -2.42805 -4.76392 0
M  V30 1681 H 155.119 -0.86113 -4.07296 0
M  V30 1682 H 155.652 -2.33189 -3.22285 0
M  V30 1683 H 152.391 -5.24425 -3.93267 0
M  V30 1684 H 151.911 -3.71695 -4.70747 0
M  V30 1685 H 153.59 -4.29706 -4.83696 0
M  V30 1686 N 153.722 1.14298 -1.08507 0
M  V30 1687 C 154.952 1.88945 -0.835663 0
M  V30 1688 C 155.36 1.78894 0.615928 0
M  V30 1689 O 154.703 1.1468 1.43506 0
M  V30 1690 C 154.765 3.39585 -1.17994 0
M  V30 1691 C 154.429 3.7342 -2.63451 0
M  V30 1692 C 155.426 3.73454 -3.61702 0
M  V30 1693 C 153.111 4.03368 -2.99332 0
M  V30 1694 C 155.105 4.02961 -4.93864 0
M  V30 1695 C 152.792 4.32538 -4.31687 0
M  V30 1696 C 153.79 4.32318 -5.28763 0
M  V30 1697 O 153.478 4.6078 -6.58739 0
M  V30 1698 H 153.21 0.605307 -0.300965 0
M  V30 1699 H 155.764 1.45673 -1.44806 0
M  V30 1700 H 153.994 3.83315 -0.51055 0
M  V30 1701 H 155.683 3.9554 -0.911182 0
M  V30 1702 H 156.449 3.50403 -3.35325 0
M  V30 1703 H 152.328 4.02692 -2.24411 0
M  V30 1704 H 155.872 4.02704 -5.69627 0
M  V30 1705 H 151.769 4.55059 -4.57812 0
M  V30 1706 H 152.537 4.78492 -6.64069 0
M  V30 1707 N 155.201 0.870884 1.31352 0
M  V30 1708 C 156.431 0.496049 2.00557 0
M  V30 1709 C 156.839 -0.916241 1.65534 0
M  V30 1710 O 156.182 -1.61188 0.881134 0
M  V30 1711 C 156.244 0.574418 3.54881 0
M  V30 1712 C 155.908 1.94849 4.1338 0
M  V30 1713 C 156.905 2.91611 4.30417 0
M  V30 1714 C 154.59 2.25005 4.49086 0
M  V30 1715 C 156.584 4.16672 4.82352 0
M  V30 1716 C 154.271 3.50315 5.00722 0
M  V30 1717 C 155.269 4.45964 5.17306 0
M  V30 1718 O 154.957 5.69052 5.67833 0
M  V30 1719 H 154.689 0.191664 0.64826 0
M  V30 1720 H 157.243 1.17409 1.68536 0
M  V30 1721 H 155.473 -0.160549 3.86367 0
M  V30 1722 H 157.162 0.212879 4.05341 0
M  V30 1723 H 157.928 2.69622 4.03149 0
M  V30 1724 H 153.807 1.51332 4.35453 0
M  V30 1725 H 157.351 4.91336 4.95211 0
M  V30 1726 H 153.248 3.72147 5.27424 0
M  V30 1727 H 154.016 5.71236 5.86201 0
M  V30 1728 N 156.679 -1.44442 0.630414 0
M  V30 1729 C 157.629 -2.27794 -0.0968103 0
M  V30 1730 C 158.613 -1.38624 -0.816834 0
M  V30 1731 O 159.805 -1.62438 -0.70306 0
M  V30 1732 C 156.934 -3.25929 -1.07819 0
M  V30 1733 C 156.02 -4.22588 -0.357826 0
M  V30 1734 N 156.411 -5.0207 0.613169 0
M  V30 1735 C 154.709 -4.41914 -0.602365 0
M  V30 1736 C 155.41 -5.72351 1.03871 0
M  V30 1737 N 154.386 -5.42287 0.377642 0
M  V30 1738 H 158.188 -2.86653 0.648621 0
M  V30 1739 H 155.702 -1.55871 0.455862 0
M  V30 1740 H 157.699 -3.84399 -1.61378 0
M  V30 1741 H 156.359 -2.68631 -1.82393 0
M  V30 1742 H 157.37 -5.08331 0.990947 0
M  V30 1743 H 154.047 -3.95714 -1.33103 0
M  V30 1744 H 155.437 -6.4619 1.84086 0
M  V30 1745 N 158.157 -0.370918 -1.53173 0
M  V30 1746 C 159.573 -0.0200818 -1.59587 0
M  V30 1747 C 159.773 1.46279 -1.38581 0
M  V30 1748 O 158.829 2.22506 -1.19363 0
M  V30 1749 C 160.142 -0.4808 -2.96831 0
M  V30 1750 C 161.69 -0.435477 -3.09956 0
M  V30 1751 C 162.165 -0.872092 -4.4962 0
M  V30 1752 N 163.656 -0.827364 -4.55751 0
M  V30 1753 C 164.391 -1.13683 -5.62018 0
M  V30 1754 N 163.887 -1.51584 -6.76014 0
M  V30 1755 N 165.68 -1.05927 -5.52029 0
M  V30 1756 H 157.831 -1.33652 -1.65079 0
M  V30 1757 H 160.094 -0.546634 -0.774529 0
M  V30 1758 H 159.8 -1.51577 -3.1736 0
M  V30 1759 H 159.674 0.129796 -3.76977 0
M  V30 1760 H 162.061 0.590371 -2.89134 0
M  V30 1761 H 162.142 -1.08164 -2.31806 0
M  V30 1762 H 161.786 -1.89608 -4.71181 0
M  V30 1763 H 161.716 -0.203127 -5.26208 0
M  V30 1764 H 164.207 -0.548216 -3.73902 0
M  V30 1765 H 164.52 -1.73609 -7.53047 0
M  V30 1766 H 162.865 -1.55454 -6.77391 0
M  V30 1767 H 166.056 -0.762321 -4.61851 0
M  V30 1768 H 166.229 -1.30378 -6.34749 0
M  V30 1769 N 159.635 1.57281 -0.100228 0
M  V30 1770 C 160.545 2.17833 0.870965 0
M  V30 1771 C 161.561 1.14921 1.30649 0
M  V30 1772 O 162.737 1.47313 1.37335 0
M  V30 1773 C 159.802 2.75085 2.1102 0
M  V30 1774 C 158.863 3.9297 1.72838 0
M  V30 1775 C 158.096 4.47482 2.90854 0
M  V30 1776 O 158.319 4.00922 4.05731 0
M  V30 1777 O 157.253 5.38433 2.69023 0
M  V30 1778 H 161.079 3.0124 0.38575 0
M  V30 1779 H 158.664 1.48881 0.124397 0
M  V30 1780 H 160.546 3.11656 2.83634 0
M  V30 1781 H 159.221 1.94721 2.58584 0
M  V30 1782 H 158.128 3.61201 0.973883 0
M  V30 1783 H 159.461 4.74713 1.30033 0
M  V30 1784 N 161.113 -0.173488 1.56642 0
M  V30 1785 C 162.359 -0.891784 1.8214 0
M  V30 1786 C 162.692 -1.8199 0.677736 0
M  V30 1787 O 161.967 -1.91842 -0.320446 0
M  V30 1788 C 162.25 -1.68933 3.18015 0
M  V30 1789 C 162.103 -0.784487 4.42906 0
M  V30 1790 C 163.422 -2.65748 3.50808 0
M  V30 1791 H 160.541 -0.322761 0.662567 0
M  V30 1792 H 163.183 -0.158095 1.89341 0
M  V30 1793 H 161.333 -2.31482 3.12007 0
M  V30 1794 H 163.005 -0.172046 4.60979 0
M  V30 1795 H 161.248 -0.0924117 4.33702 0
M  V30 1796 H 161.919 -1.37799 5.34524 0
M  V30 1797 H 164.395 -2.13327 3.57255 0
M  V30 1798 H 163.271 -3.18619 4.4696 0
M  V30 1799 H 163.532 -3.45842 2.75401 0
M  V30 1800 N 162.591 -1.51276 -0.441967 0
M  V30 1801 C 163.819 -1.67516 -1.21434 0
M  V30 1802 C 164.234 -0.37055 -1.85128 0
M  V30 1803 O 163.591 0.650498 -1.70513 0
M  V30 1804 C 163.642 -2.78748 -2.30177 0
M  V30 1805 O 163.363 -4.04154 -1.69089 0
M  V30 1806 C 164.864 -3.06217 -3.20541 0
M  V30 1807 H 162.084 -0.562276 -0.366178 0
M  V30 1808 H 164.628 -1.97666 -0.524244 0
M  V30 1809 H 162.783 -2.5121 -2.94911 0
M  V30 1810 H 163.197 -4.65894 -2.40922 0
M  V30 1811 H 164.671 -3.8764 -3.92987 0
M  V30 1812 H 165.148 -2.18439 -3.81026 0
M  V30 1813 H 165.754 -3.35397 -2.61513 0
M  V30 1814 N 164.069 0.697108 -1.41344 0
M  V30 1815 C 165.001 1.8224 -1.39001 0
M  V30 1816 C 166.014 1.60152 -0.292428 0
M  V30 1817 O 167.203 1.69684 -0.554048 0
M  V30 1818 C 164.303 3.18976 -1.14489 0
M  V30 1819 C 163.476 3.68105 -2.36258 0
M  V30 1820 C 162.535 4.83506 -2.07625 0
M  V30 1821 O 161.561 4.95201 -2.8065 0
M  V30 1822 N 162.763 5.70637 -1.06555 0
M  V30 1823 H 165.528 1.84742 -2.35988 0
M  V30 1824 H 163.089 0.87937 -1.35936 0
M  V30 1825 H 165.081 3.93801 -0.932885 0
M  V30 1826 H 163.651 3.11508 -0.261043 0
M  V30 1827 H 162.871 2.84204 -2.7317 0
M  V30 1828 H 164.159 3.97667 -3.17393 0
M  V30 1829 H 163.557 5.63817 -0.461125 0
M  V30 1830 H 162.114 6.45368 -0.913444 0
M  V30 1831 N 165.547 1.27147 0.931209 0
M  V30 1832 C 166.457 1.11372 2.06478 0
M  V30 1833 C 167.473 0.044645 1.73943 0
M  V30 1834 O 168.649 0.250417 1.99837 0
M  V30 1835 C 165.714 0.758838 3.38294 0
M  V30 1836 C 164.775 1.90841 3.84549 0
M  V30 1837 C 164.008 1.57036 5.10074 0
M  V30 1838 O 164.231 0.476645 5.68405 0
M  V30 1839 O 163.165 2.40839 5.51616 0
M  V30 1840 H 166.991 2.06493 2.22698 0
M  V30 1841 H 164.576 1.06301 1.04978 0
M  V30 1842 H 166.458 0.574098 4.17471 0
M  V30 1843 H 165.133 -0.162879 3.2329 0
M  V30 1844 H 164.04 2.14819 3.06274 0
M  V30 1845 H 165.373 2.81021 4.04089 0
M  V30 1846 N 167.025 -1.13721 1.09112 0
M  V30 1847 C 167.935 -2.22638 0.73957 0
M  V30 1848 C 168.951 -1.72091 -0.257068 0
M  V30 1849 O 170.127 -2.01155 -0.0992154 0
M  V30 1850 C 167.192 -3.46322 0.16191 0
M  V30 1851 C 166.253 -4.11775 1.21408 0
M  V30 1852 C 165.486 -5.29555 0.663891 0
M  V30 1853 O 165.709 -5.68077 -0.514274 0
M  V30 1854 O 164.643 -5.84973 1.41738 0
M  V30 1855 H 168.469 -2.55074 1.64836 0
M  V30 1856 H 166.054 -1.21791 0.865289 0
M  V30 1857 H 167.936 -4.21107 -0.157073 0
M  V30 1858 H 166.611 -3.15593 -0.719932 0
M  V30 1859 H 165.518 -3.3883 1.58571 0
M  V30 1860 H 166.851 -4.46627 2.06845 0
M  V30 1861 N 168.503 -0.877838 -1.30888 0
M  V30 1862 C 169.433 -0.35534 -2.3078 0
M  V30 1863 C 170.414 0.557994 -1.60687 0
M  V30 1864 O 171.599 0.473355 -1.88343 0
M  V30 1865 C 168.729 0.437221 -3.44537 0
M  V30 1866 C 167.683 -0.383715 -4.26276 0
M  V30 1867 C 167.009 0.535014 -5.32017 0
M  V30 1868 C 168.309 -1.62201 -4.96476 0
M  V30 1869 H 170.003 -1.19007 -2.74732 0
M  V30 1870 H 167.549 -0.573698 -1.32078 0
M  V30 1871 H 169.502 0.813334 -4.13477 0
M  V30 1872 H 168.226 1.30553 -2.99372 0
M  V30 1873 H 166.885 -0.741874 -3.59015 0
M  V30 1874 H 166.533 1.40083 -4.831 0
M  V30 1875 H 166.233 -0.0104211 -5.87599 0
M  V30 1876 H 167.757 0.907799 -6.03814 0
M  V30 1877 H 169.171 -1.31689 -5.5797 0
M  V30 1878 H 167.568 -2.10711 -5.61891 0
M  V30 1879 H 168.638 -2.37044 -4.23011 0
M  V30 1880 N 169.982 1.44106 -0.638065 0
M  V30 1881 C 171.259 1.95453 -0.0759321 0
M  V30 1882 C 171.639 1.57984 1.40015 0
M  V30 1883 O 170.987 0.857361 2.11806 0
M  V30 1884 C 171.197 3.47655 -0.306132 0
M  V30 1885 C 172.545 4.24114 -0.203008 0
M  V30 1886 O 173.569 3.55405 -0.237871 0
M  V30 1887 O 172.428 5.46381 -0.113827 0
M  V30 1888 H 169.522 0.826797 0.0183332 0
M  V30 1889 H 172.068 1.54122 -0.710251 0
M  V30 1890 H 170.84 3.68 -1.3301 0
M  V30 1891 H 170.463 3.95949 0.361991 0
M  V30 1892 N 171.46 0.379036 1.52974 0
M  V30 1893 C 172.706 -0.206727 2.01744 0
M  V30 1894 C 173.039 -1.47314 1.26539 0
M  V30 1895 O 172.314 -1.91084 0.362903 0
M  V30 1896 C 172.597 -0.485066 3.56818 0
M  V30 1897 C 172.45 0.795919 4.42702 0
M  V30 1898 C 173.769 -1.28003 4.21074 0
M  V30 1899 H 170.888 -0.0736607 0.73331 0
M  V30 1900 H 173.53 0.506581 1.83122 0
M  V30 1901 H 171.68 -1.09272 3.72816 0
M  V30 1902 H 173.352 1.43307 4.38476 0
M  V30 1903 H 171.595 1.41344 4.10127 0
M  V30 1904 H 172.266 0.555947 5.49193 0
M  V30 1905 H 174.742 -0.765867 4.08991 0
M  V30 1906 H 173.618 -1.44352 5.29579 0
M  V30 1907 H 173.879 -2.29236 3.78026 0
M  V30 1908 N 172.938 -1.57226 0.108567 0
M  V30 1909 C 173.848 -2.18292 -0.859401 0
M  V30 1910 C 174.864 -1.15612 -1.30038 0
M  V30 1911 O 176.04 -1.48039 -1.36552 0
M  V30 1912 C 173.105 -2.762 -2.09558 0
M  V30 1913 C 172.166 -3.93881 -1.70752 0
M  V30 1914 C 171.399 -4.49018 -2.88477 0
M  V30 1915 O 171.622 -4.03068 -4.036 0
M  V30 1916 O 170.556 -5.39852 -2.66164 0
M  V30 1917 H 174.382 -3.01441 -0.369769 0
M  V30 1918 H 171.967 -1.48945 -0.1165 0
M  V30 1919 H 173.849 -3.13156 -2.81978 0
M  V30 1920 H 172.524 -1.96089 -2.57548 0
M  V30 1921 H 171.431 -3.61713 -0.954714 0
M  V30 1922 H 172.764 -4.75396 -1.27513 0
M  V30 1923 N 174.416 0.165178 -1.56732 0
M  V30 1924 C 175.832 0.517174 -1.50988 0
M  V30 1925 C 176.032 1.84331 -0.813894 0
M  V30 1926 O 175.088 2.49672 -0.37682 0
M  V30 1927 C 176.401 0.544261 -2.95733 0
M  V30 1928 C 177.949 0.631039 -3.06573 0
M  V30 1929 C 178.424 0.68896 -4.52788 0
M  V30 1930 N 179.915 0.751683 -4.5706 0
M  V30 1931 C 180.65 0.817177 -5.67547 0
M  V30 1932 N 180.146 0.843129 -6.8765 0
M  V30 1933 N 181.939 0.856668 -5.55534 0
M  V30 1934 H 174.09 -0.704318 -2.00382 0
M  V30 1935 H 176.353 -0.254687 -0.913148 0
M  V30 1936 H 176.059 -0.361607 -3.49836 0
M  V30 1937 H 175.933 1.3886 -3.5071 0
M  V30 1938 H 178.32 1.52733 -2.52501 0
M  V30 1939 H 178.401 -0.240095 -2.54671 0
M  V30 1940 H 178.045 -0.2031 -5.07494 0
M  V30 1941 H 177.975 1.57633 -5.02454 0
M  V30 1942 H 180.466 0.739661 -3.70591 0
M  V30 1943 H 180.779 0.894448 -7.67606 0
M  V30 1944 H 179.124 0.811304 -6.90248 0
M  V30 1945 H 182.315 0.833437 -4.60621 0
M  V30 1946 H 182.488 0.904247 -6.4166 0
M  V30 1947 N 175.894 1.51508 0.433938 0
M  V30 1948 C 176.842 1.73646 1.54757 0
M  V30 1949 C 177.836 0.602854 1.5831 0
M  V30 1950 O 179.042 0.784318 1.62014 0
M  V30 1951 H 175.417 0.548718 0.51421 0
M  V30 1952 H 177.388 2.66991 1.33261 0
M  V30 1953 C 176.137 1.88172 2.92381 0
M  V30 1954 H 175.46 2.74808 2.90381 0
M  V30 1955 H 176.9 2.07672 3.6966 0
M  V30 1956 C 175.359 0.64239 3.30719 0
M  V30 1957 O 175.889 -0.201362 4.01195 0
M  V30 1958 N 174.095 0.485489 2.86516 0
M  V30 1959 H 173.642 1.17318 2.29334 0
M  V30 1960 H 173.6 -0.342482 3.12529 0
M  V30 1961 N 177.372 -0.689602 1.41712 0
M  V30 1962 C 178.302 -1.81577 1.46806 0
M  V30 1963 C 179.283 -1.66945 0.326105 0
M  V30 1964 O 180.468 -1.86588 0.538377 0
M  V30 1965 C 177.598 -3.19762 1.35535 0
M  V30 1966 C 176.552 -3.49107 2.47605 0
M  V30 1967 C 175.878 -4.86711 2.21397 0
M  V30 1968 C 177.178 -3.47483 3.89939 0
M  V30 1969 H 178.872 -1.7757 2.41058 0
M  V30 1970 H 176.418 -0.852887 1.16025 0
M  V30 1971 H 178.371 -3.98263 1.3771 0
M  V30 1972 H 177.095 -3.24409 0.377708 0
M  V30 1973 H 175.754 -2.72959 2.44722 0
M  V30 1974 H 175.402 -4.8799 1.21961 0
M  V30 1975 H 175.102 -5.0731 2.96497 0
M  V30 1976 H 176.626 -5.67515 2.25297 0
M  V30 1977 H 178.04 -4.1598 3.94505 0
M  V30 1978 H 176.437 -3.79615 4.64771 0
M  V30 1979 H 177.507 -2.46341 4.17665 0
M  V30 1980 N 178.85 -1.27639 -0.924453 0
M  V30 1981 C 180.096 -1.14336 -1.67497 0
M  V30 1982 C 180.429 0.309465 -1.91718 0
M  V30 1983 O 179.704 1.22608 -1.50989 0
M  V30 1984 C 179.987 -1.93096 -3.0395 0
M  V30 1985 C 179.84 -3.46381 -2.8695 0
M  V30 1986 C 181.159 -1.73798 -4.0433 0
M  V30 1987 H 178.278 -0.416728 -0.607871 0
M  V30 1988 H 180.92 -1.56832 -1.07256 0
M  V30 1989 H 179.07 -1.56982 -3.55372 0
M  V30 1990 H 180.742 -3.92343 -2.42621 0
M  V30 1991 H 178.985 -3.72557 -2.22225 0
M  V30 1992 H 179.656 -3.96735 -3.83804 0
M  V30 1993 H 182.132 -2.05293 -3.61931 0
M  V30 1994 H 181.008 -2.31294 -4.97789 0
M  V30 1995 H 181.269 -0.686725 -4.36734 0
M  V30 1996 N 180.328 1.1314 -1.09713 0
M  V30 1997 C 181.275 2.18642 -0.739196 0
M  V30 1998 C 182.245 1.63706 0.280978 0
M  V30 1999 O 183.43 1.90111 0.161946 0
M  V30 2000 C 180.57 3.44685 -0.169102 0
M  V30 2001 C 179.683 4.13711 -1.24367 0
M  V30 2002 C 178.818 5.27379 -0.636019 0
M  V30 2003 C 177.857 5.88259 -1.69169 0
M  V30 2004 N 176.994 6.93352 -1.10485 0
M  V30 2005 H 181.834 2.48607 -1.64312 0
M  V30 2006 H 179.371 1.22066 -0.820875 0
M  V30 2007 H 181.329 4.16815 0.179256 0
M  V30 2008 H 179.959 3.15161 0.698079 0
M  V30 2009 H 179.011 3.39835 -1.70927 0
M  V30 2010 H 180.323 4.55037 -2.04311 0
M  V30 2011 H 179.477 6.06238 -0.236677 0
M  V30 2012 H 178.216 4.8731 0.194928 0
M  V30 2013 H 177.221 5.08092 -2.10055 0
M  V30 2014 H 178.446 6.30399 -2.52536 0
M  V30 2015 H 176.392 6.55335 -0.295234 0
M  V30 2016 H 176.309 7.33236 -1.84121 0
M  V30 2017 H 177.577 7.76057 -0.73181 0
M  V30 2018 N 181.806 0.884767 1.30421 0
M  V30 2019 C 182.738 0.308655 2.27112 0
M  V30 2020 C 183.751 -0.536655 1.53701 0
M  V30 2021 O 184.94 -0.35624 1.74909 0
M  V30 2022 C 182.04 -0.579782 3.33904 0
M  V30 2023 C 181.213 0.236417 4.36761 0
M  V30 2024 C 180.272 -0.582482 5.22966 0
M  V30 2025 O 179.298 -0.00525502 5.692 0
M  V30 2026 N 180.5 -1.89163 5.48815 0
M  V30 2027 H 183.265 1.13964 2.77186 0
M  V30 2028 H 180.826 0.747731 1.43599 0
M  V30 2029 H 182.818 -1.13366 3.88497 0
M  V30 2030 H 181.388 -1.31144 2.83761 0
M  V30 2031 H 180.608 0.97174 3.82035 0
M  V30 2032 H 181.896 0.795924 5.02536 0
M  V30 2033 H 181.294 -2.38352 5.13035 0
M  V30 2034 H 179.851 -2.39296 6.06284 0
M  V30 2035 N 183.284 -1.43765 0.645699 0
M  V30 2036 C 184.214 -2.33471 -0.0370477 0
M  V30 2037 C 185.195 -1.49042 -0.819779 0
M  V30 2038 O 186.38 -1.77726 -0.782758 0
M  V30 2039 C 183.51 -3.32311 -1.0093 0
M  V30 2040 C 182.464 -4.2667 -0.337201 0
M  V30 2041 C 181.79 -5.1549 -1.42037 0
M  V30 2042 C 183.09 -5.16657 0.765706 0
M  V30 2043 H 184.784 -2.90809 0.712069 0
M  V30 2044 H 182.33 -1.39834 0.343876 0
M  V30 2045 H 184.283 -3.9396 -1.49578 0
M  V30 2046 H 183.007 -2.73213 -1.78948 0
M  V30 2047 H 181.666 -3.66374 0.128771 0
M  V30 2048 H 181.314 -4.52735 -2.1918 0
M  V30 2049 H 181.014 -5.79438 -0.975966 0
M  V30 2050 H 182.538 -5.80012 -1.90838 0
M  V30 2051 H 183.952 -5.72158 0.361702 0
M  V30 2052 H 182.349 -5.89286 1.13413 0
M  V30 2053 H 183.419 -4.56796 1.62683 0
M  V30 2054 N 184.763 -0.387143 -1.52771 0
M  V30 2055 C 185.991 0.195869 -2.05971 0
M  V30 2056 C 186.406 1.40691 -1.25903 0
M  V30 2057 O 185.763 1.79931 -0.305134 0
M  V30 2058 C 185.814 0.56812 -3.57008 0
M  V30 2059 O 185.535 -0.594803 -4.34043 0
M  V30 2060 C 187.036 1.20723 -4.26545 0
M  V30 2061 H 184.256 0.0300578 -0.670326 0
M  V30 2062 H 186.8 -0.551749 -1.96916 0
M  V30 2063 H 184.955 1.26564 -3.66143 0
M  V30 2064 H 185.369 -0.289322 -5.23701 0
M  V30 2065 H 186.843 1.41807 -5.33474 0
M  V30 2066 H 187.32 2.17395 -3.81623 0
M  V30 2067 H 187.926 0.550535 -4.21722 0
M  V30 2068 N 186.241 1.57166 -0.116904 0
M  V30 2069 C 187.49 1.94298 0.541407 0
M  V30 2070 C 187.803 1.00236 1.67964 0
M  V30 2071 O 189.009 1.26826 2.40057 0
M  V30 2072 C 187.465 3.45306 1.01449 0
M  V30 2073 C 187.073 4.47899 -0.0951738 0
M  V30 2074 C 188.817 3.91361 1.6443 0
M  V30 2075 C 186.724 5.90083 0.394491 0
M  V30 2076 H 185.654 0.725308 0.206019 0
M  V30 2077 H 188.305 1.82446 -0.196419 0
M  V30 2078 H 186.687 3.52385 1.80667 0
M  V30 2079 H 187.861 4.52486 -0.871374 0
M  V30 2080 H 186.176 4.11583 -0.631505 0
M  V30 2081 H 188.773 4.95004 2.02176 0
M  V30 2082 H 189.116 3.3122 2.52189 0
M  V30 2083 H 189.649 3.87073 0.917559 0
M  V30 2084 H 186.388 6.53974 -0.447004 0
M  V30 2085 H 185.908 5.88921 1.13722 0
M  V30 2086 H 187.587 6.41307 0.856399 0
M  V30 2087 N 187.719 -0.156864 1.56817 0
M  V30 2088 C 188.649 -1.19589 2.00551 0
M  V30 2089 C 189.63 -1.4536 0.883426 0
M  V30 2090 O 190.815 -1.56449 1.15054 0
M  V30 2091 C 187.945 -2.53143 2.37773 0
M  V30 2092 C 186.899 -2.41913 3.53075 0
M  V30 2093 C 186.225 -3.80088 3.76081 0
M  V30 2094 C 187.525 -1.91157 4.86062 0
M  V30 2095 H 189.219 -0.832293 2.87599 0
M  V30 2096 H 186.765 -0.398918 1.38364 0
M  V30 2097 H 188.718 -3.26047 2.66967 0
M  V30 2098 H 187.442 -2.91319 1.4765 0
M  V30 2099 H 186.101 -1.71462 3.24031 0
M  V30 2100 H 185.749 -4.15683 2.83225 0
M  V30 2101 H 185.449 -3.73439 4.53671 0
M  V30 2102 H 186.973 -4.54556 4.0769 0
M  V30 2103 H 188.387 -2.53846 5.14038 0
M  V30 2104 H 186.784 -1.95422 5.67389 0
M  V30 2105 H 187.854 -0.866673 4.77092 0
M  V30 2106 N 189.197 -1.51736 -0.425897 0
M  V30 2107 C 190.445 -1.64644 -1.17204 0
M  V30 2108 C 190.766 -0.370486 -1.91448 0
M  V30 2109 O 190.036 0.614088 -1.86026 0
M  V30 2110 H 188.616 -0.606819 -0.435638 0
M  V30 2111 H 191.278 -1.88713 -0.487177 0
M  V30 2112 H 190.374 -2.47958 -1.89534 0
M  V30 2113 N 190.675 0.682077 -1.42076 0
M  V30 2114 C 191.924 1.43786 -1.41451 0
M  V30 2115 C 192.237 1.95574 -0.0317074 0
M  V30 2116 O 193.443 2.71326 0.0971462 0
M  V30 2117 C 191.899 2.60071 -2.48779 0
M  V30 2118 C 191.507 2.15013 -3.93031 0
M  V30 2119 C 193.251 3.37626 -2.57311 0
M  V30 2120 C 191.158 3.28336 -4.91883 0
M  V30 2121 H 190.088 0.540143 -0.526082 0
M  V30 2122 H 192.739 0.739157 -1.67955 0
M  V30 2123 H 191.121 3.32275 -2.15429 0
M  V30 2124 H 192.295 1.5001 -4.35699 0
M  V30 2125 H 190.61 1.50416 -3.88284 0
M  V30 2126 H 193.207 4.22012 -3.28345 0
M  V30 2127 H 193.55 3.83727 -1.61429 0
M  V30 2128 H 194.083 2.72488 -2.89819 0
M  V30 2129 H 190.822 2.87234 -5.89217 0
M  V30 2130 H 190.342 3.92145 -4.53853 0
M  V30 2131 H 192.021 3.93913 -5.13265 0
M  V30 2132 N 192.153 1.28127 0.917671 0
M  V30 2133 C 193.063 1.13556 2.05286 0
M  V30 2134 C 194.079 0.0630914 1.73886 0
M  V30 2135 O 195.255 0.271598 1.9956 0
M  V30 2136 C 192.32 0.794676 3.3747 0
M  V30 2137 C 191.381 1.94909 3.82504 0
M  V30 2138 C 190.614 1.62437 5.0838 0
M  V30 2139 O 190.837 0.536905 5.67867 0
M  V30 2140 O 189.771 2.46677 5.4903 0
M  V30 2141 H 193.597 2.08844 2.20495 0
M  V30 2142 H 191.182 1.07409 1.03845 0
M  V30 2143 H 193.064 0.618344 4.16839 0
M  V30 2144 H 191.739 -0.128581 3.23445 0
M  V30 2145 H 190.646 2.18055 3.03978 0
M  V30 2146 H 191.979 2.85291 4.01086 0
M  V30 2147 N 193.631 -1.12557 1.10312 0
M  V30 2148 C 194.594 -2.16434 0.75424 0
M  V30 2149 C 195.594 -1.59278 -0.220685 0
M  V30 2150 O 196.784 -1.742 0.00230591 0
M  V30 2151 C 193.916 -3.40699 0.116987 0
M  V30 2152 H 195.109 -2.48811 1.67431 0
M  V30 2153 H 192.662 -1.27542 0.903475 0
M  V30 2154 H 193.397 -3.13921 -0.813877 0
M  V30 2155 H 193.182 -3.83459 0.818613 0
M  V30 2156 H 194.672 -4.17451 -0.111387 0
M  V30 2157 N 195.109 -0.891671 -1.2995 0
M  V30 2158 C 196.056 -0.361736 -2.27948 0
M  V30 2159 C 197.026 0.551761 -1.56668 0
M  V30 2160 O 198.211 0.478736 -1.84696 0
M  V30 2161 C 195.351 0.411825 -3.42634 0
M  V30 2162 C 194.464 -0.531651 -4.28716 0
M  V30 2163 C 193.599 0.258167 -5.30572 0
M  V30 2164 C 192.638 -0.680349 -6.08307 0
M  V30 2165 N 191.775 0.0745613 -7.0206 0
M  V30 2166 H 196.615 -1.20254 -2.72659 0
M  V30 2167 H 194.152 -0.604352 -1.34112 0
M  V30 2168 H 196.11 0.876304 -4.07893 0
M  V30 2169 H 194.74 1.21715 -2.98974 0
M  V30 2170 H 193.792 -1.11463 -3.63703 0
M  V30 2171 H 195.104 -1.25038 -4.82874 0
M  V30 2172 H 194.258 0.784204 -6.0161 0
M  V30 2173 H 192.997 1.01008 -4.77126 0
M  V30 2174 H 192.002 -1.21796 -5.3614 0
M  V30 2175 H 193.227 -1.43145 -6.63842 0
M  V30 2176 H 191.173 0.808883 -6.50994 0
M  V30 2177 H 191.09 -0.584409 -7.53738 0
M  V30 2178 H 192.358 0.581123 -7.77331 0
M  V30 2179 N 196.587 1.43421 -0.653314 0
M  V30 2180 C 197.835 2.01414 -0.166415 0
M  V30 2181 C 198.156 1.51803 1.22397 0
M  V30 2182 O 197.426 0.730693 1.81763 0
M  V30 2183 H 196.006 0.744703 -0.0585319 0
M  V30 2184 H 198.668 1.75629 -0.845003 0
M  V30 2185 H 197.764 3.11734 -0.151111 0
M  V30 2186 N 198.065 0.39524 1.52563 0
M  V30 2187 C 199.295 -0.184675 2.05773 0
M  V30 2188 C 199.703 -1.40571 1.26635 0
M  V30 2189 O 199.046 -1.81105 0.30769 0
M  V30 2190 C 199.108 -0.613551 3.54226 0
M  V30 2191 C 198.772 0.49484 4.54313 0
M  V30 2192 C 199.769 1.3541 5.01956 0
M  V30 2193 C 197.454 0.663565 4.97898 0
M  V30 2194 C 199.448 2.36716 5.91814 0
M  V30 2195 C 197.135 1.67996 5.87555 0
M  V30 2196 C 198.133 2.53017 6.34406 0
M  V30 2197 O 197.821 3.52917 7.22291 0
M  V30 2198 H 197.553 -0.030077 0.675331 0
M  V30 2199 H 200.107 0.560708 1.97599 0
M  V30 2200 H 198.337 -1.411 3.60038 0
M  V30 2201 H 200.026 -1.11981 3.90148 0
M  V30 2202 H 200.792 1.23509 4.6901 0
M  V30 2203 H 196.671 0.0114913 4.60999 0
M  V30 2204 H 200.215 3.03113 6.28306 0
M  V30 2205 H 196.112 1.79933 6.19915 0
M  V30 2206 H 196.88 3.48996 7.40367 0
M  V30 2207 N 199.544 -1.57102 0.125237 0
M  V30 2208 C 200.79 -1.96488 -0.525753 0
M  V30 2209 C 201.145 -1.00786 -1.6389 0
M  V30 2210 O 200.438 -0.038979 -1.9156 0
M  V30 2211 C 200.632 -3.40096 -1.09862 0
M  V30 2212 C 200.461 -4.4968 -0.0425004 0
M  V30 2213 C 199.231 -5.03781 0.391463 0
M  V30 2214 C 201.429 -5.08936 0.740829 0
M  V30 2215 N 199.411 -5.96948 1.4327 0
M  V30 2216 C 200.782 -5.98105 1.6331 0
M  V30 2217 C 202.837 -4.91576 0.791029 0
M  V30 2218 C 201.54 -6.71774 2.57122 0
M  V30 2219 C 203.566 -5.6593 1.71688 0
M  V30 2220 C 202.928 -6.5479 2.59672 0
M  V30 2221 H 199.027 -0.765072 -0.161831 0
M  V30 2222 H 201.611 -1.93511 0.214801 0
M  V30 2223 H 199.782 -3.43707 -1.80887 0
M  V30 2224 H 201.514 -3.66591 -1.71444 0
M  V30 2225 H 198.269 -4.736 -0.00213584 0
M  V30 2226 H 198.693 -6.48236 1.95243 0
M  V30 2227 H 203.335 -4.22615 0.124915 0
M  V30 2228 H 201.053 -7.39977 3.24744 0
M  V30 2229 H 204.639 -5.54501 1.76125 0
M  V30 2230 H 203.519 -7.11316 3.30149 0
M  V30 2231 N 201.022 0.148545 -1.56898 0
M  V30 2232 C 202.27 0.859717 -1.82902 0
M  V30 2233 C 202.591 1.81775 -0.70588 0
M  V30 2234 O 201.861 1.93994 0.272586 0
M  V30 2235 H 200.441 0.320469 -0.674766 0
M  V30 2236 H 203.103 0.142918 -1.94375 0
M  V30 2237 H 202.199 1.4229 -2.77777 0
M  V30 2238 N 202.5 1.5196 0.417844 0
M  V30 2239 C 203.725 1.69717 1.1921 0
M  V30 2240 C 204.15 0.402148 1.83751 0
M  V30 2241 O 203.508 -0.639593 1.69643 0
M  V30 2242 C 203.556 2.82794 2.2374 0
M  V30 2243 O 202.66 2.47756 3.29683 0
M  V30 2244 H 202.001 0.565263 0.348387 0
M  V30 2245 H 204.531 1.98621 0.490985 0
M  V30 2246 H 204.541 3.07452 2.68212 0
M  V30 2247 H 203.216 3.76756 1.76146 0
M  V30 2248 H 201.793 2.33739 2.90552 0
M  V30 2249 N 203.978 -0.674533 1.42435 0
M  V30 2250 C 205.206 -1.46283 1.46317 0
M  V30 2251 C 205.621 -1.88653 0.0745836 0
M  V30 2252 O 204.978 -1.58151 -0.91074 0
M  V30 2253 C 205.029 -2.71178 2.3905 0
M  V30 2254 O 204.75 -2.30586 3.72507 0
M  V30 2255 C 206.251 -3.64738 2.51955 0
M  V30 2256 H 203.471 -0.450104 0.497642 0
M  V30 2257 H 206.015 -0.828792 1.86953 0
M  V30 2258 H 204.17 -3.3077 2.01667 0
M  V30 2259 H 204.584 -3.11241 4.22172 0
M  V30 2260 H 206.058 -4.49096 3.20962 0
M  V30 2261 H 206.535 -4.10656 1.55752 0
M  V30 2262 H 207.141 -3.11038 2.90061 0
M  V30 2263 N 205.456 -1.28612 -0.910864 0
M  V30 2264 C 206.386 -1.15326 -2.03032 0
M  V30 2265 C 207.367 -0.0502924 -1.70026 0
M  V30 2266 O 208.552 -0.227797 -1.92859 0
M  V30 2267 C 205.682 -0.817343 -3.37545 0
M  V30 2268 C 204.636 -1.8754 -3.84724 0
M  V30 2269 C 203.962 -1.39305 -5.16235 0
M  V30 2270 C 205.262 -3.28244 -4.06267 0
M  V30 2271 H 206.956 -2.08975 -2.14406 0
M  V30 2272 H 204.502 -1.00612 -1.03021 0
M  V30 2273 H 206.455 -0.711151 -4.15356 0
M  V30 2274 H 205.179 0.154846 -3.26233 0
M  V30 2275 H 203.838 -1.97079 -3.09121 0
M  V30 2276 H 203.486 -0.409846 -5.01328 0
M  V30 2277 H 203.186 -2.10057 -5.48771 0
M  V30 2278 H 204.71 -1.30014 -5.96598 0
M  V30 2279 H 206.124 -3.21611 -4.74594 0
M  V30 2280 H 204.521 -3.96855 -4.5014 0
M  V30 2281 H 205.591 -3.72048 -3.10979 0
M  V30 2282 N 206.934 1.1197 -1.10907 0
M  V30 2283 C 208.174 1.85224 -0.864378 0
M  V30 2284 C 208.538 1.82411 0.599178 0
M  V30 2285 O 209.739 2.51057 0.960416 0
M  V30 2286 C 208.01 3.2868 -1.40371 0
M  V30 2287 S 209.569 4.1925 -1.29518 0
M  V30 2288 H 206.387 0.63878 -0.312219 0
M  V30 2289 H 208.989 1.3485 -1.41548 0
M  V30 2290 H 207.693 3.28289 -2.46281 0
M  V30 2291 H 207.224 3.84121 -0.849402 0
M  V30 2292 H 209.239 4.95539 -0.256059 0
M  V30 2293 N 208.412 0.89855 1.29475 0
M  V30 2294 C 209.362 0.346767 2.25348 0
M  V30 2295 C 210.346 -0.532509 1.51833 0
M  V30 2296 O 211.538 -0.374714 1.72988 0
M  V30 2297 C 208.667 -0.425681 3.40651 0
M  V30 2298 C 207.753 0.46845 4.21505 0
M  V30 2299 N 208.144 1.57514 4.80648 0
M  V30 2300 C 206.442 0.26603 4.45206 0
M  V30 2301 C 207.143 2.12889 5.41344 0
M  V30 2302 N 206.119 1.42208 5.24669 0
M  V30 2303 H 209.921 1.19219 2.68634 0
M  V30 2304 H 207.435 0.749473 1.44072 0
M  V30 2305 H 209.432 -0.837716 4.08397 0
M  V30 2306 H 208.092 -1.26838 2.98902 0
M  V30 2307 H 209.103 1.95789 4.79465 0
M  V30 2308 H 205.78 -0.538394 4.14014 0
M  V30 2309 H 207.17 3.05901 5.98226 0
M  V30 2310 N 209.89 -1.43072 0.660911 0
M  V30 2311 C 211.301 -1.84932 0.256348 0
M  V30 2312 C 211.652 -1.55325 -1.19868 0
M  V30 2313 O 210.777 -1.00607 -1.91591 0
M  V30 2314 C 211.372 -3.35684 0.458475 0
M  V30 2315 C 209.931 -3.76245 0.108161 0
M  V30 2316 C 209.078 -2.66749 0.757641 0
M  V30 2317 H 212.029 -1.33116 0.864051 0
M  V30 2318 H 212.05 -3.79365 -0.293683 0
M  V30 2319 H 211.562 -3.572 1.51755 0
M  V30 2320 H 209.663 -3.60338 -0.948014 0
M  V30 2321 H 209.776 -4.76058 0.538992 0
M  V30 2322 H 208.14 -2.53989 0.190185 0
M  V30 2323 H 208.923 -2.91092 1.81989 0
M  V30 2324 N 211.368 -0.403325 -1.52352 0
M  V30 2325 C 212.278 0.432009 -2.30588 0
M  V30 2326 C 213.294 1.05884 -1.38075 0
M  V30 2327 O 214.47 1.06161 -1.71148 0
M  V30 2328 C 211.535 1.53669 -3.10784 0
M  V30 2329 C 210.596 0.933525 -4.19027 0
M  V30 2330 C 209.829 1.98557 -4.9539 0
M  V30 2331 O 210.052 3.20283 -4.71991 0
M  V30 2332 O 208.986 1.59504 -5.80381 0
M  V30 2333 H 212.812 -0.205739 -3.03002 0
M  V30 2334 H 210.397 -0.166675 -1.48467 0
M  V30 2335 H 212.279 2.17814 -3.60742 0
M  V30 2336 H 210.954 2.15915 -2.41169 0
M  V30 2337 H 209.861 0.254954 -3.7323 0
M  V30 2338 H 211.194 0.35508 -4.90918 0
M  V30 2339 N 212.846 1.57033 -0.133567 0
M  V30 2340 C 214.123 1.87256 0.56522 0
M  V30 2341 C 214.503 1.03726 1.83859 0
M  V30 2342 O 213.851 0.120247 2.28183 0
M  V30 2343 C 214.061 3.3865 0.843636 0
M  V30 2344 C 215.409 4.07574 1.19032 0
M  V30 2345 O 216.433 3.43752 0.933429 0
M  V30 2346 O 215.292 5.20259 1.67312 0
M  V30 2347 H 212.386 0.775678 0.286796 0
M  V30 2348 H 214.932 1.68855 -0.169168 0
M  V30 2349 H 213.704 3.91257 -0.0581149 0
M  V30 2350 H 213.327 3.62532 1.63268 0
M  V30 2351 N 214.325 -0.140222 1.56975 0
M  V30 2352 C 215.255 -1.17456 2.01808 0
M  V30 2353 C 216.236 -1.44415 0.898794 0
M  V30 2354 O 217.421 -1.5522 1.16707 0
M  V30 2355 C 214.551 -2.50607 2.40444 0
M  V30 2356 C 213.505 -2.38155 3.55621 0
M  V30 2357 C 212.831 -3.76078 3.80091 0
M  V30 2358 C 214.131 -1.85991 4.88062 0
M  V30 2359 H 215.825 -0.801743 2.88466 0
M  V30 2360 H 213.371 -0.38422 1.38779 0
M  V30 2361 H 215.324 -3.23197 2.7041 0
M  V30 2362 H 214.048 -2.89737 1.50732 0
M  V30 2363 H 212.707 -1.68016 3.25832 0
M  V30 2364 H 212.355 -4.12656 2.87618 0
M  V30 2365 H 212.055 -3.68606 4.57606 0
M  V30 2366 H 213.579 -4.50206 4.12488 0
M  V30 2367 H 214.993 -2.4838 5.16701 0
M  V30 2368 H 213.39 -1.89393 5.6943 0
M  V30 2369 H 214.46 -0.816023 4.77984 0
M  V30 2370 N 215.803 -1.52179 -0.40978 0
M  V30 2371 C 217.214 -1.58377 -0.988615 0
M  V30 2372 C 217.565 -0.423879 -1.91566 0
M  V30 2373 O 216.69 0.455844 -2.11544 0
M  V30 2374 C 217.285 -2.87044 -1.79976 0
M  V30 2375 C 215.844 -2.95722 -2.32863 0
M  V30 2376 C 214.991 -2.53309 -1.12828 0
M  V30 2377 H 217.942 -1.57558 -0.190039 0
M  V30 2378 H 217.963 -2.7236 -2.65707 0
M  V30 2379 H 217.475 -3.71444 -1.12478 0
M  V30 2380 H 215.576 -2.15814 -3.03735 0
M  V30 2381 H 215.689 -3.99951 -2.63773 0
M  V30 2382 H 214.053 -2.07142 -1.48204 0
M  V30 2383 H 214.836 -3.40082 -0.46897 0
M  V30 2384 N 217.281 0.66697 -1.42791 0
M  V30 2385 C 218.528 1.42699 -1.43678 0
M  V30 2386 C 218.856 1.94419 -0.0560425 0
M  V30 2387 O 218.111 1.7182 0.936831 0
M  V30 2388 C 218.41 2.6349 -2.4147 0
M  V30 2389 C 218.076 2.30267 -3.8767 0
M  V30 2390 C 216.738 2.20918 -4.27491 0
M  V30 2391 C 219.09 2.03435 -4.79858 0
M  V30 2392 C 216.418 1.82873 -5.57471 0
M  V30 2393 C 218.77 1.66892 -6.10188 0
M  V30 2394 C 217.434 1.56058 -6.49001 0
M  V30 2395 H 216.704 0.522171 -0.525755 0
M  V30 2396 H 219.351 0.759785 -1.75783 0
M  V30 2397 H 217.656 3.35279 -2.0272 0
M  V30 2398 H 219.353 3.21684 -2.39417 0
M  V30 2399 H 215.943 2.38449 -3.56146 0
M  V30 2400 H 220.127 2.09586 -4.49875 0
M  V30 2401 H 215.383 1.7306 -5.86396 0
M  V30 2402 H 219.557 1.45157 -6.81104 0
M  V30 2403 H 217.184 1.26348 -7.49627 0
M  V30 2404 N 218.759 1.29093 0.90403 0
M  V30 2405 C 219.984 1.19809 1.69294 0
M  V30 2406 C 220.409 -0.238481 1.86582 0
M  V30 2407 O 219.767 -1.1723 1.383 0
M  V30 2408 C 219.815 1.91202 3.05736 0
M  V30 2409 O 218.919 1.22611 3.93752 0
M  V30 2410 H 218.26 0.415385 0.518027 0
M  V30 2411 H 220.79 1.70586 1.12967 0
M  V30 2412 H 220.8 1.99487 3.55906 0
M  V30 2413 H 219.475 2.95692 2.92471 0
M  V30 2414 H 218.052 1.22554 3.52186 0
M  V30 2415 N 220.237 -1.11381 1.11499 0
M  V30 2416 C 221.486 -1.82494 0.858993 0
M  V30 2417 C 221.799 -1.85605 -0.617278 0
M  V30 2418 O 223.005 -2.52824 -0.989552 0
M  V30 2419 C 221.461 -3.27745 1.48699 0
M  V30 2420 C 221.069 -3.32961 2.99735 0
M  V30 2421 C 222.813 -4.03754 1.31085 0
M  V30 2422 C 220.72 -4.72612 3.55516 0
M  V30 2423 H 219.65 -0.683802 0.317696 0
M  V30 2424 H 222.301 -1.25331 1.34031 0
M  V30 2425 H 220.683 -3.84844 0.933339 0
M  V30 2426 H 221.857 -2.85741 3.61509 0
M  V30 2427 H 220.172 -2.70433 3.16631 0
M  V30 2428 H 222.769 -5.06891 1.70192 0
M  V30 2429 H 223.112 -4.15527 0.253496 0
M  V30 2430 H 223.645 -3.53043 1.83318 0
M  V30 2431 H 220.384 -4.66036 4.60967 0
M  V30 2432 H 219.904 -5.2024 2.98513 0
M  V30 2433 H 221.583 -5.4157 3.53992 0
M  V30 2434 N 221.715 -0.905404 -1.28997 0
M  V30 2435 C 222.647 -0.344748 -2.26592 0
M  V30 2436 C 223.66 0.512135 -1.54535 0
M  V30 2437 O 224.849 0.328368 -1.75454 0
M  V30 2438 C 221.949 0.526587 -3.34784 0
M  V30 2439 C 221.122 -0.305871 -4.36329 0
M  V30 2440 C 220.181 0.499209 -5.23827 0
M  V30 2441 O 219.207 -0.0853004 -5.69136 0
M  V30 2442 N 220.409 1.80408 -5.51755 0
M  V30 2443 H 223.174 -1.18359 -2.75338 0
M  V30 2444 H 220.735 -0.770481 -1.42391 0
M  V30 2445 H 222.727 1.07171 -3.90252 0
M  V30 2446 H 221.297 1.26613 -2.85811 0
M  V30 2447 H 220.517 -1.0324 -3.80441 0
M  V30 2448 H 221.805 -0.875773 -5.01206 0
M  V30 2449 H 221.203 2.3016 -5.16762 0
M  V30 2450 H 219.76 2.29621 -6.10014 0
M  V30 2451 N 223.193 1.4272 -0.668489 0
M  V30 2452 C 224.47 1.95248 -0.117373 0
M  V30 2453 C 224.85 1.60919 1.36632 0
M  V30 2454 O 224.198 0.902095 2.09939 0
M  V30 2455 C 224.408 3.46927 -0.379806 0
M  V30 2456 C 225.756 4.23588 -0.292923 0
M  V30 2457 O 226.78 3.5482 -0.313204 0
M  V30 2458 O 225.639 5.46017 -0.229697 0
M  V30 2459 H 222.733 0.827 0.00079152 0
M  V30 2460 H 225.279 1.52581 -0.742783 0
M  V30 2461 H 224.051 3.65096 -1.40786 0
M  V30 2462 H 223.674 3.96627 0.277923 0
M  V30 2463 N 224.671 0.411399 1.52136 0
M  V30 2464 C 225.601 -0.404015 2.29978 0
M  V30 2465 C 226.582 -1.04412 1.34284 0
M  V30 2466 O 227.767 -1.0527 1.63192 0
M  V30 2467 C 224.897 -1.5197 3.12286 0
M  V30 2468 C 223.851 -1.00448 4.16046 0
M  V30 2469 C 223.177 -2.21393 4.86712 0
M  V30 2470 C 224.477 -0.0569336 5.22269 0
M  V30 2471 H 226.171 0.245529 2.98392 0
M  V30 2472 H 223.717 0.119525 1.43503 0
M  V30 2473 H 225.67 -2.09715 3.6551 0
M  V30 2474 H 224.394 -2.19716 2.41646 0
M  V30 2475 H 223.053 -0.449421 3.63835 0
M  V30 2476 H 222.701 -2.87699 4.12599 0
M  V30 2477 H 222.401 -1.87571 5.56858 0
M  V30 2478 H 223.925 -2.7974 5.4275 0
M  V30 2479 H 225.339 -0.54325 5.7072 0
M  V30 2480 H 223.736 0.192594 5.99791 0
M  V30 2481 H 224.806 0.887663 4.76706 0
M  V30 2482 N 226.149 -1.5696 0.141893 0
M  V30 2483 C 227.56 -1.82797 -0.379776 0
M  V30 2484 C 227.911 -1.06033 -1.6508 0
M  V30 2485 O 227.036 -0.304011 -2.14254 0
M  V30 2486 C 227.631 -3.31578 -0.695802 0
M  V30 2487 C 226.19 -3.58014 -1.16201 0
M  V30 2488 C 225.337 -2.76699 -0.182455 0
M  V30 2489 H 228.288 -1.54406 0.366675 0
M  V30 2490 H 228.309 -3.47454 -1.55099 0
M  V30 2491 H 227.821 -3.87421 0.229449 0
M  V30 2492 H 225.922 -3.07553 -2.10338 0
M  V30 2493 H 226.035 -4.66501 -1.09151 0
M  V30 2494 H 224.399 -2.45618 -0.674072 0
M  V30 2495 H 225.182 -3.35311 0.736297 0
M  V30 2496 N 227.627 0.131896 -1.57047 0
M  V30 2497 C 228.904 0.871495 -1.75112 0
M  V30 2498 C 229.284 1.9866 -0.713949 0
M  V30 2499 O 228.632 2.26965 0.264447 0
M  V30 2500 C 228.842 1.40007 -3.19686 0
M  V30 2501 C 230.19 1.85752 -3.81813 0
M  V30 2502 O 231.214 1.49715 -3.23209 0
M  V30 2503 O 230.073 2.5226 -4.84796 0
M  V30 2504 H 227.167 0.412919 -0.716538 0
M  V30 2505 H 229.713 0.116641 -1.69299 0
M  V30 2506 H 228.485 0.599404 -3.86682 0
M  V30 2507 H 228.108 2.218 -3.29986 0
M  V30 2508 N 229.106 1.52395 0.401703 0
M  V30 2509 C 230.036 1.79231 1.49661 0
M  V30 2510 C 231.017 0.643654 1.57452 0
M  V30 2511 O 232.202 0.889989 1.72606 0
M  V30 2512 C 229.332 1.94971 2.87409 0
M  V30 2513 C 228.286 3.10604 2.94465 0
M  V30 2514 C 227.612 3.11577 4.34538 0
M  V30 2515 C 228.912 4.49921 2.6527 0
M  V30 2516 H 230.606 2.70917 1.27454 0
M  V30 2517 H 228.152 1.30362 0.6117 0
M  V30 2518 H 230.105 2.12328 3.63999 0
M  V30 2519 H 228.829 0.999632 3.10926 0
M  V30 2520 H 227.488 2.93009 2.20321 0
M  V30 2521 H 227.136 2.14277 4.55076 0
M  V30 2522 H 226.836 3.89247 4.40183 0
M  V30 2523 H 228.36 3.31073 5.13053 0
M  V30 2524 H 229.774 4.67683 3.31581 0
M  V30 2525 H 228.171 5.29564 2.82281 0
M  V30 2526 H 229.241 4.57507 1.60671 0
M  V30 2527 N 230.584 -0.659388 1.43143 0
M  V30 2528 C 231.831 -1.41935 1.44433 0
M  V30 2529 C 232.159 -1.94387 0.0663522 0
M  V30 2530 O 231.414 -1.72314 -0.927706 0
M  V30 2531 C 231.713 -2.62206 2.42864 0
M  V30 2532 C 231.379 -2.28208 3.88886 0
M  V30 2533 C 230.041 -2.18647 4.28657 0
M  V30 2534 C 232.393 -2.00887 4.8093 0
M  V30 2535 C 229.721 -1.79914 5.58433 0
M  V30 2536 C 232.073 -1.63653 6.11065 0
M  V30 2537 C 230.737 -1.52614 6.49819 0
M  V30 2538 H 230.007 -0.519376 0.528517 0
M  V30 2539 H 232.654 -0.750453 1.76183 0
M  V30 2540 H 230.959 -3.34199 2.04495 0
M  V30 2541 H 232.656 -3.2041 2.41119 0
M  V30 2542 H 229.246 -2.36557 3.57406 0
M  V30 2543 H 233.43 -2.07198 4.5098 0
M  V30 2544 H 228.686 -1.69948 5.87305 0
M  V30 2545 H 232.86 -1.41543 6.81864 0
M  V30 2546 H 230.487 -1.22371 7.50286 0
M  V30 2547 N 232.062 -1.29571 -0.897171 0
M  V30 2548 C 233.29 -1.20583 -1.68129 0
M  V30 2549 C 233.705 0.233181 -1.87354 0
M  V30 2550 O 233.062 1.15579 -1.41236 0
M  V30 2551 C 233.113 -1.91772 -3.06441 0
M  V30 2552 O 232.834 -3.30053 -2.88091 0
M  V30 2553 C 234.335 -1.89291 -4.00854 0
M  V30 2554 H 231.555 -0.417826 -0.525036 0
M  V30 2555 H 234.099 -1.70987 -1.12177 0
M  V30 2556 H 232.254 -1.45196 -3.59161 0
M  V30 2557 H 232.668 -3.65942 -3.75748 0
M  V30 2558 H 234.142 -2.43662 -4.95311 0
M  V30 2559 H 234.619 -0.869014 -4.30517 0
M  V30 2560 H 235.225 -2.35622 -3.54066 0
M  V30 2561 N 233.54 1.10788 -1.12088 0
M  V30 2562 C 234.487 2.17025 -0.785407 0
M  V30 2563 C 235.457 1.64265 0.246191 0
M  V30 2564 O 236.642 1.90412 0.121584 0
M  V30 2565 C 233.782 3.44249 -0.242177 0
M  V30 2566 C 232.895 4.1098 -1.33115 0
M  V30 2567 C 232.03 5.25911 -0.747741 0
M  V30 2568 C 231.069 5.84538 -1.81609 0
M  V30 2569 N 230.206 6.90853 -1.25167 0
M  V30 2570 H 235.046 2.45066 -1.69548 0
M  V30 2571 H 232.583 1.20297 -0.846582 0
M  V30 2572 H 234.541 4.17101 0.0908026 0
M  V30 2573 H 233.171 3.16571 0.631072 0
M  V30 2574 H 232.223 3.36133 -1.78097 0
M  V30 2575 H 233.535 4.50601 -2.13917 0
M  V30 2576 H 232.689 6.056 -0.365216 0
M  V30 2577 H 231.428 4.87614 0.0915188 0
M  V30 2578 H 230.433 5.03522 -2.20785 0
M  V30 2579 H 231.658 6.249 -2.6585 0
M  V30 2580 H 229.604 6.54562 -0.434174 0
M  V30 2581 H 229.521 7.29166 -1.99633 0
M  V30 2582 H 230.789 7.7433 -0.896259 0
M  V30 2583 N 235.018 0.912232 1.28515 0
M  V30 2584 C 236.265 0.544599 1.95039 0
M  V30 2585 C 236.593 -0.911435 1.71823 0
M  V30 2586 O 235.848 -1.66317 1.03137 0
M  V30 2587 C 236.147 0.798392 3.48368 0
M  V30 2588 C 235.813 2.23374 3.91682 0
M  V30 2589 C 234.475 2.62617 4.03219 0
M  V30 2590 C 236.827 3.16786 4.13879 0
M  V30 2591 C 234.155 3.94429 4.3433 0
M  V30 2592 C 236.507 4.48161 4.46469 0
M  V30 2593 C 235.171 4.8726 4.56217 0
M  V30 2594 H 234.441 0.199283 0.7137 0
M  V30 2595 H 237.088 1.15327 1.52879 0
M  V30 2596 H 235.393 0.106908 3.91654 0
M  V30 2597 H 237.09 0.493141 3.97956 0
M  V30 2598 H 233.68 1.91922 3.83228 0
M  V30 2599 H 237.864 2.87677 4.0442 0
M  V30 2600 H 233.12 4.24426 4.40082 0
M  V30 2601 H 237.294 5.20559 4.62592 0
M  V30 2602 H 234.921 5.89431 4.80078 0
M  V30 2603 N 236.496 -1.42363 0.676048 0
M  V30 2604 C 237.912 -1.55811 0.345718 0
M  V30 2605 C 238.112 -1.65544 -1.14879 0
M  V30 2606 O 237.168 -1.62306 -1.93424 0
M  V30 2607 C 238.481 -2.80746 1.07713 0
M  V30 2608 C 240.029 -2.9452 1.05958 0
M  V30 2609 C 240.504 -4.22318 1.77233 0
M  V30 2610 N 241.995 -4.29233 1.74108 0
M  V30 2611 C 242.73 -5.26935 2.26113 0
M  V30 2612 N 242.226 -6.30783 2.86505 0
M  V30 2613 N 244.019 -5.18741 2.1648 0
M  V30 2614 H 236.17 -1.34289 1.6456 0
M  V30 2615 H 238.433 -0.646506 0.69335 0
M  V30 2616 H 238.139 -2.79696 2.13221 0
M  V30 2617 H 238.013 -3.71676 0.64316 0
M  V30 2618 H 240.4 -2.95097 0.0128255 0
M  V30 2619 H 240.481 -2.04817 1.53244 0
M  V30 2620 H 240.125 -4.22502 2.81877 0
M  V30 2621 H 240.055 -5.10958 1.27396 0
M  V30 2622 H 242.546 -3.54814 1.30059 0
M  V30 2623 H 242.859 -7.01691 3.23805 0
M  V30 2624 H 241.204 -6.31341 2.90575 0
M  V30 2625 H 244.395 -4.36533 1.68987 0
M  V30 2626 H 244.568 -5.94721 2.57316 0
M  V30 2627 N 237.974 -0.419461 -1.51915 0
M  V30 2628 C 238.921 0.400927 -2.27291 0
M  V30 2629 C 239.891 1.03224 -1.30131 0
M  V30 2630 O 241.076 1.05455 -1.59009 0
M  V30 2631 C 238.216 1.50603 -3.10504 0
M  V30 2632 C 237.329 0.89462 -4.22635 0
M  V30 2633 C 236.464 1.97328 -4.93189 0
M  V30 2634 C 235.503 1.33935 -5.97267 0
M  V30 2635 N 234.64 2.3586 -6.61298 0
M  V30 2636 H 239.48 -0.248251 -2.96964 0
M  V30 2637 H 237.017 -0.134266 -1.46486 0
M  V30 2638 H 238.975 2.15783 -3.57062 0
M  V30 2639 H 237.605 2.12509 -2.42981 0
M  V30 2640 H 236.657 0.131583 -3.80172 0
M  V30 2641 H 237.969 0.391641 -4.9726 0
M  V30 2642 H 237.123 2.70211 -5.43204 0
M  V30 2643 H 235.862 2.50994 -4.18155 0
M  V30 2644 H 234.867 0.595896 -5.46561 0
M  V30 2645 H 236.092 0.810252 -6.74249 0
M  V30 2646 H 234.038 2.88639 -5.89087 0
M  V30 2647 H 233.955 1.90403 -7.3163 0
M  V30 2648 H 235.223 3.08282 -7.15949 0
M  V30 2649 N 239.452 1.56882 -0.150215 0
M  V30 2650 C 240.729 1.87844 0.545327 0
M  V30 2651 C 241.109 1.0567 1.82749 0
M  V30 2652 O 240.457 0.144442 2.28043 0
M  V30 2653 C 240.667 3.39526 0.80767 0
M  V30 2654 C 242.015 4.08814 1.14703 0
M  V30 2655 O 243.039 3.44723 0.896917 0
M  V30 2656 O 241.898 5.22004 1.61784 0
M  V30 2657 H 238.992 0.778677 0.278553 0
M  V30 2658 H 241.538 1.68666 -0.187068 0
M  V30 2659 H 240.31 3.91173 -0.0996096 0
M  V30 2660 H 239.933 3.64243 1.59413 0
M  V30 2661 N 240.93 -0.123565 1.57115 0
M  V30 2662 C 242.179 -0.830704 1.83799 0
M  V30 2663 C 242.492 -1.81259 0.735158 0
M  V30 2664 O 243.698 -2.56558 0.888278 0
M  V30 2665 C 242.154 -1.52802 3.25852 0
M  V30 2666 C 241.762 -0.587356 4.44133 0
M  V30 2667 C 243.506 -2.22056 3.61789 0
M  V30 2668 C 241.413 -1.28764 5.77212 0
M  V30 2669 H 240.343 -0.313967 0.685522 0
M  V30 2670 H 242.994 -0.0834359 1.8331 0
M  V30 2671 H 241.376 -2.32175 3.20797 0
M  V30 2672 H 242.55 0.172829 4.60476 0
M  V30 2673 H 240.865 -0.00201892 4.164 0
M  V30 2674 H 243.462 -2.75131 4.58483 0
M  V30 2675 H 243.805 -2.99644 2.88997 0
M  V30 2676 H 244.338 -1.49576 3.68608 0
M  V30 2677 H 241.077 -0.55314 6.53162 0
M  V30 2678 H 240.597 -2.01995 5.64764 0
M  V30 2679 H 242.276 -1.8221 6.20813 0
M  V30 2680 N 242.408 -1.52605 -0.393616 0
M  V30 2681 C 243.318 -1.79971 -1.50492 0
M  V30 2682 C 244.334 -0.686181 -1.59899 0
M  V30 2683 O 245.51 -0.973274 -1.76322 0
M  V30 2684 C 242.575 -1.95867 -2.86072 0
M  V30 2685 C 241.636 -3.19781 -2.86424 0
M  V30 2686 C 240.869 -3.34909 -4.15538 0
M  V30 2687 O 241.092 -2.54948 -5.10253 0
M  V30 2688 O 240.026 -4.28141 -4.23059 0
M  V30 2689 H 243.852 -2.74328 -1.30299 0
M  V30 2690 H 241.437 -1.3764 -0.581005 0
M  V30 2691 H 243.319 -2.08056 -3.66457 0
M  V30 2692 H 241.994 -1.04699 -3.063 0
M  V30 2693 H 240.901 -3.13038 -2.04837 0
M  V30 2694 H 242.234 -4.1078 -2.71147 0
M  V30 2695 N 243.887 0.651787 -1.4349 0
M  V30 2696 C 244.834 1.76462 -1.4876 0
M  V30 2697 C 245.804 1.62641 -0.337189 0
M  V30 2698 O 246.989 1.82864 -0.544544 0
M  V30 2699 C 244.129 3.14623 -1.41796 0
M  V30 2700 C 243.242 3.39568 -2.67053 0
M  V30 2701 C 242.377 4.67585 -2.52068 0
M  V30 2702 C 241.416 4.85639 -3.72587 0
M  V30 2703 N 240.553 6.04915 -3.56402 0
M  V30 2704 H 245.393 1.71293 -2.43849 0
M  V30 2705 H 242.93 0.835889 -1.21043 0
M  V30 2706 H 244.888 3.94496 -1.35753 0
M  V30 2707 H 243.518 3.18859 -0.50288 0
M  V30 2708 H 242.57 2.53783 -2.8337 0
M  V30 2709 H 243.882 3.48795 -3.56572 0
M  V30 2710 H 243.036 5.55586 -2.4374 0
M  V30 2711 H 241.775 4.60681 -1.60075 0
M  V30 2712 H 240.78 3.96073 -3.81321 0
M  V30 2713 H 242.005 4.94372 -4.65589 0
M  V30 2714 H 239.951 5.9914 -2.67146 0
M  V30 2715 H 239.868 6.15106 -4.39524 0
M  V30 2716 H 241.136 6.95533 -3.51929 0
M  V30 2717 N 245.365 1.30045 0.890287 0
M  V30 2718 C 246.312 1.15976 1.99545 0
M  V30 2719 C 247.282 0.0506202 1.66023 0
M  V30 2720 O 248.467 0.219847 1.89529 0
M  V30 2721 C 245.607 0.852054 3.34416 0
M  V30 2722 C 244.72 2.04255 3.80662 0
M  V30 2723 C 243.855 1.6734 5.04154 0
M  V30 2724 C 242.894 2.82916 5.42794 0
M  V30 2725 N 242.031 2.46333 6.57468 0
M  V30 2726 H 246.871 2.10524 2.10911 0
M  V30 2727 H 244.408 1.04749 1.03276 0
M  V30 2728 H 246.366 0.654296 4.12037 0
M  V30 2729 H 244.996 -0.0565502 3.2275 0
M  V30 2730 H 244.048 2.35172 2.98995 0
M  V30 2731 H 245.36 2.90826 4.05242 0
M  V30 2732 H 244.514 1.43908 5.89386 0
M  V30 2733 H 243.253 0.779308 4.81433 0
M  V30 2734 H 242.258 3.0702 4.56091 0
M  V30 2735 H 243.483 3.73004 5.6749 0
M  V30 2736 H 241.429 1.59423 6.36334 0
M  V30 2737 H 241.346 3.26436 6.81891 0
M  V30 2738 H 242.614 2.26244 7.45945 0
M  V30 2739 N 246.843 -1.10192 1.12674 0
M  V30 2740 C 247.79 -2.16606 0.796906 0
M  V30 2741 C 248.76 -1.64394 -0.237476 0
M  V30 2742 O 249.945 -1.90474 -0.111484 0
M  V30 2743 C 247.085 -3.44116 0.26043 0
M  V30 2744 C 246.198 -4.10268 1.35293 0
M  V30 2745 C 245.333 -5.25507 0.775621 0
M  V30 2746 C 244.372 -5.83567 1.84706 0
M  V30 2747 N 243.509 -6.90179 1.28829 0
M  V30 2748 H 248.349 -2.44163 1.70846 0
M  V30 2749 H 245.886 -1.19846 0.85295 0
M  V30 2750 H 247.844 -4.17143 -0.0686814 0
M  V30 2751 H 246.474 -3.16901 -0.614274 0
M  V30 2752 H 245.526 -3.35184 1.79877 0
M  V30 2753 H 246.838 -4.4946 2.16303 0
M  V30 2754 H 245.992 -6.05398 0.397327 0
M  V30 2755 H 244.731 -4.87656 -0.0656581 0
M  V30 2756 H 243.736 -5.02344 2.23452 0
M  V30 2757 H 244.961 -6.23482 2.69161 0
M  V30 2758 H 242.907 -6.54322 0.468881 0
M  V30 2759 H 242.824 -7.28097 2.03497 0
M  V30 2760 H 244.092 -7.73844 0.937311 0
M  V30 2761 N 248.321 -0.919034 -1.28029 0
M  V30 2762 C 249.57 -0.550802 -1.94034 0
M  V30 2763 C 249.883 0.910877 -1.73096 0
M  V30 2764 O 251.089 1.3875 -2.33368 0
M  V30 2765 C 249.545 -0.934249 -3.47563 0
M  V30 2766 C 249.153 -2.41602 -3.7727 0
M  V30 2767 C 250.897 -0.636854 -4.19696 0
M  V30 2768 C 248.804 -2.73932 -5.24133 0
M  V30 2769 H 247.734 -0.202273 -0.726362 0
M  V30 2770 H 250.385 -1.11867 -1.45458 0
M  V30 2771 H 248.767 -0.295115 -3.94899 0
M  V30 2772 H 249.941 -3.10233 -3.40723 0
M  V30 2773 H 248.256 -2.68441 -3.18321 0
M  V30 2774 H 250.853 -0.855005 -5.2782 0
M  V30 2775 H 251.196 0.425575 -4.14119 0
M  V30 2776 H 251.729 -1.23469 -3.78154 0
M  V30 2777 H 248.468 -3.79049 -5.34792 0
M  V30 2778 H 247.988 -2.09942 -5.61858 0
M  V30 2779 H 249.667 -2.61215 -5.91925 0
M  V30 2780 N 249.799 1.42003 -0.683588 0
M  V30 2781 C 251.024 2.06265 -0.216647 0
M  V30 2782 C 251.449 1.51059 1.12083 0
M  V30 2783 O 250.807 0.632638 1.69904 0
M  V30 2784 C 250.855 3.60191 -0.171759 0
M  V30 2785 O 249.959 4.03396 0.857069 0
M  V30 2786 H 249.3 0.65502 -0.108834 0
M  V30 2787 H 251.83 1.81982 -0.935077 0
M  V30 2788 H 251.84 4.08 0.0014303 0
M  V30 2789 H 250.515 3.99743 -1.14796 0
M  V30 2790 H 249.092 3.67117 0.654208 0
M  V30 2791 N 251.277 0.427512 1.51691 0
M  V30 2792 C 252.526 -0.143679 2.01188 0
M  V30 2793 C 252.839 -1.44642 1.31674 0
M  V30 2794 O 254.045 -2.09997 1.72086 0
M  V30 2795 C 252.501 -0.306602 3.58592 0
M  V30 2796 C 252.109 0.985125 4.37035 0
M  V30 2797 C 253.853 -0.832091 4.16265 0
M  V30 2798 C 251.76 0.788382 5.86122 0
M  V30 2799 H 250.69 -0.0574701 0.751807 0
M  V30 2800 H 253.341 0.555772 1.74881 0
M  V30 2801 H 251.723 -1.06882 3.81303 0
M  V30 2802 H 252.897 1.75492 4.26074 0
M  V30 2803 H 251.212 1.4384 3.90767 0
M  V30 2804 H 253.809 -0.995617 5.25349 0
M  V30 2805 H 254.152 -1.81186 3.74803 0
M  V30 2806 H 254.685 -0.128444 3.97593 0
M  V30 2807 H 251.424 1.74025 6.31978 0
M  V30 2808 H 250.944 0.0582143 5.99772 0
M  V30 2809 H 252.623 0.437722 6.45518 0
M  V30 2810 N 252.755 -1.56801 0.158532 0
M  V30 2811 C 254.171 -1.5837 -0.197774 0
M  V30 2812 C 254.371 -1.17334 -1.63814 0
M  V30 2813 O 253.427 -0.878988 -2.36707 0
M  V30 2814 C 254.74 -3.00615 0.0714459 0
M  V30 2815 C 256.288 -3.12999 0.00864533 0
M  V30 2816 C 256.763 -4.57313 0.250685 0
M  V30 2817 N 258.254 -4.62777 0.198014 0
M  V30 2818 C 258.989 -5.72271 0.359642 0
M  V30 2819 N 258.485 -6.90371 0.579625 0
M  V30 2820 N 260.278 -5.61318 0.296438 0
M  V30 2821 H 252.429 -1.81765 1.09887 0
M  V30 2822 H 254.692 -0.841849 0.435884 0
M  V30 2823 H 254.398 -3.35068 1.06874 0
M  V30 2824 H 254.272 -3.71683 -0.642757 0
M  V30 2825 H 256.659 -2.7838 -0.979217 0
M  V30 2826 H 256.74 -2.44393 0.755359 0
M  V30 2827 H 256.384 -4.92639 1.2357 0
M  V30 2828 H 256.314 -5.24061 -0.516489 0
M  V30 2829 H 258.805 -3.77885 0.0331115 0
M  V30 2830 H 259.118 -7.69689 0.69275 0
M  V30 2831 H 257.463 -6.92264 0.616087 0
M  V30 2832 H 260.654 -4.67932 0.125258 0
M  V30 2833 H 260.827 -6.46599 0.425831 0
M  V30 2834 N 254.233 0.115231 -1.57178 0
M  V30 2835 C 255.644 0.67197 -1.74188 0
M  V30 2836 C 255.995 1.80125 -0.777777 0
M  V30 2837 O 255.12 2.16346 0.0484376 0
M  V30 2838 C 255.715 1.22573 -3.1585 0
M  V30 2839 C 254.274 1.72872 -3.34353 0
M  V30 2840 C 253.421 0.629972 -2.70049 0
M  V30 2841 H 256.372 -0.110712 -1.58313 0
M  V30 2842 H 256.393 2.09535 -3.17609 0
M  V30 2843 H 255.905 0.403598 -3.85996 0
M  V30 2844 H 254.006 2.5755 -2.69256 0
M  V30 2845 H 254.119 1.83557 -4.42542 0
M  V30 2846 H 252.483 1.0645 -2.31388 0
M  V30 2847 H 253.266 -0.181241 -3.42821 0
M  V30 2848 N 255.711 1.52812 0.385517 0
M  V30 2849 C 256.951 1.69716 1.13911 0
M  V30 2850 C 257.315 0.42962 1.87132 0
M  V30 2851 O 258.516 0.475071 2.64569 0
M  V30 2852 C 256.787 2.90021 2.0886 0
M  V30 2853 S 258.346 3.27531 2.92009 0
M  V30 2854 H 255.164 0.59739 0.385547 0
M  V30 2855 H 257.766 1.90868 0.423061 0
M  V30 2856 H 256.47 3.80493 1.53797 0
M  V30 2857 H 256.001 2.71213 2.84969 0
M  V30 2858 H 258.016 2.77989 4.11019 0
M  V30 2859 N 257.189 -0.644168 1.43834 0
M  V30 2860 C 258.436 -1.40395 1.4593 0
M  V30 2861 C 258.764 -1.94305 0.0869658 0
M  V30 2862 O 258.019 -1.73288 -0.909378 0
M  V30 2863 C 258.318 -2.59615 2.45631 0
M  V30 2864 C 257.984 -2.2407 3.91284 0
M  V30 2865 C 256.646 -2.14089 4.30952 0
M  V30 2866 C 258.998 -1.95775 4.83034 0
M  V30 2867 C 256.326 -1.73981 5.6031 0
M  V30 2868 C 258.678 -1.57163 6.12766 0
M  V30 2869 C 257.342 -1.45713 6.51402 0
M  V30 2870 H 256.612 -0.513741 0.533995 0
M  V30 2871 H 259.259 -0.731724 1.76969 0
M  V30 2872 H 257.564 -3.32011 2.08028 0
M  V30 2873 H 259.261 -3.17834 2.44504 0
M  V30 2874 H 255.851 -2.32753 3.59895 0
M  V30 2875 H 260.035 -2.02403 4.53152 0
M  V30 2876 H 255.291 -1.63709 5.89075 0
M  V30 2877 H 259.465 -1.34303 6.83327 0
M  V30 2878 H 257.092 -1.14406 7.51542 0
M  V30 2879 N 258.668 -1.30515 -0.883378 0
M  V30 2880 C 259.915 -1.1943 -1.63532 0
M  V30 2881 C 260.243 0.250627 -1.92878 0
M  V30 2882 O 259.498 1.19556 -1.54935 0
M  V30 2883 C 259.797 -1.96994 -2.98209 0
M  V30 2884 C 259.463 -3.466 -2.88408 0
M  V30 2885 C 258.125 -3.87397 -2.85442 0
M  V30 2886 C 260.477 -4.41863 -2.76418 0
M  V30 2887 C 257.805 -5.21745 -2.68327 0
M  V30 2888 C 260.157 -5.7632 -2.60841 0
M  V30 2889 C 258.821 -6.16354 -2.56251 0
M  V30 2890 H 258.091 -0.437025 -0.598406 0
M  V30 2891 H 260.738 -1.61635 -1.02696 0
M  V30 2892 H 259.043 -1.47429 -3.63004 0
M  V30 2893 H 260.74 -1.85808 -3.55354 0
M  V30 2894 H 257.33 -3.14182 -2.91527 0
M  V30 2895 H 261.514 -4.11285 -2.77775 0
M  V30 2896 H 256.77 -5.51853 -2.63189 0
M  V30 2897 H 260.944 -6.49772 -2.50538 0
M  V30 2898 H 258.571 -7.20401 -2.42748 0
M  V30 2899 N 260.146 1.09593 -1.13257 0
M  V30 2900 C 261.109 2.14359 -0.811358 0
M  V30 2901 C 262.109 1.59808 0.178377 0
M  V30 2902 O 263.299 1.74132 -0.0484911 0
M  V30 2903 C 260.431 3.40269 -0.207276 0
M  V30 2904 H 261.624 2.44284 -1.73969 0
M  V30 2905 H 259.177 1.25102 -0.936973 0
M  V30 2906 H 259.912 3.15969 0.73036 0
M  V30 2907 H 259.697 3.81154 -0.919992 0
M  V30 2908 H 261.187 4.176 0.000667944 0
M  V30 2909 N 261.624 0.925811 1.2754 0
M  V30 2910 C 263.035 0.610102 1.7645 0
M  V30 2911 C 263.386 -0.874723 1.75622 0
M  V30 2912 O 262.511 -1.68444 1.35851 0
M  V30 2913 C 263.106 1.10073 3.20421 0
M  V30 2914 C 261.665 0.835723 3.67005 0
M  V30 2915 C 260.812 1.26054 2.46993 0
M  V30 2916 H 263.763 1.10579 1.13833 0
M  V30 2917 H 263.784 0.447557 3.77859 0
M  V30 2918 H 263.296 2.18143 3.20991 0
M  V30 2919 H 261.397 -0.231249 3.71882 0
M  V30 2920 H 261.51 1.45193 4.56569 0
M  V30 2921 H 259.874 0.679111 2.45479 0
M  V30 2922 H 260.657 2.34984 2.50275 0
M  V30 2923 N 263.102 -1.41638 0.69111 0
M  V30 2924 C 264.327 -2.06148 0.227583 0
M  V30 2925 C 264.752 -1.51652 -1.11281 0
M  V30 2926 O 264.11 -0.64164 -1.69566 0
M  V30 2927 C 264.158 -3.60095 0.190858 0
M  V30 2928 O 263.262 -4.03845 -0.835664 0
M  V30 2929 H 262.603 -0.654434 0.112306 0
M  V30 2930 H 265.133 -1.81484 0.944714 0
M  V30 2931 H 265.143 -4.07995 0.020207 0
M  V30 2932 H 263.818 -3.99129 1.16915 0
M  V30 2933 H 262.395 -3.67458 -0.63473 0
M  V30 2934 N 264.58 -0.43555 -1.51462 0
M  V30 2935 C 265.512 0.41257 -2.25456 0
M  V30 2936 C 266.525 0.987822 -1.29406 0
M  V30 2937 O 267.714 0.882266 -1.55172 0
M  V30 2938 C 264.814 1.58894 -2.99342 0
M  V30 2939 C 263.987 1.13288 -4.22474 0
M  V30 2940 C 263.046 2.17917 -4.78956 0
M  V30 2941 O 262.072 1.77425 -5.40841 0
M  V30 2942 N 263.274 3.50382 -4.62832 0
M  V30 2943 H 266.039 -0.221603 -2.9888 0
M  V30 2944 H 263.6 -0.264342 -1.59727 0
M  V30 2945 H 265.592 2.28508 -3.34015 0
M  V30 2946 H 264.162 2.12849 -2.28941 0
M  V30 2947 H 263.382 0.263881 -3.93316 0
M  V30 2948 H 264.67 0.805542 -5.02383 0
M  V30 2949 H 264.068 3.86013 -4.13534 0
M  V30 2950 H 262.625 4.15895 -5.01871 0
M  V30 2951 N 266.058 1.56714 -0.166846 0
M  V30 2952 C 266.988 2.20754 0.760913 0
M  V30 2953 C 267.969 1.16178 1.24244 0
M  V30 2954 O 269.154 1.44592 1.29641 0
M  V30 2955 C 266.284 2.84478 1.99223 0
M  V30 2956 C 265.238 3.95053 1.64672 0
M  V30 2957 C 264.564 4.45805 2.95232 0
M  V30 2958 C 265.864 5.14865 0.878155 0
M  V30 2959 H 267.558 2.98537 0.22713 0
M  V30 2960 H 265.104 1.43596 0.107805 0
M  V30 2961 H 267.057 3.27951 2.64624 0
M  V30 2962 H 265.781 2.04056 2.55007 0
M  V30 2963 H 264.44 3.52228 1.01641 0
M  V30 2964 H 264.088 3.62181 3.49047 0
M  V30 2965 H 263.788 5.204 2.7287 0
M  V30 2966 H 265.312 4.91962 3.6167 0
M  V30 2967 H 266.726 5.55059 1.43466 0
M  V30 2968 H 265.123 5.95348 0.753738 0
M  V30 2969 H 266.193 4.84735 -0.126377 0
M  V30 2970 N 267.536 -0.106894 1.57237 0
M  V30 2971 C 268.466 -1.13148 2.04254 0
M  V30 2972 C 269.447 -1.42476 0.929224 0
M  V30 2973 O 270.632 -1.52709 1.19973 0
M  V30 2974 C 267.762 -2.4545 2.45706 0
M  V30 2975 C 266.716 -2.30558 3.60592 0
M  V30 2976 C 266.042 -3.67931 3.87983 0
M  V30 2977 C 267.342 -1.75597 4.91897 0
M  V30 2978 H 269.036 -0.740374 2.90101 0
M  V30 2979 H 266.582 -0.354696 1.39563 0
M  V30 2980 H 268.535 -3.17389 2.77205 0
M  V30 2981 H 267.259 -2.86475 1.56843 0
M  V30 2982 H 265.918 -1.61067 3.29322 0
M  V30 2983 H 265.566 -4.06462 2.96306 0
M  V30 2984 H 265.266 -3.58817 4.65322 0
M  V30 2985 H 266.79 -4.41356 4.21945 0
M  V30 2986 H 268.204 -2.37364 5.21854 0
M  V30 2987 H 266.601 -1.77272 5.73319 0
M  V30 2988 H 267.671 -0.714451 4.79608 0
M  V30 2989 N 269.014 -1.53014 -0.377408 0
M  V30 2990 C 270.425 -1.60438 -0.954798 0
M  V30 2991 C 270.776 -0.464418 -1.90624 0
M  V30 2992 O 269.901 0.41087 -2.12464 0
M  V30 2993 C 270.496 -2.90797 -1.73847 0
M  V30 2994 C 269.055 -3.00595 -2.26538 0
M  V30 2995 C 268.202 -2.55645 -1.07429 0
M  V30 2996 H 271.153 -1.57926 -0.156575 0
M  V30 2997 H 271.174 -2.77935 -2.5987 0
M  V30 2998 H 270.686 -3.73746 -1.04574 0
M  V30 2999 H 268.787 -2.22208 -2.99089 0
M  V30 3000 H 268.9 -4.05456 -2.5523 0
M  V30 3001 H 267.264 -2.10239 -1.43777 0
M  V30 3002 H 268.047 -3.41 -0.396728 0
M  V30 3003 N 270.492 0.636531 -1.44174 0
M  V30 3004 C 271.717 1.42847 -1.50364 0
M  V30 3005 C 272.142 1.87665 -0.127867 0
M  V30 3006 O 271.5 1.58408 0.88185 0
M  V30 3007 C 271.548 2.62854 -2.4686 0
M  V30 3008 O 270.652 3.62501 -1.9664 0
M  V30 3009 H 269.993 0.427642 -0.507955 0
M  V30 3010 H 272.523 0.777422 -1.89255 0
M  V30 3011 H 272.533 3.10465 -2.64718 0
M  V30 3012 H 271.208 2.29578 -3.46795 0
M  V30 3013 H 269.785 3.21735 -1.88523 0
M  V30 3014 N 271.97 1.30982 0.876444 0
M  V30 3015 C 273.381 1.18277 1.44456 0
M  V30 3016 C 273.732 -0.213265 1.95037 0
M  V30 3017 O 272.857 -1.11057 1.85729 0
M  V30 3018 C 273.452 2.1411 2.62569 0
M  V30 3019 C 272.011 2.05358 3.15444 0
M  V30 3020 C 271.158 2.03706 1.88146 0
M  V30 3021 H 274.109 1.43127 0.685584 0
M  V30 3022 H 274.13 1.72692 3.39054 0
M  V30 3023 H 273.642 3.15706 2.25724 0
M  V30 3024 H 271.743 1.06934 3.56926 0
M  V30 3025 H 271.856 2.94156 3.78166 0
M  V30 3026 H 270.22 1.48629 2.06837 0
M  V30 3027 H 271.003 3.07047 1.53547 0
M  V30 3028 N 273.449 -1.08991 1.13837 0
M  V30 3029 C 274.397 -2.17841 0.815347 0
M  V30 3030 C 275.391 -1.68164 -0.204233 0
M  V30 3031 O 276.597 -1.79897 -0.0609304 0
M  V30 3032 H 272.972 -0.710654 0.245915 0
M  V30 3033 H 274.943 -2.42315 1.74143 0
M  V30 3034 C 273.692 -3.46381 0.302614 0
M  V30 3035 H 273.015 -3.84979 1.0785 0
M  V30 3036 H 274.455 -4.23844 0.115074 0
M  V30 3037 C 272.914 -3.22556 -0.972591 0
M  V30 3038 O 273.444 -3.45599 -2.04754 0
M  V30 3039 N 271.65 -2.76134 -0.905455 0
M  V30 3040 H 271.197 -2.57582 -0.0305421 0
M  V30 3041 H 271.155 -2.60571 -1.75926 0
M  V30 3042 N 274.927 -0.932562 -1.27047 0
M  V30 3043 C 276.176 -0.571351 -1.93439 0
M  V30 3044 C 276.489 0.892467 -1.74053 0
M  V30 3045 O 277.695 1.36267 -2.34826 0
M  V30 3046 C 276.151 -0.97106 -3.46552 0
M  V30 3047 C 275.759 -2.4559 -3.74686 0
M  V30 3048 C 277.503 -0.681333 -4.18997 0
M  V30 3049 C 275.41 -2.79475 -5.21198 0
M  V30 3050 H 274.34 -0.209966 -0.724176 0
M  V30 3051 H 276.991 -1.13403 -1.44263 0
M  V30 3052 H 275.373 -0.336983 -3.94564 0
M  V30 3053 H 276.547 -3.13829 -3.37414 0
M  V30 3054 H 274.862 -2.71802 -3.15456 0
M  V30 3055 H 277.459 -0.910939 -5.26883 0
M  V30 3056 H 277.802 0.381628 -4.14547 0
M  V30 3057 H 278.335 -1.27473 -3.76823 0
M  V30 3058 H 275.074 -3.847 -5.30741 0
M  V30 3059 H 274.594 -2.1589 -5.596 0
M  V30 3060 H 276.273 -2.67478 -5.89122 0
M  V30 3061 N 276.405 1.4127 -0.698611 0
M  V30 3062 C 277.352 2.30773 -0.0352094 0
M  V30 3063 C 278.322 1.47273 0.768111 0
M  V30 3064 O 279.507 1.76053 0.735524 0
M  V30 3065 C 276.647 3.33346 0.893 0
M  V30 3066 C 275.76 4.31924 0.0809695 0
M  V30 3067 C 274.895 5.21566 1.0071 0
M  V30 3068 C 273.934 6.11811 0.188155 0
M  V30 3069 N 273.071 6.93926 1.06825 0
M  V30 3070 H 277.911 2.86943 -0.804207 0
M  V30 3071 H 275.448 1.4132 -0.408294 0
M  V30 3072 H 277.406 3.91368 1.44523 0
M  V30 3073 H 276.036 2.78719 1.62836 0
M  V30 3074 H 275.088 3.75825 -0.588224 0
M  V30 3075 H 276.4 4.95716 -0.553801 0
M  V30 3076 H 275.554 5.84437 1.62845 0
M  V30 3077 H 274.293 4.58008 1.67572 0
M  V30 3078 H 273.298 5.47986 -0.446254 0
M  V30 3079 H 274.523 6.77425 -0.476716 0
M  V30 3080 H 272.469 6.32973 1.72283 0
M  V30 3081 H 272.386 7.54416 0.489123 0
M  V30 3082 H 273.654 7.61262 1.67632 0
M  V30 3083 N 277.883 0.443576 1.51229 0
M  V30 3084 C 278.813 -0.355142 2.30783 0
M  V30 3085 C 279.794 -1.0154 1.36468 0
M  V30 3086 O 280.979 -1.01785 1.65389 0
M  V30 3087 C 278.109 -1.45312 3.15439 0
M  V30 3088 C 277.063 -0.916002 4.18083 0
M  V30 3089 C 276.389 -2.1102 4.91299 0
M  V30 3090 C 277.689 0.0538602 5.22272 0
M  V30 3091 H 279.383 0.308767 2.97804 0
M  V30 3092 H 276.929 0.149937 1.43217 0
M  V30 3093 H 278.882 -2.01914 3.69876 0
M  V30 3094 H 277.606 -2.14541 2.46252 0
M  V30 3095 H 276.265 -0.372145 3.64706 0
M  V30 3096 H 275.913 -2.78882 4.18609 0
M  V30 3097 H 275.613 -1.75717 5.60712 0
M  V30 3098 H 277.137 -2.68164 5.48562 0
M  V30 3099 H 278.551 -0.422069 5.71744 0
M  V30 3100 H 276.948 0.319776 5.99247 0
M  V30 3101 H 278.018 0.98858 4.74716 0
M  V30 3102 N 279.361 -1.56624 0.175154 0
M  V30 3103 C 280.271 -2.21741 -0.766042 0
M  V30 3104 C 281.287 -1.21023 -1.25018 0
M  V30 3105 O 282.463 -1.53697 -1.3015 0
M  V30 3106 C 279.528 -2.84839 -1.97655 0
M  V30 3107 C 278.589 -4.00769 -1.53892 0
M  V30 3108 C 277.822 -4.60849 -2.69173 0
M  V30 3109 O 278.045 -4.19823 -3.86141 0
M  V30 3110 O 276.979 -5.50655 -2.43028 0
M  V30 3111 H 280.805 -3.02738 -0.241585 0
M  V30 3112 H 278.39 -1.49305 -0.053222 0
M  V30 3113 H 280.272 -3.24834 -2.68442 0
M  V30 3114 H 278.947 -2.06836 -2.48999 0
M  V30 3115 H 277.854 -3.65436 -0.80044 0
M  V30 3116 H 279.187 -4.80376 -1.07236 0
M  V30 3117 N 280.839 0.0985539 -1.57292 0
M  V30 3118 C 281.769 1.12064 -2.04851 0
M  V30 3119 C 282.75 1.41981 -0.936767 0
M  V30 3120 O 283.935 1.52071 -1.20781 0
M  V30 3121 C 281.065 2.44144 -2.47004 0
M  V30 3122 C 280.019 2.28643 -3.6181 0
M  V30 3123 C 279.345 3.65869 -3.89929 0
M  V30 3124 C 280.645 1.72986 -4.92822 0
M  V30 3125 H 282.339 0.724979 -2.9049 0
M  V30 3126 H 279.885 0.34729 -1.39749 0
M  V30 3127 H 281.838 3.15914 -2.78884 0
M  V30 3128 H 280.562 2.85639 -1.5836 0
M  V30 3129 H 279.221 1.59318 -3.30172 0
M  V30 3130 H 278.869 4.04885 -2.98458 0
M  V30 3131 H 278.569 3.56344 -4.67218 0
M  V30 3132 H 280.093 4.39112 -4.2428 0
M  V30 3133 H 281.507 2.34593 -5.23105 0
M  V30 3134 H 279.904 1.74229 -5.74251 0
M  V30 3135 H 280.974 0.689007 -4.7998 0
M  V30 3136 N 282.317 1.53212 0.369288 0
M  V30 3137 C 283.545 1.73119 1.13303 0
M  V30 3138 C 283.96 0.458455 1.83149 0
M  V30 3139 O 283.317 -0.568403 1.73423 0
M  V30 3140 C 283.368 2.89413 2.16616 0
M  V30 3141 O 283.089 4.11761 1.49614 0
M  V30 3142 C 284.59 3.21161 3.05566 0
M  V30 3143 H 281.81 0.579107 0.338934 0
M  V30 3144 H 284.354 1.99942 0.429338 0
M  V30 3145 H 282.509 2.64994 2.82589 0
M  V30 3146 H 282.923 4.76858 2.18419 0
M  V30 3147 H 284.397 4.05949 3.74045 0
M  V30 3148 H 284.874 2.36369 3.70171 0
M  V30 3149 H 285.48 3.47492 2.45213 0
M  V30 3150 N 283.795 -0.628877 1.44509 0
M  V30 3151 C 284.758 -1.72263 1.51188 0
M  V30 3152 C 285.758 -1.55907 0.39367 0
M  V30 3153 O 286.948 -1.61361 0.656377 0
M  V30 3154 C 284.08 -3.11365 1.38798 0
M  V30 3155 H 285.273 -1.67714 2.4862 0
M  V30 3156 H 282.826 -0.842737 1.31634 0
M  V30 3157 H 283.561 -3.21507 0.424693 0
M  V30 3158 H 283.346 -3.24644 2.19884 0
M  V30 3159 H 284.836 -3.91075 1.46458 0
M  V30 3160 N 285.273 -1.31445 -0.869486 0
M  V30 3161 C 286.684 -1.19042 -1.43826 0
M  V30 3162 C 287.035 0.202919 -1.95148 0
M  V30 3163 O 286.16 1.10071 -1.86315 0
M  V30 3164 C 286.755 -2.15499 -2.6143 0
M  V30 3165 C 285.314 -2.07028 -3.14351 0
M  V30 3166 C 284.461 -2.04701 -1.87063 0
M  V30 3167 H 287.412 -1.43489 -0.677984 0
M  V30 3168 H 287.433 -1.74488 -3.38134 0
M  V30 3169 H 286.945 -3.16899 -2.24046 0
M  V30 3170 H 285.046 -1.08825 -3.56354 0
M  V30 3171 H 285.159 -2.96157 -3.766 0
M  V30 3172 H 283.523 -1.49724 -2.06046 0
M  V30 3173 H 284.306 -3.07857 -1.51917 0
M  V30 3174 N 286.751 1.08385 -1.14413 0
M  V30 3175 C 288.162 1.62258 -0.923535 0
M  V30 3176 C 288.513 1.88691 0.537595 0
M  V30 3177 O 287.638 1.64454 1.40655 0
M  V30 3178 C 288.233 2.94781 -1.67002 0
M  V30 3179 C 286.792 3.45437 -1.495 0
M  V30 3180 C 285.939 2.19668 -1.69238 0
M  V30 3181 H 288.89 0.916086 -1.2959 0
M  V30 3182 H 288.911 3.63229 -1.13334 0
M  V30 3183 H 288.423 2.7551 -2.73342 0
M  V30 3184 H 286.524 3.6981 -0.455097 0
M  V30 3185 H 286.637 4.22173 -2.2651 0
M  V30 3186 H 285.001 2.28849 -1.11804 0
M  V30 3187 H 285.784 2.02905 -2.7692 0
M  V30 3188 N 288.23 0.939286 1.26551 0
M  V30 3189 C 289.641 0.628782 1.75793 0
M  V30 3190 C 289.992 -0.856046 1.7654 0
M  V30 3191 O 289.117 -1.66994 1.3763 0
M  V30 3192 C 289.712 1.13465 3.19235 0
M  V30 3193 C 288.271 0.874601 3.66098 0
M  V30 3194 C 287.418 1.28667 2.45642 0
M  V30 3195 H 290.369 1.1178 1.12654 0
M  V30 3196 H 290.39 0.487609 3.77363 0
M  V30 3197 H 289.902 2.21535 3.1866 0
M  V30 3198 H 288.003 -0.191793 3.72106 0
M  V30 3199 H 288.116 1.50028 4.55004 0
M  V30 3200 H 286.48 0.705109 2.44745 0
M  V30 3201 H 287.263 2.37625 2.47769 0
M  V30 3202 N 289.708 -1.40897 0.706093 0
M  V30 3203 C 290.618 -2.3455 0.0482286 0
M  V30 3204 C 291.634 -1.56796 -0.754396 0
M  V30 3205 O 292.81 -1.89228 -0.689538 0
M  V30 3206 C 289.875 -3.35625 -0.869303 0
M  V30 3207 C 288.936 -4.29261 -0.0576994 0
M  V30 3208 C 288.169 -5.25508 -0.931531 0
M  V30 3209 O 288.392 -5.27472 -2.17092 0
M  V30 3210 O 287.326 -6.00727 -0.375587 0
M  V30 3211 H 291.152 -2.92407 0.820476 0
M  V30 3212 H 288.737 -1.4193 0.4665 0
M  V30 3213 H 290.619 -3.97635 -1.39514 0
M  V30 3214 H 289.294 -2.80196 -1.62086 0
M  V30 3215 H 288.201 -3.70566 0.512988 0
M  V30 3216 H 289.534 -4.87817 0.655426 0
M  V30 3217 N 291.186 -0.45159 -1.50991 0
M  V30 3218 C 292.433 0.110074 -2.02201 0
M  V30 3219 C 292.761 1.4146 -1.33489 0
M  V30 3220 O 292.016 1.90617 -0.443125 0
M  V30 3221 C 292.315 0.361728 -3.55565 0
M  V30 3222 C 291.981 -0.858717 -4.42648 0
M  V30 3223 C 290.643 -1.19338 -4.66167 0
M  V30 3224 C 292.995 -1.67221 -4.93646 0
M  V30 3225 C 290.323 -2.34195 -5.37931 0
M  V30 3226 C 292.675 -2.8119 -5.6667 0
M  V30 3227 C 291.339 -3.15094 -5.88449 0
M  V30 3228 H 290.609 0.040279 -0.739904 0
M  V30 3229 H 293.256 -0.601696 -1.81802 0
M  V30 3230 H 291.561 1.15554 -3.74372 0
M  V30 3231 H 293.258 0.80996 -3.92735 0
M  V30 3232 H 289.848 -0.58796 -4.24548 0
M  V30 3233 H 294.032 -1.42686 -4.75347 0
M  V30 3234 H 289.288 -2.6076 -5.53005 0
M  V30 3235 H 293.462 -3.44585 -6.05173 0
M  V30 3236 H 291.089 -4.04204 -6.43835 0
M  V30 3237 N 292.664 1.56529 -0.183458 0
M  V30 3238 C 293.911 1.97244 0.458357 0
M  V30 3239 C 294.239 1.06992 1.62428 0
M  V30 3240 O 293.494 0.106542 1.9541 0
M  V30 3241 C 293.793 3.43939 0.971637 0
M  V30 3242 C 293.459 4.5083 -0.0796784 0
M  V30 3243 C 292.121 4.79786 -0.368584 0
M  V30 3244 C 294.473 5.15138 -0.792638 0
M  V30 3245 C 291.801 5.70345 -1.37563 0
M  V30 3246 C 294.153 6.06784 -1.78875 0
M  V30 3247 C 292.817 6.34102 -2.08497 0
M  V30 3248 H 292.087 0.721768 0.167725 0
M  V30 3249 H 294.734 1.89472 -0.277976 0
M  V30 3250 H 293.039 3.48724 1.78602 0
M  V30 3251 H 294.736 3.72791 1.47744 0
M  V30 3252 H 291.326 4.28317 0.155668 0
M  V30 3253 H 295.51 4.92868 -0.582659 0
M  V30 3254 H 290.766 5.89789 -1.61118 0
M  V30 3255 H 294.94 6.55677 -2.3465 0
M  V30 3256 H 292.567 7.04074 -2.86678 0
M  V30 3257 N 294.142 -0.090211 1.57342 0
M  V30 3258 C 295.553 -0.644173 1.75235 0
M  V30 3259 C 295.904 -1.78865 0.806335 0
M  V30 3260 O 295.029 -2.16395 -0.0140128 0
M  V30 3261 C 295.624 -1.17532 3.1776 0
M  V30 3262 C 294.183 -1.67531 3.37061 0
M  V30 3263 C 293.33 -0.58693 2.71017 0
M  V30 3264 H 296.281 0.135884 1.58117 0
M  V30 3265 H 296.302 -2.04455 3.20902 0
M  V30 3266 H 295.814 -0.342138 3.86589 0
M  V30 3267 H 293.915 -2.53234 2.73319 0
M  V30 3268 H 294.028 -1.76493 4.45406 0
M  V30 3269 H 292.392 -1.02756 2.33052 0
M  V30 3270 H 293.175 0.235758 3.4249 0
M  V30 3271 N 295.62 -1.53406 -0.361157 0
M  V30 3272 C 296.552 -1.76446 -1.46286 0
M  V30 3273 C 297.565 -0.645322 -1.49464 0
M  V30 3274 O 298.754 -0.921681 -1.52864 0
M  V30 3275 C 295.854 -1.83332 -2.85031 0
M  V30 3276 C 295.027 -3.13033 -3.05498 0
M  V30 3277 C 294.086 -3.11104 -4.24383 0
M  V30 3278 O 293.112 -3.84888 -4.19344 0
M  V30 3279 N 294.314 -2.32234 -5.32022 0
M  V30 3280 H 297.079 -2.71508 -1.26899 0
M  V30 3281 H 294.64 -1.52238 -0.550915 0
M  V30 3282 H 296.632 -1.79514 -3.62708 0
M  V30 3283 H 295.202 -0.955342 -2.97644 0
M  V30 3284 H 294.422 -3.30119 -2.15442 0
M  V30 3285 H 295.71 -3.9874 -3.16044 0
M  V30 3286 H 295.108 -1.71807 -5.38979 0
M  V30 3287 H 293.665 -2.3423 -6.08259 0
M  V30 3288 N 297.098 0.621204 -1.44841 0
M  V30 3289 C 298.347 1.37658 -1.47422 0
M  V30 3290 C 298.66 1.95264 -0.114629 0
M  V30 3291 O 299.866 2.71494 -0.0180199 0
M  V30 3292 C 298.322 2.49285 -2.59586 0
M  V30 3293 C 297.93 1.98149 -4.01797 0
M  V30 3294 C 299.674 3.26409 -2.71399 0
M  V30 3295 C 297.581 3.07178 -5.05367 0
M  V30 3296 H 296.511 0.517344 -0.548517 0
M  V30 3297 H 299.162 0.667257 -1.70938 0
M  V30 3298 H 297.544 3.22839 -2.29328 0
M  V30 3299 H 298.718 1.31395 -4.41669 0
M  V30 3300 H 297.033 1.33812 -3.94314 0
M  V30 3301 H 299.63 4.07706 -3.45948 0
M  V30 3302 H 299.973 3.76535 -1.77559 0
M  V30 3303 H 300.506 2.5995 -3.01116 0
M  V30 3304 H 297.245 2.61985 -6.00869 0
M  V30 3305 H 296.765 3.72542 -4.70077 0
M  V30 3306 H 298.444 3.71789 -5.29511 0
M  V30 3307 N 298.576 1.31904 0.862503 0
M  V30 3308 C 299.524 1.20125 1.9918 0
M  V30 3309 C 300.518 0.107824 1.69056 0
M  V30 3310 O 301.724 0.270223 1.7796 0
M  V30 3311 H 298.099 0.372148 0.65346 0
M  V30 3312 H 300.07 2.15652 2.06244 0
M  V30 3313 C 298.819 0.933099 3.34946 0
M  V30 3314 H 298.142 1.76664 3.5865 0
M  V30 3315 H 299.582 0.890892 4.14535 0
M  V30 3316 C 298.041 -0.364172 3.34926 0
M  V30 3317 O 298.571 -1.37858 3.77304 0
M  V30 3318 N 296.777 -0.383362 2.8806 0
M  V30 3319 H 296.324 0.442651 2.53768 0
M  V30 3320 H 296.282 -1.25123 2.8843 0
M  V30 3321 N 300.054 -1.07777 1.14986 0
M  V30 3322 C 301.301 -1.8029 0.922056 0
M  V30 3323 C 301.629 -1.86531 -0.55105 0
M  V30 3324 O 300.884 -1.34189 -1.42449 0
M  V30 3325 C 301.183 -3.25495 1.47608 0
M  V30 3326 C 300.849 -3.39361 2.96893 0
M  V30 3327 C 299.511 -3.42852 3.37647 0
M  V30 3328 C 301.863 -3.42512 3.92854 0
M  V30 3329 C 299.191 -3.47094 4.73015 0
M  V30 3330 C 301.543 -3.4829 5.28088 0
M  V30 3331 C 300.207 -3.50058 5.68345 0
M  V30 3332 H 299.477 -0.659727 0.337404 0
M  V30 3333 H 302.124 -1.26854 1.43459 0
M  V30 3334 H 300.429 -3.81683 0.88463 0
M  V30 3335 H 302.126 -3.80168 1.27568 0
M  V30 3336 H 298.716 -3.37339 2.64387 0
M  V30 3337 H 302.9 -3.3904 3.62444 0
M  V30 3338 H 298.156 -3.46758 5.03556 0
M  V30 3339 H 302.33 -3.49675 6.02246 0
M  V30 3340 H 299.957 -3.53097 6.73221 0
M  V30 3341 N 301.532 -0.945985 -1.26051 0
M  V30 3342 C 302.809 -0.513816 -1.88731 0
M  V30 3343 C 303.189 1.00872 -1.8544 0
M  V30 3344 O 302.537 1.8708 -1.312 0
M  V30 3345 C 302.747 -1.08062 -3.31849 0
M  V30 3346 C 304.095 -1.1522 -4.08668 0
M  V30 3347 O 305.119 -1.03155 -3.40936 0
M  V30 3348 O 303.978 -1.34044 -5.29806 0
M  V30 3349 H 301.072 -0.168193 -0.809716 0
M  V30 3350 H 303.618 -1.03886 -1.34186 0
M  V30 3351 H 302.39 -2.1241 -3.2863 0
M  V30 3352 H 302.013 -0.538307 -3.93939 0
M  V30 3353 N 303.011 1.40521 -0.713556 0
M  V30 3354 C 303.961 2.27971 -0.036165 0
M  V30 3355 C 304.945 1.43151 0.734623 0
M  V30 3356 O 306.137 1.66261 0.607158 0
M  V30 3357 C 303.266 3.31661 0.886331 0
M  V30 3358 C 302.352 4.23955 0.110836 0
M  V30 3359 N 302.743 4.97641 -0.904847 0
M  V30 3360 C 301.041 4.44674 0.343692 0
M  V30 3361 C 301.742 5.65322 -1.37064 0
M  V30 3362 N 300.718 5.39162 -0.693168 0
M  V30 3363 H 304.52 2.82384 -0.814645 0
M  V30 3364 H 302.034 1.52948 -0.545963 0
M  V30 3365 H 304.031 3.93154 1.38692 0
M  V30 3366 H 302.691 2.78808 1.66421 0
M  V30 3367 H 303.702 5.01689 -1.28563 0
M  V30 3368 H 300.379 4.02801 1.09805 0
M  V30 3369 H 301.769 6.34359 -2.21447 0
M  V30 3370 N 304.489 0.459591 1.5075 0
M  V30 3371 C 305.905 0.113092 1.59199 0
M  V30 3372 C 306.105 -1.37951 1.46874 0
M  V30 3373 O 305.161 -2.15168 1.32132 0
M  V30 3374 C 306.474 0.653043 2.93523 0
M  V30 3375 C 308.022 0.615449 3.0689 0
M  V30 3376 C 308.497 1.13275 4.43771 0
M  V30 3377 N 309.988 1.09167 4.50152 0
M  V30 3378 C 310.723 1.46256 5.54434 0
M  V30 3379 N 310.219 1.90739 6.66026 0
M  V30 3380 N 312.012 1.37932 5.44914 0
M  V30 3381 H 304.163 1.43049 1.57005 0
M  V30 3382 H 306.426 0.590861 0.741341 0
M  V30 3383 H 306.132 1.69822 3.07983 0
M  V30 3384 H 306.006 0.0902132 3.77092 0
M  V30 3385 H 308.393 -0.420793 2.92084 0
M  V30 3386 H 308.474 1.21495 2.25106 0
M  V30 3387 H 308.118 2.16757 4.59324 0
M  V30 3388 H 308.048 0.509576 5.24129 0
M  V30 3389 H 310.539 0.76528 3.7007 0
M  V30 3390 H 310.852 2.17218 7.41644 0
M  V30 3391 H 309.197 1.94683 6.67176 0
M  V30 3392 H 312.388 1.0303 4.56621 0
M  V30 3393 H 312.561 1.67164 6.26067 0
M  V30 3394 N 305.967 -1.56429 0.191757 0
M  V30 3395 C 307.192 -2.02309 -0.456706 0
M  V30 3396 C 307.617 -1.07103 -1.5463 0
M  V30 3397 O 306.975 -0.0539677 -1.8122 0
M  V30 3398 C 307.023 -3.46654 -0.993159 0
M  V30 3399 O 306.127 -3.54559 -2.10622 0
M  V30 3400 H 305.468 -0.655303 -0.107114 0
M  V30 3401 H 307.998 -2.02364 0.301653 0
M  V30 3402 H 308.008 -3.86377 -1.31061 0
M  V30 3403 H 306.683 -4.1544 -0.195504 0
M  V30 3404 H 305.26 -3.26708 -1.79767 0
M  V30 3405 N 307.445 0.0818655 -1.57387 0
M  V30 3406 C 308.691 0.784074 -1.8703 0
M  V30 3407 C 309.024 1.77729 -0.782689 0
M  V30 3408 O 308.299 1.93384 0.208051 0
M  V30 3409 C 308.582 1.50105 -3.27323 0
M  V30 3410 C 308.435 0.524925 -4.46727 0
M  V30 3411 C 309.754 2.44843 -3.65705 0
M  V30 3412 H 306.873 0.283582 -0.680257 0
M  V30 3413 H 309.515 0.0474352 -1.89941 0
M  V30 3414 H 307.665 2.12897 -3.24972 0
M  V30 3415 H 309.337 -0.0970111 -4.61198 0
M  V30 3416 H 307.58 -0.160606 -4.33503 0
M  V30 3417 H 308.251 1.064 -5.41648 0
M  V30 3418 H 310.727 1.92135 -3.69085 0
M  V30 3419 H 309.603 2.92018 -4.64776 0
M  V30 3420 H 309.864 3.29197 -2.95096 0
M  V30 3421 N 308.923 1.53595 0.353017 0
M  V30 3422 C 309.853 1.83902 1.43883 0
M  V30 3423 C 310.834 0.693421 1.55324 0
M  V30 3424 O 312.019 0.944452 1.69687 0
M  V30 3425 C 309.149 2.04016 2.8106 0
M  V30 3426 C 308.103 3.19814 2.84434 0
M  V30 3427 C 307.429 3.25244 4.24406 0
M  V30 3428 C 308.729 4.58133 2.50822 0
M  V30 3429 H 310.423 2.74835 1.1877 0
M  V30 3430 H 307.969 1.32242 0.569917 0
M  V30 3431 H 309.922 2.238 3.57059 0
M  V30 3432 H 308.646 1.09804 3.07588 0
M  V30 3433 H 307.305 2.9987 2.10887 0
M  V30 3434 H 306.953 2.28646 4.48029 0
M  V30 3435 H 306.653 4.03054 4.27576 0
M  V30 3436 H 308.177 3.47228 5.0226 0
M  V30 3437 H 309.591 4.77995 3.16534 0
M  V30 3438 H 307.988 5.38276 2.6529 0
M  V30 3439 H 309.058 4.62387 1.46034 0
M  V30 3440 N 310.401 -0.613514 1.45168 0
M  V30 3441 C 311.364 -1.7065 1.53007 0
M  V30 3442 C 312.364 -1.5548 0.410184 0
M  V30 3443 O 313.554 -1.60656 0.673455 0
M  V30 3444 C 310.686 -3.09875 1.42093 0
M  V30 3445 H 311.879 -1.65068 2.50385 0
M  V30 3446 H 309.432 -0.828728 1.32521 0
M  V30 3447 H 310.167 -3.21039 0.458769 0
M  V30 3448 H 309.952 -3.22293 2.23315 0
M  V30 3449 H 311.442 -3.895 1.50598 0
M  V30 3450 N 311.879 -1.3236 -0.855495 0
M  V30 3451 C 313.126 -1.22872 -1.60962 0
M  V30 3452 C 313.454 0.209658 -1.93367 0
M  V30 3453 O 312.709 1.16243 -1.57436 0
M  V30 3454 C 313.008 -2.03275 -2.93963 0
M  V30 3455 C 312.674 -3.5264 -2.80991 0
M  V30 3456 C 311.336 -3.93364 -2.7716 0
M  V30 3457 C 313.688 -4.47626 -2.66983 0
M  V30 3458 C 311.016 -5.27319 -2.572 0
M  V30 3459 C 313.368 -5.81723 -2.48558 0
M  V30 3460 C 312.032 -6.2165 -2.4312 0
M  V30 3461 H 311.302 -0.44962 -0.589001 0
M  V30 3462 H 313.949 -1.63777 -0.992442 0
M  V30 3463 H 312.254 -1.55095 -3.59795 0
M  V30 3464 H 313.951 -1.93303 -3.51333 0
M  V30 3465 H 310.541 -3.20295 -2.84797 0
M  V30 3466 H 314.725 -4.17084 -2.68988 0
M  V30 3467 H 309.981 -5.57311 -2.51424 0
M  V30 3468 H 314.155 -6.5494 -2.36699 0
M  V30 3469 H 311.782 -7.25388 -2.27412 0
M  V30 3470 N 313.357 1.07166 -1.15556 0
M  V30 3471 C 314.289 2.14341 -0.811815 0
M  V30 3472 C 315.302 1.61835 0.177015 0
M  V30 3473 O 316.491 1.78439 -0.0464996 0
M  V30 3474 C 313.591 3.38387 -0.186481 0
M  V30 3475 C 312.764 4.20238 -1.21321 0
M  V30 3476 C 311.823 5.2266 -0.609302 0
M  V30 3477 O 310.849 5.54719 -1.27576 0
M  V30 3478 N 312.051 5.77306 0.608099 0
M  V30 3479 H 314.816 2.44431 -1.73417 0
M  V30 3480 H 312.377 1.23089 -1.0517 0
M  V30 3481 H 314.369 4.04044 0.230339 0
M  V30 3482 H 312.939 3.05994 0.639249 0
M  V30 3483 H 312.159 3.50369 -1.80652 0
M  V30 3484 H 313.447 4.71736 -1.90638 0
M  V30 3485 H 312.845 5.53513 1.1679 0
M  V30 3486 H 311.402 6.44583 0.96725 0
M  V30 3487 N 314.835 0.952656 1.25548 0
M  V30 3488 C 316.083 0.605176 1.92826 0
M  V30 3489 C 316.404 -0.860261 1.74999 0
M  V30 3490 O 315.674 -1.6125 1.11244 0
M  V30 3491 H 314.254 0.220832 0.713612 0
M  V30 3492 H 316.916 1.21047 1.52754 0
M  V30 3493 H 316.012 0.832798 3.00784 0
M  V30 3494 N 316.313 -1.40141 0.720998 0
M  V30 3495 C 317.561 -2.0039 0.262323 0
M  V30 3496 C 317.882 -1.57469 -1.15015 0
M  V30 3497 O 317.152 -0.816582 -1.78069 0
M  V30 3498 H 315.732 -0.741063 0.093996 0
M  V30 3499 H 318.394 -1.71398 0.927835 0
M  V30 3500 H 317.49 -3.10658 0.299671 0
M  V30 3501 N 317.792 -0.46758 -1.50504 0
M  V30 3502 C 318.702 0.33382 -2.32213 0
M  V30 3503 C 319.718 0.999323 -1.42441 0
M  V30 3504 O 320.894 0.988068 -1.75497 0
M  V30 3505 C 317.959 1.4035 -3.17022 0
M  V30 3506 C 317.02 0.754961 -4.2261 0
M  V30 3507 C 316.253 1.77367 -5.03365 0
M  V30 3508 O 316.476 2.99976 -4.8515 0
M  V30 3509 O 315.41 1.34744 -5.86624 0
M  V30 3510 H 319.236 -0.334067 -3.01857 0
M  V30 3511 H 316.821 -0.229496 -1.47627 0
M  V30 3512 H 318.703 2.02318 -3.69656 0
M  V30 3513 H 317.378 2.05492 -2.5011 0
M  V30 3514 H 316.285 0.0964244 -3.73976 0
M  V30 3515 H 317.618 0.146545 -4.91982 0
M  V30 3516 N 319.27 1.56325 -0.20005 0
M  V30 3517 C 320.498 2.02105 0.442874 0
M  V30 3518 C 320.913 1.08014 1.5485 0
M  V30 3519 O 320.27 0.0858797 1.82298 0
M  V30 3520 C 320.321 3.47549 0.994583 0
M  V30 3521 O 320.042 4.38049 -0.0669322 0
M  V30 3522 C 321.543 4.0887 1.7129 0
M  V30 3523 H 318.763 0.661807 0.110691 0
M  V30 3524 H 321.307 2.02134 -0.310207 0
M  V30 3525 H 319.462 3.48204 1.69803 0
M  V30 3526 H 319.876 5.23368 0.344462 0
M  V30 3527 H 321.35 5.12475 2.05118 0
M  V30 3528 H 321.827 3.52615 2.61838 0
M  V30 3529 H 322.433 4.12002 1.05518 0
M  V30 3530 N 320.748 -0.0735177 1.57428 0
M  V30 3531 C 321.711 -1.07192 2.02589 0
M  V30 3532 C 322.711 -1.31695 0.922661 0
M  V30 3533 O 323.901 -1.27445 1.18758 0
M  V30 3534 C 321.033 -2.41599 2.40506 0
M  V30 3535 H 322.226 -0.682727 2.92025 0
M  V30 3536 H 319.779 -0.319193 1.53006 0
M  V30 3537 H 320.514 -2.85354 1.5409 0
M  V30 3538 H 320.299 -2.25156 3.21009 0
M  V30 3539 H 321.789 -3.13367 2.76027 0
M  V30 3540 N 322.226 -1.5378 -0.344866 0
M  V30 3541 C 323.474 -1.70625 -1.08311 0
M  V30 3542 C 323.795 -0.471447 -1.89215 0
M  V30 3543 O 323.065 0.514616 -1.8902 0
M  V30 3544 H 321.645 -0.629058 -0.402859 0
M  V30 3545 H 324.307 -1.9103 -0.386459 0
M  V30 3546 H 323.403 -2.57656 -1.76124 0
M  V30 3547 N 323.704 0.605807 -1.45491 0
M  V30 3548 C 324.634 1.72709 -1.57143 0
M  V30 3549 C 325.615 1.6476 -0.422884 0
M  V30 3550 O 326.8 1.83132 -0.646247 0
M  V30 3551 C 323.93 3.11316 -1.53948 0
M  V30 3552 C 322.884 3.34077 -2.67537 0
M  V30 3553 C 322.21 4.72975 -2.49397 0
M  V30 3554 C 323.51 3.24158 -4.09535 0
M  V30 3555 H 325.204 1.63214 -2.51001 0
M  V30 3556 H 322.75 0.78379 -1.208 0
M  V30 3557 H 324.703 3.89557 -1.60696 0
M  V30 3558 H 323.427 3.21655 -0.566205 0
M  V30 3559 H 322.086 2.58227 -2.6022 0
M  V30 3560 H 321.734 4.8005 -1.50205 0
M  V30 3561 H 321.434 4.8916 -3.25571 0
M  V30 3562 H 322.958 5.53414 -2.58002 0
M  V30 3563 H 324.372 3.92271 -4.18086 0
M  V30 3564 H 322.769 3.51872 -4.86113 0
M  V30 3565 H 323.839 2.2157 -4.31317 0
M  V30 3566 N 325.182 1.32811 0.848464 0
M  V30 3567 C 326.145 1.22194 1.9391 0
M  V30 3568 C 327.145 0.143404 1.60159 0
M  V30 3569 O 328.335 0.394253 1.6968 0
M  V30 3570 C 325.467 0.88067 3.29328 0
M  V30 3571 H 326.66 2.19127 2.04752 0
M  V30 3572 H 324.213 1.16731 1.0394 0
M  V30 3573 H 324.948 -0.0865776 3.24184 0
M  V30 3574 H 324.733 1.66052 3.55203 0
M  V30 3575 H 326.223 0.830871 4.09251 0
M  V30 3576 N 326.66 -1.06551 1.16123 0
M  V30 3577 C 328.076 -1.3142 0.905585 0
M  V30 3578 C 328.276 -1.96571 -0.442964 0
M  V30 3579 O 327.332 -2.23068 -1.18308 0
M  V30 3580 C 328.645 -2.19741 2.05267 0
M  V30 3581 C 330.193 -2.33165 2.08813 0
M  V30 3582 C 330.668 -3.24838 3.22868 0
M  V30 3583 N 332.159 -3.32421 3.22568 0
M  V30 3584 C 332.894 -4.0344 4.0746 0
M  V30 3585 N 332.39 -4.77003 5.02434 0
M  V30 3586 N 334.183 -3.99464 3.95456 0
M  V30 3587 H 326.334 -0.626548 2.02949 0
M  V30 3588 H 328.597 -0.338777 0.8854 0
M  V30 3589 H 328.303 -1.79142 3.02657 0
M  V30 3590 H 328.177 -3.20313 1.99198 0
M  V30 3591 H 330.564 -2.73013 1.12018 0
M  V30 3592 H 330.645 -1.3227 2.18948 0
M  V30 3593 H 330.289 -2.85708 4.19921 0
M  V30 3594 H 330.219 -4.25707 3.0997 0
M  V30 3595 H 332.71 -2.79994 2.53795 0
M  V30 3596 H 333.023 -5.28712 5.63634 0
M  V30 3597 H 331.368 -4.75992 5.06415 0
M  V30 3598 H 334.559 -3.4111 3.20564 0
M  V30 3599 H 334.732 -4.54544 4.61837 0
M  V30 3600 N 328.138 -0.959301 -1.25041 0
M  V30 3601 C 329.068 -0.501388 -2.28053 0
M  V30 3602 C 330.049 0.454673 -1.63911 0
M  V30 3603 O 331.234 0.352618 -1.90972 0
M  V30 3604 C 328.364 0.217224 -3.4662 0
M  V30 3605 C 327.318 -0.654034 -4.22973 0
M  V30 3606 C 326.644 0.195589 -5.34342 0
M  V30 3607 C 327.944 -1.93447 -4.85155 0
M  V30 3608 H 329.638 -1.36238 -2.66608 0
M  V30 3609 H 327.184 -0.656534 -1.28163 0
M  V30 3610 H 329.137 0.548732 -4.17812 0
M  V30 3611 H 327.861 1.1125 -3.07068 0
M  V30 3612 H 326.52 -0.968693 -3.5357 0
M  V30 3613 H 326.168 1.09076 -4.91031 0
M  V30 3614 H 325.868 -0.384091 -5.86343 0
M  V30 3615 H 327.392 0.521958 -6.08365 0
M  V30 3616 H 328.806 -1.66908 -5.48466 0
M  V30 3617 H 327.203 -2.46018 -5.47353 0
M  V30 3618 H 328.273 -2.63466 -4.07079 0
M  V30 3619 N 329.616 1.39756 -0.72842 0
M  V30 3620 C 330.548 2.29157 -0.0446202 0
M  V30 3621 C 331.561 1.46484 0.710367 0
M  V30 3622 O 332.75 1.69632 0.55562 0
M  V30 3623 C 329.85 3.24987 0.961071 0
M  V30 3624 C 329.023 4.36572 0.268967 0
M  V30 3625 C 328.082 5.12756 1.18184 0
M  V30 3626 O 327.108 5.6534 0.661794 0
M  V30 3627 N 328.31 5.23331 2.51206 0
M  V30 3628 H 331.075 2.88482 -0.812295 0
M  V30 3629 H 328.636 1.51265 -0.577098 0
M  V30 3630 H 330.628 3.72827 1.57423 0
M  V30 3631 H 329.198 2.66739 1.63 0
M  V30 3632 H 328.418 3.90694 -0.524574 0
M  V30 3633 H 329.706 5.08363 -0.210934 0
M  V30 3634 H 329.104 4.82116 2.9594 0
M  V30 3635 H 327.661 5.74634 3.07634 0
M  V30 3636 N 331.094 0.475555 1.50254 0
M  V30 3637 C 332.371 -0.139685 1.95101 0
M  V30 3638 C 332.751 -1.56555 1.41611 0
M  V30 3639 O 332.099 -2.19956 0.618993 0
M  V30 3640 C 332.309 -0.0784298 3.48912 0
M  V30 3641 C 333.657 -0.265095 4.23772 0
M  V30 3642 O 334.681 -0.154808 3.55863 0
M  V30 3643 O 333.54 -0.488327 5.44314 0
M  V30 3644 H 330.634 -0.109236 0.819754 0
M  V30 3645 H 333.18 0.536276 1.61004 0
M  V30 3646 H 331.952 0.916918 3.80405 0
M  V30 3647 H 331.575 -0.795655 3.89558 0
M  V30 3648 N 332.573 -1.56217 0.208337 0
M  V30 3649 C 333.803 -2.02043 -0.431523 0
M  V30 3650 C 334.211 -1.08755 -1.54819 0
M  V30 3651 O 333.554 -0.0870009 -1.83494 0
M  V30 3652 C 333.616 -3.44239 -1.03633 0
M  V30 3653 C 333.28 -4.56965 -0.0567502 0
M  V30 3654 C 334.277 -5.14624 0.738773 0
M  V30 3655 C 331.962 -5.02266 0.0581736 0
M  V30 3656 C 333.956 -6.16045 1.63605 0
M  V30 3657 C 331.643 -6.03528 0.959001 0
M  V30 3658 C 332.641 -6.60293 1.7465 0
M  V30 3659 O 332.329 -7.59586 2.6322 0
M  V30 3660 H 332.061 -0.666772 -0.111313 0
M  V30 3661 H 334.615 -2.02919 0.318277 0
M  V30 3662 H 332.845 -3.40391 -1.83497 0
M  V30 3663 H 334.534 -3.73793 -1.58221 0
M  V30 3664 H 335.3 -4.80483 0.660364 0
M  V30 3665 H 331.179 -4.57771 -0.544633 0
M  V30 3666 H 334.723 -6.60279 2.25116 0
M  V30 3667 H 330.62 -6.37092 1.03848 0
M  V30 3668 H 331.388 -7.77057 2.57148 0
M  V30 3669 N 334.051 0.0651679 -1.57465 0
M  V30 3670 C 335.298 0.763063 -1.87573 0
M  V30 3671 C 335.626 1.77242 -0.800961 0
M  V30 3672 O 334.881 1.94651 0.202316 0
M  V30 3673 C 335.18 1.50081 -3.24362 0
M  V30 3674 C 334.846 0.630816 -4.46466 0
M  V30 3675 C 333.508 0.391082 -4.79608 0
M  V30 3676 C 335.86 0.0279465 -5.21193 0
M  V30 3677 C 333.188 -0.460894 -5.84887 0
M  V30 3678 C 335.54 -0.811522 -6.27373 0
M  V30 3679 C 334.204 -1.06106 -6.59013 0
M  V30 3680 H 333.474 0.279224 -0.686378 0
M  V30 3681 H 336.121 0.0236726 -1.91485 0
M  V30 3682 H 334.426 2.31258 -3.16271 0
M  V30 3683 H 336.123 2.04571 -3.44894 0
M  V30 3684 H 332.713 0.8278 -4.2053 0
M  V30 3685 H 336.897 0.200262 -4.95896 0
M  V30 3686 H 332.153 -0.662907 -6.07796 0
M  V30 3687 H 336.327 -1.28537 -6.84435 0
M  V30 3688 H 333.954 -1.723 -7.40417 0
M  V30 3689 N 335.529 1.53961 0.336706 0
M  V30 3690 C 336.775 1.7273 1.07406 0
M  V30 3691 C 337.13 0.488095 1.86106 0
M  V30 3692 O 336.423 -0.519379 1.84426 0
M  V30 3693 C 336.617 2.93493 2.03953 0
M  V30 3694 C 336.446 4.29039 1.34744 0
M  V30 3695 C 335.216 4.93416 1.08942 0
M  V30 3696 C 337.414 5.08501 0.770115 0
M  V30 3697 N 335.396 6.12821 0.363864 0
M  V30 3698 C 336.767 6.19752 0.175472 0
M  V30 3699 C 338.822 4.93349 0.671633 0
M  V30 3700 C 337.525 7.17503 -0.508081 0
M  V30 3701 C 339.551 5.914 0.0018076 0
M  V30 3702 C 338.913 7.01993 -0.581835 0
M  V30 3703 H 335.012 0.685026 0.377177 0
M  V30 3704 H 337.596 1.91403 0.356815 0
M  V30 3705 H 335.767 2.76308 2.72962 0
M  V30 3706 H 337.499 3.00949 2.70577 0
M  V30 3707 H 334.254 4.53099 1.37833 0
M  V30 3708 H 334.678 6.76998 0.0156092 0
M  V30 3709 H 339.32 4.08007 1.1086 0
M  V30 3710 H 337.038 8.02414 -0.956918 0
M  V30 3711 H 340.624 5.81753 -0.0738538 0
M  V30 3712 H 339.504 7.76561 -1.09192 0
M  V30 3713 N 337.007 -0.598083 1.45811 0
M  V30 3714 C 337.957 -1.70272 1.51629 0
M  V30 3715 C 338.941 -1.56382 0.378629 0
M  V30 3716 O 340.133 -1.65557 0.626087 0
M  V30 3717 C 337.262 -3.09042 1.49493 0
M  V30 3718 C 336.348 -3.28284 2.68496 0
M  V30 3719 N 336.739 -3.17748 3.93535 0
M  V30 3720 C 335.037 -3.59182 2.64394 0
M  V30 3721 C 335.738 -3.38579 4.7301 0
M  V30 3722 N 334.714 -3.63016 4.04624 0
M  V30 3723 H 338.516 -1.60634 2.46118 0
M  V30 3724 H 336.03 -0.801642 1.41235 0
M  V30 3725 H 338.027 -3.88302 1.51747 0
M  V30 3726 H 336.687 -3.19823 0.560683 0
M  V30 3727 H 337.698 -2.95944 4.25014 0
M  V30 3728 H 334.375 -3.76742 1.79922 0
M  V30 3729 H 335.765 -3.35747 5.82 0
M  V30 3730 N 338.485 -1.33259 -0.841409 0
M  V30 3731 C 339.733 -1.24326 -1.59334 0
M  V30 3732 C 340.054 0.191564 -1.94057 0
M  V30 3733 O 339.324 1.11967 -1.60749 0
M  V30 3734 H 337.904 -0.457174 -0.590763 0
M  V30 3735 H 340.566 -1.66947 -1.00571 0
M  V30 3736 H 339.662 -1.8352 -2.52442 0
M  V30 3737 N 339.963 1.05934 -1.16686 0
M  V30 3738 C 341.24 1.75643 -0.860747 0
M  V30 3739 C 341.62 2.01144 0.640641 0
M  V30 3740 O 340.968 1.64147 1.58959 0
M  V30 3741 C 341.178 3.05493 -1.68745 0
M  V30 3742 C 342.526 3.79581 -1.90271 0
M  V30 3743 O 343.55 3.15344 -1.65641 0
M  V30 3744 O 342.409 4.9499 -2.31618 0
M  V30 3745 H 339.503 0.763426 -0.317977 0
M  V30 3746 H 342.049 1.1217 -1.27342 0
M  V30 3747 H 340.821 2.8264 -2.70611 0
M  V30 3748 H 340.444 3.76702 -1.27206 0
M  V30 3749 N 341.441 0.965919 1.2453 0
M  V30 3750 C 342.857 0.67216 1.44756 0
M  V30 3751 C 343.057 -0.766609 1.86347 0
M  V30 3752 O 342.113 -1.5407 2.00047 0
M  V30 3753 C 343.426 1.65473 2.51076 0
M  V30 3754 C 344.974 1.66716 2.64905 0
M  V30 3755 C 345.449 2.63766 3.74421 0
M  V30 3756 N 346.94 2.62198 3.81846 0
M  V30 3757 C 347.675 3.33966 4.66106 0
M  V30 3758 N 347.171 4.15245 5.54566 0
M  V30 3759 N 348.964 3.22799 4.60171 0
M  V30 3760 H 341.115 1.89553 0.958293 0
M  V30 3761 H 343.378 0.815979 0.482579 0
M  V30 3762 H 343.084 2.68296 2.27399 0
M  V30 3763 H 342.958 1.4261 3.49202 0
M  V30 3764 H 345.345 0.646057 2.87941 0
M  V30 3765 H 345.426 1.93642 1.67142 0
M  V30 3766 H 345.07 3.6601 3.52135 0
M  V30 3767 H 345 2.34121 4.71694 0
M  V30 3768 H 347.491 2.032 3.18619 0
M  V30 3769 H 347.804 4.66898 6.15814 0
M  V30 3770 H 346.149 4.1934 5.54237 0
M  V30 3771 H 349.34 2.58764 3.90075 0
M  V30 3772 H 349.513 3.78994 5.25612 0
M  V30 3773 N 342.919 -1.39368 0.735821 0
M  V30 3774 C 343.849 -2.33234 0.111506 0
M  V30 3775 C 344.83 -1.53954 -0.723334 0
M  V30 3776 O 346.015 -1.82344 -0.668147 0
M  V30 3777 C 343.145 -3.38057 -0.795917 0
M  V30 3778 C 342.099 -4.2795 -0.065172 0
M  V30 3779 C 341.425 -5.23479 -1.08967 0
M  V30 3780 C 342.725 -5.10741 1.09273 0
M  V30 3781 H 344.419 -2.85692 0.895571 0
M  V30 3782 H 341.965 -1.37364 0.432109 0
M  V30 3783 H 343.918 -4.02675 -1.24221 0
M  V30 3784 H 342.642 -2.8404 -1.61211 0
M  V30 3785 H 341.301 -3.64813 0.361511 0
M  V30 3786 H 340.949 -4.65758 -1.89944 0
M  V30 3787 H 340.649 -5.84472 -0.605489 0
M  V30 3788 H 342.173 -5.90974 -1.53565 0
M  V30 3789 H 343.587 -5.68699 0.724841 0
M  V30 3790 H 341.984 -5.8088 1.50659 0
M  V30 3791 H 343.054 -4.45525 1.91404 0
M  V30 3792 N 344.397 -0.483516 -1.5 0
M  V30 3793 C 345.344 0.304164 -2.28787 0
M  V30 3794 C 346.314 0.976114 -1.34392 0
M  V30 3795 O 347.499 0.986156 -1.63339 0
M  V30 3796 C 344.639 1.37298 -3.16612 0
M  V30 3797 C 343.752 0.714561 -4.26049 0
M  V30 3798 C 342.887 1.76232 -5.01114 0
M  V30 3799 C 341.926 1.08483 -6.0241 0
M  V30 3800 N 341.063 2.076 -6.70706 0
M  V30 3801 H 345.903 -0.373981 -2.95644 0
M  V30 3802 H 343.44 -0.196275 -1.45785 0
M  V30 3803 H 345.398 2.00445 -3.65893 0
M  V30 3804 H 344.028 2.02012 -2.51776 0
M  V30 3805 H 343.08 -0.0297798 -3.80388 0
M  V30 3806 H 344.392 0.180383 -4.98474 0
M  V30 3807 H 343.546 2.46929 -5.54176 0
M  V30 3808 H 342.285 2.33033 -4.28424 0
M  V30 3809 H 341.29 0.363545 -5.48597 0
M  V30 3810 H 342.515 0.523551 -6.77079 0
M  V30 3811 H 340.461 2.63394 -6.00799 0
M  V30 3812 H 340.378 1.59201 -7.39047 0
M  V30 3813 H 341.646 2.77639 -7.2838 0
M  V30 3814 N 345.875 1.56104 -0.216619 0
M  V30 3815 C 347.152 1.89988 0.465165 0
M  V30 3816 C 347.532 1.13326 1.78102 0
M  V30 3817 O 346.88 0.241033 2.27225 0
M  V30 3818 C 347.09 3.42646 0.662939 0
M  V30 3819 C 348.438 4.13311 0.972602 0
M  V30 3820 O 349.462 3.48217 0.749901 0
M  V30 3821 O 348.321 5.28396 1.39499 0
M  V30 3822 H 345.415 0.78979 0.245276 0
M  V30 3823 H 347.961 1.67721 -0.258436 0
M  V30 3824 H 346.733 3.90399 -0.26543 0
M  V30 3825 H 346.356 3.70677 1.43821 0
M  V30 3826 N 347.353 -0.0568162 1.57498 0
M  V30 3827 C 348.583 -0.764515 1.91934 0
M  V30 3828 C 348.991 -1.70877 0.81227 0
M  V30 3829 O 348.334 -1.82351 -0.222213 0
M  V30 3830 C 348.396 -1.5994 3.21962 0
M  V30 3831 C 348.06 -0.822925 4.4953 0
M  V30 3832 C 349.057 -0.135464 5.19723 0
M  V30 3833 C 346.742 -0.785666 4.96117 0
M  V30 3834 C 348.736 0.578861 6.34766 0
M  V30 3835 C 346.423 -0.0675784 6.11063 0
M  V30 3836 C 347.421 0.613471 6.80239 0
M  V30 3837 O 347.109 1.31996 7.92989 0
M  V30 3838 H 346.841 -0.221647 0.63863 0
M  V30 3839 H 349.395 -0.0268218 2.05382 0
M  V30 3840 H 347.625 -2.38026 3.04763 0
M  V30 3841 H 349.314 -2.18715 3.41934 0
M  V30 3842 H 350.08 -0.155458 4.84751 0
M  V30 3843 H 345.959 -1.30524 4.42136 0
M  V30 3844 H 349.503 1.111 6.88696 0
M  V30 3845 H 345.4 -0.0455636 6.45484 0
M  V30 3846 H 346.168 1.23077 8.09194 0
M  V30 3847 N 348.832 -1.54138 -0.328536 0
M  V30 3848 C 349.779 -1.83176 -1.40411 0
M  V30 3849 C 350.749 -0.678494 -1.5161 0
M  V30 3850 O 351.934 -0.92443 -1.6691 0
M  V30 3851 C 349.074 -2.06035 -2.76846 0
M  V30 3852 C 348.187 -3.33727 -2.74318 0
M  V30 3853 C 347.322 -3.46574 -4.02567 0
M  V30 3854 C 346.361 -4.68159 -3.94327 0
M  V30 3855 N 345.498 -4.77959 -5.14296 0
M  V30 3856 H 350.338 -2.74938 -1.14948 0
M  V30 3857 H 347.875 -1.36166 -0.556538 0
M  V30 3858 H 349.833 -2.1728 -3.56153 0
M  V30 3859 H 348.463 -1.1757 -3.00628 0
M  V30 3860 H 347.515 -3.31246 -1.8703 0
M  V30 3861 H 348.827 -4.23139 -2.64111 0
M  V30 3862 H 347.981 -3.57333 -4.90304 0
M  V30 3863 H 346.72 -2.55245 -4.15574 0
M  V30 3864 H 345.725 -4.57461 -3.04974 0
M  V30 3865 H 346.95 -5.60868 -3.82889 0
M  V30 3866 H 344.896 -3.89544 -5.27818 0
M  V30 3867 H 344.813 -5.6133 -5.06404 0
M  V30 3868 H 346.081 -4.93044 -6.03761 0
M  V30 3869 N 350.31 0.590341 -1.46126 0
M  V30 3870 C 351.22 1.72793 -1.58681 0
M  V30 3871 C 352.236 1.67516 -0.470566 0
M  V30 3872 O 353.412 1.87562 -0.733642 0
M  V30 3873 C 350.477 3.09287 -1.5666 0
M  V30 3874 C 349.538 3.25886 -2.79458 0
M  V30 3875 C 348.771 4.55869 -2.77524 0
M  V30 3876 O 348.994 5.3928 -1.85832 0
M  V30 3877 O 347.928 4.75552 -3.68964 0
M  V30 3878 H 351.754 1.65149 -2.54872 0
M  V30 3879 H 349.339 0.756486 -1.28832 0
M  V30 3880 H 351.221 3.90577 -1.58202 0
M  V30 3881 H 349.896 3.17385 -0.636271 0
M  V30 3882 H 348.803 2.44119 -2.83472 0
M  V30 3883 H 350.136 3.22675 -3.71674 0
M  V30 3884 N 351.788 1.33704 0.83433 0
M  V30 3885 C 353.016 1.28467 1.62185 0
M  V30 3886 C 353.431 -0.143526 1.88254 0
M  V30 3887 O 352.788 -1.08709 1.4659 0
M  V30 3888 C 352.839 2.06174 2.96942 0
M  V30 3889 O 352.56 3.43422 2.72016 0
M  V30 3890 C 354.061 2.08201 3.91366 0
M  V30 3891 H 351.281 0.4424 0.504503 0
M  V30 3892 H 353.825 1.76145 1.03891 0
M  V30 3893 H 351.98 1.62167 3.51825 0
M  V30 3894 H 352.394 3.83453 3.57861 0
M  V30 3895 H 353.868 2.67017 4.83121 0
M  V30 3896 H 354.345 1.07343 4.2588 0
M  V30 3897 H 354.951 2.52246 3.42421 0
M  V30 3898 N 353.266 -1.05314 1.17247 0
M  V30 3899 C 354.682 -1.30452 0.919473 0
M  V30 3900 C 354.882 -1.9703 -0.42209 0
M  V30 3901 O 353.938 -2.24311 -1.15935 0
M  V30 3902 C 355.251 -2.17551 2.07586 0
M  V30 3903 C 356.799 -2.30937 2.11275 0
M  V30 3904 C 357.274 -3.21396 3.26296 0
M  V30 3905 N 358.765 -3.28981 3.26076 0
M  V30 3906 C 359.5 -3.99095 4.11716 0
M  V30 3907 N 358.996 -4.71648 5.07465 0
M  V30 3908 N 360.789 -3.95247 3.9967 0
M  V30 3909 H 352.94 -0.604988 2.03602 0
M  V30 3910 H 355.203 -0.329368 0.888944 0
M  V30 3911 H 354.909 -1.75921 3.0454 0
M  V30 3912 H 354.783 -3.18182 2.02584 0
M  V30 3913 H 357.17 -2.71809 1.14907 0
M  V30 3914 H 357.251 -1.2994 2.20339 0
M  V30 3915 H 356.895 -2.81238 4.22927 0
M  V30 3916 H 356.825 -4.22395 3.14467 0
M  V30 3917 H 359.316 -2.77286 2.5675 0
M  V30 3918 H 359.629 -5.22705 5.6921 0
M  V30 3919 H 357.974 -4.70594 5.11435 0
M  V30 3920 H 361.165 -3.37691 3.24164 0
M  V30 3921 H 361.338 -4.4962 4.66632 0
M  V30 3922 N 354.744 -0.972509 -1.24016 0
M  V30 3923 C 355.692 -0.498562 -2.27194 0
M  V30 3924 C 356.686 0.440372 -1.63576 0
M  V30 3925 O 357.892 0.315133 -1.7722 0
M  V30 3926 H 354.267 -0.142775 -0.738322 0
M  V30 3927 H 356.238 -1.38065 -2.64539 0
M  V30 3928 C 354.987 0.191072 -3.47175 0
M  V30 3929 H 354.31 -0.522318 -3.96373 0
M  V30 3930 H 355.75 0.486445 -4.212 0
M  V30 3931 C 354.209 1.41967 -3.05527 0
M  V30 3932 O 354.739 2.51642 -3.13112 0
M  V30 3933 N 352.945 1.28746 -2.60524 0
M  V30 3934 H 352.492 0.395089 -2.54552 0
M  V30 3935 H 352.45 2.11061 -2.33025 0
M  V30 3936 N 356.222 1.38976 -0.743202 0
M  V30 3937 C 357.47 1.99948 -0.29417 0
M  V30 3938 C 357.791 1.59279 1.12495 0
M  V30 3939 O 357.061 0.844808 1.76748 0
M  V30 3940 H 355.641 0.739473 -0.105774 0
M  V30 3941 H 358.303 1.699 -0.954986 0
M  V30 3942 H 357.399 3.10142 -0.349056 0
M  V30 3943 N 357.7 0.491464 1.49741 0
M  V30 3944 C 358.633 -0.338464 2.25676 0
M  V30 3945 C 359.611 -0.978676 1.29849 0
M  V30 3946 O 360.795 -1.01064 1.59117 0
M  V30 3947 C 357.922 -1.47588 3.04853 0
M  V30 3948 C 356.968 -0.951 4.15762 0
M  V30 3949 S 357.801 0.150626 5.35288 0
M  V30 3950 C 358.957 -0.990178 6.18018 0
M  V30 3951 H 359.19 0.306068 2.9572 0
M  V30 3952 H 356.723 0.276622 1.51902 0
M  V30 3953 H 358.681 -2.12764 3.51058 0
M  V30 3954 H 357.342 -2.09199 2.34296 0
M  V30 3955 H 356.535 -1.80311 4.70642 0
M  V30 3956 H 356.137 -0.376607 3.72099 0
M  V30 3957 H 358.429 -1.89748 6.50386 0
M  V30 3958 H 359.372 -0.480205 7.0647 0
M  V30 3959 H 359.78 -1.25321 5.50413 0
M  V30 3960 N 359.178 -1.55987 0.224894 0
M  V30 3961 C 360.424 -1.98684 -0.406502 0
M  V30 3962 C 360.757 -1.11248 -1.59177 0
M  V30 3963 O 360.032 -0.170909 -1.93748 0
M  V30 3964 C 360.315 -3.50218 -0.837808 0
M  V30 3965 C 360.168 -4.48426 0.351332 0
M  V30 3966 C 361.487 -4.06243 -1.69278 0
M  V30 3967 H 358.606 -0.722337 -0.146283 0
M  V30 3968 H 361.248 -1.87255 0.321799 0
M  V30 3969 H 359.398 -3.60089 -1.45837 0
M  V30 3970 H 361.07 -4.50562 0.989526 0
M  V30 3971 H 359.313 -4.22159 0.998207 0
M  V30 3972 H 359.984 -5.52 0.00655905 0
M  V30 3973 H 362.46 -3.99337 -1.16914 0
M  V30 3974 H 361.336 -5.12581 -1.96346 0
M  V30 3975 H 361.597 -3.53332 -2.65723 0
M  V30 3976 N 360.656 0.0484629 -1.57525 0
M  V30 3977 C 361.904 0.741657 -1.88 0
M  V30 3978 C 362.225 1.76918 -0.820054 0
M  V30 3979 O 361.495 1.95335 0.148661 0
M  V30 3980 H 360.075 0.276908 -0.69378 0
M  V30 3981 H 362.737 0.019013 -1.94891 0
M  V30 3982 H 361.833 1.24336 -2.86264 0
M  V30 3983 N 362.134 1.5431 0.320358 0
M  V30 3984 C 363.097 1.83195 1.3774 0
M  V30 3985 C 364.097 0.703906 1.44575 0
M  V30 3986 O 365.287 0.972214 1.44546 0
M  V30 3987 C 362.419 1.99487 2.76438 0
M  V30 3988 H 363.612 2.77642 1.1338 0
M  V30 3989 H 361.165 1.46076 0.556012 0
M  V30 3990 H 361.9 1.07262 3.06048 0
M  V30 3991 H 361.685 2.81575 2.7287 0
M  V30 3992 H 363.175 2.23271 3.52902 0
M  V30 3993 N 363.613 -0.582584 1.46437 0
M  V30 3994 C 364.89 -1.34276 1.4223 0
M  V30 3995 C 365.27 -2.10835 0.10583 0
M  V30 3996 O 364.618 -2.09485 -0.912596 0
M  V30 3997 C 364.828 -2.26865 2.65204 0
M  V30 3998 C 366.176 -2.88691 3.11356 0
M  V30 3999 O 367.2 -2.37178 2.65753 0
M  V30 4000 O 366.059 -3.82255 3.90568 0
M  V30 4001 H 363.153 -0.603326 0.565621 0
M  V30 4002 H 365.699 -0.603591 1.58603 0
M  V30 4003 H 364.471 -1.69724 3.52576 0
M  V30 4004 H 364.094 -3.08122 2.5129 0
M  V30 4005 N 365.091 -1.34144 -0.827227 0
M  V30 4006 C 366.321 -1.29138 -1.61267 0
M  V30 4007 C 366.729 0.137597 -1.88699 0
M  V30 4008 O 366.072 1.09379 -1.47587 0
M  V30 4009 C 366.134 -2.0097 -2.9808 0
M  V30 4010 C 365.798 -3.50242 -2.93563 0
M  V30 4011 C 366.795 -4.4523 -2.68452 0
M  V30 4012 C 364.48 -3.92592 -3.13331 0
M  V30 4013 C 366.474 -5.80542 -2.63154 0
M  V30 4014 C 364.161 -5.28005 -3.07658 0
M  V30 4015 C 365.159 -6.21792 -2.82602 0
M  V30 4016 O 364.847 -7.54723 -2.76853 0
M  V30 4017 H 364.579 -0.445851 -0.508127 0
M  V30 4018 H 367.133 -1.77263 -1.03763 0
M  V30 4019 H 365.363 -1.47451 -3.57484 0
M  V30 4020 H 367.052 -1.89309 -3.5905 0
M  V30 4021 H 367.818 -4.13832 -2.52919 0
M  V30 4022 H 363.697 -3.19994 -3.31851 0
M  V30 4023 H 367.241 -6.53717 -2.43516 0
M  V30 4024 H 363.138 -5.59023 -3.22743 0
M  V30 4025 H 363.906 -7.64409 -2.92611 0
M  V30 4026 N 366.569 1.04691 -1.17803 0
M  V30 4027 C 367.794 1.81984 -0.994813 0
M  V30 4028 C 368.219 1.82586 0.452112 0
M  V30 4029 O 367.577 1.23854 1.324 0
M  V30 4030 C 367.625 3.2575 -1.54659 0
M  V30 4031 O 366.729 4.05267 -0.763728 0
M  V30 4032 H 366.07 0.562483 -0.352857 0
M  V30 4033 H 368.6 1.3189 -1.56417 0
M  V30 4034 H 368.61 3.76541 -1.57102 0
M  V30 4035 H 367.285 3.24627 -2.59981 0
M  V30 4036 H 365.862 3.63972 -0.811108 0
M  V30 4037 N 368.047 0.979072 1.23499 0
M  V30 4038 C 369.272 0.664845 1.96455 0
M  V30 4039 C 369.697 -0.761287 1.72006 0
M  V30 4040 O 369.055 -1.51837 0.990713 0
M  V30 4041 C 369.103 0.959479 3.47601 0
M  V30 4042 O 368.207 0.0508168 4.12369 0
M  V30 4043 H 367.548 0.250185 0.615064 0
M  V30 4044 H 370.078 1.31231 1.5697 0
M  V30 4045 H 370.088 0.895642 3.98048 0
M  V30 4046 H 368.763 1.99876 3.64723 0
M  V30 4047 H 367.34 0.16895 3.72517 0
M  V30 4048 N 369.525 -1.3858 0.750561 0
M  V30 4049 C 370.472 -2.30483 0.120835 0
M  V30 4050 C 371.442 -1.50022 -0.712923 0
M  V30 4051 O 372.627 -1.78662 -0.669676 0
M  V30 4052 C 369.767 -3.36431 -0.768666 0
M  V30 4053 C 368.88 -4.31927 0.0793922 0
M  V30 4054 C 368.015 -5.24944 -0.81283 0
M  V30 4055 C 367.054 -6.12088 0.0390447 0
M  V30 4056 N 366.191 -6.97412 -0.809969 0
M  V30 4057 H 371.031 -2.83761 0.91015 0
M  V30 4058 H 368.568 -1.39707 0.460463 0
M  V30 4059 H 370.526 -3.96462 -1.29898 0
M  V30 4060 H 369.156 -2.8457 -1.5238 0
M  V30 4061 H 368.208 -3.73382 0.727303 0
M  V30 4062 H 369.52 -4.93319 0.737401 0
M  V30 4063 H 368.674 -5.90078 -1.41042 0
M  V30 4064 H 367.413 -4.63911 -1.50458 0
M  V30 4065 H 366.418 -5.45952 0.649328 0
M  V30 4066 H 367.643 -6.75189 0.727809 0
M  V30 4067 H 365.589 -6.38931 -1.48672 0
M  V30 4068 H 365.506 -7.55712 -0.208789 0
M  V30 4069 H 366.774 -7.66959 -1.39263 0
M  V30 4070 N 371.003 -0.499398 -1.49478 0
M  V30 4071 C 372.25 0.0456899 -2.02448 0
M  V30 4072 C 372.578 1.37142 -1.37921 0
M  V30 4073 O 371.833 1.89111 -0.503544 0
M  V30 4074 C 372.132 0.248424 -3.56536 0
M  V30 4075 C 371.798 -0.999107 -4.39692 0
M  V30 4076 C 370.46 -1.34108 -4.62135 0
M  V30 4077 C 372.812 -1.82842 -4.88076 0
M  V30 4078 C 370.14 -2.51191 -5.30208 0
M  V30 4079 C 372.492 -2.99076 -5.57437 0
M  V30 4080 C 371.156 -3.33655 -5.78127 0
M  V30 4081 H 370.426 0.0167191 -0.740811 0
M  V30 4082 H 373.073 -0.65923 -1.79795 0
M  V30 4083 H 371.378 1.03586 -3.77859 0
M  V30 4084 H 373.075 0.684605 -3.95113 0
M  V30 4085 H 369.665 -0.722729 -4.22463 0
M  V30 4086 H 373.849 -1.57737 -4.70566 0
M  V30 4087 H 369.105 -2.78221 -5.44429 0
M  V30 4088 H 373.279 -3.63664 -5.93904 0
M  V30 4089 H 370.906 -4.24483 -6.30649 0
M  V30 4090 N 372.481 1.55866 -0.233164 0
M  V30 4091 C 373.706 2.03449 0.402906 0
M  V30 4092 C 374.131 1.11166 1.51736 0
M  V30 4093 O 373.489 0.101996 1.81013 0
M  V30 4094 C 373.537 3.49165 0.9009 0
M  V30 4095 O 372.641 3.60019 2.01147 0
M  V30 4096 H 371.982 0.657913 0.0897025 0
M  V30 4097 H 374.512 2.01493 -0.355201 0
M  V30 4098 H 374.522 3.89716 1.2077 0
M  V30 4099 H 373.197 4.15813 0.0852889 0
M  V30 4100 H 371.774 3.3136 1.71042 0
M  V30 4101 N 373.959 -0.0401083 1.57549 0
M  V30 4102 C 375.37 -0.588097 1.77196 0
M  V30 4103 C 375.721 -1.76209 0.862832 0
M  V30 4104 O 374.846 -2.16331 0.0548389 0
M  V30 4105 C 375.441 -1.07363 3.21339 0
M  V30 4106 C 374 -1.56723 3.42221 0
M  V30 4107 C 373.147 -0.50041 2.72747 0
M  V30 4108 H 376.098 0.186119 1.57605 0
M  V30 4109 H 376.119 -1.94143 3.27244 0
M  V30 4110 H 375.631 -0.218975 3.87482 0
M  V30 4111 H 373.732 -2.4441 2.81237 0
M  V30 4112 H 373.845 -1.62234 4.50796 0
M  V30 4113 H 372.209 -0.952894 2.36203 0
M  V30 4114 H 372.992 0.344599 3.41566 0
M  V30 4115 N 375.437 -1.54477 -0.31217 0
M  V30 4116 C 376.683 -1.74417 -1.04644 0
M  V30 4117 C 377.038 -0.517641 -1.85306 0
M  V30 4118 O 376.331 0.489973 -1.85229 0
M  V30 4119 C 376.525 -2.967 -1.99258 0
M  V30 4120 C 376.354 -4.31128 -1.27901 0
M  V30 4121 C 375.124 -4.95087 -1.01079 0
M  V30 4122 C 377.322 -5.09662 -0.689119 0
M  V30 4123 N 375.304 -6.13322 -0.266323 0
M  V30 4124 C 376.675 -6.19952 -0.0768523 0
M  V30 4125 C 378.73 -4.94355 -0.593061 0
M  V30 4126 C 377.433 -7.16604 0.622165 0
M  V30 4127 C 379.459 -5.91328 0.0922792 0
M  V30 4128 C 378.821 -7.00978 0.693443 0
M  V30 4129 H 374.92 -0.69094 -0.366231 0
M  V30 4130 H 377.504 -1.91946 -0.326319 0
M  V30 4131 H 375.675 -2.80616 -2.68532 0
M  V30 4132 H 377.407 -3.05216 -2.65755 0
M  V30 4133 H 374.162 -4.55235 -1.30607 0
M  V30 4134 H 374.586 -6.76937 0.0920973 0
M  V30 4135 H 379.228 -4.09719 -1.04355 0
M  V30 4136 H 376.946 -8.0079 1.08445 0
M  V30 4137 H 380.532 -5.81562 0.166396 0
M  V30 4138 H 379.412 -7.74725 1.21533 0
M  V30 4139 N 376.915 0.57481 -1.46744 0
M  V30 4140 C 377.845 1.69337 -1.60771 0
M  V30 4141 C 378.826 1.63825 -0.457736 0
M  V30 4142 O 380.011 1.8172 -0.684947 0
M  V30 4143 C 377.141 3.0798 -1.60517 0
M  V30 4144 C 376.095 3.28327 -2.74564 0
M  V30 4145 C 375.421 4.67578 -2.59373 0
M  V30 4146 C 376.721 3.15398 -4.16319 0
M  V30 4147 H 378.415 1.57853 -2.54407 0
M  V30 4148 H 375.961 0.75799 -1.22436 0
M  V30 4149 H 377.914 3.86061 -1.68923 0
M  V30 4150 H 376.638 3.20381 -0.634305 0
M  V30 4151 H 375.297 2.52649 -2.65639 0
M  V30 4152 H 374.945 4.76755 -1.60353 0
M  V30 4153 H 374.645 4.82144 -3.35873 0
M  V30 4154 H 376.169 5.47817 -2.69682 0
M  V30 4155 H 377.583 3.83315 -4.26313 0
M  V30 4156 H 375.98 3.41482 -4.93468 0
M  V30 4157 H 377.05 2.12372 -4.3592 0
M  V30 4158 N 378.394 1.34581 0.820102 0
M  V30 4159 C 379.357 1.2628 1.91275 0
M  V30 4160 C 380.357 0.177344 1.59819 0
M  V30 4161 O 381.547 0.430156 1.68806 0
M  V30 4162 C 378.679 0.950327 3.27386 0
M  V30 4163 H 379.872 2.23421 2.00057 0
M  V30 4164 H 377.425 1.1891 1.0144 0
M  V30 4165 H 378.16 -0.0177938 3.24295 0
M  V30 4166 H 377.945 1.73549 3.51601 0
M  V30 4167 H 379.435 0.917492 4.07396 0
M  V30 4168 N 379.872 -1.04064 1.18357 0
M  V30 4169 C 380.802 -2.14001 0.934113 0
M  V30 4170 C 381.783 -1.69616 -0.128186 0
M  V30 4171 O 382.968 -1.94185 0.0244093 0
M  V30 4172 C 380.098 -3.44253 0.459066 0
M  V30 4173 C 379.052 -4.02261 1.46185 0
M  V30 4174 C 378.378 -5.27992 0.844322 0
M  V30 4175 C 379.678 -4.38432 2.83856 0
M  V30 4176 H 381.372 -2.35127 1.85352 0
M  V30 4177 H 378.918 -1.12998 0.892604 0
M  V30 4178 H 380.871 -4.20522 0.271907 0
M  V30 4179 H 379.595 -3.22813 -0.495912 0
M  V30 4180 H 378.254 -3.28074 1.63595 0
M  V30 4181 H 377.902 -5.02862 -0.117845 0
M  V30 4182 H 377.602 -5.67765 1.51384 0
M  V30 4183 H 379.126 -6.06938 0.667693 0
M  V30 4184 H 380.54 -5.05688 2.70098 0
M  V30 4185 H 378.937 -4.89254 3.47491 0
M  V30 4186 H 380.007 -3.4826 3.37406 0
M  V30 4187 N 381.35 -0.985608 -1.22978 0
M  V30 4188 C 382.598 -0.656087 -1.91154 0
M  V30 4189 C 382.919 0.813561 -1.77218 0
M  V30 4190 O 382.189 1.58244 -1.1548 0
M  V30 4191 H 380.769 -0.239674 -0.707506 0
M  V30 4192 H 383.431 -1.25054 -1.49491 0
M  V30 4193 H 382.527 -0.912253 -2.9847 0
M  V30 4194 N 382.828 1.3818 -0.7579 0
M  V30 4195 C 384.068 2.01864 -0.320968 0
M  V30 4196 C 384.432 1.58863 1.07827 0
M  V30 4197 O 385.633 2.14908 1.61456 0
M  V30 4198 C 383.904 3.54626 -0.44446 0
M  V30 4199 S 385.463 4.38706 -0.0907467 0
M  V30 4200 H 382.281 0.700056 -0.124268 0
M  V30 4201 H 384.883 1.68611 -0.989468 0
M  V30 4202 H 383.587 3.83411 -1.4637 0
M  V30 4203 H 383.118 3.92661 0.241073 0
M  V30 4204 H 385.133 4.83435 1.11826 0
M  V30 4205 N 384.306 0.507319 1.49211 0
M  V30 4206 C 385.236 -0.256939 2.32082 0
M  V30 4207 C 386.217 -0.956609 1.40652 0
M  V30 4208 O 387.402 -0.946788 1.69557 0
M  V30 4209 C 384.532 -1.31802 3.21318 0
M  V30 4210 C 383.486 -0.737855 4.21592 0
M  V30 4211 C 382.812 -1.89992 4.99807 0
M  V30 4212 C 384.112 0.275325 5.21574 0
M  V30 4213 H 385.806 0.434798 2.96226 0
M  V30 4214 H 383.352 0.210546 1.42452 0
M  V30 4215 H 385.305 -1.86045 3.78107 0
M  V30 4216 H 384.029 -2.03903 2.5513 0
M  V30 4217 H 382.688 -0.217126 3.65956 0
M  V30 4218 H 382.336 -2.60877 4.30061 0
M  V30 4219 H 382.036 -1.51777 5.6766 0
M  V30 4220 H 383.56 -2.44657 5.59442 0
M  V30 4221 H 384.974 -0.179193 5.7302 0
M  V30 4222 H 383.371 0.573649 5.97352 0
M  V30 4223 H 384.441 1.18903 4.70096 0
M  V30 4224 N 385.784 -1.5574 0.241426 0
M  V30 4225 C 387.009 -2.0366 -0.392111 0
M  V30 4226 C 387.434 -1.11969 -1.51144 0
M  V30 4227 O 386.792 -0.111594 -1.80956 0
M  V30 4228 C 386.84 -3.49638 -0.882371 0
M  V30 4229 O 385.944 -3.6108 -1.99235 0
M  V30 4230 H 385.285 -0.658379 -0.0862122 0
M  V30 4231 H 387.815 -2.01302 0.365881 0
M  V30 4232 H 387.825 -3.90351 -1.18702 0
M  V30 4233 H 386.5 -4.15852 -0.0632361 0
M  V30 4234 H 385.077 -3.32262 -1.69282 0
M  V30 4235 N 387.262 0.0317525 -1.57568 0
M  V30 4236 C 388.673 0.578692 -1.77505 0
M  V30 4237 C 389.024 1.75749 -0.872164 0
M  V30 4238 O 388.149 2.16298 -0.0663106 0
M  V30 4239 C 388.744 1.05658 -3.21904 0
M  V30 4240 C 387.303 1.54906 -3.43047 0
M  V30 4241 C 386.45 0.485939 -2.73009 0
M  V30 4242 H 389.401 -0.194475 -1.57504 0
M  V30 4243 H 389.422 1.92404 -3.28269 0
M  V30 4244 H 388.934 0.198422 -3.87592 0
M  V30 4245 H 387.035 2.42915 -2.82529 0
M  V30 4246 H 387.148 1.59841 -4.5165 0
M  V30 4247 H 385.512 0.940354 -2.36705 0
M  V30 4248 H 386.295 -0.362709 -3.41379 0
M  V30 4249 N 388.74 1.54641 0.303973 0
M  V30 4250 C 390.156 1.45788 0.649463 0
M  V30 4251 C 390.356 0.64666 1.90842 0
M  V30 4252 O 389.412 0.153183 2.52035 0
M  V30 4253 C 390.725 2.89718 0.805227 0
M  V30 4254 C 392.273 2.99742 0.901305 0
M  V30 4255 C 392.748 4.44863 1.08909 0
M  V30 4256 N 394.239 4.48559 1.15536 0
M  V30 4257 C 394.974 5.58026 1.3189 0
M  V30 4258 N 394.47 6.77422 1.45161 0
M  V30 4259 N 396.263 5.45708 1.34755 0
M  V30 4260 H 388.414 2.05854 -0.523237 0
M  V30 4261 H 390.677 0.932186 -0.172431 0
M  V30 4262 H 390.383 3.51666 -0.0489108 0
M  V30 4263 H 390.257 3.36964 1.69513 0
M  V30 4264 H 392.644 2.3791 1.74593 0
M  V30 4265 H 392.725 2.55797 -0.0125531 0
M  V30 4266 H 392.369 5.07288 0.249241 0
M  V30 4267 H 392.299 4.86436 2.01713 0
M  V30 4268 H 394.79 3.6254 1.06646 0
M  V30 4269 H 395.103 7.56604 1.57387 0
M  V30 4270 H 393.448 6.80292 1.42223 0
M  V30 4271 H 396.639 4.51378 1.23996 0
M  V30 4272 H 396.812 6.3107 1.47157 0
M  V30 4273 N 390.218 -0.567019 1.47046 0
M  V30 4274 C 391.465 -1.32462 1.53167 0
M  V30 4275 C 391.793 -1.93571 0.189841 0
M  V30 4276 O 391.048 -1.77865 -0.816243 0
M  V30 4277 C 391.347 -2.4623 2.59047 0
M  V30 4278 C 391.013 -2.03014 4.02612 0
M  V30 4279 C 389.675 -1.90944 4.41694 0
M  V30 4280 C 392.027 -1.69895 4.92732 0
M  V30 4281 C 389.355 -1.44035 5.68745 0
M  V30 4282 C 391.707 -1.2446 6.20236 0
M  V30 4283 C 390.371 -1.10979 6.5821 0
M  V30 4284 H 389.641 -0.484713 0.560477 0
M  V30 4285 H 392.288 -0.636888 1.80599 0
M  V30 4286 H 390.593 -3.20517 2.25335 0
M  V30 4287 H 392.29 -3.04427 2.61008 0
M  V30 4288 H 388.88 -2.13348 3.71726 0
M  V30 4289 H 393.064 -1.78098 4.63244 0
M  V30 4290 H 388.32 -1.32254 5.96925 0
M  V30 4291 H 392.494 -0.978924 6.89485 0
M  V30 4292 H 390.121 -0.744078 7.5655 0
M  V30 4293 N 391.696 -1.35014 -0.812953 0
M  V30 4294 C 392.945 -1.27269 -1.56479 0
M  V30 4295 C 393.258 0.152771 -1.95002 0
M  V30 4296 O 394.464 0.352451 -2.69203 0
M  V30 4297 C 392.92 -2.23159 -2.82362 0
M  V30 4298 C 392.528 -3.71016 -2.511 0
M  V30 4299 C 394.272 -2.24342 -3.60376 0
M  V30 4300 C 392.179 -4.58746 -3.73237 0
M  V30 4301 H 391.109 -0.472829 -0.587324 0
M  V30 4302 H 393.76 -1.6024 -0.894171 0
M  V30 4303 H 392.142 -1.83151 -3.51101 0
M  V30 4304 H 393.316 -4.1962 -1.90409 0
M  V30 4305 H 391.631 -3.72378 -1.86343 0
M  V30 4306 H 394.228 -2.87107 -4.51081 0
M  V30 4307 H 394.571 -1.24542 -3.97234 0
M  V30 4308 H 395.104 -2.62846 -2.98591 0
M  V30 4309 H 391.843 -5.59521 -3.41492 0
M  V30 4310 H 391.363 -4.14871 -4.33176 0
M  V30 4311 H 393.042 -4.73852 -4.40537 0
M  V30 4312 N 393.175 1.03435 -1.18907 0
M  V30 4313 C 394.405 1.8012 -1.01195 0
M  V30 4314 C 394.813 1.8395 0.442613 0
M  V30 4315 O 394.156 1.27836 1.31923 0
M  V30 4316 C 394.218 3.26792 -1.49823 0
M  V30 4317 C 393.882 3.46609 -2.97844 0
M  V30 4318 C 394.879 3.37278 -3.95651 0
M  V30 4319 C 392.564 3.73001 -3.36416 0
M  V30 4320 C 394.558 3.54054 -5.30023 0
M  V30 4321 C 392.245 3.89423 -4.70949 0
M  V30 4322 C 393.243 3.79951 -5.67562 0
M  V30 4323 O 392.931 3.95895 -6.99659 0
M  V30 4324 H 392.663 0.573865 -0.357289 0
M  V30 4325 H 395.217 1.31207 -1.58031 0
M  V30 4326 H 393.447 3.76703 -0.873578 0
M  V30 4327 H 395.136 3.85055 -1.28404 0
M  V30 4328 H 395.902 3.16846 -3.67197 0
M  V30 4329 H 391.781 3.79469 -2.61772 0
M  V30 4330 H 395.325 3.46577 -6.05417 0
M  V30 4331 H 391.222 4.09351 -4.99101 0
M  V30 4332 H 391.99 4.13019 -7.06653 0
M  V30 4333 N 394.653 0.992116 1.22453 0
M  V30 4334 C 395.585 0.500024 2.23679 0
M  V30 4335 C 396.598 -0.404463 1.57696 0
M  V30 4336 O 397.787 -0.206722 1.77299 0
M  V30 4337 C 394.887 -0.294711 3.37616 0
M  V30 4338 C 394.06 0.605723 4.33186 0
M  V30 4339 C 393.119 -0.13717 5.26021 0
M  V30 4340 O 392.145 0.477164 5.67196 0
M  V30 4341 N 393.347 -1.4197 5.62872 0
M  V30 4342 H 396.112 1.37045 2.66531 0
M  V30 4343 H 393.673 0.866741 1.36745 0
M  V30 4344 H 395.665 -0.800329 3.96707 0
M  V30 4345 H 394.235 -1.06623 2.93854 0
M  V30 4346 H 393.455 1.29202 3.72425 0
M  V30 4347 H 394.743 1.21896 4.93983 0
M  V30 4348 H 394.141 -1.94015 5.31389 0
M  V30 4349 H 392.698 -1.87052 6.24383 0
M  V30 4350 N 396.131 -1.37776 0.765217 0
M  V30 4351 C 397.041 -2.34135 0.147666 0
M  V30 4352 C 398.057 -1.59854 -0.687215 0
M  V30 4353 O 399.233 -1.91983 -0.608659 0
M  V30 4354 C 396.298 -3.3901 -0.72617 0
M  V30 4355 C 395.359 -4.2912 0.124417 0
M  V30 4356 C 394.592 -5.28986 -0.707807 0
M  V30 4357 O 394.815 -5.36205 -1.94525 0
M  V30 4358 O 393.749 -6.01779 -0.12046 0
M  V30 4359 H 397.575 -2.88664 0.943758 0
M  V30 4360 H 395.16 -1.39824 0.526277 0
M  V30 4361 H 397.042 -4.03195 -1.22524 0
M  V30 4362 H 395.717 -2.86819 -1.50056 0
M  V30 4363 H 394.624 -3.68057 0.669696 0
M  V30 4364 H 395.957 -4.84598 0.861736 0
M  V30 4365 N 397.609 -0.515225 -1.4894 0
M  V30 4366 C 398.855 0.0242508 -2.02785 0
M  V30 4367 C 399.188 1.35323 -1.39289 0
M  V30 4368 O 398.463 1.87041 -0.533469 0
M  V30 4369 C 398.746 0.16184 -3.59736 0
M  V30 4370 C 398.599 -1.19127 -4.33738 0
M  V30 4371 C 399.918 0.895719 -4.30888 0
M  V30 4372 H 397.037 0.00733914 -0.736963 0
M  V30 4373 H 399.679 -0.669395 -1.77818 0
M  V30 4374 H 397.829 0.752624 -3.8114 0
M  V30 4375 H 399.501 -1.82202 -4.23792 0
M  V30 4376 H 397.744 -1.77695 -3.95736 0
M  V30 4377 H 398.415 -1.04815 -5.41957 0
M  V30 4378 H 400.891 0.394528 -4.14225 0
M  V30 4379 H 399.767 0.960859 -5.40425 0
M  V30 4380 H 400.028 1.9427 -3.97129 0
M  V30 4381 N 399.087 1.5561 -0.249682 0
M  V30 4382 C 400.034 2.21496 0.648694 0
M  V30 4383 C 401.004 1.17977 1.16921 0
M  V30 4384 O 402.189 1.46434 1.22318 0
M  V30 4385 C 399.329 2.92039 1.83868 0
M  V30 4386 C 398.442 4.10219 1.35442 0
M  V30 4387 C 397.577 4.6847 2.50419 0
M  V30 4388 C 396.616 5.78893 1.98869 0
M  V30 4389 N 395.753 6.31315 3.07223 0
M  V30 4390 H 400.593 2.97892 0.0801582 0
M  V30 4391 H 398.13 1.47074 0.0278031 0
M  V30 4392 H 400.088 3.31138 2.53778 0
M  V30 4393 H 398.718 2.18111 2.37965 0
M  V30 4394 H 397.77 3.76413 0.54928 0
M  V30 4395 H 399.082 4.89927 0.936649 0
M  V30 4396 H 398.236 5.10158 3.28366 0
M  V30 4397 H 396.975 3.87984 2.95499 0
M  V30 4398 H 395.98 5.3668 1.19393 0
M  V30 4399 H 397.205 6.61232 1.54755 0
M  V30 4400 H 395.151 5.53733 3.51732 0
M  V30 4401 H 395.068 7.06224 2.69784 0
M  V30 4402 H 396.336 6.77662 3.8522 0
M  V30 4403 N 400.565 -0.0233959 1.57583 0
M  V30 4404 C 401.981 -0.379134 1.55031 0
M  V30 4405 C 402.181 -1.76255 0.976548 0
M  V30 4406 O 401.237 -2.45266 0.600078 0
M  V30 4407 C 402.55 -0.275792 2.99433 0
M  V30 4408 C 404.098 -0.352458 3.11009 0
M  V30 4409 C 404.573 -0.278501 4.57152 0
M  V30 4410 N 406.064 -0.337123 4.61972 0
M  V30 4411 C 406.799 -0.302876 5.726 0
M  V30 4412 N 406.295 -0.220589 6.92449 0
M  V30 4413 N 408.088 -0.353023 5.6099 0
M  V30 4414 H 400.239 0.881869 1.93227 0
M  V30 4415 H 402.502 0.335867 0.886509 0
M  V30 4416 H 402.208 0.675108 3.4516 0
M  V30 4417 H 402.082 -1.06721 3.61788 0
M  V30 4418 H 404.469 -1.29379 2.65226 0
M  V30 4419 H 404.55 0.468409 2.51475 0
M  V30 4420 H 404.194 0.659189 5.03604 0
M  V30 4421 H 404.124 -1.11755 5.14605 0
M  V30 4422 H 406.615 -0.403002 3.75745 0
M  V30 4423 H 406.928 -0.199713 7.72542 0
M  V30 4424 H 405.273 -0.186555 6.9475 0
M  V30 4425 H 408.464 -0.415339 4.66254 0
M  V30 4426 H 408.637 -0.322866 6.47195 0
M  V30 4427 N 402.043 -1.548 -0.295768 0
M  V30 4428 C 403.273 -1.78069 -1.04762 0
M  V30 4429 C 403.681 -0.542847 -1.81245 0
M  V30 4430 O 403.024 0.497051 -1.76848 0
M  V30 4431 C 403.086 -2.93881 -2.07061 0
M  V30 4432 C 402.75 -4.31777 -1.49725 0
M  V30 4433 C 403.747 -5.11613 -0.924581 0
M  V30 4434 C 401.432 -4.78389 -1.5313 0
M  V30 4435 C 403.426 -6.36184 -0.393594 0
M  V30 4436 C 401.113 -6.02921 -0.996447 0
M  V30 4437 C 402.111 -6.81654 -0.428569 0
M  V30 4438 O 401.799 -8.0384 0.0981593 0
M  V30 4439 H 401.531 -0.597475 -0.316226 0
M  V30 4440 H 404.085 -2.02584 -0.338973 0
M  V30 4441 H 402.315 -2.65003 -2.81621 0
M  V30 4442 H 404.004 -3.04679 -2.6819 0
M  V30 4443 H 404.77 -4.76743 -0.891136 0
M  V30 4444 H 400.649 -4.17132 -1.9627 0
M  V30 4445 H 404.193 -6.97582 0.0503014 0
M  V30 4446 H 400.09 -6.37277 -1.02706 0
M  V30 4447 H 400.858 -8.18499 -0.0146455 0
M  V30 4448 N 403.521 0.559213 -1.47345 0
M  V30 4449 C 404.431 1.69388 -1.62311 0
M  V30 4450 C 405.447 1.6648 -0.505993 0
M  V30 4451 O 406.623 1.85964 -0.773262 0
M  V30 4452 C 403.688 3.05894 -1.63185 0
M  V30 4453 C 402.749 3.19885 -2.86307 0
M  V30 4454 C 401.982 4.49879 -2.87131 0
M  V30 4455 O 402.205 5.35217 -1.97229 0
M  V30 4456 O 401.139 4.67618 -3.78968 0
M  V30 4457 H 404.965 1.59706 -2.58317 0
M  V30 4458 H 402.55 0.728989 -1.30407 0
M  V30 4459 H 404.432 3.87133 -1.66451 0
M  V30 4460 H 403.107 3.15964 -0.70345 0
M  V30 4461 H 402.014 2.38052 -2.88587 0
M  V30 4462 H 403.347 3.14718 -3.78435 0
M  V30 4463 N 404.999 1.35443 0.805782 0
M  V30 4464 C 405.931 1.24285 1.92577 0
M  V30 4465 C 406.944 0.165962 1.61952 0
M  V30 4466 O 408.133 0.419303 1.73505 0
M  V30 4467 C 405.233 0.891272 3.2697 0
M  V30 4468 C 404.406 2.06669 3.85495 0
M  V30 4469 C 403.465 1.69077 4.98297 0
M  V30 4470 O 402.491 2.4096 5.15681 0
M  V30 4471 N 403.693 0.614869 5.77234 0
M  V30 4472 H 406.458 2.20777 2.02676 0
M  V30 4473 H 404.019 1.28623 0.983243 0
M  V30 4474 H 406.011 0.621256 3.99903 0
M  V30 4475 H 404.581 0.016004 3.12596 0
M  V30 4476 H 403.801 2.50046 3.04747 0
M  V30 4477 H 405.089 2.85237 4.21328 0
M  V30 4478 H 404.487 0.017648 5.65697 0
M  V30 4479 H 403.044 0.404636 6.50543 0
M  V30 4480 N 406.477 -1.02803 1.19454 0
M  V30 4481 C 407.387 -2.14575 0.948408 0
M  V30 4482 C 408.403 -1.73757 -0.091871 0
M  V30 4483 O 409.579 -2.01185 0.0929654 0
M  V30 4484 C 406.644 -3.43202 0.491265 0
M  V30 4485 C 405.705 -3.98328 1.60103 0
M  V30 4486 C 404.938 -5.20816 1.16561 0
M  V30 4487 O 405.161 -5.70392 0.0295238 0
M  V30 4488 O 404.095 -5.68801 1.96849 0
M  V30 4489 H 407.921 -2.38202 1.88397 0
M  V30 4490 H 405.506 -1.12989 0.977433 0
M  V30 4491 H 407.388 -4.20687 0.245015 0
M  V30 4492 H 406.063 -3.21018 -0.415851 0
M  V30 4493 H 404.97 -3.22174 1.90144 0
M  V30 4494 H 406.303 -4.24879 2.48473 0
M  V30 4495 N 407.956 -0.998596 -1.21925 0
M  V30 4496 C 409.372 -0.710303 -1.42923 0
M  V30 4497 C 409.572 0.716933 -1.88314 0
M  V30 4498 O 408.628 1.48712 -2.04062 0
M  V30 4499 C 409.941 -1.72072 -2.466 0
M  V30 4500 C 411.489 -1.73681 -2.60392 0
M  V30 4501 C 411.964 -2.73601 -3.67296 0
M  V30 4502 N 413.455 -2.7223 -3.7476 0
M  V30 4503 C 414.19 -3.46206 -4.57087 0
M  V30 4504 N 413.686 -4.29802 -5.43362 0
M  V30 4505 N 415.479 -3.34886 -4.51451 0
M  V30 4506 H 407.63 -1.92028 -0.9077 0
M  V30 4507 H 409.893 -0.828487 -0.460775 0
M  V30 4508 H 409.599 -2.74231 -2.20206 0
M  V30 4509 H 409.473 -1.51818 -3.45299 0
M  V30 4510 H 411.86 -0.722173 -2.86127 0
M  V30 4511 H 411.941 -1.98005 -1.61949 0
M  V30 4512 H 411.585 -3.75217 -3.42307 0
M  V30 4513 H 411.515 -2.46545 -4.65321 0
M  V30 4514 H 414.006 -2.11576 -3.1312 0
M  V30 4515 H 414.319 -4.83061 -6.03218 0
M  V30 4516 H 412.664 -4.33887 -5.42925 0
M  V30 4517 H 415.855 -2.69015 -3.83078 0
M  V30 4518 H 416.028 -3.92796 -5.15379 0
M  V30 4519 N 409.434 1.37368 -0.772513 0
M  V30 4520 C 410.68 1.99969 -0.337681 0
M  V30 4521 C 411.013 1.61184 1.08321 0
M  V30 4522 O 410.288 0.858395 1.74533 0
M  V30 4523 C 410.571 3.56858 -0.482121 0
M  V30 4524 C 410.424 4.0555 -1.94549 0
M  V30 4525 C 411.743 4.39955 0.113143 0
M  V30 4526 H 408.862 0.726464 -0.124171 0
M  V30 4527 H 411.504 1.63034 -0.975699 0
M  V30 4528 H 409.654 3.88452 0.0610361 0
M  V30 4529 H 411.326 3.84518 -2.54841 0
M  V30 4530 H 409.569 3.57715 -2.45403 0
M  V30 4531 H 410.24 5.14587 -1.9976 0
M  V30 4532 H 412.716 4.14623 -0.35031 0
M  V30 4533 H 411.592 5.48897 -0.0180514 0
M  V30 4534 H 411.853 4.25403 1.20354 0
M  V30 4535 N 410.912 0.523116 1.48665 0
M  V30 4536 C 412.137 -0.0117284 2.07397 0
M  V30 4537 C 412.562 -1.28031 1.37803 0
M  V30 4538 O 411.92 -1.75836 0.441762 0
M  V30 4539 C 411.968 -0.225786 3.59892 0
M  V30 4540 O 411.072 -1.29592 3.91509 0
M  V30 4541 H 410.413 0.0360673 0.66302 0
M  V30 4542 H 412.943 0.729066 1.9117 0
M  V30 4543 H 412.953 -0.450552 4.05505 0
M  V30 4544 H 411.628 0.700944 4.09951 0
M  V30 4545 H 410.205 -1.05436 3.57684 0
M  V30 4546 N 412.39 -1.55475 0.257931 0
M  V30 4547 C 413.338 -2.23244 -0.653076 0
M  V30 4548 C 414.332 -1.22366 -1.17144 0
M  V30 4549 O 415.538 -1.40347 -1.12706 0
M  V30 4550 H 411.913 -0.716247 -0.229117 0
M  V30 4551 H 413.884 -2.98343 -0.0584788 0
M  V30 4552 C 412.633 -2.95401 -1.83395 0
M  V30 4553 H 411.956 -3.72802 -1.44424 0
M  V30 4554 H 413.396 -3.46165 -2.44838 0
M  V30 4555 C 411.855 -1.99895 -2.71189 0
M  V30 4556 O 412.385 -1.53909 -3.71046 0
M  V30 4557 N 410.591 -1.6676 -2.3799 0
M  V30 4558 H 410.138 -2.04352 -1.56837 0
M  V30 4559 H 410.096 -1.03127 -2.97005 0
M  V30 4560 N 413.868 0.0150385 -1.57593 0
M  V30 4561 C 415.145 0.7392 -1.81094 0
M  V30 4562 C 415.525 1.92817 -0.859344 0
M  V30 4563 O 414.873 2.28301 0.095362 0
M  V30 4564 C 415.083 1.15907 -3.29191 0
M  V30 4565 C 416.431 1.56918 -3.9454 0
M  V30 4566 O 417.455 1.25328 -3.33424 0
M  V30 4567 O 416.314 2.15604 -5.02173 0
M  V30 4568 H 413.408 0.358631 -0.745193 0
M  V30 4569 H 415.954 -0.00926156 -1.69697 0
M  V30 4570 H 414.726 0.310921 -3.90063 0
M  V30 4571 H 414.349 1.96711 -3.45529 0
M  V30 4572 N 415.346 1.54954 0.287554 0
M  V30 4573 C 416.571 1.79209 1.04397 0
M  V30 4574 C 416.996 0.556431 1.79682 0
M  V30 4575 O 416.354 -0.493518 1.74454 0
M  V30 4576 C 416.402 3.00739 1.98969 0
M  V30 4577 O 415.506 2.74805 3.075 0
M  V30 4578 H 414.847 0.592755 0.299227 0
M  V30 4579 H 417.377 2.02068 0.320886 0
M  V30 4580 H 417.387 3.29077 2.4119 0
M  V30 4581 H 416.062 3.90329 1.43582 0
M  V30 4582 H 414.639 2.57523 2.69697 0
M  V30 4583 N 416.824 -0.551391 1.4764 0
M  V30 4584 C 418.052 -1.33357 1.58189 0
M  V30 4585 C 418.467 -1.87342 0.234199 0
M  V30 4586 O 417.824 -1.65301 -0.77343 0
M  V30 4587 C 417.875 -2.49942 2.61173 0
M  V30 4588 O 417.596 -1.98187 3.90709 0
M  V30 4589 C 419.097 -3.42072 2.8196 0
M  V30 4590 H 416.317 -0.40631 0.533998 0
M  V30 4591 H 418.861 -0.667367 1.93304 0
M  V30 4592 H 417.016 -3.12489 2.28975 0
M  V30 4593 H 417.43 -2.74342 4.47031 0
M  V30 4594 H 418.904 -4.20278 3.57869 0
M  V30 4595 H 419.381 -3.95978 1.89995 0
M  V30 4596 H 419.987 -2.85336 3.15378 0
M  V30 4597 N 418.302 -1.35869 -0.798587 0
M  V30 4598 C 419.252 -1.25982 -1.90033 0
M  V30 4599 C 420.236 -0.153303 -1.60168 0
M  V30 4600 O 421.428 -0.38527 -1.72756 0
M  V30 4601 C 418.557 -1.04211 -3.27101 0
M  V30 4602 C 417.643 -2.19289 -3.63006 0
M  V30 4603 N 418.034 -3.44559 -3.70287 0
M  V30 4604 C 416.332 -2.10852 -3.93011 0
M  V30 4605 C 417.033 -4.20283 -4.02166 0
M  V30 4606 N 416.009 -3.49124 -4.16669 0
M  V30 4607 H 419.811 -2.20883 -1.93876 0
M  V30 4608 H 417.325 -1.28457 -0.993614 0
M  V30 4609 H 419.322 -0.952155 -4.05881 0
M  V30 4610 H 417.982 -0.102013 -3.2454 0
M  V30 4611 H 418.993 -3.7881 -3.53162 0
M  V30 4612 H 415.67 -1.24744 -3.98428 0
M  V30 4613 H 417.06 -5.28575 -4.14799 0
M  V30 4614 N 419.78 1.02168 -1.19998 0
M  V30 4615 C 421.026 1.7606 -1.01855 0
M  V30 4616 C 421.381 1.87178 0.445222 0
M  V30 4617 O 420.674 1.3828 1.32624 0
M  V30 4618 C 420.868 3.18081 -1.62969 0
M  V30 4619 C 420.697 3.20809 -3.15137 0
M  V30 4620 C 419.467 3.28342 -3.84083 0
M  V30 4621 C 421.665 3.07268 -4.1242 0
M  V30 4622 N 419.647 3.2052 -5.23584 0
M  V30 4623 C 421.018 3.0716 -5.38566 0
M  V30 4624 C 423.073 2.91448 -4.03686 0
M  V30 4625 C 421.776 2.92853 -6.56985 0
M  V30 4626 C 423.802 2.78494 -5.21723 0
M  V30 4627 C 423.164 2.79046 -6.46771 0
M  V30 4628 H 419.263 0.655192 -0.426905 0
M  V30 4629 H 421.847 1.21564 -1.52087 0
M  V30 4630 H 420.018 3.70882 -1.15329 0
M  V30 4631 H 421.75 3.80375 -1.38192 0
M  V30 4632 H 418.505 3.34859 -3.34913 0
M  V30 4633 H 418.929 3.19997 -5.96599 0
M  V30 4634 H 423.571 2.89838 -3.07821 0
M  V30 4635 H 421.289 2.93213 -7.53028 0
M  V30 4636 H 424.875 2.67278 -5.16773 0
M  V30 4637 H 423.755 2.69134 -7.36571 0
M  V30 4638 N 421.258 1.00505 1.21394 0
M  V30 4639 C 422.188 0.585684 2.26035 0
M  V30 4640 C 423.169 -0.393525 1.65485 0
M  V30 4641 O 424.354 -0.281497 1.92149 0
M  V30 4642 C 421.484 -0.0884283 3.47187 0
M  V30 4643 C 420.438 0.810567 4.20254 0
M  V30 4644 C 419.764 0.00286382 5.347 0
M  V30 4645 C 421.064 2.1132 4.77641 0
M  V30 4646 H 422.758 1.46039 2.61368 0
M  V30 4647 H 420.304 0.703648 1.25638 0
M  V30 4648 H 422.257 -0.393286 4.19561 0
M  V30 4649 H 420.981 -0.997766 3.10986 0
M  V30 4650 H 419.64 1.09925 3.49731 0
M  V30 4651 H 419.288 -0.907765 4.94741 0
M  V30 4652 H 418.988 0.601444 5.84514 0
M  V30 4653 H 420.512 -0.295808 6.09883 0
M  V30 4654 H 421.926 1.87148 5.41893 0
M  V30 4655 H 420.323 2.66164 5.37845 0
M  V30 4656 H 421.393 2.78393 3.9702 0
M  V30 4657 N 422.737 -1.36956 0.779787 0
M  V30 4658 C 423.986 -1.98738 0.344405 0
M  V30 4659 C 424.299 -1.62596 -1.08728 0
M  V30 4660 O 425.505 -2.1754 -1.62445 0
M  V30 4661 C 423.961 -3.5544 0.564829 0
M  V30 4662 C 423.569 -4.00514 2.0073 0
M  V30 4663 C 425.313 -4.24059 0.193471 0
M  V30 4664 C 423.22 -5.49957 2.17489 0
M  V30 4665 H 422.15 -0.743561 0.12503 0
M  V30 4666 H 424.801 -1.56381 0.960057 0
M  V30 4667 H 423.183 -3.95817 -0.120397 0
M  V30 4668 H 424.357 -3.71362 2.72814 0
M  V30 4669 H 422.672 -3.44703 2.336 0
M  V30 4670 H 425.269 -5.33874 0.297097 0
M  V30 4671 H 425.612 -4.07378 -0.857263 0
M  V30 4672 H 426.145 -3.89012 0.831556 0
M  V30 4673 H 422.884 -5.71574 3.2091 0
M  V30 4674 H 422.404 -5.80767 1.49899 0
M  V30 4675 H 424.083 -6.16043 1.97738 0
M  V30 4676 N 424.215 -0.530993 -1.48385 0
M  V30 4677 C 425.462 0.0027373 -2.025 0
M  V30 4678 C 425.79 1.34186 -1.40799 0
M  V30 4679 O 425.045 1.88 -0.543544 0
M  V30 4680 C 425.344 0.172742 -3.56982 0
M  V30 4681 C 425.01 -1.09215 -4.37473 0
M  V30 4682 C 423.672 -1.43881 -4.59186 0
M  V30 4683 C 426.024 -1.93153 -4.84088 0
M  V30 4684 C 423.352 -2.62381 -5.2476 0
M  V30 4685 C 425.704 -3.10833 -5.50968 0
M  V30 4686 C 424.368 -3.45843 -5.70919 0
M  V30 4687 H 423.638 0.00100165 -0.740999 0
M  V30 4688 H 426.285 -0.697219 -1.78357 0
M  V30 4689 H 424.59 0.955473 -3.79971 0
M  V30 4690 H 426.287 0.600642 -3.96476 0
M  V30 4691 H 422.877 -0.812177 -4.20834 0
M  V30 4692 H 427.061 -1.67683 -4.67115 0
M  V30 4693 H 422.317 -2.89707 -5.38405 0
M  V30 4694 H 426.491 -3.7618 -5.86056 0
M  V30 4695 H 424.118 -4.37764 -6.21503 0
M  V30 4696 N 425.693 1.55336 -0.266172 0
M  V30 4697 C 426.603 2.2583 0.635458 0
M  V30 4698 C 427.619 1.28106 1.17749 0
M  V30 4699 O 428.795 1.61024 1.20968 0
M  V30 4700 C 425.86 2.95879 1.80712 0
M  V30 4701 C 424.921 4.09059 1.30265 0
M  V30 4702 C 424.154 4.75759 2.41846 0
M  V30 4703 O 424.377 4.41622 3.61007 0
M  V30 4704 O 423.311 5.63888 2.1051 0
M  V30 4705 H 427.137 3.03631 0.0646693 0
M  V30 4706 H 424.722 1.49361 -0.0339177 0
M  V30 4707 H 426.604 3.39932 2.49047 0
M  V30 4708 H 425.279 2.21002 2.36516 0
M  V30 4709 H 424.186 3.69482 0.586019 0
M  V30 4710 H 425.519 4.85811 0.790458 0
M  V30 4711 N 427.171 -0.0066808 1.57599 0
M  V30 4712 C 428.101 -0.999296 2.11036 0
M  V30 4713 C 429.082 -1.36278 1.01795 0
M  V30 4714 O 430.267 -1.4477 1.29442 0
M  V30 4715 C 427.397 -2.29328 2.60818 0
M  V30 4716 C 426.351 -2.07159 3.74525 0
M  V30 4717 C 425.677 -3.42512 4.10596 0
M  V30 4718 C 426.977 -1.43959 5.02069 0
M  V30 4719 H 428.671 -0.554382 2.94223 0
M  V30 4720 H 426.217 -0.265221 1.41536 0
M  V30 4721 H 428.17 -2.99117 2.96828 0
M  V30 4722 H 426.894 -2.7592 1.74745 0
M  V30 4723 H 425.553 -1.39797 3.38899 0
M  V30 4724 H 425.201 -3.86795 3.21556 0
M  V30 4725 H 424.901 -3.28498 4.87199 0
M  V30 4726 H 426.425 -4.13628 4.4916 0
M  V30 4727 H 427.839 -2.03696 5.35893 0
M  V30 4728 H 426.236 -1.40452 5.83432 0
M  V30 4729 H 427.306 -0.407992 4.83181 0
M  V30 4730 N 428.649 -1.55105 -0.279332 0
M  V30 4731 C 429.579 -1.90557 -1.34945 0
M  V30 4732 C 430.56 -0.766738 -1.51839 0
M  V30 4733 O 431.745 -1.02434 -1.64988 0
M  V30 4734 C 428.875 -2.17193 -2.71006 0
M  V30 4735 C 427.829 -3.33021 -2.68851 0
M  V30 4736 C 427.155 -3.45123 -4.08405 0
M  V30 4737 C 428.455 -4.69578 -2.28678 0
M  V30 4738 H 430.149 -2.80188 -1.05522 0
M  V30 4739 H 427.695 -1.34811 -0.506173 0
M  V30 4740 H 429.648 -2.40581 -3.45975 0
M  V30 4741 H 428.372 -1.24355 -3.01999 0
M  V30 4742 H 427.031 -3.0959 -1.9634 0
M  V30 4743 H 426.679 -2.49762 -4.3661 0
M  V30 4744 H 426.379 -4.22995 -4.07859 0
M  V30 4745 H 427.903 -3.70796 -4.85121 0
M  V30 4746 H 429.317 -4.92553 -2.93368 0
M  V30 4747 H 427.714 -5.5032 -2.39306 0
M  V30 4748 H 428.784 -4.68828 -1.23807 0
M  V30 4749 N 430.127 0.543554 -1.4793 0
M  V30 4750 C 431.373 1.29961 -1.56466 0
M  V30 4751 C 431.728 1.91024 -0.229696 0
M  V30 4752 O 431.021 1.75619 0.766072 0
M  V30 4753 C 431.215 2.42078 -2.62932 0
M  V30 4754 C 431.044 1.92003 -4.06651 0
M  V30 4755 C 429.814 1.75223 -4.73946 0
M  V30 4756 C 432.012 1.45648 -4.93245 0
M  V30 4757 N 429.994 1.19632 -6.02131 0
M  V30 4758 C 431.365 1.01914 -6.11566 0
M  V30 4759 C 433.42 1.33826 -4.79578 0
M  V30 4760 C 432.123 0.475301 -7.17728 0
M  V30 4761 C 434.149 0.808427 -5.85848 0
M  V30 4762 C 433.511 0.381081 -7.03368 0
M  V30 4763 H 429.61 0.467086 -0.62718 0
M  V30 4764 H 432.194 0.614543 -1.84747 0
M  V30 4765 H 430.365 3.08098 -2.36496 0
M  V30 4766 H 432.097 3.09096 -2.61231 0
M  V30 4767 H 428.852 1.98345 -4.30065 0
M  V30 4768 H 429.276 0.93885 -6.70458 0
M  V30 4769 H 433.918 1.65474 -3.89074 0
M  V30 4770 H 431.636 0.146472 -8.07967 0
M  V30 4771 H 435.222 0.720315 -5.77324 0
M  V30 4772 H 434.102 -0.0225344 -7.84197 0
M  V30 4773 N 431.605 1.3629 0.791371 0
M  V30 4774 C 433.021 1.16661 1.08914 0
M  V30 4775 C 433.221 -0.0106266 2.01497 0
M  V30 4776 O 432.277 -0.676596 2.43266 0
M  V30 4777 C 433.59 2.47656 1.70549 0
M  V30 4778 C 435.138 2.54002 1.82899 0
M  V30 4779 C 435.613 3.85078 2.47949 0
M  V30 4780 N 437.104 3.86413 2.5542 0
M  V30 4781 C 437.839 4.84572 3.06557 0
M  V30 4782 N 437.335 5.93124 3.58016 0
M  V30 4783 N 439.128 4.71994 3.05251 0
M  V30 4784 H 431.279 2.11668 0.176238 0
M  V30 4785 H 433.542 0.937486 0.140796 0
M  V30 4786 H 433.248 3.34059 1.09989 0
M  V30 4787 H 433.122 2.63319 2.70079 0
M  V30 4788 H 435.509 1.68018 2.42598 0
M  V30 4789 H 435.59 2.42239 0.821808 0
M  V30 4790 H 435.234 4.71467 1.88895 0
M  V30 4791 H 435.164 3.94135 3.49235 0
M  V30 4792 H 437.655 3.07988 2.18979 0
M  V30 4793 H 437.968 6.63999 3.95381 0
M  V30 4794 H 436.313 5.96796 3.56173 0
M  V30 4795 H 439.504 3.86321 2.64336 0
M  V30 4796 H 439.677 5.48653 3.44796 0
M  V30 4797 N 433.083 -1.0153 1.20538 0
M  V30 4798 C 434.36 -1.72327 0.925343 0
M  V30 4799 C 434.74 -2.03383 -0.565547 0
M  V30 4800 O 434.088 -1.69934 -1.52757 0
M  V30 4801 C 434.298 -2.9902 1.79967 0
M  V30 4802 C 435.646 -3.72258 2.04228 0
M  V30 4803 O 436.67 -3.08979 1.77231 0
M  V30 4804 O 435.529 -4.86053 2.4983 0
M  V30 4805 H 432.623 -0.751099 0.346092 0
M  V30 4806 H 435.169 -1.07366 1.31417 0
M  V30 4807 H 433.941 -2.72402 2.80915 0
M  V30 4808 H 433.564 -3.71721 1.41099 0
M  V30 4809 N 434.561 -1.01147 -1.20859 0
M  V30 4810 C 435.808 -0.697865 -1.90095 0
M  V30 4811 C 436.136 0.772014 -1.78522 0
M  V30 4812 O 435.391 1.57595 -1.16027 0
M  V30 4813 C 435.69 -1.0727 -3.40922 0
M  V30 4814 C 435.356 -2.53792 -3.72693 0
M  V30 4815 C 434.018 -2.93829 -3.81075 0
M  V30 4816 C 436.37 -3.48674 -3.87397 0
M  V30 4817 C 433.698 -4.27696 -4.01613 0
M  V30 4818 C 436.05 -4.82223 -4.09444 0
M  V30 4819 C 434.714 -5.21973 -4.16054 0
M  V30 4820 H 433.984 -0.255367 -0.695607 0
M  V30 4821 H 436.631 -1.27111 -1.43231 0
M  V30 4822 H 434.936 -0.417799 -3.89566 0
M  V30 4823 H 436.633 -0.807818 -3.92779 0
M  V30 4824 H 433.223 -2.21768 -3.66765 0
M  V30 4825 H 437.407 -3.18904 -3.80281 0
M  V30 4826 H 432.663 -4.58055 -4.04964 0
M  V30 4827 H 436.837 -5.55672 -4.19763 0
M  V30 4828 H 434.464 -6.25717 -4.31721 0
M  V30 4829 N 436.039 1.36541 -0.78704 0
M  V30 4830 C 437.286 1.99304 -0.358341 0
M  V30 4831 C 437.614 1.62467 1.06933 0
M  V30 4832 O 436.869 0.870019 1.75297 0
M  V30 4833 C 437.168 3.54343 -0.466485 0
M  V30 4834 C 436.834 4.10993 -1.85461 0
M  V30 4835 C 435.496 4.26177 -2.23443 0
M  V30 4836 C 437.848 4.41895 -2.76366 0
M  V30 4837 C 435.176 4.69573 -3.51736 0
M  V30 4838 C 437.528 4.86722 -4.04084 0
M  V30 4839 C 436.192 5.00112 -4.42091 0
M  V30 4840 H 435.462 0.729306 -0.131126 0
M  V30 4841 H 438.109 1.63068 -1.00404 0
M  V30 4842 H 436.414 3.90918 0.262719 0
M  V30 4843 H 438.111 4.00833 -0.115854 0
M  V30 4844 H 434.701 3.99612 -1.54946 0
M  V30 4845 H 438.885 4.29735 -2.48277 0
M  V30 4846 H 434.141 4.78127 -3.81057 0
M  V30 4847 H 438.315 5.09598 -4.7464 0
M  V30 4848 H 435.942 5.33498 -5.41557 0
M  V30 4849 N 437.518 0.538854 1.48102 0
M  V30 4850 C 438.934 0.19732 1.58376 0
M  V30 4851 C 439.134 -1.29971 1.5398 0
M  V30 4852 O 438.19 -2.07861 1.43352 0
M  V30 4853 C 439.503 0.807716 2.89649 0
M  V30 4854 C 441.051 0.77726 3.03196 0
M  V30 4855 C 441.526 1.36639 4.37143 0
M  V30 4856 N 443.017 1.32875 4.43732 0
M  V30 4857 C 443.752 1.7544 5.45901 0
M  V30 4858 N 443.248 2.25776 6.54979 0
M  V30 4859 N 445.041 1.66623 5.36836 0
M  V30 4860 H 437.192 1.5117 1.49202 0
M  V30 4861 H 439.455 0.629327 0.708979 0
M  V30 4862 H 439.161 1.85909 2.98548 0
M  V30 4863 H 439.035 0.289975 3.76084 0
M  V30 4864 H 441.422 -0.265374 2.93904 0
M  V30 4865 H 441.503 1.33256 2.18349 0
M  V30 4866 H 441.147 2.408 4.47189 0
M  V30 4867 H 441.077 0.786689 5.20691 0
M  V30 4868 H 443.568 0.96037 3.65493 0
M  V30 4869 H 443.881 2.56226 7.29087 0
M  V30 4870 H 442.226 2.29775 6.55918 0
M  V30 4871 H 445.417 1.27089 4.50517 0
M  V30 4872 H 445.59 2.00115 6.16326 0
M  V30 4873 N 438.996 -1.55193 0.274407 0
M  V30 4874 C 440.243 -1.99581 -0.342579 0
M  V30 4875 C 440.571 -1.1628 -1.55914 0
M  V30 4876 O 439.826 -0.22029 -1.94456 0
M  V30 4877 C 440.125 -3.49019 -0.769458 0
M  V30 4878 C 439.791 -4.49598 0.342389 0
M  V30 4879 C 438.453 -4.76821 0.647686 0
M  V30 4880 C 440.805 -5.0964 1.09163 0
M  V30 4881 C 438.133 -5.61354 1.70581 0
M  V30 4882 C 440.485 -5.95323 2.13948 0
M  V30 4883 C 439.149 -6.20867 2.45113 0
M  V30 4884 H 438.419 -0.730319 -0.125358 0
M  V30 4885 H 441.066 -1.87529 0.387971 0
M  V30 4886 H 439.371 -3.58544 -1.57967 0
M  V30 4887 H 441.068 -3.8077 -1.25757 0
M  V30 4888 H 437.658 -4.28496 0.094318 0
M  V30 4889 H 441.842 -4.88632 0.869024 0
M  V30 4890 H 437.098 -5.79392 1.9523 0
M  V30 4891 H 441.272 -6.40881 2.72478 0
M  V30 4892 H 438.899 -6.86162 3.27239 0
M  V30 4893 N 440.474 -0.00167713 -1.576 0
M  V30 4894 C 441.72 0.683832 -1.90923 0
M  V30 4895 C 442.053 1.7333 -0.875799 0
M  V30 4896 O 441.328 1.94215 0.10525 0
M  V30 4897 C 441.611 1.32543 -3.3482 0
M  V30 4898 C 441.464 0.287387 -4.48881 0
M  V30 4899 C 442.783 2.25114 -3.78169 0
M  V30 4900 H 439.902 0.247125 -0.694333 0
M  V30 4901 H 442.544 -0.0533149 -1.89925 0
M  V30 4902 H 440.694 1.95372 -3.35801 0
M  V30 4903 H 442.366 -0.341346 -4.60035 0
M  V30 4904 H 440.609 -0.39017 -4.32042 0
M  V30 4905 H 441.28 0.775393 -5.46527 0
M  V30 4906 H 443.756 1.723 -3.7875 0
M  V30 4907 H 442.632 2.66971 -4.79602 0
M  V30 4908 H 442.893 3.13092 -3.12131 0
M  V30 4909 N 441.952 1.55251 0.271103 0
M  V30 4910 C 442.915 1.87484 1.31842 0
M  V30 4911 C 443.915 0.749545 1.42262 0
M  V30 4912 O 445.105 1.01771 1.4138 0
M  V30 4913 C 442.237 2.0818 2.69951 0
M  V30 4914 H 443.43 2.81108 1.0449 0
M  V30 4915 H 440.983 1.47771 0.509258 0
M  V30 4916 H 441.718 1.16944 3.02481 0
M  V30 4917 H 441.503 2.90114 2.63774 0
M  V30 4918 H 442.993 2.34385 3.4562 0
M  V30 4919 N 443.43 -0.535701 1.48216 0
M  V30 4920 C 444.362 -1.65662 1.58394 0
M  V30 4921 C 445.375 -1.5591 0.468607 0
M  V30 4922 O 446.564 -1.62475 0.7392 0
M  V30 4923 C 443.664 -3.04276 1.4923 0
M  V30 4924 C 442.837 -3.39567 2.75705 0
M  V30 4925 C 441.896 -4.57436 2.60075 0
M  V30 4926 O 440.922 -4.60942 3.33948 0
M  V30 4927 N 442.124 -5.55259 1.69315 0
M  V30 4928 H 444.889 -1.5737 2.55058 0
M  V30 4929 H 442.45 -0.722845 1.44867 0
M  V30 4930 H 444.442 -3.80994 1.36477 0
M  V30 4931 H 443.012 -3.06677 0.605632 0
M  V30 4932 H 442.232 -2.52083 3.03064 0
M  V30 4933 H 443.52 -3.59929 3.59623 0
M  V30 4934 H 442.918 -5.552 1.08489 0
M  V30 4935 H 441.475 -6.31218 1.62504 0
M  V30 4936 N 444.908 -1.36708 -0.784132 0
M  V30 4937 C 445.855 -1.31466 -1.89698 0
M  V30 4938 C 446.825 -0.18239 -1.65096 0
M  V30 4939 O 448.01 -0.369762 -1.87183 0
M  V30 4940 C 445.15 -1.1151 -3.26588 0
M  V30 4941 C 444.263 -2.33859 -3.63227 0
M  V30 4942 C 443.398 -2.06873 -4.89262 0
M  V30 4943 C 442.437 -3.25154 -5.18595 0
M  V30 4944 N 441.574 -2.978 -6.35814 0
M  V30 4945 H 446.414 -2.26619 -1.93515 0
M  V30 4946 H 443.951 -1.12625 -0.946256 0
M  V30 4947 H 445.909 -0.979653 -4.05535 0
M  V30 4948 H 444.539 -0.200103 -3.22179 0
M  V30 4949 H 443.591 -2.58188 -2.79362 0
M  V30 4950 H 444.903 -3.22109 -3.8085 0
M  V30 4951 H 444.057 -1.90289 -5.76086 0
M  V30 4952 H 442.796 -1.15942 -4.73718 0
M  V30 4953 H 441.801 -3.42292 -4.30251 0
M  V30 4954 H 443.026 -4.1692 -5.36055 0
M  V30 4955 H 440.972 -2.09485 -6.21653 0
M  V30 4956 H 440.889 -3.7959 -6.53794 0
M  V30 4957 H 442.157 -2.84805 -7.25607 0
M  V30 4958 N 446.386 1.0089 -1.21074 0
M  V30 4959 C 447.616 1.77933 -1.04993 0
M  V30 4960 C 448.024 1.84847 0.403495 0
M  V30 4961 O 447.367 1.30606 1.29181 0
M  V30 4962 C 447.429 3.23541 -1.56722 0
M  V30 4963 C 447.093 3.40214 -3.05129 0
M  V30 4964 C 448.09 3.2881 -4.02716 0
M  V30 4965 C 445.775 3.65781 -3.44252 0
M  V30 4966 C 447.769 3.42732 -5.37414 0
M  V30 4967 C 445.456 3.79346 -4.79103 0
M  V30 4968 C 446.454 3.67827 -5.75493 0
M  V30 4969 O 446.142 3.80965 -7.07899 0
M  V30 4970 H 445.874 0.566157 -0.369381 0
M  V30 4971 H 448.428 1.27826 -1.60779 0
M  V30 4972 H 446.658 3.74766 -0.953285 0
M  V30 4973 H 448.347 3.82245 -1.36543 0
M  V30 4974 H 449.113 3.08986 -3.73835 0
M  V30 4975 H 444.992 3.73831 -2.69762 0
M  V30 4976 H 448.536 3.33658 -6.12632 0
M  V30 4977 H 444.433 3.98672 -5.07672 0
M  V30 4978 H 445.201 3.97937 -7.15254 0
M  V30 4979 N 447.864 1.01787 1.20321 0
M  V30 4980 C 449.112 0.706538 1.89347 0
M  V30 4981 C 449.433 -0.766289 1.79313 0
M  V30 4982 O 448.703 -1.55126 1.19635 0
M  V30 4983 H 447.283 0.258348 0.700903 0
M  V30 4984 H 449.945 1.28974 1.46122 0
M  V30 4985 H 449.041 0.991066 2.95946 0
M  V30 4986 N 449.342 -1.36122 0.79427 0
M  V30 4987 C 450.29 -2.31871 0.184023 0
M  V30 4988 C 451.284 -1.56041 -0.659365 0
M  V30 4989 O 452.49 -1.71266 -0.553906 0
M  V30 4990 H 448.865 -0.750896 0.0407373 0
M  V30 4991 H 450.836 -2.80898 1.00693 0
M  V30 4992 C 449.585 -3.41324 -0.662813 0
M  V30 4993 H 448.908 -3.99793 -0.0231944 0
M  V30 4994 H 450.348 -4.10629 -1.05639 0
M  V30 4995 C 448.807 -2.83308 -1.82313 0
M  V30 4996 O 449.337 -2.75863 -2.91997 0
M  V30 4997 N 447.543 -2.40529 -1.63077 0
M  V30 4998 H 447.09 -2.46785 -0.738591 0
M  V30 4999 H 447.048 -2.02059 -2.40872 0
M  V30 5000 N 450.82 -0.546701 -1.47814 0
M  V30 5001 C 451.767 0.206854 -2.29871 0
M  V30 5002 C 452.737 0.918235 -1.38411 0
M  V30 5003 O 453.922 0.915991 -1.67375 0
M  V30 5004 C 451.062 1.23746 -3.22151 0
M  V30 5005 C 450.175 0.533216 -4.28697 0
M  V30 5006 C 449.31 1.5482 -5.08138 0
M  V30 5007 C 448.349 0.828347 -6.06469 0
M  V30 5008 N 447.486 1.78966 -6.78908 0
M  V30 5009 H 452.326 -0.499037 -2.93792 0
M  V30 5010 H 449.863 -0.25793 -1.44821 0
M  V30 5011 H 451.821 1.84746 -3.74065 0
M  V30 5012 H 450.451 1.91151 -2.60117 0
M  V30 5013 H 449.503 -0.191089 -3.7992 0
M  V30 5014 H 450.815 -0.0311987 -4.9879 0
M  V30 5015 H 449.969 2.23202 -5.6415 0
M  V30 5016 H 448.708 2.14652 -4.37922 0
M  V30 5017 H 447.713 0.130539 -5.49645 0
M  V30 5018 H 448.938 0.235907 -6.7869 0
M  V30 5019 H 446.884 2.37675 -6.1143 0
M  V30 5020 H 446.801 1.27712 -7.45135 0
M  V30 5021 H 448.069 2.46496 -7.395 0
M  V30 5022 N 452.299 1.55045 -0.282633 0
M  V30 5023 C 453.229 2.2579 0.595066 0
M  V30 5024 C 454.21 1.25074 1.15284 0
M  V30 5025 O 455.395 1.5381 1.18559 0
M  V30 5026 C 452.525 2.98472 1.77572 0
M  V30 5027 C 451.479 4.0618 1.34914 0
M  V30 5028 C 450.805 4.66477 2.6135 0
M  V30 5029 C 452.105 5.1996 0.493821 0
M  V30 5030 H 453.799 2.994 0.00505653 0
M  V30 5031 H 451.345 1.44 0.000992001 0
M  V30 5032 H 453.298 3.46677 2.39568 0
M  V30 5033 H 452.022 2.2241 2.39168 0
M  V30 5034 H 450.681 3.58797 0.752338 0
M  V30 5035 H 450.329 3.87074 3.2122 0
M  V30 5036 H 450.029 5.39207 2.33516 0
M  V30 5037 H 451.553 5.17435 3.24181 0
M  V30 5038 H 452.967 5.64172 1.01898 0
M  V30 5039 H 451.364 5.99299 0.310047 0
M  V30 5040 H 452.434 4.82462 -0.485593 0
M  V30 5041 N 453.777 0.010035 1.57597 0
M  V30 5042 C 455.024 -0.6727 1.91 0
M  V30 5043 C 455.352 -1.73219 0.884614 0
M  V30 5044 O 454.607 -1.95395 -0.109215 0
M  V30 5045 C 454.906 -1.34434 3.31153 0
M  V30 5046 C 454.572 -0.417083 4.48967 0
M  V30 5047 C 453.234 -0.161809 4.80928 0
M  V30 5048 C 455.586 0.220753 5.20732 0
M  V30 5049 C 452.914 0.739426 5.82022 0
M  V30 5050 C 455.266 1.10993 6.22787 0
M  V30 5051 C 453.93 1.37428 6.532 0
M  V30 5052 H 453.2 -0.246158 0.698918 0
M  V30 5053 H 455.847 0.0677145 1.9138 0
M  V30 5054 H 454.152 -2.15905 3.26944 0
M  V30 5055 H 455.849 -1.87883 3.54261 0
M  V30 5056 H 452.439 -0.626217 4.24001 0
M  V30 5057 H 456.623 0.0365643 4.96287 0
M  V30 5058 H 451.879 0.952139 6.03941 0
M  V30 5059 H 456.053 1.61046 6.77523 0
M  V30 5060 H 453.68 2.0743 7.31353 0
M  V30 5061 N 455.255 -1.55392 -0.262866 0
M  V30 5062 C 456.203 -1.8977 -1.345 0
M  V30 5063 C 457.197 -0.775063 -1.50629 0
M  V30 5064 O 458.403 -0.959519 -1.52293 0
M  V30 5065 H 454.778 -0.602467 -0.450041 0
M  V30 5066 H 456.749 -2.80147 -1.02762 0
M  V30 5067 C 455.498 -2.19501 -2.69657 0
M  V30 5068 H 454.821 -3.05378 -2.5804 0
M  V30 5069 H 456.261 -2.47469 -3.44289 0
M  V30 5070 C 454.72 -1.00597 -3.21531 0
M  V30 5071 O 455.25 -0.245768 -4.00947 0
M  V30 5072 N 453.456 -0.800911 -2.79345 0
M  V30 5073 H 453.003 -1.42079 -2.14875 0
M  V30 5074 H 452.961 -0.00697996 -3.14399 0
M  V30 5075 N 456.733 0.527833 -1.48498 0
M  V30 5076 C 458.149 0.856571 -1.34666 0
M  V30 5077 C 458.349 1.98271 -0.35931 0
M  V30 5078 O 457.405 2.51551 0.218703 0
M  V30 5079 C 458.718 1.22207 -2.74747 0
M  V30 5080 C 460.266 1.33183 -2.83251 0
M  V30 5081 C 460.741 1.73075 -4.24039 0
M  V30 5082 N 462.232 1.80174 -4.26722 0
M  V30 5083 C 462.967 2.1243 -5.32598 0
M  V30 5084 N 462.463 2.43096 -6.4875 0
M  V30 5085 N 464.256 2.13454 -5.19994 0
M  V30 5086 H 456.407 -0.215174 -2.11307 0
M  V30 5087 H 458.67 -0.0336281 -0.947403 0
M  V30 5088 H 458.376 0.468195 -3.4857 0
M  V30 5089 H 458.25 2.17173 -3.08409 0
M  V30 5090 H 460.637 2.07647 -2.09683 0
M  V30 5091 H 460.718 0.363333 -2.53206 0
M  V30 5092 H 460.362 0.991712 -4.98124 0
M  V30 5093 H 460.292 2.70979 -4.51529 0
M  V30 5094 H 462.783 1.58744 -3.42942 0
M  V30 5095 H 463.096 2.6682 -7.25277 0
M  V30 5096 H 461.441 2.40611 -6.52021 0
M  V30 5097 H 464.632 1.88956 -4.28268 0
M  V30 5098 H 464.805 2.38261 -6.02608 0
M  V30 5099 N 458.211 1.37122 0.776871 0
M  V30 5100 C 459.459 1.31787 1.53221 0
M  V30 5101 C 459.78 -0.0987589 1.9475 0
M  V30 5102 O 459.05 -1.0417 1.65908 0
M  V30 5103 H 457.63 0.484839 0.568278 0
M  V30 5104 H 460.292 1.71556 0.924917 0
M  V30 5105 H 459.388 1.95355 2.43398 0
M  V30 5106 N 459.689 -1.00246 1.21608 0
M  V30 5107 C 460.937 -1.73717 1.0328 0
M  V30 5108 C 461.258 -1.90102 -0.434318 0
M  V30 5109 O 460.528 -1.45376 -1.31311 0
M  V30 5110 H 459.108 -0.643613 0.379172 0
M  V30 5111 H 461.77 -1.20787 1.52959 0
M  V30 5112 H 460.866 -2.73535 1.50283 0
M  V30 5113 N 461.167 -1.02423 -1.1978 0
M  V30 5114 C 462.097 -0.62157 -2.25075 0
M  V30 5115 C 463.078 0.367148 -1.6609 0
M  V30 5116 O 464.263 0.250892 -1.92573 0
M  V30 5117 C 461.393 0.0331826 -3.47284 0
M  V30 5118 C 460.347 -0.877323 -4.18912 0
M  V30 5119 C 459.673 -0.0879296 -5.34628 0
M  V30 5120 C 460.973 -2.18892 -4.74219 0
M  V30 5121 H 462.667 -1.50179 -2.59011 0
M  V30 5122 H 460.213 -0.723547 -1.24502 0
M  V30 5123 H 462.166 0.326488 -4.20133 0
M  V30 5124 H 460.89 0.948164 -3.12534 0
M  V30 5125 H 459.549 -1.15475 -3.47938 0
M  V30 5126 H 459.197 0.828941 -4.96123 0
M  V30 5127 H 458.897 -0.694359 -5.83483 0
M  V30 5128 H 460.421 0.198743 -6.10276 0
M  V30 5129 H 461.835 -1.95746 -5.38847 0
M  V30 5130 H 460.232 -2.74686 -5.33542 0
M  V30 5131 H 461.302 -2.84674 -3.92541 0
M  V30 5132 N 462.645 1.35699 -0.801477 0
M  V30 5133 C 463.575 2.32436 -0.222658 0
M  V30 5134 C 464.556 1.5723 0.649057 0
M  V30 5135 O 465.741 1.85324 0.580387 0
M  V30 5136 C 462.871 3.41469 0.633719 0
M  V30 5137 C 461.825 4.27774 -0.139083 0
M  V30 5138 C 461.151 5.28082 0.838666 0
M  V30 5139 C 462.451 5.04946 -1.33517 0
M  V30 5140 H 464.145 2.81094 -1.03086 0
M  V30 5141 H 461.691 1.35146 -0.497155 0
M  V30 5142 H 463.644 4.08143 1.04868 0
M  V30 5143 H 462.368 2.91408 1.47475 0
M  V30 5144 H 461.027 3.62673 -0.535156 0
M  V30 5145 H 460.675 4.7429 1.67506 0
M  V30 5146 H 460.375 5.86695 0.32594 0
M  V30 5147 H 461.899 5.97628 1.25194 0
M  V30 5148 H 463.313 5.64593 -0.995349 0
M  V30 5149 H 461.71 5.7303 -1.78202 0
M  V30 5150 H 462.78 4.35886 -2.12442 0
M  V30 5151 N 464.123 0.554532 1.47522 0
M  V30 5152 C 465.071 -0.207765 2.3167 0
M  V30 5153 C 466.065 -0.911914 1.4276 0
M  V30 5154 O 467.271 -0.833504 1.59539 0
M  V30 5155 H 463.646 -0.0858726 0.747081 0
M  V30 5156 H 465.617 0.521178 2.93813 0
M  V30 5157 C 464.366 -1.2263 3.25357 0
M  V30 5158 H 463.689 -0.693887 3.93732 0
M  V30 5159 H 465.129 -1.73062 3.87073 0
M  V30 5160 C 463.588 -2.27278 2.4869 0
M  V30 5161 O 464.118 -3.34156 2.22941 0
M  V30 5162 N 462.324 -2.01134 2.09746 0
M  V30 5163 H 461.871 -1.14232 2.30887 0
M  V30 5164 H 461.829 -2.71369 1.58765 0
M  V30 5165 N 465.601 -1.54893 0.290851 0
M  V30 5166 C 466.548 -2.23138 -0.58974 0
M  V30 5167 C 467.518 -1.21036 -1.13752 0
M  V30 5168 O 468.703 -1.49626 -1.18392 0
M  V30 5169 C 465.843 -2.96811 -1.76061 0
M  V30 5170 C 464.956 -4.13665 -1.24519 0
M  V30 5171 C 464.091 -4.74944 -2.3791 0
M  V30 5172 C 463.13 -5.83963 -1.83451 0
M  V30 5173 N 462.267 -6.39239 -2.90376 0
M  V30 5174 H 467.107 -2.98 -0.00114915 0
M  V30 5175 H 464.644 -1.47096 0.0112006 0
M  V30 5176 H 466.602 -3.37751 -2.44909 0
M  V30 5177 H 465.232 -2.24344 -2.32098 0
M  V30 5178 H 464.284 -3.77737 -0.449288 0
M  V30 5179 H 465.596 -4.92238 -0.806424 0
M  V30 5180 H 464.75 -5.18684 -3.14724 0
M  V30 5181 H 463.489 -3.95682 -2.85109 0
M  V30 5182 H 462.494 -5.39657 -1.05122 0
M  V30 5183 H 463.719 -6.65103 -1.37169 0
M  V30 5184 H 461.665 -5.62864 -3.36927 0
M  V30 5185 H 461.582 -7.13129 -2.50965 0
M  V30 5186 H 462.85 -6.87637 -3.67118 0
M  V30 5187 N 467.08 -0.0183926 -1.57589 0
M  V30 5188 C 468.028 0.985111 -2.10709 0
M  V30 5189 C 469.022 1.34397 -1.0312 0
M  V30 5190 O 470.228 1.32746 -1.21567 0
M  V30 5191 H 466.603 0.335418 -0.673052 0
M  V30 5192 H 468.574 0.511689 -2.9398 0
M  V30 5193 C 467.323 2.26202 -2.64061 0
M  V30 5194 H 466.646 1.9946 -3.4649 0
M  V30 5195 H 468.086 2.94652 -3.04887 0
M  V30 5196 C 466.545 2.98444 -1.5631 0
M  V30 5197 O 467.075 3.90142 -0.956674 0
M  V30 5198 N 465.281 2.6059 -1.28612 0
M  V30 5199 H 464.828 1.86101 -1.78112 0
M  V30 5200 H 464.786 3.09238 -0.567406 0
M  V30 5201 N 468.558 1.5553 0.254621 0
M  V30 5202 C 469.805 1.77 0.983736 0
M  V30 5203 C 470.133 0.58133 1.85609 0
M  V30 5204 O 469.388 -0.435621 1.9079 0
M  V30 5205 C 469.687 3.03891 1.88109 0
M  V30 5206 C 469.353 4.35597 1.16472 0
M  V30 5207 C 468.015 4.7139 0.966714 0
M  V30 5208 C 470.367 5.1705 0.656387 0
M  V30 5209 C 467.695 5.86176 0.247942 0
M  V30 5210 C 470.047 6.32581 -0.0488807 0
M  V30 5211 C 468.711 6.67 -0.258438 0
M  V30 5212 H 467.981 0.647688 0.359974 0
M  V30 5213 H 470.628 1.89802 0.254463 0
M  V30 5214 H 468.933 2.86068 2.67717 0
M  V30 5215 H 470.63 3.17701 2.44677 0
M  V30 5216 H 467.22 4.07475 1.32899 0
M  V30 5217 H 471.404 4.8986 0.796933 0
M  V30 5218 H 466.66 6.11354 0.075035 0
M  V30 5219 H 470.834 6.94942 -0.450444 0
M  V30 5220 H 468.461 7.55793 -0.817358 0
M  V30 5221 N 470.036 -0.519951 1.48776 0
M  V30 5222 C 471.447 -1.10177 1.50725 0
M  V30 5223 C 471.798 -1.94153 0.282678 0
M  V30 5224 O 470.923 -2.07645 -0.609298 0
M  V30 5225 C 471.518 -2.00482 2.73116 0
M  V30 5226 C 470.077 -2.53862 2.77905 0
M  V30 5227 C 469.224 -1.31047 2.44381 0
M  V30 5228 H 472.175 -0.30473 1.55747 0
M  V30 5229 H 472.196 -2.8491 2.52203 0
M  V30 5230 H 471.708 -1.39335 3.62225 0
M  V30 5231 H 469.809 -3.18702 1.93029 0
M  V30 5232 H 469.922 -2.9231 3.79594 0
M  V30 5233 H 468.286 -1.62953 1.95751 0
M  V30 5234 H 469.069 -0.71637 3.35743 0
M  V30 5235 N 471.514 -1.37532 -0.769588 0
M  V30 5236 C 472.76 -1.34063 -1.52966 0
M  V30 5237 C 473.115 0.0737942 -1.92258 0
M  V30 5238 O 472.408 1.03291 -1.61374 0
M  V30 5239 C 472.602 -2.21558 -2.8044 0
M  V30 5240 C 472.431 -3.71367 -2.53608 0
M  V30 5241 C 471.201 -4.40464 -2.47628 0
M  V30 5242 C 473.399 -4.64177 -2.21459 0
M  V30 5243 N 471.381 -5.758 -2.12902 0
M  V30 5244 C 472.752 -5.87907 -1.9689 0
M  V30 5245 C 474.807 -4.52541 -2.07633 0
M  V30 5246 C 473.51 -7.01304 -1.59892 0
M  V30 5247 C 475.536 -5.65825 -1.72034 0
M  V30 5248 C 474.898 -6.88606 -1.48327 0
M  V30 5249 H 470.997 -0.545856 -0.559969 0
M  V30 5250 H 473.581 -1.72773 -0.897634 0
M  V30 5251 H 471.752 -1.85061 -3.41478 0
M  V30 5252 H 473.484 -2.09332 -3.46356 0
M  V30 5253 H 470.239 -3.93491 -2.63556 0
M  V30 5254 H 470.663 -6.47328 -1.9823 0
M  V30 5255 H 475.305 -3.58183 -2.24643 0
M  V30 5256 H 473.023 -7.95594 -1.4162 0
M  V30 5257 H 476.609 -5.58793 -1.61991 0
M  V30 5258 H 475.489 -7.74779 -1.21189 0
M  V30 5259 N 472.992 0.995999 -1.22138 0
M  V30 5260 C 473.924 2.08745 -0.946485 0
M  V30 5261 C 474.937 1.62633 0.0737356 0
M  V30 5262 O 476.126 1.77782 -0.159886 0
M  V30 5263 C 473.226 3.36516 -0.401305 0
M  V30 5264 C 472.399 4.11672 -1.47801 0
M  V30 5265 C 471.458 5.17728 -0.940461 0
M  V30 5266 O 470.484 5.45482 -1.62596 0
M  V30 5267 N 471.686 5.80005 0.239723 0
M  V30 5268 H 474.451 2.32908 -1.88611 0
M  V30 5269 H 472.012 1.16152 -1.12785 0
M  V30 5270 H 474.004 4.04691 -0.0270837 0
M  V30 5271 H 472.574 3.0944 0.443354 0
M  V30 5272 H 471.794 3.38171 -2.02568 0
M  V30 5273 H 473.082 4.58657 -2.20253 0
M  V30 5274 H 472.48 5.5982 0.813518 0
M  V30 5275 H 471.037 6.4943 0.555361 0
M  V30 5276 N 474.47 1.03057 1.19235 0
M  V30 5277 C 475.38 0.622922 2.26179 0
M  V30 5278 C 476.396 -0.346113 1.70523 0
M  V30 5279 O 477.572 -0.203572 2.00369 0
M  V30 5280 C 474.637 -0.0182063 3.46695 0
M  V30 5281 C 473.698 0.998546 4.17526 0
M  V30 5282 C 472.931 0.387917 5.32288 0
M  V30 5283 O 473.154 -0.808668 5.64639 0
M  V30 5284 O 472.088 1.1116 5.91546 0
M  V30 5285 H 475.914 1.51363 2.63292 0
M  V30 5286 H 473.499 0.800856 1.26122 0
M  V30 5287 H 475.381 -0.375606 4.19723 0
M  V30 5288 H 474.056 -0.882895 3.11427 0
M  V30 5289 H 472.963 1.40756 3.4661 0
M  V30 5290 H 474.296 1.83366 4.56769 0
M  V30 5291 N 475.948 -1.35272 0.808662 0
M  V30 5292 C 477.225 -1.93077 0.313181 0
M  V30 5293 C 477.605 -1.73847 -1.19752 0
M  V30 5294 O 476.953 -1.1087 -1.998 0
M  V30 5295 C 477.163 -3.41347 0.726859 0
M  V30 5296 C 478.511 -4.18493 0.717532 0
M  V30 5297 O 479.535 -3.4987 0.668535 0
M  V30 5298 O 478.394 -5.40937 0.777779 0
M  V30 5299 H 475.488 -0.822885 0.0824018 0
M  V30 5300 H 478.034 -1.44335 0.892499 0
M  V30 5301 H 476.806 -3.49082 1.76797 0
M  V30 5302 H 476.429 -3.97411 0.122461 0
M  V30 5303 N 477.426 -0.562348 -1.47226 0
M  V30 5304 C 478.358 0.220011 -2.28142 0
M  V30 5305 C 479.371 0.874596 -1.37312 0
M  V30 5306 O 480.56 0.747583 -1.62091 0
M  V30 5307 C 477.66 1.32953 -3.11732 0
M  V30 5308 C 476.833 0.770759 -4.30556 0
M  V30 5309 C 475.892 1.76541 -4.95701 0
M  V30 5310 O 474.918 1.3095 -5.53932 0
M  V30 5311 N 476.12 3.09896 -4.90861 0
M  V30 5312 H 478.885 -0.474107 -2.95926 0
M  V30 5313 H 476.446 -0.398761 -1.56912 0
M  V30 5314 H 478.438 1.99378 -3.5218 0
M  V30 5315 H 477.008 1.92681 -2.46156 0
M  V30 5316 H 476.228 -0.0704056 -3.94137 0
M  V30 5317 H 477.516 0.376872 -5.07402 0
M  V30 5318 H 476.914 3.49577 -4.44761 0
M  V30 5319 H 475.471 3.71865 -5.35313 0
M  V30 5320 N 478.904 1.54736 -0.299062 0
M  V30 5321 C 480.15 2.00397 0.311244 0
M  V30 5322 C 480.483 1.18716 1.53688 0
M  V30 5323 O 479.758 0.263154 1.92712 0
M  V30 5324 C 480.041 3.53817 0.669761 0
M  V30 5325 C 479.894 4.46239 -0.564882 0
M  V30 5326 C 481.213 4.13856 1.49702 0
M  V30 5327 H 478.332 0.728493 0.111653 0
M  V30 5328 H 480.974 1.85506 -0.410774 0
M  V30 5329 H 479.124 3.66637 1.28491 0
M  V30 5330 H 480.796 4.45328 -1.20337 0
M  V30 5331 H 479.039 4.16916 -1.19849 0
M  V30 5332 H 479.71 5.5134 -0.269918 0
M  V30 5333 H 482.186 4.04461 0.977284 0
M  V30 5334 H 481.062 5.21365 1.71666 0
M  V30 5335 H 481.323 3.65608 2.48563 0
M  V30 5336 N 480.382 0.0267497 1.57577 0
M  V30 5337 C 481.798 -0.32962 1.56159 0
M  V30 5338 C 481.998 -1.73059 1.03213 0
M  V30 5339 O 481.054 -2.43233 0.677804 0
M  V30 5340 C 482.367 -0.18039 3.00158 0
M  V30 5341 C 483.915 -0.253334 3.11973 0
M  V30 5342 C 484.39 -0.132921 4.57807 0
M  V30 5343 N 485.881 -0.189979 4.6281 0
M  V30 5344 C 486.616 -0.120554 5.73273 0
M  V30 5345 N 486.112 -0.000180315 6.928 0
M  V30 5346 N 487.905 -0.174369 5.61829 0
M  V30 5347 H 480.056 0.942896 1.90324 0
M  V30 5348 H 482.319 0.3639 0.875375 0
M  V30 5349 H 482.025 0.784576 3.42837 0
M  V30 5350 H 481.899 -0.951565 3.65 0
M  V30 5351 H 484.286 -1.20876 2.69208 0
M  V30 5352 H 484.367 0.548177 2.49857 0
M  V30 5353 H 484.011 0.819073 5.01252 0
M  V30 5354 H 483.941 -0.953264 5.179 0
M  V30 5355 H 486.432 -0.283257 3.76837 0
M  V30 5356 H 486.745 0.0461666 7.72786 0
M  V30 5357 H 485.09 0.034569 6.94991 0
M  V30 5358 H 488.281 -0.266794 4.67339 0
M  V30 5359 H 488.454 -0.116802 6.47895 0
M  V30 5360 N 481.861 -1.55662 -0.24637 0
M  V30 5361 C 483.108 -1.77519 -0.974335 0
M  V30 5362 C 483.436 -0.591165 -1.85298 0
M  V30 5363 O 482.691 0.425497 -1.91018 0
M  V30 5364 C 482.99 -3.04885 -1.86494 0
M  V30 5365 C 482.656 -4.36209 -1.14161 0
M  V30 5366 C 481.318 -4.71896 -0.941701 0
M  V30 5367 C 483.67 -5.17391 -0.628957 0
M  V30 5368 C 480.998 -5.86299 -0.216852 0
M  V30 5369 C 483.35 -6.32546 0.0824273 0
M  V30 5370 C 482.014 -6.66853 0.293807 0
M  V30 5371 H 481.284 -0.649588 -0.356535 0
M  V30 5372 H 483.931 -1.89934 -0.244394 0
M  V30 5373 H 482.236 -2.87484 -2.66196 0
M  V30 5374 H 483.933 -3.18994 -2.42989 0
M  V30 5375 H 480.523 -4.08174 -1.30736 0
M  V30 5376 H 484.707 -4.90276 -0.770943 0
M  V30 5377 H 479.963 -6.11385 -0.0426124 0
M  V30 5378 H 484.137 -6.94693 0.487292 0
M  V30 5379 H 481.764 -7.55349 0.857428 0
M  V30 5380 N 483.339 0.512053 -1.4905 0
M  V30 5381 C 484.249 1.64139 -1.67617 0
M  V30 5382 C 485.265 1.64786 -0.558701 0
M  V30 5383 O 486.441 1.8341 -0.832034 0
M  V30 5384 C 483.506 3.00548 -1.72835 0
M  V30 5385 C 482.567 3.10615 -2.96339 0
M  V30 5386 C 481.8 4.40517 -3.01298 0
M  V30 5387 O 482.023 5.28671 -2.14157 0
M  V30 5388 O 480.957 4.55325 -3.93653 0
M  V30 5389 H 484.783 1.51407 -2.63267 0
M  V30 5390 H 482.368 0.687131 -1.32661 0
M  V30 5391 H 484.25 3.81641 -1.78683 0
M  V30 5392 H 482.925 3.13566 -0.803616 0
M  V30 5393 H 481.832 2.2875 -2.96014 0
M  V30 5394 H 483.165 3.0252 -3.88256 0
M  V30 5395 N 484.817 1.37938 0.762283 0
M  V30 5396 C 485.747 1.37176 1.88958 0
M  V30 5397 C 486.728 0.238945 1.68413 0
M  V30 5398 O 487.913 0.440726 1.89133 0
M  V30 5399 C 485.043 1.18742 3.2637 0
M  V30 5400 C 483.997 2.29136 3.61498 0
M  V30 5401 C 483.323 1.95816 4.97554 0
M  V30 5402 C 484.623 3.71363 3.6727 0
M  V30 5403 H 486.317 2.31509 1.89853 0
M  V30 5404 H 483.863 1.11438 0.912005 0
M  V30 5405 H 485.816 1.16837 4.04879 0
M  V30 5406 H 484.54 0.208683 3.25933 0
M  V30 5407 H 483.199 2.30213 2.85303 0
M  V30 5408 H 482.847 0.964475 4.93667 0
M  V30 5409 H 482.547 2.69745 5.22026 0
M  V30 5410 H 484.071 1.95513 5.78452 0
M  V30 5411 H 485.485 3.72364 4.35911 0
M  V30 5412 H 483.882 4.44425 4.03245 0
M  V30 5413 H 484.952 4.04305 2.67704 0
M  V30 5414 N 486.295 -0.989507 1.22664 0
M  V30 5415 C 487.541 -1.73298 1.06487 0
M  V30 5416 C 487.896 -1.88292 -0.395438 0
M  V30 5417 O 487.189 -1.41748 -1.28911 0
M  V30 5418 C 487.383 -3.13649 1.71345 0
M  V30 5419 C 487.212 -3.12341 3.23532 0
M  V30 5420 C 485.982 -3.18044 3.92653 0
M  V30 5421 C 488.18 -2.96226 4.20422 0
M  V30 5422 N 486.162 -3.06526 5.31898 0
M  V30 5423 C 487.533 -2.92773 5.4652 0
M  V30 5424 C 489.588 -2.80642 4.11271 0
M  V30 5425 C 488.291 -2.75332 6.64519 0
M  V30 5426 C 490.317 -2.64563 5.28924 0
M  V30 5427 C 489.679 -2.618 6.53942 0
M  V30 5428 H 485.778 -0.643643 0.444126 0
M  V30 5429 H 488.362 -1.17489 1.55256 0
M  V30 5430 H 486.533 -3.67694 1.25122 0
M  V30 5431 H 488.265 -3.76577 1.48229 0
M  V30 5432 H 485.02 -3.25861 3.43673 0
M  V30 5433 H 485.444 -3.04067 6.04874 0
M  V30 5434 H 490.086 -2.81574 3.15398 0
M  V30 5435 H 487.804 -2.73145 7.60538 0
M  V30 5436 H 491.39 -2.53482 5.23677 0
M  V30 5437 H 490.27 -2.49511 7.43447 0
M  V30 5438 N 487.773 -1.03688 -1.18687 0
M  V30 5439 C 489.189 -0.755413 -1.4059 0
M  V30 5440 C 489.389 0.656659 -1.905 0
M  V30 5441 O 488.445 1.42144 -2.08689 0
M  V30 5442 C 489.758 -1.7983 -2.41001 0
M  V30 5443 C 491.306 -1.81877 -2.54735 0
M  V30 5444 C 491.781 -2.85148 -3.58406 0
M  V30 5445 N 493.272 -2.84015 -3.6591 0
M  V30 5446 C 494.007 -3.60573 -4.45841 0
M  V30 5447 N 493.503 -4.46871 -5.29413 0
M  V30 5448 N 495.296 -3.49079 -4.40568 0
M  V30 5449 H 487.447 -1.94818 -0.846148 0
M  V30 5450 H 489.71 -0.842727 -0.434184 0
M  V30 5451 H 489.416 -2.81097 -2.1137 0
M  V30 5452 H 489.29 -1.62727 -3.40294 0
M  V30 5453 H 491.677 -0.812836 -2.83685 0
M  V30 5454 H 491.758 -2.03057 -1.55568 0
M  V30 5455 H 491.402 -3.85918 -3.30197 0
M  V30 5456 H 491.332 -2.61224 -4.57241 0
M  V30 5457 H 493.823 -2.21431 -3.0623 0
M  V30 5458 H 494.136 -5.02007 -5.87545 0
M  V30 5459 H 492.481 -4.5094 -5.28846 0
M  V30 5460 H 495.672 -2.81066 -3.74325 0
M  V30 5461 H 495.845 -4.08994 -5.02621 0
M  V30 5462 N 489.251 1.34841 -0.815825 0
M  V30 5463 C 490.476 2.03261 -0.41226 0
M  V30 5464 C 490.901 1.61055 0.971751 0
M  V30 5465 O 490.259 0.7917 1.63101 0
M  V30 5466 C 490.307 3.56914 -0.514289 0
M  V30 5467 O 489.411 4.09728 0.468675 0
M  V30 5468 H 488.752 0.641664 -0.170771 0
M  V30 5469 H 491.282 1.72241 -1.10427 0
M  V30 5470 H 491.292 4.06156 -0.387457 0
M  V30 5471 H 489.967 3.86982 -1.52375 0
M  V30 5472 H 488.544 3.71681 0.301316 0
M  V30 5473 N 490.729 0.570148 1.46925 0
M  V30 5474 C 491.977 0.0508523 2.02036 0
M  V30 5475 C 492.298 -1.30885 1.44548 0
M  V30 5476 O 491.568 -1.85647 0.625453 0
M  V30 5477 H 490.148 0.0158088 0.746833 0
M  V30 5478 H 492.81 0.743086 1.80178 0
M  V30 5479 H 491.906 -0.027575 3.12088 0
M  V30 5480 N 492.207 -1.54576 0.307264 0
M  V30 5481 C 493.139 -2.21212 -0.599807 0
M  V30 5482 C 494.152 -1.20685 -1.09266 0
M  V30 5483 O 495.341 -1.47244 -1.00903 0
M  V30 5484 C 492.441 -2.84994 -1.83389 0
M  V30 5485 C 491.614 -4.11511 -1.48248 0
M  V30 5486 C 490.673 -4.59038 -2.57237 0
M  V30 5487 O 489.699 -5.24095 -2.22065 0
M  V30 5488 N 490.901 -4.31884 -3.87887 0
M  V30 5489 H 493.666 -2.99686 -0.0293075 0
M  V30 5490 H 491.227 -1.61379 0.129738 0
M  V30 5491 H 493.219 -3.1372 -2.5566 0
M  V30 5492 H 491.789 -2.10324 -2.31263 0
M  V30 5493 H 491.009 -3.89728 -0.592122 0
M  V30 5494 H 492.297 -4.93879 -1.22316 0
M  V30 5495 H 491.695 -3.79778 -4.19268 0
M  V30 5496 H 490.252 -4.65304 -4.56438 0
M  V30 5497 N 493.685 -0.035106 -1.57561 0
M  V30 5498 C 494.913 0.652258 -1.9635 0
M  V30 5499 C 495.328 1.65317 -0.911897 0
M  V30 5500 O 494.685 1.82194 0.105657 0
M  V30 5501 C 494.736 1.35337 -3.35211 0
M  V30 5502 O 494.457 0.392548 -4.36338 0
M  V30 5503 C 495.958 2.13199 -3.88666 0
M  V30 5504 H 493.178 0.179444 -0.646561 0
M  V30 5505 H 495.722 -0.0966459 -2.04271 0
M  V30 5506 H 493.877 2.05362 -3.28489 0
M  V30 5507 H 494.291 0.891097 -5.16875 0
M  V30 5508 H 495.765 2.577 -4.88154 0
M  V30 5509 H 496.242 2.97353 -3.23231 0
M  V30 5510 H 496.848 1.48118 -3.98674 0
M  V30 5511 N 495.163 1.55791 0.238111 0
M  V30 5512 C 496.411 1.77681 0.963001 0
M  V30 5513 C 496.732 0.600674 1.85518 0
M  V30 5514 O 496.002 -0.383182 1.92116 0
M  V30 5515 H 494.582 0.655315 0.358568 0
M  V30 5516 H 497.244 1.93239 0.253945 0
M  V30 5517 H 496.34 2.69177 1.57956 0
M  V30 5518 N 496.642 -0.504142 1.49319 0
M  V30 5519 C 497.872 -1.28071 1.62116 0
M  V30 5520 C 498.28 -1.86955 0.290566 0
M  V30 5521 O 497.623 -1.68415 -0.733616 0
M  V30 5522 C 497.685 -2.4521 2.62893 0
M  V30 5523 C 497.349 -2.07218 4.0732 0
M  V30 5524 C 498.346 -1.61375 4.94221 0
M  V30 5525 C 496.031 -2.16949 4.53033 0
M  V30 5526 C 498.025 -1.25763 6.2487 0
M  V30 5527 C 495.712 -1.80949 5.83696 0
M  V30 5528 C 496.71 -1.3543 6.69438 0
M  V30 5529 O 496.398 -0.99915 7.97667 0
M  V30 5530 H 496.13 -0.394763 0.54876 0
M  V30 5531 H 498.684 -0.612118 1.96067 0
M  V30 5532 H 496.914 -3.15134 2.24115 0
M  V30 5533 H 498.603 -3.0724 2.65252 0
M  V30 5534 H 499.369 -1.53306 4.60133 0
M  V30 5535 H 495.248 -2.5133 3.86463 0
M  V30 5536 H 498.792 -0.901631 6.91749 0
M  V30 5537 H 494.689 -1.88667 6.17313 0
M  V30 5538 H 495.457 -1.13089 8.1065 0
M  V30 5539 N 498.12 -1.38341 -0.754957 0
M  V30 5540 C 499.531 -1.30803 -1.3322 0
M  V30 5541 C 499.882 0.0368 -1.96165 0
M  V30 5542 O 499.007 0.938844 -1.94974 0
M  V30 5543 C 499.602 -2.3688 -2.42225 0
M  V30 5544 C 498.161 -2.32925 -2.95674 0
M  V30 5545 C 497.308 -2.19819 -1.69042 0
M  V30 5546 H 500.259 -1.48719 -0.553937 0
M  V30 5547 H 500.28 -2.02517 -3.22129 0
M  V30 5548 H 499.792 -3.34747 -1.96383 0
M  V30 5549 H 497.893 -1.38635 -3.45848 0
M  V30 5550 H 498.006 -3.27008 -3.50146 0
M  V30 5551 H 496.37 -1.66648 -1.92615 0
M  V30 5552 H 497.153 -3.19625 -1.25279 0
M  V30 5553 N 499.598 0.982988 -1.23187 0
M  V30 5554 C 500.528 2.09301 -1.03515 0
M  V30 5555 C 501.509 1.70035 0.0471136 0
M  V30 5556 O 502.694 1.93847 -0.117029 0
M  V30 5557 C 499.824 3.4167 -0.622791 0
M  V30 5558 C 498.778 3.94828 -1.65211 0
M  V30 5559 C 498.104 5.23362 -1.09527 0
M  V30 5560 C 499.404 4.2439 -3.04451 0
M  V30 5561 H 501.098 2.26016 -1.96359 0
M  V30 5562 H 498.644 1.08611 -0.945501 0
M  V30 5563 H 500.597 4.18746 -0.472233 0
M  V30 5564 H 499.321 3.24811 0.341329 0
M  V30 5565 H 497.98 3.19895 -1.79061 0
M  V30 5566 H 497.628 5.02852 -0.122211 0
M  V30 5567 H 497.328 5.59895 -1.783 0
M  V30 5568 H 498.852 6.03062 -0.956511 0
M  V30 5569 H 500.266 4.92225 -2.93917 0
M  V30 5570 H 498.663 4.72118 -3.70438 0
M  V30 5571 H 499.733 3.31765 -3.53638 0
M  V30 5572 N 501.076 1.04316 1.18135 0
M  V30 5573 C 502.322 0.749128 1.88457 0
M  V30 5574 C 502.655 -0.72149 1.803 0
M  V30 5575 O 501.93 -1.52676 1.205 0
M  V30 5576 C 502.213 1.21905 3.38838 0
M  V30 5577 C 502.066 2.75195 3.55792 0
M  V30 5578 C 503.385 0.811085 4.32561 0
M  V30 5579 H 500.504 0.273611 0.684329 0
M  V30 5580 H 503.146 1.29561 1.38975 0
M  V30 5581 H 501.296 0.754137 3.8111 0
M  V30 5582 H 502.968 3.29743 3.22595 0
M  V30 5583 H 501.211 3.14899 2.98364 0
M  V30 5584 H 501.882 3.03135 4.61317 0
M  V30 5585 H 504.358 1.21118 3.98082 0
M  V30 5586 H 503.234 1.16761 5.36338 0
M  V30 5587 H 503.495 -0.285596 4.41177 0
M  V30 5588 N 502.554 -1.34406 0.822964 0
M  V30 5589 C 503.831 -1.92733 0.333641 0
M  V30 5590 C 504.211 -1.75107 -1.17901 0
M  V30 5591 O 503.559 -1.12983 -1.98613 0
M  V30 5592 C 503.769 -3.40557 0.763023 0
M  V30 5593 C 505.117 -4.17709 0.761879 0
M  V30 5594 O 506.141 -3.49141 0.705606 0
M  V30 5595 O 505 -5.40082 0.835109 0
M  V30 5596 H 502.094 -0.821964 0.0911249 0
M  V30 5597 H 504.64 -1.4338 0.907757 0
M  V30 5598 H 503.412 -3.47187 1.8049 0
M  V30 5599 H 503.035 -3.97259 0.164605 0
M  V30 5600 N 504.032 -0.577932 -1.46621 0
M  V30 5601 C 504.995 0.147805 -2.28723 0
M  V30 5602 C 505.995 0.823325 -1.38123 0
M  V30 5603 O 507.185 0.676011 -1.60548 0
M  V30 5604 C 504.317 1.21853 -3.18378 0
M  V30 5605 H 505.51 -0.573654 -2.94362 0
M  V30 5606 H 503.063 -0.335703 -1.52652 0
M  V30 5607 H 503.798 1.97173 -2.57475 0
M  V30 5608 H 503.583 0.738714 -3.85078 0
M  V30 5609 H 505.073 1.72768 -3.80186 0
M  V30 5610 N 505.51 1.54411 -0.315457 0
M  V30 5611 C 506.458 2.25514 0.569771 0
M  V30 5612 C 507.452 1.2663 1.12522 0
M  V30 5613 O 508.658 1.44434 1.07419 0
M  V30 5614 H 505.033 0.724257 0.202376 0
M  V30 5615 H 507.004 2.98354 -0.0522895 0
M  V30 5616 C 505.753 3.02004 1.72305 0
M  V30 5617 H 505.076 3.77906 1.30488 0
M  V30 5618 H 506.516 3.55014 2.31821 0
M  V30 5619 C 504.975 2.09822 2.63583 0
M  V30 5620 O 505.505 1.67574 3.65078 0
M  V30 5621 N 503.711 1.75478 2.31637 0
M  V30 5622 H 503.258 2.10032 1.49145 0
M  V30 5623 H 503.216 1.14079 2.92973 0
M  V30 5624 N 506.988 0.0434614 1.5754 0
M  V30 5625 C 507.921 -0.968729 2.06618 0
M  V30 5626 C 508.899 -1.30868 0.965 0
M  V30 5627 O 510.083 -1.42288 1.23638 0
M  V30 5628 C 507.21 -2.28486 2.50023 0
M  V30 5629 C 506.256 -2.09851 3.71302 0
M  V30 5630 S 507.089 -1.38401 5.17306 0
M  V30 5631 C 508.245 -2.71354 5.64019 0
M  V30 5632 H 508.478 -0.551021 2.92149 0
M  V30 5633 H 506.011 -0.168607 1.53477 0
M  V30 5634 H 507.969 -3.04142 2.75695 0
M  V30 5635 H 506.63 -2.67387 1.64812 0
M  V30 5636 H 505.823 -3.07184 3.99567 0
M  V30 5637 H 505.425 -1.42336 3.45856 0
M  V30 5638 H 507.717 -3.67549 5.69134 0
M  V30 5639 H 508.66 -2.47734 6.6335 0
M  V30 5640 H 509.068 -2.77259 4.91719 0
M  V30 5641 N 508.466 -1.55915 -0.229846 0
M  V30 5642 C 509.882 -1.48721 -0.579166 0
M  V30 5643 C 510.082 -0.736976 -1.87539 0
M  V30 5644 O 509.138 -0.273258 -2.51017 0
M  V30 5645 C 510.451 -2.9323 -0.666082 0
M  V30 5646 C 511.999 -3.03701 -0.757267 0
M  V30 5647 C 512.474 -4.49552 -0.8756 0
M  V30 5648 N 513.965 -4.53561 -0.940035 0
M  V30 5649 C 514.7 -5.63683 -1.05116 0
M  V30 5650 N 514.196 -6.83576 -1.12675 0
M  V30 5651 N 515.989 -5.51516 -1.08565 0
M  V30 5652 H 508.14 -2.03123 0.620857 0
M  V30 5653 H 510.403 -0.922898 0.21671 0
M  V30 5654 H 510.109 -3.51032 0.21664 0
M  V30 5655 H 509.983 -3.44668 -1.53243 0
M  V30 5656 H 512.37 -2.45969 -1.63043 0
M  V30 5657 H 512.451 -2.55446 0.134583 0
M  V30 5658 H 512.095 -5.079 -0.00692351 0
M  V30 5659 H 512.025 -4.95506 -1.78274 0
M  V30 5660 H 514.516 -3.67215 -0.892269 0
M  V30 5661 H 514.829 -7.63251 -1.21109 0
M  V30 5662 H 513.174 -6.86303 -1.09603 0
M  V30 5663 H 516.365 -4.5678 -1.02319 0
M  V30 5664 H 516.538 -6.37372 -1.1688 0
M  V30 5665 N 509.944 0.496216 -1.49584 0
M  V30 5666 C 510.854 1.62352 -1.69349 0
M  V30 5667 C 511.87 1.64184 -0.576147 0
M  V30 5668 O 513.046 1.82517 -0.85144 0
M  V30 5669 C 510.111 2.98698 -1.76013 0
M  V30 5670 C 509.172 3.07454 -2.99617 0
M  V30 5671 C 508.405 4.37296 -3.05953 0
M  V30 5672 O 508.628 5.2637 -2.19752 0
M  V30 5673 O 507.562 4.51124 -3.9846 0
M  V30 5674 H 511.388 1.48606 -2.64859 0
M  V30 5675 H 508.973 0.673022 -1.33382 0
M  V30 5676 H 510.855 3.79725 -1.82721 0
M  V30 5677 H 509.53 3.12696 -0.836828 0
M  V30 5678 H 508.437 2.25597 -2.98424 0
M  V30 5679 H 509.77 2.98385 -3.91443 0
M  V30 5680 N 511.423 1.38739 0.74761 0
M  V30 5681 C 512.353 1.39173 1.87492 0
M  V30 5682 C 513.334 0.256794 1.6815 0
M  V30 5683 O 514.519 0.460762 1.88655 0
M  V30 5684 C 511.649 1.22197 3.25093 0
M  V30 5685 C 510.603 2.32957 3.59047 0
M  V30 5686 C 509.929 2.01082 4.95449 0
M  V30 5687 C 511.229 3.75237 3.6331 0
M  V30 5688 H 512.923 2.3351 1.87386 0
M  V30 5689 H 510.469 1.12399 0.900134 0
M  V30 5690 H 512.422 1.21124 4.03617 0
M  V30 5691 H 511.146 0.243241 3.25693 0
M  V30 5692 H 509.805 2.33226 2.82845 0
M  V30 5693 H 509.453 1.01678 4.92616 0
M  V30 5694 H 509.153 2.75267 5.19136 0
M  V30 5695 H 510.677 2.01638 5.76346 0
M  V30 5696 H 512.091 3.76966 4.31937 0
M  V30 5697 H 510.488 4.48677 3.98509 0
M  V30 5698 H 511.558 4.07122 2.634 0
M  V30 5699 N 512.901 -0.976442 1.23707 0
M  V30 5700 C 513.849 -2.09078 1.01927 0
M  V30 5701 C 514.843 -1.69345 -0.0430193 0
M  V30 5702 O 516.049 -1.79659 0.110814 0
M  V30 5703 H 512.424 -0.68398 0.312531 0
M  V30 5704 H 514.395 -2.24614 1.96447 0
M  V30 5705 C 513.144 -3.41919 0.631385 0
M  V30 5706 H 512.467 -3.72946 1.44053 0
M  V30 5707 H 513.907 -4.20817 0.518532 0
M  V30 5708 C 512.366 -3.30357 -0.660723 0
M  V30 5709 O 512.896 -3.63542 -1.70881 0
M  V30 5710 N 511.102 -2.83507 -0.638139 0
M  V30 5711 H 510.649 -2.567 0.215108 0
M  V30 5712 H 510.607 -2.76153 -1.50289 0
M  V30 5713 N 514.379 -1.04941 -1.1758 0
M  V30 5714 C 515.309 -0.669172 -2.23706 0
M  V30 5715 C 516.29 0.331835 -1.66832 0
M  V30 5716 O 517.475 0.209988 -1.93061 0
M  V30 5717 C 514.605 -0.0404889 -3.47276 0
M  V30 5718 C 513.559 -0.965983 -4.16957 0
M  V30 5719 C 512.885 -0.201312 -5.34321 0
M  V30 5720 C 514.185 -2.28902 -4.69469 0
M  V30 5721 H 515.879 -1.55639 -2.55767 0
M  V30 5722 H 513.425 -0.749793 -1.22939 0
M  V30 5723 H 515.378 0.237298 -4.20731 0
M  V30 5724 H 514.102 0.881658 -3.14475 0
M  V30 5725 H 512.761 -1.22829 -3.45411 0
M  V30 5726 H 512.409 0.723519 -4.97769 0
M  V30 5727 H 512.109 -0.817968 -5.81879 0
M  V30 5728 H 513.633 0.0692499 -6.10561 0
M  V30 5729 H 515.047 -2.07132 -5.34574 0
M  V30 5730 H 513.444 -2.85942 -5.27596 0
M  V30 5731 H 514.514 -2.92937 -3.86414 0
M  V30 5732 N 515.857 1.33968 -0.830081 0
M  V30 5733 C 517.085 2.0228 -0.434773 0
M  V30 5734 C 517.5 1.62487 0.961419 0
M  V30 5735 O 516.857 0.833849 1.62337 0
M  V30 5736 C 516.908 3.5751 -0.535625 0
M  V30 5737 O 516.629 3.95864 -1.87679 0
M  V30 5738 C 518.13 4.43091 -0.136137 0
M  V30 5739 H 515.35 0.648151 -0.173613 0
M  V30 5740 H 517.894 1.71089 -1.12022 0
M  V30 5741 H 516.049 3.87266 0.101817 0
M  V30 5742 H 516.463 4.9056 -1.85609 0
M  V30 5743 H 517.937 5.51398 -0.257772 0
M  V30 5744 H 518.414 4.29433 0.921076 0
M  V30 5745 H 519.02 4.18677 -0.747662 0
M  V30 5746 N 517.335 0.585699 1.46312 0
M  V30 5747 C 518.583 0.072278 2.01971 0
M  V30 5748 C 518.904 -1.29345 1.45928 0
M  V30 5749 O 518.174 -1.84973 0.645109 0
M  V30 5750 H 516.754 0.023729 0.746623 0
M  V30 5751 H 519.416 0.762155 1.7938 0
M  V30 5752 H 518.512 0.00552767 3.121 0
M  V30 5753 N 518.813 -1.54241 0.323641 0
M  V30 5754 C 520.06 -2.0057 -0.27891 0
M  V30 5755 C 520.388 -1.21181 -1.52136 0
M  V30 5756 O 519.643 -0.282043 -1.93657 0
M  V30 5757 C 519.942 -3.5129 -0.658031 0
M  V30 5758 C 519.608 -4.48281 0.485252 0
M  V30 5759 C 518.27 -4.74519 0.799055 0
M  V30 5760 C 520.622 -5.05909 1.25322 0
M  V30 5761 C 517.95 -5.55643 1.88354 0
M  V30 5762 C 520.302 -5.88215 2.32779 0
M  V30 5763 C 518.966 -6.12755 2.64741 0
M  V30 5764 H 518.236 -0.733938 -0.10206 0
M  V30 5765 H 520.883 -1.862 0.447435 0
M  V30 5766 H 519.188 -3.63388 -1.4648 0
M  V30 5767 H 520.885 -3.84578 -1.1358 0
M  V30 5768 H 517.475 -4.27979 0.230593 0
M  V30 5769 H 521.659 -4.8562 1.02404 0
M  V30 5770 H 516.915 -5.72888 2.13564 0
M  V30 5771 H 521.089 -6.31888 2.92729 0
M  V30 5772 H 518.716 -6.75404 3.48904 0
M  V30 5773 N 520.291 -0.0518155 -1.57515 0
M  V30 5774 C 521.224 0.957758 -2.07129 0
M  V30 5775 C 522.202 1.30355 -0.971927 0
M  V30 5776 O 523.386 1.41631 -1.2439 0
M  V30 5777 C 520.513 2.27157 -2.51232 0
M  V30 5778 C 519.559 2.07879 -3.72409 0
M  V30 5779 S 520.392 1.35656 -5.18033 0
M  V30 5780 C 521.548 2.68359 -5.65451 0
M  V30 5781 H 521.781 0.53552 -2.92437 0
M  V30 5782 H 519.314 0.160465 -1.53564 0
M  V30 5783 H 521.272 3.02676 -2.77304 0
M  V30 5784 H 519.933 2.66509 -1.66228 0
M  V30 5785 H 519.126 3.05061 -4.01191 0
M  V30 5786 H 518.728 1.40499 -3.46606 0
M  V30 5787 H 521.02 3.64526 -5.71076 0
M  V30 5788 H 521.963 2.44213 -6.64654 0
M  V30 5789 H 522.371 2.74647 -4.93183 0
M  V30 5790 N 521.769 1.56035 0.221574 0
M  V30 5791 C 522.994 1.83476 0.967026 0
M  V30 5792 C 523.419 0.632139 1.7716 0
M  V30 5793 O 522.777 -0.419082 1.7639 0
M  V30 5794 C 522.825 3.08907 1.86034 0
M  V30 5795 O 521.929 2.876 2.95567 0
M  V30 5796 H 521.27 0.604913 0.273817 0
M  V30 5797 H 523.8 2.03247 0.234893 0
M  V30 5798 H 523.81 3.3901 2.27016 0
M  V30 5799 H 522.485 3.96068 1.26898 0
M  V30 5800 H 521.062 2.6873 2.58532 0
M  V30 5801 N 523.247 -0.488276 1.49845 0
M  V30 5802 C 524.195 -1.60917 1.67954 0
M  V30 5803 C 525.189 -1.6038 0.54539 0
M  V30 5804 O 526.395 -1.64736 0.7254 0
M  V30 5805 H 522.77 -0.533658 0.529824 0
M  V30 5806 H 524.741 -1.428 2.62013 0
M  V30 5807 C 523.49 -2.98975 1.77509 0
M  V30 5808 H 522.813 -3.00099 2.6416 0
M  V30 5809 H 524.253 -3.76906 1.9421 0
M  V30 5810 C 522.712 -3.3282 0.522745 0
M  V30 5811 O 523.242 -4.00208 -0.345866 0
M  V30 5812 N 521.448 -2.8808 0.381882 0
M  V30 5813 H 520.995 -2.33415 1.08974 0
M  V30 5814 H 520.953 -3.11091 -0.454929 0
M  V30 5815 N 524.725 -1.39134 -0.740242 0
M  V30 5816 C 526.141 -1.20623 -1.0451 0
M  V30 5817 C 526.341 -0.0641651 -2.01398 0
M  V30 5818 O 525.397 0.585843 -2.4561 0
M  V30 5819 C 526.71 -2.53815 -1.6124 0
M  V30 5820 C 528.258 -2.60615 -1.73346 0
M  V30 5821 C 528.733 -3.94015 -2.33486 0
M  V30 5822 N 530.224 -3.95627 -2.40902 0
M  V30 5823 C 530.959 -4.95616 -2.88361 0
M  V30 5824 N 530.455 -6.06003 -3.35756 0
M  V30 5825 N 532.248 -4.82998 -2.87523 0
M  V30 5826 H 524.399 -2.12176 -0.0975576 0
M  V30 5827 H 526.662 -0.942066 -0.105904 0
M  V30 5828 H 526.368 -3.37911 -0.975144 0
M  V30 5829 H 526.242 -2.73162 -2.6012 0
M  V30 5830 H 528.629 -1.76906 -2.36195 0
M  V30 5831 H 528.71 -2.45123 -0.731336 0
M  V30 5832 H 528.354 -4.78153 -1.71267 0
M  V30 5833 H 528.284 -4.06825 -3.34366 0
M  V30 5834 H 530.775 -3.15903 -2.07398 0
M  V30 5835 H 531.088 -6.78215 -3.70464 0
M  V30 5836 H 529.433 -6.09604 -3.33778 0
M  V30 5837 H 532.624 -3.95866 -2.49816 0
M  V30 5838 H 532.797 -5.61072 -3.24196 0
M  V30 5839 N 526.204 0.969867 -1.24223 0
M  V30 5840 C 527.452 1.70918 -1.0785 0
M  V30 5841 C 527.773 1.91186 0.383763 0
M  V30 5842 O 527.043 1.48806 1.27411 0
M  V30 5843 H 525.623 0.633334 -0.396103 0
M  V30 5844 H 528.285 1.16689 -1.56108 0
M  V30 5845 H 527.381 2.69455 -1.57482 0
M  V30 5846 N 527.682 1.05563 1.17022 0
M  V30 5847 C 529.098 0.777684 1.39371 0
M  V30 5848 C 529.298 -0.626269 1.91521 0
M  V30 5849 O 528.354 -1.38806 2.10924 0
M  V30 5850 C 529.667 1.83642 2.3811 0
M  V30 5851 C 531.215 1.85907 2.51809 0
M  V30 5852 C 531.69 2.90813 3.53824 0
M  V30 5853 N 533.181 2.898 3.61345 0
M  V30 5854 C 533.916 3.6762 4.40049 0
M  V30 5855 N 533.412 4.55237 5.22237 0
M  V30 5856 N 535.205 3.56044 4.34959 0
M  V30 5857 H 527.356 1.9614 0.815047 0
M  V30 5858 H 529.619 0.849527 0.420722 0
M  V30 5859 H 529.325 2.84425 2.06871 0
M  V30 5860 H 529.199 1.6812 3.37662 0
M  V30 5861 H 531.586 0.857865 2.82356 0
M  V30 5862 H 531.667 2.05506 1.52318 0
M  V30 5863 H 531.311 3.91122 3.24015 0
M  V30 5864 H 531.241 2.68465 4.53028 0
M  V30 5865 H 533.732 2.26274 3.02669 0
M  V30 5866 H 534.045 5.11291 5.79484 0
M  V30 5867 H 532.39 4.59296 5.21605 0
M  V30 5868 H 535.581 2.86986 3.69806 0
M  V30 5869 H 535.754 4.16938 4.96051 0
M  V30 5870 N 529.16 -1.33526 0.837174 0
M  V30 5871 C 530.092 -2.28077 0.226579 0
M  V30 5872 C 531.105 -1.51666 -0.591717 0
M  V30 5873 O 532.294 -1.73511 -0.419064 0
M  V30 5874 C 529.394 -3.31597 -0.69978 0
M  V30 5875 C 528.567 -4.37329 0.0788067 0
M  V30 5876 C 527.626 -5.20526 -0.770637 0
M  V30 5877 O 526.652 -5.68811 -0.210453 0
M  V30 5878 N 527.854 -5.41639 -2.08825 0
M  V30 5879 H 530.619 -2.81115 1.03897 0
M  V30 5880 H 528.18 -1.46201 0.695476 0
M  V30 5881 H 530.172 -3.84158 -1.27298 0
M  V30 5882 H 528.742 -2.78848 -1.41288 0
M  V30 5883 H 527.962 -3.8529 0.833381 0
M  V30 5884 H 529.25 -5.05079 0.614238 0
M  V30 5885 H 528.648 -5.04108 -2.56693 0
M  V30 5886 H 527.205 -5.97263 -2.60998 0
M  V30 5887 N 530.638 -0.59345 -1.46 0
M  V30 5888 C 531.586 0.146268 -2.3214 0
M  V30 5889 C 532.58 0.873743 -1.45128 0
M  V30 5890 O 533.786 0.790912 -1.61693 0
M  V30 5891 H 530.161 0.0660349 -0.749095 0
M  V30 5892 H 532.132 -0.598895 -2.92328 0
M  V30 5893 C 530.881 1.1396 -3.28494 0
M  V30 5894 H 530.204 0.589252 -3.95434 0
M  V30 5895 H 531.644 1.62738 -3.91526 0
M  V30 5896 C 530.103 2.20604 -2.54628 0
M  V30 5897 O 530.633 3.28128 -2.31722 0
M  V30 5898 N 528.839 1.95502 -2.15005 0
M  V30 5899 H 528.386 1.0807 -2.33834 0
M  V30 5900 H 528.344 2.67064 -1.65904 0
M  V30 5901 N 532.116 1.54067 -0.331816 0
M  V30 5902 C 533.362 2.01012 0.268667 0
M  V30 5903 C 533.695 1.2195 1.51136 0
M  V30 5904 O 532.97 0.303972 1.9211 0
M  V30 5905 C 533.253 3.55158 0.59456 0
M  V30 5906 C 533.106 4.4494 -0.659409 0
M  V30 5907 C 534.425 4.16939 1.4089 0
M  V30 5908 H 531.544 0.730698 0.0961756 0
M  V30 5909 H 534.186 1.84593 -0.450031 0
M  V30 5910 H 532.336 3.6928 1.20685 0
M  V30 5911 H 534.008 4.42675 -1.29756 0
M  V30 5912 H 532.251 4.1428 -1.28665 0
M  V30 5913 H 532.922 5.50643 -0.386804 0
M  V30 5914 H 535.398 4.06443 0.891272 0
M  V30 5915 H 534.274 5.24889 1.60569 0
M  V30 5916 H 534.535 3.70798 2.40752 0
M  V30 5917 N 533.594 0.0601682 1.57485 0
M  V30 5918 C 534.557 -0.896373 2.10945 0
M  V30 5919 C 535.557 -1.23402 1.03095 0
M  V30 5920 O 536.747 -1.16921 1.29132 0
M  V30 5921 C 533.879 -2.20346 2.60116 0
M  V30 5922 H 535.072 -0.432778 2.96761 0
M  V30 5923 H 532.625 -0.188372 1.55161 0
M  V30 5924 H 533.36 -2.71268 1.7772 0
M  V30 5925 H 533.145 -1.9714 3.38937 0
M  V30 5926 H 534.635 -2.88846 3.01592 0
M  V30 5927 N 535.072 -1.5615 -0.213296 0
M  V30 5928 C 536.297 -1.83986 -0.957282 0
M  V30 5929 C 536.722 -0.641526 -1.76822 0
M  V30 5930 O 536.08 0.409722 -1.7661 0
M  V30 5931 C 536.128 -3.09889 -1.84393 0
M  V30 5932 O 535.232 -2.89163 -2.94038 0
M  V30 5933 H 534.573 -0.606357 -0.270605 0
M  V30 5934 H 537.103 -2.03369 -0.224111 0
M  V30 5935 H 537.113 -3.40209 -2.25215 0
M  V30 5936 H 535.788 -3.96735 -1.24795 0
M  V30 5937 H 534.365 -2.70097 -2.57103 0
M  V30 5938 N 536.55 0.480323 -1.50102 0
M  V30 5939 C 537.797 1.23307 -1.60629 0
M  V30 5940 C 538.125 1.92135 -0.302375 0
M  V30 5941 O 537.38 1.82321 0.711154 0
M  V30 5942 C 537.679 2.30708 -2.72963 0
M  V30 5943 C 537.345 1.79195 -4.13763 0
M  V30 5944 C 536.007 1.64867 -4.52076 0
M  V30 5945 C 538.359 1.40878 -5.018 0
M  V30 5946 C 535.687 1.10631 -5.76175 0
M  V30 5947 C 538.039 0.880872 -6.26437 0
M  V30 5948 C 536.703 0.724146 -6.6356 0
M  V30 5949 H 535.973 0.451211 -0.587784 0
M  V30 5950 H 538.62 0.53051 -1.84005 0
M  V30 5951 H 536.925 3.06834 -2.43639 0
M  V30 5952 H 538.622 2.88692 -2.78313 0
M  V30 5953 H 535.212 1.91313 -3.83533 0
M  V30 5954 H 539.396 1.50786 -4.7284 0
M  V30 5955 H 534.652 0.972263 -6.0362 0
M  V30 5956 H 538.826 0.575269 -6.9402 0
M  V30 5957 H 536.453 0.301722 -7.59601 0
M  V30 5958 N 538.028 1.39524 0.732853 0
M  V30 5959 C 538.958 1.41153 1.86005 0
M  V30 5960 C 539.939 0.274614 1.67869 0
M  V30 5961 O 541.124 0.480745 1.88155 0
M  V30 5962 C 538.254 1.25638 3.23778 0
M  V30 5963 C 537.208 2.36752 3.56556 0
M  V30 5964 C 536.534 2.06326 4.93289 0
M  V30 5965 C 537.834 3.79069 3.5931 0
M  V30 5966 H 539.528 2.35484 1.84899 0
M  V30 5967 H 537.074 1.13348 0.888162 0
M  V30 5968 H 539.027 1.25398 4.0231 0
M  V30 5969 H 537.751 0.277772 3.25417 0
M  V30 5970 H 536.41 2.36213 2.80355 0
M  V30 5971 H 536.058 1.06897 4.9151 0
M  V30 5972 H 535.758 2.80757 5.16187 0
M  V30 5973 H 537.282 2.07739 5.74175 0
M  V30 5974 H 538.696 3.81526 4.27914 0
M  V30 5975 H 537.093 4.52878 3.93728 0
M  V30 5976 H 538.163 4.09893 2.59068 0
M  V30 5977 N 539.506 -0.963266 1.24736 0
M  V30 5978 C 540.746 -1.72172 1.10165 0
M  V30 5979 C 541.11 -1.88731 -0.352784 0
M  V30 5980 O 542.311 -2.61549 -0.620107 0
M  V30 5981 C 540.582 -3.0724 1.82589 0
M  V30 5982 S 542.141 -3.98449 1.83803 0
M  V30 5983 H 538.959 -0.591901 0.393922 0
M  V30 5984 H 541.561 -1.14955 1.58132 0
M  V30 5985 H 540.265 -2.92851 2.87518 0
M  V30 5986 H 539.796 -3.69521 1.34973 0
M  V30 5987 H 541.811 -4.87805 0.908883 0
M  V30 5988 N 540.985 -1.06182 -1.16461 0
M  V30 5989 C 541.932 -0.671613 -2.20812 0
M  V30 5990 C 542.902 0.331186 -1.62765 0
M  V30 5991 O 544.087 0.22033 -1.89524 0
M  V30 5992 C 541.227 -0.063029 -3.45042 0
M  V30 5993 C 540.34 -1.11587 -4.1734 0
M  V30 5994 C 539.475 -0.473546 -5.29085 0
M  V30 5995 C 538.514 -1.51 -5.93182 0
M  V30 5996 N 537.651 -0.891118 -6.96422 0
M  V30 5997 H 542.491 -1.56589 -2.53542 0
M  V30 5998 H 540.028 -0.782951 -1.24532 0
M  V30 5999 H 541.986 0.307344 -4.16066 0
M  V30 6000 H 540.616 0.794663 -3.12866 0
M  V30 6001 H 539.668 -1.60396 -3.44931 0
M  V30 6002 H 540.98 -1.90221 -4.61104 0
M  V30 6003 H 540.134 -0.0501432 -6.06679 0
M  V30 6004 H 538.873 0.344687 -4.8648 0
M  V30 6005 H 537.878 -1.94331 -5.14311 0
M  V30 6006 H 539.103 -2.33031 -6.37866 0
M  V30 6007 H 537.049 -0.0935753 -6.55933 0
M  V30 6008 H 536.966 -1.61486 -7.38551 0
M  V30 6009 H 538.234 -0.492822 -7.77941 0
M  V30 6010 N 542.463 1.3308 -0.844243 0
M  V30 6011 C 543.411 2.31028 -0.269954 0
M  V30 6012 C 544.405 1.58381 0.600997 0
M  V30 6013 O 545.611 1.73203 0.48996 0
M  V30 6014 H 541.986 0.748866 -0.0685782 0
M  V30 6015 H 543.957 2.76967 -1.11049 0
M  V30 6016 C 542.706 3.43549 0.535676 0
M  V30 6017 H 542.029 3.99604 -0.125202 0
M  V30 6018 H 543.469 4.14267 0.903262 0
M  V30 6019 C 541.928 2.8988 1.71672 0
M  V30 6020 O 542.458 2.86511 2.81557 0
M  V30 6021 N 540.664 2.46416 1.54037 0
M  V30 6022 H 540.211 2.49356 0.64649 0
M  V30 6023 H 540.169 2.1086 2.33207 0
M  V30 6024 N 543.941 0.601185 1.45683 0
M  V30 6025 C 544.871 -0.108824 2.33246 0
M  V30 6026 C 545.852 -0.865223 1.46451 0
M  V30 6027 O 547.037 -0.83704 1.75235 0
M  V30 6028 C 544.167 -1.11101 3.2905 0
M  V30 6029 C 543.121 -0.468244 4.25431 0
M  V30 6030 C 542.447 -1.57822 5.10878 0
M  V30 6031 C 543.747 0.606469 5.18767 0
M  V30 6032 H 545.441 0.622306 2.92861 0
M  V30 6033 H 542.987 0.300714 1.40825 0
M  V30 6034 H 544.94 -1.61622 3.89174 0
M  V30 6035 H 543.664 -1.87265 2.67581 0
M  V30 6036 H 542.323 0.0160484 3.66596 0
M  V30 6037 H 541.971 -2.32998 4.45781 0
M  V30 6038 H 541.671 -1.15369 5.76163 0
M  V30 6039 H 543.195 -2.08583 5.73869 0
M  V30 6040 H 544.609 0.185589 5.73 0
M  V30 6041 H 543.006 0.952381 5.92494 0
M  V30 6042 H 544.076 1.48559 4.61582 0
M  V30 6043 N 545.419 -1.53889 0.339982 0
M  V30 6044 C 546.667 -2.00458 -0.257112 0
M  V30 6045 C 546.988 -1.22953 -1.51353 0
M  V30 6046 O 546.258 -0.335734 -1.93002 0
M  V30 6047 H 544.838 -0.740544 -0.0979965 0
M  V30 6048 H 547.5 -1.89386 0.460317 0
M  V30 6049 H 546.596 -3.08035 -0.502057 0
M  V30 6050 N 546.897 -0.0685191 -1.57451 0
M  V30 6051 C 548.146 0.600898 -1.92541 0
M  V30 6052 C 548.459 1.70967 -0.950239 0
M  V30 6053 O 549.665 2.43844 -1.19384 0
M  V30 6054 C 548.121 1.12019 -3.42023 0
M  V30 6055 C 547.729 0.0426028 -4.4798 0
M  V30 6056 C 549.473 1.76386 -3.86119 0
M  V30 6057 C 547.38 0.575759 -5.88591 0
M  V30 6058 H 546.31 0.228225 -0.71863 0
M  V30 6059 H 548.961 -0.140223 -1.82963 0
M  V30 6060 H 547.343 1.91418 -3.46663 0
M  V30 6061 H 548.517 -0.73182 -4.54952 0
M  V30 6062 H 546.832 -0.504642 -4.13331 0
M  V30 6063 H 549.429 2.17302 -4.88553 0
M  V30 6064 H 549.772 2.62255 -3.23308 0
M  V30 6065 H 550.305 1.03615 -3.84069 0
M  V30 6066 H 547.044 -0.245691 -6.55039 0
M  V30 6067 H 546.564 1.31778 -5.85145 0
M  V30 6068 H 548.243 1.0532 -6.3837 0
M  V30 6069 N 548.375 1.56261 0.205012 0
M  V30 6070 C 549.652 1.70856 0.952233 0
M  V30 6071 C 550.032 0.620501 2.01775 0
M  V30 6072 O 549.38 -0.370035 2.25484 0
M  V30 6073 C 549.59 3.12807 1.54767 0
M  V30 6074 C 550.938 3.72733 2.0336 0
M  V30 6075 O 551.962 3.15873 1.64629 0
M  V30 6076 O 550.821 4.72501 2.746 0
M  V30 6077 H 547.915 0.696496 0.445895 0
M  V30 6078 H 550.461 1.6857 0.195489 0
M  V30 6079 H 549.233 3.83465 0.779132 0
M  V30 6080 H 548.856 3.1928 2.36951 0
M  V30 6081 N 549.853 -0.472356 1.50355 0
M  V30 6082 C 551.099 -1.22348 1.62488 0
M  V30 6083 C 551.454 -1.89711 0.320574 0
M  V30 6084 O 550.747 -1.79074 -0.68141 0
M  V30 6085 C 550.941 -2.29257 2.74182 0
M  V30 6086 C 550.77 -1.72383 4.15348 0
M  V30 6087 C 549.54 -1.52411 4.81766 0
M  V30 6088 C 551.738 -1.21949 4.99633 0
M  V30 6089 N 549.72 -0.907669 6.07153 0
M  V30 6090 C 551.091 -0.726191 6.15732 0
M  V30 6091 C 553.146 -1.10792 4.85417 0
M  V30 6092 C 551.849 -0.132322 7.19178 0
M  V30 6093 C 553.875 -0.52799 5.89038 0
M  V30 6094 C 553.237 -0.0450604 7.04386 0
M  V30 6095 H 549.336 -0.436631 0.648751 0
M  V30 6096 H 551.92 -0.525698 1.87469 0
M  V30 6097 H 550.091 -2.96464 2.50926 0
M  V30 6098 H 551.823 -2.9628 2.75681 0
M  V30 6099 H 548.578 -1.776 4.39039 0
M  V30 6100 H 549.002 -0.617897 6.74174 0
M  V30 6101 H 553.644 -1.46722 3.96525 0
M  V30 6102 H 551.362 0.239187 8.07746 0
M  V30 6103 H 554.948 -0.444046 5.80103 0
M  V30 6104 H 553.828 0.396659 7.83196 0
M  V30 6105 N 551.331 -1.39911 -0.725443 0
M  V30 6106 C 552.747 -1.21725 -1.03224 0
M  V30 6107 C 552.947 -0.0855224 -2.01318 0
M  V30 6108 O 552.003 0.55976 -2.46217 0
M  V30 6109 C 553.316 -2.55511 -1.58539 0
M  V30 6110 C 554.864 -2.62439 -1.70572 0
M  V30 6111 C 555.339 -3.9647 -2.29294 0
M  V30 6112 N 556.83 -3.98159 -2.36692 0
M  V30 6113 C 557.565 -4.98647 -2.83088 0
M  V30 6114 N 557.061 -6.0953 -3.2931 0
M  V30 6115 N 558.854 -4.8602 -2.82384 0
M  V30 6116 H 551.005 -2.12267 -0.075048 0
M  V30 6117 H 553.268 -0.943136 -0.0959066 0
M  V30 6118 H 552.974 -3.38926 -0.939249 0
M  V30 6119 H 552.848 -2.75905 -2.57208 0
M  V30 6120 H 555.235 -1.79401 -2.34306 0
M  V30 6121 H 555.316 -2.45885 -0.705297 0
M  V30 6122 H 554.96 -4.79942 -1.66186 0
M  V30 6123 H 554.89 -4.10349 -3.30032 0
M  V30 6124 H 557.381 -3.18085 -2.04035 0
M  V30 6125 H 557.694 -6.82106 -3.6325 0
M  V30 6126 H 556.039 -6.1311 -3.27294 0
M  V30 6127 H 559.23 -3.98493 -2.45603 0
M  V30 6128 H 559.403 -5.64478 -3.18226 0
M  V30 6129 N 552.809 0.956637 -1.25245 0
M  V30 6130 C 554.055 1.70413 -1.11044 0
M  V30 6131 C 554.41 1.89275 0.345377 0
M  V30 6132 O 553.703 1.45116 1.25107 0
M  V30 6133 C 553.897 3.08996 -1.79601 0
M  V30 6134 C 553.726 3.03654 -3.317 0
M  V30 6135 C 552.496 3.07521 -4.00947 0
M  V30 6136 C 554.694 2.84975 -4.28128 0
M  V30 6137 N 552.676 2.92316 -5.39838 0
M  V30 6138 C 554.047 2.7818 -5.5409 0
M  V30 6139 C 556.102 2.6964 -4.18568 0
M  V30 6140 C 554.805 2.57616 -6.71585 0
M  V30 6141 C 556.831 2.50447 -5.35752 0
M  V30 6142 C 556.193 2.4437 -6.60653 0
M  V30 6143 H 552.292 0.631642 -0.461035 0
M  V30 6144 H 554.876 1.13331 -1.58317 0
M  V30 6145 H 553.047 3.64248 -1.34826 0
M  V30 6146 H 554.779 3.72515 -1.58161 0
M  V30 6147 H 551.534 3.16635 -3.52192 0
M  V30 6148 H 551.958 2.87923 -6.12723 0
M  V30 6149 H 556.6 2.73113 -3.22752 0
M  V30 6150 H 554.318 2.52885 -7.67512 0
M  V30 6151 H 557.904 2.39509 -5.30214 0
M  V30 6152 H 556.784 2.29712 -7.49801 0
M  V30 6153 N 554.287 1.06798 1.15896 0
M  V30 6154 C 555.535 0.786211 1.8618 0
M  V30 6155 C 555.856 -0.689547 1.82401 0
M  V30 6156 O 555.126 -1.49913 1.26107 0
M  V30 6157 H 553.706 0.287843 0.689315 0
M  V30 6158 H 556.368 1.35055 1.40521 0
M  V30 6159 H 555.464 1.1157 2.91477 0
M  V30 6160 N 555.766 -1.3263 0.851289 0
M  V30 6161 C 556.729 -2.27247 0.298541 0
M  V30 6162 C 557.729 -1.51467 -0.539847 0
M  V30 6163 O 558.919 -1.7061 -0.351843 0
M  V30 6164 C 556.051 -3.35964 -0.578004 0
M  V30 6165 H 557.244 -2.7765 1.13359 0
M  V30 6166 H 554.797 -1.43245 0.625354 0
M  V30 6167 H 555.532 -2.90823 -1.435 0
M  V30 6168 H 555.317 -3.92094 0.0220539 0
M  V30 6169 H 556.807 -4.06472 -0.957626 0
M  V30 6170 N 557.244 -0.608902 -1.45362 0
M  V30 6171 C 558.154 0.110969 -2.34337 0
M  V30 6172 C 559.17 0.859007 -1.51318 0
M  V30 6173 O 560.346 0.816296 -1.84116 0
M  V30 6174 C 557.411 1.09494 -3.28956 0
M  V30 6175 C 556.472 0.348718 -4.27881 0
M  V30 6176 C 555.705 1.28582 -5.17979 0
M  V30 6177 O 555.928 2.52369 -5.11533 0
M  V30 6178 O 554.862 0.782172 -5.96796 0
M  V30 6179 H 558.688 -0.620258 -2.97299 0
M  V30 6180 H 556.273 -0.36916 -1.44767 0
M  V30 6181 H 558.155 1.66163 -3.87257 0
M  V30 6182 H 556.83 1.80717 -2.68557 0
M  V30 6183 H 555.737 -0.260465 -3.73192 0
M  V30 6184 H 557.07 -0.323049 -4.91139 0
M  V30 6185 N 558.722 1.53707 -0.348139 0
M  V30 6186 C 559.968 2.01979 0.239986 0
M  V30 6187 C 560.323 1.23141 1.47831 0
M  V30 6188 O 559.616 0.311936 1.89044 0
M  V30 6189 C 559.81 3.52292 0.602061 0
M  V30 6190 C 559.639 4.45684 -0.599625 0
M  V30 6191 C 558.409 4.9304 -1.10635 0
M  V30 6192 C 560.607 4.93156 -1.4595 0
M  V30 6193 N 558.589 5.70394 -2.26988 0
M  V30 6194 C 559.96 5.6868 -2.46988 0
M  V30 6195 C 562.015 4.75257 -1.48441 0
M  V30 6196 C 560.718 6.28208 -3.50353 0
M  V30 6197 C 562.744 5.35639 -2.50689 0
M  V30 6198 C 562.106 6.11034 -3.50453 0
M  V30 6199 H 558.205 0.780335 0.0509992 0
M  V30 6200 H 560.789 1.88466 -0.488742 0
M  V30 6201 H 558.96 3.66002 1.29989 0
M  V30 6202 H 560.692 3.87304 1.17377 0
M  V30 6203 H 557.447 4.68784 -0.67371 0
M  V30 6204 H 557.871 6.13741 -2.85747 0
M  V30 6205 H 562.513 4.16508 -0.726707 0
M  V30 6206 H 560.231 6.86064 -4.27015 0
M  V30 6207 H 563.817 5.23693 -2.53449 0
M  V30 6208 H 562.697 6.56925 -4.28275 0
M  V30 6209 N 560.2 0.0768682 1.57412 0
M  V30 6210 C 561.447 -0.591085 1.93681 0
M  V30 6211 C 561.775 -1.69311 0.957286 0
M  V30 6212 O 561.03 -1.95682 -0.0262428 0
M  V30 6213 C 561.329 -1.20268 3.36557 0
M  V30 6214 C 560.995 -0.226286 4.50332 0
M  V30 6215 C 559.657 0.0423142 4.81181 0
M  V30 6216 C 562.009 0.441415 5.19327 0
M  V30 6217 C 559.337 0.985616 5.78362 0
M  V30 6218 C 561.689 1.37307 6.17519 0
M  V30 6219 C 560.353 1.65009 6.46783 0
M  V30 6220 H 559.623 -0.216293 0.70873 0
M  V30 6221 H 562.27 0.148824 1.90921 0
M  V30 6222 H 560.575 -2.01844 3.35807 0
M  V30 6223 H 562.272 -1.72688 3.61911 0
M  V30 6224 H 558.862 -0.445821 4.26275 0
M  V30 6225 H 563.046 0.247023 4.95685 0
M  V30 6226 H 558.302 1.20743 5.99359 0
M  V30 6227 H 562.476 1.89637 6.70083 0
M  V30 6228 H 560.103 2.38263 7.21897 0
M  V30 6229 N 561.678 -1.56367 -0.196722 0
M  V30 6230 C 562.588 -1.97617 -1.2643 0
M  V30 6231 C 563.604 -0.883598 -1.49895 0
M  V30 6232 O 564.78 -1.18921 -1.62541 0
M  V30 6233 C 561.845 -2.30595 -2.58895 0
M  V30 6234 C 560.906 -3.53551 -2.43516 0
M  V30 6235 C 560.139 -3.84946 -3.69665 0
M  V30 6236 O 560.362 -3.17655 -4.73763 0
M  V30 6237 O 559.296 -4.78379 -3.65291 0
M  V30 6238 H 563.122 -2.88648 -0.944233 0
M  V30 6239 H 560.707 -1.43901 -0.401592 0
M  V30 6240 H 562.589 -2.52889 -3.37083 0
M  V30 6241 H 561.264 -1.42732 -2.90533 0
M  V30 6242 H 560.171 -3.36507 -1.63445 0
M  V30 6243 H 561.504 -4.41875 -2.16812 0
M  V30 6244 N 563.156 0.464375 -1.50603 0
M  V30 6245 C 564.381 1.24372 -1.65971 0
M  V30 6246 C 564.806 1.84901 -0.345453 0
M  V30 6247 O 564.164 1.67596 0.691457 0
M  V30 6248 C 564.212 2.32331 -2.7578 0
M  V30 6249 O 563.316 3.37146 -2.375 0
M  V30 6250 H 562.657 0.365604 -0.554283 0
M  V30 6251 H 565.187 0.55183 -1.97018 0
M  V30 6252 H 565.197 2.77539 -2.99059 0
M  V30 6253 H 563.872 1.87648 -3.71162 0
M  V30 6254 H 562.449 2.97602 -2.24694 0
M  V30 6255 N 564.634 1.40294 0.718013 0
M  V30 6256 C 565.874 1.39888 1.49032 0
M  V30 6257 C 566.238 -0.000462935 1.92 0
M  V30 6258 O 567.439 -0.129622 2.68487 0
M  V30 6259 C 565.71 2.35868 2.68516 0
M  V30 6260 S 567.269 2.53799 3.57954 0
M  V30 6261 H 564.087 0.495849 0.509563 0
M  V30 6262 H 566.689 1.76541 0.839846 0
M  V30 6263 H 565.393 3.36375 2.35117 0
M  V30 6264 H 564.924 2.0049 3.38478 0
M  V30 6265 H 566.939 1.78859 4.62843 0
M  V30 6266 N 566.112 -0.949982 1.2575 0
M  V30 6267 C 567.042 -2.06483 1.09028 0
M  V30 6268 C 568.023 -1.701 -0.00201532 0
M  V30 6269 O 569.208 -1.93469 0.168383 0
M  V30 6270 C 566.338 -3.39899 0.71316 0
M  V30 6271 C 565.292 -3.90309 1.75621 0
M  V30 6272 C 564.618 -5.20274 1.23365 0
M  V30 6273 C 565.918 -4.16169 3.15596 0
M  V30 6274 H 567.612 -2.20731 2.02283 0
M  V30 6275 H 565.158 -1.06066 0.973964 0
M  V30 6276 H 567.111 -4.17346 0.58309 0
M  V30 6277 H 565.835 -3.25602 -0.255091 0
M  V30 6278 H 564.494 -3.15035 1.8748 0
M  V30 6279 H 564.142 -5.02351 0.255491 0
M  V30 6280 H 563.842 -5.54971 1.93082 0
M  V30 6281 H 565.366 -6.00314 1.11607 0
M  V30 6282 H 566.78 -4.84259 3.06864 0
M  V30 6283 H 565.177 -4.62131 3.82825 0
M  V30 6284 H 566.247 -3.22273 3.6231 0
M  V30 6285 N 567.59 -1.07411 -1.15328 0
M  V30 6286 C 568.839 -0.792643 -1.85473 0
M  V30 6287 C 569.152 0.683789 -1.83259 0
M  V30 6288 O 570.358 1.08005 -2.49093 0
M  V30 6289 C 568.814 -1.36787 -3.32892 0
M  V30 6290 C 568.422 -2.87536 -3.43551 0
M  V30 6291 C 570.166 -1.16444 -4.08217 0
M  V30 6292 C 568.073 -3.38247 -4.85122 0
M  V30 6293 H 567.003 -0.292838 -0.694811 0
M  V30 6294 H 569.654 -1.29426 -1.30082 0
M  V30 6295 H 568.036 -0.793993 -3.87958 0
M  V30 6296 H 569.21 -3.50973 -2.98588 0
M  V30 6297 H 567.525 -3.06676 -2.81672 0
M  V30 6298 H 570.122 -1.51808 -5.12697 0
M  V30 6299 H 570.465 -0.10353 -4.16171 0
M  V30 6300 H 570.998 -1.70472 -3.59422 0
M  V30 6301 H 567.737 -4.43866 -4.82351 0
M  V30 6302 H 567.257 -2.79564 -5.30664 0
M  V30 6303 H 568.936 -3.34238 -5.5398 0
M  V30 6304 N 569.068 1.32177 -0.85831 0
M  V30 6305 C 570.345 1.91781 -0.384624 0
M  V30 6306 C 570.725 1.78171 1.13217 0
M  V30 6307 O 570.073 1.18209 1.95548 0
M  V30 6308 C 570.283 3.38414 -0.853047 0
M  V30 6309 C 571.631 4.15542 -0.872359 0
M  V30 6310 O 572.655 3.47148 -0.797926 0
M  V30 6311 O 571.514 5.37678 -0.978009 0
M  V30 6312 H 568.608 0.819259 -0.112886 0
M  V30 6313 H 571.154 1.40923 -0.945453 0
M  V30 6314 H 569.926 3.4228 -1.89632 0
M  V30 6315 H 569.549 3.96683 -0.269874 0
M  V30 6316 N 570.547 0.616602 1.45037 0
M  V30 6317 C 571.777 0.121791 2.06241 0
M  V30 6318 C 572.185 -1.20289 1.46038 0
M  V30 6319 O 571.528 -1.7456 0.572242 0
M  V30 6320 C 571.59 -0.0827345 3.59405 0
M  V30 6321 C 571.254 1.16153 4.41993 0
M  V30 6322 C 572.251 2.08183 4.76399 0
M  V30 6323 C 569.936 1.39288 4.82601 0
M  V30 6324 C 571.93 3.21668 5.5028 0
M  V30 6325 C 569.617 2.53073 5.56235 0
M  V30 6326 C 570.615 3.44091 5.89992 0
M  V30 6327 O 570.303 4.55894 6.6213 0
M  V30 6328 H 570.035 0.0701667 0.672349 0
M  V30 6329 H 572.589 0.846877 1.87129 0
M  V30 6330 H 570.819 -0.862812 3.76952 0
M  V30 6331 H 572.508 -0.530273 4.02421 0
M  V30 6332 H 573.274 1.91538 4.45576 0
M  V30 6333 H 569.153 0.693396 4.55755 0
M  V30 6334 H 572.697 3.92733 5.76547 0
M  V30 6335 H 568.594 2.69667 5.86472 0
M  V30 6336 H 569.362 4.5469 6.80587 0
M  V30 6337 N 572.025 -1.5352 0.356285 0
M  V30 6338 C 573.302 -1.93405 -0.292223 0
M  V30 6339 C 573.682 -1.28901 -1.67176 0
M  V30 6340 O 573.03 -0.444632 -2.24132 0
M  V30 6341 C 573.24 -3.47223 -0.35175 0
M  V30 6342 C 574.588 -4.20389 -0.596534 0
M  V30 6343 O 575.612 -3.53554 -0.433344 0
M  V30 6344 O 574.471 -5.3881 -0.913589 0
M  V30 6345 H 571.565 -0.808666 -0.173172 0
M  V30 6346 H 574.111 -1.64713 0.408391 0
M  V30 6347 H 572.883 -3.86423 0.615841 0
M  V30 6348 H 572.506 -3.8212 -1.09864 0
M  V30 6349 N 573.503 -0.0852151 -1.57369 0
M  V30 6350 C 574.749 0.581666 -1.94279 0
M  V30 6351 C 575.082 1.68444 -0.966446 0
M  V30 6352 O 574.357 1.945 0.00215277 0
M  V30 6353 C 574.64 1.14609 -3.41375 0
M  V30 6354 C 574.493 0.0490414 -4.49773 0
M  V30 6355 C 575.812 2.04751 -3.8957 0
M  V30 6356 H 572.931 0.209972 -0.706456 0
M  V30 6357 H 575.573 -0.153915 -1.89376 0
M  V30 6358 H 573.723 1.77297 -3.45685 0
M  V30 6359 H 575.395 -0.584721 -4.57579 0
M  V30 6360 H 573.638 -0.618638 -4.29366 0
M  V30 6361 H 574.309 0.484601 -5.49869 0
M  V30 6362 H 576.785 1.51981 -3.87351 0
M  V30 6363 H 575.661 2.41173 -4.93079 0
M  V30 6364 H 575.922 2.96107 -3.28288 0
M  V30 6365 N 574.981 1.5647 0.188427 0
M  V30 6366 C 576.221 1.82803 0.914469 0
M  V30 6367 C 576.585 0.663681 1.80165 0
M  V30 6368 O 577.786 0.807059 2.56398 0
M  V30 6369 C 576.057 3.14187 1.70357 0
M  V30 6370 S 577.616 3.61947 2.48072 0
M  V30 6371 H 574.434 0.641497 0.306599 0
M  V30 6372 H 577.036 1.94694 0.177361 0
M  V30 6373 H 575.74 3.96937 1.04255 0
M  V30 6374 H 575.271 3.05192 2.48237 0
M  V30 6375 H 577.286 3.27913 3.72407 0
M  V30 6376 N 576.459 -0.456382 1.50847 0
M  V30 6377 C 577.684 -1.2349 1.66628 0
M  V30 6378 C 578.109 -1.84715 0.355254 0
M  V30 6379 O 577.467 -1.67961 -0.682559 0
M  V30 6380 C 577.515 -2.30865 2.77009 0
M  V30 6381 O 576.619 -3.35882 2.39285 0
M  V30 6382 H 575.96 -0.36266 0.556214 0
M  V30 6383 H 578.49 -0.541374 1.97308 0
M  V30 6384 H 578.5 -2.75949 3.00526 0
M  V30 6385 H 577.175 -1.85677 3.72152 0
M  V30 6386 H 575.752 -2.96406 2.26269 0
M  V30 6387 N 577.937 -1.40673 -0.710563 0
M  V30 6388 C 578.885 -1.41517 -1.84596 0
M  V30 6389 C 579.879 -0.295043 -1.66811 0
M  V30 6390 O 581.085 -0.466331 -1.73854 0
M  V30 6391 H 577.46 -0.442467 -0.608052 0
M  V30 6392 H 579.431 -2.37238 -1.80999 0
M  V30 6393 C 578.18 -1.29957 -3.225 0
M  V30 6394 H 577.503 -2.15429 -3.36794 0
M  V30 6395 H 578.943 -1.34608 -4.02066 0
M  V30 6396 C 577.402 -0.0103164 -3.36898 0
M  V30 6397 O 577.932 0.950707 -3.90288 0
M  V30 6398 N 576.138 0.0608409 -2.90536 0
M  V30 6399 H 575.685 -0.721943 -2.47277 0
M  V30 6400 H 575.643 0.92292 -3.00549 0
M  V30 6401 N 579.415 0.9433 -1.26252 0
M  V30 6402 C 580.661 1.69226 -1.12846 0
M  V30 6403 C 581.016 1.8963 0.325282 0
M  V30 6404 O 580.309 1.46435 1.23561 0
M  V30 6405 C 580.503 3.07073 -1.82868 0
M  V30 6406 C 580.332 3.00118 -3.34902 0
M  V30 6407 C 579.102 3.03251 -4.04186 0
M  V30 6408 C 581.3 2.80418 -4.31127 0
M  V30 6409 N 579.282 2.86573 -5.42908 0
M  V30 6410 C 580.653 2.72287 -5.5701 0
M  V30 6411 C 582.708 2.65185 -4.21404 0
M  V30 6412 C 581.411 2.50479 -6.74279 0
M  V30 6413 C 583.437 2.4475 -5.38378 0
M  V30 6414 C 582.799 2.37349 -6.63208 0
M  V30 6415 H 578.898 0.626716 -0.467708 0
M  V30 6416 H 581.482 1.11645 -1.5951 0
M  V30 6417 H 579.653 3.62797 -1.38682 0
M  V30 6418 H 581.385 3.70816 -1.62103 0
M  V30 6419 H 578.14 3.12882 -3.55531 0
M  V30 6420 H 578.564 2.81408 -6.15742 0
M  V30 6421 H 583.206 2.69675 -3.25631 0
M  V30 6422 H 580.924 2.4473 -7.70151 0
M  V30 6423 H 584.51 2.33872 -5.32724 0
M  V30 6424 H 583.39 2.21746 -7.52196 0
M  V30 6425 N 580.893 1.08022 1.14757 0
M  V30 6426 C 582.141 0.805913 1.85336 0
M  V30 6427 C 582.462 -0.670162 1.83122 0
M  V30 6428 O 581.732 -1.48567 1.2769 0
M  V30 6429 H 580.312 0.295138 0.686223 0
M  V30 6430 H 582.974 1.36538 1.3908 0
M  V30 6431 H 582.07 1.14655 2.90277 0
M  V30 6432 N 582.371 -1.3172 0.865308 0
M  V30 6433 C 583.319 -2.30569 0.306674 0
M  V30 6434 C 584.313 -1.59317 -0.575724 0
M  V30 6435 O 585.519 -1.73961 -0.462343 0
M  V30 6436 H 581.894 -0.747681 0.0804834 0
M  V30 6437 H 583.865 -2.75165 1.15441 0
M  V30 6438 C 582.614 -3.44358 -0.480952 0
M  V30 6439 H 581.937 -3.99354 0.18876 0
M  V30 6440 H 583.377 -4.15652 -0.837241 0
M  V30 6441 C 581.836 -2.92574 -1.67039 0
M  V30 6442 O 582.366 -2.90954 -2.76964 0
M  V30 6443 N 580.572 -2.48835 -1.50097 0
M  V30 6444 H 580.119 -2.50353 -0.606738 0
M  V30 6445 H 580.077 -2.14543 -2.29823 0
M  V30 6446 N 583.85 -0.624285 -1.44708 0
M  V30 6447 C 585.096 -0.13473 -2.02953 0
M  V30 6448 C 585.451 1.22724 -1.48178 0
M  V30 6449 O 584.744 1.80109 -0.653542 0
M  V30 6450 C 584.938 -0.0546353 -3.57358 0
M  V30 6451 C 584.767 -1.40729 -4.27113 0
M  V30 6452 C 583.537 -1.99231 -4.64365 0
M  V30 6453 C 585.735 -2.33968 -4.58 0
M  V30 6454 N 583.716 -3.27803 -5.19055 0
M  V30 6455 C 585.088 -3.47149 -5.137 0
M  V30 6456 C 587.143 -2.33132 -4.39948 0
M  V30 6457 C 585.846 -4.59682 -5.53249 0
M  V30 6458 C 587.872 -3.44724 -4.8054 0
M  V30 6459 C 587.234 -4.56629 -5.36348 0
M  V30 6460 H 583.332 -0.0930617 -0.776443 0
M  V30 6461 H 585.917 -0.826286 -1.76297 0
M  V30 6462 H 584.088 0.606183 -3.8364 0
M  V30 6463 H 585.82 0.443116 -4.02267 0
M  V30 6464 H 582.575 -1.52251 -4.4846 0
M  V30 6465 H 582.999 -3.93519 -5.50883 0
M  V30 6466 H 587.641 -1.47868 -3.961 0
M  V30 6467 H 585.359 -5.4566 -5.96054 0
M  V30 6468 H 588.945 -3.45245 -4.68291 0
M  V30 6469 H 587.825 -5.41551 -5.67179 0
M  V30 6470 N 585.328 1.53329 -0.364422 0
M  V30 6471 C 586.276 2.27212 0.497737 0
M  V30 6472 C 587.27 1.30146 1.08437 0
M  V30 6473 O 588.476 1.47778 1.0277 0
M  V30 6474 H 584.851 0.730329 0.179232 0
M  V30 6475 H 586.822 2.98037 -0.147182 0
M  V30 6476 C 585.571 3.07333 1.6261 0
M  V30 6477 H 584.894 3.81866 1.184 0
M  V30 6478 H 586.334 3.62209 2.20409 0
M  V30 6479 C 584.793 2.18102 2.56775 0
M  V30 6480 O 585.323 1.79104 3.59562 0
M  V30 6481 N 583.529 1.82759 2.25937 0
M  V30 6482 H 583.076 2.14671 1.42387 0
M  V30 6483 H 583.034 1.23342 2.89196 0
M  V30 6484 N 586.806 0.0935595 1.57322 0
M  V30 6485 C 588.036 -0.578095 1.98347 0
M  V30 6486 C 588.444 -1.62357 0.971441 0
M  V30 6487 O 587.787 -1.83639 -0.0473959 0
M  V30 6488 C 587.849 -1.28525 3.3574 0
M  V30 6489 C 587.513 -0.390714 4.55327 0
M  V30 6490 C 588.51 0.360522 5.18648 0
M  V30 6491 C 586.195 -0.309221 5.01347 0
M  V30 6492 C 588.189 1.18125 6.26359 0
M  V30 6493 C 585.876 0.515157 6.08925 0
M  V30 6494 C 586.874 1.25904 6.71295 0
M  V30 6495 O 586.562 2.06978 7.76798 0
M  V30 6496 H 586.294 -0.159767 0.656849 0
M  V30 6497 H 588.848 0.169058 2.04703 0
M  V30 6498 H 587.078 -2.07894 3.26063 0
M  V30 6499 H 588.767 -1.85128 3.61223 0
M  V30 6500 H 589.533 0.307285 4.84026 0
M  V30 6501 H 585.412 -0.877881 4.52564 0
M  V30 6502 H 588.956 1.76236 6.74971 0
M  V30 6503 H 584.853 0.56988 6.42979 0
M  V30 6504 H 585.621 1.99644 7.93779 0
M  V30 6505 N 588.284 -1.56567 -0.180126 0
M  V30 6506 C 589.512 -1.85618 -0.913972 0
M  V30 6507 C 589.927 -0.677892 -1.7621 0
M  V30 6508 O 589.284 0.353171 -1.7905 0
M  V30 6509 C 589.335 -3.13619 -1.79793 0
M  V30 6510 O 589.056 -4.26906 -0.98402 0
M  V30 6511 C 590.557 -3.55954 -2.64219 0
M  V30 6512 H 587.777 -0.616043 -0.265954 0
M  V30 6513 H 590.321 -2.03681 -0.182872 0
M  V30 6514 H 588.476 -2.97409 -2.48247 0
M  V30 6515 H 588.89 -4.9989 -1.58776 0
M  V30 6516 H 590.364 -4.48444 -3.21873 0
M  V30 6517 H 590.841 -2.79653 -3.38661 0
M  V30 6518 H 591.447 -3.74746 -2.01111 0
M  V30 6519 N 589.762 0.448376 -1.51087 0
M  V30 6520 C 590.725 1.52588 -1.71025 0
M  V30 6521 C 591.725 1.49958 -0.580442 0
M  V30 6522 O 592.915 1.52176 -0.847833 0
M  V30 6523 C 590.047 2.92163 -1.75652 0
M  V30 6524 H 591.24 1.36218 -2.67179 0
M  V30 6525 H 588.793 0.676313 -1.4091 0
M  V30 6526 H 589.528 3.13951 -0.812724 0
M  V30 6527 H 589.313 2.95478 -2.57751 0
M  V30 6528 H 590.803 3.70349 -1.92953 0
M  V30 6529 N 591.24 1.41047 0.703093 0
M  V30 6530 C 592.488 1.39723 1.4602 0
M  V30 6531 C 592.809 0.00461257 1.94999 0
M  V30 6532 O 592.079 -0.952292 1.71196 0
M  V30 6533 H 590.659 0.514281 0.541779 0
M  V30 6534 H 593.321 1.76217 0.832678 0
M  V30 6535 H 592.417 2.07982 2.32701 0
M  V30 6536 N 592.718 -0.936591 1.26751 0
M  V30 6537 C 593.967 -1.67778 1.11953 0
M  V30 6538 C 594.28 -1.92694 -0.33589 0
M  V30 6539 O 595.486 -2.64682 -0.604618 0
M  V30 6540 C 593.942 -3.02138 1.95551 0
M  V30 6541 C 593.55 -2.84953 3.45696 0
M  V30 6542 C 595.294 -3.79917 1.89377 0
M  V30 6543 C 593.201 -4.14814 4.21525 0
M  V30 6544 H 592.131 -0.629275 0.415366 0
M  V30 6545 H 594.782 -1.04122 1.51099 0
M  V30 6546 H 593.164 -3.668 1.49243 0
M  V30 6547 H 594.338 -2.29112 3.99805 0
M  V30 6548 H 592.653 -2.20612 3.53156 0
M  V30 6549 H 595.25 -4.76134 2.43312 0
M  V30 6550 H 595.593 -4.07204 0.865464 0
M  V30 6551 H 596.126 -3.22037 2.33532 0
M  V30 6552 H 592.865 -3.92709 5.24843 0
M  V30 6553 H 592.385 -4.70352 3.72195 0
M  V30 6554 H 594.064 -4.83239 4.3022 0
M  V30 6555 N 594.196 -1.08629 -1.14182 0
M  V30 6556 C 595.444 -0.815731 -1.84906 0
M  V30 6557 C 595.765 0.660441 -1.83475 0
M  V30 6558 O 595.035 1.47888 -1.28476 0
M  V30 6559 H 593.615 -0.298773 -0.684648 0
M  V30 6560 H 596.277 -1.37274 -1.38354 0
M  V30 6561 H 595.373 -1.16193 -2.89665 0
M  V30 6562 N 595.674 1.31259 -0.872281 0
M  V30 6563 C 596.622 2.30404 -0.318897 0
M  V30 6564 C 597.616 1.5962 0.567267 0
M  V30 6565 O 598.822 1.74204 0.453111 0
M  V30 6566 H 595.197 0.747243 -0.0844474 0
M  V30 6567 H 597.168 2.74549 -1.16899 0
M  V30 6568 C 595.917 3.44608 0.462683 0
M  V30 6569 H 595.24 3.99248 -0.209936 0
M  V30 6570 H 596.68 4.1609 0.815187 0
M  V30 6571 C 595.139 2.93456 1.65485 0
M  V30 6572 O 595.669 2.92418 2.75417 0
M  V30 6573 N 593.875 2.49628 1.48776 0
M  V30 6574 H 593.422 2.50671 0.593452 0
M  V30 6575 H 593.38 2.15759 2.28682 0
M  V30 6576 N 597.152 0.631951 1.44375 0
M  V30 6577 C 598.429 0.067646 1.95483 0
M  V30 6578 C 598.809 -1.40683 1.57389 0
M  V30 6579 O 598.157 -2.12167 0.848375 0
M  V30 6580 C 598.367 0.291392 3.47781 0
M  V30 6581 C 599.715 0.185028 4.24197 0
M  V30 6582 O 600.739 0.222803 3.55503 0
M  V30 6583 O 599.598 0.0906642 5.46425 0
M  V30 6584 H 596.692 -0.0218379 0.826712 0
M  V30 6585 H 599.238 0.703711 1.54421 0
M  V30 6586 H 598.01 1.31449 3.68561 0
M  V30 6587 H 597.633 -0.378772 3.95792 0
M  V30 6588 N 598.631 -1.53133 0.372548 0
M  V30 6589 C 599.594 -2.24569 -0.458389 0
M  V30 6590 C 600.594 -1.25603 -1.00402 0
M  V30 6591 O 601.784 -1.49827 -0.888672 0
M  V30 6592 C 598.916 -2.98783 -1.6414 0
M  V30 6593 H 600.109 -2.99436 0.166799 0
M  V30 6594 H 597.662 -1.55805 0.124357 0
M  V30 6595 H 598.397 -2.28176 -2.30448 0
M  V30 6596 H 598.182 -3.71404 -1.25704 0
M  V30 6597 H 599.672 -3.53068 -2.23008 0
M  V30 6598 N 600.109 -0.101901 -1.5727 0
M  V30 6599 C 601.525 0.254739 -1.57554 0
M  V30 6600 C 601.725 1.67937 -1.11352 0
M  V30 6601 O 600.781 2.39722 -0.793081 0
M  V30 6602 C 602.094 0.036975 -3.00677 0
M  V30 6603 C 603.642 0.104199 -3.12827 0
M  V30 6604 C 604.117 -0.0856565 -4.5792 0
M  V30 6605 N 605.608 -0.0310498 -4.6319 0
M  V30 6606 C 606.343 -0.153099 -5.73196 0
M  V30 6607 N 605.839 -0.330364 -6.92012 0
M  V30 6608 N 607.632 -0.0938854 -5.62022 0
M  V30 6609 H 599.783 -1.03263 -1.85609 0
M  V30 6610 H 602.046 -0.405251 -0.857016 0
M  V30 6611 H 601.752 -0.947254 -3.38703 0
M  V30 6612 H 601.626 0.776335 -3.69124 0
M  V30 6613 H 604.013 1.07894 -2.74669 0
M  V30 6614 H 604.094 -0.666762 -2.46957 0
M  V30 6615 H 603.738 -1.05729 -4.96773 0
M  V30 6616 H 603.668 0.705082 -5.21858 0
M  V30 6617 H 606.159 0.103141 -3.77759 0
M  V30 6618 H 606.472 -0.41482 -7.71686 0
M  V30 6619 H 604.817 -0.366119 -6.94035 0
M  V30 6620 H 608.008 0.0435168 -4.6808 0
M  V30 6621 H 608.181 -0.19245 -6.47714 0
M  V30 6622 N 601.587 1.56661 0.17182 0
M  V30 6623 C 602.864 1.72838 0.915778 0
M  V30 6624 C 603.244 0.66316 2.00413 0
M  V30 6625 O 602.592 -0.322123 2.26218 0
M  V30 6626 C 602.802 3.16019 1.48097 0
M  V30 6627 C 604.15 3.76962 1.95408 0
M  V30 6628 O 605.174 3.19294 1.57892 0
M  V30 6629 O 604.033 4.78219 2.64516 0
M  V30 6630 H 601.127 0.705797 0.431021 0
M  V30 6631 H 603.673 1.68947 0.159689 0
M  V30 6632 H 602.445 3.85031 0.697618 0
M  V30 6633 H 602.068 3.24234 2.30126 0
M  V30 6634 N 603.065 -0.440357 1.51323 0
M  V30 6635 C 604.312 -1.19004 1.63842 0
M  V30 6636 C 604.64 -1.91266 0.35321 0
M  V30 6637 O 603.895 -1.84143 -0.662565 0
M  V30 6638 C 604.194 -2.2339 2.78984 0
M  V30 6639 C 603.86 -1.68162 4.18369 0
M  V30 6640 C 602.522 -1.52823 4.56288 0
M  V30 6641 C 604.874 -1.27524 5.05358 0
M  V30 6642 C 602.202 -0.953157 5.78906 0
M  V30 6643 C 604.554 -0.714474 6.28552 0
M  V30 6644 C 603.218 -0.547961 6.65247 0
M  V30 6645 H 602.488 -0.435468 0.59954 0
M  V30 6646 H 605.135 -0.481538 1.85347 0
M  V30 6647 H 603.44 -3.00267 2.51688 0
M  V30 6648 H 605.137 -2.81211 2.85869 0
M  V30 6649 H 601.727 -1.81077 3.8847 0
M  V30 6650 H 605.911 -1.38197 4.76671 0
M  V30 6651 H 601.167 -0.811882 6.05986 0
M  V30 6652 H 605.341 -0.391059 6.95301 0
M  V30 6653 H 602.968 -0.100222 7.60134 0
M  V30 6654 N 604.543 -1.41418 -0.695603 0
M  V30 6655 C 605.959 -1.23887 -1.00619 0
M  V30 6656 C 606.159 -0.128206 -2.01092 0
M  V30 6657 O 605.215 0.507408 -2.47349 0
M  V30 6658 C 606.528 -2.58816 -1.53083 0
M  V30 6659 C 608.076 -2.65998 -1.64967 0
M  V30 6660 C 608.551 -4.01244 -2.20833 0
M  V30 6661 N 610.042 -4.0309 -2.28194 0
M  V30 6662 C 610.777 -5.04539 -2.72448 0
M  V30 6663 N 610.273 -6.16378 -3.16306 0
M  V30 6664 N 612.066 -4.91901 -2.72011 0
M  V30 6665 H 604.217 -2.12379 -0.0300061 0
M  V30 6666 H 606.48 -0.944958 -0.0758797 0
M  V30 6667 H 606.186 -3.40842 -0.867147 0
M  V30 6668 H 606.06 -2.81299 -2.51298 0
M  V30 6669 H 608.447 -1.84331 -2.30448 0
M  V30 6670 H 608.528 -2.47325 -0.652982 0
M  V30 6671 H 608.172 -4.83359 -1.55968 0
M  V30 6672 H 608.102 -4.17257 -3.21254 0
M  V30 6673 H 610.593 -3.22341 -1.97242 0
M  V30 6674 H 610.906 -6.89658 -3.487 0
M  V30 6675 H 609.251 -6.19914 -3.14215 0
M  V30 6676 H 612.442 -4.03613 -2.37095 0
M  V30 6677 H 612.615 -5.71102 -3.06181 0
M  V30 6678 N 606.021 0.929856 -1.27246 0
M  V30 6679 C 607.251 1.70895 -1.16096 0
M  V30 6680 C 607.659 1.87039 0.285122 0
M  V30 6681 O 607.002 1.38557 1.20614 0
M  V30 6682 C 607.064 3.12919 -1.7698 0
M  V30 6683 C 606.728 3.2012 -3.26148 0
M  V30 6684 C 607.725 3.02533 -4.22812 0
M  V30 6685 C 605.41 3.43148 -3.66817 0
M  V30 6686 C 607.404 3.07861 -5.58122 0
M  V30 6687 C 605.091 3.48109 -5.02258 0
M  V30 6688 C 606.089 3.30483 -5.97721 0
M  V30 6689 O 605.777 3.35175 -7.30694 0
M  V30 6690 H 605.509 0.54152 -0.404639 0
M  V30 6691 H 608.063 1.17342 -1.68582 0
M  V30 6692 H 606.293 3.67945 -1.18969 0
M  V30 6693 H 607.982 3.72787 -1.60576 0
M  V30 6694 H 608.748 2.84586 -3.92728 0
M  V30 6695 H 604.627 3.55918 -2.9299 0
M  V30 6696 H 608.171 2.94021 -6.32612 0
M  V30 6697 H 604.068 3.65579 -5.31998 0
M  V30 6698 H 604.836 3.51644 -7.39114 0
M  V30 6699 N 607.499 1.09233 1.13605 0
M  V30 6700 C 608.746 0.827159 1.84836 0
M  V30 6701 C 609.074 -0.647199 1.83416 0
M  V30 6702 O 608.329 -1.49228 1.26608 0
M  V30 6703 C 608.628 1.305 3.32723 0
M  V30 6704 C 608.294 2.78864 3.54325 0
M  V30 6705 C 606.956 3.19382 3.59928 0
M  V30 6706 C 609.308 3.74532 3.62457 0
M  V30 6707 C 606.636 4.54346 3.71196 0
M  V30 6708 C 608.988 5.09283 3.75252 0
M  V30 6709 C 607.652 5.49394 3.79108 0
M  V30 6710 H 606.922 0.302679 0.676363 0
M  V30 6711 H 609.569 1.36676 1.34134 0
M  V30 6712 H 607.874 0.68517 3.85762 0
M  V30 6713 H 609.571 1.07648 3.86281 0
M  V30 6714 H 606.161 2.46507 3.50617 0
M  V30 6715 H 610.345 3.44343 3.57409 0
M  V30 6716 H 605.601 4.84864 3.72447 0
M  V30 6717 H 609.775 5.83269 3.80487 0
M  V30 6718 H 607.402 6.5397 3.87591 0
M  V30 6719 N 608.977 -1.30795 0.87923 0
M  V30 6720 C 609.925 -2.30231 0.331112 0
M  V30 6721 C 610.919 -1.59918 -0.558794 0
M  V30 6722 O 612.125 -1.74441 -0.443866 0
M  V30 6723 H 608.5 -0.746785 0.088409 0
M  V30 6724 H 610.471 -2.73925 1.18353 0
M  V30 6725 C 609.22 -3.44848 -0.444401 0
M  V30 6726 H 608.543 -3.99131 0.231106 0
M  V30 6727 H 609.983 -4.16516 -0.793109 0
M  V30 6728 C 608.442 -2.94329 -1.63926 0
M  V30 6729 O 608.972 -2.93875 -2.73862 0
M  V30 6730 N 607.178 -2.50413 -1.4745 0
M  V30 6731 H 606.725 -2.50982 -0.58015 0
M  V30 6732 H 606.683 -2.16969 -2.27534 0
M  V30 6733 N 610.455 -0.639598 -1.44038 0
M  V30 6734 C 611.704 -0.144885 -2.01179 0
M  V30 6735 C 612.017 1.24372 -1.50967 0
M  V30 6736 O 613.223 1.83291 -2.00292 0
M  V30 6737 C 611.679 -0.208244 -3.59297 0
M  V30 6738 C 611.287 -1.59869 -4.18504 0
M  V30 6739 C 613.031 0.229568 -4.23879 0
M  V30 6740 C 610.938 -1.61671 -5.68873 0
M  V30 6741 H 609.868 -0.0504005 -0.752314 0
M  V30 6742 H 612.519 -0.799639 -1.65161 0
M  V30 6743 H 610.901 0.513767 -3.92653 0
M  V30 6744 H 612.075 -2.34496 -3.96671 0
M  V30 6745 H 610.39 -1.98131 -3.66242 0
M  V30 6746 H 612.987 0.235758 -5.3418 0
M  V30 6747 H 613.33 1.25848 -3.96822 0
M  V30 6748 H 613.863 -0.440233 -3.95357 0
M  V30 6749 H 610.602 -2.62427 -6.00677 0
M  V30 6750 H 610.122 -0.913489 -5.92803 0
M  V30 6751 H 611.801 -1.35439 -6.32665 0
M  V30 6752 N 611.933 1.52934 -0.380664 0
M  V30 6753 C 613.344 1.86457 0.0952684 0
M  V30 6754 C 613.695 1.3007 1.46889 0
M  V30 6755 O 612.82 0.628636 2.07068 0
M  V30 6756 C 613.415 3.38323 0.179648 0
M  V30 6757 C 611.974 3.71589 0.599858 0
M  V30 6758 C 611.121 2.76228 -0.243572 0
M  V30 6759 H 614.072 1.46966 -0.59888 0
M  V30 6760 H 614.093 3.67113 1.00042 0
M  V30 6761 H 613.605 3.79333 -0.820228 0
M  V30 6762 H 611.706 3.36144 1.60742 0
M  V30 6763 H 611.819 4.77715 0.364003 0
M  V30 6764 H 610.183 2.53045 0.289855 0
M  V30 6765 H 610.966 3.20074 -1.24127 0
M  V30 6766 N 613.412 0.11024 1.57214 0
M  V30 6767 C 614.359 -0.843195 2.14846 0
M  V30 6768 C 615.329 -1.26954 1.07107 0
M  V30 6769 O 616.514 -1.34861 1.34971 0
M  V30 6770 C 613.654 -2.09123 2.74521 0
M  V30 6771 C 612.767 -1.71404 3.96541 0
M  V30 6772 C 611.902 -2.91107 4.44331 0
M  V30 6773 C 610.941 -2.49586 5.58903 0
M  V30 6774 N 610.078 -3.62175 6.01477 0
M  V30 6775 H 614.918 -0.344886 2.95998 0
M  V30 6776 H 612.455 -0.15855 1.46243 0
M  V30 6777 H 614.413 -2.82234 3.07246 0
M  V30 6778 H 613.043 -2.56427 1.96074 0
M  V30 6779 H 612.095 -0.88201 3.70033 0
M  V30 6780 H 613.407 -1.36884 4.7965 0
M  V30 6781 H 612.561 -3.72454 4.78919 0
M  V30 6782 H 611.3 -3.28848 3.60153 0
M  V30 6783 H 610.305 -1.6667 5.23929 0
M  V30 6784 H 611.53 -2.12973 6.4484 0
M  V30 6785 H 609.476 -3.99605 5.20242 0
M  V30 6786 H 609.393 -3.3155 6.79419 0
M  V30 6787 H 610.661 -4.43987 6.407 0
M  V30 6788 N 614.89 -1.56749 -0.16351 0
M  V30 6789 C 615.822 -1.93587 -1.22705 0
M  V30 6790 C 616.835 -0.829824 -1.40063 0
M  V30 6791 O 618.024 -1.10826 -1.39928 0
M  V30 6792 C 615.124 -2.1803 -2.59454 0
M  V30 6793 C 614.297 -3.4928 -2.63292 0
M  V30 6794 C 613.356 -3.62457 -3.8146 0
M  V30 6795 O 612.382 -4.35004 -3.67096 0
M  V30 6796 N 613.584 -2.97888 -4.9824 0
M  V30 6797 H 616.349 -2.8542 -0.914081 0
M  V30 6798 H 613.91 -1.58 -0.353214 0
M  V30 6799 H 615.902 -2.24102 -3.36987 0
M  V30 6800 H 614.472 -1.32543 -2.8311 0
M  V30 6801 H 613.692 -3.54795 -1.71796 0
M  V30 6802 H 614.98 -4.35632 -2.62873 0
M  V30 6803 H 614.378 -2.38833 -5.12811 0
M  V30 6804 H 612.935 -3.09545 -5.73607 0
M  V30 6805 N 616.368 0.432326 -1.51554 0
M  V30 6806 C 617.593 1.20824 -1.68571 0
M  V30 6807 C 618.018 1.84126 -0.384596 0
M  V30 6808 O 617.376 1.69025 0.655751 0
M  V30 6809 C 617.424 2.26429 -2.80646 0
M  V30 6810 O 616.528 3.32032 -2.44598 0
M  V30 6811 H 615.869 0.353765 -0.561913 0
M  V30 6812 H 618.399 0.509916 -1.98144 0
M  V30 6813 H 618.409 2.71133 -3.04878 0
M  V30 6814 H 617.084 1.79733 -3.75058 0
M  V30 6815 H 615.661 2.92769 -2.30956 0
M  V30 6816 N 617.846 1.41785 0.688094 0
M  V30 6817 C 618.778 1.40159 1.81351 0
M  V30 6818 C 619.791 0.30262 1.59963 0
M  V30 6819 O 620.98 0.564841 1.69327 0
M  V30 6820 C 618.08 1.16517 3.1824 0
M  V30 6821 C 617.253 2.38597 3.66593 0
M  V30 6822 C 616.312 2.10699 4.82174 0
M  V30 6823 O 615.338 2.83798 4.93404 0
M  V30 6824 N 616.54 1.10187 5.69947 0
M  V30 6825 H 619.305 2.3716 1.83236 0
M  V30 6826 H 616.866 1.36494 0.870697 0
M  V30 6827 H 618.858 0.957941 3.93199 0
M  V30 6828 H 617.428 0.280873 3.11336 0
M  V30 6829 H 616.648 2.74974 2.82459 0
M  V30 6830 H 617.936 3.19919 3.95638 0
M  V30 6831 H 617.334 0.497016 5.63512 0
M  V30 6832 H 615.891 0.954518 6.44773 0
M  V30 6833 N 619.324 -0.923095 1.27737 0
M  V30 6834 C 620.256 -2.02871 1.06658 0
M  V30 6835 C 621.269 -1.62786 0.0212095 0
M  V30 6836 O 622.458 -1.76548 0.263267 0
M  V30 6837 C 619.558 -3.33603 0.59682 0
M  V30 6838 C 618.731 -4.02354 1.71551 0
M  V30 6839 C 617.79 -5.11364 1.24071 0
M  V30 6840 O 616.816 -5.35075 1.94123 0
M  V30 6841 N 618.018 -5.80416 0.0988444 0
M  V30 6842 H 620.783 -2.21515 2.01869 0
M  V30 6843 H 618.344 -1.09378 1.19365 0
M  V30 6844 H 620.336 -4.03845 0.262984 0
M  V30 6845 H 618.906 -3.11499 -0.262187 0
M  V30 6846 H 618.126 -3.25786 2.2194 0
M  V30 6847 H 619.414 -4.45035 2.46619 0
M  V30 6848 H 618.812 -5.63611 -0.485743 0
M  V30 6849 H 617.369 -6.51563 -0.17578 0
M  V30 6850 N 620.802 -1.09834 -1.13024 0
M  V30 6851 C 622.032 -0.857657 -1.87957 0
M  V30 6852 C 622.44 0.595008 -1.796 0
M  V30 6853 O 621.783 1.42158 -1.16347 0
M  V30 6854 C 621.845 -1.21949 -3.38185 0
M  V30 6855 C 621.509 -2.67791 -3.7032 0
M  V30 6856 C 622.506 -3.66036 -3.69207 0
M  V30 6857 C 620.191 -3.04019 -3.99847 0
M  V30 6858 C 622.185 -4.98533 -3.9717 0
M  V30 6859 C 619.872 -4.36706 -4.27471 0
M  V30 6860 C 620.87 -5.33772 -4.26118 0
M  V30 6861 O 620.558 -6.64072 -4.53061 0
M  V30 6862 H 620.29 -0.308009 -0.601753 0
M  V30 6863 H 622.844 -1.46496 -1.43973 0
M  V30 6864 H 621.074 -0.555249 -3.82693 0
M  V30 6865 H 622.763 -0.957281 -3.9445 0
M  V30 6866 H 623.529 -3.39392 -3.46465 0
M  V30 6867 H 619.408 -2.29096 -4.00045 0
M  V30 6868 H 622.952 -5.74288 -3.96029 0
M  V30 6869 H 618.849 -4.63091 -4.49685 0
M  V30 6870 H 619.617 -6.69608 -4.7071 0
M  V30 6871 N 622.28 1.30327 -0.886154 0
M  V30 6872 C 623.557 1.90922 -0.425217 0
M  V30 6873 C 623.937 1.80533 1.09413 0
M  V30 6874 O 623.285 1.2233 1.92996 0
M  V30 6875 C 623.495 3.36529 -0.924638 0
M  V30 6876 C 624.843 4.13598 -0.960305 0
M  V30 6877 O 625.867 3.45377 -0.871382 0
M  V30 6878 O 624.726 5.35482 -1.09184 0
M  V30 6879 H 621.82 0.81668 -0.130238 0
M  V30 6880 H 624.366 1.38886 -0.975132 0
M  V30 6881 H 623.138 3.38181 -1.96849 0
M  V30 6882 H 622.761 3.96021 -0.353955 0
M  V30 6883 N 623.758 0.647228 1.43697 0
M  V30 6884 C 625.169 0.238689 1.85168 0
M  V30 6885 C 625.52 -1.21345 1.54175 0
M  V30 6886 O 624.645 -1.92542 0.987743 0
M  V30 6887 C 625.24 0.426422 3.36106 0
M  V30 6888 C 623.799 0.0722541 3.76331 0
M  V30 6889 C 622.946 0.732153 2.6746 0
M  V30 6890 H 625.897 0.851309 1.33934 0
M  V30 6891 H 625.918 -0.32987 3.79067 0
M  V30 6892 H 625.43 1.48339 3.58632 0
M  V30 6893 H 623.531 -0.982355 3.59417 0
M  V30 6894 H 623.644 0.493541 4.76551 0
M  V30 6895 H 622.008 0.16594 2.54159 0
M  V30 6896 H 622.791 1.79204 2.92816 0
M  V30 6897 N 625.236 -1.5273 0.388769 0
M  V30 6898 C 626.168 -2.24081 -0.481704 0
M  V30 6899 C 627.181 -1.26307 -1.02715 0
M  V30 6900 O 628.37 -1.52386 -0.929565 0
M  V30 6901 C 625.47 -2.94315 -1.68024 0
M  V30 6902 C 624.643 -4.18791 -1.26226 0
M  V30 6903 C 623.702 -4.72028 -2.32542 0
M  V30 6904 O 622.728 -5.35129 -1.93972 0
M  V30 6905 N 623.93 -4.51838 -3.64448 0
M  V30 6906 H 626.695 -2.9942 0.129591 0
M  V30 6907 H 624.256 -1.60465 0.2151 0
M  V30 6908 H 626.248 -3.26831 -2.38671 0
M  V30 6909 H 624.818 -2.22287 -2.19789 0
M  V30 6910 H 624.038 -3.92318 -0.384703 0
M  V30 6911 H 625.326 -4.99668 -0.959647 0
M  V30 6912 H 624.724 -4.01468 -3.98547 0
M  V30 6913 H 623.281 -4.88845 -4.31131 0
M  V30 6914 N 626.714 -0.118576 -1.57153 0
M  V30 6915 C 627.962 0.538461 -1.94795 0
M  V30 6916 C 628.283 1.67243 -1.00274 0
M  V30 6917 O 627.553 1.95811 -0.0589692 0
M  V30 6918 H 626.133 0.201904 -0.719197 0
M  V30 6919 H 628.795 -0.187418 -1.93997 0
M  V30 6920 H 627.891 0.933315 -2.97818 0
M  V30 6921 N 628.193 1.56834 0.155195 0
M  V30 6922 C 629.421 1.87049 0.884326 0
M  V30 6923 C 629.836 0.705839 1.7511 0
M  V30 6924 O 629.193 -0.324641 1.79589 0
M  V30 6925 C 629.244 3.1644 1.74781 0
M  V30 6926 O 628.965 4.28417 0.915978 0
M  V30 6927 C 630.466 3.60113 2.58522 0
M  V30 6928 H 627.686 0.620196 0.25612 0
M  V30 6929 H 630.23 2.03946 0.150445 0
M  V30 6930 H 628.385 3.01321 2.43484 0
M  V30 6931 H 628.799 5.02353 1.50803 0
M  V30 6932 H 630.273 4.53508 3.14698 0
M  V30 6933 H 630.75 2.85005 3.34169 0
M  V30 6934 H 631.356 3.77898 1.95124 0
M  V30 6935 N 629.671 -0.424282 1.51781 0
M  V30 6936 C 630.901 -1.19297 1.68677 0
M  V30 6937 C 631.309 -1.85152 0.389258 0
M  V30 6938 O 630.652 -1.72067 -0.643311 0
M  V30 6939 C 630.714 -2.30929 2.75521 0
M  V30 6940 C 630.378 -1.85335 4.17732 0
M  V30 6941 C 631.375 -1.34951 5.0208 0
M  V30 6942 C 629.06 -1.92629 4.63896 0
M  V30 6943 C 631.054 -0.924636 6.30658 0
M  V30 6944 C 628.741 -1.49754 5.92467 0
M  V30 6945 C 629.739 -0.997543 6.75676 0
M  V30 6946 O 629.427 -0.57492 8.01842 0
M  V30 6947 H 629.159 -0.36512 0.568914 0
M  V30 6948 H 631.713 -0.507327 1.99036 0
M  V30 6949 H 629.943 -3.02811 2.40505 0
M  V30 6950 H 631.632 -2.92748 2.81165 0
M  V30 6951 H 632.398 -1.287 4.67612 0
M  V30 6952 H 628.277 -2.30491 3.99243 0
M  V30 6953 H 631.821 -0.533682 6.95556 0
M  V30 6954 H 627.718 -1.55679 6.26446 0
M  V30 6955 H 628.486 -0.699597 8.15505 0
M  V30 6956 N 631.149 -1.42148 -0.680565 0
M  V30 6957 C 632.079 -1.4796 -1.80638 0
M  V30 6958 C 633.06 -0.336728 -1.66734 0
M  V30 6959 O 634.245 -0.550247 -1.86242 0
M  V30 6960 C 631.375 -1.37569 -3.18892 0
M  V30 6961 C 630.329 -2.49823 -3.47524 0
M  V30 6962 C 629.655 -2.24491 -4.85291 0
M  V30 6963 C 630.955 -3.92144 -3.44994 0
M  V30 6964 H 632.649 -2.42184 -1.76032 0
M  V30 6965 H 630.195 -1.16566 -0.845481 0
M  V30 6966 H 632.148 -1.40243 -3.97379 0
M  V30 6967 H 630.872 -0.398357 -3.24162 0
M  V30 6968 H 629.531 -2.46455 -2.71395 0
M  V30 6969 H 629.179 -1.25066 -4.87204 0
M  V30 6970 H 628.879 -2.99722 -5.05411 0
M  V30 6971 H 630.403 -2.28906 -5.66069 0
M  V30 6972 H 631.817 -3.97145 -4.13459 0
M  V30 6973 H 630.214 -4.67179 -3.76648 0
M  V30 6974 H 631.284 -4.19225 -2.43676 0
M  V30 6975 N 632.627 0.916307 -1.28225 0
M  V30 6976 C 634.043 1.19425 -1.05876 0
M  V30 6977 C 634.243 2.005 0.2005 0
M  V30 6978 O 633.299 2.35806 0.902873 0
M  V30 6979 C 634.612 1.93133 -2.30478 0
M  V30 6980 C 636.16 2.06026 -2.35632 0
M  V30 6981 C 636.635 2.83141 -3.59994 0
M  V30 6982 N 638.126 2.90704 -3.60618 0
M  V30 6983 C 638.861 3.50865 -4.53521 0
M  V30 6984 N 638.357 4.12327 -5.56739 0
M  V30 6985 N 640.15 3.48379 -4.41122 0
M  V30 6986 H 632.301 0.37496 -2.09064 0
M  V30 6987 H 634.564 0.228531 -0.920042 0
M  V30 6988 H 634.27 1.40985 -3.22205 0
M  V30 6989 H 634.144 2.93696 -2.36691 0
M  V30 6990 H 636.531 2.57355 -1.44404 0
M  V30 6991 H 636.612 1.04647 -2.33415 0
M  V30 6992 H 636.256 2.32492 -4.51564 0
M  V30 6993 H 636.186 3.84829 -3.59464 0
M  V30 6994 H 638.677 2.47034 -2.85977 0
M  V30 6995 H 638.99 4.56205 -6.23776 0
M  V30 6996 H 637.335 4.10839 -5.60568 0
M  V30 6997 H 640.526 2.99572 -3.59686 0
M  V30 6998 H 640.699 3.94974 -5.13712 0
M  V30 6999 N 634.105 1.10431 1.1244 0
M  V30 7000 C 635.055 0.722378 2.16254 0
M  V30 7001 C 636.039 -0.268427 1.58645 0
M  V30 7002 O 637.231 -0.077169 1.76832 0
M  V30 7003 C 634.36 0.155763 3.42946 0
M  V30 7004 C 633.446 1.17361 4.07538 0
M  V30 7005 N 633.837 2.36429 4.47141 0
M  V30 7006 C 632.135 1.01412 4.34317 0
M  V30 7007 C 632.836 3.01259 4.97612 0
M  V30 7008 N 631.812 2.28777 4.93115 0
M  V30 7009 H 635.614 1.62876 2.4464 0
M  V30 7010 H 633.128 0.982031 1.29344 0
M  V30 7011 H 635.125 -0.135936 4.16678 0
M  V30 7012 H 633.785 -0.745339 3.1603 0
M  V30 7013 H 634.796 2.73954 4.39511 0
M  V30 7014 H 631.473 0.168574 4.1716 0
M  V30 7015 H 632.863 4.02541 5.37968 0
M  V30 7016 N 635.583 -1.29855 0.893053 0
M  V30 7017 C 636.829 -1.96488 0.52574 0
M  V30 7018 C 637.184 -1.69164 -0.916594 0
M  V30 7019 O 636.477 -0.990405 -1.64017 0
M  V30 7020 C 636.671 -3.49515 0.746588 0
M  V30 7021 C 636.5 -3.91715 2.20884 0
M  V30 7022 C 635.27 -4.16915 2.85499 0
M  V30 7023 C 637.468 -4.03934 3.18342 0
M  V30 7024 N 635.45 -4.45634 4.22236 0
M  V30 7025 C 636.821 -4.36629 4.40176 0
M  V30 7026 C 638.876 -3.86387 3.14021 0
M  V30 7027 C 637.579 -4.53605 5.58243 0
M  V30 7028 C 639.605 -4.04569 4.31367 0
M  V30 7029 C 638.967 -4.37617 5.5197 0
M  V30 7030 H 635.066 -0.743657 0.241863 0
M  V30 7031 H 637.65 -1.56927 1.15248 0
M  V30 7032 H 635.821 -3.88113 0.149281 0
M  V30 7033 H 637.553 -4.03224 0.345372 0
M  V30 7034 H 634.308 -4.10423 2.36326 0
M  V30 7035 H 634.732 -4.64114 4.92876 0
M  V30 7036 H 639.374 -3.59906 2.21873 0
M  V30 7037 H 637.092 -4.78925 6.50889 0
M  V30 7038 H 640.678 -3.92452 4.29503 0
M  V30 7039 H 639.558 -4.51395 6.41258 0
M  V30 7040 N 637.061 -0.65484 -1.43351 0
M  V30 7041 C 637.991 0.0221809 -2.33489 0
M  V30 7042 C 638.972 0.810272 -1.49561 0
M  V30 7043 O 640.157 0.771426 -1.78221 0
M  V30 7044 C 637.287 0.988117 -3.32947 0
M  V30 7045 C 636.241 0.310026 -4.26876 0
M  V30 7046 C 635.567 1.38752 -5.16384 0
M  V30 7047 C 636.867 -0.798589 -5.16159 0
M  V30 7048 H 638.561 -0.730571 -2.9035 0
M  V30 7049 H 636.107 -0.352773 -1.39612 0
M  V30 7050 H 638.06 1.47067 -3.94904 0
M  V30 7051 H 636.784 1.77205 -2.74346 0
M  V30 7052 H 635.443 -0.152097 -3.66284 0
M  V30 7053 H 635.091 2.16293 -4.54121 0
M  V30 7054 H 634.791 0.939051 -5.80048 0
M  V30 7055 H 636.315 1.87141 -5.81215 0
M  V30 7056 H 637.729 -0.398126 -5.71916 0
M  V30 7057 H 636.126 -1.17163 -5.88552 0
M  V30 7058 H 637.196 -1.65588 -4.55751 0
M  V30 7059 N 638.539 1.52521 -0.396863 0
M  V30 7060 C 639.95 1.86547 0.0754868 0
M  V30 7061 C 640.301 1.31621 1.45501 0
M  V30 7062 O 639.426 0.650563 2.0639 0
M  V30 7063 C 640.021 3.38495 0.143754 0
M  V30 7064 C 638.58 3.72205 0.560413 0
M  V30 7065 C 637.727 2.75954 -0.272856 0
M  V30 7066 H 640.678 1.46323 -0.614434 0
M  V30 7067 H 640.699 3.68153 0.961425 0
M  V30 7068 H 640.211 3.78442 -0.860415 0
M  V30 7069 H 638.312 3.3783 1.57167 0
M  V30 7070 H 638.425 4.78074 0.313314 0
M  V30 7071 H 636.789 2.53339 0.263 0
M  V30 7072 H 637.572 3.1874 -1.27515 0
M  V30 7073 N 640.017 0.126909 1.57088 0
M  V30 7074 C 640.927 -0.833867 2.1928 0
M  V30 7075 C 641.943 -1.2868 1.17122 0
M  V30 7076 O 643.119 -1.34815 1.49622 0
M  V30 7077 C 640.184 -2.0632 2.78627 0
M  V30 7078 C 639.245 -1.66143 3.95847 0
M  V30 7079 C 638.478 -2.83217 4.52354 0
M  V30 7080 O 638.701 -3.98868 4.0775 0
M  V30 7081 O 637.635 -2.59846 5.42922 0
M  V30 7082 H 641.461 -0.334564 3.01852 0
M  V30 7083 H 639.046 -0.0991091 1.49071 0
M  V30 7084 H 640.928 -2.78304 3.16425 0
M  V30 7085 H 639.603 -2.55242 1.99082 0
M  V30 7086 H 638.51 -0.912435 3.62802 0
M  V30 7087 H 639.843 -1.21957 4.76852 0
M  V30 7088 N 641.495 -1.56914 -0.146875 0
M  V30 7089 C 642.425 -2.01308 -1.1831 0
M  V30 7090 C 643.406 -0.892664 -1.44795 0
M  V30 7091 O 644.591 -1.16048 -1.55713 0
M  V30 7092 C 641.721 -2.3938 -2.51624 0
M  V30 7093 C 640.675 -3.54608 -2.3966 0
M  V30 7094 C 640.001 -3.78493 -3.77686 0
M  V30 7095 C 641.301 -4.87269 -1.88058 0
M  V30 7096 H 642.995 -2.88123 -0.813964 0
M  V30 7097 H 640.541 -1.38615 -0.3901 0
M  V30 7098 H 642.494 -2.69037 -3.24341 0
M  V30 7099 H 641.218 -1.49502 -2.90373 0
M  V30 7100 H 639.877 -3.25116 -1.69396 0
M  V30 7101 H 639.525 -2.85866 -4.13871 0
M  V30 7102 H 639.225 -4.56039 -3.70543 0
M  V30 7103 H 640.749 -4.10576 -4.51951 0
M  V30 7104 H 642.163 -5.15644 -2.50568 0
M  V30 7105 H 640.56 -5.68622 -1.91805 0
M  V30 7106 H 641.63 -4.77634 -0.836277 0
M  V30 7107 N 642.974 0.416227 -1.52004 0
M  V30 7108 C 643.921 1.50666 -1.74838 0
M  V30 7109 C 644.891 1.55245 -0.590599 0
M  V30 7110 O 646.076 1.71928 -0.827374 0
M  V30 7111 C 643.216 2.88185 -1.89851 0
M  V30 7112 C 642.329 2.92971 -3.17478 0
M  V30 7113 C 641.464 4.21745 -3.22962 0
M  V30 7114 C 640.503 4.20478 -4.4482 0
M  V30 7115 N 639.64 5.40811 -4.47736 0
M  V30 7116 H 644.48 1.30498 -2.67907 0
M  V30 7117 H 642.017 0.633568 -1.32757 0
M  V30 7118 H 643.975 3.68007 -1.96537 0
M  V30 7119 H 642.605 3.06865 -1.00169 0
M  V30 7120 H 641.657 2.05684 -3.19997 0
M  V30 7121 H 642.969 2.87899 -4.07328 0
M  V30 7122 H 642.123 5.09954 -3.28682 0
M  V30 7123 H 640.862 4.29503 -2.31038 0
M  V30 7124 H 639.867 3.30659 -4.39254 0
M  V30 7125 H 641.092 4.14366 -5.38031 0
M  V30 7126 H 639.038 5.4925 -3.58692 0
M  V30 7127 H 638.955 5.37705 -5.31422 0
M  V30 7128 H 640.223 6.30993 -4.57676 0
M  V30 7129 N 644.452 1.42507 0.673017 0
M  V30 7130 C 645.4 1.46362 1.80779 0
M  V30 7131 C 646.394 0.339166 1.6597 0
M  V30 7132 O 647.6 0.512262 1.72557 0
M  V30 7133 H 643.975 0.458433 0.596107 0
M  V30 7134 H 645.946 2.41953 1.74646 0
M  V30 7135 C 644.695 1.38462 3.18941 0
M  V30 7136 H 644.018 2.24283 3.30964 0
M  V30 7137 H 645.458 1.45221 3.98355 0
M  V30 7138 C 643.917 0.0996354 3.36753 0
M  V30 7139 O 644.447 -0.846894 3.92671 0
M  V30 7140 N 642.653 0.016211 2.90595 0
M  V30 7141 H 642.2 0.78725 2.45276 0
M  V30 7142 H 642.158 -0.84291 3.0289 0
M  V30 7143 N 645.93 -0.909495 1.28709 0
M  V30 7144 C 646.86 -2.0291 1.15542 0
M  V30 7145 C 647.841 -1.7002 0.0521017 0
M  V30 7146 O 649.026 -1.92835 0.229849 0
M  V30 7147 C 646.156 -3.37458 0.820935 0
M  V30 7148 C 645.11 -3.84524 1.87949 0
M  V30 7149 C 644.436 -5.16086 1.39854 0
M  V30 7150 C 645.736 -4.05918 3.28676 0
M  V30 7151 H 647.43 -2.14183 2.09203 0
M  V30 7152 H 644.976 -1.02913 1.00722 0
M  V30 7153 H 646.929 -4.1528 0.715571 0
M  V30 7154 H 645.653 -3.26249 -0.151374 0
M  V30 7155 H 644.312 -3.08911 1.97408 0
M  V30 7156 H 643.96 -5.01284 0.41518 0
M  V30 7157 H 643.66 -5.48547 2.1064 0
M  V30 7158 H 645.184 -5.96459 1.30649 0
M  V30 7159 H 646.598 -4.74252 3.22115 0
M  V30 7160 H 644.995 -4.49717 3.97334 0
M  V30 7161 H 646.065 -3.10583 3.72379 0
M  V30 7162 N 647.408 -1.11026 -1.11852 0
M  V30 7163 C 648.819 -0.873203 -1.65021 0
M  V30 7164 C 649.17 0.595364 -1.86949 0
M  V30 7165 O 648.295 1.45645 -1.60051 0
M  V30 7166 C 648.89 -1.57859 -2.99777 0
M  V30 7167 C 647.449 -1.38807 -3.49871 0
M  V30 7168 C 646.596 -1.62403 -2.24768 0
M  V30 7169 H 649.547 -1.26712 -0.955503 0
M  V30 7170 H 649.568 -1.02111 -3.66543 0
M  V30 7171 H 649.08 -2.6474 -2.83786 0
M  V30 7172 H 647.181 -0.341163 -3.71035 0
M  V30 7173 H 647.294 -2.13421 -4.28938 0
M  V30 7174 H 645.658 -1.04714 -2.32179 0
M  V30 7175 H 646.441 -2.70549 -2.11324 0
M  V30 7176 N 648.886 1.2938 -0.899927 0
M  V30 7177 C 650.134 1.95164 -0.524924 0
M  V30 7178 C 650.455 1.71292 0.931888 0
M  V30 7179 O 649.725 1.04481 1.65712 0
M  V30 7180 H 648.305 0.722133 -0.191135 0
M  V30 7181 H 650.967 1.57628 -1.14627 0
M  V30 7182 H 650.063 3.0397 -0.707711 0
M  V30 7183 N 650.364 0.662433 1.43002 0
M  V30 7184 C 651.641 0.109096 1.95296 0
M  V30 7185 C 652.021 -1.37313 1.60338 0
M  V30 7186 O 651.369 -2.1032 0.893187 0
M  V30 7187 C 651.579 0.365096 3.47085 0
M  V30 7188 C 652.927 0.274964 4.23709 0
M  V30 7189 O 653.951 0.29816 3.5495 0
M  V30 7190 O 652.81 0.206549 5.4611 0
M  V30 7191 H 649.904 -0.00429724 0.826989 0
M  V30 7192 H 652.45 0.736308 1.52894 0
M  V30 7193 H 651.222 1.39237 3.65689 0
M  V30 7194 H 650.845 -0.294733 3.96506 0
M  V30 7195 N 651.842 -1.52309 0.404946 0
M  V30 7196 C 652.789 -2.26898 -0.422597 0
M  V30 7197 C 653.759 -1.2914 -1.04461 0
M  V30 7198 O 654.944 -1.57996 -1.06967 0
M  V30 7199 C 652.084 -3.09053 -1.53559 0
M  V30 7200 C 651.197 -4.21762 -0.934908 0
M  V30 7201 C 650.332 -4.91283 -2.02025 0
M  V30 7202 C 649.371 -5.95962 -1.39628 0
M  V30 7203 N 648.508 -6.59017 -2.42159 0
M  V30 7204 H 653.348 -2.97188 0.219903 0
M  V30 7205 H 650.885 -1.46607 0.120282 0
M  V30 7206 H 652.843 -3.54987 -2.19181 0
M  V30 7207 H 651.473 -2.40942 -2.14818 0
M  V30 7208 H 650.525 -3.80029 -0.167854 0
M  V30 7209 H 651.837 -4.96864 -0.439073 0
M  V30 7210 H 650.991 -5.40601 -2.75383 0
M  V30 7211 H 649.73 -4.15741 -2.54973 0
M  V30 7212 H 648.735 -5.45968 -0.648023 0
M  V30 7213 H 649.96 -6.73445 -0.874553 0
M  V30 7214 H 647.906 -5.86306 -2.94247 0
M  V30 7215 H 647.823 -7.2978 -1.97376 0
M  V30 7216 H 649.091 -7.12974 -3.15099 0
M  V30 7217 N 653.32 -0.135238 -1.57019 0
M  V30 7218 C 654.569 0.518694 -1.94917 0
M  V30 7219 C 654.882 1.66783 -1.0219 0
M  V30 7220 O 656.088 2.38561 -1.29619 0
M  V30 7221 C 654.544 0.974123 -3.46466 0
M  V30 7222 C 654.152 -0.147439 -4.47757 0
M  V30 7223 C 655.896 1.59851 -3.93253 0
M  V30 7224 C 653.803 0.325599 -5.90503 0
M  V30 7225 H 652.733 0.19754 -0.727663 0
M  V30 7226 H 655.384 -0.217698 -1.82204 0
M  V30 7227 H 653.766 1.76542 -3.5447 0
M  V30 7228 H 654.94 -0.924122 -4.51438 0
M  V30 7229 H 653.255 -0.679496 -4.10818 0
M  V30 7230 H 655.852 1.96385 -4.9733 0
M  V30 7231 H 656.195 2.48306 -3.3414 0
M  V30 7232 H 656.728 0.872323 -3.88118 0
M  V30 7233 H 653.467 -0.523295 -6.53408 0
M  V30 7234 H 652.987 1.06841 -5.90208 0
M  V30 7235 H 654.666 0.781498 -6.42263 0
M  V30 7236 N 654.798 1.5699 0.138552 0
M  V30 7237 C 655.748 1.9532 1.17619 0
M  V30 7238 C 656.732 0.825545 1.38107 0
M  V30 7239 O 657.924 1.08908 1.39528 0
M  V30 7240 C 655.053 2.34451 2.50774 0
M  V30 7241 C 654.139 3.53805 2.33844 0
M  V30 7242 N 654.53 4.70088 1.86685 0
M  V30 7243 C 652.828 3.59055 2.64567 0
M  V30 7244 C 653.529 5.52165 1.82998 0
M  V30 7245 N 652.505 4.94108 2.26624 0
M  V30 7246 H 656.307 2.82694 0.803809 0
M  V30 7247 H 653.821 1.5866 0.346519 0
M  V30 7248 H 655.818 2.60119 3.25797 0
M  V30 7249 H 654.478 1.48431 2.88788 0
M  V30 7250 H 655.489 4.93681 1.56523 0
M  V30 7251 H 652.166 2.83596 3.06398 0
M  V30 7252 H 653.556 6.55407 1.47957 0
M  V30 7253 N 656.276 -0.40816 1.52223 0
M  V30 7254 C 657.208 -1.51642 1.71864 0
M  V30 7255 C 658.221 -1.51378 0.599056 0
M  V30 7256 O 659.41 -1.55626 0.874239 0
M  V30 7257 C 656.51 -2.90534 1.74481 0
M  V30 7258 C 655.683 -3.14979 3.03491 0
M  V30 7259 C 654.742 -4.33749 2.97907 0
M  V30 7260 O 653.768 -4.30982 3.71811 0
M  V30 7261 N 654.97 -5.38912 2.15764 0
M  V30 7262 H 657.735 -1.35188 2.67478 0
M  V30 7263 H 655.296 -0.597468 1.50472 0
M  V30 7264 H 657.288 -3.68056 1.68275 0
M  V30 7265 H 655.858 -3.00441 0.863363 0
M  V30 7266 H 655.078 -2.25492 3.23337 0
M  V30 7267 H 656.366 -3.28156 3.88833 0
M  V30 7268 H 655.764 -5.44008 1.55152 0
M  V30 7269 H 654.321 -6.15174 2.15415 0
M  V30 7270 N 657.755 -1.42862 -0.66545 0
M  V30 7271 C 659.166 -1.3901 -1.24632 0
M  V30 7272 C 659.517 -0.0880285 -1.96002 0
M  V30 7273 O 658.642 0.812947 -2.0055 0
M  V30 7274 C 659.237 -2.51806 -2.2667 0
M  V30 7275 C 657.796 -2.51257 -2.80262 0
M  V30 7276 C 656.943 -2.30124 -1.5472 0
M  V30 7277 H 659.894 -1.5194 -0.458237 0
M  V30 7278 H 659.915 -2.22593 -3.08598 0
M  V30 7279 H 659.427 -3.46558 -1.74697 0
M  V30 7280 H 657.528 -1.60349 -3.36332 0
M  V30 7281 H 657.641 -3.48614 -3.28641 0
M  V30 7282 H 656.005 -1.7856 -1.81627 0
M  V30 7283 H 656.788 -3.26945 -1.04699 0
M  V30 7284 N 659.233 0.902656 -1.29189 0
M  V30 7285 C 660.479 1.6555 -1.18172 0
M  V30 7286 C 660.834 1.90569 0.264788 0
M  V30 7287 O 660.127 1.50292 1.1884 0
M  V30 7288 C 660.321 3.011 -1.92545 0
M  V30 7289 C 660.15 2.89312 -3.4428 0
M  V30 7290 C 658.92 2.90239 -4.1363 0
M  V30 7291 C 661.118 2.6656 -4.3983 0
M  V30 7292 N 659.1 2.69156 -5.5175 0
M  V30 7293 C 660.471 2.54429 -5.6539 0
M  V30 7294 C 662.526 2.51644 -4.29627 0
M  V30 7295 C 661.229 2.289 -6.81907 0
M  V30 7296 C 663.255 2.27498 -5.45892 0
M  V30 7297 C 662.617 2.16129 -6.70423 0
M  V30 7298 H 658.716 0.611519 -0.48741 0
M  V30 7299 H 661.3 1.06514 -1.62981 0
M  V30 7300 H 659.471 3.58202 -1.50154 0
M  V30 7301 H 661.203 3.65471 -1.73818 0
M  V30 7302 H 657.958 3.01412 -3.65305 0
M  V30 7303 H 658.382 2.61676 -6.24383 0
M  V30 7304 H 663.024 2.59178 -3.34045 0
M  V30 7305 H 660.742 2.20104 -7.77547 0
M  V30 7306 H 664.328 2.16805 -5.39895 0
M  V30 7307 H 663.208 1.97703 -7.5887 0
M  V30 7308 N 660.711 1.11618 1.11262 0
M  V30 7309 C 661.641 0.79846 2.19424 0
M  V30 7310 C 662.622 -0.234003 1.68483 0
M  V30 7311 O 663.807 -0.0970704 1.93957 0
M  V30 7312 C 660.937 0.242892 3.4645 0
M  V30 7313 C 659.891 1.20744 4.10615 0
M  V30 7314 C 659.217 0.512494 5.32238 0
M  V30 7315 C 660.517 2.55884 4.55325 0
M  V30 7316 H 662.211 1.70286 2.46258 0
M  V30 7317 H 659.757 0.820195 1.18359 0
M  V30 7318 H 661.71 0.00840447 4.21399 0
M  V30 7319 H 660.434 -0.696811 3.1908 0
M  V30 7320 H 659.093 1.42759 3.37662 0
M  V30 7321 H 658.741 -0.432075 5.01141 0
M  V30 7322 H 658.441 1.15583 5.7612 0
M  V30 7323 H 659.965 0.286842 6.09926 0
M  V30 7324 H 661.379 2.37946 5.21588 0
M  V30 7325 H 659.776 3.16216 5.10027 0
M  V30 7326 H 660.846 3.14968 3.68678 0
M  V30 7327 N 662.189 -1.289 0.906776 0
M  V30 7328 C 663.119 -2.29932 0.406659 0
M  V30 7329 C 664.1 -1.6189 -0.522061 0
M  V30 7330 O 665.285 -1.8935 -0.431283 0
M  V30 7331 C 662.415 -3.45425 -0.360366 0
M  V30 7332 C 661.369 -4.25316 0.478574 0
M  V30 7333 C 660.695 -5.33076 -0.416373 0
M  V30 7334 C 661.995 -4.92739 1.7322 0
M  V30 7335 H 663.689 -2.72013 1.25097 0
M  V30 7336 H 661.235 -1.30768 0.602977 0
M  V30 7337 H 663.188 -4.15186 -0.721029 0
M  V30 7338 H 661.912 -3.02206 -1.23852 0
M  V30 7339 H 660.571 -3.57273 0.821662 0
M  V30 7340 H 660.219 -4.86101 -1.29287 0
M  V30 7341 H 659.919 -5.8743 0.141309 0
M  V30 7342 H 661.443 -6.05686 -0.773072 0
M  V30 7343 H 662.857 -5.54898 1.44086 0
M  V30 7344 H 661.254 -5.57057 2.23175 0
M  V30 7345 H 662.324 -4.17625 2.46408 0
M  V30 7346 N 663.667 -0.670007 -1.42649 0
M  V30 7347 C 664.892 -0.196955 -2.06463 0
M  V30 7348 C 665.317 1.1352 -1.49983 0
M  V30 7349 O 664.675 1.705 -0.616397 0
M  V30 7350 C 664.723 -0.137381 -3.60338 0
M  V30 7351 O 663.827 0.895523 -4.02559 0
M  V30 7352 H 663.168 -0.102579 -0.656029 0
M  V30 7353 H 665.698 -0.917669 -1.82866 0
M  V30 7354 H 665.708 0.0403625 -4.0798 0
M  V30 7355 H 664.383 -1.10977 -4.0082 0
M  V30 7356 H 662.96 0.689209 -3.66476 0
M  V30 7357 N 665.145 1.52092 -0.413018 0
M  V30 7358 C 666.108 2.25706 0.398687 0
M  V30 7359 C 667.108 1.28221 0.970368 0
M  V30 7360 O 668.298 1.52131 0.848635 0
M  V30 7361 C 665.43 3.03029 1.5616 0
M  V30 7362 H 666.623 2.98888 -0.246131 0
M  V30 7363 H 664.176 1.5542 -0.165622 0
M  V30 7364 H 664.911 2.34205 2.24317 0
M  V30 7365 H 664.696 3.74606 1.15812 0
M  V30 7366 H 666.186 3.58857 2.13569 0
M  V30 7367 N 666.623 0.143563 1.56945 0
M  V30 7368 C 667.851 -0.515447 2.00377 0
M  V30 7369 C 668.266 -1.58643 1.02361 0
M  V30 7370 O 667.623 -1.82489 0.0201039 0
M  V30 7371 C 667.674 -1.11923 3.43737 0
M  V30 7372 O 667.395 -0.0910318 4.38005 0
M  V30 7373 C 668.896 -1.85918 4.02429 0
M  V30 7374 H 666.116 -0.134478 0.657386 0
M  V30 7375 H 668.66 0.237135 2.0312 0
M  V30 7376 H 666.815 -1.82245 3.41856 0
M  V30 7377 H 667.229 -0.532916 5.21786 0
M  V30 7378 H 668.703 -2.2346 5.04747 0
M  V30 7379 H 669.18 -2.7438 3.42947 0
M  V30 7380 H 669.786 -1.20303 4.07931 0
M  V30 7381 N 668.101 -1.57061 -0.130224 0
M  V30 7382 C 669.011 -2.02802 -1.17934 0
M  V30 7383 C 670.027 -0.946378 -1.46013 0
M  V30 7384 O 671.203 -1.25708 -1.57351 0
M  V30 7385 C 668.268 -2.41368 -2.48882 0
M  V30 7386 C 667.329 -3.63561 -2.28301 0
M  V30 7387 C 666.562 -4.00279 -3.53005 0
M  V30 7388 O 666.785 -3.37463 -4.59864 0
M  V30 7389 O 665.719 -4.93441 -3.44673 0
M  V30 7390 H 669.545 -2.92394 -0.820958 0
M  V30 7391 H 667.13 -1.45475 -0.340197 0
M  V30 7392 H 669.012 -2.66958 -3.26054 0
M  V30 7393 H 667.687 -1.54926 -2.84217 0
M  V30 7394 H 666.594 -3.43136 -1.49025 0
M  V30 7395 H 667.927 -4.50673 -1.97875 0
M  V30 7396 N 669.579 0.400081 -1.52437 0
M  V30 7397 C 670.511 1.50729 -1.72666 0
M  V30 7398 C 671.524 1.51058 -0.607075 0
M  V30 7399 O 672.713 1.5516 -0.88248 0
M  V30 7400 C 669.813 2.89604 -1.76019 0
M  V30 7401 C 668.986 3.13365 -3.05157 0
M  V30 7402 C 668.045 4.32163 -3.00203 0
M  V30 7403 O 667.071 4.29004 -3.74092 0
M  V30 7404 N 668.273 5.3776 -2.18619 0
M  V30 7405 H 671.038 1.33767 -2.68191 0
M  V30 7406 H 668.599 0.58948 -1.50787 0
M  V30 7407 H 670.591 3.67159 -1.70225 0
M  V30 7408 H 669.161 2.99979 -0.879284 0
M  V30 7409 H 668.381 2.23774 -3.24529 0
M  V30 7410 H 669.669 3.26089 -3.90568 0
M  V30 7411 H 669.067 5.43177 -1.58035 0
M  V30 7412 H 667.624 6.14023 -2.18674 0
M  V30 7413 N 671.057 1.43213 0.657864 0
M  V30 7414 C 672.004 1.48011 1.77092 0
M  V30 7415 C 672.974 0.330291 1.62783 0
M  V30 7416 O 674.159 0.536787 1.83094 0
M  V30 7417 C 671.299 1.40461 3.15222 0
M  V30 7418 C 670.412 2.65612 3.40697 0
M  V30 7419 C 669.547 2.50083 4.68649 0
M  V30 7420 C 668.586 3.70525 4.87214 0
M  V30 7421 N 667.723 3.53835 6.0642 0
M  V30 7422 H 672.563 2.43121 1.72326 0
M  V30 7423 H 670.1 1.20687 0.841013 0
M  V30 7424 H 672.058 1.34079 3.95068 0
M  V30 7425 H 670.688 0.489359 3.19069 0
M  V30 7426 H 669.74 2.82292 2.54982 0
M  V30 7427 H 671.052 3.5509 3.50303 0
M  V30 7428 H 670.206 2.41383 5.56614 0
M  V30 7429 H 668.945 1.58121 4.61356 0
M  V30 7430 H 667.95 3.79639 3.97686 0
M  V30 7431 H 669.175 4.63489 4.96341 0
M  V30 7432 H 667.121 2.64604 6.00267 0
M  V30 7433 H 667.038 4.36912 6.16963 0
M  V30 7434 H 668.306 3.48978 6.97019 0
M  V30 7435 N 672.536 -0.895792 1.29666 0
M  V30 7436 C 673.468 -2.00563 1.10937 0
M  V30 7437 C 674.481 -1.62705 0.055734 0
M  V30 7438 O 675.67 -1.7595 0.300656 0
M  V30 7439 C 672.77 -3.32262 0.667448 0
M  V30 7440 C 671.943 -3.98625 1.80047 0
M  V30 7441 C 671.002 -5.08617 1.3489 0
M  V30 7442 O 670.028 -5.30837 2.05429 0
M  V30 7443 N 671.23 -5.80076 0.221937 0
M  V30 7444 H 673.995 -2.17184 2.06522 0
M  V30 7445 H 671.556 -1.06822 1.21658 0
M  V30 7446 H 673.548 -4.03196 0.348586 0
M  V30 7447 H 672.118 -3.11985 -0.196055 0
M  V30 7448 H 671.338 -3.21005 2.28801 0
M  V30 7449 H 672.626 -4.39704 2.56003 0
M  V30 7450 H 672.024 -5.64514 -0.366084 0
M  V30 7451 H 670.581 -6.51789 -0.0375346 0
M  V30 7452 N 674.014 -1.12206 -1.10668 0
M  V30 7453 C 675.26 -0.887096 -1.83036 0
M  V30 7454 C 675.615 0.580887 -1.83422 0
M  V30 7455 O 674.908 1.42379 -1.28213 0
M  V30 7456 C 675.102 -1.39276 -3.29146 0
M  V30 7457 C 674.931 -2.90837 -3.42992 0
M  V30 7458 C 673.701 -3.59047 -3.55546 0
M  V30 7459 C 675.899 -3.8885 -3.36601 0
M  V30 7460 N 673.881 -4.98747 -3.57945 0
M  V30 7461 C 675.252 -5.14666 -3.45716 0
M  V30 7462 C 677.307 -3.81296 -3.20184 0
M  V30 7463 C 676.01 -6.33814 -3.40106 0
M  V30 7464 C 678.036 -4.99965 -3.15895 0
M  V30 7465 C 677.398 -6.24637 -3.25589 0
M  V30 7466 H 673.497 -0.377857 -0.684652 0
M  V30 7467 H 676.081 -1.42791 -1.32358 0
M  V30 7468 H 674.252 -0.879026 -3.78322 0
M  V30 7469 H 675.984 -1.10011 -3.89461 0
M  V30 7470 H 672.739 -3.09533 -3.5845 0
M  V30 7471 H 673.163 -5.71606 -3.62762 0
M  V30 7472 H 677.805 -2.85806 -3.11569 0
M  V30 7473 H 675.523 -7.29574 -3.47487 0
M  V30 7474 H 679.109 -4.95847 -3.04347 0
M  V30 7475 H 677.989 -7.14921 -3.22269 0
M  V30 7476 N 675.492 1.28418 -0.913599 0
M  V30 7477 C 676.74 1.94596 -0.545594 0
M  V30 7478 C 677.061 1.7227 0.913668 0
M  V30 7479 O 676.331 1.06233 1.64595 0
M  V30 7480 H 674.911 0.720065 -0.198783 0
M  V30 7481 H 677.573 1.56404 -1.16292 0
M  V30 7482 H 676.669 3.03202 -0.739911 0
M  V30 7483 N 676.97 0.677563 1.42291 0
M  V30 7484 C 678.216 0.201272 2.01799 0
M  V30 7485 C 678.549 -1.19004 1.53465 0
M  V30 7486 O 677.824 -1.79953 0.738039 0
M  V30 7487 C 678.107 0.238968 3.59306 0
M  V30 7488 C 677.96 1.66594 4.17812 0
M  V30 7489 C 679.279 -0.411287 4.38174 0
M  V30 7490 H 676.398 0.0746114 0.733214 0
M  V30 7491 H 679.04 0.862872 1.69276 0
M  V30 7492 H 677.19 -0.324368 3.87144 0
M  V30 7493 H 678.862 2.28173 4.00917 0
M  V30 7494 H 677.105 2.20576 3.73536 0
M  V30 7495 H 677.776 1.64398 5.26951 0
M  V30 7496 H 680.252 0.0682804 4.16044 0
M  V30 7497 H 679.128 -0.354286 5.47755 0
M  V30 7498 H 679.389 -1.4893 4.1626 0
M  V30 7499 N 678.448 -1.51871 0.421078 0
M  V30 7500 C 679.38 -2.25052 -0.434065 0
M  V30 7501 C 680.393 -1.28458 -1.00013 0
M  V30 7502 O 681.582 -1.54323 -0.897033 0
M  V30 7503 C 678.682 -2.97813 -1.61743 0
M  V30 7504 C 677.855 -4.21374 -1.17315 0
M  V30 7505 C 676.914 -4.76854 -2.22478 0
M  V30 7506 O 675.94 -5.39123 -1.82577 0
M  V30 7507 N 677.142 -4.59467 -3.54782 0
M  V30 7508 H 679.907 -2.99077 0.193073 0
M  V30 7509 H 677.468 -1.59972 0.249088 0
M  V30 7510 H 679.46 -3.3182 -2.31685 0
M  V30 7511 H 678.03 -2.26899 -2.15024 0
M  V30 7512 H 677.25 -3.93046 -0.3014 0
M  V30 7513 H 678.538 -5.01591 -0.853444 0
M  V30 7514 H 677.936 -4.09832 -3.89941 0
M  V30 7515 H 676.493 -4.9788 -4.20665 0
M  V30 7516 N 679.926 -0.151884 -1.56866 0
M  V30 7517 C 680.856 0.781943 -2.20018 0
M  V30 7518 C 681.837 1.25347 -1.14987 0
M  V30 7519 O 683.022 1.31015 -1.43348 0
M  V30 7520 C 680.152 2.01928 -2.82564 0
M  V30 7521 C 679.106 1.68434 -3.93464 0
M  V30 7522 C 678.432 2.99472 -4.42968 0
M  V30 7523 C 679.732 0.927244 -5.14003 0
M  V30 7524 H 681.426 0.255607 -2.98307 0
M  V30 7525 H 678.972 0.121502 -1.43486 0
M  V30 7526 H 680.925 2.67741 -3.25411 0
M  V30 7527 H 679.649 2.56943 -2.01614 0
M  V30 7528 H 678.308 1.04998 -3.51242 0
M  V30 7529 H 677.956 3.52488 -3.58834 0
M  V30 7530 H 677.656 2.77823 -5.17772 0
M  V30 7531 H 679.18 3.66348 -4.88489 0
M  V30 7532 H 680.594 1.48756 -5.53665 0
M  V30 7533 H 678.991 0.810513 -5.94601 0
M  V30 7534 H 680.061 -0.0801163 -4.84834 0
M  V30 7535 N 681.404 1.57128 0.121893 0
M  V30 7536 C 682.652 1.84335 0.828548 0
M  V30 7537 C 682.973 0.736632 1.80551 0
M  V30 7538 O 682.243 -0.23962 1.94429 0
M  V30 7539 H 680.823 0.680108 0.30897 0
M  V30 7540 H 683.485 1.9459 0.109906 0
M  V30 7541 H 682.581 2.80152 1.37554 0
M  V30 7542 N 682.882 -0.391992 1.52647 0
M  V30 7543 C 684.128 -1.139 1.67793 0
M  V30 7544 C 684.461 -1.89711 0.41514 0
M  V30 7545 O 683.736 -1.85431 -0.586979 0
M  V30 7546 C 684.019 -2.11966 2.91105 0
M  V30 7547 C 683.872 -1.39939 4.27478 0
M  V30 7548 C 685.191 -3.1243 3.09961 0
M  V30 7549 H 682.31 -0.412707 0.610608 0
M  V30 7550 H 684.952 -0.422725 1.85238 0
M  V30 7551 H 683.102 -2.73048 2.76364 0
M  V30 7552 H 684.774 -0.818439 4.53982 0
M  V30 7553 H 683.017 -0.701246 4.28095 0
M  V30 7554 H 683.688 -2.1158 5.09841 0
M  V30 7555 H 686.164 -2.61435 3.23714 0
M  V30 7556 H 685.04 -3.78294 3.97725 0
M  V30 7557 H 685.301 -3.81127 2.24042 0
M  V30 7558 N 684.36 -1.4356 -0.65026 0
M  V30 7559 C 685.637 -1.35811 -1.40765 0
M  V30 7560 C 686.017 -0.00736379 -2.11099 0
M  V30 7561 O 685.365 1.00932 -2.05 0
M  V30 7562 C 685.575 -2.54332 -2.3899 0
M  V30 7563 C 686.923 -2.97551 -3.02901 0
M  V30 7564 O 687.947 -2.544 -2.49317 0
M  V30 7565 O 686.806 -3.72311 -4.00059 0
M  V30 7566 H 683.9 -0.536861 -0.629054 0
M  V30 7567 H 686.446 -1.55615 -0.676919 0
M  V30 7568 H 685.218 -3.44274 -1.85986 0
M  V30 7569 H 684.841 -2.36643 -3.19509 0
M  V30 7570 N 685.838 0.888903 -1.30139 0
M  V30 7571 C 687.068 1.67115 -1.21474 0
M  V30 7572 C 687.476 1.87852 0.225472 0
M  V30 7573 O 686.819 1.42324 1.16145 0
M  V30 7574 C 686.881 3.0713 -1.86846 0
M  V30 7575 C 686.545 3.09582 -3.36167 0
M  V30 7576 C 687.542 2.88929 -4.32222 0
M  V30 7577 C 685.227 3.31304 -3.77549 0
M  V30 7578 C 687.221 2.89949 -5.67634 0
M  V30 7579 C 684.908 3.31954 -5.13079 0
M  V30 7580 C 685.906 3.113 -6.07932 0
M  V30 7581 O 685.594 3.11758 -7.40987 0
M  V30 7582 H 685.326 0.528372 -0.421662 0
M  V30 7583 H 687.88 1.11919 -1.7223 0
M  V30 7584 H 686.11 3.63973 -1.30615 0
M  V30 7585 H 687.799 3.6749 -1.72354 0
M  V30 7586 H 688.565 2.71948 -4.01584 0
M  V30 7587 H 684.444 3.46417 -3.04165 0
M  V30 7588 H 687.988 2.73746 -6.41645 0
M  V30 7589 H 683.885 3.48469 -5.43359 0
M  V30 7590 H 684.653 3.27951 -7.49927 0
M  V30 7591 N 687.317 1.12792 1.10072 0
M  V30 7592 C 688.728 0.899346 1.63611 0
M  V30 7593 C 689.079 -0.565547 1.87872 0
M  V30 7594 O 688.204 -1.43081 1.62348 0
M  V30 7595 C 688.799 1.62608 2.97227 0
M  V30 7596 C 687.358 1.44356 3.47618 0
M  V30 7597 C 686.505 1.65958 2.22156 0
M  V30 7598 H 689.456 1.28216 0.935223 0
M  V30 7599 H 689.477 1.0793 3.64872 0
M  V30 7600 H 688.989 2.69221 2.79538 0
M  V30 7601 H 687.09 0.400148 3.70445 0
M  V30 7602 H 687.203 2.20218 4.25489 0
M  V30 7603 H 685.567 1.08395 2.30484 0
M  V30 7604 H 686.35 2.73877 2.06993 0
M  V30 7605 N 688.795 -1.27931 0.920396 0
M  V30 7606 C 690.211 -1.47085 0.619537 0
M  V30 7607 C 690.411 -1.83463 -0.833291 0
M  V30 7608 O 689.467 -1.94363 -1.61181 0
M  V30 7609 C 690.78 -2.56878 1.56314 0
M  V30 7610 C 692.328 -2.70743 1.57058 0
M  V30 7611 C 692.803 -3.83687 2.50097 0
M  V30 7612 N 694.294 -3.9105 2.48262 0
M  V30 7613 C 695.029 -4.77842 3.16945 0
M  V30 7614 N 694.525 -5.69176 3.94982 0
M  V30 7615 N 696.318 -4.71509 3.06 0
M  V30 7616 H 688.469 -1.02601 1.85975 0
M  V30 7617 H 690.732 -0.511682 0.798051 0
M  V30 7618 H 690.438 -2.36923 2.59923 0
M  V30 7619 H 690.312 -3.54117 1.29928 0
M  V30 7620 H 692.699 -2.90083 0.541832 0
M  V30 7621 H 692.78 -1.74015 1.8749 0
M  V30 7622 H 692.424 -3.65101 3.53077 0
M  V30 7623 H 692.354 -4.79827 2.16964 0
M  V30 7624 H 694.845 -3.25738 1.91581 0
M  V30 7625 H 695.158 -6.32245 4.44394 0
M  V30 7626 H 693.503 -5.68995 3.99086 0
M  V30 7627 H 696.694 -3.99151 2.44533 0
M  V30 7628 H 696.867 -5.38933 3.59799 0
M  V30 7629 N 690.273 -0.685099 -1.4193 0
M  V30 7630 C 691.684 -0.287699 -1.8447 0
M  V30 7631 C 692.035 1.17215 -1.57338 0
M  V30 7632 O 691.16 1.89856 -1.03845 0
M  V30 7633 C 691.755 -0.515385 -3.34857 0
M  V30 7634 C 690.314 -0.172006 -3.76007 0
M  V30 7635 C 689.461 -0.802808 -2.65425 0
M  V30 7636 H 692.412 -0.88652 -1.3163 0
M  V30 7637 H 692.433 0.229251 -3.79809 0
M  V30 7638 H 691.945 -1.57796 -3.54573 0
M  V30 7639 H 690.046 0.886716 -3.61895 0
M  V30 7640 H 690.159 -0.619717 -4.75075 0
M  V30 7641 H 688.523 -0.233267 -2.5363 0
M  V30 7642 H 689.306 -1.86904 -2.87961 0
M  V30 7643 N 691.751 1.51645 -0.429126 0
M  V30 7644 C 692.991 2.03924 0.139354 0
M  V30 7645 C 693.355 1.30673 1.40672 0
M  V30 7646 O 694.556 1.73282 2.05491 0
M  V30 7647 C 692.827 3.5557 0.361179 0
M  V30 7648 S 694.386 4.29591 0.894241 0
M  V30 7649 H 691.204 0.710103 0.0356986 0
M  V30 7650 H 693.806 1.86491 -0.586644 0
M  V30 7651 H 692.51 4.06455 -0.567686 0
M  V30 7652 H 692.041 3.77283 1.11449 0
M  V30 7653 H 694.056 4.46102 2.17272 0
M  V30 7654 N 693.229 0.160201 1.56784 0
M  V30 7655 C 694.475 -0.48831 1.96833 0
M  V30 7656 C 694.808 -1.63641 1.04571 0
M  V30 7657 O 694.083 -1.94289 0.0906481 0
M  V30 7658 C 694.366 -0.981908 3.46454 0
M  V30 7659 C 694.219 0.165607 4.49495 0
M  V30 7660 C 695.538 -1.85931 3.98896 0
M  V30 7661 H 692.657 -0.176027 0.71567 0
M  V30 7662 H 695.299 0.244093 1.88426 0
M  V30 7663 H 693.449 -1.60602 3.5375 0
M  V30 7664 H 695.121 0.802372 4.54268 0
M  V30 7665 H 693.364 0.822789 4.25926 0
M  V30 7666 H 694.035 -0.221699 5.51555 0
M  V30 7667 H 696.511 -1.33327 3.94161 0
M  V30 7668 H 695.387 -2.17373 5.04024 0
M  V30 7669 H 695.648 -2.80106 3.42042 0
M  V30 7670 N 694.707 -1.5719 -0.113559 0
M  V30 7671 C 695.655 -2.01725 -1.158 0
M  V30 7672 C 696.649 -0.915105 -1.42556 0
M  V30 7673 O 697.855 -1.10031 -1.42454 0
M  V30 7674 H 694.23 -0.64262 -0.390569 0
M  V30 7675 H 696.201 -2.88666 -0.755926 0
M  V30 7676 C 694.95 -2.44203 -2.47507 0
M  V30 7677 H 694.273 -3.28582 -2.27758 0
M  V30 7678 H 695.713 -2.79158 -3.19135 0
M  V30 7679 C 694.172 -1.30785 -3.10478 0
M  V30 7680 O 694.702 -0.626807 -3.9678 0
M  V30 7681 N 692.908 -1.06352 -2.7044 0
M  V30 7682 H 692.455 -1.61913 -2.00355 0
M  V30 7683 H 692.413 -0.306614 -3.12901 0
M  V30 7684 N 696.185 0.383891 -1.52853 0
M  V30 7685 C 697.432 1.12842 -1.68146 0
M  V30 7686 C 697.76 1.89823 -0.423954 0
M  V30 7687 O 697.015 1.86475 0.593765 0
M  V30 7688 C 697.314 2.12881 -2.87082 0
M  V30 7689 C 696.98 1.52519 -4.24322 0
M  V30 7690 C 695.642 1.35783 -4.61645 0
M  V30 7691 C 697.994 1.0868 -5.09743 0
M  V30 7692 C 695.322 0.737643 -5.82044 0
M  V30 7693 C 697.674 0.480699 -6.30771 0
M  V30 7694 C 696.338 0.300681 -6.66822 0
M  V30 7695 H 695.608 0.412917 -0.615289 0
M  V30 7696 H 698.255 0.412416 -1.87006 0
M  V30 7697 H 696.56 2.90719 -2.62659 0
M  V30 7698 H 698.257 2.70408 -2.96109 0
M  V30 7699 H 694.847 1.66534 -3.94923 0
M  V30 7700 H 699.031 1.2041 -4.81472 0
M  V30 7701 H 694.287 0.586415 -6.08581 0
M  V30 7702 H 698.461 0.132733 -6.96273 0
M  V30 7703 H 696.088 -0.181966 -7.59982 0
M  V30 7704 N 697.663 1.43903 0.642637 0
M  V30 7705 C 698.613 1.46321 1.74854 0
M  V30 7706 C 699.597 0.330361 1.57472 0
M  V30 7707 O 700.789 0.574881 1.67404 0
M  V30 7708 C 697.918 1.39919 3.13493 0
M  V30 7709 C 697.004 2.58274 3.36385 0
M  V30 7710 N 697.395 3.83578 3.29699 0
M  V30 7711 C 695.693 2.53224 3.67142 0
M  V30 7712 C 696.394 4.62375 3.52965 0
M  V30 7713 N 695.37 3.93269 3.75287 0
M  V30 7714 H 699.172 2.41062 1.68126 0
M  V30 7715 H 696.686 1.38704 0.844693 0
M  V30 7716 H 698.683 1.39735 3.92785 0
M  V30 7717 H 697.343 0.46207 3.21395 0
M  V30 7718 H 698.354 4.15713 3.08874 0
M  V30 7719 H 695.031 1.68252 3.82096 0
M  V30 7720 H 696.421 5.714 3.53485 0
M  V30 7721 N 699.141 -0.881989 1.30609 0
M  V30 7722 C 700.073 -1.99375 1.13058 0
M  V30 7723 C 701.086 -1.62636 0.0729879 0
M  V30 7724 O 702.275 -1.75621 0.319301 0
M  V30 7725 C 699.375 -3.31536 0.702651 0
M  V30 7726 C 698.548 -3.96693 1.84265 0
M  V30 7727 C 697.607 -5.07158 1.40277 0
M  V30 7728 O 696.633 -5.28628 2.11048 0
M  V30 7729 N 697.835 -5.79808 0.283449 0
M  V30 7730 H 700.6 -2.14981 2.08814 0
M  V30 7731 H 698.161 -1.05526 1.22784 0
M  V30 7732 H 700.153 -4.02804 0.391331 0
M  V30 7733 H 698.723 -3.12175 -0.162954 0
M  V30 7734 H 697.943 -3.1856 2.32192 0
M  V30 7735 H 699.231 -4.36964 2.60653 0
M  V30 7736 H 698.629 -5.64871 -0.306189 0
M  V30 7737 H 697.186 -6.51792 0.0315985 0
M  V30 7738 N 700.619 -1.13374 -1.09472 0
M  V30 7739 C 701.844 -0.918711 -1.85942 0
M  V30 7740 C 702.269 0.527225 -1.8056 0
M  V30 7741 O 701.627 1.37408 -1.18274 0
M  V30 7742 C 701.675 -1.41056 -3.31867 0
M  V30 7743 O 700.779 -0.595496 -4.08078 0
M  V30 7744 H 700.12 -0.329297 -0.576593 0
M  V30 7745 H 702.65 -1.50829 -1.38245 0
M  V30 7746 H 702.66 -1.41398 -3.82715 0
M  V30 7747 H 701.335 -2.46335 -3.35099 0
M  V30 7748 H 699.912 -0.659911 -3.67014 0
M  V30 7749 N 702.098 1.27442 -0.927168 0
M  V30 7750 C 703.344 1.94679 -0.568164 0
M  V30 7751 C 703.677 1.72697 0.888219 0
M  V30 7752 O 702.952 1.05573 1.63354 0
M  V30 7753 C 703.235 3.4882 -0.894253 0
M  V30 7754 C 703.088 3.80146 -2.40435 0
M  V30 7755 C 704.407 4.38281 -0.399766 0
M  V30 7756 H 701.526 0.707071 -0.207892 0
M  V30 7757 H 704.168 1.50568 -1.15885 0
M  V30 7758 H 702.318 3.86522 -0.391566 0
M  V30 7759 H 703.99 3.52238 -2.97869 0
M  V30 7760 H 702.233 3.26716 -2.85375 0
M  V30 7761 H 702.904 4.87835 -2.58304 0
M  V30 7762 H 705.38 4.07726 -0.83058 0
M  V30 7763 H 704.256 5.44955 -0.656885 0
M  V30 7764 H 704.517 4.36521 0.700153 0
M  V30 7765 N 703.576 0.692616 1.41565 0
M  V30 7766 C 704.486 0.0258451 2.34586 0
M  V30 7767 C 705.502 -0.769324 1.56069 0
M  V30 7768 O 706.678 -0.707563 1.88562 0
M  V30 7769 C 703.743 -0.901289 3.3478 0
M  V30 7770 C 702.804 -0.0986579 4.29187 0
M  V30 7771 C 702.037 -0.981634 5.24595 0
M  V30 7772 O 702.26 -2.22115 5.25377 0
M  V30 7773 O 701.194 -0.432892 6.00341 0
M  V30 7774 H 705.02 0.792537 2.93177 0
M  V30 7775 H 702.605 0.452935 1.42369 0
M  V30 7776 H 704.487 -1.43302 3.96286 0
M  V30 7777 H 703.162 -1.64752 2.78637 0
M  V30 7778 H 702.069 0.477604 3.71039 0
M  V30 7779 H 703.402 0.608848 4.8842 0
M  V30 7780 N 705.054 -1.51416 0.437162 0
M  V30 7781 C 706.017 -2.26312 -0.362729 0
M  V30 7782 C 707.017 -1.29748 -0.949847 0
M  V30 7783 O 708.207 -1.53462 -0.824325 0
M  V30 7784 C 705.339 -3.05475 -1.5132 0
M  V30 7785 H 706.532 -2.98459 0.29365 0
M  V30 7786 H 704.085 -1.55137 0.190327 0
M  V30 7787 H 704.82 -2.37744 -2.20563 0
M  V30 7788 H 704.605 -3.76401 -1.09838 0
M  V30 7789 H 706.095 -3.62209 -2.07833 0
M  V30 7790 N 706.532 -0.168513 -1.56696 0
M  V30 7791 C 707.948 0.187686 -1.58493 0
M  V30 7792 C 708.148 1.63063 -1.18375 0
M  V30 7793 O 707.204 2.36142 -0.894042 0
M  V30 7794 C 708.517 -0.0905858 -3.00564 0
M  V30 7795 C 710.065 -0.028575 -3.12987 0
M  V30 7796 C 710.54 -0.279799 -4.57145 0
M  V30 7797 N 712.031 -0.227476 -4.62641 0
M  V30 7798 C 712.766 -0.396073 -5.7203 0
M  V30 7799 N 712.262 -0.623572 -6.89988 0
M  V30 7800 N 714.055 -0.332173 -5.61118 0
M  V30 7801 H 706.206 -1.11042 -1.81062 0
M  V30 7802 H 708.469 -0.441235 -0.839056 0
M  V30 7803 H 708.175 -1.09006 -3.34381 0
M  V30 7804 H 708.049 0.619078 -3.72085 0
M  V30 7805 H 710.436 0.961471 -2.78998 0
M  V30 7806 H 710.517 -0.770905 -2.43907 0
M  V30 7807 H 710.161 -1.26704 -4.91842 0
M  V30 7808 H 710.091 0.48311 -5.24379 0
M  V30 7809 H 712.582 -0.0571723 -3.77857 0
M  V30 7810 H 712.895 -0.741745 -7.69232 0
M  V30 7811 H 711.24 -0.660153 -6.91858 0
M  V30 7812 H 714.431 -0.155051 -4.67843 0
M  V30 7813 H 714.604 -0.466994 -6.46315 0
M  V30 7814 N 708.01 1.57248 0.105221 0
M  V30 7815 C 709.426 1.52853 0.459153 0
M  V30 7816 C 709.626 0.883674 1.8109 0
M  V30 7817 O 708.682 0.471864 2.48052 0
M  V30 7818 C 709.995 2.97596 0.43096 0
M  V30 7819 C 711.543 3.08758 0.513536 0
M  V30 7820 C 712.018 4.55089 0.515593 0
M  V30 7821 N 713.509 4.59597 0.576639 0
M  V30 7822 C 714.244 5.70253 0.599904 0
M  V30 7823 N 713.74 6.90368 0.579985 0
M  V30 7824 N 715.533 5.58399 0.643953 0
M  V30 7825 H 707.684 1.97547 -0.780306 0
M  V30 7826 H 709.947 0.902758 -0.289363 0
M  V30 7827 H 709.653 3.48201 -0.494903 0
M  V30 7828 H 709.527 3.55756 1.2537 0
M  V30 7829 H 711.914 2.58148 1.42982 0
M  V30 7830 H 711.995 2.53568 -0.337148 0
M  V30 7831 H 711.639 5.06348 -0.396701 0
M  V30 7832 H 711.569 5.08105 1.38335 0
M  V30 7833 H 714.06 3.73144 0.597639 0
M  V30 7834 H 714.373 7.70462 0.600741 0
M  V30 7835 H 712.718 6.92843 0.547191 0
M  V30 7836 H 715.909 4.63467 0.656975 0
M  V30 7837 H 716.082 6.44644 0.658616 0
M  V30 7838 N 709.488 -0.375779 1.53054 0
M  V30 7839 C 710.435 -1.45978 1.78771 0
M  V30 7840 C 711.405 -1.53625 0.631552 0
M  V30 7841 O 712.59 -1.69674 0.872667 0
M  V30 7842 C 709.73 -2.8305 1.97425 0
M  V30 7843 C 708.843 -2.84451 3.25134 0
M  V30 7844 C 707.978 -4.13034 3.34031 0
M  V30 7845 C 707.017 -4.08536 4.55812 0
M  V30 7846 N 706.154 -5.2875 4.61918 0
M  V30 7847 H 710.994 -1.23349 2.71273 0
M  V30 7848 H 708.531 -0.598147 1.3439 0
M  V30 7849 H 710.489 -3.62666 2.06225 0
M  V30 7850 H 709.119 -3.04101 1.0827 0
M  V30 7851 H 708.171 -1.97127 3.25338 0
M  V30 7852 H 709.483 -2.76998 4.14818 0
M  V30 7853 H 708.637 -5.0106 3.42087 0
M  V30 7854 H 707.376 -4.23226 2.42345 0
M  V30 7855 H 706.381 -3.18897 4.47867 0
M  V30 7856 H 707.606 -3.99955 5.48828 0
M  V30 7857 H 705.552 -5.39547 3.73129 0
M  V30 7858 H 705.469 -5.23426 5.45492 0
M  V30 7859 H 706.737 -6.18637 4.74245 0
M  V30 7860 N 710.966 -1.44241 -0.634997 0
M  V30 7861 C 712.215 -1.46102 -1.39058 0
M  V30 7862 C 712.528 -0.0959909 -1.95364 0
M  V30 7863 O 713.734 0.00788751 -2.71499 0
M  V30 7864 C 712.19 -2.57195 -2.51751 0
M  V30 7865 C 711.798 -3.99888 -2.01974 0
M  V30 7866 C 713.542 -2.68272 -3.28984 0
M  V30 7867 C 711.449 -5.02412 -3.11987 0
M  V30 7868 H 710.379 -0.543556 -0.522554 0
M  V30 7869 H 713.03 -1.70294 -0.683538 0
M  V30 7870 H 711.412 -2.26237 -3.25012 0
M  V30 7871 H 712.586 -4.40396 -1.35604 0
M  V30 7872 H 710.901 -3.93019 -1.37568 0
M  V30 7873 H 713.498 -3.42042 -4.10988 0
M  V30 7874 H 713.841 -1.73957 -3.78212 0
M  V30 7875 H 714.374 -2.98622 -2.62812 0
M  V30 7876 H 711.113 -5.98342 -2.67707 0
M  V30 7877 H 710.633 -4.66501 -3.77011 0
M  V30 7878 H 712.312 -5.25939 -3.76825 0
M  V30 7879 N 712.444 0.87505 -1.31075 0
M  V30 7880 C 713.354 2.01441 -1.20244 0
M  V30 7881 C 714.37 1.73584 -0.120227 0
M  V30 7882 O 715.546 1.98559 -0.337063 0
M  V30 7883 C 712.611 3.34675 -0.905199 0
M  V30 7884 C 711.672 3.75889 -2.0738 0
M  V30 7885 C 710.905 5.02764 -1.79064 0
M  V30 7886 O 711.128 5.65795 -0.723318 0
M  V30 7887 O 710.062 5.40623 -2.64594 0
M  V30 7888 H 713.888 2.13509 -2.1598 0
M  V30 7889 H 711.473 1.00257 -1.10765 0
M  V30 7890 H 713.355 4.1458 -0.755057 0
M  V30 7891 H 712.03 3.23692 0.0221695 0
M  V30 7892 H 710.937 2.96645 -2.27931 0
M  V30 7893 H 712.27 3.91489 -2.98324 0
M  V30 7894 N 713.922 1.13953 1.08869 0
M  V30 7895 C 714.854 0.779906 2.15523 0
M  V30 7896 C 715.867 -0.20102 1.61554 0
M  V30 7897 O 717.056 0.0200049 1.78489 0
M  V30 7898 C 714.156 0.136226 3.38626 0
M  V30 7899 C 713.329 1.15069 4.21993 0
M  V30 7900 C 712.388 0.531645 5.23507 0
M  V30 7901 O 711.414 1.19327 5.56552 0
M  V30 7902 N 712.616 -0.693734 5.7634 0
M  V30 7903 H 715.381 1.69769 2.46979 0
M  V30 7904 H 712.942 1.03331 1.24637 0
M  V30 7905 H 714.934 -0.290295 4.03658 0
M  V30 7906 H 713.504 -0.684603 3.05011 0
M  V30 7907 H 712.724 1.75431 3.53012 0
M  V30 7908 H 714.012 1.83614 4.74514 0
M  V30 7909 H 713.41 -1.24994 5.51718 0
M  V30 7910 H 711.967 -1.06283 6.43076 0
M  V30 7911 N 715.4 -1.26948 0.933913 0
M  V30 7912 C 716.333 -2.24977 0.382169 0
M  V30 7913 C 717.311 -1.53893 -0.524949 0
M  V30 7914 O 718.495 -1.82699 -0.464048 0
M  V30 7915 C 715.622 -3.35676 -0.451615 0
M  V30 7916 C 714.668 -4.24686 0.392947 0
M  V30 7917 S 715.501 -5.03898 1.81237 0
M  V30 7918 C 716.657 -6.18078 0.986443 0
M  V30 7919 H 716.89 -2.71429 1.21299 0
M  V30 7920 H 714.423 -1.35701 0.736523 0
M  V30 7921 H 716.381 -3.99901 -0.926797 0
M  V30 7922 H 715.042 -2.8785 -1.25703 0
M  V30 7923 H 714.235 -5.03402 -0.245533 0
M  V30 7924 H 713.837 -3.65288 0.802537 0
M  V30 7925 H 716.129 -6.77125 0.225321 0
M  V30 7926 H 717.072 -6.86216 1.74682 0
M  V30 7927 H 717.48 -5.62047 0.525711 0
M  V30 7928 N 716.879 -0.700114 -1.41195 0
M  V30 7929 C 718.127 -0.232546 -2.00758 0
M  V30 7930 C 718.448 1.1734 -1.55745 0
M  V30 7931 O 717.718 1.79262 -0.790058 0
M  V30 7932 H 716.298 -0.0829845 -0.742376 0
M  V30 7933 H 718.96 -0.902289 -1.72756 0
M  V30 7934 H 718.056 -0.253521 -3.11069 0
M  V30 7935 N 718.357 1.51182 -0.445186 0
M  V30 7936 C 719.603 2.02452 0.11882 0
M  V30 7937 C 719.936 1.32824 1.41673 0
M  V30 7938 O 719.211 0.445637 1.89326 0
M  V30 7939 C 719.494 3.5859 0.329475 0
M  V30 7940 C 719.347 4.38823 -0.987638 0
M  V30 7941 C 720.666 4.26241 1.09575 0
M  V30 7942 H 717.785 0.735819 0.0417092 0
M  V30 7943 H 720.427 1.80747 -0.585718 0
M  V30 7944 H 718.577 3.77214 0.9296 0
M  V30 7945 H 720.249 4.3183 -1.62235 0
M  V30 7946 H 718.492 4.03594 -1.59041 0
M  V30 7947 H 719.163 5.46257 -0.794192 0
M  V30 7948 H 721.639 4.11934 0.587328 0
M  V30 7949 H 720.515 5.35354 1.21191 0
M  V30 7950 H 720.776 3.87635 2.12584 0
M  V30 7951 N 719.835 0.176821 1.56605 0
M  V30 7952 C 721.084 -0.466833 1.96223 0
M  V30 7953 C 721.397 -1.64015 1.06576 0
M  V30 7954 O 722.603 -2.3504 1.35898 0
M  V30 7955 C 721.059 -0.881921 3.48927 0
M  V30 7956 C 720.667 0.266102 4.47209 0
M  V30 7957 C 722.411 -1.49368 3.97353 0
M  V30 7958 C 720.318 -0.168923 5.91159 0
M  V30 7959 H 719.248 -0.178178 0.732645 0
M  V30 7960 H 721.899 0.265929 1.81563 0
M  V30 7961 H 720.281 -1.67082 3.59026 0
M  V30 7962 H 721.455 1.04349 4.4883 0
M  V30 7963 H 719.77 0.788178 4.08872 0
M  V30 7964 H 722.367 -1.8313 5.02362 0
M  V30 7965 H 722.71 -2.3936 3.40606 0
M  V30 7966 H 723.243 -0.769114 3.90294 0
M  V30 7967 H 719.982 0.696351 6.51791 0
M  V30 7968 H 719.502 -0.911552 5.92833 0
M  V30 7969 H 721.181 -0.610938 6.44109 0
M  V30 7970 N 721.313 -1.57302 -0.09688 0
M  V30 7971 C 722.276 -2.00976 -1.10188 0
M  V30 7972 C 723.276 -0.903009 -1.3305 0
M  V30 7973 O 724.466 -1.16853 -1.29194 0
M  V30 7974 C 721.598 -2.36893 -2.45142 0
M  V30 7975 H 722.791 -2.9098 -0.726003 0
M  V30 7976 H 720.344 -1.52515 -0.341872 0
M  V30 7977 H 721.079 -1.49837 -2.8761 0
M  V30 7978 H 720.864 -3.17632 -2.29897 0
M  V30 7979 H 722.354 -2.71345 -3.1743 0
M  V30 7980 O 722.83 0.240887 -1.59693 0
M  V30 7981 H 723.521 0.88365 -1.7237 0
M  V30 END ATOM
M  V30 BEGIN BOND
M  V30 END BOND
M  V30 END CTAB
M  END
$$$$
