drugbank_target|P78356 Phosphatidylinositol 5-phosphate 4-kinase type-2 beta (DB12010)
 OpenBabel12092121183D

  0  0  0     0  0            999 V3000
M  V30 BEGIN CTAB
M  V30 COUNTS 6624 6695 0 0 0
M  V30 BEGIN ATOM
M  V30 1 H -0.908 1.98254 -0.117106 0
M  V30 2 N 0 1.576 0 0
M  V30 3 C 0.933 2.03868 1.02534 0
M  V30 4 C 1.911 0.928543 1.3348 0
M  V30 5 O 3.095 1.19667 1.45644 0
M  V30 6 C 0.222 2.43627 2.35294 0
M  V30 7 C -0.732 3.65373 2.2001 0
M  V30 8 S 0.101 5.13292 1.52614 0
M  V30 9 C 1.257 5.56322 2.86805 0
M  V30 10 H 1.49 2.90518 0.631377 0
M  V30 11 H -0.977 1.52953 0.210867 0
M  V30 12 H 0.981 2.67203 3.11629 0
M  V30 13 H -0.358 1.57376 2.7183 0
M  V30 14 H -1.165 3.90944 3.18086 0
M  V30 15 H -1.563 3.418 1.51819 0
M  V30 16 H 0.729 5.58782 3.83104 0
M  V30 17 H 1.672 6.56266 2.65933 0
M  V30 18 H 2.08 4.83886 2.90714 0
M  V30 19 N 1.4781 -0.272755 1.55222 0
M  V30 20 C 2.7031 -1.02683 1.80197 0
M  V30 21 C 3.1281 -1.79142 0.573551 0
M  V30 22 O 2.4861 -1.74917 -0.476849 0
M  V30 23 C 2.5341 -1.9609 3.02624 0
M  V30 24 O 1.6381 -3.04863 2.77727 0
M  V30 25 H 0.9791 -0.293557 0.595584 0
M  V30 26 H 3.5091 -0.30159 2.02365 0
M  V30 27 H 3.5191 -2.38039 3.31363 0
M  V30 28 H 2.1941 -1.39851 3.91682 0
M  V30 29 H 0.7711 -2.67228 2.60084 0
M  V30 30 N 2.9562 -1.48159 -0.537278 0
M  V30 31 C 4.1812 -1.59707 -1.32319 0
M  V30 32 C 4.6062 -0.254859 -1.86365 0
M  V30 33 O 3.9642 0.772378 -1.64024 0
M  V30 34 C 4.0122 -2.6412 -2.45505 0
M  V30 35 O 3.1162 -2.20774 -3.48328 0
M  V30 36 H 2.4572 -0.535791 -0.392204 0
M  V30 37 H 4.9872 -1.94092 -0.647268 0
M  V30 38 H 4.9972 -2.85166 -2.91795 0
M  V30 39 H 3.6722 -3.61567 -2.05528 0
M  V30 40 H 2.2492 -2.09911 -3.08207 0
M  V30 41 N 4.4343 0.785586 -1.36625 0
M  V30 42 C 5.3823 1.91978 -1.31329 0
M  V30 43 C 6.3763 1.68162 -0.204416 0
M  V30 44 O 7.5823 1.76122 -0.371645 0
M  V30 45 H 3.9573 0.631087 -0.408942 0
M  V30 46 H 5.9283 1.93562 -2.27104 0
M  V30 47 C 4.6773 3.29055 -1.12329 0
M  V30 48 H 4.0003 3.4795 -1.96903 0
M  V30 49 H 5.4403 4.08756 -1.12671 0
M  V30 50 C 3.8993 3.36461 0.171861 0
M  V30 51 O 4.4293 3.84576 1.16035 0
M  V30 52 N 2.6353 2.89782 0.217846 0
M  V30 53 H 2.1823 2.50819 -0.587183 0
M  V30 54 H 2.1403 2.95119 1.08408 0
M  V30 55 N 5.9124 1.20967 1.01018 0
M  V30 56 C 7.1524 1.03511 1.76252 0
M  V30 57 C 7.5164 -0.42458 1.87247 0
M  V30 58 O 8.7174 -0.719508 2.58991 0
M  V30 59 C 6.9884 1.70726 3.13986 0
M  V30 60 S 8.5474 1.68458 4.05176 0
M  V30 61 H 5.3654 0.371037 0.606508 0
M  V30 62 H 7.9674 1.53628 1.20908 0
M  V30 63 H 6.6714 2.76128 3.03614 0
M  V30 64 H 6.2024 1.20767 3.74405 0
M  V30 65 H 8.2174 0.721987 4.90919 0
M  V30 66 N 7.3905 -1.2043 1.01659 0
M  V30 67 C 8.6185 -1.93777 0.725132 0
M  V30 68 C 9.0335 -1.74772 -0.714166 0
M  V30 69 O 8.3905 -1.06169 -1.4844 0
M  V30 70 C 8.4415 -3.45876 1.05129 0
M  V30 71 O 8.1625 -3.6426 2.43406 0
M  V30 72 C 9.6635 -4.36368 0.780891 0
M  V30 73 H 6.8835 -0.615901 0.266284 0
M  V30 74 H 9.4275 -1.52922 1.35776 0
M  V30 75 H 7.5825 -3.8461 0.464065 0
M  V30 76 H 7.9965 -4.58246 2.55169 0
M  V30 77 H 9.4705 -5.41743 1.05918 0
M  V30 78 H 9.9475 -4.38275 -0.284937 0
M  V30 79 H 10.5535 -4.03296 1.35027 0
M  V30 80 N 8.8686 -0.792821 -1.36206 0
M  V30 81 C 10.0936 -0.377701 -2.03932 0
M  V30 82 C 10.5186 0.998947 -1.59382 0
M  V30 83 O 9.8766 1.64421 -0.763903 0
M  V30 84 C 9.9246 -0.453635 -3.57735 0
M  V30 85 O 9.0286 0.538151 -4.08874 0
M  V30 86 H 8.3696 -0.159855 -0.644471 0
M  V30 87 H 10.8996 -1.07488 -1.7409 0
M  V30 88 H 10.9096 -0.318464 -4.06755 0
M  V30 89 H 9.5846 -1.45784 -3.89512 0
M  V30 90 H 8.1616 0.364359 -3.71116 0
M  V30 91 N 10.3467 1.47872 -0.545128 0
M  V30 92 C 11.5747 2.06889 -0.021084 0
M  V30 93 C 11.9897 1.39955 1.2672 0
M  V30 94 O 11.3467 0.492036 1.75742 0
M  V30 95 C 11.3977 3.60996 0.190817 0
M  V30 96 O 11.1187 4.25419 -1.04644 0
M  V30 97 C 12.6197 4.36849 0.753521 0
M  V30 98 H 9.8397 0.669785 -0.0403635 0
M  V30 99 H 12.3837 1.90049 -0.755095 0
M  V30 100 H 10.5387 3.77391 0.87492 0
M  V30 101 H 10.9527 5.17785 -0.836611 0
M  V30 102 H 12.4267 5.45399 0.851139 0
M  V30 103 H 12.9037 4.02306 1.762 0
M  V30 104 H 13.5097 4.25169 0.105503 0
M  V30 105 N 11.8248 0.280983 1.55075 0
M  V30 106 C 13.0528 -0.337293 2.04132 0
M  V30 107 C 13.4678 -1.4903 1.15912 0
M  V30 108 O 12.8248 -1.81606 0.180459 0
M  V30 109 C 12.8758 -0.812706 3.52246 0
M  V30 110 O 12.5968 0.294387 4.3711 0
M  V30 111 C 14.0978 -1.4982 4.17216 0
M  V30 112 H 11.3178 -0.0761638 0.666663 0
M  V30 113 H 13.8618 0.414787 2.00249 0
M  V30 114 H 12.0168 -1.51486 3.56554 0
M  V30 115 H 12.4308 -0.0721325 5.2445 0
M  V30 116 H 13.9048 -1.7822 5.22438 0
M  V30 117 H 14.3818 -2.43168 3.65741 0
M  V30 118 H 14.9878 -0.839742 4.16927 0
M  V30 119 N 13.3029 -1.57598 0.00835791 0
M  V30 120 C 14.2659 -2.07884 -0.965242 0
M  V30 121 C 15.2659 -0.989825 -1.26725 0
M  V30 122 O 16.4559 -1.25218 -1.21104 0
M  V30 123 C 13.5879 -2.52731 -2.28779 0
M  V30 124 H 14.7809 -2.95178 -0.530112 0
M  V30 125 H 12.3339 -1.54458 -0.239283 0
M  V30 126 H 13.0689 -1.68705 -2.76964 0
M  V30 127 H 12.8539 -3.32272 -2.08177 0
M  V30 128 H 14.3439 -2.91933 -2.98605 0
M  V30 129 N 14.781 0.264519 -1.55364 0
M  V30 130 C 16.027 0.99646 -1.76631 0
M  V30 131 C 16.36 1.85632 -0.570478 0
M  V30 132 O 15.635 1.89647 0.43175 0
M  V30 133 C 15.918 1.87187 -3.07625 0
M  V30 134 C 15.771 1.04138 -4.37579 0
M  V30 135 C 17.09 2.85749 -3.34717 0
M  V30 136 H 14.209 0.360841 -0.642622 0
M  V30 137 H 16.851 0.268218 -1.88097 0
M  V30 138 H 15.001 2.49279 -2.9798 0
M  V30 139 H 16.673 0.440517 -4.59192 0
M  V30 140 H 14.916 0.345115 -4.32425 0
M  V30 141 H 15.587 1.68729 -5.2558 0
M  V30 142 H 18.063 2.33793 -3.4421 0
M  V30 143 H 16.939 3.44136 -4.27623 0
M  V30 144 H 17.2 3.61311 -2.54768 0
M  V30 145 N 16.2591 1.48442 0.529413 0
M  V30 146 C 17.2221 1.62524 1.61612 0
M  V30 147 C 18.2221 0.498509 1.52877 0
M  V30 148 O 19.4121 0.76431 1.56537 0
M  V30 149 C 16.5441 1.59597 3.01233 0
M  V30 150 H 17.7371 2.59423 1.50465 0
M  V30 151 H 15.2901 1.37047 0.751514 0
M  V30 152 H 16.0251 0.641781 3.17886 0
M  V30 153 H 15.8101 2.41397 3.08982 0
M  V30 154 H 17.3001 1.72646 3.80241 0
M  V30 155 N 17.7372 -0.778329 1.37039 0
M  V30 156 C 18.9832 -1.53892 1.32079 0
M  V30 157 C 19.3162 -1.9396 -0.0965386 0
M  V30 158 O 18.5912 -1.63568 -1.05242 0
M  V30 159 C 18.8742 -2.80847 2.25382 0
M  V30 160 C 18.7272 -2.47076 3.75864 0
M  V30 161 C 20.0462 -3.82741 2.1725 0
M  V30 162 H 17.1652 -0.558303 0.48111 0
M  V30 163 H 19.8072 -0.893397 1.67685 0
M  V30 164 H 17.9572 -3.35931 1.95148 0
M  V30 165 H 19.6292 -1.97957 4.16666 0
M  V30 166 H 17.8722 -1.79863 3.94755 0
M  V30 167 H 18.5432 -3.37798 4.36574 0
M  V30 168 H 21.0192 -3.37133 2.43887 0
M  V30 169 H 19.8952 -4.69303 2.84686 0
M  V30 170 H 20.1562 -4.2652 1.16331 0
M  V30 171 N 19.2153 -1.21501 -1.00376 0
M  V30 172 C 20.1783 -0.976927 -2.07337 0
M  V30 173 C 21.1783 0.0525322 -1.60714 0
M  V30 174 O 22.3683 -0.184869 -1.73216 0
M  V30 175 C 19.5003 -0.473423 -3.37597 0
M  V30 176 H 20.6933 -1.92587 -2.29892 0
M  V30 177 H 18.2463 -1.03217 -1.17371 0
M  V30 178 H 18.9813 0.480379 -3.20722 0
M  V30 179 H 18.7663 -1.216 -3.72768 0
M  V30 180 H 20.2563 -0.32675 -4.1632 0
M  V30 181 N 20.6934 1.19889 -1.02296 0
M  V30 182 C 22.1044 1.71124 -0.746568 0
M  V30 183 C 22.4554 1.81939 0.734335 0
M  V30 184 O 21.5804 1.48639 1.57275 0
M  V30 185 C 22.1754 3.10804 -1.34857 0
M  V30 186 C 20.7344 3.59323 -1.1209 0
M  V30 187 C 19.8814 2.3635 -1.45031 0
M  V30 188 H 22.8324 1.04813 -1.19163 0
M  V30 189 H 22.8534 3.73186 -0.742437 0
M  V30 190 H 22.3654 3.029 -2.42638 0
M  V30 191 H 20.4664 3.7255 -0.0610337 0
M  V30 192 H 20.5794 4.4378 -1.80544 0
M  V30 193 H 18.9434 2.39399 -0.869487 0
M  V30 194 H 19.7264 2.31081 -2.53883 0
M  V30 195 N 22.1715 0.800033 1.35784 0
M  V30 196 C 23.1015 0.220184 2.3246 0
M  V30 197 C 24.0825 -0.65073 1.57161 0
M  V30 198 O 25.2675 -0.582359 1.85263 0
M  V30 199 C 22.3975 -0.637353 3.41402 0
M  V30 200 C 21.3515 0.134531 4.27789 0
M  V30 201 C 20.6775 -0.844285 5.27992 0
M  V30 202 C 21.9775 1.32979 5.05088 0
M  V30 203 H 23.6715 1.02787 2.81203 0
M  V30 204 H 21.2175 0.495717 1.35199 0
M  V30 205 H 23.1705 -1.05302 4.08031 0
M  V30 206 H 21.8945 -1.47785 2.91251 0
M  V30 207 H 20.5535 0.531296 3.6273 0
M  V30 208 H 20.2015 -1.68011 4.74111 0
M  V30 209 H 19.9015 -0.332184 5.8666 0
M  V30 210 H 21.4255 -1.2583 5.97494 0
M  V30 211 H 22.8395 0.98934 5.64699 0
M  V30 212 H 21.2365 1.77593 5.7322 0
M  V30 213 H 22.3065 2.11978 4.36111 0
M  V30 214 N 23.6496 -1.47581 0.552962 0
M  V30 215 C 24.8746 -2.07378 0.0300593 0
M  V30 216 C 25.2996 -1.40355 -1.25229 0
M  V30 217 O 24.6576 -0.477099 -1.7491 0
M  V30 218 C 24.7056 -3.60274 -0.153231 0
M  V30 219 O 23.8096 -3.94041 -1.21678 0
M  V30 220 H 23.1506 -0.662158 0.0494182 0
M  V30 221 H 25.6806 -1.89662 0.767434 0
M  V30 222 H 25.6906 -4.0633 -0.368761 0
M  V30 223 H 24.3656 -4.08455 0.783397 0
M  V30 224 H 22.9426 -3.59735 -0.982079 0
M  V30 225 N 25.1277 -0.289203 -1.54924 0
M  V30 226 C 26.0907 0.579144 -2.21762 0
M  V30 227 C 27.0907 1.07047 -1.1999 0
M  V30 228 O 28.2807 0.968384 -1.44803 0
M  V30 229 C 25.4127 1.80055 -2.8947 0
M  V30 230 H 26.6057 -0.00464908 -2.999 0
M  V30 231 H 24.1587 -0.0399306 -1.56249 0
M  V30 232 H 24.8937 2.42449 -2.15381 0
M  V30 233 H 24.6787 1.45602 -3.64064 0
M  V30 234 H 26.1687 2.41773 -3.40493 0
M  V30 235 N 26.6058 1.57591 -0.0167156 0
M  V30 236 C 27.8308 1.9598 0.67872 0
M  V30 237 C 28.2558 0.892546 1.65575 0
M  V30 238 O 27.6138 -0.147772 1.80697 0
M  V30 239 C 27.6618 3.33468 1.37227 0
M  V30 240 O 26.7658 3.28954 2.48722 0
M  V30 241 H 26.1068 0.639339 0.17928 0
M  V30 242 H 28.6368 2.04463 -0.0748802 0
M  V30 243 H 28.6468 3.69417 1.7319 0
M  V30 244 H 27.3218 4.10694 0.656007 0
M  V30 245 H 25.8988 3.04705 2.14963 0
M  V30 246 N 28.0839 -0.256276 1.55502 0
M  V30 247 C 29.0309 -1.31714 1.89526 0
M  V30 248 C 30.0009 -1.4828 0.748479 0
M  V30 249 O 31.1859 -1.62416 1.00128 0
M  V30 250 C 28.3259 -2.66933 2.18725 0
M  V30 251 C 27.4389 -2.58452 3.4616 0
M  V30 252 C 26.5739 -3.85961 3.64976 0
M  V30 253 C 25.6129 -3.72059 4.86044 0
M  V30 254 N 24.7499 -4.9144 5.01429 0
M  V30 255 H 29.5899 -1.01998 2.80001 0
M  V30 256 H 27.1269 -0.492413 1.38613 0
M  V30 257 H 29.0849 -3.4563 2.33657 0
M  V30 258 H 27.7149 -2.94816 1.31466 0
M  V30 259 H 26.7669 -1.71374 3.3961 0
M  V30 260 H 28.0789 -2.44085 4.34999 0
M  V30 261 H 27.2329 -4.73101 3.79816 0
M  V30 262 H 25.9719 -4.03215 2.74353 0
M  V30 263 H 24.9769 -2.83302 4.7119 0
M  V30 264 H 26.2019 -3.56309 5.78118 0
M  V30 265 H 24.1479 -5.09072 4.13741 0
M  V30 266 H 24.0649 -4.79668 5.84341 0
M  V30 267 H 25.3329 -5.80104 5.20672 0
M  V30 268 N 29.562 -1.4872 -0.521534 0
M  V30 269 C 30.79 -1.60843 -1.30142 0
M  V30 270 C 31.205 -0.271897 -1.86832 0
M  V30 271 O 30.562 0.739969 -1.66825 0
M  V30 272 C 30.613 -2.66155 -2.4463 0
M  V30 273 O 30.334 -3.94623 -1.90275 0
M  V30 274 C 31.835 -2.88795 -3.36322 0
M  V30 275 H 29.055 -0.542075 -0.395468 0
M  V30 276 H 31.599 -1.94609 -0.628285 0
M  V30 277 H 29.754 -2.35224 -3.07812 0
M  V30 278 H 30.168 -4.52468 -2.65279 0
M  V30 279 H 31.642 -3.66264 -4.12983 0
M  V30 280 H 32.119 -1.97934 -3.9207 0
M  V30 281 H 32.725 -3.21063 -2.78924 0
M  V30 282 N 31.0401 0.771051 -1.3745 0
M  V30 283 C 31.9871 1.88435 -1.3327 0
M  V30 284 C 32.9571 1.64914 -0.198136 0
M  V30 285 O 34.1421 1.86821 -0.387606 0
M  V30 286 C 31.2821 3.25509 -1.14622 0
M  V30 287 C 30.3951 3.60979 -2.37314 0
M  V30 288 C 29.5301 4.87265 -2.11533 0
M  V30 289 C 28.5691 5.15469 -3.30088 0
M  V30 290 N 27.7061 6.32944 -3.03853 0
M  V30 291 H 32.5461 1.91344 -2.28455 0
M  V30 292 H 30.0831 0.935466 -1.13523 0
M  V30 293 H 32.0411 4.04582 -1.01831 0
M  V30 294 H 30.6711 3.21974 -0.230837 0
M  V30 295 H 29.7231 2.76885 -2.60842 0
M  V30 296 H 31.0351 3.77759 -3.25729 0
M  V30 297 H 30.1891 5.74244 -1.95777 0
M  V30 298 H 28.9281 4.7259 -1.20457 0
M  V30 299 H 27.9331 4.26966 -3.46382 0
M  V30 300 H 29.1581 5.32052 -4.22016 0
M  V30 301 H 27.1041 6.19625 -2.15407 0
M  V30 302 H 27.0211 6.50143 -3.85812 0
M  V30 303 H 28.2891 7.22857 -2.91716 0
M  V30 304 N 32.5182 1.22032 0.997298 0
M  V30 305 C 33.7462 1.06841 1.7718 0
M  V30 306 C 34.1612 -0.381325 1.84909 0
M  V30 307 O 33.5182 -1.26437 1.31605 0
M  V30 308 C 33.5692 1.66814 3.20711 0
M  V30 309 O 33.2902 3.06116 3.13408 0
M  V30 310 C 34.7912 1.56838 4.14628 0
M  V30 311 H 32.0112 0.374782 0.556578 0
M  V30 312 H 34.5552 1.61532 1.2541 0
M  V30 313 H 32.7102 1.16196 3.69564 0
M  V30 314 H 33.1242 3.34926 4.0364 0
M  V30 315 H 34.5982 2.03532 5.13107 0
M  V30 316 H 35.0752 0.524155 4.36061 0
M  V30 317 H 35.6812 2.06741 3.7167 0
M  V30 318 N 33.9963 -1.19345 1.0293 0
M  V30 319 C 34.9433 -2.2258 0.610464 0
M  V30 320 C 35.9133 -1.6179 -0.375946 0
M  V30 321 O 37.0983 -1.88844 -0.272511 0
M  V30 322 C 34.2383 -3.45085 -0.0321473 0
M  V30 323 C 33.3513 -4.20258 1.00035 0
M  V30 324 C 32.4863 -5.3019 0.32746 0
M  V30 325 C 31.5253 -5.97121 1.34584 0
M  V30 326 N 30.6623 -6.98615 0.698726 0
M  V30 327 H 35.5023 -2.57764 1.49538 0
M  V30 328 H 33.0393 -1.26644 0.748311 0
M  V30 329 H 34.9973 -4.15061 -0.421966 0
M  V30 330 H 33.6273 -3.10555 -0.88064 0
M  V30 331 H 32.6793 -3.49223 1.50823 0
M  V30 332 H 33.9913 -4.66175 1.77433 0
M  V30 333 H 33.1453 -6.06587 -0.11718 0
M  V30 334 H 31.8843 -4.85345 -0.478713 0
M  V30 335 H 30.8893 -5.19474 1.80074 0
M  V30 336 H 32.1143 -6.4405 2.15352 0
M  V30 337 H 30.0603 -6.55942 -0.0873471 0
M  V30 338 H 29.9773 -7.42724 1.41058 0
M  V30 339 H 31.2453 -7.79004 0.278102 0
M  V30 340 N 35.4744 -0.807222 -1.35358 0
M  V30 341 C 36.4214 -0.216037 -2.29787 0
M  V30 342 C 37.3914 0.650278 -1.52842 0
M  V30 343 O 38.5764 0.595227 -1.81278 0
M  V30 344 C 35.7164 0.628893 -3.39321 0
M  V30 345 C 34.8294 -0.257927 -4.31229 0
M  V30 346 C 33.9644 0.595069 -5.27856 0
M  V30 347 C 33.0034 -0.292111 -6.11403 0
M  V30 348 N 32.1404 0.520895 -7.00165 0
M  V30 349 H 36.9804 -1.02671 -2.79755 0
M  V30 350 H 34.5174 -0.517839 -1.37684 0
M  V30 351 H 36.4754 1.13393 -4.01494 0
M  V30 352 H 35.1054 1.40482 -2.90628 0
M  V30 353 H 34.1574 -0.881076 -3.70056 0
M  V30 354 H 35.4694 -0.940759 -4.89848 0
M  V30 355 H 34.6234 1.16522 -5.95405 0
M  V30 356 H 33.3624 1.31146 -4.69736 0
M  V30 357 H 32.3674 -0.874525 -5.428 0
M  V30 358 H 33.5924 -1.00638 -6.71602 0
M  V30 359 H 31.5384 1.22125 -6.44532 0
M  V30 360 H 31.4554 -0.103877 -7.55929 0
M  V30 361 H 32.7234 1.0743 -7.72062 0
M  V30 362 N 36.9525 1.47285 -0.560781 0
M  V30 363 C 37.8995 2.30058 0.18491 0
M  V30 364 C 38.8695 1.39281 0.904986 0
M  V30 365 O 40.0545 1.68241 0.899979 0
M  V30 366 C 37.1945 3.23317 1.20666 0
M  V30 367 C 36.3075 4.29186 0.492285 0
M  V30 368 C 35.4425 5.09592 1.49964 0
M  V30 369 C 34.4815 6.07232 0.770439 0
M  V30 370 N 33.6185 6.80584 1.72479 0
M  V30 371 H 38.4585 2.93302 -0.527048 0
M  V30 372 H 35.9955 1.44568 -0.271738 0
M  V30 373 H 37.9535 3.75811 1.81168 0
M  V30 374 H 36.5835 2.61929 1.88661 0
M  V30 375 H 35.6355 3.7972 -0.227333 0
M  V30 376 H 36.9475 4.98738 -0.0787929 0
M  V30 377 H 36.1015 5.66254 2.17809 0
M  V30 378 H 34.8405 4.3995 2.10464 0
M  V30 379 H 33.8455 5.49745 0.0780846 0
M  V30 380 H 35.0705 6.78884 0.171134 0
M  V30 381 H 33.0165 6.1367 2.3183 0
M  V30 382 H 32.9335 7.46319 1.20596 0
M  V30 383 H 34.2015 7.41818 2.39428 0
M  V30 384 N 38.4306 0.297415 1.54768 0
M  V30 385 C 39.3806 -0.595275 2.20092 0
M  V30 386 C 40.3646 -1.10163 1.17273 0
M  V30 387 O 41.5566 -1.043 1.43006 0
M  V30 388 C 38.6856 -1.7684 2.94249 0
M  V30 389 C 37.7716 -1.27818 4.0438 0
M  V30 390 N 38.1626 -0.505695 5.03266 0
M  V30 391 C 36.4606 -1.55923 4.17857 0
M  V30 392 C 37.1616 -0.245094 5.81183 0
M  V30 393 N 36.1376 -0.823881 5.3732 0
M  V30 394 H 39.9396 0.00250837 2.939 0
M  V30 395 H 37.4536 0.102007 1.62079 0
M  V30 396 H 39.4506 -2.41944 3.39513 0
M  V30 397 H 38.1106 -2.36992 2.21957 0
M  V30 398 H 39.1216 -0.150928 5.1768 0
M  V30 399 H 35.7986 -2.16849 3.56767 0
M  V30 400 H 37.1886 0.375084 6.70852 0
M  V30 401 N 39.9087 -1.5758 0.0250728 0
M  V30 402 C 41.1557 -1.91633 -0.654444 0
M  V30 403 C 41.4837 -0.901103 -1.72367 0
M  V30 404 O 40.7387 0.0905647 -1.9549 0
M  V30 405 C 41.0377 -3.32421 -1.31268 0
M  V30 406 C 40.7037 -4.49344 -0.374223 0
M  V30 407 C 39.3657 -4.8106 -0.115911 0
M  V30 408 C 41.7177 -5.20498 0.270432 0
M  V30 409 C 39.0457 -5.8129 0.79493 0
M  V30 410 C 41.3977 -6.21699 1.1693 0
M  V30 411 C 40.0617 -6.51859 1.43655 0
M  V30 412 H 39.3317 -0.701236 -0.239478 0
M  V30 413 H 41.9787 -1.91307 0.0859734 0
M  V30 414 H 40.2837 -3.28989 -2.12775 0
M  V30 415 H 41.9807 -3.56038 -1.84494 0
M  V30 416 H 38.5707 -4.24579 -0.58573 0
M  V30 417 H 42.7547 -4.96229 0.0839194 0
M  V30 418 H 38.0107 -6.03005 1.00973 0
M  V30 419 H 42.1847 -6.75955 1.67504 0
M  V30 420 H 39.8117 -7.2934 2.144 0
M  V30 421 N 41.3868 0.248026 -1.55636 0
M  V30 422 C 42.6328 0.97767 -1.77678 0
M  V30 423 C 42.9658 1.85016 -0.590135 0
M  V30 424 O 42.2408 1.90095 0.411611 0
M  V30 425 C 42.5238 1.83914 -3.09593 0
M  V30 426 C 42.3768 0.99491 -4.38659 0
M  V30 427 C 43.6958 2.82183 -3.37729 0
M  V30 428 H 40.8148 0.354005 -0.646413 0
M  V30 429 H 43.4568 0.248253 -1.88371 0
M  V30 430 H 41.6068 2.46104 -3.00608 0
M  V30 431 H 43.2788 0.391789 -4.59633 0
M  V30 432 H 41.5218 0.299231 -4.32767 0
M  V30 433 H 42.1928 1.63145 -5.2734 0
M  V30 434 H 44.6688 2.30129 -3.4667 0
M  V30 435 H 43.5448 3.39582 -4.31249 0
M  V30 436 H 43.8058 3.58588 -2.58586 0
M  V30 437 N 42.8649 1.48995 0.513639 0
M  V30 438 C 44.1049 1.59452 1.27885 0
M  V30 439 C 44.4689 0.269479 1.90099 0
M  V30 440 O 45.6699 0.249139 2.67643 0
M  V30 441 C 43.9409 2.71277 2.32688 0
M  V30 442 S 45.4999 3.01604 3.18717 0
M  V30 443 H 42.3179 0.562565 0.434789 0
M  V30 444 H 44.9199 1.86595 0.583301 0
M  V30 445 H 43.6239 3.66089 1.8549 0
M  V30 446 H 43.1549 2.46086 3.06929 0
M  V30 447 H 45.1699 2.42155 4.331 0
M  V30 448 N 44.343 -0.763751 1.37857 0
M  V30 449 C 45.275 -1.88664 1.30148 0
M  V30 450 C 46.288 -1.61365 0.215685 0
M  V30 451 O 47.477 -1.72134 0.472459 0
M  V30 452 C 44.577 -3.24075 0.991396 0
M  V30 453 C 43.75 -3.78958 2.18426 0
M  V30 454 C 42.809 -4.92862 1.8432 0
M  V30 455 O 41.835 -5.08027 2.56704 0
M  V30 456 N 43.037 -5.75071 0.792081 0
M  V30 457 H 45.802 -1.95791 2.26905 0
M  V30 458 H 43.363 -0.943226 1.31586 0
M  V30 459 H 45.355 -3.97804 0.743935 0
M  V30 460 H 43.925 -3.12399 0.112122 0
M  V30 461 H 43.145 -2.96913 2.59299 0
M  V30 462 H 44.433 -4.12357 2.98058 0
M  V30 463 H 43.831 -5.65375 0.191595 0
M  V30 464 H 42.388 -6.48991 0.60449 0
M  V30 465 N 45.8211 -1.22559 -0.990812 0
M  V30 466 C 46.7681 -0.997519 -2.0813 0
M  V30 467 C 47.7381 0.0814702 -1.659 0
M  V30 468 O 48.9231 -0.0685424 -1.90677 0
M  V30 469 C 46.0631 -0.583615 -3.40129 0
M  V30 470 C 45.1761 -1.7336 -3.9569 0
M  V30 471 C 44.3111 -1.26748 -5.15857 0
M  V30 472 C 43.3501 -2.38888 -5.63559 0
M  V30 473 N 42.4871 -1.93308 -6.74964 0
M  V30 474 H 47.3271 -1.93099 -2.26973 0
M  V30 475 H 44.8641 -0.962114 -1.11273 0
M  V30 476 H 46.8221 -0.324801 -4.15934 0
M  V30 477 H 45.4521 0.312845 -3.2128 0
M  V30 478 H 44.5041 -2.10669 -3.16738 0
M  V30 479 H 45.8161 -2.57704 -4.27071 0
M  V30 480 H 44.9701 -0.966173 -5.98957 0
M  V30 481 H 43.7091 -0.394272 -4.86104 0
M  V30 482 H 42.7141 -2.69805 -4.79046 0
M  V30 483 H 43.9391 -3.26728 -5.95336 0
M  V30 484 H 41.8851 -1.08352 -6.4699 0
M  V30 485 H 41.8021 -2.71217 -7.05675 0
M  V30 486 H 43.0701 -1.66252 -7.61564 0
M  V30 487 N 47.2992 1.18797 -1.03562 0
M  V30 488 C 48.5452 1.8893 -0.737113 0
M  V30 489 C 48.8782 1.79837 0.732956 0
M  V30 490 O 48.1532 1.19525 1.5344 0
M  V30 491 C 48.4362 3.39607 -1.19745 0
M  V30 492 C 48.2892 3.57537 -2.72924 0
M  V30 493 C 49.6082 4.33069 -0.783526 0
M  V30 494 H 46.7272 0.686057 -0.269249 0
M  V30 495 H 49.3692 1.39797 -1.28673 0
M  V30 496 H 47.5192 3.81583 -0.729855 0
M  V30 497 H 49.1912 3.24688 -3.27682 0
M  V30 498 H 47.4342 3.00363 -3.12993 0
M  V30 499 H 48.1052 4.63238 -3.00191 0
M  V30 500 H 50.5812 3.98846 -1.18581 0
M  V30 501 H 49.4572 5.3707 -1.13343 0
M  V30 502 H 49.7182 4.40986 0.313681 0
M  V30 503 N 48.7773 0.814389 1.34928 0
M  V30 504 C 49.7243 0.22822 2.29669 0
M  V30 505 C 50.6943 -0.642164 1.53184 0
M  V30 506 O 51.8793 -0.585605 1.81591 0
M  V30 507 C 49.0193 -0.61089 3.3965 0
M  V30 508 C 48.1323 0.280792 4.31086 0
M  V30 509 C 47.2673 -0.567067 5.28165 0
M  V30 510 C 46.3063 0.324531 6.11239 0
M  V30 511 N 45.4433 -0.483756 7.00431 0
M  V30 512 H 50.2833 1.04153 2.79206 0
M  V30 513 H 47.8203 0.525133 1.37407 0
M  V30 514 H 49.7783 -1.11263 4.0209 0
M  V30 515 H 48.4083 -1.38939 2.91369 0
M  V30 516 H 47.4603 0.900688 3.69583 0
M  V30 517 H 48.7723 0.966723 4.89342 0
M  V30 518 H 47.9263 -1.13363 5.96015 0
M  V30 519 H 46.6653 -1.28654 4.70425 0
M  V30 520 H 45.6703 0.903298 5.42329 0
M  V30 521 H 46.8953 1.04198 6.71059 0
M  V30 522 H 44.8413 -1.18706 6.45171 0
M  V30 523 H 44.7583 0.143965 7.55863 0
M  V30 524 H 46.0263 -1.03334 7.7262 0
M  V30 525 N 50.2554 -1.46986 0.568584 0
M  V30 526 C 51.1854 -2.32946 -0.160753 0
M  V30 527 C 52.1664 -1.44487 -0.897631 0
M  V30 528 O 53.3514 -1.73327 -0.875867 0
M  V30 529 C 50.4814 -3.26494 -1.18403 0
M  V30 530 C 49.4354 -4.24282 -0.562895 0
M  V30 531 C 48.7614 -5.07236 -1.69163 0
M  V30 532 C 50.0614 -5.19989 0.490761 0
M  V30 533 H 51.7554 -2.94175 0.556916 0
M  V30 534 H 49.3014 -1.4146 0.26927 0
M  V30 535 H 51.2544 -3.85477 -1.70251 0
M  V30 536 H 49.9784 -2.63343 -1.93179 0
M  V30 537 H 48.6374 -3.66541 -0.0656164 0
M  V30 538 H 48.2854 -4.4048 -2.42871 0
M  V30 539 H 47.9854 -5.7345 -1.28174 0
M  V30 540 H 49.5094 -5.6908 -2.21314 0
M  V30 541 H 50.9234 -5.73271 0.0579047 0
M  V30 542 H 49.3204 -5.94469 0.820165 0
M  V30 543 H 50.3904 -4.64777 1.3824 0
M  V30 544 N 51.7335 -0.305618 -1.54608 0
M  V30 545 C 52.9805 0.302298 -2.00231 0
M  V30 546 C 53.3085 1.5354 -1.19398 0
M  V30 547 O 52.5635 1.93973 -0.259423 0
M  V30 548 C 52.8625 0.698983 -3.50498 0
M  V30 549 C 52.5285 -0.432903 -4.48817 0
M  V30 550 C 51.1905 -0.743622 -4.75419 0
M  V30 551 C 53.5425 -1.19409 -5.07337 0
M  V30 552 C 50.8705 -1.81857 -5.57804 0
M  V30 553 C 53.2225 -2.25899 -5.90891 0
M  V30 554 C 51.8865 -2.57572 -6.15803 0
M  V30 555 H 51.1565 0.110619 -0.732697 0
M  V30 556 H 53.8035 -0.425674 -1.86709 0
M  V30 557 H 52.1085 1.50711 -3.61654 0
M  V30 558 H 53.8055 1.1806 -3.83227 0
M  V30 559 H 50.3955 -0.18063 -4.28219 0
M  V30 560 H 54.5795 -0.967295 -4.86782 0
M  V30 561 H 49.8355 -2.06864 -5.75341 0
M  V30 562 H 54.0095 -2.85335 -6.35261 0
M  V30 563 H 51.6365 -3.40998 -6.7943 0
M  V30 564 N 53.2116 1.57565 -0.0334293 0
M  V30 565 C 54.6276 1.56297 0.322997 0
M  V30 566 C 54.8276 1.03945 1.7262 0
M  V30 567 O 53.8836 0.688109 2.42943 0
M  V30 568 C 55.1966 3.00232 0.167664 0
M  V30 569 C 56.7446 3.12078 0.240107 0
M  V30 570 C 57.2196 4.57859 0.113513 0
M  V30 571 N 58.7106 4.62887 0.170359 0
M  V30 572 C 59.4456 5.73319 0.0962517 0
M  V30 573 N 58.9416 6.92794 -0.0291881 0
M  V30 574 N 60.7346 5.61898 0.150551 0
M  V30 575 H 52.8856 1.89923 -0.950956 0
M  V30 576 H 55.1486 0.873824 -0.367608 0
M  V30 577 H 54.8546 3.42501 -0.799102 0
M  V30 578 H 54.7286 3.654 0.936083 0
M  V30 579 H 57.1156 2.69718 1.19733 0
M  V30 580 H 57.1966 2.49623 -0.558763 0
M  V30 581 H 56.8406 5.009 -0.840314 0
M  V30 582 H 56.7706 5.18299 0.931302 0
M  V30 583 H 59.2616 3.76954 0.26728 0
M  V30 584 H 59.5746 7.7276 -0.0789252 0
M  V30 585 H 57.9196 6.94971 -0.0640299 0
M  V30 586 H 61.1106 4.67448 0.246981 0
M  V30 587 H 61.2836 6.47938 0.0893365 0
M  V30 588 N 54.6897 -0.239769 1.55765 0
M  V30 589 C 55.6527 -1.28038 1.90103 0
M  V30 590 C 56.6527 -1.40723 0.778055 0
M  V30 591 O 57.8427 -1.39301 1.04599 0
M  V30 592 C 54.9747 -2.65702 2.13577 0
M  V30 593 H 56.1677 -0.988048 2.83157 0
M  V30 594 H 53.7207 -0.479382 1.48767 0
M  V30 595 H 54.4557 -3.00063 1.23015 0
M  V30 596 H 54.2407 -2.57875 2.95369 0
M  V30 597 H 55.7307 -3.40828 2.41301 0
M  V30 598 N 56.1678 -1.49265 -0.50573 0
M  V30 599 C 57.3928 -1.62478 -1.28902 0
M  V30 600 C 57.8178 -0.294332 -1.85783 0
M  V30 601 O 57.1758 0.737412 -1.65626 0
M  V30 602 C 57.2238 -2.69268 -2.39848 0
M  V30 603 O 56.3278 -2.28113 -3.43567 0
M  V30 604 H 55.6688 -0.54399 -0.380751 0
M  V30 605 H 58.1988 -1.95421 -0.605952 0
M  V30 606 H 58.2088 -2.91291 -2.85681 0
M  V30 607 H 56.8838 -3.65846 -1.97812 0
M  V30 608 H 55.4608 -2.16401 -3.03685 0
M  V30 609 N 57.6459 0.756429 -1.3826 0
M  V30 610 C 58.5559 1.9009 -1.37488 0
M  V30 611 C 59.5719 1.71855 -0.272366 0
M  V30 612 O 60.7479 1.94827 -0.510318 0
M  V30 613 C 57.8129 3.25421 -1.19592 0
M  V30 614 C 56.8739 3.56202 -2.39622 0
M  V30 615 C 56.1069 4.85075 -2.2257 0
M  V30 616 O 56.3299 5.57246 -1.21793 0
M  V30 617 O 55.2639 5.15269 -3.11098 0
M  V30 618 H 59.0899 1.93695 -2.33914 0
M  V30 619 H 56.6749 0.901313 -1.1915 0
M  V30 620 H 58.5569 4.06337 -1.11661 0
M  V30 621 H 57.2319 3.22634 -0.262486 0
M  V30 622 H 56.1389 2.75458 -2.53128 0
M  V30 623 H 57.4719 3.63747 -3.31586 0
M  V30 624 N 59.124 1.23083 0.984299 0
M  V30 625 C 60.535 1.05609 1.5396 0
M  V30 626 C 60.886 -0.377793 1.92528 0
M  V30 627 O 60.011 -1.26398 1.75649 0
M  V30 628 C 60.606 1.91087 2.7977 0
M  V30 629 C 59.165 1.77885 3.31713 0
M  V30 630 C 58.312 1.87028 2.04733 0
M  V30 631 H 61.263 1.36802 0.804419 0
M  V30 632 H 61.284 1.43336 3.5247 0
M  V30 633 H 60.796 2.9544 2.51668 0
M  V30 634 H 58.897 0.762995 3.64704 0
M  V30 635 H 59.01 2.61047 4.01735 0
M  V30 636 H 57.374 1.30565 2.18689 0
M  V30 637 H 58.157 2.92929 1.79017 0
M  V30 638 N 60.6021 -1.18246 1.0419 0
M  V30 639 C 61.8511 -1.87588 0.741194 0
M  V30 640 C 62.1641 -1.81303 -0.734066 0
M  V30 641 O 63.3701 -2.46019 -1.14834 0
M  V30 642 C 61.8261 -3.36538 1.27555 0
M  V30 643 C 61.4341 -3.51349 2.77953 0
M  V30 644 C 63.1781 -4.11273 1.05143 0
M  V30 645 C 61.0851 -4.94265 3.2474 0
M  V30 646 H 60.0151 -0.702622 0.273565 0
M  V30 647 H 62.6661 -1.33601 1.25789 0
M  V30 648 H 61.0481 -3.9 0.686703 0
M  V30 649 H 62.2221 -3.08153 3.42605 0
M  V30 650 H 60.5371 -2.90022 2.98791 0
M  V30 651 H 63.1341 -5.16689 1.37611 0
M  V30 652 H 63.4771 -4.16298 -0.0112774 0
M  V30 653 H 64.0101 -3.63987 1.60495 0
M  V30 654 H 60.7491 -4.94408 4.30396 0
M  V30 655 H 60.2691 -5.38172 2.64823 0
M  V30 656 H 61.9481 -5.62987 3.18834 0
M  V30 657 N 62.0802 -0.821533 -1.34494 0
M  V30 658 C 63.0102 -0.257138 -2.3208 0
M  V30 659 C 63.9912 0.625645 -1.58176 0
M  V30 660 O 65.1762 0.552811 -1.86166 0
M  V30 661 C 62.3062 0.582958 -3.42372 0
M  V30 662 C 61.2602 -0.202571 -4.2752 0
M  V30 663 C 60.5862 0.760179 -5.29269 0
M  V30 664 C 61.8862 -1.40998 -5.02908 0
M  V30 665 H 63.5802 -1.07247 -2.79532 0
M  V30 666 H 61.1262 -0.517163 -1.34393 0
M  V30 667 H 63.0792 0.987972 -4.09655 0
M  V30 668 H 61.8032 1.43133 -2.93565 0
M  V30 669 H 60.4622 -0.588936 -3.61838 0
M  V30 670 H 60.1102 1.60447 -4.76724 0
M  V30 671 H 59.8102 0.238809 -5.87115 0
M  V30 672 H 61.3342 1.16308 -5.9942 0
M  V30 673 H 62.7482 -1.07905 -5.63054 0
M  V30 674 H 61.1452 -1.86689 -5.70322 0
M  V30 675 H 62.2152 -2.1889 -4.32684 0
M  V30 676 N 63.5583 1.46682 -0.576371 0
M  V30 677 C 64.7833 2.07304 -0.0630475 0
M  V30 678 C 65.2083 1.42329 1.2298 0
M  V30 679 O 64.5663 0.504865 1.74129 0
M  V30 680 C 64.6143 3.60472 0.095895 0
M  V30 681 O 63.7183 3.95927 1.15394 0
M  V30 682 H 63.0593 0.661288 -0.0599463 0
M  V30 683 H 65.5893 1.88417 -0.797511 0
M  V30 684 H 65.5993 4.06865 0.304071 0
M  V30 685 H 64.2743 4.07157 -0.84828 0
M  V30 686 H 62.8513 3.61252 0.924724 0
M  V30 687 N 65.0364 0.313813 1.54444 0
M  V30 688 C 66.2824 -0.292108 2.00685 0
M  V30 689 C 66.6154 -1.52548 1.20177 0
M  V30 690 O 65.8904 -1.92452 0.281531 0
M  V30 691 C 66.1734 -0.635968 3.5444 0
M  V30 692 C 66.0264 0.607437 4.4568 0
M  V30 693 C 67.3454 -1.45747 4.15266 0
M  V30 694 H 64.4644 -0.104697 0.729526 0
M  V30 695 H 67.1064 0.428457 1.85106 0
M  V30 696 H 65.2564 -1.24986 3.67846 0
M  V30 697 H 66.9284 1.24581 4.44159 0
M  V30 698 H 65.1714 1.23822 4.15753 0
M  V30 699 H 65.8424 0.322515 5.51057 0
M  V30 700 H 68.3184 -0.938645 4.05375 0
M  V30 701 H 67.1944 -1.66683 5.2298 0
M  V30 702 H 67.4554 -2.45063 3.67963 0
M  V30 703 N 66.5145 -1.57545 0.0417849 0
M  V30 704 C 67.4445 -2.14009 -0.933929 0
M  V30 705 C 68.4255 -1.05938 -1.33083 0
M  V30 706 O 69.6105 -1.33833 -1.40721 0
M  V30 707 C 66.7405 -2.67747 -2.21199 0
M  V30 708 C 65.6945 -3.80718 -1.95544 0
M  V30 709 C 65.0205 -4.20935 -3.29724 0
M  V30 710 C 66.3205 -5.06258 -1.28452 0
M  V30 711 H 68.0145 -2.95788 -0.463645 0
M  V30 712 H 65.5605 -1.42285 -0.221573 0
M  V30 713 H 67.5135 -3.05886 -2.89848 0
M  V30 714 H 66.2375 -1.83147 -2.70416 0
M  V30 715 H 64.8965 -3.43037 -1.2931 0
M  V30 716 H 64.5445 -3.33298 -3.76724 0
M  V30 717 H 64.2445 -4.9707 -3.13361 0
M  V30 718 H 65.7685 -4.61666 -3.9962 0
M  V30 719 H 67.1825 -5.41903 -1.8712 0
M  V30 720 H 65.5795 -5.87475 -1.22445 0
M  V30 721 H 66.6495 -4.84207 -0.259219 0
M  V30 722 N 67.9926 0.231505 -1.5589 0
M  V30 723 C 68.9256 1.31369 -1.86595 0
M  V30 724 C 69.9036 1.45671 -0.722397 0
M  V30 725 O 71.0876 1.61642 -0.969743 0
M  V30 726 C 68.2146 2.68529 -2.06421 0
M  V30 727 C 67.2606 2.71295 -3.29092 0
M  V30 728 S 68.0936 2.26358 -4.85306 0
M  V30 729 C 69.2496 3.65414 -5.08157 0
M  V30 730 H 69.4826 1.05128 -2.78092 0
M  V30 731 H 67.0156 0.433259 -1.48197 0
M  V30 732 H 68.9736 3.47499 -2.18528 0
M  V30 733 H 67.6346 2.91999 -1.15738 0
M  V30 734 H 66.8276 3.72063 -3.39978 0
M  V30 735 H 66.4296 2.0038 -3.15791 0
M  V30 736 H 68.7216 4.6103 -4.96445 0
M  V30 737 H 69.6646 3.5945 -6.10083 0
M  V30 738 H 70.0726 3.5864 -4.35933 0
M  V30 739 N 69.4707 1.49531 0.497807 0
M  V30 740 C 70.7167 1.60388 1.25089 0
M  V30 741 C 71.0717 0.288328 1.90227 0
M  V30 742 O 70.3647 -0.711706 1.77891 0
M  V30 743 C 70.5587 2.70252 2.33878 0
M  V30 744 C 70.3877 4.12363 1.79408 0
M  V30 745 C 69.1577 4.7911 1.60566 0
M  V30 746 C 71.3557 4.97491 1.30412 0
M  V30 747 N 69.3377 6.05525 1.01059 0
M  V30 748 C 70.7087 6.14411 0.830595 0
M  V30 749 C 72.7637 4.83466 1.19015 0
M  V30 750 C 71.4667 7.1885 0.254371 0
M  V30 751 C 73.4927 5.88057 0.627892 0
M  V30 752 C 72.8547 7.04208 0.16461 0
M  V30 753 H 68.9537 0.641246 0.447579 0
M  V30 754 H 71.5377 1.86549 0.557441 0
M  V30 755 H 69.7087 2.45858 3.0068 0
M  V30 756 H 71.4407 2.70613 3.00917 0
M  V30 757 H 68.1957 4.35961 1.85026 0
M  V30 758 H 68.6197 6.73028 0.732236 0
M  V30 759 H 73.2617 3.93978 1.53431 0
M  V30 760 H 70.9797 8.08036 -0.102052 0
M  V30 761 H 74.5657 5.79266 0.542444 0
M  V30 762 H 73.4457 7.83757 -0.263669 0
M  V30 763 N 70.9488 -0.749086 1.3866 0
M  V30 764 C 72.1968 -1.50535 1.34847 0
M  V30 765 C 72.5178 -1.94909 -0.0595016 0
M  V30 766 O 71.7878 -1.67973 -1.00806 0
M  V30 767 H 70.3678 -0.558395 0.49619 0
M  V30 768 H 73.0298 -0.890165 1.73384 0
M  V30 769 H 72.1258 -2.39413 2.00219 0
M  V30 770 N 72.4269 -1.23603 -0.977757 0
M  V30 771 C 73.6729 -1.07129 -1.72195 0
M  V30 772 C 74.0059 0.390501 -1.90233 0
M  V30 773 O 73.2809 1.28902 -1.45653 0
M  V30 774 C 73.5639 -1.80031 -3.11867 0
M  V30 775 C 73.4169 -3.33899 -3.01383 0
M  V30 776 C 74.7359 -1.56492 -4.11337 0
M  V30 777 H 71.8549 -0.390571 -0.624999 0
M  V30 778 H 74.4969 -1.52142 -1.13811 0
M  V30 779 H 72.6469 -1.41768 -3.6171 0
M  V30 780 H 74.3189 -3.81699 -2.59043 0
M  V30 781 H 72.5619 -3.62796 -2.37827 0
M  V30 782 H 73.2329 -3.801 -4.00285 0
M  V30 783 H 75.7089 -1.89757 -3.70313 0
M  V30 784 H 74.5849 -2.09973 -5.07151 0
M  V30 785 H 74.8459 -0.500874 -4.39254 0
M  V30 786 N 73.905 1.17692 -1.04816 0
M  V30 787 C 74.853 2.23632 -0.63966 0
M  V30 788 C 75.847 1.6601 0.337219 0
M  V30 789 O 77.053 1.78844 0.203693 0
M  V30 790 H 73.428 0.727949 -0.188665 0
M  V30 791 H 75.399 2.55387 -1.54337 0
M  V30 792 C 74.148 3.4769 -0.0264051 0
M  V30 793 H 73.471 3.92331 -0.769164 0
M  V30 794 H 74.911 4.23418 0.222098 0
M  V30 795 C 73.37 3.13807 1.22584 0
M  V30 796 O 73.9 3.28236 2.31569 0
M  V30 797 N 72.106 2.68065 1.12202 0
M  V30 798 H 71.653 2.56525 0.235133 0
M  V30 799 H 71.611 2.45767 1.96076 0
M  V30 800 N 75.3831 0.828654 1.34056 0
M  V30 801 C 76.3331 0.226828 2.26869 0
M  V30 802 C 77.3171 -0.612243 1.48796 0
M  V30 803 O 78.5091 -0.465884 1.70759 0
M  V30 804 C 75.6381 -0.605654 3.37915 0
M  V30 805 C 74.7241 0.244361 4.23395 0
M  V30 806 N 75.1151 1.31815 4.88322 0
M  V30 807 C 73.4131 0.0296616 4.4599 0
M  V30 808 C 74.1141 1.83895 5.51867 0
M  V30 809 N 73.0901 1.14196 5.3147 0
M  V30 810 H 76.8921 1.04811 2.74576 0
M  V30 811 H 74.4061 0.67205 1.47842 0
M  V30 812 H 76.4031 -1.05302 4.03382 0
M  V30 813 H 75.0631 -1.42504 2.91758 0
M  V30 814 H 76.0741 1.70099 4.8917 0
M  V30 815 H 72.7511 -0.757097 4.10578 0
M  V30 816 H 74.1411 2.7376 6.136 0
M  V30 817 N 76.8612 -1.46375 0.584142 0
M  V30 818 C 78.0892 -2.06761 0.0759296 0
M  V30 819 C 78.5042 -1.43266 -1.22965 0
M  V30 820 O 77.8612 -0.538458 -1.74376 0
M  V30 821 C 77.9122 -3.61375 -0.0950384 0
M  V30 822 O 77.6332 -4.22495 1.15887 0
M  V30 823 C 79.1342 -4.38693 -0.637434 0
M  V30 824 H 76.3542 -0.668479 0.0581075 0
M  V30 825 H 78.8982 -1.8798 0.805218 0
M  V30 826 H 77.0532 -3.79578 -0.774554 0
M  V30 827 H 77.4672 -5.15385 0.973598 0
M  V30 828 H 78.9412 -5.47464 -0.706237 0
M  V30 829 H 79.4182 -4.06836 -1.65472 0
M  V30 830 H 80.0242 -4.25299 0.00725967 0
M  V30 831 N 78.3393 -0.321999 -1.54275 0
M  V30 832 C 79.5883 0.281931 -1.9972 0
M  V30 833 C 79.9013 1.53369 -1.21397 0
M  V30 834 O 81.1073 2.21352 -1.57211 0
M  V30 835 C 79.5633 0.5529 -3.55628 0
M  V30 836 C 79.1713 -0.681721 -4.42783 0
M  V30 837 C 80.9153 1.11687 -4.09544 0
M  V30 838 C 78.8223 -0.382742 -5.9016 0
M  V30 839 H 77.7523 0.109124 -0.746062 0
M  V30 840 H 80.4033 -0.43398 -1.78294 0
M  V30 841 H 78.7853 1.32896 -3.73035 0
M  V30 842 H 79.9593 -1.45723 -4.37151 0
M  V30 843 H 78.2743 -1.1658 -3.99748 0
M  V30 844 H 80.8713 1.35515 -5.17242 0
M  V30 845 H 81.2143 2.06575 -3.61431 0
M  V30 846 H 81.7473 0.402032 -3.95763 0
M  V30 847 H 78.4863 -1.30076 -6.42464 0
M  V30 848 H 78.0063 0.355094 -5.98748 0
M  V30 849 H 79.6853 0.00800157 -6.47 0
M  V30 850 N 79.8174 1.5752 -0.0501392 0
M  V30 851 C 80.7654 2.12651 0.942459 0
M  V30 852 C 81.7594 1.05807 1.32292 0
M  V30 853 O 82.9654 1.24217 1.3027 0
M  V30 854 H 79.3404 0.679673 0.321789 0
M  V30 855 H 81.3114 2.94951 0.452356 0
M  V30 856 C 80.0604 2.68565 2.20836 0
M  V30 857 H 79.3834 3.50439 1.92439 0
M  V30 858 H 80.8234 3.10761 2.8845 0
M  V30 859 C 79.2824 1.62291 2.95234 0
M  V30 860 O 79.8124 1.03508 3.88135 0
M  V30 861 N 78.0184 1.33836 2.57946 0
M  V30 862 H 77.5654 1.81826 1.82475 0
M  V30 863 H 77.5234 0.629595 3.08032 0
M  V30 864 N 81.2955 -0.223234 1.56011 0
M  V30 865 C 82.2055 -1.29766 1.95443 0
M  V30 866 C 83.2215 -1.51373 0.858028 0
M  V30 867 O 84.3975 -1.64536 1.16146 0
M  V30 868 C 81.4625 -2.62772 2.26167 0
M  V30 869 C 80.5235 -2.49482 3.49367 0
M  V30 870 C 79.7565 -3.76145 3.78616 0
M  V30 871 O 79.9795 -4.79087 3.09568 0
M  V30 872 O 78.9135 -3.73358 4.72109 0
M  V30 873 H 82.7395 -0.99309 2.87004 0
M  V30 874 H 80.3245 -0.425958 1.43199 0
M  V30 875 H 82.2065 -3.41327 2.47131 0
M  V30 876 H 80.8815 -2.92913 1.37781 0
M  V30 877 H 79.7885 -1.69133 3.33684 0
M  V30 878 H 81.1215 -2.2428 4.38131 0
M  V30 879 N 82.7736 -1.49793 -0.48987 0
M  V30 880 C 83.7036 -1.70201 -1.59856 0
M  V30 881 C 84.6846 -0.55076 -1.60937 0
M  V30 882 O 85.8696 -0.787841 -1.77501 0
M  V30 883 C 82.9996 -1.77882 -2.98287 0
M  V30 884 C 81.9536 -2.92907 -3.12073 0
M  V30 885 C 81.2796 -2.85712 -4.51965 0
M  V30 886 C 82.5796 -4.3369 -2.91051 0
M  V30 887 H 84.2736 -2.63025 -1.43032 0
M  V30 888 H 81.8196 -1.26574 -0.686664 0
M  V30 889 H 83.7726 -1.90744 -3.75759 0
M  V30 890 H 82.4966 -0.816653 -3.16225 0
M  V30 891 H 81.1556 -2.79665 -2.37029 0
M  V30 892 H 80.8036 -1.8738 -4.66795 0
M  V30 893 H 80.5036 -3.62921 -4.62128 0
M  V30 894 H 82.0276 -3.00598 -5.31482 0
M  V30 895 H 83.4416 -4.47555 -3.58284 0
M  V30 896 H 81.8386 -5.12205 -3.12675 0
M  V30 897 H 82.9086 -4.47362 -1.87071 0
M  V30 898 N 84.2517 0.741722 -1.39055 0
M  V30 899 C 85.4767 1.53607 -1.39354 0
M  V30 900 C 85.9017 1.88096 0.0116905 0
M  V30 901 O 85.2597 1.5143 0.996924 0
M  V30 902 C 85.3077 2.80441 -2.26682 0
M  V30 903 O 84.4117 3.76088 -1.69208 0
M  V30 904 H 83.7527 0.464142 -0.474835 0
M  V30 905 H 86.2827 0.915665 -1.82967 0
M  V30 906 H 86.2927 3.29246 -2.40959 0
M  V30 907 H 84.9677 2.5467 -3.2881 0
M  V30 908 H 83.5447 3.34833 -1.64138 0
M  V30 909 N 85.7298 1.2412 0.971189 0
M  V30 910 C 86.6778 1.02812 2.08644 0
M  V30 911 C 87.6718 -0.0358403 1.69362 0
M  V30 912 O 88.8778 0.118429 1.7961 0
M  V30 913 H 85.2528 0.315428 0.682649 0
M  V30 914 H 87.2238 1.97397 2.23779 0
M  V30 915 C 85.9728 0.645874 3.41649 0
M  V30 916 H 85.2958 1.45632 3.72332 0
M  V30 917 H 86.7358 0.536366 4.20594 0
M  V30 918 C 85.1948 -0.646713 3.30635 0
M  V30 919 O 85.7248 -1.69338 3.64263 0
M  V30 920 N 83.9308 -0.626115 2.83775 0
M  V30 921 H 83.4778 0.225988 2.56607 0
M  V30 922 H 83.4358 -1.49117 2.76788 0
M  V30 923 N 87.2079 -1.17134 1.05439 0
M  V30 924 C 88.4539 -1.87733 0.767077 0
M  V30 925 C 88.7869 -1.8098 -0.704253 0
M  V30 926 O 88.0619 -1.21951 -1.5152 0
M  V30 927 C 88.3449 -3.37659 1.25133 0
M  V30 928 C 88.1979 -3.53149 2.78578 0
M  V30 929 C 89.5169 -4.31768 0.852324 0
M  V30 930 H 86.6359 -0.681687 0.280129 0
M  V30 931 H 89.2779 -1.37732 1.30881 0
M  V30 932 H 87.4279 -3.80373 0.790469 0
M  V30 933 H 89.0999 -3.19434 3.32806 0
M  V30 934 H 87.3429 -2.95345 3.17732 0
M  V30 935 H 88.0139 -4.58403 3.07523 0
M  V30 936 H 90.4899 -3.96909 1.24911 0
M  V30 937 H 89.3659 -5.35199 1.21873 0
M  V30 938 H 89.6269 -4.41429 -0.243485 0
M  V30 939 N 88.686 -0.835752 -1.33615 0
M  V30 940 C 90.097 -0.487099 -1.80234 0
M  V30 941 C 90.448 0.993627 -1.69179 0
M  V30 942 O 89.573 1.77403 -1.23924 0
M  V30 943 C 90.168 -0.877385 -3.27242 0
M  V30 944 C 88.727 -0.580915 -3.7189 0
M  V30 945 C 87.874 -1.0874 -2.5509 0
M  V30 946 H 90.825 -1.02474 -1.2118 0
M  V30 947 H 90.846 -0.186195 -3.80044 0
M  V30 948 H 90.358 -1.95512 -3.35256 0
M  V30 949 H 88.459 0.486881 -3.69405 0
M  V30 950 H 88.572 -1.13396 -4.65487 0
M  V30 951 H 86.936 -0.508392 -2.49575 0
M  V30 952 H 87.719 -2.17184 -2.65868 0
M  V30 953 N 90.1641 1.46063 -0.591896 0
M  V30 954 C 91.4101 2.02638 -0.0811191 0
M  V30 955 C 91.7431 1.4613 1.27905 0
M  V30 956 O 91.0181 0.629908 1.84017 0
M  V30 957 C 91.3011 3.60091 -0.0252436 0
M  V30 958 C 91.1541 4.26965 -1.41496 0
M  V30 959 C 92.4731 4.3496 0.670685 0
M  V30 960 H 89.5921 0.73635 -0.0309524 0
M  V30 961 H 92.2341 1.741 -0.760859 0
M  V30 962 H 90.3841 3.84535 0.553624 0
M  V30 963 H 92.0561 4.13756 -2.0397 0
M  V30 964 H 90.2991 3.85971 -1.98011 0
M  V30 965 H 90.9701 5.35781 -1.32825 0
M  V30 966 H 93.4461 4.15716 0.178825 0
M  V30 967 H 92.3221 5.44686 0.678837 0
M  V30 968 H 92.5831 4.06685 1.73379 0
M  V30 969 N 91.6422 0.330177 1.54103 0
M  V30 970 C 93.0532 -0.15652 1.86043 0
M  V30 971 C 93.4042 -1.51086 1.2517 0
M  V30 972 O 92.5292 -2.09023 0.560217 0
M  V30 973 C 93.1242 -0.290784 3.3755 0
M  V30 974 C 91.6832 -0.721705 3.69416 0
M  V30 975 C 90.8302 0.152622 2.7688 0
M  V30 976 H 93.7812 0.550237 1.48856 0
M  V30 977 H 93.8022 -1.12058 3.63625 0
M  V30 978 H 93.3142 0.695068 3.81825 0
M  V30 979 H 91.4152 -1.71706 3.30678 0
M  V30 980 H 91.5282 -0.520869 4.7626 0
M  V30 981 H 89.8922 -0.372894 2.51956 0
M  V30 982 H 90.6752 1.13536 3.23982 0
M  V30 983 N 93.1203 -1.57491 0.0584922 0
M  V30 984 C 94.3663 -1.93264 -0.614558 0
M  V30 985 C 94.6993 -0.937717 -1.7006 0
M  V30 986 O 93.9743 0.0351652 -1.94468 0
M  V30 987 C 94.2573 -3.3938 -1.20386 0
M  V30 988 C 94.1103 -4.49625 -0.125375 0
M  V30 989 C 95.4293 -3.86039 -2.11334 0
M  V30 990 H 92.5483 -0.702791 -0.221933 0
M  V30 991 H 95.1903 -1.8961 0.12175 0
M  V30 992 H 93.3403 -3.42626 -1.83139 0
M  V30 993 H 95.0123 -4.58506 0.506971 0
M  V30 994 H 93.2553 -4.30354 0.545672 0
M  V30 995 H 93.9263 -5.48967 -0.577861 0
M  V30 996 H 96.4023 -3.84716 -1.58534 0
M  V30 997 H 95.2783 -4.88914 -2.49507 0
M  V30 998 H 95.5393 -3.23215 -3.01636 0
M  V30 999 N 94.5984 0.214957 -1.56127 0
M  V30 1000 C 95.5314 1.29382 -1.87977 0
M  V30 1001 C 96.5094 1.44897 -0.737807 0
M  V30 1002 O 97.6934 1.60605 -0.986833 0
M  V30 1003 C 94.8204 2.66325 -2.09258 0
M  V30 1004 C 93.8664 2.67789 -3.31951 0
M  V30 1005 S 94.6994 2.21198 -4.8768 0
M  V30 1006 C 95.8554 3.60003 -5.12004 0
M  V30 1007 H 96.0884 1.02173 -2.79192 0
M  V30 1008 H 93.6214 0.417516 -1.48648 0
M  V30 1009 H 95.5794 3.45162 -2.22201 0
M  V30 1010 H 94.2404 2.90755 -1.18829 0
M  V30 1011 H 93.4334 3.68436 -3.43906 0
M  V30 1012 H 93.0354 1.9702 -3.17898 0
M  V30 1013 H 95.3274 4.55739 -5.01307 0
M  V30 1014 H 96.2704 3.52959 -6.13861 0
M  V30 1015 H 96.6784 3.53996 -4.39712 0
M  V30 1016 N 96.0765 1.50051 0.48192 0
M  V30 1017 C 97.0065 1.71046 1.58951 0
M  V30 1018 C 97.9875 0.559288 1.60642 0
M  V30 1019 O 99.1725 0.797243 1.77081 0
M  V30 1020 C 96.3025 1.79462 2.97339 0
M  V30 1021 C 95.2565 2.94558 3.10515 0
M  V30 1022 C 94.5825 2.88105 4.50444 0
M  V30 1023 C 95.8825 4.35227 2.88747 0
M  V30 1024 H 97.5765 2.6378 1.41635 0
M  V30 1025 H 95.1225 1.26936 0.679942 0
M  V30 1026 H 97.0755 1.92734 3.74742 0
M  V30 1027 H 95.7995 0.833412 3.15788 0
M  V30 1028 H 94.4585 2.80918 2.35543 0
M  V30 1029 H 94.1065 1.89853 4.65795 0
M  V30 1030 H 93.8065 3.65366 4.60197 0
M  V30 1031 H 95.3305 3.03412 5.29881 0
M  V30 1032 H 96.7445 4.49449 3.55905 0
M  V30 1033 H 95.1415 5.13856 3.09955 0
M  V30 1034 H 96.2115 4.48347 1.84696 0
M  V30 1035 N 97.5546 -0.734337 1.39446 0
M  V30 1036 C 98.4876 -1.85715 1.32609 0
M  V30 1037 C 99.4656 -1.6137 0.199636 0
M  V30 1038 O 100.65 -1.84626 0.380195 0
M  V30 1039 C 97.7766 -3.21709 1.05929 0
M  V30 1040 C 96.8226 -3.64913 2.20773 0
M  V30 1041 S 97.6556 -3.74203 3.83056 0
M  V30 1042 C 98.8116 -5.12986 3.58603 0
M  V30 1043 H 99.0446 -1.91232 2.27635 0
M  V30 1044 H 96.5776 -0.899263 1.25509 0
M  V30 1045 H 98.5356 -4.00236 0.912203 0
M  V30 1046 H 97.1966 -3.13848 0.125883 0
M  V30 1047 H 96.3896 -4.63606 1.97699 0
M  V30 1048 H 95.9916 -2.93593 2.31688 0
M  V30 1049 H 98.2836 -5.99339 3.15909 0
M  V30 1050 H 99.2266 -5.41088 4.5676 0
M  V30 1051 H 99.6346 -4.82694 2.9269 0
M  V30 1052 N 99.0327 -1.24633 -0.964593 0
M  V30 1053 C 100.444 -1.08045 -1.5226 0
M  V30 1054 C 100.795 0.347116 -1.93105 0
M  V30 1055 O 99.9197 1.23588 -1.77637 0
M  V30 1056 C 100.515 -1.95514 -2.76695 0
M  V30 1057 C 99.0737 -1.8314 -3.28841 0
M  V30 1058 C 98.2207 -1.90262 -2.01732 0
M  V30 1059 H 101.172 -1.38064 -0.782553 0
M  V30 1060 H 101.193 -1.48925 -3.50145 0
M  V30 1061 H 100.705 -2.99407 -2.46936 0
M  V30 1062 H 98.8057 -0.82092 -3.63444 0
M  V30 1063 H 98.9187 -2.67406 -3.97531 0
M  V30 1064 H 97.2827 -1.34027 -2.16584 0
M  V30 1065 H 98.0657 -2.9574 -1.74334 0
M  V30 1066 N 100.511 1.16574 -1.06058 0
M  V30 1067 C 101.788 1.83048 -0.689416 0
M  V30 1068 C 102.168 1.94122 0.829443 0
M  V30 1069 O 101.516 1.48249 1.7388 0
M  V30 1070 C 101.726 3.20186 -1.38859 0
M  V30 1071 C 103.074 3.95989 -1.53226 0
M  V30 1072 O 104.098 3.29696 -1.3483 0
M  V30 1073 O 102.957 5.14813 -1.83384 0
M  V30 1074 H 100.051 0.790258 -0.243764 0
M  V30 1075 H 102.597 1.23797 -1.16071 0
M  V30 1076 H 101.369 3.07146 -2.4244 0
M  V30 1077 H 100.992 3.87112 -0.907216 0
M  V30 1078 N 101.989 0.842826 1.3317 0
M  V30 1079 C 103.266 0.362216 1.92217 0
M  V30 1080 C 103.646 -1.15289 1.76838 0
M  V30 1081 O 102.994 -1.96914 1.15919 0
M  V30 1082 C 103.204 0.813495 3.39387 0
M  V30 1083 C 104.552 0.823804 4.16532 0
M  V30 1084 O 105.576 0.757358 3.48055 0
M  V30 1085 O 104.435 0.915193 5.38782 0
M  V30 1086 H 101.529 0.103317 0.820521 0
M  V30 1087 H 104.075 0.928942 1.42017 0
M  V30 1088 H 102.847 1.85624 3.4447 0
M  V30 1089 H 102.47 0.223561 3.96971 0
M  V30 1090 N 103.467 -1.45747 0.599634 0
M  V30 1091 C 104.714 -2.02292 0.0917284 0
M  V30 1092 C 105.042 -1.46906 -1.27472 0
M  V30 1093 O 104.297 -0.630652 -1.8526 0
M  V30 1094 C 104.596 -3.57399 -0.00602758 0
M  V30 1095 C 104.262 -4.31902 1.29503 0
M  V30 1096 C 102.924 -4.51974 1.65144 0
M  V30 1097 C 105.276 -4.74551 2.15525 0
M  V30 1098 C 102.604 -5.11949 2.86574 0
M  V30 1099 C 104.956 -5.35868 3.36196 0
M  V30 1100 C 103.62 -5.54165 3.72099 0
M  V30 1101 H 102.89 -0.740239 0.0335658 0
M  V30 1102 H 105.537 -1.7491 0.779661 0
M  V30 1103 H 103.842 -3.84014 -0.777183 0
M  V30 1104 H 105.539 -3.98846 -0.415038 0
M  V30 1105 H 102.129 -4.16588 1.00761 0
M  V30 1106 H 106.313 -4.58784 1.8929 0
M  V30 1107 H 101.569 -5.24305 3.14507 0
M  V30 1108 H 105.743 -5.6787 4.03109 0
M  V30 1109 H 103.37 -6.00406 4.6628 0
M  V30 1110 N 104.945 -0.338344 -1.53925 0
M  V30 1111 C 105.892 0.520845 -2.24846 0
M  V30 1112 C 106.862 1.09976 -1.24477 0
M  V30 1113 O 108.047 1.13735 -1.53196 0
M  V30 1114 C 105.187 1.6685 -3.02084 0
M  V30 1115 C 104.3 1.11739 -4.17299 0
M  V30 1116 C 103.435 2.23193 -4.82036 0
M  V30 1117 C 102.474 1.65407 -5.89328 0
M  V30 1118 N 101.611 2.70582 -6.47866 0
M  V30 1119 H 106.451 -0.0904881 -2.97863 0
M  V30 1120 H 103.988 -0.0564282 -1.46992 0
M  V30 1121 H 105.946 2.34407 -3.45122 0
M  V30 1122 H 104.576 2.2509 -2.31375 0
M  V30 1123 H 103.628 0.332919 -3.7894 0
M  V30 1124 H 104.94 0.654677 -4.94485 0
M  V30 1125 H 104.094 2.98626 -5.28117 0
M  V30 1126 H 102.833 2.72807 -4.04262 0
M  V30 1127 H 101.838 0.884779 -5.42634 0
M  V30 1128 H 103.063 1.16652 -6.69006 0
M  V30 1129 H 101.009 3.1946 -5.72959 0
M  V30 1130 H 100.926 2.28917 -7.20509 0
M  V30 1131 H 102.194 3.45799 -6.98601 0
M  V30 1132 N 106.423 1.57458 -0.0668435 0
M  V30 1133 C 107.386 2.11323 0.887422 0
M  V30 1134 C 108.386 1.03618 1.22964 0
M  V30 1135 O 109.576 1.29626 1.16373 0
M  V30 1136 C 106.708 2.61048 2.19242 0
M  V30 1137 H 107.901 2.96942 0.420194 0
M  V30 1138 H 105.454 1.55239 0.181793 0
M  V30 1139 H 106.189 1.78868 2.70512 0
M  V30 1140 H 105.974 3.39769 1.95702 0
M  V30 1141 H 107.464 3.02814 2.87565 0
M  V30 1142 N 107.901 -0.206675 1.56239 0
M  V30 1143 C 109.131 -0.943975 1.83773 0
M  V30 1144 C 109.539 -1.77841 0.645703 0
M  V30 1145 O 108.882 -1.79403 -0.395008 0
M  V30 1146 C 108.944 -1.899 3.05251 0
M  V30 1147 C 108.608 -1.24764 4.39639 0
M  V30 1148 C 109.605 -0.630216 5.16066 0
M  V30 1149 C 107.29 -1.25496 4.8637 0
M  V30 1150 C 109.284 -0.0287946 6.37393 0
M  V30 1151 C 106.971 -0.649698 6.07637 0
M  V30 1152 C 107.969 -0.0376845 6.8299 0
M  V30 1153 O 107.657 0.55812 8.0196 0
M  V30 1154 H 107.389 -0.281508 0.614597 0
M  V30 1155 H 109.943 -0.222458 2.04192 0
M  V30 1156 H 108.173 -2.6599 2.80689 0
M  V30 1157 H 109.862 -2.5031 3.1953 0
M  V30 1158 H 110.628 -0.616785 4.81062 0
M  V30 1159 H 106.507 -1.72072 4.27683 0
M  V30 1160 H 110.051 0.449518 6.9615 0
M  V30 1161 H 105.948 -0.660592 6.42111 0
M  V30 1162 H 106.716 0.453891 8.17241 0
M  V30 1163 N 109.379 -1.50304 -0.473955 0
M  V30 1164 C 110.604 -1.65175 -1.25427 0
M  V30 1165 C 111.029 -0.333673 -1.85117 0
M  V30 1166 O 110.387 0.702114 -1.67153 0
M  V30 1167 C 110.435 -2.74295 -2.34082 0
M  V30 1168 O 109.539 -2.35349 -3.38651 0
M  V30 1169 H 108.88 -0.551944 -0.369126 0
M  V30 1170 H 111.41 -1.96662 -0.564364 0
M  V30 1171 H 111.42 -2.97285 -2.79438 0
M  V30 1172 H 110.095 -3.69959 -1.90008 0
M  V30 1173 H 108.672 -2.22794 -2.99027 0
M  V30 1174 N 110.857 0.726932 -1.39834 0
M  V30 1175 C 111.804 1.841 -1.39197 0
M  V30 1176 C 112.774 1.642 -0.250502 0
M  V30 1177 O 113.959 1.85494 -0.446846 0
M  V30 1178 C 111.099 3.21697 -1.24919 0
M  V30 1179 C 110.212 3.53247 -2.48678 0
M  V30 1180 C 109.347 4.80289 -2.26928 0
M  V30 1181 C 108.386 5.04707 -3.4632 0
M  V30 1182 N 107.523 6.22956 -3.23836 0
M  V30 1183 H 112.363 1.83979 -2.34427 0
M  V30 1184 H 109.9 0.898876 -1.16442 0
M  V30 1185 H 111.858 4.01137 -1.1465 0
M  V30 1186 H 110.488 3.21076 -0.333153 0
M  V30 1187 H 109.54 2.68447 -2.69519 0
M  V30 1188 H 110.852 3.67205 -3.37582 0
M  V30 1189 H 110.006 5.67725 -2.13947 0
M  V30 1190 H 108.745 4.68519 -1.35431 0
M  V30 1191 H 107.75 4.1573 -3.5979 0
M  V30 1192 H 108.975 5.18357 -4.38729 0
M  V30 1193 H 106.921 6.12459 -2.35011 0
M  V30 1194 H 106.838 6.37539 -4.063 0
M  V30 1195 H 108.106 7.1321 -3.14566 0
M  V30 1196 N 112.336 1.25143 0.95797 0
M  V30 1197 C 113.585 1.0909 1.69654 0
M  V30 1198 C 113.898 -0.368548 1.92097 0
M  V30 1199 O 115.104 -0.649455 2.63618 0
M  V30 1200 C 113.56 1.90395 3.05414 0
M  V30 1201 C 113.168 3.4081 2.90779 0
M  V30 1202 C 114.912 1.82901 3.83076 0
M  V30 1203 C 112.819 4.14423 4.21909 0
M  V30 1204 H 111.749 0.404625 0.636235 0
M  V30 1205 H 114.4 1.4931 1.06672 0
M  V30 1206 H 112.782 1.42996 3.69281 0
M  V30 1207 H 113.956 3.95859 2.35865 0
M  V30 1208 H 112.271 3.49361 2.26575 0
M  V30 1209 H 114.868 2.35196 4.80195 0
M  V30 1210 H 115.211 0.796224 4.08615 0
M  V30 1211 H 115.744 2.28033 3.25954 0
M  V30 1212 H 112.483 5.18102 4.01561 0
M  V30 1213 H 112.003 3.64159 4.76601 0
M  V30 1214 H 113.682 4.21956 4.90471 0
M  V30 1215 N 113.814 -1.1601 1.06675 0
M  V30 1216 C 114.761 -2.20525 0.680967 0
M  V30 1217 C 115.731 -1.62904 -0.324283 0
M  V30 1218 O 116.916 -1.89615 -0.212294 0
M  V30 1219 C 114.056 -3.45013 0.0776551 0
M  V30 1220 C 113.169 -4.16863 1.13355 0
M  V30 1221 C 112.304 -5.2888 0.49597 0
M  V30 1222 C 111.343 -5.92537 1.53513 0
M  V30 1223 N 110.48 -6.96038 0.920631 0
M  V30 1224 H 115.32 -2.52876 1.57663 0
M  V30 1225 H 112.857 -1.24199 0.788223 0
M  V30 1226 H 114.815 -4.16193 -0.289704 0
M  V30 1227 H 113.445 -3.132 -0.781393 0
M  V30 1228 H 112.497 -3.44248 1.61857 0
M  V30 1229 H 113.809 -4.60294 1.92174 0
M  V30 1230 H 112.963 -6.06653 0.0758604 0
M  V30 1231 H 111.702 -4.86622 -0.324062 0
M  V30 1232 H 110.707 -5.13482 1.9651 0
M  V30 1233 H 111.932 -6.36873 2.35733 0
M  V30 1234 H 109.878 -6.55888 0.12138 0
M  V30 1235 H 109.795 -7.3786 1.64616 0
M  V30 1236 H 111.063 -7.77725 0.525795 0
M  V30 1237 N 115.292 -0.849877 -1.32721 0
M  V30 1238 C 116.538 -0.451591 -1.97708 0
M  V30 1239 C 116.871 0.989175 -1.6712 0
M  V30 1240 O 116.146 1.69334 -0.956891 0
M  V30 1241 C 116.429 -0.685598 -3.53513 0
M  V30 1242 C 116.282 -2.17444 -3.93749 0
M  V30 1243 C 117.601 -0.138874 -4.39881 0
M  V30 1244 H 114.72 -0.16555 -0.718166 0
M  V30 1245 H 117.362 -1.06742 -1.57182 0
M  V30 1246 H 115.512 -0.161416 -3.88165 0
M  V30 1247 H 117.184 -2.76433 -3.693 0
M  V30 1248 H 115.427 -2.65476 -3.43081 0
M  V30 1249 H 116.098 -2.28888 -5.02309 0
M  V30 1250 H 118.574 -0.587068 -4.11938 0
M  V30 1251 H 117.45 -0.332213 -5.47894 0
M  V30 1252 H 117.711 0.95806 -4.31594 0
M  V30 1253 N 116.77 1.45427 -0.607355 0
M  V30 1254 C 118.047 1.9557 -0.0344566 0
M  V30 1255 C 118.427 1.54979 1.43334 0
M  V30 1256 O 117.775 0.812241 2.13576 0
M  V30 1257 C 117.985 3.48226 -0.232321 0
M  V30 1258 C 119.333 4.2445 -0.113001 0
M  V30 1259 O 120.357 3.55829 -0.162431 0
M  V30 1260 O 119.216 5.465 0.00209442 0
M  V30 1261 H 116.31 0.826222 0.0358667 0
M  V30 1262 H 118.856 1.55594 -0.6774 0
M  V30 1263 H 117.628 3.70739 -1.25174 0
M  V30 1264 H 117.251 3.95092 0.445896 0
M  V30 1265 N 118.248 0.346503 1.53744 0
M  V30 1266 C 119.196 -0.52422 2.26616 0
M  V30 1267 C 120.19 -1.09948 1.28871 0
M  V30 1268 O 121.396 -1.04488 1.46568 0
M  V30 1269 H 117.771 -0.187743 0.728187 0
M  V30 1270 H 119.742 0.11239 2.98188 0
M  V30 1271 C 118.491 -1.66186 3.05414 0
M  V30 1272 H 117.814 -1.22848 3.80458 0
M  V30 1273 H 119.254 -2.24622 3.59612 0
M  V30 1274 C 117.713 -2.59302 2.1509 0
M  V30 1275 O 118.243 -3.61628 1.74895 0
M  V30 1276 N 116.449 -2.28055 1.8011 0
M  V30 1277 H 115.996 -1.44883 2.12994 0
M  V30 1278 H 115.954 -2.90615 1.19958 0
M  V30 1279 N 119.726 -1.57421 0.075193 0
M  V30 1280 C 120.676 -2.09441 -0.901025 0
M  V30 1281 C 121.66 -1.00486 -1.25663 0
M  V30 1282 O 122.852 -1.2679 -1.23504 0
M  V30 1283 C 119.981 -2.66233 -2.16737 0
M  V30 1284 C 119.067 -3.82198 -1.83808 0
M  V30 1285 N 119.458 -4.91028 -1.21345 0
M  V30 1286 C 117.756 -3.91558 -2.13538 0
M  V30 1287 C 118.457 -5.71852 -1.06585 0
M  V30 1288 N 117.433 -5.20233 -1.57667 0
M  V30 1289 H 121.235 -2.90972 -0.413815 0
M  V30 1290 H 118.749 -1.6189 -0.128601 0
M  V30 1291 H 120.746 -3.01819 -2.87595 0
M  V30 1292 H 119.406 -1.8615 -2.66042 0
M  V30 1293 H 120.417 -5.10323 -0.88268 0
M  V30 1294 H 117.094 -3.22454 -2.65197 0
M  V30 1295 H 118.484 -6.69401 -0.578933 0
M  V30 1296 N 121.204 0.198386 -1.56346 0
M  V30 1297 C 122.134 1.24865 -1.9731 0
M  V30 1298 C 123.115 1.47651 -0.844576 0
M  V30 1299 O 124.3 1.59444 -1.10866 0
M  V30 1300 C 121.43 2.59358 -2.30977 0
M  V30 1301 C 120.384 2.5119 -3.46537 0
M  V30 1302 C 119.71 3.89926 -3.65871 0
M  V30 1303 C 121.01 2.03977 -4.80823 0
M  V30 1304 H 122.704 0.908252 -2.85291 0
M  V30 1305 H 120.25 0.435462 -1.37258 0
M  V30 1306 H 122.203 3.33011 -2.58228 0
M  V30 1307 H 120.927 2.95132 -1.39874 0
M  V30 1308 H 119.586 1.79993 -3.19371 0
M  V30 1309 H 119.234 4.23046 -2.72105 0
M  V30 1310 H 118.934 3.85336 -4.4361 0
M  V30 1311 H 120.458 4.65205 -3.95495 0
M  V30 1312 H 121.872 2.67386 -5.07127 0
M  V30 1313 H 120.269 2.10397 -5.62008 0
M  V30 1314 H 121.339 0.992861 -4.74626 0
M  V30 1315 N 122.682 1.50554 0.465978 0
M  V30 1316 C 123.929 1.61798 1.21768 0
M  V30 1317 C 124.257 0.320696 1.91838 0
M  V30 1318 O 123.512 -0.693724 1.82992 0
M  V30 1319 C 123.811 2.75152 2.28093 0
M  V30 1320 C 123.477 4.15454 1.75239 0
M  V30 1321 C 122.139 4.53628 1.60546 0
M  V30 1322 C 124.491 5.03121 1.36083 0
M  V30 1323 C 121.819 5.77204 1.05128 0
M  V30 1324 C 124.171 6.27249 0.821056 0
M  V30 1325 C 122.835 6.64221 0.660795 0
M  V30 1326 H 122.105 0.592063 0.445582 0
M  V30 1327 H 124.752 1.84503 0.512927 0
M  V30 1328 H 123.057 2.46556 3.04496 0
M  V30 1329 H 124.754 2.81055 2.86023 0
M  V30 1330 H 121.344 3.85341 1.87644 0
M  V30 1331 H 125.528 4.74257 1.46267 0
M  V30 1332 H 120.784 6.0452 0.91462 0
M  V30 1333 H 124.958 6.94537 0.509018 0
M  V30 1334 H 122.585 7.59854 0.229226 0
M  V30 1335 N 124.16 -0.719506 1.40217 0
M  V30 1336 C 125.108 -1.85493 1.40339 0
M  V30 1337 C 126.102 -1.66995 0.284415 0
M  V30 1338 O 127.308 -1.74148 0.455252 0
M  V30 1339 H 123.683 -0.610857 0.438586 0
M  V30 1340 H 125.654 -1.82506 2.36081 0
M  V30 1341 C 124.403 -3.23321 1.27901 0
M  V30 1342 H 123.726 -3.38159 2.1328 0
M  V30 1343 H 125.166 -4.02914 1.32045 0
M  V30 1344 C 123.625 -3.36898 -0.0111355 0
M  V30 1345 O 124.155 -3.89674 -0.975538 0
M  V30 1346 N 122.361 -2.90492 -0.0793393 0
M  V30 1347 H 121.908 -2.47731 0.706183 0
M  V30 1348 H 121.866 -2.99955 -0.942038 0
M  V30 1349 N 125.638 -1.25649 -0.95132 0
M  V30 1350 C 126.585 -1.06323 -2.04851 0
M  V30 1351 C 127.555 0.0286491 -1.66075 0
M  V30 1352 O 128.74 -0.12917 -1.90362 0
M  V30 1353 C 125.88 -0.691529 -3.381 0
M  V30 1354 C 124.993 -1.85861 -3.89974 0
M  V30 1355 C 124.128 -1.43096 -5.11563 0
M  V30 1356 C 123.167 -2.56696 -5.55674 0
M  V30 1357 N 122.304 -2.14684 -6.68472 0
M  V30 1358 H 127.144 -2.00222 -2.20715 0
M  V30 1359 H 124.681 -0.997027 -1.08156 0
M  V30 1360 H 126.639 -0.456963 -4.1469 0
M  V30 1361 H 125.269 0.210474 -3.22113 0
M  V30 1362 H 124.321 -2.20639 -3.09875 0
M  V30 1363 H 125.633 -2.71161 -4.18657 0
M  V30 1364 H 124.787 -1.15624 -5.9558 0
M  V30 1365 H 123.526 -0.548722 -4.84603 0
M  V30 1366 H 122.531 -2.84909 -4.7022 0
M  V30 1367 H 123.756 -3.45503 -5.8464 0
M  V30 1368 H 121.702 -1.28881 -6.43215 0
M  V30 1369 H 121.619 -2.9353 -6.96689 0
M  V30 1370 H 122.887 -1.90397 -7.5589 0
M  V30 1371 N 127.117 1.15442 -1.07289 0
M  V30 1372 C 128.027 2.23786 -0.704057 0
M  V30 1373 C 129.043 1.7166 0.284413 0
M  V30 1374 O 130.219 2.00972 0.131205 0
M  V30 1375 C 127.284 3.46535 -0.106792 0
M  V30 1376 C 126.345 4.13654 -1.14842 0
M  V30 1377 C 125.578 5.30544 -0.57956 0
M  V30 1378 O 125.801 5.67187 0.604585 0
M  V30 1379 O 124.735 5.87154 -1.32414 0
M  V30 1380 H 128.561 2.57664 -1.60757 0
M  V30 1381 H 126.146 1.23152 -0.845803 0
M  V30 1382 H 128.028 4.20804 0.224048 0
M  V30 1383 H 126.703 3.14407 0.770049 0
M  V30 1384 H 125.61 3.4131 -1.5316 0
M  V30 1385 H 126.943 4.49861 -1.99714 0
M  V30 1386 N 128.595 0.856903 1.32268 0
M  V30 1387 C 129.543 0.291987 2.3076 0
M  V30 1388 C 130.537 -0.585857 1.58947 0
M  V30 1389 O 131.743 -0.47341 1.73663 0
M  V30 1390 H 128.118 0.075721 0.748178 0
M  V30 1391 H 130.089 1.13687 2.75895 0
M  V30 1392 C 128.838 -0.502869 3.44044 0
M  V30 1393 H 128.161 0.163328 3.99466 0
M  V30 1394 H 129.601 -0.863691 4.1511 0
M  V30 1395 C 128.06 -1.68898 2.91505 0
M  V30 1396 O 128.59 -2.78811 2.89184 0
M  V30 1397 N 126.796 -1.51679 2.47875 0
M  V30 1398 H 126.343 -0.622666 2.49961 0
M  V30 1399 H 126.301 -2.31184 2.13076 0
M  V30 1400 N 130.073 -1.45103 0.615059 0
M  V30 1401 C 131.003 -2.33339 -0.0865619 0
M  V30 1402 C 131.984 -1.4727 -0.851209 0
M  V30 1403 O 133.169 -1.76026 -0.820281 0
M  V30 1404 C 130.299 -3.30095 -1.07956 0
M  V30 1405 C 129.253 -4.25858 -0.427628 0
M  V30 1406 C 128.579 -5.12361 -1.5294 0
M  V30 1407 C 129.879 -5.18165 0.655944 0
M  V30 1408 H 131.573 -2.92254 0.650224 0
M  V30 1409 H 129.119 -1.40532 0.314138 0
M  V30 1410 H 131.072 -3.90698 -1.57901 0
M  V30 1411 H 129.796 -2.69355 -1.84703 0
M  V30 1412 H 128.455 -3.66564 0.0510292 0
M  V30 1413 H 128.103 -4.47984 -2.28734 0
M  V30 1414 H 127.803 -5.77238 -1.09865 0
M  V30 1415 H 129.327 -5.75833 -2.03098 0
M  V30 1416 H 130.741 -5.72796 0.240257 0
M  V30 1417 H 129.138 -5.91559 1.00888 0
M  V30 1418 H 130.208 -4.60144 1.52957 0
M  V30 1419 N 131.551 -0.354651 -1.53558 0
M  V30 1420 C 132.962 0.126902 -1.86268 0
M  V30 1421 C 133.313 1.49075 -1.27558 0
M  V30 1422 O 132.438 2.08105 -0.5934 0
M  V30 1423 C 133.033 0.237046 -3.3797 0
M  V30 1424 C 131.592 0.662842 -3.70518 0
M  V30 1425 C 130.739 -0.196652 -2.76602 0
M  V30 1426 H 133.69 -0.573849 -1.47962 0
M  V30 1427 H 133.711 1.06259 -3.65362 0
M  V30 1428 H 133.223 -0.755725 -3.80671 0
M  V30 1429 H 131.324 1.66424 -3.33367 0
M  V30 1430 H 131.437 0.445034 -4.77029 0
M  V30 1431 H 129.801 0.332763 -2.52517 0
M  V30 1432 H 130.584 -1.18676 -3.22135 0
M  V30 1433 N 133.029 1.57378 -0.0835403 0
M  V30 1434 C 134.254 1.98682 0.594987 0
M  V30 1435 C 134.679 0.961969 1.61641 0
M  V30 1436 O 134.037 -0.0709989 1.81161 0
M  V30 1437 C 134.085 3.38988 1.2296 0
M  V30 1438 O 133.189 3.39208 2.34546 0
M  V30 1439 H 132.53 0.646368 0.152002 0
M  V30 1440 H 135.06 2.03961 -0.161533 0
M  V30 1441 H 135.07 3.76431 1.57366 0
M  V30 1442 H 133.745 4.13107 0.481228 0
M  V30 1443 H 132.322 3.13548 2.01846 0
M  V30 1444 N 134.507 -0.190092 1.56449 0
M  V30 1445 C 135.923 -0.54113 1.50146 0
M  V30 1446 C 136.123 -1.85603 0.784465 0
M  V30 1447 O 135.179 -2.5024 0.337051 0
M  V30 1448 C 136.492 -0.591241 2.9483 0
M  V30 1449 C 138.04 -0.679732 3.0553 0
M  V30 1450 C 138.515 -0.760908 4.51635 0
M  V30 1451 N 140.006 -0.824302 4.55806 0
M  V30 1452 C 140.741 -0.907365 5.66175 0
M  V30 1453 N 140.237 -0.952422 6.86222 0
M  V30 1454 N 142.03 -0.94494 5.541 0
M  V30 1455 H 134.181 0.67235 2.01478 0
M  V30 1456 H 136.444 0.240127 0.917084 0
M  V30 1457 H 136.15 0.305905 3.50367 0
M  V30 1458 H 136.024 -1.44422 3.48457 0
M  V30 1459 H 138.411 -1.56731 2.50039 0
M  V30 1460 H 138.492 0.199549 2.5502 0
M  V30 1461 H 138.136 0.122336 5.07753 0
M  V30 1462 H 138.066 -1.65606 4.99882 0
M  V30 1463 H 140.557 -0.798526 3.69367 0
M  V30 1464 H 140.87 -1.01645 7.66086 0
M  V30 1465 H 139.215 -0.921014 6.8887 0
M  V30 1466 H 142.406 -0.906612 4.59236 0
M  V30 1467 H 142.579 -1.00622 6.4014 0
M  V30 1468 N 135.985 -1.50799 -0.457987 0
M  V30 1469 C 137.232 -1.62442 -1.20908 0
M  V30 1470 C 137.56 -0.330865 -1.91665 0
M  V30 1471 O 136.815 0.68401 -1.83357 0
M  V30 1472 C 137.114 -2.76358 -2.2663 0
M  V30 1473 C 136.78 -4.16378 -1.73033 0
M  V30 1474 C 135.442 -4.54473 -1.58138 0
M  V30 1475 C 137.794 -5.03836 -1.33413 0
M  V30 1476 C 135.122 -5.77754 -1.02065 0
M  V30 1477 C 137.474 -6.27676 -0.78778 0
M  V30 1478 C 136.138 -6.64562 -0.625561 0
M  V30 1479 H 135.408 -0.594417 -0.442435 0
M  V30 1480 H 138.055 -1.84772 -0.503136 0
M  V30 1481 H 136.36 -2.48167 -3.03184 0
M  V30 1482 H 138.057 -2.82568 -2.84528 0
M  V30 1483 H 134.647 -3.86331 -1.85598 0
M  V30 1484 H 138.831 -4.75026 -1.4375 0
M  V30 1485 H 134.087 -6.04997 -0.882547 0
M  V30 1486 H 138.261 -6.94797 -0.472177 0
M  V30 1487 H 135.888 -7.59965 -0.188926 0
M  V30 1488 N 137.463 0.71206 -1.40597 0
M  V30 1489 C 138.41 1.82613 -1.41142 0
M  V30 1490 C 139.38 1.63925 -0.267903 0
M  V30 1491 O 140.565 1.85009 -0.466495 0
M  V30 1492 C 137.705 3.20354 -1.28324 0
M  V30 1493 C 136.818 3.50589 -2.52411 0
M  V30 1494 C 135.953 4.77855 -2.32009 0
M  V30 1495 C 134.992 5.01005 -3.51654 0
M  V30 1496 N 134.129 6.19487 -3.30425 0
M  V30 1497 H 138.969 1.81482 -2.36365 0
M  V30 1498 H 136.506 0.886475 -1.17388 0
M  V30 1499 H 138.464 3.99899 -1.18899 0
M  V30 1500 H 137.094 3.20705 -0.367189 0
M  V30 1501 H 136.146 2.65573 -2.72351 0
M  V30 1502 H 137.458 3.63604 -3.41458 0
M  V30 1503 H 136.612 5.65424 -2.19956 0
M  V30 1504 H 135.351 4.67056 -1.40392 0
M  V30 1505 H 134.356 4.1189 -3.64179 0
M  V30 1506 H 135.581 5.13674 -4.44202 0
M  V30 1507 H 133.527 6.09932 -2.41494 0
M  V30 1508 H 133.444 6.33194 -4.13039 0
M  V30 1509 H 134.712 7.09834 -3.22113 0
M  V30 1510 N 138.941 1.26152 0.944643 0
M  V30 1511 C 140.188 1.11492 1.69044 0
M  V30 1512 C 140.516 -0.342366 1.91463 0
M  V30 1513 O 139.771 -1.26812 1.49054 0
M  V30 1514 C 140.07 1.82541 3.07268 0
M  V30 1515 C 139.736 3.32445 3.04616 0
M  V30 1516 C 138.398 3.73337 3.036 0
M  V30 1517 C 140.75 4.28171 2.97185 0
M  V30 1518 C 138.078 5.08348 2.92915 0
M  V30 1519 C 140.43 5.63218 2.88041 0
M  V30 1520 C 139.094 6.03426 2.85366 0
M  V30 1521 H 138.364 0.407977 0.618576 0
M  V30 1522 H 141.011 1.56551 1.10291 0
M  V30 1523 H 139.316 1.29941 3.69625 0
M  V30 1524 H 141.013 1.68642 3.63815 0
M  V30 1525 H 137.603 2.99915 3.06185 0
M  V30 1526 H 141.787 3.97563 2.97081 0
M  V30 1527 H 137.043 5.38667 2.89219 0
M  V30 1528 H 141.217 6.37078 2.81254 0
M  V30 1529 H 138.844 7.07999 2.76842 0
M  V30 1530 N 140.419 -1.14872 1.07899 0
M  V30 1531 C 141.366 -2.19791 0.704319 0
M  V30 1532 C 142.336 -1.63238 -0.306987 0
M  V30 1533 O 143.521 -1.8983 -0.192171 0
M  V30 1534 C 140.661 -3.44911 0.114244 0
M  V30 1535 C 139.774 -4.15637 1.1777 0
M  V30 1536 C 138.909 -5.28324 0.552037 0
M  V30 1537 C 137.948 -5.90875 1.59789 0
M  V30 1538 N 137.085 -6.95022 0.994404 0
M  V30 1539 H 141.925 -2.5119 1.60336 0
M  V30 1540 H 139.462 -1.23356 0.801352 0
M  V30 1541 H 141.42 -4.16477 -0.245544 0
M  V30 1542 H 140.05 -3.14011 -0.74813 0
M  V30 1543 H 139.102 -3.42512 1.65499 0
M  V30 1544 H 140.414 -4.5823 1.97046 0
M  V30 1545 H 139.568 -6.06538 0.1402 0
M  V30 1546 H 138.307 -4.86939 -0.272431 0
M  V30 1547 H 137.312 -5.11369 2.01945 0
M  V30 1548 H 138.537 -6.34337 2.42474 0
M  V30 1549 H 136.483 -6.55722 0.190939 0
M  V30 1550 H 136.4 -7.36073 1.72432 0
M  V30 1551 H 137.668 -7.77123 0.608253 0
M  V30 1552 N 141.898 -0.863906 -1.31812 0
M  V30 1553 C 142.808 -0.318461 -2.32428 0
M  V30 1554 C 143.824 0.568496 -1.64451 0
M  V30 1555 O 145 0.46666 -1.95919 0
M  V30 1556 C 142.065 0.476355 -3.43412 0
M  V30 1557 C 141.126 -0.43784 -4.27061 0
M  V30 1558 C 140.359 0.319138 -5.32745 0
M  V30 1559 O 140.582 1.54799 -5.48993 0
M  V30 1560 O 139.516 -0.319861 -6.01049 0
M  V30 1561 H 143.342 -1.15229 -2.80991 0
M  V30 1562 H 140.927 -0.627103 -1.35602 0
M  V30 1563 H 142.809 0.927156 -4.11074 0
M  V30 1564 H 141.484 1.28683 -2.97022 0
M  V30 1565 H 140.391 -0.937013 -3.62175 0
M  V30 1566 H 141.724 -1.21375 -4.77 0
M  V30 1567 N 143.376 1.44774 -0.622745 0
M  V30 1568 C 144.606 2.06187 -0.130532 0
M  V30 1569 C 145.014 1.46547 1.19669 0
M  V30 1570 O 144.357 0.579636 1.74316 0
M  V30 1571 C 144.419 3.59437 0.0674983 0
M  V30 1572 C 144.083 4.41496 -1.18026 0
M  V30 1573 C 145.08 4.75512 -2.102 0
M  V30 1574 C 142.765 4.82007 -1.41333 0
M  V30 1575 C 144.759 5.48912 -3.23998 0
M  V30 1576 C 142.446 5.55157 -2.55429 0
M  V30 1577 C 143.444 5.88528 -3.46589 0
M  V30 1578 O 143.132 6.60191 -4.58697 0
M  V30 1579 H 142.864 0.672045 -0.0730162 0
M  V30 1580 H 145.418 1.86768 -0.854802 0
M  V30 1581 H 143.648 3.77314 0.846825 0
M  V30 1582 H 145.337 4.02642 0.513209 0
M  V30 1583 H 146.103 4.4476 -1.93425 0
M  V30 1584 H 141.982 4.55457 -0.712709 0
M  V30 1585 H 145.526 5.74877 -3.95174 0
M  V30 1586 H 141.423 5.85324 -2.72151 0
M  V30 1587 H 142.191 6.78654 -4.57571 0
M  V30 1588 N 144.854 0.36279 1.53368 0
M  V30 1589 C 146.094 -0.227882 2.03126 0
M  V30 1590 C 146.458 -1.4622 1.24434 0
M  V30 1591 O 147.659 -2.12831 1.64184 0
M  V30 1592 C 145.93 -0.515427 3.53664 0
M  V30 1593 S 147.489 -1.08017 4.25297 0
M  V30 1594 H 144.307 -0.0665377 0.70788 0
M  V30 1595 H 146.909 0.50501 1.88865 0
M  V30 1596 H 145.613 0.390436 4.08539 0
M  V30 1597 H 145.144 -1.27747 3.72081 0
M  V30 1598 H 147.159 -2.36462 4.36234 0
M  V30 1599 N 146.332 -1.57332 0.0918853 0
M  V30 1600 C 147.743 -1.81496 -0.437739 0
M  V30 1601 C 148.094 -1.00727 -1.6837 0
M  V30 1602 O 147.219 -0.235694 -2.15113 0
M  V30 1603 C 147.814 -3.29197 -0.800939 0
M  V30 1604 C 146.373 -3.54136 -1.27532 0
M  V30 1605 C 145.52 -2.75979 -0.270392 0
M  V30 1606 H 148.471 -1.55494 0.317366 0
M  V30 1607 H 148.492 -3.42344 -1.66074 0
M  V30 1608 H 148.004 -3.87955 0.106078 0
M  V30 1609 H 146.105 -3.00705 -2.20016 0
M  V30 1610 H 146.218 -4.62792 -1.23938 0
M  V30 1611 H 144.582 -2.43349 -0.751872 0
M  V30 1612 H 145.365 -3.37484 0.629248 0
M  V30 1613 N 147.81 0.181792 -1.56548 0
M  V30 1614 C 148.743 1.25366 -1.90679 0
M  V30 1615 C 149.721 1.43299 -0.768376 0
M  V30 1616 O 150.905 1.58475 -1.02068 0
M  V30 1617 C 148.032 2.61826 -2.1486 0
M  V30 1618 C 147.078 2.60688 -3.37556 0
M  V30 1619 S 147.911 2.10804 -4.92262 0
M  V30 1620 C 149.067 3.49062 -5.19525 0
M  V30 1621 H 149.3 0.962277 -2.81296 0
M  V30 1622 H 146.833 0.385892 -1.495 0
M  V30 1623 H 148.791 3.40371 -2.29473 0
M  V30 1624 H 147.452 2.88169 -1.24969 0
M  V30 1625 H 146.645 3.61058 -3.51643 0
M  V30 1626 H 146.247 1.90232 -3.22006 0
M  V30 1627 H 148.539 4.45003 -5.10861 0
M  V30 1628 H 149.482 3.39859 -6.2121 0
M  V30 1629 H 149.89 3.4459 -4.47122 0
M  V30 1630 N 149.288 1.51039 0.449983 0
M  V30 1631 C 150.534 1.63322 1.20223 0
M  V30 1632 C 150.867 0.34241 1.91158 0
M  V30 1633 O 150.142 -0.657344 1.83055 0
M  V30 1634 C 150.425 2.82801 2.22925 0
M  V30 1635 C 150.278 4.21823 1.56157 0
M  V30 1636 C 151.597 2.97807 3.24035 0
M  V30 1637 H 148.716 0.594407 0.435718 0
M  V30 1638 H 151.358 1.83489 0.493136 0
M  V30 1639 H 149.508 2.65738 2.834 0
M  V30 1640 H 151.18 4.50526 0.991162 0
M  V30 1641 H 149.423 4.25105 0.864172 0
M  V30 1642 H 150.094 5.01391 2.30891 0
M  V30 1643 H 152.57 3.13497 2.73603 0
M  V30 1644 H 151.446 3.82992 3.93202 0
M  V30 1645 H 151.707 2.09328 3.89402 0
M  V30 1646 N 150.766 -0.704594 1.40972 0
M  V30 1647 C 152.013 -1.46458 1.39844 0
M  V30 1648 C 152.341 -1.94499 0.00447594 0
M  V30 1649 O 151.596 -1.69275 -0.982057 0
M  V30 1650 C 151.895 -2.698 2.34399 0
M  V30 1651 C 151.561 -2.40464 3.81429 0
M  V30 1652 C 150.223 -2.32174 4.21484 0
M  V30 1653 C 152.575 -2.16086 4.74296 0
M  V30 1654 C 149.903 -1.97589 5.52427 0
M  V30 1655 C 152.255 -1.83011 6.05549 0
M  V30 1656 C 150.919 -1.7321 6.44635 0
M  V30 1657 H 150.189 -0.535927 0.511725 0
M  V30 1658 H 152.836 -0.806124 1.73706 0
M  V30 1659 H 151.141 -3.40536 1.93759 0
M  V30 1660 H 152.838 -3.27919 2.30804 0
M  V30 1661 H 149.428 -2.47808 3.49699 0
M  V30 1662 H 153.612 -2.2144 4.4416 0
M  V30 1663 H 148.868 -1.88547 5.81601 0
M  V30 1664 H 153.042 -1.63164 6.77016 0
M  V30 1665 H 150.669 -1.46179 7.46013 0
M  V30 1666 N 152.244 -1.26651 -0.937939 0
M  V30 1667 C 153.66 -1.03834 -1.21205 0
M  V30 1668 C 153.86 0.234502 -2.00131 0
M  V30 1669 O 152.916 0.942767 -2.3424 0
M  V30 1670 C 154.229 -2.27167 -1.97017 0
M  V30 1671 C 155.777 -2.32101 -2.09996 0
M  V30 1672 C 156.252 -3.55136 -2.8921 0
M  V30 1673 N 157.743 -3.55632 -2.96783 0
M  V30 1674 C 158.478 -4.475 -3.58512 0
M  V30 1675 N 157.974 -5.4966 -4.21717 0
M  V30 1676 N 159.767 -4.35145 -3.55816 0
M  V30 1677 H 151.918 -2.08398 -0.410391 0
M  V30 1678 H 154.181 -0.916031 -0.244114 0
M  V30 1679 H 153.887 -3.19765 -1.46434 0
M  V30 1680 H 153.761 -2.31672 -2.97671 0
M  V30 1681 H 156.148 -1.40015 -2.59769 0
M  V30 1682 H 156.229 -2.31605 -1.08594 0
M  V30 1683 H 155.873 -4.47553 -2.40123 0
M  V30 1684 H 155.803 -3.5288 -3.90875 0
M  V30 1685 H 158.294 -2.81743 -2.51852 0
M  V30 1686 H 158.607 -6.15943 -4.66727 0
M  V30 1687 H 156.952 -5.53514 -4.20294 0
M  V30 1688 H 160.143 -3.5455 -3.05634 0
M  V30 1689 H 160.316 -5.06934 -4.03636 0
M  V30 1690 N 153.722 1.14298 -1.08507 0
M  V30 1691 C 154.67 2.21483 -0.710483 0
M  V30 1692 C 155.664 1.66998 0.284234 0
M  V30 1693 O 156.87 1.79401 0.146692 0
M  V30 1694 H 153.245 0.721578 -0.211729 0
M  V30 1695 H 155.216 2.50348 -1.62384 0
M  V30 1696 C 153.965 3.4743 -0.137007 0
M  V30 1697 H 153.288 3.89686 -0.893592 0
M  V30 1698 H 154.728 4.2391 0.0872789 0
M  V30 1699 C 153.187 3.17548 1.12538 0
M  V30 1700 O 153.717 3.35437 2.21009 0
M  V30 1701 N 151.923 2.71499 1.03617 0
M  V30 1702 H 151.47 2.57143 0.153403 0
M  V30 1703 H 151.428 2.51881 1.88158 0
M  V30 1704 N 155.201 0.870884 1.31352 0
M  V30 1705 C 156.131 0.343096 2.30966 0
M  V30 1706 C 157.112 -0.566507 1.60389 0
M  V30 1707 O 158.297 -0.483336 1.88089 0
M  V30 1708 C 155.427 -0.455487 3.443 0
M  V30 1709 C 154.381 0.361103 4.26474 0
M  V30 1710 C 153.707 -0.563221 5.31725 0
M  V30 1711 C 155.007 1.59566 4.97329 0
M  V30 1712 H 156.701 1.17548 2.75359 0
M  V30 1713 H 154.247 0.566686 1.32381 0
M  V30 1714 H 156.2 -0.83525 4.13039 0
M  V30 1715 H 154.924 -1.32139 2.98675 0
M  V30 1716 H 153.583 0.722825 3.59403 0
M  V30 1717 H 153.231 -1.42643 4.82351 0
M  V30 1718 H 152.931 -0.0207409 5.87596 0
M  V30 1719 H 154.455 -0.939808 6.03324 0
M  V30 1720 H 155.869 1.28728 5.58661 0
M  V30 1721 H 154.266 2.07728 5.63 0
M  V30 1722 H 155.336 2.34798 4.24262 0
M  V30 1723 N 156.679 -1.44442 0.630414 0
M  V30 1724 C 158.095 -1.56832 0.295973 0
M  V30 1725 C 158.295 -1.61806 -1.20088 0
M  V30 1726 O 157.351 -1.5607 -1.9849 0
M  V30 1727 C 158.664 -2.84031 0.987264 0
M  V30 1728 C 160.212 -2.97742 0.96534 0
M  V30 1729 C 160.687 -4.27743 1.63708 0
M  V30 1730 N 162.178 -4.34555 1.60364 0
M  V30 1731 C 162.913 -5.33862 2.09234 0
M  V30 1732 N 162.409 -6.39578 2.66292 0
M  V30 1733 N 164.202 -5.25366 1.99867 0
M  V30 1734 H 156.353 -1.39457 1.60205 0
M  V30 1735 H 158.616 -0.668237 0.672431 0
M  V30 1736 H 158.322 -2.86338 2.04215 0
M  V30 1737 H 158.196 -3.73534 0.524588 0
M  V30 1738 H 160.583 -2.94989 -0.0810639 0
M  V30 1739 H 160.664 -2.09589 1.4665 0
M  V30 1740 H 160.308 -4.31255 2.68293 0
M  V30 1741 H 160.238 -5.14752 1.11076 0
M  V30 1742 H 162.729 -3.58772 1.18705 0
M  V30 1743 H 163.042 -7.11637 3.01317 0
M  V30 1744 H 161.387 -6.40265 2.70343 0
M  V30 1745 H 164.578 -4.41688 1.55013 0
M  V30 1746 H 164.751 -6.02606 2.38265 0
M  V30 1747 N 158.157 -0.370918 -1.53173 0
M  V30 1748 C 159.067 0.480823 -2.2962 0
M  V30 1749 C 160.083 1.08789 -1.35798 0
M  V30 1750 O 161.259 1.09768 -1.68858 0
M  V30 1751 C 158.324 1.60227 -3.07454 0
M  V30 1752 C 157.385 1.0222 -4.16953 0
M  V30 1753 C 156.618 2.0902 -4.91066 0
M  V30 1754 O 156.841 3.30222 -4.65091 0
M  V30 1755 O 155.775 1.71778 -5.76867 0
M  V30 1756 H 159.601 -0.141421 -3.03371 0
M  V30 1757 H 157.186 -0.135146 -1.48787 0
M  V30 1758 H 159.068 2.25417 -3.56041 0
M  V30 1759 H 157.743 2.20982 -2.36535 0
M  V30 1760 H 156.65 0.334064 -3.72605 0
M  V30 1761 H 157.983 0.459131 -4.90054 0
M  V30 1762 N 159.635 1.57281 -0.100228 0
M  V30 1763 C 161.051 1.57527 0.256416 0
M  V30 1764 C 161.251 1.11173 1.68056 0
M  V30 1765 O 160.307 0.79053 2.39806 0
M  V30 1766 C 161.62 3.00673 0.0401747 0
M  V30 1767 C 163.168 3.12815 0.107528 0
M  V30 1768 C 163.643 4.57929 -0.0807834 0
M  V30 1769 N 165.134 4.63193 -0.0261207 0
M  V30 1770 C 165.869 5.73212 -0.146999 0
M  V30 1771 N 165.365 6.92047 -0.322999 0
M  V30 1772 N 167.158 5.62031 -0.0879044 0
M  V30 1773 H 159.309 1.85718 -1.03065 0
M  V30 1774 H 161.572 0.857446 -0.404339 0
M  V30 1775 H 161.278 3.38804 -0.943649 0
M  V30 1776 H 161.152 3.69042 0.780262 0
M  V30 1777 H 163.539 2.74554 1.08186 0
M  V30 1778 H 163.62 2.47028 -0.664134 0
M  V30 1779 H 163.264 4.96886 -1.05201 0
M  V30 1780 H 163.194 5.21783 0.710635 0
M  V30 1781 H 165.685 3.77748 0.107161 0
M  V30 1782 H 165.998 7.7173 -0.406608 0
M  V30 1783 H 164.343 6.94074 -0.358733 0
M  V30 1784 H 167.534 4.68075 0.048498 0
M  V30 1785 H 167.707 6.47734 -0.185557 0
M  V30 1786 N 161.113 -0.173488 1.56642 0
M  V30 1787 C 162.36 -0.890465 1.81871 0
M  V30 1788 C 162.688 -1.82339 0.67696 0
M  V30 1789 O 161.943 -1.92795 -0.335926 0
M  V30 1790 C 162.242 -1.72069 3.13252 0
M  V30 1791 C 161.908 -0.936878 4.41059 0
M  V30 1792 C 160.57 -0.720545 4.75775 0
M  V30 1793 C 162.922 -0.386919 5.19762 0
M  V30 1794 C 160.25 0.0568829 5.86672 0
M  V30 1795 C 162.602 0.37741 6.31473 0
M  V30 1796 C 161.266 0.604563 6.64757 0
M  V30 1797 H 160.536 -0.325844 0.665512 0
M  V30 1798 H 163.183 -0.155527 1.90867 0
M  V30 1799 H 161.488 -2.52496 2.99588 0
M  V30 1800 H 163.185 -2.27844 3.29982 0
M  V30 1801 H 159.775 -1.11553 4.13828 0
M  V30 1802 H 163.959 -0.541398 4.93338 0
M  V30 1803 H 159.215 0.242635 6.10918 0
M  V30 1804 H 163.389 0.810825 6.91664 0
M  V30 1805 H 161.016 1.20885 7.50527 0
M  V30 1806 N 162.591 -1.51276 -0.441967 0
M  V30 1807 C 163.839 -1.63392 -1.18943 0
M  V30 1808 C 164.16 -0.350159 -1.9183 0
M  V30 1809 O 163.43 0.633784 -1.85364 0
M  V30 1810 H 162.01 -0.602164 -0.442049 0
M  V30 1811 H 164.672 -1.88186 -0.507165 0
M  V30 1812 H 163.768 -2.45934 -1.92154 0
M  V30 1813 N 164.069 0.697108 -1.41344 0
M  V30 1814 C 165.318 1.45279 -1.39918 0
M  V30 1815 C 165.631 1.95597 -0.0109624 0
M  V30 1816 O 166.837 2.71208 0.125919 0
M  V30 1817 C 165.293 2.62695 -2.46007 0
M  V30 1818 C 164.901 2.19169 -3.90729 0
M  V30 1819 C 166.645 3.40336 -2.53715 0
M  V30 1820 C 164.552 3.33535 -4.88373 0
M  V30 1821 H 163.482 0.545692 -0.520323 0
M  V30 1822 H 166.133 0.756929 -1.67161 0
M  V30 1823 H 164.515 3.34541 -2.11892 0
M  V30 1824 H 165.689 1.54623 -4.34083 0
M  V30 1825 H 164.004 1.54525 -3.86666 0
M  V30 1826 H 166.601 4.2547 -3.2385 0
M  V30 1827 H 166.944 3.85418 -1.5735 0
M  V30 1828 H 167.477 2.75546 -2.86913 0
M  V30 1829 H 164.216 2.93468 -5.86137 0
M  V30 1830 H 163.736 3.96936 -4.49668 0
M  V30 1831 H 165.415 3.99335 -5.09059 0
M  V30 1832 N 165.547 1.27147 0.931209 0
M  V30 1833 C 166.824 1.0401 1.65654 0
M  V30 1834 C 167.204 -0.426297 2.06751 0
M  V30 1835 O 166.552 -1.40879 1.79904 0
M  V30 1836 C 166.762 1.99834 2.86125 0
M  V30 1837 C 168.11 2.29007 3.57549 0
M  V30 1838 O 169.134 1.97779 2.96246 0
M  V30 1839 O 167.993 2.82222 4.67989 0
M  V30 1840 H 165.087 0.396239 0.725895 0
M  V30 1841 H 167.633 1.38397 0.982056 0
M  V30 1842 H 166.405 2.98744 2.52721 0
M  V30 1843 H 166.028 1.65987 3.61295 0
M  V30 1844 N 167.025 -1.13721 1.09112 0
M  V30 1845 C 168.302 -1.81155 0.737706 0
M  V30 1846 C 168.682 -1.96253 -0.777683 0
M  V30 1847 O 168.03 -1.52807 -1.69889 0
M  V30 1848 C 168.24 -3.16392 1.47299 0
M  V30 1849 C 169.588 -3.91787 1.63671 0
M  V30 1850 O 170.612 -3.26005 1.43524 0
M  V30 1851 O 169.471 -5.0977 1.96969 0
M  V30 1852 H 166.565 -0.783518 0.26463 0
M  V30 1853 H 169.111 -1.20676 1.19312 0
M  V30 1854 H 167.883 -3.0061 2.50498 0
M  V30 1855 H 167.506 -3.8457 1.00953 0
M  V30 1856 N 168.503 -0.877838 -1.30888 0
M  V30 1857 C 169.435 -0.296607 -2.27273 0
M  V30 1858 C 170.448 0.544799 -1.53414 0
M  V30 1859 O 171.637 0.365511 -1.74718 0
M  V30 1860 C 168.737 0.597481 -3.33592 0
M  V30 1861 C 167.91 -0.213251 -4.3688 0
M  V30 1862 C 166.969 0.610208 -5.2265 0
M  V30 1863 O 165.995 0.035441 -5.69189 0
M  V30 1864 N 167.197 1.92071 -5.47804 0
M  V30 1865 H 169.962 -1.12492 -2.77787 0
M  V30 1866 H 167.523 -0.740105 -1.43993 0
M  V30 1867 H 169.515 1.15425 -3.87891 0
M  V30 1868 H 168.085 1.32647 -2.83061 0
M  V30 1869 H 167.305 -0.951466 -3.82545 0
M  V30 1870 H 168.593 -0.769262 -5.02951 0
M  V30 1871 H 167.991 2.4107 -5.11763 0
M  V30 1872 H 166.548 2.42508 -6.05007 0
M  V30 1873 N 169.982 1.44106 -0.638065 0
M  V30 1874 C 171.259 1.95453 -0.0759321 0
M  V30 1875 C 171.639 1.57984 1.40015 0
M  V30 1876 O 170.987 0.857361 2.11806 0
M  V30 1877 C 171.197 3.47655 -0.306132 0
M  V30 1878 C 172.545 4.24114 -0.203008 0
M  V30 1879 O 173.569 3.55405 -0.237871 0
M  V30 1880 O 172.428 5.46381 -0.113827 0
M  V30 1881 H 169.522 0.826797 0.0183332 0
M  V30 1882 H 172.068 1.54122 -0.710251 0
M  V30 1883 H 170.84 3.68 -1.3301 0
M  V30 1884 H 170.463 3.95949 0.361991 0
M  V30 1885 N 171.46 0.379036 1.52974 0
M  V30 1886 C 172.69 -0.20649 2.05566 0
M  V30 1887 C 173.098 -1.41906 1.25137 0
M  V30 1888 O 172.441 -1.81421 0.288464 0
M  V30 1889 C 172.503 -0.651086 3.53555 0
M  V30 1890 C 172.167 0.446626 4.54812 0
M  V30 1891 C 173.164 1.30079 5.03364 0
M  V30 1892 C 170.849 0.610719 4.98573 0
M  V30 1893 C 172.843 2.30426 5.94292 0
M  V30 1894 C 170.53 1.61754 5.89304 0
M  V30 1895 C 171.528 2.46274 6.37054 0
M  V30 1896 O 171.216 3.45237 7.25994 0
M  V30 1897 H 170.948 -0.0372381 0.674974 0
M  V30 1898 H 173.502 0.539718 1.98182 0
M  V30 1899 H 171.732 -1.44911 3.58522 0
M  V30 1900 H 173.421 -1.16112 3.88938 0
M  V30 1901 H 174.187 1.18527 4.70294 0
M  V30 1902 H 170.066 -0.0374044 4.60985 0
M  V30 1903 H 173.61 2.96432 6.31485 0
M  V30 1904 H 169.507 1.73348 6.21788 0
M  V30 1905 H 170.275 3.41124 7.44027 0
M  V30 1906 N 172.938 -1.57226 0.108567 0
M  V30 1907 C 173.87 -2.11809 -0.875752 0
M  V30 1908 C 174.883 -1.05839 -1.23701 0
M  V30 1909 O 176.072 -1.33245 -1.18778 0
M  V30 1910 C 173.172 -2.59411 -2.18081 0
M  V30 1911 C 172.345 -3.89364 -1.99284 0
M  V30 1912 C 171.404 -4.22672 -3.13424 0
M  V30 1913 O 170.43 -4.91668 -2.86795 0
M  V30 1914 N 171.632 -3.79154 -4.3957 0
M  V30 1915 H 174.397 -2.9689 -0.409477 0
M  V30 1916 H 171.958 -1.61721 -0.076158 0
M  V30 1917 H 173.95 -2.7873 -2.93414 0
M  V30 1918 H 172.52 -1.79268 -2.5609 0
M  V30 1919 H 171.74 -3.79059 -1.08203 0
M  V30 1920 H 173.028 -4.74358 -1.84017 0
M  V30 1921 H 172.426 -3.23486 -4.64083 0
M  V30 1922 H 170.983 -4.03602 -5.11809 0
M  V30 1923 N 174.416 0.165178 -1.56732 0
M  V30 1924 C 175.364 1.22369 -1.97809 0
M  V30 1925 C 176.358 1.45488 -0.867741 0
M  V30 1926 O 177.564 1.45995 -1.05288 0
M  V30 1927 H 173.939 0.411486 -0.629431 0
M  V30 1928 H 175.91 0.850425 -2.86025 0
M  V30 1929 C 174.659 2.55403 -2.35934 0
M  V30 1930 H 173.982 2.38438 -3.20916 0
M  V30 1931 H 175.422 3.2814 -2.68514 0
M  V30 1932 C 173.881 3.14611 -1.20506 0
M  V30 1933 O 174.411 3.98626 -0.496016 0
M  V30 1934 N 172.617 2.7379 -0.97403 0
M  V30 1935 H 172.164 2.0557 -1.55238 0
M  V30 1936 H 172.122 3.1374 -0.203573 0
M  V30 1937 N 175.894 1.51508 0.433938 0
M  V30 1938 C 177.119 1.68443 1.21003 0
M  V30 1939 C 177.544 0.382636 1.84167 0
M  V30 1940 O 176.902 -0.65755 1.68956 0
M  V30 1941 C 176.95 2.80405 2.26727 0
M  V30 1942 O 176.054 2.44245 3.32292 0
M  V30 1943 H 175.395 0.561536 0.354363 0
M  V30 1944 H 177.925 1.9809 0.512024 0
M  V30 1945 H 177.935 3.0459 2.71457 0
M  V30 1946 H 176.61 3.74867 1.80132 0
M  V30 1947 H 175.187 2.30644 2.93015 0
M  V30 1948 N 177.372 -0.689602 1.41712 0
M  V30 1949 C 178.618 -1.45181 1.41599 0
M  V30 1950 C 178.951 -1.94181 0.0270081 0
M  V30 1951 O 178.226 -1.6993 -0.946265 0
M  V30 1952 C 178.509 -2.65945 2.42787 0
M  V30 1953 C 178.362 -2.22672 3.90816 0
M  V30 1954 C 179.681 -3.68149 2.41151 0
M  V30 1955 H 176.8 -0.526576 0.515642 0
M  V30 1956 H 179.442 -0.784947 1.73028 0
M  V30 1957 H 177.592 -3.2284 2.16116 0
M  V30 1958 H 179.264 -1.71058 4.28412 0
M  V30 1959 H 177.507 -1.54394 4.05395 0
M  V30 1960 H 178.178 -3.0935 4.57172 0
M  V30 1961 H 180.654 -3.2094 2.64834 0
M  V30 1962 H 179.53 -4.50248 3.13955 0
M  V30 1963 H 179.791 -4.18259 1.43221 0
M  V30 1964 N 178.85 -1.27639 -0.924453 0
M  V30 1965 C 180.078 -1.16989 -1.70649 0
M  V30 1966 C 180.493 0.272869 -1.86818 0
M  V30 1967 O 179.85 1.18549 -1.38753 0
M  V30 1968 C 179.901 -1.85229 -3.10439 0
M  V30 1969 O 179.622 -3.23868 -2.95028 0
M  V30 1970 C 181.123 -1.80746 -4.04779 0
M  V30 1971 H 178.343 -0.406595 -0.53378 0
M  V30 1972 H 180.887 -1.68569 -1.15778 0
M  V30 1973 H 179.042 -1.37545 -3.6216 0
M  V30 1974 H 179.456 -3.57889 -3.83426 0
M  V30 1975 H 180.93 -2.33101 -5.00368 0
M  V30 1976 H 181.407 -0.777499 -4.32263 0
M  V30 1977 H 182.013 -2.28059 -3.58984 0
M  V30 1978 N 180.328 1.1314 -1.09713 0
M  V30 1979 C 181.744 1.36477 -0.827423 0
M  V30 1980 C 181.944 1.93654 0.556817 0
M  V30 1981 O 181 2.15791 1.31112 0
M  V30 1982 C 182.313 2.31334 -1.92106 0
M  V30 1983 C 183.861 2.44943 -1.94864 0
M  V30 1984 C 184.336 3.4311 -3.0338 0
M  V30 1985 N 185.827 3.50662 -3.02639 0
M  V30 1986 C 186.562 4.2651 -3.83246 0
M  V30 1987 N 186.058 5.05485 -4.73768 0
M  V30 1988 N 187.851 4.2184 -3.71493 0
M  V30 1989 H 180.002 0.743807 -1.9895 0
M  V30 1990 H 182.265 0.389823 -0.864143 0
M  V30 1991 H 181.971 1.96483 -2.91698 0
M  V30 1992 H 181.845 3.31381 -1.80184 0
M  V30 1993 H 184.232 2.79079 -0.959099 0
M  V30 1994 H 184.313 1.4481 -2.10864 0
M  V30 1995 H 183.957 3.09704 -4.02549 0
M  V30 1996 H 183.887 4.43055 -2.84622 0
M  V30 1997 H 186.378 2.94315 -2.37039 0
M  V30 1998 H 186.691 5.60675 -5.3185 0
M  V30 1999 H 185.036 5.04708 -4.77802 0
M  V30 2000 H 188.227 3.5922 -3.00131 0
M  V30 2001 H 188.4 4.80697 -4.3455 0
M  V30 2002 N 181.806 0.884767 1.30421 0
M  V30 2003 C 183.031 0.517288 2.00845 0
M  V30 2004 C 183.456 -0.886779 1.65885 0
M  V30 2005 O 182.814 -1.58768 0.875354 0
M  V30 2006 C 182.862 0.698994 3.5376 0
M  V30 2007 O 181.966 -0.255208 4.1161 0
M  V30 2008 H 181.307 0.203872 0.631927 0
M  V30 2009 H 183.837 1.19225 1.66272 0
M  V30 2010 H 183.847 0.597912 4.03595 0
M  V30 2011 H 182.522 1.72271 3.78544 0
M  V30 2012 H 181.099 -0.10784 3.72744 0
M  V30 2013 N 183.284 -1.43765 0.645699 0
M  V30 2014 C 184.247 -2.29163 -0.0409488 0
M  V30 2015 C 185.247 -1.41813 -0.757996 0
M  V30 2016 O 186.437 -1.63527 -0.600382 0
M  V30 2017 C 183.569 -3.23716 -1.06869 0
M  V30 2018 H 184.762 -2.91366 0.710345 0
M  V30 2019 H 182.315 -1.5092 0.406547 0
M  V30 2020 H 183.05 -2.66393 -1.84947 0
M  V30 2021 H 182.835 -3.88105 -0.558277 0
M  V30 2022 H 184.325 -3.87831 -1.54845 0
M  V30 2023 N 184.763 -0.387143 -1.52771 0
M  V30 2024 C 186.174 0.0873634 -1.86495 0
M  V30 2025 C 186.525 1.46336 -1.30691 0
M  V30 2026 O 185.65 2.068 -0.637409 0
M  V30 2027 C 186.245 0.165305 -3.38396 0
M  V30 2028 C 184.804 0.584101 -3.7184 0
M  V30 2029 C 183.951 -0.255279 -2.76122 0
M  V30 2030 H 186.902 -0.605104 -1.46711 0
M  V30 2031 H 186.923 0.984848 -3.67534 0
M  V30 2032 H 186.435 -0.836301 -3.78982 0
M  V30 2033 H 184.536 1.59315 -3.36823 0
M  V30 2034 H 184.649 0.343749 -4.77865 0
M  V30 2035 H 183.013 0.279126 -2.53166 0
M  V30 2036 H 183.796 -1.25482 -3.19545 0
M  V30 2037 N 186.241 1.57166 -0.116904 0
M  V30 2038 C 187.49 1.94298 0.541407 0
M  V30 2039 C 187.803 1.00236 1.67964 0
M  V30 2040 O 189.009 1.26826 2.40057 0
M  V30 2041 C 187.465 3.45306 1.01449 0
M  V30 2042 C 187.073 4.47899 -0.0951738 0
M  V30 2043 C 188.817 3.91361 1.6443 0
M  V30 2044 C 186.724 5.90083 0.394491 0
M  V30 2045 H 185.654 0.725308 0.206019 0
M  V30 2046 H 188.305 1.82446 -0.196419 0
M  V30 2047 H 186.687 3.52385 1.80667 0
M  V30 2048 H 187.861 4.52486 -0.871374 0
M  V30 2049 H 186.176 4.11583 -0.631505 0
M  V30 2050 H 188.773 4.95004 2.02176 0
M  V30 2051 H 189.116 3.3122 2.52189 0
M  V30 2052 H 189.649 3.87073 0.917559 0
M  V30 2053 H 186.388 6.53974 -0.447004 0
M  V30 2054 H 185.908 5.88921 1.13722 0
M  V30 2055 H 187.587 6.41307 0.856399 0
M  V30 2056 N 187.719 -0.156864 1.56817 0
M  V30 2057 C 188.667 -1.21319 1.98455 0
M  V30 2058 C 189.661 -1.45025 0.875444 0
M  V30 2059 O 190.867 -1.45435 1.0606 0
M  V30 2060 H 187.242 -0.408142 0.631605 0
M  V30 2061 H 189.213 -0.835244 2.86472 0
M  V30 2062 C 187.962 -2.54148 2.37285 0
M  V30 2063 H 187.285 -2.36733 3.22176 0
M  V30 2064 H 188.725 -3.26712 2.70251 0
M  V30 2065 C 187.184 -3.13967 1.22173 0
M  V30 2066 O 187.714 -3.98357 0.517149 0
M  V30 2067 N 185.92 -2.7327 0.988536 0
M  V30 2068 H 185.467 -2.04744 1.56326 0
M  V30 2069 H 185.425 -3.13628 0.220209 0
M  V30 2070 N 189.197 -1.51736 -0.425897 0
M  V30 2071 C 190.422 -1.69082 -1.20108 0
M  V30 2072 C 190.847 -0.392398 -1.83962 0
M  V30 2073 O 190.205 0.64858 -1.69302 0
M  V30 2074 C 190.253 -2.81604 -2.25237 0
M  V30 2075 O 189.357 -2.46004 -3.30992 0
M  V30 2076 H 188.698 -0.563408 -0.35138 0
M  V30 2077 H 191.228 -1.98358 -0.501512 0
M  V30 2078 H 191.238 -3.06025 -2.69838 0
M  V30 2079 H 189.913 -3.75817 -1.78142 0
M  V30 2080 H 188.49 -2.32195 -2.91787 0
M  V30 2081 N 190.675 0.682077 -1.42076 0
M  V30 2082 C 191.952 1.43755 -1.32642 0
M  V30 2083 C 192.332 2.11063 0.0396611 0
M  V30 2084 O 191.68 2.02701 1.05474 0
M  V30 2085 C 191.89 2.44596 -2.48946 0
M  V30 2086 C 193.238 3.09454 -2.9073 0
M  V30 2087 O 194.262 2.54922 -2.48783 0
M  V30 2088 O 193.121 4.08253 -3.63307 0
M  V30 2089 H 190.215 0.640857 -0.522715 0
M  V30 2090 H 192.761 0.711415 -1.54068 0
M  V30 2091 H 191.533 1.93609 -3.40046 0
M  V30 2092 H 191.156 3.24701 -2.29467 0
M  V30 2093 N 192.153 1.28127 0.917671 0
M  V30 2094 C 193.378 1.18007 1.70555 0
M  V30 2095 C 193.803 -0.258257 1.86319 0
M  V30 2096 O 193.161 -1.1869 1.37049 0
M  V30 2097 C 193.209 1.87948 3.07746 0
M  V30 2098 O 192.313 1.18427 3.9503 0
M  V30 2099 H 191.654 0.409867 0.522403 0
M  V30 2100 H 194.184 1.69379 1.1477 0
M  V30 2101 H 194.194 1.95701 3.58001 0
M  V30 2102 H 192.869 2.92573 2.95591 0
M  V30 2103 H 191.446 1.18811 3.53466 0
M  V30 2104 N 193.631 -1.12557 1.10312 0
M  V30 2105 C 194.563 -2.17971 0.708625 0
M  V30 2106 C 195.576 -1.60806 -0.254027 0
M  V30 2107 O 196.765 -1.78458 -0.0386891 0
M  V30 2108 C 193.865 -3.38891 0.0248198 0
M  V30 2109 C 193.038 -4.25548 1.01132 0
M  V30 2110 C 192.097 -5.24972 0.35924 0
M  V30 2111 O 191.123 -5.60174 1.00965 0
M  V30 2112 N 192.325 -5.73747 -0.882847 0
M  V30 2113 H 195.09 -2.52427 1.61557 0
M  V30 2114 H 192.651 -1.27967 0.991771 0
M  V30 2115 H 194.643 -4.02485 -0.422852 0
M  V30 2116 H 193.213 -3.02596 -0.784514 0
M  V30 2117 H 192.433 -3.58589 1.6373 0
M  V30 2118 H 193.721 -4.80294 1.67914 0
M  V30 2119 H 193.119 -5.4731 -1.43065 0
M  V30 2120 H 191.676 -6.39234 -1.27369 0
M  V30 2121 N 195.109 -0.891671 -1.2995 0
M  V30 2122 C 196.357 -0.512486 -1.95494 0
M  V30 2123 C 196.678 0.942776 -1.70695 0
M  V30 2124 O 195.948 1.66374 -1.03424 0
M  V30 2125 H 194.528 -0.186533 -0.723336 0
M  V30 2126 H 197.19 -1.13621 -1.58355 0
M  V30 2127 H 196.286 -0.688342 -3.04415 0
M  V30 2128 N 196.587 1.43421 -0.653314 0
M  V30 2129 C 198.003 1.56341 -0.320886 0
M  V30 2130 C 198.203 1.63696 1.17499 0
M  V30 2131 O 197.259 1.59208 1.95982 0
M  V30 2132 C 198.572 2.82424 -1.03233 0
M  V30 2133 C 200.12 2.96168 -1.01259 0
M  V30 2134 C 200.595 4.25084 -1.70492 0
M  V30 2135 N 202.086 4.31948 -1.67257 0
M  V30 2136 C 202.821 5.30466 -2.17701 0
M  V30 2137 N 202.317 6.35261 -2.76434 0
M  V30 2138 N 204.11 5.2212 -2.082 0
M  V30 2139 H 196.261 1.3689 -1.62403 0
M  V30 2140 H 198.524 0.657455 -0.682977 0
M  V30 2141 H 198.23 2.83053 -2.08744 0
M  V30 2142 H 198.104 3.72653 -0.583948 0
M  V30 2143 H 200.491 2.9508 0.0341235 0
M  V30 2144 H 200.572 2.07229 -1.49966 0
M  V30 2145 H 200.216 4.26932 -2.7512 0
M  V30 2146 H 200.146 5.1292 -1.19251 0
M  V30 2147 H 202.637 3.56838 -1.24398 0
M  V30 2148 H 202.95 7.06754 -3.12601 0
M  V30 2149 H 201.295 6.35884 -2.80495 0
M  V30 2150 H 204.486 4.39166 -1.62021 0
M  V30 2151 H 204.659 5.98739 -2.47822 0
M  V30 2152 N 198.065 0.39524 1.52563 0
M  V30 2153 C 199.305 -0.184744 2.03563 0
M  V30 2154 C 199.669 -1.43548 1.27507 0
M  V30 2155 O 200.87 -2.093 1.68662 0
M  V30 2156 C 199.141 -0.440294 3.54678 0
M  V30 2157 S 200.7 -0.989712 4.27493 0
M  V30 2158 H 197.518 -0.0515075 0.709132 0
M  V30 2159 H 200.12 0.544957 1.87751 0
M  V30 2160 H 198.824 0.477005 4.07618 0
M  V30 2161 H 198.355 -1.19825 3.74707 0
M  V30 2162 H 200.37 -2.27155 4.41152 0
M  V30 2163 N 199.544 -1.57102 0.125237 0
M  V30 2164 C 200.792 -1.95021 -0.530198 0
M  V30 2165 C 201.113 -1.00982 -1.66816 0
M  V30 2166 O 200.383 -0.0672693 -1.95784 0
M  V30 2167 H 198.963 -0.720046 -0.198853 0
M  V30 2168 H 201.625 -1.93916 0.19564 0
M  V30 2169 H 200.721 -2.98211 -0.920681 0
M  V30 2170 N 201.022 0.148545 -1.56898 0
M  V30 2171 C 202.25 0.876389 -1.87422 0
M  V30 2172 C 202.665 1.74809 -0.713256 0
M  V30 2173 O 202.022 1.79725 0.317025 0
M  V30 2174 C 202.073 1.73438 -3.17178 0
M  V30 2175 O 201.794 0.897809 -4.28802 0
M  V30 2176 C 203.295 2.56993 -3.61205 0
M  V30 2177 H 200.515 0.253489 -0.621277 0
M  V30 2178 H 203.059 0.141798 -2.04008 0
M  V30 2179 H 201.214 2.42205 -3.0235 0
M  V30 2180 H 201.628 1.48672 -5.02988 0
M  V30 2181 H 203.102 3.12773 -4.54838 0
M  V30 2182 H 203.579 3.32958 -2.86419 0
M  V30 2183 H 204.185 1.9352 -3.78722 0
M  V30 2184 N 202.5 1.5196 0.417844 0
M  V30 2185 C 203.916 1.40569 0.755816 0
M  V30 2186 C 204.116 0.503316 1.95113 0
M  V30 2187 O 203.172 -0.0341925 2.52477 0
M  V30 2188 C 204.485 2.82947 1.01791 0
M  V30 2189 C 206.033 2.92231 1.12116 0
M  V30 2190 C 206.508 4.35559 1.41608 0
M  V30 2191 N 207.999 4.38753 1.48491 0
M  V30 2192 C 208.734 5.46705 1.7292 0
M  V30 2193 N 208.23 6.64788 1.95011 0
M  V30 2194 N 210.023 5.34209 1.74863 0
M  V30 2195 H 202.174 2.09168 -0.369098 0
M  V30 2196 H 204.437 0.942409 -0.102809 0
M  V30 2197 H 204.143 3.5106 0.212081 0
M  V30 2198 H 204.017 3.23462 1.94042 0
M  V30 2199 H 206.404 2.24304 1.9176 0
M  V30 2200 H 206.485 2.55185 0.177225 0
M  V30 2201 H 206.129 5.04042 0.624848 0
M  V30 2202 H 206.059 4.70133 2.37239 0
M  V30 2203 H 208.55 3.5363 1.33244 0
M  V30 2204 H 208.863 7.42845 2.13076 0
M  V30 2205 H 207.208 6.67869 1.92293 0
M  V30 2206 H 210.399 4.40937 1.57137 0
M  V30 2207 H 210.572 6.18415 1.93563 0
M  V30 2208 N 203.978 -0.674533 1.42435 0
M  V30 2209 C 205.225 -1.43459 1.42919 0
M  V30 2210 C 205.553 -1.94446 0.0457312 0
M  V30 2211 O 204.808 -1.7132 -0.94593 0
M  V30 2212 C 205.107 -2.64767 2.40069 0
M  V30 2213 C 204.773 -2.3232 3.86443 0
M  V30 2214 C 203.435 -2.23182 4.26314 0
M  V30 2215 C 205.787 -2.05977 4.78773 0
M  V30 2216 C 203.115 -1.85827 5.56494 0
M  V30 2217 C 205.467 -1.70125 6.09295 0
M  V30 2218 C 204.131 -1.59498 6.48164 0
M  V30 2219 H 203.401 -0.524952 0.522978 0
M  V30 2220 H 206.048 -0.769097 1.75377 0
M  V30 2221 H 204.353 -3.36349 2.00939 0
M  V30 2222 H 206.05 -3.22949 2.37707 0
M  V30 2223 H 202.64 -2.40334 3.54877 0
M  V30 2224 H 206.824 -2.11969 4.48757 0
M  V30 2225 H 202.08 -1.76168 5.8547 0
M  V30 2226 H 206.254 -1.48767 6.80324 0
M  V30 2227 H 203.881 -1.30322 7.48946 0
M  V30 2228 N 205.456 -1.28612 -0.910864 0
M  V30 2229 C 206.386 -1.15326 -2.03032 0
M  V30 2230 C 207.367 -0.0502924 -1.70026 0
M  V30 2231 O 208.552 -0.227797 -1.92859 0
M  V30 2232 C 205.682 -0.817343 -3.37545 0
M  V30 2233 C 204.636 -1.8754 -3.84724 0
M  V30 2234 C 203.962 -1.39305 -5.16235 0
M  V30 2235 C 205.262 -3.28244 -4.06267 0
M  V30 2236 H 206.956 -2.08975 -2.14406 0
M  V30 2237 H 204.502 -1.00612 -1.03021 0
M  V30 2238 H 206.455 -0.711151 -4.15356 0
M  V30 2239 H 205.179 0.154846 -3.26233 0
M  V30 2240 H 203.838 -1.97079 -3.09121 0
M  V30 2241 H 203.486 -0.409846 -5.01328 0
M  V30 2242 H 203.186 -2.10057 -5.48771 0
M  V30 2243 H 204.71 -1.30014 -5.96598 0
M  V30 2244 H 206.124 -3.21611 -4.74594 0
M  V30 2245 H 204.521 -3.96855 -4.5014 0
M  V30 2246 H 205.591 -3.72048 -3.10979 0
M  V30 2247 N 206.934 1.1197 -1.10907 0
M  V30 2248 C 208.162 1.87402 -0.876824 0
M  V30 2249 C 208.577 1.79894 0.573025 0
M  V30 2250 O 207.934 1.17629 1.39534 0
M  V30 2251 C 207.985 3.36428 -1.32282 0
M  V30 2252 O 207.706 3.43765 -2.71582 0
M  V30 2253 C 209.207 4.28783 -1.12518 0
M  V30 2254 H 206.427 0.592793 -0.314384 0
M  V30 2255 H 208.971 1.41649 -1.47499 0
M  V30 2256 H 207.126 3.79706 -0.768229 0
M  V30 2257 H 207.54 4.3652 -2.90776 0
M  V30 2258 H 209.014 5.31613 -1.48633 0
M  V30 2259 H 209.491 4.39153 -0.0642394 0
M  V30 2260 H 210.097 3.91291 -1.66648 0
M  V30 2261 N 208.412 0.89855 1.29475 0
M  V30 2262 C 209.64 0.539261 1.99749 0
M  V30 2263 C 210.055 -0.875716 1.67262 0
M  V30 2264 O 209.412 -1.57786 0.917049 0
M  V30 2265 C 209.463 0.72061 3.54245 0
M  V30 2266 O 209.184 2.07989 3.8558 0
M  V30 2267 C 210.685 0.366118 4.41786 0
M  V30 2268 H 207.905 0.207047 0.638258 0
M  V30 2269 H 210.449 1.20758 1.65039 0
M  V30 2270 H 208.604 0.0994862 3.87272 0
M  V30 2271 H 209.018 2.10841 4.80257 0
M  V30 2272 H 210.492 0.543848 5.49314 0
M  V30 2273 H 210.969 -0.696763 4.33638 0
M  V30 2274 H 211.575 0.964135 4.14228 0
M  V30 2275 N 209.89 -1.43072 0.660911 0
M  V30 2276 C 211.12 -2.05769 0.185153 0
M  V30 2277 C 211.528 -1.49668 -1.15742 0
M  V30 2278 O 210.871 -0.625649 -1.72717 0
M  V30 2279 C 210.933 -3.59489 0.0278237 0
M  V30 2280 C 210.597 -4.38212 1.2969 0
M  V30 2281 C 211.594 -4.69772 2.22734 0
M  V30 2282 C 209.279 -4.7809 1.54063 0
M  V30 2283 C 211.273 -5.40129 3.38437 0
M  V30 2284 C 208.96 -5.4819 2.70058 0
M  V30 2285 C 209.958 -5.79132 3.62071 0
M  V30 2286 O 209.646 -6.47798 4.76039 0
M  V30 2287 H 209.378 -0.669873 0.0908086 0
M  V30 2288 H 211.932 -1.84436 0.90402 0
M  V30 2289 H 210.162 -3.79426 -0.746489 0
M  V30 2290 H 211.851 -4.03862 -0.406275 0
M  V30 2291 H 212.617 -4.39476 2.05149 0
M  V30 2292 H 208.496 -4.53408 0.833215 0
M  V30 2293 H 212.04 -5.64198 4.10277 0
M  V30 2294 H 207.937 -5.77902 2.87574 0
M  V30 2295 H 208.705 -6.66283 4.75404 0
M  V30 2296 N 211.368 -0.403325 -1.52352 0
M  V30 2297 C 212.645 0.232611 -1.94212 0
M  V30 2298 C 213.025 1.63133 -1.33981 0
M  V30 2299 O 212.373 2.22659 -0.513344 0
M  V30 2300 C 212.583 0.244811 -3.4814 0
M  V30 2301 C 213.931 0.46698 -4.22024 0
M  V30 2302 O 214.955 0.324419 -3.5472 0
M  V30 2303 O 213.814 0.74747 -5.41364 0
M  V30 2304 H 210.908 0.148223 -0.813609 0
M  V30 2305 H 213.454 -0.458848 -1.63379 0
M  V30 2306 H 212.226 -0.734378 -3.84347 0
M  V30 2307 H 211.849 0.980611 -3.85318 0
M  V30 2308 N 212.846 1.57033 -0.133567 0
M  V30 2309 C 214.262 1.58035 0.222944 0
M  V30 2310 C 214.462 1.14713 1.6566 0
M  V30 2311 O 213.518 0.841218 2.38075 0
M  V30 2312 C 214.831 3.00691 -0.0236116 0
M  V30 2313 C 216.379 3.12973 0.0411512 0
M  V30 2314 C 216.854 4.57654 -0.177899 0
M  V30 2315 N 218.345 4.63033 -0.124365 0
M  V30 2316 C 219.08 5.72771 -0.268553 0
M  V30 2317 N 218.576 6.91206 -0.46972 0
M  V30 2318 N 220.369 5.61718 -0.2071 0
M  V30 2319 H 212.52 1.8349 -1.06981 0
M  V30 2320 H 214.783 0.848677 -0.422436 0
M  V30 2321 H 214.489 3.36726 -1.0153 0
M  V30 2322 H 214.363 3.70614 0.701808 0
M  V30 2323 H 216.75 2.76787 1.02338 0
M  V30 2324 H 216.831 2.45564 -0.716383 0
M  V30 2325 H 216.475 4.94542 -1.15717 0
M  V30 2326 H 216.405 5.23173 0.599797 0
M  V30 2327 H 218.896 3.7789 0.027011 0
M  V30 2328 H 219.209 7.70693 -0.570212 0
M  V30 2329 H 217.554 6.93156 -0.505876 0
M  V30 2330 H 220.745 4.68072 -0.0507986 0
M  V30 2331 H 220.918 6.47195 -0.322909 0
M  V30 2332 N 214.325 -0.140222 1.56975 0
M  V30 2333 C 215.741 -0.493088 1.51792 0
M  V30 2334 C 215.941 -1.83013 0.843116 0
M  V30 2335 O 214.997 -2.49041 0.416493 0
M  V30 2336 C 216.31 -0.497144 2.96562 0
M  V30 2337 C 217.858 -0.582186 3.07538 0
M  V30 2338 C 218.333 -0.616838 4.53827 0
M  V30 2339 N 219.824 -0.678873 4.58198 0
M  V30 2340 C 220.559 -0.726782 5.68775 0
M  V30 2341 N 220.055 -0.733623 6.88905 0
M  V30 2342 N 221.848 -0.768179 5.56826 0
M  V30 2343 H 213.999 0.736108 1.99237 0
M  V30 2344 H 216.262 0.269182 0.90898 0
M  V30 2345 H 215.968 0.417217 3.49217 0
M  V30 2346 H 215.842 -1.33263 3.52875 0
M  V30 2347 H 218.229 -1.48697 2.54899 0
M  V30 2348 H 218.31 0.280581 2.54257 0
M  V30 2349 H 217.954 0.283812 5.07106 0
M  V30 2350 H 217.884 -1.49619 5.04898 0
M  V30 2351 H 220.375 -0.68061 3.7172 0
M  V30 2352 H 220.688 -0.772215 7.68932 0
M  V30 2353 H 219.033 -0.701389 6.91452 0
M  V30 2354 H 222.224 -0.760051 4.61888 0
M  V30 2355 H 222.397 -0.80205 6.43017 0
M  V30 2356 N 215.803 -1.52179 -0.40978 0
M  V30 2357 C 217.05 -1.66206 -1.15679 0
M  V30 2358 C 217.378 -0.391674 -1.90516 0
M  V30 2359 O 216.633 0.62533 -1.8544 0
M  V30 2360 C 216.932 -2.83428 -2.17723 0
M  V30 2361 C 216.598 -4.21672 -1.59699 0
M  V30 2362 C 215.26 -4.59274 -1.43599 0
M  V30 2363 C 217.612 -5.07825 -1.17317 0
M  V30 2364 C 214.94 -5.80709 -0.836328 0
M  V30 2365 C 217.292 -6.29864 -0.587691 0
M  V30 2366 C 215.956 -6.66216 -0.413818 0
M  V30 2367 H 215.226 -0.608192 -0.423301 0
M  V30 2368 H 217.873 -1.86279 -0.444097 0
M  V30 2369 H 216.178 -2.57687 -2.95135 0
M  V30 2370 H 217.875 -2.91477 -2.75394 0
M  V30 2371 H 214.465 -3.9204 -1.73213 0
M  V30 2372 H 218.649 -4.79359 -1.28565 0
M  V30 2373 H 213.905 -6.07498 -0.689626 0
M  V30 2374 H 218.079 -6.95948 -0.250894 0
M  V30 2375 H 215.706 -7.60182 0.0529471 0
M  V30 2376 N 217.281 0.66697 -1.42791 0
M  V30 2377 C 218.527 1.4291 -1.43891 0
M  V30 2378 C 218.86 1.94114 -0.0578972 0
M  V30 2379 O 218.135 1.71414 0.91911 0
M  V30 2380 C 218.418 2.62049 -2.46987 0
M  V30 2381 C 218.271 2.16426 -3.94309 0
M  V30 2382 C 219.59 3.64266 -2.46978 0
M  V30 2383 H 216.709 0.518306 -0.523954 0
M  V30 2384 H 219.351 0.757321 -1.74255 0
M  V30 2385 H 217.501 3.19361 -2.21225 0
M  V30 2386 H 219.173 1.64221 -4.31079 0
M  V30 2387 H 217.416 1.47925 -4.078 0
M  V30 2388 H 218.087 3.02038 -4.62036 0
M  V30 2389 H 220.563 3.16686 -2.69906 0
M  V30 2390 H 219.439 4.45196 -3.21079 0
M  V30 2391 H 219.7 4.15927 -1.49857 0
M  V30 2392 N 218.759 1.29093 0.90403 0
M  V30 2393 C 220.008 1.16187 1.64874 0
M  V30 2394 C 220.321 -0.286742 1.93487 0
M  V30 2395 O 221.527 -0.537062 2.66135 0
M  V30 2396 C 219.983 2.03177 2.97064 0
M  V30 2397 C 219.591 3.52836 2.76062 0
M  V30 2398 C 221.335 1.98984 3.74974 0
M  V30 2399 C 219.242 4.31945 4.03952 0
M  V30 2400 H 218.172 0.431246 0.618501 0
M  V30 2401 H 220.823 1.53699 1.00243 0
M  V30 2402 H 219.205 1.5853 3.62883 0
M  V30 2403 H 220.379 4.05507 2.18863 0
M  V30 2404 H 218.694 3.58656 2.11553 0
M  V30 2405 H 221.291 2.55351 4.69787 0
M  V30 2406 H 221.634 0.968815 4.0487 0
M  V30 2407 H 222.167 2.41652 3.15989 0
M  V30 2408 H 218.906 5.34667 3.79225 0
M  V30 2409 H 218.426 3.84045 4.60727 0
M  V30 2410 H 220.105 4.42379 4.72133 0
M  V30 2411 N 220.237 -1.11381 1.11499 0
M  V30 2412 C 221.184 -2.17439 0.773887 0
M  V30 2413 C 222.154 -1.64132 -0.254899 0
M  V30 2414 O 223.339 -1.90345 -0.13168 0
M  V30 2415 C 220.479 -3.44373 0.223917 0
M  V30 2416 C 219.592 -4.1168 1.30934 0
M  V30 2417 C 218.727 -5.263 0.71984 0
M  V30 2418 C 217.766 -5.85493 1.78507 0
M  V30 2419 N 216.903 -6.91507 1.21502 0
M  V30 2420 H 221.743 -2.45962 1.68246 0
M  V30 2421 H 219.28 -1.20744 0.840191 0
M  V30 2422 H 221.238 -4.17047 -0.112921 0
M  V30 2423 H 219.868 -3.16232 -0.647851 0
M  V30 2424 H 218.92 -3.37073 1.76312 0
M  V30 2425 H 220.232 -4.51729 2.11524 0
M  V30 2426 H 219.386 -6.05785 0.333094 0
M  V30 2427 H 218.125 -4.87559 -0.117377 0
M  V30 2428 H 217.13 -5.04686 2.18111 0
M  V30 2429 H 218.355 -6.26301 2.62533 0
M  V30 2430 H 216.301 -6.54783 0.399455 0
M  V30 2431 H 216.218 -7.30214 1.95763 0
M  V30 2432 H 217.486 -7.74795 0.855181 0
M  V30 2433 N 221.715 -0.905404 -1.28997 0
M  V30 2434 C 222.943 -0.549846 -1.9946 0
M  V30 2435 C 223.358 0.866834 -1.67724 0
M  V30 2436 O 222.715 1.57298 -0.925404 0
M  V30 2437 C 222.766 -0.739387 -3.53858 0
M  V30 2438 O 222.487 -2.10031 -3.84472 0
M  V30 2439 C 223.988 -0.389541 -4.41585 0
M  V30 2440 H 221.208 -0.210429 -0.637151 0
M  V30 2441 H 223.752 -1.21632 -1.64396 0
M  V30 2442 H 221.907 -0.120023 -3.87214 0
M  V30 2443 H 222.321 -2.13385 -4.79132 0
M  V30 2444 H 223.795 -0.572972 -5.49018 0
M  V30 2445 H 224.272 0.673756 -4.34001 0
M  V30 2446 H 224.878 -0.986089 -4.1371 0
M  V30 2447 N 223.193 1.4272 -0.668489 0
M  V30 2448 C 224.439 2.01923 -0.188419 0
M  V30 2449 C 224.772 1.52704 1.19979 0
M  V30 2450 O 224.047 0.726566 1.8042 0
M  V30 2451 C 224.33 3.59451 -0.216085 0
M  V30 2452 C 224.183 4.18864 -1.6393 0
M  V30 2453 C 225.502 4.37903 0.439179 0
M  V30 2454 H 222.621 0.733674 -0.0699412 0
M  V30 2455 H 225.263 1.69822 -0.852076 0
M  V30 2456 H 223.413 3.86929 0.349012 0
M  V30 2457 H 225.085 4.02362 -2.25616 0
M  V30 2458 H 223.328 3.74933 -2.18193 0
M  V30 2459 H 223.999 5.27987 -1.61039 0
M  V30 2460 H 226.475 4.16079 -0.0417878 0
M  V30 2461 H 225.351 5.47519 0.389157 0
M  V30 2462 H 225.612 4.15303 1.51577 0
M  V30 2463 N 224.671 0.411399 1.52136 0
M  V30 2464 C 225.896 -0.165538 2.06738 0
M  V30 2465 C 226.321 -1.379 1.27926 0
M  V30 2466 O 225.679 -1.78628 0.310114 0
M  V30 2467 C 225.727 -0.492124 3.57226 0
M  V30 2468 O 224.831 -1.58276 3.80818 0
M  V30 2469 H 224.172 -0.0132132 0.663869 0
M  V30 2470 H 226.702 0.585253 1.96051 0
M  V30 2471 H 226.712 -0.750104 4.01045 0
M  V30 2472 H 225.387 0.394922 4.14021 0
M  V30 2473 H 223.964 -1.31677 3.48877 0
M  V30 2474 N 226.149 -1.5696 0.141893 0
M  V30 2475 C 227.374 -2.00754 -0.520838 0
M  V30 2476 C 227.799 -1.0213 -1.57959 0
M  V30 2477 O 227.157 0.00371324 -1.813 0
M  V30 2478 C 227.205 -3.43318 -1.10294 0
M  V30 2479 O 226.309 -3.47679 -2.21795 0
M  V30 2480 H 225.65 -0.651564 -0.127908 0
M  V30 2481 H 228.18 -2.03221 0.23712 0
M  V30 2482 H 228.19 -3.82012 -1.43287 0
M  V30 2483 H 226.865 -4.14608 -0.327574 0
M  V30 2484 H 225.442 -3.20824 -1.9007 0
M  V30 2485 N 227.627 0.131896 -1.57047 0
M  V30 2486 C 228.537 1.1815 -2.02676 0
M  V30 2487 C 229.553 1.46113 -0.944824 0
M  V30 2488 O 230.729 1.57485 -1.25541 0
M  V30 2489 C 227.794 2.49139 -2.41103 0
M  V30 2490 C 226.855 2.28688 -3.63318 0
M  V30 2491 C 226.088 3.53431 -3.99903 0
M  V30 2492 O 226.311 4.60223 -3.36973 0
M  V30 2493 O 225.245 3.45198 -4.93074 0
M  V30 2494 H 229.071 0.824069 -2.92306 0
M  V30 2495 H 226.656 0.341745 -1.45439 0
M  V30 2496 H 228.538 3.26338 -2.66611 0
M  V30 2497 H 227.213 2.84382 -1.54624 0
M  V30 2498 H 226.12 1.4939 -3.42977 0
M  V30 2499 H 227.453 1.98355 -4.50462 0
M  V30 2500 N 229.106 1.52395 0.401703 0
M  V30 2501 C 230.383 1.57387 1.16141 0
M  V30 2502 C 230.763 0.359359 2.08019 0
M  V30 2503 O 230.111 -0.65326 2.18963 0
M  V30 2504 C 230.321 2.90631 1.93221 0
M  V30 2505 C 231.669 3.43904 2.49028 0
M  V30 2506 O 232.693 2.92421 2.03393 0
M  V30 2507 O 231.552 4.33823 3.32356 0
M  V30 2508 H 228.646 0.634262 0.530698 0
M  V30 2509 H 231.192 1.64725 0.407883 0
M  V30 2510 H 229.964 3.70473 1.25958 0
M  V30 2511 H 229.587 2.8662 2.75563 0
M  V30 2512 N 230.584 -0.659388 1.43143 0
M  V30 2513 C 231.83 -1.42145 1.44647 0
M  V30 2514 C 232.163 -1.9408 0.0681907 0
M  V30 2515 O 231.438 -1.71899 -0.910007 0
M  V30 2516 C 231.721 -2.60735 2.48373 0
M  V30 2517 C 231.574 -2.14332 3.95451 0
M  V30 2518 C 232.893 -3.62951 2.48906 0
M  V30 2519 H 230.012 -0.51552 0.526696 0
M  V30 2520 H 232.654 -0.748069 1.74654 0
M  V30 2521 H 230.804 -3.18184 2.22916 0
M  V30 2522 H 232.476 -1.61932 4.31944 0
M  V30 2523 H 230.719 -1.4576 4.08578 0
M  V30 2524 H 231.39 -2.99583 4.63631 0
M  V30 2525 H 233.866 -3.1525 2.71582 0
M  V30 2526 H 232.742 -4.43487 3.23435 0
M  V30 2527 H 233.003 -4.15126 1.52061 0
M  V30 2528 N 232.062 -1.29571 -0.897171 0
M  V30 2529 C 233.025 -1.14913 -1.98312 0
M  V30 2530 C 234.025 -0.0838629 -1.60581 0
M  V30 2531 O 235.215 -0.331006 -1.71026 0
M  V30 2532 C 232.347 -0.757835 -3.3237 0
M  V30 2533 H 233.54 -2.11377 -2.12743 0
M  V30 2534 H 231.093 -1.12793 -1.08201 0
M  V30 2535 H 231.828 0.206837 -3.2364 0
M  V30 2536 H 231.613 -1.52755 -3.61121 0
M  V30 2537 H 233.103 -0.678408 -4.12053 0
M  V30 2538 N 233.54 1.10788 -1.12088 0
M  V30 2539 C 234.45 2.20599 -0.798338 0
M  V30 2540 C 235.466 1.72712 0.21135 0
M  V30 2541 O 236.642 2.01348 0.0458477 0
M  V30 2542 C 233.707 3.45771 -0.253674 0
M  V30 2543 C 232.768 4.08411 -1.32283 0
M  V30 2544 C 232.001 5.27608 -0.80406 0
M  V30 2545 O 232.224 5.69241 0.363478 0
M  V30 2546 O 231.158 5.8101 -1.57198 0
M  V30 2547 H 234.984 2.50614 -1.7154 0
M  V30 2548 H 232.569 1.19454 -0.897275 0
M  V30 2549 H 234.451 4.21376 0.0453691 0
M  V30 2550 H 233.126 3.1739 0.636005 0
M  V30 2551 H 232.033 3.34507 -1.67499 0
M  V30 2552 H 233.366 4.40986 -2.18614 0
M  V30 2553 N 235.018 0.912232 1.28515 0
M  V30 2554 C 235.951 0.343928 2.25593 0
M  V30 2555 C 236.929 -0.550994 1.5298 0
M  V30 2556 O 238.113 -0.494991 1.81885 0
M  V30 2557 C 235.24 -0.508525 3.34861 0
M  V30 2558 C 234.286 0.320808 4.25292 0
M  V30 2559 S 235.119 1.72658 5.06902 0
M  V30 2560 C 236.275 0.881394 6.19663 0
M  V30 2561 H 236.508 1.16674 2.73449 0
M  V30 2562 H 234.041 0.713384 1.36931 0
M  V30 2563 H 235.999 -0.994539 3.9827 0
M  V30 2564 H 234.66 -1.30571 2.85675 0
M  V30 2565 H 233.853 -0.330941 5.02912 0
M  V30 2566 H 233.455 0.74042 3.66598 0
M  V30 2567 H 235.747 0.110359 6.7741 0
M  V30 2568 H 236.69 1.63009 6.89082 0
M  V30 2569 H 237.098 0.430239 5.62858 0
M  V30 2570 N 236.496 -1.42363 0.676048 0
M  V30 2571 C 237.446 -2.27987 -0.0242903 0
M  V30 2572 C 238.43 -1.41153 -0.772319 0
M  V30 2573 O 239.622 -1.64592 -0.651025 0
M  V30 2574 C 236.751 -3.29195 -0.973953 0
M  V30 2575 C 235.837 -4.23512 -0.223202 0
M  V30 2576 N 236.228 -4.99865 0.772589 0
M  V30 2577 C 234.526 -4.43606 -0.461469 0
M  V30 2578 C 235.227 -5.68757 1.22027 0
M  V30 2579 N 234.203 -5.40811 0.549975 0
M  V30 2580 H 238.005 -2.84445 0.73949 0
M  V30 2581 H 235.519 -1.54341 0.50522 0
M  V30 2582 H 237.516 -3.89339 -1.49067 0
M  V30 2583 H 236.176 -2.74298 -1.73755 0
M  V30 2584 H 237.187 -5.04921 1.15217 0
M  V30 2585 H 233.864 -3.99749 -1.20446 0
M  V30 2586 H 235.254 -6.40007 2.0455 0
M  V30 2587 N 237.974 -0.419461 -1.51915 0
M  V30 2588 C 238.922 0.415502 -2.28859 0
M  V30 2589 C 239.916 1.03674 -1.3397 0
M  V30 2590 O 241.122 0.973757 -1.51387 0
M  V30 2591 H 237.497 0.152786 -0.736315 0
M  V30 2592 H 239.468 -0.254531 -2.97312 0
M  V30 2593 C 238.217 1.51425 -3.12995 0
M  V30 2594 H 237.54 1.04556 -3.85886 0
M  V30 2595 H 238.98 2.07208 -3.6992 0
M  V30 2596 C 237.439 2.48745 -2.27217 0
M  V30 2597 O 237.969 3.52871 -1.9195 0
M  V30 2598 N 236.175 2.19202 -1.90785 0
M  V30 2599 H 235.722 1.34556 -2.19664 0
M  V30 2600 H 235.68 2.84561 -1.33687 0
M  V30 2601 N 239.452 1.56882 -0.150215 0
M  V30 2602 C 240.701 1.95403 0.500071 0
M  V30 2603 C 241.014 1.03777 1.658 0
M  V30 2604 O 242.22 1.31889 2.37313 0
M  V30 2605 C 240.676 3.4738 0.941018 0
M  V30 2606 C 240.284 4.47596 -0.190158 0
M  V30 2607 C 242.028 3.9476 1.56091 0
M  V30 2608 C 239.935 5.90787 0.269237 0
M  V30 2609 H 238.865 0.729515 0.190588 0
M  V30 2610 H 241.516 1.81988 -0.235074 0
M  V30 2611 H 239.898 3.56138 1.73152 0
M  V30 2612 H 241.072 4.50536 -0.967157 0
M  V30 2613 H 239.387 4.10151 -0.718666 0
M  V30 2614 H 241.984 4.99181 1.9163 0
M  V30 2615 H 242.327 3.36494 2.45107 0
M  V30 2616 H 242.86 3.88932 0.835249 0
M  V30 2617 H 239.599 6.52879 -0.585621 0
M  V30 2618 H 239.119 5.912 1.01204 0
M  V30 2619 H 240.798 6.42979 0.720176 0
M  V30 2620 N 240.93 -0.123565 1.57115 0
M  V30 2621 C 241.86 -1.15309 2.03042 0
M  V30 2622 C 242.841 -1.43454 0.914061 0
M  V30 2623 O 244.026 -1.53973 1.18347 0
M  V30 2624 C 241.156 -2.48043 2.43089 0
M  V30 2625 C 240.11 -2.3437 3.58127 0
M  V30 2626 C 239.436 -3.72026 3.84059 0
M  V30 2627 C 240.736 -1.80804 4.90007 0
M  V30 2628 H 242.43 -0.771102 2.893 0
M  V30 2629 H 239.976 -0.369479 1.39179 0
M  V30 2630 H 241.929 -3.20311 2.73823 0
M  V30 2631 H 240.653 -2.88122 1.53796 0
M  V30 2632 H 239.312 -1.64551 3.27595 0
M  V30 2633 H 238.96 -4.09582 2.91979 0
M  V30 2634 H 238.66 -3.63732 4.6149 0
M  V30 2635 H 240.184 -4.45806 4.1724 0
M  V30 2636 H 241.598 -2.42886 5.19307 0
M  V30 2637 H 239.995 -1.83343 5.71407 0
M  V30 2638 H 241.065 -0.76528 4.78823 0
M  V30 2639 N 242.408 -1.52605 -0.393616 0
M  V30 2640 C 243.355 -1.77055 -1.48054 0
M  V30 2641 C 244.325 -0.61358 -1.54352 0
M  V30 2642 O 245.51 -0.852806 -1.70681 0
M  V30 2643 C 242.65 -1.94108 -2.85335 0
M  V30 2644 C 241.763 -3.21792 -2.88226 0
M  V30 2645 C 240.898 -3.29188 -4.16904 0
M  V30 2646 C 239.937 -4.51013 -4.13828 0
M  V30 2647 N 239.074 -4.55716 -5.34105 0
M  V30 2648 H 243.914 -2.69815 -1.26506 0
M  V30 2649 H 241.451 -1.33683 -0.61379 0
M  V30 2650 H 243.409 -2.01979 -3.65049 0
M  V30 2651 H 242.039 -1.04713 -3.05344 0
M  V30 2652 H 241.091 -3.23015 -2.00911 0
M  V30 2653 H 242.403 -4.11557 -2.8182 0
M  V30 2654 H 241.557 -3.36216 -5.05018 0
M  V30 2655 H 240.296 -2.37389 -4.26026 0
M  V30 2656 H 239.301 -4.44115 -3.24102 0
M  V30 2657 H 240.526 -5.44123 -4.06333 0
M  V30 2658 H 238.472 -3.66807 -5.43865 0
M  V30 2659 H 238.389 -5.39346 -5.29756 0
M  V30 2660 H 239.657 -4.66993 -6.2413 0
M  V30 2661 N 243.887 0.651787 -1.4349 0
M  V30 2662 C 244.834 1.76462 -1.4876 0
M  V30 2663 C 245.804 1.62641 -0.337189 0
M  V30 2664 O 246.989 1.82864 -0.544544 0
M  V30 2665 C 244.129 3.14623 -1.41796 0
M  V30 2666 C 243.242 3.39568 -2.67053 0
M  V30 2667 C 242.377 4.67585 -2.52068 0
M  V30 2668 C 241.416 4.85639 -3.72587 0
M  V30 2669 N 240.553 6.04915 -3.56402 0
M  V30 2670 H 245.393 1.71293 -2.43849 0
M  V30 2671 H 242.93 0.835889 -1.21043 0
M  V30 2672 H 244.888 3.94496 -1.35753 0
M  V30 2673 H 243.518 3.18859 -0.50288 0
M  V30 2674 H 242.57 2.53783 -2.8337 0
M  V30 2675 H 243.882 3.48795 -3.56572 0
M  V30 2676 H 243.036 5.55586 -2.4374 0
M  V30 2677 H 241.775 4.60681 -1.60075 0
M  V30 2678 H 240.78 3.96073 -3.81321 0
M  V30 2679 H 242.005 4.94372 -4.65589 0
M  V30 2680 H 239.951 5.9914 -2.67146 0
M  V30 2681 H 239.868 6.15106 -4.39524 0
M  V30 2682 H 241.136 6.95533 -3.51929 0
M  V30 2683 N 245.365 1.30045 0.890287 0
M  V30 2684 C 246.595 1.21296 1.67245 0
M  V30 2685 C 247.003 -0.227471 1.87828 0
M  V30 2686 O 246.346 -1.16296 1.422 0
M  V30 2687 C 246.408 1.86519 3.07329 0
M  V30 2688 C 246.072 3.35837 3.09939 0
M  V30 2689 C 247.069 4.31915 2.89389 0
M  V30 2690 C 244.754 3.77196 3.31706 0
M  V30 2691 C 246.748 5.67325 2.90552 0
M  V30 2692 C 244.435 5.12725 3.32499 0
M  V30 2693 C 245.433 6.076 3.11947 0
M  V30 2694 O 245.121 7.40655 3.12547 0
M  V30 2695 H 244.853 0.4211 0.528821 0
M  V30 2696 H 247.407 1.72111 1.12103 0
M  V30 2697 H 245.637 1.30228 3.64112 0
M  V30 2698 H 247.326 1.71963 3.67673 0
M  V30 2699 H 248.092 4.01294 2.72375 0
M  V30 2700 H 243.971 3.03796 3.4674 0
M  V30 2701 H 247.515 6.41354 2.74429 0
M  V30 2702 H 243.412 5.42988 3.49047 0
M  V30 2703 H 244.18 7.49577 3.28749 0
M  V30 2704 N 246.843 -1.10192 1.12674 0
M  V30 2705 C 247.793 -2.14754 0.765801 0
M  V30 2706 C 248.777 -1.59154 -0.236409 0
M  V30 2707 O 249.969 -1.76951 -0.0415261 0
M  V30 2708 C 247.098 -3.42563 0.224827 0
M  V30 2709 C 246.184 -4.05091 1.25548 0
M  V30 2710 N 246.575 -4.42287 2.4539 0
M  V30 2711 C 244.873 -4.32186 1.10142 0
M  V30 2712 C 245.574 -4.91441 3.11224 0
M  V30 2713 N 244.55 -4.88405 2.38666 0
M  V30 2714 H 248.352 -2.41309 1.67772 0
M  V30 2715 H 245.866 -1.27339 1.00789 0
M  V30 2716 H 247.863 -4.16868 -0.0519578 0
M  V30 2717 H 246.523 -3.17467 -0.681515 0
M  V30 2718 H 247.534 -4.33902 2.82754 0
M  V30 2719 H 244.211 -4.16735 0.252587 0
M  V30 2720 H 245.601 -5.29749 4.13298 0
M  V30 2721 N 248.321 -0.919034 -1.28029 0
M  V30 2722 C 249.253 -0.368762 -2.26214 0
M  V30 2723 C 250.266 0.495716 -1.55069 0
M  V30 2724 O 251.455 0.30974 -1.75792 0
M  V30 2725 C 248.555 0.491049 -3.35324 0
M  V30 2726 C 247.728 -0.352133 -4.3598 0
M  V30 2727 C 246.787 0.443622 -5.24327 0
M  V30 2728 O 245.813 -0.14566 -5.69014 0
M  V30 2729 N 247.015 1.74545 -5.53637 0
M  V30 2730 H 249.78 -1.21273 -2.74068 0
M  V30 2731 H 247.341 -0.785541 -1.41566 0
M  V30 2732 H 249.333 1.03026 -3.91366 0
M  V30 2733 H 247.903 1.23574 -2.87138 0
M  V30 2734 H 247.123 -1.07269 -3.79324 0
M  V30 2735 H 248.411 -0.928883 -5.00249 0
M  V30 2736 H 247.809 2.24666 -5.19174 0
M  V30 2737 H 246.366 2.23138 -6.12416 0
M  V30 2738 N 249.799 1.42003 -0.683588 0
M  V30 2739 C 251.046 2.01413 -0.209514 0
M  V30 2740 C 251.374 1.54088 1.1869 0
M  V30 2741 O 250.629 0.737591 1.81268 0
M  V30 2742 C 250.928 3.56827 -0.202357 0
M  V30 2743 C 250.594 4.23617 -1.54464 0
M  V30 2744 C 249.256 4.41577 -1.91215 0
M  V30 2745 C 251.608 4.61178 -2.42826 0
M  V30 2746 C 248.936 4.9437 -3.15935 0
M  V30 2747 C 251.288 5.15355 -3.66867 0
M  V30 2748 C 249.952 5.31528 -4.03776 0
M  V30 2749 H 249.222 0.737023 -0.0766668 0
M  V30 2750 H 251.869 1.70067 -0.880312 0
M  V30 2751 H 250.174 3.87892 0.551969 0
M  V30 2752 H 251.871 4.00588 0.181793 0
M  V30 2753 H 248.461 4.10004 -1.24877 0
M  V30 2754 H 252.645 4.46968 -2.15717 0
M  V30 2755 H 247.901 5.05076 -3.44541 0
M  V30 2756 H 252.075 5.43402 -4.35531 0
M  V30 2757 H 249.702 5.72199 -5.00492 0
M  V30 2758 N 251.277 0.427512 1.51691 0
M  V30 2759 C 252.526 -0.143679 2.01188 0
M  V30 2760 C 252.839 -1.44642 1.31674 0
M  V30 2761 O 254.045 -2.09997 1.72086 0
M  V30 2762 C 252.501 -0.306602 3.58592 0
M  V30 2763 C 252.109 0.985125 4.37035 0
M  V30 2764 C 253.853 -0.832091 4.16265 0
M  V30 2765 C 251.76 0.788382 5.86122 0
M  V30 2766 H 250.69 -0.0574701 0.751807 0
M  V30 2767 H 253.341 0.555772 1.74881 0
M  V30 2768 H 251.723 -1.06882 3.81303 0
M  V30 2769 H 252.897 1.75492 4.26074 0
M  V30 2770 H 251.212 1.4384 3.90767 0
M  V30 2771 H 253.809 -0.995617 5.25349 0
M  V30 2772 H 254.152 -1.81186 3.74803 0
M  V30 2773 H 254.685 -0.128444 3.97593 0
M  V30 2774 H 251.424 1.74025 6.31978 0
M  V30 2775 H 250.944 0.0582143 5.99772 0
M  V30 2776 H 252.623 0.437722 6.45518 0
M  V30 2777 N 252.755 -1.56801 0.158532 0
M  V30 2778 C 254.001 -1.96781 -0.490405 0
M  V30 2779 C 254.334 -1.04397 -1.63753 0
M  V30 2780 O 253.609 -0.0885805 -1.94298 0
M  V30 2781 C 253.892 -3.4635 -0.985594 0
M  V30 2782 C 253.745 -4.49512 0.160824 0
M  V30 2783 C 255.064 -3.98697 -1.86355 0
M  V30 2784 H 252.183 -0.715482 -0.176788 0
M  V30 2785 H 254.825 -1.88451 0.242088 0
M  V30 2786 H 252.975 -3.53579 -1.60978 0
M  V30 2787 H 254.647 -4.54353 0.797537 0
M  V30 2788 H 252.89 -4.26013 0.818256 0
M  V30 2789 H 253.561 -5.51531 -0.227569 0
M  V30 2790 H 256.037 -3.94019 -1.33746 0
M  V30 2791 H 254.913 -5.03792 -2.17909 0
M  V30 2792 H 255.174 -3.41744 -2.8047 0
M  V30 2793 N 254.233 0.115231 -1.57178 0
M  V30 2794 C 255.143 1.15994 -2.03918 0
M  V30 2795 C 256.159 1.45103 -0.960268 0
M  V30 2796 O 257.335 1.56144 -1.27204 0
M  V30 2797 C 254.4 2.46568 -2.43732 0
M  V30 2798 C 253.461 2.24822 -3.65723 0
M  V30 2799 C 252.694 3.4917 -4.03629 0
M  V30 2800 O 252.917 4.56623 -3.41835 0
M  V30 2801 O 251.851 3.39949 -4.96708 0
M  V30 2802 H 255.677 0.793019 -2.93164 0
M  V30 2803 H 253.262 0.3263 -1.45793 0
M  V30 2804 H 255.144 3.23492 -2.70057 0
M  V30 2805 H 253.819 2.82726 -1.57631 0
M  V30 2806 H 252.726 1.45744 -3.44542 0
M  V30 2807 H 254.059 1.93566 -4.52541 0
M  V30 2808 N 255.711 1.52812 0.385517 0
M  V30 2809 C 256.951 1.69716 1.13911 0
M  V30 2810 C 257.315 0.42962 1.87132 0
M  V30 2811 O 258.516 0.475071 2.64569 0
M  V30 2812 C 256.787 2.90021 2.0886 0
M  V30 2813 S 258.346 3.27531 2.92009 0
M  V30 2814 H 255.164 0.59739 0.385547 0
M  V30 2815 H 257.766 1.90868 0.423061 0
M  V30 2816 H 256.47 3.80493 1.53797 0
M  V30 2817 H 256.001 2.71213 2.84969 0
M  V30 2818 H 258.016 2.77989 4.11019 0
M  V30 2819 N 257.189 -0.644168 1.43834 0
M  V30 2820 C 258.139 -1.7501 1.46135 0
M  V30 2821 C 259.123 -1.57507 0.328685 0
M  V30 2822 O 260.315 -1.67465 0.5731 0
M  V30 2823 C 257.444 -3.13641 1.39585 0
M  V30 2824 C 256.53 -3.3666 2.57916 0
M  V30 2825 N 256.921 -3.30107 3.83227 0
M  V30 2826 C 255.219 -3.67411 2.52834 0
M  V30 2827 C 255.92 -3.53456 4.61999 0
M  V30 2828 N 254.896 -3.75705 3.9287 0
M  V30 2829 H 258.698 -1.68382 2.40883 0
M  V30 2830 H 256.212 -0.846169 1.38614 0
M  V30 2831 H 258.209 -3.92933 1.39317 0
M  V30 2832 H 256.869 -3.21444 0.45865 0
M  V30 2833 H 257.88 -3.09316 4.15384 0
M  V30 2834 H 254.557 -3.82275 1.67845 0
M  V30 2835 H 255.947 -3.54093 5.71024 0
M  V30 2836 N 258.668 -1.30515 -0.883378 0
M  V30 2837 C 259.916 -1.19194 -1.63209 0
M  V30 2838 C 260.237 0.253205 -1.93349 0
M  V30 2839 O 259.507 1.17025 -1.57105 0
M  V30 2840 H 258.087 -0.438148 -0.605009 0
M  V30 2841 H 260.749 -1.63663 -1.05832 0
M  V30 2842 H 259.845 -1.75396 -2.58153 0
M  V30 2843 N 260.146 1.09593 -1.13257 0
M  V30 2844 C 261.094 2.18271 -0.803783 0
M  V30 2845 C 262.088 1.68054 0.213148 0
M  V30 2846 O 263.294 1.79862 0.0704699 0
M  V30 2847 H 259.669 0.711949 -0.242143 0
M  V30 2848 H 261.64 2.43235 -1.72856 0
M  V30 2849 C 260.389 3.46536 -0.28424 0
M  V30 2850 H 259.712 3.85545 -1.05807 0
M  V30 2851 H 261.152 4.23899 -0.0925945 0
M  V30 2852 C 259.611 3.22036 0.989684 0
M  V30 2853 O 260.141 3.44509 2.06584 0
M  V30 2854 N 258.347 2.7565 0.920086 0
M  V30 2855 H 257.894 2.57562 0.0442019 0
M  V30 2856 H 257.852 2.59635 1.77306 0
M  V30 2857 N 261.624 0.925811 1.2754 0
M  V30 2858 C 262.852 0.581509 1.9856 0
M  V30 2859 C 263.267 -0.840041 1.69082 0
M  V30 2860 O 262.624 -1.55805 0.950312 0
M  V30 2861 C 262.675 0.795589 3.52637 0
M  V30 2862 O 262.396 2.16121 3.81082 0
M  V30 2863 C 263.897 0.459744 4.4091 0
M  V30 2864 H 261.117 0.220538 0.633722 0
M  V30 2865 H 263.661 1.24232 1.6244 0
M  V30 2866 H 261.816 0.18161 3.86974 0
M  V30 2867 H 262.23 2.2098 4.75676 0
M  V30 2868 H 263.704 0.660244 5.48037 0
M  V30 2869 H 264.181 -0.604625 4.35018 0
M  V30 2870 H 264.787 1.05178 4.12089 0
M  V30 2871 N 263.102 -1.41638 0.69111 0
M  V30 2872 C 264.032 -2.3347 0.037248 0
M  V30 2873 C 265.013 -1.51575 -0.771947 0
M  V30 2874 O 266.198 -1.80126 -0.72582 0
M  V30 2875 C 263.328 -3.35354 -0.903064 0
M  V30 2876 C 262.282 -4.27526 -0.201288 0
M  V30 2877 C 261.608 -5.19747 -1.25565 0
M  V30 2878 C 262.908 -5.13959 0.929689 0
M  V30 2879 H 264.602 -2.88397 0.804227 0
M  V30 2880 H 262.148 -1.38669 0.388189 0
M  V30 2881 H 264.101 -3.98519 -1.36969 0
M  V30 2882 H 262.825 -2.78767 -1.70166 0
M  V30 2883 H 261.484 -3.65779 0.245265 0
M  V30 2884 H 261.132 -4.59479 -2.04666 0
M  V30 2885 H 260.832 -5.8225 -0.791128 0
M  V30 2886 H 262.356 -5.85789 -1.72288 0
M  V30 2887 H 263.77 -5.70718 0.543546 0
M  V30 2888 H 262.167 -5.85379 1.32103 0
M  V30 2889 H 263.237 -4.51389 1.77133 0
M  V30 2890 N 264.58 -0.43555 -1.51462 0
M  V30 2891 C 265.51 0.367376 -2.30592 0
M  V30 2892 C 266.491 1.02263 -1.35928 0
M  V30 2893 O 267.676 1.02661 -1.64847 0
M  V30 2894 C 264.806 1.46983 -3.14664 0
M  V30 2895 C 263.76 0.938161 -4.17591 0
M  V30 2896 C 263.086 2.13622 -4.90173 0
M  V30 2897 C 264.386 -0.0261621 -5.22293 0
M  V30 2898 H 266.08 -0.292969 -2.97963 0
M  V30 2899 H 263.626 -0.14234 -1.43295 0
M  V30 2900 H 265.579 2.03873 -3.688 0
M  V30 2901 H 264.303 2.15843 -2.4511 0
M  V30 2902 H 262.962 0.391481 -3.64504 0
M  V30 2903 H 262.61 2.81098 -4.17124 0
M  V30 2904 H 262.31 1.78688 -5.59772 0
M  V30 2905 H 263.834 2.7107 -5.47132 0
M  V30 2906 H 265.248 0.452384 -5.71512 0
M  V30 2907 H 263.645 -0.287992 -5.99409 0
M  V30 2908 H 264.715 -0.963391 -4.75233 0
M  V30 2909 N 266.058 1.56714 -0.166846 0
M  V30 2910 C 267.469 1.83378 0.350646 0
M  V30 2911 C 267.82 1.08646 1.63372 0
M  V30 2912 O 266.945 0.338058 2.13743 0
M  V30 2913 C 267.54 3.32643 0.642963 0
M  V30 2914 C 266.099 3.59818 1.10491 0
M  V30 2915 C 265.246 2.76954 0.138411 0
M  V30 2916 H 268.197 1.53803 -0.391193 0
M  V30 2917 H 268.218 3.49878 1.49551 0
M  V30 2918 H 267.73 3.87007 -0.291055 0
M  V30 2919 H 265.831 3.1086 2.05418 0
M  V30 2920 H 265.944 4.68178 1.01716 0
M  V30 2921 H 264.308 2.4666 0.634911 0
M  V30 2922 H 265.091 3.34097 -0.789549 0
M  V30 2923 N 267.536 -0.106894 1.57237 0
M  V30 2924 C 268.468 -1.15646 1.97885 0
M  V30 2925 C 269.481 -1.36981 0.879779 0
M  V30 2926 O 270.67 -1.35841 1.15799 0
M  V30 2927 C 267.77 -2.51425 2.27241 0
M  V30 2928 C 266.943 -2.50529 3.58545 0
M  V30 2929 C 266.002 -3.68145 3.75973 0
M  V30 2930 O 265.028 -3.51176 4.47956 0
M  V30 2931 N 266.23 -4.87177 3.15656 0
M  V30 2932 H 268.995 -0.81059 2.8853 0
M  V30 2933 H 266.556 -0.296024 1.59171 0
M  V30 2934 H 268.548 -3.28689 2.36105 0
M  V30 2935 H 267.118 -2.78147 1.42663 0
M  V30 2936 H 266.338 -1.58894 3.60758 0
M  V30 2937 H 267.626 -2.46997 4.44826 0
M  V30 2938 H 267.024 -5.03868 2.57165 0
M  V30 2939 H 265.581 -5.62075 3.30023 0
M  V30 2940 N 269.014 -1.53014 -0.377408 0
M  V30 2941 C 270.261 -1.68623 -1.12128 0
M  V30 2942 C 270.589 -0.431997 -1.89642 0
M  V30 2943 O 269.844 0.585855 -1.86725 0
M  V30 2944 C 270.143 -2.87982 -2.11663 0
M  V30 2945 C 269.809 -4.24964 -1.50719 0
M  V30 2946 C 268.471 -4.62217 -1.33825 0
M  V30 2947 C 270.823 -5.10199 -1.06519 0
M  V30 2948 C 268.151 -5.82352 -0.712963 0
M  V30 2949 C 270.503 -6.30969 -0.453955 0
M  V30 2950 C 269.167 -6.66944 -0.272411 0
M  V30 2951 H 268.437 -0.617034 -0.410305 0
M  V30 2952 H 271.084 -1.8718 -0.404484 0
M  V30 2953 H 269.389 -2.63889 -2.89603 0
M  V30 2954 H 271.086 -2.97253 -2.6915 0
M  V30 2955 H 267.676 -3.95626 -1.64858 0
M  V30 2956 H 271.86 -4.81978 -1.18368 0
M  V30 2957 H 267.116 -6.08824 -0.560611 0
M  V30 2958 H 271.29 -6.96324 -0.103217 0
M  V30 2959 H 268.917 -7.59898 0.214181 0
M  V30 2960 N 270.492 0.636531 -1.44174 0
M  V30 2961 C 271.422 1.76003 -1.53444 0
M  V30 2962 C 272.403 1.65619 -0.387841 0
M  V30 2963 O 273.588 1.84461 -0.607257 0
M  V30 2964 C 270.718 3.14511 -1.4731 0
M  V30 2965 C 269.672 3.39677 -2.60391 0
M  V30 2966 C 268.998 4.78159 -2.39308 0
M  V30 2967 C 270.298 3.32772 -4.02567 0
M  V30 2968 H 271.992 1.68501 -2.47483 0
M  V30 2969 H 269.538 0.809237 -1.19111 0
M  V30 2970 H 271.491 3.92878 -1.52397 0
M  V30 2971 H 270.215 3.22783 -0.49785 0
M  V30 2972 H 268.874 2.63688 -2.54684 0
M  V30 2973 H 268.522 4.83128 -1.39988 0
M  V30 2974 H 268.222 4.95956 -3.15122 0
M  V30 2975 H 269.746 5.58762 -2.46205 0
M  V30 2976 H 271.16 4.01051 -4.09672 0
M  V30 2977 H 269.557 3.62104 -4.7854 0
M  V30 2978 H 270.627 2.30669 -4.2652 0
M  V30 2979 N 271.97 1.30982 0.876444 0
M  V30 2980 C 273.218 1.20058 1.62575 0
M  V30 2981 C 273.539 -0.242947 1.93481 0
M  V30 2982 O 272.809 -1.1619 1.57724 0
M  V30 2983 H 271.389 0.44135 0.602677 0
M  V30 2984 H 274.051 1.64222 1.04962 0
M  V30 2985 H 273.147 1.76762 2.57219 0
M  V30 2986 N 273.449 -1.08991 1.13837 0
M  V30 2987 C 274.382 -2.15049 0.763477 0
M  V30 2988 C 275.36 -1.60629 -0.252398 0
M  V30 2989 O 276.544 -1.87958 -0.142853 0
M  V30 2990 C 273.671 -3.38441 0.132545 0
M  V30 2991 C 272.717 -4.11596 1.11763 0
M  V30 2992 S 273.55 -4.6521 2.65216 0
M  V30 2993 C 274.706 -5.91896 2.03495 0
M  V30 2994 H 274.939 -2.46518 1.66182 0
M  V30 2995 H 272.472 -1.21008 0.958976 0
M  V30 2996 H 274.43 -4.09883 -0.225074 0
M  V30 2997 H 273.091 -3.05182 -0.743135 0
M  V30 2998 H 272.284 -5.00121 0.624076 0
M  V30 2999 H 271.886 -3.46038 1.41894 0
M  V30 3000 H 274.178 -6.63156 1.38675 0
M  V30 3001 H 275.121 -6.45938 2.9012 0
M  V30 3002 H 275.529 -5.44625 1.48471 0
M  V30 3003 N 274.927 -0.932562 -1.27047 0
M  V30 3004 C 276.157 -0.591173 -1.97961 0
M  V30 3005 C 276.565 0.836219 -1.69717 0
M  V30 3006 O 275.908 1.56801 -0.957036 0
M  V30 3007 C 275.97 -0.743082 -3.51736 0
M  V30 3008 C 275.634 -2.1435 -4.03613 0
M  V30 3009 C 276.631 -3.11815 -4.16014 0
M  V30 3010 C 274.316 -2.46175 -4.37839 0
M  V30 3011 C 276.31 -4.39211 -4.61923 0
M  V30 3012 C 273.997 -3.73806 -4.83438 0
M  V30 3013 C 274.995 -4.70137 -4.95439 0
M  V30 3014 O 274.683 -5.95496 -5.40037 0
M  V30 3015 H 274.415 -0.222375 -0.638377 0
M  V30 3016 H 276.969 -1.25317 -1.62742 0
M  V30 3017 H 275.199 -0.0239739 -3.86693 0
M  V30 3018 H 276.888 -0.40603 -4.03864 0
M  V30 3019 H 277.654 -2.88549 -3.89826 0
M  V30 3020 H 273.533 -1.71936 -4.27737 0
M  V30 3021 H 277.077 -5.14404 -4.71205 0
M  V30 3022 H 272.974 -3.96888 -5.09068 0
M  V30 3023 H 273.742 -5.98554 -5.58279 0
M  V30 3024 N 276.405 1.4127 -0.698611 0
M  V30 3025 C 277.821 1.55241 -0.370462 0
M  V30 3026 C 278.021 1.67351 1.12231 0
M  V30 3027 O 277.077 1.65363 1.90818 0
M  V30 3028 C 278.39 2.78997 -1.12165 0
M  V30 3029 C 279.938 2.92797 -1.1063 0
M  V30 3030 C 280.413 4.19445 -1.8393 0
M  V30 3031 N 281.904 4.26409 -1.80914 0
M  V30 3032 C 282.639 5.23271 -2.34467 0
M  V30 3033 N 282.135 6.26145 -2.96504 0
M  V30 3034 N 283.928 5.15232 -2.24706 0
M  V30 3035 H 276.079 1.31654 -1.66676 0
M  V30 3036 H 278.342 0.635393 -0.703548 0
M  V30 3037 H 278.048 2.76268 -2.17644 0
M  V30 3038 H 277.922 3.70606 -0.702209 0
M  V30 3039 H 280.309 2.95039 -0.0597713 0
M  V30 3040 H 280.39 2.02353 -1.56483 0
M  V30 3041 H 280.034 4.17964 -2.88563 0
M  V30 3042 H 279.964 5.08866 -1.35509 0
M  V30 3043 H 282.455 3.527 -1.35687 0
M  V30 3044 H 282.768 6.96451 -3.34927 0
M  V30 3045 H 281.113 6.26638 -3.00583 0
M  V30 3046 H 284.304 4.33789 -1.7591 0
M  V30 3047 H 284.477 5.90552 -2.66745 0
M  V30 3048 N 277.883 0.443576 1.51229 0
M  V30 3049 C 278.813 -0.355142 2.30783 0
M  V30 3050 C 279.794 -1.0154 1.36468 0
M  V30 3051 O 280.979 -1.01785 1.65389 0
M  V30 3052 C 278.109 -1.45312 3.15439 0
M  V30 3053 C 277.063 -0.916002 4.18083 0
M  V30 3054 C 276.389 -2.1102 4.91299 0
M  V30 3055 C 277.689 0.0538602 5.22272 0
M  V30 3056 H 279.383 0.308767 2.97804 0
M  V30 3057 H 276.929 0.149937 1.43217 0
M  V30 3058 H 278.882 -2.01914 3.69876 0
M  V30 3059 H 277.606 -2.14541 2.46252 0
M  V30 3060 H 276.265 -0.372145 3.64706 0
M  V30 3061 H 275.913 -2.78882 4.18609 0
M  V30 3062 H 275.613 -1.75717 5.60712 0
M  V30 3063 H 277.137 -2.68164 5.48562 0
M  V30 3064 H 278.551 -0.422069 5.71744 0
M  V30 3065 H 276.948 0.319776 5.99247 0
M  V30 3066 H 278.018 0.98858 4.74716 0
M  V30 3067 N 279.361 -1.56624 0.175154 0
M  V30 3068 C 280.589 -2.01374 -0.474971 0
M  V30 3069 C 281.004 -1.05537 -1.56548 0
M  V30 3070 O 280.361 -0.0568668 -1.82411 0
M  V30 3071 C 280.412 -3.45923 -1.04975 0
M  V30 3072 O 280.133 -4.381 -0.00276605 0
M  V30 3073 C 281.634 -4.06093 -1.77773 0
M  V30 3074 H 278.854 -0.659962 -0.121206 0
M  V30 3075 H 281.398 -2.02601 0.27801 0
M  V30 3076 H 279.553 -3.45458 -1.75321 0
M  V30 3077 H 279.967 -5.22753 -0.427681 0
M  V30 3078 H 281.441 -5.09147 -2.13245 0
M  V30 3079 H 281.918 -3.48405 -2.67414 0
M  V30 3080 H 282.524 -4.10272 -1.12059 0
M  V30 3081 N 280.839 0.0985539 -1.57292 0
M  V30 3082 C 282.085 0.803867 -1.86188 0
M  V30 3083 C 282.418 1.78549 -0.763794 0
M  V30 3084 O 281.693 1.93153 0.22855 0
M  V30 3085 C 281.976 1.53568 -3.25713 0
M  V30 3086 C 281.829 0.572277 -4.46145 0
M  V30 3087 C 283.148 2.48708 -3.63087 0
M  V30 3088 H 280.267 0.290781 -0.677211 0
M  V30 3089 H 282.909 0.0675783 -1.8988 0
M  V30 3090 H 281.059 2.16332 -3.22696 0
M  V30 3091 H 282.731 -0.0480894 -4.61275 0
M  V30 3092 H 280.974 -0.114618 -4.33649 0
M  V30 3093 H 281.645 1.12139 -5.40489 0
M  V30 3094 H 284.121 1.96039 -3.67026 0
M  V30 3095 H 282.997 2.96932 -4.61652 0
M  V30 3096 H 283.258 3.32309 -2.91588 0
M  V30 3097 N 282.317 1.53212 0.369288 0
M  V30 3098 C 283.594 1.59815 1.12776 0
M  V30 3099 C 283.974 0.403402 2.0721 0
M  V30 3100 O 283.322 -0.606667 2.20299 0
M  V30 3101 C 283.532 2.94664 1.87013 0
M  V30 3102 C 284.88 3.49109 2.41677 0
M  V30 3103 O 285.904 2.96669 1.97144 0
M  V30 3104 O 284.763 4.40775 3.23079 0
M  V30 3105 H 281.857 0.645376 0.517125 0
M  V30 3106 H 284.403 1.65553 0.37285 0
M  V30 3107 H 283.175 3.73061 1.18071 0
M  V30 3108 H 282.798 2.92401 2.69421 0
M  V30 3109 N 283.795 -0.628877 1.44509 0
M  V30 3110 C 285.043 -1.38565 1.4712 0
M  V30 3111 C 285.364 -1.94712 0.105899 0
M  V30 3112 O 284.634 -1.75912 -0.862079 0
M  V30 3113 H 283.214 -0.514333 0.541729 0
M  V30 3114 H 285.876 -0.740018 1.80305 0
M  V30 3115 H 284.972 -2.21583 2.19789 0
M  V30 3116 N 285.273 -1.31445 -0.869486 0
M  V30 3117 C 286.519 -1.21337 -1.62496 0
M  V30 3118 C 286.852 0.227872 -1.92858 0
M  V30 3119 O 286.127 1.16094 -1.56053 0
M  V30 3120 C 286.41 -2.05814 -2.95487 0
M  V30 3121 C 286.263 -3.5824 -2.72 0
M  V30 3122 C 287.582 -1.9079 -3.96594 0
M  V30 3123 H 284.701 -0.442135 -0.589649 0
M  V30 3124 H 287.343 -1.6124 -1.00507 0
M  V30 3125 H 285.493 -1.71913 -3.48394 0
M  V30 3126 H 287.165 -4.0228 -2.25762 0
M  V30 3127 H 285.408 -3.81647 -2.06224 0
M  V30 3128 H 286.079 -4.12657 -3.66631 0
M  V30 3129 H 288.555 -2.20459 -3.52898 0
M  V30 3130 H 287.431 -2.52199 -4.87531 0
M  V30 3131 H 287.692 -0.871341 -4.33428 0
M  V30 3132 N 286.751 1.08385 -1.14413 0
M  V30 3133 C 287.661 2.18856 -0.844951 0
M  V30 3134 C 288.677 1.73121 0.174668 0
M  V30 3135 O 289.853 2.014 0.00312857 0
M  V30 3136 C 286.918 3.45155 -0.32696 0
M  V30 3137 C 285.979 4.05513 -1.40916 0
M  V30 3138 C 285.212 5.25784 -0.915793 0
M  V30 3139 O 285.435 5.69884 0.242651 0
M  V30 3140 O 284.369 5.77545 -1.69487 0
M  V30 3141 H 288.195 2.46919 -1.76818 0
M  V30 3142 H 285.78 1.17524 -0.922411 0
M  V30 3143 H 287.662 4.21377 -0.0440211 0
M  V30 3144 H 286.337 3.18668 0.568539 0
M  V30 3145 H 285.244 3.30879 -1.74556 0
M  V30 3146 H 286.577 4.3625 -2.27919 0
M  V30 3147 N 288.23 0.939286 1.26551 0
M  V30 3148 C 289.458 0.602536 1.97932 0
M  V30 3149 C 289.873 -0.82206 1.69964 0
M  V30 3150 O 289.23 -1.54789 0.966784 0
M  V30 3151 C 289.281 0.832946 3.51773 0
M  V30 3152 O 289.002 2.20151 3.78768 0
M  V30 3153 C 290.503 0.506483 4.40397 0
M  V30 3154 H 287.723 0.227248 0.631347 0
M  V30 3155 H 290.267 1.25948 1.61113 0
M  V30 3156 H 288.422 0.222644 3.8676 0
M  V30 3157 H 288.836 2.26013 4.73306 0
M  V30 3158 H 290.31 0.718333 5.47306 0
M  V30 3159 H 290.787 -0.558451 4.35635 0
M  V30 3160 H 291.393 1.09543 4.10951 0
M  V30 3161 N 289.708 -1.40897 0.706093 0
M  V30 3162 C 290.938 -2.05075 0.250523 0
M  V30 3163 C 291.346 -1.53275 -1.10921 0
M  V30 3164 O 290.689 -0.680281 -1.7064 0
M  V30 3165 C 290.751 -3.59219 0.142178 0
M  V30 3166 C 290.415 -4.33864 1.43566 0
M  V30 3167 C 291.412 -4.62448 2.37566 0
M  V30 3168 C 289.097 -4.72946 1.69195 0
M  V30 3169 C 291.091 -5.29088 3.5545 0
M  V30 3170 C 288.778 -5.3932 2.87362 0
M  V30 3171 C 289.776 -5.6732 3.80312 0
M  V30 3172 O 289.464 -6.32325 4.96408 0
M  V30 3173 H 289.196 -0.666645 0.112074 0
M  V30 3174 H 291.75 -1.81467 0.962239 0
M  V30 3175 H 289.98 -3.81609 -0.6254 0
M  V30 3176 H 291.669 -4.0495 -0.277584 0
M  V30 3177 H 292.435 -4.32727 2.19027 0
M  V30 3178 H 288.314 -4.50527 0.977042 0
M  V30 3179 H 291.858 -5.50859 4.28018 0
M  V30 3180 H 287.755 -5.68461 3.05814 0
M  V30 3181 H 288.523 -6.50821 4.9636 0
M  V30 3182 N 291.186 -0.45159 -1.50991 0
M  V30 3183 C 292.119 0.398179 -2.24699 0
M  V30 3184 C 293.097 1.01276 -1.27208 0
M  V30 3185 O 294.281 1.05247 -1.56382 0
M  V30 3186 C 291.408 1.55618 -3.00833 0
M  V30 3187 C 290.454 1.0609 -4.13095 0
M  V30 3188 S 291.287 -0.00865136 -5.35499 0
M  V30 3189 C 292.443 1.15369 -6.15175 0
M  V30 3190 H 292.676 -0.227555 -2.96428 0
M  V30 3191 H 290.209 -0.236251 -1.52582 0
M  V30 3192 H 292.167 2.21997 -3.45293 0
M  V30 3193 H 290.828 2.15337 -2.28667 0
M  V30 3194 H 290.021 1.92726 -4.65696 0
M  V30 3195 H 289.623 0.47513 -3.7097 0
M  V30 3196 H 291.915 2.06925 -6.45126 0
M  V30 3197 H 292.858 0.667344 -7.04948 0
M  V30 3198 H 293.266 1.3987 -5.46897 0
M  V30 3199 N 292.664 1.56529 -0.183458 0
M  V30 3200 C 293.91 1.97537 0.459036 0
M  V30 3201 C 294.243 1.06989 1.62071 0
M  V30 3202 O 293.518 0.11948 1.94133 0
M  V30 3203 C 293.801 3.47874 0.930368 0
M  V30 3204 C 293.654 4.492 -0.232317 0
M  V30 3205 C 294.973 4.01612 1.79989 0
M  V30 3206 H 292.092 0.718204 0.165383 0
M  V30 3207 H 294.734 1.88042 -0.272038 0
M  V30 3208 H 292.884 3.56095 1.55333 0
M  V30 3209 H 294.556 4.53027 -0.86972 0
M  V30 3210 H 292.799 4.24657 -0.885928 0
M  V30 3211 H 293.47 5.51823 0.139796 0
M  V30 3212 H 295.946 3.96097 1.27461 0
M  V30 3213 H 294.822 5.07195 2.09867 0
M  V30 3214 H 295.083 3.46163 2.74998 0
M  V30 3215 N 294.142 -0.090211 1.57342 0
M  V30 3216 C 295.388 -0.793982 1.86611 0
M  V30 3217 C 295.721 -1.78142 0.773252 0
M  V30 3218 O 294.996 -1.93271 -0.218304 0
M  V30 3219 C 295.279 -1.51839 3.26523 0
M  V30 3220 C 295.132 -0.548609 4.46442 0
M  V30 3221 C 296.451 -2.46779 3.64401 0
M  V30 3222 H 293.57 -0.287186 0.678744 0
M  V30 3223 H 296.212 -0.0575076 1.89913 0
M  V30 3224 H 294.362 -2.14617 3.23839 0
M  V30 3225 H 296.034 0.0725513 4.61243 0
M  V30 3226 H 294.277 0.137614 4.33582 0
M  V30 3227 H 294.948 -1.09271 5.41076 0
M  V30 3228 H 297.424 -1.94089 3.68061 0
M  V30 3229 H 296.3 -2.94479 4.63221 0
M  V30 3230 H 296.561 -3.30758 2.93346 0
M  V30 3231 N 295.62 -1.53406 -0.361157 0
M  V30 3232 C 296.848 -1.73717 -1.12383 0
M  V30 3233 C 297.263 -0.468161 -1.82904 0
M  V30 3234 O 296.62 0.559198 -1.73722 0
M  V30 3235 C 296.671 -2.90558 -2.15078 0
M  V30 3236 O 296.392 -4.12549 -1.47428 0
M  V30 3237 C 297.893 -3.22777 -3.03858 0
M  V30 3238 H 295.113 -0.580896 -0.335858 0
M  V30 3239 H 297.657 -2.00167 -0.418728 0
M  V30 3240 H 295.812 -2.66489 -2.8118 0
M  V30 3241 H 296.226 -4.78009 -2.15887 0
M  V30 3242 H 297.7 -4.07927 -3.71887 0
M  V30 3243 H 298.177 -2.38329 -3.68912 0
M  V30 3244 H 298.783 -3.48787 -2.43367 0
M  V30 3245 N 297.098 0.621204 -1.44841 0
M  V30 3246 C 298.514 0.94048 -1.28946 0
M  V30 3247 C 298.714 2.00154 -0.23249 0
M  V30 3248 O 297.77 2.49651 0.378237 0
M  V30 3249 C 299.083 1.39433 -2.66419 0
M  V30 3250 C 300.631 1.50927 -2.74208 0
M  V30 3251 C 301.106 1.99692 -4.12174 0
M  V30 3252 N 302.597 2.06947 -4.144 0
M  V30 3253 C 303.332 2.45871 -5.1801 0
M  V30 3254 N 302.828 2.83862 -6.31977 0
M  V30 3255 N 304.621 2.46092 -5.05366 0
M  V30 3256 H 296.772 -0.0803548 -2.12248 0
M  V30 3257 H 299.035 0.0266913 -0.947624 0
M  V30 3258 H 298.741 0.688925 -3.44887 0
M  V30 3259 H 298.615 2.36347 -2.93973 0
M  V30 3260 H 301.002 2.20561 -1.96053 0
M  V30 3261 H 301.083 0.523627 -2.50383 0
M  V30 3262 H 300.727 1.30649 -4.90809 0
M  V30 3263 H 300.657 2.99146 -4.33381 0
M  V30 3264 H 303.148 1.80232 -3.32152 0
M  V30 3265 H 303.461 3.12405 -7.0684 0
M  V30 3266 H 301.806 2.8159 -6.35399 0
M  V30 3267 H 304.997 2.1581 -4.15384 0
M  V30 3268 H 305.17 2.76102 -5.86235 0
M  V30 3269 N 298.576 1.31904 0.862503 0
M  V30 3270 C 299.524 1.20125 1.9918 0
M  V30 3271 C 300.518 0.107824 1.69056 0
M  V30 3272 O 301.724 0.270223 1.7796 0
M  V30 3273 H 298.099 0.372148 0.65346 0
M  V30 3274 H 300.07 2.15652 2.06244 0
M  V30 3275 C 298.819 0.933099 3.34946 0
M  V30 3276 H 298.142 1.76664 3.5865 0
M  V30 3277 H 299.582 0.890892 4.14535 0
M  V30 3278 C 298.041 -0.364172 3.34926 0
M  V30 3279 O 298.571 -1.37858 3.77304 0
M  V30 3280 N 296.777 -0.383362 2.8806 0
M  V30 3281 H 296.324 0.442651 2.53768 0
M  V30 3282 H 296.282 -1.25123 2.8843 0
M  V30 3283 N 300.054 -1.07777 1.14986 0
M  V30 3284 C 301.3 -1.80557 0.923422 0
M  V30 3285 C 301.633 -1.86298 -0.548337 0
M  V30 3286 O 300.908 -1.34354 -1.40639 0
M  V30 3287 C 301.191 -3.25839 1.53299 0
M  V30 3288 C 301.044 -3.28269 3.07505 0
M  V30 3289 C 302.363 -4.22991 1.21518 0
M  V30 3290 H 299.482 -0.655493 0.336894 0
M  V30 3291 H 302.124 -1.26144 1.42083 0
M  V30 3292 H 300.274 -3.72306 1.10999 0
M  V30 3293 H 301.946 -2.90079 3.58681 0
M  V30 3294 H 300.189 -2.67355 3.4162 0
M  V30 3295 H 300.86 -4.30691 3.45266 0
M  V30 3296 H 303.336 -3.84894 1.581 0
M  V30 3297 H 302.212 -5.22945 1.66793 0
M  V30 3298 H 302.473 -4.41904 0.131505 0
M  V30 3299 N 301.532 -0.945985 -1.26051 0
M  V30 3300 C 302.779 -0.596118 -1.93527 0
M  V30 3301 C 303.107 0.865559 -1.74179 0
M  V30 3302 O 302.362 1.63524 -1.0751 0
M  V30 3303 C 302.661 -0.890475 -3.46129 0
M  V30 3304 C 302.327 -2.3368 -3.85622 0
M  V30 3305 C 300.989 -2.73216 -3.96114 0
M  V30 3306 C 303.341 -3.27648 -4.05334 0
M  V30 3307 C 300.669 -4.05806 -4.2372 0
M  V30 3308 C 303.021 -4.59841 -4.3443 0
M  V30 3309 C 301.685 -4.99185 -4.43137 0
M  V30 3310 H 300.955 -0.218135 -0.708165 0
M  V30 3311 H 303.602 -1.1934 -1.49768 0
M  V30 3312 H 301.907 -0.210711 -3.91233 0
M  V30 3313 H 303.604 -0.598478 -3.96509 0
M  V30 3314 H 300.194 -2.02015 -3.78005 0
M  V30 3315 H 304.378 -2.98298 -3.96651 0
M  V30 3316 H 299.634 -4.35945 -4.28675 0
M  V30 3317 H 303.808 -5.32641 -4.48628 0
M  V30 3318 H 301.435 -6.01952 -4.64282 0
M  V30 3319 N 303.011 1.40521 -0.713556 0
M  V30 3320 C 304.236 2.05759 -0.26035 0
M  V30 3321 C 304.661 1.53403 1.08854 0
M  V30 3322 O 304.019 0.668535 1.68524 0
M  V30 3323 C 304.067 3.59745 -0.248122 0
M  V30 3324 O 303.171 4.05123 0.77131 0
M  V30 3325 H 302.512 0.652564 -0.122703 0
M  V30 3326 H 305.042 1.79958 -0.973467 0
M  V30 3327 H 305.052 4.07911 -0.0851129 0
M  V30 3328 H 303.727 3.97218 -1.2325 0
M  V30 3329 H 302.304 3.68422 0.57619 0
M  V30 3330 N 304.489 0.459591 1.5075 0
M  V30 3331 C 305.439 -0.358926 2.25157 0
M  V30 3332 C 306.423 -0.971285 1.28276 0
M  V30 3333 O 307.615 -0.885739 1.53244 0
M  V30 3334 C 304.744 -1.44695 3.11317 0
M  V30 3335 C 303.83 -0.842894 4.15639 0
M  V30 3336 N 304.221 0.0299373 5.05791 0
M  V30 3337 C 302.519 -1.10809 4.32015 0
M  V30 3338 C 303.22 0.371563 5.80512 0
M  V30 3339 N 302.196 -0.250409 5.43023 0
M  V30 3340 H 305.998 0.313636 2.92222 0
M  V30 3341 H 303.512 0.273021 1.60089 0
M  V30 3342 H 305.509 -2.04641 3.63218 0
M  V30 3343 H 304.169 -2.12162 2.45799 0
M  V30 3344 H 305.18 0.39797 5.16369 0
M  V30 3345 H 301.857 -1.7786 3.77719 0
M  V30 3346 H 303.247 1.08319 6.63111 0
M  V30 3347 N 305.967 -1.56429 0.191757 0
M  V30 3348 C 307.383 -1.58754 -0.164137 0
M  V30 3349 C 307.583 -1.20782 -1.61288 0
M  V30 3350 O 306.639 -0.928999 -2.34789 0
M  V30 3351 C 307.952 -3.00396 0.135195 0
M  V30 3352 C 309.5 -3.1291 0.0750351 0
M  V30 3353 C 309.975 -4.56679 0.347632 0
M  V30 3354 N 311.466 -4.62252 0.296131 0
M  V30 3355 C 312.201 -5.71379 0.480948 0
M  V30 3356 N 311.697 -6.88986 0.725933 0
M  V30 3357 N 313.49 -5.60563 0.415435 0
M  V30 3358 H 305.641 -1.79393 1.13718 0
M  V30 3359 H 307.904 -0.832414 0.453643 0
M  V30 3360 H 307.61 -3.32726 1.13958 0
M  V30 3361 H 307.484 -3.72963 -0.563773 0
M  V30 3362 H 309.871 -2.80394 -0.919948 0
M  V30 3363 H 309.952 -2.42736 0.807029 0
M  V30 3364 H 309.596 -4.89907 1.33992 0
M  V30 3365 H 309.526 -5.25039 -0.405212 0
M  V30 3366 H 312.017 -3.7773 0.113259 0
M  V30 3367 H 312.33 -7.68046 0.855857 0
M  V30 3368 H 310.675 -6.90801 0.762788 0
M  V30 3369 H 313.866 -4.67561 0.224486 0
M  V30 3370 H 314.039 -6.45551 0.562889 0
M  V30 3371 N 307.445 0.0818655 -1.57387 0
M  V30 3372 C 308.375 1.09885 -2.06028 0
M  V30 3373 C 309.356 1.4098 -0.951774 0
M  V30 3374 O 310.541 1.50781 -1.22387 0
M  V30 3375 C 307.671 2.4151 -2.4958 0
M  V30 3376 C 306.625 2.24792 -3.64215 0
M  V30 3377 C 305.951 3.61712 -3.93787 0
M  V30 3378 C 307.251 1.67749 -4.94629 0
M  V30 3379 H 308.945 0.694128 -2.91243 0
M  V30 3380 H 306.491 0.332448 -1.4011 0
M  V30 3381 H 308.444 3.12939 -2.82219 0
M  V30 3382 H 307.168 2.83943 -1.61381 0
M  V30 3383 H 305.827 1.55807 -3.31843 0
M  V30 3384 H 305.475 4.01697 -3.02735 0
M  V30 3385 H 305.175 3.51368 -4.70971 0
M  V30 3386 H 306.699 4.34587 -4.28913 0
M  V30 3387 H 308.113 2.29032 -5.25564 0
M  V30 3388 H 306.51 1.68128 -5.76067 0
M  V30 3389 H 307.58 0.638059 -4.80684 0
M  V30 3390 N 308.923 1.53595 0.353017 0
M  V30 3391 C 310.151 1.74311 1.1146 0
M  V30 3392 C 310.566 0.477854 1.82653 0
M  V30 3393 O 309.923 -0.549977 1.74016 0
M  V30 3394 C 309.974 2.91694 2.13534 0
M  V30 3395 O 309.695 4.13325 1.45238 0
M  V30 3396 C 311.196 3.24384 3.02142 0
M  V30 3397 H 308.416 0.582669 0.332773 0
M  V30 3398 H 310.96 2.00386 0.408107 0
M  V30 3399 H 309.115 2.67977 2.79763 0
M  V30 3400 H 309.529 4.79148 2.13349 0
M  V30 3401 H 311.003 4.09893 3.69718 0
M  V30 3402 H 311.48 2.40282 3.67643 0
M  V30 3403 H 312.086 3.50073 2.41514 0
M  V30 3404 N 310.401 -0.613514 1.45168 0
M  V30 3405 C 311.647 -1.37471 1.49096 0
M  V30 3406 C 311.98 -1.93765 0.129901 0
M  V30 3407 O 311.255 -1.74707 -0.854858 0
M  V30 3408 C 311.538 -2.52701 2.56542 0
M  V30 3409 C 311.391 -2.01643 4.0207 0
M  V30 3410 C 312.71 -3.54849 2.60327 0
M  V30 3411 H 309.829 -0.498502 0.54283 0
M  V30 3412 H 312.471 -0.692125 1.76945 0
M  V30 3413 H 310.621 -3.10931 2.32926 0
M  V30 3414 H 312.293 -1.48108 4.36877 0
M  V30 3415 H 310.536 -1.32688 4.13009 0
M  V30 3416 H 311.207 -2.84681 4.72928 0
M  V30 3417 H 313.683 -3.0645 2.81474 0
M  V30 3418 H 312.559 -4.32973 3.37381 0
M  V30 3419 H 312.82 -4.10079 1.6519 0
M  V30 3420 N 311.879 -1.3236 -0.855495 0
M  V30 3421 C 312.829 -1.17809 -1.95205 0
M  V30 3422 C 313.813 -0.0852319 -1.60674 0
M  V30 3423 O 315.005 -0.311651 -1.74235 0
M  V30 3424 C 312.134 -0.902437 -3.31226 0
M  V30 3425 C 311.22 -2.03695 -3.7198 0
M  V30 3426 N 311.611 -3.28544 -3.84568 0
M  V30 3427 C 309.909 -1.93993 -4.016 0
M  V30 3428 C 310.61 -4.02847 -4.19629 0
M  V30 3429 N 309.586 -3.31138 -4.31102 0
M  V30 3430 H 313.388 -2.12462 -2.0307 0
M  V30 3431 H 310.902 -1.24127 -1.0472 0
M  V30 3432 H 312.899 -0.77915 -4.09554 0
M  V30 3433 H 311.559 0.0357267 -3.2468 0
M  V30 3434 H 312.57 -3.6349 -3.68911 0
M  V30 3435 H 309.247 -1.07733 -4.03361 0
M  V30 3436 H 310.637 -5.10506 -4.36845 0
M  V30 3437 N 313.357 1.07166 -1.15556 0
M  V30 3438 C 314.773 1.31899 -0.898603 0
M  V30 3439 C 314.973 1.96333 0.453383 0
M  V30 3440 O 314.029 2.22438 1.19489 0
M  V30 3441 C 315.342 2.20826 -2.04099 0
M  V30 3442 C 316.89 2.34269 -2.07574 0
M  V30 3443 C 317.365 3.26546 -3.21141 0
M  V30 3444 N 318.856 3.34127 -3.20801 0
M  V30 3445 C 319.591 4.05595 -4.05315 0
M  V30 3446 N 319.087 4.79661 -4.99897 0
M  V30 3447 N 320.88 4.01555 -3.93332 0
M  V30 3448 H 313.031 0.637302 -2.02613 0
M  V30 3449 H 315.294 0.343468 -0.883591 0
M  V30 3450 H 315 1.80744 -3.01703 0
M  V30 3451 H 314.874 3.21364 -1.97496 0
M  V30 3452 H 317.261 2.73603 -1.10568 0
M  V30 3453 H 317.342 1.33429 -2.18244 0
M  V30 3454 H 316.986 2.87931 -4.184 0
M  V30 3455 H 316.916 4.27345 -3.07708 0
M  V30 3456 H 319.407 2.81336 -2.52306 0
M  V30 3457 H 319.72 5.31694 -5.60822 0
M  V30 3458 H 318.065 4.78671 -5.03884 0
M  V30 3459 H 321.256 3.42806 -3.18751 0
M  V30 3460 H 321.429 4.56987 -4.5942 0
M  V30 3461 N 314.835 0.952656 1.25548 0
M  V30 3462 C 315.782 0.47008 2.25962 0
M  V30 3463 C 316.752 -0.476384 1.59122 0
M  V30 3464 O 317.937 -0.39007 1.8677 0
M  V30 3465 C 315.077 -0.247881 3.44209 0
M  V30 3466 C 314.19 0.735591 4.25691 0
M  V30 3467 C 313.325 -0.0047306 5.312 0
M  V30 3468 C 312.364 0.969805 6.04368 0
M  V30 3469 N 311.501 0.260486 7.01617 0
M  V30 3470 H 316.341 1.33126 2.66611 0
M  V30 3471 H 313.878 0.66765 1.31076 0
M  V30 3472 H 315.836 -0.680695 4.1161 0
M  V30 3473 H 314.466 -1.07312 3.0444 0
M  V30 3474 H 313.518 1.28689 3.57971 0
M  V30 3475 H 314.83 1.47934 4.76358 0
M  V30 3476 H 313.984 -0.496275 6.04667 0
M  V30 3477 H 312.723 -0.781282 4.81401 0
M  V30 3478 H 311.728 1.47237 5.29718 0
M  V30 3479 H 312.953 1.74655 6.56256 0
M  V30 3480 H 310.899 -0.497364 6.54112 0
M  V30 3481 H 310.816 0.943362 7.50091 0
M  V30 3482 H 312.084 -0.209587 7.79218 0
M  V30 3483 N 316.313 -1.40141 0.720998 0
M  V30 3484 C 317.543 -2.04798 0.27226 0
M  V30 3485 C 317.951 -1.54442 -1.09289 0
M  V30 3486 O 317.294 -0.698342 -1.69908 0
M  V30 3487 C 317.356 -3.59048 0.18027 0
M  V30 3488 C 317.02 -4.32317 1.48159 0
M  V30 3489 C 318.017 -4.59902 2.42458 0
M  V30 3490 C 315.702 -4.71125 1.74202 0
M  V30 3491 C 317.696 -5.25288 3.61042 0
M  V30 3492 C 315.383 -5.36242 2.93066 0
M  V30 3493 C 316.381 -5.63254 3.86308 0
M  V30 3494 O 316.069 -6.27024 5.03086 0
M  V30 3495 H 315.801 -0.665419 0.119139 0
M  V30 3496 H 318.355 -1.80436 0.981432 0
M  V30 3497 H 316.585 -3.82251 -0.58489 0
M  V30 3498 H 318.274 -4.05221 -0.234618 0
M  V30 3499 H 319.04 -4.30379 2.23604 0
M  V30 3500 H 314.919 -4.49466 1.02477 0
M  V30 3501 H 318.463 -5.46289 4.33837 0
M  V30 3502 H 314.36 -5.65185 3.11826 0
M  V30 3503 H 315.128 -6.4552 5.03235 0
M  V30 3504 N 317.792 -0.46758 -1.50504 0
M  V30 3505 C 319.069 0.15003 -1.95024 0
M  V30 3506 C 319.449 1.57304 -1.40779 0
M  V30 3507 O 318.797 2.20281 -0.607319 0
M  V30 3508 C 319.007 0.0969324 -3.48865 0
M  V30 3509 C 320.355 0.287565 -4.23625 0
M  V30 3510 O 321.379 0.173678 -3.55776 0
M  V30 3511 O 320.238 0.517186 -5.44047 0
M  V30 3512 H 317.332 0.113582 -0.819163 0
M  V30 3513 H 319.878 -0.52773 -1.61286 0
M  V30 3514 H 318.65 -0.896732 -3.80886 0
M  V30 3515 H 318.273 0.816303 -3.8913 0
M  V30 3516 N 319.27 1.56325 -0.20005 0
M  V30 3517 C 320.2 2.22318 0.713916 0
M  V30 3518 C 321.181 1.18788 1.21752 0
M  V30 3519 O 322.366 1.47309 1.26545 0
M  V30 3520 C 319.496 2.88639 1.93144 0
M  V30 3521 C 318.45 3.98457 1.56255 0
M  V30 3522 C 317.776 4.51967 2.85709 0
M  V30 3523 C 319.076 5.16612 0.768747 0
M  V30 3524 H 320.77 2.98952 0.163755 0
M  V30 3525 H 318.316 1.43792 0.0773219 0
M  V30 3526 H 320.269 3.33491 2.57608 0
M  V30 3527 H 318.993 2.09419 2.50621 0
M  V30 3528 H 317.652 3.54305 0.941471 0
M  V30 3529 H 317.3 3.69503 3.41287 0
M  V30 3530 H 317 5.26071 2.6177 0
M  V30 3531 H 318.524 4.99523 3.51154 0
M  V30 3532 H 319.938 5.57977 1.3166 0
M  V30 3533 H 318.335 5.96812 0.627286 0
M  V30 3534 H 319.405 4.84358 -0.229168 0
M  V30 3535 N 320.748 -0.0735177 1.57428 0
M  V30 3536 C 321.695 -1.08756 2.0357 0
M  V30 3537 C 322.665 -1.38559 0.916 0
M  V30 3538 O 323.85 -1.49656 1.18354 0
M  V30 3539 C 320.99 -2.39657 2.48311 0
M  V30 3540 C 320.103 -2.16399 3.73892 0
M  V30 3541 C 319.238 -3.40852 4.07423 0
M  V30 3542 C 318.277 -3.1295 5.2605 0
M  V30 3543 N 317.414 -4.29729 5.55228 0
M  V30 3544 H 322.254 -0.687104 2.8997 0
M  V30 3545 H 319.791 -0.327709 1.43403 0
M  V30 3546 H 321.749 -3.16081 2.72303 0
M  V30 3547 H 320.379 -2.77508 1.64891 0
M  V30 3548 H 319.431 -1.30676 3.57251 0
M  V30 3549 H 320.743 -1.91788 4.60455 0
M  V30 3550 H 319.897 -4.25671 4.32306 0
M  V30 3551 H 318.636 -3.68537 3.19425 0
M  V30 3552 H 317.641 -2.26526 5.00965 0
M  V30 3553 H 318.866 -2.86589 6.15665 0
M  V30 3554 H 316.812 -4.57448 4.70188 0
M  V30 3555 H 316.729 -4.08385 6.36206 0
M  V30 3556 H 317.997 -5.1555 5.84661 0
M  V30 3557 N 322.226 -1.5378 -0.344866 0
M  V30 3558 C 323.474 -1.70625 -1.08311 0
M  V30 3559 C 323.795 -0.471447 -1.89215 0
M  V30 3560 O 323.065 0.514616 -1.8902 0
M  V30 3561 H 321.645 -0.629058 -0.402859 0
M  V30 3562 H 324.307 -1.9103 -0.386459 0
M  V30 3563 H 323.403 -2.57656 -1.76124 0
M  V30 3564 N 323.704 0.605807 -1.45491 0
M  V30 3565 C 324.929 1.39625 -1.53361 0
M  V30 3566 C 325.354 1.87351 -0.167645 0
M  V30 3567 O 324.712 1.60243 0.848051 0
M  V30 3568 C 324.76 2.57559 -2.5238 0
M  V30 3569 O 323.864 3.58248 -2.04285 0
M  V30 3570 H 323.205 0.416771 -0.516912 0
M  V30 3571 H 325.735 0.737103 -1.90861 0
M  V30 3572 H 325.745 3.0478 -2.71244 0
M  V30 3573 H 324.42 2.22171 -3.51586 0
M  V30 3574 H 322.997 3.17664 -1.95305 0
M  V30 3575 N 325.182 1.32811 0.848464 0
M  V30 3576 C 326.41 1.26739 1.63538 0
M  V30 3577 C 326.825 -0.163484 1.88091 0
M  V30 3578 O 326.182 -1.10258 1.45429 0
M  V30 3579 C 326.233 2.03013 2.99112 0
M  V30 3580 O 325.954 3.40518 2.75643 0
M  V30 3581 C 327.455 2.04038 3.93552 0
M  V30 3582 H 324.675 0.437024 0.509167 0
M  V30 3583 H 327.219 1.75033 1.05753 0
M  V30 3584 H 325.374 1.58426 3.53525 0
M  V30 3585 H 325.788 3.79635 3.61908 0
M  V30 3586 H 327.262 2.61877 4.85926 0
M  V30 3587 H 327.739 1.0282 4.26995 0
M  V30 3588 H 328.345 2.486 3.45077 0
M  V30 3589 N 326.66 -1.06551 1.16123 0
M  V30 3590 C 327.906 -1.79567 0.94252 0
M  V30 3591 C 328.239 -1.86869 -0.528547 0
M  V30 3592 O 327.514 -1.35838 -1.39206 0
M  V30 3593 C 327.797 -3.24195 1.56747 0
M  V30 3594 C 327.65 -3.24989 3.10969 0
M  V30 3595 C 328.969 -4.21678 1.25998 0
M  V30 3596 H 326.088 -0.651883 0.343828 0
M  V30 3597 H 328.73 -1.2463 1.43413 0
M  V30 3598 H 326.88 -3.71107 1.14942 0
M  V30 3599 H 328.552 -2.86258 3.61737 0
M  V30 3600 H 326.795 -2.63716 3.44436 0
M  V30 3601 H 327.466 -4.27005 3.49815 0
M  V30 3602 H 329.942 -3.83196 1.62174 0
M  V30 3603 H 328.818 -5.21146 1.7233 0
M  V30 3604 H 329.079 -4.4174 0.178367 0
M  V30 3605 N 328.138 -0.959301 -1.25041 0
M  V30 3606 C 329.101 -0.487677 -2.23952 0
M  V30 3607 C 330.101 0.41119 -1.55454 0
M  V30 3608 O 331.291 0.207825 -1.72956 0
M  V30 3609 C 328.423 0.294807 -3.39623 0
M  V30 3610 H 329.616 -1.36198 -2.67189 0
M  V30 3611 H 327.169 -0.743042 -1.37508 0
M  V30 3612 H 327.904 1.18658 -3.01813 0
M  V30 3613 H 327.689 -0.35012 -3.90534 0
M  V30 3614 H 329.179 0.614089 -4.1306 0
M  V30 3615 N 329.616 1.39756 -0.72842 0
M  V30 3616 C 331.032 1.5442 -0.403308 0
M  V30 3617 C 331.232 1.69694 1.08656 0
M  V30 3618 O 330.288 1.69373 1.87267 0
M  V30 3619 C 331.601 2.76555 -1.18058 0
M  V30 3620 C 333.149 2.90384 -1.16815 0
M  V30 3621 C 333.624 4.15449 -1.92785 0
M  V30 3622 N 335.115 4.22475 -1.89918 0
M  V30 3623 C 335.85 5.1818 -2.45514 0
M  V30 3624 N 335.346 6.19714 -3.09719 0
M  V30 3625 N 337.139 5.1035 -2.35584 0
M  V30 3626 H 329.29 1.28089 -1.69431 0
M  V30 3627 H 331.553 0.620327 -0.716867 0
M  V30 3628 H 331.259 2.7159 -2.23455 0
M  V30 3629 H 331.133 3.69033 -0.780662 0
M  V30 3630 H 333.52 2.94846 -0.12234 0
M  V30 3631 H 333.601 1.98988 -1.6074 0
M  V30 3632 H 333.245 4.11749 -2.97364 0
M  V30 3633 H 333.175 5.05877 -1.46272 0
M  V30 3634 H 335.666 3.49743 -1.43138 0
M  V30 3635 H 335.979 6.8919 -3.49625 0
M  V30 3636 H 334.324 6.20121 -3.13807 0
M  V30 3637 H 337.515 4.2996 -1.85072 0
M  V30 3638 H 337.688 5.84761 -2.79211 0
M  V30 3639 N 331.094 0.475555 1.50254 0
M  V30 3640 C 332.004 -0.321501 2.32387 0
M  V30 3641 C 333.02 -0.991755 1.42969 0
M  V30 3642 O 334.196 -0.978747 1.76018 0
M  V30 3643 C 331.261 -1.38667 3.17762 0
M  V30 3644 C 330.322 -0.732538 4.23004 0
M  V30 3645 C 329.555 -1.74695 5.04299 0
M  V30 3646 O 329.778 -2.97399 4.86734 0
M  V30 3647 O 328.712 -1.31631 5.8733 0
M  V30 3648 H 332.538 0.350071 3.01676 0
M  V30 3649 H 330.123 0.237321 1.47503 0
M  V30 3650 H 332.005 -2.00354 3.70724 0
M  V30 3651 H 330.68 -2.04163 2.51196 0
M  V30 3652 H 329.587 -0.0765902 3.74022 0
M  V30 3653 H 330.92 -0.120452 4.92053 0
M  V30 3654 N 332.573 -1.56217 0.208337 0
M  V30 3655 C 333.536 -2.18455 -0.693557 0
M  V30 3656 C 334.536 -1.14268 -1.13135 0
M  V30 3657 O 335.726 -1.39577 -1.0423 0
M  V30 3658 C 332.858 -2.79727 -1.94848 0
M  V30 3659 H 334.051 -2.99519 -0.15114 0
M  V30 3660 H 331.604 -1.56245 -0.041287 0
M  V30 3661 H 332.339 -2.02497 -2.53309 0
M  V30 3662 H 332.124 -3.56009 -1.64316 0
M  V30 3663 H 333.614 -3.27475 -2.59133 0
M  V30 3664 N 334.051 0.0651679 -1.57465 0
M  V30 3665 C 335.276 0.779605 -1.9219 0
M  V30 3666 C 335.701 1.69988 -0.805333 0
M  V30 3667 O 335.059 1.79685 0.241435 0
M  V30 3668 C 335.107 1.54364 -3.2589 0
M  V30 3669 O 334.211 2.65474 -3.1559 0
M  V30 3670 H 333.552 0.212249 -0.629163 0
M  V30 3671 H 336.082 0.0314294 -2.04576 0
M  V30 3672 H 336.092 1.92146 -3.59922 0
M  V30 3673 H 334.767 0.868457 -4.06732 0
M  V30 3674 H 333.344 2.30501 -2.93128 0
M  V30 3675 N 335.529 1.53961 0.336706 0
M  V30 3676 C 336.806 1.62171 1.09361 0
M  V30 3677 C 337.186 0.447263 2.06307 0
M  V30 3678 O 336.534 -0.559802 2.21537 0
M  V30 3679 C 336.744 2.98565 1.80721 0
M  V30 3680 C 338.092 3.54157 2.34218 0
M  V30 3681 O 339.116 3.00784 1.90807 0
M  V30 3682 O 337.975 4.47528 3.13657 0
M  V30 3683 H 335.069 0.6562 0.503319 0
M  V30 3684 H 337.615 1.66307 0.33765 0
M  V30 3685 H 336.387 3.75482 1.10132 0
M  V30 3686 H 336.01 2.9805 2.63158 0
M  V30 3687 N 337.007 -0.598083 1.45811 0
M  V30 3688 C 337.954 -1.7082 1.55207 0
M  V30 3689 C 338.924 -1.61278 0.39732 0
M  V30 3690 O 340.109 -1.80717 0.612038 0
M  V30 3691 C 337.249 -3.09144 1.53376 0
M  V30 3692 C 336.362 -3.29423 2.79472 0
M  V30 3693 C 335.497 -4.57907 2.69248 0
M  V30 3694 C 334.536 -4.71476 3.90354 0
M  V30 3695 N 333.673 -5.9127 3.78608 0
M  V30 3696 H 338.513 -1.62125 2.50039 0
M  V30 3697 H 336.05 -0.790389 1.24062 0
M  V30 3698 H 338.008 -3.89186 1.50301 0
M  V30 3699 H 336.638 -3.16773 0.620876 0
M  V30 3700 H 335.69 -2.43091 2.92594 0
M  V30 3701 H 337.002 -3.3532 3.69272 0
M  V30 3702 H 336.156 -5.46157 2.64192 0
M  V30 3703 H 334.895 -4.54423 1.77063 0
M  V30 3704 H 333.9 -3.81648 3.95759 0
M  V30 3705 H 335.125 -4.76751 4.83617 0
M  V30 3706 H 333.071 -5.88813 2.89199 0
M  V30 3707 H 332.988 -5.98369 4.6205 0
M  V30 3708 H 334.256 -6.81992 3.77501 0
M  V30 3709 N 338.485 -1.33259 -0.841409 0
M  V30 3710 C 339.395 -1.25332 -1.98316 0
M  V30 3711 C 340.411 -0.164364 -1.73222 0
M  V30 3712 O 341.587 -0.387486 -1.97637 0
M  V30 3713 C 338.652 -0.990078 -3.32262 0
M  V30 3714 C 337.713 -2.16879 -3.70489 0
M  V30 3715 C 336.946 -1.91801 -4.98044 0
M  V30 3716 O 337.169 -0.867075 -5.63771 0
M  V30 3717 O 336.103 -2.78267 -5.33714 0
M  V30 3718 H 339.929 -2.21344 -2.07944 0
M  V30 3719 H 337.514 -1.1328 -0.974058 0
M  V30 3720 H 339.396 -0.860321 -4.12524 0
M  V30 3721 H 338.071 -0.0602155 -3.23644 0
M  V30 3722 H 336.978 -2.35407 -2.90748 0
M  V30 3723 H 338.311 -3.0819 -3.8377 0
M  V30 3724 N 339.963 1.05934 -1.16686 0
M  V30 3725 C 340.91 2.13499 -0.876748 0
M  V30 3726 C 341.88 1.65162 0.176299 0
M  V30 3727 O 343.065 1.90757 0.0407143 0
M  V30 3728 C 340.205 3.42912 -0.387967 0
M  V30 3729 C 339.318 4.04964 -1.50426 0
M  V30 3730 C 338.453 5.22266 -0.970125 0
M  V30 3731 C 337.492 5.76309 -2.06238 0
M  V30 3732 N 336.629 6.84922 -1.54356 0
M  V30 3733 H 341.469 2.37654 -1.7979 0
M  V30 3734 H 339.006 1.16598 -0.896843 0
M  V30 3735 H 340.964 4.17111 -0.086186 0
M  V30 3736 H 339.594 3.18963 0.496235 0
M  V30 3737 H 338.646 3.28277 -1.92193 0
M  V30 3738 H 339.958 4.41122 -2.32836 0
M  V30 3739 H 339.112 6.03506 -0.621743 0
M  V30 3740 H 337.851 4.87564 -0.115377 0
M  V30 3741 H 336.856 4.93704 -2.41942 0
M  V30 3742 H 338.081 6.13062 -2.92115 0
M  V30 3743 H 336.027 6.52131 -0.711406 0
M  V30 3744 H 335.944 7.20043 -2.30379 0
M  V30 3745 H 337.212 7.69832 -1.22387 0
M  V30 3746 N 341.441 0.965919 1.2453 0
M  V30 3747 C 342.404 0.499547 2.2369 0
M  V30 3748 C 343.404 -0.40294 1.5567 0
M  V30 3749 O 344.594 -0.19865 1.73064 0
M  V30 3750 C 341.726 -0.276792 3.39774 0
M  V30 3751 H 342.919 1.37613 2.66463 0
M  V30 3752 H 340.472 0.750324 1.37112 0
M  V30 3753 H 341.207 -1.17055 3.02438 0
M  V30 3754 H 340.992 0.370826 3.90343 0
M  V30 3755 H 342.482 -0.592175 4.1338 0
M  V30 3756 N 342.919 -1.39368 0.735821 0
M  V30 3757 C 343.866 -2.30599 0.0963825 0
M  V30 3758 C 344.836 -1.49257 -0.728794 0
M  V30 3759 O 346.021 -1.77941 -0.688588 0
M  V30 3760 C 343.161 -3.35596 -0.804305 0
M  V30 3761 C 342.274 -4.31987 0.0335761 0
M  V30 3762 C 341.409 -5.24053 -0.868461 0
M  V30 3763 C 340.448 -6.12095 -0.0258776 0
M  V30 3764 N 339.585 -6.96514 -0.883893 0
M  V30 3765 H 344.425 -2.8471 0.880002 0
M  V30 3766 H 341.962 -1.40188 0.445619 0
M  V30 3767 H 343.92 -3.95062 -1.34096 0
M  V30 3768 H 342.55 -2.82938 -1.55389 0
M  V30 3769 H 341.602 -3.74133 0.68766 0
M  V30 3770 H 342.914 -4.94074 0.685036 0
M  V30 3771 H 342.068 -5.88549 -1.47293 0
M  V30 3772 H 340.807 -4.62289 -1.5537 0
M  V30 3773 H 339.812 -5.4661 0.591386 0
M  V30 3774 H 341.037 -6.75923 0.656156 0
M  V30 3775 H 338.983 -6.37318 -1.55441 0
M  V30 3776 H 338.9 -7.55448 -0.288931 0
M  V30 3777 H 340.168 -7.65439 -1.4739 0
M  V30 3778 N 344.397 -0.483516 -1.5 0
M  V30 3779 C 345.674 0.129337 -1.95172 0
M  V30 3780 C 346.054 1.55802 -1.4244 0
M  V30 3781 O 345.402 2.19625 -0.630649 0
M  V30 3782 C 345.612 0.0599251 -3.48949 0
M  V30 3783 C 346.96 0.242617 -4.23906 0
M  V30 3784 O 347.984 0.135933 -3.55941 0
M  V30 3785 O 346.843 0.459454 -5.44565 0
M  V30 3786 H 343.937 0.104887 -0.820322 0
M  V30 3787 H 346.483 -0.544807 -1.60717 0
M  V30 3788 H 345.255 -0.937079 -3.79914 0
M  V30 3789 H 344.878 0.774984 -3.89974 0
M  V30 3790 N 345.875 1.56104 -0.216619 0
M  V30 3791 C 346.805 2.23063 0.690296 0
M  V30 3792 C 347.786 1.20072 1.20485 0
M  V30 3793 O 348.971 1.48643 1.24976 0
M  V30 3794 C 346.101 2.90672 1.90072 0
M  V30 3795 C 345.055 4.00092 1.5202 0
M  V30 3796 C 344.381 4.54972 2.80899 0
M  V30 3797 C 345.681 5.17398 0.71391 0
M  V30 3798 H 347.375 2.99109 0.132038 0
M  V30 3799 H 344.921 1.43866 0.0620664 0
M  V30 3800 H 346.874 3.36204 2.54057 0
M  V30 3801 H 345.598 2.12066 2.48386 0
M  V30 3802 H 344.257 3.55283 0.903839 0
M  V30 3803 H 343.905 3.73102 3.37348 0
M  V30 3804 H 343.605 5.28817 2.56176 0
M  V30 3805 H 345.129 5.0322 3.45836 0
M  V30 3806 H 346.543 5.59342 1.25735 0
M  V30 3807 H 344.94 5.97444 0.563951 0
M  V30 3808 H 346.01 4.84088 -0.280527 0
M  V30 3809 N 347.353 -0.0568162 1.57498 0
M  V30 3810 C 348.764 -0.606858 1.76562 0
M  V30 3811 C 349.115 -1.77114 0.844094 0
M  V30 3812 O 348.24 -2.16376 0.0318911 0
M  V30 3813 C 348.835 -1.10766 3.20182 0
M  V30 3814 C 347.394 -1.60344 3.40539 0
M  V30 3815 C 346.541 -0.529311 2.72201 0
M  V30 3816 H 349.492 0.169393 1.57793 0
M  V30 3817 H 349.513 -1.97602 3.25167 0
M  V30 3818 H 349.025 -0.26006 3.87228 0
M  V30 3819 H 347.126 -2.47379 2.78629 0
M  V30 3820 H 347.239 -1.67006 4.4905 0
M  V30 3821 H 345.603 -0.977893 2.35179 0
M  V30 3822 H 346.386 0.308352 3.41912 0
M  V30 3823 N 348.832 -1.54138 -0.328536 0
M  V30 3824 C 350.06 -1.76062 -1.08673 0
M  V30 3825 C 350.475 -0.506852 -1.81869 0
M  V30 3826 O 349.832 0.522223 -1.74869 0
M  V30 3827 C 349.883 -2.95054 -2.08866 0
M  V30 3828 O 349.604 -4.15583 -1.38644 0
M  V30 3829 C 351.105 -3.2915 -2.96943 0
M  V30 3830 H 348.325 -0.587889 -0.323461 0
M  V30 3831 H 350.869 -2.0101 -0.376175 0
M  V30 3832 H 349.024 -2.72394 -2.75464 0
M  V30 3833 H 349.438 -4.82481 -2.05699 0
M  V30 3834 H 350.912 -4.15723 -3.63151 0
M  V30 3835 H 351.389 -2.461 -3.63774 0
M  V30 3836 H 351.995 -3.53871 -2.35914 0
M  V30 3837 N 350.31 0.590341 -1.46126 0
M  V30 3838 C 351.557 1.34882 -1.5104 0
M  V30 3839 C 351.885 1.93849 -0.159021 0
M  V30 3840 O 351.14 1.76544 0.844436 0
M  V30 3841 C 351.439 2.5032 -2.55097 0
M  V30 3842 C 351.105 2.09394 -3.99331 0
M  V30 3843 C 349.767 1.97947 -4.38601 0
M  V30 3844 C 352.119 1.77712 -4.89967 0
M  V30 3845 C 349.447 1.53065 -5.66381 0
M  V30 3846 C 351.799 1.34312 -6.18177 0
M  V30 3847 C 350.463 1.21436 -6.56361 0
M  V30 3848 H 349.733 0.493568 -0.552695 0
M  V30 3849 H 352.38 0.665539 -1.79563 0
M  V30 3850 H 350.685 3.24062 -2.20207 0
M  V30 3851 H 352.382 3.08541 -2.56132 0
M  V30 3852 H 348.972 2.19235 -3.68285 0
M  V30 3853 H 353.156 1.85445 -4.60352 0
M  V30 3854 H 348.412 1.41733 -5.94745 0
M  V30 3855 H 352.586 1.08849 -6.87841 0
M  V30 3856 H 350.213 0.864345 -7.5527 0
M  V30 3857 N 351.788 1.33704 0.83433 0
M  V30 3858 C 352.735 1.24335 1.94447 0
M  V30 3859 C 353.705 0.120991 1.65659 0
M  V30 3860 O 354.89 0.300035 1.88426 0
M  V30 3861 C 352.03 0.993124 3.30501 0
M  V30 3862 C 351.143 2.20217 3.71657 0
M  V30 3863 C 350.278 1.88572 4.96602 0
M  V30 3864 C 349.317 3.05683 5.30306 0
M  V30 3865 N 348.454 2.73997 6.46429 0
M  V30 3866 H 353.294 2.1928 2.01792 0
M  V30 3867 H 350.831 1.09035 0.987404 0
M  V30 3868 H 352.789 0.828467 4.08892 0
M  V30 3869 H 351.419 0.0803902 3.227 0
M  V30 3870 H 350.471 2.47642 2.88752 0
M  V30 3871 H 351.783 3.07752 3.92543 0
M  V30 3872 H 350.937 1.68776 5.82752 0
M  V30 3873 H 349.676 0.982799 4.77695 0
M  V30 3874 H 348.681 3.26088 4.42659 0
M  V30 3875 H 349.906 3.96737 5.51159 0
M  V30 3876 H 347.852 1.86268 6.28999 0
M  V30 3877 H 347.769 3.55064 6.67432 0
M  V30 3878 H 349.037 2.57679 7.35678 0
M  V30 3879 N 353.266 -1.05314 1.17247 0
M  V30 3880 C 354.543 -1.75184 0.87005 0
M  V30 3881 C 354.923 -2.01481 -0.629965 0
M  V30 3882 O 354.271 -1.64988 -1.58086 0
M  V30 3883 C 354.481 -3.04594 1.70363 0
M  V30 3884 C 355.829 -3.78567 1.92281 0
M  V30 3885 O 356.853 -3.14461 1.67311 0
M  V30 3886 O 355.712 -4.93755 2.3424 0
M  V30 3887 H 352.806 -0.761729 0.322021 0
M  V30 3888 H 355.352 -1.11493 1.27935 0
M  V30 3889 H 354.124 -2.81201 2.72106 0
M  V30 3890 H 353.747 -3.76022 1.29202 0
M  V30 3891 N 354.744 -0.972509 -1.24016 0
M  V30 3892 C 355.692 -0.498562 -2.27194 0
M  V30 3893 C 356.686 0.440372 -1.63576 0
M  V30 3894 O 357.892 0.315133 -1.7722 0
M  V30 3895 H 354.267 -0.142775 -0.738322 0
M  V30 3896 H 356.238 -1.38065 -2.64539 0
M  V30 3897 C 354.987 0.191072 -3.47175 0
M  V30 3898 H 354.31 -0.522318 -3.96373 0
M  V30 3899 H 355.75 0.486445 -4.212 0
M  V30 3900 C 354.209 1.41967 -3.05527 0
M  V30 3901 O 354.739 2.51642 -3.13112 0
M  V30 3902 N 352.945 1.28746 -2.60524 0
M  V30 3903 H 352.492 0.395089 -2.54552 0
M  V30 3904 H 352.45 2.11061 -2.33025 0
M  V30 3905 N 356.222 1.38976 -0.743202 0
M  V30 3906 C 357.499 1.94351 -0.220705 0
M  V30 3907 C 357.879 1.67935 1.2791 0
M  V30 3908 O 357.227 1.01211 2.04862 0
M  V30 3909 C 357.437 3.44426 -0.563171 0
M  V30 3910 C 358.785 4.2144 -0.517046 0
M  V30 3911 O 359.809 3.52661 -0.500846 0
M  V30 3912 O 358.668 5.44032 -0.518806 0
M  V30 3913 H 355.762 0.825879 -0.043047 0
M  V30 3914 H 358.308 1.48429 -0.822618 0
M  V30 3915 H 357.08 3.5712 -1.59941 0
M  V30 3916 H 356.703 3.97543 0.0672883 0
M  V30 3917 N 357.7 0.491464 1.49741 0
M  V30 3918 C 358.947 -0.0564256 2.02421 0
M  V30 3919 C 359.275 -1.37872 1.37192 0
M  V30 3920 O 358.53 -1.89375 0.493508 0
M  V30 3921 C 358.829 -0.267329 3.56399 0
M  V30 3922 C 358.495 0.975775 4.40215 0
M  V30 3923 C 357.157 1.31655 4.62839 0
M  V30 3924 C 359.509 1.80251 4.89039 0
M  V30 3925 C 356.837 2.48375 5.31532 0
M  V30 3926 C 359.189 2.96116 5.59015 0
M  V30 3927 C 357.853 3.30585 5.79888 0
M  V30 3928 H 357.123 -0.0206476 0.740712 0
M  V30 3929 H 359.77 0.649686 1.80143 0
M  V30 3930 H 358.075 -1.05588 3.77304 0
M  V30 3931 H 359.772 -0.705549 3.94744 0
M  V30 3932 H 356.362 0.700315 4.2284 0
M  V30 3933 H 360.546 1.55239 4.71396 0
M  V30 3934 H 355.802 2.7533 5.45897 0
M  V30 3935 H 359.976 3.60509 5.95824 0
M  V30 3936 H 357.603 4.21132 6.32892 0
M  V30 3937 N 359.178 -1.55987 0.224894 0
M  V30 3938 C 360.108 -2.23426 -0.678457 0
M  V30 3939 C 361.089 -1.20709 -1.19847 0
M  V30 3940 O 362.274 -1.49304 -1.24186 0
M  V30 3941 C 359.404 -2.91676 -1.88527 0
M  V30 3942 C 358.358 -4.00893 -1.49896 0
M  V30 3943 C 357.684 -4.56455 -2.78483 0
M  V30 3944 C 358.984 -5.17769 -0.686461 0
M  V30 3945 H 360.678 -2.99175 -0.116173 0
M  V30 3946 H 358.224 -1.43897 -0.054436 0
M  V30 3947 H 360.177 -3.37547 -2.5227 0
M  V30 3948 H 358.901 -2.1338 -2.47258 0
M  V30 3949 H 357.56 -3.55758 -0.884985 0
M  V30 3950 H 357.208 -3.74886 -3.35365 0
M  V30 3951 H 356.908 -5.30169 -2.53368 0
M  V30 3952 H 358.432 -5.05047 -3.43162 0
M  V30 3953 H 359.846 -5.60001 -1.22767 0
M  V30 3954 H 358.243 -5.97735 -0.532259 0
M  V30 3955 H 359.313 -4.83932 0.306196 0
M  V30 3956 N 360.656 0.0484629 -1.57525 0
M  V30 3957 C 361.604 1.07359 -2.06341 0
M  V30 3958 C 362.598 1.3865 -0.973269 0
M  V30 3959 O 363.804 1.37783 -1.15827 0
M  V30 3960 H 360.179 0.363662 -0.65822 0
M  V30 3961 H 362.15 0.635916 -2.91545 0
M  V30 3962 C 360.899 2.37198 -2.54229 0
M  V30 3963 H 360.222 2.13977 -3.37719 0
M  V30 3964 H 361.662 3.07319 -2.92115 0
M  V30 3965 C 360.121 3.04805 -1.43511 0
M  V30 3966 O 360.651 3.93848 -0.79034 0
M  V30 3967 N 358.857 2.65811 -1.17444 0
M  V30 3968 H 358.404 1.93488 -1.70059 0
M  V30 3969 H 358.362 3.11366 -0.435737 0
M  V30 3970 N 362.134 1.5431 0.320358 0
M  V30 3971 C 363.044 1.86946 1.41734 0
M  V30 3972 C 364.06 0.761689 1.56443 0
M  V30 3973 O 365.236 1.05629 1.71477 0
M  V30 3974 C 362.301 2.09293 2.76401 0
M  V30 3975 C 361.362 3.33082 2.70841 0
M  V30 3976 C 360.595 3.54353 3.99086 0
M  V30 3977 O 360.818 2.79002 4.97508 0
M  V30 3978 O 359.752 4.47838 4.0215 0
M  V30 3979 H 363.578 2.80232 1.17062 0
M  V30 3980 H 361.163 1.40255 0.514673 0
M  V30 3981 H 363.045 2.25303 3.56113 0
M  V30 3982 H 361.72 1.19194 3.00956 0
M  V30 3983 H 360.627 3.22454 1.89668 0
M  V30 3984 H 361.96 4.23249 2.5124 0
M  V30 3985 N 363.613 -0.582584 1.46437 0
M  V30 3986 C 364.861 -1.33814 1.51453 0
M  V30 3987 C 365.182 -1.94277 0.167792 0
M  V30 3988 O 364.452 -1.78566 -0.805677 0
M  V30 3989 H 363.032 -0.496838 0.557818 0
M  V30 3990 H 365.694 -0.682281 1.82568 0
M  V30 3991 H 364.79 -2.14479 2.26728 0
M  V30 3992 N 365.091 -1.34144 -0.827227 0
M  V30 3993 C 366.023 -1.21206 -1.9453 0
M  V30 3994 C 367.036 -0.140176 -1.62195 0
M  V30 3995 O 368.225 -0.391647 -1.7415 0
M  V30 3996 C 365.325 -0.839141 -3.28347 0
M  V30 3997 C 364.498 -2.0051 -3.88734 0
M  V30 3998 C 363.557 -1.61128 -5.00923 0
M  V30 3999 O 362.583 -2.32726 -5.19449 0
M  V30 4000 N 363.785 -0.522958 -5.7814 0
M  V30 4001 H 366.55 -2.17525 -2.06162 0
M  V30 4002 H 364.111 -1.27043 -1.00358 0
M  V30 4003 H 366.103 -0.557556 -4.00841 0
M  V30 4004 H 364.673 0.0337293 -3.12582 0
M  V30 4005 H 363.893 -2.45166 -3.08686 0
M  V30 4006 H 365.181 -2.78498 -4.25812 0
M  V30 4007 H 364.579 0.0723518 -5.65654 0
M  V30 4008 H 363.136 -0.301089 -6.51104 0
M  V30 4009 N 366.569 1.04691 -1.17803 0
M  V30 4010 C 367.516 2.12557 -0.899343 0
M  V30 4011 C 368.486 1.65339 0.158771 0
M  V30 4012 O 369.671 1.90789 0.0204797 0
M  V30 4013 C 366.811 3.42481 -0.424315 0
M  V30 4014 C 365.924 4.03346 -1.54713 0
M  V30 4015 C 365.059 5.21208 -1.02546 0
M  V30 4016 C 364.098 5.74089 -2.12339 0
M  V30 4017 N 363.235 6.83247 -1.61612 0
M  V30 4018 H 368.075 2.35734 -1.823 0
M  V30 4019 H 365.612 1.1564 -0.909159 0
M  V30 4020 H 367.57 4.16996 -0.130421 0
M  V30 4021 H 366.2 3.19471 0.462377 0
M  V30 4022 H 365.252 3.2622 -1.95664 0
M  V30 4023 H 366.564 4.38628 -2.37501 0
M  V30 4024 H 365.718 6.02812 -0.685718 0
M  V30 4025 H 364.457 4.87414 -0.167084 0
M  V30 4026 H 363.462 4.91111 -2.47165 0
M  V30 4027 H 364.687 6.0993 -2.98601 0
M  V30 4028 H 362.633 6.5134 -0.780533 0
M  V30 4029 H 362.55 7.17559 -2.38003 0
M  V30 4030 H 363.818 7.68491 -1.30545 0
M  V30 4031 N 368.047 0.979072 1.23499 0
M  V30 4032 C 368.977 0.537606 2.27227 0
M  V30 4033 C 369.958 -0.428539 1.64613 0
M  V30 4034 O 371.143 -0.322191 1.91509 0
M  V30 4035 C 368.273 -0.162052 3.46922 0
M  V30 4036 C 367.227 0.721242 4.21879 0
M  V30 4037 C 366.553 -0.110555 5.34586 0
M  V30 4038 C 367.853 2.01141 4.82016 0
M  V30 4039 H 369.547 1.40462 2.64406 0
M  V30 4040 H 367.093 0.67684 1.27102 0
M  V30 4041 H 369.046 -0.482192 4.18632 0
M  V30 4042 H 367.77 -1.06351 3.08799 0
M  V30 4043 H 366.429 1.02482 3.51984 0
M  V30 4044 H 366.077 -1.0125 4.92704 0
M  V30 4045 H 365.777 0.477325 5.85658 0
M  V30 4046 H 367.301 -0.425107 6.09118 0
M  V30 4047 H 368.715 1.75612 5.45741 0
M  V30 4048 H 367.112 2.54695 5.43369 0
M  V30 4049 H 368.182 2.69909 4.02836 0
M  V30 4050 N 369.525 -1.3858 0.750561 0
M  V30 4051 C 370.475 -2.27795 0.0965949 0
M  V30 4052 C 371.459 -1.45048 -0.696411 0
M  V30 4053 O 372.651 -1.67812 -0.562863 0
M  V30 4054 C 369.78 -3.33894 -0.798085 0
M  V30 4055 C 368.866 -4.241 0.0016067 0
M  V30 4056 N 369.257 -4.95067 1.03647 0
M  V30 4057 C 367.555 -4.45429 -0.225674 0
M  V30 4058 C 368.256 -5.61489 1.52004 0
M  V30 4059 N 367.232 -5.37135 0.835874 0
M  V30 4060 H 371.034 -2.80125 0.889228 0
M  V30 4061 H 368.548 -1.51446 0.586323 0
M  V30 4062 H 370.545 -3.96693 -1.28219 0
M  V30 4063 H 369.205 -2.83123 -1.5897 0
M  V30 4064 H 370.216 -4.98104 1.41819 0
M  V30 4065 H 366.893 -4.05571 -0.990872 0
M  V30 4066 H 368.283 -6.28264 2.38188 0
M  V30 4067 N 371.003 -0.499398 -1.49478 0
M  V30 4068 C 372.249 0.0457576 -2.02748 0
M  V30 4069 C 372.582 1.36793 -1.37846 0
M  V30 4070 O 371.857 1.87596 -0.513601 0
M  V30 4071 C 372.14 0.199986 -3.59544 0
M  V30 4072 C 371.993 -1.1452 -4.34977 0
M  V30 4073 C 373.312 0.94137 -4.29914 0
M  V30 4074 H 370.431 0.0151552 -0.736844 0
M  V30 4075 H 373.073 -0.650498 -1.78518 0
M  V30 4076 H 371.223 0.793007 -3.8032 0
M  V30 4077 H 372.895 -1.77697 -4.25701 0
M  V30 4078 H 371.138 -1.73488 -3.97598 0
M  V30 4079 H 371.809 -0.990607 -5.43039 0
M  V30 4080 H 374.285 0.43844 -4.13784 0
M  V30 4081 H 373.161 1.01812 -5.39375 0
M  V30 4082 H 373.422 1.98471 -3.95046 0
M  V30 4083 N 372.481 1.55866 -0.233164 0
M  V30 4084 C 373.729 1.9821 0.394593 0
M  V30 4085 C 374.05 1.12234 1.59463 0
M  V30 4086 O 373.32 0.201981 1.94856 0
M  V30 4087 H 371.9 0.732034 0.148778 0
M  V30 4088 H 374.562 1.92107 -0.32876 0
M  V30 4089 H 373.658 3.03845 0.713063 0
M  V30 4090 N 373.959 -0.0401083 1.57549 0
M  V30 4091 C 374.869 -1.06133 2.0922 0
M  V30 4092 C 375.885 -1.40356 1.0284 0
M  V30 4093 O 377.061 -1.49897 1.34509 0
M  V30 4094 C 374.126 -2.34658 2.55218 0
M  V30 4095 C 373.187 -2.07117 3.76033 0
M  V30 4096 C 372.42 -3.29514 4.19829 0
M  V30 4097 O 372.643 -4.39794 3.63232 0
M  V30 4098 O 371.577 -3.15863 5.12362 0
M  V30 4099 H 375.403 -0.652244 2.96613 0
M  V30 4100 H 372.988 -0.256368 1.47184 0
M  V30 4101 H 374.87 -3.10239 2.85184 0
M  V30 4102 H 373.545 -2.74883 1.70941 0
M  V30 4103 H 372.452 -1.29139 3.51104 0
M  V30 4104 H 373.785 -1.71754 4.61261 0
M  V30 4105 N 375.437 -1.54477 -0.31217 0
M  V30 4106 C 376.347 -1.87695 -1.4074 0
M  V30 4107 C 377.363 -0.769975 -1.56036 0
M  V30 4108 O 378.539 -1.06537 -1.70915 0
M  V30 4109 C 375.604 -2.10755 -2.75287 0
M  V30 4110 C 374.665 -3.34514 -2.69071 0
M  V30 4111 C 373.898 -3.56465 -3.97201 0
M  V30 4112 O 374.121 -2.81637 -4.96021 0
M  V30 4113 O 373.055 -4.49964 -3.9977 0
M  V30 4114 H 376.881 -2.80849 -1.15574 0
M  V30 4115 H 374.466 -1.40526 -0.507228 0
M  V30 4116 H 376.348 -2.27188 -3.54913 0
M  V30 4117 H 375.023 -1.20788 -3.0032 0
M  V30 4118 H 373.93 -3.23456 -1.87955 0
M  V30 4119 H 375.263 -4.24575 -2.48992 0
M  V30 4120 N 376.915 0.57481 -1.46744 0
M  V30 4121 C 378.14 1.36341 -1.56288 0
M  V30 4122 C 378.565 1.86954 -0.207347 0
M  V30 4123 O 377.923 1.62006 0.813871 0
M  V30 4124 C 377.971 2.52147 -2.57787 0
M  V30 4125 O 377.075 3.53834 -2.11838 0
M  V30 4126 H 376.416 0.405713 -0.525636 0
M  V30 4127 H 378.946 0.696453 -1.92382 0
M  V30 4128 H 378.956 2.98958 -2.77648 0
M  V30 4129 H 377.631 2.14663 -3.5622 0
M  V30 4130 H 376.208 3.1345 -2.01999 0
M  V30 4131 N 378.394 1.34581 0.820102 0
M  V30 4132 C 379.341 1.2639 1.93117 0
M  V30 4133 C 380.311 0.138554 1.65521 0
M  V30 4134 O 381.496 0.320004 1.88097 0
M  V30 4135 C 378.636 1.02812 3.29429 0
M  V30 4136 C 377.749 2.24146 3.693 0
M  V30 4137 C 376.884 1.93829 4.94574 0
M  V30 4138 C 375.923 3.1129 5.27034 0
M  V30 4139 N 375.06 2.80838 6.43486 0
M  V30 4140 H 379.9 2.21408 1.99455 0
M  V30 4141 H 377.437 1.10077 0.975784 0
M  V30 4142 H 379.395 0.871788 4.0799 0
M  V30 4143 H 378.025 0.114612 3.22596 0
M  V30 4144 H 377.077 2.50691 2.86109 0
M  V30 4145 H 378.389 3.11899 3.89257 0
M  V30 4146 H 377.543 1.74948 5.80929 0
M  V30 4147 H 376.282 1.03341 4.76626 0
M  V30 4148 H 375.287 3.30764 4.39175 0
M  V30 4149 H 376.512 4.02561 5.4692 0
M  V30 4150 H 374.458 1.92929 6.26988 0
M  V30 4151 H 374.375 3.62123 6.63629 0
M  V30 4152 H 375.643 2.65467 7.32903 0
M  V30 4153 N 379.872 -1.04064 1.18357 0
M  V30 4154 C 380.819 -2.12077 0.910603 0
M  V30 4155 C 381.789 -1.65421 -0.15 0
M  V30 4156 O 382.974 -1.90797 -0.0103614 0
M  V30 4157 C 380.114 -3.42252 0.442472 0
M  V30 4158 C 379.227 -4.0252 1.5685 0
M  V30 4159 C 378.362 -5.20657 1.05309 0
M  V30 4160 C 377.401 -5.72955 2.1538 0
M  V30 4161 N 376.538 -6.8238 1.65233 0
M  V30 4162 H 381.378 -2.34764 1.83548 0
M  V30 4163 H 378.915 -1.15157 0.915279 0
M  V30 4164 H 380.873 -4.16921 0.152534 0
M  V30 4165 H 379.503 -3.19712 -0.445428 0
M  V30 4166 H 378.555 -3.25178 1.97391 0
M  V30 4167 H 379.867 -4.37362 2.39824 0
M  V30 4168 H 379.021 -6.0244 0.717677 0
M  V30 4169 H 377.76 -4.87318 0.19293 0
M  V30 4170 H 376.765 -4.89793 2.49766 0
M  V30 4171 H 377.99 -6.08337 3.01832 0
M  V30 4172 H 375.936 -6.50917 0.815064 0
M  V30 4173 H 375.853 -7.16286 2.41805 0
M  V30 4174 H 377.121 -7.67788 1.34619 0
M  V30 4175 N 381.35 -0.985608 -1.22978 0
M  V30 4176 C 382.298 -0.522631 -2.26652 0
M  V30 4177 C 383.292 0.422998 -1.64034 0
M  V30 4178 O 384.498 0.296319 -1.77544 0
M  V30 4179 H 380.873 -0.150597 -0.736766 0
M  V30 4180 H 382.844 -1.40863 -2.63059 0
M  V30 4181 C 381.593 0.154238 -3.47358 0
M  V30 4182 H 380.916 -0.564329 -3.95797 0
M  V30 4183 H 382.356 0.441744 -4.21693 0
M  V30 4184 C 380.815 1.38719 -3.07016 0
M  V30 4185 O 381.345 2.48307 -3.15764 0
M  V30 4186 N 379.551 1.25975 -2.61875 0
M  V30 4187 H 379.098 0.368068 -2.54957 0
M  V30 4188 H 379.056 2.08578 -2.3525 0
M  V30 4189 N 382.828 1.3818 -0.7579 0
M  V30 4190 C 384.075 2.00019 -0.315985 0
M  V30 4191 C 384.403 1.60163 1.10355 0
M  V30 4192 O 383.658 0.83264 1.77103 0
M  V30 4193 C 383.957 3.55252 -0.391218 0
M  V30 4194 C 383.623 4.14834 -1.76702 0
M  V30 4195 C 382.285 4.30821 -2.14353 0
M  V30 4196 C 384.637 4.47658 -2.66931 0
M  V30 4197 C 381.965 4.76928 -3.41696 0
M  V30 4198 C 384.317 4.95184 -3.93669 0
M  V30 4199 C 382.981 5.09377 -4.31383 0
M  V30 4200 H 382.251 0.731923 -0.115627 0
M  V30 4201 H 384.898 1.65161 -0.969223 0
M  V30 4202 H 383.203 3.90273 0.34558 0
M  V30 4203 H 384.9 4.00988 -0.030805 0
M  V30 4204 H 381.49 4.02808 -1.46435 0
M  V30 4205 H 385.674 4.34904 -2.39106 0
M  V30 4206 H 380.93 4.86103 -3.70829 0
M  V30 4207 H 385.104 5.19551 -4.63724 0
M  V30 4208 H 382.731 5.44865 -5.30119 0
M  V30 4209 N 384.306 0.507319 1.49211 0
M  V30 4210 C 385.236 -0.256939 2.32082 0
M  V30 4211 C 386.217 -0.956609 1.40652 0
M  V30 4212 O 387.402 -0.946788 1.69557 0
M  V30 4213 C 384.532 -1.31802 3.21318 0
M  V30 4214 C 383.486 -0.737855 4.21592 0
M  V30 4215 C 382.812 -1.89992 4.99807 0
M  V30 4216 C 384.112 0.275325 5.21574 0
M  V30 4217 H 385.806 0.434798 2.96226 0
M  V30 4218 H 383.352 0.210546 1.42452 0
M  V30 4219 H 385.305 -1.86045 3.78107 0
M  V30 4220 H 384.029 -2.03903 2.5513 0
M  V30 4221 H 382.688 -0.217126 3.65956 0
M  V30 4222 H 382.336 -2.60877 4.30061 0
M  V30 4223 H 382.036 -1.51777 5.6766 0
M  V30 4224 H 383.56 -2.44657 5.59442 0
M  V30 4225 H 384.974 -0.179193 5.7302 0
M  V30 4226 H 383.371 0.573649 5.97352 0
M  V30 4227 H 384.441 1.18903 4.70096 0
M  V30 4228 N 385.784 -1.5574 0.241426 0
M  V30 4229 C 386.694 -2.2479 -0.671305 0
M  V30 4230 C 387.71 -1.26217 -1.19772 0
M  V30 4231 O 388.886 -1.59079 -1.23514 0
M  V30 4232 C 385.951 -2.92966 -1.85396 0
M  V30 4233 C 385.012 -4.06935 -1.36756 0
M  V30 4234 C 384.245 -4.71851 -2.49384 0
M  V30 4235 O 384.468 -4.35823 -3.67987 0
M  V30 4236 O 383.402 -5.60467 -2.19454 0
M  V30 4237 H 387.228 -3.0349 -0.112966 0
M  V30 4238 H 384.813 -1.49397 0.0101513 0
M  V30 4239 H 386.695 -3.35927 -2.54423 0
M  V30 4240 H 385.37 -2.17211 -2.40002 0
M  V30 4241 H 384.277 -3.68503 -0.644726 0
M  V30 4242 H 385.61 -4.84492 -0.867647 0
M  V30 4243 N 387.262 0.0317525 -1.57568 0
M  V30 4244 C 388.209 1.0332 -2.06382 0
M  V30 4245 C 389.179 1.36082 -0.952414 0
M  V30 4246 O 390.364 1.46466 -1.2228 0
M  V30 4247 C 387.504 2.32989 -2.54578 0
M  V30 4248 C 386.617 2.0641 -3.79498 0
M  V30 4249 C 385.752 3.2993 -4.16317 0
M  V30 4250 C 384.791 2.98893 -5.34162 0
M  V30 4251 N 383.928 4.14857 -5.66426 0
M  V30 4252 H 388.768 0.609982 -2.9169 0
M  V30 4253 H 386.305 0.289573 -1.44222 0
M  V30 4254 H 388.263 3.0875 -2.80587 0
M  V30 4255 H 386.893 2.73039 -1.7219 0
M  V30 4256 H 385.945 1.21158 -3.6059 0
M  V30 4257 H 387.257 1.79513 -4.65378 0
M  V30 4258 H 386.411 4.1406 -4.4344 0
M  V30 4259 H 385.15 3.59938 -3.29083 0
M  V30 4260 H 384.155 2.13164 -5.06795 0
M  V30 4261 H 385.38 2.70165 -6.23047 0
M  V30 4262 H 383.326 4.44821 -4.82151 0
M  V30 4263 H 383.243 3.91374 -6.4681 0
M  V30 4264 H 384.511 4.99868 -5.98124 0
M  V30 4265 N 388.74 1.54641 0.303973 0
M  V30 4266 C 389.67 1.88386 1.3796 0
M  V30 4267 C 390.651 0.742485 1.5304 0
M  V30 4268 O 391.836 0.997959 1.66597 0
M  V30 4269 C 388.966 2.12854 2.74427 0
M  V30 4270 C 387.92 3.28702 2.74115 0
M  V30 4271 C 387.246 3.38582 4.13844 0
M  V30 4272 C 388.546 4.65881 2.3612 0
M  V30 4273 H 390.24 2.78474 1.09966 0
M  V30 4274 H 387.786 1.33988 0.527556 0
M  V30 4275 H 389.739 2.35047 3.49758 0
M  V30 4276 H 388.463 1.19535 3.03939 0
M  V30 4277 H 387.122 3.06428 2.0124 0
M  V30 4278 H 386.77 2.42784 4.40528 0
M  V30 4279 H 386.47 4.16453 4.14537 0
M  V30 4280 H 387.994 3.63031 4.90959 0
M  V30 4281 H 389.408 4.87823 3.01167 0
M  V30 4282 H 387.805 5.46444 2.48031 0
M  V30 4283 H 388.875 4.66799 1.3125 0
M  V30 4284 N 390.218 -0.567019 1.47046 0
M  V30 4285 C 391.165 -1.67489 1.58796 0
M  V30 4286 C 392.135 -1.60399 0.43144 0
M  V30 4287 O 393.32 -1.79378 0.650233 0
M  V30 4288 C 390.46 -3.05821 1.59899 0
M  V30 4289 C 389.573 -3.2342 2.86397 0
M  V30 4290 C 388.708 -4.52093 2.789 0
M  V30 4291 C 387.747 -4.6309 4.00267 0
M  V30 4292 N 386.884 -5.83106 3.91064 0
M  V30 4293 H 391.724 -1.56785 2.53422 0
M  V30 4294 H 389.261 -0.763896 1.2571 0
M  V30 4295 H 391.219 -3.8591 1.58522 0
M  V30 4296 H 389.849 -3.15384 0.687929 0
M  V30 4297 H 388.901 -2.3683 2.97684 0
M  V30 4298 H 390.213 -3.27412 3.76301 0
M  V30 4299 H 389.367 -5.4043 2.75718 0
M  V30 4300 H 388.106 -4.50565 1.86662 0
M  V30 4301 H 387.111 -3.73168 4.03765 0
M  V30 4302 H 388.336 -4.66386 4.93621 0
M  V30 4303 H 386.282 -5.82546 3.01623 0
M  V30 4304 H 386.199 -5.88434 4.74638 0
M  V30 4305 H 387.467 -6.73831 3.91882 0
M  V30 4306 N 391.696 -1.35014 -0.812953 0
M  V30 4307 C 393.112 -1.14914 -1.10757 0
M  V30 4308 C 393.312 0.0426818 -2.01455 0
M  V30 4309 O 392.368 0.715212 -2.42159 0
M  V30 4310 C 393.681 -2.44911 -1.74468 0
M  V30 4311 C 395.229 -2.5106 -1.86917 0
M  V30 4312 C 395.704 -3.81085 -2.54044 0
M  V30 4313 N 397.195 -3.82301 -2.61535 0
M  V30 4314 C 397.93 -4.79634 -3.14227 0
M  V30 4315 N 397.426 -5.87353 -3.67407 0
M  V30 4316 N 399.219 -4.67078 -3.12721 0
M  V30 4317 H 391.37 -2.1136 -0.20989 0
M  V30 4318 H 393.633 -0.935128 -0.155692 0
M  V30 4319 H 393.339 -3.32267 -1.15289 0
M  V30 4320 H 393.213 -2.58989 -2.74234 0
M  V30 4321 H 395.6 -1.64137 -2.45241 0
M  V30 4322 H 395.681 -2.40901 -0.860242 0
M  V30 4323 H 395.325 -4.68402 -1.96372 0
M  V30 4324 H 395.255 -3.88529 -3.55461 0
M  V30 4325 H 397.746 -3.04465 -2.23851 0
M  V30 4326 H 398.059 -6.57624 -4.05894 0
M  V30 4327 H 396.404 -5.91054 -3.65623 0
M  V30 4328 H 399.595 -3.82067 -2.70449 0
M  V30 4329 H 399.768 -5.43098 -3.53481 0
M  V30 4330 N 393.175 1.03435 -1.18907 0
M  V30 4331 C 394.452 1.73778 -0.89781 0
M  V30 4332 C 394.832 2.02458 0.597832 0
M  V30 4333 O 394.18 1.67482 1.55441 0
M  V30 4334 C 394.39 3.01845 -1.75187 0
M  V30 4335 C 395.738 3.7546 -1.9828 0
M  V30 4336 O 396.762 3.11759 -1.72293 0
M  V30 4337 O 395.621 4.89966 -2.42065 0
M  V30 4338 H 392.715 0.75651 -0.334098 0
M  V30 4339 H 395.261 1.09444 -1.29693 0
M  V30 4340 H 394.033 2.76836 -2.76545 0
M  V30 4341 H 393.656 3.73919 -1.35167 0
M  V30 4342 N 394.653 0.992116 1.22453 0
M  V30 4343 C 395.899 0.668523 1.91464 0
M  V30 4344 C 396.232 -0.797313 1.77078 0
M  V30 4345 O 395.507 -1.5765 1.13916 0
M  V30 4346 C 395.79 1.07424 3.43703 0
M  V30 4347 C 395.643 2.59857 3.67143 0
M  V30 4348 C 396.962 0.626891 4.35612 0
M  V30 4349 H 394.081 0.244341 0.695318 0
M  V30 4350 H 396.723 1.2355 1.44345 0
M  V30 4351 H 394.873 0.591816 3.83966 0
M  V30 4352 H 396.545 3.15764 3.3629 0
M  V30 4353 H 394.788 3.01961 3.11451 0
M  V30 4354 H 395.459 2.83296 4.73759 0
M  V30 4355 H 397.935 1.04125 4.02861 0
M  V30 4356 H 396.811 0.939076 5.40807 0
M  V30 4357 H 397.072 -0.472457 4.39568 0
M  V30 4358 N 396.131 -1.37776 0.765217 0
M  V30 4359 C 397.041 -2.34135 0.147666 0
M  V30 4360 C 398.057 -1.59854 -0.687215 0
M  V30 4361 O 399.233 -1.91983 -0.608659 0
M  V30 4362 C 396.298 -3.3901 -0.72617 0
M  V30 4363 C 395.359 -4.2912 0.124417 0
M  V30 4364 C 394.592 -5.28986 -0.707807 0
M  V30 4365 O 394.815 -5.36205 -1.94525 0
M  V30 4366 O 393.749 -6.01779 -0.12046 0
M  V30 4367 H 397.575 -2.88664 0.943758 0
M  V30 4368 H 395.16 -1.39824 0.526277 0
M  V30 4369 H 397.042 -4.03195 -1.22524 0
M  V30 4370 H 395.717 -2.86819 -1.50056 0
M  V30 4371 H 394.624 -3.68057 0.669696 0
M  V30 4372 H 395.957 -4.84598 0.861736 0
M  V30 4373 N 397.609 -0.515225 -1.4894 0
M  V30 4374 C 398.856 0.024215 -2.02486 0
M  V30 4375 C 399.184 1.35671 -1.39368 0
M  V30 4376 O 398.439 1.88566 -0.523574 0
M  V30 4377 C 398.738 0.210595 -3.56779 0
M  V30 4378 C 398.404 -1.04569 -4.38607 0
M  V30 4379 C 397.066 -1.39002 -4.60686 0
M  V30 4380 C 399.418 -1.88008 -4.86109 0
M  V30 4381 C 396.746 -2.568 -5.27514 0
M  V30 4382 C 399.098 -3.04972 -5.54234 0
M  V30 4383 C 397.762 -3.39768 -5.74555 0
M  V30 4384 H 397.032 0.00886088 -0.740947 0
M  V30 4385 H 399.679 -0.678263 -1.79086 0
M  V30 4386 H 397.984 0.99572 -3.78936 0
M  V30 4387 H 399.681 0.642659 -3.95817 0
M  V30 4388 H 396.271 -0.767497 -4.21672 0
M  V30 4389 H 400.455 -1.62719 -4.68867 0
M  V30 4390 H 395.711 -2.8398 -5.41447 0
M  V30 4391 H 399.885 -3.69943 -5.90013 0
M  V30 4392 H 397.512 -4.31148 -6.26112 0
M  V30 4393 N 399.087 1.5561 -0.249682 0
M  V30 4394 C 400.017 2.24477 0.642826 0
M  V30 4395 C 400.998 1.22601 1.17911 0
M  V30 4396 O 402.183 1.5126 1.21795 0
M  V30 4397 C 399.313 2.94638 1.83863 0
M  V30 4398 C 398.267 4.03227 1.435 0
M  V30 4399 C 397.593 4.60828 2.71186 0
M  V30 4400 C 398.893 5.18796 0.604002 0
M  V30 4401 H 400.587 2.99321 0.0685625 0
M  V30 4402 H 398.133 1.43965 0.0315363 0
M  V30 4403 H 400.086 3.41517 2.46868 0
M  V30 4404 H 398.81 2.17287 2.43832 0
M  V30 4405 H 397.469 3.57121 0.828275 0
M  V30 4406 H 397.117 3.80174 3.29358 0
M  V30 4407 H 396.817 5.34132 2.44901 0
M  V30 4408 H 398.341 5.10442 3.35084 0
M  V30 4409 H 399.755 5.61883 1.13842 0
M  V30 4410 H 398.152 5.98506 0.437097 0
M  V30 4411 H 399.222 4.83384 -0.383147 0
M  V30 4412 N 400.565 -0.0233959 1.57583 0
M  V30 4413 C 401.528 -1.00693 2.05897 0
M  V30 4414 C 402.528 -1.28693 0.964092 0
M  V30 4415 O 403.718 -1.23602 1.22753 0
M  V30 4416 C 400.85 -2.33825 2.4807 0
M  V30 4417 H 402.043 -0.589476 2.9405 0
M  V30 4418 H 399.596 -0.270354 1.53944 0
M  V30 4419 H 400.331 -2.80307 1.6309 0
M  V30 4420 H 400.116 -2.1483 3.2801 0
M  V30 4421 H 401.606 -3.04426 2.85857 0
M  V30 4422 N 402.043 -1.548 -0.295768 0
M  V30 4423 C 402.975 -1.82492 -1.3867 0
M  V30 4424 C 403.988 -0.708134 -1.46592 0
M  V30 4425 O 405.177 -0.985686 -1.48817 0
M  V30 4426 C 402.277 -1.95256 -2.76999 0
M  V30 4427 C 401.45 -3.25709 -2.91946 0
M  V30 4428 C 400.509 -3.28824 -4.10806 0
M  V30 4429 O 399.535 -4.02328 -4.02643 0
M  V30 4430 N 400.737 -2.5459 -5.21694 0
M  V30 4431 H 403.502 -2.76646 -1.15269 0
M  V30 4432 H 401.063 -1.54438 -0.485849 0
M  V30 4433 H 403.055 -1.94736 -3.54768 0
M  V30 4434 H 401.625 -1.08072 -2.93324 0
M  V30 4435 H 400.845 -3.38959 -2.01247 0
M  V30 4436 H 402.133 -4.11786 -2.98847 0
M  V30 4437 H 401.531 -1.94512 -5.31208 0
M  V30 4438 H 400.088 -2.59818 -5.97778 0
M  V30 4439 N 403.521 0.559213 -1.47345 0
M  V30 4440 C 404.451 1.67622 -1.62558 0
M  V30 4441 C 405.432 1.63331 -0.475087 0
M  V30 4442 O 406.617 1.80983 -0.704182 0
M  V30 4443 C 403.747 3.0626 -1.63774 0
M  V30 4444 C 402.701 3.25397 -2.7803 0
M  V30 4445 C 402.027 4.64801 -2.64318 0
M  V30 4446 C 403.327 3.10965 -4.19641 0
M  V30 4447 H 405.021 1.55146 -2.56067 0
M  V30 4448 H 402.567 0.744961 -1.23233 0
M  V30 4449 H 404.52 3.84247 -1.73008 0
M  V30 4450 H 403.244 3.1969 -0.66825 0
M  V30 4451 H 401.903 2.49817 -2.68304 0
M  V30 4452 H 401.551 4.75028 -1.65401 0
M  V30 4453 H 401.251 4.78555 -3.40968 0
M  V30 4454 H 402.775 5.44926 -2.75478 0
M  V30 4455 H 404.189 3.78772 -4.30354 0
M  V30 4456 H 402.586 3.36229 -4.97062 0
M  V30 4457 H 403.656 2.07736 -4.38148 0
M  V30 4458 N 404.999 1.35443 0.805782 0
M  V30 4459 C 405.946 1.28431 1.91766 0
M  V30 4460 C 406.916 0.156102 1.65365 0
M  V30 4461 O 408.101 0.339936 1.87747 0
M  V30 4462 C 405.241 1.06301 3.2832 0
M  V30 4463 C 404.354 2.2805 3.66902 0
M  V30 4464 C 403.489 1.99064 4.92491 0
M  V30 4465 C 402.528 3.16863 5.23703 0
M  V30 4466 N 401.665 2.87647 6.40471 0
M  V30 4467 H 406.505 2.23511 1.97096 0
M  V30 4468 H 404.042 1.11105 0.964054 0
M  V30 4469 H 406 0.915012 4.07042 0
M  V30 4470 H 404.63 0.148822 3.22457 0
M  V30 4471 H 403.682 2.53711 2.83434 0
M  V30 4472 H 404.994 3.1601 3.85927 0
M  V30 4473 H 404.148 1.81099 5.7904 0
M  V30 4474 H 402.887 1.0839 4.75503 0
M  V30 4475 H 401.892 3.35404 4.35642 0
M  V30 4476 H 403.117 4.08339 5.4262 0
M  V30 4477 H 401.063 1.99568 6.24907 0
M  V30 4478 H 400.98 3.69141 6.59751 0
M  V30 4479 H 402.248 2.73226 7.30047 0
M  V30 4480 N 406.477 -1.02803 1.19454 0
M  V30 4481 C 407.726 -1.7562 0.991996 0
M  V30 4482 C 408.039 -1.89672 -0.477901 0
M  V30 4483 O 409.245 -2.59468 -0.799287 0
M  V30 4484 C 407.701 -3.15812 1.72601 0
M  V30 4485 C 407.309 -3.0981 3.23607 0
M  V30 4486 C 409.053 -3.92918 1.60674 0
M  V30 4487 C 406.96 -4.44939 3.89594 0
M  V30 4488 H 405.89 -0.658352 0.367543 0
M  V30 4489 H 408.541 -1.15044 1.42959 0
M  V30 4490 H 406.923 -3.7686 1.21624 0
M  V30 4491 H 408.097 -2.58138 3.81709 0
M  V30 4492 H 406.412 -2.46201 3.35819 0
M  V30 4493 H 409.009 -4.9287 2.07323 0
M  V30 4494 H 409.352 -4.12502 0.561025 0
M  V30 4495 H 409.885 -3.38472 2.09001 0
M  V30 4496 H 406.624 -4.30559 4.94267 0
M  V30 4497 H 406.144 -4.96664 3.36281 0
M  V30 4498 H 407.823 -5.1382 3.93189 0
M  V30 4499 N 407.956 -0.998596 -1.21925 0
M  V30 4500 C 408.889 -0.498517 -2.22688 0
M  V30 4501 C 409.867 0.444301 -1.56412 0
M  V30 4502 O 411.051 0.368518 -1.84863 0
M  V30 4503 C 408.178 0.276639 -3.37568 0
M  V30 4504 C 407.224 -0.61302 -4.22071 0
M  V30 4505 S 408.057 -2.07168 -4.93803 0
M  V30 4506 C 409.213 -1.30617 -6.12119 0
M  V30 4507 H 409.446 -1.35234 -2.64762 0
M  V30 4508 H 406.979 -0.806018 -1.31692 0
M  V30 4509 H 408.937 0.717817 -4.04175 0
M  V30 4510 H 407.598 1.10581 -2.93991 0
M  V30 4511 H 406.791 -0.0162909 -5.03997 0
M  V30 4512 H 406.393 -0.991202 -3.60626 0
M  V30 4513 H 408.685 -0.57675 -6.75041 0
M  V30 4514 H 409.628 -2.10091 -6.76215 0
M  V30 4515 H 410.036 -0.816957 -5.58557 0
M  V30 4516 N 409.434 1.37368 -0.772513 0
M  V30 4517 C 410.711 1.93839 -0.26188 0
M  V30 4518 C 411.091 1.7061 1.24319 0
M  V30 4519 O 410.439 1.05534 2.02669 0
M  V30 4520 C 410.649 3.43154 -0.636102 0
M  V30 4521 C 411.997 4.20249 -0.606324 0
M  V30 4522 O 413.021 3.5152 -0.575538 0
M  V30 4523 O 411.88 5.42809 -0.634086 0
M  V30 4524 H 408.974 0.82478 -0.0605555 0
M  V30 4525 H 411.52 1.4665 -0.853917 0
M  V30 4526 H 410.292 3.53647 -1.6748 0
M  V30 4527 H 409.915 3.97596 -0.0170516 0
M  V30 4528 N 410.912 0.523116 1.48665 0
M  V30 4529 C 412.142 -0.00961724 2.06598 0
M  V30 4530 C 412.55 -1.29333 1.38093 0
M  V30 4531 O 411.893 -1.77846 0.46007 0
M  V30 4532 C 411.955 -0.311135 3.58151 0
M  V30 4533 C 411.619 0.878092 4.48485 0
M  V30 4534 C 412.616 1.77464 4.88674 0
M  V30 4535 C 410.301 1.08315 4.90483 0
M  V30 4536 C 412.295 2.86021 5.69623 0
M  V30 4537 C 409.982 2.17187 5.71203 0
M  V30 4538 C 410.98 3.05873 6.10681 0
M  V30 4539 O 410.668 4.12862 6.89783 0
M  V30 4540 H 410.4 0.0272658 0.67545 0
M  V30 4541 H 412.954 0.726156 1.92136 0
M  V30 4542 H 411.184 -1.10079 3.70701 0
M  V30 4543 H 412.873 -0.785125 3.98234 0
M  V30 4544 H 413.639 1.62813 4.56855 0
M  V30 4545 H 409.518 0.402149 4.59243 0
M  V30 4546 H 413.062 3.55272 6.00356 0
M  V30 4547 H 408.959 2.31824 6.02435 0
M  V30 4548 H 409.727 4.10487 7.08126 0
M  V30 4549 N 412.39 -1.55475 0.257931 0
M  V30 4550 C 413.615 -2.04064 -0.370488 0
M  V30 4551 C 414.04 -1.13565 -1.49948 0
M  V30 4552 O 413.398 -0.130781 -1.80828 0
M  V30 4553 C 413.446 -3.50554 -0.845237 0
M  V30 4554 O 412.55 -3.63173 -1.95394 0
M  V30 4555 H 411.891 -0.659257 -0.0792243 0
M  V30 4556 H 414.421 -2.00903 0.387212 0
M  V30 4557 H 414.431 -3.91588 -1.14555 0
M  V30 4558 H 413.106 -4.15896 -0.0191259 0
M  V30 4559 H 411.683 -3.34039 -1.65748 0
M  V30 4560 N 413.868 0.0150385 -1.57593 0
M  V30 4561 C 414.798 1.01047 -2.10503 0
M  V30 4562 C 415.779 1.36816 -1.01071 0
M  V30 4563 O 416.964 1.45455 -1.28672 0
M  V30 4564 C 414.094 2.30708 -2.59598 0
M  V30 4565 C 413.048 2.09142 -3.73421 0
M  V30 4566 C 412.374 3.44685 -4.08774 0
M  V30 4567 C 413.674 1.46619 -5.01298 0
M  V30 4568 H 415.368 0.569978 -2.93925 0
M  V30 4569 H 412.914 0.272724 -1.41394 0
M  V30 4570 H 414.867 3.00687 -2.95238 0
M  V30 4571 H 413.591 2.76843 -1.73279 0
M  V30 4572 H 412.25 1.41592 -3.38153 0
M  V30 4573 H 411.898 3.88495 -3.195 0
M  V30 4574 H 411.598 3.31077 -4.8545 0
M  V30 4575 H 413.122 4.16004 -4.4696 0
M  V30 4576 H 414.536 2.06535 -5.34805 0
M  V30 4577 H 412.933 1.43544 -5.82679 0
M  V30 4578 H 414.003 0.433611 -4.82957 0
M  V30 4579 N 415.346 1.54954 0.287554 0
M  V30 4580 C 416.276 1.89839 1.35954 0
M  V30 4581 C 417.257 0.758675 1.52244 0
M  V30 4582 O 418.442 1.01557 1.65529 0
M  V30 4583 C 415.572 2.15753 2.72154 0
M  V30 4584 C 414.526 3.3159 2.70614 0
M  V30 4585 C 413.852 3.42952 4.10229 0
M  V30 4586 C 415.152 4.68359 2.31165 0
M  V30 4587 H 416.846 2.79625 1.07007 0
M  V30 4588 H 414.392 1.3454 0.513316 0
M  V30 4589 H 416.345 2.38743 3.47246 0
M  V30 4590 H 415.069 1.22752 3.02654 0
M  V30 4591 H 413.728 3.08545 1.97979 0
M  V30 4592 H 413.376 2.47443 4.37928 0
M  V30 4593 H 413.076 4.20826 4.10097 0
M  V30 4594 H 414.6 3.68218 4.87081 0
M  V30 4595 H 416.014 4.9099 2.95976 0
M  V30 4596 H 414.411 5.49044 2.42221 0
M  V30 4597 H 415.481 4.68165 1.26291 0
M  V30 4598 N 416.824 -0.551391 1.4764 0
M  V30 4599 C 418.07 -1.31024 1.54792 0
M  V30 4600 C 418.403 -1.9304 0.211967 0
M  V30 4601 O 417.678 -1.78175 -0.77999 0
M  V30 4602 C 417.961 -2.41593 2.67029 0
M  V30 4603 C 417.814 -1.84408 4.10261 0
M  V30 4604 C 419.133 -3.43488 2.75143 0
M  V30 4605 H 416.252 -0.475031 0.563485 0
M  V30 4606 H 418.894 -0.616454 1.79722 0
M  V30 4607 H 417.044 -3.00772 2.45904 0
M  V30 4608 H 418.716 -1.29445 4.42766 0
M  V30 4609 H 416.959 -1.15051 4.18265 0
M  V30 4610 H 417.63 -2.64367 4.84576 0
M  V30 4611 H 420.106 -2.94236 2.94218 0
M  V30 4612 H 418.982 -4.18274 3.55441 0
M  V30 4613 H 419.243 -4.02703 1.82435 0
M  V30 4614 N 418.302 -1.35869 -0.798587 0
M  V30 4615 C 419.55 -1.29332 -1.55298 0
M  V30 4616 C 419.871 0.129729 -1.94568 0
M  V30 4617 O 419.141 1.06796 -1.6423 0
M  V30 4618 H 417.721 -0.475737 -0.57592 0
M  V30 4619 H 420.383 -1.70062 -0.952093 0
M  V30 4620 H 419.479 -1.91458 -2.46476 0
M  V30 4621 N 419.78 1.02168 -1.19998 0
M  V30 4622 C 421.029 1.75091 -1.0013 0
M  V30 4623 C 421.342 1.89923 0.467835 0
M  V30 4624 O 422.548 2.59888 0.785515 0
M  V30 4625 C 421.004 3.14892 -1.74273 0
M  V30 4626 C 420.612 3.0809 -3.25245 0
M  V30 4627 C 422.356 3.9206 -1.62755 0
M  V30 4628 C 420.263 4.42867 -3.91948 0
M  V30 4629 H 419.193 0.656394 -0.37103 0
M  V30 4630 H 421.844 1.14284 -1.43567 0
M  V30 4631 H 420.226 3.7621 -1.2362 0
M  V30 4632 H 421.4 2.5611 -3.83072 0
M  V30 4633 H 419.715 2.44416 -3.3712 0
M  V30 4634 H 422.312 4.91764 -2.09934 0
M  V30 4635 H 422.655 4.12199 -0.582894 0
M  V30 4636 H 423.188 3.37359 -2.10793 0
M  V30 4637 H 419.927 4.27931 -4.96543 0
M  V30 4638 H 419.447 4.94874 -3.3891 0
M  V30 4639 H 421.126 5.11728 -3.95909 0
M  V30 4640 N 421.258 1.00505 1.21394 0
M  V30 4641 C 422.208 0.536503 2.21598 0
M  V30 4642 C 423.192 -0.401914 1.55799 0
M  V30 4643 O 424.384 -0.226757 1.75541 0
M  V30 4644 C 421.513 -0.135446 3.43033 0
M  V30 4645 C 420.599 0.823992 4.16018 0
M  V30 4646 N 420.99 1.97683 4.6557 0
M  V30 4647 C 419.288 0.642387 4.4135 0
M  V30 4648 C 419.989 2.58003 5.21354 0
M  V30 4649 N 418.965 1.86162 5.1073 0
M  V30 4650 H 422.767 1.41557 2.57563 0
M  V30 4651 H 420.281 0.868878 1.37202 0
M  V30 4652 H 422.278 -0.488584 4.14027 0
M  V30 4653 H 420.938 -1.01049 3.08576 0
M  V30 4654 H 421.949 2.3572 4.61147 0
M  V30 4655 H 418.626 -0.185578 4.17087 0
M  V30 4656 H 420.016 3.555 5.70149 0
M  V30 4657 N 422.737 -1.36956 0.779787 0
M  V30 4658 C 424.014 -1.93697 0.272156 0
M  V30 4659 C 424.394 -1.71267 -1.23413 0
M  V30 4660 O 423.742 -1.06607 -2.02107 0
M  V30 4661 C 423.952 -3.42812 0.654291 0
M  V30 4662 C 425.3 -4.19921 0.628602 0
M  V30 4663 O 426.324 -3.51209 0.594172 0
M  V30 4664 O 425.183 -5.42465 0.662864 0
M  V30 4665 H 422.277 -0.824447 0.0649286 0
M  V30 4666 H 424.823 -1.46196 0.861682 0
M  V30 4667 H 423.595 -3.52754 1.69353 0
M  V30 4668 H 423.218 -3.97582 0.0381369 0
M  V30 4669 N 424.215 -0.530993 -1.48385 0
M  V30 4670 C 425.461 0.00274135 -2.028 0
M  V30 4671 C 425.794 1.33838 -1.40716 0
M  V30 4672 O 425.069 1.86465 -0.553277 0
M  V30 4673 C 425.352 0.123676 -3.59888 0
M  V30 4674 C 425.205 -1.2372 -4.3245 0
M  V30 4675 C 426.524 0.849967 -4.31814 0
M  V30 4676 H 423.643 -0.000477758 -0.737 0
M  V30 4677 H 426.285 -0.688217 -1.77098 0
M  V30 4678 H 424.435 0.712157 -3.81917 0
M  V30 4679 H 426.107 -1.86687 -4.21836 0
M  V30 4680 H 424.35 -1.81882 -3.93829 0
M  V30 4681 H 425.021 -1.10557 -5.40815 0
M  V30 4682 H 427.497 0.350572 -4.14621 0
M  V30 4683 H 426.373 0.903486 -5.41413 0
M  V30 4684 H 426.634 1.90047 -3.99167 0
M  V30 4685 N 425.693 1.55336 -0.266172 0
M  V30 4686 C 426.97 1.91372 0.404486 0
M  V30 4687 C 427.35 1.18935 1.74407 0
M  V30 4688 O 426.698 0.3132 2.26343 0
M  V30 4689 C 426.908 3.44581 0.553593 0
M  V30 4690 C 428.256 4.16196 0.840618 0
M  V30 4691 O 429.28 3.50426 0.638739 0
M  V30 4692 O 428.139 5.32567 1.22618 0
M  V30 4693 H 425.233 0.797194 0.220025 0
M  V30 4694 H 427.779 1.66813 -0.311664 0
M  V30 4695 H 426.551 3.89357 -0.389498 0
M  V30 4696 H 426.174 3.75065 1.31955 0
M  V30 4697 N 427.171 -0.0066808 1.57599 0
M  V30 4698 C 428.587 -0.36267 1.55425 0
M  V30 4699 C 428.787 -1.75209 0.995187 0
M  V30 4700 O 427.843 -2.44616 0.626058 0
M  V30 4701 C 429.156 -0.244017 2.99708 0
M  V30 4702 C 430.704 -0.319451 3.11366 0
M  V30 4703 C 431.179 -0.229998 4.57422 0
M  V30 4704 N 432.67 -0.288105 4.62303 0
M  V30 4705 C 433.405 -0.242127 5.72889 0
M  V30 4706 N 432.901 -0.147133 6.92644 0
M  V30 4707 N 434.694 -0.293502 5.61333 0
M  V30 4708 H 426.845 0.902314 1.92281 0
M  V30 4709 H 429.108 0.34525 0.882896 0
M  V30 4710 H 428.814 0.711678 3.44424 0
M  V30 4711 H 428.688 -1.02877 3.629 0
M  V30 4712 H 431.075 -1.26559 2.66584 0
M  V30 4713 H 431.156 0.495055 2.50964 0
M  V30 4714 H 430.8 0.712566 5.02877 0
M  V30 4715 H 430.73 -1.0629 5.15761 0
M  V30 4716 H 433.221 -0.363126 3.76151 0
M  V30 4717 H 433.534 -0.117763 7.7271 0
M  V30 4718 H 431.879 -0.112857 6.94908 0
M  V30 4719 H 435.07 -0.365864 4.66668 0
M  V30 4720 H 435.243 -0.254204 6.47501 0
M  V30 4721 N 428.649 -1.55105 -0.279332 0
M  V30 4722 C 429.612 -1.86783 -1.32834 0
M  V30 4723 C 430.612 -0.74199 -1.42657 0
M  V30 4724 O 431.802 -1.0102 -1.41918 0
M  V30 4725 C 428.934 -2.06746 -2.71052 0
M  V30 4726 H 430.127 -2.8055 -1.05979 0
M  V30 4727 H 427.68 -1.47499 -0.517087 0
M  V30 4728 H 428.415 -1.15339 -3.03097 0
M  V30 4729 H 428.2 -2.88711 -2.65309 0
M  V30 4730 H 429.69 -2.32549 -3.46858 0
M  V30 4731 N 430.127 0.543554 -1.4793 0
M  V30 4732 C 431.037 1.67657 -1.64098 0
M  V30 4733 C 432.053 1.65934 -0.523622 0
M  V30 4734 O 433.229 1.85133 -0.792943 0
M  V30 4735 C 430.294 3.04146 -1.66421 0
M  V30 4736 C 429.355 3.16831 -2.89684 0
M  V30 4737 C 428.588 4.46809 -2.91886 0
M  V30 4738 O 428.811 5.33095 -2.02895 0
M  V30 4739 O 427.745 4.63573 -3.83906 0
M  V30 4740 H 431.571 1.56957 -2.59997 0
M  V30 4741 H 429.156 0.715116 -1.31173 0
M  V30 4742 H 431.038 3.85346 -1.70548 0
M  V30 4743 H 429.713 3.152 -0.736923 0
M  V30 4744 H 428.62 2.34977 -2.91095 0
M  V30 4745 H 429.953 3.10687 -3.81752 0
M  V30 4746 N 431.605 1.3629 0.791371 0
M  V30 4747 C 432.537 1.26321 1.91248 0
M  V30 4748 C 433.55 0.18313 1.61767 0
M  V30 4749 O 434.739 0.437682 1.73051 0
M  V30 4750 C 431.839 0.925901 3.26007 0
M  V30 4751 C 431.012 2.10746 3.83281 0
M  V30 4752 C 430.071 1.74352 4.96475 0
M  V30 4753 O 429.097 2.46416 5.13096 0
M  V30 4754 N 430.299 0.676058 5.7655 0
M  V30 4755 H 433.064 2.22915 2.00323 0
M  V30 4756 H 430.625 1.29659 0.969546 0
M  V30 4757 H 432.617 0.663636 3.99222 0
M  V30 4758 H 431.187 0.0491581 3.12561 0
M  V30 4759 H 430.407 2.53264 3.02077 0
M  V30 4760 H 431.695 2.8969 4.18279 0
M  V30 4761 H 431.093 0.0776467 5.65647 0
M  V30 4762 H 429.65 0.473612 6.50077 0
M  V30 4763 N 433.083 -1.0153 1.20538 0
M  V30 4764 C 433.993 -2.13557 0.971113 0
M  V30 4765 C 435.009 -1.73845 -0.0734366 0
M  V30 4766 O 436.185 -2.01075 0.114299 0
M  V30 4767 C 433.25 -3.42661 0.527639 0
M  V30 4768 C 432.311 -3.96608 1.64319 0
M  V30 4769 C 431.544 -5.1955 1.22078 0
M  V30 4770 O 431.767 -5.70329 0.0900198 0
M  V30 4771 O 430.701 -5.66681 2.02871 0
M  V30 4772 H 434.527 -2.3619 1.90913 0
M  V30 4773 H 432.112 -1.11946 0.989362 0
M  V30 4774 H 433.994 -4.20404 0.289621 0
M  V30 4775 H 432.669 -3.21441 -0.381779 0
M  V30 4776 H 431.576 -3.20139 1.93551 0
M  V30 4777 H 432.909 -4.22219 2.52966 0
M  V30 4778 N 434.561 -1.01147 -1.20859 0
M  V30 4779 C 435.471 -0.58686 -2.27141 0
M  V30 4780 C 436.487 0.373198 -1.69951 0
M  V30 4781 O 437.663 0.235423 -2.00019 0
M  V30 4782 C 434.728 0.0733602 -3.46622 0
M  V30 4783 C 433.789 -0.931995 -4.19061 0
M  V30 4784 C 433.022 -0.303186 -5.32838 0
M  V30 4785 O 433.245 0.898395 -5.63281 0
M  V30 4786 O 432.179 -1.01735 -5.9324 0
M  V30 4787 H 436.005 -1.47155 -2.65667 0
M  V30 4788 H 433.59 -0.780689 -1.2738 0
M  V30 4789 H 435.472 0.442333 -4.19072 0
M  V30 4790 H 434.147 0.932329 -3.09983 0
M  V30 4791 H 433.054 -1.35224 -3.48805 0
M  V30 4792 H 434.387 -1.76076 -4.59628 0
M  V30 4793 N 436.039 1.36541 -0.78704 0
M  V30 4794 C 436.972 2.27831 -0.129765 0
M  V30 4795 C 437.95 1.47105 0.692732 0
M  V30 4796 O 439.134 1.7641 0.664222 0
M  V30 4797 C 436.261 3.28577 0.821883 0
M  V30 4798 C 435.307 4.26422 0.0814771 0
M  V30 4799 S 436.14 5.20919 -1.24112 0
M  V30 4800 C 437.296 6.25212 -0.293409 0
M  V30 4801 H 437.529 2.83229 -0.903811 0
M  V30 4802 H 435.062 1.43046 -0.581144 0
M  V30 4803 H 437.02 3.87123 1.3655 0
M  V30 4804 H 435.681 2.72096 1.56916 0
M  V30 4805 H 434.874 4.97554 0.803485 0
M  V30 4806 H 434.476 3.71944 -0.391589 0
M  V30 4807 H 436.768 6.75435 0.528622 0
M  V30 4808 H 437.711 7.01378 -0.973344 0
M  V30 4809 H 438.119 5.64407 0.102196 0
M  V30 4810 N 437.518 0.538854 1.48102 0
M  V30 4811 C 438.428 -0.222648 2.33541 0
M  V30 4812 C 439.444 -0.930225 1.47047 0
M  V30 4813 O 440.62 -0.903211 1.80011 0
M  V30 4814 C 437.685 -1.25064 3.23357 0
M  V30 4815 C 436.746 -0.552469 4.2573 0
M  V30 4816 C 435.979 -1.53149 5.11254 0
M  V30 4817 O 436.202 -2.76487 4.9891 0
M  V30 4818 O 435.136 -1.06602 5.92385 0
M  V30 4819 H 438.962 0.477707 2.99919 0
M  V30 4820 H 436.547 0.299669 1.46364 0
M  V30 4821 H 438.429 -1.8445 3.78888 0
M  V30 4822 H 437.104 -1.93325 2.59629 0
M  V30 4823 H 436.011 0.082114 3.7401 0
M  V30 4824 H 437.344 0.0883526 4.92121 0
M  V30 4825 N 438.996 -1.55193 0.274407 0
M  V30 4826 C 440.242 -1.99877 -0.343086 0
M  V30 4827 C 440.575 -1.16256 -1.55558 0
M  V30 4828 O 439.85 -0.232462 -1.93106 0
M  V30 4829 C 440.133 -3.52706 -0.725965 0
M  V30 4830 C 439.986 -4.47081 0.493818 0
M  V30 4831 C 441.305 -4.11422 -1.56268 0
M  V30 4832 H 438.424 -0.726625 -0.123229 0
M  V30 4833 H 441.066 -1.86136 0.38121 0
M  V30 4834 H 439.216 -3.64546 -1.34307 0
M  V30 4835 H 440.888 -4.47186 1.13237 0
M  V30 4836 H 439.131 -4.1877 1.13201 0
M  V30 4837 H 439.802 -5.51699 0.18217 0
M  V30 4838 H 442.278 -4.02855 -1.04151 0
M  V30 4839 H 441.154 -5.18568 -1.79939 0
M  V30 4840 H 441.415 -3.61607 -2.54348 0
M  V30 4841 N 440.474 -0.00167713 -1.576 0
M  V30 4842 C 441.384 1.00548 -2.1196 0
M  V30 4843 C 442.4 1.3758 -1.06526 0
M  V30 4844 O 443.576 1.46278 -1.38436 0
M  V30 4845 C 440.641 2.27809 -2.6135 0
M  V30 4846 C 439.702 1.97074 -3.81393 0
M  V30 4847 C 438.935 3.18267 -4.28417 0
M  V30 4848 O 439.158 4.30009 -3.74765 0
M  V30 4849 O 438.092 3.02167 -5.20556 0
M  V30 4850 H 441.918 0.573373 -2.98238 0
M  V30 4851 H 439.503 0.217255 -1.47812 0
M  V30 4852 H 441.385 3.02568 -2.93309 0
M  V30 4853 H 440.06 2.70254 -1.78169 0
M  V30 4854 H 438.967 1.19785 -3.54404 0
M  V30 4855 H 440.3 1.59464 -4.65652 0
M  V30 4856 N 441.952 1.55251 0.271103 0
M  V30 4857 C 442.862 1.9136 1.35714 0
M  V30 4858 C 443.878 0.811075 1.5394 0
M  V30 4859 O 445.054 1.11031 1.6803 0
M  V30 4860 C 442.119 2.1798 2.69603 0
M  V30 4861 C 441.18 3.4153 2.60107 0
M  V30 4862 C 440.413 3.66871 3.8761 0
M  V30 4863 O 440.636 2.94689 4.8838 0
M  V30 4864 O 439.57 4.60405 3.87699 0
M  V30 4865 H 443.396 2.83815 1.08088 0
M  V30 4866 H 440.981 1.41821 0.469792 0
M  V30 4867 H 442.863 2.36518 3.48765 0
M  V30 4868 H 441.538 1.28708 2.97012 0
M  V30 4869 H 440.445 3.28325 1.79314 0
M  V30 4870 H 441.778 4.31027 2.37647 0
M  V30 4871 N 443.43 -0.535701 1.48216 0
M  V30 4872 C 444.846 -0.863701 1.3421 0
M  V30 4873 C 445.046 -1.98458 0.34879 0
M  V30 4874 O 444.102 -2.51432 -0.23204 0
M  V30 4875 C 445.415 -1.23662 2.74095 0
M  V30 4876 C 446.963 -1.34683 2.82541 0
M  V30 4877 C 447.438 -1.75322 4.23115 0
M  V30 4878 N 448.929 -1.82434 4.2576 0
M  V30 4879 C 449.664 -2.15252 5.31464 0
M  V30 4880 N 449.16 -2.46533 6.47452 0
M  V30 4881 N 450.953 -2.16209 5.18855 0
M  V30 4882 H 443.104 0.203965 2.11418 0
M  V30 4883 H 445.367 0.0286033 0.947568 0
M  V30 4884 H 445.073 -0.486674 3.48316 0
M  V30 4885 H 444.947 -2.18805 3.07253 0
M  V30 4886 H 447.334 -2.08756 2.08579 0
M  V30 4887 H 447.415 -0.376756 2.5301 0
M  V30 4888 H 447.059 -1.01812 4.97591 0
M  V30 4889 H 446.989 -2.7337 4.50085 0
M  V30 4890 H 449.48 -1.6056 3.42095 0
M  V30 4891 H 449.793 -2.70662 7.23852 0
M  V30 4892 H 448.138 -2.44065 6.50736 0
M  V30 4893 H 451.329 -1.91224 4.2726 0
M  V30 4894 H 451.502 -2.41453 6.01335 0
M  V30 4895 N 444.908 -1.36708 -0.784132 0
M  V30 4896 C 445.871 -1.31307 -1.87859 0
M  V30 4897 C 446.871 -0.219654 -1.59293 0
M  V30 4898 O 448.061 -0.47476 -1.67606 0
M  V30 4899 C 445.193 -1.03679 -3.24751 0
M  V30 4900 H 446.386 -2.28647 -1.94064 0
M  V30 4901 H 443.939 -1.21558 -0.98252 0
M  V30 4902 H 444.674 -0.0681936 -3.24228 0
M  V30 4903 H 444.459 -1.82811 -3.46876 0
M  V30 4904 H 445.949 -1.02518 -4.04821 0
M  V30 4905 N 446.386 1.0089 -1.21074 0
M  V30 4906 C 447.296 2.13039 -0.982425 0
M  V30 4907 C 448.312 1.73881 0.0642161 0
M  V30 4908 O 449.488 2.01012 -0.12496 0
M  V30 4909 C 446.553 3.42377 -0.545803 0
M  V30 4910 C 445.614 3.95731 -1.6642 0
M  V30 4911 C 444.847 5.18896 -1.24832 0
M  V30 4912 O 445.07 5.70273 -0.120265 0
M  V30 4913 O 444.004 5.65597 -2.05873 0
M  V30 4914 H 447.83 2.35175 -1.92163 0
M  V30 4915 H 445.415 1.1142 -0.995285 0
M  V30 4916 H 447.297 4.20244 -0.311912 0
M  V30 4917 H 445.972 3.21639 0.364727 0
M  V30 4918 H 444.879 3.19108 -1.95246 0
M  V30 4919 H 446.212 4.20872 -2.55201 0
M  V30 4920 N 447.864 1.01787 1.20321 0
M  V30 4921 C 449.141 0.622978 1.85414 0
M  V30 4922 C 449.521 -0.898887 1.91006 0
M  V30 4923 O 448.869 -1.79112 1.41884 0
M  V30 4924 C 449.079 1.27226 3.24984 0
M  V30 4925 C 450.427 1.3885 4.01255 0
M  V30 4926 O 451.451 1.22857 3.34342 0
M  V30 4927 O 450.31 1.64705 5.2109 0
M  V30 4928 H 447.404 0.215116 0.798533 0
M  V30 4929 H 449.95 1.11533 1.27901 0
M  V30 4930 H 448.722 2.31209 3.15687 0
M  V30 4931 H 448.345 0.767069 3.90131 0
M  V30 4932 N 449.342 -1.36122 0.79427 0
M  V30 4933 C 450.252 -2.33769 0.197296 0
M  V30 4934 C 451.268 -1.61276 -0.653153 0
M  V30 4935 O 452.444 -1.9323 -0.5678 0
M  V30 4936 C 449.509 -3.40474 -0.654098 0
M  V30 4937 C 448.57 -4.28759 0.215411 0
M  V30 4938 C 447.803 -5.30368 -0.595443 0
M  V30 4939 O 448.026 -5.40211 -1.83107 0
M  V30 4940 O 446.96 -6.019 0.00721351 0
M  V30 4941 H 450.786 -2.86597 1.00478 0
M  V30 4942 H 448.371 -1.38676 0.555818 0
M  V30 4943 H 450.253 -4.05703 -1.13944 0
M  V30 4944 H 448.928 -2.89937 -1.43938 0
M  V30 4945 H 447.835 -3.66554 0.747615 0
M  V30 4946 H 449.168 -4.82661 0.964332 0
M  V30 4947 N 450.82 -0.546701 -1.47814 0
M  V30 4948 C 451.73 0.21026 -2.33656 0
M  V30 4949 C 452.746 0.922413 -1.47538 0
M  V30 4950 O 453.922 0.893652 -1.80488 0
M  V30 4951 C 450.987 1.23348 -3.24016 0
M  V30 4952 C 450.048 0.529883 -4.26017 0
M  V30 4953 C 449.281 1.50435 -5.12059 0
M  V30 4954 O 449.504 2.73837 -5.00369 0
M  V30 4955 O 448.438 1.03459 -5.92942 0
M  V30 4956 H 452.264 -0.493605 -2.99662 0
M  V30 4957 H 449.849 -0.307427 -1.46203 0
M  V30 4958 H 451.731 1.82438 -3.79861 0
M  V30 4959 H 450.406 1.91945 -2.60651 0
M  V30 4960 H 449.313 -0.101948 -3.73961 0
M  V30 4961 H 450.646 -0.11445 -4.92067 0
M  V30 4962 N 452.299 1.55045 -0.282633 0
M  V30 4963 C 453.539 2.01668 0.333088 0
M  V30 4964 C 453.903 1.1667 1.52486 0
M  V30 4965 O 455.104 1.52907 2.21072 0
M  V30 4966 C 453.375 3.50509 0.698442 0
M  V30 4967 S 454.934 4.19112 1.29963 0
M  V30 4968 H 451.752 0.703468 0.103219 0
M  V30 4969 H 454.354 1.91233 -0.406222 0
M  V30 4970 H 453.058 4.10015 -0.177693 0
M  V30 4971 H 452.589 3.64943 1.46902 0
M  V30 4972 H 454.604 4.23362 2.58803 0
M  V30 4973 N 453.777 0.010035 1.57597 0
M  V30 4974 C 454.687 -0.994226 2.12491 0
M  V30 4975 C 455.703 -1.37013 1.07254 0
M  V30 4976 O 456.879 -1.45542 1.3921 0
M  V30 4977 C 453.944 -2.2642 2.62555 0
M  V30 4978 C 453.005 -1.95049 3.82432 0
M  V30 4979 C 452.238 -3.15991 4.30099 0
M  V30 4980 O 452.461 -4.28015 3.7704 0
M  V30 4981 O 451.395 -2.99403 5.22151 0
M  V30 4982 H 455.221 -0.557549 2.98538 0
M  V30 4983 H 452.806 -0.209413 1.47925 0
M  V30 4984 H 454.688 -3.01009 2.9491 0
M  V30 4985 H 453.363 -2.69306 1.796 0
M  V30 4986 H 452.27 -1.17904 3.55034 0
M  V30 4987 H 453.603 -1.56992 4.66491 0
M  V30 4988 N 455.255 -1.55392 -0.262866 0
M  V30 4989 C 456.203 -1.8977 -1.345 0
M  V30 4990 C 457.197 -0.775063 -1.50629 0
M  V30 4991 O 458.403 -0.959519 -1.52293 0
M  V30 4992 H 454.778 -0.602467 -0.450041 0
M  V30 4993 H 456.749 -2.80147 -1.02762 0
M  V30 4994 C 455.498 -2.19501 -2.69657 0
M  V30 4995 H 454.821 -3.05378 -2.5804 0
M  V30 4996 H 456.261 -2.47469 -3.44289 0
M  V30 4997 C 454.72 -1.00597 -3.21531 0
M  V30 4998 O 455.25 -0.245768 -4.00947 0
M  V30 4999 N 453.456 -0.800911 -2.79345 0
M  V30 5000 H 453.003 -1.42079 -2.14875 0
M  V30 5001 H 452.961 -0.00697996 -3.14399 0
M  V30 5002 N 456.733 0.527833 -1.48498 0
M  V30 5003 C 458.01 1.28905 -1.47115 0
M  V30 5004 C 458.39 2.10297 -0.184007 0
M  V30 5005 O 457.738 2.12728 0.834218 0
M  V30 5006 C 457.948 2.16866 -2.73441 0
M  V30 5007 C 459.296 2.76936 -3.21857 0
M  V30 5008 O 460.32 2.27152 -2.74373 0
M  V30 5009 O 459.179 3.67496 -4.04486 0
M  V30 5010 H 456.273 0.581918 -0.587623 0
M  V30 5011 H 458.819 0.544311 -1.60734 0
M  V30 5012 H 457.591 1.56521 -3.58632 0
M  V30 5013 H 457.214 2.98583 -2.62553 0
M  V30 5014 N 458.211 1.37122 0.776871 0
M  V30 5015 C 459.459 1.31787 1.53221 0
M  V30 5016 C 459.78 -0.0987589 1.9475 0
M  V30 5017 O 459.05 -1.0417 1.65908 0
M  V30 5018 H 457.63 0.484839 0.568278 0
M  V30 5019 H 460.292 1.71556 0.924917 0
M  V30 5020 H 459.388 1.95355 2.43398 0
M  V30 5021 N 459.689 -1.00246 1.21608 0
M  V30 5022 C 460.935 -1.74319 1.03638 0
M  V30 5023 C 461.268 -1.89408 -0.428749 0
M  V30 5024 O 460.543 -1.43026 -1.3181 0
M  V30 5025 C 460.826 -3.15431 1.73711 0
M  V30 5026 C 460.679 -3.08049 3.27759 0
M  V30 5027 C 461.998 -4.14407 1.48173 0
M  V30 5028 H 459.117 -0.632741 0.377899 0
M  V30 5029 H 461.759 -1.16853 1.49818 0
M  V30 5030 H 459.909 -3.64493 1.34452 0
M  V30 5031 H 461.581 -2.66681 3.76403 0
M  V30 5032 H 459.824 -2.45088 3.57931 0
M  V30 5033 H 460.495 -4.07862 3.71958 0
M  V30 5034 H 462.971 -3.74061 1.82258 0
M  V30 5035 H 461.847 -5.11279 1.99713 0
M  V30 5036 H 462.108 -4.40174 0.412273 0
M  V30 5037 N 461.167 -1.02423 -1.1978 0
M  V30 5038 C 462.415 -0.716569 -1.8897 0
M  V30 5039 C 462.736 0.756769 -1.79716 0
M  V30 5040 O 462.006 1.5449 -1.20456 0
M  V30 5041 H 460.586 -0.262062 -0.699523 0
M  V30 5042 H 463.248 -1.29747 -1.45436 0
M  V30 5043 H 462.344 -1.00675 -2.95417 0
M  V30 5044 N 462.645 1.35699 -0.801477 0
M  V30 5045 C 463.893 1.9852 -0.37871 0
M  V30 5046 C 464.214 1.63907 1.05638 0
M  V30 5047 O 463.484 0.919013 1.73006 0
M  V30 5048 H 462.064 0.734322 -0.137042 0
M  V30 5049 H 464.726 1.65697 -1.02619 0
M  V30 5050 H 463.822 3.08382 -0.480284 0
M  V30 5051 N 464.123 0.554532 1.47522 0
M  V30 5052 C 465.071 -0.207765 2.3167 0
M  V30 5053 C 466.065 -0.911914 1.4276 0
M  V30 5054 O 467.271 -0.833504 1.59539 0
M  V30 5055 H 463.646 -0.0858726 0.747081 0
M  V30 5056 H 465.617 0.521178 2.93813 0
M  V30 5057 C 464.366 -1.2263 3.25357 0
M  V30 5058 H 463.689 -0.693887 3.93732 0
M  V30 5059 H 465.129 -1.73062 3.87073 0
M  V30 5060 C 463.588 -2.27278 2.4869 0
M  V30 5061 O 464.118 -3.34156 2.22941 0
M  V30 5062 N 462.324 -2.01134 2.09746 0
M  V30 5063 H 461.871 -1.14232 2.30887 0
M  V30 5064 H 461.829 -2.71369 1.58765 0
M  V30 5065 N 465.601 -1.54893 0.290851 0
M  V30 5066 C 466.531 -2.26103 -0.583084 0
M  V30 5067 C 467.512 -1.25684 -1.14619 0
M  V30 5068 O 468.697 -1.54436 -1.17741 0
M  V30 5069 C 465.827 -2.99409 -1.75987 0
M  V30 5070 C 464.781 -4.0689 -1.32758 0
M  V30 5071 C 464.107 -4.67856 -2.58872 0
M  V30 5072 C 465.407 -5.20215 -0.46624 0
M  V30 5073 H 467.101 -2.99398 0.0108214 0
M  V30 5074 H 464.647 -1.43998 0.00664468 0
M  V30 5075 H 466.6 -3.47943 -2.37727 0
M  V30 5076 H 465.324 -2.23675 -2.37985 0
M  V30 5077 H 463.983 -3.59191 -0.733299 0
M  V30 5078 H 463.631 -3.88772 -3.19163 0
M  V30 5079 H 463.331 -5.40438 -2.30653 0
M  V30 5080 H 464.855 -5.19147 -3.21433 0
M  V30 5081 H 466.269 -5.64704 -0.989047 0
M  V30 5082 H 464.666 -5.99455 -0.27826 0
M  V30 5083 H 465.736 -4.82198 0.511173 0
M  V30 5084 N 467.08 -0.0183926 -1.57589 0
M  V30 5085 C 468.01 0.965596 -2.12599 0
M  V30 5086 C 468.991 1.34641 -1.0395 0
M  V30 5087 O 470.176 1.42693 -1.31729 0
M  V30 5088 C 467.306 2.25149 -2.64434 0
M  V30 5089 C 466.26 2.01175 -3.77773 0
M  V30 5090 C 465.586 3.35937 -4.15994 0
M  V30 5091 C 466.886 1.35953 -5.04296 0
M  V30 5092 H 468.58 0.507504 -2.95067 0
M  V30 5093 H 466.126 0.242671 -1.41941 0
M  V30 5094 H 468.079 2.94357 -3.01549 0
M  V30 5095 H 466.803 2.73105 -1.79112 0
M  V30 5096 H 465.462 1.34388 -3.4108 0
M  V30 5097 H 465.11 3.81631 -3.27669 0
M  V30 5098 H 464.81 3.20705 -4.92364 0
M  V30 5099 H 466.334 4.0643 -4.55683 0
M  V30 5100 H 467.748 1.95144 -5.39065 0
M  V30 5101 H 466.145 1.31152 -5.85593 0
M  V30 5102 H 467.215 0.331071 -4.83768 0
M  V30 5103 N 468.558 1.5553 0.254621 0
M  V30 5104 C 469.798 1.7876 0.991179 0
M  V30 5105 C 470.162 0.586669 1.82817 0
M  V30 5106 O 471.363 0.697585 2.5959 0
M  V30 5107 C 469.634 3.06679 1.83529 0
M  V30 5108 S 471.193 3.511 2.632 0
M  V30 5109 H 468.011 0.627916 0.333531 0
M  V30 5110 H 470.613 1.93766 0.259778 0
M  V30 5111 H 469.317 3.92158 1.20996 0
M  V30 5112 H 468.848 2.94388 2.60958 0
M  V30 5113 H 470.863 3.11823 3.8598 0
M  V30 5114 N 470.036 -0.519951 1.48776 0
M  V30 5115 C 471.261 -1.30447 1.6124 0
M  V30 5116 C 471.686 -1.86055 0.276591 0
M  V30 5117 O 471.044 -1.64915 -0.753183 0
M  V30 5118 C 471.092 -2.42406 2.66967 0
M  V30 5119 O 470.196 -3.45728 2.24824 0
M  V30 5120 H 469.537 -0.385924 0.540332 0
M  V30 5121 H 472.067 -0.624572 1.94834 0
M  V30 5122 H 472.077 -2.88447 2.88552 0
M  V30 5123 H 470.752 -2.01294 3.63941 0
M  V30 5124 H 469.329 -3.05737 2.13494 0
M  V30 5125 N 471.514 -1.37532 -0.769588 0
M  V30 5126 C 472.744 -1.35861 -1.55645 0
M  V30 5127 C 473.152 0.0574398 -1.89113 0
M  V30 5128 O 472.495 1.03021 -1.52093 0
M  V30 5129 C 472.557 -2.13431 -2.89288 0
M  V30 5130 C 472.221 -3.62378 -2.78444 0
M  V30 5131 C 473.218 -4.56215 -2.49326 0
M  V30 5132 C 470.903 -4.05529 -2.96398 0
M  V30 5133 C 472.897 -5.91181 -2.38294 0
M  V30 5134 C 470.584 -5.40579 -2.84987 0
M  V30 5135 C 471.582 -6.33218 -2.55975 0
M  V30 5136 O 471.27 -7.65787 -2.44594 0
M  V30 5137 H 471.002 -0.467001 -0.48876 0
M  V30 5138 H 473.556 -1.81505 -0.961515 0
M  V30 5139 H 471.786 -1.62481 -3.50909 0
M  V30 5140 H 473.475 -2.04368 -3.50697 0
M  V30 5141 H 474.241 -4.24187 -2.35139 0
M  V30 5142 H 470.12 -3.33781 -3.1798 0
M  V30 5143 H 473.664 -6.63457 -2.15571 0
M  V30 5144 H 469.561 -5.72209 -2.98743 0
M  V30 5145 H 470.329 -7.76132 -2.59927 0
M  V30 5146 N 472.992 0.995999 -1.22138 0
M  V30 5147 C 474.24 1.73167 -1.042 0
M  V30 5148 C 474.561 1.90329 0.42423 0
M  V30 5149 O 473.831 1.4607 1.30539 0
M  V30 5150 H 472.411 0.641593 -0.38258 0
M  V30 5151 H 475.073 1.19974 -1.53598 0
M  V30 5152 H 474.169 2.72734 -1.51731 0
M  V30 5153 N 474.47 1.03057 1.19235 0
M  V30 5154 C 475.698 0.747697 1.92917 0
M  V30 5155 C 476.113 -0.69372 1.75593 0
M  V30 5156 O 475.47 -1.47191 1.07894 0
M  V30 5157 C 475.521 1.09159 3.44625 0
M  V30 5158 O 475.242 2.47641 3.61394 0
M  V30 5159 C 476.743 0.831763 4.35427 0
M  V30 5160 H 473.963 0.273453 0.612751 0
M  V30 5161 H 476.507 1.37552 1.51327 0
M  V30 5162 H 474.662 0.508919 3.84043 0
M  V30 5163 H 475.076 2.60499 4.55237 0
M  V30 5164 H 476.55 1.12233 5.4047 0
M  V30 5165 H 477.027 -0.233769 4.38577 0
M  V30 5166 H 477.633 1.39725 4.01693 0
M  V30 5167 N 475.948 -1.35272 0.808662 0
M  V30 5168 C 477.359 -1.81179 0.450688 0
M  V30 5169 C 477.71 -1.67143 -1.02751 0
M  V30 5170 O 476.835 -1.20325 -1.79864 0
M  V30 5171 C 477.43 -3.28943 0.811275 0
M  V30 5172 C 475.989 -3.72985 0.505871 0
M  V30 5173 C 475.136 -2.57229 1.03578 0
M  V30 5174 H 478.087 -1.2322 1.00012 0
M  V30 5175 H 478.108 -3.80342 0.109588 0
M  V30 5176 H 477.62 -3.39127 1.88718 0
M  V30 5177 H 475.721 -3.68349 -0.561209 0
M  V30 5178 H 475.834 -4.67677 1.03995 0
M  V30 5179 H 474.198 -2.50548 0.458005 0
M  V30 5180 H 474.981 -2.7019 2.11784 0
M  V30 5181 N 477.426 -0.562348 -1.47226 0
M  V30 5182 C 478.837 -0.130325 -1.86245 0
M  V30 5183 C 479.188 1.30128 -1.46838 0
M  V30 5184 O 478.313 1.97974 -0.873805 0
M  V30 5185 C 478.908 -0.229738 -3.3802 0
M  V30 5186 C 477.467 0.14728 -3.76112 0
M  V30 5187 C 476.614 -0.574971 -2.71274 0
M  V30 5188 H 479.565 -0.771773 -1.3867 0
M  V30 5189 H 479.586 0.550316 -3.76499 0
M  V30 5190 H 479.098 -1.27178 -3.66671 0
M  V30 5191 H 477.199 1.19023 -3.53078 0
M  V30 5192 H 477.312 -0.214858 -4.78618 0
M  V30 5193 H 475.676 -0.0174756 -2.54694 0
M  V30 5194 H 476.459 -1.61827 -3.02766 0
M  V30 5195 N 478.904 1.54736 -0.299062 0
M  V30 5196 C 480.181 1.92187 0.363802 0
M  V30 5197 C 480.561 1.22607 1.71845 0
M  V30 5198 O 479.909 0.361141 2.25628 0
M  V30 5199 C 480.119 3.45678 0.480377 0
M  V30 5200 C 481.467 4.17885 0.752147 0
M  V30 5201 O 482.491 3.51702 0.564264 0
M  V30 5202 O 481.35 5.35048 1.11294 0
M  V30 5203 H 478.444 0.801681 0.203066 0
M  V30 5204 H 480.99 1.66115 -0.346978 0
M  V30 5205 H 479.762 3.88443 -0.471999 0
M  V30 5206 H 479.385 3.77779 1.2397 0
M  V30 5207 N 480.382 0.0267497 1.57577 0
M  V30 5208 C 481.607 -0.666227 1.96408 0
M  V30 5209 C 482.032 -1.65004 0.903071 0
M  V30 5210 O 481.39 -1.80787 -0.136263 0
M  V30 5211 C 481.438 -1.35101 3.34335 0
M  V30 5212 O 480.542 -2.46623 3.30531 0
M  V30 5213 H 479.883 -0.175206 0.640468 0
M  V30 5214 H 482.413 0.0878977 2.04411 0
M  V30 5215 H 482.423 -1.70834 3.70513 0
M  V30 5216 H 481.098 -0.629844 4.11103 0
M  V30 5217 H 479.675 -2.13019 3.06068 0
M  V30 5218 N 481.861 -1.55662 -0.24637 0
M  V30 5219 C 483.272 -1.67953 -0.81539 0
M  V30 5220 C 483.623 -0.624302 -1.86002 0
M  V30 5221 O 482.748 0.229328 -2.15181 0
M  V30 5222 C 483.343 -3.04484 -1.48576 0
M  V30 5223 C 481.902 -3.18713 -2.00248 0
M  V30 5224 C 481.049 -2.6383 -0.853766 0
M  V30 5225 H 484 -1.58685 -0.0221692 0
M  V30 5226 H 484.021 -2.98959 -2.3538 0
M  V30 5227 H 483.533 -3.81264 -0.725222 0
M  V30 5228 H 481.634 -2.46757 -2.79181 0
M  V30 5229 H 481.747 -4.25628 -2.1995 0
M  V30 5230 H 480.111 -2.21667 -1.25442 0
M  V30 5231 H 480.894 -3.43135 -0.106302 0
M  V30 5232 N 483.339 0.512053 -1.4905 0
M  V30 5233 C 484.587 1.26436 -1.57665 0
M  V30 5234 C 484.908 1.93255 -0.260293 0
M  V30 5235 O 484.178 1.82206 0.719564 0
M  V30 5236 H 482.758 0.469658 -0.580888 0
M  V30 5237 H 485.42 0.594398 -1.85615 0
M  V30 5238 H 484.516 2.03417 -2.36702 0
M  V30 5239 N 484.817 1.37938 0.762283 0
M  V30 5240 C 485.765 1.34569 1.89721 0
M  V30 5241 C 486.759 0.232929 1.67791 0
M  V30 5242 O 487.965 0.401485 1.75465 0
M  V30 5243 H 484.34 0.419594 0.624055 0
M  V30 5244 H 486.311 2.30357 1.8968 0
M  V30 5245 C 485.06 1.17898 3.27101 0
M  V30 5246 H 484.383 2.02781 3.44558 0
M  V30 5247 H 485.823 1.19593 4.06784 0
M  V30 5248 C 484.282 -0.114728 3.36705 0
M  V30 5249 O 484.812 -1.0949 3.8649 0
M  V30 5250 N 483.018 -0.16863 2.9011 0
M  V30 5251 H 482.565 0.62967 2.49786 0
M  V30 5252 H 482.523 -1.03383 2.96916 0
M  V30 5253 N 486.295 -0.989507 1.22664 0
M  V30 5254 C 487.225 -2.09847 1.02404 0
M  V30 5255 C 488.206 -1.70007 -0.0561303 0
M  V30 5256 O 489.391 -1.93906 0.106748 0
M  V30 5257 C 486.521 -3.41996 0.604663 0
M  V30 5258 C 485.475 -3.95699 1.63115 0
M  V30 5259 C 484.801 -5.23936 1.0675 0
M  V30 5260 C 486.101 -4.25999 3.02196 0
M  V30 5261 H 487.795 -2.27054 1.95158 0
M  V30 5262 H 485.341 -1.09111 0.939727 0
M  V30 5263 H 487.294 -4.1899 0.45002 0
M  V30 5264 H 486.018 -3.24626 -0.35855 0
M  V30 5265 H 484.677 -3.2084 1.77362 0
M  V30 5266 H 484.325 -5.02909 0.0955422 0
M  V30 5267 H 484.025 -5.60833 1.75328 0
M  V30 5268 H 485.549 -6.0356 0.924516 0
M  V30 5269 H 486.963 -4.93777 2.91303 0
M  V30 5270 H 485.36 -4.74076 3.67929 0
M  V30 5271 H 486.43 -3.33636 3.51873 0
M  V30 5272 N 487.773 -1.03688 -1.18687 0
M  V30 5273 C 488.703 -0.645407 -2.24403 0
M  V30 5274 C 489.684 0.349511 -1.66471 0
M  V30 5275 O 490.869 0.230453 -1.92828 0
M  V30 5276 C 487.999 -0.00365337 -3.473 0
M  V30 5277 C 486.953 -0.921705 -4.17958 0
M  V30 5278 C 486.279 -0.144629 -5.34504 0
M  V30 5279 C 487.579 -2.23909 -4.71871 0
M  V30 5280 H 489.273 -1.52917 -2.57404 0
M  V30 5281 H 486.819 -0.736711 -1.23728 0
M  V30 5282 H 488.772 0.281908 -4.20456 0
M  V30 5283 H 487.496 0.914963 -3.13522 0
M  V30 5284 H 486.155 -1.19159 -3.46694 0
M  V30 5285 H 485.803 0.776274 -4.96974 0
M  V30 5286 H 485.503 -0.756206 -5.82714 0
M  V30 5287 H 487.027 0.134004 -6.10453 0
M  V30 5288 H 488.441 -2.0145 -5.36741 0
M  V30 5289 H 486.838 -2.8033 -5.30599 0
M  V30 5290 H 487.908 -2.88822 -3.895 0
M  V30 5291 N 489.251 1.34841 -0.815825 0
M  V30 5292 C 490.476 2.03261 -0.41226 0
M  V30 5293 C 490.901 1.61055 0.971751 0
M  V30 5294 O 490.259 0.7917 1.63101 0
M  V30 5295 C 490.307 3.56914 -0.514289 0
M  V30 5296 O 489.411 4.09728 0.468675 0
M  V30 5297 H 488.752 0.641664 -0.170771 0
M  V30 5298 H 491.282 1.72241 -1.10427 0
M  V30 5299 H 491.292 4.06156 -0.387457 0
M  V30 5300 H 489.967 3.86982 -1.52375 0
M  V30 5301 H 488.544 3.71681 0.301316 0
M  V30 5302 N 490.729 0.570148 1.46925 0
M  V30 5303 C 491.976 0.0509529 2.02436 0
M  V30 5304 C 492.304 -1.30405 1.44308 0
M  V30 5305 O 491.559 -1.86493 0.593198 0
M  V30 5306 C 491.858 -0.0780336 3.57315 0
M  V30 5307 C 491.524 1.20775 4.34424 0
M  V30 5308 C 490.186 1.56004 4.5521 0
M  V30 5309 C 492.538 2.0592 4.78797 0
M  V30 5310 C 489.866 2.76201 5.17619 0
M  V30 5311 C 492.218 3.25332 5.42533 0
M  V30 5312 C 490.882 3.60859 5.61549 0
M  V30 5313 H 490.152 0.018645 0.740765 0
M  V30 5314 H 492.799 0.744262 1.76445 0
M  V30 5315 H 491.104 -0.854394 3.82371 0
M  V30 5316 H 492.801 -0.495312 3.97929 0
M  V30 5317 H 489.391 0.923469 4.18533 0
M  V30 5318 H 493.575 1.80008 4.62505 0
M  V30 5319 H 488.831 3.0388 5.30535 0
M  V30 5320 H 493.005 3.91586 5.75876 0
M  V30 5321 H 490.632 4.54088 6.09678 0
M  V30 5322 N 492.207 -1.54576 0.307264 0
M  V30 5323 C 493.618 -1.8579 -0.184121 0
M  V30 5324 C 493.969 -1.22914 -1.52927 0
M  V30 5325 O 493.094 -0.529126 -2.09831 0
M  V30 5326 C 493.689 -3.37081 -0.340862 0
M  V30 5327 C 492.248 -3.68304 -0.776465 0
M  V30 5328 C 491.395 -2.77076 0.111503 0
M  V30 5329 H 494.346 -1.49656 0.528078 0
M  V30 5330 H 494.367 -3.61922 -1.17443 0
M  V30 5331 H 493.879 -3.82815 0.638309 0
M  V30 5332 H 491.98 -3.28092 -1.76596 0
M  V30 5333 H 492.093 -4.75434 -0.591512 0
M  V30 5334 H 490.457 -2.51374 -0.410256 0
M  V30 5335 H 491.24 -3.25632 1.08714 0
M  V30 5336 N 493.685 -0.035106 -1.57561 0
M  V30 5337 C 495.101 0.321334 -1.56332 0
M  V30 5338 C 495.301 1.72509 -1.04129 0
M  V30 5339 O 494.357 2.4287 -0.690694 0
M  V30 5340 C 495.67 0.164469 -3.0025 0
M  V30 5341 C 497.218 0.236786 -3.12103 0
M  V30 5342 C 497.693 0.10864 -4.57871 0
M  V30 5343 N 499.184 0.165433 -4.62904 0
M  V30 5344 C 499.919 0.0901506 -5.73329 0
M  V30 5345 N 499.415 -0.0365606 -6.9279 0
M  V30 5346 N 501.208 0.144572 -5.61914 0
M  V30 5347 H 493.359 -0.952976 -1.89821 0
M  V30 5348 H 495.622 -0.368537 -0.873432 0
M  V30 5349 H 495.328 -0.802746 -3.42416 0
M  V30 5350 H 495.202 0.932194 -3.655 0
M  V30 5351 H 497.589 1.19446 -2.69845 0
M  V30 5352 H 497.67 -0.561419 -2.49563 0
M  V30 5353 H 497.314 -0.845644 -5.00811 0
M  V30 5354 H 497.244 0.925786 -5.18398 0
M  V30 5355 H 499.735 0.263269 -3.76982 0
M  V30 5356 H 500.048 -0.0871487 -7.72751 0
M  V30 5357 H 498.393 -0.0714256 -6.94963 0
M  V30 5358 H 501.584 0.242006 -4.67474 0
M  V30 5359 H 501.757 0.0824413 -6.47948 0
M  V30 5360 N 495.163 1.55791 0.238111 0
M  V30 5361 C 496.41 1.78033 0.964907 0
M  V30 5362 C 496.738 0.600984 1.84982 0
M  V30 5363 O 495.993 -0.41536 1.91241 0
M  V30 5364 C 496.292 3.05869 1.84875 0
M  V30 5365 C 495.958 4.36808 1.11846 0
M  V30 5366 C 494.62 4.72388 0.916662 0
M  V30 5367 C 496.972 5.17717 0.60151 0
M  V30 5368 C 494.3 5.86406 0.185756 0
M  V30 5369 C 496.652 6.32494 -0.115972 0
M  V30 5370 C 495.316 6.66688 -0.329168 0
M  V30 5371 H 494.586 0.651469 0.353085 0
M  V30 5372 H 497.233 1.90061 0.234318 0
M  V30 5373 H 495.538 2.88891 2.64668 0
M  V30 5374 H 497.235 3.20278 2.41294 0
M  V30 5375 H 493.825 4.08862 1.28569 0
M  V30 5376 H 498.009 4.90678 0.744932 0
M  V30 5377 H 493.265 6.11399 0.0101886 0
M  V30 5378 H 497.439 6.94425 -0.524127 0
M  V30 5379 H 495.066 7.54884 -0.897474 0
M  V30 5380 N 496.642 -0.504142 1.49319 0
M  V30 5381 C 497.889 -1.25846 1.58647 0
M  V30 5382 C 498.217 -1.92592 0.27177 0
M  V30 5383 O 497.472 -1.81167 -0.74007 0
M  V30 5384 C 497.771 -2.35021 2.69258 0
M  V30 5385 C 497.437 -1.85755 4.1086 0
M  V30 5386 C 496.099 -1.72038 4.49395 0
M  V30 5387 C 498.451 -1.48844 4.99495 0
M  V30 5388 C 495.779 -1.19783 5.74342 0
M  V30 5389 C 498.131 -0.980422 6.24956 0
M  V30 5390 C 496.795 -0.829622 6.62324 0
M  V30 5391 H 496.065 -0.460505 0.580531 0
M  V30 5392 H 498.712 -0.559716 1.83138 0
M  V30 5393 H 497.017 -3.10672 2.38726 0
M  V30 5394 H 498.714 -2.93083 2.73685 0
M  V30 5395 H 495.304 -1.9739 3.80441 0
M  V30 5396 H 499.488 -1.5829 4.70381 0
M  V30 5397 H 494.744 -1.06817 6.01997 0
M  V30 5398 H 498.918 -0.685608 6.93017 0
M  V30 5399 H 496.545 -0.42253 7.59025 0
M  V30 5400 N 498.12 -1.38341 -0.754957 0
M  V30 5401 C 499.368 -1.34208 -1.51105 0
M  V30 5402 C 499.689 0.0677634 -1.94882 0
M  V30 5403 O 498.959 1.01517 -1.67544 0
M  V30 5404 H 497.539 -0.493819 -0.560493 0
M  V30 5405 H 500.201 -1.73005 -0.897507 0
M  V30 5406 H 499.297 -1.99203 -2.4026 0
M  V30 5407 N 499.598 0.982988 -1.23187 0
M  V30 5408 C 501.009 1.53847 -1.05773 0
M  V30 5409 C 501.36 1.92568 0.375744 0
M  V30 5410 O 500.485 1.75783 1.26211 0
M  V30 5411 C 501.08 2.79567 -1.91384 0
M  V30 5412 C 499.639 3.31524 -1.78238 0
M  V30 5413 C 498.786 2.04534 -1.87246 0
M  V30 5414 H 501.737 0.802962 -1.36888 0
M  V30 5415 H 501.758 3.52317 -1.43711 0
M  V30 5416 H 501.27 2.51353 -2.95708 0
M  V30 5417 H 499.371 3.64623 -0.766875 0
M  V30 5418 H 499.484 4.01457 -2.61475 0
M  V30 5419 H 497.848 2.1855 -1.30797 0
M  V30 5420 H 498.631 1.78706 -2.9312 0
M  V30 5421 N 501.076 1.04316 1.18135 0
M  V30 5422 C 502.324 0.746542 1.87806 0
M  V30 5423 C 502.645 -0.728082 1.80898 0
M  V30 5424 O 501.915 -1.52554 1.22899 0
M  V30 5425 H 500.495 0.273157 0.695265 0
M  V30 5426 H 503.157 1.32044 1.43354 0
M  V30 5427 H 502.253 1.05362 2.93778 0
M  V30 5428 N 502.554 -1.34406 0.822964 0
M  V30 5429 C 503.464 -2.33298 0.246838 0
M  V30 5430 C 504.48 -1.62625 -0.618797 0
M  V30 5431 O 505.656 -1.94391 -0.526685 0
M  V30 5432 C 502.721 -3.41785 -0.581731 0
M  V30 5433 C 501.782 -4.28206 0.306309 0
M  V30 5434 C 501.015 -5.31512 -0.48281 0
M  V30 5435 O 501.238 -5.43973 -1.71607 0
M  V30 5436 O 500.172 -6.01749 0.134884 0
M  V30 5437 H 503.998 -2.84401 1.06534 0
M  V30 5438 H 501.583 -1.37466 0.585108 0
M  V30 5439 H 503.465 -4.08028 -1.05313 0
M  V30 5440 H 502.14 -2.92925 -1.37756 0
M  V30 5441 H 501.047 -3.64885 0.825199 0
M  V30 5442 H 502.38 -4.80507 1.06649 0
M  V30 5443 N 504.032 -0.577932 -1.46621 0
M  V30 5444 C 505.279 -0.0616879 -2.02406 0
M  V30 5445 C 505.607 1.29638 -1.44997 0
M  V30 5446 O 504.862 1.86176 -0.60308 0
M  V30 5447 C 505.161 0.0590832 -3.57351 0
M  V30 5448 C 504.827 -1.23077 -4.33777 0
M  V30 5449 C 503.489 -1.58416 -4.54376 0
M  V30 5450 C 505.841 -2.08457 -4.77698 0
M  V30 5451 C 503.169 -2.78943 -5.16147 0
M  V30 5452 C 505.521 -3.28204 -5.408 0
M  V30 5453 C 504.185 -3.63832 -5.59627 0
M  V30 5454 H 503.455 -0.0225732 -0.740656 0
M  V30 5455 H 506.102 -0.753609 -1.76048 0
M  V30 5456 H 504.407 0.834104 -3.82818 0
M  V30 5457 H 506.104 0.474202 -3.98186 0
M  V30 5458 H 502.694 -0.945652 -4.18038 0
M  V30 5459 H 506.878 -1.82459 -4.61544 0
M  V30 5460 H 502.134 -3.06689 -5.28916 0
M  V30 5461 H 506.308 -3.94634 -5.73792 0
M  V30 5462 H 503.935 -4.57315 -6.07262 0
M  V30 5463 N 505.51 1.54411 -0.315457 0
M  V30 5464 C 506.787 1.92562 0.343398 0
M  V30 5465 C 507.167 1.24423 1.70535 0
M  V30 5466 O 506.515 0.385051 2.25232 0
M  V30 5467 C 506.725 3.46168 0.443687 0
M  V30 5468 C 508.073 4.18659 0.707783 0
M  V30 5469 O 509.097 3.52281 0.52693 0
M  V30 5470 O 507.956 5.36198 1.05612 0
M  V30 5471 H 505.05 0.80379 0.194552 0
M  V30 5472 H 507.596 1.65738 -0.364577 0
M  V30 5473 H 506.368 3.8792 -0.513172 0
M  V30 5474 H 505.991 3.79073 1.19956 0
M  V30 5475 N 506.988 0.0434614 1.5754 0
M  V30 5476 C 508.399 -0.493343 1.80064 0
M  V30 5477 C 508.75 -1.71388 0.955023 0
M  V30 5478 O 507.875 -2.15736 0.169434 0
M  V30 5479 C 508.47 -0.90179 3.26578 0
M  V30 5480 C 507.029 -1.38362 3.50047 0
M  V30 5481 C 506.176 -0.355129 2.75017 0
M  V30 5482 H 509.127 0.2694 1.56397 0
M  V30 5483 H 509.148 -1.76523 3.37075 0
M  V30 5484 H 508.66 -0.013271 3.88098 0
M  V30 5485 H 506.761 -2.29159 2.93798 0
M  V30 5486 H 506.874 -1.3811 4.58762 0
M  V30 5487 H 505.238 -0.826348 2.40922 0
M  V30 5488 H 506.021 0.525172 3.39259 0
M  V30 5489 N 508.466 -1.55915 -0.229846 0
M  V30 5490 C 509.691 -1.8296 -0.976743 0
M  V30 5491 C 510.116 -0.622735 -1.77493 0
M  V30 5492 O 509.474 0.428431 -1.76165 0
M  V30 5493 C 509.522 -3.07916 -1.8767 0
M  V30 5494 O 508.626 -2.86028 -2.97088 0
M  V30 5495 H 507.967 -0.603453 -0.277021 0
M  V30 5496 H 510.497 -2.0312 -0.245669 0
M  V30 5497 H 510.507 -3.37802 -2.2881 0
M  V30 5498 H 509.182 -3.95389 -1.28996 0
M  V30 5499 H 507.759 -2.67355 -2.59954 0
M  V30 5500 N 509.944 0.496216 -1.49584 0
M  V30 5501 C 511.19 1.25189 -1.59548 0
M  V30 5502 C 511.523 1.9212 -0.283466 0
M  V30 5503 O 510.798 1.80947 0.713324 0
M  V30 5504 C 511.081 2.31516 -2.75812 0
M  V30 5505 C 510.934 1.69054 -4.16822 0
M  V30 5506 C 512.253 3.3304 -2.87702 0
M  V30 5507 H 509.372 0.45379 -0.580727 0
M  V30 5508 H 512.014 0.549327 -1.81886 0
M  V30 5509 H 510.164 2.91438 -2.56897 0
M  V30 5510 H 511.836 1.12923 -4.47265 0
M  V30 5511 H 510.079 0.994485 -4.22247 0
M  V30 5512 H 510.75 2.462 -4.94054 0
M  V30 5513 H 513.226 2.83114 -3.04936 0
M  V30 5514 H 512.102 4.04794 -3.7072 0
M  V30 5515 H 512.363 3.95655 -1.97255 0
M  V30 5516 N 511.423 1.38739 0.74761 0
M  V30 5517 C 512.7 1.25791 1.49786 0
M  V30 5518 C 513.08 -0.138075 2.10648 0
M  V30 5519 O 512.428 -1.14815 1.9756 0
M  V30 5520 C 512.638 2.37265 2.55942 0
M  V30 5521 C 513.986 2.75978 3.22679 0
M  V30 5522 O 515.01 2.36621 2.6625 0
M  V30 5523 O 513.869 3.43867 4.24756 0
M  V30 5524 H 510.963 0.492251 0.664543 0
M  V30 5525 H 513.509 1.50582 0.782511 0
M  V30 5526 H 512.281 3.30644 2.0926 0
M  V30 5527 H 511.904 2.14071 3.35051 0
M  V30 5528 N 512.901 -0.976442 1.23707 0
M  V30 5529 C 514.147 -1.72081 1.07312 0
M  V30 5530 C 514.48 -1.90275 -0.388476 0
M  V30 5531 O 513.755 -1.4579 -1.28746 0
M  V30 5532 C 514.038 -3.11675 1.80363 0
M  V30 5533 C 513.891 -3.01027 3.3422 0
M  V30 5534 C 515.21 -4.1117 1.5693 0
M  V30 5535 H 512.329 -0.624583 0.391236 0
M  V30 5536 H 514.971 -1.13649 1.52263 0
M  V30 5537 H 513.121 -3.61559 1.42153 0
M  V30 5538 H 514.793 -2.58637 3.81975 0
M  V30 5539 H 513.036 -2.3744 3.63049 0
M  V30 5540 H 513.707 -3.9988 3.80525 0
M  V30 5541 H 516.183 -3.7011 1.90151 0
M  V30 5542 H 515.059 -5.06928 2.10513 0
M  V30 5543 H 515.32 -4.392 0.505548 0
M  V30 5544 N 514.379 -1.04941 -1.1758 0
M  V30 5545 C 515.609 -0.777166 -1.91425 0
M  V30 5546 C 516.017 0.670647 -1.76915 0
M  V30 5547 O 515.36 1.46965 -1.10213 0
M  V30 5548 C 515.422 -1.07495 -3.43052 0
M  V30 5549 C 515.086 -2.51844 -3.81345 0
M  V30 5550 C 516.083 -3.50047 -3.844 0
M  V30 5551 C 513.768 -2.86787 -4.12382 0
M  V30 5552 C 515.762 -4.81239 -4.17957 0
M  V30 5553 C 513.449 -4.18182 -4.45608 0
M  V30 5554 C 514.447 -5.15219 -4.48373 0
M  V30 5555 O 514.135 -6.44258 -4.80819 0
M  V30 5556 H 513.867 -0.282209 -0.614275 0
M  V30 5557 H 516.421 -1.40258 -1.50056 0
M  V30 5558 H 514.651 -0.392437 -3.84704 0
M  V30 5559 H 516.34 -0.78912 -3.98155 0
M  V30 5560 H 517.106 -3.24391 -3.60548 0
M  V30 5561 H 512.985 -2.11922 -4.09402 0
M  V30 5562 H 516.529 -5.56974 -4.2003 0
M  V30 5563 H 512.426 -4.43602 -4.68922 0
M  V30 5564 H 513.194 -6.49041 -4.98686 0
M  V30 5565 N 515.857 1.33968 -0.830081 0
M  V30 5566 C 516.82 2.27694 -0.26235 0
M  V30 5567 C 517.82 1.50589 0.563876 0
M  V30 5568 O 519.01 1.70028 0.378941 0
M  V30 5569 C 516.142 3.35002 0.63138 0
M  V30 5570 H 517.335 2.79419 -1.08928 0
M  V30 5571 H 514.888 1.44221 -0.602486 0
M  V30 5572 H 515.623 2.88504 1.48109 0
M  V30 5573 H 515.408 3.92079 0.0403276 0
M  V30 5574 H 516.898 4.04897 1.02217 0
M  V30 5575 N 517.335 0.585699 1.46312 0
M  V30 5576 C 518.268 -0.194257 2.27372 0
M  V30 5577 C 519.246 -0.894116 1.3581 0
M  V30 5578 O 520.43 -0.907402 1.65222 0
M  V30 5579 C 517.557 -1.27901 3.13622 0
M  V30 5580 C 516.603 -0.684666 4.20969 0
M  V30 5581 S 517.436 0.490745 5.33247 0
M  V30 5582 C 518.592 -0.595137 6.23064 0
M  V30 5583 H 518.825 0.493515 2.93175 0
M  V30 5584 H 516.358 0.372666 1.49835 0
M  V30 5585 H 518.316 -1.90008 3.63878 0
M  V30 5586 H 516.977 -1.93875 2.47126 0
M  V30 5587 H 516.17 -1.50015 4.81156 0
M  V30 5588 H 515.772 -0.139204 3.73741 0
M  V30 5589 H 518.064 -1.48002 6.61137 0
M  V30 5590 H 519.007 -0.0299446 7.08094 0
M  V30 5591 H 519.415 -0.900627 5.57269 0
M  V30 5592 N 518.813 -1.54241 0.323641 0
M  V30 5593 C 519.76 -2.24339 -0.542277 0
M  V30 5594 C 520.73 -1.23421 -1.11159 0
M  V30 5595 O 521.915 -1.52104 -1.15192 0
M  V30 5596 C 519.055 -3.00479 -1.69725 0
M  V30 5597 C 518.168 -4.16214 -1.15716 0
M  V30 5598 C 517.303 -4.79884 -2.27783 0
M  V30 5599 C 516.342 -5.87722 -1.71023 0
M  V30 5600 N 515.479 -6.45254 -2.76752 0
M  V30 5601 H 520.319 -2.97935 0.0620613 0
M  V30 5602 H 517.856 -1.47039 0.0423993 0
M  V30 5603 H 519.814 -3.42869 -2.3769 0
M  V30 5604 H 518.444 -2.29217 -2.27288 0
M  V30 5605 H 517.496 -3.78605 -0.369063 0
M  V30 5606 H 518.808 -4.93838 -0.701832 0
M  V30 5607 H 517.962 -5.25243 -3.03651 0
M  V30 5608 H 516.701 -4.01641 -2.76652 0
M  V30 5609 H 515.706 -5.41765 -0.936518 0
M  V30 5610 H 516.931 -6.67863 -1.2303 0
M  V30 5611 H 514.877 -5.69884 -3.24912 0
M  V30 5612 H 514.794 -7.18292 -2.35782 0
M  V30 5613 H 516.062 -6.95269 -3.5245 0
M  V30 5614 N 520.291 -0.0518155 -1.57515 0
M  V30 5615 C 521.516 0.634896 -1.97443 0
M  V30 5616 C 521.941 1.63546 -0.929207 0
M  V30 5617 O 521.299 1.80981 0.107484 0
M  V30 5618 C 521.347 1.29765 -3.36442 0
M  V30 5619 O 520.451 2.41333 -3.34413 0
M  V30 5620 H 519.792 0.164994 -0.643174 0
M  V30 5621 H 522.322 -0.120407 -2.04245 0
M  V30 5622 H 522.332 1.64918 -3.73184 0
M  V30 5623 H 521.007 0.564361 -4.12053 0
M  V30 5624 H 519.584 2.08122 -3.09418 0
M  V30 5625 N 521.769 1.56035 0.221574 0
M  V30 5626 C 522.719 1.8881 1.27807 0
M  V30 5627 C 523.703 0.751177 1.42289 0
M  V30 5628 O 524.895 1.01359 1.45104 0
M  V30 5629 C 522.024 2.20828 2.6285 0
M  V30 5630 C 521.11 3.40912 2.52269 0
M  V30 5631 N 521.501 4.59531 2.1134 0
M  V30 5632 C 519.799 3.44526 2.83228 0
M  V30 5633 C 520.5 5.41689 2.1201 0
M  V30 5634 N 519.476 4.814 2.52497 0
M  V30 5635 H 523.278 2.78036 0.952529 0
M  V30 5636 H 520.792 1.566 0.430134 0
M  V30 5637 H 522.789 2.42483 3.39127 0
M  V30 5638 H 521.449 1.32914 2.9625 0
M  V30 5639 H 522.46 4.8469 1.82472 0
M  V30 5640 H 519.137 2.66956 3.21 0
M  V30 5641 H 520.527 6.46643 1.82491 0
M  V30 5642 N 523.247 -0.488276 1.49845 0
M  V30 5643 C 524.157 -1.61451 1.70207 0
M  V30 5644 C 525.173 -1.63877 0.584846 0
M  V30 5645 O 526.349 -1.82063 0.861107 0
M  V30 5646 C 523.414 -2.9776 1.77594 0
M  V30 5647 C 522.475 -3.05861 3.01243 0
M  V30 5648 C 521.708 -4.35668 3.08268 0
M  V30 5649 O 521.931 -5.25197 2.22541 0
M  V30 5650 O 520.865 -4.49005 4.00847 0
M  V30 5651 H 524.691 -1.47199 2.65643 0
M  V30 5652 H 522.276 -0.665939 1.33737 0
M  V30 5653 H 524.158 -3.7875 1.84732 0
M  V30 5654 H 522.833 -3.12248 0.8534 0
M  V30 5655 H 521.74 -2.24012 2.99616 0
M  V30 5656 H 523.073 -2.96304 3.9302 0
M  V30 5657 N 524.725 -1.39134 -0.740242 0
M  V30 5658 C 525.95 -1.39518 -1.53459 0
M  V30 5659 C 526.375 0.00968883 -1.88098 0
M  V30 5660 O 525.733 0.995312 -1.51536 0
M  V30 5661 C 525.781 -2.26981 -2.802 0
M  V30 5662 O 524.885 -1.69609 -3.75908 0
M  V30 5663 H 524.226 -0.475328 -0.463637 0
M  V30 5664 H 526.756 -1.83064 -0.913717 0
M  V30 5665 H 526.766 -2.41309 -3.28989 0
M  V30 5666 H 525.441 -3.29081 -2.5432 0
M  V30 5667 H 524.018 -1.64495 -3.34658 0
M  V30 5668 N 526.204 0.969867 -1.24223 0
M  V30 5669 C 527.429 1.75289 -1.10853 0
M  V30 5670 C 527.854 1.85091 0.335079 0
M  V30 5671 O 527.212 1.32024 1.24255 0
M  V30 5672 C 527.26 3.15255 -1.75062 0
M  V30 5673 O 526.364 3.99589 -1.01992 0
M  V30 5674 H 525.705 0.538904 -0.387915 0
M  V30 5675 H 528.235 1.21675 -1.64488 0
M  V30 5676 H 528.245 3.65787 -1.80731 0
M  V30 5677 H 526.92 3.07436 -2.801 0
M  V30 5678 H 525.497 3.58077 -1.04094 0
M  V30 5679 N 527.682 1.05563 1.17022 0
M  V30 5680 C 529.093 0.793475 1.69 0
M  V30 5681 C 529.444 -0.683882 1.83895 0
M  V30 5682 O 528.569 -1.53116 1.5292 0
M  V30 5683 C 529.164 1.43376 3.06967 0
M  V30 5684 C 527.723 1.21956 3.56095 0
M  V30 5685 C 526.87 1.51494 2.3226 0
M  V30 5686 H 529.821 1.22008 1.01487 0
M  V30 5687 H 529.842 0.845068 3.70997 0
M  V30 5688 H 529.354 2.50899 2.96093 0
M  V30 5689 H 527.455 0.163749 3.7224 0
M  V30 5690 H 527.568 1.92713 4.38633 0
M  V30 5691 H 525.932 0.935175 2.3691 0
M  V30 5692 H 526.715 2.60159 2.23992 0
M  V30 5693 N 529.16 -1.33526 0.837174 0
M  V30 5694 C 530.107 -2.29248 0.267169 0
M  V30 5695 C 531.077 -1.54252 -0.616071 0
M  V30 5696 O 532.262 -1.82559 -0.554699 0
M  V30 5697 C 529.402 -3.40638 -0.553152 0
M  V30 5698 C 528.515 -4.30548 0.353921 0
M  V30 5699 C 527.65 -5.29051 -0.477339 0
M  V30 5700 C 526.689 -6.106 0.42823 0
M  V30 5701 N 525.826 -7.01152 -0.364801 0
M  V30 5702 H 530.666 -2.77398 1.08877 0
M  V30 5703 H 528.203 -1.36496 0.54838 0
M  V30 5704 H 530.161 -4.03921 -1.04422 0
M  V30 5705 H 528.791 -2.93685 -1.33973 0
M  V30 5706 H 527.843 -3.68001 0.963289 0
M  V30 5707 H 529.155 -4.87631 1.04964 0
M  V30 5708 H 528.309 -5.97853 -1.0323 0
M  V30 5709 H 527.048 -4.72541 -1.2065 0
M  V30 5710 H 526.053 -5.40718 0.995219 0
M  V30 5711 H 527.278 -6.69193 1.15573 0
M  V30 5712 H 525.224 -6.47092 -1.07738 0
M  V30 5713 H 525.141 -7.5551 0.272238 0
M  V30 5714 H 526.409 -7.74263 -0.902054 0
M  V30 5715 N 530.638 -0.59345 -1.46 0
M  V30 5716 C 531.585 0.133618 -2.30413 0
M  V30 5717 C 532.555 0.873736 -1.41262 0
M  V30 5718 O 533.74 0.862279 -1.70204 0
M  V30 5719 C 530.88 1.13434 -3.25924 0
M  V30 5720 C 529.993 0.39656 -4.30176 0
M  V30 5721 C 529.128 1.38575 -5.12806 0
M  V30 5722 C 528.167 0.634984 -6.08797 0
M  V30 5723 N 527.304 1.57276 -6.84258 0
M  V30 5724 H 532.144 -0.592252 -2.92055 0
M  V30 5725 H 529.681 -0.303874 -1.43927 0
M  V30 5726 H 531.639 1.72752 -3.79753 0
M  V30 5727 H 530.269 1.82779 -2.66067 0
M  V30 5728 H 529.321 -0.311861 -3.79119 0
M  V30 5729 H 530.633 -0.189869 -4.98438 0
M  V30 5730 H 529.787 2.05141 -5.70966 0
M  V30 5731 H 528.526 2.00611 -4.44529 0
M  V30 5732 H 527.531 -0.0443925 -5.49782 0
M  V30 5733 H 528.756 0.0198678 -6.79097 0
M  V30 5734 H 526.702 2.18103 -6.18682 0
M  V30 5735 H 526.619 1.03941 -7.48821 0
M  V30 5736 H 527.887 2.22844 -7.46968 0
M  V30 5737 N 532.116 1.54067 -0.331816 0
M  V30 5738 C 533.026 2.28322 0.539104 0
M  V30 5739 C 534.042 1.32985 1.1221 0
M  V30 5740 O 535.218 1.6601 1.1403 0
M  V30 5741 C 532.283 3.03277 1.68 0
M  V30 5742 C 531.344 4.14216 1.12798 0
M  V30 5743 C 530.577 4.85588 2.2145 0
M  V30 5744 O 530.8 4.56536 3.41952 0
M  V30 5745 O 529.734 5.72309 1.86404 0
M  V30 5746 H 533.56 3.03632 -0.0641692 0
M  V30 5747 H 531.145 1.49083 -0.0972365 0
M  V30 5748 H 533.027 3.50189 2.34405 0
M  V30 5749 H 531.702 2.30834 2.2693 0
M  V30 5750 H 530.609 3.71635 0.428782 0
M  V30 5751 H 531.942 4.88727 0.583698 0
M  V30 5752 N 533.594 0.0601682 1.57485 0
M  V30 5753 C 534.84 -0.612501 1.93329 0
M  V30 5754 C 535.173 -1.6996 0.939526 0
M  V30 5755 O 534.448 -1.94472 -0.0330957 0
M  V30 5756 C 534.731 -1.20025 3.39508 0
M  V30 5757 C 534.584 -0.12059 4.49638 0
M  V30 5758 C 535.903 -2.10923 3.86264 0
M  V30 5759 H 533.022 -0.221185 0.703027 0
M  V30 5760 H 535.664 0.123768 1.89596 0
M  V30 5761 H 533.814 -1.82774 3.42821 0
M  V30 5762 H 535.486 0.51185 4.58452 0
M  V30 5763 H 533.729 0.550251 4.30296 0
M  V30 5764 H 534.4 -0.572019 5.49028 0
M  V30 5765 H 536.876 -1.58124 3.84884 0
M  V30 5766 H 535.752 -2.48987 4.8918 0
M  V30 5767 H 536.013 -3.01292 3.23536 0
M  V30 5768 N 535.072 -1.5615 -0.213296 0
M  V30 5769 C 536.302 -1.83372 -0.951757 0
M  V30 5770 C 536.71 -0.638158 -1.78113 0
M  V30 5771 O 536.053 0.402609 -1.79234 0
M  V30 5772 C 536.115 -3.04444 -1.91192 0
M  V30 5773 C 535.779 -4.39107 -1.26627 0
M  V30 5774 C 536.776 -5.15794 -0.652087 0
M  V30 5775 C 534.461 -4.85834 -1.27556 0
M  V30 5776 C 536.455 -6.37376 -0.055814 0
M  V30 5777 C 534.142 -6.07356 -0.675451 0
M  V30 5778 C 535.14 -6.82967 -0.0666367 0
M  V30 5779 O 534.828 -8.0219 0.524119 0
M  V30 5780 H 534.56 -0.613398 -0.284111 0
M  V30 5781 H 537.114 -2.04096 -0.231112 0
M  V30 5782 H 535.344 -2.79559 -2.67178 0
M  V30 5783 H 537.033 -3.18466 -2.51662 0
M  V30 5784 H 537.799 -4.80796 -0.637172 0
M  V30 5785 H 533.678 -4.26949 -1.73883 0
M  V30 5786 H 537.222 -6.96334 0.420004 0
M  V30 5787 H 533.119 -6.41825 -0.687806 0
M  V30 5788 H 533.887 -8.17426 0.419243 0
M  V30 5789 N 536.55 0.480323 -1.50102 0
M  V30 5790 C 537.797 1.23307 -1.60629 0
M  V30 5791 C 538.125 1.92135 -0.302375 0
M  V30 5792 O 537.38 1.82321 0.711154 0
M  V30 5793 C 537.679 2.30708 -2.72963 0
M  V30 5794 C 537.345 1.79195 -4.13763 0
M  V30 5795 C 536.007 1.64867 -4.52076 0
M  V30 5796 C 538.359 1.40878 -5.018 0
M  V30 5797 C 535.687 1.10631 -5.76175 0
M  V30 5798 C 538.039 0.880872 -6.26437 0
M  V30 5799 C 536.703 0.724146 -6.6356 0
M  V30 5800 H 535.973 0.451211 -0.587784 0
M  V30 5801 H 538.62 0.53051 -1.84005 0
M  V30 5802 H 536.925 3.06834 -2.43639 0
M  V30 5803 H 538.622 2.88692 -2.78313 0
M  V30 5804 H 535.212 1.91313 -3.83533 0
M  V30 5805 H 539.396 1.50786 -4.7284 0
M  V30 5806 H 534.652 0.972263 -6.0362 0
M  V30 5807 H 538.826 0.575269 -6.9402 0
M  V30 5808 H 536.453 0.301722 -7.59601 0
M  V30 5809 N 538.028 1.39524 0.732853 0
M  V30 5810 C 538.961 1.32806 1.85574 0
M  V30 5811 C 539.939 0.201354 1.61348 0
M  V30 5812 O 541.123 0.38216 1.84585 0
M  V30 5813 C 538.25 1.06271 3.21596 0
M  V30 5814 C 537.296 2.21161 3.64678 0
M  V30 5815 S 538.129 3.83454 3.73796 0
M  V30 5816 C 539.285 3.59149 5.12604 0
M  V30 5817 H 539.518 2.27838 1.9099 0
M  V30 5818 H 537.051 1.25605 0.897927 0
M  V30 5819 H 539.009 0.916461 4.00139 0
M  V30 5820 H 537.67 0.129223 3.13834 0
M  V30 5821 H 536.863 1.98193 4.63396 0
M  V30 5822 H 536.465 2.32 2.93346 0
M  V30 5823 H 538.757 3.16547 5.99003 0
M  V30 5824 H 539.7 4.57335 5.40602 0
M  V30 5825 H 540.108 2.93203 4.82382 0
M  V30 5826 N 539.506 -0.963266 1.24736 0
M  V30 5827 C 540.469 -2.04013 1.04457 0
M  V30 5828 C 541.469 -1.608 0.000335555 0
M  V30 5829 O 542.659 -1.72515 0.241719 0
M  V30 5830 C 539.791 -3.35858 0.584162 0
M  V30 5831 H 540.984 -2.23436 2.00041 0
M  V30 5832 H 538.537 -1.13914 1.07021 0
M  V30 5833 H 539.272 -3.22128 -0.374673 0
M  V30 5834 H 539.057 -3.68568 1.3379 0
M  V30 5835 H 540.547 -4.1502 0.463451 0
M  V30 5836 N 540.985 -1.06182 -1.16461 0
M  V30 5837 C 542.234 -0.772927 -1.86303 0
M  V30 5838 C 542.547 0.703187 -1.82523 0
M  V30 5839 O 543.753 1.10641 -2.47933 0
M  V30 5840 C 542.209 -1.33249 -3.34324 0
M  V30 5841 C 541.817 -2.83876 -3.46581 0
M  V30 5842 C 543.561 -1.12108 -4.09429 0
M  V30 5843 C 541.468 -3.33082 -4.88682 0
M  V30 5844 H 540.398 -0.285452 -0.697878 0
M  V30 5845 H 543.049 -1.28039 -1.31447 0
M  V30 5846 H 541.431 -0.7528 -3.88779 0
M  V30 5847 H 542.605 -3.47786 -3.02293 0
M  V30 5848 H 540.92 -3.03671 -2.84909 0
M  V30 5849 H 543.517 -1.46361 -5.14279 0
M  V30 5850 H 543.86 -0.0593832 -4.16258 0
M  V30 5851 H 544.393 -1.6665 -3.6121 0
M  V30 5852 H 541.132 -4.38726 -4.87032 0
M  V30 5853 H 540.652 -2.73919 -5.33599 0
M  V30 5854 H 542.331 -3.28344 -5.57494 0
M  V30 5855 N 542.463 1.3308 -0.844243 0
M  V30 5856 C 543.712 1.96868 -0.438833 0
M  V30 5857 C 544.025 1.67599 1.00846 0
M  V30 5858 O 545.231 2.25043 1.51881 0
M  V30 5859 C 543.687 3.5234 -0.73377 0
M  V30 5860 C 543.295 3.90481 -2.1961 0
M  V30 5861 C 545.039 4.22653 -0.395574 0
M  V30 5862 C 542.946 5.38954 -2.43481 0
M  V30 5863 H 541.876 0.736749 -0.160364 0
M  V30 5864 H 544.527 1.51623 -1.03358 0
M  V30 5865 H 542.909 3.95941 -0.068589 0
M  V30 5866 H 544.083 3.57922 -2.90221 0
M  V30 5867 H 542.398 3.33165 -2.4978 0
M  V30 5868 H 544.995 5.31848 -0.551477 0
M  V30 5869 H 545.338 4.11004 0.661921 0
M  V30 5870 H 545.871 3.84601 -1.01621 0
M  V30 5871 H 542.61 5.55612 -3.47816 0
M  V30 5872 H 542.13 5.72954 -1.77437 0
M  V30 5873 H 543.809 6.05907 -2.26905 0
M  V30 5874 N 543.941 0.601185 1.45683 0
M  V30 5875 C 545.218 0.0261659 1.95582 0
M  V30 5876 C 545.598 -1.4399 1.5437 0
M  V30 5877 O 544.946 -2.13919 0.80318 0
M  V30 5878 C 545.156 0.217557 3.48321 0
M  V30 5879 C 546.504 0.0950076 4.24494 0
M  V30 5880 O 547.528 0.147345 3.55895 0
M  V30 5881 O 546.387 -0.025261 5.46494 0
M  V30 5882 H 543.481 -0.0393688 0.826062 0
M  V30 5883 H 546.027 0.670798 1.55879 0
M  V30 5884 H 544.799 1.23601 3.71266 0
M  V30 5885 H 544.422 -0.46264 3.94899 0
M  V30 5886 N 545.419 -1.53889 0.339982 0
M  V30 5887 C 546.668 -2.00035 -0.258604 0
M  V30 5888 C 546.981 -1.23179 -1.51942 0
M  V30 5889 O 548.187 -1.59784 -2.19503 0
M  V30 5890 C 546.643 -3.56249 -0.511359 0
M  V30 5891 C 546.251 -4.41957 0.733349 0
M  V30 5892 C 547.995 -4.1082 -1.069 0
M  V30 5893 C 545.902 -5.89673 0.451591 0
M  V30 5894 H 544.832 -0.747284 -0.10041 0
M  V30 5895 H 547.483 -1.77776 0.454758 0
M  V30 5896 H 545.865 -3.7456 -1.28533 0
M  V30 5897 H 547.039 -4.35421 1.50815 0
M  V30 5898 H 545.354 -3.9836 1.21237 0
M  V30 5899 H 547.951 -5.18789 -1.2947 0
M  V30 5900 H 548.294 -3.63817 -2.02343 0
M  V30 5901 H 548.827 -3.96205 -0.355817 0
M  V30 5902 H 545.566 -6.40903 1.37565 0
M  V30 5903 H 545.086 -5.99122 -0.285193 0
M  V30 5904 H 546.765 -6.46965 0.0675067 0
M  V30 5905 N 546.897 -0.0685191 -1.57451 0
M  V30 5906 C 547.827 0.89747 -2.15564 0
M  V30 5907 C 548.808 1.31266 -1.08181 0
M  V30 5908 O 549.993 1.38429 -1.36202 0
M  V30 5909 C 547.123 2.16623 -2.71463 0
M  V30 5910 C 546.077 1.89054 -3.83982 0
M  V30 5911 C 545.403 3.22532 -4.26471 0
M  V30 5912 C 546.703 1.1984 -5.08366 0
M  V30 5913 H 548.397 0.413373 -2.96533 0
M  V30 5914 H 545.943 0.197391 -1.42641 0
M  V30 5915 H 547.896 2.84614 -3.10761 0
M  V30 5916 H 546.62 2.67269 -1.8771 0
M  V30 5917 H 545.279 1.23469 -3.45183 0
M  V30 5918 H 544.927 3.71013 -3.39644 0
M  V30 5919 H 544.627 3.04879 -5.02317 0
M  V30 5920 H 546.151 3.91727 -4.68383 0
M  V30 5921 H 547.565 1.77896 -5.45001 0
M  V30 5922 H 545.962 1.12456 -5.89469 0
M  V30 5923 H 547.032 0.176996 -4.84577 0
M  V30 5924 N 548.375 1.56261 0.205012 0
M  V30 5925 C 549.603 1.84141 0.943386 0
M  V30 5926 C 550.018 0.649772 1.77266 0
M  V30 5927 O 549.375 -0.381612 1.78466 0
M  V30 5928 C 549.426 3.10719 1.84759 0
M  V30 5929 O 549.147 4.25286 1.05181 0
M  V30 5930 C 550.648 3.51706 2.69848 0
M  V30 5931 H 547.868 0.611734 0.275721 0
M  V30 5932 H 550.412 2.03364 0.215253 0
M  V30 5933 H 548.567 2.93422 2.52947 0
M  V30 5934 H 548.981 4.97301 1.66709 0
M  V30 5935 H 550.455 4.43266 3.28967 0
M  V30 5936 H 550.932 2.7423 3.43067 0
M  V30 5937 H 551.538 3.71499 2.07047 0
M  V30 5938 N 549.853 -0.472356 1.50355 0
M  V30 5939 C 551.264 -1.05326 1.54154 0
M  V30 5940 C 551.615 -1.93155 0.344303 0
M  V30 5941 O 550.74 -2.09479 -0.542928 0
M  V30 5942 C 551.335 -1.91691 2.79356 0
M  V30 5943 C 549.894 -2.44892 2.8584 0
M  V30 5944 C 549.041 -1.23205 2.48426 0
M  V30 5945 H 551.992 -0.255027 1.56637 0
M  V30 5946 H 552.013 -2.76742 2.6114 0
M  V30 5947 H 551.525 -1.27741 3.66475 0
M  V30 5948 H 549.626 -3.12399 2.0307 0
M  V30 5949 H 549.739 -2.80086 3.88701 0
M  V30 5950 H 548.103 -1.56643 2.00836 0
M  V30 5951 H 548.886 -0.609194 3.37852 0
M  V30 5952 N 551.331 -1.39911 -0.725443 0
M  V30 5953 C 552.561 -1.40744 -1.51244 0
M  V30 5954 C 552.969 -0.00275403 -1.892 0
M  V30 5955 O 552.312 0.981299 -1.55294 0
M  V30 5956 C 552.374 -2.22527 -2.82351 0
M  V30 5957 C 552.038 -3.71053 -2.66774 0
M  V30 5958 C 553.035 -4.63916 -2.34686 0
M  V30 5959 C 550.72 -4.14753 -2.83347 0
M  V30 5960 C 552.714 -5.98463 -2.19366 0
M  V30 5961 C 550.401 -5.49372 -2.67644 0
M  V30 5962 C 551.399 -6.41042 -2.357 0
M  V30 5963 O 551.087 -7.73181 -2.20107 0
M  V30 5964 H 550.819 -0.482314 -0.473655 0
M  V30 5965 H 553.373 -1.84472 -0.903284 0
M  V30 5966 H 551.603 -1.73563 -3.45562 0
M  V30 5967 H 553.292 -2.15421 -3.44018 0
M  V30 5968 H 554.058 -4.31453 -2.21525 0
M  V30 5969 H 549.937 -3.43728 -3.072 0
M  V30 5970 H 553.481 -6.69979 -1.94354 0
M  V30 5971 H 549.378 -5.81424 -2.80387 0
M  V30 5972 H 550.146 -7.84008 -2.35103 0
M  V30 5973 N 552.809 0.956637 -1.25245 0
M  V30 5974 C 554.086 1.67716 -1.00651 0
M  V30 5975 C 554.466 2.0585 0.467866 0
M  V30 5976 O 553.814 1.77029 1.44475 0
M  V30 5977 C 554.024 2.90093 -1.94028 0
M  V30 5978 C 555.372 3.6209 -2.21756 0
M  V30 5979 O 556.396 3.00171 -1.9177 0
M  V30 5980 O 555.255 4.7358 -2.72735 0
M  V30 5981 H 552.349 0.733731 -0.381533 0
M  V30 5982 H 554.895 1.00974 -1.3639 0
M  V30 5983 H 553.667 2.58689 -2.93591 0
M  V30 5984 H 553.29 3.64566 -1.58674 0
M  V30 5985 N 554.287 1.06798 1.15896 0
M  V30 5986 C 555.515 0.808694 1.90441 0
M  V30 5987 C 555.93 -0.637506 1.77711 0
M  V30 5988 O 555.287 -1.43684 1.12522 0
M  V30 5989 C 555.338 1.20068 3.40978 0
M  V30 5990 O 555.059 2.59013 3.53333 0
M  V30 5991 C 556.56 0.96987 4.3256 0
M  V30 5992 H 553.78 0.292809 0.603742 0
M  V30 5993 H 556.324 1.42296 1.46874 0
M  V30 5994 H 554.479 0.630842 3.82229 0
M  V30 5995 H 554.893 2.7485 4.46719 0
M  V30 5996 H 556.367 1.29371 5.36626 0
M  V30 5997 H 556.844 -0.0941209 4.39099 0
M  V30 5998 H 557.45 1.52433 3.97044 0
M  V30 5999 N 555.766 -1.3263 0.851289 0
M  V30 6000 C 556.713 -2.28952 0.291469 0
M  V30 6001 C 557.683 -1.54897 -0.599676 0
M  V30 6002 O 558.868 -1.83137 -0.535305 0
M  V30 6003 C 556.008 -3.41206 -0.516992 0
M  V30 6004 C 555.121 -4.30148 0.399566 0
M  V30 6005 C 554.256 -5.29527 -0.4212 0
M  V30 6006 C 553.295 -6.10112 0.492969 0
M  V30 6007 N 552.432 -7.01499 -0.290414 0
M  V30 6008 H 557.272 -2.76228 1.11813 0
M  V30 6009 H 554.809 -1.35907 0.562826 0
M  V30 6010 H 556.767 -4.05005 -1.00132 0
M  V30 6011 H 555.397 -2.9509 -1.30851 0
M  V30 6012 H 554.449 -3.66959 1.00227 0
M  V30 6013 H 555.761 -4.8649 1.1013 0
M  V30 6014 H 554.915 -5.98914 -0.968832 0
M  V30 6015 H 553.654 -4.73794 -1.15632 0
M  V30 6016 H 552.659 -5.39632 1.05251 0
M  V30 6017 H 553.884 -6.6793 1.22664 0
M  V30 6018 H 551.83 -6.48199 -1.00868 0
M  V30 6019 H 551.747 -7.55178 0.352354 0
M  V30 6020 H 553.015 -7.75176 -0.819882 0
M  V30 6021 N 557.244 -0.608902 -1.45362 0
M  V30 6022 C 558.191 0.109172 -2.30542 0
M  V30 6023 C 559.161 0.858704 -1.42181 0
M  V30 6024 O 560.346 0.844178 -1.71109 0
M  V30 6025 C 557.486 1.09971 -3.27109 0
M  V30 6026 C 556.599 0.350911 -4.30572 0
M  V30 6027 C 555.734 1.33129 -5.14247 0
M  V30 6028 C 554.773 0.570377 -6.09437 0
M  V30 6029 N 553.91 1.5001 -6.85887 0
M  V30 6030 H 558.75 -0.623195 -2.91411 0
M  V30 6031 H 556.287 -0.319122 -1.43597 0
M  V30 6032 H 558.245 1.68714 -3.81564 0
M  V30 6033 H 556.875 1.79947 -2.67991 0
M  V30 6034 H 555.927 -0.352054 -3.78767 0
M  V30 6035 H 557.239 -0.242725 -4.98209 0
M  V30 6036 H 556.393 1.99074 -5.73109 0
M  V30 6037 H 555.132 1.95885 -4.46632 0
M  V30 6038 H 554.137 -0.102702 -5.49704 0
M  V30 6039 H 555.362 -0.0521607 -6.7908 0
M  V30 6040 H 553.308 2.11529 -6.2096 0
M  V30 6041 H 553.225 0.959934 -7.49881 0
M  V30 6042 H 554.493 2.14909 -7.49289 0
M  V30 6043 N 558.722 1.53707 -0.348139 0
M  V30 6044 C 559.669 2.25173 0.506518 0
M  V30 6045 C 560.639 1.25174 1.09182 0
M  V30 6046 O 561.824 1.53917 1.12757 0
M  V30 6047 C 558.964 3.03141 1.64923 0
M  V30 6048 C 558.077 4.18002 1.0908 0
M  V30 6049 C 557.212 4.83447 2.20119 0
M  V30 6050 C 556.251 5.90369 1.61651 0
M  V30 6051 N 555.388 6.49575 2.66451 0
M  V30 6052 H 560.228 2.97799 -0.109452 0
M  V30 6053 H 557.765 1.46953 -0.0657866 0
M  V30 6054 H 559.723 3.46607 2.32205 0
M  V30 6055 H 558.353 2.32803 2.23612 0
M  V30 6056 H 557.405 3.79145 0.308783 0
M  V30 6057 H 558.717 4.94892 0.623178 0
M  V30 6058 H 557.871 5.30008 2.95257 0
M  V30 6059 H 556.61 4.05991 2.70227 0
M  V30 6060 H 555.615 5.43186 0.850209 0
M  V30 6061 H 556.84 6.69735 1.1239 0
M  V30 6062 H 554.786 5.74981 3.15805 0
M  V30 6063 H 554.703 7.21952 2.24325 0
M  V30 6064 H 555.971 7.00789 3.41344 0
M  V30 6065 N 560.2 0.0768682 1.57412 0
M  V30 6066 C 561.163 -0.873949 2.11884 0
M  V30 6067 C 562.163 -1.22301 1.04398 0
M  V30 6068 O 563.353 -1.15545 1.30365 0
M  V30 6069 C 560.485 -2.17575 2.62438 0
M  V30 6070 H 561.678 -0.401278 2.97203 0
M  V30 6071 H 559.231 -0.171904 1.55352 0
M  V30 6072 H 559.966 -2.69368 1.80587 0
M  V30 6073 H 559.751 -1.93534 3.41009 0
M  V30 6074 H 561.241 -2.85631 3.04639 0
M  V30 6075 N 561.678 -1.56367 -0.196722 0
M  V30 6076 C 562.641 -1.93561 -1.22746 0
M  V30 6077 C 563.641 -0.816566 -1.38524 0
M  V30 6078 O 564.831 -1.084 -1.36363 0
M  V30 6079 C 561.963 -2.20823 -2.59712 0
M  V30 6080 H 563.156 -2.85774 -0.909586 0
M  V30 6081 H 560.709 -1.50032 -0.438174 0
M  V30 6082 H 561.444 -1.31243 -2.96557 0
M  V30 6083 H 561.229 -3.02368 -2.49632 0
M  V30 6084 H 562.719 -2.50608 -3.34044 0
M  V30 6085 N 563.156 0.464375 -1.50603 0
M  V30 6086 C 564.106 1.55929 -1.66343 0
M  V30 6087 C 565.09 1.52338 -0.517887 0
M  V30 6088 O 566.282 1.59248 -0.772601 0
M  V30 6089 C 563.411 2.94327 -1.7671 0
M  V30 6090 C 562.497 3.02777 -2.96962 0
M  V30 6091 N 562.888 2.81026 -4.20545 0
M  V30 6092 C 561.186 3.33919 -2.95659 0
M  V30 6093 C 561.887 2.94618 -5.01573 0
M  V30 6094 N 560.863 3.25112 -4.35664 0
M  V30 6095 H 564.665 1.37822 -2.59581 0
M  V30 6096 H 562.179 0.671227 -1.47879 0
M  V30 6097 H 564.176 3.73063 -1.86091 0
M  V30 6098 H 562.836 3.13476 -0.846353 0
M  V30 6099 H 563.847 2.56477 -4.49933 0
M  V30 6100 H 560.524 3.59013 -2.13111 0
M  V30 6101 H 561.914 2.81984 -6.09865 0
M  V30 6102 N 564.634 1.40294 0.718013 0
M  V30 6103 C 565.597 1.4012 1.81381 0
M  V30 6104 C 566.597 0.295405 1.58063 0
M  V30 6105 O 567.787 0.554187 1.6515 0
M  V30 6106 C 564.919 1.19056 3.19435 0
M  V30 6107 H 566.112 2.37645 1.82933 0
M  V30 6108 H 563.665 1.26107 0.923405 0
M  V30 6109 H 564.4 0.222809 3.23534 0
M  V30 6110 H 564.185 1.99152 3.37758 0
M  V30 6111 H 565.675 1.21716 3.99468 0
M  V30 6112 N 566.112 -0.949982 1.2575 0
M  V30 6113 C 567.075 -2.02894 1.06615 0
M  V30 6114 C 568.075 -1.60791 0.0173905 0
M  V30 6115 O 569.265 -1.72249 0.260003 0
M  V30 6116 C 566.397 -3.35219 0.619751 0
M  V30 6117 H 567.59 -2.21302 2.02399 0
M  V30 6118 H 565.143 -1.12772 1.08223 0
M  V30 6119 H 565.878 -3.22508 -0.340486 0
M  V30 6120 H 565.663 -3.67129 1.37692 0
M  V30 6121 H 567.153 -4.14505 0.507443 0
M  V30 6122 N 567.59 -1.07411 -1.15328 0
M  V30 6123 C 568.537 -0.694995 -2.20087 0
M  V30 6124 C 569.507 0.313904 -1.63107 0
M  V30 6125 O 570.692 0.200216 -1.89747 0
M  V30 6126 C 567.832 -0.0996218 -3.44956 0
M  V30 6127 C 566.945 -1.16007 -4.16133 0
M  V30 6128 C 566.08 -0.529636 -5.28553 0
M  V30 6129 C 565.119 -1.57283 -5.91548 0
M  V30 6130 N 564.256 -0.964932 -6.95438 0
M  V30 6131 H 569.096 -1.5927 -2.51867 0
M  V30 6132 H 566.633 -0.796115 -1.23695 0
M  V30 6133 H 568.591 0.263197 -4.16369 0
M  V30 6134 H 567.221 0.761435 -3.13691 0
M  V30 6135 H 566.273 -1.64045 -3.4321 0
M  V30 6136 H 567.585 -1.95101 -4.59061 0
M  V30 6137 H 566.739 -0.114487 -6.06592 0
M  V30 6138 H 565.478 0.29307 -4.86819 0
M  V30 6139 H 564.483 -1.99775 -5.12221 0
M  V30 6140 H 565.708 -2.39783 -6.35359 0
M  V30 6141 H 563.654 -0.16314 -6.55797 0
M  V30 6142 H 563.571 -1.69311 -7.36797 0
M  V30 6143 H 564.839 -0.575305 -7.77374 0
M  V30 6144 N 569.068 1.32177 -0.85831 0
M  V30 6145 C 570.296 2.01313 -0.477582 0
M  V30 6146 C 570.711 1.6449 0.926736 0
M  V30 6147 O 570.068 0.868096 1.60531 0
M  V30 6148 C 570.119 3.56293 -0.611337 0
M  V30 6149 O 569.84 3.91794 -1.96034 0
M  V30 6150 C 571.341 4.42702 -0.230093 0
M  V30 6151 H 568.561 0.644323 -0.187322 0
M  V30 6152 H 571.105 1.68674 -1.15626 0
M  V30 6153 H 569.26 3.87395 0.0196494 0
M  V30 6154 H 569.674 4.86513 -1.95973 0
M  V30 6155 H 571.148 5.50727 -0.374674 0
M  V30 6156 H 571.625 4.3129 0.829779 0
M  V30 6157 H 572.231 4.16997 -0.836302 0
M  V30 6158 N 570.547 0.616602 1.45037 0
M  V30 6159 C 571.793 0.115501 2.02471 0
M  V30 6160 C 572.126 -1.25406 1.4828 0
M  V30 6161 O 571.401 -1.82922 0.661051 0
M  V30 6162 C 571.684 0.0863588 3.59996 0
M  V30 6163 C 571.537 1.48723 4.24501 0
M  V30 6164 C 572.856 -0.596762 4.36035 0
M  V30 6165 H 569.975 0.0434461 0.735718 0
M  V30 6166 H 572.617 0.7903 1.72784 0
M  V30 6167 H 570.767 -0.488277 3.85419 0
M  V30 6168 H 572.439 2.10964 4.10234 0
M  V30 6169 H 570.682 2.04534 3.82555 0
M  V30 6170 H 571.353 1.419 5.3345 0
M  V30 6171 H 573.829 -0.10824 4.15959 0
M  V30 6172 H 572.705 -0.586289 5.4576 0
M  V30 6173 H 572.966 -1.66451 4.09569 0
M  V30 6174 N 572.025 -1.5352 0.356285 0
M  V30 6175 C 572.972 -2.25439 -0.494569 0
M  V30 6176 C 573.942 -1.25752 -1.08516 0
M  V30 6177 O 575.127 -1.54513 -1.1194 0
M  V30 6178 C 572.267 -3.04011 -1.63313 0
M  V30 6179 C 571.38 -4.18574 -1.06862 0
M  V30 6180 C 570.515 -4.84607 -2.17552 0
M  V30 6181 C 569.554 -5.91218 -1.58518 0
M  V30 6182 N 568.691 -6.50979 -2.63003 0
M  V30 6183 H 573.531 -2.97737 0.125244 0
M  V30 6184 H 571.068 -1.46916 0.0735789 0
M  V30 6185 H 573.026 -3.47834 -2.30363 0
M  V30 6186 H 571.656 -2.33986 -2.22374 0
M  V30 6187 H 570.708 -3.79303 -0.288672 0
M  V30 6188 H 572.02 -4.95215 -0.596924 0
M  V30 6189 H 571.174 -5.31566 -2.92442 0
M  V30 6190 H 569.913 -4.07418 -2.6807 0
M  V30 6191 H 568.918 -5.4363 -0.821391 0
M  V30 6192 H 570.143 -6.70322 -1.08836 0
M  V30 6193 H 568.089 -5.76648 -3.12751 0
M  V30 6194 H 568.006 -7.23131 -2.20493 0
M  V30 6195 H 569.274 -7.02589 -3.37623 0
M  V30 6196 N 573.503 -0.0852151 -1.57369 0
M  V30 6197 C 574.453 0.88767 -2.10011 0
M  V30 6198 C 575.437 1.25021 -1.01285 0
M  V30 6199 O 576.629 1.22694 -1.27574 0
M  V30 6200 C 573.758 2.15037 -2.67608 0
M  V30 6201 C 572.844 1.81371 -3.83361 0
M  V30 6202 N 573.235 1.18216 -4.91791 0
M  V30 6203 C 571.533 2.11041 -3.92909 0
M  V30 6204 C 572.234 1.02941 -5.72519 0
M  V30 6205 N 571.21 1.54351 -5.21226 0
M  V30 6206 H 575.012 0.395279 -2.9123 0
M  V30 6207 H 572.526 0.11829 -1.61969 0
M  V30 6208 H 574.523 2.85667 -3.03644 0
M  V30 6209 H 573.183 2.64851 -1.8784 0
M  V30 6210 H 574.194 0.850168 -5.10874 0
M  V30 6211 H 570.871 2.63138 -3.24136 0
M  V30 6212 H 572.261 0.536298 -6.69756 0
M  V30 6213 N 574.981 1.5647 0.188427 0
M  V30 6214 C 576.229 1.80655 0.905986 0
M  V30 6215 C 576.55 0.659391 1.83513 0
M  V30 6216 O 575.82 -0.321868 1.93238 0
M  V30 6217 H 574.4 0.666391 0.337538 0
M  V30 6218 H 577.062 1.93949 0.192339 0
M  V30 6219 H 576.158 2.74066 1.49313 0
M  V30 6220 N 576.459 -0.456382 1.50847 0
M  V30 6221 C 577.422 -1.53493 1.70213 0
M  V30 6222 C 578.422 -1.50264 0.572481 0
M  V30 6223 O 579.612 -1.52623 0.839751 0
M  V30 6224 C 576.744 -2.93091 1.741 0
M  V30 6225 H 577.937 -1.37633 2.66453 0
M  V30 6226 H 575.49 -0.683776 1.4055 0
M  V30 6227 H 576.225 -3.14378 0.796063 0
M  V30 6228 H 576.01 -2.9684 2.5618 0
M  V30 6229 H 577.5 -3.71368 1.90987 0
M  V30 6230 N 577.937 -1.40673 -0.710563 0
M  V30 6231 C 579.185 -1.38947 -1.46759 0
M  V30 6232 C 579.506 0.00572879 -1.94999 0
M  V30 6233 O 578.776 0.961358 -1.70689 0
M  V30 6234 H 577.356 -0.5114 -0.544499 0
M  V30 6235 H 580.018 -1.75773 -0.842012 0
M  V30 6236 H 579.114 -2.06745 -2.33801 0
M  V30 6237 N 579.415 0.9433 -1.26252 0
M  V30 6238 C 580.378 2.02326 -1.07689 0
M  V30 6239 C 581.378 1.60779 -0.0259174 0
M  V30 6240 O 582.568 1.72108 -0.269134 0
M  V30 6241 C 579.7 3.34886 -0.63752 0
M  V30 6242 H 580.893 2.20225 -2.0357 0
M  V30 6243 H 578.446 1.12197 -1.08819 0
M  V30 6244 H 579.181 3.22684 0.323377 0
M  V30 6245 H 578.966 3.66393 -1.39637 0
M  V30 6246 H 580.456 4.14231 -0.529418 0
M  V30 6247 N 580.893 1.08022 1.14757 0
M  V30 6248 C 581.803 0.718292 2.23333 0
M  V30 6249 C 582.819 -0.273477 1.71837 0
M  V30 6250 O 583.995 -0.118406 2.01052 0
M  V30 6251 C 581.06 0.128855 3.4646 0
M  V30 6252 C 580.121 1.17473 4.12915 0
M  V30 6253 C 579.354 0.61333 5.30164 0
M  V30 6254 O 579.577 -0.568458 5.6756 0
M  V30 6255 O 578.511 1.3615 5.86299 0
M  V30 6256 H 582.337 1.62394 2.56636 0
M  V30 6257 H 579.922 0.853628 1.22611 0
M  V30 6258 H 581.804 -0.197249 4.20938 0
M  V30 6259 H 580.479 -0.750014 3.14891 0
M  V30 6260 H 579.386 1.5533 3.40328 0
M  V30 6261 H 580.719 2.02574 4.48581 0
M  V30 6262 N 582.371 -1.3172 0.865308 0
M  V30 6263 C 583.62 -1.96145 0.470098 0
M  V30 6264 C 583.933 -1.69182 -0.981674 0
M  V30 6265 O 585.139 -2.27431 -1.48281 0
M  V30 6266 C 583.595 -3.51129 0.789732 0
M  V30 6267 C 583.203 -3.86938 2.25795 0
M  V30 6268 C 584.947 -4.2197 0.462765 0
M  V30 6269 C 582.854 -5.35012 2.52024 0
M  V30 6270 H 581.784 -0.734105 0.172065 0
M  V30 6271 H 584.435 -1.49959 1.05757 0
M  V30 6272 H 582.817 -3.95781 0.131571 0
M  V30 6273 H 583.991 -3.5326 2.95879 0
M  V30 6274 H 582.306 -3.29149 2.55049 0
M  V30 6275 H 584.903 -5.30904 0.636019 0
M  V30 6276 H 585.246 -4.12005 -0.59645 0
M  V30 6277 H 585.779 -3.82936 1.07727 0
M  V30 6278 H 582.518 -5.50008 3.56611 0
M  V30 6279 H 582.038 -5.70058 1.8653 0
M  V30 6280 H 583.717 -6.0222 2.36515 0
M  V30 6281 N 583.85 -0.624285 -1.44708 0
M  V30 6282 C 585.075 -0.131171 -2.06985 0
M  V30 6283 C 585.5 1.18234 -1.46295 0
M  V30 6284 O 584.858 1.72375 -0.561842 0
M  V30 6285 C 584.906 -0.0226724 -3.60593 0
M  V30 6286 O 584.01 1.02314 -3.99507 0
M  V30 6287 H 583.351 -0.0816556 -0.65896 0
M  V30 6288 H 585.88 -0.859027 -1.85693 0
M  V30 6289 H 585.891 0.170138 -4.07645 0
M  V30 6290 H 584.566 -0.981685 -4.04148 0
M  V30 6291 H 583.143 0.805452 -3.64097 0
M  V30 6292 N 585.328 1.53329 -0.364422 0
M  V30 6293 C 586.556 2.05657 0.226424 0
M  V30 6294 C 586.971 1.23801 1.42544 0
M  V30 6295 O 586.328 0.27839 1.80364 0
M  V30 6296 C 586.379 3.56125 0.621056 0
M  V30 6297 O 586.1 4.34879 -0.530304 0
M  V30 6298 C 587.601 4.24706 1.27041 0
M  V30 6299 H 584.821 0.669806 0.0400056 0
M  V30 6300 H 587.365 1.97714 -0.522456 0
M  V30 6301 H 585.52 3.64223 1.31985 0
M  V30 6302 H 585.934 5.24073 -0.211546 0
M  V30 6303 H 587.408 5.3131 1.49711 0
M  V30 6304 H 587.885 3.78354 2.23036 0
M  V30 6305 H 588.491 4.20858 0.613079 0
M  V30 6306 N 586.806 0.0935595 1.57322 0
M  V30 6307 C 588.052 -0.571355 1.94585 0
M  V30 6308 C 588.385 -1.67929 0.975366 0
M  V30 6309 O 587.66 -1.94498 0.00816206 0
M  V30 6310 C 587.943 -1.12797 3.41978 0
M  V30 6311 C 587.796 -0.0251881 4.49793 0
M  V30 6312 C 589.115 -2.02682 3.90651 0
M  V30 6313 H 586.234 -0.206223 0.70756 0
M  V30 6314 H 588.876 0.163956 1.89291 0
M  V30 6315 H 587.026 -1.75461 3.4662 0
M  V30 6316 H 588.698 0.608979 4.57263 0
M  V30 6317 H 586.941 0.641399 4.29032 0
M  V30 6318 H 587.612 -0.455433 5.50118 0
M  V30 6319 H 590.088 -1.49925 3.88152 0
M  V30 6320 H 588.964 -2.38555 4.94351 0
M  V30 6321 H 589.225 -2.94362 3.29854 0
M  V30 6322 N 588.284 -1.56567 -0.180126 0
M  V30 6323 C 589.232 -1.96632 -1.24251 0
M  V30 6324 C 590.226 -0.853818 -1.46309 0
M  V30 6325 O 591.432 -1.0389 -1.46993 0
M  V30 6326 H 587.807 -0.625476 -0.417473 0
M  V30 6327 H 589.778 -2.85201 -0.877679 0
M  V30 6328 C 588.527 -2.33486 -2.57642 0
M  V30 6329 H 587.85 -3.18626 -2.4149 0
M  V30 6330 H 589.29 -2.65371 -3.30688 0
M  V30 6331 C 587.749 -1.17499 -3.15746 0
M  V30 6332 O 588.279 -0.457956 -3.99081 0
M  V30 6333 N 586.485 -0.94786 -2.74707 0
M  V30 6334 H 586.032 -1.53269 -2.07042 0
M  V30 6335 H 585.99 -0.173626 -3.1392 0
M  V30 6336 N 589.762 0.448376 -1.51087 0
M  V30 6337 C 591.173 1.0286 -1.5581 0
M  V30 6338 C 591.524 1.92583 -0.374989 0
M  V30 6339 O 590.649 2.10316 0.509533 0
M  V30 6340 C 591.244 1.87223 -2.8237 0
M  V30 6341 C 589.803 2.40314 -2.897 0
M  V30 6342 C 588.95 1.19238 -2.50355 0
M  V30 6343 H 591.901 0.230075 -1.57023 0
M  V30 6344 H 591.922 2.72553 -2.6551 0
M  V30 6345 H 591.434 1.21894 -3.68461 0
M  V30 6346 H 589.535 3.09129 -2.08014 0
M  V30 6347 H 589.648 2.73866 -3.93108 0
M  V30 6348 H 588.012 1.53428 -2.03303 0
M  V30 6349 H 588.795 0.555367 -3.38778 0
M  V30 6350 N 591.24 1.41047 0.703093 0
M  V30 6351 C 592.15 1.44645 1.84703 0
M  V30 6352 C 593.166 0.337778 1.7069 0
M  V30 6353 O 594.342 0.584327 1.92737 0
M  V30 6354 C 591.407 1.31928 3.20618 0
M  V30 6355 C 590.468 2.53047 3.46794 0
M  V30 6356 C 589.701 2.40927 4.76224 0
M  V30 6357 O 589.924 1.42978 5.5219 0
M  V30 6358 O 588.858 3.30543 5.03016 0
M  V30 6359 H 592.684 2.41139 1.84624 0
M  V30 6360 H 590.269 1.22504 0.855167 0
M  V30 6361 H 592.151 1.27092 4.01778 0
M  V30 6362 H 590.826 0.385469 3.21397 0
M  V30 6363 H 589.733 2.6346 2.65593 0
M  V30 6364 H 591.066 3.45231 3.50822 0
M  V30 6365 N 592.718 -0.936591 1.26751 0
M  V30 6366 C 593.65 -2.03991 1.045 0
M  V30 6367 C 594.663 -1.628 0.00394261 0
M  V30 6368 O 595.852 -1.76817 0.244526 0
M  V30 6369 C 592.952 -3.34218 0.561403 0
M  V30 6370 C 592.125 -4.04151 1.67274 0
M  V30 6371 C 591.184 -5.12651 1.1864 0
M  V30 6372 O 590.21 -5.37104 1.88437 0
M  V30 6373 N 591.412 -5.80488 0.037278 0
M  V30 6374 H 594.177 -2.23644 1.99508 0
M  V30 6375 H 591.738 -1.10638 1.18198 0
M  V30 6376 H 593.73 -4.04101 0.220136 0
M  V30 6377 H 592.3 -3.11203 -0.295211 0
M  V30 6378 H 591.52 -3.28121 2.18472 0
M  V30 6379 H 592.808 -4.47626 2.41885 0
M  V30 6380 H 592.206 -5.63064 -0.545494 0
M  V30 6381 H 590.763 -6.5134 -0.244877 0
M  V30 6382 N 594.196 -1.08629 -1.14182 0
M  V30 6383 C 595.426 -0.837673 -1.88856 0
M  V30 6384 C 595.834 0.614024 -1.78959 0
M  V30 6385 O 595.177 1.43384 -1.14833 0
M  V30 6386 C 595.239 -1.18355 -3.39459 0
M  V30 6387 C 594.903 -2.63848 -3.73139 0
M  V30 6388 C 595.9 -3.62099 -3.73069 0
M  V30 6389 C 593.585 -2.99761 -4.03049 0
M  V30 6390 C 595.579 -4.94292 -4.02435 0
M  V30 6391 C 593.266 -4.32147 -4.32078 0
M  V30 6392 C 594.264 -5.29223 -4.31755 0
M  V30 6393 O 593.952 -6.59229 -4.60079 0
M  V30 6394 H 593.684 -0.301609 -0.604986 0
M  V30 6395 H 596.238 -1.44961 -1.45518 0
M  V30 6396 H 594.468 -0.514628 -3.8326 0
M  V30 6397 H 596.157 -0.915391 -3.95443 0
M  V30 6398 H 596.923 -3.35698 -3.50046 0
M  V30 6399 H 592.802 -2.2484 -4.02453 0
M  V30 6400 H 596.346 -5.70055 -4.02098 0
M  V30 6401 H 592.243 -4.58296 -4.54571 0
M  V30 6402 H 593.011 -6.64578 -4.77785 0
M  V30 6403 N 595.674 1.31259 -0.872281 0
M  V30 6404 C 596.899 2.0133 -0.498099 0
M  V30 6405 C 597.324 1.65031 0.902568 0
M  V30 6406 O 596.682 0.860164 1.59596 0
M  V30 6407 C 596.73 3.54411 -0.665205 0
M  V30 6408 O 595.834 4.11347 0.294473 0
M  V30 6409 H 595.175 0.633844 -0.197832 0
M  V30 6410 H 597.705 1.67402 -1.17633 0
M  V30 6411 H 597.715 4.04147 -0.559373 0
M  V30 6412 H 596.39 3.80171 -1.68651 0
M  V30 6413 H 594.967 3.72624 0.143403 0
M  V30 6414 N 597.152 0.631951 1.44375 0
M  V30 6415 C 598.099 -0.0724807 2.30686 0
M  V30 6416 C 599.069 -0.835975 1.43529 0
M  V30 6417 O 600.254 -0.816849 1.7243 0
M  V30 6418 C 597.394 -1.04753 3.28817 0
M  V30 6419 C 596.507 -0.282367 4.31076 0
M  V30 6420 C 595.642 -1.2493 5.163 0
M  V30 6421 C 594.681 -0.473349 6.10267 0
M  V30 6422 N 593.818 -1.39079 6.88187 0
M  V30 6423 H 598.658 0.669477 2.90383 0
M  V30 6424 H 596.195 0.341927 1.43071 0
M  V30 6425 H 598.153 -1.62623 3.842 0
M  V30 6426 H 596.783 -1.75661 2.70819 0
M  V30 6427 H 595.835 0.412268 3.78159 0
M  V30 6428 H 597.147 0.321955 4.9776 0
M  V30 6429 H 596.301 -1.89931 5.76204 0
M  V30 6430 H 595.04 -1.88755 4.49692 0
M  V30 6431 H 594.045 0.190142 5.49471 0
M  V30 6432 H 595.27 0.16019 6.78911 0
M  V30 6433 H 593.216 -2.01623 6.24247 0
M  V30 6434 H 593.133 -0.840513 7.51313 0
M  V30 6435 H 594.401 -2.02961 7.52613 0
M  V30 6436 N 598.631 -1.53133 0.372548 0
M  V30 6437 C 600.047 -1.59585 0.02178 0
M  V30 6438 C 600.247 -1.38736 -1.46132 0
M  V30 6439 O 599.303 -1.19599 -2.22379 0
M  V30 6440 C 600.616 -2.9678 0.483959 0
M  V30 6441 C 602.164 -3.09909 0.438775 0
M  V30 6442 C 602.639 -4.49527 0.876876 0
M  V30 6443 N 604.13 -4.55663 0.832214 0
M  V30 6444 C 604.865 -5.61896 1.14281 0
M  V30 6445 N 604.361 -6.75852 1.52303 0
M  V30 6446 N 606.154 -5.51916 1.06515 0
M  V30 6447 H 598.305 -1.64936 1.33827 0
M  V30 6448 H 600.568 -0.773947 0.547458 0
M  V30 6449 H 600.274 -3.17198 1.51915 0
M  V30 6450 H 600.148 -3.7699 -0.125784 0
M  V30 6451 H 602.535 -2.89197 -0.587294 0
M  V30 6452 H 602.616 -2.31691 1.0841 0
M  V30 6453 H 602.26 -4.70979 1.90109 0
M  V30 6454 H 602.19 -5.26186 0.208727 0
M  V30 6455 H 604.681 -3.73844 0.552195 0
M  V30 6456 H 604.994 -7.52862 1.7441 0
M  V30 6457 H 603.339 -6.77226 1.56175 0
M  V30 6458 H 606.53 -4.6177 0.767235 0
M  V30 6459 H 606.703 -6.34609 1.31053 0
M  V30 6460 N 600.109 -0.101901 -1.5727 0
M  V30 6461 C 601.356 0.560197 -1.94597 0
M  V30 6462 C 601.684 1.67767 -0.984101 0
M  V30 6463 O 600.939 1.95699 -0.00489193 0
M  V30 6464 C 601.238 1.14898 -3.38427 0
M  V30 6465 C 600.904 0.154613 -4.50635 0
M  V30 6466 C 599.566 -0.118861 -4.81053 0
M  V30 6467 C 601.918 -0.523979 -5.18559 0
M  V30 6468 C 599.246 -1.0775 -5.76721 0
M  V30 6469 C 601.598 -1.47114 -6.15256 0
M  V30 6470 C 600.262 -1.75278 -6.44076 0
M  V30 6471 H 599.532 0.204991 -0.712081 0
M  V30 6472 H 602.179 -0.17918 -1.9066 0
M  V30 6473 H 600.484 1.96476 -3.38976 0
M  V30 6474 H 602.181 1.66909 -3.64613 0
M  V30 6475 H 598.771 0.377948 -4.2693 0
M  V30 6476 H 602.955 -0.325851 -4.95229 0
M  V30 6477 H 598.211 -1.30263 -5.97362 0
M  V30 6478 H 602.385 -2.00274 -6.66981 0
M  V30 6479 H 600.012 -2.49717 -7.18015 0
M  V30 6480 N 601.587 1.56661 0.17182 0
M  V30 6481 C 602.535 1.97289 1.23207 0
M  V30 6482 C 603.529 0.861566 1.45854 0
M  V30 6483 O 604.735 1.04668 1.4644 0
M  V30 6484 H 601.11 0.627681 0.41415 0
M  V30 6485 H 603.081 2.85662 0.862542 0
M  V30 6486 C 601.83 2.34849 2.564 0
M  V30 6487 H 601.153 3.19903 2.39797 0
M  V30 6488 H 602.593 2.67121 3.29276 0
M  V30 6489 C 601.052 1.19172 3.15119 0
M  V30 6490 O 601.582 0.479113 3.98833 0
M  V30 6491 N 599.788 0.962415 2.74201 0
M  V30 6492 H 599.335 1.54365 2.06226 0
M  V30 6493 H 599.293 0.190272 3.13824 0
M  V30 6494 N 603.065 -0.440357 1.51323 0
M  V30 6495 C 603.975 -1.55955 1.75258 0
M  V30 6496 C 604.991 -1.61933 0.636687 0
M  V30 6497 O 606.167 -1.79231 0.918593 0
M  V30 6498 C 603.232 -2.9196 1.86977 0
M  V30 6499 C 602.293 -2.96122 3.10822 0
M  V30 6500 C 601.526 -4.2564 3.21973 0
M  V30 6501 O 601.749 -5.17851 2.39137 0
M  V30 6502 O 600.683 -4.36025 4.14929 0
M  V30 6503 H 604.509 -1.38673 2.70191 0
M  V30 6504 H 602.094 -0.623055 1.35788 0
M  V30 6505 H 603.976 -3.72682 1.96688 0
M  V30 6506 H 602.651 -3.09375 0.952307 0
M  V30 6507 H 601.558 -2.14366 3.06591 0
M  V30 6508 H 602.891 -2.83651 4.02247 0
M  V30 6509 N 604.543 -1.41418 -0.695603 0
M  V30 6510 C 605.79 -1.40774 -1.45564 0
M  V30 6511 C 606.118 -0.0168604 -1.94493 0
M  V30 6512 O 605.373 0.971259 -1.69897 0
M  V30 6513 C 605.672 -2.36112 -2.68302 0
M  V30 6514 C 605.338 -3.82952 -2.38031 0
M  V30 6515 C 604 -4.22954 -2.29486 0
M  V30 6516 C 606.352 -4.75662 -2.13061 0
M  V30 6517 C 603.68 -5.53674 -1.94067 0
M  V30 6518 C 606.032 -6.06702 -1.79151 0
M  V30 6519 C 604.696 -6.45725 -1.69102 0
M  V30 6520 H 603.966 -0.515128 -0.532658 0
M  V30 6521 H 606.613 -1.74216 -0.795047 0
M  V30 6522 H 604.918 -1.95924 -3.39295 0
M  V30 6523 H 606.615 -2.32887 -3.26442 0
M  V30 6524 H 603.205 -3.5127 -2.45576 0
M  V30 6525 H 607.389 -4.45561 -2.18608 0
M  V30 6526 H 602.645 -5.8279 -1.8484 0
M  V30 6527 H 606.819 -6.78041 -1.5885 0
M  V30 6528 H 604.446 -7.46929 -1.41426 0
M  V30 6529 N 606.021 0.929856 -1.27246 0
M  V30 6530 C 606.954 2.03069 -1.04106 0
M  V30 6531 C 607.932 1.62556 0.0378417 0
M  V30 6532 O 609.116 1.88197 -0.106869 0
M  V30 6533 C 606.243 3.33718 -0.578778 0
M  V30 6534 C 605.289 3.93209 -1.65193 0
M  V30 6535 S 606.122 4.26068 -3.24386 0
M  V30 6536 C 607.278 5.598 -2.79954 0
M  V30 6537 H 607.511 2.22386 -1.97311 0
M  V30 6538 H 605.044 1.07269 -1.11053 0
M  V30 6539 H 607.002 4.09261 -0.31874 0
M  V30 6540 H 605.663 3.12328 0.333182 0
M  V30 6541 H 604.856 4.87482 -1.27973 0
M  V30 6542 H 604.458 3.24243 -1.86393 0
M  V30 6543 H 606.75 6.39004 -2.25123 0
M  V30 6544 H 607.693 6.01917 -3.72963 0
M  V30 6545 H 608.101 5.20219 -2.19164 0
M  V30 6546 N 607.499 1.09233 1.13605 0
M  V30 6547 C 608.724 0.849067 1.89224 0
M  V30 6548 C 609.149 -0.593875 1.78479 0
M  V30 6549 O 608.507 -1.41703 1.13092 0
M  V30 6550 C 608.555 1.28642 3.36873 0
M  V30 6551 O 607.659 0.44363 4.10007 0
M  V30 6552 H 607 0.30767 0.588417 0
M  V30 6553 H 609.53 1.45595 1.43748 0
M  V30 6554 H 609.54 1.27096 3.87699 0
M  V30 6555 H 608.215 2.33729 3.44011 0
M  V30 6556 H 606.792 0.523241 3.69211 0
M  V30 6557 N 608.977 -1.30795 0.87923 0
M  V30 6558 C 609.925 -2.30231 0.331112 0
M  V30 6559 C 610.919 -1.59918 -0.558794 0
M  V30 6560 O 612.125 -1.74441 -0.443866 0
M  V30 6561 H 608.5 -0.746785 0.088409 0
M  V30 6562 H 610.471 -2.73925 1.18353 0
M  V30 6563 C 609.22 -3.44848 -0.444401 0
M  V30 6564 H 608.543 -3.99131 0.231106 0
M  V30 6565 H 609.983 -4.16516 -0.793109 0
M  V30 6566 C 608.442 -2.94329 -1.63926 0
M  V30 6567 O 608.972 -2.93875 -2.73862 0
M  V30 6568 N 607.178 -2.50413 -1.4745 0
M  V30 6569 H 606.725 -2.50982 -0.58015 0
M  V30 6570 H 606.683 -2.16969 -2.27534 0
M  V30 6571 N 610.455 -0.639598 -1.44038 0
M  V30 6572 C 611.704 -0.144885 -2.01179 0
M  V30 6573 C 612.017 1.24372 -1.50967 0
M  V30 6574 O 613.223 1.83291 -2.00292 0
M  V30 6575 C 611.679 -0.208244 -3.59297 0
M  V30 6576 C 611.287 -1.59869 -4.18504 0
M  V30 6577 C 613.031 0.229568 -4.23879 0
M  V30 6578 C 610.938 -1.61671 -5.68873 0
M  V30 6579 H 609.868 -0.0504005 -0.752314 0
M  V30 6580 H 612.519 -0.799639 -1.65161 0
M  V30 6581 H 610.901 0.513767 -3.92653 0
M  V30 6582 H 612.075 -2.34496 -3.96671 0
M  V30 6583 H 610.39 -1.98131 -3.66242 0
M  V30 6584 H 612.987 0.235758 -5.3418 0
M  V30 6585 H 613.33 1.25848 -3.96822 0
M  V30 6586 H 613.863 -0.440233 -3.95357 0
M  V30 6587 H 610.602 -2.62427 -6.00677 0
M  V30 6588 H 610.122 -0.913489 -5.92803 0
M  V30 6589 H 611.801 -1.35439 -6.32665 0
M  V30 6590 N 611.933 1.52934 -0.380664 0
M  V30 6591 C 612.863 2.29118 0.450268 0
M  V30 6592 C 613.844 1.32153 1.07096 0
M  V30 6593 O 615.029 1.61038 1.08537 0
M  V30 6594 C 612.159 3.09161 1.58231 0
M  V30 6595 C 611.113 4.13938 1.0881 0
M  V30 6596 C 610.439 4.82153 2.31155 0
M  V30 6597 C 611.739 5.22048 0.162146 0
M  V30 6598 H 613.433 2.98826 -0.185361 0
M  V30 6599 H 610.979 1.43715 -0.0905886 0
M  V30 6600 H 612.932 3.61211 2.17036 0
M  V30 6601 H 611.656 2.3717 2.2454 0
M  V30 6602 H 610.315 3.62855 0.522633 0
M  V30 6603 H 609.963 4.06719 2.95953 0
M  V30 6604 H 609.663 5.52966 1.98752 0
M  V30 6605 H 611.187 5.37004 2.90618 0
M  V30 6606 H 612.601 5.6951 0.658126 0
M  V30 6607 H 610.998 6.00057 -0.0717122 0
M  V30 6608 H 612.068 4.78398 -0.791438 0
M  V30 6609 N 613.412 0.11024 1.57214 0
M  V30 6610 C 614.64 -0.557834 1.99238 0
M  V30 6611 C 615.055 -1.60778 0.989734 0
M  V30 6612 O 614.412 -1.82491 -0.0186092 0
M  V30 6613 C 614.463 -1.19189 3.41286 0
M  V30 6614 O 614.184 -0.183919 4.37714 0
M  V30 6615 C 615.685 -1.94413 3.98395 0
M  V30 6616 H 612.905 -0.148392 0.654386 0
M  V30 6617 H 615.449 0.193996 2.03578 0
M  V30 6618 H 613.604 -1.89456 3.37913 0
M  V30 6619 H 614.018 -0.643475 5.20538 0
M  V30 6620 H 615.492 -2.34116 4.99894 0
M  V30 6621 H 615.969 -2.81592 3.3705 0
M  V30 6622 H 616.575 -1.28928 4.05287 0
M  V30 6623 O 614.929 -1.61473 -0.0293866 0
M  V30 6624 H 615.62 -1.82469 -0.649975 0
M  V30 END ATOM
M  V30 BEGIN BOND
M  V30 END BOND
M  V30 END CTAB
M  END
$$$$
