drugbank_target|P78352 Disks large homolog 4 (DB00536; DB01972)
 OpenBabel12092120543D

  0  0  0     0  0            999 V3000
M  V30 BEGIN CTAB
M  V30 COUNTS 11239 11356 0 0 0
M  V30 BEGIN ATOM
M  V30 1 H -0.908 1.98254 -0.117106 0
M  V30 2 N 0 1.576 0 0
M  V30 3 C 0.933 2.03868 1.02534 0
M  V30 4 C 1.911 0.928543 1.3348 0
M  V30 5 O 3.095 1.19667 1.45644 0
M  V30 6 C 0.222 2.43627 2.35294 0
M  V30 7 C -0.732 3.65373 2.2001 0
M  V30 8 S 0.101 5.13292 1.52614 0
M  V30 9 C 1.257 5.56322 2.86805 0
M  V30 10 H 1.49 2.90518 0.631377 0
M  V30 11 H -0.977 1.52953 0.210867 0
M  V30 12 H 0.981 2.67203 3.11629 0
M  V30 13 H -0.358 1.57376 2.7183 0
M  V30 14 H -1.165 3.90944 3.18086 0
M  V30 15 H -1.563 3.418 1.51819 0
M  V30 16 H 0.729 5.58782 3.83104 0
M  V30 17 H 1.672 6.56266 2.65933 0
M  V30 18 H 2.08 4.83886 2.90714 0
M  V30 19 N 1.4781 -0.272755 1.55222 0
M  V30 20 C 2.7551 -1.02562 1.66555 0
M  V30 21 C 3.1351 -2.04282 0.532189 0
M  V30 22 O 2.4831 -2.23662 -0.467717 0
M  V30 23 C 2.6931 -1.6822 3.05782 0
M  V30 24 C 4.0411 -2.19373 3.63539 0
M  V30 25 O 5.0651 -1.78206 3.08417 0
M  V30 26 O 3.9241 -2.94883 4.60115 0
M  V30 27 H 1.0181 -0.475755 0.676451 0
M  V30 28 H 3.5641 -0.268593 1.67561 0
M  V30 29 H 2.3361 -0.945112 3.79715 0
M  V30 30 H 1.9591 -2.50609 3.08676 0
M  V30 31 N 2.9562 -1.48159 -0.537278 0
M  V30 32 C 4.1962 -1.57397 -1.30405 0
M  V30 33 C 4.5602 -0.239202 -1.90504 0
M  V30 34 O 5.7612 -0.206528 -2.68005 0
M  V30 35 C 4.0322 -2.6754 -2.36974 0
M  V30 36 S 5.5912 -2.96496 -3.23475 0
M  V30 37 H 2.4092 -0.555577 -0.443684 0
M  V30 38 H 5.0112 -1.85644 -0.612912 0
M  V30 39 H 3.7152 -3.63092 -1.91291 0
M  V30 40 H 3.2462 -2.41172 -3.10805 0
M  V30 41 H 5.2612 -2.35234 -4.36897 0
M  V30 42 N 4.4343 0.785586 -1.36625 0
M  V30 43 C 5.3643 1.91259 -1.33949 0
M  V30 44 C 6.3453 1.68795 -0.210325 0
M  V30 45 O 7.5303 1.89854 -0.408561 0
M  V30 46 C 4.6603 3.28339 -1.13186 0
M  V30 47 C 3.6143 3.65335 -2.22967 0
M  V30 48 C 2.9403 5.00806 -1.87342 0
M  V30 49 C 4.2403 3.7352 -3.65075 0
M  V30 50 H 5.9343 1.93755 -2.28253 0
M  V30 51 H 3.4803 0.930788 -1.09874 0
M  V30 52 H 5.4333 4.06804 -1.09948 0
M  V30 53 H 4.1573 3.2624 -0.153332 0
M  V30 54 H 2.8163 2.89169 -2.25337 0
M  V30 55 H 2.4643 4.95233 -0.880545 0
M  V30 56 H 2.1643 5.26529 -2.60846 0
M  V30 57 H 3.6883 5.81687 -1.85667 0
M  V30 58 H 5.1023 4.42168 -3.64911 0
M  V30 59 H 3.4993 4.10731 -4.37516 0
M  V30 60 H 4.5693 2.74527 -3.99703 0
M  V30 61 N 5.9124 1.20967 1.01018 0
M  V30 62 C 7.1524 1.03511 1.76252 0
M  V30 63 C 7.5164 -0.42458 1.87247 0
M  V30 64 O 8.7174 -0.719508 2.58991 0
M  V30 65 C 6.9884 1.70726 3.13986 0
M  V30 66 S 8.5474 1.68458 4.05176 0
M  V30 67 H 5.3654 0.371037 0.606508 0
M  V30 68 H 7.9674 1.53628 1.20908 0
M  V30 69 H 6.6714 2.76128 3.03614 0
M  V30 70 H 6.2024 1.20767 3.74405 0
M  V30 71 H 8.2174 0.721987 4.90919 0
M  V30 72 N 7.3905 -1.2043 1.01659 0
M  V30 73 C 8.6395 -1.89118 0.701237 0
M  V30 74 C 8.9525 -1.79705 -0.772358 0
M  V30 75 O 10.1585 -2.43528 -1.20026 0
M  V30 76 C 8.6145 -3.39168 1.20388 0
M  V30 77 C 8.2225 -3.57166 2.70438 0
M  V30 78 C 9.9665 -4.1341 0.963953 0
M  V30 79 C 7.8735 -5.01042 3.14183 0
M  V30 80 H 6.8035 -0.708267 0.2586 0
M  V30 81 H 9.4545 -1.36239 1.22927 0
M  V30 82 H 7.8365 -3.91369 0.603824 0
M  V30 83 H 9.0105 -3.15351 3.35992 0
M  V30 84 H 7.3255 -2.96294 2.92572 0
M  V30 85 H 9.9225 -5.19491 1.26621 0
M  V30 86 H 10.2655 -4.16181 -0.099578 0
M  V30 87 H 10.7985 -3.67309 1.52738 0
M  V30 88 H 7.5375 -5.03426 4.19812 0
M  V30 89 H 7.0575 -5.43668 2.53348 0
M  V30 90 H 8.7365 -5.69623 3.0682 0
M  V30 91 N 8.8686 -0.792821 -1.36206 0
M  V30 92 C 10.1146 -0.36733 -1.99446 0
M  V30 93 C 10.4476 1.05917 -1.62774 0
M  V30 94 O 9.7226 1.7324 -0.88421 0
M  V30 95 C 10.0056 -0.535044 -3.56103 0
M  V30 96 C 9.8586 -2.00548 -4.02617 0
M  V30 97 C 11.1776 0.0478191 -4.40074 0
M  V30 98 H 8.2966 -0.134941 -0.724541 0
M  V30 99 H 10.9386 -0.999794 -1.61568 0
M  V30 100 H 9.0886 0.00336329 -3.885 0
M  V30 101 H 10.7606 -2.60521 -3.80692 0
M  V30 102 H 9.0036 -2.50686 -3.54032 0
M  V30 103 H 9.6746 -2.07377 -5.11565 0
M  V30 104 H 12.1506 -0.411822 -4.14057 0
M  V30 105 H 11.0266 -0.0995336 -5.4881 0
M  V30 106 H 11.2876 1.14025 -4.27142 0
M  V30 107 N 10.3467 1.47872 -0.545128 0
M  V30 108 C 11.5747 2.06889 -0.021084 0
M  V30 109 C 11.9897 1.39955 1.2672 0
M  V30 110 O 11.3467 0.492036 1.75742 0
M  V30 111 C 11.3977 3.60996 0.190817 0
M  V30 112 O 11.1187 4.25419 -1.04644 0
M  V30 113 C 12.6197 4.36849 0.753521 0
M  V30 114 H 9.8397 0.669785 -0.0403635 0
M  V30 115 H 12.3837 1.90049 -0.755095 0
M  V30 116 H 10.5387 3.77391 0.87492 0
M  V30 117 H 10.9527 5.17785 -0.836611 0
M  V30 118 H 12.4267 5.45399 0.851139 0
M  V30 119 H 12.9037 4.02306 1.762 0
M  V30 120 H 13.5097 4.25169 0.105503 0
M  V30 121 N 11.8248 0.280983 1.55075 0
M  V30 122 C 13.0528 -0.337293 2.04132 0
M  V30 123 C 13.4678 -1.4903 1.15912 0
M  V30 124 O 12.8248 -1.81606 0.180459 0
M  V30 125 C 12.8758 -0.812706 3.52246 0
M  V30 126 O 12.5968 0.294387 4.3711 0
M  V30 127 C 14.0978 -1.4982 4.17216 0
M  V30 128 H 11.3178 -0.0761638 0.666663 0
M  V30 129 H 13.8618 0.414787 2.00249 0
M  V30 130 H 12.0168 -1.51486 3.56554 0
M  V30 131 H 12.4308 -0.0721325 5.2445 0
M  V30 132 H 13.9048 -1.7822 5.22438 0
M  V30 133 H 14.3818 -2.43168 3.65741 0
M  V30 134 H 14.9878 -0.839742 4.16927 0
M  V30 135 N 13.3029 -1.57598 0.00835791 0
M  V30 136 C 14.2499 -2.08945 -0.980346 0
M  V30 137 C 15.2199 -0.986738 -1.33614 0
M  V30 138 O 16.4049 -1.25968 -1.43306 0
M  V30 139 C 13.5449 -2.60425 -2.26435 0
M  V30 140 C 12.6579 -3.84628 -1.96685 0
M  V30 141 C 11.7929 -4.24579 -3.19228 0
M  V30 142 C 10.8319 -5.41596 -2.85202 0
M  V30 143 N 9.9689 -5.768 -4.00307 0
M  V30 144 H 14.8089 -2.93148 -0.535551 0
M  V30 145 H 12.3459 -1.44912 -0.252776 0
M  V30 146 H 14.3039 -2.88354 -3.01509 0
M  V30 147 H 12.9339 -1.79083 -2.68568 0
M  V30 148 H 11.9859 -3.63556 -1.11942 0
M  V30 149 H 13.2979 -4.69796 -1.67611 0
M  V30 150 H 12.4519 -4.53834 -4.02641 0
M  V30 151 H 11.1909 -3.38137 -3.51447 0
M  V30 152 H 10.1959 -5.12056 -2.00198 0
M  V30 153 H 11.4209 -6.29721 -2.54222 0
M  V30 154 H 9.3669 -4.93316 -4.32407 0
M  V30 155 H 9.2839 -6.5656 -3.74786 0
M  V30 156 H 10.5519 -6.10652 -4.84484 0
M  V30 157 N 14.781 0.264519 -1.55364 0
M  V30 158 C 15.728 1.32717 -1.88825 0
M  V30 159 C 16.698 1.48675 -0.740605 0
M  V30 160 O 17.883 1.62945 -0.992657 0
M  V30 161 C 15.023 2.68089 -2.17307 0
M  V30 162 C 14.136 2.60284 -3.44785 0
M  V30 163 C 13.271 3.87892 -3.62924 0
M  V30 164 C 12.31 3.74631 -4.84064 0
M  V30 165 N 11.447 4.94092 -4.98816 0
M  V30 166 H 16.287 1.03481 -2.79456 0
M  V30 167 H 13.824 0.499757 -1.3835 0
M  V30 168 H 15.782 3.46864 -2.31821 0
M  V30 169 H 14.412 2.95509 -1.299 0
M  V30 170 H 13.464 1.73173 -3.38697 0
M  V30 171 H 14.776 2.46388 -4.33698 0
M  V30 172 H 13.93 4.75109 -3.77302 0
M  V30 173 H 12.669 4.04664 -2.7221 0
M  V30 174 H 11.674 2.85797 -4.69681 0
M  V30 175 H 12.899 3.5937 -5.76221 0
M  V30 176 H 10.845 5.11259 -4.11036 0
M  V30 177 H 10.762 4.8276 -5.81789 0
M  V30 178 H 12.03 5.82857 -5.17588 0
M  V30 179 N 16.2591 1.48442 0.529413 0
M  V30 180 C 17.4891 1.59919 1.30804 0
M  V30 181 C 17.8971 0.258792 1.87422 0
M  V30 182 O 17.2401 -0.762096 1.67146 0
M  V30 183 C 17.3021 2.58693 2.49636 0
M  V30 184 C 16.9661 4.03745 2.14101 0
M  V30 185 C 17.9631 4.9141 1.6974 0
M  V30 186 C 15.6481 4.49285 2.24607 0
M  V30 187 C 17.6421 6.22645 1.36351 0
M  V30 188 C 15.3291 5.8054 1.9083 0
M  V30 189 C 16.3271 6.67043 1.46773 0
M  V30 190 O 16.0151 7.95856 1.1344 0
M  V30 191 H 15.7471 0.541981 0.404021 0
M  V30 192 H 18.3011 1.95 0.645309 0
M  V30 193 H 16.5311 2.18734 3.18892 0
M  V30 194 H 18.2201 2.59999 3.11698 0
M  V30 195 H 18.9861 4.57465 1.61094 0
M  V30 196 H 14.8651 3.82142 2.57854 0
M  V30 197 H 18.4091 6.90119 1.01891 0
M  V30 198 H 14.3061 6.14022 1.99117 0
M  V30 199 H 15.0741 8.08613 1.26832 0
M  V30 200 N 17.7372 -0.778329 1.37039 0
M  V30 201 C 19.1532 -1.07796 1.17695 0
M  V30 202 C 19.3532 -2.01498 0.00860115 0
M  V30 203 O 18.4092 -2.43901 -0.653352 0
M  V30 204 C 19.7222 -1.68178 2.49272 0
M  V30 205 C 21.2702 -1.80467 2.55735 0
M  V30 206 C 21.7452 -2.44263 3.87427 0
M  V30 207 N 23.2362 -2.51721 3.88833 0
M  V30 208 C 23.9712 -3.01919 4.87476 0
M  V30 209 N 23.4672 -3.5234 5.96513 0
M  V30 210 N 25.2602 -3.00733 4.74885 0
M  V30 211 H 17.4112 -0.156032 2.11826 0
M  V30 212 H 19.6742 -0.131844 0.938787 0
M  V30 213 H 19.3802 -1.06796 3.35093 0
M  V30 214 H 19.2542 -2.67554 2.65885 0
M  V30 215 H 21.6412 -2.40984 1.70325 0
M  V30 216 H 21.7222 -0.798656 2.43013 0
M  V30 217 H 21.3662 -1.84388 4.73248 0
M  V30 218 H 21.2962 -3.45458 3.9745 0
M  V30 219 H 23.7872 -2.1603 3.10063 0
M  V30 220 H 24.1002 -3.89027 6.67741 0
M  V30 221 H 22.4452 -3.50462 6.00168 0
M  V30 222 H 25.6362 -2.60638 3.88826 0
M  V30 223 H 25.8092 -3.39545 5.51918 0
M  V30 224 N 19.2153 -1.21501 -1.00376 0
M  V30 225 C 20.4453 -1.05746 -1.77486 0
M  V30 226 C 20.8533 0.395655 -1.85017 0
M  V30 227 O 20.1963 1.28626 -1.31152 0
M  V30 228 C 20.2583 -1.58092 -3.22873 0
M  V30 229 C 19.9223 -3.06568 -3.38917 0
M  V30 230 C 20.9193 -4.04106 -3.271 0
M  V30 231 C 18.6043 -3.45799 -3.64319 0
M  V30 232 C 20.5983 -5.38862 -3.40451 0
M  V30 233 C 18.2853 -4.80707 -3.77311 0
M  V30 234 C 19.2833 -5.77047 -3.65384 0
M  V30 235 O 18.9713 -7.09507 -3.77961 0
M  V30 236 H 18.7033 -0.371778 -0.564586 0
M  V30 237 H 21.2573 -1.61319 -1.27143 0
M  V30 238 H 19.4873 -0.969163 -3.74358 0
M  V30 239 H 21.1763 -1.38162 -3.81662 0
M  V30 240 H 21.9423 -3.75141 -3.07399 0
M  V30 241 H 17.8213 -2.71344 -3.72684 0
M  V30 242 H 21.3653 -6.14041 -3.31058 0
M  V30 243 H 17.2623 -5.09357 -3.96517 0
M  V30 244 H 18.0303 -7.16935 -3.94901 0
M  V30 245 N 20.6934 1.19889 -1.02296 0
M  V30 246 C 21.6254 2.22334 -0.556787 0
M  V30 247 C 22.6384 1.58674 0.364199 0
M  V30 248 O 23.8274 1.77768 0.161533 0
M  V30 249 C 20.9274 3.38257 0.208694 0
M  V30 250 C 20.1004 4.31504 -0.71577 0
M  V30 251 C 19.1594 5.262 0.00325597 0
M  V30 252 O 18.1854 5.65798 -0.621357 0
M  V30 253 N 19.3874 5.66303 1.27599 0
M  V30 254 H 22.1524 2.62957 -1.43784 0
M  V30 255 H 19.7134 1.34495 -0.901261 0
M  V30 256 H 21.7054 3.98616 0.699111 0
M  V30 257 H 20.2754 2.96472 0.991102 0
M  V30 258 H 19.4954 3.69016 -1.38638 0
M  V30 259 H 20.7834 4.9072 -1.34428 0
M  V30 260 H 20.1814 5.36155 1.80429 0
M  V30 261 H 18.7384 6.28942 1.71102 0
M  V30 262 N 22.1715 0.800033 1.35784 0
M  V30 263 C 23.4485 0.30088 1.93272 0
M  V30 264 C 23.8285 -1.20857 1.73081 0
M  V30 265 O 23.1765 -2.00502 1.09596 0
M  V30 266 C 23.3865 0.70511 3.41803 0
M  V30 267 C 24.7345 0.690871 4.18942 0
M  V30 268 O 25.7585 0.646244 3.50289 0
M  V30 269 O 24.6175 0.74332 5.41421 0
M  V30 270 H 21.7115 0.0771605 0.823393 0
M  V30 271 H 24.2575 0.88329 1.449 0
M  V30 272 H 23.0295 1.74571 3.50201 0
M  V30 273 H 22.6525 0.0971541 3.97481 0
M  V30 274 N 23.6496 -1.47581 0.552962 0
M  V30 275 C 24.5596 -2.33743 -0.200353 0
M  V30 276 C 25.5756 -1.47928 -0.916151 0
M  V30 277 O 26.7516 -1.80865 -0.885993 0
M  V30 278 C 23.8166 -3.24536 -1.21973 0
M  V30 279 C 22.8776 -4.26238 -0.511819 0
M  V30 280 C 22.1106 -5.12693 -1.48263 0
M  V30 281 O 22.3336 -5.01525 -2.71714 0
M  V30 282 O 21.2676 -5.93375 -1.00945 0
M  V30 283 H 25.0936 -2.9945 0.506304 0
M  V30 284 H 22.6786 -1.46071 0.313622 0
M  V30 285 H 24.5606 -3.80631 -1.80827 0
M  V30 286 H 23.2356 -2.61462 -1.90839 0
M  V30 287 H 22.1426 -3.73914 0.117799 0
M  V30 288 H 23.4756 -4.92014 0.135308 0
M  V30 289 N 25.1277 -0.289203 -1.54924 0
M  V30 290 C 26.4047 0.376032 -1.91951 0
M  V30 291 C 26.7847 1.72622 -1.21511 0
M  V30 292 O 26.1327 2.25853 -0.346767 0
M  V30 293 C 26.3427 0.502378 -3.45365 0
M  V30 294 C 27.6907 0.778741 -4.17398 0
M  V30 295 O 28.7147 0.586647 -3.51336 0
M  V30 296 O 27.5737 1.14698 -5.34328 0
M  V30 297 H 24.6677 0.208167 -0.800372 0
M  V30 298 H 27.2137 -0.336394 -1.66332 0
M  V30 299 H 25.9857 -0.447255 -3.88736 0
M  V30 300 H 25.6087 1.26373 -3.76982 0
M  V30 301 N 26.6058 1.57591 -0.0167156 0
M  V30 302 C 27.8338 1.95575 0.675128 0
M  V30 303 C 28.2488 0.892542 1.6637 0
M  V30 304 O 27.6058 -0.126912 1.82058 0
M  V30 305 C 27.6568 3.33608 1.39239 0
M  V30 306 O 27.3778 4.3585 0.443444 0
M  V30 307 C 28.8788 3.86151 2.17721 0
M  V30 308 H 26.0988 0.644423 0.186978 0
M  V30 309 H 28.6428 2.0437 -0.0728 0
M  V30 310 H 26.7978 3.2607 2.09182 0
M  V30 311 H 27.2118 5.158 0.951358 0
M  V30 312 H 28.6858 4.85114 2.63379 0
M  V30 313 H 29.1628 3.19738 3.01105 0
M  V30 314 H 29.7688 3.96918 1.52761 0
M  V30 315 N 28.0839 -0.256276 1.55502 0
M  V30 316 C 29.4949 -0.826068 1.67431 0
M  V30 317 C 29.8459 -1.86396 0.612446 0
M  V30 318 O 28.9709 -2.15031 -0.243025 0
M  V30 319 C 29.5659 -1.50512 3.03532 0
M  V30 320 C 28.1249 -2.02273 3.17431 0
M  V30 321 C 27.2719 -0.870548 2.63281 0
M  V30 322 H 30.2229 -0.0322728 1.58667 0
M  V30 323 H 30.2439 -2.37279 2.97454 0
M  V30 324 H 29.7559 -0.749484 3.80794 0
M  V30 325 H 27.8569 -2.80746 2.44974 0
M  V30 326 H 27.9699 -2.22655 4.24219 0
M  V30 327 H 26.3339 -1.26851 2.20864 0
M  V30 328 H 27.1169 -0.128149 3.43061 0
M  V30 329 N 29.562 -1.4872 -0.521534 0
M  V30 330 C 30.973 -1.50607 -1.10337 0
M  V30 331 C 31.324 -0.280612 -1.94183 0
M  V30 332 O 30.449 0.611507 -2.0758 0
M  V30 333 C 31.044 -2.72903 -2.00772 0
M  V30 334 C 29.603 -2.77634 -2.54158 0
M  V30 335 C 28.75 -2.44241 -1.31307 0
M  V30 336 H 31.701 -1.55714 -0.306388 0
M  V30 337 H 31.722 -2.519 -2.85178 0
M  V30 338 H 31.234 -3.62077 -1.39721 0
M  V30 339 H 29.335 -1.92689 -3.18907 0
M  V30 340 H 29.448 -3.79283 -2.92714 0
M  V30 341 H 27.812 -1.95577 -1.63161 0
M  V30 342 H 28.595 -3.35666 -0.719943 0
M  V30 343 N 31.0401 0.771051 -1.3745 0
M  V30 344 C 31.9701 1.89827 -1.3597 0
M  V30 345 C 32.9511 1.68562 -0.228216 0
M  V30 346 O 34.1361 1.8941 -0.428675 0
M  V30 347 C 31.2661 3.2712 -1.16662 0
M  V30 348 C 30.2201 3.6295 -2.2683 0
M  V30 349 C 29.5461 4.98791 -1.92644 0
M  V30 350 C 30.8461 3.69627 -3.69017 0
M  V30 351 H 32.5401 1.91323 -2.30295 0
M  V30 352 H 30.0861 0.919082 -1.10855 0
M  V30 353 H 32.0391 4.05615 -1.14256 0
M  V30 354 H 30.7631 3.26059 -0.187926 0
M  V30 355 H 29.4221 2.86763 -2.28392 0
M  V30 356 H 29.0701 4.94271 -0.933021 0
M  V30 357 H 28.7701 5.23733 -2.66416 0
M  V30 358 H 30.2941 5.79685 -1.91826 0
M  V30 359 H 31.7081 4.38273 -3.69581 0
M  V30 360 H 30.1051 4.06067 -4.41848 0
M  V30 361 H 31.1751 2.70273 -4.02592 0
M  V30 362 N 32.5182 1.22032 0.997298 0
M  V30 363 C 33.4282 1.00271 2.12092 0
M  V30 364 C 34.4442 -0.047621 1.73935 0
M  V30 365 O 35.6202 0.144136 2.00884 0
M  V30 366 C 32.6852 0.578449 3.4184 0
M  V30 367 C 31.7462 1.70189 3.94125 0
M  V30 368 C 30.9792 1.29778 5.17681 0
M  V30 369 O 31.2022 0.174676 5.70132 0
M  V30 370 O 30.1362 2.11261 5.63607 0
M  V30 371 H 33.9622 1.94398 2.3333 0
M  V30 372 H 31.5472 1.00587 1.10465 0
M  V30 373 H 33.4292 0.351998 4.19927 0
M  V30 374 H 32.1042 -0.334019 3.21972 0
M  V30 375 H 31.0112 1.98282 3.1723 0
M  V30 376 H 32.3442 2.59206 4.18417 0
M  V30 377 N 33.9963 -1.19345 1.0293 0
M  V30 378 C 34.9463 -2.20472 0.58104 0
M  V30 379 C 35.9303 -1.56578 -0.370442 0
M  V30 380 O 37.1223 -1.75963 -0.191344 0
M  V30 381 C 34.2513 -3.43236 -0.066306 0
M  V30 382 C 33.3373 -4.14274 0.907642 0
M  V30 383 N 33.7283 -4.61492 2.07023 0
M  V30 384 C 32.0263 -4.39966 0.731177 0
M  V30 385 C 32.7273 -5.1605 2.68454 0
M  V30 386 N 31.7033 -5.06875 1.96414 0
M  V30 387 H 35.5053 -2.54659 1.46717 0
M  V30 388 H 33.0193 -1.35423 0.896345 0
M  V30 389 H 35.0163 -4.14927 -0.405068 0
M  V30 390 H 33.6763 -3.10549 -0.948118 0
M  V30 391 H 34.6873 -4.56304 2.44963 0
M  V30 392 H 31.3643 -4.17377 -0.101507 0
M  V30 393 H 32.7543 -5.6287 3.66915 0
M  V30 394 N 35.4744 -0.807222 -1.35358 0
M  V30 395 C 36.6994 -0.399309 -2.0352 0
M  V30 396 C 37.1244 0.981986 -1.60433 0
M  V30 397 O 36.4824 1.63601 -0.781299 0
M  V30 398 C 36.5304 -0.491552 -3.57234 0
M  V30 399 O 35.6344 0.494754 -4.09421 0
M  V30 400 H 34.9754 -0.166682 -0.642739 0
M  V30 401 H 37.5054 -1.09328 -1.72941 0
M  V30 402 H 37.5154 -0.361588 -4.06395 0
M  V30 403 H 36.1904 -1.49907 -3.87944 0
M  V30 404 H 34.7674 0.324977 -3.71481 0
M  V30 405 N 36.9525 1.47285 -0.560781 0
M  V30 406 C 38.3635 1.86258 -0.128343 0
M  V30 407 C 38.7145 1.46699 1.30284 0
M  V30 408 O 37.8395 0.871698 1.98067 0
M  V30 409 C 38.4345 3.38044 -0.22614 0
M  V30 410 C 36.9935 3.76096 0.151283 0
M  V30 411 C 36.1405 2.71335 -0.572084 0
M  V30 412 H 39.0915 1.38752 -0.770297 0
M  V30 413 H 39.1125 3.76441 0.554322 0
M  V30 414 H 38.6245 3.66806 -1.26788 0
M  V30 415 H 36.7255 3.52951 1.19399 0
M  V30 416 H 36.8385 4.78641 -0.209765 0
M  V30 417 H 35.2025 2.54696 -0.0147653 0
M  V30 418 H 35.9855 3.02938 -1.61504 0
M  V30 419 N 38.4306 0.297415 1.54768 0
M  V30 420 C 39.3936 -0.567375 2.22066 0
M  V30 421 C 40.3936 -1.06409 1.20556 0
M  V30 422 O 41.5836 -0.960691 1.45315 0
M  V30 423 C 38.7156 -1.78517 2.90421 0
M  V30 424 H 39.9086 0.0205534 2.99893 0
M  V30 425 H 37.4616 0.0482163 1.56226 0
M  V30 426 H 38.1966 -2.41303 2.16664 0
M  V30 427 H 37.9816 -1.43669 3.64831 0
M  V30 428 H 39.4716 -2.39964 3.41771 0
M  V30 429 N 39.9087 -1.5758 0.0250728 0
M  V30 430 C 40.8587 -2.06468 -0.967201 0
M  V30 431 C 41.8427 -0.964376 -1.28797 0
M  V30 432 O 43.0347 -1.22797 -1.27475 0
M  V30 433 C 40.1637 -2.59203 -2.25097 0
M  V30 434 C 39.2497 -3.76157 -1.95874 0
M  V30 435 N 39.6407 -4.86919 -1.36905 0
M  V30 436 C 37.9387 -3.84566 -2.25887 0
M  V30 437 C 38.6397 -5.68172 -1.24724 0
M  V30 438 N 37.6157 -5.14953 -1.74138 0
M  V30 439 H 41.4177 -2.89508 -0.506176 0
M  V30 440 H 38.9317 -1.61399 -0.18004 0
M  V30 441 H 40.9287 -2.92517 -2.97052 0
M  V30 442 H 39.5887 -1.77592 -2.71829 0
M  V30 443 H 40.5997 -5.07256 -1.04459 0
M  V30 444 H 37.2767 -3.13854 -2.75321 0
M  V30 445 H 38.6667 -6.67221 -0.791605 0
M  V30 446 N 41.3868 0.248026 -1.55636 0
M  V30 447 C 42.3168 1.31079 -1.93237 0
M  V30 448 C 43.2978 1.50264 -0.797174 0
M  V30 449 O 44.4828 1.62891 -1.05737 0
M  V30 450 C 41.6128 2.66575 -2.22609 0
M  V30 451 C 40.5668 2.62087 -3.3837 0
M  V30 452 C 39.8928 4.01369 -3.53281 0
M  V30 453 C 41.1928 2.19171 -4.7409 0
M  V30 454 H 42.8868 0.998556 -2.82257 0
M  V30 455 H 40.4328 0.47891 -1.35803 0
M  V30 456 H 42.3858 3.41057 -2.47503 0
M  V30 457 H 41.1098 2.99432 -1.30414 0
M  V30 458 H 39.7688 1.90063 -3.13483 0
M  V30 459 H 39.4168 4.31489 -2.58508 0
M  V30 460 H 39.1168 3.99254 -4.31127 0
M  V30 461 H 40.6408 4.77552 -3.80495 0
M  V30 462 H 42.0548 2.83384 -4.98363 0
M  V30 463 H 40.4518 2.2817 -5.5503 0
M  V30 464 H 41.5218 1.14336 -4.71227 0
M  V30 465 N 42.8649 1.48995 0.513639 0
M  V30 466 C 44.2759 1.5119 1.09537 0
M  V30 467 C 44.6269 0.290906 1.94031 0
M  V30 468 O 43.7519 -0.60049 2.07902 0
M  V30 469 C 44.3469 2.73964 1.99322 0
M  V30 470 C 42.9059 2.78978 2.52682 0
M  V30 471 C 42.0529 2.44934 1.30009 0
M  V30 472 H 45.0039 1.55875 0.298125 0
M  V30 473 H 45.0249 2.53409 2.83838 0
M  V30 474 H 44.5369 3.62813 1.37799 0
M  V30 475 H 42.6379 1.94378 3.1788 0
M  V30 476 H 42.7509 3.8083 2.90698 0
M  V30 477 H 41.1149 1.9644 1.62122 0
M  V30 478 H 41.8979 3.36043 0.702131 0
M  V30 479 N 44.343 -0.763751 1.37857 0
M  V30 480 C 45.291 -1.89864 1.34367 0
M  V30 481 C 46.285 -1.67816 0.231143 0
M  V30 482 O 47.491 -1.75508 0.399617 0
M  V30 483 H 43.866 -0.624501 0.41893 0
M  V30 484 H 45.837 -1.89925 2.30155 0
M  V30 485 C 44.586 -3.27227 1.1755 0
M  V30 486 H 43.909 -3.44773 2.02414 0
M  V30 487 H 45.349 -4.06911 1.1916 0
M  V30 488 C 43.808 -3.36692 -0.118311 0
M  V30 489 O 44.338 -3.86374 -1.09902 0
M  V30 490 N 42.544 -2.90092 -0.171717 0
M  V30 491 H 42.091 -2.49853 0.627012 0
M  V30 492 H 42.049 -2.96806 -1.03699 0
M  V30 493 N 45.8211 -1.22559 -0.990812 0
M  V30 494 C 46.7531 -0.955325 -2.08342 0
M  V30 495 C 47.7661 0.0668408 -1.62663 0
M  V30 496 O 48.9551 -0.167421 -1.77713 0
M  V30 497 C 46.0551 -0.415566 -3.36342 0
M  V30 498 C 45.2281 -1.49544 -4.11042 0
M  V30 499 C 44.2871 -0.962399 -5.17324 0
M  V30 500 O 43.3131 -1.64907 -5.44788 0
M  V30 501 N 44.5151 0.215134 -5.80101 0
M  V30 502 H 47.2801 -1.89596 -2.32106 0
M  V30 503 H 44.8411 -1.13276 -1.15673 0
M  V30 504 H 46.8331 -0.0442386 -4.04676 0
M  V30 505 H 45.4031 0.430232 -3.09625 0
M  V30 506 H 44.6231 -2.04 -3.37309 0
M  V30 507 H 45.9111 -2.22195 -4.57719 0
M  V30 508 H 45.3091 0.789779 -5.6016 0
M  V30 509 H 43.8661 0.527826 -6.49659 0
M  V30 510 N 47.2992 1.18797 -1.03562 0
M  V30 511 C 48.2622 2.20464 -0.626769 0
M  V30 512 C 49.2622 1.57721 0.313173 0
M  V30 513 O 50.4522 1.73917 0.0992615 0
M  V30 514 C 47.5842 3.40802 0.0818498 0
M  V30 515 H 48.7772 2.58149 -1.5264 0
M  V30 516 H 46.3302 1.32593 -0.827578 0
M  V30 517 H 47.0652 3.08642 0.995518 0
M  V30 518 H 46.8502 3.8758 -0.593652 0
M  V30 519 H 48.3402 4.16092 0.354584 0
M  V30 520 N 48.7773 0.814389 1.34928 0
M  V30 521 C 49.7253 0.218424 2.31572 0
M  V30 522 C 50.7193 -0.636128 1.57002 0
M  V30 523 O 51.9253 -0.52842 1.72069 0
M  V30 524 H 48.3003 0.0518799 0.750208 0
M  V30 525 H 50.2713 1.04852 2.79372 0
M  V30 526 C 49.0203 -0.61207 3.4227 0
M  V30 527 H 48.3433 0.0361578 3.99784 0
M  V30 528 H 49.7833 -0.995317 4.12152 0
M  V30 529 C 48.2423 -1.78087 2.85984 0
M  V30 530 O 48.7723 -2.8787 2.80168 0
M  V30 531 N 46.9783 -1.59488 2.42924 0
M  V30 532 H 46.5253 -0.701874 2.47854 0
M  V30 533 H 46.4833 -2.37846 2.05613 0
M  V30 534 N 50.2554 -1.46986 0.568584 0
M  V30 535 C 51.4804 -2.07335 0.0520528 0
M  V30 536 C 51.9054 -1.41675 -1.23733 0
M  V30 537 O 51.2634 -0.495623 -1.74394 0
M  V30 538 C 51.3114 -3.60417 -0.11501 0
M  V30 539 O 50.4154 -3.95309 -1.17492 0
M  V30 540 H 49.7564 -0.661597 0.0564385 0
M  V30 541 H 52.2864 -1.88837 0.787507 0
M  V30 542 H 52.2964 -4.06698 -0.325644 0
M  V30 543 H 50.9714 -4.07601 0.826675 0
M  V30 544 H 49.5484 -3.60757 -0.943869 0
M  V30 545 N 51.7335 -0.305618 -1.54608 0
M  V30 546 C 53.1445 0.186098 -1.8577 0
M  V30 547 C 53.4955 1.53058 -1.22751 0
M  V30 548 O 52.6205 2.09888 -0.526893 0
M  V30 549 C 53.2155 0.344449 -3.37044 0
M  V30 550 C 51.7745 0.780384 -3.68221 0
M  V30 551 C 50.9215 -0.108554 -2.77087 0
M  V30 552 H 53.8725 -0.526485 -1.49712 0
M  V30 553 H 53.8935 1.17828 -3.61796 0
M  V30 554 H 53.4055 -0.634235 -3.82883 0
M  V30 555 H 51.5065 1.76945 -3.27904 0
M  V30 556 H 51.6195 0.596572 -4.75371 0
M  V30 557 H 49.9835 0.412931 -2.5133 0
M  V30 558 H 50.7665 -1.08368 -3.25747 0
M  V30 559 N 53.2116 1.57565 -0.0334293 0
M  V30 560 C 54.6226 1.79746 0.504798 0
M  V30 561 C 54.9736 0.944091 1.71992 0
M  V30 562 O 54.0986 0.155694 2.15839 0
M  V30 563 C 54.6936 3.25997 0.922567 0
M  V30 564 C 53.2526 3.49159 1.40588 0
M  V30 565 C 52.3996 2.74785 0.372633 0
M  V30 566 H 55.3506 1.56565 -0.259436 0
M  V30 567 H 55.3716 3.35945 1.78666 0
M  V30 568 H 54.8836 3.88081 0.0379825 0
M  V30 569 H 52.9846 2.92332 2.31025 0
M  V30 570 H 53.0976 4.57873 1.41028 0
M  V30 571 H 51.4616 2.40391 0.841672 0
M  V30 572 H 52.2446 3.39587 -0.503559 0
M  V30 573 N 54.6897 -0.239769 1.55765 0
M  V30 574 C 55.9357 -0.968234 1.78194 0
M  V30 575 C 56.2687 -1.84701 0.599938 0
M  V30 576 O 55.5437 -1.9031 -0.401524 0
M  V30 577 C 55.8267 -1.8227 3.10564 0
M  V30 578 C 55.6797 -0.971633 4.3918 0
M  V30 579 C 56.9987 -2.80388 3.39221 0
M  V30 580 H 54.1177 -0.350572 0.648281 0
M  V30 581 H 56.7597 -0.238259 1.885 0
M  V30 582 H 54.9097 -2.44507 3.01908 0
M  V30 583 H 56.5817 -0.367408 4.59835 0
M  V30 584 H 54.8247 -0.276276 4.32919 0
M  V30 585 H 55.4957 -1.60346 5.28198 0
M  V30 586 H 57.9717 -2.28287 3.47885 0
M  V30 587 H 56.8477 -3.3729 4.33044 0
M  V30 588 H 57.1087 -3.57212 2.60484 0
M  V30 589 N 56.1678 -1.49265 -0.50573 0
M  V30 590 C 57.4168 -1.57761 -1.25675 0
M  V30 591 C 57.7298 -0.267371 -1.93764 0
M  V30 592 O 58.9358 -0.230827 -2.70517 0
M  V30 593 C 57.3918 -2.78332 -2.28165 0
M  V30 594 C 56.9998 -4.16096 -1.66037 0
M  V30 595 C 58.7438 -2.96155 -3.04125 0
M  V30 596 C 56.6508 -5.27895 -2.6661 0
M  V30 597 H 55.5808 -0.587391 -0.472745 0
M  V30 598 H 58.2318 -1.75644 -0.53118 0
M  V30 599 H 56.6138 -2.53934 -3.03865 0
M  V30 600 H 57.7878 -4.50612 -0.963622 0
M  V30 601 H 56.1028 -4.03591 -1.02484 0
M  V30 602 H 58.6998 -3.76849 -3.79327 0
M  V30 603 H 59.0428 -2.06534 -3.61455 0
M  V30 604 H 59.5758 -3.2057 -2.35541 0
M  V30 605 H 56.3148 -6.1956 -2.14068 0
M  V30 606 H 55.8348 -4.97839 -3.34539 0
M  V30 607 H 57.5138 -5.57031 -3.29129 0
M  V30 608 N 57.6459 0.756429 -1.3826 0
M  V30 609 C 58.8919 1.51772 -1.34511 0
M  V30 610 C 59.2249 1.94089 0.0656691 0
M  V30 611 O 58.4999 1.65221 1.02626 0
M  V30 612 C 58.7829 2.77226 -2.29821 0
M  V30 613 C 58.6359 2.41065 -3.79747 0
M  V30 614 C 59.9549 3.79236 -2.23312 0
M  V30 615 H 57.0739 0.550578 -0.489931 0
M  V30 616 H 59.7159 0.866607 -1.69086 0
M  V30 617 H 57.8659 3.32784 -2.00467 0
M  V30 618 H 59.5379 1.91303 -4.19763 0
M  V30 619 H 57.7809 1.7356 -3.97567 0
M  V30 620 H 58.4519 3.3081 -4.41892 0
M  V30 621 H 60.9279 3.3321 -2.49219 0
M  V30 622 H 59.8039 4.64714 -2.92116 0
M  V30 623 H 60.0649 4.24615 -1.23102 0
M  V30 624 N 59.124 1.23083 0.984299 0
M  V30 625 C 60.072 1.00593 2.09723 0
M  V30 626 C 61.066 -0.0538014 1.69315 0
M  V30 627 O 62.272 0.0993719 1.79725 0
M  V30 628 H 58.647 0.30817 0.685956 0
M  V30 629 H 60.618 1.95012 2.2586 0
M  V30 630 C 59.367 0.609601 3.42314 0
M  V30 631 H 58.69 1.41675 3.73856 0
M  V30 632 H 60.13 0.491726 4.21139 0
M  V30 633 C 58.589 -0.681745 3.2993 0
M  V30 634 O 59.119 -1.73192 3.62446 0
M  V30 635 N 57.325 -0.656178 2.83095 0
M  V30 636 H 56.872 0.198759 2.56832 0
M  V30 637 H 56.83 -1.52044 2.75191 0
M  V30 638 N 60.6021 -1.18246 1.0419 0
M  V30 639 C 61.8301 -1.92195 0.766072 0
M  V30 640 C 62.2451 -1.76247 -0.676933 0
M  V30 641 O 61.6021 -1.09293 -1.46155 0
M  V30 642 C 61.6531 -3.43568 1.12442 0
M  V30 643 O 61.3741 -3.59015 2.51078 0
M  V30 644 C 62.8751 -4.34613 0.873275 0
M  V30 645 H 60.0951 -0.610114 0.279288 0
M  V30 646 H 62.6391 -1.50007 1.38989 0
M  V30 647 H 60.7941 -3.8354 0.545542 0
M  V30 648 H 61.2081 -4.5273 2.64831 0
M  V30 649 H 62.6821 -5.39374 1.17385 0
M  V30 650 H 63.1591 -4.38781 -0.191909 0
M  V30 651 H 63.7651 -4.00341 1.43551 0
M  V30 652 N 62.0802 -0.821533 -1.34494 0
M  V30 653 C 63.3572 -0.33159 -1.92769 0
M  V30 654 C 63.7372 1.18088 -1.74981 0
M  V30 655 O 63.0852 1.98733 -1.12772 0
M  V30 656 C 63.2952 -0.759398 -3.40638 0
M  V30 657 C 64.6432 -0.757433 -4.1779 0
M  V30 658 O 65.6672 -0.70189 -3.49216 0
M  V30 659 O 64.5262 -0.829361 -5.4017 0
M  V30 660 H 61.6202 -0.0902502 -0.822061 0
M  V30 661 H 64.1662 -0.906231 -1.43477 0
M  V30 662 H 62.9382 -1.8012 -3.47379 0
M  V30 663 H 62.5612 -0.160378 -3.97276 0
M  V30 664 N 63.5583 1.46682 -0.576371 0
M  V30 665 C 64.7863 2.06798 -0.0649635 0
M  V30 666 C 65.2013 1.42612 1.23723 0
M  V30 667 O 64.5583 0.529203 1.74659 0
M  V30 668 C 64.6093 3.6132 0.114202 0
M  V30 669 O 64.3303 4.23104 -1.13644 0
M  V30 670 C 65.8313 4.38349 0.66069 0
M  V30 671 H 63.0513 0.668778 -0.0545616 0
M  V30 672 H 65.5953 1.88404 -0.795237 0
M  V30 673 H 63.7503 3.79162 0.794673 0
M  V30 674 H 64.1643 5.15894 -0.946253 0
M  V30 675 H 65.6383 5.47081 0.73526 0
M  V30 676 H 66.1153 4.05953 1.67627 0
M  V30 677 H 66.7213 4.25297 0.0152951 0
M  V30 678 N 65.0364 0.313813 1.54444 0
M  V30 679 C 65.9664 -0.549454 2.26943 0
M  V30 680 C 66.9474 -1.12741 1.27372 0
M  V30 681 O 68.1324 -1.15436 1.56167 0
M  V30 682 C 65.2624 -1.71523 3.01989 0
M  V30 683 C 64.2164 -1.26703 4.08816 0
M  V30 684 C 63.5424 -2.51898 4.71647 0
M  V30 685 C 64.8424 -0.388962 5.2085 0
M  V30 686 H 66.5364 0.0552661 2.99349 0
M  V30 687 H 64.0824 0.0280207 1.43973 0
M  V30 688 H 66.0354 -2.32535 3.51433 0
M  V30 689 H 64.7594 -2.34639 2.27183 0
M  V30 690 H 63.4184 -0.679896 3.6024 0
M  V30 691 H 63.0664 -3.13356 3.93468 0
M  V30 692 H 62.7664 -2.22605 5.43802 0
M  V30 693 H 64.2904 -3.1369 5.23861 0
M  V30 694 H 65.7044 -0.905107 5.6611 0
M  V30 695 H 64.1014 -0.18924 5.99802 0
M  V30 696 H 65.1714 0.582699 4.81386 0
M  V30 697 N 66.5145 -1.57545 0.0417849 0
M  V30 698 C 67.4245 -2.14451 -0.951213 0
M  V30 699 C 68.4405 -1.09992 -1.34825 0
M  V30 700 O 69.6165 -1.42114 -1.42708 0
M  V30 701 C 66.6815 -2.67063 -2.21084 0
M  V30 702 C 65.7425 -3.86284 -1.87304 0
M  V30 703 C 64.9755 -4.36378 -3.07261 0
M  V30 704 O 65.1985 -3.85587 -4.20332 0
M  V30 705 O 64.1325 -5.28077 -2.88822 0
M  V30 706 H 67.9585 -2.99601 -0.497287 0
M  V30 707 H 65.5435 -1.48317 -0.179567 0
M  V30 708 H 67.4255 -3.00914 -2.95006 0
M  V30 709 H 66.1005 -1.84989 -2.65633 0
M  V30 710 H 65.0075 -3.57338 -1.10727 0
M  V30 711 H 66.3405 -4.6956 -1.47562 0
M  V30 712 N 67.9926 0.231505 -1.5589 0
M  V30 713 C 68.9556 1.27028 -1.90779 0
M  V30 714 C 69.9556 1.40308 -0.785507 0
M  V30 715 O 71.1456 1.38744 -1.05336 0
M  V30 716 C 68.2776 2.64566 -2.14983 0
M  V30 717 H 69.4706 0.973017 -2.83677 0
M  V30 718 H 67.0236 0.471486 -1.49019 0
M  V30 719 H 67.7586 2.99406 -1.24604 0
M  V30 720 H 67.5436 2.56305 -2.96732 0
M  V30 721 H 69.0336 3.39543 -2.43105 0
M  V30 722 N 69.4707 1.49531 0.497807 0
M  V30 723 C 70.8817 1.52344 1.07927 0
M  V30 724 C 71.2327 0.311469 1.93712 0
M  V30 725 O 70.3577 -0.578405 2.08527 0
M  V30 726 C 70.9527 2.76062 1.96405 0
M  V30 727 C 69.5117 2.81643 2.49709 0
M  V30 728 C 68.6587 2.46299 1.27404 0
M  V30 729 H 71.6097 1.56182 0.281576 0
M  V30 730 H 71.6307 2.56405 2.81135 0
M  V30 731 H 71.1427 3.64254 1.33943 0
M  V30 732 H 69.2437 1.97739 3.15801 0
M  V30 733 H 69.3567 3.83891 2.86643 0
M  V30 734 H 67.7207 1.98148 1.60029 0
M  V30 735 H 68.5037 3.36769 0.66645 0
M  V30 736 N 70.9488 -0.749086 1.3866 0
M  V30 737 C 72.1968 -1.50535 1.34847 0
M  V30 738 C 72.5178 -1.94909 -0.0595016 0
M  V30 739 O 71.7878 -1.67973 -1.00806 0
M  V30 740 H 70.3678 -0.558395 0.49619 0
M  V30 741 H 73.0298 -0.890165 1.73384 0
M  V30 742 H 72.1258 -2.39413 2.00219 0
M  V30 743 N 72.4269 -1.23603 -0.977757 0
M  V30 744 C 73.6569 -1.09487 -1.75203 0
M  V30 745 C 74.0649 0.356321 -1.85814 0
M  V30 746 O 73.4079 1.25816 -1.33851 0
M  V30 747 C 73.4699 -1.64905 -3.19447 0
M  V30 748 C 73.1339 -3.13688 -3.32338 0
M  V30 749 C 74.1309 -4.10953 -3.18455 0
M  V30 750 C 71.8159 -3.53449 -3.56902 0
M  V30 751 C 73.8099 -5.45962 -3.28944 0
M  V30 752 C 71.4969 -4.88602 -3.6703 0
M  V30 753 C 72.4949 -5.84668 -3.53062 0
M  V30 754 O 72.1829 -7.17365 -3.62826 0
M  V30 755 H 71.9149 -0.38367 -0.556573 0
M  V30 756 H 74.4689 -1.6398 -1.23693 0
M  V30 757 H 72.6989 -1.04835 -3.72218 0
M  V30 758 H 74.3879 -1.46226 -3.78646 0
M  V30 759 H 75.1539 -3.81577 -2.99372 0
M  V30 760 H 71.0329 -2.79188 -3.66844 0
M  V30 761 H 74.5769 -6.20925 -3.17958 0
M  V30 762 H 70.4739 -5.17653 -3.85623 0
M  V30 763 H 71.2419 -7.2515 -3.79605 0
M  V30 764 N 73.905 1.17692 -1.04816 0
M  V30 765 C 74.815 2.25229 -0.65643 0
M  V30 766 C 75.831 1.71018 0.320761 0
M  V30 767 O 77.007 2.00649 0.173805 0
M  V30 768 C 74.072 3.46684 -0.0332629 0
M  V30 769 C 73.133 4.15997 -1.06042 0
M  V30 770 C 72.366 5.31654 -0.466893 0
M  V30 771 O 72.589 5.65777 0.724758 0
M  V30 772 O 71.523 5.89831 -1.1993 0
M  V30 773 H 75.349 2.61016 -1.55255 0
M  V30 774 H 72.934 1.24919 -0.81949 0
M  V30 775 H 74.816 4.20234 0.313256 0
M  V30 776 H 73.491 3.12703 0.836566 0
M  V30 777 H 72.398 3.44482 -1.45886 0
M  V30 778 H 73.731 4.53996 -1.90127 0
M  V30 779 N 75.3831 0.828654 1.34056 0
M  V30 780 C 76.3131 0.269443 2.3194 0
M  V30 781 C 77.2941 -0.617247 1.58506 0
M  V30 782 O 78.4791 -0.542931 1.86456 0
M  V30 783 C 75.6091 -0.564793 3.42677 0
M  V30 784 C 74.5631 0.225241 4.27407 0
M  V30 785 C 73.8891 -0.7321 5.29664 0
M  V30 786 C 75.1891 1.43663 5.02154 0
M  V30 787 H 76.8831 1.08728 2.7896 0
M  V30 788 H 74.4291 0.524283 1.34117 0
M  V30 789 H 76.3821 -0.966233 4.10173 0
M  V30 790 H 75.1061 -1.41574 2.9432 0
M  V30 791 H 73.7651 0.608117 3.61521 0
M  V30 792 H 73.4131 -1.57916 4.77568 0
M  V30 793 H 73.1131 -0.20767 5.87233 0
M  V30 794 H 74.6371 -1.13128 6.00029 0
M  V30 795 H 76.0511 1.1089 5.62473 0
M  V30 796 H 74.4481 1.89711 5.69324 0
M  V30 797 H 75.5181 2.21181 4.31517 0
M  V30 798 N 76.8612 -1.46375 0.584142 0
M  V30 799 C 77.7932 -2.28443 -0.186119 0
M  V30 800 C 78.8062 -1.38596 -0.854115 0
M  V30 801 O 79.9952 -1.63183 -0.723438 0
M  V30 802 C 77.0952 -3.13671 -1.28311 0
M  V30 803 C 76.2682 -4.31652 -0.706758 0
M  V30 804 C 75.3272 -4.98267 -1.69163 0
M  V30 805 O 74.3532 -5.55815 -1.22712 0
M  V30 806 N 75.5552 -4.95408 -3.02575 0
M  V30 807 H 78.3202 -2.9519 0.517986 0
M  V30 808 H 75.8812 -1.56303 0.42201 0
M  V30 809 H 77.8732 -3.55101 -1.94128 0
M  V30 810 H 76.4432 -2.48989 -1.89005 0
M  V30 811 H 75.6632 -3.93989 0.128908 0
M  V30 812 H 76.9512 -5.07906 -0.301506 0
M  V30 813 H 76.3492 -4.49902 -3.42936 0
M  V30 814 H 74.9062 -5.40774 -3.63877 0
M  V30 815 N 78.3393 -0.321999 -1.54275 0
M  V30 816 C 79.5853 0.281461 -2.00837 0
M  V30 817 C 79.9183 1.51909 -1.20985 0
M  V30 818 O 79.1933 1.923 -0.291733 0
M  V30 819 C 79.4763 0.617162 -3.54772 0
M  V30 820 C 79.3293 -0.631064 -4.45351 0
M  V30 821 C 80.6483 1.43542 -4.16033 0
M  V30 822 H 77.7673 0.100826 -0.730071 0
M  V30 823 H 80.4093 -0.438268 -1.84876 0
M  V30 824 H 78.5593 1.23034 -3.68504 0
M  V30 825 H 80.2313 -1.26934 -4.43492 0
M  V30 826 H 78.4743 -1.26025 -4.15091 0
M  V30 827 H 79.1453 -0.351735 -5.50878 0
M  V30 828 H 81.6213 0.917134 -4.05867 0
M  V30 829 H 80.4973 1.63907 -5.23856 0
M  V30 830 H 80.7583 2.43108 -3.69257 0
M  V30 831 N 79.8174 1.5752 -0.0501392 0
M  V30 832 C 80.7654 2.12651 0.942459 0
M  V30 833 C 81.7594 1.05807 1.32292 0
M  V30 834 O 82.9654 1.24217 1.3027 0
M  V30 835 H 79.3404 0.679673 0.321789 0
M  V30 836 H 81.3114 2.94951 0.452356 0
M  V30 837 C 80.0604 2.68565 2.20836 0
M  V30 838 H 79.3834 3.50439 1.92439 0
M  V30 839 H 80.8234 3.10761 2.8845 0
M  V30 840 C 79.2824 1.62291 2.95234 0
M  V30 841 O 79.8124 1.03508 3.88135 0
M  V30 842 N 78.0184 1.33836 2.57946 0
M  V30 843 H 77.5654 1.81826 1.82475 0
M  V30 844 H 77.5234 0.629595 3.08032 0
M  V30 845 N 81.2955 -0.223234 1.56011 0
M  V30 846 C 82.5435 -0.946003 1.78592 0
M  V30 847 C 82.8645 -1.84936 0.618349 0
M  V30 848 O 82.1345 -1.92473 -0.364833 0
M  V30 849 H 80.7145 -0.352298 0.658707 0
M  V30 850 H 83.3765 -0.235494 1.93472 0
M  V30 851 H 82.4725 -1.55381 2.70672 0
M  V30 852 N 82.7736 -1.49793 -0.48987 0
M  V30 853 C 84.0016 -1.63568 -1.26701 0
M  V30 854 C 84.4166 -0.311465 -1.86213 0
M  V30 855 O 83.7736 0.704416 -1.68357 0
M  V30 856 C 83.8246 -2.71284 -2.38929 0
M  V30 857 O 83.5456 -3.9857 -1.81861 0
M  V30 858 C 85.0466 -2.95864 -3.3012 0
M  V30 859 H 82.2666 -0.550342 -0.383881 0
M  V30 860 H 84.8106 -1.95898 -0.586864 0
M  V30 861 H 82.9656 -2.417 -3.02753 0
M  V30 862 H 83.3796 -4.57993 -2.55622 0
M  V30 863 H 84.8536 -3.74941 -4.05121 0
M  V30 864 H 85.3306 -2.06206 -3.87783 0
M  V30 865 H 85.9366 -3.26907 -2.72051 0
M  V30 866 N 84.2517 0.741722 -1.39055 0
M  V30 867 C 85.1617 1.88621 -1.39496 0
M  V30 868 C 86.1777 1.71557 -0.290578 0
M  V30 869 O 87.3537 1.94275 -0.530954 0
M  V30 870 C 84.4187 3.24134 -1.23037 0
M  V30 871 C 83.4797 3.5364 -2.43387 0
M  V30 872 C 82.7127 4.82687 -2.27703 0
M  V30 873 O 82.9357 5.55922 -1.27696 0
M  V30 874 O 81.8697 5.1194 -3.16545 0
M  V30 875 H 85.6957 1.91203 -2.35956 0
M  V30 876 H 83.2807 0.888625 -1.20099 0
M  V30 877 H 85.1627 4.0513 -1.15964 0
M  V30 878 H 83.8377 3.22337 -0.296691 0
M  V30 879 H 82.7447 2.72758 -2.56035 0
M  V30 880 H 84.0777 3.60209 -3.35425 0
M  V30 881 N 85.7298 1.2412 0.971189 0
M  V30 882 C 86.9778 1.07668 1.71032 0
M  V30 883 C 87.2988 -0.385797 1.91146 0
M  V30 884 O 86.5688 -1.27569 1.4867 0
M  V30 885 H 85.1488 0.395429 0.633755 0
M  V30 886 H 87.8108 1.55984 1.16855 0
M  V30 887 H 86.9068 1.57195 2.69622 0
M  V30 888 N 87.2079 -1.17134 1.05439 0
M  V30 889 C 88.1179 -2.24878 0.668365 0
M  V30 890 C 89.1339 -1.71186 -0.311687 0
M  V30 891 O 90.3099 -2.00738 -0.163161 0
M  V30 892 C 87.3749 -3.46662 0.051648 0
M  V30 893 C 86.4359 -4.15429 1.08246 0
M  V30 894 C 85.6689 -5.31399 0.495082 0
M  V30 895 O 85.8919 -5.66153 -0.694743 0
M  V30 896 O 84.8259 -5.89187 1.23056 0
M  V30 897 H 88.6519 -2.60189 1.56637 0
M  V30 898 H 86.2369 -1.24482 0.826104 0
M  V30 899 H 88.1189 -4.20394 -0.290966 0
M  V30 900 H 86.7939 -3.13142 -0.819971 0
M  V30 901 H 85.7009 -3.43704 1.47711 0
M  V30 902 H 87.0339 -4.52982 1.92532 0
M  V30 903 N 88.686 -0.835752 -1.33615 0
M  V30 904 C 89.619 -0.211815 -2.27215 0
M  V30 905 C 90.597 0.639249 -1.49507 0
M  V30 906 O 91.781 0.600193 -1.78689 0
M  V30 907 C 88.908 0.702893 -3.31326 0
M  V30 908 C 87.954 -0.0723049 -4.26439 0
M  V30 909 S 88.787 -1.42811 -5.16106 0
M  V30 910 C 89.943 -0.518613 -6.23748 0
M  V30 911 H 90.176 -1.00533 -2.79786 0
M  V30 912 H 87.709 -0.632336 -1.40858 0
M  V30 913 H 89.667 1.22505 -3.91794 0
M  V30 914 H 88.328 1.47004 -2.77576 0
M  V30 915 H 87.521 0.62359 -5.00127 0
M  V30 916 H 87.123 -0.525424 -3.70291 0
M  V30 917 H 89.415 0.284778 -6.76901 0
M  V30 918 H 90.358 -1.22556 -6.97413 0
M  V30 919 H 90.766 -0.101344 -5.64409 0
M  V30 920 N 90.1641 1.46063 -0.591896 0
M  V30 921 C 91.0741 2.34192 0.13831 0
M  V30 922 C 92.0901 1.50305 0.876608 0
M  V30 923 O 93.2661 1.8315 0.837728 0
M  V30 924 C 90.3311 3.27656 1.13326 0
M  V30 925 C 89.3921 4.27445 0.39863 0
M  V30 926 C 88.6251 5.16443 1.34618 0
M  V30 927 O 88.8481 5.08553 2.58321 0
M  V30 928 O 87.7821 5.95843 0.851768 0
M  V30 929 H 91.6081 2.98002 -0.58552 0
M  V30 930 H 89.1931 1.45188 -0.352239 0
M  V30 931 H 91.0751 3.85291 1.70671 0
M  V30 932 H 89.7501 2.6643 1.83839 0
M  V30 933 H 88.6571 3.73471 -0.216895 0
M  V30 934 H 89.9901 4.91482 -0.265709 0
M  V30 935 N 91.6422 0.330177 1.54103 0
M  V30 936 C 92.8722 -0.271784 2.04805 0
M  V30 937 C 93.2802 -1.45816 1.20559 0
M  V30 938 O 92.6232 -1.82247 0.2306 0
M  V30 939 C 92.6852 -0.763238 3.51305 0
M  V30 940 C 92.3492 0.301705 4.56003 0
M  V30 941 C 93.3462 1.13999 5.07248 0
M  V30 942 C 91.0312 0.451793 5.00264 0
M  V30 943 C 93.0252 2.11402 6.01322 0
M  V30 944 C 90.7122 1.42924 5.94151 0
M  V30 945 C 91.7102 2.25882 6.44567 0
M  V30 946 O 91.3982 3.21965 7.3661 0
M  V30 947 H 91.1302 -0.058693 0.673447 0
M  V30 948 H 93.6842 0.476395 1.99799 0
M  V30 949 H 91.9142 -1.56244 3.5373 0
M  V30 950 H 93.6032 -1.28427 3.85047 0
M  V30 951 H 94.3692 1.03505 4.73827 0
M  V30 952 H 90.2482 -0.184044 4.60632 0
M  V30 953 H 93.7922 2.76192 6.40596 0
M  V30 954 H 89.6892 1.53479 6.26988 0
M  V30 955 H 90.4572 3.17281 7.54503 0
M  V30 956 N 93.1203 -1.57491 0.0584922 0
M  V30 957 C 94.0303 -2.15448 -0.928414 0
M  V30 958 C 95.0463 -1.11416 -1.3365 0
M  V30 959 O 96.2223 -1.4362 -1.41193 0
M  V30 960 C 93.2873 -2.69393 -2.18239 0
M  V30 961 C 92.3483 -3.88249 -1.83196 0
M  V30 962 C 91.5813 -4.39613 -3.02616 0
M  V30 963 O 91.8043 -3.90023 -4.16219 0
M  V30 964 O 90.7383 -5.31111 -2.83204 0
M  V30 965 H 94.5643 -3.00112 -0.465483 0
M  V30 966 H 92.1493 -1.48499 -0.163826 0
M  V30 967 H 94.0313 -3.04026 -2.91798 0
M  V30 968 H 92.7063 -1.87796 -2.63656 0
M  V30 969 H 91.6133 -3.58492 -1.06931 0
M  V30 970 H 92.9463 -4.71098 -1.42573 0
M  V30 971 N 94.5984 0.214957 -1.56127 0
M  V30 972 C 95.5084 1.28727 -1.96129 0
M  V30 973 C 96.5244 1.50916 -0.866044 0
M  V30 974 O 97.7004 1.63918 -1.17016 0
M  V30 975 C 94.7654 2.61569 -2.27558 0
M  V30 976 C 93.8264 2.47625 -3.50685 0
M  V30 977 C 93.0594 3.74132 -3.80606 0
M  V30 978 O 93.2824 4.77438 -3.12104 0
M  V30 979 O 92.2164 3.70849 -4.74083 0
M  V30 980 H 96.0424 0.977855 -2.87527 0
M  V30 981 H 93.6274 0.418358 -1.43423 0
M  V30 982 H 95.5094 3.40012 -2.48938 0
M  V30 983 H 94.1844 2.92178 -1.39332 0
M  V30 984 H 93.0914 1.67361 -3.34576 0
M  V30 985 H 94.4244 2.21954 -4.39315 0
M  V30 986 N 96.0765 1.50051 0.48192 0
M  V30 987 C 97.3255 1.59741 1.23149 0
M  V30 988 C 97.6385 0.298163 1.93314 0
M  V30 989 O 98.8445 0.273835 2.70116 0
M  V30 990 C 97.3005 2.81926 2.23708 0
M  V30 991 C 96.9085 4.18685 1.59396 0
M  V30 992 C 98.6525 3.00956 2.99375 0
M  V30 993 C 96.5595 5.3207 2.58178 0
M  V30 994 H 95.4895 0.594838 0.46334 0
M  V30 995 H 98.1405 1.76467 0.503169 0
M  V30 996 H 96.5225 2.58736 2.99786 0
M  V30 997 H 97.6965 4.52088 0.891811 0
M  V30 998 H 96.0115 4.05171 0.960503 0
M  V30 999 H 98.6085 3.82836 3.73283 0
M  V30 1000 H 98.9515 2.12258 3.58123 0
M  V30 1001 H 99.4845 3.24277 2.30411 0
M  V30 1002 H 96.2235 6.22888 2.04184 0
M  V30 1003 H 95.7435 5.03098 3.26577 0
M  V30 1004 H 97.4225 5.62196 3.20225 0
M  V30 1005 N 97.5546 -0.734337 1.39446 0
M  V30 1006 C 98.7826 -1.52358 1.39981 0
M  V30 1007 C 99.1976 -1.88799 -0.0054975 0
M  V30 1008 O 98.5546 -1.54146 -0.976998 0
M  V30 1009 C 98.6056 -2.81072 2.27333 0
M  V30 1010 O 98.3266 -2.46178 3.62392 0
M  V30 1011 C 99.8276 -3.75096 2.36259 0
M  V30 1012 H 97.0476 -0.470806 0.478103 0
M  V30 1013 H 99.5916 -0.907339 1.83269 0
M  V30 1014 H 97.7466 -3.39026 1.87457 0
M  V30 1015 H 98.1606 -3.28866 4.08592 0
M  V30 1016 H 99.6346 -4.62305 3.01626 0
M  V30 1017 H 100.112 -4.16892 1.38194 0
M  V30 1018 H 100.718 -3.23061 2.76608 0
M  V30 1019 N 99.0327 -1.24633 -0.964593 0
M  V30 1020 C 99.9627 -1.06611 -2.07741 0
M  V30 1021 C 100.944 0.0218666 -1.70086 0
M  V30 1022 O 102.129 -0.145793 -1.93652 0
M  V30 1023 C 99.2587 -0.673444 -3.40708 0
M  V30 1024 C 98.2127 -1.71054 -3.92332 0
M  V30 1025 C 97.5387 -1.17285 -5.21678 0
M  V30 1026 C 98.8387 -3.10718 -4.19824 0
M  V30 1027 H 100.533 -1.99693 -2.23076 0
M  V30 1028 H 98.0787 -0.96152 -1.07195 0
M  V30 1029 H 100.032 -0.534345 -4.17998 0
M  V30 1030 H 98.7557 0.293073 -3.25282 0
M  V30 1031 H 97.4147 -1.83791 -3.17201 0
M  V30 1032 H 97.0627 -0.196847 -5.02615 0
M  V30 1033 H 96.7627 -1.86592 -5.57187 0
M  V30 1034 H 98.2867 -1.04593 -6.01575 0
M  V30 1035 H 99.7007 -3.01192 -4.87808 0
M  V30 1036 H 98.0977 -3.77406 -4.66567 0
M  V30 1037 H 99.1677 -3.58524 -3.26479 0
M  V30 1038 N 100.511 1.16574 -1.06058 0
M  V30 1039 C 101.421 2.2452 -0.680282 0
M  V30 1040 C 102.437 1.71348 0.302604 0
M  V30 1041 O 103.613 2.00822 0.152513 0
M  V30 1042 C 100.678 3.46629 -0.0700315 0
M  V30 1043 C 99.7388 4.14849 -1.10448 0
M  V30 1044 C 98.9718 5.31129 -0.523256 0
M  V30 1045 O 99.1948 5.66514 0.664709 0
M  V30 1046 O 98.1288 5.88526 -1.26179 0
M  V30 1047 H 101.955 2.59355 -1.58015 0
M  V30 1048 H 99.5398 1.24043 -0.832694 0
M  V30 1049 H 101.422 4.20543 0.268667 0
M  V30 1050 H 100.097 3.13573 0.803353 0
M  V30 1051 H 99.0038 3.42916 -1.49532 0
M  V30 1052 H 100.337 4.51954 -1.94931 0
M  V30 1053 N 101.989 0.842826 1.3317 0
M  V30 1054 C 103.405 0.531128 1.50503 0
M  V30 1055 C 103.605 -0.940734 1.78192 0
M  V30 1056 O 102.661 -1.72436 1.84451 0
M  V30 1057 C 103.974 1.40789 2.65705 0
M  V30 1058 C 105.522 1.40708 2.79589 0
M  V30 1059 C 105.997 2.26878 3.97857 0
M  V30 1060 N 107.488 2.24609 4.05099 0
M  V30 1061 C 108.223 2.88019 4.95815 0
M  V30 1062 N 107.719 3.60496 5.9162 0
M  V30 1063 N 109.512 2.77469 4.88843 0
M  V30 1064 H 101.663 1.79557 1.1346 0
M  V30 1065 H 103.926 0.766267 0.558156 0
M  V30 1066 H 103.632 2.454 2.51936 0
M  V30 1067 H 103.506 1.08677 3.61205 0
M  V30 1068 H 105.893 0.368668 2.92788 0
M  V30 1069 H 105.974 1.76829 1.84838 0
M  V30 1070 H 105.618 3.3078 3.85418 0
M  V30 1071 H 105.548 1.88096 4.91861 0
M  V30 1072 H 108.039 1.71906 3.36536 0
M  V30 1073 H 108.352 4.06076 6.57512 0
M  V30 1074 H 106.697 3.64604 5.91683 0
M  V30 1075 H 109.888 2.20406 4.12963 0
M  V30 1076 H 110.061 3.2717 5.59342 0
M  V30 1077 N 103.467 -1.45747 0.599634 0
M  V30 1078 C 104.715 -2.01893 0.0915472 0
M  V30 1079 C 105.036 -1.47155 -1.27946 0
M  V30 1080 O 104.306 -0.66273 -1.84349 0
M  V30 1081 H 102.886 -0.746363 0.0308524 0
M  V30 1082 H 105.548 -1.78645 0.779237 0
M  V30 1083 H 104.644 -3.1208 0.0353086 0
M  V30 1084 N 104.945 -0.338344 -1.53925 0
M  V30 1085 C 105.893 0.536231 -2.26335 0
M  V30 1086 C 106.887 1.1063 -1.28286 0
M  V30 1087 O 108.093 1.05264 -1.46012 0
M  V30 1088 H 104.468 0.191602 -0.727181 0
M  V30 1089 H 106.439 -0.0965747 -2.98244 0
M  V30 1090 C 105.188 1.67803 -3.04528 0
M  V30 1091 H 104.511 1.24864 -3.79801 0
M  V30 1092 H 105.951 2.26526 -3.58416 0
M  V30 1093 C 104.41 2.60439 -2.13712 0
M  V30 1094 O 104.94 3.6255 -1.72975 0
M  V30 1095 N 103.146 2.29006 -1.78898 0
M  V30 1096 H 102.693 1.46011 -2.12223 0
M  V30 1097 H 102.651 2.91248 -1.18416 0
M  V30 1098 N 106.423 1.57458 -0.0668435 0
M  V30 1099 C 107.648 1.9804 0.616027 0
M  V30 1100 C 108.073 0.944771 1.62652 0
M  V30 1101 O 107.431 -0.0902094 1.81075 0
M  V30 1102 C 107.479 3.37665 1.26549 0
M  V30 1103 O 106.583 3.36701 2.38131 0
M  V30 1104 H 105.924 0.644719 0.158849 0
M  V30 1105 H 108.454 2.04121 -0.139891 0
M  V30 1106 H 108.464 3.7474 1.6135 0
M  V30 1107 H 107.139 4.12573 0.525016 0
M  V30 1108 H 105.716 3.1139 2.0516 0
M  V30 1109 N 107.901 -0.206675 1.56239 0
M  V30 1110 C 109.149 -0.927007 1.79586 0
M  V30 1111 C 109.47 -1.8427 0.637929 0
M  V30 1112 O 108.74 -1.92849 -0.344398 0
M  V30 1113 H 107.32 -0.345292 0.662407 0
M  V30 1114 H 109.982 -0.21496 1.93711 0
M  V30 1115 H 109.078 -1.52501 2.72305 0
M  V30 1116 N 109.379 -1.50304 -0.473955 0
M  V30 1117 C 110.309 -1.71886 -1.58042 0
M  V30 1118 C 111.29 -0.567799 -1.60344 0
M  V30 1119 O 112.475 -0.806623 -1.76656 0
M  V30 1120 C 109.605 -1.81036 -2.96384 0
M  V30 1121 C 108.559 -2.962 -3.08949 0
M  V30 1122 C 107.885 -2.9049 -4.48909 0
M  V30 1123 C 109.185 -4.36752 -2.86434 0
M  V30 1124 H 110.879 -2.64527 -1.40234 0
M  V30 1125 H 108.425 -1.27295 -0.673201 0
M  V30 1126 H 110.378 -1.94719 -3.73714 0
M  V30 1127 H 109.102 -0.850147 -3.15341 0
M  V30 1128 H 107.761 -2.82164 -2.3405 0
M  V30 1129 H 107.409 -1.92321 -4.64781 0
M  V30 1130 H 107.109 -3.67802 -4.58253 0
M  V30 1131 H 108.633 -3.06218 -5.28264 0
M  V30 1132 H 110.047 -4.5133 -3.53517 0
M  V30 1133 H 108.444 -5.15493 -3.07225 0
M  V30 1134 H 109.514 -4.49321 -1.82316 0
M  V30 1135 N 110.857 0.726932 -1.39834 0
M  V30 1136 C 112.105 1.4837 -1.37225 0
M  V30 1137 C 112.426 1.94979 0.0284857 0
M  V30 1138 O 111.696 1.69555 0.981213 0
M  V30 1139 H 110.276 0.55043 -0.505011 0
M  V30 1140 H 112.938 0.862468 -1.74778 0
M  V30 1141 H 112.034 2.36198 -2.04003 0
M  V30 1142 N 112.336 1.25143 0.95797 0
M  V30 1143 C 113.583 1.09692 1.70217 0
M  V30 1144 C 113.911 -0.362654 1.91089 0
M  V30 1145 O 113.166 -1.28386 1.47701 0
M  V30 1146 C 113.465 1.79272 3.09187 0
M  V30 1147 C 113.131 3.29196 3.08125 0
M  V30 1148 C 111.793 3.70096 3.07543 0
M  V30 1149 C 114.145 4.24995 3.0171 0
M  V30 1150 C 111.473 5.05213 2.9829 0
M  V30 1151 C 113.825 5.60132 2.93999 0
M  V30 1152 C 112.489 6.00365 2.9175 0
M  V30 1153 H 111.759 0.401393 0.622868 0
M  V30 1154 H 114.406 1.55372 1.11945 0
M  V30 1155 H 112.711 1.26014 3.70982 0
M  V30 1156 H 114.408 1.64773 3.65583 0
M  V30 1157 H 110.998 2.96651 3.09348 0
M  V30 1158 H 115.182 3.9439 3.01281 0
M  V30 1159 H 110.438 5.35569 2.94916 0
M  V30 1160 H 114.612 6.3406 2.87996 0
M  V30 1161 H 112.239 7.05023 2.84336 0
M  V30 1162 N 113.814 -1.1601 1.06675 0
M  V30 1163 C 115.039 -1.91068 0.806706 0
M  V30 1164 C 115.464 -1.77112 -0.633485 0
M  V30 1165 O 114.822 -1.09908 -1.44187 0
M  V30 1166 C 114.87 -3.39655 1.21106 0
M  V30 1167 O 113.974 -4.10893 0.352189 0
M  V30 1168 H 113.315 -0.595125 0.294486 0
M  V30 1169 H 115.845 -1.46955 1.42356 0
M  V30 1170 H 115.855 -3.90434 1.18428 0
M  V30 1171 H 114.53 -3.49132 2.26008 0
M  V30 1172 H 113.107 -3.70285 0.440868 0
M  V30 1173 N 115.292 -0.849877 -1.32721 0
M  V30 1174 C 116.541 -0.447175 -1.96681 0
M  V30 1175 C 116.854 1.00135 -1.68025 0
M  V30 1176 O 118.06 1.50926 -2.25685 0
M  V30 1177 C 116.516 -0.7487 -3.52026 0
M  V30 1178 C 116.124 -2.21264 -3.89546 0
M  V30 1179 C 117.868 -0.413487 -4.22481 0
M  V30 1180 C 115.775 -2.45763 -5.37917 0
M  V30 1181 H 114.705 -0.163486 -0.736063 0
M  V30 1182 H 117.356 -1.03999 -1.51183 0
M  V30 1183 H 115.738 -0.0853727 -3.95908 0
M  V30 1184 H 116.912 -2.91736 -3.56689 0
M  V30 1185 H 115.227 -2.5119 -3.32103 0
M  V30 1186 H 117.824 -0.574017 -5.3161 0
M  V30 1187 H 118.167 0.644492 -4.11281 0
M  V30 1188 H 118.7 -1.03251 -3.84167 0
M  V30 1189 H 115.439 -3.50168 -5.54132 0
M  V30 1190 H 114.959 -1.79864 -5.72197 0
M  V30 1191 H 116.638 -2.29471 -6.0494 0
M  V30 1192 N 116.77 1.45427 -0.607355 0
M  V30 1193 C 117.733 2.28974 0.101693 0
M  V30 1194 C 118.733 1.39754 0.795329 0
M  V30 1195 O 119.923 1.61878 0.643527 0
M  V30 1196 C 117.055 3.20768 1.15414 0
M  V30 1197 H 118.248 2.93147 -0.632844 0
M  V30 1198 H 115.801 1.51945 -0.366391 0
M  V30 1199 H 116.536 2.61395 1.91945 0
M  V30 1200 H 116.321 3.86489 0.66098 0
M  V30 1201 H 117.811 3.83589 1.65073 0
M  V30 1202 N 118.248 0.346503 1.53744 0
M  V30 1203 C 119.496 -0.248612 2.00565 0
M  V30 1204 C 119.817 -1.5083 1.23593 0
M  V30 1205 O 119.087 -1.92858 0.343912 0
M  V30 1206 H 117.667 -0.0948564 0.740953 0
M  V30 1207 H 120.329 0.468341 1.89189 0
M  V30 1208 H 119.425 -0.488994 3.08245 0
M  V30 1209 N 119.726 -1.57421 0.075193 0
M  V30 1210 C 120.974 -1.93236 -0.591974 0
M  V30 1211 C 121.295 -0.956241 -1.69944 0
M  V30 1212 O 120.565 -0.00494792 -1.95899 0
M  V30 1213 H 119.145 -0.713355 -0.22166 0
M  V30 1214 H 121.807 -1.9444 0.133848 0
M  V30 1215 H 120.903 -2.95131 -1.01509 0
M  V30 1216 N 121.204 0.198386 -1.56346 0
M  V30 1217 C 122.432 0.935572 -1.84539 0
M  V30 1218 C 122.847 1.76989 -0.657281 0
M  V30 1219 O 122.204 1.78626 0.374043 0
M  V30 1220 C 122.255 1.8344 -3.11499 0
M  V30 1221 O 121.976 1.03377 -4.25728 0
M  V30 1222 C 123.477 2.68355 -3.52846 0
M  V30 1223 H 120.697 0.273126 -0.612897 0
M  V30 1224 H 123.241 0.20663 -2.03453 0
M  V30 1225 H 121.396 2.51701 -2.94492 0
M  V30 1226 H 121.81 1.64599 -4.98003 0
M  V30 1227 H 123.284 3.27085 -4.44657 0
M  V30 1228 H 123.761 3.41901 -2.75681 0
M  V30 1229 H 124.367 2.05471 -3.72373 0
M  V30 1230 N 122.682 1.50554 0.465978 0
M  V30 1231 C 123.959 1.5232 1.22712 0
M  V30 1232 C 124.339 0.270807 2.09356 0
M  V30 1233 O 123.687 -0.745541 2.15995 0
M  V30 1234 C 123.897 2.82175 2.05374 0
M  V30 1235 C 125.245 3.33033 2.6339 0
M  V30 1236 O 126.269 2.83531 2.15612 0
M  V30 1237 O 125.128 4.19336 3.50456 0
M  V30 1238 H 122.222 0.611183 0.557122 0
M  V30 1239 H 124.768 1.62847 0.477381 0
M  V30 1240 H 123.54 3.64797 1.41558 0
M  V30 1241 H 123.163 2.74675 2.87471 0
M  V30 1242 N 124.16 -0.719506 1.40217 0
M  V30 1243 C 125.108 -1.85493 1.40339 0
M  V30 1244 C 126.102 -1.66995 0.284415 0
M  V30 1245 O 127.308 -1.74148 0.455252 0
M  V30 1246 H 123.683 -0.610857 0.438586 0
M  V30 1247 H 125.654 -1.82506 2.36081 0
M  V30 1248 C 124.403 -3.23321 1.27901 0
M  V30 1249 H 123.726 -3.38159 2.1328 0
M  V30 1250 H 125.166 -4.02914 1.32045 0
M  V30 1251 C 123.625 -3.36898 -0.0111355 0
M  V30 1252 O 124.155 -3.89674 -0.975538 0
M  V30 1253 N 122.361 -2.90492 -0.0793393 0
M  V30 1254 H 121.908 -2.47731 0.706183 0
M  V30 1255 H 121.866 -2.99955 -0.942038 0
M  V30 1256 N 125.638 -1.25649 -0.95132 0
M  V30 1257 C 127.049 -1.09654 -1.51106 0
M  V30 1258 C 127.4 0.326615 -1.93462 0
M  V30 1259 O 126.525 1.21697 -1.78938 0
M  V30 1260 C 127.12 -1.98437 -2.74605 0
M  V30 1261 C 125.679 -1.86618 -3.2688 0
M  V30 1262 C 124.826 -1.9239 -1.99703 0
M  V30 1263 H 127.777 -1.38887 -0.767865 0
M  V30 1264 H 127.798 -1.5263 -3.48546 0
M  V30 1265 H 127.31 -3.02009 -2.43746 0
M  V30 1266 H 125.411 -0.859421 -3.62553 0
M  V30 1267 H 125.524 -2.71607 -3.94673 0
M  V30 1268 H 123.888 -1.36317 -2.15151 0
M  V30 1269 H 124.671 -2.97573 -1.71188 0
M  V30 1270 N 127.117 1.15442 -1.07289 0
M  V30 1271 C 128.067 2.18164 -0.662467 0
M  V30 1272 C 129.051 1.57845 0.312074 0
M  V30 1273 O 130.243 1.76552 0.125905 0
M  V30 1274 C 127.372 3.43246 -0.0611295 0
M  V30 1275 C 126.458 4.1062 -1.06077 0
M  V30 1276 N 126.849 4.53491 -2.24008 0
M  V30 1277 C 125.147 4.36949 -0.893964 0
M  V30 1278 C 125.848 5.05731 -2.87422 0
M  V30 1279 N 124.824 4.99236 -2.15091 0
M  V30 1280 H 128.626 2.49038 -1.56068 0
M  V30 1281 H 126.14 1.32003 -0.945988 0
M  V30 1282 H 128.137 4.16145 0.250792 0
M  V30 1283 H 126.797 3.13854 0.832207 0
M  V30 1284 H 127.808 4.46898 -2.6173 0
M  V30 1285 H 124.485 4.17466 -0.0534693 0
M  V30 1286 H 125.875 5.48865 -3.87553 0
M  V30 1287 N 128.595 0.856903 1.32268 0
M  V30 1288 C 129.844 0.457599 1.96441 0
M  V30 1289 C 130.157 -0.992426 1.68553 0
M  V30 1290 O 131.363 -1.49727 2.26482 0
M  V30 1291 C 129.819 0.767358 3.51624 0
M  V30 1292 C 129.427 2.23326 3.88367 0
M  V30 1293 C 131.171 0.435887 4.22256 0
M  V30 1294 C 129.078 2.48613 5.36606 0
M  V30 1295 H 128.008 0.167387 0.735185 0
M  V30 1296 H 130.659 1.048 1.5063 0
M  V30 1297 H 129.041 0.106367 3.95857 0
M  V30 1298 H 130.215 2.93623 3.55137 0
M  V30 1299 H 128.53 2.52948 3.30766 0
M  V30 1300 H 131.127 0.602202 5.31298 0
M  V30 1301 H 131.47 -0.622672 4.11617 0
M  V30 1302 H 132.003 1.05286 3.83614 0
M  V30 1303 H 128.742 3.53101 5.52268 0
M  V30 1304 H 128.262 1.82896 5.71235 0
M  V30 1305 H 129.941 2.32676 6.03714 0
M  V30 1306 N 130.073 -1.45103 0.615059 0
M  V30 1307 C 131.321 -2.01784 0.112955 0
M  V30 1308 C 131.642 -1.48504 -1.26378 0
M  V30 1309 O 130.912 -0.682245 -1.83636 0
M  V30 1310 H 129.492 -0.745993 0.0387668 0
M  V30 1311 H 132.154 -1.77808 0.798141 0
M  V30 1312 H 131.25 -3.12025 0.0684069 0
M  V30 1313 N 131.551 -0.354651 -1.53558 0
M  V30 1314 C 132.828 0.294281 -1.93374 0
M  V30 1315 C 133.208 1.67313 -1.28723 0
M  V30 1316 O 132.556 2.24179 -0.442247 0
M  V30 1317 C 132.766 0.355445 -3.47185 0
M  V30 1318 C 134.114 0.601007 -4.20325 0
M  V30 1319 O 135.138 0.437106 -3.53508 0
M  V30 1320 O 133.997 0.919322 -5.38712 0
M  V30 1321 H 131.091 0.174033 -0.808481 0
M  V30 1322 H 133.637 -0.406638 -1.64756 0
M  V30 1323 H 132.409 -0.611729 -3.86489 0
M  V30 1324 H 132.032 1.1027 -3.82003 0
M  V30 1325 N 133.029 1.57378 -0.0835403 0
M  V30 1326 C 134.306 1.85363 0.624507 0
M  V30 1327 C 134.686 0.978239 1.87066 0
M  V30 1328 O 134.034 0.0475908 2.2845 0
M  V30 1329 C 134.244 3.35795 0.950947 0
M  V30 1330 C 135.592 4.03581 1.31939 0
M  V30 1331 O 136.616 3.40609 1.04232 0
M  V30 1332 O 135.475 5.14672 1.83779 0
M  V30 1333 H 132.569 0.766162 0.311329 0
M  V30 1334 H 135.115 1.69307 -0.115362 0
M  V30 1335 H 133.887 3.91244 0.0663899 0
M  V30 1336 H 133.51 3.57154 1.74719 0
M  V30 1337 N 134.507 -0.190092 1.56449 0
M  V30 1338 C 135.918 -0.754312 1.70784 0
M  V30 1339 C 136.269 -1.83631 0.690951 0
M  V30 1340 O 135.394 -2.15868 -0.151604 0
M  V30 1341 C 135.989 -1.37503 3.09642 0
M  V30 1342 C 134.548 -1.88628 3.25725 0
M  V30 1343 C 133.695 -0.758098 2.66736 0
M  V30 1344 H 136.646 0.0350524 1.58661 0
M  V30 1345 H 136.667 -2.2445 3.0725 0
M  V30 1346 H 136.179 -0.587302 3.83631 0
M  V30 1347 H 134.28 -2.70103 2.56661 0
M  V30 1348 H 134.393 -2.04462 4.3328 0
M  V30 1349 H 132.757 -1.17369 2.26046 0
M  V30 1350 H 133.54 0.0174705 3.43296 0
M  V30 1351 N 135.985 -1.50799 -0.457987 0
M  V30 1352 C 137.21 -1.66496 -1.23668 0
M  V30 1353 C 137.635 -0.353288 -1.84752 0
M  V30 1354 O 136.993 0.684346 -1.67888 0
M  V30 1355 C 137.041 -2.76763 -2.3116 0
M  V30 1356 O 136.145 -2.38928 -3.36136 0
M  V30 1357 H 135.486 -0.555828 -0.363252 0
M  V30 1358 H 138.016 -1.9725 -0.543474 0
M  V30 1359 H 138.026 -3.00232 -2.76269 0
M  V30 1360 H 136.701 -3.71954 -1.86073 0
M  V30 1361 H 135.278 -2.25953 -2.96647 0
M  V30 1362 N 137.463 0.71206 -1.40597 0
M  V30 1363 C 138.712 1.46754 -1.38369 0
M  V30 1364 C 139.025 1.95598 0.0097839 0
M  V30 1365 O 140.231 2.71059 0.154677 0
M  V30 1366 C 138.687 2.65289 -2.43207 0
M  V30 1367 C 138.295 2.23301 -3.88382 0
M  V30 1368 C 140.039 3.43008 -2.50091 0
M  V30 1369 C 137.946 3.38696 -4.84808 0
M  V30 1370 H 136.876 0.55118 -0.514506 0
M  V30 1371 H 139.527 0.774616 -1.66349 0
M  V30 1372 H 137.909 3.36769 -2.08332 0
M  V30 1373 H 139.083 1.59218 -4.32419 0
M  V30 1374 H 137.398 1.58618 -3.85006 0
M  V30 1375 H 139.995 4.28881 -3.1932 0
M  V30 1376 H 140.338 3.87065 -1.53253 0
M  V30 1377 H 140.871 2.78574 -2.83974 0
M  V30 1378 H 137.61 2.99668 -5.82992 0
M  V30 1379 H 137.13 4.01683 -4.45433 0
M  V30 1380 H 138.809 4.04712 -5.04794 0
M  V30 1381 N 138.941 1.26152 0.944643 0
M  V30 1382 C 140.188 1.11492 1.69044 0
M  V30 1383 C 140.516 -0.342366 1.91463 0
M  V30 1384 O 139.771 -1.26812 1.49054 0
M  V30 1385 C 140.07 1.82541 3.07268 0
M  V30 1386 C 139.736 3.32445 3.04616 0
M  V30 1387 C 138.398 3.73337 3.036 0
M  V30 1388 C 140.75 4.28171 2.97185 0
M  V30 1389 C 138.078 5.08348 2.92915 0
M  V30 1390 C 140.43 5.63218 2.88041 0
M  V30 1391 C 139.094 6.03426 2.85366 0
M  V30 1392 H 138.364 0.407977 0.618576 0
M  V30 1393 H 141.011 1.56551 1.10291 0
M  V30 1394 H 139.316 1.29941 3.69625 0
M  V30 1395 H 141.013 1.68642 3.63815 0
M  V30 1396 H 137.603 2.99915 3.06185 0
M  V30 1397 H 141.787 3.97563 2.97081 0
M  V30 1398 H 137.043 5.38667 2.89219 0
M  V30 1399 H 141.217 6.37078 2.81254 0
M  V30 1400 H 138.844 7.07999 2.76842 0
M  V30 1401 N 140.419 -1.14872 1.07899 0
M  V30 1402 C 141.668 -1.85135 0.800499 0
M  V30 1403 C 141.981 -1.83547 -0.676014 0
M  V30 1404 O 143.187 -2.49548 -1.06948 0
M  V30 1405 C 141.643 -3.3231 1.38197 0
M  V30 1406 C 141.251 -3.42329 2.8899 0
M  V30 1407 C 142.995 -4.0772 1.18174 0
M  V30 1408 C 140.902 -4.83684 3.403 0
M  V30 1409 H 139.832 -0.693563 0.29578 0
M  V30 1410 H 142.483 -1.29532 1.29976 0
M  V30 1411 H 140.865 -3.87618 0.810431 0
M  V30 1412 H 142.039 -2.97097 3.52236 0
M  V30 1413 H 140.354 -2.80369 3.07867 0
M  V30 1414 H 142.951 -5.12049 1.5398 0
M  V30 1415 H 143.294 -4.16124 0.12117 0
M  V30 1416 H 143.827 -3.58696 1.71994 0
M  V30 1417 H 140.566 -4.80465 4.45907 0
M  V30 1418 H 140.086 -5.29474 2.81811 0
M  V30 1419 H 141.765 -5.52558 3.36584 0
M  V30 1420 N 141.898 -0.863906 -1.31812 0
M  V30 1421 C 143.126 -0.486111 -2.01108 0
M  V30 1422 C 143.541 0.919755 -1.64882 0
M  V30 1423 O 142.898 1.60162 -0.874893 0
M  V30 1424 C 142.949 -0.626435 -3.56031 0
M  V30 1425 O 142.67 -1.97693 -3.90959 0
M  V30 1426 C 144.171 -0.248857 -4.42601 0
M  V30 1427 H 141.391 -0.190052 -0.643523 0
M  V30 1428 H 143.935 -1.1634 -1.68182 0
M  V30 1429 H 142.09 0.00322717 -3.874 0
M  V30 1430 H 142.504 -1.98034 -4.85678 0
M  V30 1431 H 143.978 -0.398016 -5.50563 0
M  V30 1432 H 144.455 0.811489 -4.31638 0
M  V30 1433 H 145.061 -0.853971 -4.16638 0
M  V30 1434 N 143.376 1.44774 -0.622745 0
M  V30 1435 C 144.323 2.30635 0.0871679 0
M  V30 1436 C 145.293 1.42994 0.845097 0
M  V30 1437 O 146.478 1.71907 0.827812 0
M  V30 1438 C 143.618 3.28144 1.06844 0
M  V30 1439 C 142.731 4.30888 0.309809 0
M  V30 1440 C 141.866 5.15494 1.28215 0
M  V30 1441 C 140.905 6.09953 0.512198 0
M  V30 1442 N 140.042 6.87287 1.43458 0
M  V30 1443 H 144.882 2.90803 -0.650974 0
M  V30 1444 H 142.419 1.43286 -0.33281 0
M  V30 1445 H 144.377 3.83157 1.65066 0
M  V30 1446 H 143.007 2.69695 1.77382 0
M  V30 1447 H 142.059 3.78414 -0.388181 0
M  V30 1448 H 143.371 4.97955 -0.290254 0
M  V30 1449 H 142.525 5.74983 1.93596 0
M  V30 1450 H 141.264 4.48481 1.91614 0
M  V30 1451 H 140.269 5.49581 -0.155151 0
M  V30 1452 H 141.494 6.78999 -0.116958 0
M  V30 1453 H 139.44 6.2295 2.05594 0
M  V30 1454 H 139.357 7.50763 0.888335 0
M  V30 1455 H 140.625 7.51306 2.07749 0
M  V30 1456 N 144.854 0.36279 1.53368 0
M  V30 1457 C 146.103 -0.22888 2.00397 0
M  V30 1458 C 146.416 -1.50096 1.25421 0
M  V30 1459 O 147.622 -2.17106 1.63025 0
M  V30 1460 C 146.078 -0.458417 3.56969 0
M  V30 1461 C 145.686 0.798877 4.4082 0
M  V30 1462 C 147.43 -1.00789 4.12361 0
M  V30 1463 C 145.337 0.539078 5.88938 0
M  V30 1464 H 144.267 -0.089305 0.748693 0
M  V30 1465 H 146.918 0.481099 1.77081 0
M  V30 1466 H 145.3 -1.22959 3.76427 0
M  V30 1467 H 146.474 1.57262 4.33134 0
M  V30 1468 H 144.789 1.27137 3.96516 0
M  V30 1469 H 147.386 -1.21754 5.20653 0
M  V30 1470 H 147.729 -1.9692 3.66781 0
M  V30 1471 H 148.262 -0.296961 3.9669 0
M  V30 1472 H 145.001 1.47064 6.3879 0
M  V30 1473 H 144.521 -0.196222 5.99479 0
M  V30 1474 H 146.2 0.163542 6.46793 0
M  V30 1475 N 146.332 -1.57332 0.0918853 0
M  V30 1476 C 147.581 -1.93412 -0.572249 0
M  V30 1477 C 147.894 -0.975515 -1.69538 0
M  V30 1478 O 149.1 -1.22991 -2.42045 0
M  V30 1479 C 147.556 -3.43648 -1.0693 0
M  V30 1480 C 147.164 -4.47994 0.0239049 0
M  V30 1481 C 148.908 -3.88695 -1.70635 0
M  V30 1482 C 146.815 -5.89381 -0.488319 0
M  V30 1483 H 145.745 -0.721939 -0.217532 0
M  V30 1484 H 148.396 -1.82735 0.167369 0
M  V30 1485 H 146.778 -3.49466 -1.8625 0
M  V30 1486 H 147.952 -4.53815 0.799277 0
M  V30 1487 H 146.267 -4.12536 0.565946 0
M  V30 1488 H 148.864 -4.91725 -2.10025 0
M  V30 1489 H 149.207 -3.27166 -2.57426 0
M  V30 1490 H 149.74 -3.85564 -0.979023 0
M  V30 1491 H 146.479 -6.54602 0.342906 0
M  V30 1492 H 145.999 -5.87037 -1.23077 0
M  V30 1493 H 147.678 -6.39863 -0.958317 0
M  V30 1494 N 147.81 0.181792 -1.56548 0
M  V30 1495 C 149.221 0.745244 -1.71181 0
M  V30 1496 C 149.572 1.83262 -0.70068 0
M  V30 1497 O 148.697 2.15946 0.140154 0
M  V30 1498 C 149.292 1.35859 -3.10367 0
M  V30 1499 C 147.851 1.86898 -3.2672 0
M  V30 1500 C 146.998 0.743942 -2.67134 0
M  V30 1501 H 149.949 -0.0434661 -1.5864 0
M  V30 1502 H 149.97 2.22817 -3.08436 0
M  V30 1503 H 149.482 0.566948 -3.83937 0
M  V30 1504 H 147.583 2.68738 -2.5809 0
M  V30 1505 H 147.696 2.02162 -4.34359 0
M  V30 1506 H 146.06 1.16169 -2.26665 0
M  V30 1507 H 146.843 -0.035676 -3.43281 0
M  V30 1508 N 149.288 1.51039 0.449983 0
M  V30 1509 C 150.536 1.62759 1.19808 0
M  V30 1510 C 150.857 0.339981 1.92013 0
M  V30 1511 O 150.127 -0.643606 1.85026 0
M  V30 1512 H 148.707 0.599811 0.445237 0
M  V30 1513 H 151.369 1.87914 0.517138 0
M  V30 1514 H 150.465 2.44911 1.93455 0
M  V30 1515 N 150.766 -0.704594 1.40972 0
M  V30 1516 C 152.014 -1.46169 1.39568 0
M  V30 1517 C 152.335 -1.95 0.00253745 0
M  V30 1518 O 151.605 -1.71095 -0.954114 0
M  V30 1519 H 150.185 -0.542326 0.513704 0
M  V30 1520 H 152.847 -0.834553 1.76128 0
M  V30 1521 H 151.943 -2.32922 2.07735 0
M  V30 1522 N 152.244 -1.26651 -0.937939 0
M  V30 1523 C 153.207 -1.08546 -2.01867 0
M  V30 1524 C 154.207 -0.0327327 -1.60767 0
M  V30 1525 O 155.397 -0.276427 -1.71993 0
M  V30 1526 C 152.529 -0.651711 -3.34613 0
M  V30 1527 H 153.722 -2.04502 -2.1936 0
M  V30 1528 H 151.275 -1.09294 -1.11734 0
M  V30 1529 H 152.01 0.309696 -3.22818 0
M  V30 1530 H 151.795 -1.41189 -3.65798 0
M  V30 1531 H 153.285 -0.546973 -4.14002 0
M  V30 1532 N 153.722 1.14298 -1.08507 0
M  V30 1533 C 154.685 2.17607 -0.719711 0
M  V30 1534 C 155.685 1.58907 0.245997 0
M  V30 1535 O 156.875 1.74181 0.0254081 0
M  V30 1536 C 154.007 3.40842 -0.0627695 0
M  V30 1537 H 155.2 2.51443 -1.63452 0
M  V30 1538 H 152.753 1.28963 -0.88307 0
M  V30 1539 H 153.488 3.12587 0.863716 0
M  V30 1540 H 153.273 3.84713 -0.757504 0
M  V30 1541 H 154.763 4.17221 0.177786 0
M  V30 1542 N 155.201 0.870884 1.31352 0
M  V30 1543 C 156.164 0.332243 2.26779 0
M  V30 1544 C 157.164 -0.517302 1.52252 0
M  V30 1545 O 158.354 -0.326477 1.71113 0
M  V30 1546 C 155.486 -0.528066 3.36785 0
M  V30 1547 H 156.679 1.17469 2.75937 0
M  V30 1548 H 154.232 0.64655 1.423 0
M  V30 1549 H 154.967 -1.39167 2.92922 0
M  V30 1550 H 154.752 0.0802582 3.92018 0
M  V30 1551 H 156.242 -0.897179 4.07849 0
M  V30 1552 N 156.679 -1.44442 0.630414 0
M  V30 1553 C 157.611 -2.2892 -0.113347 0
M  V30 1554 C 158.624 -1.41243 -0.80959 0
M  V30 1555 O 159.813 -1.65402 -0.671156 0
M  V30 1556 C 156.913 -3.17594 -1.18266 0
M  V30 1557 C 156.086 -4.33682 -0.569073 0
M  V30 1558 C 155.145 -5.03397 -1.53226 0
M  V30 1559 O 154.171 -5.59438 -1.04967 0
M  V30 1560 N 155.373 -5.04783 -2.86661 0
M  V30 1561 H 158.138 -2.93392 0.611636 0
M  V30 1562 H 155.699 -1.54881 0.471523 0
M  V30 1563 H 157.691 -3.61097 -1.82732 0
M  V30 1564 H 156.261 -2.54876 -1.80988 0
M  V30 1565 H 155.481 -3.9338 0.254187 0
M  V30 1566 H 156.769 -5.08608 -0.139767 0
M  V30 1567 H 156.167 -4.60584 -3.28449 0
M  V30 1568 H 154.724 -5.52077 -3.46489 0
M  V30 1569 N 158.157 -0.370918 -1.53173 0
M  V30 1570 C 159.434 0.273754 -1.93675 0
M  V30 1571 C 159.814 1.65938 -1.3049 0
M  V30 1572 O 159.162 2.23698 -0.465999 0
M  V30 1573 C 159.372 0.318602 -3.47543 0
M  V30 1574 C 160.72 0.556392 -4.20939 0
M  V30 1575 O 161.744 0.399587 -3.53952 0
M  V30 1576 O 160.603 0.862133 -5.39657 0
M  V30 1577 H 157.697 0.165448 -0.810281 0
M  V30 1578 H 160.243 -0.42409 -1.64315 0
M  V30 1579 H 159.015 -0.652687 -3.85818 0
M  V30 1580 H 158.638 1.06212 -3.83151 0
M  V30 1581 N 159.635 1.57281 -0.100228 0
M  V30 1582 C 160.883 1.94153 0.561157 0
M  V30 1583 C 161.204 0.983157 1.68401 0
M  V30 1584 O 160.474 0.0361132 1.95867 0
M  V30 1585 H 159.054 0.716791 0.210283 0
M  V30 1586 H 161.716 1.94202 -0.164765 0
M  V30 1587 H 160.812 2.96709 0.968008 0
M  V30 1588 N 161.113 -0.173488 1.56642 0
M  V30 1589 C 162.529 -0.525174 1.50712 0
M  V30 1590 C 162.729 -1.8476 0.804107 0
M  V30 1591 O 161.785 -2.49869 0.363574 0
M  V30 1592 C 163.098 -0.559937 2.95441 0
M  V30 1593 C 164.646 -0.647288 3.06234 0
M  V30 1594 C 165.121 -0.712963 4.52417 0
M  V30 1595 N 166.612 -0.775911 4.56655 0
M  V30 1596 C 167.347 -0.847264 5.67106 0
M  V30 1597 N 166.843 -0.879585 6.87194 0
M  V30 1598 N 168.636 -0.886117 5.55071 0
M  V30 1599 H 160.787 0.693681 2.00753 0
M  V30 1600 H 163.05 0.249841 0.914485 0
M  V30 1601 H 162.756 0.343049 3.50023 0
M  V30 1602 H 162.63 -1.40718 3.49969 0
M  V30 1603 H 165.017 -1.5407 2.51687 0
M  V30 1604 H 165.098 0.226586 2.54794 0
M  V30 1605 H 164.742 0.176183 5.07594 0
M  V30 1606 H 164.672 -1.60295 5.0161 0
M  V30 1607 H 167.163 -0.759304 3.70193 0
M  V30 1608 H 167.476 -0.935144 7.67121 0
M  V30 1609 H 165.821 -0.847898 6.89808 0
M  V30 1610 H 169.012 -0.857853 4.60172 0
M  V30 1611 H 169.185 -0.938263 6.41171 0
M  V30 1612 N 162.591 -1.51276 -0.441967 0
M  V30 1613 C 163.521 -1.752 -1.54361 0
M  V30 1614 C 164.502 -0.601682 -1.59103 0
M  V30 1615 O 165.687 -0.843913 -1.74905 0
M  V30 1616 C 162.817 -1.87282 -2.92477 0
M  V30 1617 C 161.771 -3.02687 -3.02596 0
M  V30 1618 C 161.097 -2.99947 -4.42647 0
M  V30 1619 C 162.397 -4.4273 -2.77106 0
M  V30 1620 H 164.091 -2.67442 -1.34592 0
M  V30 1621 H 161.637 -1.28694 -0.646048 0
M  V30 1622 H 163.59 -2.02602 -3.695 0
M  V30 1623 H 162.314 -0.916844 -3.13467 0
M  V30 1624 H 160.973 -2.87065 -2.28012 0
M  V30 1625 H 160.621 -2.02136 -4.60597 0
M  V30 1626 H 160.321 -3.77439 -4.50348 0
M  V30 1627 H 161.845 -3.17354 -5.2165 0
M  V30 1628 H 163.259 -4.58727 -3.43864 0
M  V30 1629 H 161.656 -5.21893 -2.96222 0
M  V30 1630 H 162.726 -4.53087 -1.72744 0
M  V30 1631 N 164.069 0.697108 -1.41344 0
M  V30 1632 C 165.485 1.00751 -1.2378 0
M  V30 1633 C 165.685 2.01105 -0.126066 0
M  V30 1634 O 164.741 2.47295 0.51004 0
M  V30 1635 C 166.054 1.53359 -2.58653 0
M  V30 1636 C 167.602 1.6525 -2.65822 0
M  V30 1637 C 168.077 2.2126 -4.01009 0
M  V30 1638 N 169.568 2.28622 -4.02847 0
M  V30 1639 C 170.303 2.72984 -5.04249 0
M  V30 1640 N 169.799 3.16962 -6.16041 0
M  V30 1641 N 171.592 2.72534 -4.91611 0
M  V30 1642 H 163.743 0.0322662 -2.12375 0
M  V30 1643 H 166.006 0.0768853 -0.944877 0
M  V30 1644 H 165.712 0.870773 -3.4075 0
M  V30 1645 H 165.586 2.51597 -2.81032 0
M  V30 1646 H 167.973 2.30644 -1.84086 0
M  V30 1647 H 168.054 0.655614 -2.47256 0
M  V30 1648 H 167.698 1.56482 -4.83193 0
M  V30 1649 H 167.628 3.21698 -4.16915 0
M  V30 1650 H 170.119 1.97585 -3.22131 0
M  V30 1651 H 170.432 3.49434 -6.89287 0
M  V30 1652 H 168.777 3.14875 -6.1958 0
M  V30 1653 H 171.968 2.37525 -4.0336 0
M  V30 1654 H 172.141 3.06789 -5.70775 0
M  V30 1655 N 165.547 1.27147 0.931209 0
M  V30 1656 C 166.793 1.13446 1.68101 0
M  V30 1657 C 167.126 -0.319628 1.91552 0
M  V30 1658 O 166.401 -1.23407 1.50336 0
M  V30 1659 C 166.684 1.91482 3.0497 0
M  V30 1660 C 166.537 3.44855 2.88782 0
M  V30 1661 C 167.856 1.71651 4.05246 0
M  V30 1662 H 164.975 0.413498 0.610072 0
M  V30 1663 H 167.617 1.56261 1.08086 0
M  V30 1664 H 165.767 1.55095 3.56199 0
M  V30 1665 H 167.439 3.9105 2.44698 0
M  V30 1666 H 165.682 3.71373 2.24198 0
M  V30 1667 H 166.353 3.94694 3.85902 0
M  V30 1668 H 168.829 2.0337 3.63015 0
M  V30 1669 H 167.705 2.28651 4.99009 0
M  V30 1670 H 167.966 0.663555 4.37092 0
M  V30 1671 N 167.025 -1.13721 1.09112 0
M  V30 1672 C 167.973 -2.21103 0.722219 0
M  V30 1673 C 168.967 -1.67147 -0.275374 0
M  V30 1674 O 170.173 -1.79477 -0.137176 0
M  V30 1675 H 166.548 -0.720445 0.215553 0
M  V30 1676 H 168.519 -2.49483 1.63709 0
M  V30 1677 C 167.268 -3.47352 0.15543 0
M  V30 1678 H 166.591 -3.89206 0.914246 0
M  V30 1679 H 168.031 -4.2395 -0.0647967 0
M  V30 1680 C 166.49 -3.1814 -1.10852 0
M  V30 1681 O 167.02 -3.36604 -2.19227 0
M  V30 1682 N 165.226 -2.72045 -1.02176 0
M  V30 1683 H 164.773 -2.57221 -0.139764 0
M  V30 1684 H 164.731 -2.52875 -1.8682 0
M  V30 1685 N 168.503 -0.877838 -1.30888 0
M  V30 1686 C 169.78 -0.413052 -1.91189 0
M  V30 1687 C 170.16 1.1056 -1.79832 0
M  V30 1688 O 169.508 1.93771 -1.21099 0
M  V30 1689 C 169.718 -0.903191 -3.3711 0
M  V30 1690 C 171.066 -0.93395 -4.14201 0
M  V30 1691 O 172.09 -0.849373 -3.45925 0
M  V30 1692 O 170.949 -1.05772 -5.36167 0
M  V30 1693 H 168.043 -0.125035 -0.817493 0
M  V30 1694 H 170.589 -0.966269 -1.39504 0
M  V30 1695 H 169.361 -1.94692 -3.39427 0
M  V30 1696 H 168.984 -0.328732 -3.96239 0
M  V30 1697 N 169.982 1.44106 -0.638065 0
M  V30 1698 C 171.207 2.0685 -0.150916 0
M  V30 1699 C 171.632 1.47417 1.16833 0
M  V30 1700 O 170.99 0.578264 1.71831 0
M  V30 1701 C 171.038 3.60555 -0.05708 0
M  V30 1702 O 170.142 4.00465 0.984972 0
M  V30 1703 H 169.483 0.658151 -0.0879399 0
M  V30 1704 H 172.013 1.84865 -0.876707 0
M  V30 1705 H 172.023 4.07789 0.131232 0
M  V30 1706 H 170.698 4.03193 -1.02021 0
M  V30 1707 H 169.275 3.64849 0.770672 0
M  V30 1708 N 171.46 0.379036 1.52974 0
M  V30 1709 C 172.709 -0.207612 2.00629 0
M  V30 1710 C 173.022 -1.48758 1.27006 0
M  V30 1711 O 174.228 -2.15365 1.65318 0
M  V30 1712 C 172.684 -0.42053 3.57435 0
M  V30 1713 C 172.292 0.845587 4.39948 0
M  V30 1714 C 174.036 -0.964102 4.13407 0
M  V30 1715 C 171.943 0.601513 5.88333 0
M  V30 1716 H 170.873 -0.0813591 0.749598 0
M  V30 1717 H 173.524 0.499853 1.76561 0
M  V30 1718 H 171.906 -1.18959 3.7771 0
M  V30 1719 H 173.08 1.61848 4.31442 0
M  V30 1720 H 171.395 1.31336 3.95145 0
M  V30 1721 H 173.992 -1.16225 5.21916 0
M  V30 1722 H 174.335 -1.93019 3.68849 0
M  V30 1723 H 174.868 -0.25487 3.96983 0
M  V30 1724 H 171.607 1.53831 6.37194 0
M  V30 1725 H 171.127 -0.132628 5.99653 0
M  V30 1726 H 172.806 0.232134 6.46583 0
M  V30 1727 N 172.938 -1.57226 0.108567 0
M  V30 1728 C 173.868 -2.17778 -0.84232 0
M  V30 1729 C 174.849 -1.11487 -1.2847 0
M  V30 1730 O 176.034 -1.39681 -1.34918 0
M  V30 1731 C 173.164 -2.76888 -2.09644 0
M  V30 1732 C 172.118 -3.88669 -1.79221 0
M  V30 1733 C 171.444 -4.34541 -3.11574 0
M  V30 1734 C 172.744 -5.11251 -1.06864 0
M  V30 1735 H 174.438 -2.97489 -0.337774 0
M  V30 1736 H 171.984 -1.43097 -0.161025 0
M  V30 1737 H 173.937 -3.17904 -2.76614 0
M  V30 1738 H 172.661 -1.94451 -2.62405 0
M  V30 1739 H 171.32 -3.48213 -1.14644 0
M  V30 1740 H 170.968 -3.48977 -3.62249 0
M  V30 1741 H 170.668 -5.09914 -2.91996 0
M  V30 1742 H 172.192 -4.782 -3.7968 0
M  V30 1743 H 173.606 -5.49352 -1.63968 0
M  V30 1744 H 172.003 -5.9214 -0.974178 0
M  V30 1745 H 173.073 -4.8487 -0.0536168 0
M  V30 1746 N 174.416 0.165178 -1.56732 0
M  V30 1747 C 175.663 0.880807 -1.8234 0
M  V30 1748 C 175.991 1.81977 -0.686621 0
M  V30 1749 O 175.246 1.92971 0.325697 0
M  V30 1750 C 175.545 1.70405 -3.1416 0
M  V30 1751 C 175.211 0.913475 -4.4155 0
M  V30 1752 C 173.873 0.695303 -4.7615 0
M  V30 1753 C 176.225 0.359349 -5.1996 0
M  V30 1754 C 173.553 -0.0879947 -5.86634 0
M  V30 1755 C 175.905 -0.410893 -6.31264 0
M  V30 1756 C 174.569 -0.639808 -6.64427 0
M  V30 1757 H 173.839 0.32231 -0.667231 0
M  V30 1758 H 176.486 0.145402 -1.90947 0
M  V30 1759 H 174.791 2.50903 -3.00923 0
M  V30 1760 H 176.488 2.26091 -3.31186 0
M  V30 1761 H 173.078 1.09357 -4.14414 0
M  V30 1762 H 177.262 0.515228 -4.93618 0
M  V30 1763 H 172.518 -0.27503 -6.10781 0
M  V30 1764 H 176.692 -0.847494 -6.91224 0
M  V30 1765 H 174.319 -1.24864 -7.49875 0
M  V30 1766 N 175.894 1.51508 0.433938 0
M  V30 1767 C 177.14 1.64588 1.18484 0
M  V30 1768 C 177.473 0.362666 1.90784 0
M  V30 1769 O 176.748 -0.637892 1.83742 0
M  V30 1770 C 177.031 2.85149 2.19913 0
M  V30 1771 C 176.884 4.23456 1.51674 0
M  V30 1772 C 178.203 3.01227 3.20858 0
M  V30 1773 H 175.322 0.598994 0.429389 0
M  V30 1774 H 177.964 1.84002 0.473647 0
M  V30 1775 H 176.114 2.68729 2.80566 0
M  V30 1776 H 177.786 4.51552 0.943322 0
M  V30 1777 H 176.029 4.25998 0.819035 0
M  V30 1778 H 176.7 5.03812 2.2556 0
M  V30 1779 H 179.176 3.16382 2.70263 0
M  V30 1780 H 178.052 3.87141 3.89118 0
M  V30 1781 H 178.313 2.13447 3.8716 0
M  V30 1782 N 177.372 -0.689602 1.41712 0
M  V30 1783 C 178.32 -1.82475 1.44242 0
M  V30 1784 C 179.314 -1.66354 0.319774 0
M  V30 1785 O 180.52 -1.73143 0.492089 0
M  V30 1786 H 176.895 -0.601416 0.451445 0
M  V30 1787 H 178.866 -1.77458 2.39899 0
M  V30 1788 C 177.615 -3.20535 1.3473 0
M  V30 1789 H 176.938 -3.33559 2.20405 0
M  V30 1790 H 178.378 -4.00023 1.40562 0
M  V30 1791 C 176.837 -3.36846 0.0603281 0
M  V30 1792 O 177.367 -3.91656 -0.892663 0
M  V30 1793 N 175.573 -2.90595 -0.0177039 0
M  V30 1794 H 175.12 -2.46178 0.758572 0
M  V30 1795 H 175.078 -3.01886 -0.878201 0
M  V30 1796 N 178.85 -1.27639 -0.924453 0
M  V30 1797 C 179.76 -1.12466 -2.05885 0
M  V30 1798 C 180.776 -0.053869 -1.73917 0
M  V30 1799 O 181.952 -0.261012 -1.99702 0
M  V30 1800 C 179.017 -0.776768 -3.37886 0
M  V30 1801 C 178.078 -1.92878 -3.83532 0
M  V30 1802 C 177.311 -1.59739 -5.09234 0
M  V30 1803 O 177.534 -0.506782 -5.68144 0
M  V30 1804 O 176.468 -2.43761 -5.50331 0
M  V30 1805 H 180.294 -2.07671 -2.21599 0
M  V30 1806 H 177.879 -1.06857 -1.04413 0
M  V30 1807 H 179.761 -0.596229 -4.17161 0
M  V30 1808 H 178.436 0.145732 -3.23372 0
M  V30 1809 H 177.343 -2.1644 -3.0513 0
M  V30 1810 H 178.676 -2.8316 -4.02593 0
M  V30 1811 N 180.328 1.1314 -1.09713 0
M  V30 1812 C 181.574 1.84757 -0.836224 0
M  V30 1813 C 181.907 1.8347 0.636598 0
M  V30 1814 O 181.182 1.27491 1.46889 0
M  V30 1815 C 181.465 3.32782 -1.37578 0
M  V30 1816 C 181.318 3.42567 -2.91493 0
M  V30 1817 C 182.637 4.28307 -1.01198 0
M  V30 1818 H 179.756 0.67082 -0.305236 0
M  V30 1819 H 182.398 1.3278 -1.35903 0
M  V30 1820 H 180.548 3.77177 -0.931097 0
M  V30 1821 H 182.22 3.06862 -3.44432 0
M  V30 1822 H 180.463 2.83349 -3.28475 0
M  V30 1823 H 181.134 4.46674 -3.24324 0
M  V30 1824 H 183.61 3.91999 -1.39556 0
M  V30 1825 H 182.486 5.30307 -1.41653 0
M  V30 1826 H 182.747 4.42029 0.0794833 0
M  V30 1827 N 181.806 0.884767 1.30421 0
M  V30 1828 C 183.083 0.423185 1.90967 0
M  V30 1829 C 183.463 -1.09605 1.80416 0
M  V30 1830 O 182.811 -1.93126 1.22125 0
M  V30 1831 C 183.021 0.921056 3.36627 0
M  V30 1832 C 184.369 0.955903 4.137 0
M  V30 1833 O 185.393 0.867706 3.4547 0
M  V30 1834 O 184.252 1.08614 5.35598 0
M  V30 1835 H 181.346 0.129369 0.816819 0
M  V30 1836 H 183.892 0.973653 1.3899 0
M  V30 1837 H 182.664 1.96489 3.3839 0
M  V30 1838 H 182.287 0.349741 3.96059 0
M  V30 1839 N 183.284 -1.43765 0.645699 0
M  V30 1840 C 184.53 -2.02197 0.156271 0
M  V30 1841 C 184.863 -1.50776 -1.22393 0
M  V30 1842 O 184.138 -0.697771 -1.81553 0
M  V30 1843 C 184.421 -3.59749 0.158872 0
M  V30 1844 C 184.274 -4.21419 1.57245 0
M  V30 1845 C 185.593 -4.37149 -0.50879 0
M  V30 1846 H 182.712 -0.734694 0.0582602 0
M  V30 1847 H 185.354 -1.71157 0.824951 0
M  V30 1848 H 183.504 -3.86325 -0.410525 0
M  V30 1849 H 185.176 -4.059 2.19186 0
M  V30 1850 H 183.419 -3.78356 2.122 0
M  V30 1851 H 184.09 -5.30482 1.52619 0
M  V30 1852 H 186.566 -4.16093 -0.024412 0
M  V30 1853 H 185.442 -5.4683 -0.476213 0
M  V30 1854 H 185.703 -4.12839 -1.58165 0
M  V30 1855 N 184.763 -0.387143 -1.52771 0
M  V30 1856 C 186.179 -0.037007 -1.59557 0
M  V30 1857 C 186.379 1.44801 -1.40124 0
M  V30 1858 O 185.435 2.21227 -1.21716 0
M  V30 1859 C 186.748 -0.512256 -2.96305 0
M  V30 1860 C 188.296 -0.468328 -3.09476 0
M  V30 1861 C 188.771 -0.919731 -4.4867 0
M  V30 1862 N 190.262 -0.875656 -4.54848 0
M  V30 1863 C 190.997 -1.19637 -5.6078 0
M  V30 1864 N 190.493 -1.58745 -6.74368 0
M  V30 1865 N 192.286 -1.11776 -5.50874 0
M  V30 1866 H 184.437 -1.35395 -1.63652 0
M  V30 1867 H 186.7 -0.554818 -0.768688 0
M  V30 1868 H 186.406 -1.54935 -3.15734 0
M  V30 1869 H 186.28 0.089805 -3.77093 0
M  V30 1870 H 188.667 0.559671 -2.89744 0
M  V30 1871 H 188.748 -1.10616 -2.30646 0
M  V30 1872 H 188.392 -1.94595 -4.69143 0
M  V30 1873 H 188.322 -0.258927 -5.25963 0
M  V30 1874 H 190.813 -0.587843 -3.733 0
M  V30 1875 H 191.126 -1.81586 -7.51163 0
M  V30 1876 H 189.471 -1.6263 -6.75705 0
M  V30 1877 H 192.662 -0.811264 -4.61016 0
M  V30 1878 H 192.835 -1.37103 -6.3333 0
M  V30 1879 N 186.241 1.57166 -0.116904 0
M  V30 1880 C 187.151 2.18745 0.847812 0
M  V30 1881 C 188.167 1.163 1.29423 0
M  V30 1882 O 189.343 1.48761 1.35765 0
M  V30 1883 C 186.408 2.77307 2.0809 0
M  V30 1884 C 185.469 3.94781 1.68661 0
M  V30 1885 C 184.702 4.50541 2.86091 0
M  V30 1886 O 184.925 4.05202 4.01456 0
M  V30 1887 O 183.859 5.41256 2.63298 0
M  V30 1888 H 187.685 3.01632 0.353778 0
M  V30 1889 H 185.27 1.49005 0.108599 0
M  V30 1890 H 187.152 3.14647 2.80313 0
M  V30 1891 H 185.827 1.97452 2.56504 0
M  V30 1892 H 184.734 3.62214 0.935518 0
M  V30 1893 H 186.067 4.76065 1.24991 0
M  V30 1894 N 187.719 -0.156864 1.56817 0
M  V30 1895 C 188.965 -0.872416 1.83076 0
M  V30 1896 C 189.298 -1.81261 0.697001 0
M  V30 1897 O 188.573 -1.92171 -0.30008 0
M  V30 1898 C 188.856 -1.65551 3.19789 0
M  V30 1899 C 188.709 -0.737467 4.43713 0
M  V30 1900 C 190.028 -2.62012 3.53606 0
M  V30 1901 H 187.147 -0.315715 0.665953 0
M  V30 1902 H 189.789 -0.138004 1.89498 0
M  V30 1903 H 187.939 -2.28159 3.14445 0
M  V30 1904 H 189.611 -0.123143 4.61136 0
M  V30 1905 H 187.854 -0.0464067 4.33775 0
M  V30 1906 H 188.525 -1.32122 5.35955 0
M  V30 1907 H 191.001 -2.09525 3.59497 0
M  V30 1908 H 189.877 -3.13861 4.50314 0
M  V30 1909 H 190.138 -3.42902 2.79053 0
M  V30 1910 N 189.197 -1.51736 -0.425897 0
M  V30 1911 C 190.425 -1.68794 -1.1965 0
M  V30 1912 C 190.84 -0.390164 -1.84725 0
M  V30 1913 O 190.197 0.632376 -1.71194 0
M  V30 1914 C 190.248 -2.81174 -2.27208 0
M  V30 1915 O 189.969 -4.05925 -1.64793 0
M  V30 1916 C 191.47 -3.09599 -3.17275 0
M  V30 1917 H 188.69 -0.566128 -0.360194 0
M  V30 1918 H 191.234 -1.98211 -0.503249 0
M  V30 1919 H 189.389 -2.54324 -2.9223 0
M  V30 1920 H 189.803 -4.68423 -2.35967 0
M  V30 1921 H 191.277 -3.91786 -3.88854 0
M  V30 1922 H 191.754 -2.22468 -3.78688 0
M  V30 1923 H 192.36 -3.38151 -2.57941 0
M  V30 1924 N 190.675 0.682077 -1.42076 0
M  V30 1925 C 191.625 1.78823 -1.41444 0
M  V30 1926 C 192.609 1.58323 -0.28681 0
M  V30 1927 O 193.801 1.68926 -0.528498 0
M  V30 1928 C 190.93 3.17232 -1.3122 0
M  V30 1929 C 190.016 3.4338 -2.489 0
M  V30 1930 N 190.407 3.40152 -3.7434 0
M  V30 1931 C 188.705 3.73986 -2.43003 0
M  V30 1932 C 189.406 3.65581 -4.52466 0
M  V30 1933 N 188.382 3.85989 -3.8277 0
M  V30 1934 H 192.184 1.7471 -2.36334 0
M  V30 1935 H 189.698 0.882622 -1.36321 0
M  V30 1936 H 191.695 3.96489 -1.2885 0
M  V30 1937 H 190.355 3.22547 -0.373263 0
M  V30 1938 H 191.366 3.20221 -4.07037 0
M  V30 1939 H 188.043 3.86591 -1.57651 0
M  V30 1940 H 189.433 3.69108 -5.61435 0
M  V30 1941 N 192.153 1.28127 0.917671 0
M  V30 1942 C 193.378 1.18007 1.70555 0
M  V30 1943 C 193.803 -0.258257 1.86319 0
M  V30 1944 O 193.161 -1.1869 1.37049 0
M  V30 1945 C 193.209 1.87948 3.07746 0
M  V30 1946 O 192.313 1.18427 3.9503 0
M  V30 1947 H 191.654 0.409867 0.522403 0
M  V30 1948 H 194.184 1.69379 1.1477 0
M  V30 1949 H 194.194 1.95701 3.58001 0
M  V30 1950 H 192.869 2.92573 2.95591 0
M  V30 1951 H 191.446 1.18811 3.53466 0
M  V30 1952 N 193.631 -1.12557 1.10312 0
M  V30 1953 C 194.594 -2.16434 0.75424 0
M  V30 1954 C 195.594 -1.59278 -0.220685 0
M  V30 1955 O 196.784 -1.742 0.00230591 0
M  V30 1956 C 193.916 -3.40699 0.116987 0
M  V30 1957 H 195.109 -2.48811 1.67431 0
M  V30 1958 H 192.662 -1.27542 0.903475 0
M  V30 1959 H 193.397 -3.13921 -0.813877 0
M  V30 1960 H 193.182 -3.83459 0.818613 0
M  V30 1961 H 194.672 -4.17451 -0.111387 0
M  V30 1962 N 195.109 -0.891671 -1.2995 0
M  V30 1963 C 196.072 -0.36828 -2.26222 0
M  V30 1964 C 197.072 0.493014 -1.53056 0
M  V30 1965 O 198.262 0.299213 -1.71611 0
M  V30 1966 C 195.394 0.47442 -3.37583 0
M  V30 1967 H 196.587 -1.21844 -2.74033 0
M  V30 1968 H 194.14 -0.669107 -1.41254 0
M  V30 1969 H 194.875 1.34489 -2.95099 0
M  V30 1970 H 194.66 -0.142615 -3.91841 0
M  V30 1971 H 196.15 0.83218 -4.09224 0
M  V30 1972 N 196.587 1.43421 -0.653314 0
M  V30 1973 C 197.833 2.02111 -0.166992 0
M  V30 1974 C 198.166 1.51423 1.21592 0
M  V30 1975 O 197.441 0.707389 1.8118 0
M  V30 1976 C 197.724 3.5966 -0.177948 0
M  V30 1977 C 197.577 4.20579 -1.59478 0
M  V30 1978 C 198.896 4.37413 0.4856 0
M  V30 1979 H 196.015 0.734374 -0.0621557 0
M  V30 1980 H 198.657 1.70717 -0.834016 0
M  V30 1981 H 196.807 3.86537 0.390032 0
M  V30 1982 H 198.479 4.04732 -2.21336 0
M  V30 1983 H 196.722 3.77226 -2.14204 0
M  V30 1984 H 197.393 5.29665 -1.5543 0
M  V30 1985 H 199.869 4.161 0.00234528 0
M  V30 1986 H 198.745 5.47075 0.447207 0
M  V30 1987 H 199.006 4.13672 1.55974 0
M  V30 1988 N 198.065 0.39524 1.52563 0
M  V30 1989 C 198.975 -0.444232 2.30356 0
M  V30 1990 C 199.991 -1.06615 1.37511 0
M  V30 1991 O 201.167 -1.07067 1.70583 0
M  V30 1992 C 198.232 -1.55315 3.09964 0
M  V30 1993 C 197.293 -0.955734 4.18526 0
M  V30 1994 C 196.526 -2.01181 4.9433 0
M  V30 1995 O 196.749 -3.22781 4.70285 0
M  V30 1996 O 195.683 -1.62579 5.79527 0
M  V30 1997 H 199.509 0.189667 3.03107 0
M  V30 1998 H 197.094 0.1588 1.48554 0
M  V30 1999 H 198.976 -2.19724 3.59582 0
M  V30 2000 H 197.651 -2.17191 2.4002 0
M  V30 2001 H 196.558 -0.274743 3.7309 0
M  V30 2002 H 197.891 -0.381109 4.90722 0
M  V30 2003 N 199.544 -1.57102 0.125237 0
M  V30 2004 C 200.507 -2.14471 -0.80838 0
M  V30 2005 C 201.507 -1.0811 -1.19033 0
M  V30 2006 O 202.697 -1.33856 -1.11482 0
M  V30 2007 C 199.829 -2.69005 -2.09402 0
M  V30 2008 H 201.022 -2.98297 -0.309696 0
M  V30 2009 H 198.575 -1.55807 -0.124051 0
M  V30 2010 H 199.31 -1.88785 -2.63687 0
M  V30 2011 H 199.095 -3.46799 -1.82957 0
M  V30 2012 H 200.585 -3.13278 -2.76128 0
M  V30 2013 N 201.022 0.148545 -1.56898 0
M  V30 2014 C 201.952 1.18524 -2.01182 0
M  V30 2015 C 202.933 1.4489 -0.891123 0
M  V30 2016 O 204.118 1.55836 -1.15882 0
M  V30 2017 C 201.248 2.51879 -2.39112 0
M  V30 2018 C 200.202 2.40038 -3.54353 0
M  V30 2019 C 199.528 3.78089 -3.78091 0
M  V30 2020 C 200.828 1.88577 -4.87069 0
M  V30 2021 H 202.522 0.817029 -2.88036 0
M  V30 2022 H 200.068 0.391575 -1.38574 0
M  V30 2023 H 202.021 3.24627 -2.68692 0
M  V30 2024 H 200.745 2.90532 -1.49193 0
M  V30 2025 H 199.404 1.69742 -3.24936 0
M  V30 2026 H 199.052 4.14175 -2.85426 0
M  V30 2027 H 198.752 3.71028 -4.55645 0
M  V30 2028 H 200.276 4.52387 -4.10095 0
M  V30 2029 H 201.69 2.51117 -5.15377 0
M  V30 2030 H 200.087 1.9241 -5.68417 0
M  V30 2031 H 201.157 0.84136 -4.77545 0
M  V30 2032 N 202.5 1.5196 0.417844 0
M  V30 2033 C 203.447 1.74678 1.50852 0
M  V30 2034 C 204.417 0.588947 1.55308 0
M  V30 2035 O 205.602 0.825544 1.72016 0
M  V30 2036 C 202.742 1.89544 2.88387 0
M  V30 2037 C 201.855 3.17166 2.93309 0
M  V30 2038 C 200.99 3.22513 4.22088 0
M  V30 2039 C 200.029 4.44372 4.20951 0
M  V30 2040 N 199.166 4.47161 5.41287 0
M  V30 2041 H 204.006 2.67768 1.30783 0
M  V30 2042 H 201.543 1.32689 0.63498 0
M  V30 2043 H 203.501 1.96146 3.68216 0
M  V30 2044 H 202.131 0.998424 3.06971 0
M  V30 2045 H 201.183 3.19778 2.06024 0
M  V30 2046 H 202.495 4.07021 2.88332 0
M  V30 2047 H 201.649 3.28139 5.10303 0
M  V30 2048 H 200.388 2.30581 4.29748 0
M  V30 2049 H 199.393 4.38902 3.31127 0
M  V30 2050 H 200.618 5.3759 4.14938 0
M  V30 2051 H 198.564 3.58108 5.49632 0
M  V30 2052 H 198.481 5.3085 5.3827 0
M  V30 2053 H 199.749 4.57005 6.3148 0
M  V30 2054 N 203.978 -0.674533 1.42435 0
M  V30 2055 C 204.888 -1.81751 1.48337 0
M  V30 2056 C 205.904 -1.69975 0.372099 0
M  V30 2057 O 207.08 -1.91521 0.62304 0
M  V30 2058 C 204.145 -3.17895 1.38361 0
M  V30 2059 C 203.206 -3.41625 2.59982 0
M  V30 2060 C 202.439 -4.71274 2.50473 0
M  V30 2061 O 202.662 -5.49197 1.54075 0
M  V30 2062 O 201.596 -4.96254 3.4061 0
M  V30 2063 H 205.422 -1.79728 2.44809 0
M  V30 2064 H 203.007 -0.830312 1.24202 0
M  V30 2065 H 204.889 -3.99136 1.35161 0
M  V30 2066 H 203.564 -3.20555 0.450144 0
M  V30 2067 H 202.471 -2.60231 2.68757 0
M  V30 2068 H 203.804 -3.43796 3.52229 0
M  V30 2069 N 205.456 -1.28612 -0.910864 0
M  V30 2070 C 206.419 -1.12803 -1.9952 0
M  V30 2071 C 207.419 -0.0668264 -1.60661 0
M  V30 2072 O 208.609 -0.312847 -1.71368 0
M  V30 2073 C 205.741 -0.72254 -3.33155 0
M  V30 2074 H 206.934 -2.09109 -2.14973 0
M  V30 2075 H 204.487 -1.11639 -1.09391 0
M  V30 2076 H 205.222 0.241152 -3.23402 0
M  V30 2077 H 205.007 -1.48916 -3.62721 0
M  V30 2078 H 206.497 -0.634666 -4.12749 0
M  V30 2079 N 206.934 1.1197 -1.10907 0
M  V30 2080 C 208.182 1.83225 -0.852819 0
M  V30 2081 C 208.503 1.84769 0.623341 0
M  V30 2082 O 207.773 1.3143 1.45269 0
M  V30 2083 H 206.353 0.67849 -0.312507 0
M  V30 2084 H 209.015 1.3556 -1.40033 0
M  V30 2085 H 208.111 2.87265 -1.22005 0
M  V30 2086 N 208.412 0.89855 1.29475 0
M  V30 2087 C 209.637 0.538561 2.00285 0
M  V30 2088 C 210.062 -0.869135 1.66816 0
M  V30 2089 O 209.42 -1.57831 0.892145 0
M  V30 2090 C 209.468 0.736475 3.52999 0
M  V30 2091 O 208.572 -0.211537 4.11857 0
M  V30 2092 H 207.913 0.210563 0.62973 0
M  V30 2093 H 210.443 1.20982 1.64998 0
M  V30 2094 H 210.453 0.640685 4.02938 0
M  V30 2095 H 209.128 1.76276 3.76696 0
M  V30 2096 H 207.705 -0.0682991 3.72837 0
M  V30 2097 N 209.89 -1.43072 0.660911 0
M  V30 2098 C 211.139 -2.00942 0.174735 0
M  V30 2099 C 211.452 -1.52797 -1.22117 0
M  V30 2100 O 212.658 -2.02991 -1.80297 0
M  V30 2101 C 211.114 -3.58948 0.261559 0
M  V30 2102 C 210.722 -4.16085 1.66064 0
M  V30 2103 C 212.466 -4.24173 -0.166617 0
M  V30 2104 C 210.373 -5.6641 1.70098 0
M  V30 2105 H 209.303 -0.751483 0.0615631 0
M  V30 2106 H 211.954 -1.63955 0.824069 0
M  V30 2107 H 210.336 -3.93372 -0.455421 0
M  V30 2108 H 211.51 -3.93147 2.40359 0
M  V30 2109 H 209.825 -3.6326 2.03546 0
M  V30 2110 H 212.422 -5.34471 -0.156433 0
M  V30 2111 H 212.765 -3.98647 -1.19943 0
M  V30 2112 H 213.298 -3.94659 0.498875 0
M  V30 2113 H 210.037 -5.96715 2.71315 0
M  V30 2114 H 209.557 -5.91382 1.00139 0
M  V30 2115 H 211.236 -6.30585 1.44816 0
M  V30 2116 N 211.368 -0.403325 -1.52352 0
M  V30 2117 C 212.614 0.174605 -2.02047 0
M  V30 2118 C 212.947 1.45282 -1.28867 0
M  V30 2119 O 212.222 1.90483 -0.393257 0
M  V30 2120 C 212.505 0.428238 -3.57545 0
M  V30 2121 C 212.358 -0.866248 -4.4138 0
M  V30 2122 C 213.677 1.21287 -4.23057 0
M  V30 2123 H 210.796 0.0619851 -0.734389 0
M  V30 2124 H 213.438 -0.53565 -1.82293 0
M  V30 2125 H 211.588 1.03327 -3.74507 0
M  V30 2126 H 213.26 -1.50265 -4.3614 0
M  V30 2127 H 211.503 -1.47851 -4.07827 0
M  V30 2128 H 212.174 -0.643249 -5.48239 0
M  V30 2129 H 214.65 0.700703 -4.10158 0
M  V30 2130 H 213.526 1.35909 -5.31808 0
M  V30 2131 H 213.787 2.23193 -3.81625 0
M  V30 2132 N 212.846 1.57033 -0.133567 0
M  V30 2133 C 214.262 1.58035 0.222944 0
M  V30 2134 C 214.462 1.14713 1.6566 0
M  V30 2135 O 213.518 0.841218 2.38075 0
M  V30 2136 C 214.831 3.00691 -0.0236116 0
M  V30 2137 C 216.379 3.12973 0.0411512 0
M  V30 2138 C 216.854 4.57654 -0.177899 0
M  V30 2139 N 218.345 4.63033 -0.124365 0
M  V30 2140 C 219.08 5.72771 -0.268553 0
M  V30 2141 N 218.576 6.91206 -0.46972 0
M  V30 2142 N 220.369 5.61718 -0.2071 0
M  V30 2143 H 212.52 1.8349 -1.06981 0
M  V30 2144 H 214.783 0.848677 -0.422436 0
M  V30 2145 H 214.489 3.36726 -1.0153 0
M  V30 2146 H 214.363 3.70614 0.701808 0
M  V30 2147 H 216.75 2.76787 1.02338 0
M  V30 2148 H 216.831 2.45564 -0.716383 0
M  V30 2149 H 216.475 4.94542 -1.15717 0
M  V30 2150 H 216.405 5.23173 0.599797 0
M  V30 2151 H 218.896 3.7789 0.027011 0
M  V30 2152 H 219.209 7.70693 -0.570212 0
M  V30 2153 H 217.554 6.93156 -0.505876 0
M  V30 2154 H 220.745 4.68072 -0.0507986 0
M  V30 2155 H 220.918 6.47195 -0.322909 0
M  V30 2156 N 214.325 -0.140222 1.56975 0
M  V30 2157 C 215.255 -1.17456 2.01808 0
M  V30 2158 C 216.236 -1.44415 0.898794 0
M  V30 2159 O 217.421 -1.5522 1.16707 0
M  V30 2160 C 214.551 -2.50607 2.40444 0
M  V30 2161 C 213.505 -2.38155 3.55621 0
M  V30 2162 C 212.831 -3.76078 3.80091 0
M  V30 2163 C 214.131 -1.85991 4.88062 0
M  V30 2164 H 215.825 -0.801743 2.88466 0
M  V30 2165 H 213.371 -0.38422 1.38779 0
M  V30 2166 H 215.324 -3.23197 2.7041 0
M  V30 2167 H 214.048 -2.89737 1.50732 0
M  V30 2168 H 212.707 -1.68016 3.25832 0
M  V30 2169 H 212.355 -4.12656 2.87618 0
M  V30 2170 H 212.055 -3.68606 4.57606 0
M  V30 2171 H 213.579 -4.50206 4.12488 0
M  V30 2172 H 214.993 -2.4838 5.16701 0
M  V30 2173 H 213.39 -1.89393 5.6943 0
M  V30 2174 H 214.46 -0.816023 4.77984 0
M  V30 2175 N 215.803 -1.52179 -0.40978 0
M  V30 2176 C 217.033 -1.69807 -1.17682 0
M  V30 2177 C 217.441 -0.406908 -1.84773 0
M  V30 2178 O 216.784 0.626863 -1.72673 0
M  V30 2179 C 216.846 -2.77712 -2.2829 0
M  V30 2180 C 216.51 -4.19481 -1.81341 0
M  V30 2181 C 217.507 -5.03345 -1.30154 0
M  V30 2182 C 215.192 -4.65713 -1.88194 0
M  V30 2183 C 217.186 -6.31511 -0.864416 0
M  V30 2184 C 214.873 -5.93869 -1.44093 0
M  V30 2185 C 215.871 -6.76597 -0.933023 0
M  V30 2186 O 215.559 -8.02354 -0.49838 0
M  V30 2187 H 215.291 -0.572372 -0.359675 0
M  V30 2188 H 217.845 -1.99511 -0.488311 0
M  V30 2189 H 216.075 -2.43383 -3.00502 0
M  V30 2190 H 217.764 -2.83946 -2.90051 0
M  V30 2191 H 218.53 -4.68819 -1.24232 0
M  V30 2192 H 214.409 -4.01424 -2.26671 0
M  V30 2193 H 217.953 -6.96033 -0.467286 0
M  V30 2194 H 213.85 -6.27903 -1.49694 0
M  V30 2195 H 214.618 -8.16135 -0.621747 0
M  V30 2196 N 217.281 0.66697 -1.42791 0
M  V30 2197 C 218.527 1.4291 -1.43891 0
M  V30 2198 C 218.86 1.94114 -0.0578972 0
M  V30 2199 O 218.135 1.71414 0.91911 0
M  V30 2200 C 218.418 2.62049 -2.46987 0
M  V30 2201 C 218.271 2.16426 -3.94309 0
M  V30 2202 C 219.59 3.64266 -2.46978 0
M  V30 2203 H 216.709 0.518306 -0.523954 0
M  V30 2204 H 219.351 0.757321 -1.74255 0
M  V30 2205 H 217.501 3.19361 -2.21225 0
M  V30 2206 H 219.173 1.64221 -4.31079 0
M  V30 2207 H 217.416 1.47925 -4.078 0
M  V30 2208 H 218.087 3.02038 -4.62036 0
M  V30 2209 H 220.563 3.16686 -2.69906 0
M  V30 2210 H 219.439 4.45196 -3.21079 0
M  V30 2211 H 219.7 4.15927 -1.49857 0
M  V30 2212 N 218.759 1.29093 0.90403 0
M  V30 2213 C 219.692 1.08176 2.00931 0
M  V30 2214 C 220.67 -0.005083 1.62599 0
M  V30 2215 O 221.854 0.144765 1.87943 0
M  V30 2216 C 218.981 0.645897 3.32484 0
M  V30 2217 C 218.027 1.73081 3.89801 0
M  V30 2218 S 218.86 3.32905 4.19446 0
M  V30 2219 C 220.016 2.91176 5.54046 0
M  V30 2220 H 220.249 2.01752 2.18365 0
M  V30 2221 H 217.782 1.13191 1.0501 0
M  V30 2222 H 219.74 0.401131 4.08535 0
M  V30 2223 H 218.401 -0.270188 3.12936 0
M  V30 2224 H 217.594 1.37768 4.84805 0
M  V30 2225 H 217.196 1.92888 3.20422 0
M  V30 2226 H 219.488 2.37952 6.34338 0
M  V30 2227 H 220.431 3.85014 5.94281 0
M  V30 2228 H 220.839 2.296 5.15698 0
M  V30 2229 N 220.237 -1.11381 1.11499 0
M  V30 2230 C 221.653 -1.35143 0.849031 0
M  V30 2231 C 221.853 -1.94515 -0.525938 0
M  V30 2232 O 220.909 -2.1785 -1.27662 0
M  V30 2233 C 222.222 -2.28249 1.95762 0
M  V30 2234 C 223.77 -2.41812 1.98736 0
M  V30 2235 C 224.245 -3.3824 3.088 0
M  V30 2236 N 225.736 -3.45803 3.08179 0
M  V30 2237 C 226.471 -4.20358 3.89982 0
M  V30 2238 N 225.967 -4.97884 4.8175 0
M  V30 2239 N 227.76 -4.15877 3.78157 0
M  V30 2240 H 219.911 -0.712062 2.00109 0
M  V30 2241 H 222.174 -0.376025 0.870235 0
M  V30 2242 H 221.88 -1.91817 2.94787 0
M  V30 2243 H 221.754 -3.28473 1.85433 0
M  V30 2244 H 224.141 -2.77518 1.00338 0
M  V30 2245 H 224.222 -1.41437 2.13141 0
M  V30 2246 H 223.866 -3.03261 4.07425 0
M  V30 2247 H 223.796 -4.38471 2.91635 0
M  V30 2248 H 226.287 -2.90506 2.41691 0
M  V30 2249 H 226.6 -5.52142 5.40702 0
M  V30 2250 H 224.945 -4.97043 4.85771 0
M  V30 2251 H 228.136 -3.544 3.05808 0
M  V30 2252 H 228.309 -4.73723 4.42143 0
M  V30 2253 N 221.715 -0.905404 -1.28997 0
M  V30 2254 C 223.131 -0.60233 -1.47798 0
M  V30 2255 C 223.331 0.854645 -1.82478 0
M  V30 2256 O 222.387 1.63439 -1.92468 0
M  V30 2257 C 223.7 -1.53306 -2.58685 0
M  V30 2258 C 225.248 -1.53887 -2.72558 0
M  V30 2259 C 225.723 -2.45602 -3.86579 0
M  V30 2260 N 227.214 -2.43681 -3.93921 0
M  V30 2261 C 227.949 -3.11347 -4.81509 0
M  V30 2262 N 227.445 -3.88313 -5.73746 0
M  V30 2263 N 229.238 -3.00476 -4.75048 0
M  V30 2264 H 221.389 -1.84765 -1.04764 0
M  V30 2265 H 223.652 -0.792025 -0.520961 0
M  V30 2266 H 223.358 -2.57141 -2.39941 0
M  V30 2267 H 223.232 -1.25787 -3.55609 0
M  V30 2268 H 225.619 -0.507941 -2.90696 0
M  V30 2269 H 225.7 -1.85447 -1.76191 0
M  V30 2270 H 225.344 -3.48792 -3.69197 0
M  V30 2271 H 225.274 -2.11349 -4.82327 0
M  V30 2272 H 227.765 -1.87767 -3.27951 0
M  V30 2273 H 228.078 -4.36985 -6.37389 0
M  V30 2274 H 226.423 -3.92419 -5.73614 0
M  V30 2275 H 229.614 -2.39858 -4.01977 0
M  V30 2276 H 229.787 -3.53485 -5.43095 0
M  V30 2277 N 223.193 1.4272 -0.668489 0
M  V30 2278 C 224.14 2.30796 0.0137489 0
M  V30 2279 C 225.11 1.4561 0.799177 0
M  V30 2280 O 226.295 1.74453 0.772702 0
M  V30 2281 C 223.435 3.31377 0.963507 0
M  V30 2282 C 222.548 4.31655 0.172569 0
M  V30 2283 C 221.683 5.19312 1.1175 0
M  V30 2284 C 220.722 6.11274 0.317886 0
M  V30 2285 N 219.859 6.91504 1.2152 0
M  V30 2286 H 224.699 2.88585 -0.743161 0
M  V30 2287 H 222.236 1.42154 -0.378226 0
M  V30 2288 H 224.194 3.88214 1.52792 0
M  V30 2289 H 222.824 2.75202 1.68712 0
M  V30 2290 H 221.876 3.76988 -0.508374 0
M  V30 2291 H 223.188 4.96779 -0.448527 0
M  V30 2292 H 222.342 5.80851 1.75206 0
M  V30 2293 H 221.081 4.5435 1.77249 0
M  V30 2294 H 220.086 5.48809 -0.329918 0
M  V30 2295 H 221.311 6.78283 -0.332917 0
M  V30 2296 H 219.257 6.29176 1.85671 0
M  V30 2297 H 219.174 7.53209 0.649036 0
M  V30 2298 H 220.442 7.57535 1.83742 0
M  V30 2299 N 224.671 0.411399 1.52136 0
M  V30 2300 C 226.082 -0.0576826 1.86611 0
M  V30 2301 C 226.433 -1.44238 1.33003 0
M  V30 2302 O 225.558 -2.05759 0.670228 0
M  V30 2303 C 226.153 -0.111448 3.38617 0
M  V30 2304 C 224.712 -0.52487 3.72723 0
M  V30 2305 C 223.859 0.299176 2.75681 0
M  V30 2306 H 226.81 0.628368 1.4573 0
M  V30 2307 H 226.831 -0.926252 3.69054 0
M  V30 2308 H 226.343 0.896488 3.77604 0
M  V30 2309 H 224.444 -1.53936 3.39315 0
M  V30 2310 H 224.557 -0.267681 4.78352 0
M  V30 2311 H 222.921 -0.238814 2.53578 0
M  V30 2312 H 223.704 1.3055 3.17508 0
M  V30 2313 N 226.149 -1.5696 0.141893 0
M  V30 2314 C 227.56 -1.82797 -0.379776 0
M  V30 2315 C 227.911 -1.06033 -1.6508 0
M  V30 2316 O 227.036 -0.304011 -2.14254 0
M  V30 2317 C 227.631 -3.31578 -0.695802 0
M  V30 2318 C 226.19 -3.58014 -1.16201 0
M  V30 2319 C 225.337 -2.76699 -0.182455 0
M  V30 2320 H 228.288 -1.54406 0.366675 0
M  V30 2321 H 228.309 -3.47454 -1.55099 0
M  V30 2322 H 227.821 -3.87421 0.229449 0
M  V30 2323 H 225.922 -3.07553 -2.10338 0
M  V30 2324 H 226.035 -4.66501 -1.09151 0
M  V30 2325 H 224.399 -2.45618 -0.674072 0
M  V30 2326 H 225.182 -3.35311 0.736297 0
M  V30 2327 N 227.627 0.131896 -1.57047 0
M  V30 2328 C 228.59 1.14638 -1.98471 0
M  V30 2329 C 229.59 1.35029 -0.873148 0
M  V30 2330 O 230.78 1.31764 -1.13946 0
M  V30 2331 C 227.912 2.50358 -2.31373 0
M  V30 2332 H 229.105 0.79064 -2.8929 0
M  V30 2333 H 226.658 0.375761 -1.51716 0
M  V30 2334 H 227.393 2.90876 -1.43393 0
M  V30 2335 H 227.178 2.36915 -3.12432 0
M  V30 2336 H 228.668 3.23395 -2.64207 0
M  V30 2337 N 229.106 1.52395 0.401703 0
M  V30 2338 C 230.016 1.7917 1.51444 0
M  V30 2339 C 231.032 0.677691 1.6026 0
M  V30 2340 O 232.208 0.963909 1.76835 0
M  V30 2341 C 229.273 1.94347 2.87107 0
M  V30 2342 C 228.334 3.18257 2.88116 0
M  V30 2343 C 227.567 3.32701 4.17308 0
M  V30 2344 O 227.79 2.52238 5.11598 0
M  V30 2345 O 226.724 4.25891 4.25324 0
M  V30 2346 H 230.55 2.73633 1.31752 0
M  V30 2347 H 228.135 1.3733 0.588296 0
M  V30 2348 H 230.017 2.06109 3.67555 0
M  V30 2349 H 228.692 1.03073 3.06851 0
M  V30 2350 H 227.599 3.11947 2.06494 0
M  V30 2351 H 228.932 4.09336 2.73322 0
M  V30 2352 N 230.584 -0.659388 1.43143 0
M  V30 2353 C 231.531 -1.77249 1.47822 0
M  V30 2354 C 232.501 -1.62818 0.328558 0
M  V30 2355 O 233.686 -1.83151 0.534838 0
M  V30 2356 C 230.826 -3.15371 1.40126 0
M  V30 2357 C 229.939 -3.4098 2.65249 0
M  V30 2358 C 229.074 -4.68915 2.49584 0
M  V30 2359 C 228.113 -4.87608 3.70006 0
M  V30 2360 N 227.25 -6.06796 3.53189 0
M  V30 2361 H 232.09 -1.72584 2.42938 0
M  V30 2362 H 229.627 -0.842297 1.20598 0
M  V30 2363 H 231.585 -3.9521 1.33659 0
M  V30 2364 H 230.215 -3.19121 0.485964 0
M  V30 2365 H 229.267 -2.55282 2.8202 0
M  V30 2366 H 230.579 -3.50681 3.54717 0
M  V30 2367 H 229.733 -5.56871 2.4079 0
M  V30 2368 H 228.472 -4.61524 1.5763 0
M  V30 2369 H 227.477 -3.9809 3.79215 0
M  V30 2370 H 228.702 -4.96834 4.62961 0
M  V30 2371 H 226.648 -6.00549 2.63965 0
M  V30 2372 H 226.565 -6.17428 4.36255 0
M  V30 2373 H 227.833 -6.9739 3.48236 0
M  V30 2374 N 232.062 -1.29571 -0.897171 0
M  V30 2375 C 233.308 -1.17863 -1.65034 0
M  V30 2376 C 233.641 0.268729 -1.92332 0
M  V30 2377 O 232.916 1.19378 -1.53555 0
M  V30 2378 C 233.199 -1.995 -2.99786 0
M  V30 2379 C 233.052 -3.5239 -2.79538 0
M  V30 2380 C 234.371 -1.82335 -4.00552 0
M  V30 2381 H 231.49 -0.429528 -0.598895 0
M  V30 2382 H 234.132 -1.59072 -1.03905 0
M  V30 2383 H 232.282 -1.64485 -3.51962 0
M  V30 2384 H 233.954 -3.97401 -2.34244 0
M  V30 2385 H 232.197 -3.77187 -2.14273 0
M  V30 2386 H 232.868 -4.04787 -3.75302 0
M  V30 2387 H 235.344 -2.12924 -3.57495 0
M  V30 2388 H 234.22 -2.41801 -4.92771 0
M  V30 2389 H 234.481 -0.779209 -4.35179 0
M  V30 2390 N 233.54 1.10788 -1.12088 0
M  V30 2391 C 234.473 2.16237 -0.729168 0
M  V30 2392 C 235.451 1.60207 0.277921 0
M  V30 2393 O 236.635 1.87707 0.172737 0
M  V30 2394 C 233.762 3.38609 -0.0786848 0
M  V30 2395 C 232.808 4.13322 -1.05201 0
M  V30 2396 S 233.641 4.69371 -2.57781 0
M  V30 2397 C 234.797 5.95058 -1.94053 0
M  V30 2398 H 235.03 2.4913 -1.62239 0
M  V30 2399 H 232.563 1.22519 -0.939603 0
M  V30 2400 H 234.521 4.09473 0.290254 0
M  V30 2401 H 233.182 3.03962 0.791593 0
M  V30 2402 H 232.375 5.01051 -0.544433 0
M  V30 2403 H 231.977 3.48251 -1.36371 0
M  V30 2404 H 234.269 6.65278 -1.28107 0
M  V30 2405 H 235.212 6.50472 -2.79807 0
M  V30 2406 H 235.62 5.46918 -1.39787 0
M  V30 2407 N 235.018 0.912232 1.28515 0
M  V30 2408 C 235.928 0.404506 2.31086 0
M  V30 2409 C 236.944 -0.50707 1.66448 0
M  V30 2410 O 238.12 -0.393624 1.97516 0
M  V30 2411 C 235.185 -0.348572 3.44943 0
M  V30 2412 C 234.246 0.59604 4.25142 0
M  V30 2413 C 233.479 -0.121194 5.33562 0
M  V30 2414 O 233.702 -1.34317 5.5436 0
M  V30 2415 O 232.636 0.542716 5.99448 0
M  V30 2416 H 236.462 1.25579 2.76521 0
M  V30 2417 H 234.047 0.676998 1.33181 0
M  V30 2418 H 235.929 -0.77395 4.14232 0
M  V30 2419 H 234.604 -1.17571 3.01594 0
M  V30 2420 H 233.511 1.07079 3.58448 0
M  V30 2421 H 234.844 1.38995 4.72167 0
M  V30 2422 N 236.496 -1.42363 0.676048 0
M  V30 2423 C 237.745 -2.00745 0.196037 0
M  V30 2424 C 238.058 -1.54083 -1.20489 0
M  V30 2425 O 239.264 -2.04891 -1.78134 0
M  V30 2426 C 237.72 -3.58651 0.299616 0
M  V30 2427 C 237.328 -4.143 1.70468 0
M  V30 2428 C 239.072 -4.24326 -0.121619 0
M  V30 2429 C 236.979 -5.64574 1.76096 0
M  V30 2430 H 235.909 -0.750787 0.0695301 0
M  V30 2431 H 238.56 -1.63072 0.841412 0
M  V30 2432 H 236.942 -3.93833 -0.413673 0
M  V30 2433 H 238.116 -3.90575 2.44515 0
M  V30 2434 H 236.431 -3.61081 2.07387 0
M  V30 2435 H 239.028 -5.34607 -0.0997362 0
M  V30 2436 H 239.371 -3.99897 -1.15708 0
M  V30 2437 H 239.904 -3.94108 0.540706 0
M  V30 2438 H 236.643 -5.93804 2.77628 0
M  V30 2439 H 236.163 -5.90286 1.06406 0
M  V30 2440 H 237.842 -6.29013 1.51496 0
M  V30 2441 N 237.974 -0.419461 -1.51915 0
M  V30 2442 C 238.921 0.400927 -2.27291 0
M  V30 2443 C 239.891 1.03224 -1.30131 0
M  V30 2444 O 241.076 1.05455 -1.59009 0
M  V30 2445 C 238.216 1.50603 -3.10504 0
M  V30 2446 C 237.329 0.89462 -4.22635 0
M  V30 2447 C 236.464 1.97328 -4.93189 0
M  V30 2448 C 235.503 1.33935 -5.97267 0
M  V30 2449 N 234.64 2.3586 -6.61298 0
M  V30 2450 H 239.48 -0.248251 -2.96964 0
M  V30 2451 H 237.017 -0.134266 -1.46486 0
M  V30 2452 H 238.975 2.15783 -3.57062 0
M  V30 2453 H 237.605 2.12509 -2.42981 0
M  V30 2454 H 236.657 0.131583 -3.80172 0
M  V30 2455 H 237.969 0.391641 -4.9726 0
M  V30 2456 H 237.123 2.70211 -5.43204 0
M  V30 2457 H 235.862 2.50994 -4.18155 0
M  V30 2458 H 234.867 0.595896 -5.46561 0
M  V30 2459 H 236.092 0.810252 -6.74249 0
M  V30 2460 H 234.038 2.88639 -5.89087 0
M  V30 2461 H 233.955 1.90403 -7.3163 0
M  V30 2462 H 235.223 3.08282 -7.15949 0
M  V30 2463 N 239.452 1.56882 -0.150215 0
M  V30 2464 C 240.382 2.19935 0.784284 0
M  V30 2465 C 241.363 1.14854 1.25469 0
M  V30 2466 O 242.548 1.43209 1.31168 0
M  V30 2467 C 239.678 2.82349 2.02229 0
M  V30 2468 C 238.632 3.93285 1.68853 0
M  V30 2469 C 237.958 4.42649 2.99944 0
M  V30 2470 C 239.258 5.13904 0.932714 0
M  V30 2471 H 240.952 2.9828 0.258781 0
M  V30 2472 H 238.498 1.43473 0.123029 0
M  V30 2473 H 240.451 3.25126 2.68088 0
M  V30 2474 H 239.175 2.0134 2.57157 0
M  V30 2475 H 237.834 3.5113 1.05371 0
M  V30 2476 H 237.482 3.58458 3.52869 0
M  V30 2477 H 237.182 5.17476 2.78374 0
M  V30 2478 H 238.706 4.88099 3.66868 0
M  V30 2479 H 240.12 5.53506 1.49345 0
M  V30 2480 H 238.517 5.94515 0.81684 0
M  V30 2481 H 239.587 4.84842 -0.0749568 0
M  V30 2482 N 240.93 -0.123565 1.57115 0
M  V30 2483 C 242.179 -0.830704 1.83799 0
M  V30 2484 C 242.492 -1.81259 0.735158 0
M  V30 2485 O 243.698 -2.56558 0.888278 0
M  V30 2486 C 242.154 -1.52802 3.25852 0
M  V30 2487 C 241.762 -0.587356 4.44133 0
M  V30 2488 C 243.506 -2.22056 3.61789 0
M  V30 2489 C 241.413 -1.28764 5.77212 0
M  V30 2490 H 240.343 -0.313967 0.685522 0
M  V30 2491 H 242.994 -0.0834359 1.8331 0
M  V30 2492 H 241.376 -2.32175 3.20797 0
M  V30 2493 H 242.55 0.172829 4.60476 0
M  V30 2494 H 240.865 -0.00201892 4.164 0
M  V30 2495 H 243.462 -2.75131 4.58483 0
M  V30 2496 H 243.805 -2.99644 2.88997 0
M  V30 2497 H 244.338 -1.49576 3.68608 0
M  V30 2498 H 241.077 -0.55314 6.53162 0
M  V30 2499 H 240.597 -2.01995 5.64764 0
M  V30 2500 H 242.276 -1.8221 6.20813 0
M  V30 2501 N 242.408 -1.52605 -0.393616 0
M  V30 2502 C 243.355 -1.77055 -1.48054 0
M  V30 2503 C 244.325 -0.61358 -1.54352 0
M  V30 2504 O 245.51 -0.852806 -1.70681 0
M  V30 2505 C 242.65 -1.94108 -2.85335 0
M  V30 2506 C 241.763 -3.21792 -2.88226 0
M  V30 2507 C 240.898 -3.29188 -4.16904 0
M  V30 2508 C 239.937 -4.51013 -4.13828 0
M  V30 2509 N 239.074 -4.55716 -5.34105 0
M  V30 2510 H 243.914 -2.69815 -1.26506 0
M  V30 2511 H 241.451 -1.33683 -0.61379 0
M  V30 2512 H 243.409 -2.01979 -3.65049 0
M  V30 2513 H 242.039 -1.04713 -3.05344 0
M  V30 2514 H 241.091 -3.23015 -2.00911 0
M  V30 2515 H 242.403 -4.11557 -2.8182 0
M  V30 2516 H 241.557 -3.36216 -5.05018 0
M  V30 2517 H 240.296 -2.37389 -4.26026 0
M  V30 2518 H 239.301 -4.44115 -3.24102 0
M  V30 2519 H 240.526 -5.44123 -4.06333 0
M  V30 2520 H 238.472 -3.66807 -5.43865 0
M  V30 2521 H 238.389 -5.39346 -5.29756 0
M  V30 2522 H 239.657 -4.66993 -6.2413 0
M  V30 2523 N 243.887 0.651787 -1.4349 0
M  V30 2524 C 245.135 1.40888 -1.44897 0
M  V30 2525 C 245.456 1.94856 -0.0749086 0
M  V30 2526 O 244.726 1.74518 0.889956 0
M  V30 2527 H 243.306 0.522887 -0.533478 0
M  V30 2528 H 245.968 0.768609 -1.79104 0
M  V30 2529 H 245.064 2.25052 -2.16236 0
M  V30 2530 N 245.365 1.30045 0.890287 0
M  V30 2531 C 246.776 1.16738 1.45702 0
M  V30 2532 C 247.127 -0.233939 1.948 0
M  V30 2533 O 246.252 -1.13021 1.84541 0
M  V30 2534 C 246.847 2.11313 2.64825 0
M  V30 2535 C 245.406 2.02001 3.17604 0
M  V30 2536 C 244.553 2.01699 1.90296 0
M  V30 2537 H 247.504 1.42392 0.700726 0
M  V30 2538 H 247.525 1.69086 3.40867 0
M  V30 2539 H 247.037 3.13294 2.2906 0
M  V30 2540 H 245.138 1.03142 3.5804 0
M  V30 2541 H 245.251 2.90128 3.81264 0
M  V30 2542 H 243.615 1.46427 2.08402 0
M  V30 2543 H 244.398 3.05402 1.56795 0
M  V30 2544 N 246.843 -1.10192 1.12674 0
M  V30 2545 C 247.79 -2.16606 0.796906 0
M  V30 2546 C 248.76 -1.64394 -0.237476 0
M  V30 2547 O 249.945 -1.90474 -0.111484 0
M  V30 2548 C 247.085 -3.44116 0.26043 0
M  V30 2549 C 246.198 -4.10268 1.35293 0
M  V30 2550 C 245.333 -5.25507 0.775621 0
M  V30 2551 C 244.372 -5.83567 1.84706 0
M  V30 2552 N 243.509 -6.90179 1.28829 0
M  V30 2553 H 248.349 -2.44163 1.70846 0
M  V30 2554 H 245.886 -1.19846 0.85295 0
M  V30 2555 H 247.844 -4.17143 -0.0686814 0
M  V30 2556 H 246.474 -3.16901 -0.614274 0
M  V30 2557 H 245.526 -3.35184 1.79877 0
M  V30 2558 H 246.838 -4.4946 2.16303 0
M  V30 2559 H 245.992 -6.05398 0.397327 0
M  V30 2560 H 244.731 -4.87656 -0.0656581 0
M  V30 2561 H 243.736 -5.02344 2.23452 0
M  V30 2562 H 244.961 -6.23482 2.69161 0
M  V30 2563 H 242.907 -6.54322 0.468881 0
M  V30 2564 H 242.824 -7.28097 2.03497 0
M  V30 2565 H 244.092 -7.73844 0.937311 0
M  V30 2566 N 248.321 -0.919034 -1.28029 0
M  V30 2567 C 249.569 -0.553838 -1.94363 0
M  V30 2568 C 249.89 0.906357 -1.72656 0
M  V30 2569 O 249.16 1.64143 -1.0693 0
M  V30 2570 H 247.74 -0.201834 -0.719216 0
M  V30 2571 H 250.402 -1.16954 -1.55909 0
M  V30 2572 H 249.498 -0.752758 -3.02886 0
M  V30 2573 N 249.799 1.42003 -0.683588 0
M  V30 2574 C 250.729 2.33487 -0.024866 0
M  V30 2575 C 251.71 1.51163 0.779975 0
M  V30 2576 O 252.895 1.79739 0.735362 0
M  V30 2577 C 250.025 3.3487 0.920836 0
M  V30 2578 C 248.979 4.27414 0.223958 0
M  V30 2579 C 248.305 5.19074 1.2832 0
M  V30 2580 C 249.605 5.14445 -0.90242 0
M  V30 2581 H 251.299 2.88819 -0.788921 0
M  V30 2582 H 248.845 1.38873 -0.38083 0
M  V30 2583 H 250.798 3.97787 1.39081 0
M  V30 2584 H 249.522 2.77861 1.71642 0
M  V30 2585 H 248.181 3.65904 -0.225864 0
M  V30 2586 H 247.829 4.58387 2.071 0
M  V30 2587 H 247.529 5.81822 0.821995 0
M  V30 2588 H 249.053 5.84867 1.75392 0
M  V30 2589 H 250.467 5.70998 -0.513272 0
M  V30 2590 H 248.864 5.86072 -1.28997 0
M  V30 2591 H 249.934 4.52322 -1.74737 0
M  V30 2592 N 251.277 0.427512 1.51691 0
M  V30 2593 C 252.525 -0.141948 2.01601 0
M  V30 2594 C 252.846 -1.44067 1.31414 0
M  V30 2595 O 252.116 -1.90763 0.445658 0
M  V30 2596 H 250.696 -0.0554468 0.744939 0
M  V30 2597 H 253.358 0.567968 1.86441 0
M  V30 2598 H 252.454 -0.324913 3.10404 0
M  V30 2599 N 252.755 -1.56801 0.158532 0
M  V30 2600 C 254.002 -1.9649 -0.489679 0
M  V30 2601 C 254.33 -1.04394 -1.6411 0
M  V30 2602 O 253.585 -0.0754401 -1.95555 0
M  V30 2603 C 253.884 -3.4235 -1.02623 0
M  V30 2604 C 253.55 -4.50899 0.00794526 0
M  V30 2605 C 252.212 -4.80312 0.292207 0
M  V30 2606 C 254.564 -5.16333 0.710584 0
M  V30 2607 C 251.892 -5.72461 1.28472 0
M  V30 2608 C 254.244 -6.09553 1.69199 0
M  V30 2609 C 252.908 -6.37339 1.98383 0
M  V30 2610 H 252.178 -0.719009 -0.179186 0
M  V30 2611 H 254.825 -1.8989 0.247798 0
M  V30 2612 H 253.13 -3.45838 -1.84128 0
M  V30 2613 H 254.827 -3.70393 -1.53656 0
M  V30 2614 H 251.417 -4.28015 -0.22379 0
M  V30 2615 H 255.601 -4.93732 0.504174 0
M  V30 2616 H 250.857 -5.92278 1.51714 0
M  V30 2617 H 255.031 -6.59327 2.24189 0
M  V30 2618 H 252.658 -7.08546 2.7544 0
M  V30 2619 N 254.233 0.115231 -1.57178 0
M  V30 2620 C 255.458 0.840354 -1.89612 0
M  V30 2621 C 255.883 1.72464 -0.750845 0
M  V30 2622 O 255.241 1.78826 0.298478 0
M  V30 2623 C 255.289 1.64654 -3.20814 0
M  V30 2624 O 254.393 2.7538 -3.06985 0
M  V30 2625 H 253.734 0.232158 -0.622092 0
M  V30 2626 H 256.264 0.0964977 -2.04372 0
M  V30 2627 H 256.274 2.03499 -3.53627 0
M  V30 2628 H 254.949 0.997416 -4.03763 0
M  V30 2629 H 253.526 2.3971 -2.85646 0
M  V30 2630 N 255.711 1.52812 0.385517 0
M  V30 2631 C 256.96 1.67249 1.12741 0
M  V30 2632 C 257.273 0.4205 1.91027 0
M  V30 2633 O 258.479 0.445064 2.67827 0
M  V30 2634 C 256.935 2.95583 2.05326 0
M  V30 2635 C 256.543 4.27974 1.32447 0
M  V30 2636 C 258.287 3.19386 2.7963 0
M  V30 2637 C 256.194 5.47412 2.23818 0
M  V30 2638 H 255.124 0.6231 0.424573 0
M  V30 2639 H 257.775 1.79309 0.389924 0
M  V30 2640 H 256.157 2.77277 2.82725 0
M  V30 2641 H 257.331 4.56844 0.602495 0
M  V30 2642 H 255.646 4.10459 0.700885 0
M  V30 2643 H 258.243 4.05801 3.48181 0
M  V30 2644 H 258.586 2.34604 3.43899 0
M  V30 2645 H 259.119 3.38274 2.09322 0
M  V30 2646 H 255.858 6.34612 1.64157 0
M  V30 2647 H 255.378 5.22849 2.93921 0
M  V30 2648 H 257.057 5.81423 2.83824 0
M  V30 2649 N 257.189 -0.644168 1.43834 0
M  V30 2650 C 258.152 -1.73857 1.49353 0
M  V30 2651 C 259.152 -1.56315 0.377112 0
M  V30 2652 O 260.342 -1.62048 0.639226 0
M  V30 2653 C 257.474 -3.12819 1.35488 0
M  V30 2654 H 258.667 -1.70342 2.46827 0
M  V30 2655 H 256.22 -0.856652 1.30733 0
M  V30 2656 H 256.955 -3.2194 0.390569 0
M  V30 2657 H 256.74 -3.26958 2.16428 0
M  V30 2658 H 258.23 -3.92606 1.42302 0
M  V30 2659 N 258.668 -1.30515 -0.883378 0
M  V30 2660 C 259.916 -1.19194 -1.63209 0
M  V30 2661 C 260.237 0.253205 -1.93349 0
M  V30 2662 O 259.507 1.17025 -1.57105 0
M  V30 2663 H 258.087 -0.438148 -0.605009 0
M  V30 2664 H 260.749 -1.63663 -1.05832 0
M  V30 2665 H 259.845 -1.75396 -2.58153 0
M  V30 2666 N 260.146 1.09593 -1.13257 0
M  V30 2667 C 261.394 1.81375 -0.891492 0
M  V30 2668 C 261.715 1.86049 0.584009 0
M  V30 2669 O 260.985 1.34481 1.42449 0
M  V30 2670 H 259.565 0.671708 -0.326828 0
M  V30 2671 H 262.227 1.3256 -1.42877 0
M  V30 2672 H 261.323 2.84612 -1.28071 0
M  V30 2673 N 261.624 0.925811 1.2754 0
M  V30 2674 C 262.87 0.566092 1.94739 0
M  V30 2675 C 263.203 -0.890057 1.72603 0
M  V30 2676 O 262.478 -1.63467 1.05399 0
M  V30 2677 C 262.761 0.89054 3.48915 0
M  V30 2678 C 262.614 2.4003 3.80402 0
M  V30 2679 C 263.933 0.395101 4.38323 0
M  V30 2680 H 261.052 0.20714 0.707292 0
M  V30 2681 H 263.694 1.15725 1.50691 0
M  V30 2682 H 261.844 0.387452 3.86563 0
M  V30 2683 H 263.516 2.97494 3.52555 0
M  V30 2684 H 261.759 2.85028 3.2702 0
M  V30 2685 H 262.43 2.57785 4.8811 0
M  V30 2686 H 264.906 0.826241 4.07814 0
M  V30 2687 H 263.782 0.651086 5.45025 0
M  V30 2688 H 264.043 -0.704798 4.36446 0
M  V30 2689 N 263.102 -1.41638 0.69111 0
M  V30 2690 C 264.35 -2.00902 0.219758 0
M  V30 2691 C 264.671 -1.54994 -1.18329 0
M  V30 2692 O 263.941 -0.778628 -1.79762 0
M  V30 2693 H 262.521 -0.74289 0.0782558 0
M  V30 2694 H 265.183 -1.73327 0.891271 0
M  V30 2695 H 264.279 -3.11224 0.233708 0
M  V30 2696 N 264.58 -0.43555 -1.51462 0
M  V30 2697 C 265.528 0.391205 -2.29287 0
M  V30 2698 C 266.522 1.02247 -1.35062 0
M  V30 2699 O 267.728 0.957646 -1.52411 0
M  V30 2700 H 264.103 0.144968 -0.737895 0
M  V30 2701 H 266.074 -0.286051 -2.97026 0
M  V30 2702 C 264.823 1.48096 -3.14583 0
M  V30 2703 H 264.146 1.00457 -3.86973 0
M  V30 2704 H 265.586 2.03273 -3.72097 0
M  V30 2705 C 264.045 2.46321 -2.29843 0
M  V30 2706 O 264.575 3.50815 -1.95682 0
M  V30 2707 N 262.781 2.17166 -1.931 0
M  V30 2708 H 262.328 1.32218 -2.21079 0
M  V30 2709 H 262.286 2.83127 -1.36698 0
M  V30 2710 N 266.058 1.56714 -0.166846 0
M  V30 2711 C 266.99 2.14914 0.796537 0
M  V30 2712 C 268.003 1.10357 1.19688 0
M  V30 2713 O 269.192 1.37561 1.13751 0
M  V30 2714 C 266.292 2.67326 2.08303 0
M  V30 2715 C 265.465 3.96493 1.84696 0
M  V30 2716 C 264.524 4.34014 2.97521 0
M  V30 2717 O 263.55 5.01973 2.6835 0
M  V30 2718 N 264.752 3.95208 4.25196 0
M  V30 2719 H 267.517 2.98205 0.299006 0
M  V30 2720 H 265.078 1.61892 0.0160839 0
M  V30 2721 H 267.07 2.89428 2.82867 0
M  V30 2722 H 265.64 1.88649 2.4926 0
M  V30 2723 H 264.86 3.82814 0.940602 0
M  V30 2724 H 266.148 4.8086 1.66285 0
M  V30 2725 H 265.546 3.40487 4.51758 0
M  V30 2726 H 264.103 4.2232 4.96477 0
M  V30 2727 N 267.536 -0.106894 1.57237 0
M  V30 2728 C 268.486 -1.1366 1.9765 0
M  V30 2729 C 269.47 -1.36416 0.853203 0
M  V30 2730 O 270.662 -1.37305 1.11697 0
M  V30 2731 C 267.791 -2.46 2.39455 0
M  V30 2732 C 266.877 -2.26668 3.58445 0
M  V30 2733 N 267.268 -1.77176 4.73754 0
M  V30 2734 C 265.566 -2.57279 3.64312 0
M  V30 2735 C 266.267 -1.71836 5.5574 0
M  V30 2736 N 265.243 -2.16623 4.98573 0
M  V30 2737 H 269.045 -0.74669 2.84256 0
M  V30 2738 H 266.559 -0.314483 1.59326 0
M  V30 2739 H 268.556 -3.2049 2.6663 0
M  V30 2740 H 267.216 -2.85738 1.54219 0
M  V30 2741 H 268.227 -1.46545 4.96734 0
M  V30 2742 H 264.904 -3.00622 2.89711 0
M  V30 2743 H 266.294 -1.34723 6.58255 0
M  V30 2744 N 269.014 -1.53014 -0.377408 0
M  V30 2745 C 270.263 -1.67845 -1.11853 0
M  V30 2746 C 270.576 -0.430625 -1.90801 0
M  V30 2747 O 271.782 -0.459261 -2.67587 0
M  V30 2748 C 270.238 -2.96668 -2.03756 0
M  V30 2749 C 269.846 -4.28671 -1.30175 0
M  V30 2750 C 271.59 -3.20865 -2.77932 0
M  V30 2751 C 269.497 -5.48591 -2.20911 0
M  V30 2752 H 268.427 -0.625343 -0.421263 0
M  V30 2753 H 271.078 -1.79514 -0.380409 0
M  V30 2754 H 269.46 -2.78773 -2.8125 0
M  V30 2755 H 270.634 -4.57157 -0.578259 0
M  V30 2756 H 268.949 -4.10825 -0.679108 0
M  V30 2757 H 271.546 -4.07642 -3.46024 0
M  V30 2758 H 271.889 -2.36424 -3.4265 0
M  V30 2759 H 272.422 -3.39379 -2.07525 0
M  V30 2760 H 269.161 -6.35474 -1.6079 0
M  V30 2761 H 268.681 -5.244 -2.91144 0
M  V30 2762 H 270.36 -5.8292 -2.80736 0
M  V30 2763 N 270.492 0.636531 -1.44174 0
M  V30 2764 C 271.903 1.21806 -1.41493 0
M  V30 2765 C 272.254 1.95785 -0.1275 0
M  V30 2766 O 271.379 2.02147 0.772376 0
M  V30 2767 C 271.974 2.21551 -2.56321 0
M  V30 2768 C 270.533 2.75143 -2.56853 0
M  V30 2769 C 269.68 1.50052 -2.33195 0
M  V30 2770 H 272.631 0.427531 -1.52833 0
M  V30 2771 H 272.652 3.0405 -2.28765 0
M  V30 2772 H 272.164 1.67679 -3.50008 0
M  V30 2773 H 270.265 3.33033 -1.67093 0
M  V30 2774 H 270.378 3.2155 -3.55165 0
M  V30 2775 H 268.742 1.77993 -1.82183 0
M  V30 2776 H 269.525 0.980903 -3.28988 0
M  V30 2777 N 271.97 1.30982 0.876444 0
M  V30 2778 C 273.218 1.20058 1.62575 0
M  V30 2779 C 273.539 -0.242947 1.93481 0
M  V30 2780 O 272.809 -1.1619 1.57724 0
M  V30 2781 H 271.389 0.44135 0.602677 0
M  V30 2782 H 274.051 1.64222 1.04962 0
M  V30 2783 H 273.147 1.76762 2.57219 0
M  V30 2784 N 273.449 -1.08991 1.13837 0
M  V30 2785 C 274.726 -1.77863 0.813876 0
M  V30 2786 C 275.106 -1.99375 -0.693746 0
M  V30 2787 O 274.454 -1.59875 -1.63255 0
M  V30 2788 C 274.664 -3.0986 1.60586 0
M  V30 2789 C 276.012 -3.84493 1.8014 0
M  V30 2790 O 277.036 -3.19624 1.57222 0
M  V30 2791 O 275.895 -5.00957 2.18413 0
M  V30 2792 H 272.989 -0.771589 0.297624 0
M  V30 2793 H 275.535 -1.15507 1.24323 0
M  V30 2794 H 274.307 -2.89715 2.63022 0
M  V30 2795 H 273.93 -3.79942 1.17173 0
M  V30 2796 N 274.927 -0.932562 -1.27047 0
M  V30 2797 C 275.875 -0.42603 -2.28665 0
M  V30 2798 C 276.869 0.49219 -1.62092 0
M  V30 2799 O 278.075 0.371355 -1.76128 0
M  V30 2800 H 274.45 -0.119213 -0.742491 0
M  V30 2801 H 276.421 -1.29579 -2.68797 0
M  V30 2802 C 275.17 0.301426 -3.46391 0
M  V30 2803 H 274.493 -0.39595 -3.97834 0
M  V30 2804 H 275.933 0.6202 -4.1944 0
M  V30 2805 C 274.392 1.51616 -3.00856 0
M  V30 2806 O 274.922 2.61476 -3.04948 0
M  V30 2807 N 273.128 1.36969 -2.56296 0
M  V30 2808 H 272.675 0.475873 -2.53166 0
M  V30 2809 H 272.633 2.18368 -2.26192 0
M  V30 2810 N 276.405 1.4127 -0.698611 0
M  V30 2811 C 277.63 2.06024 -0.238512 0
M  V30 2812 C 278.055 1.5224 1.10475 0
M  V30 2813 O 277.413 0.650623 1.69223 0
M  V30 2814 C 277.461 3.59988 -0.209952 0
M  V30 2815 O 276.565 4.04282 0.814235 0
M  V30 2816 H 275.906 0.653829 -0.115775 0
M  V30 2817 H 278.436 1.8098 -0.954326 0
M  V30 2818 H 278.446 4.07979 -0.0418436 0
M  V30 2819 H 277.121 3.98503 -1.1903 0
M  V30 2820 H 275.698 3.6779 0.615234 0
M  V30 2821 N 277.883 0.443576 1.51229 0
M  V30 2822 C 279.132 -0.122332 2.01329 0
M  V30 2823 C 279.445 -1.43237 1.33201 0
M  V30 2824 O 280.651 -2.0816 1.74304 0
M  V30 2825 C 279.107 -0.268551 3.58897 0
M  V30 2826 C 278.715 1.03142 4.35965 0
M  V30 2827 C 280.459 -0.787894 4.17124 0
M  V30 2828 C 278.366 0.850504 5.85252 0
M  V30 2829 H 277.296 -0.0494929 0.752374 0
M  V30 2830 H 279.947 0.574289 1.74282 0
M  V30 2831 H 278.329 -1.02832 3.82415 0
M  V30 2832 H 279.503 1.80001 4.24189 0
M  V30 2833 H 277.818 1.47977 3.89219 0
M  V30 2834 H 280.415 -0.939841 5.26375 0
M  V30 2835 H 280.758 -1.77201 3.76703 0
M  V30 2836 H 281.291 -0.0862669 3.97706 0
M  V30 2837 H 278.03 1.80718 6.30096 0
M  V30 2838 H 277.55 0.121825 5.99676 0
M  V30 2839 H 279.229 0.506163 6.45017 0
M  V30 2840 N 279.361 -1.56624 0.175154 0
M  V30 2841 C 280.591 -2.01082 -0.474283 0
M  V30 2842 C 280.999 -1.05447 -1.57091 0
M  V30 2843 O 280.342 -0.0480595 -1.83637 0
M  V30 2844 C 280.404 -3.41963 -1.10911 0
M  V30 2845 C 280.068 -4.56742 -0.153666 0
M  V30 2846 C 281.065 -5.16076 0.629448 0
M  V30 2847 C 278.75 -5.02277 -0.0483776 0
M  V30 2848 C 280.744 -6.19377 1.50501 0
M  V30 2849 C 278.431 -6.05427 0.830768 0
M  V30 2850 C 279.429 -6.63849 1.60605 0
M  V30 2851 O 279.117 -7.64998 2.47049 0
M  V30 2852 H 278.849 -0.664261 -0.125432 0
M  V30 2853 H 281.403 -2.03549 0.275163 0
M  V30 2854 H 279.633 -3.36422 -1.90676 0
M  V30 2855 H 281.322 -3.70352 -1.66114 0
M  V30 2856 H 282.088 -4.81776 0.558297 0
M  V30 2857 H 277.967 -4.56513 -0.641611 0
M  V30 2858 H 281.511 -6.64906 2.1106 0
M  V30 2859 H 277.408 -6.39151 0.903107 0
M  V30 2860 H 278.176 -7.82336 2.40607 0
M  V30 2861 N 280.839 0.0985539 -1.57292 0
M  V30 2862 C 282.085 0.803867 -1.86188 0
M  V30 2863 C 282.418 1.78549 -0.763794 0
M  V30 2864 O 281.693 1.93153 0.22855 0
M  V30 2865 C 281.976 1.53568 -3.25713 0
M  V30 2866 C 281.829 0.572277 -4.46145 0
M  V30 2867 C 283.148 2.48708 -3.63087 0
M  V30 2868 H 280.267 0.290781 -0.677211 0
M  V30 2869 H 282.909 0.0675783 -1.8988 0
M  V30 2870 H 281.059 2.16332 -3.22696 0
M  V30 2871 H 282.731 -0.0480894 -4.61275 0
M  V30 2872 H 280.974 -0.114618 -4.33649 0
M  V30 2873 H 281.645 1.12139 -5.40489 0
M  V30 2874 H 284.121 1.96039 -3.67026 0
M  V30 2875 H 282.997 2.96932 -4.61652 0
M  V30 2876 H 283.258 3.32309 -2.91588 0
M  V30 2877 N 282.317 1.53212 0.369288 0
M  V30 2878 C 283.545 1.73119 1.13303 0
M  V30 2879 C 283.96 0.458455 1.83149 0
M  V30 2880 O 283.317 -0.568403 1.73423 0
M  V30 2881 C 283.368 2.89413 2.16616 0
M  V30 2882 O 283.089 4.11761 1.49614 0
M  V30 2883 C 284.59 3.21161 3.05566 0
M  V30 2884 H 281.81 0.579107 0.338934 0
M  V30 2885 H 284.354 1.99942 0.429338 0
M  V30 2886 H 282.509 2.64994 2.82589 0
M  V30 2887 H 282.923 4.76858 2.18419 0
M  V30 2888 H 284.397 4.05949 3.74045 0
M  V30 2889 H 284.874 2.36369 3.70171 0
M  V30 2890 H 285.48 3.47492 2.45213 0
M  V30 2891 N 283.795 -0.628877 1.44509 0
M  V30 2892 C 284.742 -1.74074 1.51549 0
M  V30 2893 C 285.712 -1.62084 0.363021 0
M  V30 2894 O 286.897 -1.81975 0.573567 0
M  V30 2895 C 284.037 -3.12328 1.46784 0
M  V30 2896 C 283.15 -3.35277 2.72422 0
M  V30 2897 C 282.285 -4.63515 2.59475 0
M  V30 2898 C 281.324 -4.7965 3.80266 0
M  V30 2899 N 280.461 -5.99168 3.65981 0
M  V30 2900 H 285.301 -1.67392 2.46544 0
M  V30 2901 H 282.838 -0.816527 1.22357 0
M  V30 2902 H 284.796 -3.92286 1.42012 0
M  V30 2903 H 283.426 -3.18018 0.553544 0
M  V30 2904 H 282.478 -2.49242 2.87372 0
M  V30 2905 H 283.79 -3.43078 3.62076 0
M  V30 2906 H 282.944 -5.51638 2.52548 0
M  V30 2907 H 281.683 -4.58076 1.67384 0
M  V30 2908 H 280.688 -3.89957 3.87574 0
M  V30 2909 H 281.913 -4.86902 4.73395 0
M  V30 2910 H 279.859 -5.94814 2.76644 0
M  V30 2911 H 279.776 -6.08035 4.49254 0
M  V30 2912 H 281.044 -6.89846 3.6295 0
M  V30 2913 N 285.273 -1.31445 -0.869486 0
M  V30 2914 C 286.522 -1.20517 -1.61736 0
M  V30 2915 C 286.835 0.235341 -1.94179 0
M  V30 2916 O 288.041 0.466312 -2.67465 0
M  V30 2917 C 286.497 -2.10982 -2.91573 0
M  V30 2918 C 286.105 -3.60032 -2.66611 0
M  V30 2919 C 287.849 -2.08856 -3.69567 0
M  V30 2920 C 285.756 -4.42503 -3.92358 0
M  V30 2921 H 284.686 -0.447493 -0.606849 0
M  V30 2922 H 287.337 -1.56303 -0.96133 0
M  V30 2923 H 285.719 -1.68095 -3.58553 0
M  V30 2924 H 286.893 -4.11167 -2.08035 0
M  V30 2925 H 285.208 -3.64139 -2.0197 0
M  V30 2926 H 287.805 -2.67716 -4.62852 0
M  V30 2927 H 288.148 -1.07582 -4.02159 0
M  V30 2928 H 288.681 -2.49945 -3.09471 0
M  V30 2929 H 285.42 -5.44533 -3.64916 0
M  V30 2930 H 284.94 -3.96125 -4.50383 0
M  V30 2931 H 286.619 -4.54741 -4.60238 0
M  V30 2932 N 286.751 1.08385 -1.14413 0
M  V30 2933 C 288 1.80153 -0.907076 0
M  V30 2934 C 288.313 1.87176 0.567851 0
M  V30 2935 O 289.519 2.55359 0.922172 0
M  V30 2936 C 287.975 3.23687 -1.57336 0
M  V30 2937 C 287.583 3.24897 -3.08457 0
M  V30 2938 C 289.327 4.00136 -1.41744 0
M  V30 2939 C 287.234 4.6302 -3.67921 0
M  V30 2940 H 286.164 0.675139 -0.335714 0
M  V30 2941 H 288.815 1.21733 -1.37307 0
M  V30 2942 H 287.197 3.82234 -1.03505 0
M  V30 2943 H 288.371 2.76055 -3.68958 0
M  V30 2944 H 286.686 2.61943 -3.2369 0
M  V30 2945 H 289.283 5.02201 -1.83572 0
M  V30 2946 H 289.626 4.14709 -0.363576 0
M  V30 2947 H 290.159 3.48058 -1.92614 0
M  V30 2948 H 286.898 4.5365 -4.73161 0
M  V30 2949 H 286.418 5.12143 -3.12201 0
M  V30 2950 H 288.097 5.31994 -3.68227 0
M  V30 2951 N 288.23 0.939286 1.26551 0
M  V30 2952 C 289.14 0.453432 2.30176 0
M  V30 2953 C 290.156 -0.471649 1.67486 0
M  V30 2954 O 291.332 -0.35164 1.98306 0
M  V30 2955 C 288.397 -0.275326 3.45605 0
M  V30 2956 C 287.458 0.686084 4.23782 0
M  V30 2957 C 286.691 -0.00798994 5.33699 0
M  V30 2958 O 286.914 -1.22528 5.57085 0
M  V30 2959 O 285.848 0.669746 5.98162 0
M  V30 2960 H 289.674 1.31416 2.73795 0
M  V30 2961 H 287.259 0.705095 1.31715 0
M  V30 2962 H 289.141 -0.685911 4.1578 0
M  V30 2963 H 287.816 -1.11147 3.0402 0
M  V30 2964 H 286.723 1.14658 3.56096 0
M  V30 2965 H 288.056 1.48979 4.69112 0
M  V30 2966 N 289.708 -1.40897 0.706093 0
M  V30 2967 C 290.956 -2.00657 0.241054 0
M  V30 2968 C 291.277 -1.56241 -1.16678 0
M  V30 2969 O 290.547 -0.79765 -1.78926 0
M  V30 2970 H 289.127 -0.742018 0.0861308 0
M  V30 2971 H 291.789 -1.72372 0.909604 0
M  V30 2972 H 290.885 -3.10958 0.266705 0
M  V30 2973 N 291.186 -0.45159 -1.50991 0
M  V30 2974 C 292.434 0.109857 -2.01801 0
M  V30 2975 C 292.755 1.41958 -1.3369 0
M  V30 2976 O 292.025 1.9003 -0.475951 0
M  V30 2977 H 290.605 0.0435884 -0.745727 0
M  V30 2978 H 293.267 -0.597557 -1.85514 0
M  V30 2979 H 292.363 0.275489 -3.10882 0
M  V30 2980 N 292.664 1.56529 -0.183458 0
M  V30 2981 C 293.627 2.17324 0.728223 0
M  V30 2982 C 294.627 1.12453 1.14939 0
M  V30 2983 O 295.817 1.37902 1.06437 0
M  V30 2984 C 292.949 2.76591 1.99274 0
M  V30 2985 H 294.142 2.99241 0.198772 0
M  V30 2986 H 291.695 1.5616 0.0661391 0
M  V30 2987 H 292.43 1.98441 2.56499 0
M  V30 2988 H 292.215 3.5335 1.69959 0
M  V30 2989 H 293.705 3.23311 2.6431 0
M  V30 2990 N 294.142 -0.090211 1.57342 0
M  V30 2991 C 295.105 -1.09335 2.01441 0
M  V30 2992 C 296.105 -1.32666 0.908641 0
M  V30 2993 O 297.295 -1.28697 1.174 0
M  V30 2994 C 294.427 -2.44136 2.3793 0
M  V30 2995 H 295.62 -0.713662 2.91285 0
M  V30 2996 H 293.173 -0.335404 1.52659 0
M  V30 2997 H 293.908 -2.86972 1.51055 0
M  V30 2998 H 293.693 -2.28548 3.18603 0
M  V30 2999 H 295.183 -3.16277 2.72688 0
M  V30 3000 N 295.62 -1.53406 -0.361157 0
M  V30 3001 C 296.57 -1.76536 -1.44287 0
M  V30 3002 C 297.554 -0.620019 -1.48474 0
M  V30 3003 O 298.746 -0.878834 -1.53641 0
M  V30 3004 C 295.875 -1.96266 -2.81664 0
M  V30 3005 C 294.961 -3.16815 -2.81938 0
M  V30 3006 N 295.352 -4.38637 -2.51855 0
M  V30 3007 C 293.65 -3.17627 -3.13096 0
M  V30 3008 C 294.351 -5.20401 -2.59919 0
M  V30 3009 N 293.327 -4.56712 -2.94814 0
M  V30 3010 H 297.129 -2.68331 -1.19899 0
M  V30 3011 H 294.643 -1.52091 -0.56938 0
M  V30 3012 H 296.64 -2.10966 -3.59582 0
M  V30 3013 H 295.3 -1.05702 -3.07013 0
M  V30 3014 H 296.311 -4.66293 -2.25369 0
M  V30 3015 H 292.988 -2.36971 -3.43731 0
M  V30 3016 H 294.378 -6.27586 -2.39969 0
M  V30 3017 N 297.098 0.621204 -1.44841 0
M  V30 3018 C 298.045 1.73267 -1.5247 0
M  V30 3019 C 299.015 1.6189 -0.371611 0
M  V30 3020 O 300.2 1.81668 -0.58321 0
M  V30 3021 C 297.34 3.11545 -1.48438 0
M  V30 3022 C 296.453 3.33827 -2.74196 0
M  V30 3023 C 295.588 4.62133 -2.61929 0
M  V30 3024 C 294.627 4.77627 -3.82804 0
M  V30 3025 N 293.764 5.97219 -3.69153 0
M  V30 3026 H 298.604 1.66082 -2.47428 0
M  V30 3027 H 296.141 0.810026 -1.22788 0
M  V30 3028 H 298.099 3.91528 -1.4409 0
M  V30 3029 H 296.729 3.1772 -0.570402 0
M  V30 3030 H 295.781 2.47715 -2.88689 0
M  V30 3031 H 297.093 3.41153 -3.6389 0
M  V30 3032 H 296.247 5.50291 -2.5547 0
M  V30 3033 H 294.986 4.57182 -1.69811 0
M  V30 3034 H 293.991 3.87896 -3.89637 0
M  V30 3035 H 295.216 4.84385 -4.75971 0
M  V30 3036 H 293.162 5.93339 -2.79794 0
M  V30 3037 H 293.079 6.05644 -4.52472 0
M  V30 3038 H 294.347 6.87912 -3.66603 0
M  V30 3039 N 298.576 1.31904 0.862503 0
M  V30 3040 C 299.853 1.12644 1.59908 0
M  V30 3041 C 300.233 -0.316104 2.0872 0
M  V30 3042 O 299.581 -1.31145 1.87118 0
M  V30 3043 C 299.791 2.1472 2.7513 0
M  V30 3044 C 301.139 2.47637 3.44907 0
M  V30 3045 O 302.163 2.13205 2.85346 0
M  V30 3046 O 301.022 3.06632 4.52371 0
M  V30 3047 H 298.116 0.43416 0.703871 0
M  V30 3048 H 300.662 1.43408 0.907314 0
M  V30 3049 H 299.434 3.1172 2.3653 0
M  V30 3050 H 299.057 1.84905 3.51989 0
M  V30 3051 N 300.054 -1.07777 1.14986 0
M  V30 3052 C 301.302 -1.79934 0.920235 0
M  V30 3053 C 301.623 -1.86955 -0.554336 0
M  V30 3054 O 300.893 -1.36731 -1.40291 0
M  V30 3055 H 299.473 -0.666424 0.337473 0
M  V30 3056 H 302.135 -1.3027 1.44968 0
M  V30 3057 H 301.231 -2.82539 1.32583 0
M  V30 3058 N 301.532 -0.945985 -1.26051 0
M  V30 3059 C 302.948 -0.649045 -1.45807 0
M  V30 3060 C 303.148 0.796158 -1.85104 0
M  V30 3061 O 302.204 1.57233 -1.97571 0
M  V30 3062 C 303.517 -1.61458 -2.53677 0
M  V30 3063 C 305.065 -1.62481 -2.67524 0
M  V30 3064 C 305.54 -2.57776 -3.7857 0
M  V30 3065 N 307.031 -2.5609 -3.85969 0
M  V30 3066 C 307.766 -3.26508 -4.7136 0
M  V30 3067 N 307.262 -4.0637 -5.61102 0
M  V30 3068 N 309.055 -3.15437 -4.65248 0
M  V30 3069 H 301.206 -1.88005 -0.988328 0
M  V30 3070 H 303.469 -0.808198 -0.4955 0
M  V30 3071 H 303.175 -2.64644 -2.31638 0
M  V30 3072 H 303.049 -1.37036 -3.51427 0
M  V30 3073 H 305.436 -0.600167 -2.88933 0
M  V30 3074 H 305.517 -1.90958 -1.70202 0
M  V30 3075 H 305.161 -3.60361 -3.57913 0
M  V30 3076 H 305.091 -2.26587 -4.75359 0
M  V30 3077 H 307.582 -1.98105 -3.21812 0
M  V30 3078 H 307.895 -4.57042 -6.23164 0
M  V30 3079 H 306.24 -4.10469 -5.60839 0
M  V30 3080 H 309.431 -2.52525 -3.94143 0
M  V30 3081 H 309.604 -3.70584 -5.31575 0
M  V30 3082 N 303.011 1.40521 -0.713556 0
M  V30 3083 C 303.941 2.33381 -0.0743864 0
M  V30 3084 C 304.922 1.52784 0.747735 0
M  V30 3085 O 306.107 1.81258 0.697071 0
M  V30 3086 C 303.237 3.36748 0.849598 0
M  V30 3087 C 302.191 4.27793 0.133247 0
M  V30 3088 C 301.517 5.21679 1.17281 0
M  V30 3089 C 302.817 5.12415 -1.01134 0
M  V30 3090 H 304.511 2.87081 -0.850007 0
M  V30 3091 H 302.057 1.38034 -0.410201 0
M  V30 3092 H 304.01 4.00648 1.30612 0
M  V30 3093 H 302.734 2.81439 1.65709 0
M  V30 3094 H 301.393 3.65342 -0.303426 0
M  V30 3095 H 301.041 4.62677 1.9733 0
M  V30 3096 H 300.741 5.83435 0.698397 0
M  V30 3097 H 302.265 5.88456 1.62947 0
M  V30 3098 H 303.679 5.69781 -0.634274 0
M  V30 3099 H 302.076 5.83203 -1.41399 0
M  V30 3100 H 303.146 4.48514 -1.84292 0
M  V30 3101 N 304.489 0.459591 1.5075 0
M  V30 3102 C 305.421 -0.37665 2.26084 0
M  V30 3103 C 306.434 -0.967109 1.30961 0
M  V30 3104 O 307.623 -0.857468 1.56556 0
M  V30 3105 C 304.723 -1.54112 3.01832 0
M  V30 3106 C 303.896 -1.06553 4.24223 0
M  V30 3107 C 302.955 -2.1027 4.82362 0
M  V30 3108 O 301.981 -1.68798 5.43595 0
M  V30 3109 N 303.183 -3.42974 4.68347 0
M  V30 3110 H 305.948 0.269124 2.98489 0
M  V30 3111 H 303.509 0.28972 1.59287 0
M  V30 3112 H 305.501 -2.23165 3.37608 0
M  V30 3113 H 304.071 -2.0918 2.32298 0
M  V30 3114 H 303.291 -0.201274 3.93686 0
M  V30 3115 H 304.579 -0.725516 5.03601 0
M  V30 3116 H 303.977 -3.79385 4.19623 0
M  V30 3117 H 302.534 -4.07858 5.08424 0
M  V30 3118 N 305.967 -1.56429 0.191757 0
M  V30 3119 C 307.216 -1.9666 -0.448088 0
M  V30 3120 C 307.529 -1.08136 -1.62991 0
M  V30 3121 O 308.735 -1.38135 -2.33733 0
M  V30 3122 C 307.191 -3.49753 -0.848585 0
M  V30 3123 C 306.799 -4.46935 0.308764 0
M  V30 3124 C 308.543 -3.9876 -1.4557 0
M  V30 3125 C 306.45 -5.91293 -0.112506 0
M  V30 3126 H 305.38 -0.734312 -0.171179 0
M  V30 3127 H 308.031 -1.81301 0.283242 0
M  V30 3128 H 306.413 -3.60604 -1.63649 0
M  V30 3129 H 307.587 -4.47813 1.08627 0
M  V30 3130 H 305.902 -4.08102 0.827158 0
M  V30 3131 H 308.499 -5.04086 -1.78328 0
M  V30 3132 H 308.842 -3.42875 -2.36099 0
M  V30 3133 H 309.375 -3.9101 -0.731836 0
M  V30 3134 H 306.114 -6.51097 0.758514 0
M  V30 3135 H 305.634 -5.93676 -0.854941 0
M  V30 3136 H 307.313 -6.44663 -0.549448 0
M  V30 3137 N 307.445 0.0818655 -1.57387 0
M  V30 3138 C 308.693 0.781368 -1.86384 0
M  V30 3139 C 309.014 1.78618 -0.782342 0
M  V30 3140 O 308.284 1.94976 0.190061 0
M  V30 3141 H 306.864 0.291562 -0.687751 0
M  V30 3142 H 309.526 0.060348 -1.94807 0
M  V30 3143 H 308.622 1.3038 -2.83562 0
M  V30 3144 N 308.923 1.53595 0.353017 0
M  V30 3145 C 310.2 1.61002 1.11075 0
M  V30 3146 C 310.58 0.425356 2.0677 0
M  V30 3147 O 309.928 -0.583267 2.2093 0
M  V30 3148 C 310.138 2.96631 1.83877 0
M  V30 3149 C 311.486 3.51653 2.37961 0
M  V30 3150 O 312.51 2.98743 1.93987 0
M  V30 3151 O 311.369 4.44177 3.18386 0
M  V30 3152 H 308.463 0.650825 0.510251 0
M  V30 3153 H 311.009 1.6594 0.35527 0
M  V30 3154 H 309.781 3.74293 1.14108 0
M  V30 3155 H 309.404 2.95242 2.66304 0
M  V30 3156 N 310.401 -0.613514 1.45168 0
M  V30 3157 C 311.348 -1.72456 1.53387 0
M  V30 3158 C 312.318 -1.6169 0.380191 0
M  V30 3159 O 313.503 -1.81356 0.592836 0
M  V30 3160 C 310.643 -3.10753 1.50088 0
M  V30 3161 C 309.756 -3.32368 2.75963 0
M  V30 3162 C 308.891 -4.60737 2.64376 0
M  V30 3163 C 307.93 -4.7559 3.85332 0
M  V30 3164 N 307.067 -5.95253 3.72315 0
M  V30 3165 H 311.907 -1.64768 2.48305 0
M  V30 3166 H 309.444 -0.803503 1.23216 0
M  V30 3167 H 311.402 -3.90758 1.46164 0
M  V30 3168 H 310.032 -3.17413 0.587243 0
M  V30 3169 H 309.084 -2.4618 2.89999 0
M  V30 3170 H 310.396 -3.39218 3.65695 0
M  V30 3171 H 309.55 -5.48928 2.58385 0
M  V30 3172 H 308.289 -4.56275 1.72233 0
M  V30 3173 H 307.294 -3.85824 3.91688 0
M  V30 3174 H 308.519 -4.81854 4.78533 0
M  V30 3175 H 306.465 -5.91847 2.82937 0
M  V30 3176 H 306.382 -6.03236 4.55677 0
M  V30 3177 H 307.65 -6.85958 3.70246 0
M  V30 3178 N 311.879 -1.3236 -0.855495 0
M  V30 3179 C 313.128 -1.22226 -1.60448 0
M  V30 3180 C 313.441 0.214733 -1.94418 0
M  V30 3181 O 314.647 0.437917 -2.67945 0
M  V30 3182 C 313.103 -2.14063 -2.89318 0
M  V30 3183 C 312.711 -3.62839 -2.62777 0
M  V30 3184 C 314.455 -2.12764 -3.67331 0
M  V30 3185 C 312.362 -4.4664 -3.87643 0
M  V30 3186 H 311.292 -0.453904 -0.602069 0
M  V30 3187 H 313.943 -1.57314 -0.944698 0
M  V30 3188 H 312.325 -1.71889 -3.5675 0
M  V30 3189 H 313.499 -4.1335 -2.03662 0
M  V30 3190 H 311.814 -3.66261 -1.98096 0
M  V30 3191 H 314.411 -2.72611 -4.59987 0
M  V30 3192 H 314.754 -1.11841 -4.00995 0
M  V30 3193 H 315.287 -2.53214 -3.06802 0
M  V30 3194 H 312.026 -5.48373 -3.5912 0
M  V30 3195 H 311.546 -4.0088 -4.46156 0
M  V30 3196 H 313.225 -4.59597 -4.55389 0
M  V30 3197 N 313.357 1.07166 -1.15556 0
M  V30 3198 C 314.287 2.16403 -0.877046 0
M  V30 3199 C 315.268 1.69217 0.173111 0
M  V30 3200 O 316.453 1.94181 0.027084 0
M  V30 3201 C 313.583 3.45349 -0.367632 0
M  V30 3202 C 312.537 4.05995 -1.35468 0
M  V30 3203 C 311.863 5.30045 -0.704038 0
M  V30 3204 C 313.163 4.45804 -2.72132 0
M  V30 3205 H 314.857 2.39959 -1.79053 0
M  V30 3206 H 312.403 1.15325 -0.862331 0
M  V30 3207 H 314.356 4.21095 -0.160317 0
M  V30 3208 H 313.08 3.21385 0.581326 0
M  V30 3209 H 311.739 3.32296 -1.54839 0
M  V30 3210 H 311.387 5.02373 0.251128 0
M  V30 3211 H 311.087 5.71579 -1.36277 0
M  V30 3212 H 312.611 6.08495 -0.50654 0
M  V30 3213 H 314.025 5.12671 -2.56595 0
M  V30 3214 H 312.422 4.98296 -3.34397 0
M  V30 3215 H 313.492 3.57083 -3.28054 0
M  V30 3216 N 314.835 0.952656 1.25548 0
M  V30 3217 C 315.798 0.475794 2.24207 0
M  V30 3218 C 316.798 -0.419428 1.55234 0
M  V30 3219 O 317.988 -0.216994 1.72843 0
M  V30 3220 C 315.12 -0.312814 3.39462 0
M  V30 3221 H 316.313 1.34779 2.67908 0
M  V30 3222 H 313.866 0.735739 1.37901 0
M  V30 3223 H 314.601 -1.20257 3.01179 0
M  V30 3224 H 314.386 0.329404 3.90714 0
M  V30 3225 H 315.876 -0.635986 4.12729 0
M  V30 3226 N 316.313 -1.40141 0.720998 0
M  V30 3227 C 317.559 -2.01084 0.263231 0
M  V30 3228 C 317.892 -1.57052 -1.14229 0
M  V30 3229 O 317.167 -0.793027 -1.77599 0
M  V30 3230 C 317.45 -3.58401 0.349344 0
M  V30 3231 C 317.303 -4.12491 1.79363 0
M  V30 3232 C 318.622 -4.39231 -0.276351 0
M  V30 3233 H 315.741 -0.730572 0.0971228 0
M  V30 3234 H 318.383 -1.66543 0.914518 0
M  V30 3235 H 316.533 -3.87958 -0.205165 0
M  V30 3236 H 318.205 -3.93711 2.40394 0
M  V30 3237 H 316.448 -3.66576 2.31958 0
M  V30 3238 H 317.119 -5.21646 1.80524 0
M  V30 3239 H 319.595 -4.15637 0.196184 0
M  V30 3240 H 318.471 -5.48586 -0.185681 0
M  V30 3241 H 318.732 -4.20643 -1.36059 0
M  V30 3242 N 317.792 -0.46758 -1.50504 0
M  V30 3243 C 318.74 0.342482 -2.30065 0
M  V30 3244 C 319.734 0.993596 -1.37201 0
M  V30 3245 O 320.94 0.925102 -1.54408 0
M  V30 3246 H 317.315 0.129283 -0.740803 0
M  V30 3247 H 319.286 -0.34899 -2.96352 0
M  V30 3248 C 318.035 1.4139 -3.17654 0
M  V30 3249 H 317.358 0.922264 -3.89017 0
M  V30 3250 H 318.798 1.95335 -3.76325 0
M  V30 3251 C 317.257 2.4139 -2.35016 0
M  V30 3252 O 317.787 3.46586 -2.03079 0
M  V30 3253 N 315.993 2.13021 -1.97662 0
M  V30 3254 H 315.54 1.27499 -2.23834 0
M  V30 3255 H 315.498 2.80164 -1.42673 0
M  V30 3256 N 319.27 1.56325 -0.20005 0
M  V30 3257 C 320.495 2.02548 0.44597 0
M  V30 3258 C 320.92 1.07922 1.5406 0
M  V30 3259 O 320.278 0.0635775 1.81188 0
M  V30 3260 C 320.326 3.47175 0.974761 0
M  V30 3261 O 319.43 3.55671 2.08739 0
M  V30 3262 H 318.771 0.655862 0.103638 0
M  V30 3263 H 321.301 2.02201 -0.312381 0
M  V30 3264 H 321.311 3.87067 1.2901 0
M  V30 3265 H 319.986 4.15538 0.17347 0
M  V30 3266 H 318.563 3.27657 1.78032 0
M  V30 3267 N 320.748 -0.0735177 1.57428 0
M  V30 3268 C 321.994 -0.774145 1.87443 0
M  V30 3269 C 322.327 -1.77311 0.792103 0
M  V30 3270 O 321.602 -1.93492 -0.197793 0
M  V30 3271 C 321.885 -1.48367 3.28115 0
M  V30 3272 C 321.738 -0.501227 4.46999 0
M  V30 3273 C 323.057 -2.429 3.66998 0
M  V30 3274 H 320.176 -0.279971 0.681752 0
M  V30 3275 H 322.818 -0.0373616 1.89963 0
M  V30 3276 H 320.968 -2.11171 3.26097 0
M  V30 3277 H 322.64 0.121468 4.6114 0
M  V30 3278 H 320.883 0.183593 4.33411 0
M  V30 3279 H 321.554 -1.03526 5.42205 0
M  V30 3280 H 324.03 -1.90175 3.70098 0
M  V30 3281 H 322.906 -2.89549 4.66318 0
M  V30 3282 H 323.167 -3.27628 2.96837 0
M  V30 3283 N 322.226 -1.5378 -0.344866 0
M  V30 3284 C 323.474 -1.70625 -1.08311 0
M  V30 3285 C 323.795 -0.471447 -1.89215 0
M  V30 3286 O 323.065 0.514616 -1.8902 0
M  V30 3287 H 321.645 -0.629058 -0.402859 0
M  V30 3288 H 324.307 -1.9103 -0.386459 0
M  V30 3289 H 323.403 -2.57656 -1.76124 0
M  V30 3290 N 323.704 0.605807 -1.45491 0
M  V30 3291 C 324.634 1.72709 -1.57143 0
M  V30 3292 C 325.615 1.6476 -0.422884 0
M  V30 3293 O 326.8 1.83132 -0.646247 0
M  V30 3294 C 323.93 3.11316 -1.53948 0
M  V30 3295 C 322.884 3.34077 -2.67537 0
M  V30 3296 C 322.21 4.72975 -2.49397 0
M  V30 3297 C 323.51 3.24158 -4.09535 0
M  V30 3298 H 325.204 1.63214 -2.51001 0
M  V30 3299 H 322.75 0.78379 -1.208 0
M  V30 3300 H 324.703 3.89557 -1.60696 0
M  V30 3301 H 323.427 3.21655 -0.566205 0
M  V30 3302 H 322.086 2.58227 -2.6022 0
M  V30 3303 H 321.734 4.8005 -1.50205 0
M  V30 3304 H 321.434 4.8916 -3.25571 0
M  V30 3305 H 322.958 5.53414 -2.58002 0
M  V30 3306 H 324.372 3.92271 -4.18086 0
M  V30 3307 H 322.769 3.51872 -4.86113 0
M  V30 3308 H 323.839 2.2157 -4.31317 0
M  V30 3309 N 325.182 1.32811 0.848464 0
M  V30 3310 C 326.092 1.24278 1.98978 0
M  V30 3311 C 327.108 0.155176 1.73307 0
M  V30 3312 O 328.284 0.376999 1.9784 0
M  V30 3313 C 325.349 0.972444 3.32783 0
M  V30 3314 C 324.41 2.14911 3.71634 0
M  V30 3315 C 323.643 1.89157 4.99054 0
M  V30 3316 O 323.866 0.837165 5.64223 0
M  V30 3317 O 322.8 2.75433 5.35183 0
M  V30 3318 H 326.626 2.20238 2.09115 0
M  V30 3319 H 324.211 1.12762 0.980052 0
M  V30 3320 H 326.093 0.838432 4.12975 0
M  V30 3321 H 324.768 0.043051 3.23671 0
M  V30 3322 H 323.675 2.33862 2.91992 0
M  V30 3323 H 325.008 3.06151 3.85399 0
M  V30 3324 N 326.66 -1.06551 1.16123 0
M  V30 3325 C 327.937 -1.76097 0.85142 0
M  V30 3326 C 328.317 -2.00802 -0.6513 0
M  V30 3327 O 327.665 -1.63302 -1.59827 0
M  V30 3328 C 327.875 -3.06384 1.67122 0
M  V30 3329 C 329.223 -3.80585 1.88255 0
M  V30 3330 O 330.247 -3.16218 1.63966 0
M  V30 3331 O 329.106 -4.96212 2.2899 0
M  V30 3332 H 326.2 -0.765102 0.313923 0
M  V30 3333 H 328.746 -1.12844 1.26745 0
M  V30 3334 H 327.518 -2.84071 2.69108 0
M  V30 3335 H 327.141 -3.77371 1.25206 0
M  V30 3336 N 328.138 -0.959301 -1.25041 0
M  V30 3337 C 329.384 -0.617525 -1.9317 0
M  V30 3338 C 329.717 0.843981 -1.74902 0
M  V30 3339 O 328.992 1.60615 -1.09696 0
M  V30 3340 C 329.275 -0.982736 -3.46431 0
M  V30 3341 C 329.128 -2.50032 -3.73904 0
M  V30 3342 C 330.447 -0.511176 -4.37121 0
M  V30 3343 H 327.566 -0.22582 -0.701552 0
M  V30 3344 H 330.208 -1.19679 -1.4757 0
M  V30 3345 H 328.358 -0.489806 -3.854 0
M  V30 3346 H 330.03 -3.06737 -3.44544 0
M  V30 3347 H 328.273 -2.93598 -3.19348 0
M  V30 3348 H 328.944 -2.70635 -4.81103 0
M  V30 3349 H 331.42 -0.934075 -4.0548 0
M  V30 3350 H 330.296 -0.795361 -5.43107 0
M  V30 3351 H 330.557 0.588834 -4.38161 0
M  V30 3352 N 329.616 1.39756 -0.72842 0
M  V30 3353 C 330.549 2.28176 -0.0330172 0
M  V30 3354 C 331.527 1.44035 0.754501 0
M  V30 3355 O 332.711 1.73434 0.738445 0
M  V30 3356 C 329.838 3.24795 0.960504 0
M  V30 3357 C 328.884 4.25693 0.262264 0
M  V30 3358 S 329.717 5.25714 -1.01906 0
M  V30 3359 C 330.873 6.25894 -0.0279717 0
M  V30 3360 H 331.106 2.86807 -0.78287 0
M  V30 3361 H 328.639 1.45382 -0.519951 0
M  V30 3362 H 330.597 3.80983 1.52846 0
M  V30 3363 H 329.258 2.65196 1.68315 0
M  V30 3364 H 328.451 4.93699 1.01379 0
M  V30 3365 H 328.053 3.7327 -0.233482 0
M  V30 3366 H 330.345 6.72585 0.814621 0
M  V30 3367 H 331.288 7.04876 -0.67499 0
M  V30 3368 H 331.696 5.63466 0.341489 0
M  V30 3369 N 331.094 0.475555 1.50254 0
M  V30 3370 C 332.044 -0.335025 2.25525 0
M  V30 3371 C 333.028 -0.957625 1.29299 0
M  V30 3372 O 334.22 -0.869436 1.54175 0
M  V30 3373 C 331.349 -1.41385 3.12834 0
M  V30 3374 C 330.435 -0.798762 4.1651 0
M  V30 3375 N 330.826 0.0835815 5.05731 0
M  V30 3376 C 329.124 -1.06221 4.33166 0
M  V30 3377 C 329.825 0.433113 5.80085 0
M  V30 3378 N 328.801 -0.1928 5.43258 0
M  V30 3379 H 332.603 0.344612 2.91873 0
M  V30 3380 H 330.117 0.289986 1.5979 0
M  V30 3381 H 332.114 -2.00777 3.65368 0
M  V30 3382 H 330.774 -2.09543 2.48036 0
M  V30 3383 H 331.785 0.452715 5.15918 0
M  V30 3384 H 328.462 -1.73844 3.79585 0
M  V30 3385 H 329.852 1.15346 6.61925 0
M  V30 3386 N 332.573 -1.56217 0.208337 0
M  V30 3387 C 333.483 -2.23316 -0.718836 0
M  V30 3388 C 334.499 -1.23648 -1.22422 0
M  V30 3389 O 335.675 -1.56423 -1.26861 0
M  V30 3390 C 332.74 -2.88968 -1.91568 0
M  V30 3391 C 331.801 -4.03943 -1.45357 0
M  V30 3392 C 331.034 -4.66455 -2.59337 0
M  V30 3393 O 331.257 -4.27919 -3.77149 0
M  V30 3394 O 330.191 -5.55686 -2.31293 0
M  V30 3395 H 334.017 -3.03182 -0.177315 0
M  V30 3396 H 331.602 -1.49384 -0.0215402 0
M  V30 3397 H 333.484 -3.30455 -2.61491 0
M  V30 3398 H 332.159 -2.12071 -2.44556 0
M  V30 3399 H 331.066 -3.67052 -0.722746 0
M  V30 3400 H 332.399 -4.82543 -0.970219 0
M  V30 3401 N 334.051 0.0651679 -1.57465 0
M  V30 3402 C 335.328 0.79644 -1.78651 0
M  V30 3403 C 335.708 1.95454 -0.797566 0
M  V30 3404 O 335.056 2.27882 0.167946 0
M  V30 3405 C 335.266 1.26322 -3.25337 0
M  V30 3406 C 336.614 1.6939 -3.89348 0
M  V30 3407 O 337.638 1.35872 -3.29268 0
M  V30 3408 O 336.497 2.31471 -4.95059 0
M  V30 3409 H 333.591 0.382157 -0.733407 0
M  V30 3410 H 336.137 0.0447311 -1.69641 0
M  V30 3411 H 334.909 0.434859 -3.88876 0
M  V30 3412 H 334.532 2.07604 -3.39096 0
M  V30 3413 N 335.529 1.53961 0.336706 0
M  V30 3414 C 336.492 1.81724 1.39675 0
M  V30 3415 C 337.492 0.688532 1.45313 0
M  V30 3416 O 338.682 0.956829 1.45569 0
M  V30 3417 C 335.814 1.96543 2.78538 0
M  V30 3418 H 337.007 2.76424 1.16318 0
M  V30 3419 H 334.56 1.45478 0.571474 0
M  V30 3420 H 335.295 1.0401 3.07168 0
M  V30 3421 H 335.08 2.78665 2.75841 0
M  V30 3422 H 336.57 2.19516 3.5525 0
M  V30 3423 N 337.007 -0.598083 1.45811 0
M  V30 3424 C 338.253 -1.35882 1.50545 0
M  V30 3425 C 338.586 -1.93616 0.150445 0
M  V30 3426 O 337.861 -1.75604 -0.83628 0
M  V30 3427 C 338.144 -2.49966 2.59208 0
M  V30 3428 C 337.997 -1.97367 4.04186 0
M  V30 3429 C 339.316 -3.52068 2.64076 0
M  V30 3430 H 336.435 -0.492717 0.548087 0
M  V30 3431 H 339.077 -0.673319 1.77669 0
M  V30 3432 H 337.227 -3.08443 2.3621 0
M  V30 3433 H 338.899 -1.43466 4.38423 0
M  V30 3434 H 337.142 -1.283 4.14393 0
M  V30 3435 H 337.813 -2.79649 4.75921 0
M  V30 3436 H 340.289 -3.03448 2.84708 0
M  V30 3437 H 339.165 -4.2937 3.41954 0
M  V30 3438 H 339.426 -4.08304 1.69531 0
M  V30 3439 N 338.485 -1.33259 -0.841409 0
M  V30 3440 C 339.448 -1.23221 -1.9326 0
M  V30 3441 C 340.448 -0.151895 -1.60081 0
M  V30 3442 O 341.638 -0.403246 -1.69468 0
M  V30 3443 C 338.77 -0.898123 -3.28856 0
M  V30 3444 H 339.963 -2.2021 -2.03587 0
M  V30 3445 H 337.516 -1.17281 -1.03319 0
M  V30 3446 H 338.251 0.0693841 -3.24226 0
M  V30 3447 H 338.036 -1.67934 -3.54317 0
M  V30 3448 H 339.526 -0.852563 -4.08805 0
M  V30 3449 N 339.963 1.05934 -1.16686 0
M  V30 3450 C 340.926 2.11669 -0.879144 0
M  V30 3451 C 341.926 1.60294 0.127445 0
M  V30 3452 O 343.116 1.7389 -0.103865 0
M  V30 3453 C 340.248 3.39438 -0.315425 0
M  V30 3454 H 341.441 2.38626 -1.81653 0
M  V30 3455 H 338.994 1.22058 -0.976299 0
M  V30 3456 H 339.729 3.18132 0.629468 0
M  V30 3457 H 339.514 3.78034 -1.04079 0
M  V30 3458 H 341.004 4.17391 -0.132189 0
M  V30 3459 N 341.441 0.965919 1.2453 0
M  V30 3460 C 342.371 0.513476 2.27784 0
M  V30 3461 C 343.352 -0.445974 1.6415 0
M  V30 3462 O 344.537 -0.342485 1.91156 0
M  V30 3463 C 341.667 -0.198839 3.4673 0
M  V30 3464 C 340.621 0.676456 4.2262 0
M  V30 3465 C 339.947 -0.167248 5.34438 0
M  V30 3466 C 341.247 1.96017 4.84123 0
M  V30 3467 H 342.941 1.3765 2.65881 0
M  V30 3468 H 340.487 0.663321 1.27813 0
M  V30 3469 H 342.44 -0.526567 4.18097 0
M  V30 3470 H 341.164 -1.0962 3.07654 0
M  V30 3471 H 339.823 0.98743 3.53052 0
M  V30 3472 H 339.471 -1.0647 4.91603 0
M  V30 3473 H 339.171 0.415181 5.86131 0
M  V30 3474 H 340.695 -0.489688 6.08633 0
M  V30 3475 H 342.109 1.69814 5.47573 0
M  V30 3476 H 340.506 2.48918 5.4604 0
M  V30 3477 H 341.576 2.65622 4.05676 0
M  V30 3478 N 342.919 -1.39368 0.735821 0
M  V30 3479 C 343.866 -2.30599 0.0963825 0
M  V30 3480 C 344.836 -1.49257 -0.728794 0
M  V30 3481 O 346.021 -1.77941 -0.688588 0
M  V30 3482 C 343.161 -3.35596 -0.804305 0
M  V30 3483 C 342.274 -4.31987 0.0335761 0
M  V30 3484 C 341.409 -5.24053 -0.868461 0
M  V30 3485 C 340.448 -6.12095 -0.0258776 0
M  V30 3486 N 339.585 -6.96514 -0.883893 0
M  V30 3487 H 344.425 -2.8471 0.880002 0
M  V30 3488 H 341.962 -1.40188 0.445619 0
M  V30 3489 H 343.92 -3.95062 -1.34096 0
M  V30 3490 H 342.55 -2.82938 -1.55389 0
M  V30 3491 H 341.602 -3.74133 0.68766 0
M  V30 3492 H 342.914 -4.94074 0.685036 0
M  V30 3493 H 342.068 -5.88549 -1.47293 0
M  V30 3494 H 340.807 -4.62289 -1.5537 0
M  V30 3495 H 339.812 -5.4661 0.591386 0
M  V30 3496 H 341.037 -6.75923 0.656156 0
M  V30 3497 H 338.983 -6.37318 -1.55441 0
M  V30 3498 H 338.9 -7.55448 -0.288931 0
M  V30 3499 H 340.168 -7.65439 -1.4739 0
M  V30 3500 N 344.397 -0.483516 -1.5 0
M  V30 3501 C 345.345 0.318061 -2.30415 0
M  V30 3502 C 346.339 0.978988 -1.38247 0
M  V30 3503 O 347.545 0.908673 -1.55381 0
M  V30 3504 H 343.92 0.121419 -0.742133 0
M  V30 3505 H 345.891 -0.380403 -2.95965 0
M  V30 3506 C 344.64 1.38013 -3.19136 0
M  V30 3507 H 343.963 0.880952 -3.89973 0
M  V30 3508 H 345.403 1.91332 -3.78375 0
M  V30 3509 C 343.862 2.38884 -2.37563 0
M  V30 3510 O 344.392 3.44412 -2.06744 0
M  V30 3511 N 342.598 2.10912 -1.99911 0
M  V30 3512 H 342.145 1.25118 -2.25174 0
M  V30 3513 H 342.103 2.78635 -1.45636 0
M  V30 3514 N 345.875 1.56104 -0.216619 0
M  V30 3515 C 347.103 2.02563 0.421413 0
M  V30 3516 C 347.518 1.0965 1.53695 0
M  V30 3517 O 346.875 0.10521 1.82196 0
M  V30 3518 C 346.926 3.48584 0.957665 0
M  V30 3519 O 346.647 4.37953 -0.113389 0
M  V30 3520 C 348.148 4.10664 1.66943 0
M  V30 3521 H 345.368 0.662944 0.103665 0
M  V30 3522 H 347.912 2.01793 -0.331629 0
M  V30 3523 H 346.067 3.49985 1.661 0
M  V30 3524 H 346.481 5.23704 0.288932 0
M  V30 3525 H 347.955 5.14622 1.99671 0
M  V30 3526 H 348.432 3.55373 2.58083 0
M  V30 3527 H 349.038 4.13098 1.01142 0
M  V30 3528 N 347.353 -0.0568162 1.57498 0
M  V30 3529 C 348.583 -0.764515 1.91934 0
M  V30 3530 C 348.991 -1.70877 0.81227 0
M  V30 3531 O 348.334 -1.82351 -0.222213 0
M  V30 3532 C 348.396 -1.5994 3.21962 0
M  V30 3533 C 348.06 -0.822925 4.4953 0
M  V30 3534 C 349.057 -0.135464 5.19723 0
M  V30 3535 C 346.742 -0.785666 4.96117 0
M  V30 3536 C 348.736 0.578861 6.34766 0
M  V30 3537 C 346.423 -0.0675784 6.11063 0
M  V30 3538 C 347.421 0.613471 6.80239 0
M  V30 3539 O 347.109 1.31996 7.92989 0
M  V30 3540 H 346.841 -0.221647 0.63863 0
M  V30 3541 H 349.395 -0.0268218 2.05382 0
M  V30 3542 H 347.625 -2.38026 3.04763 0
M  V30 3543 H 349.314 -2.18715 3.41934 0
M  V30 3544 H 350.08 -0.155458 4.84751 0
M  V30 3545 H 345.959 -1.30524 4.42136 0
M  V30 3546 H 349.503 1.111 6.88696 0
M  V30 3547 H 345.4 -0.0455636 6.45484 0
M  V30 3548 H 346.168 1.23077 8.09194 0
M  V30 3549 N 348.832 -1.54138 -0.328536 0
M  V30 3550 C 350.109 -1.62749 -1.08499 0
M  V30 3551 C 350.489 -0.458198 -2.06067 0
M  V30 3552 O 349.837 0.548046 -2.2183 0
M  V30 3553 C 350.047 -2.99519 -1.79135 0
M  V30 3554 C 351.395 -3.55394 -2.32337 0
M  V30 3555 O 352.419 -3.01792 -1.89209 0
M  V30 3556 O 351.278 -4.49186 -3.11279 0
M  V30 3557 H 348.372 -0.65886 -0.499832 0
M  V30 3558 H 350.918 -1.66484 -0.328826 0
M  V30 3559 H 349.69 -3.76061 -1.08139 0
M  V30 3560 H 349.313 -2.99441 -2.61574 0
M  V30 3561 N 350.31 0.590341 -1.46126 0
M  V30 3562 C 351.556 1.35082 -1.51264 0
M  V30 3563 C 351.889 1.93534 -0.160711 0
M  V30 3564 O 351.164 1.76045 0.826956 0
M  V30 3565 C 351.447 2.48588 -2.6053 0
M  V30 3566 C 351.3 1.95221 -4.05227 0
M  V30 3567 C 352.619 3.50662 -2.6594 0
M  V30 3568 H 349.738 0.489803 -0.550692 0
M  V30 3569 H 352.38 0.663887 -1.78024 0
M  V30 3570 H 350.53 3.07186 -2.37843 0
M  V30 3571 H 352.202 1.41139 -4.39178 0
M  V30 3572 H 350.445 1.26101 -4.15068 0
M  V30 3573 H 351.116 2.77121 -4.77397 0
M  V30 3574 H 353.592 3.01934 -2.86313 0
M  V30 3575 H 352.468 4.27551 -3.44226 0
M  V30 3576 H 352.729 4.07399 -1.71694 0
M  V30 3577 N 351.788 1.33704 0.83433 0
M  V30 3578 C 353.034 1.25603 1.59222 0
M  V30 3579 C 353.367 -0.176659 1.93395 0
M  V30 3580 O 352.642 -1.11915 1.59076 0
M  V30 3581 C 352.925 2.13576 2.89926 0
M  V30 3582 C 352.778 3.65326 2.62406 0
M  V30 3583 C 354.097 2.01238 3.91397 0
M  V30 3584 H 351.216 0.457613 0.577719 0
M  V30 3585 H 353.858 1.63848 0.961972 0
M  V30 3586 H 352.008 1.8109 3.43713 0
M  V30 3587 H 353.68 4.08124 2.15017 0
M  V30 3588 H 351.923 3.8698 1.96033 0
M  V30 3589 H 352.594 4.22232 3.55562 0
M  V30 3590 H 355.07 2.29738 3.46929 0
M  V30 3591 H 353.946 2.65036 4.80673 0
M  V30 3592 H 354.207 0.985951 4.30966 0
M  V30 3593 N 353.266 -1.05314 1.17247 0
M  V30 3594 C 354.496 -1.81707 0.983166 0
M  V30 3595 C 354.904 -1.83222 -0.471822 0
M  V30 3596 O 354.247 -1.25721 -1.3394 0
M  V30 3597 C 354.309 -3.29134 1.44606 0
M  V30 3598 C 353.973 -3.51304 2.92292 0
M  V30 3599 C 354.97 -3.4353 3.90235 0
M  V30 3600 C 352.655 -3.78306 3.30439 0
M  V30 3601 C 354.649 -3.62442 5.24323 0
M  V30 3602 C 352.336 -3.96866 4.64694 0
M  V30 3603 C 353.334 -3.88933 5.61445 0
M  V30 3604 O 353.022 -4.06976 6.93272 0
M  V30 3605 H 352.754 -0.579476 0.348114 0
M  V30 3606 H 355.308 -1.33705 1.55924 0
M  V30 3607 H 353.538 -3.78046 0.813537 0
M  V30 3608 H 355.227 -3.87049 1.22262 0
M  V30 3609 H 355.993 -3.22648 3.62109 0
M  V30 3610 H 351.872 -3.83585 2.55702 0
M  V30 3611 H 355.416 -3.56165 5.99827 0
M  V30 3612 H 351.313 -4.1724 4.92525 0
M  V30 3613 H 352.081 -4.24209 6.99992 0
M  V30 3614 N 354.744 -0.972509 -1.24016 0
M  V30 3615 C 355.674 -0.525548 -2.27509 0
M  V30 3616 C 356.655 0.437262 -1.64384 0
M  V30 3617 O 357.84 0.332343 -1.91335 0
M  V30 3618 C 354.97 0.180448 -3.46831 0
M  V30 3619 C 353.924 -0.698859 -4.22256 0
M  V30 3620 C 353.25 0.138903 -5.3452 0
M  V30 3621 C 354.55 -1.98582 -4.83076 0
M  V30 3622 H 356.244 -1.39058 -2.65148 0
M  V30 3623 H 353.79 -0.67009 -1.27459 0
M  V30 3624 H 355.743 0.504387 -4.18371 0
M  V30 3625 H 354.467 1.07987 -3.08231 0
M  V30 3626 H 353.126 -1.00614 -3.52523 0
M  V30 3627 H 352.774 1.03862 -4.9216 0
M  V30 3628 H 352.474 -0.446259 -5.85903 0
M  V30 3629 H 353.998 0.457404 -6.08884 0
M  V30 3630 H 355.412 -1.72715 -5.46665 0
M  V30 3631 H 353.809 -2.5181 -5.44713 0
M  V30 3632 H 354.879 -2.67769 -4.04262 0
M  V30 3633 N 356.222 1.38976 -0.743202 0
M  V30 3634 C 357.169 2.30544 -0.10861 0
M  V30 3635 C 358.139 1.49642 0.720869 0
M  V30 3636 O 359.324 1.78304 0.679142 0
M  V30 3637 C 356.464 3.36018 0.786496 0
M  V30 3638 C 355.577 4.31963 -0.0564849 0
M  V30 3639 C 354.712 5.24506 0.840657 0
M  V30 3640 C 353.751 6.121 -0.00658363 0
M  V30 3641 N 352.888 6.96973 0.846943 0
M  V30 3642 H 357.728 2.8424 -0.895088 0
M  V30 3643 H 355.265 1.3995 -0.453048 0
M  V30 3644 H 357.223 3.95768 1.31999 0
M  V30 3645 H 355.853 2.83758 1.53887 0
M  V30 3646 H 354.905 3.73763 -0.707492 0
M  V30 3647 H 356.217 4.93703 -0.711229 0
M  V30 3648 H 355.371 5.89322 1.4417 0
M  V30 3649 H 354.11 4.63107 1.52916 0
M  V30 3650 H 353.115 5.46289 -0.620366 0
M  V30 3651 H 354.34 6.75565 -0.691992 0
M  V30 3652 H 352.286 6.38133 1.52059 0
M  V30 3653 H 352.203 7.5559 0.248864 0
M  V30 3654 H 353.471 7.6621 1.43328 0
M  V30 3655 N 357.7 0.491464 1.49741 0
M  V30 3656 C 358.946 -0.0565092 2.02721 0
M  V30 3657 C 359.279 -1.37522 1.37118 0
M  V30 3658 O 358.554 -1.87866 0.503645 0
M  V30 3659 C 358.837 -0.219051 3.59433 0
M  V30 3660 C 358.69 1.12211 4.35579 0
M  V30 3661 C 360.009 -0.964157 4.29409 0
M  V30 3662 H 357.128 -0.0190627 0.736753 0
M  V30 3663 H 359.77 0.641021 1.7886 0
M  V30 3664 H 357.92 -0.813165 3.79895 0
M  V30 3665 H 359.592 1.75437 4.26637 0
M  V30 3666 H 357.835 1.71377 3.98513 0
M  V30 3667 H 358.506 0.961794 5.43556 0
M  V30 3668 H 360.982 -0.460378 4.13545 0
M  V30 3669 H 359.858 -1.04671 5.38828 0
M  V30 3670 H 360.119 -2.00563 3.93988 0
M  V30 3671 N 359.178 -1.55987 0.224894 0
M  V30 3672 C 360.141 -2.19178 -0.670348 0
M  V30 3673 C 361.141 -1.15461 -1.11917 0
M  V30 3674 O 362.331 -1.40675 -1.02743 0
M  V30 3675 C 359.463 -2.81777 -1.9187 0
M  V30 3676 H 360.656 -2.99662 -0.119364 0
M  V30 3677 H 358.209 -1.5628 -0.0247128 0
M  V30 3678 H 358.944 -2.05172 -2.51147 0
M  V30 3679 H 358.729 -3.57732 -1.60531 0
M  V30 3680 H 360.219 -3.30205 -2.55645 0
M  V30 3681 N 360.656 0.0484629 -1.57525 0
M  V30 3682 C 361.603 1.05504 -2.05275 0
M  V30 3683 C 362.573 1.37084 -0.937927 0
M  V30 3684 O 363.758 1.47754 -1.2072 0
M  V30 3685 C 360.898 2.35676 -2.52093 0
M  V30 3686 C 360.011 2.10423 -3.77288 0
M  V30 3687 C 359.146 3.34327 -4.12794 0
M  V30 3688 C 358.185 3.04542 -5.30962 0
M  V30 3689 N 357.322 4.20841 -5.61994 0
M  V30 3690 H 362.162 0.640885 -2.91027 0
M  V30 3691 H 359.699 0.304854 -1.43906 0
M  V30 3692 H 361.657 3.11709 -2.77297 0
M  V30 3693 H 360.287 2.7485 -1.69285 0
M  V30 3694 H 359.339 1.24976 -3.59284 0
M  V30 3695 H 360.651 1.84438 -4.63448 0
M  V30 3696 H 359.805 4.1874 -4.39024 0
M  V30 3697 H 358.544 3.63408 -3.25247 0
M  V30 3698 H 357.549 2.18528 -5.04505 0
M  V30 3699 H 358.774 2.76758 -6.20146 0
M  V30 3700 H 356.72 4.4991 -4.77406 0
M  V30 3701 H 356.637 3.98212 -6.42622 0
M  V30 3702 H 357.905 5.06184 -5.92789 0
M  V30 3703 N 362.134 1.5431 0.320358 0
M  V30 3704 C 363.545 1.63872 0.894594 0
M  V30 3705 C 363.896 0.534847 1.88769 0
M  V30 3706 O 363.021 -0.331732 2.13842 0
M  V30 3707 C 363.616 2.97049 1.62934 0
M  V30 3708 C 362.175 3.08796 2.15226 0
M  V30 3709 C 361.322 2.59456 0.978671 0
M  V30 3710 H 364.273 1.58398 0.0978544 0
M  V30 3711 H 364.294 2.87388 2.49376 0
M  V30 3712 H 363.806 3.7737 0.906302 0
M  V30 3713 H 361.907 2.33156 2.90636 0
M  V30 3714 H 362.02 4.14649 2.40006 0
M  V30 3715 H 360.384 2.1543 1.35875 0
M  V30 3716 H 361.167 3.42237 0.269895 0
M  V30 3717 N 363.613 -0.582584 1.46437 0
M  V30 3718 C 364.838 -1.37168 1.55563 0
M  V30 3719 C 365.263 -1.87061 0.19743 0
M  V30 3720 O 364.621 -1.61572 -0.822451 0
M  V30 3721 C 364.669 -2.53511 2.56446 0
M  V30 3722 O 363.773 -3.54953 2.09958 0
M  V30 3723 H 363.114 -0.408494 0.523477 0
M  V30 3724 H 365.644 -0.706646 1.9201 0
M  V30 3725 H 365.654 -3.00426 2.76058 0
M  V30 3726 H 364.329 -2.16549 3.55076 0
M  V30 3727 H 362.906 -3.14516 2.00334 0
M  V30 3728 N 365.091 -1.34144 -0.827227 0
M  V30 3729 C 366.039 -1.25364 -1.95925 0
M  V30 3730 C 367.033 -0.152608 -1.68711 0
M  V30 3731 O 368.239 -0.317311 -1.77181 0
M  V30 3732 H 364.614 -0.389342 -0.643364 0
M  V30 3733 H 366.585 -2.21045 -2.00454 0
M  V30 3734 C 365.334 -1.02158 -3.32354 0
M  V30 3735 H 364.657 -1.86111 -3.5384 0
M  V30 3736 H 366.097 -1.00048 -4.12027 0
M  V30 3737 C 364.556 0.275244 -3.35774 0
M  V30 3738 O 365.086 1.27806 -3.80826 0
M  V30 3739 N 363.292 0.306853 -2.88975 0
M  V30 3740 H 362.839 -0.509777 -2.52506 0
M  V30 3741 H 362.797 1.17432 -2.91646 0
M  V30 3742 N 366.569 1.04691 -1.17803 0
M  V30 3743 C 367.532 2.10724 -0.901545 0
M  V30 3744 C 368.532 1.6042 0.110437 0
M  V30 3745 O 369.722 1.7377 -0.122303 0
M  V30 3746 C 366.854 3.39084 -0.351409 0
M  V30 3747 H 368.047 2.36686 -1.84174 0
M  V30 3748 H 365.6 1.21015 -0.98919 0
M  V30 3749 H 366.335 3.18782 0.59569 0
M  V30 3750 H 366.12 3.76909 -1.08083 0
M  V30 3751 H 367.61 4.17227 -0.176451 0
M  V30 3752 N 368.047 0.979072 1.23499 0
M  V30 3753 C 369.277 0.664237 1.95631 0
M  V30 3754 C 369.685 -0.772653 1.72704 0
M  V30 3755 O 369.028 -1.53141 1.01457 0
M  V30 3756 C 369.09 0.873115 3.48736 0
M  V30 3757 C 368.754 2.29182 3.95379 0
M  V30 3758 C 369.751 3.2704 4.04155 0
M  V30 3759 C 367.436 2.62256 4.28401 0
M  V30 3760 C 369.43 4.56052 4.45304 0
M  V30 3761 C 367.117 3.91491 4.69231 0
M  V30 3762 C 368.115 4.88201 4.77649 0
M  V30 3763 O 367.803 6.15129 5.17563 0
M  V30 3764 H 367.535 0.245915 0.629684 0
M  V30 3765 H 370.089 1.3127 1.57979 0
M  V30 3766 H 368.319 0.167476 3.86337 0
M  V30 3767 H 370.008 0.555642 4.02079 0
M  V30 3768 H 370.774 3.02819 3.78848 0
M  V30 3769 H 366.653 1.87692 4.21061 0
M  V30 3770 H 370.197 5.31538 4.51789 0
M  V30 3771 H 366.094 4.15508 4.93987 0
M  V30 3772 H 366.862 6.18862 5.35679 0
M  V30 3773 N 369.525 -1.3858 0.750561 0
M  V30 3774 C 370.455 -2.33102 0.136237 0
M  V30 3775 C 371.436 -1.54713 -0.706965 0
M  V30 3776 O 372.621 -1.83043 -0.648769 0
M  V30 3777 C 369.751 -3.38882 -0.760017 0
M  V30 3778 C 368.705 -4.27995 -0.0197785 0
M  V30 3779 C 368.031 -5.24605 -1.03408 0
M  V30 3780 C 369.331 -5.09554 1.14684 0
M  V30 3781 H 371.025 -2.84726 0.925822 0
M  V30 3782 H 368.571 -1.36898 0.446654 0
M  V30 3783 H 370.524 -4.0397 -1.19943 0
M  V30 3784 H 369.248 -2.85734 -1.58189 0
M  V30 3785 H 367.907 -3.64409 0.400184 0
M  V30 3786 H 367.555 -4.67746 -1.84994 0
M  V30 3787 H 367.255 -5.85081 -0.543464 0
M  V30 3788 H 368.779 -5.9257 -1.47288 0
M  V30 3789 H 370.193 -5.67899 0.785118 0
M  V30 3790 H 368.59 -5.7925 1.56812 0
M  V30 3791 H 369.66 -4.4347 1.96118 0
M  V30 3792 N 371.003 -0.499398 -1.49478 0
M  V30 3793 C 372.228 0.044722 -2.07352 0
M  V30 3794 C 372.653 1.30207 -1.35749 0
M  V30 3795 O 372.011 1.76516 -0.413732 0
M  V30 3796 C 372.059 0.283013 -3.59488 0
M  V30 3797 O 371.163 1.35804 -3.89398 0
M  V30 3798 H 370.504 -0.0255147 -0.66351 0
M  V30 3799 H 373.034 -0.698561 -1.92305 0
M  V30 3800 H 373.044 0.515007 -4.04737 0
M  V30 3801 H 371.719 -0.635636 -4.11014 0
M  V30 3802 H 370.296 1.11113 -3.55961 0
M  V30 3803 N 372.481 1.55866 -0.233164 0
M  V30 3804 C 373.758 1.90471 0.444988 0
M  V30 3805 C 374.138 1.15209 1.7689 0
M  V30 3806 O 373.486 0.265119 2.26957 0
M  V30 3807 C 373.696 3.4333 0.626559 0
M  V30 3808 C 375.044 4.14319 0.92871 0
M  V30 3809 O 376.068 3.48993 0.712926 0
M  V30 3810 O 374.927 5.29846 1.33887 0
M  V30 3811 H 372.021 0.792347 0.236885 0
M  V30 3812 H 374.567 1.67437 -0.276211 0
M  V30 3813 H 373.339 3.90095 -0.306822 0
M  V30 3814 H 372.962 3.72181 1.39881 0
M  V30 3815 N 373.959 -0.0401083 1.57549 0
M  V30 3816 C 375.184 -0.748931 1.93406 0
M  V30 3817 C 375.609 -1.68686 0.832274 0
M  V30 3818 O 374.967 -1.80047 -0.212818 0
M  V30 3819 C 375.015 -1.4916 3.28304 0
M  V30 3820 O 374.119 -2.6042 3.19774 0
M  V30 3821 H 373.46 -0.202212 0.63246 0
M  V30 3822 H 375.99 0.00112086 2.046 0
M  V30 3823 H 376 -1.86395 3.62934 0
M  V30 3824 H 374.675 -0.80364 4.08062 0
M  V30 3825 H 373.252 -2.25808 2.96758 0
M  V30 3826 N 375.437 -1.54477 -0.31217 0
M  V30 3827 C 376.667 -1.76948 -1.06645 0
M  V30 3828 C 377.075 -0.523593 -1.81811 0
M  V30 3829 O 376.418 0.51578 -1.76311 0
M  V30 3830 C 376.48 -2.91668 -2.10166 0
M  V30 3831 C 376.144 -4.30165 -1.54296 0
M  V30 3832 C 377.141 -5.10603 -0.978793 0
M  V30 3833 C 374.826 -4.76738 -1.58196 0
M  V30 3834 C 376.82 -6.3573 -0.461048 0
M  V30 3835 C 374.507 -6.01831 -1.06034 0
M  V30 3836 C 375.505 -6.81161 -0.500844 0
M  V30 3837 O 375.193 -8.03899 0.0128958 0
M  V30 3838 H 374.925 -0.594088 -0.322546 0
M  V30 3839 H 377.479 -2.02213 -0.360441 0
M  V30 3840 H 375.709 -2.62001 -2.84416 0
M  V30 3841 H 377.398 -3.01817 -2.71406 0
M  V30 3842 H 378.164 -4.75771 -0.941651 0
M  V30 3843 H 374.043 -4.15027 -2.00683 0
M  V30 3844 H 377.587 -6.97596 -0.0236894 0
M  V30 3845 H 373.484 -6.36152 -1.09459 0
M  V30 3846 H 374.252 -8.18437 -0.101457 0
M  V30 3847 N 376.915 0.57481 -1.46744 0
M  V30 3848 C 377.878 1.66533 -1.57478 0
M  V30 3849 C 378.878 1.54338 -0.451263 0
M  V30 3850 O 380.068 1.58814 -0.715813 0
M  V30 3851 C 377.2 3.05999 -1.50259 0
M  V30 3852 H 378.393 1.58372 -2.54673 0
M  V30 3853 H 375.946 0.793301 -1.34672 0
M  V30 3854 H 376.681 3.19709 -0.543725 0
M  V30 3855 H 376.466 3.16259 -2.31781 0
M  V30 3856 H 377.956 3.8537 -1.60872 0
M  V30 3857 N 378.394 1.34581 0.820102 0
M  V30 3858 C 379.805 1.24298 1.39309 0
M  V30 3859 C 380.156 -0.130351 1.95767 0
M  V30 3860 O 379.281 -1.0308 1.90272 0
M  V30 3861 C 379.876 2.25054 2.53251 0
M  V30 3862 C 378.435 2.18552 3.0645 0
M  V30 3863 C 377.582 2.11503 1.79337 0
M  V30 3864 H 380.533 1.45906 0.624262 0
M  V30 3865 H 380.554 1.86917 3.31425 0
M  V30 3866 H 380.066 3.24996 2.1213 0
M  V30 3867 H 378.167 1.21976 3.52069 0
M  V30 3868 H 378.28 3.0993 3.65349 0
M  V30 3869 H 376.644 1.57268 2.00347 0
M  V30 3870 H 377.427 3.13284 1.40386 0
M  V30 3871 N 379.872 -1.04064 1.18357 0
M  V30 3872 C 381.283 -1.58719 0.98312 0
M  V30 3873 C 381.634 -1.90556 -0.467193 0
M  V30 3874 O 380.759 -1.69561 -1.34454 0
M  V30 3875 C 381.354 -2.88379 1.77828 0
M  V30 3876 C 379.913 -3.3965 1.62218 0
M  V30 3877 C 379.06 -2.13235 1.77274 0
M  V30 3878 H 382.011 -0.867359 1.32901 0
M  V30 3879 H 382.032 -3.58773 1.26737 0
M  V30 3880 H 381.544 -2.65176 2.83379 0
M  V30 3881 H 379.645 -3.67866 0.592036 0
M  V30 3882 H 379.758 -4.13475 2.42023 0
M  V30 3883 H 378.122 -2.24542 1.20221 0
M  V30 3884 H 378.905 -1.92487 2.8426 0
M  V30 3885 N 381.35 -0.985608 -1.22978 0
M  V30 3886 C 382.627 -0.573599 -1.87001 0
M  V30 3887 C 383.007 0.949213 -1.88555 0
M  V30 3888 O 382.355 1.82811 -1.37086 0
M  V30 3889 C 382.565 -1.18564 -3.28243 0
M  V30 3890 C 383.913 -1.28163 -4.04796 0
M  V30 3891 O 384.937 -1.13949 -3.37482 0
M  V30 3892 O 383.796 -1.50832 -5.25273 0
M  V30 3893 H 380.89 -0.193868 -0.803955 0
M  V30 3894 H 383.436 -1.08102 -1.30813 0
M  V30 3895 H 382.208 -2.22758 -3.21706 0
M  V30 3896 H 381.831 -0.663363 -3.92027 0
M  V30 3897 N 382.828 1.3818 -0.7579 0
M  V30 3898 C 384.077 1.99261 -0.312744 0
M  V30 3899 C 384.39 1.60846 1.11301 0
M  V30 3900 O 385.596 2.14929 1.65885 0
M  V30 3901 C 384.052 3.56294 -0.50821 0
M  V30 3902 C 383.66 4.03657 -1.94333 0
M  V30 3903 C 385.404 4.24313 -0.125982 0
M  V30 3904 C 383.311 5.53347 -2.08712 0
M  V30 3905 H 382.241 0.745456 -0.113185 0
M  V30 3906 H 384.892 1.57889 -0.935056 0
M  V30 3907 H 383.274 3.95575 0.183353 0
M  V30 3908 H 384.448 3.75655 -2.66871 0
M  V30 3909 H 382.763 3.48376 -2.28086 0
M  V30 3910 H 385.36 5.34279 -0.212125 0
M  V30 3911 H 385.703 4.05962 0.921964 0
M  V30 3912 H 386.236 3.90285 -0.769563 0
M  V30 3913 H 382.975 5.76607 -3.11777 0
M  V30 3914 H 382.495 5.83078 -1.4064 0
M  V30 3915 H 384.174 6.19111 -1.87912 0
M  V30 3916 N 384.306 0.507319 1.49211 0
M  V30 3917 C 385.534 -0.0315749 2.06876 0
M  V30 3918 C 385.949 -1.30241 1.36685 0
M  V30 3919 O 385.306 -1.76937 0.447152 0
M  V30 3920 C 385.357 -0.282627 3.60393 0
M  V30 3921 O 385.078 0.937835 4.27944 0
M  V30 3922 C 386.579 -0.864453 4.3479 0
M  V30 3923 H 383.799 0.0233048 0.670595 0
M  V30 3924 H 386.343 0.706484 1.91909 0
M  V30 3925 H 384.498 -0.97068 3.75042 0
M  V30 3926 H 384.912 0.704567 5.19746 0
M  V30 3927 H 386.386 -0.989664 5.43056 0
M  V30 3928 H 386.863 -1.86382 3.97692 0
M  V30 3929 H 387.469 -0.213672 4.24763 0
M  V30 3930 N 385.784 -1.5574 0.241426 0
M  V30 3931 C 387.012 -2.03208 -0.389134 0
M  V30 3932 C 387.427 -1.12082 -1.51931 0
M  V30 3933 O 386.784 -0.134183 -1.82006 0
M  V30 3934 C 386.835 -3.50064 -0.902087 0
M  V30 3935 O 386.556 -4.37717 0.18305 0
M  V30 3936 C 388.057 -4.13268 -1.60389 0
M  V30 3937 H 385.277 -0.664509 -0.0931053 0
M  V30 3938 H 387.821 -2.0124 0.36369 0
M  V30 3939 H 385.976 -3.52583 -1.60511 0
M  V30 3940 H 386.39 -5.24097 -0.205579 0
M  V30 3941 H 387.864 -5.17733 -1.91458 0
M  V30 3942 H 388.341 -3.59434 -2.52397 0
M  V30 3943 H 388.947 -4.14655 -0.945576 0
M  V30 3944 N 387.262 0.0317525 -1.57568 0
M  V30 3945 C 388.487 0.738664 -1.938 0
M  V30 3946 C 388.912 1.68242 -0.841208 0
M  V30 3947 O 388.27 1.80157 0.203267 0
M  V30 3948 C 388.318 1.47417 -3.29091 0
M  V30 3949 O 387.422 2.5872 -3.2115 0
M  V30 3950 H 386.763 0.198856 -0.633524 0
M  V30 3951 H 389.293 -0.0119713 -2.04596 0
M  V30 3952 H 389.303 1.84468 -3.63917 0
M  V30 3953 H 387.978 0.781988 -4.08482 0
M  V30 3954 H 386.555 2.24231 -2.97951 0
M  V30 3955 N 388.74 1.54641 0.303973 0
M  V30 3956 C 389.97 1.77511 1.05705 0
M  V30 3957 C 390.378 0.533228 1.81531 0
M  V30 3958 O 389.721 -0.506423 1.76582 0
M  V30 3959 C 389.783 2.92779 2.08617 0
M  V30 3960 C 389.447 4.30977 1.52013 0
M  V30 3961 C 390.444 5.11115 0.9517 0
M  V30 3962 C 388.129 4.77571 1.55665 0
M  V30 3963 C 390.123 6.35966 0.427327 0
M  V30 3964 C 387.81 6.02384 1.02841 0
M  V30 3965 C 388.808 6.81417 0.464713 0
M  V30 3966 O 388.496 8.03881 -0.0555283 0
M  V30 3967 H 388.228 0.59579 0.319391 0
M  V30 3968 H 390.782 2.02401 0.349712 0
M  V30 3969 H 389.012 2.63506 2.83022 0
M  V30 3970 H 390.701 3.03252 2.69802 0
M  V30 3971 H 391.467 4.76264 0.916407 0
M  V30 3972 H 387.346 4.16085 1.9848 0
M  V30 3973 H 390.89 6.97599 -0.0133062 0
M  V30 3974 H 386.787 6.36723 1.06084 0
M  V30 3975 H 387.555 8.18479 0.0580522 0
M  V30 3976 N 390.218 -0.567019 1.47046 0
M  V30 3977 C 391.443 -1.3551 1.57009 0
M  V30 3978 C 391.868 -1.86841 0.217259 0
M  V30 3979 O 391.226 -1.62435 -0.805268 0
M  V30 3980 C 391.274 -2.50777 2.5912 0
M  V30 3981 O 390.378 -3.52706 2.13711 0
M  V30 3982 H 389.719 -0.402919 0.52778 0
M  V30 3983 H 392.249 -0.686241 1.92748 0
M  V30 3984 H 392.259 -2.97481 2.79229 0
M  V30 3985 H 390.934 -2.12771 3.57353 0
M  V30 3986 H 389.511 -3.12374 2.03659 0
M  V30 3987 N 391.696 -1.35014 -0.812953 0
M  V30 3988 C 392.628 -1.23262 -1.93233 0
M  V30 3989 C 393.641 -0.157371 -1.62038 0
M  V30 3990 O 394.83 -0.410096 -1.73725 0
M  V30 3991 C 391.93 -0.87392 -3.27438 0
M  V30 3992 C 391.103 -2.04622 -3.86586 0
M  V30 3993 C 390.162 -1.66432 -4.99186 0
M  V30 3994 O 389.188 -2.38222 -5.16951 0
M  V30 3995 N 390.39 -0.584248 -5.77552 0
M  V30 3996 H 393.155 -2.19699 -2.03844 0
M  V30 3997 H 390.716 -1.281 -0.99005 0
M  V30 3998 H 392.708 -0.600039 -4.00227 0
M  V30 3999 H 391.278 0.00057392 -3.126 0
M  V30 4000 H 390.498 -2.48427 -3.06068 0
M  V30 4001 H 391.786 -2.82999 -4.22835 0
M  V30 4002 H 391.184 0.0123526 -5.65699 0
M  V30 4003 H 389.741 -0.37013 -6.50748 0
M  V30 4004 N 393.175 1.03435 -1.18907 0
M  V30 4005 C 394.125 2.09924 -0.889706 0
M  V30 4006 C 395.109 1.60261 0.143216 0
M  V30 4007 O 396.301 1.76892 -0.0617122 0
M  V30 4008 C 393.43 3.40669 -0.424168 0
M  V30 4009 C 392.516 3.97082 -1.48952 0
M  V30 4010 N 392.907 4.27227 -2.70759 0
M  V30 4011 C 391.205 4.25029 -1.35152 0
M  V30 4012 C 391.906 4.7246 -3.39347 0
M  V30 4013 N 390.882 4.7366 -2.66735 0
M  V30 4014 H 394.684 2.31116 -1.81555 0
M  V30 4015 H 392.198 1.21246 -1.08042 0
M  V30 4016 H 394.195 4.16461 -0.191176 0
M  V30 4017 H 392.855 3.20901 0.495263 0
M  V30 4018 H 393.866 4.16678 -3.0757 0
M  V30 4019 H 390.543 4.14554 -0.495126 0
M  V30 4020 H 391.933 5.04751 -4.43481 0
M  V30 4021 N 394.653 0.992116 1.22453 0
M  V30 4022 C 395.583 0.561677 2.26644 0
M  V30 4023 C 396.564 -0.411055 1.65059 0
M  V30 4024 O 397.749 -0.301861 1.9184 0
M  V30 4025 C 394.879 -0.125247 3.47074 0
M  V30 4026 C 393.833 0.765948 4.21091 0
M  V30 4027 C 393.159 -0.0538484 5.34673 0
M  V30 4028 C 394.459 2.06242 4.79856 0
M  V30 4029 H 396.153 1.43259 2.62902 0
M  V30 4030 H 393.699 0.690283 1.26377 0
M  V30 4031 H 395.652 -0.437764 4.1912 0
M  V30 4032 H 394.376 -1.03069 3.0991 0
M  V30 4033 H 393.035 1.0621 3.50878 0
M  V30 4034 H 392.683 -0.960188 4.9375 0
M  V30 4035 H 392.383 0.539415 5.85119 0
M  V30 4036 H 393.907 -0.360477 6.09535 0
M  V30 4037 H 395.321 1.8139 5.43848 0
M  V30 4038 H 393.718 2.60444 5.40638 0
M  V30 4039 H 394.788 2.74167 3.99951 0
M  V30 4040 N 396.131 -1.37776 0.765217 0
M  V30 4041 C 397.408 -1.93975 0.251596 0
M  V30 4042 C 397.788 -1.69949 -1.25222 0
M  V30 4043 O 397.136 -1.04457 -2.03226 0
M  V30 4044 C 397.346 -3.43487 0.617895 0
M  V30 4045 C 398.694 -4.20564 0.584029 0
M  V30 4046 O 399.718 -3.5182 0.556888 0
M  V30 4047 O 398.577 -5.43138 0.605291 0
M  V30 4048 H 395.671 -0.82509 0.0561806 0
M  V30 4049 H 398.217 -1.47101 0.846128 0
M  V30 4050 H 396.989 -3.5453 1.65602 0
M  V30 4051 H 396.612 -3.976 -0.00403411 0
M  V30 4052 N 397.609 -0.515225 -1.4894 0
M  V30 4053 C 398.557 0.269115 -2.31038 0
M  V30 4054 C 399.551 0.949443 -1.40292 0
M  V30 4055 O 400.757 0.87551 -1.57273 0
M  V30 4056 H 397.132 0.10565 -0.744542 0
M  V30 4057 H 399.103 -0.443096 -2.95092 0
M  V30 4058 C 397.852 1.31213 -3.21991 0
M  V30 4059 H 397.175 0.798034 -3.91754 0
M  V30 4060 H 398.615 1.83263 -3.82349 0
M  V30 4061 C 397.074 2.33791 -2.42576 0
M  V30 4062 O 397.604 3.3995 -2.14003 0
M  V30 4063 N 395.81 2.06625 -2.0434 0
M  V30 4064 H 395.357 1.20314 -2.27777 0
M  V30 4065 H 395.315 2.75483 -1.51514 0
M  V30 4066 N 399.087 1.5561 -0.249682 0
M  V30 4067 C 399.997 2.25143 0.659375 0
M  V30 4068 C 401.013 1.2685 1.19101 0
M  V30 4069 O 402.189 1.59732 1.22669 0
M  V30 4070 C 399.254 2.93945 1.8384 0
M  V30 4071 C 398.315 4.07655 1.34596 0
M  V30 4072 C 397.548 4.73167 2.46878 0
M  V30 4073 O 397.771 4.37768 3.65671 0
M  V30 4074 O 396.705 5.61623 2.16478 0
M  V30 4075 H 400.531 3.03545 0.0968698 0
M  V30 4076 H 398.116 1.49389 -0.018074 0
M  V30 4077 H 399.998 3.37271 2.52638 0
M  V30 4078 H 398.673 2.18481 2.38847 0
M  V30 4079 H 397.58 3.68839 0.625174 0
M  V30 4080 H 398.913 4.84946 0.841941 0
M  V30 4081 N 400.565 -0.0233959 1.57583 0
M  V30 4082 C 401.814 -0.712133 1.8871 0
M  V30 4083 C 402.127 -1.76217 0.848944 0
M  V30 4084 O 403.333 -2.50389 1.04964 0
M  V30 4085 C 401.789 -1.3177 3.3491 0
M  V30 4086 C 401.397 -0.303715 4.46969 0
M  V30 4087 C 403.141 -1.98598 3.75179 0
M  V30 4088 C 401.048 -0.917945 5.84233 0
M  V30 4089 H 399.978 -0.269735 0.704101 0
M  V30 4090 H 402.629 0.0333114 1.8347 0
M  V30 4091 H 401.011 -2.11304 3.34913 0
M  V30 4092 H 402.185 0.465325 4.58445 0
M  V30 4093 H 400.5 0.2628 4.1557 0
M  V30 4094 H 403.097 -2.45416 4.75053 0
M  V30 4095 H 403.44 -2.80659 3.07468 0
M  V30 4096 H 403.973 -1.25831 3.77374 0
M  V30 4097 H 400.712 -0.136633 6.55358 0
M  V30 4098 H 400.232 -1.65669 5.76467 0
M  V30 4099 H 401.911 -1.4236 6.31144 0
M  V30 4100 N 402.043 -1.548 -0.295768 0
M  V30 4101 C 403.268 -1.78653 -1.05346 0
M  V30 4102 C 403.693 -0.546894 -1.79974 0
M  V30 4103 O 403.051 0.502763 -1.7419 0
M  V30 4104 C 403.099 -2.99679 -2.00561 0
M  V30 4105 O 402.203 -2.7317 -3.08953 0
M  V30 4106 H 401.544 -0.59116 -0.302367 0
M  V30 4107 H 404.074 -2.01895 -0.331598 0
M  V30 4108 H 404.084 -3.27793 -2.42932 0
M  V30 4109 H 402.759 -3.89562 -1.4565 0
M  V30 4110 H 401.336 -2.56089 -2.71059 0
M  V30 4111 N 403.521 0.559213 -1.47345 0
M  V30 4112 C 404.471 1.66192 -1.5609 0
M  V30 4113 C 405.455 1.55323 -0.419957 0
M  V30 4114 O 406.647 1.63839 -0.669762 0
M  V30 4115 C 403.776 3.0497 -1.57634 0
M  V30 4116 C 402.862 3.2105 -2.77106 0
M  V30 4117 N 403.253 3.07203 -4.01821 0
M  V30 4118 C 401.551 3.52046 -2.73825 0
M  V30 4119 C 402.252 3.25919 -4.81821 0
M  V30 4120 N 401.228 3.52161 -4.14106 0
M  V30 4121 H 405.03 1.54052 -2.5029 0
M  V30 4122 H 402.544 0.763914 -1.43311 0
M  V30 4123 H 404.541 3.84142 -1.61989 0
M  V30 4124 H 403.201 3.18224 -0.645281 0
M  V30 4125 H 404.212 2.84572 -4.32711 0
M  V30 4126 H 400.889 3.71839 -1.89848 0
M  V30 4127 H 402.279 3.20198 -5.90697 0
M  V30 4128 N 404.999 1.35443 0.805782 0
M  V30 4129 C 406.224 1.32037 1.59941 0
M  V30 4130 C 406.649 -0.0994215 1.87837 0
M  V30 4131 O 406.007 -1.06648 1.46615 0
M  V30 4132 C 406.055 2.13354 2.90711 0
M  V30 4133 O 405.159 1.5148 3.83572 0
M  V30 4134 H 404.5 0.452666 0.485787 0
M  V30 4135 H 407.03 1.78496 1.00002 0
M  V30 4136 H 407.04 2.25338 3.40128 0
M  V30 4137 H 405.715 3.16572 2.69732 0
M  V30 4138 H 404.292 1.4834 3.42125 0
M  V30 4139 N 406.477 -1.02803 1.19454 0
M  V30 4140 C 407.702 -1.80378 1.02364 0
M  V30 4141 C 408.127 -1.83282 -0.423007 0
M  V30 4142 O 407.485 -1.25945 -1.30413 0
M  V30 4143 C 407.533 -3.23248 1.59821 0
M  V30 4144 O 406.637 -4.04 0.828105 0
M  V30 4145 H 405.978 -0.556799 0.361761 0
M  V30 4146 H 408.508 -1.29385 1.58495 0
M  V30 4147 H 408.518 -3.73994 1.63073 0
M  V30 4148 H 407.193 -3.2045 2.65113 0
M  V30 4149 H 405.77 -3.62635 0.86891 0
M  V30 4150 N 407.956 -0.998596 -1.21925 0
M  V30 4151 C 409.186 -0.695276 -1.94549 0
M  V30 4152 C 409.594 0.745079 -1.73911 0
M  V30 4153 O 408.937 1.51507 -1.03881 0
M  V30 4154 C 408.999 -0.928485 -3.47303 0
M  V30 4155 C 408.663 -2.35443 -3.91683 0
M  V30 4156 C 409.66 -3.33428 -3.98901 0
M  V30 4157 C 407.345 -2.69038 -4.24174 0
M  V30 4158 C 409.339 -4.63079 -4.37992 0
M  V30 4159 C 407.026 -3.98906 -4.62944 0
M  V30 4160 C 408.024 -4.95738 -4.69822 0
M  V30 4161 O 407.712 -6.23285 -5.07711 0
M  V30 4162 H 407.444 -0.255902 -0.625692 0
M  V30 4163 H 409.998 -1.33767 -1.5587 0
M  V30 4164 H 408.228 -0.228917 -3.86022 0
M  V30 4165 H 409.917 -0.619539 -4.01144 0
M  V30 4166 H 410.683 -3.08807 -3.73983 0
M  V30 4167 H 406.562 -1.94367 -4.18022 0
M  V30 4168 H 410.106 -5.38658 -4.43275 0
M  V30 4169 H 406.003 -4.23314 -4.87314 0
M  V30 4170 H 406.771 -6.27306 -5.25766 0
M  V30 4171 N 409.434 1.37368 -0.772513 0
M  V30 4172 C 410.364 2.32856 -0.173304 0
M  V30 4173 C 411.345 1.55818 0.682262 0
M  V30 4174 O 412.53 1.84052 0.619566 0
M  V30 4175 C 409.66 3.40048 0.706007 0
M  V30 4176 C 408.614 4.27973 -0.0483144 0
M  V30 4177 C 407.94 5.26184 0.950491 0
M  V30 4178 C 409.24 5.07665 -1.22776 0
M  V30 4179 H 410.934 2.83217 -0.971002 0
M  V30 4180 H 408.48 1.3617 -0.468377 0
M  V30 4181 H 410.433 4.05827 1.13501 0
M  V30 4182 H 409.157 2.88214 1.53623 0
M  V30 4183 H 407.816 3.63726 -0.458107 0
M  V30 4184 H 407.464 4.7063 1.77529 0
M  V30 4185 H 407.164 5.85872 0.450314 0
M  V30 4186 H 408.688 5.94838 1.37842 0
M  V30 4187 H 410.102 5.66578 -0.875366 0
M  V30 4188 H 408.499 5.76681 -1.66007 0
M  V30 4189 H 409.569 4.40294 -2.03149 0
M  V30 4190 N 410.912 0.523116 1.48665 0
M  V30 4191 C 412.16 -0.0134497 2.02096 0
M  V30 4192 C 412.481 -1.35418 1.40311 0
M  V30 4193 O 411.751 -1.87543 0.566074 0
M  V30 4194 H 410.331 -0.00795915 0.746958 0
M  V30 4195 H 412.993 0.685388 1.82451 0
M  V30 4196 H 412.089 -0.126849 3.11842 0
M  V30 4197 N 412.39 -1.55475 0.257931 0
M  V30 4198 C 413.618 -2.03609 -0.367559 0
M  V30 4199 C 414.033 -1.13687 -1.50734 0
M  V30 4200 O 413.39 -0.153479 -1.81853 0
M  V30 4201 C 413.441 -3.51001 -0.864908 0
M  V30 4202 O 413.162 -4.37499 0.229465 0
M  V30 4203 C 414.663 -4.14946 -1.55997 0
M  V30 4204 H 411.883 -0.665459 -0.0860521 0
M  V30 4205 H 414.427 -2.00843 0.385014 0
M  V30 4206 H 412.582 -3.54266 -1.56762 0
M  V30 4207 H 412.996 -5.24286 -0.14998 0
M  V30 4208 H 414.47 -5.19735 -1.85956 0
M  V30 4209 H 414.947 -3.6209 -2.4857 0
M  V30 4210 H 415.553 -4.15635 -0.901543 0
M  V30 4211 N 413.868 0.0150385 -1.57593 0
M  V30 4212 C 415.145 0.7392 -1.81094 0
M  V30 4213 C 415.525 1.92817 -0.859344 0
M  V30 4214 O 414.873 2.28301 0.095362 0
M  V30 4215 C 415.083 1.15907 -3.29191 0
M  V30 4216 C 416.431 1.56918 -3.9454 0
M  V30 4217 O 417.455 1.25328 -3.33424 0
M  V30 4218 O 416.314 2.15604 -5.02173 0
M  V30 4219 H 413.408 0.358631 -0.745193 0
M  V30 4220 H 415.954 -0.00926156 -1.69697 0
M  V30 4221 H 414.726 0.310921 -3.90063 0
M  V30 4222 H 414.349 1.96711 -3.45529 0
M  V30 4223 N 415.346 1.54954 0.287554 0
M  V30 4224 C 416.576 1.78622 1.03816 0
M  V30 4225 C 416.984 0.552451 1.80955 0
M  V30 4226 O 416.327 -0.487665 1.77109 0
M  V30 4227 C 416.389 2.94975 2.055 0
M  V30 4228 C 416.053 4.32565 1.47433 0
M  V30 4229 C 417.05 5.12096 0.897436 0
M  V30 4230 C 414.735 4.79195 1.50591 0
M  V30 4231 C 416.729 6.36383 0.359851 0
M  V30 4232 C 414.416 6.03441 0.964459 0
M  V30 4233 C 415.414 6.81872 0.392413 0
M  V30 4234 O 415.102 8.03777 -0.140788 0
M  V30 4235 H 414.834 0.599144 0.313053 0
M  V30 4236 H 417.388 2.02761 0.328225 0
M  V30 4237 H 415.618 2.66493 2.80211 0
M  V30 4238 H 417.307 3.06097 2.6657 0
M  V30 4239 H 418.073 4.77209 0.865841 0
M  V30 4240 H 413.952 4.18167 1.94055 0
M  V30 4241 H 417.496 6.97545 -0.0872951 0
M  V30 4242 H 413.393 6.37813 0.993246 0
M  V30 4243 H 414.161 8.18495 -0.0287617 0
M  V30 4244 N 416.824 -0.551391 1.4764 0
M  V30 4245 C 418.235 -1.13349 1.48354 0
M  V30 4246 C 418.586 -1.94709 0.241432 0
M  V30 4247 O 417.711 -2.06306 -0.653205 0
M  V30 4248 C 418.306 -2.0623 2.68802 0
M  V30 4249 C 416.865 -2.597 2.72457 0
M  V30 4250 C 416.012 -1.36201 2.41546 0
M  V30 4251 H 418.963 -0.337698 1.55065 0
M  V30 4252 H 418.984 -2.90196 2.46103 0
M  V30 4253 H 418.496 -1.46987 3.59188 0
M  V30 4254 H 416.597 -3.22724 1.86225 0
M  V30 4255 H 416.71 -3.00296 3.73308 0
M  V30 4256 H 415.074 -1.67068 1.9225 0
M  V30 4257 H 415.857 -0.787425 3.34147 0
M  V30 4258 N 418.302 -1.35869 -0.798587 0
M  V30 4259 C 419.53 -1.32722 -1.58722 0
M  V30 4260 C 419.945 0.0935631 -1.88568 0
M  V30 4261 O 419.302 1.04784 -1.49421 0
M  V30 4262 C 419.353 -2.13974 -2.91371 0
M  V30 4263 O 419.074 -3.50514 -2.62815 0
M  V30 4264 C 420.575 -2.18504 -3.85708 0
M  V30 4265 H 417.795 -0.45562 -0.492596 0
M  V30 4266 H 420.339 -1.78837 -0.991843 0
M  V30 4267 H 418.494 -1.71438 -3.47402 0
M  V30 4268 H 418.908 -3.92806 -3.47568 0
M  V30 4269 H 420.382 -2.79732 -4.75872 0
M  V30 4270 H 420.859 -1.18597 -4.22885 0
M  V30 4271 H 421.465 -2.61236 -3.35612 0
M  V30 4272 N 419.78 1.02168 -1.19998 0
M  V30 4273 C 420.743 2.08765 -0.94604 0
M  V30 4274 C 421.743 1.60618 0.0763846 0
M  V30 4275 O 422.933 1.73472 -0.159135 0
M  V30 4276 C 420.065 3.38262 -0.423255 0
M  V30 4277 H 421.258 2.32726 -1.89153 0
M  V30 4278 H 418.811 1.1889 -1.01464 0
M  V30 4279 H 419.546 3.19974 0.527938 0
M  V30 4280 H 419.331 3.74532 -1.16053 0
M  V30 4281 H 420.821 4.16759 -0.264911 0
M  V30 4282 N 421.258 1.00505 1.21394 0
M  V30 4283 C 422.191 0.51032 2.22421 0
M  V30 4284 C 423.169 -0.436 1.56645 0
M  V30 4285 O 424.353 -0.358709 1.85055 0
M  V30 4286 C 421.48 -0.258733 3.3771 0
M  V30 4287 C 420.526 0.635395 4.2174 0
M  V30 4288 S 421.359 2.09783 4.92698 0
M  V30 4289 C 422.515 1.33862 6.11418 0
M  V30 4290 H 422.748 1.36637 2.64041 0
M  V30 4291 H 420.281 0.812991 1.31262 0
M  V30 4292 H 422.239 -0.696372 4.0455 0
M  V30 4293 H 420.9 -1.0902 2.94573 0
M  V30 4294 H 420.093 0.0430189 5.03982 0
M  V30 4295 H 419.695 1.01031 3.60095 0
M  V30 4296 H 421.987 0.612541 6.74725 0
M  V30 4297 H 422.93 2.13675 6.75092 0
M  V30 4298 H 423.338 0.846568 5.58116 0
M  V30 4299 N 422.737 -1.36956 0.779787 0
M  V30 4300 C 423.965 -2.03755 0.359398 0
M  V30 4301 C 424.38 -1.58807 -1.02106 0
M  V30 4302 O 423.737 -0.773024 -1.6532 0
M  V30 4303 C 423.788 -3.59251 0.402568 0
M  V30 4304 O 423.509 -4.02557 1.72858 0
M  V30 4305 C 425.01 -4.43291 -0.0284068 0
M  V30 4306 H 422.23 -0.654148 0.149437 0
M  V30 4307 H 424.774 -1.75128 1.05595 0
M  V30 4308 H 422.929 -3.86621 -0.245478 0
M  V30 4309 H 423.343 -4.97111 1.67275 0
M  V30 4310 H 424.817 -5.51975 0.0529466 0
M  V30 4311 H 425.294 -4.25719 -1.07982 0
M  V30 4312 H 425.9 -4.21163 0.591758 0
M  V30 4313 N 424.215 -0.530993 -1.48385 0
M  V30 4314 C 425.626 -0.0907905 -1.86479 0
M  V30 4315 C 425.977 1.33213 -1.44044 0
M  V30 4316 O 425.102 1.99783 -0.831615 0
M  V30 4317 C 425.697 -0.157987 -3.38431 0
M  V30 4318 C 424.256 0.227026 -3.75715 0
M  V30 4319 C 423.403 -0.5173 -2.72432 0
M  V30 4320 H 426.354 -0.742186 -1.40276 0
M  V30 4321 H 426.375 0.630053 -3.75247 0
M  V30 4322 H 425.887 -1.19372 -3.69286 0
M  V30 4323 H 423.988 1.26486 -3.50474 0
M  V30 4324 H 424.101 -0.113288 -4.78966 0
M  V30 4325 H 422.465 0.0365527 -2.54674 0
M  V30 4326 H 423.248 -1.55368 -3.0613 0
M  V30 4327 N 425.693 1.55336 -0.266172 0
M  V30 4328 C 426.921 2.03801 0.356756 0
M  V30 4329 C 427.336 1.14485 1.50129 0
M  V30 4330 O 426.693 0.163121 1.8177 0
M  V30 4331 C 426.744 3.51455 0.846281 0
M  V30 4332 O 426.465 4.37371 -0.252663 0
M  V30 4333 C 427.966 4.15767 1.53794 0
M  V30 4334 H 425.186 0.665906 0.0825218 0
M  V30 4335 H 427.73 2.00636 -0.39566 0
M  V30 4336 H 425.885 3.55092 1.54881 0
M  V30 4337 H 426.299 5.24358 0.122173 0
M  V30 4338 H 427.773 5.20714 1.83198 0
M  V30 4339 H 428.25 3.63404 2.46646 0
M  V30 4340 H 428.856 4.16107 0.879488 0
M  V30 4341 N 427.171 -0.0066808 1.57599 0
M  V30 4342 C 428.396 -0.707738 1.94951 0
M  V30 4343 C 428.821 -1.66882 0.867868 0
M  V30 4344 O 428.179 -1.80457 -0.17458 0
M  V30 4345 C 428.227 -1.42162 3.31394 0
M  V30 4346 O 427.331 -2.53578 3.25226 0
M  V30 4347 H 426.672 -0.188752 0.636607 0
M  V30 4348 H 429.202 0.0445193 2.04552 0
M  V30 4349 H 429.212 -1.78655 3.66806 0
M  V30 4350 H 427.887 -0.716903 4.09675 0
M  V30 4351 H 426.464 -2.19463 3.01481 0
M  V30 4352 N 428.649 -1.55105 -0.279332 0
M  V30 4353 C 430.06 -1.66186 -0.850832 0
M  V30 4354 C 430.411 -0.584707 -1.87285 0
M  V30 4355 O 429.536 0.274919 -2.14647 0
M  V30 4356 C 430.131 -3.01264 -1.55001 0
M  V30 4357 C 428.69 -3.14394 -2.06963 0
M  V30 4358 C 427.837 -2.61959 -0.909536 0
M  V30 4359 H 430.788 -1.58602 -0.0558235 0
M  V30 4360 H 430.809 -2.93899 -2.41669 0
M  V30 4361 H 430.321 -3.7964 -0.805931 0
M  V30 4362 H 428.422 -2.4078 -2.84352 0
M  V30 4363 H 428.535 -4.20867 -2.28928 0
M  V30 4364 H 426.899 -2.18957 -1.30116 0
M  V30 4365 H 427.682 -3.42833 -0.179062 0
M  V30 4366 N 430.127 0.543554 -1.4793 0
M  V30 4367 C 431.543 0.870806 -1.3375 0
M  V30 4368 C 431.743 1.9864 -0.338261 0
M  V30 4369 O 430.799 2.51305 0.245371 0
M  V30 4370 C 432.112 1.25114 -2.73435 0
M  V30 4371 C 433.66 1.3618 -2.81823 0
M  V30 4372 C 434.135 1.77563 -4.22179 0
M  V30 4373 N 435.626 1.8469 -4.24787 0
M  V30 4374 C 436.361 2.18067 -5.30315 0
M  V30 4375 N 435.857 2.49963 -6.46135 0
M  V30 4376 N 437.65 2.18958 -5.17701 0
M  V30 4377 H 429.801 -0.19275 -2.11524 0
M  V30 4378 H 432.064 -0.0235777 -0.947707 0
M  V30 4379 H 431.77 0.50514 -3.48053 0
M  V30 4380 H 431.644 2.20431 -3.06088 0
M  V30 4381 H 434.031 2.09859 -2.07468 0
M  V30 4382 H 434.112 0.390169 -2.52807 0
M  V30 4383 H 433.756 1.04449 -4.97044 0
M  V30 4384 H 433.686 2.75753 -4.48629 0
M  V30 4385 H 436.177 1.62372 -3.41239 0
M  V30 4386 H 436.49 2.74497 -7.22406 0
M  V30 4387 H 434.835 2.47513 -6.49432 0
M  V30 4388 H 438.026 1.93488 -4.2624 0
M  V30 4389 H 438.199 2.44639 -6.00047 0
M  V30 4390 N 431.605 1.3629 0.791371 0
M  V30 4391 C 433.021 1.16661 1.08914 0
M  V30 4392 C 433.221 -0.0106266 2.01497 0
M  V30 4393 O 432.277 -0.676596 2.43266 0
M  V30 4394 C 433.59 2.47656 1.70549 0
M  V30 4395 C 435.138 2.54002 1.82899 0
M  V30 4396 C 435.613 3.85078 2.47949 0
M  V30 4397 N 437.104 3.86413 2.5542 0
M  V30 4398 C 437.839 4.84572 3.06557 0
M  V30 4399 N 437.335 5.93124 3.58016 0
M  V30 4400 N 439.128 4.71994 3.05251 0
M  V30 4401 H 431.279 2.11668 0.176238 0
M  V30 4402 H 433.542 0.937486 0.140796 0
M  V30 4403 H 433.248 3.34059 1.09989 0
M  V30 4404 H 433.122 2.63319 2.70079 0
M  V30 4405 H 435.509 1.68018 2.42598 0
M  V30 4406 H 435.59 2.42239 0.821808 0
M  V30 4407 H 435.234 4.71467 1.88895 0
M  V30 4408 H 435.164 3.94135 3.49235 0
M  V30 4409 H 437.655 3.07988 2.18979 0
M  V30 4410 H 437.968 6.63999 3.95381 0
M  V30 4411 H 436.313 5.96796 3.56173 0
M  V30 4412 H 439.504 3.86321 2.64336 0
M  V30 4413 H 439.677 5.48653 3.44796 0
M  V30 4414 N 433.083 -1.0153 1.20538 0
M  V30 4415 C 434.313 -1.78487 1.04048 0
M  V30 4416 C 434.721 -1.84631 -0.413292 0
M  V30 4417 O 434.064 -1.29919 -1.29872 0
M  V30 4418 C 434.126 -3.24367 1.55003 0
M  V30 4419 C 433.79 -3.41827 3.0332 0
M  V30 4420 C 434.787 -3.30941 4.00966 0
M  V30 4421 C 432.472 -3.67602 3.42307 0
M  V30 4422 C 434.466 -3.45577 5.35589 0
M  V30 4423 C 432.153 -3.81881 4.77085 0
M  V30 4424 C 433.151 -3.70874 5.73534 0
M  V30 4425 O 432.839 -3.84714 7.05868 0
M  V30 4426 H 432.571 -0.568108 0.366373 0
M  V30 4427 H 435.125 -1.28677 1.60098 0
M  V30 4428 H 433.355 -3.75266 0.933397 0
M  V30 4429 H 435.044 -3.82963 1.34514 0
M  V30 4430 H 435.81 -3.10964 3.72191 0
M  V30 4431 H 431.689 -3.75256 2.67776 0
M  V30 4432 H 435.233 -3.36902 6.10854 0
M  V30 4433 H 431.13 -4.01359 5.0555 0
M  V30 4434 H 431.898 -4.01724 7.13134 0
M  V30 4435 N 434.561 -1.01147 -1.20859 0
M  V30 4436 C 435.786 -0.716698 -1.94623 0
M  V30 4437 C 436.211 0.715415 -1.73964 0
M  V30 4438 O 435.569 1.49157 -1.03062 0
M  V30 4439 C 435.617 -1.0513 -3.44935 0
M  V30 4440 O 434.721 -0.160131 -4.12089 0
M  V30 4441 H 434.062 -0.266404 -0.608214 0
M  V30 4442 H 436.592 -1.35346 -1.53436 0
M  V30 4443 H 436.602 -1.00086 -3.95533 0
M  V30 4444 H 435.277 -2.09475 -3.59295 0
M  V30 4445 H 433.854 -0.267657 -3.71938 0
M  V30 4446 N 436.039 1.36541 -0.78704 0
M  V30 4447 C 437.45 1.81873 -0.421807 0
M  V30 4448 C 437.801 1.65487 1.05397 0
M  V30 4449 O 436.926 1.17448 1.81755 0
M  V30 4450 C 437.521 3.30192 -0.758841 0
M  V30 4451 C 436.08 3.73743 -0.446468 0
M  V30 4452 C 435.227 2.58844 -0.994728 0
M  V30 4453 H 438.178 1.24796 -0.98039 0
M  V30 4454 H 438.199 3.80468 -0.0490648 0
M  V30 4455 H 437.711 3.42087 -1.83299 0
M  V30 4456 H 435.812 3.6741 0.619739 0
M  V30 4457 H 435.925 4.69272 -0.965415 0
M  V30 4458 H 434.289 2.51245 -0.418087 0
M  V30 4459 H 435.072 2.73525 -2.07458 0
M  V30 4460 N 437.518 0.538854 1.48102 0
M  V30 4461 C 438.764 0.00801365 2.02798 0
M  V30 4462 C 439.097 -1.3309 1.41424 0
M  V30 4463 O 438.372 -1.86169 0.563158 0
M  V30 4464 C 438.655 -0.104589 3.59948 0
M  V30 4465 C 438.508 1.26012 4.31788 0
M  V30 4466 C 439.827 -0.827055 4.32259 0
M  V30 4467 H 436.946 0.00438624 0.736987 0
M  V30 4468 H 439.588 0.6976 1.7673 0
M  V30 4469 H 437.738 -0.691893 3.82289 0
M  V30 4470 H 439.41 1.88922 4.2084 0
M  V30 4471 H 437.653 1.83968 3.92859 0
M  V30 4472 H 438.324 1.13424 5.40221 0
M  V30 4473 H 440.8 -0.328578 4.14801 0
M  V30 4474 H 439.676 -0.87476 5.41885 0
M  V30 4475 H 439.937 -1.87927 4.0017 0
M  V30 4476 N 438.996 -1.55193 0.274407 0
M  V30 4477 C 439.959 -2.212 -0.600279 0
M  V30 4478 C 440.959 -1.18963 -1.08187 0
M  V30 4479 O 442.149 -1.43873 -0.982158 0
M  V30 4480 C 439.281 -2.87739 -1.82809 0
M  V30 4481 H 440.474 -2.9989 -0.0239682 0
M  V30 4482 H 438.027 -1.5628 0.0250192 0
M  V30 4483 H 438.762 -2.13058 -2.44493 0
M  V30 4484 H 438.547 -3.62658 -1.49069 0
M  V30 4485 H 440.037 -3.38171 -2.45011 0
M  V30 4486 N 440.474 -0.00167713 -1.576 0
M  V30 4487 C 441.421 0.989195 -2.08527 0
M  V30 4488 C 442.391 1.34031 -0.981065 0
M  V30 4489 O 443.576 1.43839 -1.2536 0
M  V30 4490 C 440.716 2.27537 -2.59463 0
M  V30 4491 C 439.829 1.98314 -3.83791 0
M  V30 4492 C 438.964 3.21025 -4.23222 0
M  V30 4493 C 438.003 2.87495 -5.40382 0
M  V30 4494 N 437.14 4.02749 -5.75098 0
M  V30 4495 H 441.98 0.547973 -2.92919 0
M  V30 4496 H 439.517 0.258917 -1.44803 0
M  V30 4497 H 441.475 3.02729 -2.87073 0
M  V30 4498 H 440.105 2.69325 -1.77943 0
M  V30 4499 H 439.157 1.13482 -3.63078 0
M  V30 4500 H 440.469 1.69601 -4.69081 0
M  V30 4501 H 439.623 4.04561 -4.52123 0
M  V30 4502 H 438.362 3.52877 -3.36644 0
M  V30 4503 H 437.367 2.02367 -5.11202 0
M  V30 4504 H 438.592 2.56889 -6.28637 0
M  V30 4505 H 436.538 4.34494 -4.91478 0
M  V30 4506 H 436.455 3.77566 -6.54966 0
M  V30 4507 H 437.723 4.87068 -6.08592 0
M  V30 4508 N 441.952 1.55251 0.271103 0
M  V30 4509 C 443.229 1.66664 1.02384 0
M  V30 4510 C 443.609 0.534363 2.04225 0
M  V30 4511 O 442.957 -0.465337 2.23712 0
M  V30 4512 C 443.167 3.05961 1.67895 0
M  V30 4513 C 444.515 3.63772 2.18986 0
M  V30 4514 O 445.539 3.08606 1.77878 0
M  V30 4515 O 444.398 4.60429 2.94393 0
M  V30 4516 H 441.492 0.676957 0.475035 0
M  V30 4517 H 444.038 1.67589 0.26681 0
M  V30 4518 H 442.81 3.79815 0.941071 0
M  V30 4519 H 442.433 3.08943 2.5028 0
M  V30 4520 N 443.43 -0.535701 1.48216 0
M  V30 4521 C 444.36 -1.65014 1.65204 0
M  V30 4522 C 445.341 -1.62554 0.501011 0
M  V30 4523 O 446.526 -1.7984 0.732886 0
M  V30 4524 C 443.656 -3.03616 1.68626 0
M  V30 4525 C 442.61 -3.20932 2.83172 0
M  V30 4526 C 441.936 -4.60537 2.71679 0
M  V30 4527 C 443.236 -3.04249 4.24535 0
M  V30 4528 H 444.93 -1.51053 2.58502 0
M  V30 4529 H 442.476 -0.725262 1.24402 0
M  V30 4530 H 444.429 -3.81446 1.79099 0
M  V30 4531 H 443.153 -3.18587 0.719026 0
M  V30 4532 H 441.812 -2.45517 2.72244 0
M  V30 4533 H 441.46 -4.72336 1.72937 0
M  V30 4534 H 441.16 -4.73069 3.48538 0
M  V30 4535 H 442.684 -5.40475 2.84112 0
M  V30 4536 H 444.098 -3.71877 4.36326 0
M  V30 4537 H 442.495 -3.28278 5.02348 0
M  V30 4538 H 443.565 -2.00739 4.41397 0
M  V30 4539 N 444.908 -1.36708 -0.784132 0
M  V30 4540 C 445.838 -1.34153 -1.91116 0
M  V30 4541 C 446.819 -0.212121 -1.68772 0
M  V30 4542 O 448.004 -0.410581 -1.8981 0
M  V30 4543 C 445.134 -1.13535 -3.28218 0
M  V30 4544 C 444.088 -2.23356 -3.65097 0
M  V30 4545 C 443.414 -1.87875 -5.00607 0
M  V30 4546 C 444.714 -3.65473 -3.73131 0
M  V30 4547 H 446.408 -2.28459 -1.93512 0
M  V30 4548 H 443.954 -1.09973 -0.929618 0
M  V30 4549 H 445.907 -1.10381 -4.06687 0
M  V30 4550 H 444.631 -0.156804 -3.26223 0
M  V30 4551 H 443.29 -2.25645 -2.88929 0
M  V30 4552 H 442.938 -0.885814 -4.95139 0
M  V30 4553 H 442.638 -2.61406 -5.26252 0
M  V30 4554 H 444.162 -1.86286 -5.81489 0
M  V30 4555 H 445.576 -3.65382 -4.41779 0
M  V30 4556 H 443.973 -4.37953 -4.10265 0
M  V30 4557 H 445.043 -3.99995 -2.74102 0
M  V30 4558 N 446.386 1.0089 -1.21074 0
M  V30 4559 C 447.634 1.74262 -1.02358 0
M  V30 4560 C 447.955 1.89869 0.444393 0
M  V30 4561 O 447.225 1.44677 1.32081 0
M  V30 4562 H 445.805 0.645615 -0.375754 0
M  V30 4563 H 448.467 1.21596 -1.52317 0
M  V30 4564 H 447.563 2.74328 -1.4883 0
M  V30 4565 N 447.864 1.01787 1.20321 0
M  V30 4566 C 448.774 0.598898 2.26827 0
M  V30 4567 C 449.79 -0.36418 1.70146 0
M  V30 4568 O 450.966 -0.224812 2.00141 0
M  V30 4569 C 448.031 -0.0549769 3.46656 0
M  V30 4570 C 447.092 0.954205 4.18561 0
M  V30 4571 C 446.325 0.331439 5.3267 0
M  V30 4572 O 446.548 -0.86851 5.63749 0
M  V30 4573 O 445.482 1.0488 5.92692 0
M  V30 4574 H 449.308 1.48562 2.64883 0
M  V30 4575 H 446.893 0.787434 1.26964 0
M  V30 4576 H 448.775 -0.420102 4.19301 0
M  V30 4577 H 447.45 -0.915876 3.10473 0
M  V30 4578 H 446.357 1.37072 3.48083 0
M  V30 4579 H 447.69 1.78511 4.58688 0
M  V30 4580 N 449.342 -1.36122 0.79427 0
M  V30 4581 C 450.252 -2.33769 0.197296 0
M  V30 4582 C 451.268 -1.61276 -0.653153 0
M  V30 4583 O 452.444 -1.9323 -0.5678 0
M  V30 4584 C 449.509 -3.40474 -0.654098 0
M  V30 4585 C 448.57 -4.28759 0.215411 0
M  V30 4586 C 447.803 -5.30368 -0.595443 0
M  V30 4587 O 448.026 -5.40211 -1.83107 0
M  V30 4588 O 446.96 -6.019 0.00721351 0
M  V30 4589 H 450.786 -2.86597 1.00478 0
M  V30 4590 H 448.371 -1.38676 0.555818 0
M  V30 4591 H 450.253 -4.05703 -1.13944 0
M  V30 4592 H 448.928 -2.89937 -1.43938 0
M  V30 4593 H 447.835 -3.66554 0.747615 0
M  V30 4594 H 449.168 -4.82661 0.964332 0
M  V30 4595 N 450.82 -0.546701 -1.47814 0
M  V30 4596 C 452.097 0.0464413 -1.95545 0
M  V30 4597 C 452.477 1.4962 -1.48919 0
M  V30 4598 O 451.825 2.16752 -0.723232 0
M  V30 4599 C 452.035 -0.0881298 -3.48889 0
M  V30 4600 C 453.383 0.0626059 -4.24554 0
M  V30 4601 O 454.407 -0.0151555 -3.56197 0
M  V30 4602 O 453.266 0.228071 -5.46024 0
M  V30 4603 H 450.36 0.0700004 -0.824032 0
M  V30 4604 H 452.906 -0.612482 -1.58262 0
M  V30 4605 H 451.678 -1.09737 -3.75597 0
M  V30 4606 H 451.301 0.608886 -3.9291 0
M  V30 4607 N 452.299 1.55045 -0.282633 0
M  V30 4608 C 453.548 1.98938 0.332667 0
M  V30 4609 C 453.861 1.17455 1.56409 0
M  V30 4610 O 455.067 1.51527 2.25282 0
M  V30 4611 C 453.523 3.54105 0.643226 0
M  V30 4612 C 453.131 4.44374 -0.568814 0
M  V30 4613 C 454.875 4.06569 1.22074 0
M  V30 4614 C 452.782 5.90943 -0.232426 0
M  V30 4615 H 451.712 0.743043 0.128075 0
M  V30 4616 H 454.363 1.79341 -0.388464 0
M  V30 4617 H 452.745 3.69532 1.42346 0
M  V30 4618 H 453.919 4.40718 -1.34551 0
M  V30 4619 H 452.234 4.02585 -1.06369 0
M  V30 4620 H 454.831 5.13626 1.48635 0
M  V30 4621 H 455.174 3.56057 2.15707 0
M  V30 4622 H 455.707 3.94612 0.502621 0
M  V30 4623 H 452.446 6.45567 -1.13683 0
M  V30 4624 H 451.966 5.9765 0.507357 0
M  V30 4625 H 453.645 6.4677 0.172657 0
M  V30 4626 N 453.777 0.010035 1.57597 0
M  V30 4627 C 455.188 -0.531426 1.78977 0
M  V30 4628 C 455.539 -1.73375 0.918454 0
M  V30 4629 O 454.664 -2.16047 0.123635 0
M  V30 4630 C 455.259 -0.97086 3.24592 0
M  V30 4631 C 453.818 -1.45756 3.47033 0
M  V30 4632 C 452.965 -0.413384 2.74201 0
M  V30 4633 H 455.916 0.236166 1.56933 0
M  V30 4634 H 455.937 -1.83633 3.33255 0
M  V30 4635 H 455.449 -0.0955893 3.87982 0
M  V30 4636 H 453.55 -2.35339 2.88871 0
M  V30 4637 H 453.663 -1.4781 4.55729 0
M  V30 4638 H 452.027 -0.877266 2.39115 0
M  V30 4639 H 452.81 0.453092 3.40297 0
M  V30 4640 N 455.255 -1.55392 -0.262866 0
M  V30 4641 C 456.671 -1.47459 -0.610582 0
M  V30 4642 C 456.871 -0.697031 -1.8906 0
M  V30 4643 O 455.927 -0.219952 -2.5154 0
M  V30 4644 C 457.24 -2.91751 -0.728131 0
M  V30 4645 C 458.788 -3.02027 -0.821517 0
M  V30 4646 C 459.263 -4.47594 -0.97076 0
M  V30 4647 N 460.754 -4.51465 -1.03603 0
M  V30 4648 C 461.489 -5.61326 -1.17049 0
M  V30 4649 N 460.985 -6.81032 -1.2715 0
M  V30 4650 N 462.778 -5.49089 -1.20239 0
M  V30 4651 H 454.929 -2.04395 0.577632 0
M  V30 4652 H 457.192 -0.927287 0.197086 0
M  V30 4653 H 456.898 -3.51413 0.142132 0
M  V30 4654 H 456.772 -3.4134 -1.6052 0
M  V30 4655 H 459.159 -2.42456 -1.68224 0
M  V30 4656 H 459.24 -2.55674 0.0803688 0
M  V30 4657 H 458.884 -5.07771 -0.114655 0
M  V30 4658 H 458.814 -4.91613 -1.88745 0
M  V30 4659 H 461.305 -3.6524 -0.96996 0
M  V30 4660 H 461.618 -7.60511 -1.37271 0
M  V30 4661 H 459.963 -6.83824 -1.24136 0
M  V30 4662 H 463.154 -4.54507 -1.11985 0
M  V30 4663 H 463.327 -6.34749 -1.30373 0
M  V30 4664 N 456.733 0.527833 -1.48498 0
M  V30 4665 C 457.643 1.65907 -1.65867 0
M  V30 4666 C 458.659 1.6537 -0.541192 0
M  V30 4667 O 459.835 1.84282 -0.812534 0
M  V30 4668 C 456.9 3.02364 -1.69637 0
M  V30 4669 C 455.961 3.1374 -2.93028 0
M  V30 4670 C 455.194 4.43688 -2.96609 0
M  V30 4671 O 455.417 5.30913 -2.08538 0
M  V30 4672 O 454.351 4.59475 -3.88802 0
M  V30 4673 H 458.177 1.5419 -2.61647 0
M  V30 4674 H 455.762 0.701163 -1.31924 0
M  V30 4675 H 457.644 3.83515 -1.74625 0
M  V30 4676 H 456.319 3.14401 -0.770312 0
M  V30 4677 H 455.226 2.31877 -2.93571 0
M  V30 4678 H 456.559 3.06621 -3.85026 0
M  V30 4679 N 458.211 1.37122 0.776871 0
M  V30 4680 C 459.622 1.28667 1.35284 0
M  V30 4681 C 459.973 -0.0680035 1.96082 0
M  V30 4682 O 459.098 -0.969743 1.93455 0
M  V30 4683 C 459.693 2.32997 2.45963 0
M  V30 4684 C 458.252 2.28191 2.99342 0
M  V30 4685 C 457.399 2.17101 1.72517 0
M  V30 4686 H 460.35 1.47819 0.577527 0
M  V30 4687 H 460.371 1.97366 3.2531 0
M  V30 4688 H 459.883 3.3158 2.01684 0
M  V30 4689 H 457.984 1.33115 3.4801 0
M  V30 4690 H 458.097 3.21397 3.55304 0
M  V30 4691 H 456.461 1.63562 1.95242 0
M  V30 4692 H 457.244 3.17591 1.30348 0
M  V30 4693 N 459.689 -1.00246 1.21608 0
M  V30 4694 C 461.105 -1.26435 0.973975 0
M  V30 4695 C 461.305 -1.98642 -0.338143 0
M  V30 4696 O 460.361 -2.29026 -1.06317 0
M  V30 4697 C 461.674 -2.08551 2.16626 0
M  V30 4698 C 463.222 -2.21769 2.20879 0
M  V30 4699 C 463.697 -3.07267 3.39633 0
M  V30 4700 N 465.188 -3.14855 3.39736 0
M  V30 4701 C 465.923 -3.81274 4.28273 0
M  V30 4702 N 465.419 -4.497 5.27012 0
M  V30 4703 N 467.212 -3.7794 4.16074 0
M  V30 4704 H 459.363 -0.518089 2.05984 0
M  V30 4705 H 461.626 -0.291368 0.902113 0
M  V30 4706 H 461.332 -1.62847 3.11727 0
M  V30 4707 H 461.206 -3.09303 2.15897 0
M  V30 4708 H 463.593 -2.66691 1.26332 0
M  V30 4709 H 463.674 -1.20478 2.25652 0
M  V30 4710 H 463.318 -2.63047 4.34475 0
M  V30 4711 H 463.248 -4.08678 3.321 0
M  V30 4712 H 465.739 -2.66147 2.6828 0
M  V30 4713 H 466.052 -4.98092 5.90867 0
M  V30 4714 H 464.397 -4.48479 5.30935 0
M  V30 4715 H 467.588 -3.23638 3.38195 0
M  V30 4716 H 467.761 -4.29424 4.85282 0
M  V30 4717 N 461.167 -1.02423 -1.1978 0
M  V30 4718 C 462.583 -0.740459 -1.41384 0
M  V30 4719 C 462.783 0.676827 -1.89793 0
M  V30 4720 O 461.839 1.4435 -2.0717 0
M  V30 4721 C 463.152 -1.77264 -2.42895 0
M  V30 4722 C 464.7 -1.79165 -2.56649 0
M  V30 4723 C 465.175 -2.8133 -3.6141 0
M  V30 4724 N 466.666 -2.80118 -3.68901 0
M  V30 4725 C 467.401 -3.55824 -4.49641 0
M  V30 4726 N 466.897 -4.41231 -5.34123 0
M  V30 4727 N 468.69 -3.44387 -4.44246 0
M  V30 4728 H 460.841 -1.9391 -0.866764 0
M  V30 4729 H 463.104 -0.838074 -0.443098 0
M  V30 4730 H 462.81 -2.7884 -2.14339 0
M  V30 4731 H 462.684 -1.59108 -3.42001 0
M  V30 4732 H 465.071 -0.782702 -2.84531 0
M  V30 4733 H 465.152 -2.01396 -1.57713 0
M  V30 4734 H 464.796 -3.82394 -3.34271 0
M  V30 4735 H 464.726 -2.56359 -4.59986 0
M  V30 4736 H 467.217 -2.1817 -3.08562 0
M  V30 4737 H 467.53 -4.95747 -5.92836 0
M  V30 4738 H 465.875 -4.45306 -5.33599 0
M  V30 4739 H 469.066 -2.7708 -3.77285 0
M  V30 4740 H 469.239 -4.0364 -5.06931 0
M  V30 4741 N 462.645 1.35699 -0.801477 0
M  V30 4742 C 463.894 1.98165 -0.375979 0
M  V30 4743 C 464.207 1.64306 1.06127 0
M  V30 4744 O 465.413 2.20097 1.58964 0
M  V30 4745 C 463.869 3.54497 -0.621305 0
M  V30 4746 C 463.477 3.9727 -2.07076 0
M  V30 4747 C 465.221 4.23697 -0.26091 0
M  V30 4748 C 463.128 5.46427 -2.26211 0
M  V30 4749 H 462.058 0.741478 -0.136844 0
M  V30 4750 H 464.709 1.54834 -0.984814 0
M  V30 4751 H 463.091 3.95958 0.0574112 0
M  V30 4752 H 464.265 3.66974 -2.78687 0
M  V30 4753 H 462.58 3.40943 -2.39054 0
M  V30 4754 H 465.177 5.33334 -0.381994 0
M  V30 4755 H 465.52 4.0869 0.792344 0
M  V30 4756 H 466.053 3.87639 -0.893339 0
M  V30 4757 H 462.792 5.66396 -3.29963 0
M  V30 4758 H 462.312 5.78309 -1.59119 0
M  V30 4759 H 463.991 6.12819 -2.07513 0
M  V30 4760 N 464.123 0.554532 1.47522 0
M  V30 4761 C 465.369 0.0295227 2.02779 0
M  V30 4762 C 465.702 -1.31582 1.42828 0
M  V30 4763 O 464.977 -1.85561 0.582872 0
M  V30 4764 C 465.26 -0.0664057 3.60039 0
M  V30 4765 C 465.113 1.30585 4.30427 0
M  V30 4766 C 466.432 -0.781162 4.33112 0
M  V30 4767 H 463.551 0.0122027 0.736899 0
M  V30 4768 H 466.193 0.716305 1.7598 0
M  V30 4769 H 464.343 -0.651307 3.83002 0
M  V30 4770 H 466.015 1.93374 4.18813 0
M  V30 4771 H 464.258 1.88125 3.90886 0
M  V30 4772 H 464.929 1.19147 5.38988 0
M  V30 4773 H 467.405 -0.284565 4.15126 0
M  V30 4774 H 466.281 -0.817237 5.42782 0
M  V30 4775 H 466.542 -1.83672 4.0214 0
M  V30 4776 N 465.601 -1.54893 0.290851 0
M  V30 4777 C 466.85 -1.99111 -0.322113 0
M  V30 4778 C 467.163 -1.18283 -1.55784 0
M  V30 4779 O 468.369 -1.5272 -2.24475 0
M  V30 4780 C 466.825 -3.54442 -0.624438 0
M  V30 4781 C 466.433 -4.44066 0.592373 0
M  V30 4782 C 468.177 -4.07211 -1.19916 0
M  V30 4783 C 466.084 -5.90812 0.263762 0
M  V30 4784 H 465.014 -0.743712 -0.124133 0
M  V30 4785 H 467.665 -1.79132 0.39797 0
M  V30 4786 H 466.047 -3.70281 -1.40384 0
M  V30 4787 H 467.221 -4.39999 1.36886 0
M  V30 4788 H 465.536 -4.02015 1.08502 0
M  V30 4789 H 468.133 -5.14407 -1.45909 0
M  V30 4790 H 468.476 -3.57196 -2.13815 0
M  V30 4791 H 469.009 -3.94873 -0.481687 0
M  V30 4792 H 465.748 -6.44955 1.17105 0
M  V30 4793 H 465.268 -5.97911 -0.475655 0
M  V30 4794 H 466.947 -6.46852 -0.138354 0
M  V30 4795 N 467.08 -0.0183926 -1.57589 0
M  V30 4796 C 468.03 0.975944 -2.06057 0
M  V30 4797 C 469.014 1.29204 -0.958908 0
M  V30 4798 O 470.206 1.27995 -1.22255 0
M  V30 4799 C 467.335 2.26194 -2.58247 0
M  V30 4800 C 466.421 1.97467 -3.75323 0
M  V30 4801 N 466.812 1.38968 -4.86335 0
M  V30 4802 C 465.11 2.27515 -3.83605 0
M  V30 4803 C 465.811 1.27131 -5.67638 0
M  V30 4804 N 464.787 1.76319 -5.14211 0
M  V30 4805 H 468.589 0.518444 -2.89291 0
M  V30 4806 H 466.103 0.18688 -1.61321 0
M  V30 4807 H 468.1 2.98289 -2.91255 0
M  V30 4808 H 466.76 2.7258 -1.76438 0
M  V30 4809 H 467.771 1.06608 -5.06809 0
M  V30 4810 H 464.448 2.76649 -3.12684 0
M  V30 4811 H 465.838 0.819882 -6.66879 0
M  V30 4812 N 468.558 1.5553 0.254621 0
M  V30 4813 C 469.974 1.4778 0.602753 0
M  V30 4814 C 470.174 0.707047 1.88688 0
M  V30 4815 O 469.23 0.233288 2.5142 0
M  V30 4816 C 470.543 2.92133 0.712648 0
M  V30 4817 C 472.091 3.02458 0.805488 0
M  V30 4818 C 472.566 4.48102 0.947009 0
M  V30 4819 N 474.057 4.52008 1.01207 0
M  V30 4820 C 474.792 5.61939 1.1407 0
M  V30 4821 N 474.288 6.81697 1.23536 0
M  V30 4822 N 476.081 5.49719 1.17325 0
M  V30 4823 H 468.232 2.04085 -0.588463 0
M  V30 4824 H 470.495 0.926229 -0.202001 0
M  V30 4825 H 470.201 3.51332 -0.160766 0
M  V30 4826 H 470.075 3.42187 1.58707 0
M  V30 4827 H 472.462 2.43344 1.66936 0
M  V30 4828 H 472.543 2.55627 -0.0939266 0
M  V30 4829 H 472.187 5.07824 0.087725 0
M  V30 4830 H 472.117 4.92607 1.86135 0
M  V30 4831 H 474.608 3.65749 0.950577 0
M  V30 4832 H 474.921 7.61228 1.33236 0
M  V30 4833 H 473.266 6.84473 1.20508 0
M  V30 4834 H 476.457 4.55095 1.09573 0
M  V30 4835 H 476.63 6.35432 1.27005 0
M  V30 4836 N 470.036 -0.519951 1.48776 0
M  V30 4837 C 471.284 -1.2727 1.56993 0
M  V30 4838 C 471.605 -1.9339 0.25004 0
M  V30 4839 O 470.875 -1.81822 -0.729216 0
M  V30 4840 H 469.455 -0.472732 0.578389 0
M  V30 4841 H 472.117 -0.604234 1.85297 0
M  V30 4842 H 471.213 -2.04669 2.3562 0
M  V30 4843 N 471.514 -1.37532 -0.769588 0
M  V30 4844 C 472.739 -1.36231 -1.56384 0
M  V30 4845 C 473.164 0.0495849 -1.88035 0
M  V30 4846 O 472.522 1.02723 -1.49391 0
M  V30 4847 C 472.57 -2.20986 -2.84952 0
M  V30 4848 O 471.674 -1.61597 -3.79421 0
M  V30 4849 H 471.015 -0.465387 -0.473615 0
M  V30 4850 H 473.545 -1.81085 -0.952342 0
M  V30 4851 H 473.555 -2.34277 -3.34034 0
M  V30 4852 H 472.23 -3.23612 -2.61243 0
M  V30 4853 H 470.807 -1.57359 -3.38072 0
M  V30 4854 N 472.992 0.995999 -1.22138 0
M  V30 4855 C 474.22 1.77066 -1.07029 0
M  V30 4856 C 474.635 1.8495 0.379357 0
M  V30 4857 O 473.992 1.3174 1.26297 0
M  V30 4858 C 474.043 3.20533 -1.67155 0
M  V30 4859 O 473.764 3.13082 -3.06449 0
M  V30 4860 C 475.265 4.14461 -1.5728 0
M  V30 4861 H 472.485 0.556179 -0.375374 0
M  V30 4862 H 475.029 1.25238 -1.61666 0
M  V30 4863 H 473.184 3.6944 -1.16589 0
M  V30 4864 H 473.598 4.03283 -3.35355 0
M  V30 4865 H 475.072 5.1289 -2.04078 0
M  V30 4866 H 475.549 4.36005 -0.528795 0
M  V30 4867 H 476.155 3.71449 -2.07136 0
M  V30 4868 N 474.47 1.03057 1.19235 0
M  V30 4869 C 475.718 0.726581 1.88587 0
M  V30 4870 C 476.039 -0.747227 1.80115 0
M  V30 4871 O 475.309 -1.53849 1.21274 0
M  V30 4872 H 473.889 0.265768 0.698124 0
M  V30 4873 H 476.551 1.30516 1.44746 0
M  V30 4874 H 475.647 1.0224 2.94879 0
M  V30 4875 N 475.948 -1.35272 0.808662 0
M  V30 4876 C 476.878 -2.32315 0.234981 0
M  V30 4877 C 477.859 -1.57572 -0.64071 0
M  V30 4878 O 479.044 -1.8563 -0.570551 0
M  V30 4879 C 476.174 -3.41801 -0.615601 0
M  V30 4880 C 475.128 -4.27694 0.161767 0
M  V30 4881 C 474.454 -5.28519 -0.810649 0
M  V30 4882 C 475.754 -5.04231 1.36193 0
M  V30 4883 H 477.448 -2.80543 1.04575 0
M  V30 4884 H 474.994 -1.3488 0.504315 0
M  V30 4885 H 476.947 -4.08693 -1.02702 0
M  V30 4886 H 475.671 -2.92186 -1.45928 0
M  V30 4887 H 474.33 -3.62384 0.554382 0
M  V30 4888 H 473.978 -4.75171 -1.64988 0
M  V30 4889 H 473.678 -5.8686 -0.294822 0
M  V30 4890 H 475.202 -5.98283 -1.22023 0
M  V30 4891 H 476.616 -5.64058 1.02528 0
M  V30 4892 H 475.013 -5.72077 1.81239 0
M  V30 4893 H 476.083 -4.34753 2.14751 0
M  V30 4894 N 477.426 -0.562348 -1.47226 0
M  V30 4895 C 478.674 -0.0401371 -2.0206 0
M  V30 4896 C 478.995 1.3165 -1.43852 0
M  V30 4897 O 478.265 1.85976 -0.615599 0
M  V30 4898 H 476.845 -0.0118479 -0.746906 0
M  V30 4899 H 479.507 -0.73352 -1.8057 0
M  V30 4900 H 478.603 0.0441254 -3.12069 0
M  V30 4901 N 478.904 1.54736 -0.299062 0
M  V30 4902 C 480.151 2.00101 0.310784 0
M  V30 4903 C 480.479 1.18746 1.54045 0
M  V30 4904 O 479.734 0.251198 1.94081 0
M  V30 4905 C 480.033 3.50199 0.713835 0
M  V30 4906 C 479.699 4.48997 -0.413873 0
M  V30 4907 C 478.361 4.7573 -0.723462 0
M  V30 4908 C 480.713 5.07839 -1.17257 0
M  V30 4909 C 478.041 5.5857 -1.79491 0
M  V30 4910 C 480.393 5.91844 -2.23392 0
M  V30 4911 C 479.057 6.16889 -2.54959 0
M  V30 4912 H 478.327 0.732221 0.113724 0
M  V30 4913 H 480.974 1.86888 -0.417756 0
M  V30 4914 H 479.279 3.61012 1.52243 0
M  V30 4915 H 480.976 3.82723 1.19684 0
M  V30 4916 H 477.566 4.28292 -0.162476 0
M  V30 4917 H 481.75 4.87188 -0.946651 0
M  V30 4918 H 477.006 5.76213 -2.04423 0
M  V30 4919 H 481.18 6.36465 -2.8264 0
M  V30 4920 H 478.807 6.80869 -3.38114 0
M  V30 4921 N 480.382 0.0267497 1.57577 0
M  V30 4922 C 481.33 -0.973923 2.11229 0
M  V30 4923 C 482.324 -1.33849 1.03831 0
M  V30 4924 O 483.53 -1.321 1.22269 0
M  V30 4925 H 479.905 -0.331844 0.674821 0
M  V30 4926 H 481.876 -0.496092 2.94247 0
M  V30 4927 C 480.625 -2.24798 2.65257 0
M  V30 4928 H 479.948 -1.9762 3.47543 0
M  V30 4929 H 481.388 -2.93031 3.06445 0
M  V30 4930 C 479.847 -2.97611 1.57891 0
M  V30 4931 O 480.377 -3.89629 0.97735 0
M  V30 4932 N 478.583 -2.59905 1.29992 0
M  V30 4933 H 478.13 -1.85154 1.79097 0
M  V30 4934 H 478.088 -3.08932 0.583798 0
M  V30 4935 N 481.861 -1.55662 -0.24637 0
M  V30 4936 C 483.11 -1.7672 -0.972254 0
M  V30 4937 C 483.423 -0.59078 -1.86465 0
M  V30 4938 O 484.629 -0.684391 -2.62732 0
M  V30 4939 C 483.085 -3.12869 -1.7788 0
M  V30 4940 C 482.693 -4.38161 -0.933768 0
M  V30 4941 C 484.437 -3.43265 -2.49738 0
M  V30 4942 C 482.344 -5.6534 -1.73623 0
M  V30 4943 H 481.274 -0.658795 -0.366749 0
M  V30 4944 H 483.925 -1.82092 -0.226902 0
M  V30 4945 H 482.307 -3.01606 -2.56612 0
M  V30 4946 H 483.481 -4.60413 -0.188736 0
M  V30 4947 H 481.796 -4.15102 -0.328488 0
M  V30 4948 H 484.393 -4.35501 -3.10231 0
M  V30 4949 H 484.736 -2.64614 -3.2138 0
M  V30 4950 H 485.269 -3.55746 -1.78016 0
M  V30 4951 H 482.008 -6.46814 -1.06354 0
M  V30 4952 H 481.528 -5.47188 -2.45653 0
M  V30 4953 H 483.207 -6.04616 -2.30323 0
M  V30 4954 N 483.339 0.512053 -1.4905 0
M  V30 4955 C 484.585 1.26874 -1.58212 0
M  V30 4956 C 484.918 1.9241 -0.263073 0
M  V30 4957 O 484.193 1.80181 0.732476 0
M  V30 4958 C 484.476 2.34428 -2.73341 0
M  V30 4959 C 484.329 1.73466 -4.15006 0
M  V30 4960 C 485.648 3.36073 -2.84154 0
M  V30 4961 H 482.767 0.459924 -0.575881 0
M  V30 4962 H 485.409 0.568587 -1.81293 0
M  V30 4963 H 483.559 2.94146 -2.53792 0
M  V30 4964 H 485.231 1.17661 -4.46042 0
M  V30 4965 H 483.474 1.03921 -4.21168 0
M  V30 4966 H 484.145 2.51426 -4.91415 0
M  V30 4967 H 486.621 2.86332 -3.01916 0
M  V30 4968 H 485.497 4.08703 -3.66406 0
M  V30 4969 H 485.758 3.97725 -1.93048 0
M  V30 4970 N 484.817 1.37938 0.762283 0
M  V30 4971 C 486.065 1.33404 1.51815 0
M  V30 4972 C 486.386 -0.0780975 1.94844 0
M  V30 4973 O 485.656 -1.02405 1.67003 0
M  V30 4974 H 484.236 0.490839 0.563104 0
M  V30 4975 H 486.898 1.72527 0.906669 0
M  V30 4976 H 485.994 1.97926 2.41313 0
M  V30 4977 N 486.295 -0.989507 1.22664 0
M  V30 4978 C 487.543 -1.72612 1.05117 0
M  V30 4979 C 487.864 -1.90552 -0.414131 0
M  V30 4980 O 487.134 -1.4676 -1.29762 0
M  V30 4981 H 485.714 -0.639555 0.385977 0
M  V30 4982 H 488.376 -1.19158 1.54232 0
M  V30 4983 H 487.472 -2.71926 1.53175 0
M  V30 4984 N 487.773 -1.03688 -1.18687 0
M  V30 4985 C 488.683 -0.634908 -2.25845 0
M  V30 4986 C 489.699 0.337065 -1.70704 0
M  V30 4987 O 490.875 0.192943 -2.00474 0
M  V30 4988 C 487.94 -0.000180054 -3.467 0
M  V30 4989 C 487.001 -1.02067 -4.1699 0
M  V30 4990 C 486.234 -0.41614 -5.32075 0
M  V30 4991 O 486.457 0.778712 -5.65059 0
M  V30 4992 O 485.391 -1.14296 -5.90948 0
M  V30 4993 H 489.217 -1.52757 -2.62486 0
M  V30 4994 H 486.802 -0.807533 -1.25695 0
M  V30 4995 H 488.684 0.353342 -4.19916 0
M  V30 4996 H 487.359 0.866367 -3.11891 0
M  V30 4997 H 486.266 -1.42592 -3.45859 0
M  V30 4998 H 487.599 -1.85786 -4.5579 0
M  V30 4999 N 489.251 1.34841 -0.815825 0
M  V30 5000 C 490.528 1.92908 -0.323416 0
M  V30 5001 C 490.908 1.74479 1.18828 0
M  V30 5002 O 490.256 1.11928 1.99209 0
M  V30 5003 C 490.466 3.40957 -0.744952 0
M  V30 5004 C 491.814 4.18107 -0.739716 0
M  V30 5005 O 492.838 3.49511 -0.68708 0
M  V30 5006 O 491.697 5.40517 -0.806456 0
M  V30 5007 H 488.791 0.822436 -0.0867646 0
M  V30 5008 H 491.337 1.4386 -0.90014 0
M  V30 5009 H 490.109 3.4814 -1.78646 0
M  V30 5010 H 489.732 3.97341 -0.143535 0
M  V30 5011 N 490.729 0.570148 1.46925 0
M  V30 5012 C 491.977 0.0508523 2.02036 0
M  V30 5013 C 492.298 -1.30885 1.44548 0
M  V30 5014 O 491.568 -1.85647 0.625453 0
M  V30 5015 H 490.148 0.0158088 0.746833 0
M  V30 5016 H 492.81 0.743086 1.80178 0
M  V30 5017 H 491.906 -0.027575 3.12088 0
M  V30 5018 N 492.207 -1.54576 0.307264 0
M  V30 5019 C 493.117 -2.27435 -0.57536 0
M  V30 5020 C 494.133 -1.31183 -1.14311 0
M  V30 5021 O 495.309 -1.64175 -1.16656 0
M  V30 5022 C 492.374 -3.00566 -1.72803 0
M  V30 5023 C 491.435 -4.12369 -1.19373 0
M  V30 5024 C 490.668 -4.82003 -2.29147 0
M  V30 5025 O 490.891 -4.51038 -3.49171 0
M  V30 5026 O 489.825 -5.69271 -1.95485 0
M  V30 5027 H 493.651 -3.03696 0.0158558 0
M  V30 5028 H 491.236 -1.49219 0.0735064 0
M  V30 5029 H 493.118 -3.46416 -2.39946 0
M  V30 5030 H 491.793 -2.27195 -2.30574 0
M  V30 5031 H 490.7 -3.70905 -0.487851 0
M  V30 5032 H 492.033 -4.87736 -0.661376 0
M  V30 5033 N 493.685 -0.035106 -1.57561 0
M  V30 5034 C 494.933 0.64096 -1.91667 0
M  V30 5035 C 495.254 1.72323 -0.912681 0
M  V30 5036 O 494.524 1.95849 0.0449089 0
M  V30 5037 H 493.104 0.239743 -0.707483 0
M  V30 5038 H 495.766 -0.084321 -1.94718 0
M  V30 5039 H 494.862 1.08987 -2.92452 0
M  V30 5040 N 495.163 1.55791 0.238111 0
M  V30 5041 C 496.412 1.77234 0.962868 0
M  V30 5042 C 496.725 0.600661 1.86149 0
M  V30 5043 O 497.931 0.698315 2.62366 0
M  V30 5044 C 496.387 3.13808 1.76218 0
M  V30 5045 C 495.995 4.3865 0.910518 0
M  V30 5046 C 497.739 3.44585 2.47914 0
M  V30 5047 C 495.646 5.66252 1.70623 0
M  V30 5048 H 494.576 0.660731 0.36325 0
M  V30 5049 H 497.227 1.8221 0.217242 0
M  V30 5050 H 495.609 3.02963 2.55009 0
M  V30 5051 H 496.783 4.60507 0.164316 0
M  V30 5052 H 495.098 4.15271 0.30647 0
M  V30 5053 H 497.695 4.3714 3.07917 0
M  V30 5054 H 498.038 2.66314 3.19973 0
M  V30 5055 H 498.571 3.56685 1.76127 0
M  V30 5056 H 495.31 6.47369 1.02923 0
M  V30 5057 H 494.83 5.48483 2.42748 0
M  V30 5058 H 496.509 6.05829 2.27114 0
M  V30 5059 N 496.642 -0.504142 1.49319 0
M  V30 5060 C 497.889 -1.25846 1.58647 0
M  V30 5061 C 498.217 -1.92592 0.27177 0
M  V30 5062 O 497.472 -1.81167 -0.74007 0
M  V30 5063 C 497.771 -2.35021 2.69258 0
M  V30 5064 C 497.437 -1.85755 4.1086 0
M  V30 5065 C 496.099 -1.72038 4.49395 0
M  V30 5066 C 498.451 -1.48844 4.99495 0
M  V30 5067 C 495.779 -1.19783 5.74342 0
M  V30 5068 C 498.131 -0.980422 6.24956 0
M  V30 5069 C 496.795 -0.829622 6.62324 0
M  V30 5070 H 496.065 -0.460505 0.580531 0
M  V30 5071 H 498.712 -0.559716 1.83138 0
M  V30 5072 H 497.017 -3.10672 2.38726 0
M  V30 5073 H 498.714 -2.93083 2.73685 0
M  V30 5074 H 495.304 -1.9739 3.80441 0
M  V30 5075 H 499.488 -1.5829 4.70381 0
M  V30 5076 H 494.744 -1.06817 6.01997 0
M  V30 5077 H 498.918 -0.685608 6.93017 0
M  V30 5078 H 496.545 -0.42253 7.59025 0
M  V30 5079 N 498.12 -1.38341 -0.754957 0
M  V30 5080 C 499.369 -1.33791 -1.5094 0
M  V30 5081 C 499.682 0.0699267 -1.95475 0
M  V30 5082 O 500.888 0.237956 -2.70455 0
M  V30 5083 C 499.344 -2.34934 -2.72643 0
M  V30 5084 C 498.952 -3.81332 -2.35138 0
M  V30 5085 C 500.696 -2.39425 -3.50536 0
M  V30 5086 C 498.603 -4.74164 -3.53444 0
M  V30 5087 H 497.533 -0.497314 -0.566741 0
M  V30 5088 H 500.184 -1.63888 -0.825403 0
M  V30 5089 H 498.566 -1.97878 -3.43017 0
M  V30 5090 H 499.74 -4.27319 -1.7244 0
M  V30 5091 H 498.055 -3.79946 -1.70382 0
M  V30 5092 H 500.652 -3.0598 -4.38498 0
M  V30 5093 H 500.995 -1.41278 -3.91594 0
M  V30 5094 H 501.528 -2.75274 -2.87174 0
M  V30 5095 H 498.267 -5.73501 -3.17453 0
M  V30 5096 H 497.787 -4.3287 -4.15191 0
M  V30 5097 H 499.466 -4.92111 -4.20043 0
M  V30 5098 N 499.598 0.982988 -1.23187 0
M  V30 5099 C 500.823 1.76455 -1.08988 0
M  V30 5100 C 501.248 1.84726 0.354691 0
M  V30 5101 O 500.606 1.30699 1.25649 0
M  V30 5102 C 500.654 3.17094 -1.71708 0
M  V30 5103 O 499.758 4.00648 -0.977477 0
M  V30 5104 H 499.099 0.542988 -0.382177 0
M  V30 5105 H 501.629 1.23413 -1.63188 0
M  V30 5106 H 501.639 3.67684 -1.76841 0
M  V30 5107 H 500.314 3.10389 -2.76823 0
M  V30 5108 H 498.891 3.59161 -1.0029 0
M  V30 5109 N 501.076 1.04316 1.18135 0
M  V30 5110 C 502.323 0.74802 1.88178 0
M  V30 5111 C 502.651 -0.72441 1.80506 0
M  V30 5112 O 501.906 -1.54463 1.20165 0
M  V30 5113 C 502.205 1.16271 3.37958 0
M  V30 5114 C 501.871 2.63585 3.65833 0
M  V30 5115 C 500.533 3.03829 3.73151 0
M  V30 5116 C 502.885 3.58822 3.78016 0
M  V30 5117 C 500.213 4.38194 3.90132 0
M  V30 5118 C 502.565 4.92909 3.96514 0
M  V30 5119 C 501.229 5.3282 4.02068 0
M  V30 5120 H 500.499 0.27372 0.688592 0
M  V30 5121 H 503.146 1.30863 1.39811 0
M  V30 5122 H 501.451 0.520938 3.88321 0
M  V30 5123 H 503.148 0.911672 3.90499 0
M  V30 5124 H 499.738 2.31414 3.60757 0
M  V30 5125 H 503.922 3.28875 3.71692 0
M  V30 5126 H 499.178 4.68631 3.92677 0
M  V30 5127 H 503.352 5.66606 4.04883 0
M  V30 5128 H 500.979 6.36943 4.14979 0
M  V30 5129 N 502.554 -1.34406 0.822964 0
M  V30 5130 C 503.803 -1.97542 0.407458 0
M  V30 5131 C 504.116 -1.65973 -1.035 0
M  V30 5132 O 505.322 -2.22598 -1.55442 0
M  V30 5133 C 503.778 -3.53463 0.677623 0
M  V30 5134 C 503.386 -3.93925 2.1337 0
M  V30 5135 C 505.13 -4.23229 0.328284 0
M  V30 5136 C 503.037 -5.42759 2.34876 0
M  V30 5137 H 501.967 -0.739207 0.148623 0
M  V30 5138 H 504.618 -1.53248 1.00932 0
M  V30 5139 H 503 -3.96 0.00558965 0
M  V30 5140 H 504.174 -3.62494 2.8449 0
M  V30 5141 H 502.489 -3.37097 2.44448 0
M  V30 5142 H 505.086 -5.32659 0.466794 0
M  V30 5143 H 505.429 -4.09899 -0.727224 0
M  V30 5144 H 505.962 -3.86169 0.954896 0
M  V30 5145 H 502.701 -5.61075 3.38932 0
M  V30 5146 H 502.221 -5.75704 1.68299 0
M  V30 5147 H 503.9 -6.0944 2.17236 0
M  V30 5148 N 504.032 -0.577932 -1.46621 0
M  V30 5149 C 504.962 0.145917 -2.33044 0
M  V30 5150 C 505.943 0.888412 -1.45056 0
M  V30 5151 O 507.128 0.864812 -1.73881 0
M  V30 5152 C 504.258 1.16322 -3.27241 0
M  V30 5153 C 503.212 0.535868 -4.24632 0
M  V30 5154 C 502.538 1.65929 -5.08303 0
M  V30 5155 C 503.838 -0.523861 -5.19666 0
M  V30 5156 H 505.532 -0.575636 -2.93814 0
M  V30 5157 H 503.078 -0.278272 -1.41286 0
M  V30 5158 H 505.031 1.67793 -3.86553 0
M  V30 5159 H 503.755 1.91498 -2.64567 0
M  V30 5160 H 502.414 0.0422759 -3.66576 0
M  V30 5161 H 502.062 2.40061 -4.42018 0
M  V30 5162 H 501.762 1.2452 -5.74255 0
M  V30 5163 H 503.286 2.17686 -5.70478 0
M  V30 5164 H 504.7 -0.0944059 -5.73222 0
M  V30 5165 H 503.097 -0.858 -5.93935 0
M  V30 5166 H 504.167 -1.41197 -4.63887 0
M  V30 5167 N 505.51 1.54411 -0.315457 0
M  V30 5168 C 506.473 2.22713 0.54142 0
M  V30 5169 C 507.473 1.2179 1.04995 0
M  V30 5170 O 508.663 1.46426 0.943667 0
M  V30 5171 C 505.795 2.92485 1.75116 0
M  V30 5172 H 506.988 2.99849 -0.0555508 0
M  V30 5173 H 504.541 1.56159 -0.0664453 0
M  V30 5174 H 505.276 2.19466 2.38758 0
M  V30 5175 H 505.061 3.66483 1.39401 0
M  V30 5176 H 506.551 3.44548 2.35959 0
M  V30 5177 N 506.988 0.0434614 1.5754 0
M  V30 5178 C 508.236 -0.630786 1.92004 0
M  V30 5179 C 508.557 -1.71836 0.921807 0
M  V30 5180 O 507.827 -1.9587 -0.034522 0
M  V30 5181 H 506.407 -0.235988 0.708745 0
M  V30 5182 H 509.069 0.0946462 1.9467 0
M  V30 5183 H 508.165 -1.07434 2.93026 0
M  V30 5184 N 508.466 -1.55915 -0.229846 0
M  V30 5185 C 509.714 -1.7819 -0.953565 0
M  V30 5186 C 510.035 -0.610504 -1.85197 0
M  V30 5187 O 509.305 0.372988 -1.92316 0
M  V30 5188 H 507.885 -0.657208 -0.355087 0
M  V30 5189 H 510.547 -1.9337 -0.243693 0
M  V30 5190 H 509.643 -2.70011 -1.56527 0
M  V30 5191 N 509.944 0.496216 -1.49584 0
M  V30 5192 C 511.355 1.07765 -1.52459 0
M  V30 5193 C 511.706 1.93679 -0.31353 0
M  V30 5194 O 510.831 2.08588 0.576186 0
M  V30 5195 C 511.426 1.96111 -2.76271 0
M  V30 5196 C 509.985 2.49409 -2.81908 0
M  V30 5197 C 509.132 1.27142 -2.46435 0
M  V30 5198 H 512.083 0.279914 -1.56212 0
M  V30 5199 H 512.104 2.80862 -2.56704 0
M  V30 5200 H 511.616 1.33555 -3.64396 0
M  V30 5201 H 509.717 3.1559 -1.98074 0
M  V30 5202 H 509.83 2.86234 -3.84196 0
M  V30 5203 H 508.194 1.59818 -1.98319 0
M  V30 5204 H 508.977 0.662866 -3.3684 0
M  V30 5205 N 511.423 1.38739 0.74761 0
M  V30 5206 C 512.386 1.36241 1.84312 0
M  V30 5207 C 513.386 0.261811 1.58654 0
M  V30 5208 O 514.576 0.519031 1.66288 0
M  V30 5209 C 511.708 1.12253 3.21888 0
M  V30 5210 H 512.901 2.33712 1.87933 0
M  V30 5211 H 510.454 1.2412 0.949946 0
M  V30 5212 H 511.189 0.154133 3.23934 0
M  V30 5213 H 510.974 1.91943 3.41907 0
M  V30 5214 H 512.464 1.13215 4.0196 0
M  V30 5215 N 512.901 -0.976442 1.23707 0
M  V30 5216 C 514.178 -1.69296 0.979699 0
M  V30 5217 C 514.558 -2.0508 -0.500555 0
M  V30 5218 O 513.906 -1.74708 -1.47273 0
M  V30 5219 C 514.116 -2.93143 1.89389 0
M  V30 5220 C 515.464 -3.65572 2.15968 0
M  V30 5221 O 516.488 -3.03184 1.86971 0
M  V30 5222 O 515.347 -4.77859 2.65167 0
M  V30 5223 H 512.441 -0.739708 0.369812 0
M  V30 5224 H 514.987 -1.03131 1.34767 0
M  V30 5225 H 513.759 -2.63327 2.89439 0
M  V30 5226 H 513.382 -3.67044 1.52854 0
M  V30 5227 N 514.379 -1.04941 -1.1758 0
M  V30 5228 C 515.309 -0.669172 -2.23706 0
M  V30 5229 C 516.29 0.331835 -1.66832 0
M  V30 5230 O 517.475 0.209988 -1.93061 0
M  V30 5231 C 514.605 -0.0404889 -3.47276 0
M  V30 5232 C 513.559 -0.965983 -4.16957 0
M  V30 5233 C 512.885 -0.201312 -5.34321 0
M  V30 5234 C 514.185 -2.28902 -4.69469 0
M  V30 5235 H 515.879 -1.55639 -2.55767 0
M  V30 5236 H 513.425 -0.749793 -1.22939 0
M  V30 5237 H 515.378 0.237298 -4.20731 0
M  V30 5238 H 514.102 0.881658 -3.14475 0
M  V30 5239 H 512.761 -1.22829 -3.45411 0
M  V30 5240 H 512.409 0.723519 -4.97769 0
M  V30 5241 H 512.109 -0.817968 -5.81879 0
M  V30 5242 H 513.633 0.0692499 -6.10561 0
M  V30 5243 H 515.047 -2.07132 -5.34574 0
M  V30 5244 H 513.444 -2.85942 -5.27596 0
M  V30 5245 H 514.514 -2.92937 -3.86414 0
M  V30 5246 N 515.857 1.33968 -0.830081 0
M  V30 5247 C 517.082 2.02813 -0.433796 0
M  V30 5248 C 517.507 1.62076 0.954614 0
M  V30 5249 O 516.865 0.808955 1.62252 0
M  V30 5250 C 516.913 3.56348 -0.552115 0
M  V30 5251 O 516.017 4.10202 0.425191 0
M  V30 5252 H 515.358 0.639817 -0.177567 0
M  V30 5253 H 517.888 1.7106 -1.12248 0
M  V30 5254 H 517.898 4.05722 -0.430513 0
M  V30 5255 H 516.573 3.85344 -1.56471 0
M  V30 5256 H 515.15 3.71979 0.261878 0
M  V30 5257 N 517.335 0.585699 1.46312 0
M  V30 5258 C 518.583 0.072278 2.01971 0
M  V30 5259 C 518.904 -1.29345 1.45928 0
M  V30 5260 O 518.174 -1.84973 0.645109 0
M  V30 5261 H 516.754 0.023729 0.746623 0
M  V30 5262 H 519.416 0.762155 1.7938 0
M  V30 5263 H 518.512 0.00552767 3.121 0
M  V30 5264 N 518.813 -1.54241 0.323641 0
M  V30 5265 C 519.723 -2.28033 -0.551205 0
M  V30 5266 C 520.739 -1.32388 -1.12913 0
M  V30 5267 O 521.915 -1.65403 -1.14908 0
M  V30 5268 C 518.98 -3.02382 -1.69606 0
M  V30 5269 C 518.041 -4.13612 -1.14993 0
M  V30 5270 C 517.274 -4.84407 -2.24022 0
M  V30 5271 O 517.497 -4.54716 -3.44368 0
M  V30 5272 O 516.431 -5.71312 -1.89436 0
M  V30 5273 H 520.257 -3.03662 0.048066 0
M  V30 5274 H 517.842 -1.49133 0.0893289 0
M  V30 5275 H 519.724 -3.48941 -2.36259 0
M  V30 5276 H 518.399 -2.29628 -2.28151 0
M  V30 5277 H 517.306 -3.71402 -0.448484 0
M  V30 5278 H 518.639 -4.8841 -0.609608 0
M  V30 5279 N 520.291 -0.0518155 -1.57515 0
M  V30 5280 C 521.221 0.920283 -2.146 0
M  V30 5281 C 522.202 1.32406 -1.06783 0
M  V30 5282 O 523.387 1.39866 -1.34726 0
M  V30 5283 C 520.517 2.1949 -2.6915 0
M  V30 5284 C 519.471 1.93116 -3.81956 0
M  V30 5285 C 518.797 3.27037 -4.23026 0
M  V30 5286 C 520.097 1.25225 -5.07066 0
M  V30 5287 H 521.791 0.444801 -2.96077 0
M  V30 5288 H 519.337 0.212508 -1.42423 0
M  V30 5289 H 521.29 2.87894 -3.07725 0
M  V30 5290 H 520.014 2.69244 -1.84865 0
M  V30 5291 H 518.673 1.27123 -3.43854 0
M  V30 5292 H 518.321 3.74595 -3.3569 0
M  V30 5293 H 518.021 3.10189 -4.99056 0
M  V30 5294 H 519.545 3.96673 -4.64202 0
M  V30 5295 H 520.959 1.83666 -5.43083 0
M  V30 5296 H 519.356 1.18702 -5.88243 0
M  V30 5297 H 520.426 0.228382 -4.84362 0
M  V30 5298 N 521.769 1.56035 0.221574 0
M  V30 5299 C 523.185 1.49026 0.571271 0
M  V30 5300 C 523.385 0.746912 1.87146 0
M  V30 5301 O 522.441 0.286566 2.50869 0
M  V30 5302 C 523.754 2.93579 0.650522 0
M  V30 5303 C 525.302 3.04099 0.741151 0
M  V30 5304 C 525.777 4.5001 0.851747 0
M  V30 5305 N 527.268 4.54053 0.915968 0
M  V30 5306 C 528.003 5.64232 1.02125 0
M  V30 5307 N 527.499 6.84164 1.09049 0
M  V30 5308 N 529.292 5.52084 1.05639 0
M  V30 5309 H 521.443 2.02791 -0.63162 0
M  V30 5310 H 523.706 0.921736 -0.221602 0
M  V30 5311 H 523.412 3.50912 -0.235253 0
M  V30 5312 H 523.286 3.45476 1.51413 0
M  V30 5313 H 525.673 2.4683 1.61737 0
M  V30 5314 H 525.754 2.55371 -0.148128 0
M  V30 5315 H 525.398 5.07896 -0.0200117 0
M  V30 5316 H 525.328 4.96444 1.75644 0
M  V30 5317 H 527.819 3.67683 0.872782 0
M  V30 5318 H 528.132 7.63883 1.1706 0
M  V30 5319 H 526.477 6.86875 1.05962 0
M  V30 5320 H 529.668 4.57317 0.998953 0
M  V30 5321 H 529.841 6.37983 1.13498 0
M  V30 5322 N 523.247 -0.488276 1.49845 0
M  V30 5323 C 524.194 -1.58836 1.67451 0
M  V30 5324 C 525.164 -1.57886 0.515857 0
M  V30 5325 O 526.349 -1.75679 0.744403 0
M  V30 5326 C 523.489 -2.96915 1.75885 0
M  V30 5327 C 522.602 -3.07784 3.03138 0
M  V30 5328 C 521.737 -4.36673 3.02473 0
M  V30 5329 C 520.776 -4.41222 4.24252 0
M  V30 5330 N 519.913 -5.61557 4.21424 0
M  V30 5331 H 524.753 -1.43131 2.61376 0
M  V30 5332 H 522.29 -0.696186 1.29583 0
M  V30 5333 H 524.248 -3.76965 1.78755 0
M  V30 5334 H 522.878 -3.11295 0.85414 0
M  V30 5335 H 521.93 -2.20717 3.09819 0
M  V30 5336 H 523.242 -3.07005 3.93128 0
M  V30 5337 H 522.396 -5.25055 3.03977 0
M  V30 5338 H 521.135 -4.40037 2.10283 0
M  V30 5339 H 520.14 -3.5124 4.22978 0
M  V30 5340 H 521.365 -4.39564 5.17649 0
M  V30 5341 H 519.311 -5.65738 3.32078 0
M  V30 5342 H 519.228 -5.62447 5.05163 0
M  V30 5343 H 520.496 -6.52111 4.2705 0
M  V30 5344 N 524.725 -1.39134 -0.740242 0
M  V30 5345 C 525.973 -1.35803 -1.49673 0
M  V30 5346 C 526.294 0.0470897 -1.94943 0
M  V30 5347 O 525.564 0.997347 -1.68611 0
M  V30 5348 H 524.144 -0.499736 -0.555224 0
M  V30 5349 H 526.806 -1.73947 -0.879107 0
M  V30 5350 H 525.902 -2.0174 -2.38133 0
M  V30 5351 N 526.204 0.969867 -1.24223 0
M  V30 5352 C 527.481 1.68774 -0.988664 0
M  V30 5353 C 527.861 2.05342 0.489673 0
M  V30 5354 O 527.209 1.75486 1.46345 0
M  V30 5355 C 527.419 2.92135 -1.90941 0
M  V30 5356 C 528.767 3.64422 -2.17903 0
M  V30 5357 O 529.791 3.02188 -1.88576 0
M  V30 5358 O 528.65 4.76446 -2.67697 0
M  V30 5359 H 525.744 0.737736 -0.37373 0
M  V30 5360 H 528.29 1.02415 -1.35312 0
M  V30 5361 H 527.062 2.61788 -2.90831 0
M  V30 5362 H 526.685 3.66228 -1.54798 0
M  V30 5363 N 527.682 1.05563 1.17022 0
M  V30 5364 C 528.614 0.617888 2.20714 0
M  V30 5365 C 529.627 -0.320303 1.59618 0
M  V30 5366 O 530.816 -0.112449 1.78145 0
M  V30 5367 C 527.916 -0.115333 3.38704 0
M  V30 5368 C 527.089 0.834493 4.29366 0
M  V30 5369 C 526.148 0.141855 5.26009 0
M  V30 5370 O 525.174 0.777151 5.6387 0
M  V30 5371 N 526.376 -1.11934 5.69606 0
M  V30 5372 H 529.141 1.50981 2.58892 0
M  V30 5373 H 526.702 0.938008 1.31958 0
M  V30 5374 H 528.694 -0.588918 4.00392 0
M  V30 5375 H 527.264 -0.908967 2.99093 0
M  V30 5376 H 526.484 1.48762 3.65053 0
M  V30 5377 H 527.772 1.4791 4.86827 0
M  V30 5378 H 527.17 -1.65574 5.40927 0
M  V30 5379 H 525.727 -1.53692 6.33421 0
M  V30 5380 N 529.16 -1.33526 0.837174 0
M  V30 5381 C 530.409 -1.97098 0.428387 0
M  V30 5382 C 530.722 -1.67062 -1.01734 0
M  V30 5383 O 531.928 -2.24235 -1.53072 0
M  V30 5384 C 530.384 -3.52725 0.715075 0
M  V30 5385 C 529.992 -3.9164 2.17537 0
M  V30 5386 C 531.736 -4.22857 0.373154 0
M  V30 5387 C 529.643 -5.40237 2.40619 0
M  V30 5388 H 528.573 -0.737589 0.156455 0
M  V30 5389 H 531.224 -1.52169 1.02552 0
M  V30 5390 H 529.606 -3.95971 0.0475904 0
M  V30 5391 H 530.78 -3.59456 2.88319 0
M  V30 5392 H 529.095 -3.34485 2.4801 0
M  V30 5393 H 531.692 -5.32133 0.523264 0
M  V30 5394 H 532.035 -4.10647 -0.683708 0
M  V30 5395 H 532.568 -3.85135 0.995801 0
M  V30 5396 H 529.307 -5.57449 3.44864 0
M  V30 5397 H 528.827 -5.73887 1.74396 0
M  V30 5398 H 530.506 -6.07102 2.23688 0
M  V30 5399 N 530.638 -0.59345 -1.46 0
M  V30 5400 C 531.568 0.121192 -2.33185 0
M  V30 5401 C 532.549 0.872977 -1.4599 0
M  V30 5402 O 533.734 0.846321 -1.74789 0
M  V30 5403 C 530.864 1.12844 -3.28456 0
M  V30 5404 C 529.818 0.4908 -4.25177 0
M  V30 5405 C 529.144 1.60529 -5.10034 0
M  V30 5406 C 530.444 -0.578949 -5.19081 0
M  V30 5407 H 532.138 -0.606767 -2.93187 0
M  V30 5408 H 529.684 -0.293242 -1.40983 0
M  V30 5409 H 531.637 1.63684 -3.88311 0
M  V30 5410 H 530.361 1.88681 -2.66584 0
M  V30 5411 H 529.02 0.00339328 -3.666 0
M  V30 5412 H 528.668 2.35359 -4.44539 0
M  V30 5413 H 528.368 1.18422 -5.75543 0
M  V30 5414 H 529.892 2.11623 -5.72755 0
M  V30 5415 H 531.306 -0.155199 -5.7309 0
M  V30 5416 H 529.703 -0.920947 -5.92991 0
M  V30 5417 H 530.773 -1.46109 -4.62364 0
M  V30 5418 N 532.116 1.54067 -0.331816 0
M  V30 5419 C 533.341 2.05599 0.272705 0
M  V30 5420 C 533.766 1.2059 1.44359 0
M  V30 5421 O 533.124 0.216907 1.79998 0
M  V30 5422 C 533.172 3.54188 0.677021 0
M  V30 5423 O 532.276 3.72082 1.77844 0
M  V30 5424 H 531.617 0.662286 0.0476801 0
M  V30 5425 H 534.147 1.98826 -0.482624 0
M  V30 5426 H 534.157 3.96608 0.957415 0
M  V30 5427 H 532.832 4.15513 -0.179325 0
M  V30 5428 H 531.409 3.41566 1.49622 0
M  V30 5429 N 533.594 0.0601682 1.57485 0
M  V30 5430 C 534.84 -0.612501 1.93329 0
M  V30 5431 C 535.173 -1.6996 0.939526 0
M  V30 5432 O 534.448 -1.94472 -0.0330957 0
M  V30 5433 C 534.731 -1.20025 3.39508 0
M  V30 5434 C 534.584 -0.12059 4.49638 0
M  V30 5435 C 535.903 -2.10923 3.86264 0
M  V30 5436 H 533.022 -0.221185 0.703027 0
M  V30 5437 H 535.664 0.123768 1.89596 0
M  V30 5438 H 533.814 -1.82774 3.42821 0
M  V30 5439 H 535.486 0.51185 4.58452 0
M  V30 5440 H 533.729 0.550251 4.30296 0
M  V30 5441 H 534.4 -0.572019 5.49028 0
M  V30 5442 H 536.876 -1.58124 3.84884 0
M  V30 5443 H 535.752 -2.48987 4.8918 0
M  V30 5444 H 536.013 -3.01292 3.23536 0
M  V30 5445 N 535.072 -1.5615 -0.213296 0
M  V30 5446 C 536.02 -1.93953 -1.28394 0
M  V30 5447 C 537.014 -0.822592 -1.48087 0
M  V30 5448 O 538.22 -1.00748 -1.49164 0
M  V30 5449 H 534.595 -0.61648 -0.430646 0
M  V30 5450 H 536.566 -2.83275 -0.937977 0
M  V30 5451 C 535.315 -2.27969 -2.62537 0
M  V30 5452 H 534.638 -3.13432 -2.48194 0
M  V30 5453 H 536.078 -2.58297 -3.36242 0
M  V30 5454 C 534.537 -1.10775 -3.18167 0
M  V30 5455 O 535.067 -0.373201 -3.99963 0
M  V30 5456 N 533.273 -0.889377 -2.76656 0
M  V30 5457 H 532.82 -1.48843 -2.10246 0
M  V30 5458 H 532.778 -0.107 -3.14218 0
M  V30 5459 N 536.55 0.480323 -1.50102 0
M  V30 5460 C 537.798 1.23063 -1.60312 0
M  V30 5461 C 538.119 1.92659 -0.301226 0
M  V30 5462 O 537.389 1.83691 0.680753 0
M  V30 5463 H 535.969 0.457231 -0.590719 0
M  V30 5464 H 538.631 0.554893 -1.86834 0
M  V30 5465 H 537.727 1.9835 -2.40964 0
M  V30 5466 N 538.028 1.39524 0.732853 0
M  V30 5467 C 539.274 1.37068 1.49467 0
M  V30 5468 C 539.607 -0.0327166 1.94172 0
M  V30 5469 O 538.882 -0.998071 1.66939 0
M  V30 5470 C 539.165 2.34494 2.73285 0
M  V30 5471 C 539.018 3.83784 2.34585 0
M  V30 5472 C 540.337 2.29717 3.75391 0
M  V30 5473 H 537.456 0.499206 0.542183 0
M  V30 5474 H 540.098 1.70532 0.837783 0
M  V30 5475 H 538.248 2.06087 3.29333 0
M  V30 5476 H 539.92 4.22949 1.84151 0
M  V30 5477 H 538.163 4.00455 1.66787 0
M  V30 5478 H 538.834 4.47444 3.23262 0
M  V30 5479 H 541.31 2.54839 3.28932 0
M  V30 5480 H 540.186 2.99962 4.59689 0
M  V30 5481 H 540.447 1.30291 4.22465 0
M  V30 5482 N 539.506 -0.963266 1.24736 0
M  V30 5483 C 540.783 -1.68248 0.9976 0
M  V30 5484 C 541.163 -2.05599 -0.478776 0
M  V30 5485 O 540.511 -1.7626 -1.45412 0
M  V30 5486 C 540.721 -2.91118 1.92487 0
M  V30 5487 C 542.069 -3.63261 2.19833 0
M  V30 5488 O 543.093 -3.01184 1.90176 0
M  V30 5489 O 541.952 -4.75019 2.7022 0
M  V30 5490 H 539.046 -0.735744 0.377637 0
M  V30 5491 H 541.592 -1.01696 1.35853 0
M  V30 5492 H 540.364 -2.60242 2.92215 0
M  V30 5493 H 539.987 -3.65402 1.56738 0
M  V30 5494 N 540.985 -1.06182 -1.16461 0
M  V30 5495 C 541.915 -0.692861 -2.22984 0
M  V30 5496 C 542.896 0.314122 -1.67174 0
M  V30 5497 O 544.081 0.189499 -1.93273 0
M  V30 5498 C 541.211 -0.07732 -3.47214 0
M  V30 5499 C 540.165 -1.01015 -4.15909 0
M  V30 5500 C 539.491 -0.257973 -5.34077 0
M  V30 5501 C 540.791 -2.33868 -4.67015 0
M  V30 5502 H 542.485 -1.58343 -2.54102 0
M  V30 5503 H 540.031 -0.76279 -1.22137 0
M  V30 5504 H 541.984 0.19266 -4.20959 0
M  V30 5505 H 540.708 0.848254 -3.15392 0
M  V30 5506 H 539.367 -1.26486 -3.44088 0
M  V30 5507 H 539.015 0.670684 -4.98509 0
M  V30 5508 H 538.715 -0.879638 -5.80979 0
M  V30 5509 H 540.239 0.00448788 -6.106 0
M  V30 5510 H 541.653 -2.1279 -5.32347 0
M  V30 5511 H 540.05 -2.91522 -5.24533 0
M  V30 5512 H 541.12 -2.97019 -3.83286 0
M  V30 5513 N 542.463 1.3308 -0.844243 0
M  V30 5514 C 543.879 1.50447 -0.532729 0
M  V30 5515 C 544.079 1.78292 0.938837 0
M  V30 5516 O 543.135 1.84635 1.72239 0
M  V30 5517 C 544.448 2.65555 -1.41072 0
M  V30 5518 C 545.996 2.7944 -1.41005 0
M  V30 5519 C 546.471 3.97616 -2.27301 0
M  V30 5520 N 547.962 4.0486 -2.2504 0
M  V30 5521 C 548.697 4.95508 -2.88547 0
M  V30 5522 N 548.193 5.91236 -3.61126 0
M  V30 5523 N 549.986 4.88548 -2.77989 0
M  V30 5524 H 542.137 1.13269 -1.79677 0
M  V30 5525 H 544.4 0.55734 -0.766861 0
M  V30 5526 H 544.106 2.51675 -2.45668 0
M  V30 5527 H 543.98 3.61089 -1.09061 0
M  V30 5528 H 546.367 2.92749 -0.371784 0
M  V30 5529 H 546.448 1.8465 -1.77026 0
M  V30 5530 H 546.092 3.85066 -3.3119 0
M  V30 5531 H 546.022 4.91661 -1.88619 0
M  V30 5532 H 548.513 3.36353 -1.72264 0
M  V30 5533 H 548.826 6.57079 -4.06776 0
M  V30 5534 H 547.171 5.91295 -3.65234 0
M  V30 5535 H 550.362 4.12729 -2.20846 0
M  V30 5536 H 550.535 5.58994 -3.27765 0
M  V30 5537 N 543.941 0.601185 1.45683 0
M  V30 5538 C 544.889 -0.133955 2.32214 0
M  V30 5539 C 545.883 -0.866034 1.45589 0
M  V30 5540 O 547.089 -0.782326 1.6211 0
M  V30 5541 H 543.464 -0.0620613 0.749435 0
M  V30 5542 H 545.435 0.614389 2.92007 0
M  V30 5543 C 544.184 -1.12216 3.29094 0
M  V30 5544 H 543.507 -0.568273 3.95741 0
M  V30 5545 H 544.947 -1.60659 3.92383 0
M  V30 5546 C 543.406 -2.19251 2.55794 0
M  V30 5547 O 543.936 -3.26894 2.33459 0
M  V30 5548 N 542.142 -1.9436 2.16039 0
M  V30 5549 H 541.689 -1.06829 2.34404 0
M  V30 5550 H 541.647 -2.66181 1.67318 0
M  V30 5551 N 545.419 -1.53889 0.339982 0
M  V30 5552 C 546.382 -2.23547 -0.50592 0
M  V30 5553 C 547.382 -1.23445 -1.03044 0
M  V30 5554 O 548.572 -1.47909 -0.920253 0
M  V30 5555 C 545.704 -2.95234 -1.7044 0
M  V30 5556 H 546.897 -2.99722 0.103247 0
M  V30 5557 H 544.45 -1.56033 0.0912804 0
M  V30 5558 H 545.185 -2.23236 -2.35236 0
M  V30 5559 H 544.97 -3.68654 -1.33553 0
M  V30 5560 H 546.46 -3.48258 -2.30447 0
M  V30 5561 N 546.897 -0.0685191 -1.57451 0
M  V30 5562 C 548.122 0.613919 -1.98106 0
M  V30 5563 C 548.547 1.62551 -0.946501 0
M  V30 5564 O 547.905 1.81085 0.0882824 0
M  V30 5565 C 547.953 1.26189 -3.378 0
M  V30 5566 O 547.057 2.37773 -3.36954 0
M  V30 5567 H 546.398 0.158163 -0.644888 0
M  V30 5568 H 548.928 -0.142063 -2.04106 0
M  V30 5569 H 548.938 1.60951 -3.74912 0
M  V30 5570 H 547.613 0.520625 -4.12629 0
M  V30 5571 H 546.19 2.04829 -3.11608 0
M  V30 5572 N 548.375 1.56261 0.205012 0
M  V30 5573 C 549.325 1.90155 1.25798 0
M  V30 5574 C 550.309 0.766227 1.41484 0
M  V30 5575 O 551.501 1.02893 1.44021 0
M  V30 5576 C 548.63 2.23603 2.60493 0
M  V30 5577 C 547.716 3.43568 2.48639 0
M  V30 5578 N 548.107 4.61747 2.06455 0
M  V30 5579 C 546.405 3.4751 2.79558 0
M  V30 5580 C 547.106 5.43907 2.06253 0
M  V30 5581 N 546.082 4.84051 2.47377 0
M  V30 5582 H 549.884 2.79031 0.922986 0
M  V30 5583 H 547.398 1.57048 0.413501 0
M  V30 5584 H 549.395 2.46067 3.36537 0
M  V30 5585 H 548.055 1.36049 2.94823 0
M  V30 5586 H 549.066 4.86598 1.77321 0
M  V30 5587 H 545.743 2.70345 3.18151 0
M  V30 5588 H 547.133 6.48542 1.75622 0
M  V30 5589 N 549.853 -0.472356 1.50355 0
M  V30 5590 C 550.763 -1.59637 1.7191 0
M  V30 5591 C 551.779 -1.63247 0.602195 0
M  V30 5592 O 552.955 -1.81139 0.880369 0
M  V30 5593 C 550.02 -2.9586 1.80742 0
M  V30 5594 C 549.081 -3.02649 3.04471 0
M  V30 5595 C 548.314 -4.32374 3.12872 0
M  V30 5596 O 548.537 -5.22807 2.28099 0
M  V30 5597 O 547.471 -4.44728 4.05587 0
M  V30 5598 H 551.297 -1.44373 2.67189 0
M  V30 5599 H 548.882 -0.651717 1.34436 0
M  V30 5600 H 550.764 -3.7677 1.88739 0
M  V30 5601 H 549.439 -3.11325 0.88647 0
M  V30 5602 H 548.346 -2.20821 3.01975 0
M  V30 5603 H 549.679 -2.92119 3.9614 0
M  V30 5604 N 551.331 -1.39911 -0.725443 0
M  V30 5605 C 552.263 -1.35301 -1.85003 0
M  V30 5606 C 553.276 -0.260102 -1.60709 0
M  V30 5607 O 554.465 -0.519749 -1.70766 0
M  V30 5608 C 551.565 -1.08039 -3.21218 0
M  V30 5609 C 550.738 -2.28793 -3.7279 0
M  V30 5610 C 549.797 -1.97841 -4.87591 0
M  V30 5611 O 548.823 -2.70616 -5.00755 0
M  V30 5612 N 550.025 -0.950367 -5.72668 0
M  V30 5613 H 552.79 -2.32218 -1.89459 0
M  V30 5614 H 550.351 -1.34137 -0.90658 0
M  V30 5615 H 552.343 -0.853354 -3.95601 0
M  V30 5616 H 550.913 -0.198229 -3.11971 0
M  V30 5617 H 550.133 -2.67388 -2.8965 0
M  V30 5618 H 551.421 -3.09317 -4.03981 0
M  V30 5619 H 550.819 -0.347436 -5.64632 0
M  V30 5620 H 549.376 -0.783232 -6.47077 0
M  V30 5621 N 552.809 0.956637 -1.25245 0
M  V30 5622 C 553.772 2.03457 -1.05537 0
M  V30 5623 C 554.772 1.60798 -0.00886317 0
M  V30 5624 O 555.962 1.72384 -0.250865 0
M  V30 5625 C 553.094 3.35543 -0.601965 0
M  V30 5626 H 554.287 2.22372 -2.01223 0
M  V30 5627 H 551.84 1.13344 -1.07623 0
M  V30 5628 H 552.575 3.22323 0.357584 0
M  V30 5629 H 552.36 3.67854 -1.35743 0
M  V30 5630 H 553.85 4.14769 -0.485454 0
M  V30 5631 N 554.287 1.06798 1.15896 0
M  V30 5632 C 555.25 0.687328 2.18651 0
M  V30 5633 C 556.25 -0.269559 1.58524 0
M  V30 5634 O 557.44 -0.0512627 1.74125 0
M  V30 5635 C 554.572 0.0121642 3.40898 0
M  V30 5636 H 555.765 1.59701 2.53842 0
M  V30 5637 H 553.318 0.863828 1.3026 0
M  V30 5638 H 554.053 -0.910025 3.1127 0
M  V30 5639 H 553.838 0.700309 3.85795 0
M  V30 5640 H 555.328 -0.239703 4.16911 0
M  V30 5641 N 555.766 -1.3263 0.851289 0
M  V30 5642 C 557.015 -1.96633 0.449267 0
M  V30 5643 C 557.328 -1.68131 -0.999562 0
M  V30 5644 O 558.534 -2.25845 -1.50685 0
M  V30 5645 C 556.99 -3.51946 0.752446 0
M  V30 5646 C 556.598 -3.89311 2.21678 0
M  V30 5647 C 558.342 -4.22437 0.417983 0
M  V30 5648 C 556.249 -5.37655 2.46336 0
M  V30 5649 H 555.179 -0.735888 0.164269 0
M  V30 5650 H 557.83 -1.51073 1.0416 0
M  V30 5651 H 556.212 -3.95899 0.0895858 0
M  V30 5652 H 557.386 -3.56378 2.92115 0
M  V30 5653 H 555.701 -3.31836 2.51543 0
M  V30 5654 H 558.298 -5.31549 0.579674 0
M  V30 5655 H 558.641 -4.11349 -0.640115 0
M  V30 5656 H 559.174 -3.84057 1.03659 0
M  V30 5657 H 555.913 -5.5376 3.50757 0
M  V30 5658 H 555.433 -5.72005 1.80473 0
M  V30 5659 H 557.112 -6.04695 2.30115 0
M  V30 5660 N 557.244 -0.608902 -1.45362 0
M  V30 5661 C 558.207 0.0992563 -2.28985 0
M  V30 5662 C 559.207 0.793841 -1.39838 0
M  V30 5663 O 560.397 0.641804 -1.61946 0
M  V30 5664 C 557.529 1.15073 -3.20891 0
M  V30 5665 H 558.722 -0.635964 -2.93079 0
M  V30 5666 H 556.275 -0.368007 -1.51906 0
M  V30 5667 H 557.01 1.91667 -2.616 0
M  V30 5668 H 556.795 0.656867 -3.86559 0
M  V30 5669 H 558.285 1.64665 -3.83765 0
M  V30 5670 N 558.722 1.53707 -0.348139 0
M  V30 5671 C 559.652 2.28111 0.498766 0
M  V30 5672 C 560.633 1.29851 1.09876 0
M  V30 5673 O 561.818 1.587 1.11928 0
M  V30 5674 C 558.948 3.05735 1.64753 0
M  V30 5675 C 557.902 4.11537 1.17565 0
M  V30 5676 C 557.228 4.77142 2.4133 0
M  V30 5677 C 558.528 5.21587 0.272844 0
M  V30 5678 H 560.222 2.99152 -0.121934 0
M  V30 5679 H 557.768 1.43875 -0.0600842 0
M  V30 5680 H 559.721 3.56526 2.24649 0
M  V30 5681 H 558.445 2.32354 2.2952 0
M  V30 5682 H 557.104 3.61665 0.599483 0
M  V30 5683 H 556.752 4.0035 3.04514 0
M  V30 5684 H 556.452 5.48626 2.10436 0
M  V30 5685 H 557.976 5.30719 3.01943 0
M  V30 5686 H 559.39 5.67986 0.778779 0
M  V30 5687 H 557.787 6.00074 0.0555849 0
M  V30 5688 H 558.857 4.79969 -0.689785 0
M  V30 5689 N 560.2 0.0768682 1.57412 0
M  V30 5690 C 561.147 -0.888577 2.13009 0
M  V30 5691 C 562.117 -1.29198 1.0439 0
M  V30 5692 O 563.302 -1.37694 1.3208 0
M  V30 5693 C 560.442 -2.14899 2.70023 0
M  V30 5694 C 559.555 -1.79777 3.92816 0
M  V30 5695 C 558.69 -3.00467 4.38056 0
M  V30 5696 C 557.729 -2.61385 5.53484 0
M  V30 5697 N 556.866 -3.74851 5.93659 0
M  V30 5698 H 561.706 -0.407593 2.95199 0
M  V30 5699 H 559.243 -0.189534 1.45874 0
M  V30 5700 H 561.201 -2.88688 3.0119 0
M  V30 5701 H 559.831 -2.60529 1.9059 0
M  V30 5702 H 558.883 -0.960301 3.68079 0
M  V30 5703 H 560.195 -1.47027 4.76639 0
M  V30 5704 H 559.349 -3.82529 4.7091 0
M  V30 5705 H 558.088 -3.36413 3.53097 0
M  V30 5706 H 557.093 -1.77746 5.20275 0
M  V30 5707 H 558.318 -2.26603 6.40178 0
M  V30 5708 H 556.264 -4.1055 5.11649 0
M  V30 5709 H 556.181 -3.45887 6.72234 0
M  V30 5710 H 557.449 -4.57477 6.31138 0
M  V30 5711 N 561.678 -1.56367 -0.196722 0
M  V30 5712 C 562.626 -1.95304 -1.2633 0
M  V30 5713 C 563.62 -0.838252 -1.47206 0
M  V30 5714 O 564.826 -1.02325 -1.48087 0
M  V30 5715 H 561.201 -0.621013 -0.424083 0
M  V30 5716 H 563.172 -2.84254 -0.907879 0
M  V30 5717 C 561.921 -2.3074 -2.60104 0
M  V30 5718 H 561.244 -3.16047 -2.44856 0
M  V30 5719 H 562.684 -2.61849 -3.33484 0
M  V30 5720 C 561.143 -1.14143 -3.16975 0
M  V30 5721 O 561.673 -0.415602 -3.99544 0
M  V30 5722 N 559.879 -0.91867 -2.75697 0
M  V30 5723 H 559.426 -1.51065 -2.08656 0
M  V30 5724 H 559.384 -0.140321 -3.14087 0
M  V30 5725 N 563.156 0.464375 -1.50603 0
M  V30 5726 C 564.119 1.54393 -1.69397 0
M  V30 5727 C 565.119 1.50566 -0.564504 0
M  V30 5728 O 566.309 1.53066 -0.831645 0
M  V30 5729 C 563.441 2.9401 -1.72543 0
M  V30 5730 H 564.634 1.39044 -2.65719 0
M  V30 5731 H 562.187 0.69122 -1.40185 0
M  V30 5732 H 562.922 3.14795 -0.77938 0
M  V30 5733 H 562.707 2.98195 -2.54602 0
M  V30 5734 H 564.197 3.72375 -1.89015 0
M  V30 5735 N 564.634 1.40294 0.718013 0
M  V30 5736 C 565.882 1.38167 1.47494 0
M  V30 5737 C 566.203 -0.01607 1.94993 0
M  V30 5738 O 565.473 -0.970396 1.70177 0
M  V30 5739 H 564.053 0.508505 0.547203 0
M  V30 5740 H 566.715 1.75324 0.851322 0
M  V30 5741 H 565.811 2.05503 2.34894 0
M  V30 5742 N 566.112 -0.949982 1.2575 0
M  V30 5743 C 567.044 -2.05088 1.02331 0
M  V30 5744 C 568.057 -1.62795 -0.0133247 0
M  V30 5745 O 569.246 -1.77067 0.225759 0
M  V30 5746 C 566.346 -3.34794 0.525924 0
M  V30 5747 C 565.519 -4.05903 1.62978 0
M  V30 5748 C 564.578 -5.1388 1.13196 0
M  V30 5749 O 563.604 -5.39072 1.82729 0
M  V30 5750 N 564.806 -5.80495 -0.0242926 0
M  V30 5751 H 567.571 -2.25747 1.97125 0
M  V30 5752 H 565.132 -1.11886 1.17018 0
M  V30 5753 H 567.124 -4.04312 0.177263 0
M  V30 5754 H 565.694 -3.10872 -0.328202 0
M  V30 5755 H 564.914 -3.3042 2.1498 0
M  V30 5756 H 566.202 -4.50166 2.37124 0
M  V30 5757 H 565.6 -5.62454 -0.605184 0
M  V30 5758 H 564.157 -6.51043 -0.313947 0
M  V30 5759 N 567.59 -1.07411 -1.15328 0
M  V30 5760 C 568.818 -0.818782 -1.90009 0
M  V30 5761 C 569.233 0.628072 -1.78047 0
M  V30 5762 O 568.59 1.43085 -1.13282 0
M  V30 5763 C 568.641 -1.21874 -3.40337 0
M  V30 5764 O 568.362 -2.60883 -3.51954 0
M  V30 5765 C 569.863 -0.992796 -4.3204 0
M  V30 5766 H 567.083 -0.296007 -0.60218 0
M  V30 5767 H 569.627 -1.43073 -1.46117 0
M  V30 5768 H 567.782 -0.651103 -3.81889 0
M  V30 5769 H 568.196 -2.77216 -4.45255 0
M  V30 5770 H 569.67 -1.32215 -5.35932 0
M  V30 5771 H 570.147 0.0708331 -4.39143 0
M  V30 5772 H 570.753 -1.54537 -3.9623 0
M  V30 5773 N 569.068 1.32177 -0.85831 0
M  V30 5774 C 570.314 1.97417 -0.46417 0
M  V30 5775 C 570.647 1.67746 0.978514 0
M  V30 5776 O 569.922 0.967654 1.68721 0
M  V30 5777 C 570.205 3.53069 -0.708094 0
M  V30 5778 C 570.058 3.92357 -2.19946 0
M  V30 5779 C 571.377 4.39783 -0.166881 0
M  V30 5780 H 568.496 0.717097 -0.17012 0
M  V30 5781 H 571.138 1.56499 -1.07741 0
M  V30 5782 H 569.288 3.88054 -0.186128 0
M  V30 5783 H 570.96 3.67533 -2.78779 0
M  V30 5784 H 569.203 3.41384 -2.67656 0
M  V30 5785 H 569.874 5.00841 -2.32082 0
M  V30 5786 H 572.35 4.11556 -0.613285 0
M  V30 5787 H 571.226 5.47671 -0.367093 0
M  V30 5788 H 571.487 4.32196 0.930559 0
M  V30 5789 N 570.547 0.616602 1.45037 0
M  V30 5790 C 571.775 0.121968 2.0654 0
M  V30 5791 C 572.19 -1.19743 1.45969 0
M  V30 5792 O 571.547 -1.73133 0.577168 0
M  V30 5793 C 571.598 -0.0145171 3.61497 0
M  V30 5794 O 571.319 1.25269 4.19809 0
M  V30 5795 C 572.82 -0.539555 4.40004 0
M  V30 5796 H 570.04 0.0729837 0.667019 0
M  V30 5797 H 572.584 0.846891 1.8614 0
M  V30 5798 H 570.739 -0.689809 3.81209 0
M  V30 5799 H 571.153 1.08816 5.13088 0
M  V30 5800 H 572.627 -0.584112 5.48901 0
M  V30 5801 H 573.104 -1.56368 4.10421 0
M  V30 5802 H 573.71 0.101995 4.25178 0
M  V30 5803 N 572.025 -1.5352 0.356285 0
M  V30 5804 C 573.274 -2.00298 -0.237373 0
M  V30 5805 C 573.587 -1.24784 -1.50627 0
M  V30 5806 O 574.793 -1.62103 -2.17795 0
M  V30 5807 C 573.249 -3.56771 -0.473545 0
M  V30 5808 C 572.857 -4.41154 0.780183 0
M  V30 5809 C 574.601 -4.1193 -1.02537 0
M  V30 5810 C 572.508 -5.89161 0.514108 0
M  V30 5811 H 571.438 -0.748307 -0.092478 0
M  V30 5812 H 574.089 -1.77283 0.473588 0
M  V30 5813 H 572.471 -3.75902 -1.24553 0
M  V30 5814 H 573.645 -4.33797 1.55425 0
M  V30 5815 H 571.96 -3.97052 1.25455 0
M  V30 5816 H 574.557 -5.20133 -1.2396 0
M  V30 5817 H 574.9 -3.65943 -1.98473 0
M  V30 5818 H 575.433 -3.96561 -0.313775 0
M  V30 5819 H 572.172 -6.39408 1.44355 0
M  V30 5820 H 571.692 -5.9939 -0.221632 0
M  V30 5821 H 573.371 -6.46857 0.136122 0
M  V30 5822 N 573.503 -0.0852151 -1.57369 0
M  V30 5823 C 574.752 0.580443 -1.93168 0
M  V30 5824 C 575.065 1.6995 -0.968319 0
M  V30 5825 O 576.271 2.42564 -1.21963 0
M  V30 5826 C 574.727 1.08386 -3.43192 0
M  V30 5827 C 574.335 -0.00491388 -4.48 0
M  V30 5828 C 576.079 1.72281 -3.87968 0
M  V30 5829 C 573.986 0.513299 -5.89168 0
M  V30 5830 H 572.916 0.22059 -0.72101 0
M  V30 5831 H 575.567 -0.159621 -1.82804 0
M  V30 5832 H 573.949 1.8773 -3.48674 0
M  V30 5833 H 575.123 -0.780032 -4.5415 0
M  V30 5834 H 573.438 -0.548453 -4.12772 0
M  V30 5835 H 576.035 2.12108 -4.9083 0
M  V30 5836 H 576.378 2.58811 -3.26071 0
M  V30 5837 H 576.911 0.995359 -3.85146 0
M  V30 5838 H 573.65 -0.315153 -6.54742 0
M  V30 5839 H 573.17 1.25564 -5.8651 0
M  V30 5840 H 574.849 0.985433 -6.39451 0
M  V30 5841 N 574.981 1.5647 0.188427 0
M  V30 5842 C 575.944 1.9421 1.21718 0
M  V30 5843 C 576.944 0.823901 1.38089 0
M  V30 5844 O 578.134 1.09122 1.35787 0
M  V30 5845 C 575.266 2.22197 2.58537 0
M  V30 5846 H 576.459 2.86252 0.894418 0
M  V30 5847 H 574.012 1.50263 0.430211 0
M  V30 5848 H 574.747 1.32814 2.95856 0
M  V30 5849 H 574.532 3.03688 2.48025 0
M  V30 5850 H 576.022 2.52376 3.3271 0
M  V30 5851 N 576.459 -0.456382 1.50847 0
M  V30 5852 C 577.391 -1.57033 1.66953 0
M  V30 5853 C 578.404 -1.53207 0.550593 0
M  V30 5854 O 579.593 -1.58328 0.824285 0
M  V30 5855 C 576.693 -2.95937 1.65149 0
M  V30 5856 C 575.866 -3.24475 2.93317 0
M  V30 5857 C 574.925 -4.43007 2.83957 0
M  V30 5858 O 573.951 -4.42592 3.57912 0
M  V30 5859 N 575.153 -5.45503 1.9851 0
M  V30 5860 H 577.918 -1.43629 2.63042 0
M  V30 5861 H 575.479 -0.645037 1.48495 0
M  V30 5862 H 577.471 -3.73224 1.56481 0
M  V30 5863 H 576.041 -3.03036 0.767343 0
M  V30 5864 H 575.261 -2.35664 3.16 0
M  V30 5865 H 576.549 -3.4036 3.78196 0
M  V30 5866 H 575.947 -5.48668 1.37766 0
M  V30 5867 H 574.504 -6.21716 1.95735 0
M  V30 5868 N 577.937 -1.40673 -0.710563 0
M  V30 5869 C 579.167 -1.4234 -1.49742 0
M  V30 5870 C 579.575 -0.022821 -1.89186 0
M  V30 5871 O 578.918 0.964773 -1.56326 0
M  V30 5872 C 578.98 -2.25509 -2.79975 0
M  V30 5873 C 578.644 -3.73862 -2.62824 0
M  V30 5874 C 579.641 -4.66379 -2.29752 0
M  V30 5875 C 577.326 -4.17735 -2.78932 0
M  V30 5876 C 579.32 -6.00756 -2.13006 0
M  V30 5877 C 577.007 -5.5218 -2.61802 0
M  V30 5878 C 578.005 -6.43505 -2.28888 0
M  V30 5879 O 577.693 -7.75472 -2.11894 0
M  V30 5880 H 577.425 -0.487311 -0.468513 0
M  V30 5881 H 579.979 -1.8542 -0.883668 0
M  V30 5882 H 578.209 -1.77218 -3.43701 0
M  V30 5883 H 579.898 -2.19058 -3.41714 0
M  V30 5884 H 580.664 -4.33778 -2.16936 0
M  V30 5885 H 576.543 -3.46967 -3.03537 0
M  V30 5886 H 580.087 -6.72003 -1.87237 0
M  V30 5887 H 575.984 -5.84365 -2.74204 0
M  V30 5888 H 576.752 -7.86458 -2.26775 0
M  V30 5889 N 579.415 0.9433 -1.26252 0
M  V30 5890 C 580.362 2.0417 -1.07625 0
M  V30 5891 C 581.332 1.6609 0.0180738 0
M  V30 5892 O 582.517 1.90276 -0.141289 0
M  V30 5893 C 579.657 3.37653 -0.713043 0
M  V30 5894 C 578.77 3.88783 -1.8834 0
M  V30 5895 C 577.905 5.10642 -1.4635 0
M  V30 5896 C 576.944 5.54028 -2.60229 0
M  V30 5897 N 576.081 6.67092 -2.18936 0
M  V30 5898 H 580.921 2.19436 -2.01623 0
M  V30 5899 H 578.458 1.07519 -1.00389 0
M  V30 5900 H 580.416 4.14391 -0.483358 0
M  V30 5901 H 579.046 3.22241 0.18996 0
M  V30 5902 H 578.098 3.08464 -2.22608 0
M  V30 5903 H 579.41 4.16922 -2.73821 0
M  V30 5904 H 578.564 5.94832 -1.19414 0
M  V30 5905 H 577.303 4.84244 -0.579568 0
M  V30 5906 H 576.308 4.68396 -2.87898 0
M  V30 5907 H 577.533 5.82429 -3.49219 0
M  V30 5908 H 575.479 6.42381 -1.32974 0
M  V30 5909 H 575.396 6.94806 -2.97961 0
M  V30 5910 H 576.664 7.54662 -1.95206 0
M  V30 5911 N 580.893 1.08022 1.14757 0
M  V30 5912 C 582.304 0.829144 1.67279 0
M  V30 5913 C 582.655 -0.644721 1.85305 0
M  V30 5914 O 581.78 -1.49838 1.56133 0
M  V30 5915 C 582.375 1.49855 3.03857 0
M  V30 5916 C 580.934 1.29482 3.53428 0
M  V30 5917 C 580.081 1.56386 2.28995 0
M  V30 5918 H 583.032 1.24134 0.988762 0
M  V30 5919 H 583.053 0.923572 3.69121 0
M  V30 5920 H 582.565 2.57123 2.90705 0
M  V30 5921 H 580.666 0.242669 3.71809 0
M  V30 5922 H 580.779 2.01974 4.34446 0
M  V30 5923 H 579.143 0.985217 2.34874 0
M  V30 5924 H 579.926 2.64851 2.18423 0
M  V30 5925 N 582.371 -1.3172 0.865308 0
M  V30 5926 C 583.281 -2.32394 0.320935 0
M  V30 5927 C 584.297 -1.64511 -0.566746 0
M  V30 5928 O 585.473 -1.95969 -0.464575 0
M  V30 5929 C 582.538 -3.43462 -0.472701 0
M  V30 5930 C 581.599 -4.27015 0.442385 0
M  V30 5931 C 580.832 -5.32779 -0.313469 0
M  V30 5932 O 581.055 -5.49158 -1.54214 0
M  V30 5933 O 579.989 -6.01015 0.326257 0
M  V30 5934 H 583.815 -2.80868 1.15528 0
M  V30 5935 H 581.4 -1.35535 0.628545 0
M  V30 5936 H 583.282 -4.11172 -0.922781 0
M  V30 5937 H 581.957 -2.97159 -1.28367 0
M  V30 5938 H 580.864 -3.62075 0.940866 0
M  V30 5939 H 582.197 -4.76871 1.21882 0
M  V30 5940 N 583.85 -0.624285 -1.44708 0
M  V30 5941 C 584.76 0.0861083 -2.34442 0
M  V30 5942 C 585.776 0.84291 -1.5222 0
M  V30 5943 O 586.952 0.796723 -1.84971 0
M  V30 5944 C 584.017 1.05999 -3.30099 0
M  V30 5945 C 583.077 0.303316 -4.28227 0
M  V30 5946 C 582.311 1.23081 -5.19314 0
M  V30 5947 O 582.534 2.46929 -5.14181 0
M  V30 5948 O 581.468 0.71883 -5.97592 0
M  V30 5949 H 585.293 -0.651756 -2.96624 0
M  V30 5950 H 582.879 -0.384493 -1.44368 0
M  V30 5951 H 584.76 1.62046 -3.88997 0
M  V30 5952 H 583.436 1.77859 -2.70459 0
M  V30 5953 H 582.343 -0.300033 -3.72895 0
M  V30 5954 H 583.676 -0.375123 -4.90768 0
M  V30 5955 N 585.328 1.53329 -0.364422 0
M  V30 5956 C 586.558 2.05359 0.226096 0
M  V30 5957 C 586.966 1.23777 1.43094 0
M  V30 5958 O 586.309 0.271139 1.81688 0
M  V30 5959 C 586.371 3.52918 0.684794 0
M  V30 5960 C 586.035 4.55218 -0.403206 0
M  V30 5961 C 587.032 5.04583 -1.2527 0
M  V30 5962 C 584.717 4.99134 -0.563117 0
M  V30 5963 C 586.711 5.96463 -2.24745 0
M  V30 5964 C 584.398 5.9082 -1.56124 0
M  V30 5965 C 585.396 6.39375 -2.40184 0
M  V30 5966 O 585.084 7.29255 -3.38293 0
M  V30 5967 H 584.816 0.674588 0.0436772 0
M  V30 5968 H 587.37 1.98688 -0.520782 0
M  V30 5969 H 585.6 3.57122 1.48326 0
M  V30 5970 H 587.289 3.87812 1.19818 0
M  V30 5971 H 588.055 4.71403 -1.14034 0
M  V30 5972 H 583.934 4.60928 0.0813909 0
M  V30 5973 H 587.478 6.34285 -2.90393 0
M  V30 5974 H 583.375 6.23414 -1.67407 0
M  V30 5975 H 584.143 7.47249 -3.34009 0
M  V30 5976 N 586.806 0.0935595 1.57322 0
M  V30 5977 C 588.031 -0.582324 1.99057 0
M  V30 5978 C 588.456 -1.61025 0.972242 0
M  V30 5979 O 587.814 -1.81202 -0.0594622 0
M  V30 5980 C 587.862 -1.20799 3.39765 0
M  V30 5981 O 586.966 -2.32382 3.40694 0
M  V30 5982 H 586.307 -0.147884 0.647323 0
M  V30 5983 H 588.837 0.174516 2.03854 0
M  V30 5984 H 588.847 -1.54966 3.77425 0
M  V30 5985 H 587.522 -0.454914 4.13405 0
M  V30 5986 H 586.099 -1.99845 3.14827 0
M  V30 5987 N 588.284 -1.56567 -0.180126 0
M  V30 5988 C 589.7 -1.50488 -0.531559 0
M  V30 5989 C 589.9 -0.796267 -1.851 0
M  V30 5990 O 588.956 -0.352978 -2.50021 0
M  V30 5991 C 590.269 -2.95201 -0.572456 0
M  V30 5992 C 591.817 -3.05957 -0.660264 0
M  V30 5993 C 592.292 -4.5211 -0.732135 0
M  V30 5994 N 593.783 -4.56322 -0.795262 0
M  V30 5995 C 594.518 -5.66742 -0.871296 0
M  V30 5996 N 594.014 -6.86815 -0.908708 0
M  V30 5997 N 595.807 -5.54691 -0.909639 0
M  V30 5998 H 587.958 -2.01045 0.685165 0
M  V30 5999 H 590.221 -0.915536 0.245962 0
M  V30 6000 H 589.927 -3.50165 0.328208 0
M  V30 6001 H 589.801 -3.49369 -1.422 0
M  V30 6002 H 592.188 -2.51032 -1.55136 0
M  V30 6003 H 592.269 -2.54888 0.215783 0
M  V30 6004 H 591.913 -5.07664 0.154664 0
M  V30 6005 H 591.843 -5.00926 -1.6242 0
M  V30 6006 H 594.334 -3.69868 -0.77499 0
M  V30 6007 H 594.647 -7.66718 -0.967654 0
M  V30 6008 H 592.992 -6.89443 -0.877132 0
M  V30 6009 H 596.183 -4.59804 -0.877353 0
M  V30 6010 H 596.356 -6.40768 -0.965434 0
M  V30 6011 N 589.762 0.448376 -1.51087 0
M  V30 6012 C 591.009 1.19872 -1.63209 0
M  V30 6013 C 591.337 1.91451 -0.343062 0
M  V30 6014 O 590.592 1.83789 0.672321 0
M  V30 6015 C 590.891 2.24866 -2.77795 0
M  V30 6016 C 590.557 1.70378 -4.17471 0
M  V30 6017 C 589.219 1.55241 -4.55471 0
M  V30 6018 C 591.571 1.30203 -5.04675 0
M  V30 6019 C 588.899 0.983844 -5.78392 0
M  V30 6020 C 591.251 0.747798 -6.28165 0
M  V30 6021 C 589.915 0.583233 -6.64947 0
M  V30 6022 H 589.185 0.438642 -0.597222 0
M  V30 6023 H 591.832 0.49136 -1.85089 0
M  V30 6024 H 590.137 3.01598 -2.50092 0
M  V30 6025 H 591.834 2.82723 -2.84374 0
M  V30 6026 H 588.424 1.83134 -3.87505 0
M  V30 6027 H 592.608 1.40723 -4.75932 0
M  V30 6028 H 587.864 0.844007 -6.05546 0
M  V30 6029 H 592.038 0.427927 -6.95084 0
M  V30 6030 H 589.665 0.140532 -7.6007 0
M  V30 6031 N 591.24 1.41047 0.703093 0
M  V30 6032 C 592.15 1.44645 1.84703 0
M  V30 6033 C 593.166 0.337778 1.7069 0
M  V30 6034 O 594.342 0.584327 1.92737 0
M  V30 6035 C 591.407 1.31928 3.20618 0
M  V30 6036 C 590.468 2.53047 3.46794 0
M  V30 6037 C 589.701 2.40927 4.76224 0
M  V30 6038 O 589.924 1.42978 5.5219 0
M  V30 6039 O 588.858 3.30543 5.03016 0
M  V30 6040 H 592.684 2.41139 1.84624 0
M  V30 6041 H 590.269 1.22504 0.855167 0
M  V30 6042 H 592.151 1.27092 4.01778 0
M  V30 6043 H 590.826 0.385469 3.21397 0
M  V30 6044 H 589.733 2.6346 2.65593 0
M  V30 6045 H 591.066 3.45231 3.50822 0
M  V30 6046 N 592.718 -0.936591 1.26751 0
M  V30 6047 C 593.681 -2.01752 1.08761 0
M  V30 6048 C 594.681 -1.60763 0.0344435 0
M  V30 6049 O 595.871 -1.71963 0.278258 0
M  V30 6050 C 593.003 -3.34543 0.655271 0
M  V30 6051 H 594.196 -2.19143 2.04735 0
M  V30 6052 H 591.749 -1.11618 1.09413 0
M  V30 6053 H 592.484 -3.22851 -0.30626 0
M  V30 6054 H 592.269 -3.65647 1.41578 0
M  V30 6055 H 593.759 -4.13944 0.551378 0
M  V30 6056 N 594.196 -1.08629 -1.14182 0
M  V30 6057 C 595.143 -0.718299 -2.19338 0
M  V30 6058 C 596.113 0.296587 -1.63431 0
M  V30 6059 O 597.298 0.180079 -1.89948 0
M  V30 6060 C 594.438 -0.136203 -3.44831 0
M  V30 6061 C 593.551 -1.20414 -4.14879 0
M  V30 6062 C 592.686 -0.585666 -5.27962 0
M  V30 6063 C 591.725 -1.63548 -5.89846 0
M  V30 6064 N 590.862 -1.03864 -6.94375 0
M  V30 6065 H 595.702 -1.61932 -2.50164 0
M  V30 6066 H 593.239 -0.80919 -1.22844 0
M  V30 6067 H 595.197 0.219021 -4.16625 0
M  V30 6068 H 593.827 0.728121 -3.14481 0
M  V30 6069 H 592.879 -1.67676 -3.41451 0
M  V30 6070 H 594.191 -1.99959 -4.56966 0
M  V30 6071 H 593.345 -0.178818 -6.06436 0
M  V30 6072 H 592.084 0.24142 -4.87102 0
M  V30 6073 H 591.089 -2.05197 -5.10073 0
M  V30 6074 H 592.314 -2.46509 -6.3278 0
M  V30 6075 H 590.26 -0.232687 -6.55587 0
M  V30 6076 H 590.177 -1.77116 -7.3496 0
M  V30 6077 H 591.445 -0.657724 -7.7672 0
M  V30 6078 N 595.674 1.31259 -0.872281 0
M  V30 6079 C 596.923 1.95893 -0.480493 0
M  V30 6080 C 597.236 1.697 0.972688 0
M  V30 6081 O 598.442 2.28214 1.47073 0
M  V30 6082 C 596.898 3.50705 -0.808342 0
M  V30 6083 C 596.506 3.85735 -2.27844 0
M  V30 6084 C 598.25 4.21719 -0.485136 0
M  V30 6085 C 596.157 5.33668 -2.54858 0
M  V30 6086 H 595.087 0.733182 -0.175955 0
M  V30 6087 H 597.738 1.49396 -1.0655 0
M  V30 6088 H 596.12 3.95706 -0.152558 0
M  V30 6089 H 597.294 3.51686 -2.97748 0
M  V30 6090 H 595.609 3.27792 -2.56791 0
M  V30 6091 H 598.206 5.30559 -0.664166 0
M  V30 6092 H 598.549 4.12316 0.574592 0
M  V30 6093 H 599.082 3.82359 -1.09756 0
M  V30 6094 H 595.821 5.48109 -3.59523 0
M  V30 6095 H 595.341 5.69061 -1.8955 0
M  V30 6096 H 597.02 6.00958 -2.39706 0
M  V30 6097 N 597.152 0.631951 1.44375 0
M  V30 6098 C 598.102 -0.0943862 2.27805 0
M  V30 6099 C 599.086 -0.815359 1.38711 0
M  V30 6100 O 600.278 -0.701331 1.62513 0
M  V30 6101 C 597.407 -1.07472 3.26044 0
M  V30 6102 C 596.493 -0.353329 4.22626 0
M  V30 6103 N 596.884 0.618512 5.02004 0
M  V30 6104 C 595.182 -0.597662 4.41977 0
M  V30 6105 C 595.883 1.0448 5.7224 0
M  V30 6106 N 594.859 0.383413 5.42246 0
M  V30 6107 H 598.661 0.651672 2.86584 0
M  V30 6108 H 596.175 0.45752 1.55822 0
M  V30 6109 H 598.172 -1.60969 3.84571 0
M  V30 6110 H 596.832 -1.82107 2.68825 0
M  V30 6111 H 597.843 0.996356 5.08226 0
M  V30 6112 H 594.52 -1.32682 3.95856 0
M  V30 6113 H 595.91 1.84773 6.45994 0
M  V30 6114 N 598.631 -1.53133 0.372548 0
M  V30 6115 C 599.908 -1.93704 -0.271693 0
M  V30 6116 C 600.288 -1.30667 -1.65799 0
M  V30 6117 O 599.636 -0.46838 -2.23648 0
M  V30 6118 C 599.846 -3.47576 -0.314903 0
M  V30 6119 C 601.194 -4.20998 -0.551912 0
M  V30 6120 O 602.218 -3.53994 -0.39582 0
M  V30 6121 O 601.077 -5.39748 -0.85639 0
M  V30 6122 H 598.171 -0.810457 -0.164586 0
M  V30 6123 H 600.717 -1.6427 0.425838 0
M  V30 6124 H 599.489 -3.85749 0.656792 0
M  V30 6125 H 599.112 -3.83264 -1.05804 0
M  V30 6126 N 600.109 -0.101901 -1.5727 0
M  V30 6127 C 601.039 0.851544 -2.17419 0
M  V30 6128 C 602.02 1.28942 -1.10941 0
M  V30 6129 O 603.205 1.35509 -1.39107 0
M  V30 6130 C 600.335 2.10816 -2.75996 0
M  V30 6131 C 599.289 1.80867 -3.87906 0
M  V30 6132 C 598.615 3.13413 -4.33216 0
M  V30 6133 C 599.915 1.0903 -5.10793 0
M  V30 6134 H 601.609 0.350381 -2.97343 0
M  V30 6135 H 599.155 0.16709 -1.43027 0
M  V30 6136 H 601.108 2.77959 -3.16729 0
M  V30 6137 H 599.832 2.63227 -1.93337 0
M  V30 6138 H 598.491 1.16119 -3.47724 0
M  V30 6139 H 598.139 3.63725 -3.47438 0
M  V30 6140 H 597.839 2.94155 -5.08671 0
M  V30 6141 H 599.363 3.81704 -4.76586 0
M  V30 6142 H 600.777 1.66295 -5.48652 0
M  V30 6143 H 599.174 0.99927 -5.91722 0
M  V30 6144 H 600.244 0.0741704 -4.84843 0
M  V30 6145 N 601.587 1.56661 0.17182 0
M  V30 6146 C 603.003 1.50768 0.52357 0
M  V30 6147 C 603.203 0.806072 1.84675 0
M  V30 6148 O 602.259 0.366233 2.4983 0
M  V30 6149 C 603.572 2.955 0.556793 0
M  V30 6150 C 605.12 3.06303 0.644029 0
M  V30 6151 C 605.595 4.52492 0.708148 0
M  V30 6152 N 607.086 4.56737 0.771051 0
M  V30 6153 C 607.821 5.67196 0.841229 0
M  V30 6154 N 607.317 6.87287 0.872272 0
M  V30 6155 N 609.11 5.55165 0.88021 0
M  V30 6156 H 601.261 2.00679 -0.695817 0
M  V30 6157 H 603.524 0.914219 -0.250814 0
M  V30 6158 H 603.23 3.49986 -0.346774 0
M  V30 6159 H 603.104 3.50119 1.40346 0
M  V30 6160 H 605.491 2.51851 1.53802 0
M  V30 6161 H 605.572 2.5477 -0.229297 0
M  V30 6162 H 605.216 5.07575 -0.181585 0
M  V30 6163 H 605.146 5.01781 1.59761 0
M  V30 6164 H 607.637 3.70274 0.755364 0
M  V30 6165 H 607.95 7.6722 0.92698 0
M  V30 6166 H 606.295 6.89898 0.840557 0
M  V30 6167 H 609.486 4.60263 0.852956 0
M  V30 6168 H 609.659 6.41271 0.931439 0
M  V30 6169 N 603.065 -0.440357 1.51323 0
M  V30 6170 C 603.975 -1.55955 1.75258 0
M  V30 6171 C 604.991 -1.61933 0.636687 0
M  V30 6172 O 606.167 -1.79231 0.918593 0
M  V30 6173 C 603.232 -2.9196 1.86977 0
M  V30 6174 C 602.293 -2.96122 3.10822 0
M  V30 6175 C 601.526 -4.2564 3.21973 0
M  V30 6176 O 601.749 -5.17851 2.39137 0
M  V30 6177 O 600.683 -4.36025 4.14929 0
M  V30 6178 H 604.509 -1.38673 2.70191 0
M  V30 6179 H 602.094 -0.623055 1.35788 0
M  V30 6180 H 603.976 -3.72682 1.96688 0
M  V30 6181 H 602.651 -3.09375 0.952307 0
M  V30 6182 H 601.558 -2.14366 3.06591 0
M  V30 6183 H 602.891 -2.83651 4.02247 0
M  V30 6184 N 604.543 -1.41418 -0.695603 0
M  V30 6185 C 605.475 -1.39195 -1.82092 0
M  V30 6186 C 606.488 -0.294132 -1.60121 0
M  V30 6187 O 607.677 -0.555854 -1.69625 0
M  V30 6188 C 604.777 -1.14828 -3.18854 0
M  V30 6189 C 603.95 -2.36649 -3.67853 0
M  V30 6190 C 603.009 -2.08139 -4.83285 0
M  V30 6191 O 602.035 -2.81177 -4.94902 0
M  V30 6192 N 603.237 -1.07162 -5.70523 0
M  V30 6193 H 606.002 -2.36185 -1.84491 0
M  V30 6194 H 603.563 -1.3603 -0.877923 0
M  V30 6195 H 605.555 -0.937075 -3.93702 0
M  V30 6196 H 604.125 -0.264358 -3.1148 0
M  V30 6197 H 603.345 -2.73472 -2.83913 0
M  V30 6198 H 604.633 -3.17816 -3.97329 0
M  V30 6199 H 604.031 -0.467124 -5.63768 0
M  V30 6200 H 602.588 -0.920311 -6.4527 0
M  V30 6201 N 606.021 0.929856 -1.27246 0
M  V30 6202 C 606.951 2.04722 -1.12299 0
M  V30 6203 C 607.932 1.70082 -0.0250464 0
M  V30 6204 O 609.117 1.93176 -0.199141 0
M  V30 6205 C 606.247 3.38721 -0.767145 0
M  V30 6206 C 605.201 3.87466 -1.81808 0
M  V30 6207 C 604.527 5.18246 -1.31626 0
M  V30 6208 C 605.827 4.11095 -3.22177 0
M  V30 6209 H 607.521 2.17485 -2.05769 0
M  V30 6210 H 605.067 1.04503 -0.990715 0
M  V30 6211 H 607.02 4.16366 -0.649413 0
M  V30 6212 H 605.744 3.25967 0.203259 0
M  V30 6213 H 604.403 3.12012 -1.92468 0
M  V30 6214 H 604.051 5.01881 -0.335378 0
M  V30 6215 H 603.751 5.51829 -2.01887 0
M  V30 6216 H 605.275 5.98462 -1.21143 0
M  V30 6217 H 606.689 4.79316 -3.1453 0
M  V30 6218 H 605.086 4.55982 -3.90129 0
M  V30 6219 H 606.156 3.16468 -3.67391 0
M  V30 6220 N 607.499 1.09233 1.13605 0
M  V30 6221 C 608.432 0.6739 2.18023 0
M  V30 6222 C 609.41 -0.318603 1.59448 0
M  V30 6223 O 610.594 -0.220452 1.87206 0
M  V30 6224 C 607.721 -0.00751458 3.38699 0
M  V30 6225 C 606.767 0.946481 4.15865 0
M  V30 6226 S 607.6 2.45753 4.75779 0
M  V30 6227 C 608.756 1.78846 5.99804 0
M  V30 6228 H 608.989 1.55846 2.53178 0
M  V30 6229 H 606.522 0.908118 1.2487 0
M  V30 6230 H 608.48 -0.394368 4.08601 0
M  V30 6231 H 607.141 -0.868693 3.01849 0
M  V30 6232 H 606.334 0.416742 5.02274 0
M  V30 6233 H 605.936 1.27464 3.51609 0
M  V30 6234 H 608.228 1.11135 6.68323 0
M  V30 6235 H 609.171 2.63163 6.57382 0
M  V30 6236 H 609.579 1.25823 5.50299 0
M  V30 6237 N 608.977 -1.30795 0.87923 0
M  V30 6238 C 609.925 -2.30231 0.331112 0
M  V30 6239 C 610.919 -1.59918 -0.558794 0
M  V30 6240 O 612.125 -1.74441 -0.443866 0
M  V30 6241 H 608.5 -0.746785 0.088409 0
M  V30 6242 H 610.471 -2.73925 1.18353 0
M  V30 6243 C 609.22 -3.44848 -0.444401 0
M  V30 6244 H 608.543 -3.99131 0.231106 0
M  V30 6245 H 609.983 -4.16516 -0.793109 0
M  V30 6246 C 608.442 -2.94329 -1.63926 0
M  V30 6247 O 608.972 -2.93875 -2.73862 0
M  V30 6248 N 607.178 -2.50413 -1.4745 0
M  V30 6249 H 606.725 -2.50982 -0.58015 0
M  V30 6250 H 606.683 -2.16969 -2.27534 0
M  V30 6251 N 610.455 -0.639598 -1.44038 0
M  V30 6252 C 611.68 -0.153117 -2.06834 0
M  V30 6253 C 612.105 1.16676 -1.47541 0
M  V30 6254 O 611.463 1.71769 -0.580093 0
M  V30 6255 C 611.511 -0.0609169 -3.60549 0
M  V30 6256 O 610.615 0.98071 -4.00569 0
M  V30 6257 H 609.956 -0.0886402 -0.658057 0
M  V30 6258 H 612.486 -0.878674 -1.84771 0
M  V30 6259 H 612.496 0.126892 -4.07803 0
M  V30 6260 H 611.171 -1.0245 -4.03084 0
M  V30 6261 H 609.748 0.766789 -3.64931 0
M  V30 6262 N 611.933 1.52934 -0.380664 0
M  V30 6263 C 613.158 2.06363 0.207157 0
M  V30 6264 C 613.583 1.25122 1.4045 0
M  V30 6265 O 612.941 0.274062 1.79217 0
M  V30 6266 C 612.989 3.56162 0.563996 0
M  V30 6267 O 612.093 3.77552 1.65917 0
M  V30 6268 H 611.434 0.663468 0.0265859 0
M  V30 6269 H 613.964 1.9719 -0.545635 0
M  V30 6270 H 613.974 3.99453 0.830752 0
M  V30 6271 H 612.649 4.14732 -0.311427 0
M  V30 6272 H 611.226 3.46154 1.3868 0
M  V30 6273 N 613.412 0.11024 1.57214 0
M  V30 6274 C 614.342 -0.840002 2.17867 0
M  V30 6275 C 615.323 -1.28352 1.11624 0
M  V30 6276 O 616.508 -1.3477 1.39824 0
M  V30 6277 C 613.638 -2.09349 2.77111 0
M  V30 6278 C 612.592 -1.78807 3.8886 0
M  V30 6279 C 611.918 -3.11112 4.34872 0
M  V30 6280 C 613.218 -1.0632 5.11364 0
M  V30 6281 H 614.912 -0.334608 2.97524 0
M  V30 6282 H 612.458 -0.159502 1.43114 0
M  V30 6283 H 614.411 -2.76275 3.18198 0
M  V30 6284 H 613.135 -2.62198 1.9473 0
M  V30 6285 H 611.794 -1.14273 3.48335 0
M  V30 6286 H 611.442 -3.61877 3.49362 0
M  V30 6287 H 611.142 -2.91453 5.10224 0
M  V30 6288 H 612.666 -3.79171 4.78604 0
M  V30 6289 H 614.08 -1.63383 5.49526 0
M  V30 6290 H 612.477 -0.967876 5.92243 0
M  V30 6291 H 613.547 -0.0484569 4.84876 0
M  V30 6292 N 614.89 -1.56749 -0.16351 0
M  V30 6293 C 616.138 -1.82074 -0.87713 0
M  V30 6294 C 616.459 -0.688503 -1.82441 0
M  V30 6295 O 615.729 0.291085 -1.93725 0
M  V30 6296 H 614.309 -0.671677 -0.326893 0
M  V30 6297 H 616.971 -1.9423 -0.161459 0
M  V30 6298 H 616.067 -2.76407 -1.44934 0
M  V30 6299 N 616.368 0.432326 -1.51554 0
M  V30 6300 C 617.593 1.20824 -1.68571 0
M  V30 6301 C 618.018 1.84126 -0.384596 0
M  V30 6302 O 617.376 1.69025 0.655751 0
M  V30 6303 C 617.424 2.26429 -2.80646 0
M  V30 6304 O 616.528 3.32032 -2.44598 0
M  V30 6305 H 615.869 0.353765 -0.561913 0
M  V30 6306 H 618.399 0.509916 -1.98144 0
M  V30 6307 H 618.409 2.71133 -3.04878 0
M  V30 6308 H 617.084 1.79733 -3.75058 0
M  V30 6309 H 615.661 2.92769 -2.30956 0
M  V30 6310 N 617.846 1.41785 0.688094 0
M  V30 6311 C 619.094 1.41264 1.4453 0
M  V30 6312 C 619.415 0.0252946 1.94984 0
M  V30 6313 O 618.685 -0.934081 1.72197 0
M  V30 6314 H 617.265 0.519998 0.536294 0
M  V30 6315 H 619.927 1.7709 0.813941 0
M  V30 6316 H 619.023 2.10439 2.30482 0
M  V30 6317 N 619.324 -0.923095 1.27737 0
M  V30 6318 C 620.552 -1.70525 1.17171 0
M  V30 6319 C 620.967 -1.86847 -0.270881 0
M  V30 6320 O 620.324 -1.38879 -1.18401 0
M  V30 6321 C 620.375 -3.10242 1.85559 0
M  V30 6322 O 620.096 -2.94683 3.24182 0
M  V30 6323 C 621.597 -4.04586 1.81176 0
M  V30 6324 H 618.817 -0.533347 0.407163 0
M  V30 6325 H 621.361 -1.15599 1.68692 0
M  V30 6326 H 619.516 -3.62014 1.3793 0
M  V30 6327 H 619.93 -3.83045 3.58297 0
M  V30 6328 H 621.404 -5.00119 2.33633 0
M  V30 6329 H 621.881 -4.3218 0.782099 0
M  V30 6330 H 622.487 -3.58741 2.2844 0
M  V30 6331 N 620.802 -1.09834 -1.13024 0
M  V30 6332 C 621.765 -0.745058 -2.16752 0
M  V30 6333 C 622.765 0.227435 -1.59183 0
M  V30 6334 O 623.955 0.0050786 -1.74199 0
M  V30 6335 C 621.087 -0.102543 -3.40746 0
M  V30 6336 H 622.28 -1.66375 -2.49518 0
M  V30 6337 H 619.833 -0.898061 -1.27924 0
M  V30 6338 H 620.568 0.827177 -3.13573 0
M  V30 6339 H 620.353 -0.80235 -3.83803 0
M  V30 6340 H 621.843 0.129082 -4.174 0
M  V30 6341 N 622.28 1.30327 -0.886154 0
M  V30 6342 C 623.505 2.0079 -0.519425 0
M  V30 6343 C 623.93 1.65979 0.885013 0
M  V30 6344 O 623.288 0.877043 1.58675 0
M  V30 6345 C 623.336 3.53686 -0.702758 0
M  V30 6346 O 622.44 4.11637 0.250828 0
M  V30 6347 H 621.781 0.63171 -0.204544 0
M  V30 6348 H 624.311 1.66145 -1.19402 0
M  V30 6349 H 624.321 4.03531 -0.602207 0
M  V30 6350 H 622.996 3.78361 -1.72673 0
M  V30 6351 H 621.573 3.72755 0.103873 0
M  V30 6352 N 623.758 0.647228 1.43697 0
M  V30 6353 C 624.688 -0.0345631 2.33474 0
M  V30 6354 C 625.669 -0.818193 1.4913 0
M  V30 6355 O 626.854 -0.780867 1.77809 0
M  V30 6356 C 623.984 -1.00576 3.32418 0
M  V30 6357 C 622.938 -0.33266 4.26705 0
M  V30 6358 C 622.264 -1.41489 5.1564 0
M  V30 6359 C 623.564 0.771204 5.16575 0
M  V30 6360 H 625.258 0.715163 2.90733 0
M  V30 6361 H 622.804 0.345364 1.39797 0
M  V30 6362 H 624.757 -1.49159 3.94119 0
M  V30 6363 H 623.481 -1.78657 2.73403 0
M  V30 6364 H 622.14 0.13267 3.6636 0
M  V30 6365 H 621.788 -2.18698 4.52968 0
M  V30 6366 H 621.488 -0.969799 5.79542 0
M  V30 6367 H 623.012 -1.9022 5.80214 0
M  V30 6368 H 624.426 0.36779 5.72119 0
M  V30 6369 H 622.823 1.1404 5.89165 0
M  V30 6370 H 623.893 1.63169 4.56622 0
M  V30 6371 N 625.236 -1.5273 0.388769 0
M  V30 6372 C 626.652 -1.59553 0.0387049 0
M  V30 6373 C 626.852 -1.40278 -1.44652 0
M  V30 6374 O 625.908 -1.21951 -2.21098 0
M  V30 6375 C 627.221 -2.9625 0.515409 0
M  V30 6376 C 628.769 -3.09426 0.471621 0
M  V30 6377 C 629.244 -4.48572 0.924505 0
M  V30 6378 N 630.735 -4.54754 0.880496 0
M  V30 6379 C 631.47 -5.60653 1.20234 0
M  V30 6380 N 630.966 -6.74198 1.59463 0
M  V30 6381 N 632.759 -5.50755 1.12363 0
M  V30 6382 H 624.91 -1.63508 1.35569 0
M  V30 6383 H 627.173 -0.768097 0.555636 0
M  V30 6384 H 626.879 -3.15569 1.5527 0
M  V30 6385 H 626.753 -3.77102 -0.085792 0
M  V30 6386 H 629.14 -2.89804 -0.556588 0
M  V30 6387 H 629.221 -2.30528 1.10862 0
M  V30 6388 H 628.865 -4.68936 1.95094 0
M  V30 6389 H 628.795 -5.25935 0.264524 0
M  V30 6390 H 631.286 -3.73237 0.591815 0
M  V30 6391 H 631.599 -7.5097 1.82385 0
M  V30 6392 H 629.944 -6.75531 1.63349 0
M  V30 6393 H 633.135 -4.6093 0.816169 0
M  V30 6394 H 633.308 -6.33184 1.37777 0
M  V30 6395 N 626.714 -0.118576 -1.57153 0
M  V30 6396 C 627.939 0.550582 -1.99958 0
M  V30 6397 C 628.364 1.59458 -0.997736 0
M  V30 6398 O 627.722 1.81274 0.0306269 0
M  V30 6399 C 627.77 1.15379 -3.41643 0
M  V30 6400 O 626.874 2.26932 -3.44348 0
M  V30 6401 H 626.215 0.137567 -0.649593 0
M  V30 6402 H 628.745 -0.206926 -2.03551 0
M  V30 6403 H 628.755 1.48942 -3.79843 0
M  V30 6404 H 627.43 0.389087 -4.14076 0
M  V30 6405 H 626.007 1.94812 -3.17967 0
M  V30 6406 N 628.193 1.56834 0.155195 0
M  V30 6407 C 629.141 1.98584 1.21107 0
M  V30 6408 C 630.135 0.876987 1.44932 0
M  V30 6409 O 631.341 1.06215 1.45322 0
M  V30 6410 H 627.716 0.632039 0.407469 0
M  V30 6411 H 629.687 2.86561 0.832195 0
M  V30 6412 C 628.436 2.37555 2.53895 0
M  V30 6413 H 627.759 3.22428 2.3639 0
M  V30 6414 H 629.199 2.70598 3.26424 0
M  V30 6415 C 627.658 1.22507 3.13837 0
M  V30 6416 O 628.188 0.521388 3.98302 0
M  V30 6417 N 626.394 0.991444 2.73164 0
M  V30 6418 H 625.941 1.56544 2.04577 0
M  V30 6419 H 625.899 0.223546 3.13604 0
M  V30 6420 N 629.671 -0.424282 1.51781 0
M  V30 6421 C 631.082 -1.00368 1.57427 0
M  V30 6422 C 631.433 -1.91962 0.40558 0
M  V30 6423 O 630.558 -2.111 -0.47601 0
M  V30 6424 C 631.153 -1.82707 2.85313 0
M  V30 6425 C 629.712 -2.35675 2.93487 0
M  V30 6426 C 628.859 -1.1524 2.5222 0
M  V30 6427 H 631.81 -0.205064 1.5737 0
M  V30 6428 H 631.831 -2.68294 2.69812 0
M  V30 6429 H 631.343 -1.16017 3.70353 0
M  V30 6430 H 629.444 -3.05781 2.12906 0
M  V30 6431 H 629.557 -2.67578 3.97415 0
M  V30 6432 H 627.921 -1.50174 2.05718 0
M  V30 6433 H 628.704 -0.5014 3.39619 0
M  V30 6434 N 631.149 -1.42148 -0.680565 0
M  V30 6435 C 632.096 -1.45175 -1.79424 0
M  V30 6436 C 633.066 -0.304352 -1.63288 0
M  V30 6437 O 634.251 -0.507591 -1.83924 0
M  V30 6438 C 631.391 -1.35429 -3.17416 0
M  V30 6439 C 630.504 -2.60158 -3.4488 0
M  V30 6440 C 629.639 -2.42596 -4.72568 0
M  V30 6441 C 628.678 -3.62727 -4.93047 0
M  V30 6442 N 627.815 -3.44143 -6.11973 0
M  V30 6443 H 632.655 -2.40349 -1.76172 0
M  V30 6444 H 630.192 -1.19334 -0.860107 0
M  V30 6445 H 632.15 -1.27777 -3.97151 0
M  V30 6446 H 630.78 -0.438536 -3.19807 0
M  V30 6447 H 629.832 -2.78199 -2.5944 0
M  V30 6448 H 631.144 -3.49473 -3.55908 0
M  V30 6449 H 630.298 -2.32497 -5.60384 0
M  V30 6450 H 629.037 -1.50761 -4.63813 0
M  V30 6451 H 628.042 -3.73264 -4.03676 0
M  V30 6452 H 629.267 -4.55534 -5.03652 0
M  V30 6453 H 627.213 -2.5502 -6.04401 0
M  V30 6454 H 627.13 -4.27041 -6.23836 0
M  V30 6455 H 628.398 -3.37845 -7.02482 0
M  V30 6456 N 632.627 0.916307 -1.28225 0
M  V30 6457 C 634.043 1.19425 -1.05876 0
M  V30 6458 C 634.243 2.005 0.2005 0
M  V30 6459 O 633.299 2.35806 0.902873 0
M  V30 6460 C 634.612 1.93133 -2.30478 0
M  V30 6461 C 636.16 2.06026 -2.35632 0
M  V30 6462 C 636.635 2.83141 -3.59994 0
M  V30 6463 N 638.126 2.90704 -3.60618 0
M  V30 6464 C 638.861 3.50865 -4.53521 0
M  V30 6465 N 638.357 4.12327 -5.56739 0
M  V30 6466 N 640.15 3.48379 -4.41122 0
M  V30 6467 H 632.301 0.37496 -2.09064 0
M  V30 6468 H 634.564 0.228531 -0.920042 0
M  V30 6469 H 634.27 1.40985 -3.22205 0
M  V30 6470 H 634.144 2.93696 -2.36691 0
M  V30 6471 H 636.531 2.57355 -1.44404 0
M  V30 6472 H 636.612 1.04647 -2.33415 0
M  V30 6473 H 636.256 2.32492 -4.51564 0
M  V30 6474 H 636.186 3.84829 -3.59464 0
M  V30 6475 H 638.677 2.47034 -2.85977 0
M  V30 6476 H 638.99 4.56205 -6.23776 0
M  V30 6477 H 637.335 4.10839 -5.60568 0
M  V30 6478 H 640.526 2.99572 -3.59686 0
M  V30 6479 H 640.699 3.94974 -5.13712 0
M  V30 6480 N 634.105 1.10431 1.1244 0
M  V30 6481 C 635.353 0.845045 1.83585 0
M  V30 6482 C 635.674 -0.631168 1.84503 0
M  V30 6483 O 634.944 -1.45825 1.30813 0
M  V30 6484 H 633.524 0.309628 0.679809 0
M  V30 6485 H 636.186 1.39458 1.36153 0
M  V30 6486 H 635.282 1.20786 2.8778 0
M  V30 6487 N 635.583 -1.29855 0.893053 0
M  V30 6488 C 636.83 -1.95826 0.515585 0
M  V30 6489 C 637.158 -1.70451 -0.936842 0
M  V30 6490 O 636.413 -1.00657 -1.67829 0
M  V30 6491 C 636.712 -3.49515 0.746588 0
M  V30 6492 C 636.378 -3.94955 2.17535 0
M  V30 6493 C 635.04 -4.07073 2.56603 0
M  V30 6494 C 637.392 -4.18536 3.10607 0
M  V30 6495 C 634.72 -4.40138 3.87938 0
M  V30 6496 C 637.072 -4.53073 4.41484 0
M  V30 6497 C 635.736 -4.634 4.80434 0
M  V30 6498 H 635.006 -0.71658 0.188666 0
M  V30 6499 H 637.653 -1.54574 1.13045 0
M  V30 6500 H 635.958 -3.9177 0.0487551 0
M  V30 6501 H 637.655 -3.98644 0.434009 0
M  V30 6502 H 634.245 -3.86035 1.86212 0
M  V30 6503 H 638.429 -4.08646 2.81641 0
M  V30 6504 H 633.685 -4.46335 4.17846 0
M  V30 6505 H 637.859 -4.70269 5.13634 0
M  V30 6506 H 635.486 -4.88775 5.82239 0
M  V30 6507 N 637.061 -0.65484 -1.43351 0
M  V30 6508 C 638.291 -0.176429 -2.05845 0
M  V30 6509 C 638.699 1.16375 -1.49176 0
M  V30 6510 O 638.042 1.72981 -0.618322 0
M  V30 6511 C 638.104 -0.0125844 -3.59498 0
M  V30 6512 C 637.768 -1.27831 -4.38758 0
M  V30 6513 C 638.765 -2.2074 -4.70712 0
M  V30 6514 C 636.45 -1.52035 -4.78739 0
M  V30 6515 C 638.444 -3.36145 -5.41558 0
M  V30 6516 C 636.131 -2.67732 -5.49329 0
M  V30 6517 C 637.129 -3.59612 -5.80662 0
M  V30 6518 O 636.817 -4.73289 -6.4981 0
M  V30 6519 H 636.549 -0.0879682 -0.670252 0
M  V30 6520 H 639.103 -0.896193 -1.84818 0
M  V30 6521 H 637.333 0.762567 -3.79107 0
M  V30 6522 H 639.022 0.423392 -4.03686 0
M  V30 6523 H 639.788 -2.03284 -4.40341 0
M  V30 6524 H 635.667 -0.813987 -4.53757 0
M  V30 6525 H 639.211 -4.07881 -5.65932 0
M  V30 6526 H 635.108 -2.85122 -5.79116 0
M  V30 6527 H 635.876 -4.72575 -6.68293 0
M  V30 6528 N 638.539 1.52521 -0.396863 0
M  V30 6529 C 639.788 2.00857 0.184184 0
M  V30 6530 C 640.101 1.28733 1.47265 0
M  V30 6531 O 641.307 1.67821 2.13421 0
M  V30 6532 C 639.763 3.57901 0.378787 0
M  V30 6533 C 639.371 4.38931 -0.896873 0
M  V30 6534 C 641.115 4.14504 0.915789 0
M  V30 6535 C 639.022 5.87591 -0.670133 0
M  V30 6536 H 637.952 0.750496 0.0726055 0
M  V30 6537 H 640.603 1.75965 -0.520425 0
M  V30 6538 H 638.985 3.79072 1.14543 0
M  V30 6539 H 640.159 4.29524 -1.66872 0
M  V30 6540 H 638.474 3.93586 -1.35938 0
M  V30 6541 H 641.071 5.23236 1.10126 0
M  V30 6542 H 641.414 3.71076 1.88701 0
M  V30 6543 H 641.947 3.97253 0.208523 0
M  V30 6544 H 638.686 6.35355 -1.61257 0
M  V30 6545 H 638.206 5.99767 0.0626368 0
M  V30 6546 H 639.885 6.46268 -0.307577 0
M  V30 6547 N 640.017 0.126909 1.57088 0
M  V30 6548 C 641.433 -0.229641 1.57939 0
M  V30 6549 C 641.633 -1.66145 1.1401 0
M  V30 6550 O 640.689 -2.3843 0.831119 0
M  V30 6551 C 642.002 0.0108648 3.00698 0
M  V30 6552 C 643.55 -0.054418 3.12953 0
M  V30 6553 C 644.025 0.158497 4.57726 0
M  V30 6554 N 645.516 0.104735 4.63082 0
M  V30 6555 C 646.251 0.24427 5.72879 0
M  V30 6556 N 645.747 0.440415 6.91399 0
M  V30 6557 N 647.54 0.183286 5.61801 0
M  V30 6558 H 639.691 1.06203 1.83942 0
M  V30 6559 H 641.954 0.418834 0.85046 0
M  V30 6560 H 641.66 1.00102 3.37154 0
M  V30 6561 H 641.534 -0.717512 3.70313 0
M  V30 6562 H 643.921 -1.0351 2.7635 0
M  V30 6563 H 644.002 0.705967 2.45865 0
M  V30 6564 H 643.646 1.13619 4.95028 0
M  V30 6565 H 643.576 -0.62197 5.22914 0
M  V30 6566 H 646.067 -0.0430298 3.77876 0
M  V30 6567 H 646.38 0.537536 7.70928 0
M  V30 6568 H 644.725 0.476488 6.93365 0
M  V30 6569 H 647.916 0.0309561 4.6809 0
M  V30 6570 H 648.089 0.295471 6.47326 0
M  V30 6571 N 641.495 -1.56914 -0.146875 0
M  V30 6572 C 642.458 -1.97368 -1.16526 0
M  V30 6573 C 643.458 -0.860223 -1.35856 0
M  V30 6574 O 644.648 -1.12684 -1.32846 0
M  V30 6575 C 641.78 -2.28974 -2.52555 0
M  V30 6576 H 642.973 -2.88523 -0.818209 0
M  V30 6577 H 640.526 -1.5135 -0.390221 0
M  V30 6578 H 641.261 -1.40611 -2.92231 0
M  V30 6579 H 641.046 -3.10157 -2.39886 0
M  V30 6580 H 642.536 -2.61109 -3.25902 0
M  V30 6581 N 642.974 0.416227 -1.52004 0
M  V30 6582 C 643.904 1.51365 -1.77795 0
M  V30 6583 C 644.885 1.58059 -0.628601 0
M  V30 6584 O 646.07 1.73447 -0.873478 0
M  V30 6585 C 643.2 2.89256 -1.92219 0
M  V30 6586 C 642.154 2.97415 -3.0778 0
M  V30 6587 C 641.48 4.37492 -3.07417 0
M  V30 6588 C 642.78 2.69551 -4.47369 0
M  V30 6589 H 644.474 1.30033 -2.69688 0
M  V30 6590 H 642.02 0.624112 -1.29772 0
M  V30 6591 H 643.973 3.66008 -2.08845 0
M  V30 6592 H 642.697 3.11866 -0.969917 0
M  V30 6593 H 641.356 2.23107 -2.90893 0
M  V30 6594 H 641.004 4.571 -2.09925 0
M  V30 6595 H 640.704 4.43877 -3.85029 0
M  V30 6596 H 642.228 5.16188 -3.26162 0
M  V30 6597 H 643.642 3.36028 -4.64497 0
M  V30 6598 H 642.039 2.87321 -5.26846 0
M  V30 6599 H 643.109 1.65029 -4.55953 0
M  V30 6600 N 644.452 1.42507 0.673017 0
M  V30 6601 C 645.699 1.43072 1.43306 0
M  V30 6602 C 646.027 0.0478004 1.94441 0
M  V30 6603 O 645.282 -0.944106 1.71421 0
M  V30 6604 C 645.581 2.40351 2.64511 0
M  V30 6605 C 645.247 3.8669 2.31908 0
M  V30 6606 C 643.909 4.26551 2.22728 0
M  V30 6607 C 646.261 4.78991 2.05467 0
M  V30 6608 C 643.589 5.56691 1.85234 0
M  V30 6609 C 645.941 6.09476 1.69477 0
M  V30 6610 C 644.605 6.48334 1.58808 0
M  V30 6611 H 643.875 0.523536 0.524395 0
M  V30 6612 H 646.522 1.75459 0.76723 0
M  V30 6613 H 644.827 2.01297 3.36135 0
M  V30 6614 H 646.524 2.38051 3.22696 0
M  V30 6615 H 643.114 3.55132 2.39956 0
M  V30 6616 H 647.298 4.48982 2.11492 0
M  V30 6617 H 642.554 5.85657 1.75545 0
M  V30 6618 H 646.728 6.80482 1.48043 0
M  V30 6619 H 644.355 7.49084 1.29525 0
M  V30 6620 N 645.93 -0.909495 1.28709 0
M  V30 6621 C 647.207 -1.63865 1.06806 0
M  V30 6622 C 647.587 -2.07445 -0.391143 0
M  V30 6623 O 646.935 -1.82269 -1.37805 0
M  V30 6624 C 647.145 -2.82692 2.04661 0
M  V30 6625 C 648.493 -3.5361 2.35042 0
M  V30 6626 O 649.517 -2.92847 2.02779 0
M  V30 6627 O 648.376 -4.63131 2.90124 0
M  V30 6628 H 645.47 -0.719065 0.408502 0
M  V30 6629 H 648.016 -0.958424 1.40044 0
M  V30 6630 H 646.788 -2.47614 3.0299 0
M  V30 6631 H 646.411 -3.58426 1.72095 0
M  V30 6632 N 647.408 -1.11026 -1.11852 0
M  V30 6633 C 648.638 -0.877544 -1.87037 0
M  V30 6634 C 649.046 0.575925 -1.80221 0
M  V30 6635 O 648.389 1.40916 -1.17849 0
M  V30 6636 C 648.451 -1.25529 -3.36872 0
M  V30 6637 C 648.115 -2.71704 -3.67459 0
M  V30 6638 C 649.112 -3.69931 -3.65304 0
M  V30 6639 C 646.797 -3.08243 -3.966 0
M  V30 6640 C 648.791 -5.02717 -3.9186 0
M  V30 6641 C 646.478 -4.41215 -4.22815 0
M  V30 6642 C 647.476 -5.38262 -4.20432 0
M  V30 6643 O 647.164 -6.68839 -4.45992 0
M  V30 6644 H 646.896 -0.314374 -0.598452 0
M  V30 6645 H 649.45 -1.48015 -1.42411 0
M  V30 6646 H 647.68 -0.595808 -3.82082 0
M  V30 6647 H 649.369 -0.999064 -3.93413 0
M  V30 6648 H 650.135 -3.43047 -3.42846 0
M  V30 6649 H 646.014 -2.33326 -3.97593 0
M  V30 6650 H 649.558 -5.78456 -3.89916 0
M  V30 6651 H 645.455 -4.67835 -4.44748 0
M  V30 6652 H 646.223 -6.74563 -4.63581 0
M  V30 6653 N 648.886 1.2938 -0.899927 0
M  V30 6654 C 650.163 1.9046 -0.445443 0
M  V30 6655 C 650.543 1.81683 1.07492 0
M  V30 6656 O 649.891 1.24371 1.91688 0
M  V30 6657 C 650.101 3.35529 -0.960279 0
M  V30 6658 C 651.449 4.12556 -1.00412 0
M  V30 6659 O 652.473 3.44434 -0.907965 0
M  V30 6660 O 651.332 5.34294 -1.14857 0
M  V30 6661 H 648.426 0.815253 -0.138893 0
M  V30 6662 H 650.972 1.37844 -0.989808 0
M  V30 6663 H 649.744 3.36074 -2.00425 0
M  V30 6664 H 649.367 3.95624 -0.395939 0
M  V30 6665 N 650.364 0.662433 1.43002 0
M  V30 6666 C 651.311 -0.0235324 2.30788 0
M  V30 6667 C 652.281 -0.805342 1.4527 0
M  V30 6668 O 653.466 -0.78009 1.74124 0
M  V30 6669 C 650.606 -0.977545 3.30965 0
M  V30 6670 C 649.719 -0.190865 4.31578 0
M  V30 6671 C 648.854 -1.13951 5.18834 0
M  V30 6672 C 647.893 -0.343796 6.11134 0
M  V30 6673 N 647.03 -1.2445 6.90982 0
M  V30 6674 H 651.87 0.730921 2.88897 0
M  V30 6675 H 649.407 0.372197 1.42313 0
M  V30 6676 H 651.365 -1.54437 3.87563 0
M  V30 6677 H 649.995 -1.69877 2.74484 0
M  V30 6678 H 649.047 0.492388 3.772 0
M  V30 6679 H 650.359 0.427464 4.96965 0
M  V30 6680 H 649.513 -1.77666 5.80103 0
M  V30 6681 H 648.252 -1.79174 4.53595 0
M  V30 6682 H 647.257 0.30665 5.48944 0
M  V30 6683 H 648.482 0.304161 6.78419 0
M  V30 6684 H 646.428 -1.88336 6.28383 0
M  V30 6685 H 646.345 -0.680959 7.52927 0
M  V30 6686 H 647.613 -1.86952 7.56749 0
M  V30 6687 N 651.842 -1.52309 0.404946 0
M  V30 6688 C 653.07 -2.06185 -0.171818 0
M  V30 6689 C 653.485 -1.27536 -1.39212 0
M  V30 6690 O 652.842 -0.326112 -1.79563 0
M  V30 6691 C 652.893 -3.57647 -0.526417 0
M  V30 6692 O 652.614 -4.3332 0.645417 0
M  V30 6693 C 654.115 -4.27925 -1.15736 0
M  V30 6694 H 651.335 -0.670632 -0.0222328 0
M  V30 6695 H 653.879 -1.96259 0.574692 0
M  V30 6696 H 652.034 -3.67595 -1.22282 0
M  V30 6697 H 652.448 -5.23328 0.35042 0
M  V30 6698 H 653.922 -5.35093 -1.35572 0
M  V30 6699 H 654.399 -3.84134 -2.12926 0
M  V30 6700 H 655.005 -4.22335 -0.501281 0
M  V30 6701 N 653.32 -0.135238 -1.57019 0
M  V30 6702 C 654.267 0.808908 -2.1616 0
M  V30 6703 C 655.237 1.25234 -1.09113 0
M  V30 6704 O 656.422 1.32697 -1.37099 0
M  V30 6705 C 653.562 2.04729 -2.77813 0
M  V30 6706 C 652.675 1.65074 -3.99218 0
M  V30 6707 C 651.81 2.84002 -4.48906 0
M  V30 6708 C 650.849 2.40663 -5.62803 0
M  V30 6709 N 649.986 3.5256 -6.07162 0
M  V30 6710 H 654.826 0.297751 -2.96509 0
M  V30 6711 H 652.363 0.135264 -1.46477 0
M  V30 6712 H 654.321 2.7731 -3.11697 0
M  V30 6713 H 652.951 2.53275 -2.00128 0
M  V30 6714 H 652.003 0.823029 -3.7139 0
M  V30 6715 H 653.315 1.29236 -4.81767 0
M  V30 6716 H 652.469 3.64788 -4.84783 0
M  V30 6717 H 651.208 3.23076 -3.65339 0
M  V30 6718 H 650.213 1.58314 -5.26514 0
M  V30 6719 H 651.438 2.02687 -6.48147 0
M  V30 6720 H 649.384 3.91278 -5.26534 0
M  V30 6721 H 649.301 3.20699 -6.84608 0
M  V30 6722 H 650.569 4.33738 -6.47682 0
M  V30 6723 N 654.798 1.5699 0.138552 0
M  V30 6724 C 656.075 1.74741 0.87891 0
M  V30 6725 C 656.455 0.705522 1.98961 0
M  V30 6726 O 655.803 -0.274066 2.2685 0
M  V30 6727 C 656.013 3.1909 1.4136 0
M  V30 6728 C 657.361 3.81023 1.87368 0
M  V30 6729 O 658.385 3.22571 1.51084 0
M  V30 6730 O 657.244 4.83722 2.54312 0
M  V30 6731 H 654.338 0.714781 0.415953 0
M  V30 6732 H 656.884 1.69248 0.123817 0
M  V30 6733 H 655.656 3.86424 0.61579 0
M  V30 6734 H 655.279 3.29043 2.23196 0
M  V30 6735 N 656.276 -0.40816 1.52223 0
M  V30 6736 C 657.516 -1.16418 1.68006 0
M  V30 6737 C 657.88 -1.87749 0.401793 0
M  V30 6738 O 659.081 -2.65245 0.435743 0
M  V30 6739 C 657.352 -2.13143 2.86889 0
M  V30 6740 S 658.911 -2.96839 3.2316 0
M  V30 6741 H 655.729 -0.394373 0.5916 0
M  V30 6742 H 658.331 -0.451349 1.90219 0
M  V30 6743 H 657.035 -1.59428 3.78168 0
M  V30 6744 H 656.566 -2.88963 2.66953 0
M  V30 6745 H 658.581 -4.151 2.71857 0
M  V30 6746 N 657.755 -1.42862 -0.66545 0
M  V30 6747 C 659.003 -1.43546 -1.42264 0
M  V30 6748 C 659.324 -0.0563116 -1.94919 0
M  V30 6749 O 658.594 0.906568 -1.73661 0
M  V30 6750 H 657.174 -0.528464 -0.527953 0
M  V30 6751 H 659.836 -1.78363 -0.785665 0
M  V30 6752 H 658.932 -2.14079 -2.27105 0
M  V30 6753 N 659.233 0.902656 -1.29189 0
M  V30 6754 C 660.48 1.65287 -1.16989 0
M  V30 6755 C 660.808 1.92485 0.279232 0
M  V30 6756 O 660.063 1.53143 1.21843 0
M  V30 6757 C 660.362 3.011 -1.92545 0
M  V30 6758 C 660.028 2.93521 -3.42281 0
M  V30 6759 C 658.69 2.91161 -3.83117 0
M  V30 6760 C 661.042 2.82947 -4.3771 0
M  V30 6761 C 658.37 2.76043 -5.17704 0
M  V30 6762 C 660.722 2.69368 -5.72384 0
M  V30 6763 C 659.386 2.65373 -6.12482 0
M  V30 6764 H 658.656 0.604828 -0.428094 0
M  V30 6765 H 661.303 1.05084 -1.60092 0
M  V30 6766 H 659.608 3.65153 -1.42024 0
M  V30 6767 H 661.305 3.58073 -1.80512 0
M  V30 6768 H 657.895 2.96158 -3.09819 0
M  V30 6769 H 662.079 2.83849 -4.07116 0
M  V30 6770 H 657.335 2.71352 -5.47885 0
M  V30 6771 H 661.509 2.60156 -6.45981 0
M  V30 6772 H 659.136 2.53415 -7.16718 0
M  V30 6773 N 660.711 1.11618 1.11262 0
M  V30 6774 C 661.641 0.79846 2.19424 0
M  V30 6775 C 662.622 -0.234003 1.68483 0
M  V30 6776 O 663.807 -0.0970704 1.93957 0
M  V30 6777 C 660.937 0.242892 3.4645 0
M  V30 6778 C 659.891 1.20744 4.10615 0
M  V30 6779 C 659.217 0.512494 5.32238 0
M  V30 6780 C 660.517 2.55884 4.55325 0
M  V30 6781 H 662.211 1.70286 2.46258 0
M  V30 6782 H 659.757 0.820195 1.18359 0
M  V30 6783 H 661.71 0.00840447 4.21399 0
M  V30 6784 H 660.434 -0.696811 3.1908 0
M  V30 6785 H 659.093 1.42759 3.37662 0
M  V30 6786 H 658.741 -0.432075 5.01141 0
M  V30 6787 H 658.441 1.15583 5.7612 0
M  V30 6788 H 659.965 0.286842 6.09926 0
M  V30 6789 H 661.379 2.37946 5.21588 0
M  V30 6790 H 659.776 3.16216 5.10027 0
M  V30 6791 H 660.846 3.14968 3.68678 0
M  V30 6792 N 662.189 -1.289 0.906776 0
M  V30 6793 C 663.414 -1.99939 0.551303 0
M  V30 6794 C 663.839 -1.67366 -0.858496 0
M  V30 6795 O 663.197 -0.902176 -1.57259 0
M  V30 6796 C 663.245 -3.52523 0.758937 0
M  V30 6797 O 662.349 -4.11983 -0.185308 0
M  V30 6798 H 661.69 -0.628376 0.214568 0
M  V30 6799 H 664.22 -1.64225 1.2203 0
M  V30 6800 H 664.23 -4.02522 0.666329 0
M  V30 6801 H 662.905 -3.75566 1.78671 0
M  V30 6802 H 661.482 -3.72873 -0.0445577 0
M  V30 6803 N 663.667 -0.670007 -1.42649 0
M  V30 6804 C 664.599 0.0501746 -2.29145 0
M  V30 6805 C 665.612 0.770331 -1.43422 0
M  V30 6806 O 666.801 0.625288 -1.6719 0
M  V30 6807 C 663.901 1.09463 -3.20735 0
M  V30 6808 C 663.074 0.44926 -4.35087 0
M  V30 6809 C 662.133 1.39285 -5.07431 0
M  V30 6810 O 661.159 0.894997 -5.6212 0
M  V30 6811 N 662.361 2.72631 -5.12496 0
M  V30 6812 H 665.126 -0.692312 -2.91594 0
M  V30 6813 H 662.687 -0.514056 -1.53522 0
M  V30 6814 H 664.679 1.72705 -3.65999 0
M  V30 6815 H 663.249 1.73891 -2.59771 0
M  V30 6816 H 662.469 -0.362573 -3.92529 0
M  V30 6817 H 663.757 -0.000544776 -5.088 0
M  V30 6818 H 663.155 3.15623 -4.69467 0
M  V30 6819 H 661.712 3.31132 -5.61422 0
M  V30 6820 N 665.145 1.52092 -0.413018 0
M  V30 6821 C 666.108 2.25706 0.398687 0
M  V30 6822 C 667.108 1.28221 0.970368 0
M  V30 6823 O 668.298 1.52131 0.848635 0
M  V30 6824 C 665.43 3.03029 1.5616 0
M  V30 6825 H 666.623 2.98888 -0.246131 0
M  V30 6826 H 664.176 1.5542 -0.165622 0
M  V30 6827 H 664.911 2.34205 2.24317 0
M  V30 6828 H 664.696 3.74606 1.15812 0
M  V30 6829 H 666.186 3.58857 2.13569 0
M  V30 6830 N 666.623 0.143563 1.56945 0
M  V30 6831 C 667.553 -0.7936 2.196 0
M  V30 6832 C 668.534 -1.25955 1.14321 0
M  V30 6833 O 669.719 -1.31773 1.42651 0
M  V30 6834 C 666.849 -2.03424 2.81489 0
M  V30 6835 C 665.803 -1.70519 3.92565 0
M  V30 6836 C 665.129 -3.01817 4.41373 0
M  V30 6837 C 666.429 -0.95449 5.13504 0
M  V30 6838 H 668.123 -0.271423 2.98167 0
M  V30 6839 H 665.669 -0.12911 1.4342 0
M  V30 6840 H 667.622 -2.69463 3.23987 0
M  V30 6841 H 666.346 -2.58008 2.00248 0
M  V30 6842 H 665.005 -1.06859 3.5068 0
M  V30 6843 H 664.653 -3.54386 3.56959 0
M  V30 6844 H 664.353 -2.80565 5.16292 0
M  V30 6845 H 665.877 -3.68934 4.86539 0
M  V30 6846 H 667.291 -1.5169 5.52868 0
M  V30 6847 H 665.688 -0.842035 5.94163 0
M  V30 6848 H 666.758 0.0544033 4.84869 0
M  V30 6849 N 668.101 -1.57061 -0.130224 0
M  V30 6850 C 669.326 -1.88802 -0.858409 0
M  V30 6851 C 669.751 -0.734353 -1.73173 0
M  V30 6852 O 669.109 0.315529 -1.78533 0
M  V30 6853 C 669.157 -3.19228 -1.67708 0
M  V30 6854 O 668.261 -3.04343 -2.78297 0
M  V30 6855 H 667.602 -0.619849 -0.238083 0
M  V30 6856 H 670.132 -2.04271 -0.115995 0
M  V30 6857 H 670.142 -3.51669 -2.06864 0
M  V30 6858 H 668.817 -4.02793 -1.0359 0
M  V30 6859 H 667.394 -2.83346 -2.42425 0
M  V30 6860 N 669.579 0.400081 -1.52437 0
M  V30 6861 C 670.826 1.14619 -1.6694 0
M  V30 6862 C 671.154 1.90262 -0.403797 0
M  V30 6863 O 670.409 1.85835 0.61351 0
M  V30 6864 C 670.708 2.15914 -2.84808 0
M  V30 6865 C 670.374 1.57011 -4.2268 0
M  V30 6866 C 669.036 1.40672 -4.60179 0
M  V30 6867 C 671.388 1.14081 -5.08562 0
M  V30 6868 C 668.716 0.799335 -5.81229 0
M  V30 6869 C 671.068 0.547573 -6.30226 0
M  V30 6870 C 669.732 0.371389 -6.66466 0
M  V30 6871 H 669.002 0.419419 -0.610875 0
M  V30 6872 H 671.649 0.432227 -1.86558 0
M  V30 6873 H 669.954 2.93488 -2.59561 0
M  V30 6874 H 671.651 2.73533 -2.93225 0
M  V30 6875 H 668.241 1.70713 -3.93135 0
M  V30 6876 H 672.425 1.2551 -4.80168 0
M  V30 6877 H 667.681 0.65093 -6.07925 0
M  V30 6878 H 671.855 0.206575 -6.96094 0
M  V30 6879 H 669.482 -0.10135 -7.60132 0
M  V30 6880 N 671.057 1.43213 0.657864 0
M  V30 6881 C 672.473 1.26511 0.972992 0
M  V30 6882 C 672.673 0.181477 2.00681 0
M  V30 6883 O 671.729 -0.441649 2.48608 0
M  V30 6884 C 673.042 2.62784 1.46168 0
M  V30 6885 C 674.59 2.70278 1.57857 0
M  V30 6886 C 675.065 4.06958 2.10117 0
M  V30 6887 N 676.556 4.08999 2.17426 0
M  V30 6888 C 677.291 5.11585 2.58975 0
M  V30 6889 N 676.787 6.24548 2.99853 0
M  V30 6890 N 678.58 4.9894 2.58873 0
M  V30 6891 H 670.731 2.12384 -0.0263129 0
M  V30 6892 H 672.994 0.946638 0.0507992 0
M  V30 6893 H 672.7 3.43022 0.776474 0
M  V30 6894 H 672.574 2.87863 2.43751 0
M  V30 6895 H 674.961 1.90376 2.25479 0
M  V30 6896 H 675.042 2.4897 0.587179 0
M  V30 6897 H 674.686 4.87325 1.43098 0
M  V30 6898 H 674.616 4.25628 3.10078 0
M  V30 6899 H 677.107 3.27457 1.88627 0
M  V30 6900 H 677.42 6.98661 3.30292 0
M  V30 6901 H 675.765 6.28027 2.97669 0
M  V30 6902 H 678.956 4.09757 2.26311 0
M  V30 6903 H 679.129 5.79019 2.90932 0
M  V30 6904 N 672.536 -0.895792 1.29666 0
M  V30 6905 C 673.783 -1.64664 1.17864 0
M  V30 6906 C 674.111 -1.92631 -0.26902 0
M  V30 6907 O 673.366 -1.53787 -1.21029 0
M  V30 6908 C 673.665 -3.00075 1.94139 0
M  V30 6909 C 673.331 -2.91702 3.43833 0
M  V30 6910 C 671.993 -2.89126 3.84656 0
M  V30 6911 C 674.345 -2.80622 4.39205 0
M  V30 6912 C 671.673 -2.73293 5.1916 0
M  V30 6913 C 674.025 -2.66329 5.73805 0
M  V30 6914 C 672.689 -2.62121 6.1388 0
M  V30 6915 H 671.959 -0.602549 0.431295 0
M  V30 6916 H 674.606 -1.04234 1.60648 0
M  V30 6917 H 672.911 -3.64394 1.43958 0
M  V30 6918 H 674.608 -3.57111 1.82408 0
M  V30 6919 H 671.198 -2.94511 3.11386 0
M  V30 6920 H 675.382 -2.81686 4.08615 0
M  V30 6921 H 670.638 -2.68443 5.49316 0
M  V30 6922 H 674.812 -2.56727 6.47352 0
M  V30 6923 H 672.439 -2.49611 7.18052 0
M  V30 6924 N 674.014 -1.12206 -1.10668 0
M  V30 6925 C 675.262 -0.874144 -1.82217 0
M  V30 6926 C 675.583 0.601736 -1.85484 0
M  V30 6927 O 674.853 1.43725 -1.33116 0
M  V30 6928 H 673.433 -0.320404 -0.674797 0
M  V30 6929 H 676.095 -1.41606 -1.33917 0
M  V30 6930 H 675.191 -1.25349 -2.85822 0
M  V30 6931 N 675.492 1.28418 -0.913599 0
M  V30 6932 C 676.769 1.89977 -0.465619 0
M  V30 6933 C 677.149 1.82813 1.05559 0
M  V30 6934 O 676.497 1.26397 1.90358 0
M  V30 6935 C 676.707 3.34492 -0.995813 0
M  V30 6936 C 678.055 4.11468 -1.04782 0
M  V30 6937 O 679.079 3.43451 -0.944445 0
M  V30 6938 O 677.938 5.33046 -1.20518 0
M  V30 6939 H 675.032 0.813734 -0.147532 0
M  V30 6940 H 677.578 1.36786 -1.00437 0
M  V30 6941 H 676.35 3.33929 -2.03978 0
M  V30 6942 H 675.973 3.95181 -0.437878 0
M  V30 6943 N 676.97 0.677563 1.42291 0
M  V30 6944 C 678.216 0.201272 2.01799 0
M  V30 6945 C 678.549 -1.19004 1.53465 0
M  V30 6946 O 677.824 -1.79953 0.738039 0
M  V30 6947 C 678.107 0.238968 3.59306 0
M  V30 6948 C 677.96 1.66594 4.17812 0
M  V30 6949 C 679.279 -0.411287 4.38174 0
M  V30 6950 H 676.398 0.0746114 0.733214 0
M  V30 6951 H 679.04 0.862872 1.69276 0
M  V30 6952 H 677.19 -0.324368 3.87144 0
M  V30 6953 H 678.862 2.28173 4.00917 0
M  V30 6954 H 677.105 2.20576 3.73536 0
M  V30 6955 H 677.776 1.64398 5.26951 0
M  V30 6956 H 680.252 0.0682804 4.16044 0
M  V30 6957 H 679.128 -0.354286 5.47755 0
M  V30 6958 H 679.389 -1.4893 4.1626 0
M  V30 6959 N 678.448 -1.51871 0.421078 0
M  V30 6960 C 679.378 -2.30231 -0.389363 0
M  V30 6961 C 680.359 -1.34946 -1.03555 0
M  V30 6962 O 681.544 -1.63859 -1.04229 0
M  V30 6963 C 678.674 -3.13247 -1.49979 0
M  V30 6964 C 677.628 -4.16677 -0.977966 0
M  V30 6965 C 676.954 -4.88112 -2.1829 0
M  V30 6966 C 678.254 -5.22295 -0.0236775 0
M  V30 6967 H 679.948 -2.98229 0.264524 0
M  V30 6968 H 677.494 -1.43424 0.12866 0
M  V30 6969 H 679.447 -3.66838 -2.07383 0
M  V30 6970 H 678.171 -2.4304 -2.18173 0
M  V30 6971 H 676.83 -3.64114 -0.426245 0
M  V30 6972 H 676.478 -4.14423 -2.85066 0
M  V30 6973 H 676.178 -5.58041 -1.84021 0
M  V30 6974 H 677.702 -5.44521 -2.76278 0
M  V30 6975 H 679.116 -5.71055 -0.506899 0
M  V30 6976 H 677.513 -5.99656 0.230782 0
M  V30 6977 H 678.583 -4.76131 0.917999 0
M  V30 6978 N 679.926 -0.151884 -1.56866 0
M  V30 6979 C 680.876 0.797799 -2.13586 0
M  V30 6980 C 681.86 1.20613 -1.06496 0
M  V30 6981 O 683.052 1.17173 -1.32663 0
M  V30 6982 C 680.181 2.03493 -2.76488 0
M  V30 6983 C 679.267 1.64948 -3.90708 0
M  V30 6984 N 679.658 0.972513 -4.96363 0
M  V30 6985 C 677.956 1.94186 -4.01507 0
M  V30 6986 C 678.657 0.785661 -5.7637 0
M  V30 6987 N 677.633 1.32105 -5.27304 0
M  V30 6988 H 681.435 0.271403 -2.92644 0
M  V30 6989 H 678.949 0.049487 -1.62325 0
M  V30 6990 H 680.946 2.72532 -3.15487 0
M  V30 6991 H 679.606 2.56646 -1.98904 0
M  V30 6992 H 680.617 0.632724 -5.1402 0
M  V30 6993 H 677.294 2.49154 -3.35005 0
M  V30 6994 H 678.684 0.251749 -6.71428 0
M  V30 6995 N 681.404 1.57128 0.121893 0
M  V30 6996 C 682.65 1.84974 0.831418 0
M  V30 6997 C 682.983 0.737204 1.79663 0
M  V30 6998 O 682.258 -0.257199 1.92792 0
M  V30 6999 C 682.541 3.23397 1.58386 0
M  V30 7000 C 682.394 4.45246 0.638445 0
M  V30 7001 C 683.713 3.59355 2.54071 0
M  V30 7002 H 680.832 0.67282 0.300803 0
M  V30 7003 H 683.474 1.89759 0.0957587 0
M  V30 7004 H 681.624 3.19449 2.21098 0
M  V30 7005 H 683.296 4.61295 0.0203925 0
M  V30 7006 H 681.539 4.33771 -0.05023 0
M  V30 7007 H 682.21 5.38765 1.20151 0
M  V30 7008 H 684.686 3.64075 2.01465 0
M  V30 7009 H 683.562 4.57193 3.03752 0
M  V30 7010 H 683.823 2.86622 3.36601 0
M  V30 7011 N 682.882 -0.391992 1.52647 0
M  V30 7012 C 684.131 -1.13449 1.6677 0
M  V30 7013 C 684.444 -1.91203 0.412399 0
M  V30 7014 O 685.65 -2.68013 0.433707 0
M  V30 7015 C 684.106 -2.06577 2.9471 0
M  V30 7016 C 683.714 -1.3426 4.27409 0
M  V30 7017 C 685.458 -2.80981 3.18198 0
M  V30 7018 C 683.365 -2.26136 5.46458 0
M  V30 7019 H 682.295 -0.427211 0.621295 0
M  V30 7020 H 684.946 -0.397522 1.79142 0
M  V30 7021 H 683.328 -2.83898 2.76076 0
M  V30 7022 H 684.502 -0.621856 4.56585 0
M  V30 7023 H 682.817 -0.718279 4.10158 0
M  V30 7024 H 685.414 -3.49898 4.04321 0
M  V30 7025 H 685.757 -3.44891 2.33144 0
M  V30 7026 H 686.29 -2.10754 3.37383 0
M  V30 7027 H 683.029 -1.66846 6.33911 0
M  V30 7028 H 682.549 -2.96134 5.21598 0
M  V30 7029 H 684.228 -2.86286 5.80215 0
M  V30 7030 N 684.36 -1.4356 -0.65026 0
M  V30 7031 C 685.637 -1.35811 -1.40765 0
M  V30 7032 C 686.017 -0.00736379 -2.11099 0
M  V30 7033 O 685.365 1.00932 -2.05 0
M  V30 7034 C 685.575 -2.54332 -2.3899 0
M  V30 7035 C 686.923 -2.97551 -3.02901 0
M  V30 7036 O 687.947 -2.544 -2.49317 0
M  V30 7037 O 686.806 -3.72311 -4.00059 0
M  V30 7038 H 683.9 -0.536861 -0.629054 0
M  V30 7039 H 686.446 -1.55615 -0.676919 0
M  V30 7040 H 685.218 -3.44274 -1.85986 0
M  V30 7041 H 684.841 -2.36643 -3.19509 0
M  V30 7042 N 685.838 0.888903 -1.30139 0
M  V30 7043 C 686.801 1.97576 -1.16174 0
M  V30 7044 C 687.801 1.60525 -0.094086 0
M  V30 7045 O 688.991 1.70812 -0.341889 0
M  V30 7046 C 686.123 3.3188 -0.778983 0
M  V30 7047 H 687.316 2.11393 -2.12728 0
M  V30 7048 H 684.869 1.0748 -1.1348 0
M  V30 7049 H 685.604 3.23765 0.186225 0
M  V30 7050 H 685.389 3.60141 -1.55051 0
M  V30 7051 H 686.879 4.11612 -0.704631 0
M  V30 7052 N 687.317 1.12792 1.10072 0
M  V30 7053 C 688.542 0.908838 1.86427 0
M  V30 7054 C 688.967 -0.536793 1.80278 0
M  V30 7055 O 688.325 -1.38033 1.17543 0
M  V30 7056 C 688.373 1.39295 3.3261 0
M  V30 7057 O 687.477 0.573846 4.08388 0
M  V30 7058 H 686.818 0.326234 0.578331 0
M  V30 7059 H 689.348 1.50094 1.39043 0
M  V30 7060 H 689.358 1.39366 3.83459 0
M  V30 7061 H 688.033 2.44555 3.36401 0
M  V30 7062 H 686.61 0.640438 3.67359 0
M  V30 7063 N 688.795 -1.27931 0.920396 0
M  V30 7064 C 690.072 -1.89728 0.475687 0
M  V30 7065 C 690.452 -1.8337 -1.04588 0
M  V30 7066 O 689.8 -1.27404 -1.89685 0
M  V30 7067 C 690.01 -3.33959 1.01354 0
M  V30 7068 C 691.358 -4.10907 1.06963 0
M  V30 7069 O 692.382 -3.42945 0.962646 0
M  V30 7070 O 691.241 -5.32399 1.23343 0
M  V30 7071 H 688.335 -0.81294 0.151845 0
M  V30 7072 H 690.881 -1.36252 1.01161 0
M  V30 7073 H 689.653 -3.32843 2.05746 0
M  V30 7074 H 689.276 -3.94944 0.458829 0
M  V30 7075 N 690.273 -0.685099 -1.4193 0
M  V30 7076 C 691.183 -0.013404 -2.34596 0
M  V30 7077 C 692.199 0.777589 -1.55658 0
M  V30 7078 O 693.375 0.717553 -1.88184 0
M  V30 7079 C 690.44 0.919031 -3.34297 0
M  V30 7080 C 689.501 0.121417 -4.29128 0
M  V30 7081 C 688.734 1.00944 -5.24067 0
M  V30 7082 O 688.957 2.24898 -5.24192 0
M  V30 7083 O 687.891 0.464724 -6.00103 0
M  V30 7084 H 691.717 -0.776978 -2.93593 0
M  V30 7085 H 689.302 -0.445379 -1.42607 0
M  V30 7086 H 691.184 1.45402 -3.9552 0
M  V30 7087 H 689.859 1.66228 -2.77759 0
M  V30 7088 H 688.766 -0.45792 -3.71287 0
M  V30 7089 H 690.099 -0.582937 -4.88736 0
M  V30 7090 N 691.751 1.51645 -0.429126 0
M  V30 7091 C 692.661 2.31288 0.392809 0
M  V30 7092 C 693.677 1.39852 1.03525 0
M  V30 7093 O 694.853 1.72926 1.03241 0
M  V30 7094 C 691.918 3.13347 1.48372 0
M  V30 7095 C 690.979 4.20551 0.862268 0
M  V30 7096 C 690.212 4.98688 1.9012 0
M  V30 7097 O 690.435 4.77359 3.12225 0
M  V30 7098 O 689.369 5.83005 1.4963 0
M  V30 7099 H 693.195 3.02609 -0.257138 0
M  V30 7100 H 690.78 1.48163 -0.191851 0
M  V30 7101 H 692.662 3.64387 2.1166 0
M  V30 7102 H 691.337 2.44799 2.1179 0
M  V30 7103 H 690.244 3.73609 0.191568 0
M  V30 7104 H 691.577 4.91449 0.271704 0
M  V30 7105 N 693.229 0.160201 1.56784 0
M  V30 7106 C 694.475 -0.481855 1.9761 0
M  V30 7107 C 694.83 -1.61605 1.04411 0
M  V30 7108 O 694.123 -1.91426 0.0816402 0
M  V30 7109 C 694.317 -1.02259 3.42459 0
M  V30 7110 C 694.146 0.0576781 4.49663 0
M  V30 7111 C 692.916 0.503585 5.02784 0
M  V30 7112 C 695.114 0.854013 5.0716 0
M  V30 7113 N 693.096 1.56532 5.93608 0
M  V30 7114 C 694.467 1.76593 5.94319 0
M  V30 7115 C 696.522 0.900333 4.89692 0
M  V30 7116 C 695.225 2.72023 6.6588 0
M  V30 7117 C 697.251 1.84252 5.61965 0
M  V30 7118 C 696.613 2.74194 6.48843 0
M  V30 7119 H 692.712 -0.144748 0.768487 0
M  V30 7120 H 695.296 0.257853 1.92985 0
M  V30 7121 H 693.467 -1.73186 3.47651 0
M  V30 7122 H 695.199 -1.63235 3.70319 0
M  V30 7123 H 691.954 0.103361 4.73487 0
M  V30 7124 H 692.378 2.09634 6.43726 0
M  V30 7125 H 697.02 0.219023 4.22232 0
M  V30 7126 H 694.738 3.41147 7.3256 0
M  V30 7127 H 698.324 1.88433 5.5044 0
M  V30 7128 H 697.204 3.45912 7.03786 0
M  V30 7129 N 694.707 -1.5719 -0.113559 0
M  V30 7130 C 695.953 -1.86289 -0.816583 0
M  V30 7131 C 696.308 -0.748672 -1.77236 0
M  V30 7132 O 695.601 0.250889 -1.8995 0
M  V30 7133 C 695.795 -3.19593 -1.59984 0
M  V30 7134 C 695.624 -4.43876 -0.721414 0
M  V30 7135 C 694.394 -5.03913 -0.374172 0
M  V30 7136 C 696.592 -5.14287 -0.0366045 0
M  V30 7137 N 694.574 -6.11741 0.514352 0
M  V30 7138 C 695.945 -6.15913 0.710706 0
M  V30 7139 C 698 -4.97885 0.039247 0
M  V30 7140 C 696.703 -7.0291 1.52675 0
M  V30 7141 C 698.729 -5.85373 0.842135 0
M  V30 7142 C 698.091 -6.86506 1.57762 0
M  V30 7143 H 694.19 -0.731839 -0.275564 0
M  V30 7144 H 696.774 -1.94535 -0.080033 0
M  V30 7145 H 694.945 -3.12432 -2.30739 0
M  V30 7146 H 696.677 -3.3648 -2.24862 0
M  V30 7147 H 693.432 -4.68131 -0.717653 0
M  V30 7148 H 693.856 -6.70293 0.950623 0
M  V30 7149 H 698.498 -4.19651 -0.51503 0
M  V30 7150 H 696.216 -7.80547 2.09217 0
M  V30 7151 H 699.802 -5.74746 0.903256 0
M  V30 7152 H 698.682 -7.53032 2.1889 0
M  V30 7153 N 696.185 0.383891 -1.52853 0
M  V30 7154 C 697.117 1.48889 -1.74255 0
M  V30 7155 C 698.13 1.50405 -0.623063 0
M  V30 7156 O 699.319 1.54215 -0.898887 0
M  V30 7157 C 696.419 2.87721 -1.79081 0
M  V30 7158 C 695.592 3.10111 -3.08464 0
M  V30 7159 C 694.651 4.28954 -3.0477 0
M  V30 7160 O 693.677 4.25012 -3.78621 0
M  V30 7161 N 694.879 5.35411 -2.24311 0
M  V30 7162 H 697.644 1.30915 -2.69595 0
M  V30 7163 H 695.205 0.573454 -1.51404 0
M  V30 7164 H 697.197 3.65333 -1.7411 0
M  V30 7165 H 695.767 2.99029 -0.911052 0
M  V30 7166 H 694.987 2.20319 -3.26884 0
M  V30 7167 H 696.275 3.21928 -3.94005 0
M  V30 7168 H 695.673 5.41471 -1.63787 0
M  V30 7169 H 694.23 6.1167 -2.25175 0
M  V30 7170 N 697.663 1.43903 0.642637 0
M  V30 7171 C 698.626 1.49538 1.73698 0
M  V30 7172 C 699.626 0.378776 1.56275 0
M  V30 7173 O 700.816 0.64095 1.6198 0
M  V30 7174 C 697.948 1.35821 3.12675 0
M  V30 7175 H 699.141 2.47008 1.70079 0
M  V30 7176 H 696.694 1.30824 0.85526 0
M  V30 7177 H 697.429 0.393994 3.21898 0
M  V30 7178 H 697.214 2.16776 3.26727 0
M  V30 7179 H 698.704 1.4272 3.92455 0
M  V30 7180 N 699.141 -0.881989 1.30609 0
M  V30 7181 C 700.557 -1.16576 1.09005 0
M  V30 7182 C 700.757 -2.00961 -0.14727 0
M  V30 7183 O 699.813 -2.38117 -0.840036 0
M  V30 7184 C 701.126 -1.86954 2.35518 0
M  V30 7185 C 702.674 -1.99706 2.41011 0
M  V30 7186 C 703.149 -2.73497 3.67374 0
M  V30 7187 N 704.64 -2.8104 3.68199 0
M  V30 7188 C 705.375 -3.38718 4.62664 0
M  V30 7189 N 704.871 -3.97421 5.67475 0
M  V30 7190 N 706.664 -3.36561 4.50203 0
M  V30 7191 H 698.815 -0.319398 2.09985 0
M  V30 7192 H 701.078 -0.204058 0.925778 0
M  V30 7193 H 700.784 -1.32393 3.2583 0
M  V30 7194 H 700.658 -2.87317 2.44395 0
M  V30 7195 H 703.045 -2.53436 1.51176 0
M  V30 7196 H 703.126 -0.984218 2.36108 0
M  V30 7197 H 702.77 -2.20438 4.57569 0
M  V30 7198 H 702.7 -3.75163 3.6954 0
M  V30 7199 H 705.191 -2.39365 2.92426 0
M  V30 7200 H 705.504 -4.39507 6.35652 0
M  V30 7201 H 703.849 -3.95832 5.71264 0
M  V30 7202 H 707.04 -2.8993 3.67503 0
M  V30 7203 H 707.213 -3.81215 5.24003 0
M  V30 7204 N 700.619 -1.13374 -1.09472 0
M  V30 7205 C 702.035 -0.871846 -1.33682 0
M  V30 7206 C 702.235 0.492847 -1.9538 0
M  V30 7207 O 701.291 1.23946 -2.19985 0
M  V30 7208 C 702.604 -1.99608 -2.24893 0
M  V30 7209 C 704.152 -2.02812 -2.38404 0
M  V30 7210 C 704.627 -3.14497 -3.3295 0
M  V30 7211 N 706.118 -3.14004 -3.40523 0
M  V30 7212 C 706.853 -3.97061 -4.13679 0
M  V30 7213 N 706.349 -4.90131 -4.89636 0
M  V30 7214 N 708.142 -3.85162 -4.09398 0
M  V30 7215 H 700.293 -2.01288 -0.677995 0
M  V30 7216 H 702.556 -0.876492 -0.361201 0
M  V30 7217 H 702.262 -2.98 -1.86786 0
M  V30 7218 H 702.136 -1.90981 -3.25278 0
M  V30 7219 H 704.523 -1.05034 -2.75775 0
M  V30 7220 H 704.604 -2.15511 -1.37799 0
M  V30 7221 H 704.248 -4.12514 -2.96302 0
M  V30 7222 H 704.178 -2.99035 -4.33458 0
M  V30 7223 H 706.669 -2.46587 -2.86362 0
M  V30 7224 H 706.982 -5.49996 -5.42885 0
M  V30 7225 H 705.327 -4.94138 -4.88726 0
M  V30 7226 H 708.518 -3.11779 -3.49158 0
M  V30 7227 H 708.691 -4.5012 -4.6615 0
M  V30 7228 N 702.098 1.27442 -0.927168 0
M  V30 7229 C 703.344 1.94679 -0.568164 0
M  V30 7230 C 703.677 1.72697 0.888219 0
M  V30 7231 O 702.952 1.05573 1.63354 0
M  V30 7232 C 703.235 3.4882 -0.894253 0
M  V30 7233 C 703.088 3.80146 -2.40435 0
M  V30 7234 C 704.407 4.38281 -0.399766 0
M  V30 7235 H 701.526 0.707071 -0.207892 0
M  V30 7236 H 704.168 1.50568 -1.15885 0
M  V30 7237 H 702.318 3.86522 -0.391566 0
M  V30 7238 H 703.99 3.52238 -2.97869 0
M  V30 7239 H 702.233 3.26716 -2.85375 0
M  V30 7240 H 702.904 4.87835 -2.58304 0
M  V30 7241 H 705.38 4.07726 -0.83058 0
M  V30 7242 H 704.256 5.44955 -0.656885 0
M  V30 7243 H 704.517 4.36521 0.700153 0
M  V30 7244 N 703.576 0.692616 1.41565 0
M  V30 7245 C 704.526 0.00231847 2.28 0
M  V30 7246 C 705.51 -0.755793 1.42044 0
M  V30 7247 O 706.702 -0.631772 1.65341 0
M  V30 7248 C 703.831 -0.935468 3.30309 0
M  V30 7249 C 702.917 -0.173761 4.23744 0
M  V30 7250 N 703.308 0.830872 4.98929 0
M  V30 7251 C 701.606 -0.409666 4.44115 0
M  V30 7252 C 702.307 1.28656 5.67294 0
M  V30 7253 N 701.283 0.613053 5.40132 0
M  V30 7254 H 705.085 0.772635 2.83562 0
M  V30 7255 H 702.599 0.523198 1.53741 0
M  V30 7256 H 704.596 -1.44513 3.91052 0
M  V30 7257 H 703.256 -1.70542 2.76307 0
M  V30 7258 H 704.267 1.21101 5.03542 0
M  V30 7259 H 700.944 -1.15773 4.01127 0
M  V30 7260 H 702.334 2.12006 6.37576 0
M  V30 7261 N 705.054 -1.51416 0.437162 0
M  V30 7262 C 706.279 -2.0699 -0.130424 0
M  V30 7263 C 706.704 -1.30249 -1.35709 0
M  V30 7264 O 706.062 -0.340388 -1.78076 0
M  V30 7265 C 706.11 -3.5801 -0.43142 0
M  V30 7266 O 705.214 -3.8345 -1.5179 0
M  V30 7267 H 704.555 -0.663997 -0.00194339 0
M  V30 7268 H 707.085 -1.95029 0.618445 0
M  V30 7269 H 707.095 -4.02261 -0.681926 0
M  V30 7270 H 705.77 -4.13291 0.465137 0
M  V30 7271 H 704.347 -3.51062 -1.25737 0
M  V30 7272 N 706.532 -0.168513 -1.56696 0
M  V30 7273 C 707.809 0.523367 -1.88468 0
M  V30 7274 C 708.189 1.81503 -1.07796 0
M  V30 7275 O 707.537 2.27859 -0.171045 0
M  V30 7276 C 707.747 0.767991 -3.40445 0
M  V30 7277 C 709.095 1.09924 -4.10124 0
M  V30 7278 O 710.119 0.856625 -3.45746 0
M  V30 7279 O 708.978 1.55681 -5.23856 0
M  V30 7280 H 706.072 0.269447 -0.781874 0
M  V30 7281 H 708.618 -0.206739 -1.68436 0
M  V30 7282 H 707.39 -0.145254 -3.9103 0
M  V30 7283 H 707.013 1.55151 -3.66079 0
M  V30 7284 N 708.01 1.57248 0.105221 0
M  V30 7285 C 709.235 1.90143 0.828264 0
M  V30 7286 C 709.66 0.761811 1.71983 0
M  V30 7287 O 709.018 -0.287086 1.79013 0
M  V30 7288 C 709.066 3.21856 1.62608 0
M  V30 7289 O 708.17 3.08732 2.7342 0
M  V30 7290 H 707.511 0.623558 0.228192 0
M  V30 7291 H 710.041 2.0443 0.0834826 0
M  V30 7292 H 710.051 3.54916 2.01243 0
M  V30 7293 H 708.726 4.0439 0.971687 0
M  V30 7294 H 707.303 2.87167 2.37886 0
M  V30 7295 N 709.488 -0.375779 1.53054 0
M  V30 7296 C 710.398 -1.48381 1.81715 0
M  V30 7297 C 711.414 -1.59087 0.704795 0
M  V30 7298 O 712.59 -1.75174 0.993785 0
M  V30 7299 C 709.655 -2.83767 1.99192 0
M  V30 7300 C 708.716 -2.82673 3.23102 0
M  V30 7301 C 707.949 -4.11601 3.39736 0
M  V30 7302 O 708.172 -5.07243 2.60885 0
M  V30 7303 O 707.106 -4.18034 4.33049 0
M  V30 7304 H 710.932 -1.27089 2.7583 0
M  V30 7305 H 708.517 -0.564902 1.38308 0
M  V30 7306 H 710.399 -3.64004 2.12318 0
M  V30 7307 H 709.074 -3.05057 1.08267 0
M  V30 7308 H 707.981 -2.0117 3.15407 0
M  V30 7309 H 709.314 -2.66335 4.13916 0
M  V30 7310 N 710.966 -1.44241 -0.634997 0
M  V30 7311 C 712.194 -1.50296 -1.42193 0
M  V30 7312 C 712.609 -0.12658 -1.88375 0
M  V30 7313 O 711.966 0.86678 -1.60603 0
M  V30 7314 C 712.017 -2.46437 -2.64482 0
M  V30 7315 O 711.738 -3.78724 -2.20226 0
M  V30 7316 C 713.239 -2.61918 -3.57651 0
M  V30 7317 H 710.459 -0.509865 -0.43621 0
M  V30 7318 H 713.003 -1.89167 -0.776921 0
M  V30 7319 H 711.158 -2.10712 -3.25083 0
M  V30 7320 H 711.572 -4.30595 -2.9948 0
M  V30 7321 H 713.046 -3.33225 -4.40074 0
M  V30 7322 H 713.523 -1.67017 -4.06204 0
M  V30 7323 H 714.129 -2.98528 -3.02921 0
M  V30 7324 N 712.444 0.87505 -1.31075 0
M  V30 7325 C 713.721 1.60976 -1.11113 0
M  V30 7326 C 714.101 2.08409 0.336006 0
M  V30 7327 O 713.449 1.85858 1.32924 0
M  V30 7328 C 713.659 2.77166 -2.12085 0
M  V30 7329 C 715.007 3.47254 -2.44335 0
M  V30 7330 O 716.031 2.87367 -2.10472 0
M  V30 7331 O 714.89 4.55276 -3.02301 0
M  V30 7332 H 711.984 0.707982 -0.427424 0
M  V30 7333 H 714.53 0.920957 -1.42536 0
M  V30 7334 H 713.302 2.39494 -3.09449 0
M  V30 7335 H 712.925 3.53737 -1.81538 0
M  V30 7336 N 713.922 1.13953 1.08869 0
M  V30 7337 C 715.199 0.815768 1.77777 0
M  V30 7338 C 715.579 -0.691624 1.99449 0
M  V30 7339 O 714.927 -1.63085 1.60049 0
M  V30 7340 C 715.137 1.60916 3.09689 0
M  V30 7341 C 716.485 1.80549 3.84301 0
M  V30 7342 O 717.509 1.57562 3.19457 0
M  V30 7343 O 716.368 2.18946 5.00724 0
M  V30 7344 H 713.462 0.298445 0.771271 0
M  V30 7345 H 716.008 1.24446 1.15374 0
M  V30 7346 H 714.78 2.6333 2.89435 0
M  V30 7347 H 714.403 1.17578 3.79817 0
M  V30 7348 N 715.4 -1.26948 0.933913 0
M  V30 7349 C 716.649 -1.93378 0.573409 0
M  V30 7350 C 716.962 -1.74148 -0.890614 0
M  V30 7351 O 718.168 -2.34971 -1.36017 0
M  V30 7352 C 716.624 -3.46449 0.974747 0
M  V30 7353 C 716.232 -3.74425 2.45988 0
M  V30 7354 C 717.976 -4.18924 0.685791 0
M  V30 7355 C 715.883 -5.209 2.8003 0
M  V30 7356 H 714.813 -0.723952 0.210736 0
M  V30 7357 H 717.464 -1.44143 1.13557 0
M  V30 7358 H 715.846 -3.94528 0.341181 0
M  V30 7359 H 717.02 -3.37079 3.14188 0
M  V30 7360 H 715.335 -3.15167 2.72138 0
M  V30 7361 H 717.932 -5.26786 0.916546 0
M  V30 7362 H 718.275 -4.14587 -0.377217 0
M  V30 7363 H 718.808 -3.76687 1.27874 0
M  V30 7364 H 715.547 -5.30332 3.85264 0
M  V30 7365 H 715.067 -5.59369 2.16485 0
M  V30 7366 H 716.746 -5.88837 2.68105 0
M  V30 7367 N 716.879 -0.700114 -1.41195 0
M  V30 7368 C 718.127 -0.232546 -2.00758 0
M  V30 7369 C 718.448 1.1734 -1.55745 0
M  V30 7370 O 717.718 1.79262 -0.790058 0
M  V30 7371 H 716.298 -0.0829845 -0.742376 0
M  V30 7372 H 718.96 -0.902289 -1.72756 0
M  V30 7373 H 718.056 -0.253521 -3.11069 0
M  V30 7374 N 718.357 1.51182 -0.445186 0
M  V30 7375 C 719.604 2.02152 0.118645 0
M  V30 7376 C 719.932 1.32888 1.42025 0
M  V30 7377 O 719.187 0.435041 1.90803 0
M  V30 7378 C 719.486 3.55408 0.376797 0
M  V30 7379 C 719.152 4.43008 -0.839945 0
M  V30 7380 C 717.814 4.66669 -1.17361 0
M  V30 7381 C 720.166 4.9435 -1.65127 0
M  V30 7382 C 717.494 5.38919 -2.31913 0
M  V30 7383 C 719.846 5.67857 -2.78786 0
M  V30 7384 C 718.51 5.89779 -3.12597 0
M  V30 7385 H 717.78 0.739727 0.0434152 0
M  V30 7386 H 720.427 1.82055 -0.593984 0
M  V30 7387 H 718.732 3.73879 1.1714 0
M  V30 7388 H 720.429 3.92388 0.826602 0
M  V30 7389 H 717.019 4.24793 -0.569958 0
M  V30 7390 H 721.203 4.75947 -1.4067 0
M  V30 7391 H 716.459 5.54105 -2.58413 0
M  V30 7392 H 720.633 6.06628 -3.42017 0
M  V30 7393 H 718.26 6.45542 -4.01471 0
M  V30 7394 N 719.835 0.176821 1.56605 0
M  V30 7395 C 721.084 -0.466833 1.96223 0
M  V30 7396 C 721.397 -1.64015 1.06576 0
M  V30 7397 O 722.603 -2.3504 1.35898 0
M  V30 7398 C 721.059 -0.881921 3.48927 0
M  V30 7399 C 720.667 0.266102 4.47209 0
M  V30 7400 C 722.411 -1.49368 3.97353 0
M  V30 7401 C 720.318 -0.168923 5.91159 0
M  V30 7402 H 719.248 -0.178178 0.732645 0
M  V30 7403 H 721.899 0.265929 1.81563 0
M  V30 7404 H 720.281 -1.67082 3.59026 0
M  V30 7405 H 721.455 1.04349 4.4883 0
M  V30 7406 H 719.77 0.788178 4.08872 0
M  V30 7407 H 722.367 -1.8313 5.02362 0
M  V30 7408 H 722.71 -2.3936 3.40606 0
M  V30 7409 H 723.243 -0.769114 3.90294 0
M  V30 7410 H 719.982 0.696351 6.51791 0
M  V30 7411 H 719.502 -0.911552 5.92833 0
M  V30 7412 H 721.181 -0.610938 6.44109 0
M  V30 7413 N 721.313 -1.57302 -0.09688 0
M  V30 7414 C 722.724 -1.7496 -0.651595 0
M  V30 7415 C 723.075 -0.798746 -1.79205 0
M  V30 7416 O 722.2 0.0231858 -2.16388 0
M  V30 7417 C 722.795 -3.17259 -1.18878 0
M  V30 7418 C 721.354 -3.36348 -1.68958 0
M  V30 7419 C 720.501 -2.70766 -0.598413 0
M  V30 7420 H 723.452 -1.58173 0.12918 0
M  V30 7421 H 723.473 -3.20033 -2.05814 0
M  V30 7422 H 722.985 -3.8644 -0.358523 0
M  V30 7423 H 721.086 -2.72243 -2.5439 0
M  V30 7424 H 721.199 -4.44654 -1.7838 0
M  V30 7425 H 719.563 -2.32615 -1.03743 0
M  V30 7426 H 720.346 -3.42586 0.221238 0
M  V30 7427 N 722.791 0.367657 -1.53252 0
M  V30 7428 C 724.016 1.13566 -1.73544 0
M  V30 7429 C 724.441 1.82329 -0.462344 0
M  V30 7430 O 723.799 1.71655 0.583472 0
M  V30 7431 C 723.847 2.14322 -2.89997 0
M  V30 7432 O 722.951 3.21359 -2.58461 0
M  V30 7433 H 722.292 0.329614 -0.576412 0
M  V30 7434 H 724.822 0.425417 -2.00128 0
M  V30 7435 H 724.832 2.57958 -3.16104 0
M  V30 7436 H 723.507 1.63664 -3.82344 0
M  V30 7437 H 722.084 2.8271 -2.43165 0
M  V30 7438 N 724.269 1.44576 0.627338 0
M  V30 7439 C 725.216 1.51734 1.73912 0
M  V30 7440 C 726.186 0.364745 1.62046 0
M  V30 7441 O 727.371 0.575503 1.81914 0
M  V30 7442 C 724.511 1.47116 3.12171 0
M  V30 7443 C 723.624 2.72778 3.34986 0
M  V30 7444 C 722.759 2.59968 4.63239 0
M  V30 7445 C 721.798 3.80776 4.79245 0
M  V30 7446 N 720.935 3.66618 5.98778 0
M  V30 7447 H 725.775 2.46722 1.6713 0
M  V30 7448 H 723.312 1.22444 0.815224 0
M  V30 7449 H 725.27 1.42429 3.92135 0
M  V30 7450 H 723.9 0.556928 3.17959 0
M  V30 7451 H 722.952 2.87637 2.48936 0
M  V30 7452 H 724.264 3.62441 3.42692 0
M  V30 7453 H 723.418 2.53135 5.51369 0
M  V30 7454 H 722.157 1.67872 4.57898 0
M  V30 7455 H 721.162 3.87989 3.89544 0
M  V30 7456 H 722.387 4.73913 4.86398 0
M  V30 7457 H 720.333 2.77277 5.9452 0
M  V30 7458 H 720.25 4.499 6.07557 0
M  V30 7459 H 721.518 3.63684 6.89459 0
M  V30 7460 N 725.747 -0.868086 1.31537 0
M  V30 7461 C 727.163 -1.15414 1.10235 0
M  V30 7462 C 727.363 -2.01106 -0.125947 0
M  V30 7463 O 726.419 -2.38994 -0.814734 0
M  V30 7464 C 727.732 -1.84445 2.37488 0
M  V30 7465 C 729.28 -1.97139 2.43116 0
M  V30 7466 C 729.755 -2.69585 3.70254 0
M  V30 7467 N 731.246 -2.77119 3.71159 0
M  V30 7468 C 731.981 -3.33791 4.6623 0
M  V30 7469 N 731.477 -3.9138 5.71659 0
M  V30 7470 N 733.27 -3.31767 4.53747 0
M  V30 7471 H 725.421 -0.297109 2.10312 0
M  V30 7472 H 727.684 -0.194227 0.92789 0
M  V30 7473 H 727.39 -1.2893 3.27215 0
M  V30 7474 H 727.264 -2.84709 2.47428 0
M  V30 7475 H 729.651 -2.51818 1.53856 0
M  V30 7476 H 729.732 -0.95912 2.37138 0
M  V30 7477 H 729.376 -2.15572 4.59881 0
M  V30 7478 H 729.306 -3.71223 3.73499 0
M  V30 7479 H 731.797 -2.3625 2.94948 0
M  V30 7480 H 732.11 -4.3274 6.40278 0
M  V30 7481 H 730.455 -3.8975 5.7543 0
M  V30 7482 H 733.646 -2.86016 3.70557 0
M  V30 7483 H 733.819 -3.75636 5.28017 0
M  V30 7484 N 727.225 -1.14528 -1.08264 0
M  V30 7485 C 728.641 -0.885976 -1.3275 0
M  V30 7486 C 728.841 0.472096 -1.95892 0
M  V30 7487 O 727.897 1.21606 -2.21288 0
M  V30 7488 C 729.21 -2.01982 -2.22764 0
M  V30 7489 C 730.758 -2.05329 -2.36239 0
M  V30 7490 C 731.233 -3.1801 -3.29596 0
M  V30 7491 N 732.724 -3.17598 -3.37173 0
M  V30 7492 C 733.459 -4.01426 -4.09444 0
M  V30 7493 N 732.955 -4.95297 -4.8441 0
M  V30 7494 N 734.748 -3.89482 -4.0529 0
M  V30 7495 H 726.899 -2.01996 -0.656607 0
M  V30 7496 H 729.162 -0.880274 -0.351884 0
M  V30 7497 H 728.868 -2.99964 -1.83615 0
M  V30 7498 H 728.742 -1.94421 -3.23234 0
M  V30 7499 H 731.129 -1.07953 -2.74646 0
M  V30 7500 H 731.21 -2.1696 -1.35506 0
M  V30 7501 H 730.854 -4.15633 -2.9191 0
M  V30 7502 H 730.784 -3.03616 -4.30261 0
M  V30 7503 H 733.275 -2.4961 -2.83731 0
M  V30 7504 H 733.588 -5.55723 -5.37021 0
M  V30 7505 H 731.933 -4.99293 -4.83457 0
M  V30 7506 H 735.124 -3.15465 -3.45832 0
M  V30 7507 H 735.297 -4.55039 -4.6135 0
M  V30 7508 N 728.703 1.26451 -0.940633 0
M  V30 7509 C 729.949 1.94065 -0.58878 0
M  V30 7510 C 730.282 1.7363 0.869853 0
M  V30 7511 O 729.557 1.073 1.62225 0
M  V30 7512 C 729.84 3.47852 -0.931199 0
M  V30 7513 C 729.693 3.77575 -2.44453 0
M  V30 7514 C 731.012 4.37832 -0.446229 0
M  V30 7515 H 728.131 0.704827 -0.21538 0
M  V30 7516 H 730.773 1.4933 -1.17475 0
M  V30 7517 H 728.923 3.86085 -0.432539 0
M  V30 7518 H 730.595 3.49059 -3.01588 0
M  V30 7519 H 728.838 3.23671 -2.88825 0
M  V30 7520 H 729.509 4.85068 -2.63464 0
M  V30 7521 H 731.985 4.06822 -0.873778 0
M  V30 7522 H 730.861 5.44228 -0.714648 0
M  V30 7523 H 731.122 4.37239 0.653815 0
M  V30 7524 N 730.181 0.707592 1.40822 0
M  V30 7525 C 731.091 0.0507246 2.34545 0
M  V30 7526 C 732.107 -0.752727 1.56876 0
M  V30 7527 O 733.283 -0.687524 1.89302 0
M  V30 7528 C 730.348 -0.865731 3.35717 0
M  V30 7529 C 729.409 -0.0531313 4.29267 0
M  V30 7530 C 728.642 -0.925939 5.25606 0
M  V30 7531 O 728.865 -2.16531 5.27703 0
M  V30 7532 O 727.799 -0.369194 6.00767 0
M  V30 7533 H 731.625 0.823587 2.9232 0
M  V30 7534 H 729.21 0.46801 1.4188 0
M  V30 7535 H 731.092 -1.39091 3.97783 0
M  V30 7536 H 729.767 -1.61788 2.80368 0
M  V30 7537 H 728.674 0.516931 3.70511 0
M  V30 7538 H 730.007 0.660617 4.87747 0
M  V30 7539 N 731.66 -1.50943 0.453197 0
M  V30 7540 C 733.076 -1.59245 0.106342 0
M  V30 7541 C 733.276 -1.46287 -1.38572 0
M  V30 7542 O 732.332 -1.31219 -2.15726 0
M  V30 7543 C 733.645 -2.93797 0.640595 0
M  V30 7544 C 735.193 -3.07148 0.602435 0
M  V30 7545 C 735.668 -4.44247 1.11393 0
M  V30 7546 N 737.159 -4.50611 1.07258 0
M  V30 7547 C 737.894 -5.55049 1.43905 0
M  V30 7548 N 737.39 -6.66828 1.87914 0
M  V30 7549 N 739.183 -5.45494 1.35621 0
M  V30 7550 H 731.334 -1.5761 1.42382 0
M  V30 7551 H 733.597 -0.74384 0.587713 0
M  V30 7552 H 733.303 -3.087 1.68515 0
M  V30 7553 H 733.177 -3.77127 0.0742272 0
M  V30 7554 H 735.564 -2.91903 -0.433171 0
M  V30 7555 H 735.645 -2.25619 1.20539 0
M  V30 7556 H 735.289 -4.60239 2.14808 0
M  V30 7557 H 735.219 -5.2434 0.487353 0
M  V30 7558 H 737.71 -3.70391 0.749585 0
M  V30 7559 H 738.023 -7.42558 2.14072 0
M  V30 7560 H 736.368 -6.67995 1.91853 0
M  V30 7561 H 739.559 -4.57053 1.01093 0
M  V30 7562 H 739.732 -6.2677 1.64508 0
M  V30 7563 N 733.138 -0.185124 -1.56509 0
M  V30 7564 C 734.554 0.170865 -1.58683 0
M  V30 7565 C 734.754 1.61799 -1.20098 0
M  V30 7566 O 733.81 2.35181 -0.919038 0
M  V30 7567 C 735.123 -0.122459 -3.00451 0
M  V30 7568 C 736.671 -0.0617699 -3.12939 0
M  V30 7569 C 737.146 -0.328269 -4.56822 0
M  V30 7570 N 738.637 -0.276533 -4.62374 0
M  V30 7571 C 739.372 -0.456722 -5.71578 0
M  V30 7572 N 738.868 -0.69672 -6.89288 0
M  V30 7573 N 740.661 -0.391669 -5.60734 0
M  V30 7574 H 732.812 -1.12956 -1.79874 0
M  V30 7575 H 735.075 -0.45011 -0.834329 0
M  V30 7576 H 734.781 -1.12546 -3.33206 0
M  V30 7577 H 734.655 0.579578 -3.72721 0
M  V30 7578 H 737.042 0.931826 -2.80002 0
M  V30 7579 H 737.123 -0.796732 -2.43076 0
M  V30 7580 H 736.767 -1.31914 -4.9047 0
M  V30 7581 H 736.697 0.427465 -5.24862 0
M  V30 7582 H 739.188 -0.0972458 -3.77775 0
M  V30 7583 H 739.501 -0.823291 -7.68402 0
M  V30 7584 H 737.846 -0.733497 -6.91119 0
M  V30 7585 H 741.037 -0.204663 -4.67652 0
M  V30 7586 H 741.21 -0.535518 -6.45783 0
M  V30 7587 N 734.616 1.57351 0.0885366 0
M  V30 7588 C 735.526 2.05858 1.12516 0
M  V30 7589 C 736.542 0.984758 1.43452 0
M  V30 7590 O 737.718 1.29836 1.53963 0
M  V30 7591 C 734.783 2.47882 2.42395 0
M  V30 7592 C 733.844 3.69487 2.18582 0
M  V30 7593 C 733.077 4.09497 3.42268 0
M  V30 7594 O 733.3 3.49536 4.50755 0
M  V30 7595 O 732.234 5.02406 3.31469 0
M  V30 7596 H 736.06 2.94467 0.743146 0
M  V30 7597 H 733.645 1.46326 0.301507 0
M  V30 7598 H 735.527 2.75509 3.18862 0
M  V30 7599 H 734.202 1.62408 2.8001 0
M  V30 7600 H 733.109 3.46967 1.39875 0
M  V30 7601 H 734.442 4.55761 1.85857 0
M  V30 7602 N 736.094 -0.359525 1.53444 0
M  V30 7603 C 737.34 -1.09958 1.71116 0
M  V30 7604 C 737.695 -1.8681 0.460414 0
M  V30 7605 O 736.988 -1.83635 -0.5467 0
M  V30 7606 C 737.182 -2.08287 2.90433 0
M  V30 7607 C 737.011 -1.41098 4.26991 0
M  V30 7608 C 735.781 -1.16255 4.91745 0
M  V30 7609 C 737.979 -0.845517 5.07302 0
M  V30 7610 N 735.961 -0.454798 6.12213 0
M  V30 7611 C 737.332 -0.267455 6.19423 0
M  V30 7612 C 739.387 -0.744797 4.92298 0
M  V30 7613 C 738.09 0.401511 7.18179 0
M  V30 7614 C 740.116 -0.0896013 5.91332 0
M  V30 7615 C 739.478 0.47756 7.02779 0
M  V30 7616 H 735.577 -0.387305 0.679352 0
M  V30 7617 H 738.161 -0.38519 1.90852 0
M  V30 7618 H 736.332 -2.77034 2.72226 0
M  V30 7619 H 738.064 -2.75015 2.96899 0
M  V30 7620 H 734.819 -1.44544 4.51003 0
M  V30 7621 H 735.243 -0.116108 6.769 0
M  V30 7622 H 739.885 -1.16905 4.06317 0
M  V30 7623 H 737.603 0.837694 8.03746 0
M  V30 7624 H 741.189 -0.0125162 5.81799 0
M  V30 7625 H 740.069 0.976522 7.78096 0
M  V30 7626 N 737.572 -1.44907 -0.619662 0
M  V30 7627 C 738.797 -1.52021 -1.41083 0
M  V30 7628 C 739.222 -0.14976 -1.87503 0
M  V30 7629 O 738.58 0.863303 -1.59426 0
M  V30 7630 C 738.628 -2.49911 -2.59955 0
M  V30 7631 O 737.732 -2.00857 -3.60181 0
M  V30 7632 H 737.073 -0.512912 -0.421684 0
M  V30 7633 H 739.603 -1.90149 -0.755282 0
M  V30 7634 H 739.613 -2.68323 -3.07354 0
M  V30 7635 H 738.288 -3.4945 -2.25516 0
M  V30 7636 H 736.865 -1.92265 -3.19513 0
M  V30 7637 N 739.05 0.861098 -1.31996 0
M  V30 7638 C 740.466 1.14827 -1.10846 0
M  V30 7639 C 740.666 2.0117 0.11528 0
M  V30 7640 O 739.722 2.39423 0.802048 0
M  V30 7641 C 741.035 1.83183 -2.38462 0
M  V30 7642 C 742.583 1.95847 -2.44158 0
M  V30 7643 C 743.058 2.67617 -3.71679 0
M  V30 7644 N 744.549 2.75147 -3.72624 0
M  V30 7645 C 745.284 3.31314 -4.67994 0
M  V30 7646 N 744.78 3.88343 -5.73726 0
M  V30 7647 N 746.573 3.29356 -4.55501 0
M  V30 7648 H 738.724 0.285951 -2.10466 0
M  V30 7649 H 740.987 0.189303 -0.928907 0
M  V30 7650 H 740.693 1.27193 -3.27895 0
M  V30 7651 H 740.567 2.83393 -2.48935 0
M  V30 7652 H 742.954 2.50999 -1.55189 0
M  V30 7653 H 743.035 0.94653 -2.37644 0
M  V30 7654 H 742.679 2.13131 -4.61018 0
M  V30 7655 H 742.609 3.69237 -3.75462 0
M  V30 7656 H 745.1 2.34682 -2.96197 0
M  V30 7657 H 745.413 4.29338 -6.42564 0
M  V30 7658 H 743.758 3.86693 -5.77489 0
M  V30 7659 H 746.949 2.84047 -3.72069 0
M  V30 7660 H 747.122 3.7283 -5.30001 0
M  V30 7661 N 740.528 1.15101 1.07655 0
M  V30 7662 C 741.458 0.867864 2.16773 0
M  V30 7663 C 742.439 -0.180283 1.69142 0
M  V30 7664 O 743.624 -0.0353152 1.94168 0
M  V30 7665 C 740.754 0.35299 3.45501 0
M  V30 7666 C 739.708 1.33746 4.06566 0
M  V30 7667 C 739.034 0.681562 5.30338 0
M  V30 7668 C 740.334 2.7024 4.46954 0
M  V30 7669 H 742.028 1.78034 2.40716 0
M  V30 7670 H 739.574 0.857435 1.15689 0
M  V30 7671 H 741.527 0.142465 4.21159 0
M  V30 7672 H 740.251 -0.594945 3.21135 0
M  V30 7673 H 738.91 1.53429 3.32949 0
M  V30 7674 H 738.558 -0.272422 5.02262 0
M  V30 7675 H 738.258 1.33853 5.72151 0
M  V30 7676 H 739.782 0.48074 6.08705 0
M  V30 7677 H 741.196 2.5442 5.13754 0
M  V30 7678 H 739.593 3.32282 4.99709 0
M  V30 7679 H 740.663 3.26537 3.58471 0
M  V30 7680 N 742.006 -1.2595 0.947325 0
M  V30 7681 C 742.953 -2.26159 0.460497 0
M  V30 7682 C 743.923 -1.58919 -0.483125 0
M  V30 7683 O 745.108 -1.86603 -0.397983 0
M  V30 7684 C 742.248 -3.441 -0.26247 0
M  V30 7685 C 741.361 -4.25999 0.717539 0
M  V30 7686 C 740.496 -5.31193 -0.0272486 0
M  V30 7687 C 739.535 -6.04774 0.944177 0
M  V30 7688 N 738.672 -7.01721 0.230741 0
M  V30 7689 H 743.512 -2.67173 1.31995 0
M  V30 7690 H 741.049 -1.31358 0.662088 0
M  V30 7691 H 743.007 -4.11317 -0.698137 0
M  V30 7692 H 741.637 -3.03983 -1.08602 0
M  V30 7693 H 740.689 -3.58513 1.27171 0
M  V30 7694 H 742.001 -4.76981 1.45913 0
M  V30 7695 H 741.155 -6.04451 -0.521903 0
M  V30 7696 H 739.894 -4.81066 -0.801682 0
M  V30 7697 H 738.899 -5.30338 1.4499 0
M  V30 7698 H 740.124 -6.56991 1.71872 0
M  V30 7699 H 738.07 -6.53895 -0.525088 0
M  V30 7700 H 737.987 -7.50484 0.911556 0
M  V30 7701 H 739.255 -7.79122 -0.242616 0
M  V30 7702 N 743.484 -0.715051 -1.40445 0
M  V30 7703 C 744.447 -0.0708726 -2.2909 0
M  V30 7704 C 745.447 0.687926 -1.45342 0
M  V30 7705 O 746.637 0.519908 -1.66261 0
M  V30 7706 C 743.769 0.909528 -3.28543 0
M  V30 7707 H 744.962 -0.851611 -2.87555 0
M  V30 7708 H 742.515 -0.479674 -1.48758 0
M  V30 7709 H 743.25 1.71734 -2.75096 0
M  V30 7710 H 743.035 0.368318 -3.90366 0
M  V30 7711 H 744.525 1.35744 -3.94922 0
M  V30 7712 N 744.962 1.50701 -0.461195 0
M  V30 7713 C 745.909 2.2831 0.338094 0
M  V30 7714 C 746.879 1.32928 0.995957 0
M  V30 7715 O 748.064 1.61857 1.0103 0
M  V30 7716 C 745.204 3.14539 1.41983 0
M  V30 7717 C 744.317 4.24942 0.77773 0
M  V30 7718 C 743.452 4.98443 1.83652 0
M  V30 7719 C 742.491 6.00733 1.17413 0
M  V30 7720 N 741.628 6.6755 2.17533 0
M  V30 7721 H 746.468 2.96167 -0.330051 0
M  V30 7722 H 744.005 1.4606 -0.174611 0
M  V30 7723 H 745.963 3.62877 2.05855 0
M  V30 7724 H 744.593 2.48749 2.05727 0
M  V30 7725 H 743.645 3.80391 0.0266924 0
M  V30 7726 H 744.957 4.98151 0.254362 0
M  V30 7727 H 744.111 5.50449 2.55129 0
M  V30 7728 H 742.85 4.24917 2.39367 0
M  V30 7729 H 741.855 5.47997 0.444944 0
M  V30 7730 H 743.08 6.76227 0.624006 0
M  V30 7731 H 741.026 5.96823 2.72284 0
M  V30 7732 H 740.943 7.36603 1.70154 0
M  V30 7733 H 742.211 7.24178 2.88421 0
M  V30 7734 N 746.441 0.193421 1.56409 0
M  V30 7735 C 747.718 -0.493318 1.89277 0
M  V30 7736 C 748.098 -1.79765 1.10669 0
M  V30 7737 O 747.446 -2.27558 0.207274 0
M  V30 7738 C 747.656 -0.713732 3.41624 0
M  V30 7739 C 749.004 -1.03385 4.11821 0
M  V30 7740 O 750.028 -0.801511 3.47065 0
M  V30 7741 O 748.887 -1.47327 5.26267 0
M  V30 7742 H 745.981 -0.256973 0.786062 0
M  V30 7743 H 748.527 0.23351 1.68086 0
M  V30 7744 H 747.299 0.207446 3.9075 0
M  V30 7745 H 746.922 -1.49308 3.68501 0
M  V30 7746 N 747.919 -1.57396 -0.0801906 0
M  V30 7747 C 749.165 -1.87979 -0.776884 0
M  V30 7748 C 749.52 -0.786098 -1.75608 0
M  V30 7749 O 748.813 0.210541 -1.9044 0
M  V30 7750 C 749.007 -3.22915 -1.53169 0
M  V30 7751 C 748.836 -4.45306 -0.627099 0
M  V30 7752 C 747.606 -5.04593 -0.267201 0
M  V30 7753 C 749.804 -5.14249 0.0724916 0
M  V30 7754 N 747.786 -6.10513 0.643995 0
M  V30 7755 C 749.157 -6.14267 0.841191 0
M  V30 7756 C 751.212 -4.97689 0.144847 0
M  V30 7757 C 749.915 -6.99514 1.67551 0
M  V30 7758 C 751.941 -5.83455 0.966112 0
M  V30 7759 C 751.303 -6.83005 1.72288 0
M  V30 7760 H 747.402 -0.737519 -0.259979 0
M  V30 7761 H 749.986 -1.94661 -0.0387512 0
M  V30 7762 H 748.157 -3.17256 -2.2406 0
M  V30 7763 H 749.889 -3.41174 -2.17675 0
M  V30 7764 H 746.644 -4.69548 -0.618194 0
M  V30 7765 H 747.068 -6.68125 1.09259 0
M  V30 7766 H 751.71 -4.20649 -0.4259 0
M  V30 7767 H 749.428 -7.75934 2.25726 0
M  V30 7768 H 753.014 -5.727 1.02497 0
M  V30 7769 H 751.894 -7.48219 2.34813 0
M  V30 7770 N 749.397 0.351382 -1.53633 0
M  V30 7771 C 750.645 1.09034 -1.70165 0
M  V30 7772 C 750.966 1.89413 -0.463422 0
M  V30 7773 O 750.236 1.888 0.522624 0
M  V30 7774 H 748.816 0.405522 -0.627344 0
M  V30 7775 H 751.478 0.394554 -1.90865 0
M  V30 7776 H 750.574 1.77215 -2.56907 0
M  V30 7777 N 750.875 1.45233 0.611969 0
M  V30 7778 C 752.1 1.52767 1.40274 0
M  V30 7779 C 752.525 0.159701 1.87421 0
M  V30 7780 O 751.883 -0.854837 1.59882 0
M  V30 7781 C 751.931 2.51286 2.58626 0
M  V30 7782 O 751.035 2.02764 3.59111 0
M  V30 7783 H 750.376 0.515141 0.418958 0
M  V30 7784 H 752.906 1.90547 0.745188 0
M  V30 7785 H 752.916 2.69949 3.05927 0
M  V30 7786 H 751.591 3.50641 2.23659 0
M  V30 7787 H 750.168 1.93957 3.18489 0
M  V30 7788 N 752.353 -0.854086 1.3245 0
M  V30 7789 C 753.578 -1.64597 1.26185 0
M  V30 7790 C 754.003 -1.87357 -0.167074 0
M  V30 7791 O 753.361 -1.42675 -1.11864 0
M  V30 7792 C 753.409 -2.98213 2.02734 0
M  V30 7793 O 752.513 -3.88784 1.37554 0
M  V30 7794 H 751.854 -0.50179 0.434859 0
M  V30 7795 H 754.384 -1.06372 1.74775 0
M  V30 7796 H 754.394 -3.4803 2.1293 0
M  V30 7797 H 753.069 -2.80969 3.06642 0
M  V30 7798 H 751.646 -3.4725 1.3591 0
M  V30 7799 N 753.831 -1.1567 -1.07043 0
M  V30 7800 C 755.056 -0.957946 -1.83952 0
M  V30 7801 C 755.481 0.488807 -1.81638 0
M  V30 7802 O 754.839 1.34869 -1.21162 0
M  V30 7803 C 754.887 -1.48064 -3.288 0
M  V30 7804 O 753.991 -0.681921 -4.06723 0
M  V30 7805 H 753.332 -0.341453 -0.569479 0
M  V30 7806 H 755.862 -1.53728 -1.35015 0
M  V30 7807 H 755.872 -1.49484 -3.7963 0
M  V30 7808 H 754.547 -2.53388 -3.29799 0
M  V30 7809 H 753.124 -0.737612 -3.65532 0
M  V30 7810 N 755.309 1.25446 -0.953992 0
M  V30 7811 C 756.557 1.92762 -0.607227 0
M  V30 7812 C 756.878 1.7509 0.858399 0
M  V30 7813 O 756.148 1.11416 1.61132 0
M  V30 7814 H 754.728 0.713377 -0.221591 0
M  V30 7815 H 757.39 1.52625 -1.21209 0
M  V30 7816 H 756.486 3.00695 -0.835998 0
M  V30 7817 N 756.787 0.722489 1.40064 0
M  V30 7818 C 758.012 0.273446 2.05589 0
M  V30 7819 C 758.437 -1.07875 1.54093 0
M  V30 7820 O 757.795 -1.68095 0.679252 0
M  V30 7821 C 757.843 0.271023 3.5958 0
M  V30 7822 O 756.947 -0.745499 4.05606 0
M  V30 7823 H 756.288 0.126856 0.65177 0
M  V30 7824 H 758.818 0.984906 1.79334 0
M  V30 7825 H 758.828 0.111084 4.07849 0
M  V30 7826 H 757.503 1.25776 3.96425 0
M  V30 7827 H 756.08 -0.552719 3.68781 0
M  V30 7828 N 758.265 -1.50454 0.469181 0
M  V30 7829 C 759.197 -2.26319 -0.362247 0
M  V30 7830 C 760.21 -1.31574 -0.958751 0
M  V30 7831 O 761.399 -1.57099 -0.847482 0
M  V30 7832 C 758.499 -3.02808 -1.52187 0
M  V30 7833 C 757.672 -4.24893 -1.03849 0
M  V30 7834 C 756.731 -4.83691 -2.07194 0
M  V30 7835 O 755.757 -5.44659 -1.65333 0
M  V30 7836 N 756.959 -4.70522 -3.39985 0
M  V30 7837 H 759.724 -2.98312 0.288124 0
M  V30 7838 H 757.285 -1.59099 0.299856 0
M  V30 7839 H 759.277 -3.39023 -2.21011 0
M  V30 7840 H 757.847 -2.33625 -2.07697 0
M  V30 7841 H 757.067 -3.93806 -0.176203 0
M  V30 7842 H 758.355 -5.04053 -0.693435 0
M  V30 7843 H 757.753 -4.2203 -3.76706 0
M  V30 7844 H 756.31 -5.11011 -4.04612 0
M  V30 7845 N 759.743 -0.201713 -1.56304 0
M  V30 7846 C 760.991 0.434447 -1.97375 0
M  V30 7847 C 761.312 1.61692 -1.08998 0
M  V30 7848 O 760.582 1.95223 -0.162682 0
M  V30 7849 H 759.162 0.163497 -0.728888 0
M  V30 7850 H 761.824 -0.289988 -1.92731 0
M  V30 7851 H 760.92 0.774136 -3.02347 0
M  V30 7852 N 761.222 1.57436 0.0718424 0
M  V30 7853 C 762.638 1.53792 0.426628 0
M  V30 7854 C 762.838 0.921887 1.79174 0
M  V30 7855 O 761.894 0.524374 2.46995 0
M  V30 7856 C 763.207 2.98443 0.367739 0
M  V30 7857 C 764.755 3.09778 0.447928 0
M  V30 7858 C 765.23 4.5608 0.418946 0
M  V30 7859 N 766.721 4.60716 0.479022 0
M  V30 7860 C 767.456 5.71397 0.47881 0
M  V30 7861 N 766.952 6.91443 0.433417 0
M  V30 7862 N 768.745 5.59639 0.525364 0
M  V30 7863 H 760.896 1.95848 -0.822033 0
M  V30 7864 H 763.159 0.896418 -0.308447 0
M  V30 7865 H 762.865 3.47072 -0.56865 0
M  V30 7866 H 762.739 3.58335 1.17795 0
M  V30 7867 H 765.126 2.61122 1.37474 0
M  V30 7868 H 765.207 2.52796 -0.390857 0
M  V30 7869 H 764.851 5.05393 -0.504016 0
M  V30 7870 H 764.781 5.10925 1.27526 0
M  V30 7871 H 767.272 3.74328 0.518355 0
M  V30 7872 H 767.585 7.71562 0.43718 0
M  V30 7873 H 765.93 6.93847 0.400106 0
M  V30 7874 H 769.121 4.64756 0.558519 0
M  V30 7875 H 769.294 6.45896 0.52173 0
M  V30 7876 N 762.7 -0.34323 1.53817 0
M  V30 7877 C 763.61 -1.44493 1.84821 0
M  V30 7878 C 764.626 -1.57556 0.738381 0
M  V30 7879 O 765.802 -1.73026 1.03072 0
M  V30 7880 C 762.867 -2.79478 2.05166 0
M  V30 7881 C 761.928 -2.75756 3.29025 0
M  V30 7882 C 761.161 -4.04302 3.4839 0
M  V30 7883 O 761.384 -5.01595 2.71586 0
M  V30 7884 O 760.318 -4.08754 4.41819 0
M  V30 7885 H 764.144 -1.21209 2.78464 0
M  V30 7886 H 761.729 -0.535437 1.39476 0
M  V30 7887 H 763.611 -3.59419 2.19991 0
M  V30 7888 H 762.286 -3.02692 1.14713 0
M  V30 7889 H 761.193 -1.94434 3.19603 0
M  V30 7890 H 762.526 -2.57495 4.19472 0
M  V30 7891 N 764.178 -1.45556 -0.604258 0
M  V30 7892 C 765.455 -1.40221 -1.36373 0
M  V30 7893 C 765.835 -0.0745195 -2.10968 0
M  V30 7894 O 765.183 0.943594 -2.08107 0
M  V30 7895 C 765.393 -2.61807 -2.30777 0
M  V30 7896 C 766.741 -3.07037 -2.93281 0
M  V30 7897 O 767.765 -2.62203 -2.41097 0
M  V30 7898 O 766.624 -3.8485 -3.88011 0
M  V30 7899 H 763.718 -0.556602 -0.611656 0
M  V30 7900 H 766.264 -1.57689 -0.627069 0
M  V30 7901 H 765.036 -3.50017 -1.74939 0
M  V30 7902 H 764.659 -2.46688 -3.11818 0
M  V30 7903 N 765.656 0.84705 -1.32902 0
M  V30 7904 C 766.881 1.63925 -1.27056 0
M  V30 7905 C 767.306 1.87443 0.157136 0
M  V30 7906 O 766.664 1.43266 1.11106 0
M  V30 7907 C 766.712 2.97134 -2.04313 0
M  V30 7908 O 765.816 3.88049 -1.39614 0
M  V30 7909 H 765.157 0.499477 -0.437514 0
M  V30 7910 H 767.687 1.05443 -1.75336 0
M  V30 7911 H 767.697 3.46896 -2.14772 0
M  V30 7912 H 766.372 2.79339 -3.08128 0
M  V30 7913 H 764.949 3.46525 -1.3775 0
M  V30 7914 N 767.134 1.16236 1.06428 0
M  V30 7915 C 768.38 0.944431 1.79467 0
M  V30 7916 C 768.713 -0.526558 1.86925 0
M  V30 7917 O 767.988 -1.39061 1.35986 0
M  V30 7918 C 768.271 1.57092 3.24028 0
M  V30 7919 C 768.124 3.11315 3.24658 0
M  V30 7920 C 769.443 1.26447 4.21544 0
M  V30 7921 H 766.562 0.344521 0.651517 0
M  V30 7922 H 769.204 1.43545 1.24478 0
M  V30 7923 H 767.354 1.15337 3.70985 0
M  V30 7924 H 769.026 3.62042 2.85873 0
M  V30 7925 H 767.269 3.44716 2.6335 0
M  V30 7926 H 767.94 3.50269 4.26633 0
M  V30 7927 H 770.416 1.62581 3.83023 0
M  V30 7928 H 769.292 1.72885 5.20963 0
M  V30 7929 H 769.553 0.183068 4.41721 0
M  V30 7930 N 768.612 -1.24939 0.960631 0
M  V30 7931 C 769.542 -2.28 0.503815 0
M  V30 7932 C 770.523 -1.63959 -0.452928 0
M  V30 7933 O 771.708 -1.91009 -0.350585 0
M  V30 7934 C 768.838 -3.46643 -0.213535 0
M  V30 7935 C 767.792 -4.22903 0.658535 0
M  V30 7936 C 767.118 -5.34363 -0.189902 0
M  V30 7937 C 768.418 -4.84949 1.93963 0
M  V30 7938 H 770.112 -2.66462 1.36521 0
M  V30 7939 H 767.658 -1.28093 0.657897 0
M  V30 7940 H 769.611 -4.1787 -0.544286 0
M  V30 7941 H 768.335 -3.07187 -1.10923 0
M  V30 7942 H 766.994 -3.53467 0.972455 0
M  V30 7943 H 766.642 -4.91147 -1.08553 0
M  V30 7944 H 766.342 -5.86302 0.390331 0
M  V30 7945 H 767.866 -6.0842 -0.515484 0
M  V30 7946 H 769.28 -5.48288 1.67491 0
M  V30 7947 H 767.677 -5.47091 2.46601 0
M  V30 7948 H 768.747 -4.06799 2.639 0
M  V30 7949 N 770.09 -0.729906 -1.39679 0
M  V30 7950 C 771.315 -0.284345 -2.05442 0
M  V30 7951 C 771.74 1.07056 -1.54663 0
M  V30 7952 O 771.098 1.67732 -0.688157 0
M  V30 7953 C 771.146 -0.290089 -3.59431 0
M  V30 7954 O 770.25 0.723978 -4.05995 0
M  V30 7955 H 769.591 -0.130311 -0.651088 0
M  V30 7956 H 772.121 -0.994403 -1.78809 0
M  V30 7957 H 772.131 -0.132712 -4.07784 0
M  V30 7958 H 770.806 -1.27877 -3.95753 0
M  V30 7959 H 769.383 0.533154 -3.69069 0
M  V30 7960 N 771.568 1.50203 -0.477153 0
M  V30 7961 C 772.798 2.0647 0.0731427 0
M  V30 7962 C 773.206 1.3405 1.33518 0
M  V30 7963 O 772.549 0.405164 1.79176 0
M  V30 7964 C 772.611 3.57025 0.421121 0
M  V30 7965 C 772.275 4.50973 -0.739765 0
M  V30 7966 C 773.272 4.939 -1.62353 0
M  V30 7967 C 770.957 4.93581 -0.93181 0
M  V30 7968 C 772.951 5.78149 -2.6837 0
M  V30 7969 C 770.638 5.77612 -1.99519 0
M  V30 7970 C 771.636 6.19798 -2.86949 0
M  V30 7971 O 771.324 7.02152 -3.91456 0
M  V30 7972 H 771.056 0.675969 -0.00648243 0
M  V30 7973 H 773.61 1.94278 -0.66673 0
M  V30 7974 H 771.84 3.67141 1.21426 0
M  V30 7975 H 773.529 3.95632 0.907213 0
M  V30 7976 H 774.295 4.61646 -1.48687 0
M  V30 7977 H 770.174 4.60262 -0.260739 0
M  V30 7978 H 773.718 6.10997 -3.36643 0
M  V30 7979 H 769.615 6.09279 -2.13189 0
M  V30 7980 H 770.383 7.20414 -3.88518 0
M  V30 7981 N 773.046 0.209999 1.56195 0
M  V30 7982 C 773.956 -0.716459 2.23392 0
M  V30 7983 C 774.972 -1.22291 1.23778 0
M  V30 7984 O 776.148 -1.26694 1.56558 0
M  V30 7985 C 773.213 -1.91261 2.89172 0
M  V30 7986 C 772.274 -1.44927 4.04097 0
M  V30 7987 C 771.507 -2.5884 4.66731 0
M  V30 7988 O 771.73 -3.76693 4.2832 0
M  V30 7989 O 770.664 -2.30701 5.55932 0
M  V30 7990 H 774.49 -0.174089 3.03201 0
M  V30 7991 H 772.075 -0.0199505 1.49387 0
M  V30 7992 H 773.957 -2.6114 3.30733 0
M  V30 7993 H 772.632 -2.4433 2.12331 0
M  V30 7994 H 771.539 -0.718839 3.67129 0
M  V30 7995 H 772.872 -0.965084 4.82646 0
M  V30 7996 N 774.524 -1.57472 -0.0634922 0
M  V30 7997 C 775.752 -1.91887 -0.773767 0
M  V30 7998 C 776.167 -0.806733 -1.70696 0
M  V30 7999 O 775.524 0.219383 -1.81177 0
M  V30 8000 C 775.575 -3.26092 -1.56034 0
M  V30 8001 O 775.296 -4.33029 -0.66464 0
M  V30 8002 C 776.797 -3.74573 -2.37087 0
M  V30 8003 H 774.017 -0.634074 -0.219525 0
M  V30 8004 H 776.561 -2.04476 -0.0312828 0
M  V30 8005 H 774.716 -3.15004 -2.25502 0
M  V30 8006 H 775.13 -5.10291 -1.21258 0
M  V30 8007 H 776.604 -4.71084 -2.87722 0
M  V30 8008 H 777.081 -3.04003 -3.16984 0
M  V30 8009 H 777.687 -3.88631 -1.72759 0
M  V30 8010 N 776.003 0.335068 -1.53997 0
M  V30 8011 C 777.249 1.07594 -1.71905 0
M  V30 8012 C 777.582 1.88039 -0.485264 0
M  V30 8013 O 776.857 1.87482 0.517752 0
M  V30 8014 C 777.14 2.01016 -2.98772 0
M  V30 8015 C 776.993 1.23977 -4.32377 0
M  V30 8016 C 778.312 3.0071 -3.21343 0
M  V30 8017 H 775.431 0.38976 -0.625505 0
M  V30 8018 H 778.073 0.353684 -1.86679 0
M  V30 8019 H 776.223 2.62603 -2.86307 0
M  V30 8020 H 777.895 0.649383 -4.56706 0
M  V30 8021 H 776.138 0.541878 -4.30402 0
M  V30 8022 H 776.809 1.92512 -5.17342 0
M  V30 8023 H 779.285 2.4924 -3.33194 0
M  V30 8024 H 778.161 3.63272 -4.11491 0
M  V30 8025 H 778.422 3.72549 -2.38033 0
M  V30 8026 N 777.481 1.45874 0.596531 0
M  V30 8027 C 778.709 1.54013 1.38158 0
M  V30 8028 C 779.124 0.17648 1.87973 0
M  V30 8029 O 778.481 -0.823895 1.62844 0
M  V30 8030 C 778.532 2.53363 2.57855 0
M  V30 8031 O 778.253 3.8443 2.10108 0
M  V30 8032 C 779.754 2.71308 3.50581 0
M  V30 8033 H 776.974 0.521251 0.422538 0
M  V30 8034 H 779.518 1.9116 0.726493 0
M  V30 8035 H 777.673 2.19257 3.19382 0
M  V30 8036 H 778.087 4.38384 2.87958 0
M  V30 8037 H 779.561 3.44776 4.31084 0
M  V30 8038 H 780.038 1.77728 4.01633 0
M  V30 8039 H 780.644 3.06455 2.94899 0
M  V30 8040 N 778.959 -0.83999 1.33349 0
M  V30 8041 C 779.891 -1.95678 1.19344 0
M  V30 8042 C 780.904 -1.62322 0.124692 0
M  V30 8043 O 782.093 -1.74516 0.375012 0
M  V30 8044 C 779.193 -3.29133 0.807771 0
M  V30 8045 C 778.366 -3.9063 1.96792 0
M  V30 8046 C 777.425 -5.02438 1.56341 0
M  V30 8047 O 776.451 -5.21646 2.27759 0
M  V30 8048 N 777.653 -5.78612 0.467767 0
M  V30 8049 H 780.418 -2.08229 2.15548 0
M  V30 8050 H 777.979 -1.01566 1.26079 0
M  V30 8051 H 779.971 -4.01355 0.519282 0
M  V30 8052 H 778.541 -3.12535 -0.063555 0
M  V30 8053 H 777.761 -3.11011 2.4221 0
M  V30 8054 H 779.049 -4.2845 2.74422 0
M  V30 8055 H 778.447 -5.65559 -0.126324 0
M  V30 8056 H 777.004 -6.51362 0.238945 0
M  V30 8057 N 780.437 -1.16799 -1.0581 0
M  V30 8058 C 781.37 -0.822491 -2.12862 0
M  V30 8059 C 782.348 0.208006 -1.61264 0
M  V30 8060 O 783.532 0.0909652 -1.8828 0
M  V30 8061 C 780.659 -0.225826 -3.37946 0
M  V30 8062 C 779.705 -1.23071 -4.08357 0
M  V30 8063 S 780.538 -2.77944 -4.5772 0
M  V30 8064 C 781.694 -2.19741 -5.86059 0
M  V30 8065 H 781.927 -1.72917 -2.41841 0
M  V30 8066 H 779.46 -0.991982 -1.18318 0
M  V30 8067 H 781.418 0.111955 -4.10347 0
M  V30 8068 H 780.079 0.658692 -3.07116 0
M  V30 8069 H 779.272 -0.761758 -4.9821 0
M  V30 8070 H 778.874 -1.51383 -3.41993 0
M  V30 8071 H 781.166 -1.5691 -6.59079 0
M  V30 8072 H 782.109 -3.07823 -6.37692 0
M  V30 8073 H 782.517 -1.63433 -5.40324 0
M  V30 8074 N 781.915 1.24427 -0.967243 0
M  V30 8075 C 782.825 2.29109 -0.504592 0
M  V30 8076 C 783.841 1.68495 0.434224 0
M  V30 8077 O 785.017 1.99041 0.307379 0
M  V30 8078 C 782.082 3.46133 0.198273 0
M  V30 8079 C 781.143 4.22149 -0.780313 0
M  V30 8080 C 780.376 5.33585 -0.110896 0
M  V30 8081 O 780.599 5.59676 1.10088 0
M  V30 8082 O 779.533 5.96522 -0.802823 0
M  V30 8083 H 783.359 2.708 -1.37482 0
M  V30 8084 H 780.944 1.30111 -0.73426 0
M  V30 8085 H 782.826 4.17205 0.593124 0
M  V30 8086 H 781.501 3.0642 1.04347 0
M  V30 8087 H 780.408 3.53454 -1.22561 0
M  V30 8088 H 781.741 4.65677 -1.59392 0
M  V30 8089 N 783.393 0.737304 1.3929 0
M  V30 8090 C 784.639 0.286681 2.00763 0
M  V30 8091 C 784.972 -1.12388 1.58375 0
M  V30 8092 O 784.247 -1.76661 0.813699 0
M  V30 8093 C 784.53 0.391147 3.57969 0
M  V30 8094 C 784.383 1.84165 4.1037 0
M  V30 8095 C 785.702 -0.225072 4.39524 0
M  V30 8096 H 782.821 0.105642 0.729389 0
M  V30 8097 H 785.463 0.933892 1.65464 0
M  V30 8098 H 783.613 -0.159875 3.88171 0
M  V30 8099 H 785.285 2.44972 3.90879 0
M  V30 8100 H 783.528 2.3622 3.63844 0
M  V30 8101 H 784.199 1.866 5.19504 0
M  V30 8102 H 786.675 0.244677 4.1538 0
M  V30 8103 H 785.551 -0.121646 5.48765 0
M  V30 8104 H 785.812 -1.31141 4.22202 0
M  V30 8105 N 784.871 -1.49948 0.485112 0
M  V30 8106 C 785.821 -2.25734 -0.320658 0
M  V30 8107 C 786.805 -1.29907 -0.949373 0
M  V30 8108 O 787.997 -1.54725 -0.859601 0
M  V30 8109 C 785.126 -3.13728 -1.39391 0
M  V30 8110 C 784.212 -4.1701 -0.772225 0
M  V30 8111 N 784.603 -5.05667 0.115782 0
M  V30 8112 C 782.901 -4.33834 -1.03461 0
M  V30 8113 C 783.602 -5.79798 0.47004 0
M  V30 8114 N 782.578 -5.4337 -0.158204 0
M  V30 8115 H 786.38 -2.91647 0.36319 0
M  V30 8116 H 783.894 -1.59602 0.300154 0
M  V30 8117 H 785.891 -3.66639 -1.98447 0
M  V30 8118 H 784.551 -2.49365 -2.0796 0
M  V30 8119 H 785.562 -5.15619 0.485557 0
M  V30 8120 H 782.239 -3.80684 -1.71424 0
M  V30 8121 H 783.629 -6.61177 1.19558 0
M  V30 8122 N 786.349 -0.21828 -1.56081 0
M  V30 8123 C 787.579 0.41865 -2.02314 0
M  V30 8124 C 787.987 1.54124 -1.09739 0
M  V30 8125 O 787.33 1.83435 -0.0986829 0
M  V30 8126 C 787.392 1.01439 -3.44892 0
M  V30 8127 C 787.056 0.0276523 -4.56992 0
M  V30 8128 C 788.053 -0.771526 -5.14143 0
M  V30 8129 C 785.738 -0.0901537 -5.02219 0
M  V30 8130 C 787.732 -1.67525 -6.14991 0
M  V30 8131 C 785.419 -0.997411 -6.02905 0
M  V30 8132 C 786.417 -1.78851 -6.59167 0
M  V30 8133 O 786.105 -2.68052 -7.57894 0
M  V30 8134 H 785.837 0.107066 -0.667468 0
M  V30 8135 H 788.391 -0.331191 -2.02712 0
M  V30 8136 H 786.621 1.81326 -3.41552 0
M  V30 8137 H 788.31 1.55838 -3.74792 0
M  V30 8138 H 789.076 -0.690945 -4.80053 0
M  V30 8139 H 784.955 0.515474 -4.58109 0
M  V30 8140 H 788.499 -2.29316 -6.58832 0
M  V30 8141 H 784.396 -1.07902 -6.36418 0
M  V30 8142 H 785.164 -2.6209 -7.75404 0
M  V30 8143 N 787.827 1.57504 0.0551401 0
M  V30 8144 C 788.79 2.03826 1.04821 0
M  V30 8145 C 789.79 0.937968 1.30609 0
M  V30 8146 O 790.98 1.20237 1.2605 0
M  V30 8147 C 788.112 2.43309 2.38775 0
M  V30 8148 H 789.305 2.92802 0.6486 0
M  V30 8149 H 786.858 1.53368 0.301315 0
M  V30 8150 H 787.593 1.5741 2.83536 0
M  V30 8151 H 787.378 3.23615 2.21395 0
M  V30 8152 H 788.868 2.79666 3.10124 0
M  V30 8153 N 789.305 -0.326896 1.54172 0
M  V30 8154 C 790.721 -0.671034 1.44808 0
M  V30 8155 C 790.921 -1.91781 0.618258 0
M  V30 8156 O 789.977 -2.52235 0.115751 0
M  V30 8157 C 791.29 -0.848147 2.88491 0
M  V30 8158 C 792.838 -0.945702 2.98371 0
M  V30 8159 C 793.313 -1.15501 4.43197 0
M  V30 8160 N 794.804 -1.22183 4.46795 0
M  V30 8161 C 795.539 -1.4016 5.56006 0
M  V30 8162 N 795.035 -1.55202 6.75192 0
M  V30 8163 N 796.828 -1.42841 5.43648 0
M  V30 8164 H 788.979 0.49262 2.06608 0
M  V30 8165 H 791.242 0.158574 0.934643 0
M  V30 8166 H 790.948 -0.00329969 3.517 0
M  V30 8167 H 790.822 -1.74497 3.34411 0
M  V30 8168 H 793.209 -1.78106 2.35292 0
M  V30 8169 H 793.29 -0.0254215 2.55787 0
M  V30 8170 H 792.934 -0.324521 5.06862 0
M  V30 8171 H 792.864 -2.08911 4.83388 0
M  V30 8172 H 795.355 -1.12016 3.60917 0
M  V30 8173 H 795.668 -1.68601 7.54184 0
M  V30 8174 H 794.013 -1.52306 6.78106 0
M  V30 8175 H 797.204 -1.30683 4.49488 0
M  V30 8176 H 797.377 -1.56509 6.28816 0
M  V30 8177 N 790.784 -1.46188 -0.588786 0
M  V30 8178 C 792.195 -1.45421 -1.17088 0
M  V30 8179 C 792.546 -0.191801 -1.9526 0
M  V30 8180 O 791.671 0.705497 -2.04577 0
M  V30 8181 C 792.266 -2.63467 -2.13004 0
M  V30 8182 C 790.825 -2.6576 -2.6655 0
M  V30 8183 C 789.972 -2.38002 -1.42304 0
M  V30 8184 H 792.923 -1.54156 -0.377052 0
M  V30 8185 H 792.944 -2.38638 -2.96365 0
M  V30 8186 H 792.456 -3.55331 -1.56081 0
M  V30 8187 H 790.557 -1.77952 -3.27359 0
M  V30 8188 H 790.67 -3.65545 -3.09699 0
M  V30 8189 H 789.034 -1.87936 -1.71907 0
M  V30 8190 H 789.817 -3.32035 -0.872209 0
M  V30 8191 N 792.262 0.832906 -1.33792 0
M  V30 8192 C 793.511 1.58351 -1.24932 0
M  V30 8193 C 793.824 1.94754 0.181703 0
M  V30 8194 O 795.03 2.6865 0.392375 0
M  V30 8195 C 793.486 2.85643 -2.18943 0
M  V30 8196 C 793.094 2.56581 -3.67247 0
M  V30 8197 C 794.838 3.63667 -2.18968 0
M  V30 8198 C 792.745 3.80006 -4.53155 0
M  V30 8199 H 791.675 0.594278 -0.464058 0
M  V30 8200 H 794.326 0.91786 -1.58895 0
M  V30 8201 H 792.708 3.53781 -1.77919 0
M  V30 8202 H 793.882 1.96617 -4.16747 0
M  V30 8203 H 792.197 1.91851 -3.6957 0
M  V30 8204 H 794.794 4.55293 -2.80379 0
M  V30 8205 H 795.137 3.99039 -1.18631 0
M  V30 8206 H 795.67 3.0246 -2.58384 0
M  V30 8207 H 792.409 3.4976 -5.5439 0
M  V30 8208 H 791.929 4.39288 -4.08395 0
M  V30 8209 H 793.608 4.47523 -4.6726 0
M  V30 8210 N 793.74 1.17359 1.05189 0
M  V30 8211 C 794.989 0.956412 1.77583 0
M  V30 8212 C 795.302 -0.516018 1.88671 0
M  V30 8213 O 796.508 -0.851401 2.57805 0
M  V30 8214 C 794.964 1.66203 3.19225 0
M  V30 8215 C 794.572 3.17299 3.16267 0
M  V30 8216 C 796.316 1.52725 3.96075 0
M  V30 8217 C 794.223 3.8055 4.52698 0
M  V30 8218 H 793.153 0.354204 0.665624 0
M  V30 8219 H 795.804 1.40612 1.17901 0
M  V30 8220 H 794.186 1.14006 3.79234 0
M  V30 8221 H 795.36 3.76431 2.65776 0
M  V30 8222 H 793.675 3.3079 2.52917 0
M  V30 8223 H 796.272 1.97351 4.96947 0
M  V30 8224 H 796.615 0.477803 4.13549 0
M  V30 8225 H 797.148 2.02139 3.42614 0
M  V30 8226 H 793.887 4.85492 4.4043 0
M  V30 8227 H 793.407 3.26206 5.03339 0
M  V30 8228 H 795.086 3.82757 5.21638 0
M  V30 8229 N 795.218 -1.23913 0.973828 0
M  V30 8230 C 796.467 -1.91455 0.63464 0
M  V30 8231 C 796.78 -1.76893 -0.834759 0
M  V30 8232 O 797.986 -2.3918 -1.28473 0
M  V30 8233 C 796.442 -3.43172 1.08447 0
M  V30 8234 C 796.05 -3.66409 2.57776 0
M  V30 8235 C 797.794 -4.1653 0.818721 0
M  V30 8236 C 795.701 -5.11728 2.9646 0
M  V30 8237 H 794.631 -0.716881 0.233661 0
M  V30 8238 H 797.282 -1.40457 1.18085 0
M  V30 8239 H 795.664 -3.93242 0.466524 0
M  V30 8240 H 796.838 -3.26913 3.24753 0
M  V30 8241 H 795.153 -3.06349 2.82027 0
M  V30 8242 H 797.75 -5.23603 1.08367 0
M  V30 8243 H 798.093 -4.15578 -0.245128 0
M  V30 8244 H 798.626 -3.72428 1.39793 0
M  V30 8245 H 795.365 -5.17806 4.01941 0
M  V30 8246 H 794.885 -5.52199 2.34172 0
M  V30 8247 H 796.564 -5.80009 2.86703 0
M  V30 8248 N 796.696 -0.74468 -1.38897 0
M  V30 8249 C 797.626 -0.126355 -2.33158 0
M  V30 8250 C 798.607 0.713517 -1.54412 0
M  V30 8251 O 799.792 0.656523 -1.82766 0
M  V30 8252 C 796.922 0.774375 -3.38557 0
M  V30 8253 C 795.876 0.0379214 -4.27983 0
M  V30 8254 C 795.202 1.05631 -5.24162 0
M  V30 8255 C 796.502 -1.12523 -5.10035 0
M  V30 8256 H 798.196 -0.913744 -2.85116 0
M  V30 8257 H 795.742 -0.440847 -1.37086 0
M  V30 8258 H 797.695 1.21655 -4.03458 0
M  V30 8259 H 796.419 1.59399 -2.85061 0
M  V30 8260 H 795.078 -0.384733 -3.64576 0
M  V30 8261 H 794.726 1.86975 -4.66958 0
M  V30 8262 H 794.426 0.568261 -5.84846 0
M  V30 8263 H 795.95 1.49799 -5.9194 0
M  V30 8264 H 797.364 -0.761037 -5.68226 0
M  V30 8265 H 795.761 -1.54355 -5.79909 0
M  V30 8266 H 796.831 -1.94237 -4.44297 0
M  V30 8267 N 798.174 1.49689 -0.493057 0
M  V30 8268 C 799.422 2.02027 0.0541642 0
M  V30 8269 C 799.743 1.37554 1.38217 0
M  V30 8270 O 799.013 0.528174 1.88646 0
M  V30 8271 H 797.593 0.746646 0.0230069 0
M  V30 8272 H 800.255 1.83795 -0.648489 0
M  V30 8273 H 799.351 3.11523 0.189652 0
M  V30 8274 N 799.652 0.226554 1.55963 0
M  V30 8275 C 801.063 -0.280381 1.84583 0
M  V30 8276 C 801.414 -1.59105 1.14804 0
M  V30 8277 O 800.539 -2.12297 0.419414 0
M  V30 8278 C 801.134 -0.515499 3.34855 0
M  V30 8279 C 799.693 -0.966733 3.63774 0
M  V30 8280 C 798.84 -0.0325753 2.77281 0
M  V30 8281 H 801.791 0.449626 1.52197 0
M  V30 8282 H 801.812 -1.36085 3.55332 0
M  V30 8283 H 801.324 0.438594 3.85614 0
M  V30 8284 H 799.425 -1.93401 3.18476 0
M  V30 8285 H 799.538 -0.837679 4.7172 0
M  V30 8286 H 797.902 -0.540279 2.48904 0
M  V30 8287 H 798.685 0.916524 3.30839 0
M  V30 8288 N 801.13 -1.57531 -0.0467866 0
M  V30 8289 C 802.358 -1.92696 -0.753371 0
M  V30 8290 C 802.773 -0.824792 -1.69831 0
M  V30 8291 O 802.13 0.200155 -1.81399 0
M  V30 8292 C 802.181 -3.27728 -1.52566 0
M  V30 8293 O 801.902 -4.3371 -0.618674 0
M  V30 8294 C 803.403 -3.77066 -2.33101 0
M  V30 8295 H 800.623 -0.636367 -0.212788 0
M  V30 8296 H 803.167 -2.04498 -0.00959361 0
M  V30 8297 H 801.322 -3.17378 -2.22148 0
M  V30 8298 H 801.736 -5.11548 -1.15839 0
M  V30 8299 H 803.21 -4.74109 -2.82709 0
M  V30 8300 H 803.687 -3.07348 -3.13741 0
M  V30 8301 H 804.293 -3.90442 -1.68628 0
M  V30 8302 N 802.608 0.318715 -1.54344 0
M  V30 8303 C 803.555 1.39242 -1.84066 0
M  V30 8304 C 804.525 1.51175 -0.688134 0
M  V30 8305 O 805.71 1.66318 -0.935039 0
M  V30 8306 C 802.85 2.75528 -2.07794 0
M  V30 8307 C 801.963 2.72187 -3.35467 0
M  V30 8308 C 801.098 4.00352 -3.4913 0
M  V30 8309 C 800.137 3.91338 -4.7066 0
M  V30 8310 N 799.274 5.11242 -4.81224 0
M  V30 8311 H 804.114 1.13196 -2.75664 0
M  V30 8312 H 801.651 0.547857 -1.36517 0
M  V30 8313 H 803.609 3.54763 -2.19543 0
M  V30 8314 H 802.239 2.99873 -1.19482 0
M  V30 8315 H 801.291 1.84917 -3.3243 0
M  V30 8316 H 802.603 2.61411 -4.24812 0
M  V30 8317 H 801.757 4.88019 -3.60448 0
M  V30 8318 H 800.496 4.1394 -2.57886 0
M  V30 8319 H 799.501 3.02055 -4.59394 0
M  V30 8320 H 800.726 3.7931 -5.63294 0
M  V30 8321 H 798.672 5.25327 -3.92897 0
M  V30 8322 H 798.589 5.0282 -5.64543 0
M  V30 8323 H 799.857 6.0061 -4.96879 0
M  V30 8324 N 804.086 1.46499 0.581025 0
M  V30 8325 C 805.363 1.42372 1.34125 0
M  V30 8326 C 805.743 0.108073 2.10823 0
M  V30 8327 O 805.091 -0.910366 2.09582 0
M  V30 8328 C 805.301 2.65445 2.26583 0
M  V30 8329 C 806.649 3.11664 2.88359 0
M  V30 8330 O 807.673 2.66006 2.36896 0
M  V30 8331 O 806.532 3.90974 3.81839 0
M  V30 8332 H 803.626 0.566262 0.602724 0
M  V30 8333 H 806.172 1.58667 0.601903 0
M  V30 8334 H 804.944 3.52756 1.69348 0
M  V30 8335 H 804.567 2.51618 3.07854 0
M  V30 8336 N 805.565 -0.825799 1.34232 0
M  V30 8337 C 806.981 -1.11848 1.13851 0
M  V30 8338 C 807.181 -2.01405 -0.0619031 0
M  V30 8339 O 806.237 -2.41465 -0.738287 0
M  V30 8340 C 807.55 -1.76797 2.43235 0
M  V30 8341 C 809.098 -1.89304 2.49265 0
M  V30 8342 C 809.573 -2.57669 3.78643 0
M  V30 8343 N 811.064 -2.65171 3.79788 0
M  V30 8344 C 811.799 -3.1879 4.76614 0
M  V30 8345 N 811.295 -3.72995 5.83821 0
M  V30 8346 N 813.088 -3.17164 4.64073 0
M  V30 8347 H 805.239 -0.230049 2.11151 0
M  V30 8348 H 807.502 -0.164609 0.9336 0
M  V30 8349 H 807.208 -1.18455 3.31152 0
M  V30 8350 H 807.082 -2.76693 2.56361 0
M  V30 8351 H 809.469 -2.46796 1.6179 0
M  V30 8352 H 809.55 -0.883191 2.4007 0
M  V30 8353 H 809.194 -2.00833 4.66507 0
M  V30 8354 H 809.124 -3.59152 3.8512 0
M  V30 8355 H 811.615 -2.26746 3.02315 0
M  V30 8356 H 811.928 -4.12151 6.53721 0
M  V30 8357 H 810.273 -3.71246 5.87538 0
M  V30 8358 H 813.464 -2.74082 3.79469 0
M  V30 8359 H 813.637 -3.58647 5.397 0
M  V30 8360 N 807.043 -1.17915 -1.04565 0
M  V30 8361 C 808.006 -0.903787 -2.10628 0
M  V30 8362 C 809.006 0.10873 -1.60432 0
M  V30 8363 O 810.196 -0.124152 -1.73757 0
M  V30 8364 C 807.328 -0.355017 -3.39046 0
M  V30 8365 H 808.521 -1.84425 -2.3649 0
M  V30 8366 H 806.074 -0.990477 -1.2091 0
M  V30 8367 H 806.809 0.592297 -3.18845 0
M  V30 8368 H 806.594 -1.08484 -3.76794 0
M  V30 8369 H 808.084 -0.180891 -4.17208 0
M  V30 8370 N 808.521 1.23394 -0.980386 0
M  V30 8371 C 809.469 2.26872 -0.513018 0
M  V30 8372 C 810.463 1.63853 0.429948 0
M  V30 8373 O 811.669 1.77417 0.303842 0
M  V30 8374 H 808.044 0.737398 -0.147473 0
M  V30 8375 H 810.015 2.63654 -1.39746 0
M  V30 8376 C 808.764 3.47289 0.168962 0
M  V30 8377 H 808.087 3.96033 -0.547546 0
M  V30 8378 H 809.527 4.21502 0.459616 0
M  V30 8379 C 807.986 3.06425 1.40019 0
M  V30 8380 O 808.516 3.14708 2.49643 0
M  V30 8381 N 806.722 2.61339 1.27084 0
M  V30 8382 H 806.269 2.54799 0.378872 0
M  V30 8383 H 806.227 2.34364 2.09573 0
M  V30 8384 N 809.999 0.752036 1.385 0
M  V30 8385 C 811.276 0.233075 1.94206 0
M  V30 8386 C 811.656 -1.26838 1.68746 0
M  V30 8387 O 811.004 -2.04214 1.02513 0
M  V30 8388 C 811.214 0.58509 3.44061 0
M  V30 8389 C 812.562 0.543871 4.21102 0
M  V30 8390 O 813.586 0.523291 3.52335 0
M  V30 8391 O 812.445 0.553436 5.4369 0
M  V30 8392 H 809.539 0.0483049 0.825588 0
M  V30 8393 H 812.085 0.832053 1.47902 0
M  V30 8394 H 810.857 1.62212 3.56094 0
M  V30 8395 H 810.48 -0.0419738 3.97578 0
M  V30 8396 N 811.477 -1.49425 0.500989 0
M  V30 8397 C 812.754 -1.9531 -0.106551 0
M  V30 8398 C 813.134 -1.44248 -1.54129 0
M  V30 8399 O 812.482 -0.656237 -2.18874 0
M  V30 8400 C 812.692 -3.48995 -0.0191972 0
M  V30 8401 C 814.04 -4.24161 -0.193129 0
M  V30 8402 O 815.064 -3.56075 -0.0943843 0
M  V30 8403 O 813.923 -5.45064 -0.395869 0
M  V30 8404 H 811.017 -0.82149 -0.0953068 0
M  V30 8405 H 813.563 -1.6007 0.563526 0
M  V30 8406 H 812.335 -3.78794 0.981353 0
M  V30 8407 H 811.958 -3.90852 -0.72942 0
M  V30 8408 N 812.955 -0.234822 -1.55841 0
M  V30 8409 C 813.885 0.664217 -2.23854 0
M  V30 8410 C 814.866 1.19076 -1.2147 0
M  V30 8411 O 816.051 1.23232 -1.50091 0
M  V30 8412 C 813.181 1.86666 -2.9287 0
M  V30 8413 C 812.135 1.47341 -4.01839 0
M  V30 8414 C 811.461 2.75571 -4.58219 0
M  V30 8415 C 812.761 0.653479 -5.18196 0
M  V30 8416 H 814.455 0.0971213 -2.99242 0
M  V30 8417 H 812.001 0.0452724 -1.43929 0
M  V30 8418 H 813.954 2.50116 -3.39146 0
M  V30 8419 H 812.678 2.45894 -2.1495 0
M  V30 8420 H 811.337 0.862314 -3.56314 0
M  V30 8421 H 810.985 3.32971 -3.77014 0
M  V30 8422 H 810.685 2.49987 -5.31771 0
M  V30 8423 H 812.209 3.39939 -5.07221 0
M  V30 8424 H 813.623 1.19198 -5.60771 0
M  V30 8425 H 812.02 0.494188 -5.98062 0
M  V30 8426 H 813.09 -0.337004 -4.83728 0
M  V30 8427 N 814.433 1.57553 0.0384317 0
M  V30 8428 C 815.363 2.0898 1.04161 0
M  V30 8429 C 816.344 0.99029 1.38301 0
M  V30 8430 O 817.529 1.26499 1.47349 0
M  V30 8431 C 814.659 2.56145 2.34536 0
M  V30 8432 C 813.613 3.70275 2.14663 0
M  V30 8433 C 812.939 4.03612 3.50715 0
M  V30 8434 C 814.239 4.99067 1.54045 0
M  V30 8435 H 815.933 2.93046 0.613548 0
M  V30 8436 H 813.479 1.40973 0.293684 0
M  V30 8437 H 815.432 2.90741 3.05037 0
M  V30 8438 H 814.156 1.6915 2.79385 0
M  V30 8439 H 812.815 3.36013 1.46597 0
M  V30 8440 H 812.463 3.13698 3.93195 0
M  V30 8441 H 812.163 4.80482 3.38247 0
M  V30 8442 H 813.687 4.40735 4.22593 0
M  V30 8443 H 815.101 5.3168 2.14451 0
M  V30 8444 H 813.498 5.80484 1.52178 0
M  V30 8445 H 814.568 4.8226 0.505259 0
M  V30 8446 N 815.911 -0.310526 1.54511 0
M  V30 8447 C 817.136 -1.07046 1.7764 0
M  V30 8448 C 817.561 -1.80488 0.529696 0
M  V30 8449 O 816.919 -1.73702 -0.519361 0
M  V30 8450 C 816.967 -2.03411 2.97752 0
M  V30 8451 O 816.071 -3.11545 2.7021 0
M  V30 8452 H 815.412 -0.307994 0.588248 0
M  V30 8453 H 817.942 -0.350848 2.01569 0
M  V30 8454 H 817.952 -2.46048 3.2546 0
M  V30 8455 H 816.627 -1.49361 3.88155 0
M  V30 8456 H 815.204 -2.7349 2.53491 0
M  V30 8457 N 817.389 -1.46805 -0.573248 0
M  V30 8458 C 818.299 -1.60687 -1.70929 0
M  V30 8459 C 819.315 -0.490084 -1.66956 0
M  V30 8460 O 820.491 -0.755482 -1.86693 0
M  V30 8461 C 817.556 -1.60259 -3.07438 0
M  V30 8462 C 816.617 -2.83242 -3.22603 0
M  V30 8463 C 815.85 -2.82825 -4.52599 0
M  V30 8464 O 816.073 -1.92113 -5.37074 0
M  V30 8465 O 815.007 -3.74489 -4.71213 0
M  V30 8466 H 818.833 -2.56782 -1.62163 0
M  V30 8467 H 816.418 -1.29706 -0.741399 0
M  V30 8468 H 818.3 -1.6275 -3.88704 0
M  V30 8469 H 816.975 -0.673268 -3.16621 0
M  V30 8470 H 815.882 -2.86302 -2.40794 0
M  V30 8471 H 817.215 -3.75415 -3.18315 0
M  V30 8472 N 818.867 0.818669 -1.34668 0
M  V30 8473 C 820.114 1.57512 -1.27264 0
M  V30 8474 C 820.442 1.93871 0.156254 0
M  V30 8475 O 819.697 1.60582 1.11857 0
M  V30 8476 C 819.996 2.88245 -2.11304 0
M  V30 8477 C 819.662 2.71159 -3.60255 0
M  V30 8478 C 818.324 2.66207 -4.00858 0
M  V30 8479 C 820.676 2.54538 -4.54819 0
M  V30 8480 C 818.004 2.4256 -5.34211 0
M  V30 8481 C 820.356 2.32421 -5.88356 0
M  V30 8482 C 819.02 2.25884 -6.28118 0
M  V30 8483 H 818.29 0.576378 -0.465692 0
M  V30 8484 H 820.937 0.9469 -1.66451 0
M  V30 8485 H 819.242 3.55381 -1.64958 0
M  V30 8486 H 820.939 3.45869 -2.02919 0
M  V30 8487 H 817.529 2.75856 -3.28027 0
M  V30 8488 H 821.713 2.57384 -4.24343 0
M  V30 8489 H 816.969 2.35959 -5.64033 0
M  V30 8490 H 821.143 2.18548 -6.61218 0
M  V30 8491 H 818.77 2.07322 -7.31383 0
M  V30 8492 N 820.346 1.18468 1.03938 0
M  V30 8493 C 821.757 0.984808 1.58614 0
M  V30 8494 C 822.108 -0.465165 1.90606 0
M  V30 8495 O 821.233 -1.34274 1.69704 0
M  V30 8496 C 821.828 1.78135 2.8819 0
M  V30 8497 C 820.387 1.62579 3.39478 0
M  V30 8498 C 819.534 1.77501 2.13046 0
M  V30 8499 H 822.485 1.32993 0.865944 0
M  V30 8500 H 822.506 1.27119 3.58638 0
M  V30 8501 H 822.018 2.83661 2.64874 0
M  V30 8502 H 820.119 0.59595 3.67803 0
M  V30 8503 H 820.232 2.42463 4.13217 0
M  V30 8504 H 818.596 1.2046 2.24414 0
M  V30 8505 H 819.379 2.84464 1.92185 0
M  V30 8506 N 821.824 -1.22873 0.986916 0
M  V30 8507 C 823.101 -1.86939 0.575589 0
M  V30 8508 C 823.481 -1.88656 -0.947205 0
M  V30 8509 O 822.829 -1.3728 -1.82665 0
M  V30 8510 C 823.039 -3.28117 1.18914 0
M  V30 8511 C 824.387 -4.04659 1.28593 0
M  V30 8512 O 825.411 -3.3736 1.14308 0
M  V30 8513 O 824.27 -5.25112 1.51391 0
M  V30 8514 H 821.364 -0.803748 0.194724 0
M  V30 8515 H 823.91 -1.30698 1.08241 0
M  V30 8516 H 822.682 -3.21468 2.231 0
M  V30 8517 H 822.305 -3.91956 0.667535 0
M  V30 8518 N 823.302 -0.75937 -1.38099 0
M  V30 8519 C 824.249 -0.135508 -2.30402 0
M  V30 8520 C 825.219 0.703356 -1.50473 0
M  V30 8521 O 826.404 0.658287 -1.79084 0
M  V30 8522 C 823.544 0.747228 -3.36913 0
M  V30 8523 C 822.657 -0.106893 -4.31868 0
M  V30 8524 C 821.792 0.779388 -5.25451 0
M  V30 8525 C 820.831 -0.0780179 -6.1205 0
M  V30 8526 N 819.968 0.765545 -6.97914 0
M  V30 8527 H 824.808 -0.9282 -2.83176 0
M  V30 8528 H 822.345 -0.46935 -1.39411 0
M  V30 8529 H 824.303 1.27371 -3.97281 0
M  V30 8530 H 822.933 1.50565 -2.85535 0
M  V30 8531 H 821.985 -0.751063 -3.72912 0
M  V30 8532 H 823.297 -0.768798 -4.9284 0
M  V30 8533 H 822.451 1.37282 -5.90964 0
M  V30 8534 H 821.19 1.47501 -4.6486 0
M  V30 8535 H 820.195 -0.684078 -5.45528 0
M  V30 8536 H 821.42 -0.770786 -6.74712 0
M  V30 8537 H 819.366 1.44601 -6.39864 0
M  V30 8538 H 819.283 0.160666 -7.55829 0
M  V30 8539 H 820.551 1.34377 -7.6783 0
M  V30 8540 N 824.78 1.49157 -0.508906 0
M  V30 8541 C 826.027 2.02473 0.0327983 0
M  V30 8542 C 826.355 1.38792 1.36261 0
M  V30 8543 O 825.61 0.515576 1.88786 0
M  V30 8544 C 825.909 3.56687 0.225717 0
M  V30 8545 C 825.575 4.39046 -1.02708 0
M  V30 8546 C 824.237 4.61271 -1.37048 0
M  V30 8547 C 826.589 4.86902 -1.85946 0
M  V30 8548 C 823.917 5.28598 -2.54562 0
M  V30 8549 C 826.269 5.55521 -3.0262 0
M  V30 8550 C 824.933 5.7599 -3.3733 0
M  V30 8551 H 824.203 0.740903 0.0120017 0
M  V30 8552 H 826.85 1.79372 -0.670665 0
M  V30 8553 H 825.155 3.78511 1.01177 0
M  V30 8554 H 826.852 3.95541 0.659433 0
M  V30 8555 H 823.442 4.21994 -0.749615 0
M  V30 8556 H 827.626 4.69553 -1.6073 0
M  V30 8557 H 822.882 5.42646 -2.81682 0
M  V30 8558 H 827.056 5.91576 -3.67438 0
M  V30 8559 H 824.683 6.27934 -4.2849 0
M  V30 8560 N 826.258 0.243083 1.55714 0
M  V30 8561 C 827.506 -0.381964 1.98458 0
M  V30 8562 C 827.827 -1.58745 1.13247 0
M  V30 8563 O 827.097 -1.94723 0.214384 0
M  V30 8564 H 825.677 -0.144114 0.732967 0
M  V30 8565 H 828.339 0.340985 1.91894 0
M  V30 8566 H 827.435 -0.693702 3.04293 0
M  V30 8567 N 827.736 -1.57571 -0.0300757 0
M  V30 8568 C 828.961 -1.93879 -0.736601 0
M  V30 8569 C 829.386 -0.842998 -1.68152 0
M  V30 8570 O 828.744 0.20135 -1.80178 0
M  V30 8571 C 828.792 -3.29247 -1.47066 0
M  V30 8572 O 827.896 -3.21426 -2.58378 0
M  V30 8573 H 827.237 -0.633735 -0.198181 0
M  V30 8574 H 829.767 -2.04595 0.0141485 0
M  V30 8575 H 829.777 -3.64113 -1.84081 0
M  V30 8576 H 828.452 -4.08565 -0.77764 0
M  V30 8577 H 827.029 -2.98189 -2.23914 0
M  V30 8578 N 829.214 0.302327 -1.54673 0
M  V30 8579 C 830.454 1.04568 -1.75627 0
M  V30 8580 C 830.818 1.84535 -0.530175 0
M  V30 8581 O 832.019 2.61613 -0.61743 0
M  V30 8582 C 830.29 1.92873 -3.0089 0
M  V30 8583 S 831.849 2.73872 -3.4284 0
M  V30 8584 H 828.667 0.352682 -0.617362 0
M  V30 8585 H 831.269 0.319239 -1.92876 0
M  V30 8586 H 829.973 1.32998 -3.88252 0
M  V30 8587 H 829.504 2.69887 -2.86225 0
M  V30 8588 H 831.519 3.95386 -2.99807 0
M  V30 8589 N 830.692 1.47107 0.565454 0
M  V30 8590 C 831.938 1.53535 1.32495 0
M  V30 8591 C 832.271 0.193537 1.93233 0
M  V30 8592 O 831.546 -0.796956 1.77423 0
M  V30 8593 C 831.829 2.64712 2.4413 0
M  V30 8594 C 831.682 4.08482 1.88314 0
M  V30 8595 C 833.001 2.71853 3.46098 0
M  V30 8596 H 830.12 0.558926 0.480386 0
M  V30 8597 H 832.762 1.79125 0.633575 0
M  V30 8598 H 830.912 2.43023 3.03104 0
M  V30 8599 H 832.584 4.4151 1.33665 0
M  V30 8600 H 830.827 4.17148 1.19037 0
M  V30 8601 H 831.498 4.82032 2.68978 0
M  V30 8602 H 833.974 2.91397 2.97031 0
M  V30 8603 H 832.85 3.51433 4.21646 0
M  V30 8604 H 833.111 1.78584 4.04426 0
M  V30 8605 N 832.17 -0.811516 1.35101 0
M  V30 8606 C 833.581 -1.38515 1.25182 0
M  V30 8607 C 833.932 -1.95846 -0.117883 0
M  V30 8608 O 833.057 -1.90925 -1.01866 0
M  V30 8609 C 833.652 -2.51813 2.26662 0
M  V30 8610 C 832.211 -3.05052 2.20499 0
M  V30 8611 C 831.358 -1.77987 2.12641 0
M  V30 8612 H 834.309 -0.614959 1.46301 0
M  V30 8613 H 834.33 -3.30228 1.89023 0
M  V30 8614 H 833.842 -2.10057 3.2634 0
M  V30 8615 H 831.943 -3.51285 1.24215 0
M  V30 8616 H 832.056 -3.63368 3.1225 0
M  V30 8617 H 830.42 -1.99342 1.5854 0
M  V30 8618 H 831.203 -1.38389 3.14171 0
M  V30 8619 N 833.648 -1.19017 -1.03309 0
M  V30 8620 C 834.598 -0.89194 -2.0983 0
M  V30 8621 C 835.582 0.14151 -1.60277 0
M  V30 8622 O 836.774 -0.0635946 -1.76886 0
M  V30 8623 C 833.903 -0.427793 -3.40624 0
M  V30 8624 C 832.989 -1.49374 -3.96923 0
M  V30 8625 N 833.38 -2.71213 -4.26939 0
M  V30 8626 C 831.678 -1.35605 -4.24885 0
M  V30 8627 C 832.379 -3.39849 -4.72099 0
M  V30 8628 N 831.355 -2.67239 -4.73375 0
M  V30 8629 H 835.157 -1.81801 -2.30923 0
M  V30 8630 H 832.671 -1.08171 -1.21131 0
M  V30 8631 H 834.668 -0.195608 -4.16441 0
M  V30 8632 H 833.328 0.491848 -3.20953 0
M  V30 8633 H 834.339 -3.08014 -4.16351 0
M  V30 8634 H 831.016 -0.499537 -4.14501 0
M  V30 8635 H 832.406 -4.44018 -5.04279 0
M  V30 8636 N 835.127 1.22348 -0.993418 0
M  V30 8637 C 836.355 1.95125 -0.688021 0
M  V30 8638 C 836.77 1.73377 0.747388 0
M  V30 8639 O 836.127 1.03317 1.50439 0
M  V30 8640 C 836.178 3.47819 -0.985097 0
M  V30 8641 O 835.899 3.68838 -2.3641 0
M  V30 8642 C 837.4 4.37779 -0.697474 0
M  V30 8643 H 834.62 0.62087 -0.254481 0
M  V30 8644 H 837.164 1.55485 -1.32833 0
M  V30 8645 H 835.319 3.85426 -0.390583 0
M  V30 8646 H 835.733 4.63032 -2.46377 0
M  V30 8647 H 837.207 5.43666 -0.955604 0
M  V30 8648 H 837.684 4.37651 0.368524 0
M  V30 8649 H 838.29 4.05799 -1.27306 0
M  V30 8650 N 836.605 0.766683 1.37694 0
M  V30 8651 C 837.833 0.339939 2.04088 0
M  V30 8652 C 838.248 -1.03617 1.57826 0
M  V30 8653 O 837.605 -1.6605 0.757214 0
M  V30 8654 C 837.656 0.368269 3.59619 0
M  V30 8655 O 837.377 1.69009 4.04188 0
M  V30 8656 C 838.878 -0.0707053 4.43244 0
M  V30 8657 H 836.098 0.143189 0.655544 0
M  V30 8658 H 838.642 1.03919 1.76128 0
M  V30 8659 H 836.797 -0.282359 3.8637 0
M  V30 8660 H 837.211 1.62523 4.98685 0
M  V30 8661 H 838.685 0.000273538 5.52 0
M  V30 8662 H 839.162 -1.1204 4.24669 0
M  V30 8663 H 839.768 0.551543 4.21709 0
M  V30 8664 N 838.083 -1.48885 0.516809 0
M  V30 8665 C 839.499 -1.58651 0.173788 0
M  V30 8666 C 839.699 -1.52033 -1.32243 0
M  V30 8667 O 838.755 -1.40251 -2.09967 0
M  V30 8668 C 840.068 -2.90816 0.764628 0
M  V30 8669 C 841.616 -3.04316 0.732164 0
M  V30 8670 C 842.091 -4.39123 1.30135 0
M  V30 8671 N 843.582 -4.45656 1.26273 0
M  V30 8672 C 844.317 -5.48446 1.67317 0
M  V30 8673 N 843.813 -6.58258 2.16028 0
M  V30 8674 N 845.606 -5.39251 1.58635 0
M  V30 8675 H 837.757 -1.5143 1.48939 0
M  V30 8676 H 840.02 -0.718243 0.618733 0
M  V30 8677 H 839.726 -3.01275 1.81456 0
M  V30 8678 H 839.6 -3.76473 0.234113 0
M  V30 8679 H 841.987 -2.93478 -0.308975 0
M  V30 8680 H 842.068 -2.20303 1.3 0
M  V30 8681 H 841.712 -4.50714 2.34135 0
M  V30 8682 H 841.642 -5.21801 0.709305 0
M  V30 8683 H 844.133 -3.66879 0.906006 0
M  V30 8684 H 844.446 -7.32811 2.45374 0
M  V30 8685 H 842.791 -6.59257 2.20013 0
M  V30 8686 H 845.982 -4.52354 1.20387 0
M  V30 8687 H 846.155 -6.19229 1.90944 0
M  V30 8688 N 839.561 -0.251338 -1.55583 0
M  V30 8689 C 840.972 0.25098 -1.85005 0
M  V30 8690 C 841.323 1.57259 -1.17321 0
M  V30 8691 O 840.448 2.11603 -0.453136 0
M  V30 8692 C 841.043 0.462161 -3.35633 0
M  V30 8693 C 839.602 0.908737 -3.65266 0
M  V30 8694 C 838.749 -0.0115418 -2.77298 0
M  V30 8695 H 841.7 -0.473782 -1.51463 0
M  V30 8696 H 841.721 1.30415 -3.57452 0
M  V30 8697 H 841.233 -0.499886 -3.84867 0
M  V30 8698 H 839.334 1.8831 -3.21512 0
M  V30 8699 H 839.447 0.762526 -4.72993 0
M  V30 8700 H 837.811 0.500612 -2.49732 0
M  V30 8701 H 838.594 -0.969042 -3.29339 0
M  V30 8702 N 841.039 1.57585 0.0217189 0
M  V30 8703 C 841.986 2.07036 1.02004 0
M  V30 8704 C 842.956 0.96106 1.35473 0
M  V30 8705 O 844.141 1.23211 1.45684 0
M  V30 8706 C 841.281 2.56056 2.31364 0
M  V30 8707 C 840.394 3.80805 2.03989 0
M  V30 8708 C 839.529 4.18409 3.27272 0
M  V30 8709 C 838.568 5.36055 2.95486 0
M  V30 8710 N 837.705 5.69056 4.11242 0
M  V30 8711 H 842.545 2.92073 0.591396 0
M  V30 8712 H 840.082 1.44403 0.280384 0
M  V30 8713 H 842.04 2.82548 3.06957 0
M  V30 8714 H 840.67 1.73925 2.71937 0
M  V30 8715 H 839.722 3.61354 1.1886 0
M  V30 8716 H 841.034 4.66512 1.76546 0
M  V30 8717 H 840.188 4.46068 4.11228 0
M  V30 8718 H 838.927 3.31369 3.57835 0
M  V30 8719 H 837.932 5.08142 2.09933 0
M  V30 8720 H 839.157 6.24755 2.66193 0
M  V30 8721 H 837.103 4.84974 4.41742 0
M  V30 8722 H 837.02 6.49288 3.87247 0
M  V30 8723 H 838.288 6.01295 4.96049 0
M  V30 8724 N 842.517 -0.29412 1.54831 0
M  V30 8725 C 843.933 -0.640167 1.46199 0
M  V30 8726 C 844.133 -1.90426 0.658798 0
M  V30 8727 O 843.189 -2.51932 0.169228 0
M  V30 8728 C 844.502 -0.786763 2.90225 0
M  V30 8729 C 846.05 -0.882201 3.0031 0
M  V30 8730 C 846.525 -1.06074 4.45547 0
M  V30 8731 N 848.016 -1.12678 4.49286 0
M  V30 8732 C 848.751 -1.28334 5.58854 0
M  V30 8733 N 848.247 -1.40845 6.78332 0
M  V30 8734 N 850.04 -1.31277 5.46555 0
M  V30 8735 H 842.191 0.536334 2.05517 0
M  V30 8736 H 844.454 0.178363 0.93107 0
M  V30 8737 H 844.16 0.0713018 3.51628 0
M  V30 8738 H 844.034 -1.67364 3.38037 0
M  V30 8739 H 846.421 -1.73075 2.39017 0
M  V30 8740 H 846.502 0.0288405 2.55784 0
M  V30 8741 H 846.146 -0.216935 5.07437 0
M  V30 8742 H 846.076 -1.98611 4.8771 0
M  V30 8743 H 848.567 -1.04335 3.63212 0
M  V30 8744 H 848.88 -1.52566 7.57591 0
M  V30 8745 H 847.225 -1.37888 6.81184 0
M  V30 8746 H 850.416 -1.2112 4.52159 0
M  V30 8747 H 850.589 -1.43136 6.31994 0
M  V30 8748 N 843.995 -1.47404 -0.557645 0
M  V30 8749 C 844.905 -1.62491 -1.69216 0
M  V30 8750 C 845.921 -0.507764 -1.66426 0
M  V30 8751 O 847.097 -0.775241 -1.85882 0
M  V30 8752 C 844.162 -1.63511 -3.05721 0
M  V30 8753 C 843.223 -2.86648 -3.1958 0
M  V30 8754 C 842.456 -2.87609 -4.49574 0
M  V30 8755 O 842.679 -1.97799 -5.35006 0
M  V30 8756 O 841.613 -3.79465 -4.67215 0
M  V30 8757 H 845.439 -2.58487 -1.59431 0
M  V30 8758 H 843.024 -1.30485 -0.7276 0
M  V30 8759 H 844.906 -1.66863 -3.86956 0
M  V30 8760 H 843.581 -0.706812 -3.15889 0
M  V30 8761 H 842.488 -2.8884 -2.37744 0
M  V30 8762 H 843.821 -3.7877 -3.14316 0
M  V30 8763 N 845.473 0.80434 -1.35529 0
M  V30 8764 C 846.703 1.59052 -1.31856 0
M  V30 8765 C 847.111 1.88905 0.105549 0
M  V30 8766 O 846.454 1.49422 1.06858 0
M  V30 8767 C 846.516 2.94626 -2.06 0
M  V30 8768 C 846.18 2.87576 -3.55175 0
M  V30 8769 C 847.177 2.60856 -4.49722 0
M  V30 8770 C 844.862 3.06623 -3.97854 0
M  V30 8771 C 846.856 2.53262 -5.84925 0
M  V30 8772 C 844.543 2.98652 -5.33151 0
M  V30 8773 C 845.541 2.72007 -6.26499 0
M  V30 8774 O 845.229 2.64003 -7.59314 0
M  V30 8775 H 844.961 0.500486 -0.454411 0
M  V30 8776 H 847.515 1.0074 -1.78999 0
M  V30 8777 H 845.745 3.5493 -1.53498 0
M  V30 8778 H 847.434 3.55785 -1.95376 0
M  V30 8779 H 848.2 2.45858 -4.18066 0
M  V30 8780 H 844.079 3.26372 -3.2558 0
M  V30 8781 H 847.623 2.32386 -6.57756 0
M  V30 8782 H 843.52 3.13208 -5.64421 0
M  V30 8783 H 844.288 2.79595 -7.69265 0
M  V30 8784 N 846.951 1.19563 1.02676 0
M  V30 8785 C 847.861 0.950691 2.14474 0
M  V30 8786 C 848.877 -0.0900219 1.73767 0
M  V30 8787 O 850.053 0.0951063 2.01175 0
M  V30 8788 C 847.118 0.494917 3.43149 0
M  V30 8789 C 846.179 1.60527 3.98158 0
M  V30 8790 C 845.412 1.17115 5.20692 0
M  V30 8791 O 845.635 0.0355937 5.70389 0
M  V30 8792 O 844.569 1.97454 5.68591 0
M  V30 8793 H 848.395 1.88651 2.38001 0
M  V30 8794 H 845.98 0.978635 1.12885 0
M  V30 8795 H 847.862 0.249492 4.20661 0
M  V30 8796 H 846.537 -0.412434 3.21062 0
M  V30 8797 H 845.444 1.90487 3.21971 0
M  V30 8798 H 846.777 2.48925 4.24614 0
M  V30 8799 N 848.429 -1.21819 0.999893 0
M  V30 8800 C 849.678 -1.90066 0.675108 0
M  V30 8801 C 849.991 -1.78624 -0.79705 0
M  V30 8802 O 851.197 -2.41851 -1.23371 0
M  V30 8803 C 849.653 -3.40795 1.15702 0
M  V30 8804 C 849.261 -3.60859 2.6549 0
M  V30 8805 C 851.005 -4.147 0.906889 0
M  V30 8806 C 848.912 -5.05324 3.07248 0
M  V30 8807 H 847.842 -0.711763 0.248815 0
M  V30 8808 H 850.493 -1.3792 1.21038 0
M  V30 8809 H 848.875 -3.92164 0.549832 0
M  V30 8810 H 850.049 -3.19951 3.31614 0
M  V30 8811 H 848.364 -3.00298 2.88461 0
M  V30 8812 H 850.961 -5.21187 1.1945 0
M  V30 8813 H 851.304 -4.16004 -0.156923 0
M  V30 8814 H 851.837 -3.69379 1.47662 0
M  V30 8815 H 848.576 -5.09164 4.12834 0
M  V30 8816 H 848.096 -5.47108 2.45832 0
M  V30 8817 H 849.775 -5.73797 2.98941 0
M  V30 8818 N 849.908 -0.773975 -1.37286 0
M  V30 8819 C 851.185 -0.263942 -1.93811 0
M  V30 8820 C 851.565 1.24138 -1.70743 0
M  V30 8821 O 850.913 2.02557 -1.05749 0
M  V30 8822 C 851.123 -0.639753 -3.43086 0
M  V30 8823 C 852.471 -0.610796 -4.20184 0
M  V30 8824 O 853.495 -0.579278 -3.51458 0
M  V30 8825 O 852.354 -0.639862 -5.42741 0
M  V30 8826 H 849.448 -0.0614331 -0.824715 0
M  V30 8827 H 851.994 -0.855477 -1.46559 0
M  V30 8828 H 850.766 -1.67856 -3.53469 0
M  V30 8829 H 850.389 -0.0212827 -3.97594 0
M  V30 8830 N 851.386 1.48609 -0.524698 0
M  V30 8831 C 852.634 2.02097 0.0112991 0
M  V30 8832 C 852.955 1.40455 1.35268 0
M  V30 8833 O 852.225 0.56807 1.87483 0
M  V30 8834 H 850.805 0.746966 0.00716426 0
M  V30 8835 H 853.467 1.82378 -0.687329 0
M  V30 8836 H 852.563 3.11855 0.123531 0
M  V30 8837 N 852.864 0.259585 1.55447 0
M  V30 8838 C 854.28 -0.094961 1.59317 0
M  V30 8839 C 854.48 -1.55884 1.2768 0
M  V30 8840 O 853.536 -2.30528 1.0302 0
M  V30 8841 C 854.849 0.265669 2.99524 0
M  V30 8842 C 856.397 0.211007 3.12288 0
M  V30 8843 C 856.872 0.545851 4.54736 0
M  V30 8844 N 858.363 0.496823 4.60528 0
M  V30 8845 C 859.098 0.728909 5.68748 0
M  V30 8846 N 858.594 1.02479 6.85179 0
M  V30 8847 N 860.387 0.658756 5.58226 0
M  V30 8848 H 852.538 1.2141 1.7428 0
M  V30 8849 H 854.801 0.489404 0.811904 0
M  V30 8850 H 854.507 1.28316 3.27457 0
M  V30 8851 H 854.381 -0.401089 3.75061 0
M  V30 8852 H 856.768 -0.797172 2.84129 0
M  V30 8853 H 856.849 0.911799 2.38998 0
M  V30 8854 H 856.493 1.55164 4.83618 0
M  V30 8855 H 856.423 -0.17656 5.26304 0
M  V30 8856 H 858.914 0.277376 3.76881 0
M  V30 8857 H 859.227 1.18897 7.63599 0
M  V30 8858 H 857.572 1.0624 6.86832 0
M  V30 8859 H 860.763 0.427553 4.66143 0
M  V30 8860 H 860.936 0.84302 6.42493 0
M  V30 8861 N 854.342 -1.57594 -0.0133615 0
M  V30 8862 C 855.619 -1.81173 -0.737273 0
M  V30 8863 C 855.999 -0.861395 -1.92726 0
M  V30 8864 O 855.347 0.0929324 -2.28311 0
M  V30 8865 C 855.557 -3.29314 -1.15557 0
M  V30 8866 C 856.905 -3.94707 -1.56498 0
M  V30 8867 O 857.929 -3.33557 -1.24973 0
M  V30 8868 O 856.788 -5.02402 -2.15069 0
M  V30 8869 H 853.882 -0.745575 -0.357837 0
M  V30 8870 H 856.428 -1.69696 0.0110674 0
M  V30 8871 H 855.2 -3.90096 -0.30677 0
M  V30 8872 H 854.823 -3.45739 -1.96343 0
M  V30 8873 N 855.82 0.285905 -1.54985 0
M  V30 8874 C 857.05 1.03626 -1.78732 0
M  V30 8875 C 857.458 1.80896 -0.554377 0
M  V30 8876 O 856.801 1.77161 0.48578 0
M  V30 8877 C 856.863 2.05185 -2.95193 0
M  V30 8878 C 856.527 1.46973 -4.32722 0
M  V30 8879 C 857.524 0.891986 -5.12191 0
M  V30 8880 C 855.209 1.50081 -4.79355 0
M  V30 8881 C 857.203 0.353078 -6.36421 0
M  V30 8882 C 854.89 0.958037 -6.03544 0
M  V30 8883 C 855.888 0.385157 -6.81913 0
M  V30 8884 O 855.576 -0.149341 -8.03761 0
M  V30 8885 H 855.308 0.312416 -0.599477 0
M  V30 8886 H 857.862 0.326067 -2.02795 0
M  V30 8887 H 856.092 2.79928 -2.66791 0
M  V30 8888 H 857.781 2.66244 -3.0638 0
M  V30 8889 H 858.547 0.860762 -4.77301 0
M  V30 8890 H 854.426 1.9361 -4.18373 0
M  V30 8891 H 857.97 -0.0947181 -6.97536 0
M  V30 8892 H 853.867 0.986458 -6.37918 0
M  V30 8893 H 854.635 -0.0374719 -8.18491 0
M  V30 8894 N 857.298 1.47698 0.54982 0
M  V30 8895 C 858.248 1.57145 1.65195 0
M  V30 8896 C 859.232 0.429839 1.55052 0
M  V30 8897 O 860.424 0.68018 1.63409 0
M  V30 8898 C 857.553 1.59573 3.0396 0
M  V30 8899 C 856.639 2.79144 3.19279 0
M  V30 8900 N 857.03 4.03769 3.04638 0
M  V30 8901 C 855.328 2.76061 3.50295 0
M  V30 8902 C 856.029 4.83887 3.22845 0
M  V30 8903 N 855.005 4.1634 3.49517 0
M  V30 8904 H 858.807 2.51266 1.52455 0
M  V30 8905 H 856.321 1.43795 0.754773 0
M  V30 8906 H 858.318 1.64431 3.83103 0
M  V30 8907 H 856.978 0.66553 3.17806 0
M  V30 8908 H 857.989 4.34515 2.81811 0
M  V30 8909 H 854.666 1.92211 3.70622 0
M  V30 8910 H 856.056 5.92724 3.1643 0
M  V30 8911 N 858.776 -0.797141 1.35954 0
M  V30 8912 C 860.023 -1.55468 1.29754 0
M  V30 8913 C 860.351 -1.94095 -0.125391 0
M  V30 8914 O 859.606 -1.62341 -1.09288 0
M  V30 8915 C 859.905 -2.84847 2.15863 0
M  V30 8916 C 859.571 -2.65394 3.64523 0
M  V30 8917 C 858.233 -2.59796 4.05042 0
M  V30 8918 C 860.585 -2.4727 4.58811 0
M  V30 8919 C 857.913 -2.3403 5.38002 0
M  V30 8920 C 860.265 -2.23032 5.91979 0
M  V30 8921 C 858.929 -2.15862 6.31633 0
M  V30 8922 H 858.199 -0.568897 0.474803 0
M  V30 8923 H 860.846 -0.920299 1.67937 0
M  V30 8924 H 859.151 -3.52712 1.70591 0
M  V30 8925 H 860.848 -3.42597 2.08395 0
M  V30 8926 H 857.438 -2.70602 3.32374 0
M  V30 8927 H 861.622 -2.506 4.28384 0
M  V30 8928 H 856.878 -2.26956 5.67715 0
M  V30 8929 H 861.052 -2.08001 6.64612 0
M  V30 8930 H 858.679 -1.9566 7.34589 0
M  V30 8931 N 860.254 -1.20106 -1.0204 0
M  V30 8932 C 861.5 -1.01039 -1.75838 0
M  V30 8933 C 861.833 0.456819 -1.88751 0
M  V30 8934 O 861.108 1.33919 -1.41053 0
M  V30 8935 C 861.391 -1.69009 -3.17975 0
M  V30 8936 C 861.244 -3.2315 -3.1288 0
M  V30 8937 C 862.563 -1.42005 -4.16561 0
M  V30 8938 H 859.682 -0.368465 -0.638281 0
M  V30 8939 H 862.324 -1.48066 -1.19064 0
M  V30 8940 H 860.474 -1.29026 -3.66449 0
M  V30 8941 H 862.146 -3.72402 -2.72239 0
M  V30 8942 H 860.389 -3.54253 -2.50374 0
M  V30 8943 H 861.06 -3.65862 -4.13339 0
M  V30 8944 H 863.536 -1.76685 -3.76725 0
M  V30 8945 H 862.412 -1.92101 -5.14187 0
M  V30 8946 H 862.673 -0.346884 -4.40737 0
M  V30 8947 N 861.732 1.21287 -1.00634 0
M  V30 8948 C 862.957 1.94925 -0.708441 0
M  V30 8949 C 863.382 1.73659 0.722783 0
M  V30 8950 O 862.74 1.02429 1.49593 0
M  V30 8951 C 862.788 3.45377 -1.03667 0
M  V30 8952 O 861.892 4.12153 -0.142661 0
M  V30 8953 H 861.233 0.609338 -0.263824 0
M  V30 8954 H 863.763 1.54008 -1.34695 0
M  V30 8955 H 863.773 3.95954 -0.984086 0
M  V30 8956 H 862.448 3.6018 -2.0795 0
M  V30 8957 H 861.025 3.72048 -0.251888 0
M  V30 8958 N 863.21 0.781244 1.36873 0
M  V30 8959 C 864.435 0.360398 2.04245 0
M  V30 8960 C 864.86 -1.01242 1.58529 0
M  V30 8961 O 864.218 -1.65063 0.749936 0
M  V30 8962 C 864.266 0.42329 3.58107 0
M  V30 8963 O 863.37 -0.572796 4.08403 0
M  V30 8964 H 862.711 0.154386 0.645803 0
M  V30 8965 H 865.241 1.06008 1.74996 0
M  V30 8966 H 865.251 0.283967 4.07011 0
M  V30 8967 H 863.926 1.42477 3.90734 0
M  V30 8968 H 862.503 -0.395809 3.70793 0
M  V30 8969 N 864.689 -1.48329 0.532571 0
M  V30 8970 C 866.105 -1.58458 0.190605 0
M  V30 8971 C 866.305 -1.53427 -1.30623 0
M  V30 8972 O 865.361 -1.4247 -2.08467 0
M  V30 8973 C 866.674 -2.89989 0.79543 0
M  V30 8974 C 868.222 -3.03523 0.7644 0
M  V30 8975 C 868.697 -4.37718 1.34785 0
M  V30 8976 N 870.188 -4.44292 1.30993 0
M  V30 8977 C 870.923 -5.4664 1.73124 0
M  V30 8978 N 870.419 -6.5593 2.22997 0
M  V30 8979 N 872.212 -5.37538 1.64346 0
M  V30 8980 H 864.363 -1.49842 1.50537 0
M  V30 8981 H 866.626 -0.71164 0.626316 0
M  V30 8982 H 866.332 -2.99333 1.84642 0
M  V30 8983 H 866.206 -3.76203 0.27403 0
M  V30 8984 H 868.593 -2.93789 -0.277831 0
M  V30 8985 H 868.674 -2.18912 1.3233 0
M  V30 8986 H 868.318 -4.48206 2.38902 0
M  V30 8987 H 868.248 -5.21019 0.764609 0
M  V30 8988 H 870.739 -3.65897 0.944868 0
M  V30 8989 H 871.052 -7.30167 2.53133 0
M  V30 8990 H 869.397 -6.56886 2.26992 0
M  V30 8991 H 872.588 -4.51052 1.25178 0
M  V30 8992 H 872.761 -6.17169 1.97501 0
M  V30 8993 N 866.167 -0.267825 -1.55308 0
M  V30 8994 C 867.077 0.633055 -2.25897 0
M  V30 8995 C 868.093 1.17613 -1.28231 0
M  V30 8996 O 869.269 1.20797 -1.61153 0
M  V30 8997 C 866.334 1.80397 -2.96071 0
M  V30 8998 C 865.395 1.29829 -4.09198 0
M  V30 8999 C 864.628 2.4134 -4.76016 0
M  V30 9000 O 864.851 3.60537 -4.42006 0
M  V30 9001 O 863.785 2.09909 -5.64111 0
M  V30 9002 H 867.611 0.0614381 -3.03638 0
M  V30 9003 H 865.196 -0.0355072 -1.49358 0
M  V30 9004 H 867.078 2.48685 -3.40197 0
M  V30 9005 H 865.753 2.36281 -2.21253 0
M  V30 9006 H 864.66 0.582086 -3.69544 0
M  V30 9007 H 865.993 0.785288 -4.85895 0
M  V30 9008 N 867.645 1.57599 0.00500368 0
M  V30 9009 C 868.592 2.08106 0.998025 0
M  V30 9010 C 869.562 0.975374 1.34446 0
M  V30 9011 O 870.747 1.24749 1.44369 0
M  V30 9012 C 867.887 2.58496 2.28635 0
M  V30 9013 C 867 3.82947 1.99939 0
M  V30 9014 C 866.135 4.21857 3.22816 0
M  V30 9015 C 865.174 5.39159 2.89783 0
M  V30 9016 N 864.311 5.73386 4.05183 0
M  V30 9017 H 869.151 2.92684 0.560385 0
M  V30 9018 H 866.688 1.44692 0.265053 0
M  V30 9019 H 868.646 2.85787 3.03943 0
M  V30 9020 H 867.276 1.768 2.70077 0
M  V30 9021 H 866.328 3.62594 1.1502 0
M  V30 9022 H 867.64 4.68358 1.71588 0
M  V30 9023 H 866.794 4.50404 4.06474 0
M  V30 9024 H 865.533 3.35145 3.54301 0
M  V30 9025 H 864.538 5.1034 2.04532 0
M  V30 9026 H 865.763 6.27543 2.59551 0
M  V30 9027 H 863.709 4.89632 4.36574 0
M  V30 9028 H 863.626 6.53359 3.80339 0
M  V30 9029 H 864.894 6.06522 4.89644 0
M  V30 9030 N 869.123 -0.277682 1.55134 0
M  V30 9031 C 870.056 -1.3685 1.82612 0
M  V30 9032 C 871.034 -1.47752 0.678833 0
M  V30 9033 O 872.218 -1.6445 0.921329 0
M  V30 9034 C 869.345 -2.74539 1.98359 0
M  V30 9035 C 868.391 -2.80945 3.20893 0
M  V30 9036 S 869.224 -2.40666 4.78373 0
M  V30 9037 C 870.38 -3.80338 4.97085 0
M  V30 9038 H 870.613 -1.13338 2.74849 0
M  V30 9039 H 868.146 -0.477063 1.46845 0
M  V30 9040 H 870.104 -3.53834 2.08115 0
M  V30 9041 H 868.765 -2.95306 1.07019 0
M  V30 9042 H 867.958 -3.81992 3.28783 0
M  V30 9043 H 867.56 -2.09667 3.09703 0
M  V30 9044 H 869.852 -4.75565 4.8254 0
M  V30 9045 H 870.795 -3.77403 5.99143 0
M  V30 9046 H 871.203 -3.71424 4.25094 0
M  V30 9047 N 870.601 -1.47988 -0.541979 0
M  V30 9048 C 871.511 -1.64276 -1.67483 0
M  V30 9049 C 872.527 -0.525387 -1.65879 0
M  V30 9050 O 873.703 -0.794912 -1.85049 0
M  V30 9051 C 870.768 -1.66744 -3.03969 0
M  V30 9052 C 869.829 -2.90021 -3.16522 0
M  V30 9053 C 869.062 -2.92362 -4.46498 0
M  V30 9054 O 869.285 -2.03462 -5.32878 0
M  V30 9055 O 868.219 -3.84399 -4.63164 0
M  V30 9056 H 872.045 -2.60164 -1.5668 0
M  V30 9057 H 869.63 -1.31249 -0.71372 0
M  V30 9058 H 871.512 -1.70958 -3.85164 0
M  V30 9059 H 870.187 -0.740277 -3.15122 0
M  V30 9060 H 869.094 -2.91345 -2.34667 0
M  V30 9061 H 870.427 -3.82082 -3.10281 0
M  V30 9062 N 872.079 0.78992 -1.36375 0
M  V30 9063 C 873.026 1.90254 -1.3066 0
M  V30 9064 C 873.996 1.65171 -0.17539 0
M  V30 9065 O 875.181 1.87338 -0.361824 0
M  V30 9066 C 872.321 3.27057 -1.10125 0
M  V30 9067 C 871.434 3.64215 -2.32317 0
M  V30 9068 C 870.569 4.90134 -2.04798 0
M  V30 9069 C 869.608 5.19969 -3.22953 0
M  V30 9070 N 868.745 6.37071 -2.95102 0
M  V30 9071 H 873.585 1.94474 -2.25796 0
M  V30 9072 H 871.122 0.951022 -1.12223 0
M  V30 9073 H 873.08 4.05947 -0.962453 0
M  V30 9074 H 871.71 3.22261 -0.186444 0
M  V30 9075 H 870.762 2.80454 -2.57002 0
M  V30 9076 H 872.074 3.82212 -3.20492 0
M  V30 9077 H 871.228 5.76888 -1.87845 0
M  V30 9078 H 869.967 4.74205 -1.13932 0
M  V30 9079 H 868.972 4.31699 -3.40465 0
M  V30 9080 H 870.197 5.37817 -4.14644 0
M  V30 9081 H 868.143 6.22535 -2.06848 0
M  V30 9082 H 868.06 6.55398 -3.76815 0
M  V30 9083 H 869.328 7.26808 -2.81727 0
M  V30 9084 N 873.557 1.20646 1.01402 0
M  V30 9085 C 874.834 0.927176 1.72229 0
M  V30 9086 C 875.214 -0.563382 2.03443 0
M  V30 9087 O 874.562 -1.52576 1.70096 0
M  V30 9088 C 874.772 1.80285 2.98828 0
M  V30 9089 C 876.12 2.04624 3.72041 0
M  V30 9090 O 877.144 1.77559 3.0879 0
M  V30 9091 O 876.003 2.50347 4.85787 0
M  V30 9092 H 873.097 0.346891 0.75073 0
M  V30 9093 H 875.643 1.31532 1.07227 0
M  V30 9094 H 874.415 2.81204 2.72102 0
M  V30 9095 H 874.038 1.41495 3.71571 0
M  V30 9096 N 875.035 -1.20752 1.01276 0
M  V30 9097 C 876.284 -1.8934 0.695229 0
M  V30 9098 C 876.597 -1.79459 -0.77806 0
M  V30 9099 O 877.803 -2.43146 -1.20799 0
M  V30 9100 C 876.259 -3.39548 1.1931 0
M  V30 9101 C 875.867 -3.58023 2.69302 0
M  V30 9102 C 877.611 -4.13714 0.950823 0
M  V30 9103 C 875.518 -5.02037 3.1259 0
M  V30 9104 H 874.448 -0.709084 0.25635 0
M  V30 9105 H 877.099 -1.36629 1.22494 0
M  V30 9106 H 875.481 -3.91559 0.591395 0
M  V30 9107 H 876.655 -3.16416 3.34989 0
M  V30 9108 H 874.97 -2.97222 2.9163 0
M  V30 9109 H 877.567 -5.19891 1.24971 0
M  V30 9110 H 877.91 -4.16147 -0.112791 0
M  V30 9111 H 878.443 -3.67792 1.51571 0
M  V30 9112 H 875.182 -5.04757 4.18211 0
M  V30 9113 H 874.702 -5.44469 2.51621 0
M  V30 9114 H 876.381 -5.70594 3.0501 0
M  V30 9115 N 876.513 -0.788492 -1.36457 0
M  V30 9116 C 877.445 -0.144208 -2.28746 0
M  V30 9117 C 878.458 0.646009 -1.49434 0
M  V30 9118 O 879.647 0.481344 -1.71888 0
M  V30 9119 C 876.747 0.818869 -3.28858 0
M  V30 9120 C 875.92 0.0789055 -4.37329 0
M  V30 9121 C 874.979 0.957791 -5.1741 0
M  V30 9122 O 874.005 0.415378 -5.67682 0
M  V30 9123 N 875.207 2.28216 -5.33758 0
M  V30 9124 H 877.972 -0.936949 -2.84678 0
M  V30 9125 H 875.533 -0.642317 -1.48613 0
M  V30 9126 H 877.525 1.41065 -3.79319 0
M  V30 9127 H 876.095 1.51249 -2.73573 0
M  V30 9128 H 875.315 -0.693939 -3.88044 0
M  V30 9129 H 876.603 -0.431753 -5.06965 0
M  V30 9130 H 876.001 2.747 -4.94527 0
M  V30 9131 H 874.558 2.8236 -5.87466 0
M  V30 9132 N 877.991 1.48044 -0.54043 0
M  V30 9133 C 878.954 2.28273 0.205966 0
M  V30 9134 C 879.954 1.35983 0.858209 0
M  V30 9135 O 881.144 1.58776 0.716651 0
M  V30 9136 C 878.276 3.15174 1.29917 0
M  V30 9137 H 879.469 2.95727 -0.498555 0
M  V30 9138 H 877.022 1.53457 -0.296745 0
M  V30 9139 H 877.757 2.52374 2.03661 0
M  V30 9140 H 877.542 3.83074 0.836475 0
M  V30 9141 H 879.032 3.75666 1.82387 0
M  V30 9142 N 879.47 0.276058 1.55163 0
M  V30 9143 C 880.42 -0.625549 2.19251 0
M  V30 9144 C 881.404 -1.11769 1.15744 0
M  V30 9145 O 882.596 -1.0626 1.41555 0
M  V30 9146 C 879.725 -1.80879 2.91784 0
M  V30 9147 C 878.811 -1.33379 4.0258 0
M  V30 9148 N 879.202 -0.575002 5.02521 0
M  V30 9149 C 877.5 -1.61666 4.15668 0
M  V30 9150 C 878.201 -0.325164 5.8079 0
M  V30 9151 N 877.177 -0.897851 5.36134 0
M  V30 9152 H 880.979 -0.0379943 2.93875 0
M  V30 9153 H 878.493 0.079661 1.62205 0
M  V30 9154 H 880.49 -2.466 3.36146 0
M  V30 9155 H 879.15 -2.40028 2.1867 0
M  V30 9156 H 880.161 -0.222256 5.17423 0
M  V30 9157 H 876.838 -2.21745 3.53745 0
M  V30 9158 H 878.228 0.282598 6.71305 0
M  V30 9159 N 880.948 -1.576 0.00335426 0
M  V30 9160 C 881.895 -2.08632 -0.986975 0
M  V30 9161 C 882.865 -0.982491 -1.33927 0
M  V30 9162 O 884.05 -1.25513 -1.43705 0
M  V30 9163 C 881.19 -2.59705 -2.27261 0
M  V30 9164 C 880.303 -3.84002 -1.97905 0
M  V30 9165 C 879.438 -4.23563 -3.20574 0
M  V30 9166 C 878.477 -5.40688 -2.8692 0
M  V30 9167 N 877.614 -5.75526 -4.02136 0
M  V30 9168 H 882.454 -2.92977 -0.544855 0
M  V30 9169 H 879.991 -1.44831 -0.257376 0
M  V30 9170 H 881.949 -2.87395 -3.02423 0
M  V30 9171 H 880.579 -1.7823 -2.69136 0
M  V30 9172 H 879.631 -3.63199 -1.13096 0
M  V30 9173 H 880.943 -4.69261 -1.69102 0
M  V30 9174 H 880.097 -4.52554 -4.04079 0
M  V30 9175 H 878.836 -3.37019 -3.52518 0
M  V30 9176 H 877.841 -5.11417 -2.01822 0
M  V30 9177 H 879.066 -6.2891 -2.5622 0
M  V30 9178 H 877.012 -4.9194 -4.33971 0
M  V30 9179 H 876.929 -6.55367 -3.76869 0
M  V30 9180 H 878.197 -6.0911 -4.8642 0
M  V30 9181 N 882.426 0.269451 -1.5528 0
M  V30 9182 C 883.673 1.00058 -1.76053 0
M  V30 9183 C 884.001 1.86156 -0.563592 0
M  V30 9184 O 883.256 1.90366 0.453806 0
M  V30 9185 C 883.555 1.91 -3.02082 0
M  V30 9186 C 883.221 1.20623 -4.34466 0
M  V30 9187 C 881.883 1.01165 -4.70446 0
M  V30 9188 C 884.235 0.705695 -5.164 0
M  V30 9189 C 881.563 0.303865 -5.85913 0
M  V30 9190 C 883.915 0.0114838 -6.32599 0
M  V30 9191 C 882.579 -0.19478 -6.67216 0
M  V30 9192 H 881.849 0.366138 -0.644223 0
M  V30 9193 H 884.496 0.272563 -1.8955 0
M  V30 9194 H 882.801 2.70435 -2.835 0
M  V30 9195 H 884.498 2.47698 -3.15352 0
M  V30 9196 H 881.088 1.36781 -4.06188 0
M  V30 9197 H 885.272 0.84364 -4.89077 0
M  V30 9198 H 880.528 0.133368 -6.11255 0
M  V30 9199 H 884.702 -0.384111 -6.9534 0
M  V30 9200 H 882.329 -0.745201 -7.56539 0
M  V30 9201 N 883.904 1.48273 0.534124 0
M  V30 9202 C 885.153 1.55334 1.28663 0
M  V30 9203 C 885.466 0.230345 1.94239 0
M  V30 9204 O 886.672 0.179161 2.70908 0
M  V30 9205 C 885.128 2.73927 2.33435 0
M  V30 9206 C 884.736 4.12852 1.73947 0
M  V30 9207 C 886.48 2.90298 3.09722 0
M  V30 9208 C 884.387 5.22711 2.76636 0
M  V30 9209 H 883.317 0.578262 0.483869 0
M  V30 9210 H 885.968 1.74598 0.564602 0
M  V30 9211 H 884.35 2.48089 3.08655 0
M  V30 9212 H 885.524 4.48691 1.04944 0
M  V30 9213 H 883.839 4.01562 1.10167 0
M  V30 9214 H 886.436 3.69542 3.86449 0
M  V30 9215 H 886.779 1.99598 3.6533 0
M  V30 9216 H 887.312 3.16017 2.41616 0
M  V30 9217 H 884.051 6.15362 2.25852 0
M  V30 9218 H 883.571 4.91364 3.43979 0
M  V30 9219 H 885.25 5.50648 3.39699 0
M  V30 9220 N 885.382 -0.782676 1.36792 0
M  V30 9221 C 886.292 -1.92679 1.33835 0
M  V30 9222 C 887.308 -1.72344 0.23952 0
M  V30 9223 O 888.484 -1.95766 0.473045 0
M  V30 9224 C 885.549 -3.27644 1.1336 0
M  V30 9225 C 884.61 -3.6071 2.32781 0
M  V30 9226 C 883.843 -4.89234 2.13273 0
M  V30 9227 O 884.066 -5.59468 1.11136 0
M  V30 9228 O 883 -5.21112 3.01208 0
M  V30 9229 H 886.826 -1.98124 2.30175 0
M  V30 9230 H 884.411 -0.923887 1.17408 0
M  V30 9231 H 886.293 -4.08394 1.03886 0
M  V30 9232 H 884.968 -3.23076 0.200868 0
M  V30 9233 H 883.875 -2.80238 2.47825 0
M  V30 9234 H 885.208 -3.70008 3.24584 0
M  V30 9235 N 886.86 -1.21182 -1.00761 0
M  V30 9236 C 887.823 -0.970339 -2.07646 0
M  V30 9237 C 888.823 0.0576345 -1.60697 0
M  V30 9238 O 890.013 -0.179369 -1.73274 0
M  V30 9239 C 887.145 -0.462703 -3.37745 0
M  V30 9240 H 888.338 -1.91856 -2.30502 0
M  V30 9241 H 885.891 -1.02844 -1.17698 0
M  V30 9242 H 886.626 0.490559 -3.20568 0
M  V30 9243 H 886.411 -1.20416 -3.73152 0
M  V30 9244 H 887.901 -0.313531 -4.16421 0
M  V30 9245 N 888.338 1.20213 -1.01915 0
M  V30 9246 C 889.586 1.89272 -0.708552 0
M  V30 9247 C 889.907 1.79394 0.76438 0
M  V30 9248 O 889.177 1.198 1.54999 0
M  V30 9249 H 887.757 0.700628 -0.259094 0
M  V30 9250 H 890.419 1.45985 -1.29129 0
M  V30 9251 H 889.515 2.95841 -0.994215 0
M  V30 9252 N 889.816 0.795718 1.36037 0
M  V30 9253 C 890.748 0.156336 2.28666 0
M  V30 9254 C 891.761 -0.638075 1.49775 0
M  V30 9255 O 892.95 -0.472222 1.7214 0
M  V30 9256 C 890.05 -0.801417 3.29288 0
M  V30 9257 C 889.223 -0.0557118 4.37365 0
M  V30 9258 C 888.282 -0.930338 5.1791 0
M  V30 9259 O 887.308 -0.385266 5.67895 0
M  V30 9260 N 888.51 -2.25382 5.34961 0
M  V30 9261 H 891.275 0.952033 2.84177 0
M  V30 9262 H 888.836 0.650189 1.48271 0
M  V30 9263 H 890.828 -1.39051 3.80062 0
M  V30 9264 H 889.398 -1.49796 2.74372 0
M  V30 9265 H 888.618 0.714508 3.87671 0
M  V30 9266 H 889.906 0.458633 5.06729 0
M  V30 9267 H 889.304 -2.72073 4.95977 0
M  V30 9268 H 887.861 -2.79241 5.88955 0
M  V30 9269 N 891.294 -1.47756 0.548274 0
M  V30 9270 C 892.524 -2.06584 0.0254503 0
M  V30 9271 C 892.932 -1.40268 -1.26971 0
M  V30 9272 O 892.275 -0.49019 -1.77039 0
M  V30 9273 C 892.337 -3.58628 -0.250301 0
M  V30 9274 C 892.001 -4.4693 0.954087 0
M  V30 9275 C 892.998 -4.85592 1.85733 0
M  V30 9276 C 890.683 -4.88573 1.16624 0
M  V30 9277 C 892.677 -5.64686 2.95648 0
M  V30 9278 C 890.364 -5.67435 2.2685 0
M  V30 9279 C 891.362 -6.05401 3.16194 0
M  V30 9280 O 891.05 -6.82676 4.24511 0
M  V30 9281 H 890.782 -0.67489 0.0387264 0
M  V30 9282 H 893.336 -1.90876 0.758663 0
M  V30 9283 H 891.566 -3.72516 -1.03771 0
M  V30 9284 H 893.255 -3.9951 -0.717419 0
M  V30 9285 H 894.021 -4.54026 1.70544 0
M  V30 9286 H 889.9 -4.58494 0.480039 0
M  V30 9287 H 893.444 -5.9424 3.65411 0
M  V30 9288 H 889.341 -5.98413 2.42016 0
M  V30 9289 H 890.109 -7.01057 4.22447 0
M  V30 9290 N 892.772 -0.284283 -1.55015 0
M  V30 9291 C 893.72 0.615091 -2.2432 0
M  V30 9292 C 894.714 1.15051 -1.24337 0
M  V30 9293 O 895.92 1.10308 -1.4224 0
M  V30 9294 H 892.295 0.216927 -0.720033 0
M  V30 9295 H 894.266 0.00783216 -2.98399 0
M  V30 9296 C 893.015 1.78355 -2.98471 0
M  V30 9297 H 892.338 1.38076 -3.752 0
M  V30 9298 H 893.778 2.38927 -3.50271 0
M  V30 9299 C 892.237 2.67757 -2.04469 0
M  V30 9300 O 892.767 3.6838 -1.60185 0
M  V30 9301 N 890.973 2.35125 -1.70776 0
M  V30 9302 H 890.52 1.53346 -2.06985 0
M  V30 9303 H 890.478 2.95212 -1.08153 0
M  V30 9304 N 894.251 1.57596 -0.0117121 0
M  V30 9305 C 895.476 1.95764 0.684938 0
M  V30 9306 C 895.901 0.887285 1.65858 0
M  V30 9307 O 895.259 -0.153508 1.80649 0
M  V30 9308 C 895.307 3.33031 1.38285 0
M  V30 9309 O 894.411 3.28163 2.49765 0
M  V30 9310 H 893.752 0.638767 0.181309 0
M  V30 9311 H 896.282 2.04486 -0.0683883 0
M  V30 9312 H 896.292 3.68866 1.74362 0
M  V30 9313 H 894.967 4.10483 0.669043 0
M  V30 9314 H 893.544 3.04021 2.15929 0
M  V30 9315 N 895.729 -0.261212 1.5542 0
M  V30 9316 C 896.679 -1.32571 1.85496 0
M  V30 9317 C 897.663 -1.44155 0.714722 0
M  V30 9318 O 898.855 -1.47637 0.976336 0
M  V30 9319 C 895.984 -2.68384 2.14067 0
M  V30 9320 C 895.07 -2.60864 3.34381 0
M  V30 9321 N 895.461 -2.22967 4.54004 0
M  V30 9322 C 893.759 -2.91904 3.37206 0
M  V30 9323 C 894.46 -2.25727 5.36118 0
M  V30 9324 N 893.436 -2.64667 4.74818 0
M  V30 9325 H 897.238 -1.02298 2.75522 0
M  V30 9326 H 894.752 -0.469849 1.55455 0
M  V30 9327 H 896.749 -3.45189 2.33774 0
M  V30 9328 H 895.409 -2.99536 1.25332 0
M  V30 9329 H 896.42 -1.94748 4.79889 0
M  V30 9330 H 893.097 -3.2769 2.587 0
M  V30 9331 H 894.487 -1.98889 6.41789 0
M  V30 9332 N 897.207 -1.48554 -0.526253 0
M  V30 9333 C 898.137 -1.66252 -1.63959 0
M  V30 9334 C 899.118 -0.511351 -1.62232 0
M  V30 9335 O 900.303 -0.744322 -1.7937 0
M  V30 9336 C 897.433 -1.70556 -3.02536 0
M  V30 9337 C 896.387 -2.8521 -3.19123 0
M  V30 9338 C 895.713 -2.74606 -4.58798 0
M  V30 9339 C 897.013 -4.26463 -3.0154 0
M  V30 9340 H 898.707 -2.59459 -1.49404 0
M  V30 9341 H 896.253 -1.24862 -0.717326 0
M  V30 9342 H 898.206 -1.81524 -3.80298 0
M  V30 9343 H 896.93 -0.739297 -3.18123 0
M  V30 9344 H 895.589 -2.73802 -2.43779 0
M  V30 9345 H 895.237 -1.75941 -4.71226 0
M  V30 9346 H 894.937 -3.51544 -4.70841 0
M  V30 9347 H 896.461 -2.87548 -5.38655 0
M  V30 9348 H 897.875 -4.38685 -3.69091 0
M  V30 9349 H 896.272 -5.04428 -3.25073 0
M  V30 9350 H 897.342 -4.42667 -1.97925 0
M  V30 9351 N 898.685 0.775411 -1.37205 0
M  V30 9352 C 899.915 1.56219 -1.352 0
M  V30 9353 C 900.323 1.89087 0.065456 0
M  V30 9354 O 899.666 1.51655 1.03665 0
M  V30 9355 C 899.728 2.9019 -2.12203 0
M  V30 9356 C 899.392 2.79978 -3.61195 0
M  V30 9357 C 900.389 2.51258 -4.55154 0
M  V30 9358 C 898.074 2.98115 -4.04268 0
M  V30 9359 C 900.068 2.40798 -5.90165 0
M  V30 9360 C 897.755 2.87276 -5.39366 0
M  V30 9361 C 898.753 2.58657 -6.32128 0
M  V30 9362 O 898.441 2.47838 -7.64743 0
M  V30 9363 H 898.173 0.490735 -0.464925 0
M  V30 9364 H 900.727 0.969201 -1.81096 0
M  V30 9365 H 898.957 3.51594 -1.60992 0
M  V30 9366 H 900.646 3.51561 -2.02879 0
M  V30 9367 H 901.412 2.36935 -4.23186 0
M  V30 9368 H 897.291 3.19392 -3.3243 0
M  V30 9369 H 900.835 2.18381 -6.62537 0
M  V30 9370 H 896.732 3.01166 -5.70937 0
M  V30 9371 H 897.5 2.63215 -7.75023 0
M  V30 9372 N 900.163 1.21714 1.00117 0
M  V30 9373 C 901.411 1.03465 1.73607 0
M  V30 9374 C 901.732 -0.432295 1.90148 0
M  V30 9375 O 901.002 -1.31157 1.45515 0
M  V30 9376 H 899.582 0.379857 0.643209 0
M  V30 9377 H 902.244 1.53088 1.20624 0
M  V30 9378 H 901.34 1.50574 2.73375 0
M  V30 9379 N 901.641 -1.19671 1.02551 0
M  V30 9380 C 902.869 -1.93233 0.739513 0
M  V30 9381 C 903.284 -1.75298 -0.701158 0
M  V30 9382 O 902.641 -1.07269 -1.47647 0
M  V30 9383 C 902.692 -3.45085 1.07697 0
M  V30 9384 O 902.413 -3.62441 2.46106 0
M  V30 9385 C 903.914 -4.35776 0.813298 0
M  V30 9386 H 901.134 -0.613905 0.270853 0
M  V30 9387 H 903.678 -1.51909 1.36909 0
M  V30 9388 H 901.833 -3.84255 0.492635 0
M  V30 9389 H 902.247 -4.56337 2.58567 0
M  V30 9390 H 903.721 -5.40941 1.09941 0
M  V30 9391 H 904.198 -4.38474 -0.252359 0
M  V30 9392 H 904.804 -4.02282 1.38021 0
M  V30 9393 N 903.119 -0.802921 -1.35613 0
M  V30 9394 C 904.344 -0.392846 -2.03645 0
M  V30 9395 C 904.769 0.987075 -1.6012 0
M  V30 9396 O 904.127 1.63849 -0.776101 0
M  V30 9397 C 904.175 -0.480208 -3.57388 0
M  V30 9398 O 903.279 0.507751 -4.09262 0
M  V30 9399 H 902.62 -0.16464 -0.643265 0
M  V30 9400 H 905.15 -1.08779 -1.73287 0
M  V30 9401 H 905.16 -0.348683 -4.06507 0
M  V30 9402 H 903.835 -1.48675 -3.88418 0
M  V30 9403 H 902.412 0.336769 -3.71376 0
M  V30 9404 N 904.597 1.47463 -0.556102 0
M  V30 9405 C 905.843 2.02775 -0.0316806 0
M  V30 9406 C 906.176 1.42967 1.3143 0
M  V30 9407 O 905.451 0.584847 1.85499 0
M  V30 9408 C 905.734 3.60046 0.0625742 0
M  V30 9409 C 905.587 4.30288 -1.31043 0
M  V30 9410 C 906.906 4.33195 0.776553 0
M  V30 9411 H 904.025 0.736886 -0.0129869 0
M  V30 9412 H 906.667 1.75904 -0.718177 0
M  V30 9413 H 904.817 3.83071 0.647231 0
M  V30 9414 H 906.489 4.18607 -1.9382 0
M  V30 9415 H 904.732 3.90685 -1.8854 0
M  V30 9416 H 905.403 5.38861 -1.1972 0
M  V30 9417 H 907.879 4.15156 0.280147 0
M  V30 9418 H 906.755 5.42869 0.81146 0
M  V30 9419 H 907.016 4.02336 1.83244 0
M  V30 9420 N 906.075 0.2925 1.54862 0
M  V30 9421 C 907.007 -0.620889 2.2063 0
M  V30 9422 C 908.02 -1.10412 1.19637 0
M  V30 9423 O 909.209 -1.02304 1.46274 0
M  V30 9424 C 906.309 -1.861 2.83232 0
M  V30 9425 C 905.482 -1.52168 4.10078 0
M  V30 9426 C 904.541 -2.61605 4.56562 0
M  V30 9427 O 903.567 -2.27056 5.21952 0
M  V30 9428 N 904.769 -3.9199 4.28163 0
M  V30 9429 H 907.534 -0.0579028 2.99644 0
M  V30 9430 H 905.095 0.114333 1.61496 0
M  V30 9431 H 907.087 -2.58642 3.11266 0
M  V30 9432 H 905.657 -2.33259 2.08108 0
M  V30 9433 H 904.877 -0.629283 3.89145 0
M  V30 9434 H 906.165 -1.27023 4.92689 0
M  V30 9435 H 905.563 -4.22872 3.7576 0
M  V30 9436 H 904.12 -4.60857 4.60928 0
M  V30 9437 N 907.553 -1.57587 0.0200696 0
M  V30 9438 C 908.778 -1.96124 -0.674547 0
M  V30 9439 C 909.203 -0.896068 -1.65385 0
M  V30 9440 O 908.561 0.143925 -1.80728 0
M  V30 9441 C 908.609 -3.3376 -1.36517 0
M  V30 9442 O 907.713 -3.29483 -2.48022 0
M  V30 9443 H 907.054 -0.639719 -0.177919 0
M  V30 9444 H 909.584 -2.04447 0.0792317 0
M  V30 9445 H 909.594 -3.69785 -1.72403 0
M  V30 9446 H 908.269 -4.10832 -0.647265 0
M  V30 9447 H 906.846 -3.05162 -2.14314 0
M  V30 9448 N 909.032 0.252966 -1.55557 0
M  V30 9449 C 910.278 0.983306 -1.77367 0
M  V30 9450 C 910.611 1.85203 -0.584258 0
M  V30 9451 O 909.886 1.89963 0.417644 0
M  V30 9452 C 910.169 1.84896 -3.09007 0
M  V30 9453 C 910.022 1.00883 -4.38341 0
M  V30 9454 C 911.341 2.83254 -3.36831 0
M  V30 9455 H 908.46 0.356056 -0.645286 0
M  V30 9456 H 911.102 0.254232 -1.88291 0
M  V30 9457 H 909.252 2.47058 -2.99825 0
M  V30 9458 H 910.924 0.40638 -4.59507 0
M  V30 9459 H 909.167 0.31297 -4.3267 0
M  V30 9460 H 909.838 1.64818 -5.2682 0
M  V30 9461 H 912.314 2.31228 -3.45937 0
M  V30 9462 H 911.19 3.40949 -4.30169 0
M  V30 9463 H 911.451 3.59407 -2.57447 0
M  V30 9464 N 910.51 1.48831 0.518367 0
M  V30 9465 C 911.926 1.35209 0.847979 0
M  V30 9466 C 912.126 0.371927 1.98038 0
M  V30 9467 O 911.182 -0.202681 2.51685 0
M  V30 9468 C 912.495 2.7552 1.20455 0
M  V30 9469 C 914.043 2.84094 1.31377 0
M  V30 9470 C 914.518 4.25132 1.70372 0
M  V30 9471 N 916.009 4.27861 1.77453 0
M  V30 9472 C 916.744 5.3394 2.09035 0
M  V30 9473 N 916.24 6.50285 2.3896 0
M  V30 9474 N 918.033 5.21343 2.10139 0
M  V30 9475 H 910.184 2.11166 -0.228624 0
M  V30 9476 H 912.447 0.94717 -0.0396599 0
M  V30 9477 H 912.153 3.48861 0.445991 0
M  V30 9478 H 912.027 3.09785 2.15204 0
M  V30 9479 H 914.414 2.11001 2.06307 0
M  V30 9480 H 914.495 2.53433 0.347203 0
M  V30 9481 H 914.139 4.98745 0.959975 0
M  V30 9482 H 914.069 4.53245 2.68098 0
M  V30 9483 H 916.56 3.43945 1.56557 0
M  V30 9484 H 916.873 7.26961 2.62196 0
M  V30 9485 H 915.218 6.5354 2.36454 0
M  V30 9486 H 918.409 4.29462 1.86225 0
M  V30 9487 H 918.582 6.04112 2.34419 0
M  V30 9488 N 911.988 -0.768124 1.37614 0
M  V30 9489 C 912.898 -1.91249 1.35871 0
M  V30 9490 C 913.914 -1.7208 0.257786 0
M  V30 9491 O 915.09 -1.95253 0.493782 0
M  V30 9492 C 912.155 -3.26423 1.16829 0
M  V30 9493 C 911.216 -3.5822 2.36594 0
M  V30 9494 C 910.449 -4.86945 2.1845 0
M  V30 9495 O 910.672 -5.58258 1.17064 0
M  V30 9496 O 909.606 -5.17888 3.06718 0
M  V30 9497 H 913.432 -1.95671 2.32264 0
M  V30 9498 H 911.017 -0.911382 1.18382 0
M  V30 9499 H 912.899 -4.07269 1.08212 0
M  V30 9500 H 911.574 -3.22845 0.235123 0
M  V30 9501 H 910.481 -2.77594 2.50783 0
M  V30 9502 H 911.814 -3.66545 3.2849 0
M  V30 9503 N 913.466 -1.22244 -0.994698 0
M  V30 9504 C 914.712 -1.04746 -1.73655 0
M  V30 9505 C 915.045 0.41668 -1.89677 0
M  V30 9506 O 914.32 1.30897 -1.43862 0
M  V30 9507 C 914.603 -1.75716 -3.14318 0
M  V30 9508 C 914.456 -3.29714 -3.05955 0
M  V30 9509 C 915.775 -1.50809 -4.13455 0
M  V30 9510 H 912.894 -0.381921 -0.630322 0
M  V30 9511 H 915.536 -1.50559 -1.15897 0
M  V30 9512 H 913.686 -1.3677 -3.63629 0
M  V30 9513 H 915.358 -3.78093 -2.64279 0
M  V30 9514 H 913.601 -3.59484 -2.42804 0
M  V30 9515 H 914.272 -3.74547 -4.05485 0
M  V30 9516 H 916.748 -1.84636 -3.72892 0
M  V30 9517 H 915.624 -2.02964 -5.09997 0
M  V30 9518 H 915.885 -0.440292 -4.39902 0
M  V30 9519 N 914.944 1.19125 -1.03184 0
M  V30 9520 C 915.907 2.20662 -0.619766 0
M  V30 9521 C 916.907 1.57621 0.318179 0
M  V30 9522 O 918.097 1.73885 0.104783 0
M  V30 9523 C 915.229 3.40774 0.0926696 0
M  V30 9524 H 916.422 2.58633 -1.5182 0
M  V30 9525 H 913.975 1.32855 -0.823364 0
M  V30 9526 H 914.71 3.08324 1.00531 0
M  V30 9527 H 914.495 3.87766 -0.581344 0
M  V30 9528 H 915.985 4.15977 0.367792 0
M  V30 9529 N 916.422 0.810101 1.35185 0
M  V30 9530 C 917.332 0.224565 2.33523 0
M  V30 9531 C 918.348 -0.634287 1.62027 0
M  V30 9532 O 919.524 -0.545211 1.9388 0
M  V30 9533 C 916.589 -0.614319 3.41214 0
M  V30 9534 C 915.65 0.265435 4.28479 0
M  V30 9535 C 914.883 -0.533506 5.31027 0
M  V30 9536 O 915.106 -1.7679 5.42311 0
M  V30 9537 O 914.04 0.0774573 6.0185 0
M  V30 9538 H 917.866 1.03815 2.85405 0
M  V30 9539 H 915.451 0.571964 1.38018 0
M  V30 9540 H 917.333 -1.09201 4.07005 0
M  V30 9541 H 916.008 -1.40545 2.91597 0
M  V30 9542 H 914.915 0.790343 3.65656 0
M  V30 9543 H 916.248 1.0206 4.81503 0
M  V30 9544 N 917.9 -1.47166 0.563914 0
M  V30 9545 C 918.832 -2.28165 -0.217583 0
M  V30 9546 C 919.845 -1.37405 -0.873134 0
M  V30 9547 O 921.034 -1.6217 -0.745857 0
M  V30 9548 C 918.134 -3.11873 -1.32621 0
M  V30 9549 C 917.307 -4.30637 -0.766177 0
M  V30 9550 C 916.366 -4.95889 -1.76014 0
M  V30 9551 O 915.392 -5.54071 -1.3036 0
M  V30 9552 N 916.594 -4.91191 -3.09373 0
M  V30 9553 H 919.359 -2.95876 0.477256 0
M  V30 9554 H 916.92 -1.5687 0.40043 0
M  V30 9555 H 918.912 -3.52392 -1.99003 0
M  V30 9556 H 917.482 -2.46361 -1.92419 0
M  V30 9557 H 916.702 -3.94129 0.0745998 0
M  V30 9558 H 917.99 -5.07442 -0.371472 0
M  V30 9559 H 917.388 -4.45133 -3.49104 0
M  V30 9560 H 915.945 -5.35708 -3.71295 0
M  V30 9561 N 919.378 -0.300708 -1.54705 0
M  V30 9562 C 920.626 0.308044 -1.99739 0
M  V30 9563 C 920.947 1.54433 -1.19061 0
M  V30 9564 O 920.217 1.93794 -0.286507 0
M  V30 9565 H 918.797 0.116811 -0.73781 0
M  V30 9566 H 921.459 -0.41197 -1.90496 0
M  V30 9567 H 920.555 0.580287 -3.06658 0
M  V30 9568 N 920.856 1.57574 -0.0284266 0
M  V30 9569 C 921.803 2.10176 0.953658 0
M  V30 9570 C 922.773 1.00367 1.32347 0
M  V30 9571 O 923.958 1.27783 1.4169 0
M  V30 9572 C 921.098 2.63287 2.231 0
M  V30 9573 C 920.211 3.87102 1.91771 0
M  V30 9574 C 919.346 4.28609 3.13795 0
M  V30 9575 C 918.385 5.45184 2.78282 0
M  V30 9576 N 917.522 5.81851 3.92929 0
M  V30 9577 H 922.362 2.93806 0.498176 0
M  V30 9578 H 919.899 1.45222 0.234302 0
M  V30 9579 H 921.857 2.9217 2.97813 0
M  V30 9580 H 920.487 1.82489 2.66266 0
M  V30 9581 H 919.539 3.64952 1.07303 0
M  V30 9582 H 920.851 4.71892 1.61615 0
M  V30 9583 H 920.005 4.58925 3.96829 0
M  V30 9584 H 918.744 3.42585 3.47112 0
M  V30 9585 H 917.749 5.14563 1.93661 0
M  V30 9586 H 918.974 6.32907 2.46182 0
M  V30 9587 H 916.92 4.98782 4.2609 0
M  V30 9588 H 916.837 6.6128 3.66395 0
M  V30 9589 H 918.105 6.16772 4.76669 0
M  V30 9590 N 922.334 -0.244713 1.55689 0
M  V30 9591 C 923.284 -1.30596 1.86892 0
M  V30 9592 C 924.268 -1.43388 0.729972 0
M  V30 9593 O 925.46 -1.46593 0.99194 0
M  V30 9594 C 922.589 -2.66099 2.16902 0
M  V30 9595 C 921.675 -2.57302 3.37129 0
M  V30 9596 N 922.066 -2.18139 4.56343 0
M  V30 9597 C 920.364 -2.88311 3.40283 0
M  V30 9598 C 921.065 -2.20028 5.38482 0
M  V30 9599 N 920.041 -2.59616 4.77599 0
M  V30 9600 H 923.843 -0.993699 2.76591 0
M  V30 9601 H 921.357 -0.453334 1.55944 0
M  V30 9602 H 923.354 -3.4269 2.37422 0
M  V30 9603 H 922.014 -2.9819 1.28502 0
M  V30 9604 H 923.025 -1.89647 4.81928 0
M  V30 9605 H 919.702 -3.24928 2.62161 0
M  V30 9606 H 921.092 -1.9207 6.43862 0
M  V30 9607 N 923.813 -1.49104 -0.510467 0
M  V30 9608 C 925.053 -1.59723 -1.27545 0
M  V30 9609 C 925.417 -0.273525 -1.90042 0
M  V30 9610 O 926.618 -0.254835 -2.67589 0
M  V30 9611 C 924.889 -2.71771 -2.3211 0
M  V30 9612 S 926.448 -3.02282 -3.18074 0
M  V30 9613 H 923.266 -0.563489 -0.433591 0
M  V30 9614 H 925.868 -1.86719 -0.579328 0
M  V30 9615 H 924.572 -3.66483 -1.84711 0
M  V30 9616 H 924.103 -2.46739 -3.06404 0
M  V30 9617 H 926.118 -2.43076 -4.32583 0
M  V30 9618 N 925.291 0.760815 -1.38019 0
M  V30 9619 C 926.54 1.51506 -1.3315 0
M  V30 9620 C 926.853 1.95444 0.0782124 0
M  V30 9621 O 928.059 2.70352 0.249418 0
M  V30 9622 C 926.515 2.73636 -2.33776 0
M  V30 9623 C 926.123 2.36753 -3.80332 0
M  V30 9624 C 927.867 3.51548 -2.37937 0
M  V30 9625 C 925.774 3.55451 -4.72661 0
M  V30 9626 H 924.704 0.568844 -0.494907 0
M  V30 9627 H 927.355 0.832343 -1.63537 0
M  V30 9628 H 925.737 3.43852 -1.96422 0
M  V30 9629 H 926.911 1.7425 -4.26584 0
M  V30 9630 H 925.226 1.71991 -3.7922 0
M  V30 9631 H 927.823 4.39791 -3.04119 0
M  V30 9632 H 928.166 3.9219 -1.39617 0
M  V30 9633 H 928.699 2.88339 -2.74054 0
M  V30 9634 H 925.438 3.19882 -5.7215 0
M  V30 9635 H 924.958 4.17022 -4.31107 0
M  V30 9636 H 926.637 4.22125 -4.90326 0
M  V30 9637 N 926.769 1.22769 0.988202 0
M  V30 9638 C 927.699 1.02627 2.09738 0
M  V30 9639 C 928.68 -0.0543211 1.70013 0
M  V30 9640 O 929.865 0.108811 1.93895 0
M  V30 9641 C 926.995 0.608302 3.41931 0
M  V30 9642 C 925.949 1.63536 3.95525 0
M  V30 9643 C 925.275 1.07308 5.23822 0
M  V30 9644 C 926.575 3.02649 4.25677 0
M  V30 9645 H 928.269 1.954 2.26847 0
M  V30 9646 H 925.815 0.940888 1.09011 0
M  V30 9647 H 927.768 0.454478 4.18942 0
M  V30 9648 H 926.492 -0.355095 3.24664 0
M  V30 9649 H 925.151 1.77704 3.20651 0
M  V30 9650 H 924.799 0.100894 5.02899 0
M  V30 9651 H 924.499 1.75925 5.60646 0
M  V30 9652 H 926.023 0.930938 6.03462 0
M  V30 9653 H 927.437 2.91828 4.93467 0
M  V30 9654 H 925.834 3.68434 4.73684 0
M  V30 9655 H 926.904 3.52228 3.33262 0
M  V30 9656 N 928.247 -1.18576 1.03814 0
M  V30 9657 C 929.524 -1.8433 0.654358 0
M  V30 9658 C 929.904 -1.92504 -0.866338 0
M  V30 9659 O 929.252 -1.44904 -1.76678 0
M  V30 9660 C 929.462 -3.22778 1.32723 0
M  V30 9661 C 930.81 -3.98841 1.45641 0
M  V30 9662 O 931.834 -3.32209 1.28514 0
M  V30 9663 O 930.693 -5.18219 1.73526 0
M  V30 9664 H 927.787 -0.794766 0.228638 0
M  V30 9665 H 930.333 -1.25989 1.13687 0
M  V30 9666 H 929.105 -3.11717 2.36534 0
M  V30 9667 H 928.728 -3.88772 0.833176 0
M  V30 9668 N 929.725 -0.817259 -1.34754 0
M  V30 9669 C 930.971 -0.403244 -1.98751 0
M  V30 9670 C 931.304 1.02963 -1.64658 0
M  V30 9671 O 930.579 1.71617 -0.915314 0
M  V30 9672 C 930.862 -0.599188 -3.5508 0
M  V30 9673 C 930.715 -2.07777 -3.98934 0
M  V30 9674 C 932.034 -0.0315656 -4.40089 0
M  V30 9675 H 929.153 -0.147988 -0.721989 0
M  V30 9676 H 931.795 -1.02877 -1.59738 0
M  V30 9677 H 929.945 -0.0667116 -3.88443 0
M  V30 9678 H 931.617 -2.67345 -3.75931 0
M  V30 9679 H 929.86 -2.57031 -3.49453 0
M  V30 9680 H 930.531 -2.16571 -5.07741 0
M  V30 9681 H 933.007 -0.48644 -4.13247 0
M  V30 9682 H 931.883 -0.198507 -5.48541 0
M  V30 9683 H 932.144 1.06302 -4.2913 0
M  V30 9684 N 931.203 1.46865 -0.571711 0
M  V30 9685 C 932.428 2.07323 -0.0564655 0
M  V30 9686 C 932.853 1.41938 1.23431 0
M  V30 9687 O 932.211 0.499334 1.74288 0
M  V30 9688 C 932.259 3.6044 0.107339 0
M  V30 9689 O 931.363 3.95558 1.1665 0
M  V30 9690 H 930.704 0.661475 -0.0578465 0
M  V30 9691 H 933.234 1.88669 -0.791524 0
M  V30 9692 H 933.244 4.06767 0.316987 0
M  V30 9693 H 931.919 4.07425 -0.835348 0
M  V30 9694 H 930.496 3.60957 0.936189 0
M  V30 9695 N 932.681 0.308908 1.54543 0
M  V30 9696 C 933.644 -0.550857 2.22482 0
M  V30 9697 C 934.644 -1.0551 1.21344 0
M  V30 9698 O 935.834 -0.949866 1.46025 0
M  V30 9699 C 932.966 -1.76354 2.9174 0
M  V30 9700 H 934.159 0.0428395 2.99869 0
M  V30 9701 H 931.712 0.059825 1.56185 0
M  V30 9702 H 932.447 -2.39686 2.18451 0
M  V30 9703 H 932.232 -1.40954 3.65889 0
M  V30 9704 H 933.722 -2.37417 3.43545 0
M  V30 9705 N 934.159 -1.57557 0.0367827 0
M  V30 9706 C 935.107 -2.11844 -0.960454 0
M  V30 9707 C 936.101 -1.04681 -1.33185 0
M  V30 9708 O 937.307 -1.23108 -1.31318 0
M  V30 9709 H 933.682 -0.676921 -0.32754 0
M  V30 9710 H 935.653 -2.94557 -0.477346 0
M  V30 9711 C 934.402 -2.66683 -2.23105 0
M  V30 9712 H 933.725 -3.48795 -1.95403 0
M  V30 9713 H 935.165 -3.08305 -2.91074 0
M  V30 9714 C 933.624 -1.59782 -2.96599 0
M  V30 9715 O 934.154 -1.00214 -3.88999 0
M  V30 9716 N 932.36 -1.31644 -2.59072 0
M  V30 9717 H 931.907 -1.80272 -1.8401 0
M  V30 9718 H 931.865 -0.603457 -3.08554 0
M  V30 9719 N 935.637 0.236453 -1.55816 0
M  V30 9720 C 936.6 1.27633 -1.90375 0
M  V30 9721 C 937.6 1.40557 -0.781048 0
M  V30 9722 O 938.79 1.39078 -1.04895 0
M  V30 9723 C 935.922 2.65247 -2.14142 0
M  V30 9724 H 937.115 0.982019 -2.83366 0
M  V30 9725 H 934.668 0.476215 -1.48869 0
M  V30 9726 H 935.403 2.99801 -1.23653 0
M  V30 9727 H 935.188 2.57246 -2.95917 0
M  V30 9728 H 936.678 3.40313 -2.42026 0
M  V30 9729 N 937.115 1.49373 0.502552 0
M  V30 9730 C 938.361 1.59016 1.25864 0
M  V30 9731 C 938.694 0.27532 1.92238 0
M  V30 9732 O 937.969 -0.720988 1.80643 0
M  V30 9733 C 938.252 2.74828 2.32683 0
M  V30 9734 C 938.105 4.16102 1.7082 0
M  V30 9735 C 939.424 2.86288 3.34256 0
M  V30 9736 H 936.543 0.578798 0.456248 0
M  V30 9737 H 939.185 1.81651 0.557032 0
M  V30 9738 H 937.335 2.5566 2.92524 0
M  V30 9739 H 939.007 4.46782 1.14818 0
M  V30 9740 H 937.25 4.21822 1.01238 0
M  V30 9741 H 937.921 4.93006 2.48292 0
M  V30 9742 H 940.397 3.03733 2.84404 0
M  V30 9743 H 939.273 3.69001 4.06362 0
M  V30 9744 H 939.534 1.95576 3.96488 0
M  V30 9745 N 938.594 -0.753485 1.38421 0
M  V30 9746 C 940.01 -1.05656 1.1962 0
M  V30 9747 C 940.21 -2.0145 0.0449443 0
M  V30 9748 O 939.266 -2.45039 -0.609253 0
M  V30 9749 C 940.579 -1.63655 2.52265 0
M  V30 9750 C 942.127 -1.75825 2.58949 0
M  V30 9751 C 942.602 -2.37236 3.91769 0
M  V30 9752 N 944.093 -2.44666 3.9331 0
M  V30 9753 C 944.828 -2.93077 4.92842 0
M  V30 9754 N 944.324 -3.41523 6.02772 0
M  V30 9755 N 946.117 -2.92118 4.80232 0
M  V30 9756 H 938.268 -0.117799 2.12073 0
M  V30 9757 H 940.531 -0.114889 0.941012 0
M  V30 9758 H 940.237 -1.00734 3.36965 0
M  V30 9759 H 940.111 -2.62715 2.70667 0
M  V30 9760 H 942.498 -2.37873 1.74644 0
M  V30 9761 H 942.579 -0.754693 2.44414 0
M  V30 9762 H 942.223 -1.75822 4.76497 0
M  V30 9763 H 942.153 -3.38233 4.03616 0
M  V30 9764 H 944.644 -2.10403 3.1391 0
M  V30 9765 H 944.957 -3.76919 6.74649 0
M  V30 9766 H 943.302 -3.3958 6.06391 0
M  V30 9767 H 946.493 -2.53582 3.93464 0
M  V30 9768 H 946.666 -3.29535 5.57952 0
M  V30 9769 N 940.072 -1.23292 -0.981677 0
M  V30 9770 C 941.488 -0.995295 -1.24764 0
M  V30 9771 C 941.688 0.304379 -1.99188 0
M  V30 9772 O 940.744 1.02414 -2.30798 0
M  V30 9773 C 942.057 -2.20135 -2.04844 0
M  V30 9774 C 943.605 -2.24612 -2.17988 0
M  V30 9775 C 944.08 -3.448 -3.01458 0
M  V30 9776 N 945.571 -3.45031 -3.09044 0
M  V30 9777 C 946.306 -4.34683 -3.7395 0
M  V30 9778 N 945.802 -5.34569 -4.4069 0
M  V30 9779 N 947.595 -4.22429 -3.70823 0
M  V30 9780 H 939.746 -2.06834 -0.483052 0
M  V30 9781 H 942.009 -0.906929 -0.276014 0
M  V30 9782 H 941.715 -3.14446 -1.57532 0
M  V30 9783 H 941.589 -2.21115 -3.05594 0
M  V30 9784 H 943.976 -1.30841 -2.64508 0
M  V30 9785 H 944.057 -2.27664 -1.16631 0
M  V30 9786 H 943.701 -4.38877 -2.55635 0
M  V30 9787 H 943.631 -3.38988 -4.02982 0
M  V30 9788 H 946.122 -2.72759 -2.61555 0
M  V30 9789 H 946.435 -5.99236 -4.87991 0
M  V30 9790 H 944.78 -5.3847 -4.39403 0
M  V30 9791 H 947.971 -3.43639 -3.17851 0
M  V30 9792 H 948.144 -4.92501 -4.21126 0
M  V30 9793 N 941.55 1.18024 -1.04442 0
M  V30 9794 C 942.48 2.23988 -0.659683 0
M  V30 9795 C 943.461 1.6669 0.338904 0
M  V30 9796 O 944.646 1.92971 0.21817 0
M  V30 9797 C 941.776 3.4729 -0.0257672 0
M  V30 9798 C 940.73 4.17362 -0.948299 0
M  V30 9799 C 940.056 5.34401 -0.17866 0
M  V30 9800 C 941.356 4.70435 -2.26909 0
M  V30 9801 H 943.05 2.56425 -1.54553 0
M  V30 9802 H 940.596 1.23256 -0.744575 0
M  V30 9803 H 942.549 4.20627 0.255131 0
M  V30 9804 H 941.273 3.14098 0.894981 0
M  V30 9805 H 939.932 3.45928 -1.21364 0
M  V30 9806 H 939.58 4.97458 0.744614 0
M  V30 9807 H 939.28 5.8222 -0.793294 0
M  V30 9808 H 940.804 6.10526 0.0951315 0
M  V30 9809 H 942.218 5.35447 -2.04864 0
M  V30 9810 H 940.615 5.28803 -2.83703 0
M  V30 9811 H 941.685 3.87653 -2.91296 0
M  V30 9812 N 943.028 0.824394 1.34319 0
M  V30 9813 C 943.96 0.204805 2.28283 0
M  V30 9814 C 944.973 -0.606162 1.51094 0
M  V30 9815 O 946.162 -0.435602 1.73103 0
M  V30 9816 C 943.262 -0.73139 3.30914 0
M  V30 9817 C 942.435 0.0370723 4.37384 0
M  V30 9818 C 941.494 -0.820272 5.19767 0
M  V30 9819 O 940.52 -0.264721 5.68584 0
M  V30 9820 N 941.722 -2.13984 5.39621 0
M  V30 9821 H 944.487 1.0121 2.82093 0
M  V30 9822 H 942.048 0.681494 1.46858 0
M  V30 9823 H 944.04 -1.30958 3.82926 0
M  V30 9824 H 942.61 -1.43943 2.77487 0
M  V30 9825 H 941.83 0.796578 3.86068 0
M  V30 9826 H 943.118 0.566014 5.05642 0
M  V30 9827 H 942.516 -2.61492 5.01636 0
M  V30 9828 H 941.073 -2.66685 5.94746 0
M  V30 9829 N 944.506 -1.46559 0.579492 0
M  V30 9830 C 945.469 -2.28739 -0.145371 0
M  V30 9831 C 946.469 -1.38211 -0.821854 0
M  V30 9832 O 947.659 -1.6062 -0.674302 0
M  V30 9833 C 944.791 -3.18507 -1.21515 0
M  V30 9834 H 945.984 -2.94301 0.576786 0
M  V30 9835 H 943.537 -1.52616 0.337327 0
M  V30 9836 H 944.272 -2.57685 -1.96899 0
M  V30 9837 H 944.057 -3.85157 -0.734616 0
M  V30 9838 H 945.547 -3.80369 -1.72363 0
M  V30 9839 N 945.984 -0.3171 -1.54377 0
M  V30 9840 C 946.947 0.53905 -2.22771 0
M  V30 9841 C 947.947 1.04865 -1.21901 0
M  V30 9842 O 949.137 0.942108 -1.46526 0
M  V30 9843 C 946.269 1.74804 -2.92671 0
M  V30 9844 H 947.462 -0.0587417 -2.99842 0
M  V30 9845 H 945.015 -0.068107 -1.56152 0
M  V30 9846 H 945.75 2.38524 -2.1972 0
M  V30 9847 H 945.535 1.39011 -3.66631 0
M  V30 9848 H 947.025 2.35592 -3.44799 0
M  V30 9849 N 947.462 1.57535 -0.0451378 0
M  V30 9850 C 948.412 2.07683 0.940829 0
M  V30 9851 C 949.396 0.9807 1.27558 0
M  V30 9852 O 950.588 1.2441 1.25901 0
M  V30 9853 C 947.717 2.62049 2.21778 0
M  V30 9854 C 946.803 3.78621 1.91068 0
M  V30 9855 N 947.194 4.88623 1.30694 0
M  V30 9856 C 945.492 3.87411 2.20972 0
M  V30 9857 C 946.193 5.69714 1.17478 0
M  V30 9858 N 945.169 5.17129 1.67566 0
M  V30 9859 H 948.971 2.90129 0.469267 0
M  V30 9860 H 946.485 1.61615 0.159472 0
M  V30 9861 H 948.482 2.96276 2.93302 0
M  V30 9862 H 947.142 1.81039 2.69546 0
M  V30 9863 H 948.153 5.08545 0.979907 0
M  V30 9864 H 944.83 3.17335 2.71302 0
M  V30 9865 H 946.22 6.68174 0.706574 0
M  V30 9866 N 948.94 -0.228186 1.55939 0
M  V30 9867 C 949.87 -1.28607 1.94891 0
M  V30 9868 C 950.851 -1.49236 0.816245 0
M  V30 9869 O 952.036 -1.61531 1.07803 0
M  V30 9870 C 949.166 -2.63719 2.25986 0
M  V30 9871 C 948.12 -2.57757 3.4168 0
M  V30 9872 C 947.446 -3.96837 3.58364 0
M  V30 9873 C 948.746 -2.13116 4.76843 0
M  V30 9874 H 950.44 -0.962531 2.83506 0
M  V30 9875 H 947.986 -0.461577 1.36402 0
M  V30 9876 H 949.939 -3.37878 2.51826 0
M  V30 9877 H 948.663 -2.97747 1.34217 0
M  V30 9878 H 947.322 -1.86055 3.15878 0
M  V30 9879 H 946.97 -4.28162 2.63982 0
M  V30 9880 H 946.67 -3.93731 4.36176 0
M  V30 9881 H 948.194 -4.72668 3.86545 0
M  V30 9882 H 949.608 -2.77015 5.01932 0
M  V30 9883 H 948.005 -2.21083 5.57891 0
M  V30 9884 H 949.075 -1.08326 4.72645 0
M  V30 9885 N 950.418 -1.49637 -0.494624 0
M  V30 9886 C 951.368 -1.63168 -1.59249 0
M  V30 9887 C 952.352 -0.487089 -1.5335 0
M  V30 9888 O 953.544 -0.74036 -1.60772 0
M  V30 9889 C 950.673 -1.70744 -2.97828 0
M  V30 9890 C 949.759 -2.90802 -3.08699 0
M  V30 9891 N 950.15 -4.14797 -2.89442 0
M  V30 9892 C 948.448 -2.88871 -3.39808 0
M  V30 9893 C 949.149 -4.95535 -3.04663 0
M  V30 9894 N 948.125 -4.29025 -3.33824 0
M  V30 9895 H 951.927 -2.56751 -1.43024 0
M  V30 9896 H 949.441 -1.46497 -0.700885 0
M  V30 9897 H 951.438 -1.78537 -3.76736 0
M  V30 9898 H 950.098 -0.783024 -3.15117 0
M  V30 9899 H 951.109 -4.44675 -2.6549 0
M  V30 9900 H 947.786 -2.05834 -3.63233 0
M  V30 9901 H 949.176 -6.0406 -2.94214 0
M  V30 9902 N 951.896 0.746133 -1.38819 0
M  V30 9903 C 953.307 1.32384 -1.31648 0
M  V30 9904 C 953.658 1.96185 0.0243086 0
M  V30 9905 O 952.783 1.95567 0.92641 0
M  V30 9906 C 953.378 2.40712 -2.38418 0
M  V30 9907 C 951.937 2.94185 -2.34803 0
M  V30 9908 C 951.084 1.67639 -2.20891 0
M  V30 9909 H 954.035 0.544457 -1.49068 0
M  V30 9910 H 954.056 3.20833 -2.04564 0
M  V30 9911 H 953.568 1.94247 -3.3599 0
M  V30 9912 H 951.669 3.44959 -1.40834 0
M  V30 9913 H 951.782 3.48057 -3.29231 0
M  V30 9914 H 950.146 1.9155 -1.67871 0
M  V30 9915 H 950.929 1.23242 -3.20416 0
M  V30 9916 N 953.375 1.23811 0.975125 0
M  V30 9917 C 954.624 1.06741 1.71141 0
M  V30 9918 C 954.937 -0.394986 1.9157 0
M  V30 9919 O 956.143 -0.685723 2.62698 0
M  V30 9920 C 954.599 1.86168 3.08009 0
M  V30 9921 C 954.207 3.36771 2.95448 0
M  V30 9922 C 955.951 1.77604 3.85561 0
M  V30 9923 C 953.858 4.0857 4.2758 0
M  V30 9924 H 952.788 0.395819 0.64175 0
M  V30 9925 H 955.439 1.47825 1.0872 0
M  V30 9926 H 953.821 1.37893 3.71216 0
M  V30 9927 H 954.995 3.92571 2.41298 0
M  V30 9928 H 953.31 3.46205 2.31368 0
M  V30 9929 H 955.907 2.28556 4.83391 0
M  V30 9930 H 956.25 0.739837 4.09673 0
M  V30 9931 H 956.783 2.23519 3.29065 0
M  V30 9932 H 953.522 5.12518 4.08663 0
M  V30 9933 H 953.042 3.57556 4.81574 0
M  V30 9934 H 954.721 4.15157 4.9624 0
M  V30 9935 N 954.853 -1.17469 1.05066 0
M  V30 9936 C 955.816 -2.19648 0.654793 0
M  V30 9937 C 956.816 -1.58107 -0.293063 0
M  V30 9938 O 958.006 -1.74029 -0.077106 0
M  V30 9939 C 955.138 -3.40878 -0.0384437 0
M  V30 9940 H 956.331 -2.56184 1.55915 0
M  V30 9941 H 953.884 -1.31528 0.844396 0
M  V30 9942 H 954.619 -3.09885 -0.956133 0
M  V30 9943 H 954.404 -3.86792 0.642961 0
M  V30 9944 H 955.894 -4.1651 -0.301568 0
M  V30 9945 N 956.331 -0.831506 -1.3388 0
M  V30 9946 C 957.58 -0.420028 -1.97278 0
M  V30 9947 C 957.893 1.02441 -1.66629 0
M  V30 9948 O 959.099 1.54021 -2.23584 0
M  V30 9949 C 957.555 -0.700116 -3.53025 0
M  V30 9950 C 957.163 -2.15874 -3.92559 0
M  V30 9951 C 958.907 -0.355226 -4.23011 0
M  V30 9952 C 956.814 -2.38327 -5.41252 0
M  V30 9953 H 955.744 -0.153326 -0.738246 0
M  V30 9954 H 958.395 -1.01906 -1.52602 0
M  V30 9955 H 956.777 -0.0308044 -3.95988 0
M  V30 9956 H 957.951 -2.86792 -3.60675 0
M  V30 9957 H 956.266 -2.4659 -3.35533 0
M  V30 9958 H 958.863 -0.500701 -5.32351 0
M  V30 9959 H 959.206 0.70111 -4.10354 0
M  V30 9960 H 959.739 -0.979466 -3.85553 0
M  V30 9961 H 956.478 -3.42498 -5.58906 0
M  V30 9962 H 955.998 -1.71962 -5.74621 0
M  V30 9963 H 957.677 -2.21113 -6.08045 0
M  V30 9964 N 957.809 1.4625 -0.587256 0
M  V30 9965 C 959.056 2.02363 -0.0745746 0
M  V30 9966 C 959.384 1.4582 1.28712 0
M  V30 9967 O 958.639 0.614922 1.85788 0
M  V30 9968 C 958.938 3.57382 0.036328 0
M  V30 9969 C 958.604 4.32985 -1.25837 0
M  V30 9970 C 957.266 4.53358 -1.61306 0
M  V30 9971 C 959.618 4.76361 -2.11494 0
M  V30 9972 C 956.946 5.14361 -2.82223 0
M  V30 9973 C 959.298 5.38699 -3.31641 0
M  V30 9974 C 957.962 5.57299 -3.67388 0
M  V30 9975 H 957.232 0.740497 -0.0272888 0
M  V30 9976 H 959.879 1.75565 -0.764804 0
M  V30 9977 H 958.184 3.83342 0.809712 0
M  V30 9978 H 959.881 3.9848 0.448838 0
M  V30 9979 H 956.471 4.17427 -0.972251 0
M  V30 9980 H 960.655 4.60372 -1.85394 0
M  V30 9981 H 955.911 5.26952 -3.10051 0
M  V30 9982 H 960.085 5.71267 -3.9828 0
M  V30 9983 H 957.712 6.04338 -4.61173 0
M  V30 9984 N 959.287 0.325282 1.54207 0
M  V30 9985 C 960.536 -0.27768 1.99779 0
M  V30 9986 C 960.849 -1.5311 1.21723 0
M  V30 9987 O 962.055 -2.21017 1.57682 0
M  V30 9988 C 960.511 -0.545329 3.55745 0
M  V30 9989 C 960.119 0.691143 4.42637 0
M  V30 9990 C 961.863 -1.10815 4.09781 0
M  V30 9991 C 959.77 0.395302 5.90077 0
M  V30 9992 H 958.7 -0.107536 0.746292 0
M  V30 9993 H 961.351 0.437773 1.78202 0
M  V30 9994 H 959.733 -1.32101 3.73317 0
M  V30 9995 H 960.907 1.46653 4.3684 0
M  V30 9996 H 959.222 1.1743 3.99499 0
M  V30 9997 H 961.819 -1.34414 5.1753 0
M  V30 9998 H 962.162 -2.05806 3.6187 0
M  V30 9999 H 962.695 -0.393608 3.95848 0
M  V30 10000 H 959.434 1.31443 6.42186 0
M  V30 10001 H 958.954 -0.34235 5.98822 0
M  V30 10002 H 960.633 0.00576877 6.47 0
M  V30 10003 N 960.765 -1.57509 0.0534917 0
M  V30 10004 C 962.181 -1.56696 -0.303067 0
M  V30 10005 C 962.381 -1.06135 -1.71282 0
M  V30 10006 O 961.437 -0.71899 -2.42047 0
M  V30 10007 C 962.75 -3.00421 -0.129418 0
M  V30 10008 C 964.298 -3.12358 -0.200346 0
M  V30 10009 C 964.773 -4.57967 -0.0551971 0
M  V30 10010 N 966.264 -4.63066 -0.111398 0
M  V30 10011 C 966.999 -5.73395 -0.0232344 0
M  V30 10012 N 966.495 -6.92701 0.11741 0
M  V30 10013 N 968.288 -5.62045 -0.078984 0
M  V30 10014 H 960.439 -1.88696 0.975064 0
M  V30 10015 H 962.702 -0.869072 0.378706 0
M  V30 10016 H 962.408 -3.41456 0.842653 0
M  V30 10017 H 962.282 -3.66563 -0.889476 0
M  V30 10018 H 964.669 -2.71221 -1.16289 0
M  V30 10019 H 964.75 -2.48891 0.590506 0
M  V30 10020 H 964.394 -4.9979 0.904034 0
M  V30 10021 H 964.324 -5.19443 -0.865223 0
M  V30 10022 H 966.815 -3.77263 -0.219256 0
M  V30 10023 H 967.128 -7.72597 0.177326 0
M  V30 10024 H 965.473 -6.94833 0.152526 0
M  V30 10025 H 968.664 -4.67725 -0.187434 0
M  V30 10026 H 968.837 -6.48 -0.00681731 0
M  V30 10027 N 962.243 0.219913 -1.56058 0
M  V30 10028 C 963.654 0.786766 -1.69313 0
M  V30 10029 C 964.005 1.84916 -0.655782 0
M  V30 10030 O 963.13 2.1554 0.192772 0
M  V30 10031 C 963.725 1.43387 -3.06962 0
M  V30 10032 C 962.284 1.94809 -3.22066 0
M  V30 10033 C 961.431 0.808863 -2.65241 0
M  V30 10034 H 964.382 -0.00476777 -1.58699 0
M  V30 10035 H 964.403 2.30272 -3.02911 0
M  V30 10036 H 963.915 0.660405 -3.8244 0
M  V30 10037 H 962.016 2.74952 -2.5146 0
M  V30 10038 H 962.129 2.12694 -4.293 0
M  V30 10039 H 960.493 1.21661 -2.23765 0
M  V30 10040 H 961.276 0.0480458 -3.43266 0
M  V30 10041 N 963.721 1.49897 0.486681 0
M  V30 10042 C 965.137 1.36977 0.819109 0
M  V30 10043 C 965.337 0.41385 1.97204 0
M  V30 10044 O 964.393 -0.149249 2.52059 0
M  V30 10045 C 965.706 2.78013 1.14584 0
M  V30 10046 C 967.254 2.86816 1.25321 0
M  V30 10047 C 967.729 4.28651 1.61316 0
M  V30 10048 N 969.22 4.31528 1.68337 0
M  V30 10049 C 969.955 5.38254 1.97662 0
M  V30 10050 N 969.451 6.55207 2.25113 0
M  V30 10051 N 971.244 5.25683 1.99033 0
M  V30 10052 H 963.395 2.10634 -0.273364 0
M  V30 10053 H 965.658 0.946116 -0.0597418 0
M  V30 10054 H 965.364 3.49728 0.371892 0
M  V30 10055 H 965.238 3.1428 2.08585 0
M  V30 10056 H 967.625 2.15329 2.01785 0
M  V30 10057 H 967.706 2.54112 0.293368 0
M  V30 10058 H 967.35 5.00669 0.853968 0
M  V30 10059 H 967.28 4.5883 2.58424 0
M  V30 10060 H 969.771 3.47189 1.49226 0
M  V30 10061 H 970.084 7.32359 2.46717 0
M  V30 10062 H 968.429 6.58408 2.22538 0
M  V30 10063 H 971.62 4.33316 1.77074 0
M  V30 10064 H 971.793 6.08949 2.21552 0
M  V30 10065 N 965.199 -0.738761 1.39212 0
M  V30 10066 C 966.424 -1.5331 1.39681 0
M  V30 10067 C 966.849 -1.88098 -0.00768715 0
M  V30 10068 O 966.207 -1.51642 -0.993699 0
M  V30 10069 C 966.255 -2.79958 2.27279 0
M  V30 10070 O 965.359 -3.75727 1.70008 0
M  V30 10071 H 964.7 -0.463131 0.475821 0
M  V30 10072 H 967.23 -0.911768 1.83161 0
M  V30 10073 H 967.24 -3.28732 2.41659 0
M  V30 10074 H 965.915 -2.5397 3.29351 0
M  V30 10075 H 964.492 -3.34483 1.64851 0
M  V30 10076 N 966.677 -1.24326 -0.968545 0
M  V30 10077 C 967.607 -1.05951 -2.08079 0
M  V30 10078 C 968.588 0.0272666 -1.70078 0
M  V30 10079 O 969.773 -0.139644 -1.93697 0
M  V30 10080 C 966.903 -0.662623 -3.4092 0
M  V30 10081 C 965.857 -1.69807 -3.92873 0
M  V30 10082 C 965.183 -1.15628 -5.22048 0
M  V30 10083 C 966.483 -3.09383 -4.20808 0
M  V30 10084 H 968.177 -1.98984 -2.23709 0
M  V30 10085 H 965.723 -0.958112 -1.075 0
M  V30 10086 H 967.676 -0.521071 -4.18166 0
M  V30 10087 H 966.4 0.303399 -3.25188 0
M  V30 10088 H 965.059 -1.82783 -3.17783 0
M  V30 10089 H 964.707 -0.180888 -5.02675 0
M  V30 10090 H 964.407 -1.84822 -5.57776 0
M  V30 10091 H 965.931 -1.02683 -6.01904 0
M  V30 10092 H 967.345 -2.99642 -4.88761 0
M  V30 10093 H 965.742 -3.75923 -4.67763 0
M  V30 10094 H 966.812 -3.57486 -3.27616 0
M  V30 10095 N 968.156 1.1691 -1.05688 0
M  V30 10096 C 969.066 2.24735 -0.67315 0
M  V30 10097 C 970.082 1.71252 0.308043 0
M  V30 10098 O 971.258 2.00772 0.158889 0
M  V30 10099 C 968.323 3.4665 -0.059026 0
M  V30 10100 C 967.384 4.15198 -1.0913 0
M  V30 10101 C 966.617 5.31292 -0.50639 0
M  V30 10102 O 966.84 5.663 0.682692 0
M  V30 10103 O 965.774 5.88923 -1.2431 0
M  V30 10104 H 969.6 2.59855 -1.57191 0
M  V30 10105 H 967.185 1.24306 -0.828751 0
M  V30 10106 H 969.067 4.20455 0.282018 0
M  V30 10107 H 967.742 3.13316 0.813304 0
M  V30 10108 H 966.649 3.43389 -1.48442 0
M  V30 10109 H 967.982 4.52571 -1.93495 0
M  V30 10110 N 969.634 0.838594 1.33437 0
M  V30 10111 C 970.582 0.260158 2.31141 0
M  V30 10112 C 971.576 -0.607706 1.58124 0
M  V30 10113 O 972.782 -0.497298 1.72994 0
M  V30 10114 H 969.157 0.0654031 0.74915 0
M  V30 10115 H 971.128 1.09874 2.77435 0
M  V30 10116 C 969.877 -0.550234 3.43319 0
M  V30 10117 H 969.2 0.108262 3.99653 0
M  V30 10118 H 970.64 -0.920815 4.1388 0
M  V30 10119 C 969.099 -1.729 2.89149 0
M  V30 10120 O 969.629 -2.82769 2.85315 0
M  V30 10121 N 967.835 -1.5508 2.45761 0
M  V30 10122 H 967.382 -0.657055 2.49079 0
M  V30 10123 H 967.34 -2.34099 2.0987 0
M  V30 10124 N 971.112 -1.45937 0.595003 0
M  V30 10125 C 972.358 -2.0262 0.0854317 0
M  V30 10126 C 972.691 -1.46402 -1.27594 0
M  V30 10127 O 971.966 -0.633823 -1.83883 0
M  V30 10128 C 972.249 -3.60085 0.0329075 0
M  V30 10129 C 972.102 -4.26663 1.42405 0
M  V30 10130 C 973.421 -4.35101 -0.661426 0
M  V30 10131 H 970.54 -0.736282 0.0325196 0
M  V30 10132 H 973.182 -1.73938 0.764563 0
M  V30 10133 H 971.332 -3.84652 -0.545439 0
M  V30 10134 H 973.004 -4.13321 2.04851 0
M  V30 10135 H 971.247 -3.85549 1.98833 0
M  V30 10136 H 971.918 -5.35497 1.33965 0
M  V30 10137 H 974.394 -4.15753 -0.169977 0
M  V30 10138 H 973.27 -5.44829 -0.667243 0
M  V30 10139 H 973.531 -4.07053 -1.72513 0
M  V30 10140 N 972.59 -0.333456 -1.54032 0
M  V30 10141 C 973.52 0.52051 -2.27625 0
M  V30 10142 C 974.501 1.1111 -1.28797 0
M  V30 10143 O 975.686 1.13438 -1.57625 0
M  V30 10144 C 972.816 1.67663 -3.04149 0
M  V30 10145 C 971.77 1.21487 -4.10396 0
M  V30 10146 C 971.096 2.45872 -4.74817 0
M  V30 10147 C 972.396 0.322603 -5.21303 0
M  V30 10148 H 974.09 -0.0933823 -2.99254 0
M  V30 10149 H 971.636 -0.0463526 -1.43925 0
M  V30 10150 H 973.589 2.28041 -3.54366 0
M  V30 10151 H 972.313 2.31727 -2.30153 0
M  V30 10152 H 970.972 0.633966 -3.61077 0
M  V30 10153 H 970.62 3.0832 -3.97426 0
M  V30 10154 H 970.32 2.15662 -5.46593 0
M  V30 10155 H 971.844 3.06994 -5.27814 0
M  V30 10156 H 973.258 0.832942 -5.67217 0
M  V30 10157 H 971.655 0.112843 -5.99994 0
M  V30 10158 H 972.725 -0.643954 -4.80605 0
M  V30 10159 N 974.068 1.57479 -0.061844 0
M  V30 10160 C 974.978 2.15645 0.923826 0
M  V30 10161 C 975.994 1.117 1.33413 0
M  V30 10162 O 977.17 1.4392 1.40887 0
M  V30 10163 C 974.235 2.69857 2.17665 0
M  V30 10164 C 973.296 3.88638 1.8237 0
M  V30 10165 C 972.529 4.40256 3.01679 0
M  V30 10166 O 972.752 3.90908 4.15388 0
M  V30 10167 O 971.686 5.31713 2.82073 0
M  V30 10168 H 975.512 3.0021 0.459094 0
M  V30 10169 H 973.097 1.48534 0.160665 0
M  V30 10170 H 974.979 3.04647 2.9115 0
M  V30 10171 H 973.654 1.88357 2.63255 0
M  V30 10172 H 972.561 3.58719 1.06167 0
M  V30 10173 H 973.894 4.71401 1.4157 0
M  V30 10174 N 975.546 -0.211634 1.56173 0
M  V30 10175 C 976.795 -0.932647 1.78842 0
M  V30 10176 C 977.108 -1.85103 0.63217 0
M  V30 10177 O 978.314 -2.61143 0.742746 0
M  V30 10178 C 976.77 -1.70866 3.16753 0
M  V30 10179 C 976.378 -0.835934 4.40132 0
M  V30 10180 C 978.122 -2.4203 3.48743 0
M  V30 10181 C 976.029 -1.60987 5.69067 0
M  V30 10182 H 974.959 -0.351983 0.666801 0
M  V30 10183 H 977.61 -0.186284 1.82552 0
M  V30 10184 H 975.992 -2.4983 3.07247 0
M  V30 10185 H 977.166 -0.0861298 4.60719 0
M  V30 10186 H 975.481 -0.235941 4.15731 0
M  V30 10187 H 978.078 -3.00453 4.42303 0
M  V30 10188 H 978.421 -3.15406 2.71707 0
M  V30 10189 H 978.954 -1.70048 3.59623 0
M  V30 10190 H 975.693 -0.9192 6.49023 0
M  V30 10191 H 975.213 -2.33403 5.52524 0
M  V30 10192 H 976.892 -2.16798 6.09596 0
M  V30 10193 N 977.024 -1.50153 -0.478725 0
M  V30 10194 C 977.972 -1.68975 -1.59844 0
M  V30 10195 C 978.966 -0.555591 -1.6003 0
M  V30 10196 O 980.172 -0.735875 -1.64271 0
M  V30 10197 H 976.547 -0.533211 -0.530274 0
M  V30 10198 H 978.518 -2.62917 -1.41128 0
M  V30 10199 C 977.267 -1.79409 -2.97838 0
M  V30 10200 H 976.59 -2.66066 -2.98411 0
M  V30 10201 H 978.03 -1.96606 -3.75662 0
M  V30 10202 C 976.489 -0.543927 -3.3248 0
M  V30 10203 O 977.019 0.320376 -4.0042 0
M  V30 10204 N 975.225 -0.400217 -2.87831 0
M  V30 10205 H 974.772 -1.10458 -2.32716 0
M  V30 10206 H 974.73 0.435111 -3.11375 0
M  V30 10207 N 978.502 0.731368 -1.39602 0
M  V30 10208 C 979.449 1.84541 -1.38612 0
M  V30 10209 C 980.419 1.64279 -0.245287 0
M  V30 10210 O 981.604 1.85635 -0.440954 0
M  V30 10211 C 978.744 3.22092 -1.23897 0
M  V30 10212 C 977.857 3.54034 -2.47555 0
M  V30 10213 C 976.992 4.81007 -2.25402 0
M  V30 10214 C 976.031 5.05804 -3.44716 0
M  V30 10215 N 975.168 6.23981 -3.21857 0
M  V30 10216 H 980.008 1.84722 -2.33841 0
M  V30 10217 H 977.545 0.902569 -1.16156 0
M  V30 10218 H 979.503 4.01499 -1.13376 0
M  V30 10219 H 978.133 3.2118 -0.322958 0
M  V30 10220 H 977.185 2.69301 -2.68665 0
M  V30 10221 H 978.497 3.68275 -3.36415 0
M  V30 10222 H 977.651 5.68401 -2.12143 0
M  V30 10223 H 976.39 4.68946 -1.33943 0
M  V30 10224 H 975.395 4.1687 -3.58468 0
M  V30 10225 H 976.62 5.19747 -4.37081 0
M  V30 10226 H 974.566 6.13202 -2.33065 0
M  V30 10227 H 974.483 6.38826 -4.04274 0
M  V30 10228 H 975.751 7.14205 -3.123 0
M  V30 10229 N 979.98 1.24838 0.961938 0
M  V30 10230 C 981.396 1.01502 1.23165 0
M  V30 10231 C 981.596 -0.272651 1.99647 0
M  V30 10232 O 980.652 -0.987297 2.32398 0
M  V30 10233 C 981.965 2.23366 2.01316 0
M  V30 10234 C 983.513 2.28051 2.14387 0
M  V30 10235 C 983.988 3.49552 2.95935 0
M  V30 10236 N 985.479 3.49904 3.03515 0
M  V30 10237 C 986.214 4.40577 3.66987 0
M  V30 10238 N 985.71 5.41512 4.3213 0
M  V30 10239 N 987.503 4.28275 3.64056 0
M  V30 10240 H 979.654 2.07576 0.450086 0
M  V30 10241 H 981.917 0.911205 0.261551 0
M  V30 10242 H 981.623 3.16913 1.5251 0
M  V30 10243 H 981.497 2.25949 3.02038 0
M  V30 10244 H 983.884 1.35032 2.62393 0
M  V30 10245 H 983.965 2.29491 1.12994 0
M  V30 10246 H 983.609 4.42889 2.4862 0
M  V30 10247 H 983.539 3.45357 3.97538 0
M  V30 10248 H 986.03 2.76885 2.57183 0
M  V30 10249 H 986.343 6.06924 4.78396 0
M  V30 10250 H 984.688 5.45393 4.3078 0
M  V30 10251 H 987.879 3.48653 3.12344 0
M  V30 10252 H 988.052 4.99138 4.13237 0
M  V30 10253 N 981.458 -1.16348 1.06306 0
M  V30 10254 C 982.707 -1.8622 0.774909 0
M  V30 10255 C 983.02 -1.82598 -0.701245 0
M  V30 10256 O 984.226 -2.48051 -1.10377 0
M  V30 10257 C 982.682 -3.34182 1.33604 0
M  V30 10258 C 982.29 -3.46279 2.84245 0
M  V30 10259 C 984.034 -4.09309 1.12544 0
M  V30 10260 C 981.941 -4.88327 3.33602 0
M  V30 10261 H 980.871 -0.697574 0.286194 0
M  V30 10262 H 983.522 -1.31311 1.28179 0
M  V30 10263 H 981.904 -3.88698 0.756937 0
M  V30 10264 H 983.078 -3.01923 3.48108 0
M  V30 10265 H 981.393 -2.84585 3.03974 0
M  V30 10266 H 983.99 -5.14123 1.46909 0
M  V30 10267 H 984.333 -4.16251 0.0638129 0
M  V30 10268 H 984.866 -3.61032 1.67034 0
M  V30 10269 H 981.605 -4.86565 4.39244 0
M  V30 10270 H 981.125 -5.33307 2.74487 0
M  V30 10271 H 982.804 -5.57144 3.28937 0
M  V30 10272 N 982.937 -0.845659 -1.3299 0
M  V30 10273 C 984.165 -0.45835 -2.01759 0
M  V30 10274 C 984.58 0.94239 -1.63598 0
M  V30 10275 O 983.937 1.61353 -0.852738 0
M  V30 10276 C 983.988 -0.577311 -3.5686 0
M  V30 10277 O 983.709 -1.92287 -3.93646 0
M  V30 10278 C 985.21 -0.187839 -4.42902 0
M  V30 10279 H 982.43 -0.181165 -0.646081 0
M  V30 10280 H 984.974 -1.14011 -1.6977 0
M  V30 10281 H 983.129 0.0566146 -3.87359 0
M  V30 10282 H 983.543 -1.91322 -4.88361 0
M  V30 10283 H 985.017 -0.322105 -5.51059 0
M  V30 10284 H 985.494 0.870896 -4.30479 0
M  V30 10285 H 986.1 -0.796473 -4.17776 0
M  V30 10286 N 984.415 1.45619 -0.602734 0
M  V30 10287 C 985.325 2.34288 0.120902 0
M  V30 10288 C 986.341 1.50952 0.865414 0
M  V30 10289 O 987.517 1.83768 0.824094 0
M  V30 10290 C 984.582 3.28489 1.10888 0
M  V30 10291 C 983.643 4.2773 0.366853 0
M  V30 10292 C 982.876 5.17429 1.30776 0
M  V30 10293 O 983.099 5.10459 2.54535 0
M  V30 10294 O 982.033 5.96459 0.807464 0
M  V30 10295 H 985.859 2.97559 -0.60765 0
M  V30 10296 H 983.444 1.44922 -0.363019 0
M  V30 10297 H 985.326 3.86549 1.67803 0
M  V30 10298 H 984.001 2.67789 1.81854 0
M  V30 10299 H 982.908 3.73299 -0.244643 0
M  V30 10300 H 984.241 4.91271 -0.302226 0
M  V30 10301 N 985.893 0.34162 1.53853 0
M  V30 10302 C 986.803 -0.524555 2.2866 0
M  V30 10303 C 987.819 -1.1136 1.33697 0
M  V30 10304 O 988.995 -1.1297 1.66732 0
M  V30 10305 C 986.06 -1.66065 3.04341 0
M  V30 10306 C 985.121 -1.10158 4.14926 0
M  V30 10307 C 984.354 -2.18353 4.86988 0
M  V30 10308 O 984.577 -3.39038 4.58704 0
M  V30 10309 O 983.511 -1.82756 5.73484 0
M  V30 10310 H 987.337 0.0835014 3.03585 0
M  V30 10311 H 984.922 0.106727 1.49018 0
M  V30 10312 H 986.804 -2.3217 3.51674 0
M  V30 10313 H 985.479 -2.25456 2.32275 0
M  V30 10314 H 984.386 -0.405109 3.719 0
M  V30 10315 H 985.719 -0.552567 4.89088 0
M  V30 10316 N 987.371 -1.57444 0.0701946 0
M  V30 10317 C 988.303 -2.09611 -0.927142 0
M  V30 10318 C 989.316 -1.02791 -1.26245 0
M  V30 10319 O 990.505 -1.30309 -1.21992 0
M  V30 10320 C 987.605 -2.54015 -2.24342 0
M  V30 10321 C 986.778 -3.84389 -2.08719 0
M  V30 10322 C 985.837 -4.14904 -3.23638 0
M  V30 10323 O 984.863 -4.84528 -2.98699 0
M  V30 10324 N 986.065 -3.68322 -4.48686 0
M  V30 10325 H 988.83 -2.95803 -0.481753 0
M  V30 10326 H 986.391 -1.61487 -0.115572 0
M  V30 10327 H 988.383 -2.71492 -3.00124 0
M  V30 10328 H 986.953 -1.72969 -2.60385 0
M  V30 10329 H 986.173 -3.76308 -1.17415 0
M  V30 10330 H 987.461 -4.69729 -1.9553 0
M  V30 10331 H 986.859 -3.12073 -4.71834 0
M  V30 10332 H 985.416 -3.91002 -5.21499 0
M  V30 10333 N 988.849 0.203349 -1.56283 0
M  V30 10334 C 989.812 1.23566 -1.93039 0
M  V30 10335 C 990.812 1.38869 -0.810687 0
M  V30 10336 O 992.002 1.36822 -1.07821 0
M  V30 10337 C 989.134 2.60645 -2.1972 0
M  V30 10338 H 990.327 0.921692 -2.85385 0
M  V30 10339 H 987.88 0.44453 -1.49845 0
M  V30 10340 H 988.615 2.9711 -1.29985 0
M  V30 10341 H 988.4 2.50911 -3.01307 0
M  V30 10342 H 989.89 3.35103 -2.4919 0
M  V30 10343 N 990.327 1.50405 0.470755 0
M  V30 10344 C 991.743 1.37838 0.804534 0
M  V30 10345 C 991.943 0.434743 1.96754 0
M  V30 10346 O 990.999 -0.122507 2.52203 0
M  V30 10347 C 992.312 2.79212 1.11629 0
M  V30 10348 C 993.86 2.88129 1.22272 0
M  V30 10349 C 994.335 4.30337 1.5676 0
M  V30 10350 N 995.826 4.3329 1.63751 0
M  V30 10351 C 996.561 5.4032 1.91942 0
M  V30 10352 N 996.057 6.57558 2.18151 0
M  V30 10353 N 997.85 5.27764 1.93446 0
M  V30 10354 H 990.001 2.10332 -0.295689 0
M  V30 10355 H 992.264 0.945429 -0.0697733 0
M  V30 10356 H 991.97 3.50103 0.334778 0
M  V30 10357 H 991.844 3.16475 2.0524 0
M  V30 10358 H 994.231 2.17457 1.9949 0
M  V30 10359 H 994.312 2.54409 0.2664 0
M  V30 10360 H 993.956 5.01547 0.800817 0
M  V30 10361 H 993.886 4.61545 2.53543 0
M  V30 10362 H 996.377 3.48752 1.45535 0
M  V30 10363 H 996.69 7.34935 2.38936 0
M  V30 10364 H 995.035 6.60732 2.15542 0
M  V30 10365 H 998.226 4.35169 1.72468 0
M  V30 10366 H 998.399 6.11264 2.15081 0
M  V30 10367 N 991.805 -0.723954 1.39988 0
M  V30 10368 C 992.752 -1.83803 1.39589 0
M  V30 10369 C 993.722 -1.64146 0.253996 0
M  V30 10370 O 994.907 -1.85398 0.450793 0
M  V30 10371 C 992.047 -3.21431 1.25604 0
M  V30 10372 C 991.16 -3.52717 2.49429 0
M  V30 10373 C 990.295 -4.79805 2.27949 0
M  V30 10374 C 989.334 -5.03968 3.47394 0
M  V30 10375 N 988.471 -6.22266 3.25161 0
M  V30 10376 H 993.311 -1.83479 2.34818 0
M  V30 10377 H 990.848 -0.896396 1.16633 0
M  V30 10378 H 992.806 -4.00892 1.15504 0
M  V30 10379 H 991.436 -3.21005 0.339986 0
M  V30 10380 H 990.488 -2.67872 2.7009 0
M  V30 10381 H 991.8 -3.66486 3.38363 0
M  V30 10382 H 990.954 -5.67268 2.15155 0
M  V30 10383 H 989.693 -4.68229 1.36428 0
M  V30 10384 H 988.698 -4.14963 3.60674 0
M  V30 10385 H 989.923 -5.17422 4.39831 0
M  V30 10386 H 987.869 -6.11957 2.36314 0
M  V30 10387 H 987.786 -6.36673 4.07656 0
M  V30 10388 H 989.054 -7.12539 3.16083 0
M  V30 10389 N 993.283 -1.25346 -0.955304 0
M  V30 10390 C 994.246 -1.05754 -2.03344 0
M  V30 10391 C 995.246 -0.0105743 -1.60797 0
M  V30 10392 O 996.436 -0.252699 -1.72357 0
M  V30 10393 C 993.568 -0.605536 -3.35479 0
M  V30 10394 H 994.761 -2.01459 -2.22158 0
M  V30 10395 H 992.314 -1.07744 -1.1323 0
M  V30 10396 H 993.049 0.354154 -3.2236 0
M  V30 10397 H 992.834 -1.36134 -3.67709 0
M  V30 10398 H 994.324 -0.489867 -4.14717 0
M  V30 10399 N 994.761 1.15782 -1.06922 0
M  V30 10400 C 996.008 1.86465 -0.789752 0
M  V30 10401 C 996.336 1.82075 0.684022 0
M  V30 10402 O 995.591 1.23576 1.51748 0
M  V30 10403 C 995.89 3.35284 -1.2377 0
M  V30 10404 C 995.556 3.59871 -2.71668 0
M  V30 10405 C 994.218 3.6629 -3.12066 0
M  V30 10406 C 996.57 3.69929 -3.67154 0
M  V30 10407 C 993.898 3.80275 -4.46775 0
M  V30 10408 C 996.25 3.85436 -5.01619 0
M  V30 10409 C 994.914 3.901 -5.41644 0
M  V30 10410 H 994.184 0.682324 -0.288991 0
M  V30 10411 H 996.831 1.36861 -1.33945 0
M  V30 10412 H 995.136 3.87065 -0.607309 0
M  V30 10413 H 996.833 3.88371 -0.998431 0
M  V30 10414 H 993.423 3.55512 -2.39393 0
M  V30 10415 H 997.607 3.64274 -3.37073 0
M  V30 10416 H 992.863 3.8214 -4.77262 0
M  V30 10417 H 997.037 3.92161 -5.75485 0
M  V30 10418 H 994.664 4.00688 -6.46029 0
M  V30 10419 N 996.239 0.8527 1.3254 0
M  V30 10420 C 997.516 0.376491 1.91942 0
M  V30 10421 C 997.896 -1.13972 1.7769 0
M  V30 10422 O 997.244 -1.96047 1.17379 0
M  V30 10423 C 997.454 0.838694 3.38773 0
M  V30 10424 C 998.802 0.854736 4.15908 0
M  V30 10425 O 999.826 0.783203 3.47483 0
M  V30 10426 O 998.685 0.955207 5.38087 0
M  V30 10427 H 995.779 0.109412 0.81973 0
M  V30 10428 H 998.325 0.93947 1.41322 0
M  V30 10429 H 997.097 1.88179 3.43081 0
M  V30 10430 H 996.72 0.253055 3.96794 0
M  V30 10431 N 997.718 -1.45297 0.610449 0
M  V30 10432 C 999.134 -1.57225 0.274332 0
M  V30 10433 C 999.334 -1.60136 -1.22306 0
M  V30 10434 O 998.39 -1.5332 -2.00622 0
M  V30 10435 C 999.703 -2.85365 0.948028 0
M  V30 10436 C 1001.25 -2.99044 0.924216 0
M  V30 10437 C 1001.73 -4.29958 1.57798 0
M  V30 10438 N 1003.22 -4.36723 1.5436 0
M  V30 10439 C 1003.95 -5.36695 2.01857 0
M  V30 10440 N 1003.45 -6.43187 2.57453 0
M  V30 10441 N 1005.24 -5.28071 1.92608 0
M  V30 10442 H 997.392 -1.41651 1.58268 0
M  V30 10443 H 999.655 -0.67744 0.663158 0
M  V30 10444 H 999.361 -2.89125 2.00249 0
M  V30 10445 H 999.235 -3.74222 0.473062 0
M  V30 10446 H 1001.62 -2.94849 -0.121709 0
M  V30 10447 H 1001.7 -2.1159 1.43748 0
M  V30 10448 H 1001.35 -4.34912 2.62325 0
M  V30 10449 H 1001.28 -5.16234 1.03972 0
M  V30 10450 H 1003.77 -3.60374 1.13749 0
M  V30 10451 H 1004.08 -7.15722 2.91482 0
M  V30 10452 H 1002.43 -6.4393 2.61493 0
M  V30 10453 H 1005.62 -4.43783 1.48912 0
M  V30 10454 H 1005.79 -6.05832 2.29938 0
M  V30 10455 N 999.196 -0.349774 -1.5367 0
M  V30 10456 C 1000.16 0.491676 -2.23864 0
M  V30 10457 C 1001.16 1.02256 -1.24098 0
M  V30 10458 O 1002.35 0.910816 -1.48492 0
M  V30 10459 C 999.481 1.68557 -2.96313 0
M  V30 10460 H 1000.67 -0.12233 -2.9965 0
M  V30 10461 H 998.227 -0.101214 -1.55972 0
M  V30 10462 H 998.962 2.3381 -2.2473 0
M  V30 10463 H 998.747 1.31203 -3.69497 0
M  V30 10464 H 1000.24 2.28225 -3.49718 0
M  V30 10465 N 1000.67 1.57404 -0.0785433 0
M  V30 10466 C 1001.9 1.98074 0.597862 0
M  V30 10467 C 1002.32 0.95714 1.6274 0
M  V30 10468 O 1001.67 -0.0553728 1.82416 0
M  V30 10469 C 1001.72 3.38815 1.26041 0
M  V30 10470 O 1001.45 4.37254 0.27207 0
M  V30 10471 C 1002.95 3.94397 2.024 0
M  V30 10472 H 1000.17 0.651263 0.161546 0
M  V30 10473 H 1002.71 2.03927 -0.152941 0
M  V30 10474 H 1000.87 3.34028 1.96225 0
M  V30 10475 H 1001.28 5.19136 0.74822 0
M  V30 10476 H 1002.75 4.95075 2.4414 0
M  V30 10477 H 1003.23 3.31308 2.88326 0
M  V30 10478 H 1003.84 4.02607 1.37068 0
M  V30 10479 N 1002.15 -0.195058 1.56388 0
M  V30 10480 C 1003.1 -1.24175 1.94549 0
M  V30 10481 C 1004.07 -1.45229 0.806089 0
M  V30 10482 O 1005.25 -1.58362 1.06425 0
M  V30 10483 C 1002.39 -2.58145 2.29031 0
M  V30 10484 C 1001.51 -2.44669 3.56035 0
M  V30 10485 C 1000.64 -3.71342 3.7984 0
M  V30 10486 C 999.681 -3.52699 5.0027 0
M  V30 10487 N 998.818 -4.71385 5.20328 0
M  V30 10488 H 1003.66 -0.909319 2.83788 0
M  V30 10489 H 1001.19 -0.437641 1.40439 0
M  V30 10490 H 1003.15 -3.36195 2.4704 0
M  V30 10491 H 1001.78 -2.8943 1.42933 0
M  V30 10492 H 1000.83 -1.57916 3.46073 0
M  V30 10493 H 1002.15 -2.26827 4.44242 0
M  V30 10494 H 1001.3 -4.57832 3.98088 0
M  V30 10495 H 1000.04 -3.92138 2.89964 0
M  V30 10496 H 999.045 -2.64594 4.81944 0
M  V30 10497 H 1000.27 -3.33349 5.91655 0
M  V30 10498 H 998.216 -4.92444 4.33399 0
M  V30 10499 H 998.133 -4.56368 6.02714 0
M  V30 10500 H 999.401 -5.59226 5.43035 0
M  V30 10501 N 1003.63 -1.50653 -0.462772 0
M  V30 10502 C 1004.56 -1.73056 -1.5676 0
M  V30 10503 C 1005.54 -0.579699 -1.59917 0
M  V30 10504 O 1006.73 -0.819729 -1.76051 0
M  V30 10505 C 1003.86 -1.83234 -2.9503 0
M  V30 10506 C 1002.81 -2.98488 -3.06739 0
M  V30 10507 C 1002.14 -2.93818 -4.46738 0
M  V30 10508 C 1003.44 -4.38869 -2.83181 0
M  V30 10509 H 1005.13 -2.65562 -1.38265 0
M  V30 10510 H 1002.68 -1.27792 -0.663722 0
M  V30 10511 H 1004.63 -1.97491 -3.72257 0
M  V30 10512 H 1003.35 -0.873558 -3.14701 0
M  V30 10513 H 1002.01 -2.83895 -2.31946 0
M  V30 10514 H 1001.66 -1.95769 -4.63339 0
M  V30 10515 H 1001.36 -3.71197 -4.55507 0
M  V30 10516 H 1002.88 -3.10135 -5.25974 0
M  V30 10517 H 1004.3 -4.53945 -3.50153 0
M  V30 10518 H 1002.69 -5.17762 -3.03386 0
M  V30 10519 H 1003.76 -4.50663 -1.78972 0
M  V30 10520 N 1005.11 0.71652 -1.4037 0
M  V30 10521 C 1006.02 1.86074 -1.42876 0
M  V30 10522 C 1007.03 1.71005 -0.321475 0
M  V30 10523 O 1008.21 1.93286 -0.565909 0
M  V30 10524 C 1005.28 3.21862 -1.28863 0
M  V30 10525 C 1004.34 3.49193 -2.49726 0
M  V30 10526 C 1003.57 4.78502 -2.36372 0
M  V30 10527 O 1003.79 5.53529 -1.37703 0
M  V30 10528 O 1002.73 5.06147 -3.25728 0
M  V30 10529 H 1006.55 1.86916 -2.39366 0
M  V30 10530 H 1004.14 0.866818 -1.21683 0
M  V30 10531 H 1006.02 4.02972 -1.23253 0
M  V30 10532 H 1004.69 3.2175 -0.354783 0
M  V30 10533 H 1003.6 2.68095 -2.60913 0
M  V30 10534 H 1004.93 3.54101 -3.41868 0
M  V30 10535 N 1006.59 1.25851 0.948643 0
M  V30 10536 C 1007.52 1.02549 2.04979 0
M  V30 10537 C 1008.53 -0.0115923 1.62796 0
M  V30 10538 O 1009.72 0.227643 1.77042 0
M  V30 10539 C 1006.82 0.529486 3.34738 0
M  V30 10540 C 1005.99 1.6341 4.05729 0
M  V30 10541 C 1005.05 1.13743 5.1376 0
M  V30 10542 O 1004.08 1.83303 5.38877 0
M  V30 10543 N 1005.28 -0.0181151 5.80497 0
M  V30 10544 H 1008.05 1.97365 2.25537 0
M  V30 10545 H 1005.61 1.17137 1.11761 0
M  V30 10546 H 1007.6 0.181566 4.04293 0
M  V30 10547 H 1006.17 -0.324893 3.10907 0
M  V30 10548 H 1005.39 2.15331 3.30191 0
M  V30 10549 H 1006.68 2.37603 4.49914 0
M  V30 10550 H 1006.07 -0.599198 5.62518 0
M  V30 10551 H 1004.63 -0.307019 6.51077 0
M  V30 10552 N 1008.06 -1.15214 1.07534 0
M  V30 10553 C 1008.97 -2.23636 0.708818 0
M  V30 10554 C 1009.99 -1.7172 -0.280759 0
M  V30 10555 O 1011.17 -2.01 -0.126927 0
M  V30 10556 C 1008.23 -3.46512 0.114167 0
M  V30 10557 C 1007.29 -4.13409 1.15722 0
M  V30 10558 C 1006.53 -5.30419 0.59085 0
M  V30 10559 O 1006.75 -5.67314 -0.592512 0
M  V30 10560 O 1005.68 -5.86871 1.33663 0
M  V30 10561 H 1009.51 -2.57322 1.61305 0
M  V30 10562 H 1007.09 -1.22972 0.848422 0
M  V30 10563 H 1008.98 -4.20851 -0.215091 0
M  V30 10564 H 1007.65 -3.1457 -0.763356 0
M  V30 10565 H 1006.56 -3.40984 1.53886 0
M  V30 10566 H 1007.89 -4.49435 2.00671 0
M  V30 10567 N 1009.54 -0.859717 -1.32086 0
M  V30 10568 C 1010.79 -0.465581 -1.97075 0
M  V30 10569 C 1011.12 0.979917 -1.68012 0
M  V30 10570 O 1010.37 1.70337 -0.96353 0
M  V30 10571 C 1010.67 -0.657397 -3.51302 0
M  V30 10572 C 1010.34 -2.07413 -4.00363 0
M  V30 10573 C 1009 -2.4616 -4.13472 0
M  V30 10574 C 1011.35 -2.99855 -4.26305 0
M  V30 10575 C 1008.68 -3.76611 -4.49868 0
M  V30 10576 C 1011.03 -4.2981 -4.64161 0
M  V30 10577 C 1009.7 -4.68485 -4.75476 0
M  V30 10578 H 1008.97 -0.170368 -0.721149 0
M  V30 10579 H 1011.61 -1.09074 -1.57401 0
M  V30 10580 H 1009.92 0.0509638 -3.91767 0
M  V30 10581 H 1011.61 -0.332416 -3.9962 0
M  V30 10582 H 1008.2 -1.76327 -3.90649 0
M  V30 10583 H 1012.39 -2.7115 -4.15682 0
M  V30 10584 H 1007.64 -4.06352 -4.56824 0
M  V30 10585 H 1011.82 -5.015 -4.83188 0
M  V30 10586 H 1009.45 -5.69612 -5.03435 0
M  V30 10587 N 1011.02 1.44971 -0.618145 0
M  V30 10588 C 1012.25 2.06527 -0.124165 0
M  V30 10589 C 1012.66 1.46097 1.19588 0
M  V30 10590 O 1012.02 0.57901 1.73071 0
M  V30 10591 C 1012.07 3.61498 0.0106701 0
M  V30 10592 O 1011.79 4.19675 -1.25716 0
M  V30 10593 C 1013.29 4.40061 0.534872 0
M  V30 10594 H 1010.51 0.666941 -0.0736935 0
M  V30 10595 H 1013.06 1.8605 -0.848871 0
M  V30 10596 H 1011.21 3.81282 0.685752 0
M  V30 10597 H 1011.63 5.12972 -1.09362 0
M  V30 10598 H 1013.1 5.48963 0.57827 0
M  V30 10599 H 1013.58 4.10587 1.55931 0
M  V30 10600 H 1014.18 4.25167 -0.10652 0
M  V30 10601 N 1012.5 0.357919 1.53482 0
M  V30 10602 C 1013.41 -0.500273 2.29204 0
M  V30 10603 C 1014.42 -1.09936 1.3487 0
M  V30 10604 O 1015.6 -1.11195 1.67921 0
M  V30 10605 C 1012.67 -1.62828 3.06085 0
M  V30 10606 C 1011.73 -1.05751 4.16071 0
M  V30 10607 C 1010.96 -2.13176 4.89277 0
M  V30 10608 O 1011.18 -3.34153 4.62274 0
M  V30 10609 O 1010.12 -1.76663 5.7539 0
M  V30 10610 H 1013.94 0.115696 3.0348 0
M  V30 10611 H 1011.53 0.122527 1.48897 0
M  V30 10612 H 1013.41 -2.28427 3.54117 0
M  V30 10613 H 1012.08 -2.22979 2.34653 0
M  V30 10614 H 1010.99 -0.365642 3.72309 0
M  V30 10615 H 1012.32 -0.500661 4.89647 0
M  V30 10616 N 1013.98 -1.5736 0.0868897 0
M  V30 10617 C 1015.22 -1.95933 -0.582212 0
M  V30 10618 C 1015.58 -0.967238 -1.65857 0
M  V30 10619 O 1016.78 -1.24116 -2.3843 0
M  V30 10620 C 1015.05 -3.39049 -1.1305 0
M  V30 10621 S 1016.61 -3.99612 -1.81262 0
M  V30 10622 H 1013.43 -0.685082 -0.190221 0
M  V30 10623 H 1016.03 -1.94808 0.164341 0
M  V30 10624 H 1014.74 -4.09026 -0.335492 0
M  V30 10625 H 1014.27 -3.43752 -1.91307 0
M  V30 10626 H 1016.28 -3.87747 -3.09624 0
M  V30 10627 N 1015.45 0.186762 -1.56489 0
M  V30 10628 C 1016.7 0.905852 -1.81109 0
M  V30 10629 C 1017.03 1.82906 -0.661477 0
M  V30 10630 O 1016.28 1.92504 0.35226 0
M  V30 10631 C 1016.58 1.74719 -3.11782 0
M  V30 10632 C 1016.25 0.974238 -4.40249 0
M  V30 10633 C 1014.91 0.760856 -4.75147 0
M  V30 10634 C 1017.26 0.430971 -5.19415 0
M  V30 10635 C 1014.59 -0.00714216 -5.867 0
M  V30 10636 C 1016.94 -0.323859 -6.3177 0
M  V30 10637 C 1015.61 -0.548183 -6.65245 0
M  V30 10638 H 1014.88 0.331475 -0.662726 0
M  V30 10639 H 1017.52 0.171703 -1.90729 0
M  V30 10640 H 1015.83 2.55027 -2.97437 0
M  V30 10641 H 1017.53 2.30634 -3.28038 0
M  V30 10642 H 1014.12 1.15057 -4.12868 0
M  V30 10643 H 1018.3 0.583205 -4.92861 0
M  V30 10644 H 1013.56 -0.190832 -6.11102 0
M  V30 10645 H 1017.73 -0.752155 -6.92326 0
M  V30 10646 H 1015.36 -1.14518 -7.51525 0
M  V30 10647 N 1016.93 1.50896 0.454776 0
M  V30 10648 C 1018.16 1.66759 1.23313 0
M  V30 10649 C 1018.58 0.35722 1.84677 0
M  V30 10650 O 1017.94 -0.680771 1.68033 0
M  V30 10651 C 1017.99 2.77254 2.3057 0
M  V30 10652 O 1017.09 2.39642 3.35627 0
M  V30 10653 H 1016.43 0.556599 0.362068 0
M  V30 10654 H 1018.96 1.97365 0.539274 0
M  V30 10655 H 1018.97 3.0082 2.75629 0
M  V30 10656 H 1017.65 3.72349 1.85281 0
M  V30 10657 H 1016.23 2.26584 2.96165 0
M  V30 10658 N 1018.41 -0.709066 1.40748 0
M  V30 10659 C 1019.37 -1.80485 1.41272 0
M  V30 10660 C 1020.37 -1.57872 0.305463 0
M  V30 10661 O 1021.56 -1.64793 0.564691 0
M  V30 10662 C 1018.7 -3.1867 1.21087 0
M  V30 10663 H 1019.89 -1.81417 2.38805 0
M  V30 10664 H 1017.44 -0.915356 1.26692 0
M  V30 10665 H 1018.18 -3.23385 0.243406 0
M  V30 10666 H 1017.96 -3.36484 2.01299 0
M  V30 10667 H 1019.45 -3.98685 1.24257 0
M  V30 10668 N 1019.89 -1.26353 -0.941956 0
M  V30 10669 C 1021.14 -1.11241 -1.68251 0
M  V30 10670 C 1021.45 0.344055 -1.9255 0
M  V30 10671 O 1022.66 0.615832 -2.64423 0
M  V30 10672 C 1021.11 -1.94269 -3.02965 0
M  V30 10673 C 1020.72 -3.44485 -2.86415 0
M  V30 10674 C 1022.47 -1.87764 -3.80716 0
M  V30 10675 C 1020.37 -4.19763 -4.16597 0
M  V30 10676 H 1019.3 -0.412694 -0.63103 0
M  V30 10677 H 1021.95 -1.50656 -1.04762 0
M  V30 10678 H 1020.34 -1.47687 -3.6743 0
M  V30 10679 H 1021.51 -3.9883 -2.30805 0
M  V30 10680 H 1019.82 -3.52218 -2.22107 0
M  V30 10681 H 1022.42 -2.41292 -4.77161 0
M  V30 10682 H 1022.76 -0.848195 -4.07568 0
M  V30 10683 H 1023.3 -2.32165 -3.23024 0
M  V30 10684 H 1020.04 -5.23173 -3.9493 0
M  V30 10685 H 1019.56 -3.70198 -4.71925 0
M  V30 10686 H 1021.24 -4.28168 -4.85058 0
M  V30 10687 N 1021.37 1.14642 -1.08144 0
M  V30 10688 C 1022.61 1.85892 -0.810683 0
M  V30 10689 C 1022.95 1.82575 0.661821 0
M  V30 10690 O 1022.22 1.25454 1.48632 0
M  V30 10691 C 1022.5 3.34647 -1.32979 0
M  V30 10692 C 1022.36 3.46551 -2.86744 0
M  V30 10693 C 1023.68 4.29661 -0.952864 0
M  V30 10694 H 1020.8 0.674963 -0.295963 0
M  V30 10695 H 1023.44 1.3464 -1.3406 0
M  V30 10696 H 1021.59 3.78425 -0.87903 0
M  V30 10697 H 1023.26 3.11579 -3.40171 0
M  V30 10698 H 1021.5 2.87849 -3.24539 0
M  V30 10699 H 1022.17 4.51101 -3.18138 0
M  V30 10700 H 1024.65 3.93885 -1.34141 0
M  V30 10701 H 1023.53 5.32209 -1.34331 0
M  V30 10702 H 1023.79 4.41877 0.140392 0
M  V30 10703 N 1022.85 0.866709 1.31628 0
M  V30 10704 C 1023.76 0.323408 2.3236 0
M  V30 10705 C 1024.77 -0.564995 1.64572 0
M  V30 10706 O 1025.95 -0.462489 1.96018 0
M  V30 10707 C 1023.01 -0.469045 3.43513 0
M  V30 10708 C 1022.07 0.446928 4.26967 0
M  V30 10709 C 1021.31 -0.307799 5.32812 0
M  V30 10710 O 1021.53 -1.5363 5.49321 0
M  V30 10711 O 1020.46 0.332653 6.0098 0
M  V30 10712 H 1024.29 1.15827 2.80745 0
M  V30 10713 H 1021.87 0.629987 1.35468 0
M  V30 10714 H 1023.76 -0.918405 4.1127 0
M  V30 10715 H 1022.43 -1.28051 2.97296 0
M  V30 10716 H 1021.34 0.944719 3.61975 0
M  V30 10717 H 1022.67 1.2239 4.76741 0
M  V30 10718 N 1024.32 -1.44642 0.625825 0
M  V30 10719 C 1025.57 -2.01695 0.127948 0
M  V30 10720 C 1025.89 -1.49439 -1.25271 0
M  V30 10721 O 1025.16 -0.695873 -1.83124 0
M  V30 10722 H 1023.74 -0.745685 0.0443096 0
M  V30 10723 H 1026.4 -1.7721 0.811332 0
M  V30 10724 H 1025.5 -3.11966 0.0915933 0
M  V30 10725 N 1025.8 -0.366053 -1.5329 0
M  V30 10726 C 1027.08 0.279902 -1.93587 0
M  V30 10727 C 1027.46 1.66352 -1.29963 0
M  V30 10728 O 1026.81 2.23845 -0.458895 0
M  V30 10729 C 1027.02 0.329634 -3.4744 0
M  V30 10730 C 1028.36 0.569754 -4.2076 0
M  V30 10731 O 1029.39 0.410823 -3.53823 0
M  V30 10732 O 1028.25 0.879262 -5.3938 0
M  V30 10733 H 1025.34 0.16802 -0.809752 0
M  V30 10734 H 1027.89 -0.418871 -1.64449 0
M  V30 10735 H 1026.66 -0.640434 -3.86023 0
M  V30 10736 H 1026.28 1.07428 -3.82812 0
M  V30 10737 N 1027.28 1.57312 -0.0952337 0
M  V30 10738 C 1028.5 1.99119 0.580206 0
M  V30 10739 C 1028.93 0.973955 1.60922 0
M  V30 10740 O 1028.29 -0.0575338 1.81209 0
M  V30 10741 C 1028.34 3.39893 1.20438 0
M  V30 10742 O 1027.44 3.40941 2.32019 0
M  V30 10743 H 1026.78 0.64748 0.147195 0
M  V30 10744 H 1029.31 2.03836 -0.176686 0
M  V30 10745 H 1029.32 3.7759 1.54564 0
M  V30 10746 H 1028 4.13453 0.450514 0
M  V30 10747 H 1026.57 3.1504 1.9951 0
M  V30 10748 N 1028.76 -0.17846 1.56586 0
M  V30 10749 C 1030 -0.896235 1.81587 0
M  V30 10750 C 1030.33 -1.82553 0.671168 0
M  V30 10751 O 1029.59 -1.92688 -0.342046 0
M  V30 10752 C 1029.89 -1.73063 3.12704 0
M  V30 10753 C 1029.55 -0.950877 4.4076 0
M  V30 10754 C 1028.21 -0.735647 4.75544 0
M  V30 10755 C 1030.57 -0.403419 5.19636 0
M  V30 10756 C 1027.89 0.0382562 5.86688 0
M  V30 10757 C 1030.25 0.357359 6.3159 0
M  V30 10758 C 1028.91 0.583455 6.64945 0
M  V30 10759 H 1028.18 -0.327956 0.664474 0
M  V30 10760 H 1030.83 -0.161586 1.90817 0
M  V30 10761 H 1029.13 -2.53446 2.98785 0
M  V30 10762 H 1030.83 -2.28891 3.29257 0
M  V30 10763 H 1027.42 -1.12866 4.13472 0
M  V30 10764 H 1031.6 -0.557059 4.93164 0
M  V30 10765 H 1026.86 0.223237 6.10992 0
M  V30 10766 H 1031.03 0.788861 6.91918 0
M  V30 10767 H 1028.66 1.18502 7.50907 0
M  V30 10768 N 1030.24 -1.51135 -0.446768 0
M  V30 10769 C 1031.15 -1.74595 -1.56696 0
M  V30 10770 C 1032.16 -0.629816 -1.62201 0
M  V30 10771 O 1033.34 -0.910987 -1.79619 0
M  V30 10772 C 1030.4 -1.85738 -2.9275 0
M  V30 10773 C 1029.46 -3.09564 -2.97437 0
M  V30 10774 C 1028.7 -3.20165 -4.27001 0
M  V30 10775 O 1028.92 -2.36939 -5.1886 0
M  V30 10776 O 1027.85 -4.13077 -4.3778 0
M  V30 10777 H 1031.68 -2.69601 -1.39817 0
M  V30 10778 H 1029.26 -1.35523 -0.628805 0
M  V30 10779 H 1031.15 -1.95107 -3.73512 0
M  V30 10780 H 1029.82 -0.939184 -3.09776 0
M  V30 10781 H 1028.73 -3.05679 -2.15664 0
M  V30 10782 H 1030.06 -4.01041 -2.85353 0
M  V30 10783 N 1031.71 0.701592 -1.41122 0
M  V30 10784 C 1032.62 1.84548 -1.44841 0
M  V30 10785 C 1033.64 1.70654 -0.339594 0
M  V30 10786 O 1034.82 1.92675 -0.586378 0
M  V30 10787 C 1031.88 3.20477 -1.3227 0
M  V30 10788 C 1030.94 3.46524 -2.53415 0
M  V30 10789 C 1030.17 4.75968 -2.41434 0
M  V30 10790 O 1030.4 5.52037 -1.43566 0
M  V30 10791 O 1029.33 5.02664 -3.31078 0
M  V30 10792 H 1033.16 1.84367 -2.41335 0
M  V30 10793 H 1030.74 0.853863 -1.22595 0
M  V30 10794 H 1032.62 4.01642 -1.2752 0
M  V30 10795 H 1031.3 3.21355 -0.388889 0
M  V30 10796 H 1030.21 2.65313 -2.63742 0
M  V30 10797 H 1031.54 3.50455 -3.45604 0
M  V30 10798 N 1033.19 1.2685 0.935242 0
M  V30 10799 C 1034.44 1.12132 1.67658 0
M  V30 10800 C 1034.75 -0.333839 1.9273 0
M  V30 10801 O 1035.96 -0.601801 2.64746 0
M  V30 10802 C 1034.42 1.95873 3.0193 0
M  V30 10803 C 1034.02 3.46 2.84584 0
M  V30 10804 C 1035.77 1.89781 3.79715 0
M  V30 10805 C 1033.67 4.21966 4.14365 0
M  V30 10806 H 1032.6 0.416035 0.628833 0
M  V30 10807 H 1035.26 1.51209 1.03962 0
M  V30 10808 H 1033.64 1.49633 3.66641 0
M  V30 10809 H 1034.81 4.00049 2.28687 0
M  V30 10810 H 1033.13 3.53391 2.20236 0
M  V30 10811 H 1035.72 2.43819 4.75875 0
M  V30 10812 H 1036.07 0.869797 4.07112 0
M  V30 10813 H 1036.6 2.33875 3.21788 0
M  V30 10814 H 1033.34 5.2526 3.9215 0
M  V30 10815 H 1032.86 3.72696 4.69955 0
M  V30 10816 H 1034.54 4.30734 4.82781 0
M  V30 10817 N 1034.67 -1.14067 1.0875 0
M  V30 10818 C 1035.9 -1.88767 0.839682 0
M  V30 10819 C 1036.31 -1.79024 -0.612119 0
M  V30 10820 O 1035.65 -1.14986 -1.43262 0
M  V30 10821 C 1035.71 -3.39333 1.18716 0
M  V30 10822 C 1035.38 -3.72858 2.64245 0
M  V30 10823 C 1036.37 -3.72683 3.62496 0
M  V30 10824 C 1034.06 -4.0273 3.0019 0
M  V30 10825 C 1036.05 -4.01909 4.9472 0
M  V30 10826 C 1033.74 -4.31618 4.32607 0
M  V30 10827 C 1034.74 -4.31192 5.29682 0
M  V30 10828 O 1034.43 -4.59377 6.59718 0
M  V30 10829 H 1034.16 -0.604665 0.302253 0
M  V30 10830 H 1036.71 -1.45364 1.45115 0
M  V30 10831 H 1034.94 -3.83205 0.518707 0
M  V30 10832 H 1036.63 -3.95346 0.919599 0
M  V30 10833 H 1037.4 -3.49688 3.3607 0
M  V30 10834 H 1033.28 -4.02213 2.25268 0
M  V30 10835 H 1036.82 -4.01491 5.70483 0
M  V30 10836 H 1032.72 -4.54083 4.58779 0
M  V30 10837 H 1033.49 -4.77078 6.65086 0
M  V30 10838 N 1036.15 -0.873678 -1.31166 0
M  V30 10839 C 1037.1 -0.303699 -2.25968 0
M  V30 10840 C 1038.08 0.561387 -1.50789 0
M  V30 10841 O 1039.27 0.407658 -1.72242 0
M  V30 10842 C 1036.4 0.490612 -3.39776 0
M  V30 10843 C 1035.49 -0.387927 -4.22322 0
M  V30 10844 N 1035.88 -1.48313 -4.83567 0
M  V30 10845 C 1034.18 -0.18102 -4.45632 0
M  V30 10846 C 1034.88 -2.0252 -5.45308 0
M  V30 10847 N 1033.86 -1.32169 -5.27288 0
M  V30 10848 H 1037.66 -1.14071 -2.7086 0
M  V30 10849 H 1035.17 -0.721843 -1.45476 0
M  V30 10850 H 1037.17 0.9155 -4.06724 0
M  V30 10851 H 1035.83 1.32519 -2.96427 0
M  V30 10852 H 1036.84 -1.86604 -4.83114 0
M  V30 10853 H 1033.52 0.617304 -4.12911 0
M  V30 10854 H 1034.91 -2.94429 -6.03955 0
M  V30 10855 N 1037.63 1.44308 -0.633487 0
M  V30 10856 C 1038.57 2.30694 0.0700257 0
M  V30 10857 C 1039.54 1.43618 0.834447 0
M  V30 10858 O 1040.73 1.72517 0.815014 0
M  V30 10859 C 1037.87 3.28929 1.04403 0
M  V30 10860 C 1036.98 4.31106 0.277779 0
M  V30 10861 C 1036.12 5.16433 1.24381 0
M  V30 10862 C 1035.16 6.10317 0.466855 0
M  V30 10863 N 1034.29 6.88335 1.38347 0
M  V30 10864 H 1039.13 2.90311 -0.672567 0
M  V30 10865 H 1036.67 1.43034 -0.343449 0
M  V30 10866 H 1038.63 3.84373 1.62214 0
M  V30 10867 H 1037.26 2.71006 1.75372 0
M  V30 10868 H 1036.31 3.78115 -0.416292 0
M  V30 10869 H 1037.62 4.97725 -0.327251 0
M  V30 10870 H 1036.78 5.76406 1.89318 0
M  V30 10871 H 1035.51 4.49893 1.88276 0
M  V30 10872 H 1034.52 5.49451 -0.195989 0
M  V30 10873 H 1035.74 6.78894 -0.167414 0
M  V30 10874 H 1033.69 6.24461 2.00959 0
M  V30 10875 H 1033.61 7.51402 0.832517 0
M  V30 10876 H 1034.88 7.52829 2.0216 0
M  V30 10877 N 1039.1 0.374177 1.53094 0
M  V30 10878 C 1040.35 -0.213131 2.01677 0
M  V30 10879 C 1040.68 -1.47715 1.26071 0
M  V30 10880 O 1039.96 -1.91199 0.356834 0
M  V30 10881 C 1040.24 -0.496392 3.56662 0
M  V30 10882 C 1040.09 0.781859 4.42953 0
M  V30 10883 C 1041.41 -1.29339 4.20666 0
M  V30 10884 H 1038.53 -0.0759885 0.733072 0
M  V30 10885 H 1041.17 0.500765 1.83282 0
M  V30 10886 H 1039.32 -1.10455 3.72467 0
M  V30 10887 H 1041 1.41914 4.38928 0
M  V30 10888 H 1039.24 1.40041 4.10574 0
M  V30 10889 H 1039.91 0.538508 5.49367 0
M  V30 10890 H 1042.39 -0.778848 4.08746 0
M  V30 10891 H 1041.26 -1.46033 5.29118 0
M  V30 10892 H 1041.52 -2.30435 3.77296 0
M  V30 10893 N 1040.58 -1.57259 0.103575 0
M  V30 10894 C 1041.53 -2.14487 -0.852295 0
M  V30 10895 C 1042.5 -1.06567 -1.27407 0
M  V30 10896 O 1043.68 -1.34398 -1.35432 0
M  V30 10897 C 1040.82 -2.73632 -2.10284 0
M  V30 10898 C 1039.94 -3.95811 -1.73083 0
M  V30 10899 C 1039.07 -4.43093 -2.92988 0
M  V30 10900 C 1038.11 -5.5784 -2.51953 0
M  V30 10901 N 1037.25 -5.99936 -3.64721 0
M  V30 10902 H 1042.09 -2.95849 -0.35743 0
M  V30 10903 H 1039.63 -1.46175 -0.164748 0
M  V30 10904 H 1041.58 -3.06046 -2.83534 0
M  V30 10905 H 1040.21 -1.94985 -2.57256 0
M  V30 10906 H 1039.27 -3.69656 -0.897688 0
M  V30 10907 H 1040.58 -4.79066 -1.38916 0
M  V30 10908 H 1039.73 -4.77335 -3.74481 0
M  V30 10909 H 1038.47 -3.58756 -3.30372 0
M  V30 10910 H 1037.48 -5.23217 -1.6889 0
M  V30 10911 H 1038.7 -6.43932 -2.15705 0
M  V30 10912 H 1036.65 -5.18543 -4.01807 0
M  V30 10913 H 1036.56 -6.78008 -3.34427 0
M  V30 10914 H 1037.83 -6.38812 -4.46699 0
M  V30 10915 N 1042.06 0.170153 -1.56679 0
M  V30 10916 C 1043.48 0.521966 -1.50823 0
M  V30 10917 C 1043.68 1.84589 -0.808037 0
M  V30 10918 O 1042.73 2.49791 -0.368891 0
M  V30 10919 C 1044.05 0.553648 -2.95559 0
M  V30 10920 C 1045.59 0.640769 -3.06371 0
M  V30 10921 C 1046.07 0.703332 -4.52567 0
M  V30 10922 N 1047.56 0.76619 -4.56819 0
M  V30 10923 C 1048.29 0.835192 -5.67285 0
M  V30 10924 N 1047.79 0.864957 -6.87379 0
M  V30 10925 N 1049.58 0.874302 -5.55259 0
M  V30 10926 H 1041.73 -0.697952 -2.00605 0
M  V30 10927 H 1044 -0.251787 -0.913952 0
M  V30 10928 H 1043.7 -0.350498 -3.49949 0
M  V30 10929 H 1043.58 1.39973 -3.50268 0
M  V30 10930 H 1045.96 1.53534 -2.52015 0
M  V30 10931 H 1046.05 -0.232008 -2.54746 0
M  V30 10932 H 1045.69 -0.186986 -5.07556 0
M  V30 10933 H 1045.62 1.59227 -5.0195 0
M  V30 10934 H 1048.11 0.751424 -3.70354 0
M  V30 10935 H 1048.42 0.918814 -7.67318 0
M  V30 10936 H 1046.77 0.833215 -6.89987 0
M  V30 10937 H 1049.96 0.848057 -4.60354 0
M  V30 10938 H 1050.13 0.924615 -6.4137 0
M  V30 10939 N 1043.54 1.5137 0.438746 0
M  V30 10940 C 1044.78 1.64211 1.19006 0
M  V30 10941 C 1045.12 0.356607 1.90898 0
M  V30 10942 O 1044.39 -0.643722 1.83539 0
M  V30 10943 C 1044.68 2.8445 2.20817 0
M  V30 10944 C 1044.53 4.22972 1.53018 0
M  V30 10945 C 1045.85 3.00207 3.21813 0
M  V30 10946 H 1042.97 0.597628 0.431288 0
M  V30 10947 H 1045.61 1.8385 0.479487 0
M  V30 10948 H 1043.76 2.67836 2.81418 0
M  V30 10949 H 1045.43 4.5125 0.957654 0
M  V30 10950 H 1043.67 4.25736 0.832556 0
M  V30 10951 H 1044.34 5.03094 2.27158 0
M  V30 10952 H 1046.82 3.15522 2.71266 0
M  V30 10953 H 1045.7 3.85904 3.90345 0
M  V30 10954 H 1045.96 2.12216 3.87836 0
M  V30 10955 N 1045.02 -0.694098 1.41492 0
M  V30 10956 C 1046.27 -1.4498 1.40227 0
M  V30 10957 C 1046.58 -1.95594 0.0151253 0
M  V30 10958 O 1047.78 -2.71234 -0.120146 0
M  V30 10959 C 1046.24 -2.62171 2.46565 0
M  V30 10960 C 1045.85 -2.18337 3.91194 0
M  V30 10961 C 1047.59 -3.39796 2.54439 0
M  V30 10962 C 1045.5 -3.32495 4.89082 0
M  V30 10963 H 1044.43 -0.544584 0.521483 0
M  V30 10964 H 1047.08 -0.75337 1.67322 0
M  V30 10965 H 1045.46 -3.34089 2.12604 0
M  V30 10966 H 1046.64 -1.53698 4.34412 0
M  V30 10967 H 1044.95 -1.53702 3.86994 0
M  V30 10968 H 1047.55 -4.2478 3.24755 0
M  V30 10969 H 1047.89 -3.85082 1.5817 0
M  V30 10970 H 1048.42 -2.74935 2.87499 0
M  V30 10971 H 1045.16 -2.92219 5.86761 0
M  V30 10972 H 1044.68 -3.95978 4.50512 0
M  V30 10973 H 1046.36 -3.98251 5.09907 0
M  V30 10974 N 1046.49 -1.27344 -0.928501 0
M  V30 10975 C 1047.4 -1.11812 -2.06241 0
M  V30 10976 C 1048.42 -0.048347 -1.73933 0
M  V30 10977 O 1049.6 -0.25467 -1.99783 0
M  V30 10978 C 1046.66 -0.766036 -3.38131 0
M  V30 10979 C 1045.72 -1.91659 -3.84142 0
M  V30 10980 C 1044.96 -1.58121 -5.09738 0
M  V30 10981 O 1045.18 -0.488742 -5.68302 0
M  V30 10982 O 1044.11 -2.42013 -5.51102 0
M  V30 10983 H 1047.94 -2.06967 -2.22258 0
M  V30 10984 H 1045.52 -1.06524 -1.04752 0
M  V30 10985 H 1047.41 -0.582982 -4.17348 0
M  V30 10986 H 1046.08 0.155998 -3.23324 0
M  V30 10987 H 1044.99 -2.1547 -3.05816 0
M  V30 10988 H 1046.32 -2.8188 -4.0349 0
M  V30 10989 N 1047.97 1.13488 -1.09353 0
M  V30 10990 C 1049.25 1.80998 -0.741559 0
M  V30 10991 C 1049.63 1.96418 0.773505 0
M  V30 10992 O 1048.98 1.53168 1.69563 0
M  V30 10993 C 1049.19 3.16078 -1.47972 0
M  V30 10994 C 1050.54 3.91438 -1.64504 0
M  V30 10995 O 1051.56 3.25699 -1.44218 0
M  V30 10996 O 1050.42 5.0935 -1.98054 0
M  V30 10997 H 1047.51 0.782953 -0.266297 0
M  V30 10998 H 1050.06 1.20422 -1.19569 0
M  V30 10999 H 1048.83 3.00076 -2.51137 0
M  V30 11000 H 1048.45 3.84354 -1.01772 0
M  V30 11001 N 1049.45 0.880621 1.30701 0
M  V30 11002 C 1050.38 0.360251 2.30704 0
M  V30 11003 C 1051.36 -0.554572 1.60806 0
M  V30 11004 O 1052.55 -0.469345 1.88443 0
M  V30 11005 C 1049.68 -0.429888 3.44629 0
M  V30 11006 C 1048.63 0.392786 4.26194 0
M  V30 11007 C 1047.96 -0.52369 5.32129 0
M  V30 11008 C 1049.26 1.63258 4.96129 0
M  V30 11009 H 1050.95 1.19591 2.74478 0
M  V30 11010 H 1048.5 0.576508 1.31956 0
M  V30 11011 H 1050.45 -0.804532 4.13649 0
M  V30 11012 H 1049.17 -1.29916 2.99649 0
M  V30 11013 H 1047.83 0.749514 3.58856 0
M  V30 11014 H 1047.48 -1.39054 4.83397 0
M  V30 11015 H 1047.18 0.0229272 5.87596 0
M  V30 11016 H 1048.71 -0.894946 6.04006 0
M  V30 11017 H 1050.12 1.32877 5.57689 0
M  V30 11018 H 1048.52 2.11906 5.61441 0
M  V30 11019 H 1049.59 2.37944 4.22505 0
M  V30 11020 N 1050.93 -1.4397 0.641131 0
M  V30 11021 C 1052.15 -2.06818 0.155318 0
M  V30 11022 C 1052.58 -1.47665 -1.16519 0
M  V30 11023 O 1051.94 -0.58192 -1.71707 0
M  V30 11024 C 1051.99 -3.60542 0.0647537 0
M  V30 11025 O 1051.09 -4.00674 -0.976447 0
M  V30 11026 H 1050.43 -0.657962 0.0893404 0
M  V30 11027 H 1052.96 -1.84678 0.88064 0
M  V30 11028 H 1052.97 -4.07816 -0.122552 0
M  V30 11029 H 1051.65 -4.02975 1.02878 0
M  V30 11030 H 1050.22 -3.65013 -0.762905 0
M  V30 11031 N 1052.41 -0.382291 -1.52893 0
M  V30 11032 C 1053.66 0.201734 -2.01091 0
M  V30 11033 C 1053.98 1.47905 -1.2708 0
M  V30 11034 O 1053.25 1.92002 -0.38883 0
M  V30 11035 H 1051.83 0.0775373 -0.742965 0
M  V30 11036 H 1054.49 -0.512369 -1.88045 0
M  V30 11037 H 1053.58 0.416919 -3.09303 0
M  V30 11038 N 1053.89 1.57202 -0.111913 0
M  V30 11039 C 1055.3 1.82039 0.414591 0
M  V30 11040 C 1055.65 1.02863 1.67074 0
M  V30 11041 O 1054.77 0.263068 2.14795 0
M  V30 11042 C 1055.37 3.3019 0.758953 0
M  V30 11043 C 1053.93 3.55732 1.23012 0
M  V30 11044 C 1053.07 2.76301 0.235226 0
M  V30 11045 H 1056.02 1.55078 -0.337142 0
M  V30 11046 H 1056.05 3.44431 1.61701 0
M  V30 11047 H 1055.56 3.87788 -0.155473 0
M  V30 11048 H 1053.66 3.03483 2.16169 0
M  V30 11049 H 1053.77 4.64333 1.18034 0
M  V30 11050 H 1052.14 2.44287 0.720822 0
M  V30 11051 H 1052.92 3.36655 -0.672173 0
M  V30 11052 N 1055.36 -0.161842 1.56767 0
M  V30 11053 C 1056.59 -0.890953 1.86402 0
M  V30 11054 C 1057 -1.75918 0.696373 0
M  V30 11055 O 1056.34 -1.80461 -0.343463 0
M  V30 11056 C 1056.41 -1.81079 3.10565 0
M  V30 11057 C 1056.07 -1.12121 4.43032 0
M  V30 11058 C 1057.07 -0.482152 5.17659 0
M  V30 11059 C 1054.75 -1.11514 4.89765 0
M  V30 11060 C 1056.75 0.153772 6.37214 0
M  V30 11061 C 1054.43 -0.4754 6.09248 0
M  V30 11062 C 1055.43 0.157944 6.82817 0
M  V30 11063 O 1055.12 0.787579 8.00033 0
M  V30 11064 H 1054.85 -0.26379 0.622407 0
M  V30 11065 H 1057.41 -0.163884 2.04745 0
M  V30 11066 H 1055.64 -2.57842 2.88192 0
M  V30 11067 H 1057.32 -2.41056 3.26568 0
M  V30 11068 H 1058.09 -0.478752 4.82631 0
M  V30 11069 H 1053.97 -1.59752 4.32435 0
M  V30 11070 H 1057.51 0.648716 6.94577 0
M  V30 11071 H 1053.41 -0.476416 6.43739 0
M  V30 11072 H 1054.18 0.687769 8.15605 0
M  V30 11073 N 1056.84 -1.516 -0.430713 0
M  V30 11074 C 1058.09 -1.63829 -1.17657 0
M  V30 11075 C 1058.4 -0.363605 -1.92191 0
M  V30 11076 O 1059.61 -0.365358 -2.6903 0
M  V30 11077 C 1058.07 -2.89357 -2.14011 0
M  V30 11078 C 1057.67 -4.23854 -1.45094 0
M  V30 11079 C 1059.42 -3.10944 -2.88988 0
M  V30 11080 C 1057.32 -5.40526 -2.3997 0
M  V30 11081 H 1056.25 -0.610221 -0.442884 0
M  V30 11082 H 1058.91 -1.78073 -0.442984 0
M  V30 11083 H 1057.29 -2.68762 -2.90832 0
M  V30 11084 H 1058.46 -4.54854 -0.737853 0
M  V30 11085 H 1056.78 -4.08197 -0.822429 0
M  V30 11086 H 1059.37 -3.95286 -3.60074 0
M  V30 11087 H 1059.72 -2.24291 -3.50712 0
M  V30 11088 H 1060.25 -3.3191 -2.19272 0
M  V30 11089 H 1056.99 -6.29459 -1.82925 0
M  V30 11090 H 1056.51 -5.13893 -3.09313 0
M  V30 11091 H 1058.19 -5.72741 -3.00959 0
M  V30 11092 N 1058.32 0.686584 -1.41858 0
M  V30 11093 C 1059.57 1.44738 -1.42908 0
M  V30 11094 C 1059.92 1.92357 -0.0404705 0
M  V30 11095 O 1059.21 1.67221 0.935287 0
M  V30 11096 C 1059.41 2.66793 -2.37816 0
M  V30 11097 C 1059.24 2.31114 -3.85767 0
M  V30 11098 C 1058.01 2.21043 -4.54388 0
M  V30 11099 C 1060.2 1.93512 -4.76505 0
M  V30 11100 N 1058.19 1.78344 -5.87424 0
M  V30 11101 C 1059.56 1.61642 -5.98558 0
M  V30 11102 C 1061.61 1.80401 -4.64069 0
M  V30 11103 C 1060.32 1.17977 -7.09559 0
M  V30 11104 C 1062.34 1.38141 -5.7504 0
M  V30 11105 C 1061.7 1.07186 -6.96197 0
M  V30 11106 H 1057.8 0.526577 -0.578136 0
M  V30 11107 H 1060.39 0.793483 -1.77797 0
M  V30 11108 H 1058.56 3.29889 -2.05007 0
M  V30 11109 H 1060.29 3.33318 -2.29524 0
M  V30 11110 H 1057.04 2.39731 -4.08443 0
M  V30 11111 H 1057.47 1.59451 -6.57955 0
M  V30 11112 H 1062.11 2.02983 -3.70888 0
M  V30 11113 H 1059.83 0.941397 -8.02598 0
M  V30 11114 H 1063.41 1.28533 -5.67425 0
M  V30 11115 H 1062.29 0.749804 -7.80607 0
M  V30 11116 N 1059.8 1.27835 0.921735 0
M  V30 11117 C 1061.04 1.14692 1.67253 0
M  V30 11118 C 1061.38 -0.305384 1.91784 0
M  V30 11119 O 1060.65 -1.22286 1.51249 0
M  V30 11120 C 1060.93 1.93743 3.03539 0
M  V30 11121 C 1060.79 3.46991 2.86212 0
M  V30 11122 C 1062.11 1.74658 4.03959 0
M  V30 11123 H 1059.23 0.418021 0.606983 0
M  V30 11124 H 1061.87 1.5706 1.06922 0
M  V30 11125 H 1060.02 1.57738 3.55037 0
M  V30 11126 H 1061.69 3.92858 2.41785 0
M  V30 11127 H 1059.93 3.73029 2.21432 0
M  V30 11128 H 1060.6 3.97551 3.82958 0
M  V30 11129 H 1063.08 2.06063 3.61493 0
M  V30 11130 H 1061.96 2.32353 4.97296 0
M  V30 11131 H 1062.22 0.696019 4.36587 0
M  V30 11132 N 1061.28 -1.12907 1.09954 0
M  V30 11133 C 1062.69 -1.65847 0.857417 0
M  V30 11134 C 1063.04 -1.86372 -0.613176 0
M  V30 11135 O 1062.16 -1.58654 -1.47166 0
M  V30 11136 C 1062.76 -3.01269 1.54991 0
M  V30 11137 C 1061.32 -3.51179 1.35462 0
M  V30 11138 C 1060.46 -2.26307 1.60251 0
M  V30 11139 H 1063.41 -0.96755 1.25794 0
M  V30 11140 H 1063.44 -3.675 0.986091 0
M  V30 11141 H 1062.95 -2.86299 2.6202 0
M  V30 11142 H 1061.05 -3.71343 0.305742 0
M  V30 11143 H 1061.16 -4.30955 2.09318 0
M  V30 11144 H 1059.53 -2.33167 1.02494 0
M  V30 11145 H 1060.31 -2.13896 2.68521 0
M  V30 11146 N 1062.75 -0.88754 -1.30232 0
M  V30 11147 C 1063.72 -0.361095 -2.26338 0
M  V30 11148 C 1064.72 0.497871 -1.52898 0
M  V30 11149 O 1065.91 0.30466 -1.71515 0
M  V30 11150 C 1063.04 0.485135 -3.3743 0
M  V30 11151 H 1064.23 -1.20973 -2.74419 0
M  V30 11152 H 1061.78 -0.664619 -1.41466 0
M  V30 11153 H 1062.52 1.35425 -2.9467 0
M  V30 11154 H 1062.3 -0.130173 -3.91884 0
M  V30 11155 H 1063.79 0.845169 -4.08958 0
M  V30 11156 N 1064.23 1.43628 -0.648757 0
M  V30 11157 C 1065.65 1.56442 -0.315921 0
M  V30 11158 C 1065.85 1.63322 1.18018 0
M  V30 11159 O 1064.9 1.58585 1.96487 0
M  V30 11160 C 1066.22 2.82751 -1.02335 0
M  V30 11161 C 1067.77 2.96488 -1.00318 0
M  V30 11162 C 1068.24 4.25623 -1.69142 0
M  V30 11163 N 1069.73 4.32477 -1.65885 0
M  V30 11164 C 1070.47 5.31154 -2.16016 0
M  V30 11165 N 1069.96 6.36135 -2.74415 0
M  V30 11166 N 1071.76 5.22778 -2.06541 0
M  V30 11167 H 1063.91 1.37405 -1.61968 0
M  V30 11168 H 1066.17 0.65962 -0.680886 0
M  V30 11169 H 1065.88 2.83714 -2.07844 0
M  V30 11170 H 1065.75 3.72836 -0.572114 0
M  V30 11171 H 1068.14 2.95068 0.0434919 0
M  V30 11172 H 1068.22 2.07704 -1.49307 0
M  V30 11173 H 1067.86 4.27804 -2.73763 0
M  V30 11174 H 1067.79 5.13296 -1.17622 0
M  V30 11175 H 1070.28 3.57232 -1.23264 0
M  V30 11176 H 1070.6 7.07743 -3.10355 0
M  V30 11177 H 1068.94 6.36771 -2.78474 0
M  V30 11178 H 1072.13 4.39678 -1.60625 0
M  V30 11179 H 1072.3 5.99523 -2.45919 0
M  V30 11180 N 1065.71 0.390394 1.52688 0
M  V30 11181 C 1066.62 -0.451543 2.30213 0
M  V30 11182 C 1067.64 -1.07051 1.37172 0
M  V30 11183 O 1068.81 -1.07609 1.70242 0
M  V30 11184 C 1065.88 -1.56299 3.0947 0
M  V30 11185 C 1064.94 -0.969017 4.18221 0
M  V30 11186 C 1064.17 -2.0275 4.93688 0
M  V30 11187 O 1064.39 -3.24273 4.69258 0
M  V30 11188 O 1063.33 -1.64418 5.79008 0
M  V30 11189 H 1067.15 0.180042 3.03166 0
M  V30 11190 H 1064.74 0.154082 1.48603 0
M  V30 11191 H 1066.62 -2.20864 3.58883 0
M  V30 11192 H 1065.3 -2.17952 2.3933 0
M  V30 11193 H 1064.2 -0.286587 3.73001 0
M  V30 11194 H 1065.54 -0.396687 4.90599 0
M  V30 11195 N 1067.19 -1.57141 0.120249 0
M  V30 11196 C 1068.6 -1.5784 -0.236335 0
M  V30 11197 C 1068.8 -1.13304 -1.66626 0
M  V30 11198 O 1067.86 -0.821004 -2.3878 0
M  V30 11199 C 1069.17 -3.007 -0.00188211 0
M  V30 11200 C 1070.72 -3.12927 -0.0676838 0
M  V30 11201 C 1071.2 -4.57789 0.139092 0
M  V30 11202 N 1072.69 -4.63122 0.085104 0
M  V30 11203 C 1073.42 -5.72978 0.219983 0
M  V30 11204 N 1072.92 -6.91579 0.411102 0
M  V30 11205 N 1074.71 -5.61874 0.159469 0
M  V30 11206 H 1066.86 -1.84391 1.05422 0
M  V30 11207 H 1069.13 -0.852228 0.415225 0
M  V30 11208 H 1068.83 -3.37575 0.986718 0
M  V30 11209 H 1068.71 -3.70005 -0.733203 0
M  V30 11210 H 1071.09 -2.75909 -1.04681 0
M  V30 11211 H 1071.17 -2.46162 0.695538 0
M  V30 11212 H 1070.82 -4.95506 1.1152 0
M  V30 11213 H 1070.75 -5.22646 -0.644131 0
M  V30 11214 H 1073.24 -3.77854 -0.0590479 0
M  V30 11215 H 1073.55 -7.71149 0.504851 0
M  V30 11216 H 1071.9 -6.9356 0.447091 0
M  V30 11217 H 1075.09 -4.68099 0.0111131 0
M  V30 11218 H 1075.26 -6.47445 0.268028 0
M  V30 11219 N 1068.67 0.153526 -1.5685 0
M  V30 11220 C 1069.6 1.19162 -2.00805 0
M  V30 11221 C 1070.58 1.45172 -0.886518 0
M  V30 11222 O 1071.76 1.56203 -1.15387 0
M  V30 11223 C 1068.89 2.52637 -2.38311 0
M  V30 11224 C 1067.85 2.41161 -3.53589 0
M  V30 11225 C 1067.17 3.79287 -3.76889 0
M  V30 11226 C 1068.47 1.90122 -4.86468 0
M  V30 11227 H 1070.17 0.82617 -2.87776 0
M  V30 11228 H 1067.71 0.395972 -1.38449 0
M  V30 11229 H 1069.67 3.25478 -2.6766 0
M  V30 11230 H 1068.39 2.91005 -1.4827 0
M  V30 11231 H 1067.05 1.70772 -3.24395 0
M  V30 11232 H 1066.7 4.15079 -2.84109 0
M  V30 11233 H 1066.4 3.72472 -4.54465 0
M  V30 11234 H 1067.92 4.53687 -4.08657 0
M  V30 11235 H 1069.33 2.52752 -5.14577 0
M  V30 11236 H 1067.73 1.94214 -5.67804 0
M  V30 11237 H 1068.8 0.856517 -4.77275 0
M  V30 11238 O 1070.18 1.58721 0.298301 0
M  V30 11239 H 1070.87 1.69072 0.945216 0
M  V30 END ATOM
M  V30 BEGIN BOND
M  V30 END BOND
M  V30 END CTAB
M  END
$$$$
