drugbank_target|P78348 Acid-sensing ion channel 1 (DB00594)
 OpenBabel12092119303D

  0  0  0     0  0            999 V3000
M  V30 BEGIN CTAB
M  V30 COUNTS 8307 8404 0 0 0
M  V30 BEGIN ATOM
M  V30 1 H -0.908 1.98254 -0.117106 0
M  V30 2 N 0 1.576 0 0
M  V30 3 C 0.933 2.03868 1.02534 0
M  V30 4 C 1.911 0.928543 1.3348 0
M  V30 5 O 3.095 1.19667 1.45644 0
M  V30 6 C 0.222 2.43627 2.35294 0
M  V30 7 C -0.732 3.65373 2.2001 0
M  V30 8 S 0.101 5.13292 1.52614 0
M  V30 9 C 1.257 5.56322 2.86805 0
M  V30 10 H 1.49 2.90518 0.631377 0
M  V30 11 H -0.977 1.52953 0.210867 0
M  V30 12 H 0.981 2.67203 3.11629 0
M  V30 13 H -0.358 1.57376 2.7183 0
M  V30 14 H -1.165 3.90944 3.18086 0
M  V30 15 H -1.563 3.418 1.51819 0
M  V30 16 H 0.729 5.58782 3.83104 0
M  V30 17 H 1.672 6.56266 2.65933 0
M  V30 18 H 2.08 4.83886 2.90714 0
M  V30 19 N 1.4781 -0.272755 1.55222 0
M  V30 20 C 2.3881 -1.35918 1.91216 0
M  V30 21 C 3.4041 -1.54026 0.809436 0
M  V30 22 O 4.5801 -1.68148 1.10852 0
M  V30 23 C 1.6451 -2.69834 2.17693 0
M  V30 24 C 0.7061 -2.6047 3.41253 0
M  V30 25 C -0.0609 -3.88 3.66458 0
M  V30 26 O 0.1621 -4.88693 2.94169 0
M  V30 27 O -0.9039 -3.88189 4.59992 0
M  V30 28 H 2.9221 -1.0839 2.83699 0
M  V30 29 H 0.5071 -0.471301 1.41771 0
M  V30 30 H 2.3891 -3.49017 2.36147 0
M  V30 31 H 1.0641 -2.97148 1.28392 0
M  V30 32 H -0.0289 -1.79663 3.28134 0
M  V30 33 H 1.3041 -2.38106 4.30774 0
M  V30 34 N 2.9562 -1.48159 -0.537278 0
M  V30 35 C 3.8862 -1.65029 -1.6519 0
M  V30 36 C 4.8672 -0.499281 -1.62607 0
M  V30 37 O 6.0522 -0.730972 -1.79918 0
M  V30 38 C 3.1822 -1.68303 -3.03795 0
M  V30 39 C 2.1362 -2.8283 -3.21234 0
M  V30 40 C 1.4622 -2.71189 -4.60826 0
M  V30 41 C 2.7622 -4.24211 -3.04701 0
M  V30 42 H 4.4562 -2.58341 -1.51328 0
M  V30 43 H 2.0022 -1.24325 -0.726585 0
M  V30 44 H 3.9552 -1.78693 -3.81637 0
M  V30 45 H 2.6792 -0.715635 -3.18663 0
M  V30 46 H 1.3382 -2.71983 -2.45807 0
M  V30 47 H 0.9862 -1.72435 -4.7252 0
M  V30 48 H 0.6862 -3.48035 -4.7344 0
M  V30 49 H 2.2102 -2.83537 -5.40777 0
M  V30 50 H 3.6242 -4.3593 -3.72341 0
M  V30 51 H 2.0212 -5.01998 -3.28813 0
M  V30 52 H 3.0912 -4.41184 -2.01209 0
M  V30 53 N 4.4343 0.785586 -1.36625 0
M  V30 54 C 5.3813 1.89838 -1.31264 0
M  V30 55 C 6.3513 1.65115 -0.180633 0
M  V30 56 O 7.5363 1.87222 -0.36777 0
M  V30 57 C 4.6763 3.26706 -1.11163 0
M  V30 58 C 3.7893 3.63476 -2.33472 0
M  V30 59 C 2.9243 4.89481 -2.06353 0
M  V30 60 C 1.9633 5.18941 -3.24602 0
M  V30 61 N 1.1003 6.36131 -2.97123 0
M  V30 62 H 5.9403 1.93756 -2.26413 0
M  V30 63 H 3.4773 0.947454 -1.12524 0
M  V30 64 H 5.4353 4.05639 -0.975337 0
M  V30 65 H 4.0653 3.222 -0.196674 0
M  V30 66 H 3.1173 2.79636 -2.57891 0
M  V30 67 H 4.4293 3.81193 -3.21704 0
M  V30 68 H 3.5833 5.76288 -1.89675 0
M  V30 69 H 2.3223 4.73841 -1.15437 0
M  V30 70 H 1.3273 4.30615 -3.41834 0
M  V30 71 H 2.5523 5.36498 -4.16349 0
M  V30 72 H 0.4983 6.21875 -2.08823 0
M  V30 73 H 0.4153 6.54198 -3.78894 0
M  V30 74 H 1.6833 7.2591 -2.84033 0
M  V30 75 N 5.9124 1.20967 1.01018 0
M  V30 76 C 6.8754 0.965918 2.07853 0
M  V30 77 C 7.8754 -0.0610545 1.60684 0
M  V30 78 O 9.0654 0.175681 1.73312 0
M  V30 79 C 6.1974 0.455513 3.37843 0
M  V30 80 H 7.3904 1.91365 2.3091 0
M  V30 81 H 4.9434 1.02594 1.17916 0
M  V30 82 H 5.6784 -0.497381 3.20463 0
M  V30 83 H 5.4634 1.19622 3.73407 0
M  V30 84 H 6.9534 0.304667 4.16487 0
M  V30 85 N 7.3905 -1.2043 1.01659 0
M  V30 86 C 8.3005 -2.2689 0.596484 0
M  V30 87 C 9.3165 -1.70107 -0.36599 0
M  V30 88 O 10.4925 -2.00117 -0.226942 0
M  V30 89 C 7.5575 -3.4665 -0.0586659 0
M  V30 90 C 6.6185 -4.18662 0.949751 0
M  V30 91 C 5.8515 -5.32705 0.32577 0
M  V30 92 O 6.0745 -5.63656 -0.874509 0
M  V30 93 O 5.0085 -5.92803 1.04249 0
M  V30 94 H 8.8345 -2.65041 1.4828 0
M  V30 95 H 6.4195 -1.27048 0.786082 0
M  V30 96 H 8.3015 -4.19256 -0.424564 0
M  V30 97 H 6.9765 -3.10375 -0.91918 0
M  V30 98 H 5.8835 -3.48229 1.36702 0
M  V30 99 H 7.2165 -4.58878 1.78023 0
M  V30 100 N 8.8686 -0.792821 -1.36206 0
M  V30 101 C 9.7786 -0.194808 -2.3379 0
M  V30 102 C 10.7946 0.654869 -1.61206 0
M  V30 103 O 11.9706 0.569856 -1.9317 0
M  V30 104 C 9.0356 0.657721 -3.40404 0
M  V30 105 C 8.0966 -0.210849 -4.28782 0
M  V30 106 C 7.3296 0.601086 -5.30304 0
M  V30 107 O 7.5526 1.83682 -5.40016 0
M  V30 108 O 6.4866 -0.000808277 -6.019 0
M  V30 109 H 10.3126 -1.00172 -2.86704 0
M  V30 110 H 7.8976 -0.554341 -1.38735 0
M  V30 111 H 9.7796 1.14375 -4.05581 0
M  V30 112 H 8.4546 1.44247 -2.89784 0
M  V30 113 H 7.3616 -0.743714 -3.66633 0
M  V30 114 H 8.6946 -0.959195 -4.82763 0
M  V30 115 N 10.3467 1.47872 -0.545128 0
M  V30 116 C 11.2567 2.33633 0.212746 0
M  V30 117 C 12.2727 1.4744 0.923983 0
M  V30 118 O 13.4487 1.80393 0.895572 0
M  V30 119 C 10.5137 3.23884 1.23693 0
M  V30 120 C 9.5747 4.25961 0.534417 0
M  V30 121 C 8.8077 5.11899 1.5098 0
M  V30 122 O 9.0307 5.00077 2.7437 0
M  V30 123 O 7.9647 5.92831 1.0409 0
M  V30 124 H 11.7907 2.99714 -0.490416 0
M  V30 125 H 9.3757 1.46235 -0.305871 0
M  V30 126 H 11.2577 3.79666 1.82843 0
M  V30 127 H 9.9327 2.60446 1.92222 0
M  V30 128 H 8.8397 3.73972 -0.0979679 0
M  V30 129 H 10.1727 4.92079 -0.109213 0
M  V30 130 N 11.8248 0.280983 1.55075 0
M  V30 131 C 12.7348 -0.61388 2.26426 0
M  V30 132 C 13.7508 -1.16521 1.29224 0
M  V30 133 O 14.9268 -1.19426 1.62171 0
M  V30 134 C 11.9918 -1.7788 2.9759 0
M  V30 135 C 11.0528 -1.26355 4.10284 0
M  V30 136 C 10.2858 -2.37295 4.78045 0
M  V30 137 O 10.5088 -3.56777 4.45047 0
M  V30 138 O 9.4428 -2.05119 5.65871 0
M  V30 139 H 13.2688 -0.0356932 3.03679 0
M  V30 140 H 10.8538 0.0481686 1.49322 0
M  V30 141 H 12.7358 -2.45791 3.42293 0
M  V30 142 H 11.4108 -2.34397 2.23249 0
M  V30 143 H 10.3178 -0.550735 3.70024 0
M  V30 144 H 11.6508 -0.744065 4.86543 0
M  V30 145 N 13.3029 -1.57598 0.00835791 0
M  V30 146 C 14.5489 -1.91211 -0.675732 0
M  V30 147 C 14.8819 -0.883139 -1.72958 0
M  V30 148 O 14.1569 0.097016 -1.94258 0
M  V30 149 C 14.4399 -3.35379 -1.31123 0
M  V30 150 C 14.2929 -4.48999 -0.268356 0
M  V30 151 C 15.6119 -3.7912 -2.23508 0
M  V30 152 H 12.7309 -0.695374 -0.244179 0
M  V30 153 H 15.3729 -1.89901 0.0613655 0
M  V30 154 H 13.5229 -3.36626 -1.93946 0
M  V30 155 H 15.1949 -4.59887 0.360844 0
M  V30 156 H 13.4379 -4.31873 0.408482 0
M  V30 157 H 14.1089 -5.46851 -0.752218 0
M  V30 158 H 16.5849 -3.79477 -1.70693 0
M  V30 159 H 15.4609 -4.80729 -2.64936 0
M  V30 160 H 15.7219 -3.13455 -3.11766 0
M  V30 161 N 14.781 0.264519 -1.55364 0
M  V30 162 C 16.029 0.993021 -1.76021 0
M  V30 163 C 16.35 1.86511 -0.569099 0
M  V30 164 O 15.62 1.91438 0.415735 0
M  V30 165 H 14.2 0.369639 -0.649135 0
M  V30 166 H 16.862 0.286707 -1.9278 0
M  V30 167 H 15.958 1.62502 -2.66457 0
M  V30 168 N 16.2591 1.48442 0.529413 0
M  V30 169 C 17.5071 1.56179 1.28267 0
M  V30 170 C 17.8281 0.237721 1.93546 0
M  V30 171 O 17.0981 -0.740779 1.81354 0
M  V30 172 H 15.6781 0.575367 0.476405 0
M  V30 173 H 18.3401 1.84909 0.61602 0
M  V30 174 H 17.4361 2.34312 2.06165 0
M  V30 175 N 17.7372 -0.778329 1.37039 0
M  V30 176 C 18.9832 -1.53892 1.32079 0
M  V30 177 C 19.3162 -1.9396 -0.0965386 0
M  V30 178 O 18.5912 -1.63568 -1.05242 0
M  V30 179 C 18.8742 -2.80847 2.25382 0
M  V30 180 C 18.7272 -2.47076 3.75864 0
M  V30 181 C 20.0462 -3.82741 2.1725 0
M  V30 182 H 17.1652 -0.558303 0.48111 0
M  V30 183 H 19.8072 -0.893397 1.67685 0
M  V30 184 H 17.9572 -3.35931 1.95148 0
M  V30 185 H 19.6292 -1.97957 4.16666 0
M  V30 186 H 17.8722 -1.79863 3.94755 0
M  V30 187 H 18.5432 -3.37798 4.36574 0
M  V30 188 H 21.0192 -3.37133 2.43887 0
M  V30 189 H 19.8952 -4.69303 2.84686 0
M  V30 190 H 20.1562 -4.2652 1.16331 0
M  V30 191 N 19.2153 -1.21501 -1.00376 0
M  V30 192 C 20.1473 -0.933174 -2.09343 0
M  V30 193 C 21.1603 0.0840896 -1.62583 0
M  V30 194 O 22.3493 -0.148563 -1.77881 0
M  V30 195 C 19.4493 -0.379869 -3.36764 0
M  V30 196 C 18.6223 -1.45176 -4.12605 0
M  V30 197 C 17.6813 -0.907476 -5.18316 0
M  V30 198 O 16.7073 -1.5912 -5.46507 0
M  V30 199 N 17.9093 0.276649 -5.7984 0
M  V30 200 H 20.6743 -1.87124 -2.34104 0
M  V30 201 H 18.2353 -1.12043 -1.16867 0
M  V30 202 H 20.2273 -0.00131488 -4.047 0
M  V30 203 H 18.7973 0.463048 -3.09151 0
M  V30 204 H 18.0173 -2.00411 -3.39454 0
M  V30 205 H 19.3053 -2.17328 -4.6005 0
M  V30 206 H 18.7033 0.849147 -5.59291 0
M  V30 207 H 17.2603 0.596702 -6.49063 0
M  V30 208 N 20.6934 1.19889 -1.02296 0
M  V30 209 C 22.1044 1.71124 -0.746568 0
M  V30 210 C 22.4554 1.81939 0.734335 0
M  V30 211 O 21.5804 1.48639 1.57275 0
M  V30 212 C 22.1754 3.10804 -1.34857 0
M  V30 213 C 20.7344 3.59323 -1.1209 0
M  V30 214 C 19.8814 2.3635 -1.45031 0
M  V30 215 H 22.8324 1.04813 -1.19163 0
M  V30 216 H 22.8534 3.73186 -0.742437 0
M  V30 217 H 22.3654 3.029 -2.42638 0
M  V30 218 H 20.4664 3.7255 -0.0610337 0
M  V30 219 H 20.5794 4.4378 -1.80544 0
M  V30 220 H 18.9434 2.39399 -0.869487 0
M  V30 221 H 19.7264 2.31081 -2.53883 0
M  V30 222 N 22.1715 0.800033 1.35784 0
M  V30 223 C 23.4175 0.377901 1.99248 0
M  V30 224 C 23.7505 -1.05052 1.63333 0
M  V30 225 O 23.0255 -1.72768 0.893385 0
M  V30 226 C 23.3085 0.553922 3.55814 0
M  V30 227 C 23.1615 2.0268 4.01548 0
M  V30 228 C 24.4805 -0.0244802 4.40093 0
M  V30 229 H 21.5995 0.138782 0.723815 0
M  V30 230 H 24.2415 1.00835 1.61035 0
M  V30 231 H 22.3915 0.0172398 3.88496 0
M  V30 232 H 24.0635 2.62536 3.79305 0
M  V30 233 H 22.3065 2.5256 3.52698 0
M  V30 234 H 22.9775 2.10087 5.10458 0
M  V30 235 H 25.4535 0.433775 4.13833 0
M  V30 236 H 24.3295 0.128637 5.48749 0
M  V30 237 H 24.5905 -1.11758 4.27741 0
M  V30 238 N 23.6496 -1.47581 0.552962 0
M  V30 239 C 24.8746 -2.07378 0.0300593 0
M  V30 240 C 25.2996 -1.40355 -1.25229 0
M  V30 241 O 24.6576 -0.477099 -1.7491 0
M  V30 242 C 24.7056 -3.60274 -0.153231 0
M  V30 243 O 23.8096 -3.94041 -1.21678 0
M  V30 244 H 23.1506 -0.662158 0.0494182 0
M  V30 245 H 25.6806 -1.89662 0.767434 0
M  V30 246 H 25.6906 -4.0633 -0.368761 0
M  V30 247 H 24.3656 -4.08455 0.783397 0
M  V30 248 H 22.9426 -3.59735 -0.982079 0
M  V30 249 N 25.1277 -0.289203 -1.54924 0
M  V30 250 C 26.3767 0.324231 -1.99077 0
M  V30 251 C 26.6897 1.5591 -1.18117 0
M  V30 252 O 27.8957 2.24637 -1.52481 0
M  V30 253 C 26.3517 0.628209 -3.54375 0
M  V30 254 C 25.9597 -0.587647 -4.44129 0
M  V30 255 C 27.7037 1.20349 -4.07083 0
M  V30 256 C 25.6107 -0.257475 -5.90839 0
M  V30 257 H 24.5407 0.124924 -0.743579 0
M  V30 258 H 27.1917 -0.396063 -1.79175 0
M  V30 259 H 25.5737 1.40778 -3.70132 0
M  V30 260 H 26.7477 -1.36418 -4.40144 0
M  V30 261 H 25.0627 -1.08074 -4.0213 0
M  V30 262 H 27.6597 1.46456 -5.14252 0
M  V30 263 H 28.0027 2.14195 -3.56968 0
M  V30 264 H 28.5357 0.485889 -3.94821 0
M  V30 265 H 25.2747 -1.16419 -6.45079 0
M  V30 266 H 24.7947 0.482018 -5.9786 0
M  V30 267 H 26.4737 0.145238 -6.46837 0
M  V30 268 N 26.6058 1.57591 -0.0167156 0
M  V30 269 C 27.5378 2.06343 0.997753 0
M  V30 270 C 28.5508 0.984469 1.29661 0
M  V30 271 O 29.7398 1.26093 1.26344 0
M  V30 272 C 26.8398 2.46255 2.32834 0
M  V30 273 C 26.0128 3.77083 2.21646 0
M  V30 274 C 25.0718 4.0368 3.37534 0
M  V30 275 O 24.0978 4.7411 3.14973 0
M  V30 276 N 25.2998 3.52881 4.60929 0
M  V30 277 H 28.0648 2.93997 0.581875 0
M  V30 278 H 25.6258 1.61002 0.170316 0
M  V30 279 H 27.6178 2.61149 3.09166 0
M  V30 280 H 26.1878 1.64032 2.66106 0
M  V30 281 H 25.4078 3.72106 1.30119 0
M  V30 282 H 26.6958 4.62822 2.11361 0
M  V30 283 H 26.0938 2.95878 4.82154 0
M  V30 284 H 24.6508 3.73076 5.34469 0
M  V30 285 N 28.0839 -0.256276 1.55502 0
M  V30 286 C 29.0469 -1.30047 1.88734 0
M  V30 287 C 30.0469 -1.4154 0.763086 0
M  V30 288 O 31.2369 -1.40403 1.03115 0
M  V30 289 C 28.3689 -2.67953 2.10747 0
M  V30 290 H 29.5619 -1.01802 2.82093 0
M  V30 291 H 27.1149 -0.495134 1.4825 0
M  V30 292 H 27.8499 -3.01351 1.19825 0
M  V30 293 H 27.6349 -2.60993 2.92617 0
M  V30 294 H 29.1249 -3.43368 2.37673 0
M  V30 295 N 29.562 -1.4872 -0.521534 0
M  V30 296 C 30.809 -1.57168 -1.27689 0
M  V30 297 C 31.137 -0.249275 -1.92896 0
M  V30 298 O 30.392 0.761162 -1.80291 0
M  V30 299 C 30.691 -2.66497 -2.38148 0
M  V30 300 C 30.357 -4.08664 -1.90538 0
M  V30 301 C 29.019 -4.47357 -1.77271 0
M  V30 302 C 31.371 -4.97724 -1.54663 0
M  V30 303 C 28.699 -5.72905 -1.26478 0
M  V30 304 C 31.051 -6.2377 -1.05329 0
M  V30 305 C 29.715 -6.61311 -0.906861 0
M  V30 306 H 28.985 -0.575117 -0.467249 0
M  V30 307 H 31.632 -1.82472 -0.581051 0
M  V30 308 H 29.937 -2.35085 -3.13437 0
M  V30 309 H 31.634 -2.70246 -2.96257 0
M  V30 310 H 28.224 -3.78111 -2.01816 0
M  V30 311 H 32.408 -4.68501 -1.63768 0
M  V30 312 H 27.664 -6.00709 -1.13835 0
M  V30 313 H 31.838 -6.9217 -0.76644 0
M  V30 314 H 29.465 -7.5848 -0.511083 0
M  V30 315 N 31.0401 0.771051 -1.3745 0
M  V30 316 C 32.0031 1.86598 -1.33093 0
M  V30 317 C 33.0031 1.59076 -0.234845 0
M  V30 318 O 34.1931 1.67145 -0.490732 0
M  V30 319 C 31.3251 3.23747 -1.06773 0
M  V30 320 H 32.5181 1.91873 -2.30488 0
M  V30 321 H 30.0711 0.970876 -1.2249 0
M  V30 322 H 30.8061 3.24148 -0.099129 0
M  V30 323 H 30.5911 3.45115 -1.86112 0
M  V30 324 H 32.0811 4.03824 -1.06377 0
M  V30 325 N 32.5182 1.22032 0.997298 0
M  V30 326 C 33.7432 1.06921 1.77715 0
M  V30 327 C 34.1682 -0.376226 1.84299 0
M  V30 328 O 33.5262 -1.27165 1.29223 0
M  V30 329 C 33.5742 1.67996 3.19076 0
M  V30 330 O 32.6782 0.930653 4.01762 0
M  V30 331 H 32.0192 0.375814 0.547412 0
M  V30 332 H 34.5492 1.61737 1.25309 0
M  V30 333 H 34.5592 1.72538 3.69723 0
M  V30 334 H 33.2342 2.73182 3.13599 0
M  V30 335 H 31.8112 0.960917 3.60307 0
M  V30 336 N 33.9963 -1.19345 1.0293 0
M  V30 337 C 35.2213 -1.93538 0.745511 0
M  V30 338 C 35.6463 -1.75007 -0.689511 0
M  V30 339 O 35.0043 -1.05265 -1.47611 0
M  V30 340 C 35.0523 -3.43336 1.10239 0
M  V30 341 O 34.1563 -4.11806 0.221289 0
M  V30 342 H 33.4973 -0.604193 0.275404 0
M  V30 343 H 36.0273 -1.5141 1.37609 0
M  V30 344 H 36.0373 -3.94004 1.05947 0
M  V30 345 H 34.7123 -3.56146 2.14786 0
M  V30 346 H 33.2893 -3.715 0.322842 0
M  V30 347 N 35.4744 -0.807222 -1.35358 0
M  V30 348 C 36.6994 -0.399309 -2.0352 0
M  V30 349 C 37.1244 0.981986 -1.60433 0
M  V30 350 O 36.4824 1.63601 -0.781299 0
M  V30 351 C 36.5304 -0.491552 -3.57234 0
M  V30 352 O 35.6344 0.494754 -4.09421 0
M  V30 353 H 34.9754 -0.166682 -0.642739 0
M  V30 354 H 37.5054 -1.09328 -1.72941 0
M  V30 355 H 37.5154 -0.361588 -4.06395 0
M  V30 356 H 36.1904 -1.49907 -3.87944 0
M  V30 357 H 34.7674 0.324977 -3.71481 0
M  V30 358 N 36.9525 1.47285 -0.560781 0
M  V30 359 C 38.1805 2.06855 -0.0430262 0
M  V30 360 C 38.5955 1.41291 1.25229 0
M  V30 361 O 37.9525 0.510648 1.7521 0
M  V30 362 C 38.0035 3.61178 0.152518 0
M  V30 363 O 37.7245 4.24285 -1.0915 0
M  V30 364 C 39.2255 4.37624 0.707145 0
M  V30 365 H 36.4455 0.669319 -0.0474652 0
M  V30 366 H 38.9895 1.89237 -0.77521 0
M  V30 367 H 37.1445 3.78298 0.834843 0
M  V30 368 H 37.5585 5.16868 -0.891482 0
M  V30 369 H 39.0325 5.46271 0.793244 0
M  V30 370 H 39.5095 4.04152 1.71923 0
M  V30 371 H 40.1155 4.25257 0.0604027 0
M  V30 372 N 38.4306 0.297415 1.54768 0
M  V30 373 C 39.3606 -0.573494 2.26348 0
M  V30 374 C 40.3416 -1.14085 1.26169 0
M  V30 375 O 41.5266 -1.17086 1.54934 0
M  V30 376 C 38.6566 -1.74716 3.00153 0
M  V30 377 C 37.6106 -1.31032 4.07449 0
M  V30 378 C 36.9366 -2.56887 4.68949 0
M  V30 379 C 38.2366 -0.444183 5.20408 0
M  V30 380 H 39.9306 0.0235131 2.99391 0
M  V30 381 H 37.4766 0.0127488 1.43994 0
M  V30 382 H 39.4296 -2.3625 3.48947 0
M  V30 383 H 38.1536 -2.37035 2.24682 0
M  V30 384 H 36.8126 -0.718066 3.59499 0
M  V30 385 H 36.4606 -3.17512 3.90122 0
M  V30 386 H 36.1606 -2.2836 5.41411 0
M  V30 387 H 37.6846 -3.19229 5.20505 0
M  V30 388 H 39.0986 -0.9651 5.65118 0
M  V30 389 H 37.4956 -0.252846 5.99567 0
M  V30 390 H 38.5656 0.531609 4.81977 0
M  V30 391 N 39.9087 -1.5758 0.0250728 0
M  V30 392 C 40.8587 -2.06468 -0.967201 0
M  V30 393 C 41.8427 -0.964376 -1.28797 0
M  V30 394 O 43.0347 -1.22797 -1.27475 0
M  V30 395 C 40.1637 -2.59203 -2.25097 0
M  V30 396 C 39.2497 -3.76157 -1.95874 0
M  V30 397 N 39.6407 -4.86919 -1.36905 0
M  V30 398 C 37.9387 -3.84566 -2.25887 0
M  V30 399 C 38.6397 -5.68172 -1.24724 0
M  V30 400 N 37.6157 -5.14953 -1.74138 0
M  V30 401 H 41.4177 -2.89508 -0.506176 0
M  V30 402 H 38.9317 -1.61399 -0.18004 0
M  V30 403 H 40.9287 -2.92517 -2.97052 0
M  V30 404 H 39.5887 -1.77592 -2.71829 0
M  V30 405 H 40.5997 -5.07256 -1.04459 0
M  V30 406 H 37.2767 -3.13854 -2.75321 0
M  V30 407 H 38.6667 -6.67221 -0.791605 0
M  V30 408 N 41.3868 0.248026 -1.55636 0
M  V30 409 C 42.6348 0.974295 -1.77065 0
M  V30 410 C 42.9558 1.85897 -0.588849 0
M  V30 411 O 42.2258 1.91868 0.395407 0
M  V30 412 H 40.8058 0.362733 -0.653019 0
M  V30 413 H 43.4678 0.266244 -1.93073 0
M  V30 414 H 42.5638 1.59667 -2.68166 0
M  V30 415 N 42.8649 1.48995 0.513639 0
M  V30 416 C 43.7949 1.67636 1.62544 0
M  V30 417 C 44.7759 0.525087 1.61793 0
M  V30 418 O 45.9609 0.759502 1.78732 0
M  V30 419 C 43.0909 1.73114 3.01079 0
M  V30 420 C 42.0449 2.87905 3.16693 0
M  V30 421 C 41.3709 2.78486 4.56453 0
M  V30 422 C 42.6709 4.29005 2.97913 0
M  V30 423 H 44.3649 2.60716 1.47198 0
M  V30 424 H 41.9109 1.25465 0.706714 0
M  V30 425 H 43.8639 1.84742 3.78746 0
M  V30 426 H 42.5879 0.766241 3.17484 0
M  V30 427 H 41.2469 2.75859 2.41448 0
M  V30 428 H 40.8949 1.7993 4.69717 0
M  V30 429 H 40.5949 3.55523 4.67843 0
M  V30 430 H 42.1189 2.92104 5.36197 0
M  V30 431 H 43.5329 4.41798 3.65359 0
M  V30 432 H 41.9299 5.07166 3.20785 0
M  V30 433 H 42.9999 4.44329 1.94165 0
M  V30 434 N 44.343 -0.763751 1.37857 0
M  V30 435 C 45.306 -1.85889 1.34081 0
M  V30 436 C 46.306 -1.58949 0.243277 0
M  V30 437 O 47.496 -1.66882 0.499589 0
M  V30 438 C 44.628 -3.23176 1.08489 0
M  V30 439 H 45.821 -1.90648 2.31502 0
M  V30 440 H 43.374 -0.964367 1.23003 0
M  V30 441 H 44.109 -3.24091 0.116318 0
M  V30 442 H 43.894 -3.44124 1.8794 0
M  V30 443 H 45.384 -4.03254 1.08517 0
M  V30 444 N 45.8211 -1.22559 -0.990812 0
M  V30 445 C 46.7711 -0.964807 -2.0658 0
M  V30 446 C 47.7551 0.0853472 -1.60673 0
M  V30 447 O 48.9471 -0.125443 -1.76555 0
M  V30 448 C 46.0761 -0.546707 -3.38919 0
M  V30 449 C 45.1621 -1.6317 -3.91454 0
M  V30 450 N 45.5531 -2.85985 -4.17189 0
M  V30 451 C 43.8511 -1.50387 -4.19881 0
M  V30 452 C 44.5521 -3.56159 -4.59919 0
M  V30 453 N 43.5281 -2.83637 -4.63736 0
M  V30 454 H 47.3301 -1.89769 -2.24421 0
M  V30 455 H 44.8441 -1.12343 -1.17273 0
M  V30 456 H 46.8411 -0.34119 -4.15502 0
M  V30 457 H 45.5011 0.379254 -3.22478 0
M  V30 458 H 46.5121 -3.22392 -4.05319 0
M  V30 459 H 43.1891 -0.644254 -4.12499 0
M  V30 460 H 44.5791 -4.6139 -4.88435 0
M  V30 461 N 47.2992 1.18797 -1.03562 0
M  V30 462 C 48.5482 1.87978 -0.731235 0
M  V30 463 C 48.8612 1.80911 0.743671 0
M  V30 464 O 50.0672 2.45407 1.16137 0
M  V30 465 C 48.5232 3.3721 -1.25768 0
M  V30 466 C 48.1312 3.52818 -2.76085 0
M  V30 467 C 49.8752 4.11825 -1.0296 0
M  V30 468 C 47.7822 4.9598 -3.22114 0
M  V30 469 H 46.7122 0.704063 -0.269835 0
M  V30 470 H 49.3632 1.34266 -1.25079 0
M  V30 471 H 47.7452 3.90359 -0.666011 0
M  V30 472 H 48.9192 3.09965 -3.40966 0
M  V30 473 H 47.2342 2.91602 -2.97249 0
M  V30 474 H 49.8312 5.17411 -1.34869 0
M  V30 475 H 50.1742 4.16287 0.0333546 0
M  V30 476 H 50.7072 3.64833 -1.58562 0
M  V30 477 H 47.4462 4.96684 -4.27768 0
M  V30 478 H 46.9662 5.39569 -2.61965 0
M  V30 479 H 48.6452 5.6467 -3.15844 0
M  V30 480 N 48.7773 0.814389 1.34928 0
M  V30 481 C 50.0243 0.398423 1.98542 0
M  V30 482 C 50.3523 -1.03638 1.64589 0
M  V30 483 O 49.6073 -1.73509 0.90516 0
M  V30 484 C 49.9063 0.537781 3.53331 0
M  V30 485 C 49.5723 1.93704 4.07172 0
M  V30 486 C 48.2343 2.31984 4.21589 0
M  V30 487 C 50.5863 2.85213 4.36237 0
M  V30 488 C 47.9143 3.61125 4.62391 0
M  V30 489 C 50.2663 4.13809 4.78482 0
M  V30 490 C 48.9303 4.52077 4.91104 0
M  V30 491 H 48.2003 0.145793 0.726516 0
M  V30 492 H 50.8473 1.03669 1.61012 0
M  V30 493 H 49.1523 -0.183906 3.91368 0
M  V30 494 H 50.8493 0.196588 4.00518 0
M  V30 495 H 47.4393 1.62966 3.96409 0
M  V30 496 H 51.6233 2.56885 4.24645 0
M  V30 497 H 46.8793 3.90612 4.70353 0
M  V30 498 H 51.0533 4.84811 4.99932 0
M  V30 499 H 48.6803 5.52196 5.22478 0
M  V30 500 N 50.2554 -1.46986 0.568584 0
M  V30 501 C 51.4804 -2.07335 0.0520528 0
M  V30 502 C 51.9054 -1.41675 -1.23733 0
M  V30 503 O 51.2634 -0.495623 -1.74394 0
M  V30 504 C 51.3114 -3.60417 -0.11501 0
M  V30 505 O 50.4154 -3.95309 -1.17492 0
M  V30 506 H 49.7564 -0.661597 0.0564385 0
M  V30 507 H 52.2864 -1.88837 0.787507 0
M  V30 508 H 52.2964 -4.06698 -0.325644 0
M  V30 509 H 50.9714 -4.07601 0.826675 0
M  V30 510 H 49.5484 -3.60757 -0.943869 0
M  V30 511 N 51.7335 -0.305618 -1.54608 0
M  V30 512 C 52.9635 0.304333 -2.04346 0
M  V30 513 C 53.3715 1.47715 -1.18224 0
M  V30 514 O 52.7145 1.82591 -0.201577 0
M  V30 515 C 52.7765 0.819031 -3.50046 0
M  V30 516 C 52.4405 -0.22912 -4.56425 0
M  V30 517 C 53.4375 -1.05914 -5.08997 0
M  V30 518 C 51.1225 -0.372148 -5.0092 0
M  V30 519 C 53.1165 -2.01809 -6.04609 0
M  V30 520 C 50.8035 -1.33454 -5.9635 0
M  V30 521 C 51.8015 -2.15599 -6.48079 0
M  V30 522 O 51.4895 -3.10205 -7.41639 0
M  V30 523 H 51.2215 0.0693996 -0.672428 0
M  V30 524 H 53.7755 -0.444548 -2.00532 0
M  V30 525 H 52.0055 1.61852 -3.51199 0
M  V30 526 H 53.6945 1.34537 -3.82955 0
M  V30 527 H 54.4605 -0.959538 -4.75413 0
M  V30 528 H 50.3395 0.257304 -4.60281 0
M  V30 529 H 53.8835 -2.65966 -6.44909 0
M  V30 530 H 49.7805 -1.43485 -6.29351 0
M  V30 531 H 50.5485 -3.05237 -7.59455 0
M  V30 532 N 53.2116 1.57565 -0.0334293 0
M  V30 533 C 54.1216 2.13943 0.962572 0
M  V30 534 C 55.1376 1.09276 1.35406 0
M  V30 535 O 56.3136 1.41355 1.4346 0
M  V30 536 C 53.3786 2.65887 2.22497 0
M  V30 537 C 52.4396 3.85286 1.8935 0
M  V30 538 C 51.6726 4.34743 3.09571 0
M  V30 539 O 51.8956 3.83352 4.22371 0
M  V30 540 O 50.8296 5.26538 2.91618 0
M  V30 541 H 54.6556 2.99333 0.513169 0
M  V30 542 H 52.2406 1.4822 0.18743 0
M  V30 543 H 54.1226 2.99346 2.96598 0
M  V30 544 H 52.7976 1.83578 2.6661 0
M  V30 545 H 51.7046 3.56746 1.1262 0
M  V30 546 H 53.0376 4.68771 1.5005 0
M  V30 547 N 54.6897 -0.239769 1.55765 0
M  V30 548 C 56.1057 -0.588624 1.48349 0
M  V30 549 C 56.3057 -1.88005 0.72502 0
M  V30 550 O 55.3617 -2.51186 0.257269 0
M  V30 551 C 56.6747 -0.68474 2.928 0
M  V30 552 C 58.2227 -0.77659 3.03213 0
M  V30 553 C 58.6977 -0.904207 4.48986 0
M  V30 554 N 60.1887 -0.968896 4.52953 0
M  V30 555 C 60.9237 -1.08703 5.63002 0
M  V30 556 N 60.4197 -1.17026 6.82845 0
M  V30 557 N 62.2127 -1.12074 5.50814 0
M  V30 558 H 54.3637 0.607911 2.03515 0
M  V30 559 H 56.6267 0.21083 0.924259 0
M  V30 560 H 56.3327 0.194284 3.51163 0
M  V30 561 H 56.2067 -1.55435 3.43686 0
M  V30 562 H 58.5937 -1.64606 2.44926 0
M  V30 563 H 58.6747 0.118315 2.55526 0
M  V30 564 H 58.3187 -0.0392633 5.07885 0
M  V30 565 H 58.2487 -1.81426 4.9436 0
M  V30 566 H 60.7397 -0.915633 3.6664 0
M  V30 567 H 61.0527 -1.25966 7.62465 0
M  V30 568 H 59.3977 -1.13971 6.85591 0
M  V30 569 H 62.5887 -1.05226 4.5612 0
M  V30 570 H 62.7617 -1.20936 6.36615 0
M  V30 571 N 56.1678 -1.49265 -0.50573 0
M  V30 572 C 57.0978 -1.68495 -1.61653 0
M  V30 573 C 58.0788 -0.53366 -1.61512 0
M  V30 574 O 59.2638 -0.76897 -1.78327 0
M  V30 575 C 56.3938 -1.74709 -3.00157 0
M  V30 576 C 55.3478 -2.89581 -3.15162 0
M  V30 577 C 54.6738 -2.80903 -4.5497 0
M  V30 578 C 55.9738 -4.30578 -2.95634 0
M  V30 579 H 57.6678 -2.61493 -1.45814 0
M  V30 580 H 55.2138 -1.25838 -0.70005 0
M  V30 581 H 57.1668 -1.86748 -3.77761 0
M  V30 582 H 55.8908 -0.783067 -3.17074 0
M  V30 583 H 54.5498 -2.77136 -2.39982 0
M  V30 584 H 54.1978 -1.82419 -4.68756 0
M  V30 585 H 53.8978 -3.57999 -4.65951 0
M  V30 586 H 55.4218 -2.94944 -5.34641 0
M  V30 587 H 56.8358 -4.4373 -3.63011 0
M  V30 588 H 55.2328 -5.0886 -3.18091 0
M  V30 589 H 56.3028 -4.45352 -1.91806 0
M  V30 590 N 57.6459 0.756429 -1.3826 0
M  V30 591 C 58.8709 1.55077 -1.37717 0
M  V30 592 C 59.2959 1.88073 0.03164 0
M  V30 593 O 58.6539 1.50364 1.01293 0
M  V30 594 C 58.7019 2.8283 -2.23695 0
M  V30 595 O 57.8059 3.77862 -1.6521 0
M  V30 596 H 57.1469 0.469152 -0.469885 0
M  V30 597 H 59.6769 0.935019 -1.81985 0
M  V30 598 H 59.6869 3.31783 -2.37453 0
M  V30 599 H 58.3619 2.58144 -3.2609 0
M  V30 600 H 56.9389 3.36555 -1.60578 0
M  V30 601 N 59.124 1.23083 0.984299 0
M  V30 602 C 60.054 1.03292 2.09411 0
M  V30 603 C 61.035 -0.048923 1.7003 0
M  V30 604 O 62.22 0.114967 1.93859 0
M  V30 605 C 59.35 0.619155 3.41736 0
M  V30 606 C 58.304 1.64791 3.95004 0
M  V30 607 C 57.63 1.0897 5.23478 0
M  V30 608 C 58.93 3.03999 4.24714 0
M  V30 609 H 60.624 1.96119 2.26225 0
M  V30 610 H 58.17 0.944344 1.08711 0
M  V30 611 H 60.123 0.467777 4.18796 0
M  V30 612 H 58.847 -0.344786 3.24775 0
M  V30 613 H 57.506 1.78721 3.20085 0
M  V30 614 H 57.154 0.11686 5.02864 0
M  V30 615 H 56.854 1.77704 5.60085 0
M  V30 616 H 58.378 0.950093 6.03163 0
M  V30 617 H 59.792 2.93393 4.92538 0
M  V30 618 H 58.189 3.69936 4.72512 0
M  V30 619 H 59.259 3.53285 3.32142 0
M  V30 620 N 60.6021 -1.18246 1.0419 0
M  V30 621 C 61.5491 -2.2192 0.634037 0
M  V30 622 C 62.5191 -1.62179 -0.358765 0
M  V30 623 O 63.7041 -1.89122 -0.252466 0
M  V30 624 C 60.8441 -3.451 0.00445535 0
M  V30 625 C 59.9571 -4.19174 1.04487 0
M  V30 626 C 59.0921 -5.29813 0.383676 0
M  V30 627 C 58.1311 -5.9566 1.4091 0
M  V30 628 N 57.2681 -6.97834 0.772784 0
M  V30 629 H 62.1081 -2.56164 1.52263 0
M  V30 630 H 59.6451 -1.25843 0.761701 0
M  V30 631 H 61.6031 -4.15485 -0.377919 0
M  V30 632 H 60.2331 -3.11472 -0.847652 0
M  V30 633 H 59.2851 -3.47604 1.54518 0
M  V30 634 H 60.5971 -4.64267 1.82368 0
M  V30 635 H 59.7511 -6.06677 -0.0528366 0
M  V30 636 H 58.4901 -4.85825 -0.427208 0
M  V30 637 H 57.4951 -5.17535 1.85574 0
M  V30 638 H 58.7201 -6.4173 2.22171 0
M  V30 639 H 56.6661 -6.55998 -0.0177708 0
M  V30 640 H 56.5831 -7.41186 1.48928 0
M  V30 641 H 57.8511 -7.78665 0.36071 0
M  V30 642 N 62.0802 -0.821533 -1.34494 0
M  V30 643 C 63.4962 -0.507117 -1.51329 0
M  V30 644 C 63.6962 0.968964 -1.76673 0
M  V30 645 O 62.7522 1.75348 -1.81685 0
M  V30 646 C 64.0652 -1.36544 -2.67911 0
M  V30 647 C 65.6132 -1.36242 -2.81793 0
M  V30 648 C 66.0882 -2.2052 -4.01416 0
M  V30 649 N 67.5792 -2.18136 -4.08621 0
M  V30 650 C 68.3142 -2.80095 -5.00334 0
M  V30 651 N 67.8102 -3.51039 -5.9728 0
M  V30 652 N 69.6032 -2.69656 -4.93196 0
M  V30 653 H 61.7542 -1.77729 -1.16302 0
M  V30 654 H 64.0172 -0.757291 -0.570276 0
M  V30 655 H 63.7232 -2.41361 -2.55808 0
M  V30 656 H 63.5972 -1.02917 -3.62888 0
M  V30 657 H 65.9842 -0.322041 -2.93338 0
M  V30 658 H 66.0652 -1.73866 -1.87628 0
M  V30 659 H 65.7092 -3.24607 -3.90631 0
M  V30 660 H 65.6392 -1.80247 -4.94791 0
M  V30 661 H 68.1302 -1.6653 -3.39229 0
M  V30 662 H 68.4432 -3.95565 -6.63889 0
M  V30 663 H 66.7882 -3.55145 -5.97409 0
M  V30 664 H 69.9792 -2.13808 -4.16418 0
M  V30 665 H 70.1522 -3.1823 -5.64476 0
M  V30 666 N 63.5583 1.46682 -0.576371 0
M  V30 667 C 64.5213 2.28707 0.150239 0
M  V30 668 C 65.5213 1.38035 0.824794 0
M  V30 669 O 66.7113 1.60476 0.677719 0
M  V30 670 C 63.8433 3.18248 1.22192 0
M  V30 671 H 65.0363 2.94423 -0.570521 0
M  V30 672 H 62.5893 1.52688 -0.334078 0
M  V30 673 H 63.3243 2.57265 1.97447 0
M  V30 674 H 63.1093 3.85 0.742812 0
M  V30 675 H 64.5993 3.80001 1.73172 0
M  V30 676 N 65.0364 0.313813 1.54444 0
M  V30 677 C 65.9664 -0.549454 2.26943 0
M  V30 678 C 66.9474 -1.12741 1.27372 0
M  V30 679 O 68.1324 -1.15436 1.56167 0
M  V30 680 C 65.2624 -1.71523 3.01989 0
M  V30 681 C 64.2164 -1.26703 4.08816 0
M  V30 682 C 63.5424 -2.51898 4.71647 0
M  V30 683 C 64.8424 -0.388962 5.2085 0
M  V30 684 H 66.5364 0.0552661 2.99349 0
M  V30 685 H 64.0824 0.0280207 1.43973 0
M  V30 686 H 66.0354 -2.32535 3.51433 0
M  V30 687 H 64.7594 -2.34639 2.27183 0
M  V30 688 H 63.4184 -0.679896 3.6024 0
M  V30 689 H 63.0664 -3.13356 3.93468 0
M  V30 690 H 62.7664 -2.22605 5.43802 0
M  V30 691 H 64.2904 -3.1369 5.23861 0
M  V30 692 H 65.7044 -0.905107 5.6611 0
M  V30 693 H 64.1014 -0.18924 5.99802 0
M  V30 694 H 65.1714 0.582699 4.81386 0
M  V30 695 N 66.5145 -1.57545 0.0417849 0
M  V30 696 C 67.7605 -1.93424 -0.629168 0
M  V30 697 C 68.1155 -0.919564 -1.69002 0
M  V30 698 O 67.4085 0.0626178 -1.91498 0
M  V30 699 C 67.6025 -3.33794 -1.27735 0
M  V30 700 C 67.4315 -4.48822 -0.280806 0
M  V30 701 C 66.2015 -5.05148 0.123869 0
M  V30 702 C 68.3995 -5.12148 0.470012 0
M  V30 703 N 66.3815 -6.03703 1.11426 0
M  V30 704 C 67.7525 -6.05921 1.31377 0
M  V30 705 C 69.8075 -4.95078 0.529343 0
M  V30 706 C 68.5105 -6.84459 2.21152 0
M  V30 707 C 70.5365 -5.74235 1.41448 0
M  V30 708 C 69.8985 -6.67634 2.24598 0
M  V30 709 H 65.9975 -0.755418 -0.202158 0
M  V30 710 H 68.5815 -1.94378 0.111923 0
M  V30 711 H 66.7525 -3.33635 -1.98852 0
M  V30 712 H 68.4845 -3.56988 -1.90635 0
M  V30 713 H 65.2395 -4.72923 -0.253178 0
M  V30 714 H 65.6635 -6.57674 1.60607 0
M  V30 715 H 70.3055 -4.22683 -0.0992798 0
M  V30 716 H 68.0235 -7.56151 2.85063 0
M  V30 717 H 71.6095 -5.63057 1.46484 0
M  V30 718 H 70.4895 -7.27817 2.9198 0
M  V30 719 N 67.9926 0.231505 -1.5589 0
M  V30 720 C 68.9556 1.27028 -1.90779 0
M  V30 721 C 69.9556 1.40308 -0.785507 0
M  V30 722 O 71.1456 1.38744 -1.05336 0
M  V30 723 C 68.2776 2.64566 -2.14983 0
M  V30 724 H 69.4706 0.973017 -2.83677 0
M  V30 725 H 67.0236 0.471486 -1.49019 0
M  V30 726 H 67.7586 2.99406 -1.24604 0
M  V30 727 H 67.5436 2.56305 -2.96732 0
M  V30 728 H 69.0336 3.39543 -2.43105 0
M  V30 729 N 69.4707 1.49531 0.497807 0
M  V30 730 C 70.4007 1.6935 1.60757 0
M  V30 731 C 71.3817 0.542218 1.61227 0
M  V30 732 O 72.5667 0.778417 1.77917 0
M  V30 733 C 69.6967 1.76298 2.99226 0
M  V30 734 C 68.6507 2.91248 3.13622 0
M  V30 735 C 67.9767 2.83312 4.53474 0
M  V30 736 C 69.2767 4.3214 2.93346 0
M  V30 737 H 70.9707 2.62263 1.44425 0
M  V30 738 H 68.5167 1.26208 0.693367 0
M  V30 739 H 70.4697 1.88749 3.76765 0
M  V30 740 H 69.1937 0.799871 3.16654 0
M  V30 741 H 67.8527 2.78404 2.38509 0
M  V30 742 H 67.5007 1.84902 4.67782 0
M  V30 743 H 67.2007 3.60465 4.64046 0
M  V30 744 H 68.7247 2.97775 5.33069 0
M  V30 745 H 70.1387 4.45649 3.60652 0
M  V30 746 H 68.5357 5.1054 3.15387 0
M  V30 747 H 69.6057 4.46363 1.89441 0
M  V30 748 N 70.9488 -0.749086 1.3866 0
M  V30 749 C 72.1888 -1.52112 1.36534 0
M  V30 750 C 72.5528 -1.91951 -0.0432316 0
M  V30 751 O 73.7538 -2.68132 -0.189396 0
M  V30 752 C 72.0248 -2.73704 2.29828 0
M  V30 753 S 73.5838 -3.63519 2.45763 0
M  V30 754 H 70.4018 -0.520482 0.484375 0
M  V30 755 H 73.0038 -0.878963 1.74627 0
M  V30 756 H 71.7078 -2.42552 3.31054 0
M  V30 757 H 71.2388 -3.4286 1.929 0
M  V30 758 H 73.2538 -4.66712 1.68505 0
M  V30 759 N 72.4269 -1.23603 -0.977757 0
M  V30 760 C 73.6739 -1.06971 -1.71941 0
M  V30 761 C 74.0019 0.393009 -1.90488 0
M  V30 762 O 73.2569 1.30719 -1.4564 0
M  V30 763 C 73.5559 -1.7433 -3.11999 0
M  V30 764 C 73.2219 -3.24252 -3.13323 0
M  V30 765 C 71.8839 -3.65156 -3.13392 0
M  V30 766 C 74.2359 -4.20141 -3.08433 0
M  V30 767 C 71.5639 -5.00403 -3.0629 0
M  V30 768 C 73.9159 -5.55384 -3.02873 0
M  V30 769 C 72.5799 -5.95647 -3.01265 0
M  V30 770 H 71.8499 -0.391433 -0.629175 0
M  V30 771 H 74.4969 -1.53572 -1.14403 0
M  V30 772 H 72.8019 -1.20096 -3.7294 0
M  V30 773 H 74.4989 -1.58936 -3.68158 0
M  V30 774 H 71.0889 -2.91692 -3.14029 0
M  V30 775 H 75.2729 -3.89547 -3.07517 0
M  V30 776 H 70.5289 -5.3081 -3.03399 0
M  V30 777 H 74.7029 -6.29398 -2.98046 0
M  V30 778 H 72.3299 -7.0041 -2.95516 0
M  V30 779 N 73.905 1.17692 -1.04816 0
M  V30 780 C 74.835 2.23777 -0.666791 0
M  V30 781 C 75.816 1.66796 0.33361 0
M  V30 782 O 77.001 1.93039 0.212042 0
M  V30 783 C 74.131 3.47281 -0.0367933 0
M  V30 784 C 73.085 4.17059 -0.961546 0
M  V30 785 C 72.411 5.34342 -0.195626 0
M  V30 786 C 73.711 4.69713 -2.28402 0
M  V30 787 H 75.405 2.55933 -1.55367 0
M  V30 788 H 72.951 1.23019 -0.748484 0
M  V30 789 H 74.904 4.20706 0.241775 0
M  V30 790 H 73.628 3.14381 0.885004 0
M  V30 791 H 72.287 3.45541 -1.22462 0
M  V30 792 H 71.935 4.97692 0.728816 0
M  V30 793 H 71.635 5.81966 -0.811775 0
M  V30 794 H 73.159 6.10553 0.0757473 0
M  V30 795 H 74.573 5.34794 -2.06563 0
M  V30 796 H 72.97 5.279 -2.8538 0
M  V30 797 H 74.04 3.86726 -2.92525 0
M  V30 798 N 75.3831 0.828654 1.34056 0
M  V30 799 C 76.6311 0.41863 1.97717 0
M  V30 800 C 76.9521 -1.02314 1.66002 0
M  V30 801 O 76.2221 -1.71119 0.953683 0
M  V30 802 H 74.8021 0.151809 0.731412 0
M  V30 803 H 77.4641 1.05936 1.63596 0
M  V30 804 H 76.5601 0.542318 3.07352 0
M  V30 805 N 76.8612 -1.46375 0.584142 0
M  V30 806 C 78.0862 -2.07268 0.0740405 0
M  V30 807 C 78.5112 -1.42979 -1.22223 0
M  V30 808 O 77.8692 -0.514092 -1.73859 0
M  V30 809 C 77.9172 -3.60518 -0.0767769 0
M  V30 810 O 77.0212 -3.96533 -1.13292 0
M  V30 811 H 76.3622 -0.660961 0.0634524 0
M  V30 812 H 78.8922 -1.87991 0.807492 0
M  V30 813 H 78.9022 -4.07021 -0.282489 0
M  V30 814 H 77.5772 -4.06702 0.86986 0
M  V30 815 H 76.1542 -3.61738 -0.905553 0
M  V30 816 N 78.3393 -0.321999 -1.54275 0
M  V30 817 C 79.2693 0.537411 -2.27231 0
M  V30 818 C 80.2503 1.12064 -1.27968 0
M  V30 819 O 81.4353 1.14606 -1.56777 0
M  V30 820 C 78.5653 1.69919 -3.02894 0
M  V30 821 C 77.5193 1.24534 -4.09482 0
M  V30 822 C 76.8453 2.49394 -4.72977 0
M  V30 823 C 78.1453 0.361335 -5.21049 0
M  V30 824 H 79.8393 -0.0711406 -2.99315 0
M  V30 825 H 77.3853 -0.0356555 -1.43956 0
M  V30 826 H 79.3383 2.30668 -3.52662 0
M  V30 827 H 78.0623 2.33431 -2.28424 0
M  V30 828 H 76.7213 0.660782 -3.60596 0
M  V30 829 H 76.3693 3.11265 -3.95124 0
M  V30 830 H 76.0693 2.19718 -5.44975 0
M  V30 831 H 77.5933 3.10908 -5.25517 0
M  V30 832 H 79.0073 0.875072 -5.66582 0
M  V30 833 H 77.4043 0.157428 -5.99893 0
M  V30 834 H 78.4743 -0.60822 -4.8107 0
M  V30 835 N 79.8174 1.5752 -0.0501392 0
M  V30 836 C 80.7804 2.1037 0.909786 0
M  V30 837 C 81.7804 1.02308 1.24056 0
M  V30 838 O 82.9704 1.28385 1.17741 0
M  V30 839 C 80.1024 2.58708 2.21998 0
M  V30 840 H 81.2954 2.96479 0.451665 0
M  V30 841 H 78.8484 1.55038 0.198248 0
M  V30 842 H 79.5834 1.75989 2.72394 0
M  V30 843 H 79.3684 3.37675 1.99295 0
M  V30 844 H 80.8584 2.99747 2.9076 0
M  V30 845 N 81.2955 -0.223234 1.56011 0
M  V30 846 C 82.5415 -0.949279 1.79211 0
M  V30 847 C 82.8745 -1.84054 0.619494 0
M  V30 848 O 82.1495 -1.90726 -0.381317 0
M  V30 849 C 82.4325 -1.78965 3.12479 0
M  V30 850 C 82.2855 -0.924997 4.40186 0
M  V30 851 C 83.6045 -2.76774 3.42175 0
M  V30 852 H 80.7235 -0.343676 0.651963 0
M  V30 853 H 83.3655 -0.218253 1.88742 0
M  V30 854 H 81.5155 -2.41291 3.04485 0
M  V30 855 H 83.1875 -0.318615 4.60198 0
M  V30 856 H 81.4305 -0.230344 4.33188 0
M  V30 857 H 82.1015 -1.54735 5.29869 0
M  V30 858 H 84.5775 -2.24584 3.50287 0
M  V30 859 H 83.4535 -3.32678 4.36597 0
M  V30 860 H 83.7145 -3.54429 2.64258 0
M  V30 861 N 82.7736 -1.49793 -0.48987 0
M  V30 862 C 83.7036 -1.70201 -1.59856 0
M  V30 863 C 84.6846 -0.55076 -1.60937 0
M  V30 864 O 85.8696 -0.787841 -1.77501 0
M  V30 865 C 82.9996 -1.77882 -2.98287 0
M  V30 866 C 81.9536 -2.92907 -3.12073 0
M  V30 867 C 81.2796 -2.85712 -4.51965 0
M  V30 868 C 82.5796 -4.3369 -2.91051 0
M  V30 869 H 84.2736 -2.63025 -1.43032 0
M  V30 870 H 81.8196 -1.26574 -0.686664 0
M  V30 871 H 83.7726 -1.90744 -3.75759 0
M  V30 872 H 82.4966 -0.816653 -3.16225 0
M  V30 873 H 81.1556 -2.79665 -2.37029 0
M  V30 874 H 80.8036 -1.8738 -4.66795 0
M  V30 875 H 80.5036 -3.62921 -4.62128 0
M  V30 876 H 82.0276 -3.00598 -5.31482 0
M  V30 877 H 83.4416 -4.47555 -3.58284 0
M  V30 878 H 81.8386 -5.12205 -3.12675 0
M  V30 879 H 82.9086 -4.47362 -1.87071 0
M  V30 880 N 84.2517 0.741722 -1.39055 0
M  V30 881 C 85.1817 1.869 -1.39966 0
M  V30 882 C 86.1627 1.6804 -0.26392 0
M  V30 883 O 87.3477 1.88458 -0.468755 0
M  V30 884 C 84.4777 3.24572 -1.23574 0
M  V30 885 C 83.4317 3.58056 -2.34477 0
M  V30 886 C 82.7577 4.94593 -2.0318 0
M  V30 887 C 84.0577 3.61716 -3.76774 0
M  V30 888 H 85.7517 1.86395 -2.34302 0
M  V30 889 H 83.2977 0.895361 -1.1278 0
M  V30 890 H 85.2507 4.031 -1.22834 0
M  V30 891 H 83.9747 3.25587 -0.257045 0
M  V30 892 H 82.6337 2.81854 -2.34423 0
M  V30 893 H 82.2817 4.92181 -1.03765 0
M  V30 894 H 81.9817 5.17964 -2.77465 0
M  V30 895 H 83.5057 5.75486 -2.04079 0
M  V30 896 H 84.9197 4.30335 -3.78794 0
M  V30 897 H 83.3167 3.96603 -4.50362 0
M  V30 898 H 84.3867 2.61672 -4.08235 0
M  V30 899 N 85.7298 1.2412 0.971189 0
M  V30 900 C 86.9698 1.09066 1.7287 0
M  V30 901 C 87.3338 -0.364794 1.88503 0
M  V30 902 O 88.5348 -0.636748 2.61149 0
M  V30 903 C 86.8058 1.80629 3.08396 0
M  V30 904 S 88.3648 1.81263 3.99611 0
M  V30 905 H 85.1828 0.390145 0.594397 0
M  V30 906 H 87.7848 1.57397 1.15959 0
M  V30 907 H 86.4888 2.85647 2.94676 0
M  V30 908 H 86.0198 1.32617 3.70373 0
M  V30 909 H 88.0348 0.877804 4.88374 0
M  V30 910 N 87.2079 -1.17134 1.05439 0
M  V30 911 C 88.4539 -1.87733 0.767077 0
M  V30 912 C 88.7869 -1.8098 -0.704253 0
M  V30 913 O 88.0619 -1.21951 -1.5152 0
M  V30 914 C 88.3449 -3.37659 1.25133 0
M  V30 915 C 88.1979 -3.53149 2.78578 0
M  V30 916 C 89.5169 -4.31768 0.852324 0
M  V30 917 H 86.6359 -0.681687 0.280129 0
M  V30 918 H 89.2779 -1.37732 1.30881 0
M  V30 919 H 87.4279 -3.80373 0.790469 0
M  V30 920 H 89.0999 -3.19434 3.32806 0
M  V30 921 H 87.3429 -2.95345 3.17732 0
M  V30 922 H 88.0139 -4.58403 3.07523 0
M  V30 923 H 90.4899 -3.96909 1.24911 0
M  V30 924 H 89.3659 -5.35199 1.21873 0
M  V30 925 H 89.6269 -4.41429 -0.243485 0
M  V30 926 N 88.686 -0.835752 -1.33615 0
M  V30 927 C 89.926 -0.43599 -1.99696 0
M  V30 928 C 90.29 0.98557 -1.64774 0
M  V30 929 O 91.491 1.48889 -2.23798 0
M  V30 930 C 89.762 -0.646721 -3.515 0
M  V30 931 S 91.321 -0.341715 -4.37467 0
M  V30 932 H 88.139 -0.164136 -0.691795 0
M  V30 933 H 90.741 -1.08436 -1.62671 0
M  V30 934 H 89.445 -1.68077 -3.74404 0
M  V30 935 H 88.976 0.0159173 -3.93397 0
M  V30 936 H 90.991 0.839708 -4.89043 0
M  V30 937 N 90.1641 1.46063 -0.591896 0
M  V30 938 C 91.3921 2.06717 -0.0868936 0
M  V30 939 C 91.8071 1.43916 1.22203 0
M  V30 940 O 91.1641 0.547698 1.74088 0
M  V30 941 C 91.2151 3.6142 0.0758725 0
M  V30 942 O 90.9361 4.21874 -1.18126 0
M  V30 943 C 92.4371 4.39025 0.61416 0
M  V30 944 H 89.6571 0.668162 -0.0616518 0
M  V30 945 H 92.2011 1.8755 -0.815175 0
M  V30 946 H 90.3561 3.79983 0.754413 0
M  V30 947 H 90.7701 5.14861 -1.00092 0
M  V30 948 H 92.2441 5.4783 0.677193 0
M  V30 949 H 92.7211 4.07708 1.63312 0
M  V30 950 H 93.3271 4.2529 -0.0298142 0
M  V30 951 N 91.6422 0.330177 1.54103 0
M  V30 952 C 92.5522 -0.541534 2.28264 0
M  V30 953 C 93.5682 -1.12351 1.32866 0
M  V30 954 O 94.7442 -1.14206 1.65888 0
M  V30 955 C 91.8092 -1.68322 3.03098 0
M  V30 956 C 90.8702 -1.13238 4.14096 0
M  V30 957 C 90.1032 -2.21966 4.85352 0
M  V30 958 O 90.3262 -3.42437 4.56172 0
M  V30 959 O 89.2602 -1.87013 5.7211 0
M  V30 960 H 93.0862 0.060938 3.03639 0
M  V30 961 H 90.6712 0.09565 1.49093 0
M  V30 962 H 92.5532 -2.34777 3.49939 0
M  V30 963 H 91.2282 -2.27176 2.30593 0
M  V30 964 H 90.1352 -0.432736 3.71589 0
M  V30 965 H 91.4682 -0.588898 4.88664 0
M  V30 966 N 93.1203 -1.57491 0.0584922 0
M  V30 967 C 94.5363 -1.56792 -0.298091 0
M  V30 968 C 94.7363 -1.06679 -1.70944 0
M  V30 969 O 93.7923 -0.726672 -2.41818 0
M  V30 970 C 95.1053 -3.00461 -0.119879 0
M  V30 971 C 96.6533 -3.1242 -0.190428 0
M  V30 972 C 97.1283 -4.57982 -0.0406567 0
M  V30 973 N 98.6193 -4.63099 -0.0966958 0
M  V30 974 C 99.3543 -5.734 -0.00502943 0
M  V30 975 N 98.8503 -6.9266 0.139402 0
M  V30 976 N 100.643 -5.62067 -0.0611391 0
M  V30 977 H 92.7943 -1.88386 0.98105 0
M  V30 978 H 95.0573 -0.867865 0.381463 0
M  V30 979 H 94.7633 -3.41187 0.85349 0
M  V30 980 H 94.6373 -3.66843 -0.877833 0
M  V30 981 H 97.0243 -2.71589 -1.15427 0
M  V30 982 H 97.1053 -2.48702 0.598405 0
M  V30 983 H 96.7493 -4.995 0.919897 0
M  V30 984 H 96.6793 -5.19715 -0.848727 0
M  V30 985 H 99.1703 -3.77331 -0.207277 0
M  V30 986 H 99.4833 -7.72536 0.201855 0
M  V30 987 H 97.8283 -6.94781 0.174586 0
M  V30 988 H 101.019 -4.67782 -0.172583 0
M  V30 989 H 101.192 -6.47999 0.0137562 0
M  V30 990 N 94.5984 0.214957 -1.56127 0
M  V30 991 C 95.8444 0.939762 -1.79712 0
M  V30 992 C 96.1774 1.83723 -0.629247 0
M  V30 993 O 95.4524 1.90925 0.371197 0
M  V30 994 C 95.7354 1.77306 -3.13424 0
M  V30 995 C 95.5884 0.90164 -4.40671 0
M  V30 996 C 96.9074 2.74956 -3.43638 0
M  V30 997 H 94.0264 0.340214 -0.653776 0
M  V30 998 H 96.6684 0.20824 -1.88855 0
M  V30 999 H 94.8184 2.39673 -3.0576 0
M  V30 1000 H 96.4904 0.294206 -4.60361 0
M  V30 1001 H 94.7334 0.207368 -4.33304 0
M  V30 1002 H 95.4044 1.51923 -5.30682 0
M  V30 1003 H 97.8804 2.22724 -3.51473 0
M  V30 1004 H 96.7564 3.30358 -4.38355 0
M  V30 1005 H 97.0174 3.53023 -2.66134 0
M  V30 1006 N 96.0765 1.50051 0.48192 0
M  V30 1007 C 97.0085 1.64263 1.59844 0
M  V30 1008 C 98.0215 0.52451 1.54119 0
M  V30 1009 O 99.2105 0.797293 1.59704 0
M  V30 1010 C 96.3105 1.60102 2.98698 0
M  V30 1011 C 95.4835 2.87767 3.29407 0
M  V30 1012 C 94.5425 2.76397 4.47762 0
M  V30 1013 O 93.5685 3.50348 4.48603 0
M  V30 1014 N 94.7705 1.89222 5.48794 0
M  V30 1015 H 97.5355 2.60566 1.48073 0
M  V30 1016 H 95.0965 1.47379 0.670149 0
M  V30 1017 H 97.0885 1.50123 3.75826 0
M  V30 1018 H 95.6585 0.715798 3.04294 0
M  V30 1019 H 94.8785 3.11954 2.40994 0
M  V30 1020 H 96.1665 3.72365 3.4673 0
M  V30 1021 H 95.5645 1.28434 5.50928 0
M  V30 1022 H 94.1215 1.85154 6.24949 0
M  V30 1023 N 97.5546 -0.734337 1.39446 0
M  V30 1024 C 98.7846 -1.52137 1.39778 0
M  V30 1025 C 99.1926 -1.89198 -0.00929312 0
M  V30 1026 O 98.5356 -1.54666 -0.991168 0
M  V30 1027 C 98.5976 -2.83762 2.20724 0
M  V30 1028 C 98.2616 -2.69131 3.69347 0
M  V30 1029 C 99.2586 -2.37635 4.62413 0
M  V30 1030 C 96.9436 -2.85982 4.1294 0
M  V30 1031 C 98.9376 -2.23172 5.97054 0
M  V30 1032 C 96.6246 -2.71137 5.47657 0
M  V30 1033 C 97.6226 -2.39777 6.39528 0
M  V30 1034 O 97.3106 -2.25026 7.71763 0
M  V30 1035 H 97.0426 -0.476717 0.479288 0
M  V30 1036 H 99.5966 -0.915012 1.83893 0
M  V30 1037 H 97.8266 -3.4666 1.71359 0
M  V30 1038 H 99.5156 -3.45383 2.13226 0
M  V30 1039 H 100.282 -2.24267 4.30034 0
M  V30 1040 H 96.1606 -3.09383 3.41765 0
M  V30 1041 H 99.7046 -1.98617 6.68728 0
M  V30 1042 H 95.6016 -2.84083 5.79626 0
M  V30 1043 H 96.3696 -2.40091 7.82495 0
M  V30 1044 N 99.0327 -1.24633 -0.964593 0
M  V30 1045 C 100.263 -1.11339 -1.74032 0
M  V30 1046 C 100.671 0.336593 -1.86182 0
M  V30 1047 O 100.014 1.24389 -1.35178 0
M  V30 1048 C 100.076 -1.68284 -3.1768 0
M  V30 1049 C 99.7397 -3.17196 -3.28992 0
M  V30 1050 C 100.737 -4.14308 -3.14078 0
M  V30 1051 C 98.4217 -3.57215 -3.53133 0
M  V30 1052 C 100.416 -5.4942 -3.23135 0
M  V30 1053 C 98.1027 -4.92468 -3.61827 0
M  V30 1054 C 99.1007 -5.8838 -3.46841 0
M  V30 1055 O 98.7887 -7.21173 -3.55197 0
M  V30 1056 H 98.5207 -0.389551 -0.552472 0
M  V30 1057 H 101.075 -1.65282 -1.21946 0
M  V30 1058 H 99.3047 -1.08777 -3.71085 0
M  V30 1059 H 100.994 -1.50234 -3.77074 0
M  V30 1060 H 101.76 -3.84731 -2.95308 0
M  V30 1061 H 97.6387 -2.83063 -3.63863 0
M  V30 1062 H 101.183 -6.24263 -3.11355 0
M  V30 1063 H 97.0797 -5.21714 -3.80111 0
M  V30 1064 H 97.8477 -7.29135 -3.71892 0
M  V30 1065 N 100.511 1.16574 -1.06058 0
M  V30 1066 C 101.758 1.87047 -0.775873 0
M  V30 1067 C 102.086 1.81562 0.697534 0
M  V30 1068 O 101.341 1.22445 1.52662 0
M  V30 1069 C 101.64 3.36195 -1.21275 0
M  V30 1070 C 101.306 3.6188 -2.68986 0
M  V30 1071 C 99.9678 3.68599 -3.09335 0
M  V30 1072 C 102.32 3.72648 -3.64394 0
M  V30 1073 C 99.6478 3.83584 -4.43937 0
M  V30 1074 C 102 3.89154 -4.98741 0
M  V30 1075 C 100.664 3.94114 -5.3873 0
M  V30 1076 H 99.9338 0.684452 -0.283912 0
M  V30 1077 H 102.581 1.37853 -1.32925 0
M  V30 1078 H 100.886 3.87505 -0.578528 0
M  V30 1079 H 102.583 3.89103 -0.969542 0
M  V30 1080 H 99.1728 3.57281 -2.36744 0
M  V30 1081 H 103.357 3.66769 -3.34356 0
M  V30 1082 H 98.6128 3.85677 -4.74409 0
M  V30 1083 H 102.787 3.96427 -5.72554 0
M  V30 1084 H 100.414 4.05478 -6.43033 0
M  V30 1085 N 101.989 0.842826 1.3317 0
M  V30 1086 C 102.939 0.250877 2.26616 0
M  V30 1087 C 103.923 -0.596427 1.49437 0
M  V30 1088 O 105.115 -0.447747 1.71243 0
M  V30 1089 C 102.244 -0.569779 3.38539 0
M  V30 1090 C 101.33 0.289254 4.23112 0
M  V30 1091 N 101.721 1.36987 4.86897 0
M  V30 1092 C 100.019 0.0769631 4.45934 0
M  V30 1093 C 100.72 1.89737 5.49886 0
M  V30 1094 N 99.6959 1.19827 5.30229 0
M  V30 1095 H 103.498 1.07718 2.73448 0
M  V30 1096 H 101.012 0.687693 1.47121 0
M  V30 1097 H 103.009 -1.01018 4.04476 0
M  V30 1098 H 101.669 -1.39401 2.93253 0
M  V30 1099 H 102.68 1.75277 4.87338 0
M  V30 1100 H 99.3569 -0.713507 4.11358 0
M  V30 1101 H 100.747 2.80253 6.10662 0
M  V30 1102 N 103.467 -1.45747 0.599634 0
M  V30 1103 C 104.697 -2.06369 0.0977132 0
M  V30 1104 C 105.105 -1.44624 -1.21985 0
M  V30 1105 O 104.448 -0.551831 -1.75216 0
M  V30 1106 C 104.51 -3.59284 -0.124673 0
M  V30 1107 C 104.174 -4.43318 1.10987 0
M  V30 1108 C 105.171 -4.78796 2.02609 0
M  V30 1109 C 102.856 -4.84194 1.33647 0
M  V30 1110 C 104.85 -5.53997 3.15224 0
M  V30 1111 C 102.537 -5.5915 2.46565 0
M  V30 1112 C 103.535 -5.93968 3.37182 0
M  V30 1113 O 103.223 -6.67405 4.48136 0
M  V30 1114 H 102.955 -0.673122 0.0623153 0
M  V30 1115 H 105.509 -1.88104 0.824981 0
M  V30 1116 H 103.739 -3.75919 -0.906745 0
M  V30 1117 H 105.428 -4.01775 -0.577201 0
M  V30 1118 H 106.194 -4.47781 1.86325 0
M  V30 1119 H 102.073 -4.56534 0.64016 0
M  V30 1120 H 105.617 -5.81091 3.85978 0
M  V30 1121 H 101.514 -5.89579 2.62805 0
M  V30 1122 H 102.282 -6.85847 4.46717 0
M  V30 1123 N 104.945 -0.338344 -1.53925 0
M  V30 1124 C 105.895 0.536712 -2.21593 0
M  V30 1125 C 106.879 1.07015 -1.20153 0
M  V30 1126 O 108.071 1.00471 -1.45721 0
M  V30 1127 C 105.2 1.68977 -2.98834 0
M  V30 1128 C 104.286 1.17052 -4.07627 0
M  V30 1129 N 104.677 0.372085 -5.0443 0
M  V30 1130 C 102.975 1.44789 -4.21844 0
M  V30 1131 C 103.676 0.0909171 -5.81629 0
M  V30 1132 N 102.652 0.681131 -5.39316 0
M  V30 1133 H 106.454 -0.0804298 -2.9379 0
M  V30 1134 H 103.968 -0.144943 -1.61752 0
M  V30 1135 H 105.965 2.32857 -3.45808 0
M  V30 1136 H 104.625 2.31024 -2.28162 0
M  V30 1137 H 105.636 0.0136217 -5.17898 0
M  V30 1138 H 102.313 2.07313 -3.62391 0
M  V30 1139 H 103.703 -0.552817 -6.69622 0
M  V30 1140 N 106.423 1.57458 -0.0668435 0
M  V30 1141 C 107.373 2.0896 0.912119 0
M  V30 1142 C 108.357 0.998186 1.26195 0
M  V30 1143 O 109.549 1.26133 1.24175 0
M  V30 1144 C 106.678 2.6508 2.18145 0
M  V30 1145 C 105.764 3.81218 1.85832 0
M  V30 1146 N 106.155 4.90378 1.23948 0
M  V30 1147 C 104.453 3.9042 2.15612 0
M  V30 1148 C 105.154 5.71279 1.09616 0
M  V30 1149 N 104.13 5.19389 1.60423 0
M  V30 1150 H 107.932 2.90749 0.42924 0
M  V30 1151 H 105.446 1.6182 0.137184 0
M  V30 1152 H 107.443 3.0029 2.89192 0
M  V30 1153 H 106.103 1.84736 2.67025 0
M  V30 1154 H 107.114 5.09847 0.909731 0
M  V30 1155 H 103.791 3.21043 2.66903 0
M  V30 1156 H 105.181 6.69085 0.614425 0
M  V30 1157 N 107.901 -0.206675 1.56239 0
M  V30 1158 C 109.147 -0.930218 1.80208 0
M  V30 1159 C 109.48 -1.83387 0.638981 0
M  V30 1160 O 108.755 -1.91119 -0.361066 0
M  V30 1161 C 109.038 -1.75641 3.1436 0
M  V30 1162 C 108.891 -0.878257 4.41142 0
M  V30 1163 C 110.21 -2.73129 3.45092 0
M  V30 1164 H 107.329 -0.336742 0.655571 0
M  V30 1165 H 109.971 -0.198222 1.88963 0
M  V30 1166 H 108.121 -2.38048 3.07027 0
M  V30 1167 H 109.793 -0.269787 4.6051 0
M  V30 1168 H 108.036 -0.184385 4.33408 0
M  V30 1169 H 108.707 -1.49106 5.3148 0
M  V30 1170 H 111.183 -2.20856 3.52649 0
M  V30 1171 H 110.059 -3.28028 4.40101 0
M  V30 1172 H 110.32 -3.51606 2.68003 0
M  V30 1173 N 109.379 -1.50304 -0.473955 0
M  V30 1174 C 110.607 -1.64902 -1.24959 0
M  V30 1175 C 111.022 -0.331198 -1.85872 0
M  V30 1176 O 110.379 0.68652 -1.69095 0
M  V30 1177 C 110.43 -2.73803 -2.36038 0
M  V30 1178 O 110.151 -4.00477 -1.77624 0
M  V30 1179 C 111.652 -2.99349 -3.26964 0
M  V30 1180 H 108.872 -0.554383 -0.378022 0
M  V30 1181 H 111.416 -1.9651 -0.566054 0
M  V30 1182 H 109.571 -2.44898 -3.00173 0
M  V30 1183 H 109.985 -4.60678 -2.5075 0
M  V30 1184 H 111.459 -3.79217 -4.01121 0
M  V30 1185 H 111.936 -2.10307 -3.85574 0
M  V30 1186 H 112.542 -3.29774 -2.68569 0
M  V30 1187 N 110.857 0.726932 -1.39834 0
M  V30 1188 C 111.804 1.841 -1.39197 0
M  V30 1189 C 112.774 1.642 -0.250502 0
M  V30 1190 O 113.959 1.85494 -0.446846 0
M  V30 1191 C 111.099 3.21697 -1.24919 0
M  V30 1192 C 110.212 3.53247 -2.48678 0
M  V30 1193 C 109.347 4.80289 -2.26928 0
M  V30 1194 C 108.386 5.04707 -3.4632 0
M  V30 1195 N 107.523 6.22956 -3.23836 0
M  V30 1196 H 112.363 1.83979 -2.34427 0
M  V30 1197 H 109.9 0.898876 -1.16442 0
M  V30 1198 H 111.858 4.01137 -1.1465 0
M  V30 1199 H 110.488 3.21076 -0.333153 0
M  V30 1200 H 109.54 2.68447 -2.69519 0
M  V30 1201 H 110.852 3.67205 -3.37582 0
M  V30 1202 H 110.006 5.67725 -2.13947 0
M  V30 1203 H 108.745 4.68519 -1.35431 0
M  V30 1204 H 107.75 4.1573 -3.5979 0
M  V30 1205 H 108.975 5.18357 -4.38729 0
M  V30 1206 H 106.921 6.12459 -2.35011 0
M  V30 1207 H 106.838 6.37539 -4.063 0
M  V30 1208 H 108.106 7.1321 -3.14566 0
M  V30 1209 N 112.336 1.25143 0.95797 0
M  V30 1210 C 113.266 1.07711 2.07173 0
M  V30 1211 C 114.247 -0.0128462 1.70095 0
M  V30 1212 O 115.432 0.156061 1.93572 0
M  V30 1213 C 112.562 0.691503 3.40346 0
M  V30 1214 C 111.516 1.73132 3.9142 0
M  V30 1215 C 110.842 1.20049 5.21049 0
M  V30 1216 C 112.142 3.1294 4.1817 0
M  V30 1217 H 113.836 2.00873 2.22014 0
M  V30 1218 H 111.382 0.967191 1.06684 0
M  V30 1219 H 113.335 0.556505 4.17709 0
M  V30 1220 H 112.059 -0.275819 3.25433 0
M  V30 1221 H 110.718 1.8547 3.16222 0
M  V30 1222 H 110.366 0.223499 5.02503 0
M  V30 1223 H 110.066 1.89545 5.56189 0
M  V30 1224 H 111.59 1.07782 6.01012 0
M  V30 1225 H 113.004 3.03775 4.86203 0
M  V30 1226 H 111.401 3.79875 4.64559 0
M  V30 1227 H 112.471 3.6025 3.24573 0
M  V30 1228 N 113.814 -1.1601 1.06675 0
M  V30 1229 C 115.091 -1.82679 0.699114 0
M  V30 1230 C 115.471 -1.94559 -0.819137 0
M  V30 1231 O 114.819 -1.49169 -1.73092 0
M  V30 1232 C 115.029 -3.19445 1.40555 0
M  V30 1233 C 116.377 -3.95171 1.55323 0
M  V30 1234 O 117.401 -3.28976 1.36577 0
M  V30 1235 O 116.26 -5.13833 1.86112 0
M  V30 1236 H 113.354 -0.788954 0.247951 0
M  V30 1237 H 115.9 -1.23179 1.16726 0
M  V30 1238 H 114.672 -3.05856 2.44065 0
M  V30 1239 H 114.295 -3.86625 0.927733 0
M  V30 1240 N 115.292 -0.849877 -1.32721 0
M  V30 1241 C 116.202 -0.293791 -2.32753 0
M  V30 1242 C 117.218 0.585906 -1.63839 0
M  V30 1243 O 118.394 0.487413 -1.95413 0
M  V30 1244 C 115.459 0.512752 -3.42887 0
M  V30 1245 C 114.52 -0.39252 -4.27502 0
M  V30 1246 C 113.753 0.375625 -5.32377 0
M  V30 1247 O 113.976 1.60613 -5.4732 0
M  V30 1248 O 112.91 -0.256094 -6.01355 0
M  V30 1249 H 116.736 -1.12242 -2.82197 0
M  V30 1250 H 114.321 -0.612685 -1.36259 0
M  V30 1251 H 116.203 0.970704 -4.10067 0
M  V30 1252 H 114.878 1.31826 -2.95641 0
M  V30 1253 H 113.785 -0.898547 -3.63149 0
M  V30 1254 H 115.118 -1.16309 -4.7826 0
M  V30 1255 N 116.77 1.45427 -0.607355 0
M  V30 1256 C 118.016 2.0254 -0.102607 0
M  V30 1257 C 118.349 1.47478 1.26348 0
M  V30 1258 O 117.624 0.64939 1.83339 0
M  V30 1259 C 117.907 3.60044 -0.0634347 0
M  V30 1260 C 117.76 4.2544 -1.46017 0
M  V30 1261 C 119.079 4.35646 0.624514 0
M  V30 1262 H 116.198 0.73598 -0.0387607 0
M  V30 1263 H 118.84 1.73284 -0.779282 0
M  V30 1264 H 116.99 3.85101 0.512808 0
M  V30 1265 H 118.662 4.11569 -2.08347 0
M  V30 1266 H 116.905 3.83849 -2.02094 0
M  V30 1267 H 117.576 5.34342 -1.385 0
M  V30 1268 H 120.052 4.15882 0.134723 0
M  V30 1269 H 118.928 5.45376 0.621028 0
M  V30 1270 H 119.189 4.08501 1.69055 0
M  V30 1271 N 118.248 0.346503 1.53744 0
M  V30 1272 C 119.211 -0.496439 2.23759 0
M  V30 1273 C 120.211 -1.0252 1.2388 0
M  V30 1274 O 121.401 -0.913974 1.48297 0
M  V30 1275 C 118.533 -1.69187 2.95954 0
M  V30 1276 H 119.726 0.115952 2.99676 0
M  V30 1277 H 117.279 0.0978939 1.55993 0
M  V30 1278 H 118.014 -2.34288 2.24231 0
M  V30 1279 H 117.799 -1.31989 3.69217 0
M  V30 1280 H 119.289 -2.28969 3.49232 0
M  V30 1281 N 119.726 -1.57421 0.075193 0
M  V30 1282 C 120.689 -2.11791 -0.876203 0
M  V30 1283 C 121.689 -1.04268 -1.22412 0
M  V30 1284 O 122.879 -1.30242 -1.15684 0
M  V30 1285 C 120.011 -2.62207 -2.17854 0
M  V30 1286 H 121.204 -2.9716 -0.40444 0
M  V30 1287 H 118.757 -1.55333 -0.173557 0
M  V30 1288 H 119.492 -1.803 -2.6956 0
M  V30 1289 H 119.277 -3.40802 -1.93897 0
M  V30 1290 H 120.767 -3.04335 -2.85955 0
M  V30 1291 N 121.204 0.198386 -1.56346 0
M  V30 1292 C 122.429 0.939682 -1.84891 0
M  V30 1293 C 122.854 1.76202 -0.658369 0
M  V30 1294 O 122.212 1.76993 0.392851 0
M  V30 1295 C 122.26 1.81428 -3.11635 0
M  V30 1296 O 121.364 2.91265 -2.91956 0
M  V30 1297 H 120.705 0.264807 -0.608912 0
M  V30 1298 H 123.235 0.204695 -2.03573 0
M  V30 1299 H 123.245 2.21958 -3.42343 0
M  V30 1300 H 121.92 1.21004 -3.97908 0
M  V30 1301 H 120.497 2.54514 -2.72538 0
M  V30 1302 N 122.682 1.50554 0.465978 0
M  V30 1303 C 123.614 1.65949 1.58093 0
M  V30 1304 C 124.627 0.540827 1.53554 0
M  V30 1305 O 125.816 0.814187 1.5885 0
M  V30 1306 C 122.916 1.63261 2.96983 0
M  V30 1307 C 122.089 2.91245 3.26336 0
M  V30 1308 C 121.148 2.8113 4.44806 0
M  V30 1309 O 120.174 3.55086 4.44862 0
M  V30 1310 N 121.376 1.95032 5.46756 0
M  V30 1311 H 124.141 2.62122 1.45301 0
M  V30 1312 H 121.702 1.48082 0.65448 0
M  V30 1313 H 123.694 1.54101 3.74212 0
M  V30 1314 H 122.264 0.748032 3.03518 0
M  V30 1315 H 121.484 3.14493 2.37672 0
M  V30 1316 H 122.772 3.76022 3.42761 0
M  V30 1317 H 122.17 1.3427 5.49534 0
M  V30 1318 H 120.727 1.91772 6.2295 0
M  V30 1319 N 124.16 -0.719506 1.40217 0
M  V30 1320 C 125.09 -1.8465 1.42922 0
M  V30 1321 C 126.071 -1.67599 0.29062 0
M  V30 1322 O 127.256 -1.87688 0.498677 0
M  V30 1323 C 124.386 -3.22565 1.28722 0
M  V30 1324 C 123.34 -3.54281 2.40144 0
M  V30 1325 C 122.666 -4.91298 2.11023 0
M  V30 1326 C 123.966 -3.55676 3.82481 0
M  V30 1327 H 125.66 -1.82644 2.37237 0
M  V30 1328 H 123.206 -0.877305 1.1419 0
M  V30 1329 H 125.159 -4.01095 1.29232 0
M  V30 1330 H 123.883 -3.25137 0.308811 0
M  V30 1331 H 122.542 -2.78088 2.38877 0
M  V30 1332 H 122.19 -4.90468 1.11582 0
M  V30 1333 H 121.89 -5.13485 2.8567 0
M  V30 1334 H 123.414 -5.72166 2.13209 0
M  V30 1335 H 124.828 -4.24254 3.85592 0
M  V30 1336 H 123.225 -3.89388 4.56614 0
M  V30 1337 H 124.295 -2.55144 4.12346 0
M  V30 1338 N 125.638 -1.25649 -0.95132 0
M  V30 1339 C 126.866 -1.13343 -1.73092 0
M  V30 1340 C 127.281 0.312434 -1.86197 0
M  V30 1341 O 126.638 1.21465 -1.36207 0
M  V30 1342 C 126.689 -1.78602 -3.14299 0
M  V30 1343 O 126.41 -3.17537 -3.01831 0
M  V30 1344 C 127.911 -1.72119 -4.08522 0
M  V30 1345 H 125.131 -0.395181 -0.542285 0
M  V30 1346 H 127.675 -1.66076 -1.19328 0
M  V30 1347 H 125.83 -1.29832 -3.64996 0
M  V30 1348 H 126.244 -3.49676 -3.90931 0
M  V30 1349 H 127.718 -2.22435 -5.052 0
M  V30 1350 H 128.195 -0.685635 -4.33815 0
M  V30 1351 H 128.801 -2.20393 -3.63741 0
M  V30 1352 N 127.117 1.15442 -1.07289 0
M  V30 1353 C 128.364 1.86213 -0.795668 0
M  V30 1354 C 128.692 1.82291 0.678238 0
M  V30 1355 O 127.947 1.24057 1.51355 0
M  V30 1356 C 128.246 3.3489 -1.24834 0
M  V30 1357 C 127.912 3.59007 -2.72809 0
M  V30 1358 C 126.574 3.65298 -3.13227 0
M  V30 1359 C 128.926 3.68762 -3.68326 0
M  V30 1360 C 126.254 3.78854 -4.4798 0
M  V30 1361 C 128.606 3.83842 -5.0284 0
M  V30 1362 C 127.27 3.88378 -5.4288 0
M  V30 1363 H 126.54 0.681403 -0.291155 0
M  V30 1364 H 129.187 1.36435 -1.34379 0
M  V30 1365 H 127.492 3.8687 -0.619595 0
M  V30 1366 H 129.189 3.88052 -1.01076 0
M  V30 1367 H 125.779 3.5475 -2.40521 0
M  V30 1368 H 129.963 3.63202 -3.38227 0
M  V30 1369 H 125.219 3.80623 -4.78472 0
M  V30 1370 H 129.393 3.90332 -5.76727 0
M  V30 1371 H 127.02 3.98635 -6.47298 0
M  V30 1372 N 128.595 0.856903 1.32268 0
M  V30 1373 C 130.006 0.515711 1.79436 0
M  V30 1374 C 130.357 -0.966586 1.70738 0
M  V30 1375 O 129.482 -1.75409 1.26731 0
M  V30 1376 C 130.077 0.929335 3.25805 0
M  V30 1377 C 128.636 0.640006 3.70919 0
M  V30 1378 C 127.783 1.12784 2.53328 0
M  V30 1379 H 130.734 1.04389 1.19535 0
M  V30 1380 H 130.755 0.246633 3.797 0
M  V30 1381 H 130.267 2.00821 3.32103 0
M  V30 1382 H 128.368 -0.428051 3.70133 0
M  V30 1383 H 128.481 1.20788 4.63624 0
M  V30 1384 H 126.845 0.548033 2.48734 0
M  V30 1385 H 127.628 2.21387 2.62379 0
M  V30 1386 N 130.073 -1.45103 0.615059 0
M  V30 1387 C 131.036 -2.29025 -0.0895485 0
M  V30 1388 C 132.036 -1.40174 -0.787906 0
M  V30 1389 O 133.226 -1.62217 -0.634933 0
M  V30 1390 C 130.358 -3.21376 -1.13711 0
M  V30 1391 H 131.551 -2.92807 0.648382 0
M  V30 1392 H 129.104 -1.51749 0.374444 0
M  V30 1393 H 129.839 -2.6241 -1.90556 0
M  V30 1394 H 129.624 -3.86834 -0.640475 0
M  V30 1395 H 131.114 -3.84459 -1.63036 0
M  V30 1396 N 131.551 -0.354651 -1.53558 0
M  V30 1397 C 132.797 0.238797 -2.01389 0
M  V30 1398 C 133.13 1.49309 -1.2418 0
M  V30 1399 O 132.405 1.91638 -0.332457 0
M  V30 1400 C 132.688 0.541771 -3.56001 0
M  V30 1401 C 132.541 -0.725388 -4.43912 0
M  V30 1402 C 133.86 1.34685 -4.18984 0
M  V30 1403 H 130.979 0.0853177 -0.732045 0
M  V30 1404 H 133.621 -0.477384 -1.83905 0
M  V30 1405 H 131.771 1.15189 -3.71031 0
M  V30 1406 H 133.443 -1.36313 -4.407 0
M  V30 1407 H 131.686 -1.34801 -4.12324 0
M  V30 1408 H 132.357 -0.468505 -5.50008 0
M  V30 1409 H 134.833 0.830837 -4.07721 0
M  V30 1410 H 133.709 1.52759 -5.27215 0
M  V30 1411 H 133.97 2.35221 -3.74331 0
M  V30 1412 N 133.029 1.57378 -0.0835403 0
M  V30 1413 C 134.257 1.98263 0.59157 0
M  V30 1414 C 134.672 0.962302 1.62435 0
M  V30 1415 O 134.029 -0.049581 1.82433 0
M  V30 1416 C 134.08 3.39214 1.24965 0
M  V30 1417 O 133.801 4.37339 0.258186 0
M  V30 1418 C 135.302 3.95038 2.01147 0
M  V30 1419 H 132.522 0.651773 0.159477 0
M  V30 1420 H 135.066 2.03878 -0.159415 0
M  V30 1421 H 133.221 3.34649 1.95164 0
M  V30 1422 H 133.635 5.19371 0.731734 0
M  V30 1423 H 135.109 4.95848 2.42567 0
M  V30 1424 H 135.586 3.32222 2.87272 0
M  V30 1425 H 136.192 4.0304 1.35789 0
M  V30 1426 N 134.507 -0.190092 1.56449 0
M  V30 1427 C 135.437 -1.23816 1.97969 0
M  V30 1428 C 136.418 -1.47201 0.852395 0
M  V30 1429 O 137.603 -1.58854 1.1171 0
M  V30 1430 C 134.733 -2.5813 2.3235 0
M  V30 1431 C 133.687 -2.49348 3.47864 0
M  V30 1432 C 133.013 -3.8798 3.67934 0
M  V30 1433 C 134.313 -2.01424 4.81898 0
M  V30 1434 H 136.007 -0.89311 2.85769 0
M  V30 1435 H 133.553 -0.428177 1.37487 0
M  V30 1436 H 135.506 -3.31637 2.59991 0
M  V30 1437 H 134.23 -2.94386 1.41438 0
M  V30 1438 H 132.889 -1.78297 3.20321 0
M  V30 1439 H 132.537 -4.21597 2.74344 0
M  V30 1440 H 132.237 -3.82978 4.45648 0
M  V30 1441 H 133.761 -4.63101 3.97957 0
M  V30 1442 H 135.175 -2.64693 5.08538 0
M  V30 1443 H 133.572 -2.07413 5.63116 0
M  V30 1444 H 134.642 -0.967677 4.75146 0
M  V30 1445 N 135.985 -1.50799 -0.457987 0
M  V30 1446 C 137.225 -1.64088 -1.21879 0
M  V30 1447 C 137.589 -0.339848 -1.88968 0
M  V30 1448 O 138.79 -0.348301 -2.66534 0
M  V30 1449 C 137.061 -2.79726 -2.2246 0
M  V30 1450 S 138.62 -3.13225 -3.07303 0
M  V30 1451 H 135.438 -0.578314 -0.41361 0
M  V30 1452 H 138.04 -1.88632 -0.513645 0
M  V30 1453 H 136.744 -3.72722 -1.71775 0
M  V30 1454 H 136.275 -2.57308 -2.97584 0
M  V30 1455 H 138.29 -2.58062 -4.23814 0
M  V30 1456 N 137.463 0.71206 -1.40597 0
M  V30 1457 C 138.411 1.84746 -1.41321 0
M  V30 1458 C 139.405 1.66842 -0.293268 0
M  V30 1459 O 140.611 1.73904 -0.464481 0
M  V30 1460 H 136.986 0.608522 -0.441819 0
M  V30 1461 H 138.957 1.81252 -2.37045 0
M  V30 1462 C 137.706 3.22638 -1.29614 0
M  V30 1463 H 137.029 3.37023 -2.15071 0
M  V30 1464 H 138.469 4.02209 -1.3418 0
M  V30 1465 C 136.928 3.36899 -0.00673121 0
M  V30 1466 O 137.458 3.90186 0.954859 0
M  V30 1467 N 135.664 2.9053 0.0639327 0
M  V30 1468 H 135.211 2.47353 -0.719311 0
M  V30 1469 H 135.169 3.0045 0.926118 0
M  V30 1470 N 138.941 1.26152 0.944643 0
M  V30 1471 C 139.871 1.09902 2.06019 0
M  V30 1472 C 140.852 0.00519538 1.70099 0
M  V30 1473 O 142.037 0.176583 1.93396 0
M  V30 1474 C 139.167 0.727562 3.39594 0
M  V30 1475 C 138.121 1.77274 3.89561 0
M  V30 1476 C 137.447 1.25569 5.19747 0
M  V30 1477 C 138.747 3.17357 4.14827 0
M  V30 1478 H 140.441 2.03217 2.19871 0
M  V30 1479 H 137.987 0.978452 1.05652 0
M  V30 1480 H 139.94 0.600777 4.17095 0
M  V30 1481 H 138.664 -0.241287 3.25707 0
M  V30 1482 H 137.323 1.88814 3.14237 0
M  V30 1483 H 136.971 0.276783 5.02238 0
M  V30 1484 H 136.671 1.95433 5.54148 0
M  V30 1485 H 138.195 1.1415 5.99835 0
M  V30 1486 H 139.609 3.08914 4.82954 0
M  V30 1487 H 138.006 3.84781 4.60504 0
M  V30 1488 H 139.076 3.63673 3.20734 0
M  V30 1489 N 140.419 -1.14872 1.07899 0
M  V30 1490 C 141.367 -2.21857 0.698727 0
M  V30 1491 C 142.361 -1.66845 -0.293086 0
M  V30 1492 O 143.567 -1.79321 -0.156204 0
M  V30 1493 H 139.942 -0.722691 0.207899 0
M  V30 1494 H 141.913 -2.51205 1.61054 0
M  V30 1495 C 140.662 -3.47498 0.11858 0
M  V30 1496 H 139.985 -3.90154 0.872914 0
M  V30 1497 H 141.425 -4.23858 -0.109759 0
M  V30 1498 C 139.884 -3.16947 -1.1422 0
M  V30 1499 O 140.414 -3.3426 -2.22785 0
M  V30 1500 N 138.62 -2.70946 -1.05055 0
M  V30 1501 H 138.167 -2.57058 -0.167038 0
M  V30 1502 H 138.125 -2.50879 -1.89491 0
M  V30 1503 N 141.898 -0.863906 -1.31812 0
M  V30 1504 C 142.808 -0.318461 -2.32428 0
M  V30 1505 C 143.824 0.568496 -1.64451 0
M  V30 1506 O 145 0.46666 -1.95919 0
M  V30 1507 C 142.065 0.476355 -3.43412 0
M  V30 1508 C 141.126 -0.43784 -4.27061 0
M  V30 1509 C 140.359 0.319138 -5.32745 0
M  V30 1510 O 140.582 1.54799 -5.48993 0
M  V30 1511 O 139.516 -0.319861 -6.01049 0
M  V30 1512 H 143.342 -1.15229 -2.80991 0
M  V30 1513 H 140.927 -0.627103 -1.35602 0
M  V30 1514 H 142.809 0.927156 -4.11074 0
M  V30 1515 H 141.484 1.28683 -2.97022 0
M  V30 1516 H 140.391 -0.937013 -3.62175 0
M  V30 1517 H 141.724 -1.21375 -4.77 0
M  V30 1518 N 143.376 1.44774 -0.622745 0
M  V30 1519 C 144.623 2.02121 -0.1239 0
M  V30 1520 C 144.951 1.48915 1.25118 0
M  V30 1521 O 144.206 0.660045 1.84233 0
M  V30 1522 C 144.505 3.57364 -0.0508323 0
M  V30 1523 C 144.171 4.29787 -1.36358 0
M  V30 1524 C 142.833 4.4929 -1.72314 0
M  V30 1525 C 145.185 4.71062 -2.23048 0
M  V30 1526 C 142.513 5.07325 -2.94682 0
M  V30 1527 C 144.865 5.30452 -3.44679 0
M  V30 1528 C 143.529 5.48175 -3.80868 0
M  V30 1529 H 142.799 0.739612 -0.0453381 0
M  V30 1530 H 145.446 1.73648 -0.807389 0
M  V30 1531 H 143.751 3.85202 0.715991 0
M  V30 1532 H 145.448 3.99456 0.351533 0
M  V30 1533 H 142.038 4.14932 -1.07375 0
M  V30 1534 H 146.222 4.55715 -1.96565 0
M  V30 1535 H 141.478 5.19235 -3.22809 0
M  V30 1536 H 145.652 5.61385 -4.12092 0
M  V30 1537 H 143.279 5.92912 -4.75773 0
M  V30 1538 N 144.854 0.36279 1.53368 0
M  V30 1539 C 146.27 0.0116182 1.59596 0
M  V30 1540 C 146.47 -1.47012 1.37803 0
M  V30 1541 O 145.526 -2.23136 1.18181 0
M  V30 1542 C 146.839 0.465052 2.97082 0
M  V30 1543 C 148.387 0.419033 3.10182 0
M  V30 1544 C 148.862 0.848235 4.50077 0
M  V30 1545 N 150.353 0.803183 4.56183 0
M  V30 1546 C 151.088 1.107 5.62613 0
M  V30 1547 N 150.584 1.47996 6.76808 0
M  V30 1548 N 152.377 1.02998 5.52583 0
M  V30 1549 H 144.528 1.32775 1.65785 0
M  V30 1550 H 146.791 0.542518 0.777417 0
M  V30 1551 H 146.497 1.49892 3.18159 0
M  V30 1552 H 146.371 -0.149786 3.76902 0
M  V30 1553 H 148.758 -0.605696 2.88817 0
M  V30 1554 H 148.839 1.06933 2.32377 0
M  V30 1555 H 148.483 1.87107 4.7218 0
M  V30 1556 H 148.413 0.175218 5.26308 0
M  V30 1557 H 150.904 0.52838 3.74188 0
M  V30 1558 H 151.217 1.69613 7.53957 0
M  V30 1559 H 149.562 1.51859 6.78206 0
M  V30 1560 H 152.753 0.737817 4.62249 0
M  V30 1561 H 152.926 1.2701 6.35431 0
M  V30 1562 N 146.332 -1.57332 0.0918853 0
M  V30 1563 C 147.579 -1.94236 -0.572577 0
M  V30 1564 C 147.907 -0.973398 -1.6839 0
M  V30 1565 O 147.162 0.00756912 -1.95699 0
M  V30 1566 C 147.461 -3.37689 -1.17051 0
M  V30 1567 C 147.127 -4.50527 -0.183304 0
M  V30 1568 C 145.789 -4.81119 0.0882276 0
M  V30 1569 C 148.141 -5.18883 0.49095 0
M  V30 1570 C 145.469 -5.77395 1.04076 0
M  V30 1571 C 147.821 -6.1618 1.43193 0
M  V30 1572 C 146.485 -6.45179 1.71173 0
M  V30 1573 H 145.755 -0.710762 -0.209521 0
M  V30 1574 H 148.402 -1.9077 0.167036 0
M  V30 1575 H 146.707 -3.37718 -1.9863 0
M  V30 1576 H 148.404 -3.63543 -1.69227 0
M  V30 1577 H 144.994 -4.26681 -0.405124 0
M  V30 1578 H 149.178 -4.95427 0.294312 0
M  V30 1579 H 144.434 -5.98179 1.26457 0
M  V30 1580 H 148.608 -6.68243 1.96023 0
M  V30 1581 H 146.235 -7.1959 2.4514 0
M  V30 1582 N 147.81 0.181792 -1.56548 0
M  V30 1583 C 149.035 0.920019 -1.85877 0
M  V30 1584 C 149.46 1.75494 -0.677021 0
M  V30 1585 O 148.818 1.77399 0.374056 0
M  V30 1586 C 148.866 1.78112 -3.13542 0
M  V30 1587 O 147.97 2.88152 -2.95029 0
M  V30 1588 H 147.311 0.258334 -0.611686 0
M  V30 1589 H 149.841 0.183092 -2.03779 0
M  V30 1590 H 149.851 2.18314 -3.44678 0
M  V30 1591 H 148.526 1.16777 -3.99169 0
M  V30 1592 H 147.103 2.51609 -2.75222 0
M  V30 1593 N 149.288 1.51039 0.449983 0
M  V30 1594 C 150.22 1.67617 1.56324 0
M  V30 1595 C 151.233 0.557083 1.52972 0
M  V30 1596 O 152.422 0.830989 1.57977 0
M  V30 1597 C 149.522 1.66402 2.95235 0
M  V30 1598 C 148.695 2.9469 3.23229 0
M  V30 1599 C 147.754 2.85832 4.41799 0
M  V30 1600 O 146.78 3.59785 4.41071 0
M  V30 1601 N 147.982 2.00821 5.44657 0
M  V30 1602 H 150.747 2.63648 1.42512 0
M  V30 1603 H 148.308 1.48767 0.638737 0
M  V30 1604 H 150.3 1.58062 3.72557 0
M  V30 1605 H 148.87 0.780182 3.02708 0
M  V30 1606 H 148.09 3.16996 2.34323 0
M  V30 1607 H 149.378 3.79636 3.38754 0
M  V30 1608 H 148.776 1.40091 5.48079 0
M  V30 1609 H 147.333 1.98368 6.20881 0
M  V30 1610 N 150.766 -0.704594 1.40972 0
M  V30 1611 C 152.012 -1.46675 1.40051 0
M  V30 1612 C 152.345 -1.94199 0.00641102 0
M  V30 1613 O 151.62 -1.68916 -0.964235 0
M  V30 1614 C 151.903 -2.68505 2.39952 0
M  V30 1615 C 151.756 -2.26805 3.88432 0
M  V30 1616 C 153.075 -3.70686 2.37233 0
M  V30 1617 H 150.194 -0.532015 0.510028 0
M  V30 1618 H 152.836 -0.803255 1.72185 0
M  V30 1619 H 150.986 -3.25114 2.1268 0
M  V30 1620 H 152.658 -1.75592 4.26574 0
M  V30 1621 H 150.901 -1.58685 4.03734 0
M  V30 1622 H 151.572 -3.14181 4.53866 0
M  V30 1623 H 154.048 -3.23731 2.61415 0
M  V30 1624 H 152.924 -4.53553 3.09162 0
M  V30 1625 H 153.185 -4.19754 1.38777 0
M  V30 1626 N 152.244 -1.26651 -0.937939 0
M  V30 1627 C 153.469 -1.15279 -1.72411 0
M  V30 1628 C 153.894 0.287866 -1.85884 0
M  V30 1629 O 153.252 1.20855 -1.35143 0
M  V30 1630 C 153.3 -1.83028 -3.10698 0
M  V30 1631 O 152.404 -1.12128 -3.96864 0
M  V30 1632 H 151.745 -0.401504 -0.528858 0
M  V30 1633 H 154.275 -1.67531 -1.1745 0
M  V30 1634 H 154.285 -1.89981 -3.6107 0
M  V30 1635 H 152.96 -2.87833 -3.00208 0
M  V30 1636 H 151.537 -1.13173 -3.55312 0
M  V30 1637 N 153.722 1.14298 -1.08507 0
M  V30 1638 C 154.669 2.19414 -0.715965 0
M  V30 1639 C 155.639 1.63399 0.298326 0
M  V30 1640 O 156.824 1.89929 0.182101 0
M  V30 1641 C 153.964 3.44845 -0.132534 0
M  V30 1642 C 153.077 4.15007 -1.19973 0
M  V30 1643 C 152.212 5.28024 -0.580048 0
M  V30 1644 C 151.251 5.9002 -1.62921 0
M  V30 1645 N 150.388 6.94485 -1.03125 0
M  V30 1646 H 155.228 2.50336 -1.61666 0
M  V30 1647 H 152.765 1.2293 -0.807882 0
M  V30 1648 H 154.723 4.16601 0.223454 0
M  V30 1649 H 153.353 3.14403 0.731467 0
M  V30 1650 H 152.405 3.41629 -1.67313 0
M  V30 1651 H 153.717 4.57178 -1.99473 0
M  V30 1652 H 152.871 6.06455 -0.172364 0
M  V30 1653 H 151.61 4.87076 0.246603 0
M  V30 1654 H 150.615 5.10291 -2.04654 0
M  V30 1655 H 151.84 6.33042 -2.45835 0
M  V30 1656 H 149.786 6.55612 -0.225711 0
M  V30 1657 H 149.703 7.35148 -1.76334 0
M  V30 1658 H 150.971 7.7679 -0.649458 0
M  V30 1659 N 155.201 0.870884 1.31352 0
M  V30 1660 C 156.149 0.316445 2.30437 0
M  V30 1661 C 157.143 -0.568965 1.59559 0
M  V30 1662 O 158.349 -0.454964 1.74155 0
M  V30 1663 H 154.724 0.0836521 0.747333 0
M  V30 1664 H 156.695 1.16606 2.74673 0
M  V30 1665 C 155.444 -0.46635 3.44558 0
M  V30 1666 H 154.767 0.205687 3.99271 0
M  V30 1667 H 156.207 -0.819614 4.16003 0
M  V30 1668 C 154.666 -1.65797 2.9328 0
M  V30 1669 O 155.196 -2.75728 2.92125 0
M  V30 1670 N 153.402 -1.49041 2.4947 0
M  V30 1671 H 152.949 -0.59612 2.50608 0
M  V30 1672 H 152.907 -2.28911 2.15516 0
M  V30 1673 N 156.679 -1.44442 0.630414 0
M  V30 1674 C 157.956 -1.9549 0.0655657 0
M  V30 1675 C 158.336 -1.5724 -1.40851 0
M  V30 1676 O 157.684 -0.846116 -2.12257 0
M  V30 1677 C 157.894 -3.47812 0.287691 0
M  V30 1678 C 159.242 -4.24216 0.180513 0
M  V30 1679 O 160.266 -3.55526 0.219019 0
M  V30 1680 O 159.125 -5.46434 0.0848493 0
M  V30 1681 H 156.219 -0.826688 -0.0227177 0
M  V30 1682 H 158.765 -1.54496 0.702068 0
M  V30 1683 H 157.537 -3.687 1.31056 0
M  V30 1684 H 157.16 -3.95751 -0.382984 0
M  V30 1685 N 158.157 -0.370918 -1.53173 0
M  V30 1686 C 159.087 0.464847 -2.28826 0
M  V30 1687 C 160.068 1.07936 -1.31468 0
M  V30 1688 O 161.253 1.0956 -1.60344 0
M  V30 1689 C 158.383 1.60196 -3.08147 0
M  V30 1690 C 157.337 1.11443 -4.13237 0
M  V30 1691 C 156.663 2.3422 -4.80672 0
M  V30 1692 C 157.963 0.195384 -5.21934 0
M  V30 1693 H 159.657 -0.166329 -2.98938 0
M  V30 1694 H 157.203 -0.0814359 -1.4377 0
M  V30 1695 H 159.156 2.19332 -3.59822 0
M  V30 1696 H 157.88 2.26045 -2.35735 0
M  V30 1697 H 156.539 0.545727 -3.62515 0
M  V30 1698 H 156.187 2.98537 -4.04827 0
M  V30 1699 H 155.887 2.02269 -5.51689 0
M  V30 1700 H 157.411 2.94032 -5.35143 0
M  V30 1701 H 158.825 0.694375 -5.69079 0
M  V30 1702 H 157.222 -0.0335027 -6.00091 0
M  V30 1703 H 158.292 -0.760961 -4.78892 0
M  V30 1704 N 159.635 1.57281 -0.100228 0
M  V30 1705 C 160.865 1.98591 0.569681 0
M  V30 1706 C 161.273 0.978315 1.61943 0
M  V30 1707 O 160.616 -0.0396108 1.83657 0
M  V30 1708 C 160.678 3.36282 1.271 0
M  V30 1709 C 160.342 4.55488 0.371409 0
M  V30 1710 C 161.339 5.18491 -0.382504 0
M  V30 1711 C 159.024 5.01474 0.287965 0
M  V30 1712 C 161.018 6.25852 -1.20779 0
M  V30 1713 C 158.705 6.08701 -0.540965 0
M  V30 1714 C 159.703 6.70755 -1.28749 0
M  V30 1715 O 159.391 7.75914 -2.10269 0
M  V30 1716 H 159.123 0.65752 0.156982 0
M  V30 1717 H 161.677 2.0463 -0.177734 0
M  V30 1718 H 159.907 3.26941 2.0651 0
M  V30 1719 H 161.596 3.62005 1.83595 0
M  V30 1720 H 162.362 4.83891 -0.3278 0
M  V30 1721 H 158.241 4.52932 0.858689 0
M  V30 1722 H 161.785 6.74218 -1.79096 0
M  V30 1723 H 157.682 6.42732 -0.597131 0
M  V30 1724 H 158.45 7.92925 -2.03007 0
M  V30 1725 N 161.113 -0.173488 1.56642 0
M  V30 1726 C 162.063 -1.21941 1.92651 0
M  V30 1727 C 163.047 -1.39912 0.794577 0
M  V30 1728 O 164.239 -1.41919 1.05773 0
M  V30 1729 C 161.368 -2.55935 2.28806 0
M  V30 1730 C 160.454 -2.41667 3.48508 0
M  V30 1731 N 160.845 -1.9711 4.65813 0
M  V30 1732 C 159.143 -2.72499 3.53072 0
M  V30 1733 C 159.844 -1.95253 5.47952 0
M  V30 1734 N 158.82 -2.37575 4.88937 0
M  V30 1735 H 162.622 -0.866581 2.80834 0
M  V30 1736 H 160.136 -0.381776 1.57849 0
M  V30 1737 H 162.133 -3.31511 2.52797 0
M  V30 1738 H 160.793 -2.92022 1.41961 0
M  V30 1739 H 161.804 -1.67481 4.90072 0
M  V30 1740 H 158.481 -3.12639 2.767 0
M  V30 1741 H 159.871 -1.6252 6.51948 0
M  V30 1742 N 162.591 -1.51276 -0.441967 0
M  V30 1743 C 163.554 -1.7167 -1.51862 0
M  V30 1744 C 164.554 -0.586793 -1.49711 0
M  V30 1745 O 165.744 -0.854276 -1.51815 0
M  V30 1746 C 162.876 -1.76889 -2.91416 0
M  V30 1747 H 164.069 -2.67754 -1.35084 0
M  V30 1748 H 161.622 -1.41196 -0.670333 0
M  V30 1749 H 162.357 -0.826026 -3.13604 0
M  V30 1750 H 162.142 -2.59001 -2.94382 0
M  V30 1751 H 163.632 -1.94522 -3.69528 0
M  V30 1752 N 164.069 0.697108 -1.41344 0
M  V30 1753 C 165.317 1.45426 -1.40341 0
M  V30 1754 C 165.638 1.94996 -0.0128787 0
M  V30 1755 O 164.908 1.71599 0.945027 0
M  V30 1756 H 163.488 0.539594 -0.516573 0
M  V30 1757 H 166.15 0.825201 -1.76569 0
M  V30 1758 H 165.246 2.31817 -2.08967 0
M  V30 1759 N 165.547 1.27147 0.931209 0
M  V30 1760 C 166.457 1.11372 2.06478 0
M  V30 1761 C 167.473 0.044645 1.73943 0
M  V30 1762 O 168.649 0.250417 1.99837 0
M  V30 1763 C 165.714 0.758838 3.38294 0
M  V30 1764 C 164.775 1.90841 3.84549 0
M  V30 1765 C 164.008 1.57036 5.10074 0
M  V30 1766 O 164.231 0.476645 5.68405 0
M  V30 1767 O 163.165 2.40839 5.51616 0
M  V30 1768 H 166.991 2.06493 2.22698 0
M  V30 1769 H 164.576 1.06301 1.04978 0
M  V30 1770 H 166.458 0.574098 4.17471 0
M  V30 1771 H 165.133 -0.162879 3.2329 0
M  V30 1772 H 164.04 2.14819 3.06274 0
M  V30 1773 H 165.373 2.81021 4.04089 0
M  V30 1774 N 167.025 -1.13721 1.09112 0
M  V30 1775 C 167.955 -2.21148 0.749385 0
M  V30 1776 C 168.936 -1.6792 -0.271475 0
M  V30 1777 O 170.121 -1.93693 -0.140251 0
M  V30 1778 C 167.251 -3.46905 0.165659 0
M  V30 1779 C 166.205 -4.13203 1.11567 0
M  V30 1780 C 165.531 -5.33248 0.393809 0
M  V30 1781 C 166.831 -4.60912 2.45678 0
M  V30 1782 H 168.525 -2.4999 1.64758 0
M  V30 1783 H 166.071 -1.20156 0.793626 0
M  V30 1784 H 168.024 -4.21313 -0.085466 0
M  V30 1785 H 166.748 -3.17449 -0.767714 0
M  V30 1786 H 165.407 -3.40758 1.35202 0
M  V30 1787 H 165.055 -5.00054 -0.543599 0
M  V30 1788 H 164.755 -5.78552 1.02721 0
M  V30 1789 H 166.279 -6.10413 0.150908 0
M  V30 1790 H 167.693 -5.26759 2.26269 0
M  V30 1791 H 166.09 -5.16944 3.04776 0
M  V30 1792 H 167.16 -3.75603 3.06677 0
M  V30 1793 N 168.503 -0.877838 -1.30888 0
M  V30 1794 C 169.433 -0.35534 -2.3078 0
M  V30 1795 C 170.414 0.557994 -1.60687 0
M  V30 1796 O 171.599 0.473355 -1.88343 0
M  V30 1797 C 168.729 0.437221 -3.44537 0
M  V30 1798 C 167.683 -0.383715 -4.26276 0
M  V30 1799 C 167.009 0.535014 -5.32017 0
M  V30 1800 C 168.309 -1.62201 -4.96476 0
M  V30 1801 H 170.003 -1.19007 -2.74732 0
M  V30 1802 H 167.549 -0.573698 -1.32078 0
M  V30 1803 H 169.502 0.813334 -4.13477 0
M  V30 1804 H 168.226 1.30553 -2.99372 0
M  V30 1805 H 166.885 -0.741874 -3.59015 0
M  V30 1806 H 166.533 1.40083 -4.831 0
M  V30 1807 H 166.233 -0.0104211 -5.87599 0
M  V30 1808 H 167.757 0.907799 -6.03814 0
M  V30 1809 H 169.171 -1.31689 -5.5797 0
M  V30 1810 H 167.568 -2.10711 -5.61891 0
M  V30 1811 H 168.638 -2.37044 -4.23011 0
M  V30 1812 N 169.982 1.44106 -0.638065 0
M  V30 1813 C 170.945 2.29138 0.0531013 0
M  V30 1814 C 171.945 1.41409 0.765506 0
M  V30 1815 O 173.135 1.63206 0.609046 0
M  V30 1816 C 170.267 3.23144 1.08584 0
M  V30 1817 H 171.46 2.91739 -0.694883 0
M  V30 1818 H 169.013 1.51134 -0.398538 0
M  V30 1819 H 169.748 2.65408 1.86357 0
M  V30 1820 H 169.533 3.87804 0.578852 0
M  V30 1821 H 171.023 3.87004 1.56899 0
M  V30 1822 N 171.46 0.379036 1.52974 0
M  V30 1823 C 172.39 -0.452706 2.29069 0
M  V30 1824 C 173.371 -1.07237 1.32039 0
M  V30 1825 O 174.556 -1.08708 1.60923 0
M  V30 1826 C 171.686 -1.5856 3.08992 0
M  V30 1827 C 170.64 -1.0925 4.13822 0
M  V30 1828 C 169.966 -2.31668 4.81907 0
M  V30 1829 C 171.266 -0.167702 5.22031 0
M  V30 1830 H 172.96 0.182181 2.98845 0
M  V30 1831 H 170.506 0.0890592 1.43724 0
M  V30 1832 H 172.459 -2.1742 3.6098 0
M  V30 1833 H 171.183 -2.24792 2.36931 0
M  V30 1834 H 169.842 -0.526494 3.628 0
M  V30 1835 H 169.49 -2.96386 4.06404 0
M  V30 1836 H 169.19 -1.9934 5.52754 0
M  V30 1837 H 170.714 -2.91189 5.36695 0
M  V30 1838 H 172.128 -0.664186 5.6944 0
M  V30 1839 H 170.525 0.0653265 6.00064 0
M  V30 1840 H 171.595 0.786347 4.78482 0
M  V30 1841 N 172.938 -1.57226 0.108567 0
M  V30 1842 C 173.868 -2.17778 -0.84232 0
M  V30 1843 C 174.849 -1.11487 -1.2847 0
M  V30 1844 O 176.034 -1.39681 -1.34918 0
M  V30 1845 C 173.164 -2.76888 -2.09644 0
M  V30 1846 C 172.118 -3.88669 -1.79221 0
M  V30 1847 C 171.444 -4.34541 -3.11574 0
M  V30 1848 C 172.744 -5.11251 -1.06864 0
M  V30 1849 H 174.438 -2.97489 -0.337774 0
M  V30 1850 H 171.984 -1.43097 -0.161025 0
M  V30 1851 H 173.937 -3.17904 -2.76614 0
M  V30 1852 H 172.661 -1.94451 -2.62405 0
M  V30 1853 H 171.32 -3.48213 -1.14644 0
M  V30 1854 H 170.968 -3.48977 -3.62249 0
M  V30 1855 H 170.668 -5.09914 -2.91996 0
M  V30 1856 H 172.192 -4.782 -3.7968 0
M  V30 1857 H 173.606 -5.49352 -1.63968 0
M  V30 1858 H 172.003 -5.9214 -0.974178 0
M  V30 1859 H 173.073 -4.8487 -0.0536168 0
M  V30 1860 N 174.416 0.165178 -1.56732 0
M  V30 1861 C 175.364 1.22369 -1.97809 0
M  V30 1862 C 176.358 1.45488 -0.867741 0
M  V30 1863 O 177.564 1.45995 -1.05288 0
M  V30 1864 H 173.939 0.411486 -0.629431 0
M  V30 1865 H 175.91 0.850425 -2.86025 0
M  V30 1866 C 174.659 2.55403 -2.35934 0
M  V30 1867 H 173.982 2.38438 -3.20916 0
M  V30 1868 H 175.422 3.2814 -2.68514 0
M  V30 1869 C 173.881 3.14611 -1.20506 0
M  V30 1870 O 174.411 3.98626 -0.496016 0
M  V30 1871 N 172.617 2.7379 -0.97403 0
M  V30 1872 H 172.164 2.0557 -1.55238 0
M  V30 1873 H 172.122 3.1374 -0.203573 0
M  V30 1874 N 175.894 1.51508 0.433938 0
M  V30 1875 C 176.842 1.73646 1.54757 0
M  V30 1876 C 177.836 0.602854 1.5831 0
M  V30 1877 O 179.042 0.784318 1.62014 0
M  V30 1878 H 175.417 0.548718 0.51421 0
M  V30 1879 H 177.388 2.66991 1.33261 0
M  V30 1880 C 176.137 1.88172 2.92381 0
M  V30 1881 H 175.46 2.74808 2.90381 0
M  V30 1882 H 176.9 2.07672 3.6966 0
M  V30 1883 C 175.359 0.64239 3.30719 0
M  V30 1884 O 175.889 -0.201362 4.01195 0
M  V30 1885 N 174.095 0.485489 2.86516 0
M  V30 1886 H 173.642 1.17318 2.29334 0
M  V30 1887 H 173.6 -0.342482 3.12529 0
M  V30 1888 N 177.372 -0.689602 1.41712 0
M  V30 1889 C 178.788 -1.00093 1.24312 0
M  V30 1890 C 178.988 -2.01036 0.136729 0
M  V30 1891 O 178.044 -2.47562 -0.496918 0
M  V30 1892 C 179.357 -1.51985 2.59463 0
M  V30 1893 C 180.905 -1.63838 2.66695 0
M  V30 1894 C 181.38 -2.1913 4.02177 0
M  V30 1895 N 182.871 -2.26483 4.04054 0
M  V30 1896 C 183.606 -2.70306 5.0569 0
M  V30 1897 N 183.102 -3.13691 6.17713 0
M  V30 1898 N 184.895 -2.69923 4.9305 0
M  V30 1899 H 177.046 -0.0210029 2.1239 0
M  V30 1900 H 179.309 -0.0718733 0.945272 0
M  V30 1901 H 179.015 -0.85269 3.41207 0
M  V30 1902 H 178.889 -2.50103 2.82362 0
M  V30 1903 H 181.276 -2.29664 1.85306 0
M  V30 1904 H 181.357 -0.642492 2.476 0
M  V30 1905 H 181.001 -1.53918 4.84016 0
M  V30 1906 H 180.931 -3.19482 4.18615 0
M  V30 1907 H 183.422 -1.95874 3.23174 0
M  V30 1908 H 183.735 -3.45773 6.9113 0
M  V30 1909 H 182.08 -3.11585 6.21241 0
M  V30 1910 H 185.271 -2.35382 4.04614 0
M  V30 1911 H 185.444 -3.03758 5.72394 0
M  V30 1912 N 178.85 -1.27639 -0.924453 0
M  V30 1913 C 180.08 -1.16819 -1.70402 0
M  V30 1914 C 180.488 0.277191 -1.87158 0
M  V30 1915 O 179.831 1.20025 -1.39067 0
M  V30 1916 C 179.893 -1.78305 -3.12166 0
M  V30 1917 C 179.557 -3.27502 -3.18734 0
M  V30 1918 C 180.554 -4.2409 -3.00738 0
M  V30 1919 C 178.239 -3.68269 -3.4159 0
M  V30 1920 C 180.233 -5.59422 -3.05492 0
M  V30 1921 C 177.92 -5.0373 -3.45977 0
M  V30 1922 C 178.918 -5.99116 -3.27946 0
M  V30 1923 O 178.606 -7.32108 -3.32074 0
M  V30 1924 H 178.338 -0.406931 -0.539799 0
M  V30 1925 H 180.892 -1.69078 -1.16626 0
M  V30 1926 H 179.122 -1.20528 -3.67437 0
M  V30 1927 H 180.811 -1.62154 -3.72103 0
M  V30 1928 H 181.577 -3.93931 -2.82919 0
M  V30 1929 H 177.456 -2.94496 -3.54673 0
M  V30 1930 H 181 -6.33852 -2.91337 0
M  V30 1931 H 176.897 -5.33543 -3.63321 0
M  V30 1932 H 177.665 -7.40598 -3.48507 0
M  V30 1933 N 180.328 1.1314 -1.09713 0
M  V30 1934 C 181.238 2.22242 -0.751367 0
M  V30 1935 C 182.254 1.72224 0.247938 0
M  V30 1936 O 183.43 2.01205 0.0885463 0
M  V30 1937 C 180.495 3.46231 -0.180274 0
M  V30 1938 C 179.556 4.11125 -1.2359 0
M  V30 1939 C 178.789 5.29195 -0.691966 0
M  V30 1940 O 179.012 5.68342 0.48414 0
M  V30 1941 O 177.946 5.84214 -1.44838 0
M  V30 1942 H 181.772 2.54197 -1.66186 0
M  V30 1943 H 179.357 1.21331 -0.871735 0
M  V30 1944 H 181.239 4.21185 0.134739 0
M  V30 1945 H 179.914 3.1597 0.703185 0
M  V30 1946 H 178.821 3.37985 -1.60366 0
M  V30 1947 H 180.154 4.45524 -2.09211 0
M  V30 1948 N 181.806 0.884767 1.30421 0
M  V30 1949 C 183.055 0.499164 1.95426 0
M  V30 1950 C 183.368 -0.95645 1.70621 0
M  V30 1951 O 184.574 -1.44889 2.29607 0
M  V30 1952 C 183.03 0.84177 3.49917 0
M  V30 1953 C 182.638 2.31514 3.83543 0
M  V30 1954 C 184.382 0.525355 4.21237 0
M  V30 1955 C 182.289 2.59939 5.31212 0
M  V30 1956 H 181.219 0.182944 0.73147 0
M  V30 1957 H 183.87 1.07971 1.48373 0
M  V30 1958 H 182.252 0.190311 3.95542 0
M  V30 1959 H 183.426 3.0109 3.48829 0
M  V30 1960 H 181.741 2.59907 3.25326 0
M  V30 1961 H 184.338 0.714762 5.29901 0
M  V30 1962 H 184.681 -0.535222 4.12845 0
M  V30 1963 H 185.214 1.134 3.81294 0
M  V30 1964 H 181.953 3.64736 5.44654 0
M  V30 1965 H 181.473 1.94972 5.67227 0
M  V30 1966 H 183.152 2.45429 5.98643 0
M  V30 1967 N 183.284 -1.43765 0.645699 0
M  V30 1968 C 184.695 -1.85193 0.236719 0
M  V30 1969 C 185.046 -1.54045 -1.21509 0
M  V30 1970 O 184.171 -0.985694 -1.92647 0
M  V30 1971 C 184.766 -3.36151 0.422845 0
M  V30 1972 C 183.325 -3.76338 0.0682492 0
M  V30 1973 C 182.472 -2.67538 0.729306 0
M  V30 1974 H 185.423 -1.34025 0.849883 0
M  V30 1975 H 185.444 -3.79032 -0.333904 0
M  V30 1976 H 184.956 -3.5879 1.47958 0
M  V30 1977 H 183.057 -3.59312 -0.986179 0
M  V30 1978 H 183.17 -4.76603 0.488469 0
M  V30 1979 H 181.534 -2.54176 0.163235 0
M  V30 1980 H 182.317 -2.93006 1.78892 0
M  V30 1981 N 184.763 -0.387143 -1.52771 0
M  V30 1982 C 186.04 0.253197 -1.93954 0
M  V30 1983 C 186.42 1.64545 -1.32243 0
M  V30 1984 O 185.768 2.23191 -0.489699 0
M  V30 1985 C 185.978 0.281722 -3.47861 0
M  V30 1986 C 187.326 0.511715 -4.21505 0
M  V30 1987 O 188.35 0.362023 -3.54356 0
M  V30 1988 O 187.209 0.804847 -5.40541 0
M  V30 1989 H 184.303 0.156845 -0.811991 0
M  V30 1990 H 186.849 -0.441494 -1.63856 0
M  V30 1991 H 185.621 -0.693571 -3.85104 0
M  V30 1992 H 185.244 1.02142 -3.84256 0
M  V30 1993 N 186.241 1.57166 -0.116904 0
M  V30 1994 C 187.469 1.99473 0.549383 0
M  V30 1995 C 187.884 0.996541 1.60357 0
M  V30 1996 O 187.241 -0.0108731 1.82497 0
M  V30 1997 C 187.292 3.41788 1.17741 0
M  V30 1998 O 187.013 4.37788 0.165362 0
M  V30 1999 C 188.514 3.99216 1.92722 0
M  V30 2000 H 185.734 0.655009 0.145616 0
M  V30 2001 H 188.278 2.03494 -0.202625 0
M  V30 2002 H 186.433 3.38713 1.88021 0
M  V30 2003 H 186.847 5.20806 0.621403 0
M  V30 2004 H 188.321 5.00882 2.31995 0
M  V30 2005 H 188.798 3.3824 2.80161 0
M  V30 2006 H 189.404 4.0583 1.27209 0
M  V30 2007 N 187.719 -0.156864 1.56817 0
M  V30 2008 C 188.651 -1.21883 1.94106 0
M  V30 2009 C 189.664 -1.3971 0.835754 0
M  V30 2010 O 190.853 -1.39457 1.11418 0
M  V30 2011 C 187.953 -2.58527 2.19127 0
M  V30 2012 C 187.126 -2.61809 3.50393 0
M  V30 2013 C 186.185 -3.7992 3.64071 0
M  V30 2014 O 185.211 -3.65249 4.36557 0
M  V30 2015 N 186.413 -4.96973 2.99997 0
M  V30 2016 H 189.178 -0.901974 2.85805 0
M  V30 2017 H 186.739 -0.346513 1.58148 0
M  V30 2018 H 188.731 -3.36034 2.25529 0
M  V30 2019 H 187.301 -2.82545 1.33742 0
M  V30 2020 H 186.521 -1.7029 3.5552 0
M  V30 2021 H 187.809 -2.61024 4.36742 0
M  V30 2022 H 187.207 -5.11794 2.41004 0
M  V30 2023 H 185.764 -5.7229 3.11974 0
M  V30 2024 N 189.197 -1.51736 -0.425897 0
M  V30 2025 C 190.13 -1.68574 -1.53812 0
M  V30 2026 C 191.108 -0.53328 -1.53606 0
M  V30 2027 O 192.292 -0.758555 -1.72564 0
M  V30 2028 C 189.419 -1.70977 -2.92377 0
M  V30 2029 C 188.465 -2.92324 -3.10563 0
M  V30 2030 S 189.298 -4.52952 -2.85648 0
M  V30 2031 C 190.454 -4.58117 -4.26474 0
M  V30 2032 H 190.687 -2.62647 -1.39298 0
M  V30 2033 H 188.22 -1.41564 -0.616361 0
M  V30 2034 H 190.178 -1.73047 -3.72243 0
M  V30 2035 H 188.839 -0.78061 -3.04245 0
M  V30 2036 H 188.032 -2.90439 -4.11899 0
M  V30 2037 H 187.634 -2.88055 -2.38538 0
M  V30 2038 H 189.926 -4.34462 -5.19855 0
M  V30 2039 H 190.869 -5.59983 -4.33388 0
M  V30 2040 H 191.277 -3.8732 -4.10662 0
M  V30 2041 N 190.675 0.682077 -1.42076 0
M  V30 2042 C 191.638 1.77756 -1.44691 0
M  V30 2043 C 192.638 1.5726 -0.335535 0
M  V30 2044 O 193.828 1.63686 -0.596037 0
M  V30 2045 C 190.96 3.16301 -1.27146 0
M  V30 2046 H 192.153 1.76826 -2.42224 0
M  V30 2047 H 189.706 0.891012 -1.28416 0
M  V30 2048 H 190.441 3.22862 -0.305075 0
M  V30 2049 H 190.226 3.32581 -2.07683 0
M  V30 2050 H 191.716 3.96241 -1.31843 0
M  V30 2051 N 192.153 1.28127 0.917671 0
M  V30 2052 C 193.43 1.05761 1.64542 0
M  V30 2053 C 193.81 -0.404344 2.07191 0
M  V30 2054 O 193.158 -1.38963 1.81388 0
M  V30 2055 C 193.368 2.02857 2.83989 0
M  V30 2056 C 194.716 2.32786 3.551 0
M  V30 2057 O 195.74 2.0091 2.94132 0
M  V30 2058 O 194.599 2.87169 4.64969 0
M  V30 2059 H 191.693 0.403916 0.721652 0
M  V30 2060 H 194.239 1.39431 0.967322 0
M  V30 2061 H 193.011 3.01407 2.49538 0
M  V30 2062 H 192.634 1.69809 3.59514 0
M  V30 2063 N 193.631 -1.12557 1.10312 0
M  V30 2064 C 194.541 -2.21841 0.763142 0
M  V30 2065 C 195.557 -1.72354 -0.238801 0
M  V30 2066 O 196.733 -2.01249 -0.0778746 0
M  V30 2067 C 193.798 -3.46131 0.198632 0
M  V30 2068 C 192.859 -4.10464 1.25769 0
M  V30 2069 C 192.092 -5.28821 0.72002 0
M  V30 2070 O 192.315 -5.6859 -0.453993 0
M  V30 2071 O 191.249 -5.83437 1.47935 0
M  V30 2072 H 195.075 -2.53312 1.67532 0
M  V30 2073 H 192.66 -1.20867 0.878157 0
M  V30 2074 H 194.542 -4.2125 -0.112401 0
M  V30 2075 H 193.217 -3.16338 -0.686419 0
M  V30 2076 H 192.124 -3.3713 1.62156 0
M  V30 2077 H 193.457 -4.44408 2.11571 0
M  V30 2078 N 195.109 -0.891671 -1.2995 0
M  V30 2079 C 196.056 -0.361736 -2.27948 0
M  V30 2080 C 197.026 0.551761 -1.56668 0
M  V30 2081 O 198.211 0.478736 -1.84696 0
M  V30 2082 C 195.351 0.411825 -3.42634 0
M  V30 2083 C 194.464 -0.531651 -4.28716 0
M  V30 2084 C 193.599 0.258167 -5.30572 0
M  V30 2085 C 192.638 -0.680349 -6.08307 0
M  V30 2086 N 191.775 0.0745613 -7.0206 0
M  V30 2087 H 196.615 -1.20254 -2.72659 0
M  V30 2088 H 194.152 -0.604352 -1.34112 0
M  V30 2089 H 196.11 0.876304 -4.07893 0
M  V30 2090 H 194.74 1.21715 -2.98974 0
M  V30 2091 H 193.792 -1.11463 -3.63703 0
M  V30 2092 H 195.104 -1.25038 -4.82874 0
M  V30 2093 H 194.258 0.784204 -6.0161 0
M  V30 2094 H 192.997 1.01008 -4.77126 0
M  V30 2095 H 192.002 -1.21796 -5.3614 0
M  V30 2096 H 193.227 -1.43145 -6.63842 0
M  V30 2097 H 191.173 0.808883 -6.50994 0
M  V30 2098 H 191.09 -0.584409 -7.53738 0
M  V30 2099 H 192.358 0.581123 -7.77331 0
M  V30 2100 N 196.587 1.43421 -0.653314 0
M  V30 2101 C 197.519 2.29071 0.0769134 0
M  V30 2102 C 198.532 1.42513 0.787017 0
M  V30 2103 O 199.721 1.66449 0.644757 0
M  V30 2104 C 196.821 3.19436 1.13199 0
M  V30 2105 C 195.994 4.34533 0.500006 0
M  V30 2106 C 195.053 5.05771 1.45198 0
M  V30 2107 O 194.079 5.61037 0.960538 0
M  V30 2108 N 195.281 5.0928 2.78594 0
M  V30 2109 H 198.046 2.92382 -0.658235 0
M  V30 2110 H 195.607 1.54112 -0.496104 0
M  V30 2111 H 197.599 3.63958 1.76964 0
M  V30 2112 H 196.169 2.57724 1.7691 0
M  V30 2113 H 195.389 3.92925 -0.316738 0
M  V30 2114 H 196.677 5.08766 0.0588345 0
M  V30 2115 H 196.075 4.65751 3.2108 0
M  V30 2116 H 194.632 5.57519 3.37662 0
M  V30 2117 N 198.065 0.39524 1.52563 0
M  V30 2118 C 198.995 -0.428384 2.29537 0
M  V30 2119 C 199.976 -1.05831 1.33169 0
M  V30 2120 O 201.161 -1.06995 1.62067 0
M  V30 2121 C 198.291 -1.55274 3.10656 0
M  V30 2122 C 197.245 -1.04855 4.14957 0
M  V30 2123 C 196.571 -2.26543 4.84337 0
M  V30 2124 C 197.871 -0.112324 5.22179 0
M  V30 2125 H 199.565 0.213867 2.98635 0
M  V30 2126 H 197.111 0.104298 1.43622 0
M  V30 2127 H 199.064 -2.1358 3.63265 0
M  V30 2128 H 197.788 -2.22266 2.39302 0
M  V30 2129 H 196.447 -0.487985 3.63338 0
M  V30 2130 H 196.095 -2.92059 4.09525 0
M  V30 2131 H 195.795 -1.93466 5.54837 0
M  V30 2132 H 197.319 -2.85481 5.39753 0
M  V30 2133 H 198.733 -0.603752 5.70112 0
M  V30 2134 H 197.13 0.128968 5.99961 0
M  V30 2135 H 198.2 0.837052 4.77621 0
M  V30 2136 N 199.544 -1.57102 0.125237 0
M  V30 2137 C 200.454 -2.19191 -0.8362 0
M  V30 2138 C 201.47 -1.16985 -1.28805 0
M  V30 2139 O 202.646 -1.49479 -1.34974 0
M  V30 2140 C 199.711 -2.78407 -2.06617 0
M  V30 2141 C 198.772 -3.9567 -1.66565 0
M  V30 2142 C 198.005 -4.52052 -2.83698 0
M  V30 2143 O 198.228 -4.07326 -3.99302 0
M  V30 2144 O 197.162 -5.42645 -2.60423 0
M  V30 2145 H 200.988 -3.01816 -0.337776 0
M  V30 2146 H 198.573 -1.4906 -0.100695 0
M  V30 2147 H 200.455 -3.16129 -2.7864 0
M  V30 2148 H 199.13 -1.9881 -2.55453 0
M  V30 2149 H 198.037 -3.62705 -0.916296 0
M  V30 2150 H 199.37 -4.76722 -1.22464 0
M  V30 2151 N 201.022 0.148545 -1.56898 0
M  V30 2152 C 202.271 0.85984 -1.82454 0
M  V30 2153 C 202.584 1.82406 -0.706229 0
M  V30 2154 O 203.79 2.57938 -0.847349 0
M  V30 2155 C 202.246 1.57967 -3.2338 0
M  V30 2156 C 201.854 0.65794 -4.43142 0
M  V30 2157 C 203.598 2.27784 -3.58211 0
M  V30 2158 C 201.505 1.3793 -5.75091 0
M  V30 2159 H 200.435 0.324834 -0.68044 0
M  V30 2160 H 203.086 0.112588 -1.83154 0
M  V30 2161 H 201.468 2.37249 -3.17063 0
M  V30 2162 H 202.642 -0.0995497 -4.60692 0
M  V30 2163 H 200.957 0.0682643 -4.16344 0
M  V30 2164 H 203.554 2.8239 -4.54048 0
M  V30 2165 H 203.897 3.04204 -2.84193 0
M  V30 2166 H 204.43 1.55421 -3.66182 0
M  V30 2167 H 201.169 0.656982 -6.52199 0
M  V30 2168 H 200.689 2.10954 -5.61479 0
M  V30 2169 H 202.368 1.92063 -6.17835 0
M  V30 2170 N 202.5 1.5196 0.417844 0
M  V30 2171 C 203.43 1.77634 1.51554 0
M  V30 2172 C 204.411 0.626918 1.58126 0
M  V30 2173 O 205.596 0.871632 1.7354 0
M  V30 2174 C 202.726 1.91911 2.8946 0
M  V30 2175 C 201.68 3.07463 2.97743 0
M  V30 2176 C 201.006 3.06951 4.37819 0
M  V30 2177 C 202.306 4.47082 2.70027 0
M  V30 2178 H 204 2.6955 1.3032 0
M  V30 2179 H 201.546 1.29706 0.625492 0
M  V30 2180 H 203.499 2.08455 3.6623 0
M  V30 2181 H 202.223 0.966598 3.11969 0
M  V30 2182 H 200.882 2.90656 2.23416 0
M  V30 2183 H 200.53 2.09438 4.57323 0
M  V30 2184 H 200.23 3.84556 4.44286 0
M  V30 2185 H 201.754 3.25613 5.16535 0
M  V30 2186 H 203.168 4.6414 3.36522 0
M  V30 2187 H 201.565 5.2654 2.87881 0
M  V30 2188 H 202.635 4.55777 1.65514 0
M  V30 2189 N 203.978 -0.674533 1.42435 0
M  V30 2190 C 204.91 -1.80005 1.41883 0
M  V30 2191 C 205.923 -1.59667 0.31787 0
M  V30 2192 O 207.112 -1.68781 0.580973 0
M  V30 2193 C 204.212 -3.17114 1.19549 0
M  V30 2194 C 203.385 -3.64299 2.42084 0
M  V30 2195 C 202.444 -4.80142 2.15291 0
M  V30 2196 O 201.47 -4.90673 2.88493 0
M  V30 2197 N 202.672 -5.68869 1.1562 0
M  V30 2198 H 205.437 -1.80964 2.38898 0
M  V30 2199 H 202.998 -0.857633 1.37318 0
M  V30 2200 H 204.99 -3.92267 0.995417 0
M  V30 2201 H 203.56 -3.11053 0.310569 0
M  V30 2202 H 202.78 -2.79822 2.77657 0
M  V30 2203 H 204.068 -3.92567 3.23679 0
M  V30 2204 H 203.466 -5.63012 0.550765 0
M  V30 2205 H 202.023 -6.43833 1.016 0
M  V30 2206 N 205.456 -1.28612 -0.910864 0
M  V30 2207 C 206.733 -1.06632 -1.63979 0
M  V30 2208 C 207.113 0.393351 -2.07403 0
M  V30 2209 O 206.461 1.37999 -1.82122 0
M  V30 2210 C 206.671 -2.0436 -2.8291 0
M  V30 2211 C 208.019 -2.34666 -3.5386 0
M  V30 2212 O 209.043 -2.02467 -2.93062 0
M  V30 2213 O 207.902 -2.89631 -4.63439 0
M  V30 2214 H 204.996 -0.407737 -0.7195 0
M  V30 2215 H 207.542 -1.39942 -0.959914 0
M  V30 2216 H 206.314 -3.02727 -2.47936 0
M  V30 2217 H 205.937 -1.71714 -3.58609 0
M  V30 2218 N 206.934 1.1197 -1.10907 0
M  V30 2219 C 207.881 2.17846 -0.762345 0
M  V30 2220 C 208.851 1.63995 0.263599 0
M  V30 2221 O 210.036 1.90273 0.141773 0
M  V30 2222 C 207.176 3.44487 -0.205651 0
M  V30 2223 C 206.289 4.12369 -1.28748 0
M  V30 2224 C 205.424 5.26674 -0.691919 0
M  V30 2225 C 204.463 5.86431 -1.75399 0
M  V30 2226 N 203.6 6.92142 -1.17833 0
M  V30 2227 H 208.44 2.46851 -1.6694 0
M  V30 2228 H 205.977 1.21188 -0.833776 0
M  V30 2229 H 207.935 4.16981 0.135037 0
M  V30 2230 H 206.565 3.15884 0.664613 0
M  V30 2231 H 205.617 3.38003 -1.74522 0
M  V30 2232 H 206.929 4.52844 -2.09125 0
M  V30 2233 H 206.083 6.05953 -0.300963 0
M  V30 2234 H 204.822 4.8749 0.143232 0
M  V30 2235 H 203.827 5.05835 -2.15432 0
M  V30 2236 H 205.052 6.27685 -2.59208 0
M  V30 2237 H 202.998 6.54985 -0.364725 0
M  V30 2238 H 202.915 7.31242 -1.91887 0
M  V30 2239 H 204.183 7.75237 -0.81408 0
M  V30 2240 N 208.412 0.89855 1.29475 0
M  V30 2241 C 209.375 0.380272 2.26023 0
M  V30 2242 C 210.375 -0.484891 1.53315 0
M  V30 2243 O 211.565 -0.290108 1.71767 0
M  V30 2244 C 208.697 -0.45651 3.3783 0
M  V30 2245 H 209.89 1.23295 2.73383 0
M  V30 2246 H 207.443 0.676589 1.40897 0
M  V30 2247 H 208.178 -1.32922 2.95808 0
M  V30 2248 H 207.963 0.163393 3.91759 0
M  V30 2249 H 209.453 -0.810466 4.0966 0
M  V30 2250 N 209.89 -1.43072 0.660911 0
M  V30 2251 C 210.838 -2.32569 -0.0378199 0
M  V30 2252 C 211.832 -1.49046 -0.805092 0
M  V30 2253 O 213.038 -1.65206 -0.714624 0
M  V30 2254 H 209.413 -0.75136 -0.031019 0
M  V30 2255 H 211.384 -2.89216 0.734609 0
M  V30 2256 C 210.133 -3.33453 -0.985124 0
M  V30 2257 H 209.456 -3.97752 -0.404147 0
M  V30 2258 H 210.896 -3.98691 -1.44297 0
M  V30 2259 C 209.355 -2.64642 -2.08486 0
M  V30 2260 O 209.885 -2.46776 -3.16961 0
M  V30 2261 N 208.091 -2.23891 -1.8526 0
M  V30 2262 H 207.638 -2.38621 -0.970449 0
M  V30 2263 H 207.596 -1.78181 -2.59034 0
M  V30 2264 N 211.368 -0.403325 -1.52352 0
M  V30 2265 C 212.615 0.174347 -2.01748 0
M  V30 2266 C 212.943 1.45636 -1.2892 0
M  V30 2267 O 212.198 1.9193 -0.382258 0
M  V30 2268 C 212.497 0.474665 -3.54234 0
M  V30 2269 C 212.163 -0.717458 -4.45155 0
M  V30 2270 C 210.825 -1.04447 -4.69728 0
M  V30 2271 C 213.177 -1.51432 -4.98716 0
M  V30 2272 C 210.505 -2.16963 -5.45109 0
M  V30 2273 C 212.857 -2.6302 -5.75329 0
M  V30 2274 C 211.521 -2.96213 -5.98175 0
M  V30 2275 H 210.791 0.0637981 -0.738248 0
M  V30 2276 H 213.438 -0.543553 -1.83624 0
M  V30 2277 H 211.743 1.27406 -3.70506 0
M  V30 2278 H 213.44 0.934496 -3.89959 0
M  V30 2279 H 210.03 -0.452596 -4.26204 0
M  V30 2280 H 214.214 -1.27491 -4.79645 0
M  V30 2281 H 209.47 -2.43034 -5.61021 0
M  V30 2282 H 213.644 -3.25158 -6.15829 0
M  V30 2283 H 211.271 -3.83516 -6.56368 0
M  V30 2284 N 212.846 1.57033 -0.133567 0
M  V30 2285 C 214.262 1.58035 0.222944 0
M  V30 2286 C 214.462 1.14713 1.6566 0
M  V30 2287 O 213.518 0.841218 2.38075 0
M  V30 2288 C 214.831 3.00691 -0.0236116 0
M  V30 2289 C 216.379 3.12973 0.0411512 0
M  V30 2290 C 216.854 4.57654 -0.177899 0
M  V30 2291 N 218.345 4.63033 -0.124365 0
M  V30 2292 C 219.08 5.72771 -0.268553 0
M  V30 2293 N 218.576 6.91206 -0.46972 0
M  V30 2294 N 220.369 5.61718 -0.2071 0
M  V30 2295 H 212.52 1.8349 -1.06981 0
M  V30 2296 H 214.783 0.848677 -0.422436 0
M  V30 2297 H 214.489 3.36726 -1.0153 0
M  V30 2298 H 214.363 3.70614 0.701808 0
M  V30 2299 H 216.75 2.76787 1.02338 0
M  V30 2300 H 216.831 2.45564 -0.716383 0
M  V30 2301 H 216.475 4.94542 -1.15717 0
M  V30 2302 H 216.405 5.23173 0.599797 0
M  V30 2303 H 218.896 3.7789 0.027011 0
M  V30 2304 H 219.209 7.70693 -0.570212 0
M  V30 2305 H 217.554 6.93156 -0.505876 0
M  V30 2306 H 220.745 4.68072 -0.0507986 0
M  V30 2307 H 220.918 6.47195 -0.322909 0
M  V30 2308 N 214.325 -0.140222 1.56975 0
M  V30 2309 C 215.55 -0.870414 1.88251 0
M  V30 2310 C 215.975 -1.73637 0.723312 0
M  V30 2311 O 215.333 -1.78329 -0.32689 0
M  V30 2312 C 215.381 -1.69737 3.18154 0
M  V30 2313 O 214.485 -2.80229 3.02565 0
M  V30 2314 H 213.826 -0.242025 0.61832 0
M  V30 2315 H 216.356 -0.128999 2.04193 0
M  V30 2316 H 216.366 -2.09099 3.50345 0
M  V30 2317 H 215.041 -1.06152 4.02125 0
M  V30 2318 H 213.618 -2.44224 2.81796 0
M  V30 2319 N 215.803 -1.52179 -0.40978 0
M  V30 2320 C 217.05 -1.66206 -1.15679 0
M  V30 2321 C 217.378 -0.391674 -1.90516 0
M  V30 2322 O 216.633 0.62533 -1.8544 0
M  V30 2323 C 216.932 -2.83428 -2.17723 0
M  V30 2324 C 216.598 -4.21672 -1.59699 0
M  V30 2325 C 215.26 -4.59274 -1.43599 0
M  V30 2326 C 217.612 -5.07825 -1.17317 0
M  V30 2327 C 214.94 -5.80709 -0.836328 0
M  V30 2328 C 217.292 -6.29864 -0.587691 0
M  V30 2329 C 215.956 -6.66216 -0.413818 0
M  V30 2330 H 215.226 -0.608192 -0.423301 0
M  V30 2331 H 217.873 -1.86279 -0.444097 0
M  V30 2332 H 216.178 -2.57687 -2.95135 0
M  V30 2333 H 217.875 -2.91477 -2.75394 0
M  V30 2334 H 214.465 -3.9204 -1.73213 0
M  V30 2335 H 218.649 -4.79359 -1.28565 0
M  V30 2336 H 213.905 -6.07498 -0.689626 0
M  V30 2337 H 218.079 -6.95948 -0.250894 0
M  V30 2338 H 215.706 -7.60182 0.0529471 0
M  V30 2339 N 217.281 0.66697 -1.42791 0
M  V30 2340 C 218.228 1.7803 -1.4688 0
M  V30 2341 C 219.198 1.6299 -0.319919 0
M  V30 2342 O 220.383 1.83432 -0.525118 0
M  V30 2343 C 217.523 3.1611 -1.38451 0
M  V30 2344 C 216.636 3.42381 -2.63437 0
M  V30 2345 C 215.771 4.70232 -2.47094 0
M  V30 2346 C 214.81 4.89564 -3.67415 0
M  V30 2347 N 213.947 6.08661 -3.49966 0
M  V30 2348 H 218.787 1.7387 -2.42019 0
M  V30 2349 H 216.324 0.84868 -1.20149 0
M  V30 2350 H 218.282 3.95914 -1.31561 0
M  V30 2351 H 216.912 3.19374 -0.469033 0
M  V30 2352 H 215.964 2.56774 -2.80662 0
M  V30 2353 H 217.276 3.52557 -3.52853 0
M  V30 2354 H 216.43 5.5814 -2.37834 0
M  V30 2355 H 215.169 4.62353 -1.5518 0
M  V30 2356 H 214.174 4.00096 -3.77099 0
M  V30 2357 H 215.399 4.99282 -4.6032 0
M  V30 2358 H 213.345 6.0194 -2.60776 0
M  V30 2359 H 213.262 6.19733 -4.32975 0
M  V30 2360 H 214.53 6.99226 -3.44532 0
M  V30 2361 N 218.759 1.29093 0.90403 0
M  V30 2362 C 220.17 1.15186 1.46932 0
M  V30 2363 C 220.521 -0.254587 1.94541 0
M  V30 2364 O 219.646 -1.14972 1.83332 0
M  V30 2365 C 220.241 2.08492 2.67051 0
M  V30 2366 C 218.8 1.98621 3.19729 0
M  V30 2367 C 217.947 1.9967 1.92425 0
M  V30 2368 H 220.898 1.41641 0.715789 0
M  V30 2369 H 220.919 1.65461 3.42641 0
M  V30 2370 H 220.431 3.10847 2.3237 0
M  V30 2371 H 218.532 0.993389 3.59114 0
M  V30 2372 H 218.645 2.86068 3.8432 0
M  V30 2373 H 217.009 1.44208 2.09943 0
M  V30 2374 H 217.792 3.03721 1.60026 0
M  V30 2375 N 220.237 -1.11381 1.11499 0
M  V30 2376 C 221.184 -2.17439 0.773887 0
M  V30 2377 C 222.154 -1.64132 -0.254899 0
M  V30 2378 O 223.339 -1.90345 -0.13168 0
M  V30 2379 C 220.479 -3.44373 0.223917 0
M  V30 2380 C 219.592 -4.1168 1.30934 0
M  V30 2381 C 218.727 -5.263 0.71984 0
M  V30 2382 C 217.766 -5.85493 1.78507 0
M  V30 2383 N 216.903 -6.91507 1.21502 0
M  V30 2384 H 221.743 -2.45962 1.68246 0
M  V30 2385 H 219.28 -1.20744 0.840191 0
M  V30 2386 H 221.238 -4.17047 -0.112921 0
M  V30 2387 H 219.868 -3.16232 -0.647851 0
M  V30 2388 H 218.92 -3.37073 1.76312 0
M  V30 2389 H 220.232 -4.51729 2.11524 0
M  V30 2390 H 219.386 -6.05785 0.333094 0
M  V30 2391 H 218.125 -4.87559 -0.117377 0
M  V30 2392 H 217.13 -5.04686 2.18111 0
M  V30 2393 H 218.355 -6.26301 2.62533 0
M  V30 2394 H 216.301 -6.54783 0.399455 0
M  V30 2395 H 216.218 -7.30214 1.95763 0
M  V30 2396 H 217.486 -7.74795 0.855181 0
M  V30 2397 N 221.715 -0.905404 -1.28997 0
M  V30 2398 C 223.126 -0.581953 -1.77398 0
M  V30 2399 C 223.477 0.902552 -1.74208 0
M  V30 2400 O 222.602 1.70584 -1.33154 0
M  V30 2401 C 223.197 -1.04961 -3.22131 0
M  V30 2402 C 221.756 -0.777229 -3.68288 0
M  V30 2403 C 220.903 -1.22109 -2.48967 0
M  V30 2404 H 223.854 -1.08754 -1.15578 0
M  V30 2405 H 223.875 -0.387387 -3.78523 0
M  V30 2406 H 223.387 -2.13008 -3.24421 0
M  V30 2407 H 221.488 0.290383 -3.71467 0
M  V30 2408 H 221.601 -1.37911 -4.58822 0
M  V30 2409 H 219.965 -0.639971 -2.46529 0
M  V30 2410 H 220.748 -2.30972 -2.53982 0
M  V30 2411 N 223.193 1.4272 -0.668489 0
M  V30 2412 C 224.44 2.01624 -0.18814 0
M  V30 2413 C 224.768 1.5282 1.20317 0
M  V30 2414 O 224.023 0.718323 1.8204 0
M  V30 2415 C 224.322 3.57021 -0.164499 0
M  V30 2416 C 223.988 4.25232 -1.49962 0
M  V30 2417 C 222.65 4.4358 -1.8652 0
M  V30 2418 C 225.002 4.63727 -2.37921 0
M  V30 2419 C 222.33 4.97694 -3.10674 0
M  V30 2420 C 224.682 5.19218 -3.6138 0
M  V30 2421 C 223.346 5.3578 -3.98115 0
M  V30 2422 H 222.616 0.737795 -0.0688454 0
M  V30 2423 H 225.263 1.70991 -0.862225 0
M  V30 2424 H 223.568 3.87285 0.593079 0
M  V30 2425 H 225.265 4.00372 0.224271 0
M  V30 2426 H 221.855 4.11306 -1.20522 0
M  V30 2427 H 226.039 4.4923 -2.10964 0
M  V30 2428 H 221.295 5.08702 -3.39164 0
M  V30 2429 H 225.469 5.4799 -4.29743 0
M  V30 2430 H 223.096 5.77475 -4.94395 0
M  V30 2431 N 224.671 0.411399 1.52136 0
M  V30 2432 C 225.619 -0.427633 2.28635 0
M  V30 2433 C 226.613 -1.04383 1.33419 0
M  V30 2434 O 227.819 -0.981772 1.50868 0
M  V30 2435 H 224.194 -0.156689 0.735495 0
M  V30 2436 H 226.165 0.238761 2.97443 0
M  V30 2437 C 224.914 -1.53082 3.12188 0
M  V30 2438 H 224.237 -1.06601 3.85326 0
M  V30 2439 H 225.677 -2.09167 3.68816 0
M  V30 2440 C 224.136 -2.49946 2.25895 0
M  V30 2441 O 224.666 -3.53884 1.90076 0
M  V30 2442 N 222.872 -2.2021 1.8962 0
M  V30 2443 H 222.419 -1.35719 2.18948 0
M  V30 2444 H 222.377 -2.85266 1.32176 0
M  V30 2445 N 226.149 -1.5696 0.141893 0
M  V30 2446 C 227.082 -2.12271 -0.837627 0
M  V30 2447 C 228.06 -1.04495 -1.24578 0
M  V30 2448 O 229.244 -1.32293 -1.34278 0
M  V30 2449 C 226.371 -2.63822 -2.12404 0
M  V30 2450 C 225.417 -3.83698 -1.86221 0
M  V30 2451 S 226.25 -5.24948 -1.05781 0
M  V30 2452 C 227.406 -5.79884 -2.35552 0
M  V30 2453 H 227.639 -2.95023 -0.367249 0
M  V30 2454 H 225.172 -1.54231 -0.0723014 0
M  V30 2455 H 227.13 -2.94175 -2.86307 0
M  V30 2456 H 225.791 -1.8121 -2.56557 0
M  V30 2457 H 224.984 -4.17995 -2.81596 0
M  V30 2458 H 224.586 -3.5408 -1.20429 0
M  V30 2459 H 226.878 -5.91005 -3.31239 0
M  V30 2460 H 227.821 -6.77544 -2.05767 0
M  V30 2461 H 228.229 -5.08095 -2.45967 0
M  V30 2462 N 227.627 0.131896 -1.57047 0
M  V30 2463 C 229.043 0.485031 -1.52051 0
M  V30 2464 C 229.243 1.82563 -0.85281 0
M  V30 2465 O 228.299 2.48817 -0.429694 0
M  V30 2466 C 229.612 0.481409 -2.96821 0
M  V30 2467 C 231.16 0.565868 -3.07842 0
M  V30 2468 C 231.635 0.592762 -4.54148 0
M  V30 2469 N 233.126 0.654564 -4.58552 0
M  V30 2470 C 233.861 0.696608 -5.69153 0
M  V30 2471 N 233.357 0.697078 -6.89284 0
M  V30 2472 N 235.15 0.738639 -5.57226 0
M  V30 2473 H 227.301 -0.746664 -1.98843 0
M  V30 2474 H 229.564 -0.273999 -0.90754 0
M  V30 2475 H 229.27 -0.435731 -3.4899 0
M  V30 2476 H 229.144 1.3139 -3.53577 0
M  V30 2477 H 231.531 1.47343 -2.55684 0
M  V30 2478 H 231.612 -0.29406 -2.54104 0
M  V30 2479 H 231.256 -0.310701 -5.06949 0
M  V30 2480 H 231.186 1.46939 -5.05684 0
M  V30 2481 H 233.677 0.660887 -3.72076 0
M  V30 2482 H 233.99 0.731426 -7.69331 0
M  V30 2483 H 232.335 0.66471 -6.91814 0
M  V30 2484 H 235.526 0.735545 -4.62285 0
M  V30 2485 H 235.699 0.767938 -6.43434 0
M  V30 2486 N 229.106 1.52395 0.401703 0
M  V30 2487 C 230.016 1.7917 1.51444 0
M  V30 2488 C 231.032 0.677691 1.6026 0
M  V30 2489 O 232.208 0.963909 1.76835 0
M  V30 2490 C 229.273 1.94347 2.87107 0
M  V30 2491 C 228.334 3.18257 2.88116 0
M  V30 2492 C 227.567 3.32701 4.17308 0
M  V30 2493 O 227.79 2.52238 5.11598 0
M  V30 2494 O 226.724 4.25891 4.25324 0
M  V30 2495 H 230.55 2.73633 1.31752 0
M  V30 2496 H 228.135 1.3733 0.588296 0
M  V30 2497 H 230.017 2.06109 3.67555 0
M  V30 2498 H 228.692 1.03073 3.06851 0
M  V30 2499 H 227.599 3.11947 2.06494 0
M  V30 2500 H 228.932 4.09336 2.73322 0
M  V30 2501 N 230.584 -0.659388 1.43143 0
M  V30 2502 C 231.831 -1.41935 1.44433 0
M  V30 2503 C 232.159 -1.94387 0.0663522 0
M  V30 2504 O 231.414 -1.72314 -0.927706 0
M  V30 2505 C 231.713 -2.62206 2.42864 0
M  V30 2506 C 231.379 -2.28208 3.88886 0
M  V30 2507 C 230.041 -2.18647 4.28657 0
M  V30 2508 C 232.393 -2.00887 4.8093 0
M  V30 2509 C 229.721 -1.79914 5.58433 0
M  V30 2510 C 232.073 -1.63653 6.11065 0
M  V30 2511 C 230.737 -1.52614 6.49819 0
M  V30 2512 H 230.007 -0.519376 0.528517 0
M  V30 2513 H 232.654 -0.750453 1.76183 0
M  V30 2514 H 230.959 -3.34199 2.04495 0
M  V30 2515 H 232.656 -3.2041 2.41119 0
M  V30 2516 H 229.246 -2.36557 3.57406 0
M  V30 2517 H 233.43 -2.07198 4.5098 0
M  V30 2518 H 228.686 -1.69948 5.87305 0
M  V30 2519 H 232.86 -1.41543 6.81864 0
M  V30 2520 H 230.487 -1.22371 7.50286 0
M  V30 2521 N 232.062 -1.29571 -0.897171 0
M  V30 2522 C 233.292 -1.20408 -1.67886 0
M  V30 2523 C 233.7 0.237429 -1.87704 0
M  V30 2524 O 233.043 1.17048 -1.41582 0
M  V30 2525 C 233.105 -1.84887 -3.08314 0
M  V30 2526 C 232.769 -3.34189 -3.11716 0
M  V30 2527 C 233.766 -4.30374 -2.91675 0
M  V30 2528 C 231.451 -3.75431 -3.33701 0
M  V30 2529 C 233.445 -5.65776 -2.93557 0
M  V30 2530 C 231.132 -5.10955 -3.35214 0
M  V30 2531 C 232.13 -6.05938 -3.15164 0
M  V30 2532 O 231.818 -7.38987 -3.1647 0
M  V30 2533 H 231.55 -0.418289 -0.531046 0
M  V30 2534 H 234.104 -1.71514 -1.13014 0
M  V30 2535 H 232.334 -1.28295 -3.64798 0
M  V30 2536 H 234.023 -1.70011 -3.6858 0
M  V30 2537 H 234.789 -3.99844 -2.74499 0
M  V30 2538 H 230.668 -3.01953 -3.48347 0
M  V30 2539 H 234.212 -6.39889 -2.77826 0
M  V30 2540 H 230.109 -5.4113 -3.51922 0
M  V30 2541 H 230.877 -7.47823 -3.3272 0
M  V30 2542 N 233.54 1.10788 -1.12088 0
M  V30 2543 C 234.817 1.79136 -0.785476 0
M  V30 2544 C 235.197 1.98246 0.725377 0
M  V30 2545 O 234.545 1.57258 1.65778 0
M  V30 2546 C 234.755 3.12375 -1.55636 0
M  V30 2547 C 236.103 3.8731 -1.74001 0
M  V30 2548 O 237.127 3.22085 -1.52117 0
M  V30 2549 O 235.986 5.04369 -2.10415 0
M  V30 2550 H 233.08 0.776226 -0.285311 0
M  V30 2551 H 235.626 1.1747 -1.2247 0
M  V30 2552 H 234.398 2.93863 -2.5838 0
M  V30 2553 H 234.021 3.81758 -1.11114 0
M  V30 2554 N 235.018 0.912232 1.28515 0
M  V30 2555 C 236.434 0.610159 1.47476 0
M  V30 2556 C 236.634 -0.844955 1.82928 0
M  V30 2557 O 235.69 -1.62416 1.93332 0
M  V30 2558 C 237.003 1.54675 2.57868 0
M  V30 2559 C 238.551 1.55331 2.71738 0
M  V30 2560 C 239.026 2.47649 3.85272 0
M  V30 2561 N 240.517 2.45767 3.92623 0
M  V30 2562 C 241.252 3.13896 4.79851 0
M  V30 2563 N 240.748 3.9135 5.71679 0
M  V30 2564 N 242.541 3.02991 4.73448 0
M  V30 2565 H 234.692 1.85318 1.03783 0
M  V30 2566 H 236.955 0.794777 0.516753 0
M  V30 2567 H 236.661 2.5841 2.38574 0
M  V30 2568 H 236.535 1.27671 3.54937 0
M  V30 2569 H 238.922 0.52335 2.90422 0
M  V30 2570 H 239.003 1.86378 1.75205 0
M  V30 2571 H 238.647 3.50745 3.67342 0
M  V30 2572 H 238.577 2.13904 4.81199 0
M  V30 2573 H 241.068 1.89503 3.26951 0
M  V30 2574 H 241.381 4.40359 6.35062 0
M  V30 2575 H 239.726 3.95455 5.71524 0
M  V30 2576 H 242.917 2.41987 4.007 0
M  V30 2577 H 243.09 3.5636 5.41213 0
M  V30 2578 N 236.496 -1.42363 0.676048 0
M  V30 2579 C 237.459 -2.29199 0.00766941 0
M  V30 2580 C 238.459 -1.43389 -0.727745 0
M  V30 2581 O 239.649 -1.64764 -0.56556 0
M  V30 2582 C 236.781 -3.2591 -0.999785 0
M  V30 2583 H 237.974 -2.89794 0.771988 0
M  V30 2584 H 235.527 -1.50024 0.438468 0
M  V30 2585 H 236.262 -2.70256 -1.79255 0
M  V30 2586 H 236.047 -3.89202 -0.475829 0
M  V30 2587 H 237.537 -3.91028 -1.46583 0
M  V30 2588 N 237.974 -0.419461 -1.51915 0
M  V30 2589 C 239.222 0.152637 -2.01523 0
M  V30 2590 C 239.543 1.44762 -1.30649 0
M  V30 2591 O 238.813 1.90997 -0.435535 0
M  V30 2592 H 237.393 0.0593966 -0.744635 0
M  V30 2593 H 240.055 -0.558073 -1.86739 0
M  V30 2594 H 239.151 0.341369 -3.10227 0
M  V30 2595 N 239.452 1.56882 -0.150215 0
M  V30 2596 C 240.402 2.13501 0.800071 0
M  V30 2597 C 241.386 1.06368 1.20726 0
M  V30 2598 O 242.578 1.32538 1.17314 0
M  V30 2599 C 239.707 2.76271 2.03787 0
M  V30 2600 C 238.793 3.90533 1.65364 0
M  V30 2601 N 239.184 4.96259 0.977794 0
M  V30 2602 C 237.482 4.013 1.94613 0
M  V30 2603 C 238.183 5.76286 0.791794 0
M  V30 2604 N 237.159 5.27163 1.32666 0
M  V30 2605 H 240.961 2.92615 0.274517 0
M  V30 2606 H 238.475 1.62319 0.0512144 0
M  V30 2607 H 240.472 3.15197 2.72867 0
M  V30 2608 H 239.132 1.98631 2.56857 0
M  V30 2609 H 240.143 5.13953 0.638193 0
M  V30 2610 H 236.82 3.3474 2.4951 0
M  V30 2611 H 238.21 6.71401 0.258894 0
M  V30 2612 N 240.93 -0.123565 1.57115 0
M  V30 2613 C 242.207 -0.862196 1.75572 0
M  V30 2614 C 242.587 -1.98279 0.724475 0
M  V30 2615 O 241.935 -2.27102 -0.252407 0
M  V30 2616 C 242.145 -1.38309 3.20424 0
M  V30 2617 C 243.493 -1.83724 3.82793 0
M  V30 2618 O 244.517 -1.47999 3.23998 0
M  V30 2619 O 243.376 -2.49685 4.86127 0
M  V30 2620 H 240.47 -0.409113 0.718718 0
M  V30 2621 H 243.016 -0.107661 1.69358 0
M  V30 2622 H 241.788 -0.578889 3.86994 0
M  V30 2623 H 241.411 -2.20046 3.31158 0
M  V30 2624 N 242.408 -1.52605 -0.393616 0
M  V30 2625 C 243.657 -1.66649 -1.13627 0
M  V30 2626 C 243.97 -0.410364 -1.91247 0
M  V30 2627 O 245.176 -0.430854 -2.68059 0
M  V30 2628 C 243.632 -2.9449 -2.06891 0
M  V30 2629 C 243.24 -4.27266 -1.34714 0
M  V30 2630 C 244.984 -3.17899 -2.81319 0
M  V30 2631 C 242.891 -5.46217 -2.26717 0
M  V30 2632 H 241.821 -0.62084 -0.427871 0
M  V30 2633 H 244.472 -1.791 -0.399428 0
M  V30 2634 H 242.854 -2.75774 -2.84191 0
M  V30 2635 H 244.028 -4.56518 -0.626714 0
M  V30 2636 H 242.343 -4.10081 -0.722643 0
M  V30 2637 H 244.94 -4.03949 -3.50328 0
M  V30 2638 H 245.283 -2.32777 -3.45139 0
M  V30 2639 H 245.816 -3.37159 -2.11113 0
M  V30 2640 H 242.555 -6.33733 -1.67521 0
M  V30 2641 H 242.075 -5.21283 -2.96689 0
M  V30 2642 H 243.754 -5.7991 -2.86903 0
M  V30 2643 N 243.887 0.651787 -1.4349 0
M  V30 2644 C 245.303 0.96762 -1.26922 0
M  V30 2645 C 245.503 2.00602 -0.189982 0
M  V30 2646 O 244.559 2.48793 0.431107 0
M  V30 2647 C 245.872 1.45052 -2.63401 0
M  V30 2648 C 247.42 1.5671 -2.70945 0
M  V30 2649 C 247.895 2.0839 -4.07845 0
M  V30 2650 N 249.386 2.1569 -4.09917 0
M  V30 2651 C 250.121 2.56804 -5.12679 0
M  V30 2652 N 249.617 2.97203 -6.25813 0
M  V30 2653 N 251.41 2.56756 -5.00033 0
M  V30 2654 H 243.561 -0.0353158 -2.12371 0
M  V30 2655 H 245.824 0.0467858 -0.946845 0
M  V30 2656 H 245.53 0.761926 -3.43348 0
M  V30 2657 H 245.404 2.42529 -2.88894 0
M  V30 2658 H 247.791 2.2467 -1.9133 0
M  V30 2659 H 247.872 0.57662 -2.49216 0
M  V30 2660 H 247.516 1.41031 -4.87927 0
M  V30 2661 H 247.446 3.08271 -4.26938 0
M  V30 2662 H 249.937 1.87237 -3.28254 0
M  V30 2663 H 250.25 3.27328 -7.00055 0
M  V30 2664 H 248.595 2.95004 -6.29283 0
M  V30 2665 H 251.786 2.24572 -4.10713 0
M  V30 2666 H 251.959 2.88475 -5.80247 0
M  V30 2667 N 245.365 1.30045 0.890287 0
M  V30 2668 C 246.642 1.09227 1.62262 0
M  V30 2669 C 247.022 -0.360305 2.08002 0
M  V30 2670 O 246.37 -1.35084 1.84295 0
M  V30 2671 C 246.58 2.08835 2.79623 0
M  V30 2672 C 247.928 2.40266 3.50082 0
M  V30 2673 O 248.952 2.07104 2.89804 0
M  V30 2674 O 247.811 2.96967 4.58773 0
M  V30 2675 H 244.905 0.419132 0.712922 0
M  V30 2676 H 247.451 1.41451 0.937529 0
M  V30 2677 H 246.223 3.06633 2.43089 0
M  V30 2678 H 245.846 1.77397 3.55832 0
M  V30 2679 N 246.843 -1.10192 1.12674 0
M  V30 2680 C 247.776 -2.15847 0.740625 0
M  V30 2681 C 248.754 -1.60352 -0.269421 0
M  V30 2682 O 249.938 -1.87796 -0.16278 0
M  V30 2683 C 247.065 -3.38562 0.096641 0
M  V30 2684 C 246.111 -4.12758 1.07391 0
M  V30 2685 S 246.944 -4.67997 2.60267 0
M  V30 2686 C 248.1 -5.94021 1.97206 0
M  V30 2687 H 248.333 -2.48266 1.63558 0
M  V30 2688 H 245.866 -1.22019 0.946087 0
M  V30 2689 H 247.824 -4.09621 -0.268535 0
M  V30 2690 H 246.485 -3.04377 -0.775462 0
M  V30 2691 H 245.678 -5.00755 0.570997 0
M  V30 2692 H 245.28 -3.47523 1.38216 0
M  V30 2693 H 247.572 -6.64589 1.31634 0
M  V30 2694 H 248.515 -6.48979 2.83253 0
M  V30 2695 H 248.923 -5.46169 1.42686 0
M  V30 2696 N 248.321 -0.919034 -1.28029 0
M  V30 2697 C 249.251 -0.428581 -2.29533 0
M  V30 2698 C 250.232 0.50659 -1.62381 0
M  V30 2699 O 251.417 0.413195 -1.89753 0
M  V30 2700 C 248.547 0.327388 -3.45753 0
M  V30 2701 C 247.501 -0.519137 -4.2484 0
M  V30 2702 C 246.827 0.365486 -5.33449 0
M  V30 2703 C 248.127 -1.77914 -4.91064 0
M  V30 2704 H 249.821 -1.27687 -2.70807 0
M  V30 2705 H 247.367 -0.615428 -1.30186 0
M  V30 2706 H 249.32 0.681378 -4.15855 0
M  V30 2707 H 248.044 1.20963 -3.03374 0
M  V30 2708 H 246.703 -0.855717 -3.56473 0
M  V30 2709 H 246.351 1.24642 -4.87312 0
M  V30 2710 H 246.051 -0.197356 -5.87268 0
M  V30 2711 H 247.575 0.715241 -6.06396 0
M  V30 2712 H 248.989 -1.49374 -5.53498 0
M  V30 2713 H 247.386 -2.2848 -5.54903 0
M  V30 2714 H 248.456 -2.50382 -4.15255 0
M  V30 2715 N 249.799 1.42003 -0.683588 0
M  V30 2716 C 250.729 2.33487 -0.024866 0
M  V30 2717 C 251.71 1.51163 0.779975 0
M  V30 2718 O 252.895 1.79739 0.735362 0
M  V30 2719 C 250.025 3.3487 0.920836 0
M  V30 2720 C 248.979 4.27414 0.223958 0
M  V30 2721 C 248.305 5.19074 1.2832 0
M  V30 2722 C 249.605 5.14445 -0.90242 0
M  V30 2723 H 251.299 2.88819 -0.788921 0
M  V30 2724 H 248.845 1.38873 -0.38083 0
M  V30 2725 H 250.798 3.97787 1.39081 0
M  V30 2726 H 249.522 2.77861 1.71642 0
M  V30 2727 H 248.181 3.65904 -0.225864 0
M  V30 2728 H 247.829 4.58387 2.071 0
M  V30 2729 H 247.529 5.81822 0.821995 0
M  V30 2730 H 249.053 5.84867 1.75392 0
M  V30 2731 H 250.467 5.70998 -0.513272 0
M  V30 2732 H 248.864 5.86072 -1.28997 0
M  V30 2733 H 249.934 4.52322 -1.74737 0
M  V30 2734 N 251.277 0.427512 1.51691 0
M  V30 2735 C 252.502 -0.143601 2.06902 0
M  V30 2736 C 252.927 -1.36536 1.29382 0
M  V30 2737 O 252.285 -1.78289 0.329043 0
M  V30 2738 C 252.333 -0.454207 3.57728 0
M  V30 2739 O 251.437 -1.54228 3.82475 0
M  V30 2740 H 250.778 -0.00617128 0.663971 0
M  V30 2741 H 253.308 0.606014 1.95419 0
M  V30 2742 H 253.318 -0.707525 4.01818 0
M  V30 2743 H 251.993 0.438812 4.13579 0
M  V30 2744 H 250.57 -1.2797 3.50254 0
M  V30 2745 N 252.755 -1.56801 0.158532 0
M  V30 2746 C 253.995 -1.98383 -0.49229 0
M  V30 2747 C 254.359 -1.04184 -1.61275 0
M  V30 2748 O 255.56 -1.34856 -2.32524 0
M  V30 2749 C 253.831 -3.4385 -0.974766 0
M  V30 2750 S 255.39 -4.07459 -1.62857 0
M  V30 2751 H 252.208 -0.693041 -0.158794 0
M  V30 2752 H 254.81 -1.93856 0.252974 0
M  V30 2753 H 253.514 -4.10131 -0.148688 0
M  V30 2754 H 253.045 -3.52115 -1.75438 0
M  V30 2755 H 255.06 -4.01458 -2.91627 0
M  V30 2756 N 254.233 0.115231 -1.57178 0
M  V30 2757 C 255.183 1.14707 -1.97044 0
M  V30 2758 C 256.167 1.36866 -0.845957 0
M  V30 2759 O 257.359 1.37895 -1.10968 0
M  V30 2760 C 254.488 2.47266 -2.38148 0
M  V30 2761 C 253.574 2.28566 -3.57237 0
M  V30 2762 N 253.965 1.79685 -4.72807 0
M  V30 2763 C 252.263 2.59208 -3.62943 0
M  V30 2764 C 252.964 1.74781 -5.54821 0
M  V30 2765 N 251.94 2.19264 -4.97417 0
M  V30 2766 H 255.742 0.761754 -2.83857 0
M  V30 2767 H 253.256 0.322928 -1.59157 0
M  V30 2768 H 255.253 3.219 -2.64927 0
M  V30 2769 H 253.913 2.86552 -1.52702 0
M  V30 2770 H 254.924 1.49177 -4.9595 0
M  V30 2771 H 251.601 3.02154 -2.88113 0
M  V30 2772 H 252.991 1.38212 -6.57531 0
M  V30 2773 N 255.711 1.52812 0.385517 0
M  V30 2774 C 256.958 1.68026 1.1302 0
M  V30 2775 C 257.286 0.421934 1.89868 0
M  V30 2776 O 256.541 -0.595749 1.86412 0
M  V30 2777 C 256.84 2.86856 2.13187 0
M  V30 2778 C 256.506 4.24159 1.5297 0
M  V30 2779 C 255.168 4.61501 1.36274 0
M  V30 2780 C 257.52 5.09627 1.09223 0
M  V30 2781 C 254.848 5.81966 0.743837 0
M  V30 2782 C 257.2 6.30719 0.487411 0
M  V30 2783 C 255.864 6.6679 0.307777 0
M  V30 2784 H 255.134 0.614849 0.413571 0
M  V30 2785 H 257.781 1.86962 0.414405 0
M  V30 2786 H 256.086 2.6235 2.90998 0
M  V30 2787 H 257.783 2.95821 2.70722 0
M  V30 2788 H 254.373 3.94746 1.66954 0
M  V30 2789 H 258.557 4.81343 1.20922 0
M  V30 2790 H 253.813 6.08519 0.592891 0
M  V30 2791 H 257.987 6.96259 0.140143 0
M  V30 2792 H 255.614 7.60001 -0.173879 0
M  V30 2793 N 257.189 -0.644168 1.43834 0
M  V30 2794 C 258.605 -0.960875 1.27434 0
M  V30 2795 C 258.805 -2.00499 0.200618 0
M  V30 2796 O 257.861 -2.49018 -0.417906 0
M  V30 2797 C 259.174 -1.43653 2.64167 0
M  V30 2798 C 260.722 -1.55271 2.71772 0
M  V30 2799 C 261.197 -2.06224 4.08944 0
M  V30 2800 N 262.688 -2.13513 4.11055 0
M  V30 2801 C 263.423 -2.54081 5.14033 0
M  V30 2802 N 262.919 -2.9388 6.27381 0
M  V30 2803 N 264.712 -2.54101 5.01387 0
M  V30 2804 H 256.863 0.0465779 2.12349 0
M  V30 2805 H 259.126 -0.0417638 0.94708 0
M  V30 2806 H 258.832 -0.743706 3.43747 0
M  V30 2807 H 258.706 -2.40993 2.90176 0
M  V30 2808 H 261.093 -2.23653 1.92519 0
M  V30 2809 H 261.174 -0.563395 2.49519 0
M  V30 2810 H 260.818 -1.38441 4.88668 0
M  V30 2811 H 260.748 -3.06003 4.28567 0
M  V30 2812 H 263.239 -1.85493 3.29242 0
M  V30 2813 H 263.552 -3.2361 7.01781 0
M  V30 2814 H 261.897 -2.91663 6.30839 0
M  V30 2815 H 265.088 -2.22391 4.11898 0
M  V30 2816 H 265.261 -2.85394 5.81768 0
M  V30 2817 N 258.668 -1.30515 -0.883378 0
M  V30 2818 C 259.916 -1.19194 -1.63209 0
M  V30 2819 C 260.237 0.253205 -1.93349 0
M  V30 2820 O 259.507 1.17025 -1.57105 0
M  V30 2821 H 258.087 -0.438148 -0.605009 0
M  V30 2822 H 260.749 -1.63663 -1.05832 0
M  V30 2823 H 259.845 -1.75396 -2.58153 0
M  V30 2824 N 260.146 1.09593 -1.13257 0
M  V30 2825 C 261.056 2.19739 -0.821691 0
M  V30 2826 C 262.072 1.72926 0.19302 0
M  V30 2827 O 263.248 2.01385 0.0244895 0
M  V30 2828 C 260.313 3.45482 -0.290333 0
M  V30 2829 C 259.374 4.06985 -1.36607 0
M  V30 2830 C 258.607 5.26726 -0.859975 0
M  V30 2831 O 258.83 5.69594 0.303082 0
M  V30 2832 O 257.764 5.7931 -1.63351 0
M  V30 2833 H 261.59 2.48781 -1.74189 0
M  V30 2834 H 259.175 1.18496 -0.909894 0
M  V30 2835 H 261.057 4.214 0.000674022 0
M  V30 2836 H 259.732 3.18047 0.602306 0
M  V30 2837 H 258.639 3.32712 -1.71037 0
M  V30 2838 H 259.972 4.38643 -2.23279 0
M  V30 2839 N 261.624 0.925811 1.2754 0
M  V30 2840 C 262.87 0.566092 1.94739 0
M  V30 2841 C 263.203 -0.890057 1.72603 0
M  V30 2842 O 262.478 -1.63467 1.05399 0
M  V30 2843 C 262.761 0.89054 3.48915 0
M  V30 2844 C 262.614 2.4003 3.80402 0
M  V30 2845 C 263.933 0.395101 4.38323 0
M  V30 2846 H 261.052 0.20714 0.707292 0
M  V30 2847 H 263.694 1.15725 1.50691 0
M  V30 2848 H 261.844 0.387452 3.86563 0
M  V30 2849 H 263.516 2.97494 3.52555 0
M  V30 2850 H 261.759 2.85028 3.2702 0
M  V30 2851 H 262.43 2.57785 4.8811 0
M  V30 2852 H 264.906 0.826241 4.07814 0
M  V30 2853 H 263.782 0.651086 5.45025 0
M  V30 2854 H 264.043 -0.704798 4.36446 0
M  V30 2855 N 263.102 -1.41638 0.69111 0
M  V30 2856 C 264.342 -2.03166 0.224291 0
M  V30 2857 C 264.706 -1.53537 -1.15284 0
M  V30 2858 O 265.907 -2.0696 -1.71525 0
M  V30 2859 C 264.178 -3.56342 0.274758 0
M  V30 2860 S 265.737 -4.3864 -0.118669 0
M  V30 2861 H 262.555 -0.705188 0.0907263 0
M  V30 2862 H 265.157 -1.7314 0.907895 0
M  V30 2863 H 263.861 -3.89958 1.2791 0
M  V30 2864 H 263.392 -3.91063 -0.428142 0
M  V30 2865 H 265.407 -4.77549 -1.34764 0
M  V30 2866 N 264.58 -0.43555 -1.51462 0
M  V30 2867 C 265.805 0.132627 -2.06976 0
M  V30 2868 C 266.23 1.35848 -1.30104 0
M  V30 2869 O 265.588 1.78112 -0.338493 0
M  V30 2870 C 265.636 0.43523 -3.57964 0
M  V30 2871 O 264.74 1.52198 -3.83288 0
M  V30 2872 H 264.081 0.00265 -0.663995 0
M  V30 2873 H 266.611 -0.616369 -1.95095 0
M  V30 2874 H 266.621 0.686206 -4.02188 0
M  V30 2875 H 265.296 -0.460739 -4.1334 0
M  V30 2876 H 263.873 1.2611 -3.50928 0
M  V30 2877 N 266.058 1.56714 -0.166846 0
M  V30 2878 C 267.021 2.16539 0.751232 0
M  V30 2879 C 268.021 1.11228 1.16125 0
M  V30 2880 O 269.211 1.36765 1.07894 0
M  V30 2881 C 266.343 2.74462 2.02196 0
M  V30 2882 H 267.536 2.99013 0.230499 0
M  V30 2883 H 265.089 1.56081 0.0826982 0
M  V30 2884 H 265.824 1.95709 2.58589 0
M  V30 2885 H 265.609 3.51527 1.73698 0
M  V30 2886 H 267.099 3.20489 2.67725 0
M  V30 2887 N 267.536 -0.106894 1.57237 0
M  V30 2888 C 268.446 -1.14911 2.0453 0
M  V30 2889 C 269.462 -1.44592 0.96795 0
M  V30 2890 O 270.638 -1.55468 1.2803 0
M  V30 2891 C 267.703 -2.45272 2.45036 0
M  V30 2892 C 266.764 -2.22879 3.66911 0
M  V30 2893 C 265.997 -3.47024 4.05475 0
M  V30 2894 O 266.22 -4.54804 3.44252 0
M  V30 2895 O 265.154 -3.3731 4.98504 0
M  V30 2896 H 268.98 -0.777461 2.9358 0
M  V30 2897 H 266.565 -0.318563 1.45964 0
M  V30 2898 H 268.447 -3.22055 2.71769 0
M  V30 2899 H 267.122 -2.81886 1.59129 0
M  V30 2900 H 266.029 -1.43915 3.45311 0
M  V30 2901 H 267.362 -1.91163 4.53561 0
M  V30 2902 N 269.014 -1.53014 -0.377408 0
M  V30 2903 C 270.291 -1.59215 -1.13622 0
M  V30 2904 C 270.671 -0.392407 -2.07421 0
M  V30 2905 O 270.019 0.618342 -2.19975 0
M  V30 2906 C 270.229 -2.93669 -1.88573 0
M  V30 2907 C 271.577 -3.47822 -2.43526 0
M  V30 2908 O 272.601 -2.9562 -1.98715 0
M  V30 2909 O 271.46 -4.39055 -3.25412 0
M  V30 2910 H 268.554 -0.642625 -0.52054 0
M  V30 2911 H 271.1 -1.65353 -0.381625 0
M  V30 2912 H 269.872 -3.7243 -1.20048 0
M  V30 2913 H 269.495 -2.90968 -2.70968 0
M  V30 2914 N 270.492 0.636531 -1.44174 0
M  V30 2915 C 271.739 1.39619 -1.46672 0
M  V30 2916 C 272.067 1.94257 -0.0972691 0
M  V30 2917 O 271.322 1.73768 0.900175 0
M  V30 2918 C 271.621 2.58309 -2.47005 0
M  V30 2919 C 271.287 2.21992 -3.92467 0
M  V30 2920 C 269.949 2.118 -4.32081 0
M  V30 2921 C 272.301 1.9321 -4.84065 0
M  V30 2922 C 269.629 1.71007 -5.61225 0
M  V30 2923 C 271.981 1.53911 -6.13591 0
M  V30 2924 C 270.645 1.42257 -6.52165 0
M  V30 2925 H 269.915 0.510902 -0.536712 0
M  V30 2926 H 272.562 0.722328 -1.77355 0
M  V30 2927 H 270.867 3.30903 -2.09786 0
M  V30 2928 H 272.564 3.16533 -2.46186 0
M  V30 2929 H 269.154 2.30841 -3.61124 0
M  V30 2930 H 273.338 1.99997 -4.54219 0
M  V30 2931 H 268.594 1.60583 -5.89935 0
M  V30 2932 H 272.768 1.30677 -6.8403 0
M  V30 2933 H 270.395 1.10419 -7.52138 0
M  V30 2934 N 271.97 1.30982 0.876444 0
M  V30 2935 C 272.917 1.18085 1.98304 0
M  V30 2936 C 273.887 0.0682263 1.6596 0
M  V30 2937 O 275.072 0.239937 1.89285 0
M  V30 2938 C 272.212 0.887475 3.33493 0
M  V30 2939 C 271.325 2.08281 3.78475 0
M  V30 2940 C 270.46 1.72678 5.0235 0
M  V30 2941 C 269.499 2.88657 5.39762 0
M  V30 2942 N 268.636 2.53292 6.54819 0
M  V30 2943 H 273.476 2.1275 2.08666 0
M  V30 2944 H 271.013 1.05839 1.02159 0
M  V30 2945 H 272.971 0.697961 4.1132 0
M  V30 2946 H 271.601 -0.022315 3.22792 0
M  V30 2947 H 270.653 2.3833 2.96484 0
M  V30 2948 H 271.965 2.95108 4.02135 0
M  V30 2949 H 271.119 1.50151 5.87826 0
M  V30 2950 H 269.858 0.830327 4.8058 0
M  V30 2951 H 268.863 3.1184 4.52809 0
M  V30 2952 H 270.088 3.79002 5.63502 0
M  V30 2953 H 268.034 1.66163 6.34607 0
M  V30 2954 H 267.951 3.3365 6.7839 0
M  V30 2955 H 269.219 2.34143 7.43503 0
M  V30 2956 N 273.449 -1.08991 1.13837 0
M  V30 2957 C 274.695 -1.81526 0.90422 0
M  V30 2958 C 275.028 -1.85706 -0.568066 0
M  V30 2959 O 274.303 -1.32855 -1.42056 0
M  V30 2960 C 274.586 -3.27447 1.49835 0
M  V30 2961 C 274.439 -3.31512 3.04006 0
M  V30 2962 C 275.758 -4.24256 1.17025 0
M  V30 2963 H 272.877 -0.659029 0.329923 0
M  V30 2964 H 275.519 -1.27644 1.40737 0
M  V30 2965 H 273.669 -3.73462 1.07044 0
M  V30 2966 H 275.341 -2.93867 3.55584 0
M  V30 2967 H 273.584 -2.70963 3.38765 0
M  V30 2968 H 274.255 -4.34329 3.40679 0
M  V30 2969 H 276.731 -3.86549 1.54009 0
M  V30 2970 H 275.607 -5.24684 1.61237 0
M  V30 2971 H 275.868 -4.42019 0.0846274 0
M  V30 2972 N 274.927 -0.932562 -1.27047 0
M  V30 2973 C 276.173 -0.576412 -1.94436 0
M  V30 2974 C 276.506 0.880891 -1.73072 0
M  V30 2975 O 275.781 1.62905 -1.06264 0
M  V30 2976 C 276.064 -0.909031 -3.48437 0
M  V30 2977 C 275.917 -2.42044 -3.79123 0
M  V30 2978 C 277.236 -0.418341 -4.38107 0
M  V30 2979 H 274.355 -0.210888 -0.706184 0
M  V30 2980 H 276.997 -1.16522 -1.50075 0
M  V30 2981 H 275.147 -0.407947 -3.86352 0
M  V30 2982 H 276.819 -2.99359 -3.50973 0
M  V30 2983 H 275.062 -2.86758 -3.25503 0
M  V30 2984 H 275.733 -2.6037 -4.86736 0
M  V30 2985 H 278.209 -0.847856 -4.0737 0
M  V30 2986 H 277.085 -0.679981 -5.44672 0
M  V30 2987 H 277.346 0.681642 -4.36814 0
M  V30 2988 N 276.405 1.4127 -0.698611 0
M  V30 2989 C 277.652 2.0118 -0.230865 0
M  V30 2990 C 277.98 1.55338 1.17049 0
M  V30 2991 O 277.235 0.756775 1.80475 0
M  V30 2992 C 277.534 3.56592 -0.240192 0
M  V30 2993 C 277.2 4.21955 -1.58948 0
M  V30 2994 C 275.862 4.39524 -1.95887 0
M  V30 2995 C 278.214 4.58576 -2.47704 0
M  V30 2996 C 275.542 4.90992 -3.2116 0
M  V30 2997 C 277.894 5.11435 -3.72313 0
M  V30 2998 C 276.558 5.27215 -4.0939 0
M  V30 2999 H 275.828 0.736169 -0.0844796 0
M  V30 3000 H 278.475 1.69124 -0.8983 0
M  V30 3001 H 276.78 3.88456 0.510797 0
M  V30 3002 H 278.477 4.00758 0.139296 0
M  V30 3003 H 275.067 4.08657 -1.29219 0
M  V30 3004 H 279.251 4.44654 -2.20445 0
M  V30 3005 H 274.507 5.01393 -3.49878 0
M  V30 3006 H 278.681 5.38752 -4.4127 0
M  V30 3007 H 276.308 5.66859 -5.06533 0
M  V30 3008 N 277.883 0.443576 1.51229 0
M  V30 3009 C 279.111 -0.11929 2.06556 0
M  V30 3010 C 279.526 -1.35921 1.31038 0
M  V30 3011 O 278.883 -1.78675 0.371704 0
M  V30 3012 C 278.934 -0.435228 3.5887 0
M  V30 3013 O 278.655 0.755486 4.31537 0
M  V30 3014 C 280.156 -1.04808 4.30732 0
M  V30 3015 H 277.376 -0.0051584 0.67098 0
M  V30 3016 H 279.92 0.624453 1.94733 0
M  V30 3017 H 278.075 -1.12887 3.70588 0
M  V30 3018 H 278.489 0.483491 5.22267 0
M  V30 3019 H 279.963 -1.2191 5.3837 0
M  V30 3020 H 280.44 -2.03081 3.89429 0
M  V30 3021 H 281.046 -0.393637 4.23474 0
M  V30 3022 N 279.361 -1.56624 0.175154 0
M  V30 3023 C 280.777 -1.58571 -0.180966 0
M  V30 3024 C 280.977 -1.19065 -1.6256 0
M  V30 3025 O 280.033 -0.904044 -2.35761 0
M  V30 3026 C 281.346 -3.00522 0.103326 0
M  V30 3027 C 282.894 -3.12972 0.0418426 0
M  V30 3028 C 283.369 -4.57022 0.299175 0
M  V30 3029 N 284.86 -4.62541 0.247086 0
M  V30 3030 C 285.595 -5.71857 0.420318 0
M  V30 3031 N 285.091 -6.89717 0.652816 0
M  V30 3032 N 286.884 -5.60972 0.355957 0
M  V30 3033 H 279.035 -1.80589 1.11809 0
M  V30 3034 H 281.298 -0.837178 0.444788 0
M  V30 3035 H 281.004 -3.33916 1.10422 0
M  V30 3036 H 280.878 -3.72344 -0.603299 0
M  V30 3037 H 283.265 -2.79403 -0.949636 0
M  V30 3038 H 283.346 -2.43578 0.781238 0
M  V30 3039 H 282.99 -4.913 1.28788 0
M  V30 3040 H 282.92 -5.24579 -0.460876 0
M  V30 3041 H 285.411 -3.77829 0.0731895 0
M  V30 3042 H 285.724 -7.68911 0.774347 0
M  V30 3043 H 284.069 -6.91572 0.689476 0
M  V30 3044 H 287.26 -4.67773 0.174882 0
M  V30 3045 H 287.433 -6.46111 0.494388 0
M  V30 3046 N 280.839 0.0985539 -1.57292 0
M  V30 3047 C 282.069 0.815135 -1.8984 0
M  V30 3048 C 282.477 1.7297 -0.766679 0
M  V30 3049 O 281.82 1.81698 0.270483 0
M  V30 3050 C 281.882 1.6842 -3.17608 0
M  V30 3051 C 281.546 0.94182 -4.4719 0
M  V30 3052 C 282.543 0.273212 -5.19182 0
M  V30 3053 C 280.228 0.916927 -4.9386 0
M  V30 3054 C 282.222 -0.410361 -6.36078 0
M  V30 3055 C 279.909 0.229567 -6.10669 0
M  V30 3056 C 280.907 -0.432902 -6.81627 0
M  V30 3057 O 280.595 -1.10925 -7.9621 0
M  V30 3058 H 280.327 0.238501 -0.632529 0
M  V30 3059 H 282.881 0.0812659 -2.05239 0
M  V30 3060 H 281.111 2.46022 -2.98345 0
M  V30 3061 H 282.8 2.27704 -3.36015 0
M  V30 3062 H 283.566 0.283927 -4.84168 0
M  V30 3063 H 279.445 1.42201 -4.3852 0
M  V30 3064 H 282.989 -0.928013 -6.914 0
M  V30 3065 H 278.886 0.216686 -6.45136 0
M  V30 3066 H 279.654 -1.01579 -8.12172 0
M  V30 3067 N 282.317 1.53212 0.369288 0
M  V30 3068 C 283.565 1.68881 1.11012 0
M  V30 3069 C 283.886 0.441285 1.89941 0
M  V30 3070 O 283.156 -0.544623 1.88177 0
M  V30 3071 H 281.736 0.622569 0.412816 0
M  V30 3072 H 284.398 1.90391 0.416802 0
M  V30 3073 H 283.494 2.54822 1.80201 0
M  V30 3074 N 283.795 -0.628877 1.44509 0
M  V30 3075 C 284.742 -1.74074 1.51549 0
M  V30 3076 C 285.712 -1.62084 0.363021 0
M  V30 3077 O 286.897 -1.81975 0.573567 0
M  V30 3078 C 284.037 -3.12328 1.46784 0
M  V30 3079 C 283.15 -3.35277 2.72422 0
M  V30 3080 C 282.285 -4.63515 2.59475 0
M  V30 3081 C 281.324 -4.7965 3.80266 0
M  V30 3082 N 280.461 -5.99168 3.65981 0
M  V30 3083 H 285.301 -1.67392 2.46544 0
M  V30 3084 H 282.838 -0.816527 1.22357 0
M  V30 3085 H 284.796 -3.92286 1.42012 0
M  V30 3086 H 283.426 -3.18018 0.553544 0
M  V30 3087 H 282.478 -2.49242 2.87372 0
M  V30 3088 H 283.79 -3.43078 3.62076 0
M  V30 3089 H 282.944 -5.51638 2.52548 0
M  V30 3090 H 281.683 -4.58076 1.67384 0
M  V30 3091 H 280.688 -3.89957 3.87574 0
M  V30 3092 H 281.913 -4.86902 4.73395 0
M  V30 3093 H 279.859 -5.94814 2.76644 0
M  V30 3094 H 279.776 -6.08035 4.49254 0
M  V30 3095 H 281.044 -6.89846 3.6295 0
M  V30 3096 N 285.273 -1.31445 -0.869486 0
M  V30 3097 C 286.513 -1.22458 -1.63656 0
M  V30 3098 C 286.877 0.213846 -1.90805 0
M  V30 3099 O 288.078 0.427212 -2.65383 0
M  V30 3100 C 286.349 -2.04564 -2.93067 0
M  V30 3101 S 287.908 -2.12445 -3.83944 0
M  V30 3102 H 284.726 -0.436145 -0.561514 0
M  V30 3103 H 287.328 -1.66114 -1.03085 0
M  V30 3104 H 286.032 -3.0816 -2.71045 0
M  V30 3105 H 285.563 -1.6163 -3.58663 0
M  V30 3106 H 287.578 -1.26312 -4.79854 0
M  V30 3107 N 286.751 1.08385 -1.14413 0
M  V30 3108 C 287.981 1.8425 -0.934644 0
M  V30 3109 C 288.389 1.81907 0.520234 0
M  V30 3110 O 287.732 1.22126 1.37226 0
M  V30 3111 C 287.794 3.32853 -1.35828 0
M  V30 3112 C 287.458 3.5893 -2.82875 0
M  V30 3113 C 288.455 3.53756 -3.80989 0
M  V30 3114 C 286.14 3.86934 -3.20293 0
M  V30 3115 C 288.134 3.76216 -5.14529 0
M  V30 3116 C 285.821 4.09047 -4.54008 0
M  V30 3117 C 286.819 4.03682 -5.50936 0
M  V30 3118 O 286.507 4.25214 -6.82238 0
M  V30 3119 H 286.239 0.588502 -0.332628 0
M  V30 3120 H 288.793 1.37792 -1.52324 0
M  V30 3121 H 287.023 3.8007 -0.713019 0
M  V30 3122 H 288.712 3.90154 -1.11957 0
M  V30 3123 H 289.478 3.32135 -3.53428 0
M  V30 3124 H 285.357 3.9023 -2.45442 0
M  V30 3125 H 288.901 3.71943 -5.90173 0
M  V30 3126 H 284.798 4.30151 -4.8129 0
M  V30 3127 H 285.566 4.42619 -6.88499 0
M  V30 3128 N 288.23 0.939286 1.26551 0
M  V30 3129 C 289.458 0.602536 1.97932 0
M  V30 3130 C 289.873 -0.82206 1.69964 0
M  V30 3131 O 289.23 -1.54789 0.966784 0
M  V30 3132 C 289.281 0.832946 3.51773 0
M  V30 3133 O 289.002 2.20151 3.78768 0
M  V30 3134 C 290.503 0.506483 4.40397 0
M  V30 3135 H 287.723 0.227248 0.631347 0
M  V30 3136 H 290.267 1.25948 1.61113 0
M  V30 3137 H 288.422 0.222644 3.8676 0
M  V30 3138 H 288.836 2.26013 4.73306 0
M  V30 3139 H 290.31 0.718333 5.47306 0
M  V30 3140 H 290.787 -0.558451 4.35635 0
M  V30 3141 H 291.393 1.09543 4.10951 0
M  V30 3142 N 289.708 -1.40897 0.706093 0
M  V30 3143 C 290.955 -2.01054 0.241531 0
M  V30 3144 C 291.283 -1.55956 -1.16223 0
M  V30 3145 O 290.538 -0.766336 -1.80072 0
M  V30 3146 C 290.837 -3.5646 0.259099 0
M  V30 3147 C 290.503 -4.21106 1.61184 0
M  V30 3148 C 289.165 -4.38479 1.98216 0
M  V30 3149 C 291.517 -4.57256 2.50132 0
M  V30 3150 C 288.845 -4.89282 3.2376 0
M  V30 3151 C 291.197 -5.09454 3.7502 0
M  V30 3152 C 289.861 -5.25037 4.12181 0
M  V30 3153 H 289.131 -0.73571 0.0883825 0
M  V30 3154 H 291.778 -1.68645 0.907257 0
M  V30 3155 H 290.083 -3.88721 -0.490189 0
M  V30 3156 H 291.78 -4.00826 -0.11804 0
M  V30 3157 H 288.37 -4.07966 1.31384 0
M  V30 3158 H 292.554 -4.43479 2.228 0
M  V30 3159 H 287.81 -4.99531 3.52532 0
M  V30 3160 H 291.984 -5.36404 4.44121 0
M  V30 3161 H 289.611 -5.64164 5.09532 0
M  V30 3162 N 291.186 -0.45159 -1.50991 0
M  V30 3163 C 292.134 0.366864 -2.29689 0
M  V30 3164 C 293.128 1.00809 -1.36139 0
M  V30 3165 O 294.334 0.941427 -1.53418 0
M  V30 3166 H 290.709 0.137133 -0.739391 0
M  V30 3167 H 292.68 -0.317538 -2.96706 0
M  V30 3168 C 291.429 1.44751 -3.16137 0
M  V30 3169 H 290.752 0.963473 -3.88017 0
M  V30 3170 H 292.192 1.99315 -3.74232 0
M  V30 3171 C 290.651 2.43869 -2.32442 0
M  V30 3172 O 291.181 3.4872 -1.99392 0
M  V30 3173 N 289.387 2.15105 -1.95392 0
M  V30 3174 H 288.934 1.29866 -2.22469 0
M  V30 3175 H 288.892 2.81661 -1.39693 0
M  V30 3176 N 292.664 1.56529 -0.183458 0
M  V30 3177 C 293.889 2.02064 0.467428 0
M  V30 3178 C 294.314 1.06282 1.55196 0
M  V30 3179 O 293.672 0.0443565 1.81246 0
M  V30 3180 C 293.72 3.46122 1.01153 0
M  V30 3181 O 292.824 3.53437 2.12499 0
M  V30 3182 H 292.165 0.654726 0.110588 0
M  V30 3183 H 294.695 2.02521 -0.290917 0
M  V30 3184 H 294.705 3.85676 1.33108 0
M  V30 3185 H 293.38 4.15331 0.217533 0
M  V30 3186 H 291.957 3.2575 1.81497 0
M  V30 3187 N 294.142 -0.090211 1.57342 0
M  V30 3188 C 295.39 -0.791241 1.85967 0
M  V30 3189 C 295.711 -1.7903 0.772859 0
M  V30 3190 O 294.981 -1.94872 -0.200398 0
M  V30 3191 H 293.561 -0.295205 0.686195 0
M  V30 3192 H 296.223 -0.0706782 1.94772 0
M  V30 3193 H 295.319 -1.31882 2.82867 0
M  V30 3194 N 295.62 -1.53406 -0.361157 0
M  V30 3195 C 297.036 -1.43277 -0.703124 0
M  V30 3196 C 297.236 -0.575384 -1.9311 0
M  V30 3197 O 296.292 -0.0595362 -2.5243 0
M  V30 3198 C 297.605 -2.8653 -0.9122 0
M  V30 3199 C 299.153 -2.96191 -1.01193 0
M  V30 3200 C 299.628 -4.40514 -1.25345 0
M  V30 3201 N 301.119 -4.43962 -1.32105 0
M  V30 3202 C 301.854 -5.52746 -1.5251 0
M  V30 3203 N 301.35 -6.71567 -1.70203 0
M  V30 3204 N 303.143 -5.40331 -1.54916 0
M  V30 3205 H 295.294 -2.07654 0.446475 0
M  V30 3206 H 297.557 -0.937944 0.137715 0
M  V30 3207 H 297.263 -3.51605 -0.0816414 0
M  V30 3208 H 297.137 -3.30441 -1.81903 0
M  V30 3209 H 299.524 -2.31266 -1.83303 0
M  V30 3210 H 299.605 -2.55667 -0.0823929 0
M  V30 3211 H 299.249 -5.06014 -0.437346 0
M  V30 3212 H 299.179 -4.78614 -2.19627 0
M  V30 3213 H 301.67 -3.58332 -1.20028 0
M  V30 3214 H 301.983 -7.50241 -1.85359 0
M  V30 3215 H 300.328 -6.74545 -1.67373 0
M  V30 3216 H 303.519 -4.46465 -1.40663 0
M  V30 3217 H 303.692 -6.25173 -1.70477 0
M  V30 3218 N 297.098 0.621204 -1.44841 0
M  V30 3219 C 298.375 1.38 -1.38619 0
M  V30 3220 C 298.755 2.11041 -0.0498935 0
M  V30 3221 O 298.103 2.06992 0.967816 0
M  V30 3222 C 298.313 2.33817 -2.59096 0
M  V30 3223 C 299.661 2.96844 -3.03593 0
M  V30 3224 O 300.685 2.44141 -2.59371 0
M  V30 3225 O 299.544 3.92476 -3.80296 0
M  V30 3226 H 296.638 0.61811 -0.549426 0
M  V30 3227 H 299.184 0.645429 -1.56947 0
M  V30 3228 H 297.956 1.79012 -3.47952 0
M  V30 3229 H 297.579 3.14676 -2.43032 0
M  V30 3230 N 298.576 1.31904 0.862503 0
M  V30 3231 C 299.824 1.21776 1.61292 0
M  V30 3232 C 300.145 -0.222413 1.93727 0
M  V30 3233 O 299.415 -1.1451 1.58947 0
M  V30 3234 H 297.995 0.447717 0.597962 0
M  V30 3235 H 300.657 1.65326 1.03215 0
M  V30 3236 H 299.753 1.7948 2.5533 0
M  V30 3237 N 300.054 -1.07777 1.14986 0
M  V30 3238 C 301.47 -1.32373 0.891596 0
M  V30 3239 C 301.67 -1.9609 -0.463788 0
M  V30 3240 O 300.726 -2.21801 -1.20667 0
M  V30 3241 C 302.039 -2.21905 2.02925 0
M  V30 3242 C 303.587 -2.35367 2.06329 0
M  V30 3243 C 304.062 -3.28245 3.19405 0
M  V30 3244 N 305.553 -3.35824 3.19024 0
M  V30 3245 C 306.288 -4.07739 4.03158 0
M  V30 3246 N 305.784 -4.82306 4.97346 0
M  V30 3247 N 307.577 -4.03635 3.91197 0
M  V30 3248 H 299.728 -0.648039 2.02273 0
M  V30 3249 H 301.991 -0.348149 0.881757 0
M  V30 3250 H 301.697 -1.82342 3.0074 0
M  V30 3251 H 301.571 -3.22407 1.95789 0
M  V30 3252 H 303.958 -2.74186 1.09116 0
M  V30 3253 H 304.039 -1.34585 2.17533 0
M  V30 3254 H 303.683 -2.90146 4.16867 0
M  V30 3255 H 303.613 -4.28971 3.05437 0
M  V30 3256 H 306.104 -2.8267 2.50811 0
M  V30 3257 H 306.417 -5.34661 5.57994 0
M  V30 3258 H 304.762 -4.81337 5.01338 0
M  V30 3259 H 307.953 -3.44491 3.16928 0
M  V30 3260 H 308.126 -4.59417 4.5699 0
M  V30 3261 N 301.532 -0.945985 -1.26051 0
M  V30 3262 C 302.943 -0.638096 -1.75457 0
M  V30 3263 C 303.294 0.846672 -1.76991 0
M  V30 3264 O 302.419 1.66262 -1.38513 0
M  V30 3265 C 303.014 -1.15157 -3.18629 0
M  V30 3266 C 301.573 -0.894004 -3.65629 0
M  V30 3267 C 300.72 -1.29967 -2.44957 0
M  V30 3268 H 303.671 -1.12376 -1.1206 0
M  V30 3269 H 303.692 -0.507615 -3.77099 0
M  V30 3270 H 303.204 -2.23222 -3.1748 0
M  V30 3271 H 301.305 0.172057 -3.72203 0
M  V30 3272 H 301.418 -1.52439 -4.54202 0
M  V30 3273 H 299.782 -0.718078 -2.44368 0
M  V30 3274 H 300.565 -2.38935 -2.46505 0
M  V30 3275 N 303.011 1.40521 -0.713556 0
M  V30 3276 C 304.427 1.54839 -0.386907 0
M  V30 3277 C 304.627 1.68532 1.1045 0
M  V30 3278 O 303.683 1.67377 1.89053 0
M  V30 3279 C 304.996 2.77792 -1.15118 0
M  V30 3280 C 306.544 2.91607 -1.13729 0
M  V30 3281 C 307.019 4.1747 -1.88368 0
M  V30 3282 N 308.51 4.24466 -1.85427 0
M  V30 3283 C 309.245 5.20755 -2.40004 0
M  V30 3284 N 308.741 6.22965 -3.03129 0
M  V30 3285 N 310.534 5.1282 -2.30158 0
M  V30 3286 H 302.685 1.29879 -1.68063 0
M  V30 3287 H 304.948 0.627896 -0.710247 0
M  V30 3288 H 304.654 2.73944 -2.20561 0
M  V30 3289 H 304.528 3.6984 -0.741477 0
M  V30 3290 H 306.915 2.94959 -0.0910608 0
M  V30 3291 H 306.996 2.00682 -1.5862 0
M  V30 3292 H 306.64 4.1488 -2.9298 0
M  V30 3293 H 306.57 5.074 -1.40898 0
M  V30 3294 H 309.061 3.51241 -1.3942 0
M  V30 3295 H 309.374 6.92859 -3.42295 0
M  V30 3296 H 307.719 6.23415 -3.07212 0
M  V30 3297 H 310.91 4.31899 -1.80501 0
M  V30 3298 H 311.083 5.87689 -2.72993 0
M  V30 3299 N 304.489 0.459591 1.5075 0
M  V30 3300 C 305.419 -0.330644 2.31147 0
M  V30 3301 C 306.4 -1.00087 1.37538 0
M  V30 3302 O 307.585 -1.00025 1.66459 0
M  V30 3303 C 304.715 -1.41958 3.16962 0
M  V30 3304 C 303.669 -0.871608 4.19031 0
M  V30 3305 C 302.995 -2.05797 4.9351 0
M  V30 3306 C 304.295 0.109251 5.22186 0
M  V30 3307 H 305.989 0.340336 2.97459 0
M  V30 3308 H 303.535 0.165119 1.4305 0
M  V30 3309 H 305.488 -1.9798 3.71997 0
M  V30 3310 H 304.212 -2.11917 2.48513 0
M  V30 3311 H 302.871 -0.333442 3.6508 0
M  V30 3312 H 302.519 -2.74427 4.21544 0
M  V30 3313 H 302.219 -1.6976 5.62544 0
M  V30 3314 H 303.743 -2.62331 5.51375 0
M  V30 3315 H 305.157 -0.361405 5.7216 0
M  V30 3316 H 303.554 0.383316 5.98875 0
M  V30 3317 H 304.624 1.03887 4.73641 0
M  V30 3318 N 305.967 -1.56429 0.191757 0
M  V30 3319 C 306.914 -2.18936 -0.730454 0
M  V30 3320 C 307.884 -1.13557 -1.21219 0
M  V30 3321 O 309.069 -1.41794 -1.27668 0
M  V30 3322 C 306.209 -2.85013 -1.9458 0
M  V30 3323 C 305.322 -4.04909 -1.50574 0
M  V30 3324 C 304.457 -4.58853 -2.67634 0
M  V30 3325 C 303.496 -5.71114 -2.20217 0
M  V30 3326 N 302.633 -6.19478 -3.30442 0
M  V30 3327 H 307.473 -2.97389 -0.190664 0
M  V30 3328 H 305.01 -1.46869 -0.0823694 0
M  V30 3329 H 306.968 -3.21492 -2.65893 0
M  V30 3330 H 305.598 -2.09129 -2.45896 0
M  V30 3331 H 304.65 -3.74115 -0.688605 0
M  V30 3332 H 305.962 -4.86113 -1.11784 0
M  V30 3333 H 305.116 -4.97619 -3.47074 0
M  V30 3334 H 303.855 -3.76749 -3.09696 0
M  V30 3335 H 302.86 -5.31879 -1.3923 0
M  V30 3336 H 304.085 -6.55033 -1.79189 0
M  V30 3337 H 302.031 -5.40297 -3.72041 0
M  V30 3338 H 301.948 -6.95725 -2.9581 0
M  V30 3339 H 303.216 -6.62898 -4.10106 0
M  V30 3340 N 307.445 0.0818655 -1.57387 0
M  V30 3341 C 308.673 0.796108 -1.9097 0
M  V30 3342 C 309.088 1.71626 -0.786757 0
M  V30 3343 O 308.445 1.80908 0.240513 0
M  V30 3344 C 308.496 1.59829 -3.24248 0
M  V30 3345 O 308.217 0.715131 -4.32224 0
M  V30 3346 C 309.718 2.41442 -3.7178 0
M  V30 3347 H 306.938 0.22691 -0.631469 0
M  V30 3348 H 309.482 0.0551439 -2.04426 0
M  V30 3349 H 307.637 2.29163 -3.12351 0
M  V30 3350 H 308.051 1.27205 -5.08841 0
M  V30 3351 H 309.525 2.932 -4.67694 0
M  V30 3352 H 310.002 3.2051 -3.00283 0
M  V30 3353 H 310.608 1.77283 -3.86589 0
M  V30 3354 N 308.923 1.53595 0.353017 0
M  V30 3355 C 309.856 1.7572 1.45594 0
M  V30 3356 C 310.834 0.605961 1.50887 0
M  V30 3357 O 312.018 0.840023 1.68748 0
M  V30 3358 C 309.145 1.84732 2.83887 0
M  V30 3359 C 308.191 3.06808 2.96262 0
M  V30 3360 S 309.024 4.66065 2.63711 0
M  V30 3361 C 310.18 4.77943 4.04131 0
M  V30 3362 H 310.413 2.68994 1.26608 0
M  V30 3363 H 307.946 1.44343 0.548117 0
M  V30 3364 H 309.904 1.9061 3.63563 0
M  V30 3365 H 308.565 0.92488 3.00175 0
M  V30 3366 H 307.758 3.09761 3.97573 0
M  V30 3367 H 307.36 2.99108 2.24523 0
M  V30 3368 H 309.652 4.5877 4.98534 0
M  V30 3369 H 310.595 5.80022 4.06177 0
M  V30 3370 H 311.003 4.06472 3.91715 0
M  V30 3371 N 310.401 -0.613514 1.45168 0
M  V30 3372 C 311.348 -1.72456 1.53387 0
M  V30 3373 C 312.318 -1.6169 0.380191 0
M  V30 3374 O 313.503 -1.81356 0.592836 0
M  V30 3375 C 310.643 -3.10753 1.50088 0
M  V30 3376 C 309.756 -3.32368 2.75963 0
M  V30 3377 C 308.891 -4.60737 2.64376 0
M  V30 3378 C 307.93 -4.7559 3.85332 0
M  V30 3379 N 307.067 -5.95253 3.72315 0
M  V30 3380 H 311.907 -1.64768 2.48305 0
M  V30 3381 H 309.444 -0.803503 1.23216 0
M  V30 3382 H 311.402 -3.90758 1.46164 0
M  V30 3383 H 310.032 -3.17413 0.587243 0
M  V30 3384 H 309.084 -2.4618 2.89999 0
M  V30 3385 H 310.396 -3.39218 3.65695 0
M  V30 3386 H 309.55 -5.48928 2.58385 0
M  V30 3387 H 308.289 -4.56275 1.72233 0
M  V30 3388 H 307.294 -3.85824 3.91688 0
M  V30 3389 H 308.519 -4.81854 4.78533 0
M  V30 3390 H 306.465 -5.91847 2.82937 0
M  V30 3391 H 306.382 -6.03236 4.55677 0
M  V30 3392 H 307.65 -6.85958 3.70246 0
M  V30 3393 N 311.879 -1.3236 -0.855495 0
M  V30 3394 C 313.127 -1.22629 -1.60644 0
M  V30 3395 C 313.448 0.212136 -1.93843 0
M  V30 3396 O 312.718 1.13666 -1.59552 0
M  V30 3397 H 311.298 -0.450882 -0.595579 0
M  V30 3398 H 313.96 -1.65871 -1.02337 0
M  V30 3399 H 313.056 -1.80832 -2.54374 0
M  V30 3400 N 313.357 1.07166 -1.15556 0
M  V30 3401 C 314.605 1.79443 -0.929764 0
M  V30 3402 C 314.926 1.87246 0.544414 0
M  V30 3403 O 314.196 1.37473 1.39564 0
M  V30 3404 H 312.776 0.664625 -0.341003 0
M  V30 3405 H 315.438 1.29499 -1.45657 0
M  V30 3406 H 314.534 2.81832 -1.34079 0
M  V30 3407 N 314.835 0.952656 1.25548 0
M  V30 3408 C 316.063 0.623496 1.97282 0
M  V30 3409 C 316.478 -0.803987 1.70826 0
M  V30 3410 O 315.835 -1.53755 0.983147 0
M  V30 3411 C 315.886 0.870209 3.5087 0
M  V30 3412 O 315.607 2.24156 3.76412 0
M  V30 3413 C 317.108 0.553164 4.39835 0
M  V30 3414 H 314.328 0.233931 0.628902 0
M  V30 3415 H 316.872 1.27649 1.59768 0
M  V30 3416 H 315.027 0.263652 3.86502 0
M  V30 3417 H 315.441 2.31021 4.70882 0
M  V30 3418 H 316.915 0.776342 5.46513 0
M  V30 3419 H 317.392 -0.512215 4.36203 0
M  V30 3420 H 317.998 1.13896 4.09766 0
M  V30 3421 N 316.313 -1.40141 0.720998 0
M  V30 3422 C 317.561 -2.0039 0.262323 0
M  V30 3423 C 317.882 -1.57469 -1.15015 0
M  V30 3424 O 317.152 -0.816582 -1.78069 0
M  V30 3425 H 315.732 -0.741063 0.093996 0
M  V30 3426 H 318.394 -1.71398 0.927835 0
M  V30 3427 H 317.49 -3.10658 0.299671 0
M  V30 3428 N 317.792 -0.46758 -1.50504 0
M  V30 3429 C 318.74 0.342482 -2.30065 0
M  V30 3430 C 319.734 0.993596 -1.37201 0
M  V30 3431 O 320.94 0.925102 -1.54408 0
M  V30 3432 H 317.315 0.129283 -0.740803 0
M  V30 3433 H 319.286 -0.34899 -2.96352 0
M  V30 3434 C 318.035 1.4139 -3.17654 0
M  V30 3435 H 317.358 0.922264 -3.89017 0
M  V30 3436 H 318.798 1.95335 -3.76325 0
M  V30 3437 C 317.257 2.4139 -2.35016 0
M  V30 3438 O 317.787 3.46586 -2.03079 0
M  V30 3439 N 315.993 2.13021 -1.97662 0
M  V30 3440 H 315.54 1.27499 -2.23834 0
M  V30 3441 H 315.498 2.80164 -1.42673 0
M  V30 3442 N 319.27 1.56325 -0.20005 0
M  V30 3443 C 320.518 1.97329 0.436547 0
M  V30 3444 C 320.839 1.08826 1.61808 0
M  V30 3445 O 320.109 0.160604 1.95241 0
M  V30 3446 H 318.689 0.728714 0.164272 0
M  V30 3447 H 321.351 1.92761 -0.287937 0
M  V30 3448 H 320.447 3.02264 0.777353 0
M  V30 3449 N 320.748 -0.0735177 1.57428 0
M  V30 3450 C 321.678 -1.0879 2.06608 0
M  V30 3451 C 322.659 -1.40473 0.959237 0
M  V30 3452 O 323.844 -1.5013 1.23185 0
M  V30 3453 C 320.974 -2.40183 2.50857 0
M  V30 3454 C 319.928 -2.22858 3.65402 0
M  V30 3455 C 319.254 -3.59619 3.957 0
M  V30 3456 C 320.554 -1.65123 4.95511 0
M  V30 3457 H 322.248 -0.678673 2.91607 0
M  V30 3458 H 319.794 -0.325013 1.40284 0
M  V30 3459 H 321.747 -3.11437 2.83874 0
M  V30 3460 H 320.471 -2.83083 1.62885 0
M  V30 3461 H 319.13 -1.54045 3.32664 0
M  V30 3462 H 318.778 -4.00086 3.04861 0
M  V30 3463 H 318.478 -3.48866 4.72828 0
M  V30 3464 H 320.002 -4.32306 4.31212 0
M  V30 3465 H 321.416 -2.26241 5.26771 0
M  V30 3466 H 319.813 -1.65071 5.7695 0
M  V30 3467 H 320.883 -0.612559 4.81015 0
M  V30 3468 N 322.226 -1.5378 -0.344866 0
M  V30 3469 C 323.136 -1.84667 -1.4469 0
M  V30 3470 C 324.152 -0.736704 -1.57635 0
M  V30 3471 O 325.328 -1.02888 -1.73136 0
M  V30 3472 C 322.393 -2.04869 -2.79696 0
M  V30 3473 C 321.454 -3.28731 -2.76106 0
M  V30 3474 C 320.687 -3.4796 -4.04673 0
M  V30 3475 O 320.91 -2.71052 -5.01883 0
M  V30 3476 O 319.844 -4.41383 -4.09224 0
M  V30 3477 H 323.67 -2.78334 -1.21506 0
M  V30 3478 H 321.255 -1.39418 -0.536921 0
M  V30 3479 H 323.137 -2.19609 -3.59652 0
M  V30 3480 H 321.812 -1.14391 -3.02814 0
M  V30 3481 H 320.719 -3.19396 -1.94774 0
M  V30 3482 H 322.052 -4.19198 -2.57941 0
M  V30 3483 N 323.704 0.605807 -1.45491 0
M  V30 3484 C 324.953 1.36086 -1.48874 0
M  V30 3485 C 325.266 1.95131 -0.135333 0
M  V30 3486 O 326.472 2.7146 -0.0468144 0
M  V30 3487 C 324.928 2.46518 -2.62215 0
M  V30 3488 C 324.536 1.93877 -4.03876 0
M  V30 3489 C 326.28 3.23512 -2.74846 0
M  V30 3490 C 324.187 3.01801 -5.08596 0
M  V30 3491 H 323.117 0.511497 -0.553974 0
M  V30 3492 H 325.768 0.649089 -1.71636 0
M  V30 3493 H 324.15 3.20388 -2.32739 0
M  V30 3494 H 325.324 1.26704 -4.43038 0
M  V30 3495 H 323.639 1.29622 -3.95711 0
M  V30 3496 H 326.236 4.04013 -3.50253 0
M  V30 3497 H 326.579 3.74631 -1.81542 0
M  V30 3498 H 327.112 2.56742 -3.03856 0
M  V30 3499 H 323.851 2.55597 -6.03614 0
M  V30 3500 H 323.371 3.67535 -4.74002 0
M  V30 3501 H 325.05 3.66152 -5.33424 0
M  V30 3502 N 325.182 1.32811 0.848464 0
M  V30 3503 C 326.115 1.16601 1.96162 0
M  V30 3504 C 327.093 0.0638855 1.62474 0
M  V30 3505 O 328.277 0.224348 1.8716 0
M  V30 3506 C 325.404 0.786333 3.29446 0
M  V30 3507 C 324.45 1.89459 3.8211 0
M  V30 3508 S 325.283 3.50395 4.04949 0
M  V30 3509 C 326.439 3.14413 5.41198 0
M  V30 3510 H 326.672 2.10832 2.09612 0
M  V30 3511 H 324.205 1.17543 1.00115 0
M  V30 3512 H 326.163 0.574044 4.06466 0
M  V30 3513 H 324.824 -0.137218 3.138 0
M  V30 3514 H 324.017 1.58207 4.78526 0
M  V30 3515 H 323.619 2.06304 3.11953 0
M  V30 3516 H 325.911 2.64642 6.23675 0
M  V30 3517 H 326.854 4.09874 5.77416 0
M  V30 3518 H 327.262 2.51266 5.05495 0
M  V30 3519 N 326.66 -1.06551 1.16123 0
M  V30 3520 C 327.59 -2.15935 0.88851 0
M  V30 3521 C 328.571 -1.69306 -0.164135 0
M  V30 3522 O 329.756 -1.94193 -0.0167857 0
M  V30 3523 C 326.886 -3.45149 0.385942 0
M  V30 3524 C 325.84 -4.05271 1.3762 0
M  V30 3525 C 325.166 -5.29664 0.732137 0
M  V30 3526 C 326.466 -4.44355 2.74493 0
M  V30 3527 H 328.16 -2.39006 1.80323 0
M  V30 3528 H 325.706 -1.14866 0.868435 0
M  V30 3529 H 327.659 -4.21004 0.182647 0
M  V30 3530 H 326.383 -3.21689 -0.564274 0
M  V30 3531 H 325.042 -3.3147 1.56599 0
M  V30 3532 H 324.69 -5.02499 -0.224483 0
M  V30 3533 H 324.39 -5.70848 1.39307 0
M  V30 3534 H 325.914 -6.08218 0.538802 0
M  V30 3535 H 327.328 -5.11303 2.59311 0
M  V30 3536 H 325.725 -4.96515 3.37035 0
M  V30 3537 H 326.795 -3.55339 3.29943 0
M  V30 3538 N 328.138 -0.959301 -1.25041 0
M  V30 3539 C 329.415 -0.533805 -1.88175 0
M  V30 3540 C 329.795 0.988994 -1.865 0
M  V30 3541 O 329.143 1.85677 -1.33177 0
M  V30 3542 C 329.353 -1.11575 -3.30684 0
M  V30 3543 C 330.701 -1.19548 -4.07423 0
M  V30 3544 O 331.725 -1.06765 -3.39823 0
M  V30 3545 O 330.584 -1.39656 -5.28354 0
M  V30 3546 H 327.678 -0.176772 -0.807887 0
M  V30 3547 H 330.224 -1.05303 -1.33076 0
M  V30 3548 H 328.996 -2.15884 -3.26358 0
M  V30 3549 H 328.619 -0.580059 -3.93346 0
M  V30 3550 N 329.616 1.39756 -0.72842 0
M  V30 3551 C 330.865 1.99879 -0.270407 0
M  V30 3552 C 331.178 1.58449 1.14688 0
M  V30 3553 O 332.384 2.11362 1.70407 0
M  V30 3554 C 330.84 3.57292 -0.43252 0
M  V30 3555 C 330.448 4.07688 -1.85727 0
M  V30 3556 C 332.192 4.24485 -0.0359507 0
M  V30 3557 C 330.099 5.5765 -1.96928 0
M  V30 3558 H 329.029 0.747689 -0.0973472 0
M  V30 3559 H 331.68 1.59837 -0.901355 0
M  V30 3560 H 330.062 3.95097 0.267219 0
M  V30 3561 H 331.236 3.81231 -2.58843 0
M  V30 3562 H 329.551 3.53135 -2.20646 0
M  V30 3563 H 332.148 5.34609 -0.0987484 0
M  V30 3564 H 332.491 4.03915 1.00787 0
M  V30 3565 H 333.024 3.9183 -0.686604 0
M  V30 3566 H 329.763 5.8309 -2.99476 0
M  V30 3567 H 329.283 5.8593 -1.28241 0
M  V30 3568 H 330.962 6.22957 -1.74737 0
M  V30 3569 N 331.094 0.475555 1.50254 0
M  V30 3570 C 332.026 -0.352649 2.26471 0
M  V30 3571 C 333.039 -0.953165 1.3198 0
M  V30 3572 O 334.228 -0.840815 1.57457 0
M  V30 3573 C 331.328 -1.50902 3.0345 0
M  V30 3574 C 330.501 -1.02047 4.25329 0
M  V30 3575 C 329.56 -2.05142 4.84565 0
M  V30 3576 O 328.586 -1.63023 5.45355 0
M  V30 3577 N 329.788 -3.37987 4.71959 0
M  V30 3578 H 332.553 0.300767 2.98187 0
M  V30 3579 H 330.114 0.306598 1.5897 0
M  V30 3580 H 332.106 -2.19572 3.39956 0
M  V30 3581 H 330.676 -2.06705 2.34504 0
M  V30 3582 H 329.896 -0.159507 3.93877 0
M  V30 3583 H 331.184 -0.672061 5.04342 0
M  V30 3584 H 330.582 -3.74913 4.23623 0
M  V30 3585 H 329.139 -4.02443 5.12721 0
M  V30 3586 N 332.573 -1.56217 0.208337 0
M  V30 3587 C 333.505 -2.1695 -0.739276 0
M  V30 3588 C 334.518 -1.13492 -1.1672 0
M  V30 3589 O 335.707 -1.40529 -1.10063 0
M  V30 3590 C 332.807 -2.72755 -2.01142 0
M  V30 3591 C 331.98 -4.0125 -1.74118 0
M  V30 3592 C 331.039 -4.41749 -2.85909 0
M  V30 3593 O 330.065 -5.08912 -2.54946 0
M  V30 3594 N 331.267 -4.06342 -4.14568 0
M  V30 3595 H 334.032 -2.98893 -0.219837 0
M  V30 3596 H 331.593 -1.61878 0.0268445 0
M  V30 3597 H 333.585 -2.96826 -2.75094 0
M  V30 3598 H 332.155 -1.95191 -2.4417 0
M  V30 3599 H 331.375 -3.85173 -0.838775 0
M  V30 3600 H 332.663 -4.851 -1.53477 0
M  V30 3601 H 332.061 -3.52345 -4.42571 0
M  V30 3602 H 330.618 -4.35335 -4.85105 0
M  V30 3603 N 334.051 0.0651679 -1.57465 0
M  V30 3604 C 335.328 0.79644 -1.78651 0
M  V30 3605 C 335.708 1.95454 -0.797566 0
M  V30 3606 O 335.056 2.27882 0.167946 0
M  V30 3607 C 335.266 1.26322 -3.25337 0
M  V30 3608 C 336.614 1.6939 -3.89348 0
M  V30 3609 O 337.638 1.35872 -3.29268 0
M  V30 3610 O 336.497 2.31471 -4.95059 0
M  V30 3611 H 333.591 0.382157 -0.733407 0
M  V30 3612 H 336.137 0.0447311 -1.69641 0
M  V30 3613 H 334.909 0.434859 -3.88876 0
M  V30 3614 H 334.532 2.07604 -3.39096 0
M  V30 3615 N 335.529 1.53961 0.336706 0
M  V30 3616 C 336.439 1.85432 1.43708 0
M  V30 3617 C 337.455 0.745053 1.57242 0
M  V30 3618 O 338.631 1.03804 1.72588 0
M  V30 3619 C 335.696 2.06349 2.78605 0
M  V30 3620 C 334.757 3.30191 2.74358 0
M  V30 3621 C 333.99 3.50101 4.02822 0
M  V30 3622 O 334.213 2.7371 5.00439 0
M  V30 3623 O 333.147 4.43547 4.06878 0
M  V30 3624 H 336.973 2.78975 1.20028 0
M  V30 3625 H 334.558 1.39701 0.52952 0
M  V30 3626 H 336.44 2.21513 3.58483 0
M  V30 3627 H 335.115 1.15995 3.02203 0
M  V30 3628 H 334.022 3.20425 1.93078 0
M  V30 3629 H 335.355 4.2056 2.55715 0
M  V30 3630 N 337.007 -0.598083 1.45811 0
M  V30 3631 C 338.237 -1.38121 1.53643 0
M  V30 3632 C 338.645 -1.88425 0.171081 0
M  V30 3633 O 337.988 -1.63409 -0.839237 0
M  V30 3634 C 338.05 -2.61432 2.46766 0
M  V30 3635 C 337.714 -2.32702 3.93318 0
M  V30 3636 C 338.711 -1.92479 4.82957 0
M  V30 3637 C 336.396 -2.45321 4.38318 0
M  V30 3638 C 338.39 -1.65248 6.15607 0
M  V30 3639 C 336.077 -2.17703 5.71007 0
M  V30 3640 C 337.075 -1.7773 6.5947 0
M  V30 3641 O 336.763 -1.50441 7.89698 0
M  V30 3642 H 336.495 -0.428863 0.522544 0
M  V30 3643 H 339.049 -0.73557 1.91777 0
M  V30 3644 H 337.279 -3.28749 2.0362 0
M  V30 3645 H 338.968 -3.23487 2.45175 0
M  V30 3646 H 339.734 -1.82258 4.49452 0
M  V30 3647 H 335.613 -2.75399 3.69697 0
M  V30 3648 H 339.157 -1.33973 6.84614 0
M  V30 3649 H 335.054 -2.27544 6.04065 0
M  V30 3650 H 335.822 -1.64415 8.01817 0
M  V30 3651 N 338.485 -1.33259 -0.841409 0
M  V30 3652 C 339.415 -1.25926 -1.96634 0
M  V30 3653 C 340.396 -0.140349 -1.6952 0
M  V30 3654 O 341.581 -0.329707 -1.91381 0
M  V30 3655 C 338.711 -0.99512 -3.32738 0
M  V30 3656 C 337.665 -2.0767 -3.74242 0
M  V30 3657 C 336.991 -1.66474 -5.08125 0
M  V30 3658 C 338.291 -3.49318 -3.88297 0
M  V30 3659 H 339.985 -2.20046 -2.03027 0
M  V30 3660 H 337.531 -1.05931 -0.975425 0
M  V30 3661 H 339.484 -0.930323 -4.11002 0
M  V30 3662 H 338.208 -0.0183004 -3.26595 0
M  V30 3663 H 336.867 -2.13187 -2.98239 0
M  V30 3664 H 336.515 -0.675012 -4.9845 0
M  V30 3665 H 336.215 -2.3885 -5.36865 0
M  V30 3666 H 337.739 -1.61455 -5.88867 0
M  V30 3667 H 339.153 -3.46316 -4.56879 0
M  V30 3668 H 337.55 -4.20158 -4.28471 0
M  V30 3669 H 338.62 -3.8801 -2.9082 0
M  V30 3670 N 339.963 1.05934 -1.16686 0
M  V30 3671 C 341.374 1.60263 -0.957745 0
M  V30 3672 C 341.725 1.89789 0.49745 0
M  V30 3673 O 340.85 1.67401 1.37135 0
M  V30 3674 C 341.445 2.91172 -1.73218 0
M  V30 3675 C 340.004 3.42188 -1.56794 0
M  V30 3676 C 339.151 2.16028 -1.73859 0
M  V30 3677 H 342.102 0.888392 -1.31504 0
M  V30 3678 H 342.123 3.60744 -1.21014 0
M  V30 3679 H 341.635 2.6965 -2.79124 0
M  V30 3680 H 339.736 3.68762 -0.533437 0
M  V30 3681 H 339.849 4.17273 -2.35414 0
M  V30 3682 H 338.213 2.26426 -1.16633 0
M  V30 3683 H 338.996 1.96985 -2.81161 0
M  V30 3684 N 341.441 0.965919 1.2453 0
M  V30 3685 C 342.687 0.62776 1.92839 0
M  V30 3686 C 343.02 -0.834694 1.75347 0
M  V30 3687 O 342.295 -1.60031 1.10546 0
M  V30 3688 C 342.578 1.00109 3.45905 0
M  V30 3689 C 342.431 2.52011 3.72573 0
M  V30 3690 C 343.75 0.53435 4.36844 0
M  V30 3691 H 340.869 0.229537 0.700344 0
M  V30 3692 H 343.511 1.2046 1.46933 0
M  V30 3693 H 341.661 0.510238 3.85135 0
M  V30 3694 H 343.333 3.08559 3.42912 0
M  V30 3695 H 341.576 2.95287 3.17786 0
M  V30 3696 H 342.247 2.73183 4.79661 0
M  V30 3697 H 344.723 0.955565 4.04979 0
M  V30 3698 H 343.599 0.824152 5.42678 0
M  V30 3699 H 343.86 -0.565589 4.38467 0
M  V30 3700 N 342.919 -1.39368 0.735821 0
M  V30 3701 C 344.165 -2.01272 0.293439 0
M  V30 3702 C 344.52 -1.57344 -1.10728 0
M  V30 3703 O 343.813 -0.792744 -1.74431 0
M  V30 3704 C 344.007 -3.5583 0.334651 0
M  V30 3705 C 343.836 -4.14764 1.73784 0
M  V30 3706 C 342.606 -4.47315 2.35026 0
M  V30 3707 C 344.804 -4.38246 2.69157 0
M  V30 3708 N 342.786 -4.91756 3.6749 0
M  V30 3709 C 344.157 -4.849 3.86357 0
M  V30 3710 C 346.212 -4.20315 2.66908 0
M  V30 3711 C 344.915 -5.15505 5.01645 0
M  V30 3712 C 346.941 -4.52033 3.8134 0
M  V30 3713 C 346.303 -4.98895 4.97276 0
M  V30 3714 H 342.402 -0.766756 0.153652 0
M  V30 3715 H 344.986 -1.69276 0.961967 0
M  V30 3716 H 343.157 -3.87212 -0.303527 0
M  V30 3717 H 344.889 -4.04503 -0.126358 0
M  V30 3718 H 341.644 -4.35143 1.86943 0
M  V30 3719 H 342.068 -5.18333 4.35499 0
M  V30 3720 H 346.71 -3.83287 1.78468 0
M  V30 3721 H 344.428 -5.51437 5.90713 0
M  V30 3722 H 348.014 -4.39781 3.80899 0
M  V30 3723 H 346.894 -5.22973 5.84353 0
M  V30 3724 N 344.397 -0.483516 -1.5 0
M  V30 3725 C 345.645 0.067027 -2.01989 0
M  V30 3726 C 345.966 1.3909 -1.36671 0
M  V30 3727 O 345.236 1.88978 -0.516152 0
M  V30 3728 H 343.816 0.0277606 -0.746484 0
M  V30 3729 H 346.478 -0.636773 -1.84204 0
M  V30 3730 H 345.574 0.209484 -3.11396 0
M  V30 3731 N 345.875 1.56104 -0.216619 0
M  V30 3732 C 346.785 2.23694 0.706982 0
M  V30 3733 C 347.801 1.24295 1.21765 0
M  V30 3734 O 348.977 1.57094 1.2603 0
M  V30 3735 C 346.042 2.8998 1.90033 0
M  V30 3736 C 345.103 4.04708 1.43213 0
M  V30 3737 C 344.336 4.67824 2.56859 0
M  V30 3738 O 344.559 4.29913 3.74874 0
M  V30 3739 O 343.493 5.56905 2.28343 0
M  V30 3740 H 347.319 3.03272 0.161235 0
M  V30 3741 H 344.904 1.49394 0.0136177 0
M  V30 3742 H 346.786 3.31837 2.59735 0
M  V30 3743 H 345.461 2.13365 2.43428 0
M  V30 3744 H 344.368 3.6743 0.70327 0
M  V30 3745 H 345.701 4.83051 0.944615 0
M  V30 3746 N 347.353 -0.0568162 1.57498 0
M  V30 3747 C 348.581 -0.765626 1.92213 0
M  V30 3748 C 348.996 -1.70353 0.813961 0
M  V30 3749 O 348.353 -1.81268 -0.211701 0
M  V30 3750 C 348.404 -1.5465 3.2675 0
M  V30 3751 O 348.125 -0.646278 4.33307 0
M  V30 3752 C 349.626 -2.35497 3.75574 0
M  V30 3753 H 346.846 -0.216835 0.634999 0
M  V30 3754 H 349.39 -0.0226146 2.04487 0
M  V30 3755 H 347.545 -2.24165 3.15957 0
M  V30 3756 H 347.959 -1.19093 5.108 0
M  V30 3757 H 349.433 -2.85722 4.72299 0
M  V30 3758 H 349.91 -3.15692 3.05344 0
M  V30 3759 H 350.516 -1.7111 3.8936 0
M  V30 3760 N 348.832 -1.54138 -0.328536 0
M  V30 3761 C 350.109 -1.62749 -1.08499 0
M  V30 3762 C 350.489 -0.458198 -2.06067 0
M  V30 3763 O 349.837 0.548046 -2.2183 0
M  V30 3764 C 350.047 -2.99519 -1.79135 0
M  V30 3765 C 351.395 -3.55394 -2.32337 0
M  V30 3766 O 352.419 -3.01792 -1.89209 0
M  V30 3767 O 351.278 -4.49186 -3.11279 0
M  V30 3768 H 348.372 -0.65886 -0.499832 0
M  V30 3769 H 350.918 -1.66484 -0.328826 0
M  V30 3770 H 349.69 -3.76061 -1.08139 0
M  V30 3771 H 349.313 -2.99441 -2.61574 0
M  V30 3772 N 350.31 0.590341 -1.46126 0
M  V30 3773 C 351.22 1.72793 -1.58681 0
M  V30 3774 C 352.236 1.67516 -0.470566 0
M  V30 3775 O 353.412 1.87562 -0.733642 0
M  V30 3776 C 350.477 3.09287 -1.5666 0
M  V30 3777 C 349.538 3.25886 -2.79458 0
M  V30 3778 C 348.771 4.55869 -2.77524 0
M  V30 3779 O 348.994 5.3928 -1.85832 0
M  V30 3780 O 347.928 4.75552 -3.68964 0
M  V30 3781 H 351.754 1.65149 -2.54872 0
M  V30 3782 H 349.339 0.756486 -1.28832 0
M  V30 3783 H 351.221 3.90577 -1.58202 0
M  V30 3784 H 349.896 3.17385 -0.636271 0
M  V30 3785 H 348.803 2.44119 -2.83472 0
M  V30 3786 H 350.136 3.22675 -3.71674 0
M  V30 3787 N 351.788 1.33704 0.83433 0
M  V30 3788 C 353.016 1.28467 1.62185 0
M  V30 3789 C 353.431 -0.143526 1.88254 0
M  V30 3790 O 352.788 -1.08709 1.4659 0
M  V30 3791 C 352.839 2.06174 2.96942 0
M  V30 3792 O 352.56 3.43422 2.72016 0
M  V30 3793 C 354.061 2.08201 3.91366 0
M  V30 3794 H 351.281 0.4424 0.504503 0
M  V30 3795 H 353.825 1.76145 1.03891 0
M  V30 3796 H 351.98 1.62167 3.51825 0
M  V30 3797 H 352.394 3.83453 3.57861 0
M  V30 3798 H 353.868 2.67017 4.83121 0
M  V30 3799 H 354.345 1.07343 4.2588 0
M  V30 3800 H 354.951 2.52246 3.42421 0
M  V30 3801 N 353.266 -1.05314 1.17247 0
M  V30 3802 C 354.491 -1.82509 0.985148 0
M  V30 3803 C 354.916 -1.82343 -0.461788 0
M  V30 3804 O 354.274 -1.23151 -1.33055 0
M  V30 3805 C 354.322 -3.26566 1.52929 0
M  V30 3806 O 353.426 -4.05666 0.742225 0
M  V30 3807 H 352.767 -0.564347 0.349869 0
M  V30 3808 H 355.297 -1.32718 1.55715 0
M  V30 3809 H 355.307 -3.77369 1.55103 0
M  V30 3810 H 353.982 -3.26001 2.58256 0
M  V30 3811 H 352.559 -3.64397 0.791794 0
M  V30 3812 N 354.744 -0.972509 -1.24016 0
M  V30 3813 C 355.991 -0.637034 -1.92219 0
M  V30 3814 C 356.319 0.828418 -1.75976 0
M  V30 3815 O 355.574 1.61206 -1.10955 0
M  V30 3816 C 355.873 -0.963694 -3.44162 0
M  V30 3817 C 355.539 -2.41807 -3.80579 0
M  V30 3818 C 354.201 -2.81556 -3.9023 0
M  V30 3819 C 356.553 -3.36172 -3.98293 0
M  V30 3820 C 353.881 -4.14702 -4.15017 0
M  V30 3821 C 356.233 -4.68952 -4.24578 0
M  V30 3822 C 354.897 -5.08472 -4.32449 0
M  V30 3823 H 354.167 -0.233107 -0.703379 0
M  V30 3824 H 356.814 -1.2249 -1.47202 0
M  V30 3825 H 355.119 -0.29365 -3.90698 0
M  V30 3826 H 356.816 -0.682449 -3.9515 0
M  V30 3827 H 353.406 -2.09988 -3.73635 0
M  V30 3828 H 357.59 -3.06644 -3.90234 0
M  V30 3829 H 352.846 -4.4494 -4.19331 0
M  V30 3830 H 357.02 -5.42037 -4.37229 0
M  V30 3831 H 354.647 -6.11665 -4.51409 0
M  V30 3832 N 356.222 1.38976 -0.743202 0
M  V30 3833 C 357.132 2.3434 -0.110399 0
M  V30 3834 C 358.148 1.58741 0.712559 0
M  V30 3835 O 359.324 1.9099 0.639125 0
M  V30 3836 C 356.389 3.37812 0.780012 0
M  V30 3837 C 355.45 4.29263 -0.0561319 0
M  V30 3838 C 354.683 5.27793 0.791875 0
M  V30 3839 O 354.906 5.33043 2.03031 0
M  V30 3840 O 353.84 6.01512 0.216183 0
M  V30 3841 H 357.666 2.90129 -0.897714 0
M  V30 3842 H 355.251 1.40643 -0.503966 0
M  V30 3843 H 357.133 4.01194 1.28923 0
M  V30 3844 H 355.808 2.84395 1.546 0
M  V30 3845 H 354.715 3.69076 -0.611056 0
M  V30 3846 H 356.048 4.85907 -0.784531 0
M  V30 3847 N 357.7 0.491464 1.49741 0
M  V30 3848 C 358.663 -0.280906 2.27472 0
M  V30 3849 C 359.663 -0.902454 1.33088 0
M  V30 3850 O 360.853 -0.768465 1.56334 0
M  V30 3851 C 357.985 -1.40209 3.10732 0
M  V30 3852 H 359.178 0.401056 2.97206 0
M  V30 3853 H 356.731 0.246131 1.5435 0
M  V30 3854 H 357.466 -2.11849 2.45541 0
M  V30 3855 H 357.251 -0.961969 3.80117 0
M  V30 3856 H 358.741 -1.9464 3.69466 0
M  V30 3857 N 359.178 -1.55987 0.224894 0
M  V30 3858 C 360.426 -1.97998 -0.405099 0
M  V30 3859 C 360.747 -1.11387 -1.60056 0
M  V30 3860 O 360.017 -0.191645 -1.9496 0
M  V30 3861 H 358.597 -0.731235 -0.152658 0
M  V30 3862 H 361.259 -1.92279 0.318567 0
M  V30 3863 H 360.355 -3.03463 -0.729167 0
M  V30 3864 N 360.656 0.0484629 -1.57525 0
M  V30 3865 C 361.905 0.742065 -1.87553 0
M  V30 3866 C 362.218 1.77545 -0.820802 0
M  V30 3867 O 363.424 2.52027 -1.00967 0
M  V30 3868 C 361.88 1.37081 -3.32771 0
M  V30 3869 C 361.488 0.374786 -4.4643 0
M  V30 3870 C 363.232 2.04542 -3.71972 0
M  V30 3871 C 361.139 1.01077 -5.82698 0
M  V30 3872 H 360.069 0.280903 -0.699721 0
M  V30 3873 H 362.72 -0.00411877 -1.835 0
M  V30 3874 H 361.102 2.16605 -3.31509 0
M  V30 3875 H 362.276 -0.392331 -4.59127 0
M  V30 3876 H 360.591 -0.196653 -4.15935 0
M  V30 3877 H 363.188 2.52943 -4.71088 0
M  V30 3878 H 363.531 2.85515 -3.02964 0
M  V30 3879 H 364.064 1.31819 -3.75325 0
M  V30 3880 H 360.803 0.240878 -6.55057 0
M  V30 3881 H 360.323 1.74819 -5.73758 0
M  V30 3882 H 362.002 1.52383 -6.28799 0
M  V30 3883 N 362.134 1.5431 0.320358 0
M  V30 3884 C 363.081 1.83918 1.39438 0
M  V30 3885 C 364.051 0.686525 1.51248 0
M  V30 3886 O 365.236 0.933269 1.66417 0
M  V30 3887 C 362.376 2.075 2.75749 0
M  V30 3888 C 361.489 3.35177 2.72544 0
M  V30 3889 C 360.624 3.48704 4.00723 0
M  V30 3890 C 359.663 4.70244 3.91838 0
M  V30 3891 N 358.8 4.80679 5.11754 0
M  V30 3892 H 363.64 2.75544 1.13489 0
M  V30 3893 H 361.177 1.36459 0.549309 0
M  V30 3894 H 363.135 2.19166 3.54996 0
M  V30 3895 H 361.765 1.19163 3 0
M  V30 3896 H 360.817 3.32233 1.85271 0
M  V30 3897 H 362.129 4.24534 2.61863 0
M  V30 3898 H 361.283 3.59928 4.88402 0
M  V30 3899 H 360.022 2.57445 4.14214 0
M  V30 3900 H 359.027 4.59072 3.02544 0
M  V30 3901 H 360.252 5.6289 3.7991 0
M  V30 3902 H 358.198 3.92337 5.25745 0
M  V30 3903 H 358.115 5.64007 5.0342 0
M  V30 3904 H 359.383 4.96239 6.01138 0
M  V30 3905 N 363.613 -0.582584 1.46437 0
M  V30 3906 C 364.859 -1.34278 1.51978 0
M  V30 3907 C 365.192 -1.93446 0.170973 0
M  V30 3908 O 364.467 -1.76481 -0.817608 0
M  V30 3909 C 364.75 -2.47203 2.61845 0
M  V30 3910 C 364.603 -1.93069 4.06257 0
M  V30 3911 C 365.922 -3.49247 2.67795 0
M  V30 3912 H 363.041 -0.486876 0.553282 0
M  V30 3913 H 365.683 -0.654437 1.78374 0
M  V30 3914 H 363.833 -3.0592 2.39469 0
M  V30 3915 H 365.505 -1.38808 4.3992 0
M  V30 3916 H 363.748 -1.23898 4.1573 0
M  V30 3917 H 364.419 -2.74586 4.7886 0
M  V30 3918 H 366.895 -3.00411 2.8791 0
M  V30 3919 H 365.771 -4.25719 3.46489 0
M  V30 3920 H 366.032 -4.06482 1.73852 0
M  V30 3921 N 365.091 -1.34144 -0.827227 0
M  V30 3922 C 366.023 -1.21206 -1.9453 0
M  V30 3923 C 367.036 -0.140176 -1.62195 0
M  V30 3924 O 368.225 -0.391647 -1.7415 0
M  V30 3925 C 365.325 -0.839141 -3.28347 0
M  V30 3926 C 364.498 -2.0051 -3.88734 0
M  V30 3927 C 363.557 -1.61128 -5.00923 0
M  V30 3928 O 362.583 -2.32726 -5.19449 0
M  V30 3929 N 363.785 -0.522958 -5.7814 0
M  V30 3930 H 366.55 -2.17525 -2.06162 0
M  V30 3931 H 364.111 -1.27043 -1.00358 0
M  V30 3932 H 366.103 -0.557556 -4.00841 0
M  V30 3933 H 364.673 0.0337293 -3.12582 0
M  V30 3934 H 363.893 -2.45166 -3.08686 0
M  V30 3935 H 365.181 -2.78498 -4.25812 0
M  V30 3936 H 364.579 0.0723518 -5.65654 0
M  V30 3937 H 363.136 -0.301089 -6.51104 0
M  V30 3938 N 366.569 1.04691 -1.17803 0
M  V30 3939 C 367.818 1.77176 -0.963931 0
M  V30 3940 C 368.131 1.88888 0.508015 0
M  V30 3941 O 369.337 2.58164 0.840465 0
M  V30 3942 C 367.793 3.18518 -1.67555 0
M  V30 3943 C 367.401 3.14919 -3.18637 0
M  V30 3944 C 369.145 3.95424 -1.54402 0
M  V30 3945 C 367.052 4.51081 -3.82466 0
M  V30 3946 H 365.982 0.664116 -0.357023 0
M  V30 3947 H 368.633 1.17303 -1.4111 0
M  V30 3948 H 367.015 3.78748 -1.15613 0
M  V30 3949 H 368.189 2.64178 -3.77554 0
M  V30 3950 H 366.504 2.51512 -3.31859 0
M  V30 3951 H 369.101 4.96106 -1.99456 0
M  V30 3952 H 369.444 4.13343 -0.495329 0
M  V30 3953 H 369.977 3.41754 -2.0359 0
M  V30 3954 H 366.716 4.38368 -4.87354 0
M  V30 3955 H 366.236 5.01951 -3.28337 0
M  V30 3956 H 367.915 5.2001 -3.84965 0
M  V30 3957 N 368.047 0.979072 1.23499 0
M  V30 3958 C 368.997 0.489378 2.22686 0
M  V30 3959 C 369.981 -0.434871 1.54912 0
M  V30 3960 O 371.173 -0.263941 1.75021 0
M  V30 3961 C 368.302 -0.208178 3.42668 0
M  V30 3962 C 367.388 0.735563 4.17672 0
M  V30 3963 N 367.779 1.87763 4.69658 0
M  V30 3964 C 366.077 0.548625 4.42613 0
M  V30 3965 C 366.778 2.46886 5.26709 0
M  V30 3966 N 365.754 1.75287 5.14563 0
M  V30 3967 H 369.556 1.36062 2.60508 0
M  V30 3968 H 367.07 0.83958 1.39014 0
M  V30 3969 H 369.067 -0.576295 4.12898 0
M  V30 3970 H 367.727 -1.07572 3.06363 0
M  V30 3971 H 368.738 2.25885 4.66043 0
M  V30 3972 H 365.415 -0.274006 4.166 0
M  V30 3973 H 366.805 3.43326 5.77561 0
M  V30 3974 N 369.525 -1.3858 0.750561 0
M  V30 3975 C 370.75 -2.04997 0.314812 0
M  V30 3976 C 371.175 -1.56235 -1.04749 0
M  V30 3977 O 370.533 -0.712981 -1.66692 0
M  V30 3978 C 370.581 -3.58961 0.343415 0
M  V30 3979 O 369.685 -4.07025 -0.663628 0
M  V30 3980 H 369.026 -0.649081 0.139962 0
M  V30 3981 H 371.556 -1.77313 1.02084 0
M  V30 3982 H 371.566 -4.07542 0.193233 0
M  V30 3983 H 370.241 -3.93811 1.33738 0
M  V30 3984 H 368.818 -3.6982 -0.478307 0
M  V30 3985 N 371.003 -0.499398 -1.49478 0
M  V30 3986 C 371.935 0.316575 -2.27003 0
M  V30 3987 C 372.948 0.932047 -1.33479 0
M  V30 3988 O 374.137 0.815658 -1.58774 0
M  V30 3989 C 371.237 1.46055 -3.05812 0
M  V30 3990 C 370.41 0.952679 -4.26899 0
M  V30 3991 C 369.469 1.97407 -4.87767 0
M  V30 3992 O 368.495 1.54326 -5.4788 0
M  V30 3993 N 369.697 3.30436 -4.77276 0
M  V30 3994 H 372.462 -0.348168 -2.97671 0
M  V30 3995 H 370.023 -0.33185 -1.58463 0
M  V30 3996 H 372.015 2.14135 -3.43407 0
M  V30 3997 H 370.585 2.02948 -2.37762 0
M  V30 3998 H 369.805 0.0968248 -3.94081 0
M  V30 3999 H 371.093 0.59174 -5.05347 0
M  V30 4000 H 370.491 3.68126 -4.29534 0
M  V30 4001 H 369.048 3.94235 -5.19059 0
M  V30 4002 N 372.481 1.55866 -0.233164 0
M  V30 4003 C 373.758 1.90471 0.444988 0
M  V30 4004 C 374.138 1.15209 1.7689 0
M  V30 4005 O 373.486 0.265119 2.26957 0
M  V30 4006 C 373.696 3.4333 0.626559 0
M  V30 4007 C 375.044 4.14319 0.92871 0
M  V30 4008 O 376.068 3.48993 0.712926 0
M  V30 4009 O 374.927 5.29846 1.33887 0
M  V30 4010 H 372.021 0.792347 0.236885 0
M  V30 4011 H 374.567 1.67437 -0.276211 0
M  V30 4012 H 373.339 3.90095 -0.306822 0
M  V30 4013 H 372.962 3.72181 1.39881 0
M  V30 4014 N 373.959 -0.0401083 1.57549 0
M  V30 4015 C 374.869 -1.06133 2.0922 0
M  V30 4016 C 375.885 -1.40356 1.0284 0
M  V30 4017 O 377.061 -1.49897 1.34509 0
M  V30 4018 C 374.126 -2.34658 2.55218 0
M  V30 4019 C 373.187 -2.07117 3.76033 0
M  V30 4020 C 372.42 -3.29514 4.19829 0
M  V30 4021 O 372.643 -4.39794 3.63232 0
M  V30 4022 O 371.577 -3.15863 5.12362 0
M  V30 4023 H 375.403 -0.652244 2.96613 0
M  V30 4024 H 372.988 -0.256368 1.47184 0
M  V30 4025 H 374.87 -3.10239 2.85184 0
M  V30 4026 H 373.545 -2.74883 1.70941 0
M  V30 4027 H 372.452 -1.29139 3.51104 0
M  V30 4028 H 373.785 -1.71754 4.61261 0
M  V30 4029 N 375.437 -1.54477 -0.31217 0
M  V30 4030 C 376.848 -1.64344 -0.885891 0
M  V30 4031 C 377.199 -0.54485 -1.88483 0
M  V30 4032 O 376.324 0.320387 -2.14015 0
M  V30 4033 C 376.919 -2.97908 -1.61357 0
M  V30 4034 C 375.478 -3.09933 -2.13585 0
M  V30 4035 C 374.625 -2.59971 -0.964897 0
M  V30 4036 H 377.576 -1.58448 -0.0894528 0
M  V30 4037 H 377.597 -2.88706 -2.47848 0
M  V30 4038 H 377.109 -3.77845 -0.886277 0
M  V30 4039 H 375.21 -2.34694 -2.89395 0
M  V30 4040 H 375.323 -4.15916 -2.37804 0
M  V30 4041 H 373.687 -2.16147 -1.34731 0
M  V30 4042 H 374.47 -3.42376 -0.251742 0
M  V30 4043 N 376.915 0.57481 -1.46744 0
M  V30 4044 C 378.326 1.15695 -1.46532 0
M  V30 4045 C 378.677 1.95068 -0.210425 0
M  V30 4046 O 377.802 2.05241 0.685944 0
M  V30 4047 C 378.397 2.1048 -2.65487 0
M  V30 4048 C 376.956 2.64002 -2.68291 0
M  V30 4049 C 376.103 1.40026 -2.39349 0
M  V30 4050 H 379.054 0.362325 -1.54509 0
M  V30 4051 H 379.075 2.94074 -2.41455 0
M  V30 4052 H 378.587 1.52683 -3.56805 0
M  V30 4053 H 376.688 3.25646 -1.81067 0
M  V30 4054 H 376.801 3.06197 -3.68483 0
M  V30 4055 H 375.165 1.70106 -1.89568 0
M  V30 4056 H 375.948 0.840485 -3.32852 0
M  V30 4057 N 378.394 1.34581 0.820102 0
M  V30 4058 C 379.641 1.27096 1.57648 0
M  V30 4059 C 379.969 -0.158317 1.93855 0
M  V30 4060 O 379.224 -1.12028 1.60463 0
M  V30 4061 C 379.523 2.10997 2.8847 0
M  V30 4062 C 379.189 3.59966 2.71543 0
M  V30 4063 C 377.851 4.00575 2.66634 0
M  V30 4064 C 380.203 4.54548 2.55021 0
M  V30 4065 C 377.531 5.33953 2.43128 0
M  V30 4066 C 379.883 5.88109 2.33047 0
M  V30 4067 C 378.547 6.27878 2.26552 0
M  V30 4068 H 377.817 0.465078 0.576874 0
M  V30 4069 H 380.464 1.6635 0.948671 0
M  V30 4070 H 378.769 1.6458 3.55557 0
M  V30 4071 H 380.466 2.0255 3.46084 0
M  V30 4072 H 377.056 3.27733 2.76205 0
M  V30 4073 H 381.24 4.24069 2.57835 0
M  V30 4074 H 376.496 5.63781 2.3656 0
M  V30 4075 H 380.67 6.60985 2.19251 0
M  V30 4076 H 378.297 7.31162 2.081 0
M  V30 4077 N 379.872 -1.04064 1.18357 0
M  V30 4078 C 381.121 -1.76662 0.973313 0
M  V30 4079 C 381.434 -1.89154 -0.497991 0
M  V30 4080 O 382.64 -2.58606 -0.826762 0
M  V30 4081 C 381.096 -3.17624 1.69242 0
M  V30 4082 C 380.704 -3.13225 3.20303 0
M  V30 4083 C 382.448 -3.946 1.56497 0
M  V30 4084 C 380.355 -4.49046 3.84853 0
M  V30 4085 H 379.285 -0.662214 0.36054 0
M  V30 4086 H 381.936 -1.16553 1.41731 0
M  V30 4087 H 380.318 -3.78129 1.1762 0
M  V30 4088 H 381.492 -2.62172 3.78949 0
M  V30 4089 H 379.807 -2.49749 3.33189 0
M  V30 4090 H 382.404 -4.95042 2.02084 0
M  V30 4091 H 382.747 -4.13074 0.517243 0
M  V30 4092 H 383.28 -3.4067 2.05399 0
M  V30 4093 H 380.019 -4.35777 4.89672 0
M  V30 4094 H 379.539 -5.00203 3.30994 0
M  V30 4095 H 381.218 -5.17961 3.87718 0
M  V30 4096 N 381.35 -0.985608 -1.22978 0
M  V30 4097 C 382.627 -0.573599 -1.87001 0
M  V30 4098 C 383.007 0.949213 -1.88555 0
M  V30 4099 O 382.355 1.82811 -1.37086 0
M  V30 4100 C 382.565 -1.18564 -3.28243 0
M  V30 4101 C 383.913 -1.28163 -4.04796 0
M  V30 4102 O 384.937 -1.13949 -3.37482 0
M  V30 4103 O 383.796 -1.50832 -5.25273 0
M  V30 4104 H 380.89 -0.193868 -0.803955 0
M  V30 4105 H 383.436 -1.08102 -1.30813 0
M  V30 4106 H 382.208 -2.22758 -3.21706 0
M  V30 4107 H 381.831 -0.663363 -3.92027 0
M  V30 4108 N 382.828 1.3818 -0.7579 0
M  V30 4109 C 383.76 2.2901 -0.0932177 0
M  V30 4110 C 384.773 1.47958 0.679136 0
M  V30 4111 O 385.962 1.70773 0.519514 0
M  V30 4112 C 383.062 3.26953 0.89192 0
M  V30 4113 C 382.235 4.37045 0.176303 0
M  V30 4114 C 381.294 5.15148 1.07281 0
M  V30 4115 O 380.32 5.66616 0.541728 0
M  V30 4116 N 381.522 5.28542 2.40049 0
M  V30 4117 H 384.287 2.86694 -0.873303 0
M  V30 4118 H 381.848 1.50007 -0.609054 0
M  V30 4119 H 383.84 3.76083 1.49479 0
M  V30 4120 H 382.41 2.70136 1.57306 0
M  V30 4121 H 381.63 3.89493 -0.607328 0
M  V30 4122 H 382.918 5.07801 -0.318718 0
M  V30 4123 H 382.316 4.88285 2.85647 0
M  V30 4124 H 380.873 5.8103 2.95376 0
M  V30 4125 N 384.306 0.507319 1.49211 0
M  V30 4126 C 385.236 -0.256939 2.32082 0
M  V30 4127 C 386.217 -0.956609 1.40652 0
M  V30 4128 O 387.402 -0.946788 1.69557 0
M  V30 4129 C 384.532 -1.31802 3.21318 0
M  V30 4130 C 383.486 -0.737855 4.21592 0
M  V30 4131 C 382.812 -1.89992 4.99807 0
M  V30 4132 C 384.112 0.275325 5.21574 0
M  V30 4133 H 385.806 0.434798 2.96226 0
M  V30 4134 H 383.352 0.210546 1.42452 0
M  V30 4135 H 385.305 -1.86045 3.78107 0
M  V30 4136 H 384.029 -2.03903 2.5513 0
M  V30 4137 H 382.688 -0.217126 3.65956 0
M  V30 4138 H 382.336 -2.60877 4.30061 0
M  V30 4139 H 382.036 -1.51777 5.6766 0
M  V30 4140 H 383.56 -2.44657 5.59442 0
M  V30 4141 H 384.974 -0.179193 5.7302 0
M  V30 4142 H 383.371 0.573649 5.97352 0
M  V30 4143 H 384.441 1.18903 4.70096 0
M  V30 4144 N 385.784 -1.5574 0.241426 0
M  V30 4145 C 387.032 -1.98417 -0.384075 0
M  V30 4146 C 387.353 -1.13078 -1.58866 0
M  V30 4147 O 386.623 -0.212312 -1.94746 0
M  V30 4148 H 385.203 -0.732813 -0.144894 0
M  V30 4149 H 387.865 -1.9193 0.338943 0
M  V30 4150 H 386.961 -3.04219 -0.696939 0
M  V30 4151 N 387.262 0.0317525 -1.57568 0
M  V30 4152 C 388.509 0.723104 -1.89149 0
M  V30 4153 C 388.837 1.75504 -0.838377 0
M  V30 4154 O 388.092 1.95037 0.160982 0
M  V30 4155 C 388.391 1.43167 -3.27472 0
M  V30 4156 C 388.057 0.535972 -4.47703 0
M  V30 4157 C 386.719 0.289262 -4.8033 0
M  V30 4158 C 389.071 -0.0826125 -5.21135 0
M  V30 4159 C 386.399 -0.584853 -5.83778 0
M  V30 4160 C 388.751 -0.944414 -6.25511 0
M  V30 4161 C 387.415 -1.20061 -6.56614 0
M  V30 4162 H 386.685 0.264602 -0.692146 0
M  V30 4163 H 389.332 -0.0169496 -1.91492 0
M  V30 4164 H 387.637 2.24497 -3.21105 0
M  V30 4165 H 389.334 1.97209 -3.49155 0
M  V30 4166 H 385.924 0.738414 -4.22191 0
M  V30 4167 H 390.108 0.0950302 -4.96209 0
M  V30 4168 H 385.364 -0.79168 -6.06253 0
M  V30 4169 H 389.538 -1.43026 -6.81554 0
M  V30 4170 H 387.165 -1.87967 -7.36595 0
M  V30 4171 N 388.74 1.54641 0.303973 0
M  V30 4172 C 389.988 1.73437 1.0375 0
M  V30 4173 C 390.309 0.521449 1.87899 0
M  V30 4174 O 389.579 -0.46432 1.90318 0
M  V30 4175 H 388.159 0.639518 0.386039 0
M  V30 4176 H 390.821 1.91988 0.335675 0
M  V30 4177 H 389.917 2.62235 1.69231 0
M  V30 4178 N 390.218 -0.567019 1.47046 0
M  V30 4179 C 391.464 -1.32658 1.53394 0
M  V30 4180 C 391.797 -1.93254 0.19148 0
M  V30 4181 O 391.072 -1.77338 -0.798844 0
M  V30 4182 C 391.355 -2.44412 2.64452 0
M  V30 4183 C 391.208 -1.88749 4.08282 0
M  V30 4184 C 392.527 -3.46387 2.71485 0
M  V30 4185 H 389.646 -0.48098 0.558415 0
M  V30 4186 H 392.288 -0.635481 1.79058 0
M  V30 4187 H 390.438 -3.03363 2.427 0
M  V30 4188 H 392.11 -1.34134 4.41368 0
M  V30 4189 H 390.353 -1.19481 4.17021 0
M  V30 4190 H 391.024 -2.69491 4.81745 0
M  V30 4191 H 393.5 -2.9734 2.91081 0
M  V30 4192 H 392.376 -4.2202 3.50985 0
M  V30 4193 H 392.637 -4.04616 1.78153 0
M  V30 4194 N 391.696 -1.35014 -0.812953 0
M  V30 4195 C 392.659 -1.27292 -1.90602 0
M  V30 4196 C 393.659 -0.185817 -1.59723 0
M  V30 4197 O 394.849 -0.439102 -1.68575 0
M  V30 4198 C 391.981 -0.967676 -3.26877 0
M  V30 4199 H 393.174 -2.24479 -1.9887 0
M  V30 4200 H 390.727 -1.19446 -1.00808 0
M  V30 4201 H 391.462 0.0005954 -3.243 0
M  V30 4202 H 391.247 -1.75412 -3.50675 0
M  V30 4203 H 392.737 -0.939085 -4.06904 0
M  V30 4204 N 393.175 1.03435 -1.18907 0
M  V30 4205 C 394.586 1.58195 -0.991523 0
M  V30 4206 C 394.937 1.90801 0.457081 0
M  V30 4207 O 394.062 1.70272 1.33553 0
M  V30 4208 C 394.657 2.87432 -1.79355 0
M  V30 4209 C 393.216 3.38785 -1.64017 0
M  V30 4210 C 392.363 2.12292 -1.78402 0
M  V30 4211 H 395.314 0.860299 -1.33359 0
M  V30 4212 H 395.335 3.58096 -1.28638 0
M  V30 4213 H 394.847 2.63669 -2.84781 0
M  V30 4214 H 392.948 3.67547 -0.611536 0
M  V30 4215 H 393.061 4.12186 -2.44212 0
M  V30 4216 H 391.425 2.23901 -1.2141 0
M  V30 4217 H 392.208 1.90977 -2.85277 0
M  V30 4218 N 394.653 0.992116 1.22453 0
M  V30 4219 C 395.901 0.666215 1.90804 0
M  V30 4220 C 396.222 -0.804152 1.77647 0
M  V30 4221 O 395.492 -1.57629 1.16318 0
M  V30 4222 H 394.072 0.243423 0.706225 0
M  V30 4223 H 396.734 1.25845 1.48825 0
M  V30 4224 H 395.83 0.928069 2.97982 0
M  V30 4225 N 396.131 -1.37776 0.765217 0
M  V30 4226 C 397.378 -1.99849 0.326588 0
M  V30 4227 C 397.706 -1.60746 -1.09504 0
M  V30 4228 O 396.961 -0.84202 -1.76659 0
M  V30 4229 C 397.26 -3.5504 0.410053 0
M  V30 4230 C 396.926 -4.13891 1.78899 0
M  V30 4231 C 395.588 -4.29678 2.16635 0
M  V30 4232 C 397.94 -4.46236 2.69301 0
M  V30 4233 C 395.268 -4.7511 3.44221 0
M  V30 4234 C 397.62 -4.93089 3.9629 0
M  V30 4235 C 396.284 -5.07082 4.34078 0
M  V30 4236 H 395.554 -0.7313 0.119507 0
M  V30 4237 H 398.201 -1.64645 0.977968 0
M  V30 4238 H 396.506 -3.90451 -0.324878 0
M  V30 4239 H 398.203 -4.00966 0.0520699 0
M  V30 4240 H 394.793 -4.02026 1.48569 0
M  V30 4241 H 398.977 -4.3363 2.41409 0
M  V30 4242 H 394.233 -4.84129 3.73402 0
M  V30 4243 H 398.407 -5.17084 4.66472 0
M  V30 4244 H 396.034 -5.42046 5.33001 0
M  V30 4245 N 397.609 -0.515225 -1.4894 0
M  V30 4246 C 398.541 0.292481 -2.27326 0
M  V30 4247 C 399.554 0.917838 -1.3446 0
M  V30 4248 O 400.743 0.798772 -1.5963 0
M  V30 4249 C 397.843 1.42803 -3.07344 0
M  V30 4250 C 397.016 0.907347 -4.27885 0
M  V30 4251 C 396.075 1.92222 -4.89834 0
M  V30 4252 O 395.101 1.48506 -5.49486 0
M  V30 4253 N 396.303 3.25355 -4.80754 0
M  V30 4254 H 399.068 -0.379721 -2.97285 0
M  V30 4255 H 396.629 -0.348638 -1.58102 0
M  V30 4256 H 398.621 2.10481 -3.45658 0
M  V30 4257 H 397.191 2.00414 -2.39902 0
M  V30 4258 H 396.411 0.0550218 -3.94162 0
M  V30 4259 H 397.699 0.538108 -5.05946 0
M  V30 4260 H 397.097 3.6355 -4.33414 0
M  V30 4261 H 395.654 3.88707 -5.23211 0
M  V30 4262 N 399.087 1.5561 -0.249682 0
M  V30 4263 C 400.315 2.03411 0.378352 0
M  V30 4264 C 400.73 1.12886 1.51335 0
M  V30 4265 O 400.087 0.143833 1.81932 0
M  V30 4266 C 400.138 3.50537 0.88351 0
M  V30 4267 O 399.859 4.37614 -0.20626 0
M  V30 4268 C 401.36 4.14113 1.58195 0
M  V30 4269 H 398.58 0.664994 0.08958 0
M  V30 4270 H 401.124 2.01044 -0.374357 0
M  V30 4271 H 399.279 3.5343 1.58639 0
M  V30 4272 H 399.693 5.24199 0.177782 0
M  V30 4273 H 401.167 5.18741 1.8871 0
M  V30 4274 H 401.644 3.60767 2.50487 0
M  V30 4275 H 402.25 4.15151 0.923573 0
M  V30 4276 N 400.565 -0.0233959 1.57583 0
M  V30 4277 C 401.812 -0.713063 1.8953 0
M  V30 4278 C 402.14 -1.75056 0.847673 0
M  V30 4279 O 401.395 -1.95119 -0.150636 0
M  V30 4280 C 401.694 -1.41428 3.28227 0
M  V30 4281 C 401.36 -0.512222 4.47981 0
M  V30 4282 C 400.022 -0.263785 4.80476 0
M  V30 4283 C 402.374 0.110248 5.21083 0
M  V30 4284 C 399.702 0.615804 5.83459 0
M  V30 4285 C 402.054 0.977573 6.25001 0
M  V30 4286 C 400.718 1.23542 6.55968 0
M  V30 4287 H 399.988 -0.260928 0.69354 0
M  V30 4288 H 402.635 0.0271047 1.91481 0
M  V30 4289 H 400.94 -2.22791 3.22291 0
M  V30 4290 H 402.637 -1.95355 3.50196 0
M  V30 4291 H 399.227 -0.716013 4.22577 0
M  V30 4292 H 403.411 -0.0687137 4.96252 0
M  V30 4293 H 398.667 0.82382 6.05824 0
M  V30 4294 H 402.841 1.46638 6.80786 0
M  V30 4295 H 400.468 1.91871 7.35588 0
M  V30 4296 N 402.043 -1.548 -0.295768 0
M  V30 4297 C 403.289 -1.74588 -1.03184 0
M  V30 4298 C 403.622 -0.532962 -1.86744 0
M  V30 4299 O 402.897 0.469872 -1.88739 0
M  V30 4300 C 403.18 -3.03791 -1.93347 0
M  V30 4301 C 403.033 -4.35392 -1.12933 0
M  V30 4302 C 404.352 -3.28892 -2.92435 0
M  V30 4303 H 401.471 -0.635221 -0.373715 0
M  V30 4304 H 404.113 -1.87519 -0.30606 0
M  V30 4305 H 402.263 -2.92898 -2.55232 0
M  V30 4306 H 403.935 -4.58211 -0.532943 0
M  V30 4307 H 402.178 -4.31642 -0.432168 0
M  V30 4308 H 402.849 -5.22074 -1.79284 0
M  V30 4309 H 405.325 -3.39429 -2.4068 0
M  V30 4310 H 404.201 -4.20603 -3.52682 0
M  V30 4311 H 404.462 -2.47437 -3.6637 0
M  V30 4312 N 403.521 0.559213 -1.47345 0
M  V30 4313 C 404.484 1.64854 -1.59235 0
M  V30 4314 C 405.484 1.53851 -0.467607 0
M  V30 4315 O 406.674 1.58045 -0.732617 0
M  V30 4316 C 403.806 3.04388 -1.53496 0
M  V30 4317 H 404.999 1.55662 -2.56339 0
M  V30 4318 H 402.552 0.778973 -1.35505 0
M  V30 4319 H 403.287 3.19115 -0.577604 0
M  V30 4320 H 403.072 3.13783 -2.35123 0
M  V30 4321 H 404.562 3.83642 -1.6495 0
M  V30 4322 N 404.999 1.35443 0.805782 0
M  V30 4323 C 406.239 1.30127 1.57627 0
M  V30 4324 C 406.603 -0.122567 1.91608 0
M  V30 4325 O 407.804 -0.300107 2.67119 0
M  V30 4326 C 406.075 2.18314 2.82973 0
M  V30 4327 S 407.634 2.30521 3.7337 0
M  V30 4328 H 404.452 0.462439 0.540066 0
M  V30 4329 H 407.054 1.70843 0.95042 0
M  V30 4330 H 405.758 3.20741 2.56034 0
M  V30 4331 H 405.289 1.78558 3.50543 0
M  V30 4332 H 407.304 1.49062 4.73281 0
M  V30 4333 N 406.477 -1.02803 1.19454 0
M  V30 4334 C 407.409 -2.11181 0.890807 0
M  V30 4335 C 408.422 -1.6238 -0.116829 0
M  V30 4336 O 409.611 -1.78144 0.112694 0
M  V30 4337 C 406.711 -3.37461 0.311942 0
M  V30 4338 C 405.884 -4.15446 1.36834 0
M  V30 4339 C 404.943 -5.20039 0.802864 0
M  V30 4340 O 403.969 -5.49602 1.48077 0
M  V30 4341 N 405.171 -5.79165 -0.393417 0
M  V30 4342 H 407.936 -2.37827 1.82369 0
M  V30 4343 H 405.497 -1.19101 1.09666 0
M  V30 4344 H 407.489 -4.0462 -0.0802225 0
M  V30 4345 H 406.059 -3.08156 -0.52524 0
M  V30 4346 H 405.279 -3.43423 1.93531 0
M  V30 4347 H 406.567 -4.64335 2.08015 0
M  V30 4348 H 405.965 -5.57466 -0.961658 0
M  V30 4349 H 404.522 -6.47729 -0.727351 0
M  V30 4350 N 407.956 -0.998596 -1.21925 0
M  V30 4351 C 408.866 -0.562736 -2.27751 0
M  V30 4352 C 409.882 0.391203 -1.69545 0
M  V30 4353 O 411.058 0.256625 -1.99758 0
M  V30 4354 C 408.123 0.11012 -3.46525 0
M  V30 4355 C 407.184 -0.887495 -4.20026 0
M  V30 4356 C 406.417 -0.246654 -5.3313 0
M  V30 4357 O 406.64 0.958088 -5.62296 0
M  V30 4358 O 405.574 -0.954374 -5.94286 0
M  V30 4359 H 409.4 -1.44329 -2.67213 0
M  V30 4360 H 406.985 -0.767135 -1.28201 0
M  V30 4361 H 408.867 0.486756 -4.18579 0
M  V30 4362 H 407.542 0.965154 -3.08976 0
M  V30 4363 H 406.449 -1.31517 -3.5022 0
M  V30 4364 H 407.782 -1.71191 -4.6147 0
M  V30 4365 N 409.434 1.37368 -0.772513 0
M  V30 4366 C 410.366 2.28899 -0.117502 0
M  V30 4367 C 411.379 1.4867 0.663405 0
M  V30 4368 O 412.568 1.71314 0.501372 0
M  V30 4369 C 409.668 3.2788 0.857192 0
M  V30 4370 C 408.841 4.37207 0.129938 0
M  V30 4371 C 407.9 5.16257 1.01811 0
M  V30 4372 O 406.926 5.67159 0.481601 0
M  V30 4373 N 408.128 5.31058 2.3443 0
M  V30 4374 H 410.893 2.85752 -0.903662 0
M  V30 4375 H 408.454 1.49353 -0.62493 0
M  V30 4376 H 410.446 3.77647 1.45482 0
M  V30 4377 H 409.016 2.7179 1.54432 0
M  V30 4378 H 408.236 3.88827 -0.648605 0
M  V30 4379 H 409.524 5.07434 -0.372559 0
M  V30 4380 H 408.922 4.91287 2.80452 0
M  V30 4381 H 407.479 5.84131 2.89197 0
M  V30 4382 N 410.912 0.523116 1.48665 0
M  V30 4383 C 412.328 0.180511 1.58576 0
M  V30 4384 C 412.528 -1.31597 1.52592 0
M  V30 4385 O 411.584 -2.0937 1.4114 0
M  V30 4386 C 412.897 0.776949 2.90489 0
M  V30 4387 C 414.445 0.745058 3.04003 0
M  V30 4388 C 414.92 1.31995 4.38567 0
M  V30 4389 N 416.411 1.28162 4.45117 0
M  V30 4390 C 417.146 1.6964 5.47731 0
M  V30 4391 N 416.642 2.18816 6.57337 0
M  V30 4392 N 418.435 1.6092 5.38573 0
M  V30 4393 H 410.586 1.4958 1.50797 0
M  V30 4394 H 412.849 0.621772 0.715614 0
M  V30 4395 H 412.555 1.82732 3.00503 0
M  V30 4396 H 412.429 0.25007 3.7637 0
M  V30 4397 H 414.816 -0.296532 2.93606 0
M  V30 4398 H 414.897 1.30933 2.1975 0
M  V30 4399 H 414.541 2.36043 4.49718 0
M  V30 4400 H 414.471 0.731418 5.21496 0
M  V30 4401 H 416.962 0.92155 3.66491 0
M  V30 4402 H 417.275 2.48478 7.31764 0
M  V30 4403 H 415.62 2.22805 6.58318 0
M  V30 4404 H 418.811 1.22304 4.5184 0
M  V30 4405 H 418.984 1.93567 6.18414 0
M  V30 4406 N 412.39 -1.55475 0.257931 0
M  V30 4407 C 413.32 -2.24815 -0.630912 0
M  V30 4408 C 414.301 -1.23224 -1.17259 0
M  V30 4409 O 415.486 -1.51904 -1.20991 0
M  V30 4410 C 412.616 -2.95609 -1.82298 0
M  V30 4411 C 411.57 -4.03982 -1.41359 0
M  V30 4412 C 410.896 -4.6226 -2.68738 0
M  V30 4413 C 412.196 -5.19109 -0.57648 0
M  V30 4414 H 413.89 -2.99354 -0.0526878 0
M  V30 4415 H 411.436 -1.4398 -0.023901 0
M  V30 4416 H 413.389 -3.42822 -2.45054 0
M  V30 4417 H 412.113 -2.18577 -2.42676 0
M  V30 4418 H 410.772 -3.57555 -0.809324 0
M  V30 4419 H 410.42 -3.81915 -3.27338 0
M  V30 4420 H 410.12 -5.35424 -2.42065 0
M  V30 4421 H 411.644 -5.12212 -3.32372 0
M  V30 4422 H 413.058 -5.62479 -1.10861 0
M  V30 4423 H 411.455 -5.98729 -0.405351 0
M  V30 4424 H 412.525 -4.83174 0.408776 0
M  V30 4425 N 413.868 0.0150385 -1.57593 0
M  V30 4426 C 415.117 0.702115 -1.89085 0
M  V30 4427 C 415.43 1.75764 -0.858277 0
M  V30 4428 O 416.636 2.49829 -1.0629 0
M  V30 4429 C 415.092 1.29992 -3.35604 0
M  V30 4430 C 414.7 0.280007 -4.47124 0
M  V30 4431 C 416.444 1.96606 -3.76227 0
M  V30 4432 C 414.351 0.886949 -5.84711 0
M  V30 4433 H 413.281 0.265997 -0.705522 0
M  V30 4434 H 415.932 -0.0430408 -1.8345 0
M  V30 4435 H 414.314 2.09525 -3.36029 0
M  V30 4436 H 415.488 -0.489631 -4.58191 0
M  V30 4437 H 413.803 -0.284835 -4.15425 0
M  V30 4438 H 416.4 2.42893 -4.76347 0
M  V30 4439 H 416.743 2.79024 -3.08952 0
M  V30 4440 H 417.276 1.23828 -3.78036 0
M  V30 4441 H 414.015 0.101876 -6.55421 0
M  V30 4442 H 413.535 1.6261 -5.77337 0
M  V30 4443 H 415.214 1.39011 -6.3189 0
M  V30 4444 N 415.346 1.54954 0.287554 0
M  V30 4445 C 416.576 1.78622 1.03816 0
M  V30 4446 C 416.984 0.552451 1.80955 0
M  V30 4447 O 416.327 -0.487665 1.77109 0
M  V30 4448 C 416.389 2.94975 2.055 0
M  V30 4449 C 416.053 4.32565 1.47433 0
M  V30 4450 C 417.05 5.12096 0.897436 0
M  V30 4451 C 414.735 4.79195 1.50591 0
M  V30 4452 C 416.729 6.36383 0.359851 0
M  V30 4453 C 414.416 6.03441 0.964459 0
M  V30 4454 C 415.414 6.81872 0.392413 0
M  V30 4455 O 415.102 8.03777 -0.140788 0
M  V30 4456 H 414.834 0.599144 0.313053 0
M  V30 4457 H 417.388 2.02761 0.328225 0
M  V30 4458 H 415.618 2.66493 2.80211 0
M  V30 4459 H 417.307 3.06097 2.6657 0
M  V30 4460 H 418.073 4.77209 0.865841 0
M  V30 4461 H 413.952 4.18167 1.94055 0
M  V30 4462 H 417.496 6.97545 -0.0872951 0
M  V30 4463 H 413.393 6.37813 0.993246 0
M  V30 4464 H 414.161 8.18495 -0.0287617 0
M  V30 4465 N 416.824 -0.551391 1.4764 0
M  V30 4466 C 417.754 -1.66757 1.63445 0
M  V30 4467 C 418.735 -1.63077 0.483742 0
M  V30 4468 O 419.92 -1.80607 0.71377 0
M  V30 4469 C 417.05 -3.05387 1.65396 0
M  V30 4470 C 416.004 -3.23918 2.79752 0
M  V30 4471 C 415.33 -4.63393 2.66779 0
M  V30 4472 C 416.63 -3.08735 4.21284 0
M  V30 4473 H 418.324 -1.53786 2.56886 0
M  V30 4474 H 415.87 -0.738415 1.23626 0
M  V30 4475 H 417.823 -3.83325 1.75043 0
M  V30 4476 H 416.547 -3.19332 0.685195 0
M  V30 4477 H 415.206 -2.48391 2.69625 0
M  V30 4478 H 414.854 -4.74144 1.67918 0
M  V30 4479 H 414.554 -4.7674 3.43501 0
M  V30 4480 H 416.078 -5.43458 2.78364 0
M  V30 4481 H 417.492 -3.76484 4.32357 0
M  V30 4482 H 415.889 -3.33588 4.98838 0
M  V30 4483 H 416.959 -2.0541 4.39243 0
M  V30 4484 N 418.302 -1.35869 -0.798587 0
M  V30 4485 C 419.713 -1.26498 -1.37314 0
M  V30 4486 C 420.064 0.0991899 -1.95949 0
M  V30 4487 O 419.189 1.0004 -1.91888 0
M  V30 4488 C 419.784 -2.29054 -2.49639 0
M  V30 4489 C 418.343 -2.234 -3.02935 0
M  V30 4490 C 417.49 -2.14329 -1.75949 0
M  V30 4491 H 420.441 -1.46881 -0.600971 0
M  V30 4492 H 420.462 -1.92166 -3.28409 0
M  V30 4493 H 419.974 -3.2833 -2.06933 0
M  V30 4494 H 418.075 -1.27562 -3.50084 0
M  V30 4495 H 418.188 -3.15703 -3.60372 0
M  V30 4496 H 416.552 -1.60435 -1.9782 0
M  V30 4497 H 417.335 -3.15477 -1.35384 0
M  V30 4498 N 419.78 1.02168 -1.19998 0
M  V30 4499 C 421.191 1.57135 -1.00825 0
M  V30 4500 C 421.542 1.91276 0.436818 0
M  V30 4501 O 420.667 1.71679 1.3174 0
M  V30 4502 C 421.262 2.85514 -1.82393 0
M  V30 4503 C 419.821 3.37027 -1.67601 0
M  V30 4504 C 418.968 2.10388 -1.80644 0
M  V30 4505 H 421.919 0.846106 -1.34264 0
M  V30 4506 H 421.94 3.56711 -1.32429 0
M  V30 4507 H 421.452 2.60634 -2.87561 0
M  V30 4508 H 419.553 3.66878 -0.650485 0
M  V30 4509 H 419.666 4.09572 -2.4857 0
M  V30 4510 H 418.03 2.22601 -1.23778 0
M  V30 4511 H 418.813 1.8794 -2.87286 0
M  V30 4512 N 421.258 1.00505 1.21394 0
M  V30 4513 C 422.669 0.721082 1.72213 0
M  V30 4514 C 423.02 -0.761263 1.80829 0
M  V30 4515 O 422.145 -1.59464 1.46288 0
M  V30 4516 C 422.74 1.30228 3.12772 0
M  V30 4517 C 421.299 1.06743 3.60947 0
M  V30 4518 C 420.446 1.41507 2.38477 0
M  V30 4519 H 423.397 1.17594 1.06571 0
M  V30 4520 H 423.418 0.686955 3.74247 0
M  V30 4521 H 422.93 2.38115 3.06468 0
M  V30 4522 H 421.031 0.00572162 3.726 0
M  V30 4523 H 421.144 1.73936 4.46411 0
M  V30 4524 H 419.508 0.833852 2.40664 0
M  V30 4525 H 420.291 2.50424 2.34824 0
M  V30 4526 N 422.737 -1.36956 0.779787 0
M  V30 4527 C 423.983 -2.00237 0.357324 0
M  V30 4528 C 424.338 -1.60787 -1.05666 0
M  V30 4529 O 423.631 -0.847836 -1.71821 0
M  V30 4530 C 423.825 -3.54585 0.447686 0
M  V30 4531 C 423.654 -4.09025 1.86891 0
M  V30 4532 C 422.424 -4.39612 2.49138 0
M  V30 4533 C 424.622 -4.29461 2.82963 0
M  V30 4534 N 422.604 -4.79816 3.82949 0
M  V30 4535 C 423.975 -4.72363 4.01588 0
M  V30 4536 C 426.03 -4.1161 2.80145 0
M  V30 4537 C 424.733 -4.99284 5.17791 0
M  V30 4538 C 426.759 -4.39672 3.95528 0
M  V30 4539 C 426.121 -4.82822 5.12896 0
M  V30 4540 H 422.22 -0.76148 0.177968 0
M  V30 4541 H 424.804 -1.6613 1.01533 0
M  V30 4542 H 422.975 -3.87982 -0.180184 0
M  V30 4543 H 424.707 -4.047 0.0023955 0
M  V30 4544 H 421.462 -4.28975 2.00693 0
M  V30 4545 H 421.886 -5.04216 4.51769 0
M  V30 4546 H 426.528 -3.77415 1.90572 0
M  V30 4547 H 424.246 -5.32365 6.07958 0
M  V30 4548 H 427.832 -4.27441 3.94697 0
M  V30 4549 H 426.712 -5.04118 6.00695 0
M  V30 4550 N 424.215 -0.530993 -1.48385 0
M  V30 4551 C 425.463 0.00273189 -2.021 0
M  V30 4552 C 425.784 1.34672 -1.41027 0
M  V30 4553 O 425.054 1.8724 -0.576012 0
M  V30 4554 H 423.634 0.00399774 -0.746989 0
M  V30 4555 H 426.296 -0.695054 -1.82085 0
M  V30 4556 H 425.392 0.11031 -3.11905 0
M  V30 4557 N 425.693 1.55336 -0.266172 0
M  V30 4558 C 426.921 2.03801 0.356756 0
M  V30 4559 C 427.336 1.14485 1.50129 0
M  V30 4560 O 426.693 0.163121 1.8177 0
M  V30 4561 C 426.744 3.51455 0.846281 0
M  V30 4562 O 426.465 4.37371 -0.252663 0
M  V30 4563 C 427.966 4.15767 1.53794 0
M  V30 4564 H 425.186 0.665906 0.0825218 0
M  V30 4565 H 427.73 2.00636 -0.39566 0
M  V30 4566 H 425.885 3.55092 1.54881 0
M  V30 4567 H 426.299 5.24358 0.122173 0
M  V30 4568 H 427.773 5.20714 1.83198 0
M  V30 4569 H 428.25 3.63404 2.46646 0
M  V30 4570 H 428.856 4.16107 0.879488 0
M  V30 4571 N 427.171 -0.0066808 1.57599 0
M  V30 4572 C 428.411 -0.697501 1.92131 0
M  V30 4573 C 428.775 -1.71306 0.867071 0
M  V30 4574 O 429.976 -2.45377 1.09743 0
M  V30 4575 C 428.247 -1.32978 3.3174 0
M  V30 4576 S 429.806 -2.04665 3.88146 0
M  V30 4577 H 426.624 -0.230555 0.672581 0
M  V30 4578 H 429.226 0.0484026 1.9544 0
M  V30 4579 H 427.93 -0.57772 4.06313 0
M  V30 4580 H 427.461 -2.11376 3.31789 0
M  V30 4581 H 429.476 -3.32097 3.68682 0
M  V30 4582 N 428.649 -1.55105 -0.279332 0
M  V30 4583 C 429.596 -1.8755 -1.34513 0
M  V30 4584 C 430.566 -0.726384 -1.49375 0
M  V30 4585 O 431.751 -0.977063 -1.63884 0
M  V30 4586 C 428.891 -2.14738 -2.70151 0
M  V30 4587 C 428.004 -3.42285 -2.63562 0
M  V30 4588 C 427.139 -3.59206 -3.91337 0
M  V30 4589 C 426.178 -4.80467 -3.79233 0
M  V30 4590 N 425.315 -4.94079 -4.98829 0
M  V30 4591 H 430.155 -2.78456 -1.06143 0
M  V30 4592 H 427.692 -1.37867 -0.512936 0
M  V30 4593 H 429.65 -2.28501 -3.49061 0
M  V30 4594 H 428.28 -1.27075 -2.96735 0
M  V30 4595 H 427.332 -3.37029 -1.76397 0
M  V30 4596 H 428.644 -4.31328 -2.50515 0
M  V30 4597 H 427.798 -3.72751 -4.78687 0
M  V30 4598 H 426.537 -2.68337 -4.07243 0
M  V30 4599 H 425.542 -4.66932 -2.90266 0
M  V30 4600 H 426.767 -5.72765 -3.64852 0
M  V30 4601 H 424.713 -4.06139 -5.15158 0
M  V30 4602 H 424.63 -5.77156 -4.8829 0
M  V30 4603 H 425.898 -5.12003 -5.8777 0
M  V30 4604 N 430.127 0.543554 -1.4793 0
M  V30 4605 C 431.09 1.63156 -1.60975 0
M  V30 4606 C 432.09 1.53346 -0.483899 0
M  V30 4607 O 433.28 1.5726 -0.749339 0
M  V30 4608 C 430.412 3.02743 -1.56716 0
M  V30 4609 H 431.605 1.52934 -2.57975 0
M  V30 4610 H 429.158 0.764557 -1.36324 0
M  V30 4611 H 429.893 3.18484 -0.611418 0
M  V30 4612 H 429.678 3.11272 -2.38438 0
M  V30 4613 H 431.168 3.81871 -1.6901 0
M  V30 4614 N 431.605 1.3629 0.791371 0
M  V30 4615 C 432.851 1.30605 1.55146 0
M  V30 4616 C 433.184 -0.115042 1.93859 0
M  V30 4617 O 432.459 -1.06798 1.62556 0
M  V30 4618 C 432.742 2.22692 2.82985 0
M  V30 4619 C 432.595 3.73489 2.50651 0
M  V30 4620 C 433.914 2.13588 3.84796 0
M  V30 4621 H 431.033 0.475761 0.562868 0
M  V30 4622 H 433.675 1.66825 0.909358 0
M  V30 4623 H 431.825 1.91933 3.37778 0
M  V30 4624 H 433.497 4.14758 2.01924 0
M  V30 4625 H 431.74 3.93021 1.83622 0
M  V30 4626 H 432.411 4.3333 3.41949 0
M  V30 4627 H 434.887 2.40659 3.39445 0
M  V30 4628 H 433.763 2.80195 4.71998 0
M  V30 4629 H 434.024 1.12256 4.27611 0
M  V30 4630 N 433.083 -1.0153 1.20538 0
M  V30 4631 C 434.311 -1.78746 1.04199 0
M  V30 4632 C 434.726 -1.84323 -0.408733 0
M  V30 4633 O 434.083 -1.29714 -1.28377 0
M  V30 4634 C 434.134 -3.23152 1.62035 0
M  V30 4635 O 433.855 -3.17918 3.0143 0
M  V30 4636 C 435.356 -4.16911 1.50666 0
M  V30 4637 H 432.576 -0.56208 0.366479 0
M  V30 4638 H 435.12 -1.27794 1.59653 0
M  V30 4639 H 433.275 -3.71248 1.10697 0
M  V30 4640 H 433.689 -4.08567 3.28897 0
M  V30 4641 H 435.163 -5.16072 1.95892 0
M  V30 4642 H 435.64 -4.36791 0.459363 0
M  V30 4643 H 436.246 -3.74698 2.01201 0
M  V30 4644 N 434.561 -1.01147 -1.20859 0
M  V30 4645 C 435.494 -0.522108 -2.22147 0
M  V30 4646 C 436.472 0.427686 -1.56874 0
M  V30 4647 O 437.656 0.34889 -1.85243 0
M  V30 4648 C 434.783 0.240819 -3.37843 0
M  V30 4649 C 433.829 -0.657752 -4.21398 0
M  V30 4650 S 434.662 -2.12393 -4.91578 0
M  V30 4651 C 435.818 -1.37102 -6.10699 0
M  V30 4652 H 436.051 -1.38035 -2.63313 0
M  V30 4653 H 433.584 -0.819941 -1.30829 0
M  V30 4654 H 435.542 0.674908 -4.04914 0
M  V30 4655 H 434.203 1.07457 -2.95147 0
M  V30 4656 H 433.396 -0.0697456 -5.03952 0
M  V30 4657 H 432.998 -1.0294 -3.59555 0
M  V30 4658 H 435.29 -0.648315 -6.74391 0
M  V30 4659 H 436.233 -2.17252 -6.73949 0
M  V30 4660 H 436.641 -0.876154 -5.57659 0
M  V30 4661 N 436.039 1.36541 -0.78704 0
M  V30 4662 C 437.316 1.9355 -0.282424 0
M  V30 4663 C 437.696 1.71919 1.22503 0
M  V30 4664 O 437.044 1.07677 2.01539 0
M  V30 4665 C 437.254 3.4246 -0.672462 0
M  V30 4666 C 438.602 4.19582 -0.650863 0
M  V30 4667 O 439.626 3.50889 -0.612789 0
M  V30 4668 O 438.485 5.42106 -0.691623 0
M  V30 4669 H 435.579 0.824091 -0.0693 0
M  V30 4670 H 438.125 1.45736 -0.869423 0
M  V30 4671 H 436.897 3.51851 -1.71221 0
M  V30 4672 H 436.52 3.97556 -0.0592211 0
M  V30 4673 N 437.518 0.538854 1.48102 0
M  V30 4674 C 438.743 0.0102694 2.07397 0
M  V30 4675 C 439.168 -1.26562 1.39153 0
M  V30 4676 O 438.526 -1.75357 0.460387 0
M  V30 4677 C 438.574 -0.187602 3.60112 0
M  V30 4678 O 437.678 -1.25432 3.92862 0
M  V30 4679 H 437.019 0.0430975 0.6626 0
M  V30 4680 H 439.549 0.749301 1.90385 0
M  V30 4681 H 439.559 -0.407517 4.0596 0
M  V30 4682 H 438.234 0.744386 4.09184 0
M  V30 4683 H 436.811 -1.01636 3.58782 0
M  V30 4684 N 438.996 -1.55193 0.274407 0
M  V30 4685 C 440.273 -1.91584 -0.394331 0
M  V30 4686 C 440.653 -1.19858 -1.73774 0
M  V30 4687 O 440.001 -0.3252 -2.26174 0
M  V30 4688 C 440.211 -3.4487 -0.535311 0
M  V30 4689 C 441.559 -4.16636 -0.818534 0
M  V30 4690 O 442.583 -3.5076 -0.620146 0
M  V30 4691 O 441.442 -5.33209 -1.19792 0
M  V30 4692 H 438.536 -0.798349 -0.215794 0
M  V30 4693 H 441.082 -1.66646 0.320507 0
M  V30 4694 H 439.854 -3.89145 0.410141 0
M  V30 4695 H 439.477 -3.75759 -1.29964 0
M  V30 4696 N 440.474 -0.00167713 -1.576 0
M  V30 4697 C 441.404 0.988091 -2.11563 0
M  V30 4698 C 442.385 1.35736 -1.02517 0
M  V30 4699 O 443.57 1.44082 -1.30208 0
M  V30 4700 C 440.7 2.27941 -2.62031 0
M  V30 4701 C 439.654 2.0517 -3.75619 0
M  V30 4702 C 438.98 3.4033 -4.12407 0
M  V30 4703 C 440.28 1.41294 -5.02825 0
M  V30 4704 H 441.974 0.538771 -2.94513 0
M  V30 4705 H 439.52 0.257712 -1.41675 0
M  V30 4706 H 441.473 2.97539 -2.9841 0
M  V30 4707 H 440.197 2.74989 -1.76205 0
M  V30 4708 H 438.856 1.37998 -3.39635 0
M  V30 4709 H 438.504 3.85085 -3.23603 0
M  V30 4710 H 438.204 3.25909 -4.88935 0
M  V30 4711 H 439.728 4.1124 -4.51347 0
M  V30 4712 H 441.142 2.00851 -5.36965 0
M  V30 4713 H 439.539 1.37356 -5.84169 0
M  V30 4714 H 440.609 0.382362 -4.8339 0
M  V30 4715 N 441.952 1.55251 0.271103 0
M  V30 4716 C 443.229 1.66664 1.02384 0
M  V30 4717 C 443.609 0.534363 2.04225 0
M  V30 4718 O 442.957 -0.465337 2.23712 0
M  V30 4719 C 443.167 3.05961 1.67895 0
M  V30 4720 C 444.515 3.63772 2.18986 0
M  V30 4721 O 445.539 3.08606 1.77878 0
M  V30 4722 O 444.398 4.60429 2.94393 0
M  V30 4723 H 441.492 0.676957 0.475035 0
M  V30 4724 H 444.038 1.67589 0.26681 0
M  V30 4725 H 442.81 3.79815 0.941071 0
M  V30 4726 H 442.433 3.08943 2.5028 0
M  V30 4727 N 443.43 -0.535701 1.48216 0
M  V30 4728 C 444.677 -1.29183 1.55942 0
M  V30 4729 C 445.005 -1.93125 0.230857 0
M  V30 4730 O 444.26 -1.79556 -0.778331 0
M  V30 4731 C 444.559 -2.4068 2.64212 0
M  V30 4732 C 444.225 -1.94428 4.06827 0
M  V30 4733 C 442.887 -1.81532 4.45645 0
M  V30 4734 C 445.239 -1.59405 4.96225 0
M  V30 4735 C 442.567 -1.31939 5.71672 0
M  V30 4736 C 444.919 -1.11276 6.22736 0
M  V30 4737 C 443.583 -0.969924 6.60416 0
M  V30 4738 H 442.853 -0.472715 0.570632 0
M  V30 4739 H 445.5 -0.598437 1.81909 0
M  V30 4740 H 443.805 -3.15666 2.32083 0
M  V30 4741 H 445.502 -2.98822 2.67407 0
M  V30 4742 H 442.092 -2.05415 3.76168 0
M  V30 4743 H 446.276 -1.68231 4.66917 0
M  V30 4744 H 441.532 -1.19562 5.99596 0
M  V30 4745 H 445.706 -0.832453 6.91407 0
M  V30 4746 H 443.333 -0.583436 7.57958 0
M  V30 4747 N 444.908 -1.36708 -0.784132 0
M  V30 4748 C 446.155 -1.31231 -1.54222 0
M  V30 4749 C 446.483 0.106864 -1.94206 0
M  V30 4750 O 445.738 1.07734 -1.63376 0
M  V30 4751 C 446.037 -2.18571 -2.82774 0
M  V30 4752 C 445.703 -3.67039 -2.61903 0
M  V30 4753 C 444.365 -4.07503 -2.55919 0
M  V30 4754 C 446.717 -4.61149 -2.4288 0
M  V30 4755 C 444.045 -5.40211 -2.28886 0
M  V30 4756 C 446.397 -5.94081 -2.17373 0
M  V30 4757 C 445.061 -6.33664 -2.09825 0
M  V30 4758 H 444.331 -0.48021 -0.56434 0
M  V30 4759 H 446.978 -1.68807 -0.904233 0
M  V30 4760 H 445.283 -1.73949 -3.51068 0
M  V30 4761 H 446.98 -2.11655 -3.40592 0
M  V30 4762 H 443.57 -3.34941 -2.67418 0
M  V30 4763 H 447.754 -4.30756 -2.46501 0
M  V30 4764 H 443.01 -5.69855 -2.21529 0
M  V30 4765 H 447.184 -6.66566 -2.01649 0
M  V30 4766 H 444.811 -7.36423 -1.88641 0
M  V30 4767 N 446.386 1.0089 -1.21074 0
M  V30 4768 C 447.663 1.71834 -0.934469 0
M  V30 4769 C 448.043 2.0368 0.554753 0
M  V30 4770 O 447.391 1.70742 1.51854 0
M  V30 4771 C 447.601 2.98061 -1.8155 0
M  V30 4772 C 448.949 3.7117 -2.06199 0
M  V30 4773 O 449.973 3.08034 -1.78867 0
M  V30 4774 O 448.832 4.84721 -2.52404 0
M  V30 4775 H 445.926 0.749253 -0.35007 0
M  V30 4776 H 448.472 1.06668 -1.31985 0
M  V30 4777 H 447.244 2.70908 -2.82355 0
M  V30 4778 H 446.867 3.70968 -1.43068 0
M  V30 4779 N 447.864 1.01787 1.20321 0
M  V30 4780 C 449.089 0.727009 1.9424 0
M  V30 4781 C 449.514 -0.706179 1.74341 0
M  V30 4782 O 448.872 -1.48609 1.03852 0
M  V30 4783 C 448.92 1.06958 3.44372 0
M  V30 4784 O 448.024 0.181983 4.11998 0
M  V30 4785 H 447.365 0.269626 0.606793 0
M  V30 4786 H 449.895 1.36158 1.52716 0
M  V30 4787 H 449.905 1.02182 3.94997 0
M  V30 4788 H 448.58 2.11378 3.58179 0
M  V30 4789 H 447.157 0.287378 3.71791 0
M  V30 4790 N 449.342 -1.36122 0.79427 0
M  V30 4791 C 450.572 -2.03067 0.380437 0
M  V30 4792 C 450.98 -1.60018 -1.00949 0
M  V30 4793 O 450.323 -0.787425 -1.65968 0
M  V30 4794 C 450.385 -3.57587 0.37034 0
M  V30 4795 C 450.049 -4.23855 1.70867 0
M  V30 4796 C 451.046 -4.46404 2.66496 0
M  V30 4797 C 448.731 -4.61229 1.9893 0
M  V30 4798 C 450.725 -5.05412 3.88378 0
M  V30 4799 C 448.412 -5.19953 3.21079 0
M  V30 4800 C 449.41 -5.41985 4.15621 0
M  V30 4801 O 449.098 -5.99475 5.35616 0
M  V30 4802 H 448.83 -0.658168 0.154243 0
M  V30 4803 H 451.384 -1.7498 1.0757 0
M  V30 4804 H 449.614 -3.84814 -0.381444 0
M  V30 4805 H 451.303 -4.05895 -0.0194894 0
M  V30 4806 H 452.069 -4.17921 2.46103 0
M  V30 4807 H 447.948 -4.43402 1.26158 0
M  V30 4808 H 451.492 -5.22524 4.62185 0
M  V30 4809 H 447.389 -5.47862 3.41347 0
M  V30 4810 H 448.157 -6.17937 5.36745 0
M  V30 4811 N 450.82 -0.546701 -1.47814 0
M  V30 4812 C 452.045 -0.021268 -2.07389 0
M  V30 4813 C 452.47 1.25822 -1.39822 0
M  V30 4814 O 451.828 1.75111 -0.46968 0
M  V30 4815 C 451.876 0.168502 -3.60206 0
M  V30 4816 O 450.98 1.23347 -3.93522 0
M  V30 4817 H 450.321 -0.0466108 -0.662362 0
M  V30 4818 H 452.851 -0.759387 -1.89985 0
M  V30 4819 H 452.861 0.385982 -4.0617 0
M  V30 4820 H 451.536 -0.766075 -4.08784 0
M  V30 4821 H 450.113 0.997319 -3.59316 0
M  V30 4822 N 452.299 1.55045 -0.282633 0
M  V30 4823 C 453.548 1.98938 0.332667 0
M  V30 4824 C 453.861 1.17455 1.56409 0
M  V30 4825 O 455.067 1.51527 2.25282 0
M  V30 4826 C 453.523 3.54105 0.643226 0
M  V30 4827 C 453.131 4.44374 -0.568814 0
M  V30 4828 C 454.875 4.06569 1.22074 0
M  V30 4829 C 452.782 5.90943 -0.232426 0
M  V30 4830 H 451.712 0.743043 0.128075 0
M  V30 4831 H 454.363 1.79341 -0.388464 0
M  V30 4832 H 452.745 3.69532 1.42346 0
M  V30 4833 H 453.919 4.40718 -1.34551 0
M  V30 4834 H 452.234 4.02585 -1.06369 0
M  V30 4835 H 454.831 5.13626 1.48635 0
M  V30 4836 H 455.174 3.56057 2.15707 0
M  V30 4837 H 455.707 3.94612 0.502621 0
M  V30 4838 H 452.446 6.45567 -1.13683 0
M  V30 4839 H 451.966 5.9765 0.507357 0
M  V30 4840 H 453.645 6.4677 0.172657 0
M  V30 4841 N 453.777 0.010035 1.57597 0
M  V30 4842 C 455.005 -0.683413 1.95287 0
M  V30 4843 C 455.42 -1.66747 0.885481 0
M  V30 4844 O 454.777 -1.82003 -0.134629 0
M  V30 4845 C 454.828 -1.40652 3.33015 0
M  V30 4846 O 454.549 -0.461916 4.35658 0
M  V30 4847 C 456.05 -2.19356 3.85225 0
M  V30 4848 H 453.27 -0.189708 0.643624 0
M  V30 4849 H 455.814 0.0641359 2.04399 0
M  V30 4850 H 453.969 -2.10562 3.2518 0
M  V30 4851 H 454.383 -0.973215 5.15392 0
M  V30 4852 H 455.857 -2.65433 4.83993 0
M  V30 4853 H 456.334 -3.02457 3.18459 0
M  V30 4854 H 456.94 -1.54442 3.96267 0
M  V30 4855 N 455.255 -1.55392 -0.262866 0
M  V30 4856 C 456.218 -1.88181 -1.30846 0
M  V30 4857 C 457.218 -0.757079 -1.41862 0
M  V30 4858 O 458.408 -1.02519 -1.40838 0
M  V30 4859 C 455.54 -2.09609 -2.68844 0
M  V30 4860 H 456.733 -2.81659 -1.02997 0
M  V30 4861 H 454.286 -1.48039 -0.501414 0
M  V30 4862 H 455.021 -1.18547 -3.01856 0
M  V30 4863 H 454.806 -2.91508 -2.62231 0
M  V30 4864 H 456.296 -2.36215 -3.44372 0
M  V30 4865 N 456.733 0.527833 -1.48498 0
M  V30 4866 C 457.973 1.29401 -1.58224 0
M  V30 4867 C 458.337 1.90348 -0.251327 0
M  V30 4868 O 459.538 2.67868 -0.223588 0
M  V30 4869 C 457.809 2.35266 -2.69044 0
M  V30 4870 S 459.368 3.2158 -2.98549 0
M  V30 4871 H 456.186 0.440138 -0.558391 0
M  V30 4872 H 458.788 0.601079 -1.8603 0
M  V30 4873 H 457.492 1.88975 -3.64303 0
M  V30 4874 H 457.023 3.09263 -2.43146 0
M  V30 4875 H 459.038 4.35391 -2.38011 0
M  V30 4876 N 458.211 1.37122 0.776871 0
M  V30 4877 C 459.627 1.1781 1.07671 0
M  V30 4878 C 459.827 0.0107454 2.01497 0
M  V30 4879 O 458.883 -0.650756 2.4397 0
M  V30 4880 C 460.196 2.49451 1.67913 0
M  V30 4881 C 461.744 2.55927 1.80195 0
M  V30 4882 C 462.219 3.87686 2.43851 0
M  V30 4883 N 463.71 3.891 2.51307 0
M  V30 4884 C 464.445 4.87797 3.014 0
M  V30 4885 N 463.941 5.96888 3.51705 0
M  V30 4886 N 465.734 4.75205 3.00227 0
M  V30 4887 H 457.885 2.11843 0.153778 0
M  V30 4888 H 460.148 0.938927 0.130844 0
M  V30 4889 H 459.854 3.35207 1.06439 0
M  V30 4890 H 459.728 2.66169 2.67271 0
M  V30 4891 H 462.115 1.70582 2.40803 0
M  V30 4892 H 462.196 2.43097 0.796069 0
M  V30 4893 H 461.84 4.73444 1.83884 0
M  V30 4894 H 461.77 3.97817 3.45035 0
M  V30 4895 H 464.261 3.10293 2.157 0
M  V30 4896 H 464.574 6.68155 3.88316 0
M  V30 4897 H 462.919 6.0054 3.49824 0
M  V30 4898 H 466.11 3.89103 2.60224 0
M  V30 4899 H 466.283 5.52279 3.38957 0
M  V30 4900 N 459.689 -1.00246 1.21608 0
M  V30 4901 C 460.938 -1.73476 1.02902 0
M  V30 4902 C 461.251 -1.90643 -0.437561 0
M  V30 4903 O 462.457 -2.61105 -0.74407 0
M  V30 4904 C 460.913 -3.12079 1.79261 0
M  V30 4905 C 460.521 -3.02877 3.30106 0
M  V30 4906 C 462.265 -3.89421 1.68972 0
M  V30 4907 C 460.172 -4.36575 3.98944 0
M  V30 4908 H 459.102 -0.650408 0.381425 0
M  V30 4909 H 461.753 -1.11985 1.45367 0
M  V30 4910 H 460.135 -3.74196 1.2959 0
M  V30 4911 H 461.309 -2.49983 3.87098 0
M  V30 4912 H 459.624 -2.39022 3.40965 0
M  V30 4913 H 462.221 -4.88362 2.17731 0
M  V30 4914 H 462.564 -4.1122 0.648397 0
M  V30 4915 H 463.097 -3.33963 2.16133 0
M  V30 4916 H 459.836 -4.19978 5.03288 0
M  V30 4917 H 459.356 -4.8942 3.4674 0
M  V30 4918 H 461.035 -5.05364 4.04 0
M  V30 4919 N 461.167 -1.02423 -1.1978 0
M  V30 4920 C 462.444 -0.632802 -1.85081 0
M  V30 4921 C 462.824 0.888745 -1.9148 0
M  V30 4922 O 462.172 1.78357 -1.42832 0
M  V30 4923 C 462.382 -1.28947 -3.24305 0
M  V30 4924 C 463.73 -1.40976 -4.00513 0
M  V30 4925 O 464.754 -1.24628 -3.33686 0
M  V30 4926 O 463.613 -1.67467 -5.20209 0
M  V30 4927 H 460.707 -0.219348 -0.79738 0
M  V30 4928 H 463.253 -1.12209 -1.27307 0
M  V30 4929 H 462.025 -2.3288 -3.14456 0
M  V30 4930 H 461.648 -0.787748 -3.89718 0
M  V30 4931 N 462.645 1.35699 -0.801477 0
M  V30 4932 C 463.885 2.00741 -0.385027 0
M  V30 4933 C 464.249 1.62213 1.02718 0
M  V30 4934 O 465.45 2.19936 1.54537 0
M  V30 4935 C 463.721 3.53032 -0.557057 0
M  V30 4936 S 465.28 4.38195 -0.230272 0
M  V30 4937 H 462.098 0.695748 -0.146477 0
M  V30 4938 H 464.7 1.65378 -1.04261 0
M  V30 4939 H 463.404 3.7856 -1.58494 0
M  V30 4940 H 462.935 3.93229 0.116029 0
M  V30 4941 H 464.95 4.86748 0.963895 0
M  V30 4942 N 464.123 0.554532 1.47522 0
M  V30 4943 C 465.033 -0.197865 2.33764 0
M  V30 4944 C 466.049 -0.914576 1.48025 0
M  V30 4945 O 467.225 -0.884067 1.80959 0
M  V30 4946 C 464.29 -1.21628 3.24665 0
M  V30 4947 C 463.351 -0.507283 4.26292 0
M  V30 4948 C 462.584 -1.47718 5.1285 0
M  V30 4949 O 462.807 -2.7118 5.01814 0
M  V30 4950 O 461.741 -1.00313 5.93482 0
M  V30 4951 H 465.567 0.50949 2.99396 0
M  V30 4952 H 463.152 0.315176 1.46038 0
M  V30 4953 H 465.034 -1.80421 3.80823 0
M  V30 4954 H 463.709 -1.9056 2.61665 0
M  V30 4955 H 462.616 0.121778 3.73902 0
M  V30 4956 H 463.949 0.140544 4.91999 0
M  V30 4957 N 465.601 -1.54893 0.290851 0
M  V30 4958 C 466.829 -2.04343 -0.324288 0
M  V30 4959 C 467.244 -1.16859 -1.48289 0
M  V30 4960 O 466.601 -0.192018 -1.81487 0
M  V30 4961 C 466.652 -3.52756 -0.79026 0
M  V30 4962 O 466.373 -4.36913 0.322213 0
M  V30 4963 C 467.874 -4.18161 -1.4716 0
M  V30 4964 H 465.094 -0.667135 -0.0719173 0
M  V30 4965 H 467.638 -1.99981 0.427529 0
M  V30 4966 H 465.793 -3.57511 -1.49213 0
M  V30 4967 H 466.207 -5.24486 -0.0387372 0
M  V30 4968 H 467.681 -5.23562 -1.7489 0
M  V30 4969 H 468.158 -3.67282 -2.40834 0
M  V30 4970 H 468.764 -4.17454 -0.813178 0
M  V30 4971 N 467.08 -0.0183926 -1.57589 0
M  V30 4972 C 468.496 0.337897 -1.55982 0
M  V30 4973 C 468.696 1.73604 -1.02294 0
M  V30 4974 O 467.752 2.43589 -0.664895 0
M  V30 4975 C 469.065 0.196305 -3.00059 0
M  V30 4976 C 470.613 0.269875 -3.11834 0
M  V30 4977 C 471.088 0.157197 -4.5773 0
M  V30 4978 N 472.579 0.214521 -4.62703 0
M  V30 4979 C 473.314 0.150955 -5.73201 0
M  V30 4980 N 472.81 0.0369212 -6.9279 0
M  V30 4981 N 474.603 0.204162 -5.61729 0
M  V30 4982 H 466.754 -0.93279 -1.90821 0
M  V30 4983 H 469.017 -0.359253 -0.877292 0
M  V30 4984 H 468.723 -0.766383 -3.43248 0
M  V30 4985 H 468.597 0.970908 -3.6449 0
M  V30 4986 H 470.984 1.22302 -2.68563 0
M  V30 4987 H 471.065 -0.534918 -2.50144 0
M  V30 4988 H 470.709 -0.792479 -5.01679 0
M  V30 4989 H 470.639 0.980717 -5.17387 0
M  V30 4990 H 473.13 0.303238 -3.76681 0
M  V30 4991 H 473.443 -0.00518321 -7.728 0
M  V30 4992 H 471.788 0.0022886 -6.95 0
M  V30 4993 H 474.979 0.291575 -4.67191 0
M  V30 4994 H 475.152 0.15116 -6.47824 0
M  V30 4995 N 468.558 1.5553 0.254621 0
M  V30 4996 C 469.788 1.80784 1.00004 0
M  V30 4997 C 470.196 0.59071 1.79742 0
M  V30 4998 O 469.539 -0.449988 1.78103 0
M  V30 4999 C 469.601 2.99268 1.99196 0
M  V30 5000 C 469.265 4.35595 1.38224 0
M  V30 5001 C 470.262 5.13884 0.788611 0
M  V30 5002 C 467.947 4.82281 1.40393 0
M  V30 5003 C 469.941 6.37004 0.224783 0
M  V30 5004 C 467.628 6.05351 0.836243 0
M  V30 5005 C 468.626 6.82551 0.24769 0
M  V30 5006 O 468.314 8.03297 -0.311249 0
M  V30 5007 H 468.046 0.60565 0.300274 0
M  V30 5008 H 470.6 2.03411 0.285143 0
M  V30 5009 H 468.83 2.72377 2.74496 0
M  V30 5010 H 470.519 3.11682 2.60018 0
M  V30 5011 H 471.285 4.78938 0.764423 0
M  V30 5012 H 467.164 4.22189 1.85142 0
M  V30 5013 H 470.708 6.97203 -0.235235 0
M  V30 5014 H 466.605 6.39776 0.857733 0
M  V30 5015 H 467.373 8.1825 -0.20237 0
M  V30 5016 N 470.036 -0.519951 1.48776 0
M  V30 5017 C 470.966 -1.63253 1.66945 0
M  V30 5018 C 471.947 -1.62014 0.518224 0
M  V30 5019 O 473.132 -1.79053 0.751919 0
M  V30 5020 C 470.262 -3.0181 1.71836 0
M  V30 5021 C 469.216 -3.17911 2.8656 0
M  V30 5022 C 468.542 -4.5763 2.76548 0
M  V30 5023 C 469.842 -2.99729 4.27738 0
M  V30 5024 H 471.536 -1.48302 2.6009 0
M  V30 5025 H 469.082 -0.712026 1.25165 0
M  V30 5026 H 471.035 -3.79525 1.83135 0
M  V30 5027 H 469.759 -3.17806 0.752775 0
M  V30 5028 H 468.418 -2.42616 2.74833 0
M  V30 5029 H 468.066 -4.70476 1.77937 0
M  V30 5030 H 467.766 -4.69346 3.53536 0
M  V30 5031 H 469.29 -5.37431 2.89828 0
M  V30 5032 H 470.704 -3.67228 4.40246 0
M  V30 5033 H 469.101 -3.22932 5.05801 0
M  V30 5034 H 470.171 -1.96047 4.43502 0
M  V30 5035 N 471.514 -1.37532 -0.769588 0
M  V30 5036 C 472.76 -1.33057 -1.53048 0
M  V30 5037 C 473.093 0.0841865 -1.94017 0
M  V30 5038 O 472.368 1.04198 -1.64235 0
M  V30 5039 C 472.651 -2.27166 -2.79406 0
M  V30 5040 C 472.504 -3.77429 -2.44677 0
M  V30 5041 C 473.823 -2.19683 -3.81349 0
M  V30 5042 H 470.942 -0.484655 -0.555228 0
M  V30 5043 H 473.584 -1.68251 -0.882702 0
M  V30 5044 H 471.734 -1.97283 -3.34682 0
M  V30 5045 H 473.406 -4.17918 -1.953 0
M  V30 5046 H 471.649 -3.95892 -1.77346 0
M  V30 5047 H 472.32 -4.38716 -3.35011 0
M  V30 5048 H 474.796 -2.46029 -3.35573 0
M  V30 5049 H 473.672 -2.87668 -4.67481 0
M  V30 5050 H 473.933 -1.19045 -4.25771 0
M  V30 5051 N 472.992 0.995999 -1.22138 0
M  V30 5052 C 473.902 2.11985 -1.00496 0
M  V30 5053 C 474.918 1.7394 0.0457701 0
M  V30 5054 O 476.094 2.00868 -0.146273 0
M  V30 5055 C 473.159 3.41779 -0.582086 0
M  V30 5056 C 472.22 3.93943 -1.70608 0
M  V30 5057 C 471.453 5.17542 -1.30328 0
M  V30 5058 O 471.676 5.70114 -0.180743 0
M  V30 5059 O 470.61 5.63382 -2.11861 0
M  V30 5060 H 474.436 2.33123 -1.94647 0
M  V30 5061 H 472.021 1.10358 -1.00705 0
M  V30 5062 H 473.903 4.1989 -0.356467 0
M  V30 5063 H 472.578 3.22007 0.330592 0
M  V30 5064 H 471.485 3.17019 -1.98619 0
M  V30 5065 H 472.818 4.18141 -2.59651 0
M  V30 5066 N 474.47 1.03057 1.19235 0
M  V30 5067 C 475.418 0.606391 2.24557 0
M  V30 5068 C 476.412 -0.361826 1.65491 0
M  V30 5069 O 477.618 -0.23022 1.78522 0
M  V30 5070 H 473.993 0.177838 0.730669 0
M  V30 5071 H 475.964 1.50529 2.5765 0
M  V30 5072 C 474.713 -0.0252127 3.47691 0
M  V30 5073 H 474.036 0.710838 3.9343 0
M  V30 5074 H 475.476 -0.284931 4.23042 0
M  V30 5075 C 473.935 -1.27229 3.11953 0
M  V30 5076 O 474.465 -2.36416 3.24762 0
M  V30 5077 N 472.671 -1.16169 2.6637 0
M  V30 5078 H 472.218 -0.273189 2.56147 0
M  V30 5079 H 472.176 -1.99703 2.42829 0
M  V30 5080 N 475.948 -1.35272 0.808662 0
M  V30 5081 C 477.188 -2.00534 0.395668 0
M  V30 5082 C 477.552 -1.62755 -1.01857 0
M  V30 5083 O 478.753 -2.20752 -1.53368 0
M  V30 5084 C 477.024 -3.52732 0.575771 0
M  V30 5085 S 478.583 -4.38067 0.253507 0
M  V30 5086 H 475.401 -0.694962 0.150165 0
M  V30 5087 H 478.003 -1.64823 1.05137 0
M  V30 5088 H 476.707 -3.77714 1.60499 0
M  V30 5089 H 476.238 -3.93285 -0.0951739 0
M  V30 5090 H 478.253 -4.87252 -0.938068 0
M  V30 5091 N 477.426 -0.562348 -1.47226 0
M  V30 5092 C 478.374 0.195476 -2.31777 0
M  V30 5093 C 479.368 0.90433 -1.43242 0
M  V30 5094 O 480.574 0.825031 -1.59979 0
M  V30 5095 H 476.949 0.0819095 -0.747526 0
M  V30 5096 H 478.92 -0.536753 -2.93533 0
M  V30 5097 C 477.669 1.20902 -3.26003 0
M  V30 5098 H 476.992 0.672997 -3.94095 0
M  V30 5099 H 478.432 1.71006 -3.87986 0
M  V30 5100 C 476.891 2.25955 -2.49891 0
M  V30 5101 O 477.421 3.32969 -2.2471 0
M  V30 5102 N 475.627 2.00019 -2.1081 0
M  V30 5103 H 475.174 1.13006 -2.31489 0
M  V30 5104 H 475.132 2.70523 -1.60201 0
M  V30 5105 N 478.904 1.54736 -0.299062 0
M  V30 5106 C 480.144 2.0201 0.31168 0
M  V30 5107 C 480.508 1.18281 1.5124 0
M  V30 5108 O 481.709 1.55243 2.19438 0
M  V30 5109 C 479.98 3.5123 0.661227 0
M  V30 5110 S 481.539 4.20467 1.2551 0
M  V30 5111 H 478.357 0.704523 0.0957517 0
M  V30 5112 H 480.959 1.90791 -0.426482 0
M  V30 5113 H 479.663 4.09804 -0.221171 0
M  V30 5114 H 479.194 3.66481 1.43023 0
M  V30 5115 H 481.209 4.26083 2.54298 0
M  V30 5116 N 480.382 0.0267497 1.57577 0
M  V30 5117 C 481.798 -0.32962 1.56159 0
M  V30 5118 C 481.998 -1.73059 1.03213 0
M  V30 5119 O 481.054 -2.43233 0.677804 0
M  V30 5120 C 482.367 -0.18039 3.00158 0
M  V30 5121 C 483.915 -0.253334 3.11973 0
M  V30 5122 C 484.39 -0.132921 4.57807 0
M  V30 5123 N 485.881 -0.189979 4.6281 0
M  V30 5124 C 486.616 -0.120554 5.73273 0
M  V30 5125 N 486.112 -0.000180315 6.928 0
M  V30 5126 N 487.905 -0.174369 5.61829 0
M  V30 5127 H 480.056 0.942896 1.90324 0
M  V30 5128 H 482.319 0.3639 0.875375 0
M  V30 5129 H 482.025 0.784576 3.42837 0
M  V30 5130 H 481.899 -0.951565 3.65 0
M  V30 5131 H 484.286 -1.20876 2.69208 0
M  V30 5132 H 484.367 0.548177 2.49857 0
M  V30 5133 H 484.011 0.819073 5.01252 0
M  V30 5134 H 483.941 -0.953264 5.179 0
M  V30 5135 H 486.432 -0.283257 3.76837 0
M  V30 5136 H 486.745 0.0461666 7.72786 0
M  V30 5137 H 485.09 0.034569 6.94991 0
M  V30 5138 H 488.281 -0.266794 4.67339 0
M  V30 5139 H 488.454 -0.116802 6.47895 0
M  V30 5140 N 481.861 -1.55662 -0.24637 0
M  V30 5141 C 482.794 -1.85332 -1.33143 0
M  V30 5142 C 483.772 -0.708464 -1.46354 0
M  V30 5143 O 484.956 -0.954274 -1.6256 0
M  V30 5144 C 482.083 -2.0385 -2.70487 0
M  V30 5145 C 481.129 -3.26488 -2.74423 0
M  V30 5146 S 481.962 -4.83124 -2.30979 0
M  V30 5147 C 483.118 -5.04647 -3.70246 0
M  V30 5148 H 483.351 -2.77077 -1.07777 0
M  V30 5149 H 480.884 -1.47776 -0.44738 0
M  V30 5150 H 482.842 -2.15202 -3.49569 0
M  V30 5151 H 481.503 -1.12947 -2.9309 0
M  V30 5152 H 480.696 -3.36413 -3.7529 0
M  V30 5153 H 480.298 -3.13864 -2.03385 0
M  V30 5154 H 482.59 -4.92023 -4.65746 0
M  V30 5155 H 483.533 -6.06625 -3.65255 0
M  V30 5156 H 483.941 -4.32491 -3.62784 0
M  V30 5157 N 483.339 0.512053 -1.4905 0
M  V30 5158 C 484.585 1.26874 -1.58212 0
M  V30 5159 C 484.918 1.9241 -0.263073 0
M  V30 5160 O 484.193 1.80181 0.732476 0
M  V30 5161 C 484.476 2.34428 -2.73341 0
M  V30 5162 C 484.329 1.73466 -4.15006 0
M  V30 5163 C 485.648 3.36073 -2.84154 0
M  V30 5164 H 482.767 0.459924 -0.575881 0
M  V30 5165 H 485.409 0.568587 -1.81293 0
M  V30 5166 H 483.559 2.94146 -2.53792 0
M  V30 5167 H 485.231 1.17661 -4.46042 0
M  V30 5168 H 483.474 1.03921 -4.21168 0
M  V30 5169 H 484.145 2.51426 -4.91415 0
M  V30 5170 H 486.621 2.86332 -3.01916 0
M  V30 5171 H 485.497 4.08703 -3.66406 0
M  V30 5172 H 485.758 3.97725 -1.93048 0
M  V30 5173 N 484.817 1.37938 0.762283 0
M  V30 5174 C 485.767 1.30976 1.86626 0
M  V30 5175 C 486.751 0.195714 1.59705 0
M  V30 5176 O 487.943 0.430937 1.71674 0
M  V30 5177 C 485.072 1.12847 3.24223 0
M  V30 5178 C 484.158 2.28836 3.57064 0
M  V30 5179 N 484.549 3.54256 3.61022 0
M  V30 5180 C 482.847 2.21198 3.87282 0
M  V30 5181 C 483.548 4.30798 3.90881 0
M  V30 5182 N 482.524 3.60049 4.07266 0
M  V30 5183 H 486.326 2.25946 1.87951 0
M  V30 5184 H 483.84 1.31046 0.959206 0
M  V30 5185 H 485.837 1.05943 4.03214 0
M  V30 5186 H 484.497 0.188024 3.24155 0
M  V30 5187 H 485.508 3.8804 3.42995 0
M  V30 5188 H 482.185 1.35264 3.94981 0
M  V30 5189 H 483.575 5.39386 4.00639 0
M  V30 5190 N 486.295 -0.989507 1.22664 0
M  V30 5191 C 487.228 -2.07805 0.942985 0
M  V30 5192 C 488.206 -1.6219 -0.115356 0
M  V30 5193 O 489.39 -1.88492 0.0169565 0
M  V30 5194 C 486.517 -3.361 0.418898 0
M  V30 5195 C 485.563 -4.00643 1.46244 0
M  V30 5196 S 486.396 -4.41059 3.03689 0
M  V30 5197 C 487.552 -5.7252 2.52927 0
M  V30 5198 H 487.785 -2.31547 1.86476 0
M  V30 5199 H 485.318 -1.12446 1.05808 0
M  V30 5200 H 487.276 -4.10315 0.123114 0
M  V30 5201 H 485.937 -3.10383 -0.481818 0
M  V30 5202 H 485.13 -4.93033 1.04569 0
M  V30 5203 H 484.732 -3.32767 1.7071 0
M  V30 5204 H 487.024 -6.49017 1.94379 0
M  V30 5205 H 487.967 -6.19026 3.4382 0
M  V30 5206 H 488.375 -5.30083 1.94094 0
M  V30 5207 N 487.773 -1.03688 -1.18687 0
M  V30 5208 C 489.184 -0.766488 -1.70241 0
M  V30 5209 C 489.535 0.713052 -1.82784 0
M  V30 5210 O 488.66 1.55529 -1.50465 0
M  V30 5211 C 489.255 -1.38475 -3.09209 0
M  V30 5212 C 487.814 -1.16276 -3.5799 0
M  V30 5213 C 486.961 -1.4778 -2.34641 0
M  V30 5214 H 489.912 -1.20378 -1.03415 0
M  V30 5215 H 489.933 -0.785939 -3.72295 0
M  V30 5216 H 489.445 -2.46157 -3.00048 0
M  V30 5217 H 487.546 -0.104508 -3.72453 0
M  V30 5218 H 487.659 -1.8571 -4.41643 0
M  V30 5219 H 486.023 -0.897366 -2.38368 0
M  V30 5220 H 486.806 -2.56562 -2.28102 0
M  V30 5221 N 489.251 1.34841 -0.815825 0
M  V30 5222 C 490.499 1.98107 -0.399744 0
M  V30 5223 C 490.82 1.65019 1.03894 0
M  V30 5224 O 490.09 0.937311 1.72021 0
M  V30 5225 H 488.67 0.732827 -0.144823 0
M  V30 5226 H 491.332 1.64599 -1.0437 0
M  V30 5227 H 490.428 3.07856 -0.512965 0
M  V30 5228 N 490.729 0.570148 1.46925 0
M  V30 5229 C 492.006 -0.0153259 1.95594 0
M  V30 5230 C 492.386 -1.47232 1.51281 0
M  V30 5231 O 491.734 -2.15574 0.757624 0
M  V30 5232 C 491.944 0.143624 3.48704 0
M  V30 5233 C 493.292 0.00494484 4.246 0
M  V30 5234 O 494.316 0.0718214 3.56128 0
M  V30 5235 O 493.175 -0.141175 5.46318 0
M  V30 5236 H 490.269 -0.0568819 0.825041 0
M  V30 5237 H 492.815 0.637583 1.57267 0
M  V30 5238 H 491.587 1.15699 3.73804 0
M  V30 5239 H 491.21 -0.5463 3.93829 0
M  V30 5240 N 492.207 -1.54576 0.307264 0
M  V30 5241 C 493.17 -2.22423 -0.553224 0
M  V30 5242 C 494.17 -1.21231 -1.05639 0
M  V30 5243 O 495.36 -1.45923 -0.951419 0
M  V30 5244 C 492.492 -2.91552 -1.76664 0
M  V30 5245 H 493.685 -2.99874 0.0396484 0
M  V30 5246 H 491.238 -1.56192 0.0581629 0
M  V30 5247 H 491.973 -2.18196 -2.39918 0
M  V30 5248 H 491.758 -3.65738 -1.41343 0
M  V30 5249 H 493.248 -3.43292 -2.37783 0
M  V30 5250 N 493.685 -0.035106 -1.57561 0
M  V30 5251 C 495.096 0.502885 -1.798 0
M  V30 5252 C 495.447 1.71892 -0.945921 0
M  V30 5253 O 494.572 2.15822 -0.157991 0
M  V30 5254 C 495.167 0.919097 -3.26095 0
M  V30 5255 C 493.726 1.40216 -3.49308 0
M  V30 5256 C 492.873 0.369709 -2.74824 0
M  V30 5257 H 495.824 -0.261102 -1.56537 0
M  V30 5258 H 495.845 1.78308 -3.36135 0
M  V30 5259 H 495.357 0.0338526 -3.88085 0
M  V30 5260 H 493.458 2.30714 -2.92578 0
M  V30 5261 H 493.571 1.40541 -4.58023 0
M  V30 5262 H 491.935 0.839113 -2.40481 0
M  V30 5263 H 492.718 -0.507173 -3.39533 0
M  V30 5264 N 495.163 1.55791 0.238111 0
M  V30 5265 C 496.393 1.81834 0.980809 0
M  V30 5266 C 496.801 0.609741 1.79106 0
M  V30 5267 O 496.144 -0.431073 1.78571 0
M  V30 5268 C 496.206 3.01363 1.96011 0
M  V30 5269 C 495.87 4.37037 1.33597 0
M  V30 5270 C 496.867 5.14692 0.734063 0
M  V30 5271 C 494.552 4.83743 1.3527 0
M  V30 5272 C 496.546 6.37206 0.157208 0
M  V30 5273 C 494.233 6.06204 0.77199 0
M  V30 5274 C 495.231 6.82775 0.175282 0
M  V30 5275 O 494.919 8.02922 -0.396432 0
M  V30 5276 H 494.651 0.6088 0.293834 0
M  V30 5277 H 497.205 2.03702 0.263552 0
M  V30 5278 H 495.435 2.75273 2.71591 0
M  V30 5279 H 497.124 3.14422 2.56697 0
M  V30 5280 H 497.89 4.79722 0.713582 0
M  V30 5281 H 493.769 4.24129 1.80653 0
M  V30 5282 H 497.313 6.96915 -0.30917 0
M  V30 5283 H 493.21 6.4065 0.789828 0
M  V30 5284 H 493.978 8.17989 -0.289145 0
M  V30 5285 N 496.642 -0.504142 1.49319 0
M  V30 5286 C 497.882 -1.26867 1.60263 0
M  V30 5287 C 498.246 -1.89924 0.281578 0
M  V30 5288 O 499.447 -2.67479 0.266176 0
M  V30 5289 C 497.718 -2.30956 2.72753 0
M  V30 5290 S 499.277 -3.1679 3.03628 0
M  V30 5291 H 496.095 -0.431198 0.565322 0
M  V30 5292 H 498.697 -0.571407 1.86963 0
M  V30 5293 H 497.401 -1.83156 3.67263 0
M  V30 5294 H 496.932 -3.05356 2.48035 0
M  V30 5295 H 498.947 -4.31549 2.44908 0
M  V30 5296 N 498.12 -1.38341 -0.754957 0
M  V30 5297 C 499.348 -1.37704 -1.54419 0
M  V30 5298 C 499.763 0.0335243 -1.8877 0
M  V30 5299 O 499.12 0.999773 -1.52679 0
M  V30 5300 C 499.171 -2.23136 -2.84416 0
M  V30 5301 O 498.892 -3.58697 -2.51531 0
M  V30 5302 C 500.393 -2.30664 -3.78562 0
M  V30 5303 H 497.613 -0.471061 -0.477852 0
M  V30 5304 H 500.157 -1.81902 -0.934446 0
M  V30 5305 H 498.312 -1.82403 -3.41772 0
M  V30 5306 H 498.726 -4.03665 -3.34896 0
M  V30 5307 H 500.2 -2.9473 -4.66732 0
M  V30 5308 H 500.677 -1.3199 -4.18898 0
M  V30 5309 H 501.283 -2.71781 -3.27131 0
M  V30 5310 N 499.598 0.982988 -1.23187 0
M  V30 5311 C 501.009 1.53847 -1.05773 0
M  V30 5312 C 501.36 1.92568 0.375744 0
M  V30 5313 O 500.485 1.75783 1.26211 0
M  V30 5314 C 501.08 2.79567 -1.91384 0
M  V30 5315 C 499.639 3.31524 -1.78238 0
M  V30 5316 C 498.786 2.04534 -1.87246 0
M  V30 5317 H 501.737 0.802962 -1.36888 0
M  V30 5318 H 501.758 3.52317 -1.43711 0
M  V30 5319 H 501.27 2.51353 -2.95708 0
M  V30 5320 H 499.371 3.64623 -0.766875 0
M  V30 5321 H 499.484 4.01457 -2.61475 0
M  V30 5322 H 497.848 2.1855 -1.30797 0
M  V30 5323 H 498.631 1.78706 -2.9312 0
M  V30 5324 N 501.076 1.04316 1.18135 0
M  V30 5325 C 501.986 0.646876 2.25505 0
M  V30 5326 C 503.002 -0.328008 1.7088 0
M  V30 5327 O 504.178 -0.182309 2.00573 0
M  V30 5328 C 501.243 0.0185664 3.46695 0
M  V30 5329 C 500.304 1.04277 4.16443 0
M  V30 5330 C 499.537 0.444352 5.31847 0
M  V30 5331 O 499.76 -0.748735 5.65465 0
M  V30 5332 O 498.694 1.17428 5.90334 0
M  V30 5333 H 502.52 1.54147 2.61672 0
M  V30 5334 H 500.105 0.814188 1.25265 0
M  V30 5335 H 501.987 -0.331068 4.20097 0
M  V30 5336 H 500.662 -0.849814 3.12346 0
M  V30 5337 H 499.569 1.44425 3.45098 0
M  V30 5338 H 500.902 1.882 4.54798 0
M  V30 5339 N 502.554 -1.34406 0.822964 0
M  V30 5340 C 503.486 -2.28305 0.202375 0
M  V30 5341 C 504.499 -1.5103 -0.60777 0
M  V30 5342 O 505.688 -1.73057 -0.437444 0
M  V30 5343 C 502.788 -3.30836 -0.734911 0
M  V30 5344 C 501.961 -4.37388 0.0324177 0
M  V30 5345 C 501.02 -5.1968 -0.825803 0
M  V30 5346 O 500.046 -5.68556 -0.270771 0
M  V30 5347 N 501.248 -5.39393 -2.14558 0
M  V30 5348 H 504.013 -2.82201 1.00909 0
M  V30 5349 H 501.574 -1.4693 0.67993 0
M  V30 5350 H 503.566 -3.82786 -1.31365 0
M  V30 5351 H 502.136 -2.77334 -1.44238 0
M  V30 5352 H 501.356 -3.86152 0.792469 0
M  V30 5353 H 502.644 -5.05702 0.560633 0
M  V30 5354 H 502.042 -5.01357 -2.62025 0
M  V30 5355 H 500.599 -5.94461 -2.67318 0
M  V30 5356 N 504.032 -0.577932 -1.46621 0
M  V30 5357 C 505.262 -0.0670668 -2.06491 0
M  V30 5358 C 505.67 1.24119 -1.42798 0
M  V30 5359 O 505.013 1.76016 -0.525759 0
M  V30 5360 C 505.075 0.177995 -3.59059 0
M  V30 5361 C 504.739 -1.04394 -4.44917 0
M  V30 5362 C 505.736 -1.95479 -4.81751 0
M  V30 5363 C 503.421 -1.26444 -4.86125 0
M  V30 5364 C 505.415 -3.06965 -5.58615 0
M  V30 5365 C 503.102 -2.38237 -5.62749 0
M  V30 5366 C 504.1 -3.28327 -5.98908 0
M  V30 5367 O 503.788 -4.38179 -6.73984 0
M  V30 5368 H 503.52 -0.0523159 -0.673973 0
M  V30 5369 H 506.074 -0.796966 -1.89308 0
M  V30 5370 H 504.304 0.962451 -3.74531 0
M  V30 5371 H 505.993 0.636782 -4.00874 0
M  V30 5372 H 506.759 -1.79657 -4.50498 0
M  V30 5373 H 502.638 -0.572316 -4.57434 0
M  V30 5374 H 506.182 -3.77309 -5.86757 0
M  V30 5375 H 502.079 -2.54023 -5.93416 0
M  V30 5376 H 502.847 -4.36486 -6.92403 0
M  V30 5377 N 505.51 1.54411 -0.315457 0
M  V30 5378 C 506.457 2.24048 0.554166 0
M  V30 5379 C 507.427 1.2283 1.11812 0
M  V30 5380 O 508.612 1.51491 1.15997 0
M  V30 5381 C 505.752 2.99574 1.71316 0
M  V30 5382 C 504.865 4.15594 1.17922 0
M  V30 5383 C 504 4.78669 2.30324 0
M  V30 5384 C 503.039 5.86807 1.74137 0
M  V30 5385 N 502.176 6.43777 2.8017 0
M  V30 5386 H 507.016 2.97964 -0.0462602 0
M  V30 5387 H 504.553 1.47059 -0.0346009 0
M  V30 5388 H 506.511 3.41604 2.39505 0
M  V30 5389 H 505.141 2.28008 2.285 0
M  V30 5390 H 504.193 3.78404 0.389136 0
M  V30 5391 H 505.505 4.93459 0.728012 0
M  V30 5392 H 504.659 5.23626 3.06433 0
M  V30 5393 H 503.398 4.00168 2.78778 0
M  V30 5394 H 502.403 5.41261 0.965236 0
M  V30 5395 H 503.628 6.67201 1.2657 0
M  V30 5396 H 501.574 5.68153 3.2793 0
M  V30 5397 H 501.491 7.17031 2.39588 0
M  V30 5398 H 502.759 6.9339 3.56132 0
M  V30 5399 N 506.988 0.0434614 1.5754 0
M  V30 5400 C 507.898 -0.94893 2.14552 0
M  V30 5401 C 508.914 -1.34707 1.10136 0
M  V30 5402 O 510.09 -1.42557 1.42266 0
M  V30 5403 C 507.155 -2.208 2.67298 0
M  V30 5404 C 506.216 -1.86893 3.86484 0
M  V30 5405 C 505.449 -3.06797 4.36705 0
M  V30 5406 O 505.672 -4.19921 3.86034 0
M  V30 5407 O 504.606 -2.8826 5.28384 0
M  V30 5408 H 508.432 -0.494099 2.99654 0
M  V30 5409 H 506.017 -0.177989 1.48336 0
M  V30 5410 H 507.899 -2.94686 3.01228 0
M  V30 5411 H 506.574 -2.65436 1.85272 0
M  V30 5412 H 505.481 -1.10347 3.57455 0
M  V30 5413 H 506.814 -1.47062 4.69716 0
M  V30 5414 N 508.466 -1.55915 -0.229846 0
M  V30 5415 C 509.706 -1.80314 -0.962614 0
M  V30 5416 C 510.07 -0.61568 -1.81861 0
M  V30 5417 O 511.271 -0.738795 -2.58448 0
M  V30 5418 C 509.542 -3.0956 -1.78627 0
M  V30 5419 S 511.101 -3.55243 -2.57581 0
M  V30 5420 H 507.919 -0.633142 -0.323499 0
M  V30 5421 H 510.521 -1.94155 -0.228919 0
M  V30 5422 H 509.225 -3.94033 -1.14742 0
M  V30 5423 H 508.756 -2.98503 -2.56241 0
M  V30 5424 H 510.771 -3.17924 -3.80971 0
M  V30 5425 N 509.944 0.496216 -1.49584 0
M  V30 5426 C 510.907 1.57952 -1.66084 0
M  V30 5427 C 511.907 1.51729 -0.53244 0
M  V30 5428 O 513.097 1.54796 -0.79899 0
M  V30 5429 C 510.229 2.97604 -1.66268 0
M  V30 5430 H 511.422 1.44649 -2.6271 0
M  V30 5431 H 508.975 0.7208 -1.38687 0
M  V30 5432 H 509.71 3.16378 -0.712432 0
M  V30 5433 H 509.495 3.03528 -2.4822 0
M  V30 5434 H 510.985 3.76301 -1.81073 0
M  V30 5435 N 511.423 1.38739 0.74761 0
M  V30 5436 C 512.7 1.25791 1.49786 0
M  V30 5437 C 513.08 -0.138075 2.10648 0
M  V30 5438 O 512.428 -1.14815 1.9756 0
M  V30 5439 C 512.638 2.37265 2.55942 0
M  V30 5440 C 513.986 2.75978 3.22679 0
M  V30 5441 O 515.01 2.36621 2.6625 0
M  V30 5442 O 513.869 3.43867 4.24756 0
M  V30 5443 H 510.963 0.492251 0.664543 0
M  V30 5444 H 513.509 1.50582 0.782511 0
M  V30 5445 H 512.281 3.30644 2.0926 0
M  V30 5446 H 511.904 2.14071 3.35051 0
M  V30 5447 N 512.901 -0.976442 1.23707 0
M  V30 5448 C 514.312 -1.53284 1.06587 0
M  V30 5449 C 514.663 -1.92765 -0.365526 0
M  V30 5450 O 513.788 -1.7645 -1.25277 0
M  V30 5451 C 514.383 -2.78548 1.92864 0
M  V30 5452 C 512.942 -3.30574 1.79994 0
M  V30 5453 C 512.089 -2.03538 1.88328 0
M  V30 5454 H 515.04 -0.795692 1.37311 0
M  V30 5455 H 515.061 -3.5155 1.45577 0
M  V30 5456 H 514.573 -2.49782 2.97037 0
M  V30 5457 H 512.674 -3.64211 0.786202 0
M  V30 5458 H 512.787 -4.00065 2.636 0
M  V30 5459 H 511.151 -2.17853 1.31954 0
M  V30 5460 H 511.934 -1.77149 2.94063 0
M  V30 5461 N 514.379 -1.04941 -1.1758 0
M  V30 5462 C 515.342 -0.652456 -2.19717 0
M  V30 5463 C 516.342 0.294745 -1.58076 0
M  V30 5464 O 517.532 0.0789579 -1.74021 0
M  V30 5465 C 514.664 0.0420712 -3.40874 0
M  V30 5466 H 515.857 -1.55642 -2.5635 0
M  V30 5467 H 513.41 -0.842995 -1.31618 0
M  V30 5468 H 514.145 0.95943 -3.09783 0
M  V30 5469 H 513.93 -0.638844 -3.86861 0
M  V30 5470 H 515.42 0.306 -4.16477 0
M  V30 5471 N 515.857 1.33968 -0.830081 0
M  V30 5472 C 516.787 2.31911 -0.271911 0
M  V30 5473 C 517.768 1.58571 0.61556 0
M  V30 5474 O 518.953 1.86514 0.540946 0
M  V30 5475 C 516.083 3.42737 0.561146 0
M  V30 5476 C 515.037 4.27383 -0.229789 0
M  V30 5477 C 514.363 5.29742 0.726463 0
M  V30 5478 C 515.663 5.02 -1.44197 0
M  V30 5479 H 517.357 2.78844 -1.09025 0
M  V30 5480 H 514.903 1.34061 -0.52571 0
M  V30 5481 H 516.856 4.10276 0.961867 0
M  V30 5482 H 515.58 2.94471 1.41261 0
M  V30 5483 H 514.239 3.61456 -0.611964 0
M  V30 5484 H 513.887 4.77736 1.57408 0
M  V30 5485 H 513.587 5.87255 0.20142 0
M  V30 5486 H 515.111 6.00149 1.12489 0
M  V30 5487 H 516.525 5.62355 -1.11488 0
M  V30 5488 H 514.922 5.69122 -1.90317 0
M  V30 5489 H 515.992 4.31281 -2.2164 0
M  V30 5490 N 517.335 0.585699 1.46312 0
M  V30 5491 C 518.612 0.00542031 1.95599 0
M  V30 5492 C 518.992 -1.45619 1.52834 0
M  V30 5493 O 518.34 -2.14759 0.780446 0
M  V30 5494 C 518.55 0.180601 3.48532 0
M  V30 5495 C 519.898 0.049979 4.24571 0
M  V30 5496 O 520.922 0.109589 3.56031 0
M  V30 5497 O 519.781 -0.0832226 5.46437 0
M  V30 5498 H 516.875 -0.0481281 0.825598 0
M  V30 5499 H 519.421 0.654227 1.56582 0
M  V30 5500 H 518.193 1.19657 3.72556 0
M  V30 5501 H 517.816 -0.504498 3.94386 0
M  V30 5502 N 518.813 -1.54241 0.323641 0
M  V30 5503 C 520.06 -2.0057 -0.27891 0
M  V30 5504 C 520.388 -1.21181 -1.52136 0
M  V30 5505 O 519.643 -0.282043 -1.93657 0
M  V30 5506 C 519.942 -3.5129 -0.658031 0
M  V30 5507 C 519.608 -4.48281 0.485252 0
M  V30 5508 C 518.27 -4.74519 0.799055 0
M  V30 5509 C 520.622 -5.05909 1.25322 0
M  V30 5510 C 517.95 -5.55643 1.88354 0
M  V30 5511 C 520.302 -5.88215 2.32779 0
M  V30 5512 C 518.966 -6.12755 2.64741 0
M  V30 5513 H 518.236 -0.733938 -0.10206 0
M  V30 5514 H 520.883 -1.862 0.447435 0
M  V30 5515 H 519.188 -3.63388 -1.4648 0
M  V30 5516 H 520.885 -3.84578 -1.1358 0
M  V30 5517 H 517.475 -4.27979 0.230593 0
M  V30 5518 H 521.659 -4.8562 1.02404 0
M  V30 5519 H 516.915 -5.72888 2.13564 0
M  V30 5520 H 521.089 -6.31888 2.92729 0
M  V30 5521 H 518.716 -6.75404 3.48904 0
M  V30 5522 N 520.291 -0.0518155 -1.57515 0
M  V30 5523 C 521.221 0.920283 -2.146 0
M  V30 5524 C 522.202 1.32406 -1.06783 0
M  V30 5525 O 523.387 1.39866 -1.34726 0
M  V30 5526 C 520.517 2.1949 -2.6915 0
M  V30 5527 C 519.471 1.93116 -3.81956 0
M  V30 5528 C 518.797 3.27037 -4.23026 0
M  V30 5529 C 520.097 1.25225 -5.07066 0
M  V30 5530 H 521.791 0.444801 -2.96077 0
M  V30 5531 H 519.337 0.212508 -1.42423 0
M  V30 5532 H 521.29 2.87894 -3.07725 0
M  V30 5533 H 520.014 2.69244 -1.84865 0
M  V30 5534 H 518.673 1.27123 -3.43854 0
M  V30 5535 H 518.321 3.74595 -3.3569 0
M  V30 5536 H 518.021 3.10189 -4.99056 0
M  V30 5537 H 519.545 3.96673 -4.64202 0
M  V30 5538 H 520.959 1.83666 -5.43083 0
M  V30 5539 H 519.356 1.18702 -5.88243 0
M  V30 5540 H 520.426 0.228382 -4.84362 0
M  V30 5541 N 521.769 1.56035 0.221574 0
M  V30 5542 C 523.015 1.79312 0.947372 0
M  V30 5543 C 523.348 0.621453 1.83988 0
M  V30 5544 O 522.623 -0.379287 1.90766 0
M  V30 5545 C 522.906 3.1267 1.78633 0
M  V30 5546 C 522.759 4.40284 0.920312 0
M  V30 5547 C 524.078 3.4247 2.7641 0
M  V30 5548 H 521.197 0.652328 0.342982 0
M  V30 5549 H 523.839 1.88765 0.216244 0
M  V30 5550 H 521.989 3.04741 2.40967 0
M  V30 5551 H 523.661 4.60232 0.313718 0
M  V30 5552 H 521.904 4.33212 0.225734 0
M  V30 5553 H 522.575 5.30033 1.54171 0
M  V30 5554 H 525.051 3.50526 2.24211 0
M  V30 5555 H 523.927 4.3695 3.32213 0
M  V30 5556 H 524.188 2.64635 3.54148 0
M  V30 5557 N 523.247 -0.488276 1.49845 0
M  V30 5558 C 524.157 -1.61451 1.70207 0
M  V30 5559 C 525.173 -1.63877 0.584846 0
M  V30 5560 O 526.349 -1.82063 0.861107 0
M  V30 5561 C 523.414 -2.9776 1.77594 0
M  V30 5562 C 522.475 -3.05861 3.01243 0
M  V30 5563 C 521.708 -4.35668 3.08268 0
M  V30 5564 O 521.931 -5.25197 2.22541 0
M  V30 5565 O 520.865 -4.49005 4.00847 0
M  V30 5566 H 524.691 -1.47199 2.65643 0
M  V30 5567 H 522.276 -0.665939 1.33737 0
M  V30 5568 H 524.158 -3.7875 1.84732 0
M  V30 5569 H 522.833 -3.12248 0.8534 0
M  V30 5570 H 521.74 -2.24012 2.99616 0
M  V30 5571 H 523.073 -2.96304 3.9302 0
M  V30 5572 N 524.725 -1.39134 -0.740242 0
M  V30 5573 C 525.672 -1.37434 -1.8542 0
M  V30 5574 C 526.642 -0.234822 -1.64432 0
M  V30 5575 O 527.827 -0.429125 -1.85912 0
M  V30 5576 C 524.967 -1.21844 -3.22875 0
M  V30 5577 C 524.08 -2.45296 -3.55603 0
M  V30 5578 C 523.215 -2.22334 -4.82432 0
M  V30 5579 C 522.254 -3.41488 -5.07988 0
M  V30 5580 N 521.391 -3.17877 -6.26018 0
M  V30 5581 H 526.231 -2.3266 -1.86207 0
M  V30 5582 H 523.768 -1.15578 -0.909946 0
M  V30 5583 H 525.726 -1.10818 -4.02213 0
M  V30 5584 H 524.356 -0.3025 -3.21379 0
M  V30 5585 H 523.408 -2.66945 -2.71006 0
M  V30 5586 H 524.72 -3.34063 -3.7041 0
M  V30 5587 H 523.874 -2.0852 -5.69741 0
M  V30 5588 H 522.613 -1.30954 -4.6979 0
M  V30 5589 H 521.618 -3.55807 -4.19144 0
M  V30 5590 H 522.843 -4.33763 -5.22519 0
M  V30 5591 H 520.789 -2.29156 -6.14673 0
M  V30 5592 H 520.706 -4.00198 -6.41387 0
M  V30 5593 H 521.974 -3.07746 -7.16179 0
M  V30 5594 N 526.204 0.969867 -1.24223 0
M  V30 5595 C 527.481 1.68774 -0.988664 0
M  V30 5596 C 527.861 2.05342 0.489673 0
M  V30 5597 O 527.209 1.75486 1.46345 0
M  V30 5598 C 527.419 2.92135 -1.90941 0
M  V30 5599 C 528.767 3.64422 -2.17903 0
M  V30 5600 O 529.791 3.02188 -1.88576 0
M  V30 5601 O 528.65 4.76446 -2.67697 0
M  V30 5602 H 525.744 0.737736 -0.37373 0
M  V30 5603 H 528.29 1.02415 -1.35312 0
M  V30 5604 H 527.062 2.61788 -2.90831 0
M  V30 5605 H 526.685 3.66228 -1.54798 0
M  V30 5606 N 527.682 1.05563 1.17022 0
M  V30 5607 C 528.614 0.617888 2.20714 0
M  V30 5608 C 529.627 -0.320303 1.59618 0
M  V30 5609 O 530.816 -0.112449 1.78145 0
M  V30 5610 C 527.916 -0.115333 3.38704 0
M  V30 5611 C 527.089 0.834493 4.29366 0
M  V30 5612 C 526.148 0.141855 5.26009 0
M  V30 5613 O 525.174 0.777151 5.6387 0
M  V30 5614 N 526.376 -1.11934 5.69606 0
M  V30 5615 H 529.141 1.50981 2.58892 0
M  V30 5616 H 526.702 0.938008 1.31958 0
M  V30 5617 H 528.694 -0.588918 4.00392 0
M  V30 5618 H 527.264 -0.908967 2.99093 0
M  V30 5619 H 526.484 1.48762 3.65053 0
M  V30 5620 H 527.772 1.4791 4.86827 0
M  V30 5621 H 527.17 -1.65574 5.40927 0
M  V30 5622 H 525.727 -1.53692 6.33421 0
M  V30 5623 N 529.16 -1.33526 0.837174 0
M  V30 5624 C 530.07 -2.33023 0.271568 0
M  V30 5625 C 531.086 -1.63272 -0.601514 0
M  V30 5626 O 532.262 -1.94939 -0.506038 0
M  V30 5627 C 529.327 -3.42382 -0.545448 0
M  V30 5628 C 528.388 -4.27857 0.351709 0
M  V30 5629 C 527.621 -5.31994 -0.426409 0
M  V30 5630 O 527.844 -5.45763 -1.65828 0
M  V30 5631 O 526.778 -6.01572 0.1987 0
M  V30 5632 H 530.604 -2.83256 1.09545 0
M  V30 5633 H 528.189 -1.36837 0.599655 0
M  V30 5634 H 530.071 -4.09122 -1.00979 0
M  V30 5635 H 528.746 -2.94369 -1.34641 0
M  V30 5636 H 527.653 -3.6399 0.863853 0
M  V30 5637 H 528.986 -4.79349 1.1174 0
M  V30 5638 N 530.638 -0.59345 -1.46 0
M  V30 5639 C 531.868 -0.0889642 -2.06408 0
M  V30 5640 C 532.276 1.22597 -1.44106 0
M  V30 5641 O 531.619 1.75448 -0.544398 0
M  V30 5642 C 531.681 0.139902 -3.59228 0
M  V30 5643 C 531.345 -1.09107 -4.43784 0
M  V30 5644 C 532.342 -2.00577 -4.79651 0
M  V30 5645 C 530.027 -1.31593 -4.84756 0
M  V30 5646 C 532.021 -3.12873 -5.55328 0
M  V30 5647 C 529.708 -2.44192 -5.60191 0
M  V30 5648 C 530.706 -3.34661 -5.95392 0
M  V30 5649 O 530.394 -4.45302 -6.69299 0
M  V30 5650 H 530.126 -0.0594613 -0.67338 0
M  V30 5651 H 532.68 -0.817 -1.88452 0
M  V30 5652 H 530.91 0.922672 -3.75531 0
M  V30 5653 H 532.599 0.594228 -4.01527 0
M  V30 5654 H 533.365 -1.84425 -4.48567 0
M  V30 5655 H 529.244 -0.620801 -4.56801 0
M  V30 5656 H 532.788 -3.83511 -5.82722 0
M  V30 5657 H 528.685 -2.60303 -5.90688 0
M  V30 5658 H 529.453 -4.43805 -6.87735 0
M  V30 5659 N 532.116 1.54067 -0.331816 0
M  V30 5660 C 533.356 2.02625 0.26876 0
M  V30 5661 C 533.72 1.21462 1.48697 0
M  V30 5662 O 534.921 1.59863 2.16096 0
M  V30 5663 C 533.192 3.52554 0.586577 0
M  V30 5664 S 534.751 4.23035 1.16563 0
M  V30 5665 H 531.569 0.706395 0.0807862 0
M  V30 5666 H 534.171 1.89844 -0.466856 0
M  V30 5667 H 532.875 4.09242 -0.308046 0
M  V30 5668 H 532.406 3.69432 1.35217 0
M  V30 5669 H 534.421 4.31382 2.45203 0
M  V30 5670 N 533.594 0.0601682 1.57485 0
M  V30 5671 C 534.84 -0.612501 1.93329 0
M  V30 5672 C 535.173 -1.6996 0.939526 0
M  V30 5673 O 534.448 -1.94472 -0.0330957 0
M  V30 5674 C 534.731 -1.20025 3.39508 0
M  V30 5675 C 534.584 -0.12059 4.49638 0
M  V30 5676 C 535.903 -2.10923 3.86264 0
M  V30 5677 H 533.022 -0.221185 0.703027 0
M  V30 5678 H 535.664 0.123768 1.89596 0
M  V30 5679 H 533.814 -1.82774 3.42821 0
M  V30 5680 H 535.486 0.51185 4.58452 0
M  V30 5681 H 533.729 0.550251 4.30296 0
M  V30 5682 H 534.4 -0.572019 5.49028 0
M  V30 5683 H 536.876 -1.58124 3.84884 0
M  V30 5684 H 535.752 -2.48987 4.8918 0
M  V30 5685 H 536.013 -3.01292 3.23536 0
M  V30 5686 N 535.072 -1.5615 -0.213296 0
M  V30 5687 C 536.312 -1.81325 -0.943435 0
M  V30 5688 C 536.676 -0.634934 -1.81198 0
M  V30 5689 O 537.877 -0.766166 -2.5765 0
M  V30 5690 C 536.148 -3.11437 -1.75334 0
M  V30 5691 S 537.707 -3.57955 -2.53799 0
M  V30 5692 H 534.525 -0.636538 -0.316766 0
M  V30 5693 H 537.127 -1.94387 -0.208313 0
M  V30 5694 H 535.831 -3.95228 -1.10556 0
M  V30 5695 H 535.362 -3.01204 -2.53061 0
M  V30 5696 H 537.377 -3.21947 -3.77577 0
M  V30 5697 N 536.55 0.480323 -1.50102 0
M  V30 5698 C 537.46 1.60547 -1.71061 0
M  V30 5699 C 538.476 1.63564 -0.593529 0
M  V30 5700 O 539.652 1.81604 -0.870751 0
M  V30 5701 C 536.717 2.96814 -1.79171 0
M  V30 5702 C 535.778 3.04259 -3.02861 0
M  V30 5703 C 535.011 4.34027 -3.10574 0
M  V30 5704 O 535.234 5.24009 -2.25323 0
M  V30 5705 O 534.168 4.46873 -4.03223 0
M  V30 5706 H 537.994 1.45788 -2.6642 0
M  V30 5707 H 535.579 0.658838 -1.34088 0
M  V30 5708 H 537.461 3.77765 -1.86738 0
M  V30 5709 H 536.136 3.11791 -0.869947 0
M  V30 5710 H 535.043 2.22419 -3.008 0
M  V30 5711 H 536.376 2.94216 -3.94586 0
M  V30 5712 N 538.028 1.39524 0.732853 0
M  V30 5713 C 538.961 1.32806 1.85574 0
M  V30 5714 C 539.939 0.201354 1.61348 0
M  V30 5715 O 541.123 0.38216 1.84585 0
M  V30 5716 C 538.25 1.06271 3.21596 0
M  V30 5717 C 537.296 2.21161 3.64678 0
M  V30 5718 S 538.129 3.83454 3.73796 0
M  V30 5719 C 539.285 3.59149 5.12604 0
M  V30 5720 H 539.518 2.27838 1.9099 0
M  V30 5721 H 537.051 1.25605 0.897927 0
M  V30 5722 H 539.009 0.916461 4.00139 0
M  V30 5723 H 537.67 0.129223 3.13834 0
M  V30 5724 H 536.863 1.98193 4.63396 0
M  V30 5725 H 536.465 2.32 2.93346 0
M  V30 5726 H 538.757 3.16547 5.99003 0
M  V30 5727 H 539.7 4.57335 5.40602 0
M  V30 5728 H 540.108 2.93203 4.82382 0
M  V30 5729 N 539.506 -0.963266 1.24736 0
M  V30 5730 C 540.917 -1.52145 1.08207 0
M  V30 5731 C 541.268 -1.93142 -0.345061 0
M  V30 5732 O 540.393 -1.77769 -1.23399 0
M  V30 5733 C 540.988 -2.76486 1.95808 0
M  V30 5734 C 539.547 -3.28646 1.8349 0
M  V30 5735 C 538.694 -2.01529 1.90476 0
M  V30 5736 H 541.645 -0.781083 1.38148 0
M  V30 5737 H 541.666 -3.49986 1.49297 0
M  V30 5738 H 541.178 -2.46617 2.99669 0
M  V30 5739 H 539.279 -3.63357 0.824787 0
M  V30 5740 H 539.392 -3.97246 2.67829 0
M  V30 5741 H 537.756 -2.16442 1.34258 0
M  V30 5742 H 538.539 -1.7402 2.95926 0
M  V30 5743 N 540.985 -1.06182 -1.16461 0
M  V30 5744 C 542.225 -0.787048 -1.8864 0
M  V30 5745 C 542.589 0.674093 -1.79778 0
M  V30 5746 O 543.79 1.06341 -2.46871 0
M  V30 5747 C 542.061 -1.2666 -3.34203 0
M  V30 5748 S 543.62 -1.12071 -4.24247 0
M  V30 5749 H 540.438 -0.285539 -0.651144 0
M  V30 5750 H 543.04 -1.35851 -1.40587 0
M  V30 5751 H 541.744 -2.32496 -3.38192 0
M  V30 5752 H 541.275 -0.689841 -3.87304 0
M  V30 5753 H 543.29 -0.0509341 -4.96174 0
M  V30 5754 N 542.463 1.3308 -0.844243 0
M  V30 5755 C 543.411 2.31028 -0.269954 0
M  V30 5756 C 544.405 1.58381 0.600997 0
M  V30 5757 O 545.611 1.73203 0.48996 0
M  V30 5758 H 541.986 0.748866 -0.0685782 0
M  V30 5759 H 543.957 2.76967 -1.11049 0
M  V30 5760 C 542.706 3.43549 0.535676 0
M  V30 5761 H 542.029 3.99604 -0.125202 0
M  V30 5762 H 543.469 4.14267 0.903262 0
M  V30 5763 C 541.928 2.8988 1.71672 0
M  V30 5764 O 542.458 2.86511 2.81557 0
M  V30 5765 N 540.664 2.46416 1.54037 0
M  V30 5766 H 540.211 2.49356 0.64649 0
M  V30 5767 H 540.169 2.1086 2.33207 0
M  V30 5768 N 543.941 0.601185 1.45683 0
M  V30 5769 C 544.871 -0.108824 2.33246 0
M  V30 5770 C 545.852 -0.865223 1.46451 0
M  V30 5771 O 547.037 -0.83704 1.75235 0
M  V30 5772 C 544.167 -1.11101 3.2905 0
M  V30 5773 C 543.121 -0.468244 4.25431 0
M  V30 5774 C 542.447 -1.57822 5.10878 0
M  V30 5775 C 543.747 0.606469 5.18767 0
M  V30 5776 H 545.441 0.622306 2.92861 0
M  V30 5777 H 542.987 0.300714 1.40825 0
M  V30 5778 H 544.94 -1.61622 3.89174 0
M  V30 5779 H 543.664 -1.87265 2.67581 0
M  V30 5780 H 542.323 0.0160484 3.66596 0
M  V30 5781 H 541.971 -2.32998 4.45781 0
M  V30 5782 H 541.671 -1.15369 5.76163 0
M  V30 5783 H 543.195 -2.08583 5.73869 0
M  V30 5784 H 544.609 0.185589 5.73 0
M  V30 5785 H 543.006 0.952381 5.92494 0
M  V30 5786 H 544.076 1.48559 4.61582 0
M  V30 5787 N 545.419 -1.53889 0.339982 0
M  V30 5788 C 546.647 -2.05271 -0.259114 0
M  V30 5789 C 547.062 -1.21517 -1.44496 0
M  V30 5790 O 546.419 -0.24966 -1.80784 0
M  V30 5791 C 546.47 -3.55092 -0.677634 0
M  V30 5792 O 546.191 -4.35667 0.461051 0
M  V30 5793 C 547.692 -4.22631 -1.33782 0
M  V30 5794 H 544.912 -0.669085 -0.0506566 0
M  V30 5795 H 547.456 -1.9852 0.490935 0
M  V30 5796 H 545.611 -3.62077 -1.37763 0
M  V30 5797 H 546.025 -5.24343 0.128144 0
M  V30 5798 H 547.499 -5.28861 -1.58145 0
M  V30 5799 H 547.976 -3.74758 -2.29027 0
M  V30 5800 H 548.582 -4.19829 -0.679957 0
M  V30 5801 N 546.897 -0.0685191 -1.57451 0
M  V30 5802 C 548.313 0.288101 -1.56978 0
M  V30 5803 C 548.513 1.70262 -1.07765 0
M  V30 5804 O 547.569 2.4135 -0.742054 0
M  V30 5805 C 548.882 0.100745 -3.00531 0
M  V30 5806 C 550.43 0.170531 -3.12535 0
M  V30 5807 C 550.905 0.0114944 -4.57999 0
M  V30 5808 N 552.396 0.0672065 -4.63151 0
M  V30 5809 C 553.131 -0.0314813 -5.73391 0
M  V30 5810 N 552.627 -0.183503 -6.92557 0
M  V30 5811 N 554.42 0.0253489 -5.62094 0
M  V30 5812 H 546.571 -0.993026 -1.87757 0
M  V30 5813 H 548.834 -0.386981 -0.865419 0
M  V30 5814 H 548.54 -0.875197 -3.40636 0
M  V30 5815 H 548.414 0.854457 -3.67395 0
M  V30 5816 H 550.801 1.13696 -2.72318 0
M  V30 5817 H 550.882 -0.614229 -2.48316 0
M  V30 5818 H 550.526 -0.951684 -4.98904 0
M  V30 5819 H 550.456 0.815617 -5.20245 0
M  V30 5820 H 552.947 0.183246 -3.77455 0
M  V30 5821 H 553.26 -0.251041 -7.72392 0
M  V30 5822 H 551.605 -0.218822 -6.94655 0
M  V30 5823 H 554.796 0.142794 -4.67882 0
M  V30 5824 H 554.969 -0.0550166 -6.47977 0
M  V30 5825 N 548.375 1.56261 0.205012 0
M  V30 5826 C 549.605 1.83874 0.942018 0
M  V30 5827 C 550.013 0.647595 1.77772 0
M  V30 5828 O 549.356 -0.393098 1.79445 0
M  V30 5829 C 549.418 3.05453 1.89575 0
M  V30 5830 C 549.082 4.39772 1.24296 0
M  V30 5831 C 550.079 5.16133 0.624724 0
M  V30 5832 C 547.764 4.86504 1.24978 0
M  V30 5833 C 549.758 6.37396 0.0220117 0
M  V30 5834 C 547.445 6.07705 0.643232 0
M  V30 5835 C 548.443 6.82993 0.0304164 0
M  V30 5836 O 548.131 8.019 -0.566654 0
M  V30 5837 H 547.863 0.614896 0.280854 0
M  V30 5838 H 550.417 2.04215 0.220285 0
M  V30 5839 H 548.647 2.80972 2.65691 0
M  V30 5840 H 550.336 3.19797 2.4997 0
M  V30 5841 H 551.102 4.81127 0.611666 0
M  V30 5842 H 546.981 4.27865 1.71616 0
M  V30 5843 H 550.525 6.96102 -0.456926 0
M  V30 5844 H 546.422 6.42181 0.653759 0
M  V30 5845 H 547.19 8.17192 -0.462588 0
M  V30 5846 N 549.853 -0.472356 1.50355 0
M  V30 5847 C 551.101 -1.22211 1.60962 0
M  V30 5848 C 551.422 -1.92497 0.311439 0
M  V30 5849 O 550.692 -1.8405 -0.671002 0
M  V30 5850 H 549.272 -0.454092 0.593135 0
M  V30 5851 H 551.934 -0.544977 1.87126 0
M  V30 5852 H 551.03 -1.9707 2.42012 0
M  V30 5853 N 551.331 -1.39911 -0.725443 0
M  V30 5854 C 552.278 -1.39393 -1.83952 0
M  V30 5855 C 553.248 -0.252249 -1.64173 0
M  V30 5856 O 554.433 -0.44882 -1.85446 0
M  V30 5857 C 551.573 -1.25262 -3.21564 0
M  V30 5858 C 550.686 -2.49054 -3.52982 0
M  V30 5859 C 549.821 -2.27439 -4.80047 0
M  V30 5860 C 548.86 -3.46857 -5.04338 0
M  V30 5861 N 547.997 -3.24499 -6.22611 0
M  V30 5862 H 552.837 -2.34622 -1.83729 0
M  V30 5863 H 550.374 -1.16537 -0.897636 0
M  V30 5864 H 552.332 -1.15077 -4.01015 0
M  V30 5865 H 550.962 -0.33657 -3.21041 0
M  V30 5866 H 550.014 -2.69805 -2.6816 0
M  V30 5867 H 551.326 -3.37973 -3.66846 0
M  V30 5868 H 550.48 -2.14551 -5.67497 0
M  V30 5869 H 549.219 -1.35929 -4.68374 0
M  V30 5870 H 548.224 -3.60232 -4.15346 0
M  V30 5871 H 549.449 -4.3928 -5.17889 0
M  V30 5872 H 547.395 -2.35663 -6.12208 0
M  V30 5873 H 547.312 -4.06978 -6.37106 0
M  V30 5874 H 548.58 -3.15325 -7.12875 0
M  V30 5875 N 552.809 0.956637 -1.25245 0
M  V30 5876 C 553.719 2.0868 -1.0719 0
M  V30 5877 C 554.735 1.73997 -0.00959074 0
M  V30 5878 O 555.911 2.00301 -0.210104 0
M  V30 5879 C 552.976 3.39754 -0.690526 0
M  V30 5880 C 552.037 3.88316 -1.83055 0
M  V30 5881 C 551.27 5.13134 -1.46728 0
M  V30 5882 O 551.493 5.6925 -0.362029 0
M  V30 5883 O 550.427 5.56356 -2.29677 0
M  V30 5884 H 554.253 2.26813 -2.01965 0
M  V30 5885 H 551.838 1.07098 -1.04165 0
M  V30 5886 H 553.72 4.18543 -0.489871 0
M  V30 5887 H 552.395 3.22896 0.227981 0
M  V30 5888 H 551.302 3.1054 -2.08604 0
M  V30 5889 H 552.635 4.09669 -2.72822 0
M  V30 5890 N 554.287 1.06798 1.15896 0
M  V30 5891 C 555.217 0.704677 2.22613 0
M  V30 5892 C 556.198 -0.305252 1.67339 0
M  V30 5893 O 557.383 -0.179247 1.93371 0
M  V30 5894 C 554.513 0.0957325 3.47168 0
M  V30 5895 C 553.467 1.0322 4.15367 0
M  V30 5896 C 552.793 0.286293 5.33933 0
M  V30 5897 C 554.093 2.36341 4.65768 0
M  V30 5898 H 555.787 1.59688 2.53259 0
M  V30 5899 H 553.333 0.769257 1.21731 0
M  V30 5900 H 555.286 -0.170333 4.21056 0
M  V30 5901 H 554.01 -0.831516 3.15838 0
M  V30 5902 H 552.669 1.28309 3.43413 0
M  V30 5903 H 552.317 -0.644237 4.98857 0
M  V30 5904 H 552.017 0.910436 5.80504 0
M  V30 5905 H 553.541 0.0278938 6.10594 0
M  V30 5906 H 554.955 2.1561 5.31211 0
M  V30 5907 H 553.352 2.94299 5.2298 0
M  V30 5908 H 554.422 2.99047 3.81705 0
M  V30 5909 N 555.766 -1.3263 0.851289 0
M  V30 5910 C 556.991 -2.02097 0.466006 0
M  V30 5911 C 557.416 -1.63574 -0.928709 0
M  V30 5912 O 556.774 -0.834665 -1.60944 0
M  V30 5913 C 556.822 -3.55425 0.608737 0
M  V30 5914 O 555.926 -4.10827 -0.359878 0
M  V30 5915 H 555.267 -0.636911 0.187724 0
M  V30 5916 H 557.797 -1.69253 1.14955 0
M  V30 5917 H 557.807 -4.04986 0.495006 0
M  V30 5918 H 556.482 -3.82806 1.62581 0
M  V30 5919 H 555.059 -3.72349 -0.202666 0
M  V30 5920 N 557.244 -0.608902 -1.45362 0
M  V30 5921 C 558.177 0.158059 -2.27652 0
M  V30 5922 C 559.155 0.872397 -1.37215 0
M  V30 5923 O 560.339 0.881002 -1.66645 0
M  V30 5924 C 557.466 1.22896 -3.15617 0
M  V30 5925 C 556.512 0.617607 -4.22005 0
M  V30 5926 S 557.345 -0.575518 -5.32398 0
M  V30 5927 C 558.501 0.495938 -6.23932 0
M  V30 5928 H 558.734 -0.540095 -2.92353 0
M  V30 5929 H 556.267 -0.396456 -1.49223 0
M  V30 5930 H 558.225 1.84195 -3.66855 0
M  V30 5931 H 556.886 1.89919 -2.50179 0
M  V30 5932 H 556.079 1.42341 -4.83482 0
M  V30 5933 H 555.681 0.0797273 -3.73915 0
M  V30 5934 H 557.973 1.37465 -6.63408 0
M  V30 5935 H 558.916 -0.0827108 -7.08052 0
M  V30 5936 H 559.324 0.811856 -5.58631 0
M  V30 5937 N 558.722 1.53707 -0.348139 0
M  V30 5938 C 559.968 2.01286 0.247332 0
M  V30 5939 C 560.301 1.23546 1.49834 0
M  V30 5940 O 559.576 0.324331 1.91777 0
M  V30 5941 C 559.859 3.55768 0.556858 0
M  V30 5942 C 559.712 4.44216 -0.706564 0
M  V30 5943 C 561.031 4.1841 1.3646 0
M  V30 5944 H 558.15 0.731677 0.0884201 0
M  V30 5945 H 560.792 1.84106 -0.469584 0
M  V30 5946 H 558.942 3.70539 1.16761 0
M  V30 5947 H 560.614 4.41274 -1.34444 0
M  V30 5948 H 558.857 4.12892 -1.33052 0
M  V30 5949 H 559.528 5.50202 -0.445186 0
M  V30 5950 H 562.004 4.07365 0.848113 0
M  V30 5951 H 560.88 5.26563 1.54992 0
M  V30 5952 H 561.141 3.7333 2.36805 0
M  V30 5953 N 560.2 0.0768682 1.57412 0
M  V30 5954 C 561.147 -0.888577 2.13009 0
M  V30 5955 C 562.117 -1.29198 1.0439 0
M  V30 5956 O 563.302 -1.37694 1.3208 0
M  V30 5957 C 560.442 -2.14899 2.70023 0
M  V30 5958 C 559.555 -1.79777 3.92816 0
M  V30 5959 C 558.69 -3.00467 4.38056 0
M  V30 5960 C 557.729 -2.61385 5.53484 0
M  V30 5961 N 556.866 -3.74851 5.93659 0
M  V30 5962 H 561.706 -0.407593 2.95199 0
M  V30 5963 H 559.243 -0.189534 1.45874 0
M  V30 5964 H 561.201 -2.88688 3.0119 0
M  V30 5965 H 559.831 -2.60529 1.9059 0
M  V30 5966 H 558.883 -0.960301 3.68079 0
M  V30 5967 H 560.195 -1.47027 4.76639 0
M  V30 5968 H 559.349 -3.82529 4.7091 0
M  V30 5969 H 558.088 -3.36413 3.53097 0
M  V30 5970 H 557.093 -1.77746 5.20275 0
M  V30 5971 H 558.318 -2.26603 6.40178 0
M  V30 5972 H 556.264 -4.1055 5.11649 0
M  V30 5973 H 556.181 -3.45887 6.72234 0
M  V30 5974 H 557.449 -4.57477 6.31138 0
M  V30 5975 N 561.678 -1.56367 -0.196722 0
M  V30 5976 C 562.927 -1.79724 -0.915539 0
M  V30 5977 C 563.24 -0.649804 -1.84491 0
M  V30 5978 O 564.446 -0.767631 -2.60422 0
M  V30 5979 C 562.902 -3.18369 -1.67836 0
M  V30 5980 C 562.51 -4.4091 -0.793897 0
M  V30 5981 C 564.254 -3.51037 -2.38691 0
M  V30 5982 C 562.161 -5.70577 -1.55549 0
M  V30 5983 H 561.091 -0.67013 -0.345604 0
M  V30 5984 H 563.742 -1.82721 -0.168856 0
M  V30 5985 H 562.124 -3.09617 -2.46887 0
M  V30 5986 H 563.298 -4.60781 -0.042163 0
M  V30 5987 H 561.613 -4.15937 -0.19626 0
M  V30 5988 H 564.21 -4.4515 -2.96219 0
M  V30 5989 H 564.553 -2.74704 -3.12799 0
M  V30 5990 H 565.086 -3.61229 -1.66608 0
M  V30 5991 H 561.825 -6.49871 -0.857226 0
M  V30 5992 H 561.345 -5.54726 -2.2812 0
M  V30 5993 H 563.024 -6.11637 -2.10971 0
M  V30 5994 N 563.156 0.464375 -1.50603 0
M  V30 5995 C 564.567 1.04507 -1.5471 0
M  V30 5996 C 564.918 1.9297 -0.354542 0
M  V30 5997 O 564.043 2.09763 0.531812 0
M  V30 5998 C 564.638 1.90207 -2.80369 0
M  V30 5999 C 563.197 2.43373 -2.87135 0
M  V30 6000 C 562.344 1.21886 -2.49076 0
M  V30 6001 H 565.295 0.246716 -1.56771 0
M  V30 6002 H 565.316 2.75353 -2.62604 0
M  V30 6003 H 564.828 1.25796 -3.67147 0
M  V30 6004 H 562.929 3.11318 -2.04724 0
M  V30 6005 H 563.042 2.7802 -3.90181 0
M  V30 6006 H 561.406 1.55575 -2.01664 0
M  V30 6007 H 562.189 0.591268 -3.3817 0
M  V30 6008 N 564.634 1.40294 0.718013 0
M  V30 6009 C 565.859 1.41941 1.5122 0
M  V30 6010 C 566.284 0.0202371 1.88089 0
M  V30 6011 O 565.642 -0.971078 1.53101 0
M  V30 6012 C 565.69 2.3141 2.76554 0
M  V30 6013 O 564.794 1.75567 3.73162 0
M  V30 6014 H 564.135 0.482644 0.456016 0
M  V30 6015 H 566.665 1.84494 0.884478 0
M  V30 6016 H 566.675 2.46513 3.25108 0
M  V30 6017 H 565.35 3.33085 2.49053 0
M  V30 6018 H 563.927 1.69798 3.31999 0
M  V30 6019 N 566.112 -0.949982 1.2575 0
M  V30 6020 C 567.059 -2.04738 1.06541 0
M  V30 6021 C 568.029 -1.66078 -0.0268818 0
M  V30 6022 O 569.214 -1.90348 0.131196 0
M  V30 6023 C 566.354 -3.38027 0.695127 0
M  V30 6024 C 565.467 -3.89776 1.86276 0
M  V30 6025 C 564.602 -5.11411 1.4364 0
M  V30 6026 C 563.641 -5.554 2.57287 0
M  V30 6027 N 562.778 -6.68244 2.15395 0
M  V30 6028 H 567.618 -2.20502 2.00457 0
M  V30 6029 H 565.155 -1.0805 0.998178 0
M  V30 6030 H 567.113 -4.14641 0.461375 0
M  V30 6031 H 565.743 -3.22135 -0.207046 0
M  V30 6032 H 564.795 -3.0964 2.20969 0
M  V30 6033 H 566.107 -4.18368 2.71606 0
M  V30 6034 H 565.261 -5.95457 1.16257 0
M  V30 6035 H 564 -4.84545 0.553879 0
M  V30 6036 H 563.005 -4.69916 2.85409 0
M  V30 6037 H 564.23 -5.84272 3.46125 0
M  V30 6038 H 562.176 -6.43078 1.29565 0
M  V30 6039 H 562.093 -6.96377 2.94272 0
M  V30 6040 H 563.361 -7.55687 1.91201 0
M  V30 6041 N 567.59 -1.07411 -1.15328 0
M  V30 6042 C 568.553 -0.698914 -2.18284 0
M  V30 6043 C 569.553 0.261149 -1.58665 0
M  V30 6044 O 570.743 0.0420277 -1.74149 0
M  V30 6045 C 567.875 -0.0302427 -3.40887 0
M  V30 6046 H 569.068 -1.61045 -2.52991 0
M  V30 6047 H 566.621 -0.870724 -1.298 0
M  V30 6048 H 567.356 0.893505 -3.11748 0
M  V30 6049 H 567.141 -0.720759 -3.85419 0
M  V30 6050 H 568.631 0.21759 -4.17033 0
M  V30 6051 N 569.068 1.32177 -0.85831 0
M  V30 6052 C 570.293 2.01847 -0.476718 0
M  V30 6053 C 570.718 1.64065 0.920021 0
M  V30 6054 O 570.076 0.843189 1.60499 0
M  V30 6055 C 570.124 3.55097 -0.627578 0
M  V30 6056 O 569.228 4.11012 0.338086 0
M  V30 6057 H 568.569 0.635907 -0.191099 0
M  V30 6058 H 571.099 1.68641 -1.15851 0
M  V30 6059 H 571.109 4.04718 -0.516476 0
M  V30 6060 H 569.784 3.81938 -1.64609 0
M  V30 6061 H 568.361 3.72451 0.182917 0
M  V30 6062 N 570.547 0.616602 1.45037 0
M  V30 6063 C 571.51 -0.0871112 2.29034 0
M  V30 6064 C 572.51 -0.786414 1.40258 0
M  V30 6065 O 573.7 -0.633207 1.62284 0
M  V30 6066 C 570.832 -1.13369 3.21497 0
M  V30 6067 H 572.025 0.651497 2.92738 0
M  V30 6068 H 569.578 0.376058 1.51709 0
M  V30 6069 H 570.313 -1.90277 2.62612 0
M  V30 6070 H 570.098 -0.636358 3.86902 0
M  V30 6071 H 571.588 -1.62627 3.84633 0
M  V30 6072 N 572.025 -1.5352 0.356285 0
M  V30 6073 C 572.972 -2.25439 -0.494569 0
M  V30 6074 C 573.942 -1.25752 -1.08516 0
M  V30 6075 O 575.127 -1.54513 -1.1194 0
M  V30 6076 C 572.267 -3.04011 -1.63313 0
M  V30 6077 C 571.38 -4.18574 -1.06862 0
M  V30 6078 C 570.515 -4.84607 -2.17552 0
M  V30 6079 C 569.554 -5.91218 -1.58518 0
M  V30 6080 N 568.691 -6.50979 -2.63003 0
M  V30 6081 H 573.531 -2.97737 0.125244 0
M  V30 6082 H 571.068 -1.46916 0.0735789 0
M  V30 6083 H 573.026 -3.47834 -2.30363 0
M  V30 6084 H 571.656 -2.33986 -2.22374 0
M  V30 6085 H 570.708 -3.79303 -0.288672 0
M  V30 6086 H 572.02 -4.95215 -0.596924 0
M  V30 6087 H 571.174 -5.31566 -2.92442 0
M  V30 6088 H 569.913 -4.07418 -2.6807 0
M  V30 6089 H 568.918 -5.4363 -0.821391 0
M  V30 6090 H 570.143 -6.70322 -1.08836 0
M  V30 6091 H 568.089 -5.76648 -3.12751 0
M  V30 6092 H 568.006 -7.23131 -2.20493 0
M  V30 6093 H 569.274 -7.02589 -3.37623 0
M  V30 6094 N 573.503 -0.0852151 -1.57369 0
M  V30 6095 C 574.733 0.588605 -1.98038 0
M  V30 6096 C 575.141 1.62869 -0.962817 0
M  V30 6097 O 574.484 1.83611 0.057134 0
M  V30 6098 C 574.546 1.30303 -3.35054 0
M  V30 6099 C 574.21 0.414855 -4.55113 0
M  V30 6100 C 575.207 -0.333011 -5.18832 0
M  V30 6101 C 572.892 0.335804 -5.01176 0
M  V30 6102 C 574.886 -1.14801 -6.26976 0
M  V30 6103 C 572.573 -0.482857 -6.09189 0
M  V30 6104 C 573.571 -1.22342 -6.71953 0
M  V30 6105 O 573.259 -2.02855 -7.77885 0
M  V30 6106 H 572.991 0.163249 -0.655992 0
M  V30 6107 H 575.545 -0.1582 -2.0479 0
M  V30 6108 H 573.775 2.0962 -3.24956 0
M  V30 6109 H 575.464 1.87041 -3.60237 0
M  V30 6110 H 576.23 -0.281611 -4.84182 0
M  V30 6111 H 572.109 0.901869 -4.52092 0
M  V30 6112 H 575.653 -1.72654 -6.75897 0
M  V30 6113 H 571.55 -0.535773 -6.43273 0
M  V30 6114 H 572.318 -1.95432 -7.94826 0
M  V30 6115 N 574.981 1.5647 0.188427 0
M  V30 6116 C 575.911 1.98101 1.23606 0
M  V30 6117 C 576.892 0.853961 1.47111 0
M  V30 6118 O 578.077 1.11879 1.58735 0
M  V30 6119 C 575.207 2.32624 2.57882 0
M  V30 6120 C 574.161 3.48129 2.48978 0
M  V30 6121 C 573.487 3.68347 3.87588 0
M  V30 6122 C 574.787 4.82112 2.00911 0
M  V30 6123 H 576.481 2.85864 0.890068 0
M  V30 6124 H 574.027 1.37532 0.426714 0
M  V30 6125 H 575.98 2.60343 3.3136 0
M  V30 6126 H 574.704 1.41751 2.94235 0
M  V30 6127 H 573.363 3.20511 1.77956 0
M  V30 6128 H 573.011 2.74793 4.21305 0
M  V30 6129 H 572.711 4.46055 3.82503 0
M  V30 6130 H 574.235 3.98449 4.62678 0
M  V30 6131 H 575.649 5.08819 2.64151 0
M  V30 6132 H 574.046 5.63337 2.06814 0
M  V30 6133 H 575.116 4.75249 0.96262 0
M  V30 6134 N 576.459 -0.456382 1.50847 0
M  V30 6135 C 577.422 -1.53493 1.70213 0
M  V30 6136 C 578.422 -1.50264 0.572481 0
M  V30 6137 O 579.612 -1.52623 0.839751 0
M  V30 6138 C 576.744 -2.93091 1.741 0
M  V30 6139 H 577.937 -1.37633 2.66453 0
M  V30 6140 H 575.49 -0.683776 1.4055 0
M  V30 6141 H 576.225 -3.14378 0.796063 0
M  V30 6142 H 576.01 -2.9684 2.5618 0
M  V30 6143 H 577.5 -3.71368 1.90987 0
M  V30 6144 N 577.937 -1.40673 -0.710563 0
M  V30 6145 C 578.884 -1.41336 -1.82463 0
M  V30 6146 C 579.854 -0.269648 -1.63897 0
M  V30 6147 O 581.039 -0.468463 -1.8496 0
M  V30 6148 C 578.179 -1.28665 -3.20218 0
M  V30 6149 C 577.292 -2.52784 -3.5032 0
M  V30 6150 C 576.427 -2.32517 -4.77608 0
M  V30 6151 C 575.466 -3.52187 -5.0063 0
M  V30 6152 N 574.603 -3.31084 -6.19135 0
M  V30 6153 H 579.443 -2.36558 -1.8123 0
M  V30 6154 H 576.98 -1.17483 -0.885226 0
M  V30 6155 H 578.938 -1.19324 -3.99772 0
M  V30 6156 H 577.568 -0.370602 -3.20666 0
M  V30 6157 H 576.62 -2.72634 -2.65283 0
M  V30 6158 H 577.932 -3.41845 -3.63241 0
M  V30 6159 H 577.086 -2.20558 -5.65189 0
M  V30 6160 H 575.825 -1.40889 -4.66906 0
M  V30 6161 H 574.83 -3.64617 -4.11502 0
M  V30 6162 H 576.055 -4.44749 -5.13201 0
M  V30 6163 H 574.001 -2.42143 -6.09674 0
M  V30 6164 H 573.918 -4.13713 -6.32754 0
M  V30 6165 H 575.186 -3.22868 -7.0949 0
M  V30 6166 N 579.415 0.9433 -1.26252 0
M  V30 6167 C 580.362 2.0417 -1.07625 0
M  V30 6168 C 581.332 1.6609 0.0180738 0
M  V30 6169 O 582.517 1.90276 -0.141289 0
M  V30 6170 C 579.657 3.37653 -0.713043 0
M  V30 6171 C 578.77 3.88783 -1.8834 0
M  V30 6172 C 577.905 5.10642 -1.4635 0
M  V30 6173 C 576.944 5.54028 -2.60229 0
M  V30 6174 N 576.081 6.67092 -2.18936 0
M  V30 6175 H 580.921 2.19436 -2.01623 0
M  V30 6176 H 578.458 1.07519 -1.00389 0
M  V30 6177 H 580.416 4.14391 -0.483358 0
M  V30 6178 H 579.046 3.22241 0.18996 0
M  V30 6179 H 578.098 3.08464 -2.22608 0
M  V30 6180 H 579.41 4.16922 -2.73821 0
M  V30 6181 H 578.564 5.94832 -1.19414 0
M  V30 6182 H 577.303 4.84244 -0.579568 0
M  V30 6183 H 576.308 4.68396 -2.87898 0
M  V30 6184 H 577.533 5.82429 -3.49219 0
M  V30 6185 H 575.479 6.42381 -1.32974 0
M  V30 6186 H 575.396 6.94806 -2.97961 0
M  V30 6187 H 576.664 7.54662 -1.95206 0
M  V30 6188 N 580.893 1.08022 1.14757 0
M  V30 6189 C 582.14 0.807509 1.85703 0
M  V30 6190 C 582.468 -0.666617 1.8272 0
M  V30 6191 O 581.723 -1.50562 1.25018 0
M  V30 6192 C 582.022 1.26964 3.34088 0
M  V30 6193 C 581.688 2.7509 3.57262 0
M  V30 6194 C 580.35 3.15547 3.63296 0
M  V30 6195 C 582.702 3.70667 3.66409 0
M  V30 6196 C 580.03 4.50384 3.75994 0
M  V30 6197 C 582.382 5.05274 3.80632 0
M  V30 6198 C 581.046 5.45342 3.84913 0
M  V30 6199 H 580.316 0.295488 0.679535 0
M  V30 6200 H 582.963 1.35245 1.35577 0
M  V30 6201 H 581.268 0.644216 3.86467 0
M  V30 6202 H 582.965 1.03544 3.87401 0
M  V30 6203 H 579.555 2.42775 3.53212 0
M  V30 6204 H 583.739 3.40533 3.61041 0
M  V30 6205 H 578.995 4.80886 3.77569 0
M  V30 6206 H 583.169 5.79201 3.86652 0
M  V30 6207 H 580.796 6.49823 3.94505 0
M  V30 6208 N 582.371 -1.3172 0.865308 0
M  V30 6209 C 583.319 -2.30569 0.306674 0
M  V30 6210 C 584.313 -1.59317 -0.575724 0
M  V30 6211 O 585.519 -1.73961 -0.462343 0
M  V30 6212 H 581.894 -0.747681 0.0804834 0
M  V30 6213 H 583.865 -2.75165 1.15441 0
M  V30 6214 C 582.614 -3.44358 -0.480952 0
M  V30 6215 H 581.937 -3.99354 0.18876 0
M  V30 6216 H 583.377 -4.15652 -0.837241 0
M  V30 6217 C 581.836 -2.92574 -1.67039 0
M  V30 6218 O 582.366 -2.90954 -2.76964 0
M  V30 6219 N 580.572 -2.48835 -1.50097 0
M  V30 6220 H 580.119 -2.50353 -0.606738 0
M  V30 6221 H 580.077 -2.14543 -2.29823 0
M  V30 6222 N 583.85 -0.624285 -1.44708 0
M  V30 6223 C 584.797 0.0847135 -2.30644 0
M  V30 6224 C 585.767 0.843575 -1.43084 0
M  V30 6225 O 586.952 0.825982 -1.71995 0
M  V30 6226 C 584.091 1.06495 -3.28257 0
M  V30 6227 C 583.205 0.305224 -4.3092 0
M  V30 6228 C 582.34 1.27667 -5.1563 0
M  V30 6229 C 581.379 0.505706 -6.10007 0
M  V30 6230 N 580.516 1.42727 -6.8744 0
M  V30 6231 H 585.356 -0.654068 -2.90733 0
M  V30 6232 H 582.893 -0.334334 -1.4325 0
M  V30 6233 H 584.851 1.64658 -3.83332 0
M  V30 6234 H 583.481 1.77094 -2.69884 0
M  V30 6235 H 582.533 -0.392207 -3.78373 0
M  V30 6236 H 583.845 -0.295553 -4.97924 0
M  V30 6237 H 582.999 1.92984 -5.75189 0
M  V30 6238 H 581.738 1.91137 -4.48685 0
M  V30 6239 H 580.743 -0.160999 -5.49564 0
M  V30 6240 H 581.968 -0.124183 -6.78986 0
M  V30 6241 H 579.913 2.04931 -6.23169 0
M  V30 6242 H 579.831 0.880345 -7.50857 0
M  V30 6243 H 581.099 2.0695 -7.51526 0
M  V30 6244 N 585.328 1.53329 -0.364422 0
M  V30 6245 C 586.553 2.06132 0.229033 0
M  V30 6246 C 586.978 1.23625 1.41769 0
M  V30 6247 O 586.336 0.255038 1.79497 0
M  V30 6248 C 586.384 3.55544 0.60174 0
M  V30 6249 O 585.488 3.75771 1.69912 0
M  V30 6250 H 584.829 0.663148 0.0336213 0
M  V30 6251 H 587.359 1.97758 -0.524689 0
M  V30 6252 H 587.369 3.98549 0.873073 0
M  V30 6253 H 586.044 4.15039 -0.267421 0
M  V30 6254 H 584.621 3.44663 1.42343 0
M  V30 6255 N 586.806 0.0935595 1.57322 0
M  V30 6256 C 587.716 -0.880192 2.17462 0
M  V30 6257 C 588.732 -1.31135 1.14366 0
M  V30 6258 O 589.908 -1.37958 1.46729 0
M  V30 6259 C 586.973 -2.12184 2.74188 0
M  V30 6260 C 586.034 -1.74503 3.92234 0
M  V30 6261 C 585.267 -2.92748 4.46245 0
M  V30 6262 O 585.49 -4.07427 3.99198 0
M  V30 6263 O 584.424 -2.71303 5.37288 0
M  V30 6264 H 588.25 -0.398516 3.01074 0
M  V30 6265 H 585.835 -0.130707 1.48827 0
M  V30 6266 H 587.717 -2.84953 3.10451 0
M  V30 6267 H 586.392 -2.59407 1.93623 0
M  V30 6268 H 585.299 -0.989186 3.60785 0
M  V30 6269 H 586.632 -1.32044 4.74157 0
M  V30 6270 N 588.284 -1.56567 -0.180126 0
M  V30 6271 C 589.216 -1.92275 -1.24751 0
M  V30 6272 C 590.229 -0.814922 -1.40936 0
M  V30 6273 O 591.418 -1.09336 -1.41095 0
M  V30 6274 C 588.518 -2.15265 -2.61752 0
M  V30 6275 C 587.691 -3.46467 -2.66981 0
M  V30 6276 C 586.75 -3.58391 -3.85283 0
M  V30 6277 O 585.776 -4.31086 -3.7169 0
M  V30 6278 N 586.978 -2.92587 -5.01371 0
M  V30 6279 H 589.743 -2.84435 -0.944302 0
M  V30 6280 H 587.304 -1.57617 -0.369952 0
M  V30 6281 H 589.296 -2.20515 -3.39345 0
M  V30 6282 H 587.866 -1.29533 -2.845 0
M  V30 6283 H 587.086 -3.52953 -1.75549 0
M  V30 6284 H 588.374 -4.32819 -2.67479 0
M  V30 6285 H 587.772 -2.3338 -5.15316 0
M  V30 6286 H 586.329 -3.03444 -5.76858 0
M  V30 6287 N 589.762 0.448376 -1.51087 0
M  V30 6288 C 590.992 1.21965 -1.66757 0
M  V30 6289 C 591.4 1.85748 -0.359753 0
M  V30 6290 O 590.743 1.71022 0.670604 0
M  V30 6291 C 590.805 2.35284 -2.71812 0
M  V30 6292 C 590.469 1.91957 -4.1473 0
M  V30 6293 C 591.466 1.42921 -4.9987 0
M  V30 6294 C 589.151 1.99985 -4.60772 0
M  V30 6295 C 591.145 1.02485 -6.29107 0
M  V30 6296 C 588.832 1.5916 -5.90009 0
M  V30 6297 C 589.83 1.10491 -6.74004 0
M  V30 6298 O 589.518 0.702413 -8.00825 0
M  V30 6299 H 589.25 0.374125 -0.563034 0
M  V30 6300 H 591.804 0.538927 -1.98204 0
M  V30 6301 H 590.034 3.06599 -2.35657 0
M  V30 6302 H 591.723 2.97184 -2.76472 0
M  V30 6303 H 592.489 1.36123 -4.65506 0
M  V30 6304 H 588.368 2.36814 -3.95525 0
M  V30 6305 H 591.912 0.644271 -6.94619 0
M  V30 6306 H 587.809 1.65626 -6.2389 0
M  V30 6307 H 588.577 0.829248 -8.14288 0
M  V30 6308 N 591.24 1.41047 0.703093 0
M  V30 6309 C 592.489 1.39301 1.4587 0
M  V30 6310 C 592.802 0.00267077 1.956 0
M  V30 6311 O 594.008 -0.137414 2.71152 0
M  V30 6312 C 592.464 2.44891 2.63735 0
M  V30 6313 C 592.072 3.89796 2.20824 0
M  V30 6314 C 593.816 2.5227 3.41409 0
M  V30 6315 C 591.723 4.86955 3.35602 0
M  V30 6316 H 590.653 0.518005 0.547893 0
M  V30 6317 H 593.304 1.66839 0.764009 0
M  V30 6318 H 591.686 2.10472 3.35436 0
M  V30 6319 H 592.86 4.33424 1.56461 0
M  V30 6320 H 591.175 3.86008 1.56163 0
M  V30 6321 H 593.772 3.22044 4.26839 0
M  V30 6322 H 594.115 1.55714 3.86081 0
M  V30 6323 H 594.648 2.85742 2.7676 0
M  V30 6324 H 591.387 5.84888 2.9595 0
M  V30 6325 H 590.907 4.47982 3.98839 0
M  V30 6326 H 592.586 5.07361 4.01489 0
M  V30 6327 N 592.718 -0.936591 1.26751 0
M  V30 6328 C 593.966 -1.67998 1.12343 0
M  V30 6329 C 594.287 -1.92137 -0.332938 0
M  V30 6330 O 593.557 -1.52132 -1.23421 0
M  V30 6331 H 592.137 -0.622609 0.412756 0
M  V30 6332 H 594.799 -1.12509 1.59147 0
M  V30 6333 H 593.895 -2.65185 1.64571 0
M  V30 6334 N 594.196 -1.08629 -1.14182 0
M  V30 6335 C 595.106 -0.730126 -2.22949 0
M  V30 6336 C 596.122 0.26436 -1.7198 0
M  V30 6337 O 597.298 0.107742 -2.01112 0
M  V30 6338 C 594.363 -0.147227 -3.46387 0
M  V30 6339 C 593.424 -1.19662 -4.12286 0
M  V30 6340 C 592.657 -0.641437 -5.29831 0
M  V30 6341 O 592.88 0.538351 -5.67854 0
M  V30 6342 O 591.814 -1.39257 -5.85569 0
M  V30 6343 H 595.64 -1.63753 -2.55771 0
M  V30 6344 H 593.225 -0.860118 -1.22157 0
M  V30 6345 H 595.107 0.174923 -4.21037 0
M  V30 6346 H 593.782 0.733304 -3.15285 0
M  V30 6347 H 592.689 -1.57133 -3.395 0
M  V30 6348 H 594.022 -2.0495 -4.475 0
M  V30 6349 N 595.674 1.31259 -0.872281 0
M  V30 6350 C 596.622 2.30404 -0.318897 0
M  V30 6351 C 597.616 1.5962 0.567267 0
M  V30 6352 O 598.822 1.74204 0.453111 0
M  V30 6353 H 595.197 0.747243 -0.0844474 0
M  V30 6354 H 597.168 2.74549 -1.16899 0
M  V30 6355 C 595.917 3.44608 0.462683 0
M  V30 6356 H 595.24 3.99248 -0.209936 0
M  V30 6357 H 596.68 4.1609 0.815187 0
M  V30 6358 C 595.139 2.93456 1.65485 0
M  V30 6359 O 595.669 2.92418 2.75417 0
M  V30 6360 N 593.875 2.49628 1.48776 0
M  V30 6361 H 593.422 2.50671 0.593452 0
M  V30 6362 H 593.38 2.15759 2.28682 0
M  V30 6363 N 597.152 0.631951 1.44375 0
M  V30 6364 C 598.401 0.134214 2.01253 0
M  V30 6365 C 598.714 -1.25171 1.50305 0
M  V30 6366 O 599.92 -1.8435 1.99317 0
M  V30 6367 C 598.376 0.189187 3.59402 0
M  V30 6368 C 597.984 1.57647 4.19346 0
M  V30 6369 C 599.728 -0.252044 4.23751 0
M  V30 6370 C 597.635 1.58651 5.69722 0
M  V30 6371 H 596.565 0.0464101 0.75257 0
M  V30 6372 H 599.216 0.790868 1.65582 0
M  V30 6373 H 597.598 -0.534584 3.92375 0
M  V30 6374 H 598.772 2.32389 3.97909 0
M  V30 6375 H 597.087 1.96186 3.67288 0
M  V30 6376 H 599.684 -0.264084 5.34047 0
M  V30 6377 H 600.027 -1.27951 3.96149 0
M  V30 6378 H 600.56 0.41926 3.95584 0
M  V30 6379 H 597.299 2.59237 6.0206 0
M  V30 6380 H 596.819 0.882039 5.93279 0
M  V30 6381 H 598.498 1.32082 6.33375 0
M  V30 6382 N 598.631 -1.53133 0.372548 0
M  V30 6383 C 599.561 -2.28876 -0.462412 0
M  V30 6384 C 600.542 -1.31583 -1.07796 0
M  V30 6385 O 601.727 -1.60461 -1.09389 0
M  V30 6386 C 598.857 -3.08317 -1.59868 0
M  V30 6387 C 597.811 -4.13355 -1.11003 0
M  V30 6388 C 597.137 -4.8092 -2.33708 0
M  V30 6389 C 598.437 -5.21955 -0.18983 0
M  V30 6390 H 600.131 -2.9892 0.169511 0
M  V30 6391 H 597.677 -1.43761 0.0829658 0
M  V30 6392 H 599.63 -3.60055 -2.18949 0
M  V30 6393 H 598.354 -2.35976 -2.25794 0
M  V30 6394 H 597.013 -3.62573 -0.541869 0
M  V30 6395 H 596.661 -4.05144 -2.98106 0
M  V30 6396 H 596.361 -5.51904 -2.01682 0
M  V30 6397 H 597.885 -5.35455 -2.93462 0
M  V30 6398 H 599.299 -5.69153 -0.688319 0
M  V30 6399 H 597.696 -6.00087 0.0398887 0
M  V30 6400 H 598.766 -4.78811 0.766057 0
M  V30 6401 N 600.109 -0.101901 -1.5727 0
M  V30 6402 C 601.355 0.561027 -1.94885 0
M  V30 6403 C 601.688 1.6741 -0.984258 0
M  V30 6404 O 600.963 1.94491 -0.0184767 0
M  V30 6405 C 601.246 1.10982 -3.42571 0
M  V30 6406 C 601.099 0.00133418 -4.498 0
M  V30 6407 C 602.418 2.00608 -3.9172 0
M  V30 6408 H 599.537 0.202467 -0.708644 0
M  V30 6409 H 602.179 -0.173992 -1.89202 0
M  V30 6410 H 600.329 1.73621 -3.47546 0
M  V30 6411 H 602.001 -0.63322 -4.56933 0
M  V30 6412 H 600.244 -0.664143 -4.28686 0
M  V30 6413 H 600.915 0.426253 -5.50352 0
M  V30 6414 H 603.391 1.47864 -3.88941 0
M  V30 6415 H 602.267 2.3593 -4.95609 0
M  V30 6416 H 602.528 2.92608 -3.3141 0
M  V30 6417 N 601.587 1.56661 0.17182 0
M  V30 6418 C 602.517 1.99401 1.21498 0
M  V30 6419 C 603.498 0.869516 1.46197 0
M  V30 6420 O 604.683 1.13556 1.57539 0
M  V30 6421 C 601.813 2.35346 2.55401 0
M  V30 6422 C 600.767 3.5075 2.45272 0
M  V30 6423 C 600.093 3.72437 3.8366 0
M  V30 6424 C 601.393 4.84216 1.95787 0
M  V30 6425 H 603.087 2.86792 0.859699 0
M  V30 6426 H 600.633 1.37977 0.412103 0
M  V30 6427 H 602.586 2.63843 3.2858 0
M  V30 6428 H 601.31 1.44864 2.92715 0
M  V30 6429 H 599.969 3.2238 1.74547 0
M  V30 6430 H 599.617 2.79246 4.18367 0
M  V30 6431 H 599.317 4.50087 3.77751 0
M  V30 6432 H 600.841 4.03334 4.58426 0
M  V30 6433 H 602.255 5.11592 2.5874 0
M  V30 6434 H 600.652 5.65498 2.00827 0
M  V30 6435 H 601.722 4.76243 0.912159 0
M  V30 6436 N 603.065 -0.440357 1.51323 0
M  V30 6437 C 604.342 -1.20109 1.5438 0
M  V30 6438 C 604.722 -2.08866 0.306303 0
M  V30 6439 O 604.07 -2.1723 -0.708773 0
M  V30 6440 C 604.28 -2.00555 2.8562 0
M  V30 6441 C 605.628 -2.577 3.37455 0
M  V30 6442 O 606.652 -2.10769 2.8715 0
M  V30 6443 O 605.511 -3.43289 4.25224 0
M  V30 6444 H 602.605 -0.546668 0.620551 0
M  V30 6445 H 605.151 -0.449672 1.63634 0
M  V30 6446 H 603.923 -1.35346 3.67147 0
M  V30 6447 H 603.546 -2.82768 2.79514 0
M  V30 6448 N 604.543 -1.41418 -0.695603 0
M  V30 6449 C 605.792 -1.40073 -1.4513 0
M  V30 6450 C 606.105 -0.0130439 -1.95596 0
M  V30 6451 O 607.311 0.123032 -2.71221 0
M  V30 6452 C 605.767 -2.46286 -2.62433 0
M  V30 6453 C 605.375 -3.90962 -2.18753 0
M  V30 6454 C 607.119 -2.54077 -3.40066 0
M  V30 6455 C 605.026 -4.88728 -3.33015 0
M  V30 6456 H 603.956 -0.520903 -0.545138 0
M  V30 6457 H 606.607 -1.67242 -0.75515 0
M  V30 6458 H 604.989 -2.12248 -3.34315 0
M  V30 6459 H 606.163 -4.34248 -1.54161 0
M  V30 6460 H 604.478 -3.86831 -1.54114 0
M  V30 6461 H 607.075 -3.24303 -4.25125 0
M  V30 6462 H 607.418 -1.5776 -3.8525 0
M  V30 6463 H 607.951 -2.87206 -2.75241 0
M  V30 6464 H 604.69 -5.86449 -2.92844 0
M  V30 6465 H 604.21 -4.50091 -3.96457 0
M  V30 6466 H 605.889 -5.09483 -3.98793 0
M  V30 6467 N 606.021 0.929856 -1.27246 0
M  V30 6468 C 607.268 1.67731 -1.13457 0
M  V30 6469 C 607.596 1.9185 0.319998 0
M  V30 6470 O 606.851 1.50524 1.25064 0
M  V30 6471 C 607.15 3.05116 -1.86115 0
M  V30 6472 C 606.816 3.00715 -3.35978 0
M  V30 6473 C 605.478 2.99222 -3.76855 0
M  V30 6474 C 607.83 2.92168 -4.3161 0
M  V30 6475 C 605.158 2.86962 -5.11732 0
M  V30 6476 C 607.51 2.81449 -5.66542 0
M  V30 6477 C 606.174 2.78305 -6.06715 0
M  V30 6478 H 605.444 0.613772 -0.415168 0
M  V30 6479 H 608.091 1.08456 -1.57827 0
M  V30 6480 H 606.396 3.68083 -1.34246 0
M  V30 6481 H 608.093 3.61822 -1.72876 0
M  V30 6482 H 604.683 3.02664 -3.03468 0
M  V30 6483 H 608.867 2.92421 -4.01003 0
M  V30 6484 H 604.123 2.82913 -5.42006 0
M  V30 6485 H 608.297 2.738 -6.40317 0
M  V30 6486 H 605.924 2.68561 -7.11181 0
M  V30 6487 N 607.499 1.09233 1.13605 0
M  V30 6488 C 608.746 0.827159 1.84836 0
M  V30 6489 C 609.074 -0.647199 1.83416 0
M  V30 6490 O 608.329 -1.49228 1.26608 0
M  V30 6491 C 608.628 1.305 3.32723 0
M  V30 6492 C 608.294 2.78864 3.54325 0
M  V30 6493 C 606.956 3.19382 3.59928 0
M  V30 6494 C 609.308 3.74532 3.62457 0
M  V30 6495 C 606.636 4.54346 3.71196 0
M  V30 6496 C 608.988 5.09283 3.75252 0
M  V30 6497 C 607.652 5.49394 3.79108 0
M  V30 6498 H 606.922 0.302679 0.676363 0
M  V30 6499 H 609.569 1.36676 1.34134 0
M  V30 6500 H 607.874 0.68517 3.85762 0
M  V30 6501 H 609.571 1.07648 3.86281 0
M  V30 6502 H 606.161 2.46507 3.50617 0
M  V30 6503 H 610.345 3.44343 3.57409 0
M  V30 6504 H 605.601 4.84864 3.72447 0
M  V30 6505 H 609.775 5.83269 3.80487 0
M  V30 6506 H 607.402 6.5397 3.87591 0
M  V30 6507 N 608.977 -1.30795 0.87923 0
M  V30 6508 C 609.887 -2.32041 0.345565 0
M  V30 6509 C 610.903 -1.65103 -0.549265 0
M  V30 6510 O 612.079 -1.9645 -0.443763 0
M  V30 6511 C 609.144 -3.43944 -0.436245 0
M  V30 6512 C 608.205 -4.26521 0.48765 0
M  V30 6513 C 607.438 -5.33081 -0.256943 0
M  V30 6514 O 607.661 -5.50762 -1.48381 0
M  V30 6515 O 606.595 -6.00635 0.389985 0
M  V30 6516 H 610.421 -2.79627 1.18501 0
M  V30 6517 H 608.006 -1.3486 0.642885 0
M  V30 6518 H 609.888 -4.12128 -0.879119 0
M  V30 6519 H 608.563 -2.98504 -1.25208 0
M  V30 6520 H 607.47 -3.61057 0.979216 0
M  V30 6521 H 608.803 -4.75551 1.26933 0
M  V30 6522 N 610.455 -0.639598 -1.44038 0
M  V30 6523 C 611.701 -0.147698 -2.02261 0
M  V30 6524 C 612.034 1.23031 -1.50256 0
M  V30 6525 O 611.309 1.81847 -0.690068 0
M  V30 6526 C 611.592 -0.14362 -3.59813 0
M  V30 6527 C 611.445 -1.55458 -4.22082 0
M  V30 6528 C 612.764 0.527317 -4.36929 0
M  V30 6529 H 609.883 -0.0551453 -0.734934 0
M  V30 6530 H 612.525 -0.817688 -1.71505 0
M  V30 6531 H 610.675 0.426898 -3.86147 0
M  V30 6532 H 612.347 -2.17464 -4.06826 0
M  V30 6533 H 610.59 -2.10594 -3.79253 0
M  V30 6534 H 611.261 -1.50369 -5.31124 0
M  V30 6535 H 613.737 0.0420504 -4.16079 0
M  V30 6536 H 612.613 0.499389 -5.46624 0
M  V30 6537 H 612.874 1.59914 -4.12165 0
M  V30 6538 N 611.933 1.52934 -0.380664 0
M  V30 6539 C 612.863 2.29118 0.450268 0
M  V30 6540 C 613.844 1.32153 1.07096 0
M  V30 6541 O 615.029 1.61038 1.08537 0
M  V30 6542 C 612.159 3.09161 1.58231 0
M  V30 6543 C 611.113 4.13938 1.0881 0
M  V30 6544 C 610.439 4.82153 2.31155 0
M  V30 6545 C 611.739 5.22048 0.162146 0
M  V30 6546 H 613.433 2.98826 -0.185361 0
M  V30 6547 H 610.979 1.43715 -0.0905886 0
M  V30 6548 H 612.932 3.61211 2.17036 0
M  V30 6549 H 611.656 2.3717 2.2454 0
M  V30 6550 H 610.315 3.62855 0.522633 0
M  V30 6551 H 609.963 4.06719 2.95953 0
M  V30 6552 H 609.663 5.52966 1.98752 0
M  V30 6553 H 611.187 5.37004 2.90618 0
M  V30 6554 H 612.601 5.6951 0.658126 0
M  V30 6555 H 610.998 6.00057 -0.0717122 0
M  V30 6556 H 612.068 4.78398 -0.791438 0
M  V30 6557 N 613.412 0.11024 1.57214 0
M  V30 6558 C 614.36 -0.860586 2.16094 0
M  V30 6559 C 615.354 -1.28156 1.1078 0
M  V30 6560 O 616.56 -1.25433 1.29099 0
M  V30 6561 H 612.935 -0.295606 0.691463 0
M  V30 6562 H 614.906 -0.33942 2.96463 0
M  V30 6563 C 613.655 -2.10421 2.768 0
M  V30 6564 H 612.978 -1.7892 3.5753 0
M  V30 6565 H 614.418 -2.76375 3.21547 0
M  V30 6566 C 612.877 -2.88823 1.73444 0
M  V30 6567 O 613.407 -3.839 1.18251 0
M  V30 6568 N 611.613 -2.52649 1.43586 0
M  V30 6569 H 611.16 -1.754 1.8866 0
M  V30 6570 H 611.118 -3.05403 0.746735 0
M  V30 6571 N 614.89 -1.56749 -0.16351 0
M  V30 6572 C 616.12 -1.86307 -0.892936 0
M  V30 6573 C 616.528 -0.6945 -1.75992 0
M  V30 6574 O 615.871 0.345384 -1.80424 0
M  V30 6575 C 615.933 -3.10372 -1.81409 0
M  V30 6576 C 615.597 -4.42913 -1.12593 0
M  V30 6577 C 616.594 -5.17608 -0.487661 0
M  V30 6578 C 614.279 -4.89646 -1.12035 0
M  V30 6579 C 616.273 -6.3723 0.14699 0
M  V30 6580 C 613.96 -6.09197 -0.481883 0
M  V30 6581 C 614.958 -6.82834 0.150678 0
M  V30 6582 O 614.646 -8.00116 0.779065 0
M  V30 6583 H 614.378 -0.622126 -0.264452 0
M  V30 6584 H 616.932 -2.04728 -0.166063 0
M  V30 6585 H 615.162 -2.87917 -2.58148 0
M  V30 6586 H 616.851 -3.26312 -2.41403 0
M  V30 6587 H 617.617 -4.8258 -0.483888 0
M  V30 6588 H 613.496 -4.32265 -1.60212 0
M  V30 6589 H 617.04 -6.94646 0.641325 0
M  V30 6590 H 612.937 -6.43688 -0.483266 0
M  V30 6591 H 613.705 -8.15678 0.679089 0
M  V30 6592 N 616.368 0.432326 -1.51554 0
M  V30 6593 C 617.278 1.55023 -1.76082 0
M  V30 6594 C 618.294 1.61593 -0.645265 0
M  V30 6595 O 619.47 1.78742 -0.928086 0
M  V30 6596 C 616.535 2.90964 -1.88523 0
M  V30 6597 C 615.596 2.9447 -3.12388 0
M  V30 6598 C 614.829 4.23926 -3.24225 0
M  V30 6599 O 615.052 5.16576 -2.4188 0
M  V30 6600 O 613.986 4.33818 -4.17235 0
M  V30 6601 H 617.812 1.37238 -2.70923 0
M  V30 6602 H 615.397 0.615845 -1.36117 0
M  V30 6603 H 617.279 3.71633 -1.98662 0
M  V30 6604 H 615.954 3.08865 -0.9687 0
M  V30 6605 H 614.861 2.12737 -3.07723 0
M  V30 6606 H 616.194 2.81514 -4.03746 0
M  V30 6607 N 617.846 1.41785 0.688094 0
M  V30 6608 C 619.074 1.44915 1.47673 0
M  V30 6609 C 619.489 0.0565786 1.88715 0
M  V30 6610 O 618.846 -0.92579 1.57275 0
M  V30 6611 C 618.897 2.36452 2.73446 0
M  V30 6612 O 618.618 3.7029 2.34131 0
M  V30 6613 C 620.119 2.48463 3.67125 0
M  V30 6614 H 617.339 0.493324 0.454832 0
M  V30 6615 H 619.883 1.86153 0.846594 0
M  V30 6616 H 618.038 1.98502 3.3268 0
M  V30 6617 H 618.452 4.19183 3.15255 0
M  V30 6618 H 619.926 3.16662 4.52138 0
M  V30 6619 H 620.403 1.51826 4.12123 0
M  V30 6620 H 621.009 2.8708 3.13792 0
M  V30 6621 N 619.324 -0.923095 1.27737 0
M  V30 6622 C 620.573 -1.66581 1.13727 0
M  V30 6623 C 620.886 -1.9304 -0.315433 0
M  V30 6624 O 622.092 -2.65309 -0.57651 0
M  V30 6625 C 620.548 -3.00047 1.98745 0
M  V30 6626 C 620.156 -2.8127 3.48699 0
M  V30 6627 C 621.9 -3.77887 1.93395 0
M  V30 6628 C 619.807 -4.1032 4.25901 0
M  V30 6629 H 618.737 -0.624834 0.422017 0
M  V30 6630 H 621.388 -1.02514 1.52194 0
M  V30 6631 H 619.77 -3.65197 1.53125 0
M  V30 6632 H 620.944 -2.24859 4.02213 0
M  V30 6633 H 619.259 -2.16854 3.55476 0
M  V30 6634 H 621.856 -4.73526 2.48348 0
M  V30 6635 H 622.199 -4.06264 0.908605 0
M  V30 6636 H 622.732 -3.19541 2.36935 0
M  V30 6637 H 619.471 -3.8712 5.28978 0
M  V30 6638 H 618.991 -4.66377 3.77163 0
M  V30 6639 H 620.67 -4.78648 4.35321 0
M  V30 6640 N 620.802 -1.09834 -1.13024 0
M  V30 6641 C 621.712 -0.753731 -2.22162 0
M  V30 6642 C 622.728 0.246105 -1.72251 0
M  V30 6643 O 623.904 0.0864051 -2.01215 0
M  V30 6644 C 620.969 -0.183958 -3.46212 0
M  V30 6645 C 620.03 -1.24028 -4.10993 0
M  V30 6646 C 619.263 -0.697597 -5.29121 0
M  V30 6647 O 619.486 0.478092 -5.68393 0
M  V30 6648 O 618.42 -1.4546 -5.84059 0
M  V30 6649 H 622.246 -1.66456 -2.5402 0
M  V30 6650 H 619.831 -0.873026 -1.21238 0
M  V30 6651 H 621.713 0.130257 -4.21199 0
M  V30 6652 H 620.388 0.699823 -3.16045 0
M  V30 6653 H 619.295 -1.60725 -3.37814 0
M  V30 6654 H 620.628 -2.09685 -4.45301 0
M  V30 6655 N 622.28 1.30327 -0.886154 0
M  V30 6656 C 623.212 2.27079 -0.311072 0
M  V30 6657 C 624.225 1.53758 0.53502 0
M  V30 6658 O 625.414 1.74947 0.354378 0
M  V30 6659 C 622.514 3.33965 0.576228 0
M  V30 6660 C 621.687 4.36735 -0.241064 0
M  V30 6661 C 620.746 5.23028 0.576916 0
M  V30 6662 O 619.772 5.692 -0.000802231 0
M  V30 6663 N 620.974 5.49016 1.88579 0
M  V30 6664 H 623.739 2.77065 -1.14259 0
M  V30 6665 H 621.3 1.43519 -0.749258 0
M  V30 6666 H 623.292 3.88618 1.12953 0
M  V30 6667 H 621.862 2.839 1.30842 0
M  V30 6668 H 621.082 3.81932 -0.975805 0
M  V30 6669 H 622.37 5.02451 -0.801272 0
M  V30 6670 H 621.768 5.13288 2.37806 0
M  V30 6671 H 620.325 6.06539 2.38651 0
M  V30 6672 N 623.758 0.647228 1.43697 0
M  V30 6673 C 624.705 -0.0480092 2.3075 0
M  V30 6674 C 625.675 -0.820705 1.44408 0
M  V30 6675 O 626.86 -0.798515 1.73287 0
M  V30 6676 C 624 -1.01259 3.2991 0
M  V30 6677 C 623.113 -0.236629 4.31351 0
M  V30 6678 C 622.248 -1.19447 5.17596 0
M  V30 6679 C 621.287 -0.408595 6.10735 0
M  V30 6680 N 620.424 -1.31772 6.89623 0
M  V30 6681 H 625.264 0.700238 2.89656 0
M  V30 6682 H 622.801 0.357082 1.427 0
M  V30 6683 H 624.759 -1.58538 3.85903 0
M  V30 6684 H 623.389 -1.72778 2.72667 0
M  V30 6685 H 622.441 0.452353 3.77701 0
M  V30 6686 H 623.753 0.374731 4.9739 0
M  V30 6687 H 622.907 -1.83809 5.78186 0
M  V30 6688 H 621.646 -1.83975 4.51669 0
M  V30 6689 H 620.651 0.24841 5.49239 0
M  V30 6690 H 621.876 0.232188 6.78703 0
M  V30 6691 H 619.822 -1.94991 6.2635 0
M  V30 6692 H 619.739 -0.760779 7.52162 0
M  V30 6693 H 621.007 -1.94967 7.54724 0
M  V30 6694 N 625.236 -1.5273 0.388769 0
M  V30 6695 C 626.183 -2.26437 -0.446639 0
M  V30 6696 C 627.153 -1.28025 -1.05824 0
M  V30 6697 O 628.338 -1.56852 -1.08637 0
M  V30 6698 C 625.478 -3.07407 -1.56828 0
M  V30 6699 C 624.591 -4.20747 -0.979589 0
M  V30 6700 C 623.726 -4.89113 -2.07224 0
M  V30 6701 C 622.765 -5.94447 -1.45942 0
M  V30 6702 N 621.902 -6.56411 -2.49135 0
M  V30 6703 H 626.742 -2.97404 0.18837 0
M  V30 6704 H 624.279 -1.46727 0.104725 0
M  V30 6705 H 626.237 -3.52642 -2.22934 0
M  V30 6706 H 624.867 -2.3865 -2.17361 0
M  V30 6707 H 623.919 -3.7983 -0.208151 0
M  V30 6708 H 625.231 -4.9637 -0.491747 0
M  V30 6709 H 624.385 -5.3765 -2.81101 0
M  V30 6710 H 623.124 -4.13013 -2.59368 0
M  V30 6711 H 622.129 -5.4525 -0.705894 0
M  V30 6712 H 623.354 -6.7248 -0.945932 0
M  V30 6713 H 621.3 -5.83152 -3.00449 0
M  V30 6714 H 621.217 -7.27645 -2.05105 0
M  V30 6715 H 622.485 -7.09592 -3.22644 0
M  V30 6716 N 626.714 -0.118576 -1.57153 0
M  V30 6717 C 627.677 0.817464 -2.14127 0
M  V30 6718 C 628.677 1.1949 -1.07604 0
M  V30 6719 O 629.867 1.12048 -1.33382 0
M  V30 6720 C 626.999 2.10541 -2.68115 0
M  V30 6721 H 628.192 0.322339 -2.98163 0
M  V30 6722 H 625.745 0.130655 -1.55753 0
M  V30 6723 H 626.48 2.64485 -1.87665 0
M  V30 6724 H 626.265 1.84425 -3.4602 0
M  V30 6725 H 627.755 2.77453 -3.12105 0
M  V30 6726 N 628.193 1.56834 0.155195 0
M  V30 6727 C 629.423 1.86778 0.883044 0
M  V30 6728 C 629.831 0.703824 1.75622 0
M  V30 6729 O 629.174 -0.33581 1.80605 0
M  V30 6730 C 629.236 3.1133 1.79761 0
M  V30 6731 C 628.9 4.43504 1.10242 0
M  V30 6732 C 629.897 5.17859 0.460204 0
M  V30 6733 C 627.582 4.90233 1.09437 0
M  V30 6734 C 629.576 6.37144 -0.180782 0
M  V30 6735 C 627.263 6.09444 0.449569 0
M  V30 6736 C 628.261 6.82744 -0.186888 0
M  V30 6737 O 627.949 7.99692 -0.821486 0
M  V30 6738 H 627.681 0.62352 0.261149 0
M  V30 6739 H 630.235 2.04813 0.155204 0
M  V30 6740 H 628.465 2.89282 2.56618 0
M  V30 6741 H 630.154 3.27587 2.39669 0
M  V30 6742 H 630.92 4.8283 0.458289 0
M  V30 6743 H 626.799 4.33109 1.57917 0
M  V30 6744 H 630.343 6.94296 -0.678154 0
M  V30 6745 H 626.24 6.43936 0.449123 0
M  V30 6746 H 627.008 8.15306 -0.722337 0
M  V30 6747 N 629.671 -0.424282 1.51781 0
M  V30 6748 C 630.581 -1.54087 1.76902 0
M  V30 6749 C 631.597 -1.61249 0.653826 0
M  V30 6750 O 632.773 -1.78247 0.937552 0
M  V30 6751 C 629.838 -2.8996 1.90063 0
M  V30 6752 C 628.899 -2.92809 3.13945 0
M  V30 6753 C 628.132 -4.22201 3.26469 0
M  V30 6754 O 628.355 -5.15286 2.44616 0
M  V30 6755 O 627.289 -4.31599 4.1953 0
M  V30 6756 H 631.115 -1.358 2.71647 0
M  V30 6757 H 628.7 -0.608618 1.36441 0
M  V30 6758 H 630.582 -3.70575 2.0063 0
M  V30 6759 H 629.257 -3.08347 0.985067 0
M  V30 6760 H 628.164 -2.11102 3.08847 0
M  V30 6761 H 629.497 -2.79369 4.05233 0
M  V30 6762 N 631.149 -1.42148 -0.680565 0
M  V30 6763 C 632.398 -1.41604 -1.43636 0
M  V30 6764 C 632.711 -0.0337887 -1.95571 0
M  V30 6765 O 633.917 0.0942588 -2.71336 0
M  V30 6766 C 632.373 -2.49056 -2.59806 0
M  V30 6767 C 631.981 -3.9326 -2.14594 0
M  V30 6768 C 633.725 -2.5767 -3.37352 0
M  V30 6769 C 631.632 -4.92232 -3.27813 0
M  V30 6770 H 630.562 -0.526656 -0.539583 0
M  V30 6771 H 633.213 -1.68033 -0.737369 0
M  V30 6772 H 631.595 -2.15782 -3.32045 0
M  V30 6773 H 632.769 -4.35858 -1.49546 0
M  V30 6774 H 631.084 -3.88443 -1.50002 0
M  V30 6775 H 633.681 -3.28794 -4.21662 0
M  V30 6776 H 634.024 -1.61837 -3.83555 0
M  V30 6777 H 634.557 -2.90109 -2.72179 0
M  V30 6778 H 631.296 -5.89522 -2.86607 0
M  V30 6779 H 630.816 -4.5427 -3.91661 0
M  V30 6780 H 632.495 -5.13684 -3.93367 0
M  V30 6781 N 632.627 0.916307 -1.28225 0
M  V30 6782 C 633.59 1.99996 -1.11957 0
M  V30 6783 C 634.59 1.60688 -0.0600152 0
M  V30 6784 O 635.78 1.71499 -0.30558 0
M  V30 6785 C 632.912 3.33458 -0.708411 0
M  V30 6786 H 634.105 2.15858 -2.08196 0
M  V30 6787 H 631.658 1.09863 -1.11175 0
M  V30 6788 H 632.393 3.23297 0.254859 0
M  V30 6789 H 632.178 3.63349 -1.47377 0
M  V30 6790 H 633.668 4.13014 -0.617164 0
M  V30 6791 N 634.105 1.10431 1.1244 0
M  V30 6792 C 635.353 0.845045 1.83585 0
M  V30 6793 C 635.674 -0.631168 1.84503 0
M  V30 6794 O 634.944 -1.45825 1.30813 0
M  V30 6795 H 633.524 0.309628 0.679809 0
M  V30 6796 H 636.186 1.39458 1.36153 0
M  V30 6797 H 635.282 1.20786 2.8778 0
M  V30 6798 N 635.583 -1.29855 0.893053 0
M  V30 6799 C 636.513 -2.3035 0.382249 0
M  V30 6800 C 637.494 -1.61328 -0.539203 0
M  V30 6801 O 638.679 -1.88882 -0.451342 0
M  V30 6802 C 635.809 -3.45024 -0.396983 0
M  V30 6803 C 634.763 -4.258 0.433437 0
M  V30 6804 C 634.089 -5.32605 -0.472889 0
M  V30 6805 C 635.389 -4.94549 1.67984 0
M  V30 6806 H 637.083 -2.73325 1.22205 0
M  V30 6807 H 634.629 -1.314 0.589073 0
M  V30 6808 H 636.582 -4.14398 -0.765024 0
M  V30 6809 H 635.306 -3.00875 -1.2705 0
M  V30 6810 H 633.965 -3.58125 0.783723 0
M  V30 6811 H 633.613 -4.84702 -1.34435 0
M  V30 6812 H 633.313 -5.87547 0.0789958 0
M  V30 6813 H 634.837 -6.04832 -0.837269 0
M  V30 6814 H 636.251 -5.56395 1.38192 0
M  V30 6815 H 634.648 -5.59393 2.17254 0
M  V30 6816 H 635.718 -4.20215 2.41965 0
M  V30 6817 N 637.061 -0.65484 -1.43351 0
M  V30 6818 C 637.991 0.0221809 -2.33489 0
M  V30 6819 C 638.972 0.810272 -1.49561 0
M  V30 6820 O 640.157 0.771426 -1.78221 0
M  V30 6821 C 637.287 0.988117 -3.32947 0
M  V30 6822 C 636.241 0.310026 -4.26876 0
M  V30 6823 C 635.567 1.38752 -5.16384 0
M  V30 6824 C 636.867 -0.798589 -5.16159 0
M  V30 6825 H 638.561 -0.730571 -2.9035 0
M  V30 6826 H 636.107 -0.352773 -1.39612 0
M  V30 6827 H 638.06 1.47067 -3.94904 0
M  V30 6828 H 636.784 1.77205 -2.74346 0
M  V30 6829 H 635.443 -0.152097 -3.66284 0
M  V30 6830 H 635.091 2.16293 -4.54121 0
M  V30 6831 H 634.791 0.939051 -5.80048 0
M  V30 6832 H 636.315 1.87141 -5.81215 0
M  V30 6833 H 637.729 -0.398126 -5.71916 0
M  V30 6834 H 636.126 -1.17163 -5.88552 0
M  V30 6835 H 637.196 -1.65588 -4.55751 0
M  V30 6836 N 638.539 1.52521 -0.396863 0
M  V30 6837 C 639.787 2.01274 0.182536 0
M  V30 6838 C 640.108 1.28485 1.46685 0
M  V30 6839 O 639.378 0.407134 1.91623 0
M  V30 6840 H 637.958 0.743671 0.0704442 0
M  V30 6841 H 640.62 1.87547 -0.530289 0
M  V30 6842 H 639.716 3.09687 0.387385 0
M  V30 6843 N 640.017 0.126909 1.57088 0
M  V30 6844 C 641.294 -0.573152 1.87014 0
M  V30 6845 C 641.674 -1.84297 1.02945 0
M  V30 6846 O 641.022 -2.28232 0.110573 0
M  V30 6847 C 641.232 -0.857984 3.38289 0
M  V30 6848 C 642.58 -1.20759 4.07066 0
M  V30 6849 O 643.604 -0.947992 3.43353 0
M  V30 6850 O 642.463 -1.69516 5.19545 0
M  V30 6851 H 639.557 -0.290082 0.774456 0
M  V30 6852 H 642.103 0.162008 1.68925 0
M  V30 6853 H 640.875 0.0415286 3.91278 0
M  V30 6854 H 640.498 -1.64803 3.61837 0
M  V30 6855 N 641.495 -1.56914 -0.146875 0
M  V30 6856 C 642.744 -1.82546 -0.857898 0
M  V30 6857 C 643.057 -0.708169 -1.8233 0
M  V30 6858 O 644.263 -0.850093 -2.57848 0
M  V30 6859 C 642.719 -3.23548 -1.57623 0
M  V30 6860 C 642.327 -4.43212 -0.653224 0
M  V30 6861 C 644.071 -3.58453 -2.27402 0
M  V30 6862 C 641.978 -5.75237 -1.37318 0
M  V30 6863 H 640.908 -0.680786 -0.32411 0
M  V30 6864 H 643.559 -1.83166 -0.110639 0
M  V30 6865 H 641.941 -3.17315 -2.36912 0
M  V30 6866 H 643.115 -4.60682 0.104452 0
M  V30 6867 H 641.43 -4.16351 -0.0638336 0
M  V30 6868 H 644.027 -4.54349 -2.81907 0
M  V30 6869 H 644.37 -2.84516 -3.03901 0
M  V30 6870 H 644.903 -3.66347 -1.55032 0
M  V30 6871 H 641.642 -6.52269 -0.650041 0
M  V30 6872 H 641.162 -5.61703 -2.10357 0
M  V30 6873 H 642.841 -6.18039 -1.91406 0
M  V30 6874 N 642.974 0.416227 -1.52004 0
M  V30 6875 C 644.222 1.16153 -1.65387 0
M  V30 6876 C 644.543 1.91208 -0.382669 0
M  V30 6877 O 643.813 1.86413 0.602231 0
M  V30 6878 H 642.393 0.431765 -0.60958 0
M  V30 6879 H 645.055 0.475151 -1.89019 0
M  V30 6880 H 644.151 1.87952 -2.4916 0
M  V30 6881 N 644.452 1.42507 0.673017 0
M  V30 6882 C 645.7 1.42789 1.43023 0
M  V30 6883 C 646.021 0.0459738 1.94946 0
M  V30 6884 O 645.291 -0.915765 1.73178 0
M  V30 6885 H 643.871 0.525657 0.530748 0
M  V30 6886 H 646.533 1.77944 0.795113 0
M  V30 6887 H 645.629 2.12872 2.28237 0
M  V30 6888 N 645.93 -0.909495 1.28709 0
M  V30 6889 C 646.862 -2.01729 1.08804 0
M  V30 6890 C 647.875 -1.62755 0.0384739 0
M  V30 6891 O 649.064 -1.76259 0.281977 0
M  V30 6892 C 646.164 -3.32952 0.63217 0
M  V30 6893 C 645.337 -4.00512 1.75809 0
M  V30 6894 C 644.396 -5.10019 1.29488 0
M  V30 6895 O 643.422 -5.32986 1.99787 0
M  V30 6896 N 644.624 -5.80278 0.1604 0
M  V30 6897 H 647.389 -2.19362 2.04207 0
M  V30 6898 H 644.95 -1.08106 1.20518 0
M  V30 6899 H 646.942 -4.03543 0.305802 0
M  V30 6900 H 645.512 -3.11759 -0.229134 0
M  V30 6901 H 644.732 -3.23413 2.25383 0
M  V30 6902 H 646.02 -4.42395 2.51325 0
M  V30 6903 H 645.418 -5.64094 -0.425937 0
M  V30 6904 H 643.975 -6.51713 -0.106663 0
M  V30 6905 N 647.408 -1.11026 -1.11852 0
M  V30 6906 C 648.341 -0.708501 -2.16923 0
M  V30 6907 C 649.319 0.293196 -1.59935 0
M  V30 6908 O 650.503 0.190641 -1.87533 0
M  V30 6909 C 647.63 -0.0463705 -3.38668 0
M  V30 6910 C 646.676 -1.01252 -4.14307 0
M  V30 6911 S 647.509 -2.53291 -4.71809 0
M  V30 6912 C 648.665 -1.88366 -5.96883 0
M  V30 6913 H 648.898 -1.59854 -2.50667 0
M  V30 6914 H 646.431 -0.927869 -1.2341 0
M  V30 6915 H 648.389 0.329314 -4.09177 0
M  V30 6916 H 647.05 0.820562 -3.03192 0
M  V30 6917 H 646.243 -0.496596 -5.01548 0
M  V30 6918 H 645.845 -1.33042 -3.49537 0
M  V30 6919 H 648.137 -1.21753 -6.6647 0
M  V30 6920 H 649.08 -2.73588 -6.53112 0
M  V30 6921 H 649.488 -1.34562 -5.48227 0
M  V30 6922 N 648.886 1.2938 -0.899927 0
M  V30 6923 C 650.134 1.95164 -0.524924 0
M  V30 6924 C 650.455 1.71292 0.931888 0
M  V30 6925 O 649.725 1.04481 1.65712 0
M  V30 6926 H 648.305 0.722133 -0.191135 0
M  V30 6927 H 650.967 1.57628 -1.14627 0
M  V30 6928 H 650.063 3.0397 -0.707711 0
M  V30 6929 N 650.364 0.662433 1.43002 0
M  V30 6930 C 651.294 -0.00979809 2.33498 0
M  V30 6931 C 652.275 -0.802329 1.49989 0
M  V30 6932 O 653.46 -0.761964 1.78627 0
M  V30 6933 C 650.59 -0.970446 3.33466 0
M  V30 6934 C 649.544 -0.287383 4.27034 0
M  V30 6935 C 648.87 -1.36012 5.17112 0
M  V30 6936 C 650.17 0.82595 5.15728 0
M  V30 6937 H 651.864 0.745959 2.89958 0
M  V30 6938 H 649.41 0.360172 1.39423 0
M  V30 6939 H 651.363 -1.44971 3.95679 0
M  V30 6940 H 650.087 -1.75748 2.75282 0
M  V30 6941 H 648.746 0.17152 3.66199 0
M  V30 6942 H 648.394 -2.13882 4.55262 0
M  V30 6943 H 648.094 -0.908276 5.80538 0
M  V30 6944 H 649.618 -1.84056 5.82199 0
M  V30 6945 H 651.032 0.42845 5.71697 0
M  V30 6946 H 649.429 1.20282 5.87922 0
M  V30 6947 H 650.499 1.68003 4.54866 0
M  V30 6948 N 651.842 -1.52309 0.404946 0
M  V30 6949 C 653.089 -2.01767 -0.1722 0
M  V30 6950 C 653.417 -1.29075 -1.45498 0
M  V30 6951 O 652.672 -0.3843 -1.9189 0
M  V30 6952 C 652.971 -3.54284 -0.470895 0
M  V30 6953 C 652.637 -4.45079 0.722194 0
M  V30 6954 C 651.299 -4.69617 1.04946 0
M  V30 6955 C 653.651 -4.98555 1.51962 0
M  V30 6956 C 650.979 -5.44878 2.17543 0
M  V30 6957 C 653.331 -5.75049 2.63632 0
M  V30 6958 C 651.995 -5.9786 2.9685 0
M  V30 6959 H 651.265 -0.738316 -0.0630125 0
M  V30 6960 H 653.912 -1.83566 0.545506 0
M  V30 6961 H 652.217 -3.70642 -1.27012 0
M  V30 6962 H 653.914 -3.90058 -0.930346 0
M  V30 6963 H 650.504 -4.26155 0.457131 0
M  V30 6964 H 654.688 -4.79509 1.28002 0
M  V30 6965 H 649.944 -5.60762 2.43631 0
M  V30 6966 H 654.118 -6.15483 3.25813 0
M  V30 6967 H 651.745 -6.5596 3.84215 0
M  V30 6968 N 653.32 -0.135238 -1.57019 0
M  V30 6969 C 654.569 0.518694 -1.94917 0
M  V30 6970 C 654.882 1.66783 -1.0219 0
M  V30 6971 O 656.088 2.38561 -1.29619 0
M  V30 6972 C 654.544 0.974123 -3.46466 0
M  V30 6973 C 654.152 -0.147439 -4.47757 0
M  V30 6974 C 655.896 1.59851 -3.93253 0
M  V30 6975 C 653.803 0.325599 -5.90503 0
M  V30 6976 H 652.733 0.19754 -0.727663 0
M  V30 6977 H 655.384 -0.217698 -1.82204 0
M  V30 6978 H 653.766 1.76542 -3.5447 0
M  V30 6979 H 654.94 -0.924122 -4.51438 0
M  V30 6980 H 653.255 -0.679496 -4.10818 0
M  V30 6981 H 655.852 1.96385 -4.9733 0
M  V30 6982 H 656.195 2.48306 -3.3414 0
M  V30 6983 H 656.728 0.872323 -3.88118 0
M  V30 6984 H 653.467 -0.523295 -6.53408 0
M  V30 6985 H 652.987 1.06841 -5.90208 0
M  V30 6986 H 654.666 0.781498 -6.42263 0
M  V30 6987 N 654.798 1.5699 0.138552 0
M  V30 6988 C 656.046 1.83446 0.848053 0
M  V30 6989 C 656.367 0.71744 1.81322 0
M  V30 6990 O 655.637 -0.260228 1.94164 0
M  V30 6991 H 654.217 0.676792 0.316166 0
M  V30 6992 H 656.879 1.94462 0.130538 0
M  V30 6993 H 655.975 2.78677 1.40518 0
M  V30 6994 N 656.276 -0.40816 1.52223 0
M  V30 6995 C 657.239 -1.48 1.7501 0
M  V30 6996 C 658.239 -1.48367 0.619996 0
M  V30 6997 O 659.429 -1.49874 0.887881 0
M  V30 6998 C 656.561 -2.87403 1.83336 0
M  V30 6999 H 657.754 -1.29086 2.70697 0
M  V30 7000 H 655.307 -0.638715 1.42654 0
M  V30 7001 H 656.042 -3.11686 0.895677 0
M  V30 7002 H 655.827 -2.8854 2.65494 0
M  V30 7003 H 657.317 -3.65103 2.02705 0
M  V30 7004 N 657.755 -1.42862 -0.66545 0
M  V30 7005 C 658.98 -1.47456 -1.45848 0
M  V30 7006 C 659.405 -0.0900312 -1.87884 0
M  V30 7007 O 658.763 0.913587 -1.56599 0
M  V30 7008 C 658.811 -2.41514 -2.67774 0
M  V30 7009 O 657.915 -1.89296 -3.66389 0
M  V30 7010 H 657.256 -0.499236 -0.437789 0
M  V30 7011 H 659.786 -1.8765 -0.815394 0
M  V30 7012 H 659.796 -2.58409 -3.15735 0
M  V30 7013 H 658.471 -3.42099 -2.36519 0
M  V30 7014 H 657.048 -1.82003 -3.25468 0
M  V30 7015 N 659.233 0.902656 -1.29189 0
M  V30 7016 C 660.482 1.6475 -1.16362 0
M  V30 7017 C 660.795 1.93517 0.284682 0
M  V30 7018 O 662.001 2.66192 0.534229 0
M  V30 7019 C 660.457 2.96848 -2.03493 0
M  V30 7020 C 660.065 2.75687 -3.5313 0
M  V30 7021 C 661.809 3.74762 -1.99383 0
M  V30 7022 C 659.716 4.03492 -4.32375 0
M  V30 7023 H 658.646 0.618041 -0.431904 0
M  V30 7024 H 661.297 1.0008 -1.53806 0
M  V30 7025 H 659.679 3.62715 -1.58916 0
M  V30 7026 H 660.853 2.18431 -4.05739 0
M  V30 7027 H 659.168 2.11171 -3.58881 0
M  V30 7028 H 661.765 4.69515 -2.5585 0
M  V30 7029 H 662.108 4.04767 -0.973123 0
M  V30 7030 H 662.641 3.15732 -2.41988 0
M  V30 7031 H 659.38 3.78656 -5.3507 0
M  V30 7032 H 658.9 4.60318 -3.84535 0
M  V30 7033 H 660.579 4.71662 -4.42881 0
M  V30 7034 N 660.711 1.11618 1.11262 0
M  V30 7035 C 661.641 0.79846 2.19424 0
M  V30 7036 C 662.622 -0.234003 1.68483 0
M  V30 7037 O 663.807 -0.0970704 1.93957 0
M  V30 7038 C 660.937 0.242892 3.4645 0
M  V30 7039 C 659.891 1.20744 4.10615 0
M  V30 7040 C 659.217 0.512494 5.32238 0
M  V30 7041 C 660.517 2.55884 4.55325 0
M  V30 7042 H 662.211 1.70286 2.46258 0
M  V30 7043 H 659.757 0.820195 1.18359 0
M  V30 7044 H 661.71 0.00840447 4.21399 0
M  V30 7045 H 660.434 -0.696811 3.1908 0
M  V30 7046 H 659.093 1.42759 3.37662 0
M  V30 7047 H 658.741 -0.432075 5.01141 0
M  V30 7048 H 658.441 1.15583 5.7612 0
M  V30 7049 H 659.965 0.286842 6.09926 0
M  V30 7050 H 661.379 2.37946 5.21588 0
M  V30 7051 H 659.776 3.16216 5.10027 0
M  V30 7052 H 660.846 3.14968 3.68678 0
M  V30 7053 N 662.189 -1.289 0.906776 0
M  V30 7054 C 663.417 -1.99401 0.551969 0
M  V30 7055 C 663.832 -1.67816 -0.865048 0
M  V30 7056 O 663.189 -0.927078 -1.57199 0
M  V30 7057 C 663.24 -3.53779 0.743152 0
M  V30 7058 O 662.961 -3.84248 2.1044 0
M  V30 7059 C 664.462 -4.41543 0.39424 0
M  V30 7060 H 661.682 -0.636926 0.211106 0
M  V30 7061 H 664.226 -1.64266 1.21807 0
M  V30 7062 H 662.381 -3.87201 0.124143 0
M  V30 7063 H 662.795 -4.78904 2.13895 0
M  V30 7064 H 664.269 -5.48957 0.578814 0
M  V30 7065 H 664.746 -4.34073 -0.669137 0
M  V30 7066 H 665.352 -4.13605 0.990491 0
M  V30 7067 N 663.667 -0.670007 -1.42649 0
M  V30 7068 C 664.913 -0.190568 -2.01903 0
M  V30 7069 C 665.246 1.19817 -1.52832 0
M  V30 7070 O 664.521 1.80342 -0.728485 0
M  V30 7071 C 664.804 -0.21991 -3.59428 0
M  V30 7072 C 664.657 -1.64376 -4.18689 0
M  V30 7073 C 665.976 0.434519 -4.3795 0
M  V30 7074 H 663.095 -0.0707219 -0.733599 0
M  V30 7075 H 665.737 -0.853883 -1.69732 0
M  V30 7076 H 663.887 0.344894 -3.86966 0
M  V30 7077 H 665.559 -2.26044 -4.02122 0
M  V30 7078 H 663.802 -2.18591 -3.747 0
M  V30 7079 H 664.473 -1.61601 -5.27815 0
M  V30 7080 H 666.949 -0.0462156 -4.16074 0
M  V30 7081 H 665.825 0.38333 -5.4756 0
M  V30 7082 H 666.086 1.51135 -4.15464 0
M  V30 7083 N 665.145 1.52092 -0.413018 0
M  V30 7084 C 666.075 2.30021 0.401567 0
M  V30 7085 C 667.056 1.34395 1.04269 0
M  V30 7086 O 668.241 1.63304 1.05097 0
M  V30 7087 C 665.371 3.12447 1.51638 0
M  V30 7088 C 664.325 4.16153 1.00005 0
M  V30 7089 C 663.651 4.86948 2.20875 0
M  V30 7090 C 664.951 5.22275 0.0513757 0
M  V30 7091 H 666.645 2.98365 -0.248704 0
M  V30 7092 H 664.191 1.4349 -0.121052 0
M  V30 7093 H 666.144 3.65733 2.09326 0
M  V30 7094 H 664.868 2.41879 2.19458 0
M  V30 7095 H 663.527 3.63882 0.445549 0
M  V30 7096 H 663.175 4.12905 2.8726 0
M  V30 7097 H 662.875 5.57057 1.86978 0
M  V30 7098 H 664.399 5.43048 2.79162 0
M  V30 7099 H 665.813 5.70778 0.537176 0
M  V30 7100 H 664.21 5.9977 -0.198977 0
M  V30 7101 H 665.28 4.76611 -0.892736 0
M  V30 7102 N 666.623 0.143563 1.56945 0
M  V30 7103 C 667.533 -0.810562 2.20152 0
M  V30 7104 C 668.549 -1.27431 1.1848 0
M  V30 7105 O 669.725 -1.33221 1.51044 0
M  V30 7106 C 666.79 -2.03353 2.80799 0
M  V30 7107 C 665.851 -1.61936 3.97587 0
M  V30 7108 C 665.084 -2.78403 4.55332 0
M  V30 7109 O 665.307 -3.94521 4.11958 0
M  V30 7110 O 664.241 -2.54073 5.45647 0
M  V30 7111 H 668.067 -0.30253 3.02189 0
M  V30 7112 H 665.652 -0.0832925 1.49168 0
M  V30 7113 H 667.534 -2.74932 3.19359 0
M  V30 7114 H 666.209 -2.53116 2.01777 0
M  V30 7115 H 665.116 -0.873904 3.6375 0
M  V30 7116 H 666.449 -1.16892 4.78118 0
M  V30 7117 N 668.101 -1.57061 -0.130224 0
M  V30 7118 C 669.031 -2.02552 -1.16168 0
M  V30 7119 C 670.012 -0.907971 -1.4384 0
M  V30 7120 O 671.197 -1.17693 -1.54473 0
M  V30 7121 C 668.327 -2.42035 -2.49071 0
M  V30 7122 C 667.281 -3.5713 -2.35886 0
M  V30 7123 C 666.607 -3.82478 -3.7365 0
M  V30 7124 C 667.907 -4.89236 -1.8288 0
M  V30 7125 H 669.601 -2.8897 -0.783359 0
M  V30 7126 H 667.147 -1.39021 -0.375376 0
M  V30 7127 H 669.1 -2.72462 -3.21469 0
M  V30 7128 H 667.824 -1.52573 -2.88771 0
M  V30 7129 H 666.483 -3.26895 -1.65938 0
M  V30 7130 H 666.131 -2.9024 -4.10816 0
M  V30 7131 H 665.831 -4.59944 -3.65685 0
M  V30 7132 H 667.355 -4.15347 -4.47571 0
M  V30 7133 H 668.769 -5.18272 -2.45085 0
M  V30 7134 H 667.166 -5.70624 -1.85763 0
M  V30 7135 H 668.236 -4.78494 -0.785571 0
M  V30 7136 N 669.579 0.400081 -1.52437 0
M  V30 7137 C 670.826 1.14619 -1.6694 0
M  V30 7138 C 671.154 1.90262 -0.403797 0
M  V30 7139 O 670.409 1.85835 0.61351 0
M  V30 7140 C 670.708 2.15914 -2.84808 0
M  V30 7141 C 670.374 1.57011 -4.2268 0
M  V30 7142 C 669.036 1.40672 -4.60179 0
M  V30 7143 C 671.388 1.14081 -5.08562 0
M  V30 7144 C 668.716 0.799335 -5.81229 0
M  V30 7145 C 671.068 0.547573 -6.30226 0
M  V30 7146 C 669.732 0.371389 -6.66466 0
M  V30 7147 H 669.002 0.419419 -0.610875 0
M  V30 7148 H 671.649 0.432227 -1.86558 0
M  V30 7149 H 669.954 2.93488 -2.59561 0
M  V30 7150 H 671.651 2.73533 -2.93225 0
M  V30 7151 H 668.241 1.70713 -3.93135 0
M  V30 7152 H 672.425 1.2551 -4.80168 0
M  V30 7153 H 667.681 0.65093 -6.07925 0
M  V30 7154 H 671.855 0.206575 -6.96094 0
M  V30 7155 H 669.482 -0.10135 -7.60132 0
M  V30 7156 N 671.057 1.43213 0.657864 0
M  V30 7157 C 672.334 1.35063 1.41483 0
M  V30 7158 C 672.714 -0.0038314 2.111 0
M  V30 7159 O 672.062 -1.02018 2.04462 0
M  V30 7160 C 672.272 2.53061 2.40335 0
M  V30 7161 C 673.62 2.9594 3.04474 0
M  V30 7162 O 674.644 2.53074 2.50663 0
M  V30 7163 O 673.503 3.70184 4.02027 0
M  V30 7164 H 670.597 0.533517 0.631893 0
M  V30 7165 H 673.143 1.55253 0.685162 0
M  V30 7166 H 671.915 3.43283 1.87809 0
M  V30 7167 H 671.538 2.34945 3.20759 0
M  V30 7168 N 672.536 -0.895792 1.29666 0
M  V30 7169 C 673.766 -1.67757 1.20586 0
M  V30 7170 C 674.174 -1.87729 -0.235432 0
M  V30 7171 O 673.517 -1.41706 -1.16898 0
M  V30 7172 C 673.579 -3.08117 1.85215 0
M  V30 7173 C 673.243 -3.1136 3.3452 0
M  V30 7174 C 674.24 -2.91217 4.30684 0
M  V30 7175 C 671.925 -3.33302 3.75786 0
M  V30 7176 C 673.919 -2.92955 5.66089 0
M  V30 7177 C 671.606 -3.3467 5.11311 0
M  V30 7178 C 672.604 -3.14519 6.06273 0
M  V30 7179 O 672.292 -3.15684 7.39323 0
M  V30 7180 H 672.024 -0.530601 0.418854 0
M  V30 7181 H 674.578 -1.12831 1.71634 0
M  V30 7182 H 672.808 -3.64661 1.28683 0
M  V30 7183 H 674.497 -3.68399 1.70403 0
M  V30 7184 H 675.263 -2.74074 4.00136 0
M  V30 7185 H 671.142 -3.48025 3.02324 0
M  V30 7186 H 674.686 -2.77145 6.40185 0
M  V30 7187 H 670.583 -3.51346 5.41504 0
M  V30 7188 H 671.351 -3.31924 7.48177 0
M  V30 7189 N 674.014 -1.12206 -1.10668 0
M  V30 7190 C 674.977 -0.790867 -2.15123 0
M  V30 7191 C 675.977 0.193618 -1.5963 0
M  V30 7192 O 677.167 -0.0318728 -1.74171 0
M  V30 7193 C 674.299 -0.174797 -3.40452 0
M  V30 7194 H 675.492 -1.7163 -2.45933 0
M  V30 7195 H 673.045 -0.924993 -1.2599 0
M  V30 7196 H 673.78 0.760478 -3.15257 0
M  V30 7197 H 673.565 -0.88358 -3.82015 0
M  V30 7198 H 675.055 0.0405162 -4.1758 0
M  V30 7199 N 675.492 1.28418 -0.913599 0
M  V30 7200 C 676.722 1.98817 -0.56172 0
M  V30 7201 C 677.13 1.68457 0.861321 0
M  V30 7202 O 676.473 0.933653 1.58204 0
M  V30 7203 C 676.535 3.52801 -0.690785 0
M  V30 7204 C 676.199 4.0675 -2.08334 0
M  V30 7205 C 677.196 4.20597 -3.05604 0
M  V30 7206 C 674.881 4.41445 -2.39648 0
M  V30 7207 C 676.875 4.68392 -4.32305 0
M  V30 7208 C 674.562 4.88934 -3.66588 0
M  V30 7209 C 675.56 5.02364 -4.6273 0
M  V30 7210 O 675.248 5.48817 -5.87414 0
M  V30 7211 H 674.98 0.641608 -0.212874 0
M  V30 7212 H 677.534 1.64584 -1.22887 0
M  V30 7213 H 675.764 3.86686 0.0334336 0
M  V30 7214 H 677.453 4.04422 -0.346031 0
M  V30 7215 H 678.219 3.94067 -2.8273 0
M  V30 7216 H 674.098 4.30242 -1.65567 0
M  V30 7217 H 677.642 4.7879 -5.07352 0
M  V30 7218 H 673.539 5.14904 -3.89287 0
M  V30 7219 H 674.307 5.67103 -5.90201 0
M  V30 7220 N 676.97 0.677563 1.42291 0
M  V30 7221 C 677.88 0.000962654 2.346 0
M  V30 7222 C 678.896 -0.785833 1.55244 0
M  V30 7223 O 680.072 -0.727523 1.87801 0
M  V30 7224 C 677.137 -0.936746 3.33805 0
M  V30 7225 C 676.198 -0.144173 4.29058 0
M  V30 7226 C 675.431 -1.03722 5.23524 0
M  V30 7227 O 675.654 -2.27675 5.22992 0
M  V30 7228 O 674.588 -0.496542 5.99848 0
M  V30 7229 H 678.414 0.761397 2.94001 0
M  V30 7230 H 675.999 0.43781 1.42841 0
M  V30 7231 H 677.881 -1.47497 3.94744 0
M  V30 7232 H 676.556 -1.67698 2.76874 0
M  V30 7233 H 675.463 0.438224 3.71524 0
M  V30 7234 H 676.796 0.55701 4.89038 0
M  V30 7235 N 678.448 -1.51871 0.421078 0
M  V30 7236 C 679.694 -2.02237 -0.151014 0
M  V30 7237 C 680.027 -1.30554 -1.43768 0
M  V30 7238 O 679.302 -0.41546 -1.90011 0
M  V30 7239 C 679.585 -3.5802 -0.386482 0
M  V30 7240 C 679.438 -4.40339 0.9177 0
M  V30 7241 C 680.757 -4.24444 -1.16342 0
M  V30 7242 H 677.876 -0.735062 -0.0534102 0
M  V30 7243 H 680.518 -1.81656 0.556888 0
M  V30 7244 H 678.668 -3.75688 -0.989494 0
M  V30 7245 H 680.34 -4.34357 1.55344 0
M  V30 7246 H 678.583 -4.06073 1.526 0
M  V30 7247 H 679.254 -5.47451 0.707187 0
M  V30 7248 H 681.73 -4.10948 -0.652788 0
M  V30 7249 H 680.606 -5.33358 -1.29693 0
M  V30 7250 H 680.867 -3.84204 -2.18724 0
M  V30 7251 N 679.926 -0.151884 -1.56866 0
M  V30 7252 C 681.175 0.497992 -1.95456 0
M  V30 7253 C 681.488 1.6569 -1.03953 0
M  V30 7254 O 682.694 2.37173 -1.32142 0
M  V30 7255 C 681.15 0.93732 -3.4748 0
M  V30 7256 C 680.758 -0.194921 -4.47576 0
M  V30 7257 C 682.502 1.55671 -3.94926 0
M  V30 7258 C 680.409 0.26295 -5.90815 0
M  V30 7259 H 679.339 0.189811 -0.729717 0
M  V30 7260 H 681.99 -0.237011 -1.81963 0
M  V30 7261 H 680.372 1.72773 -3.56322 0
M  V30 7262 H 681.546 -0.971951 -4.50433 0
M  V30 7263 H 679.861 -0.72303 -4.10075 0
M  V30 7264 H 682.458 1.91099 -4.99385 0
M  V30 7265 H 682.801 2.44748 -3.36755 0
M  V30 7266 H 683.334 0.831109 -3.89021 0
M  V30 7267 H 680.073 -0.592568 -6.52816 0
M  V30 7268 H 679.593 1.00575 -5.91308 0
M  V30 7269 H 681.272 0.713333 -6.43056 0
M  V30 7270 N 681.404 1.57128 0.121893 0
M  V30 7271 C 682.351 2.0013 1.14964 0
M  V30 7272 C 683.321 0.872959 1.4131 0
M  V30 7273 O 684.506 1.13696 1.53225 0
M  V30 7274 C 681.646 2.40824 2.4718 0
M  V30 7275 C 680.759 3.67061 2.27794 0
M  V30 7276 C 679.894 3.96749 3.53219 0
M  V30 7277 C 678.933 5.16178 3.28978 0
M  V30 7278 N 678.07 5.41751 4.46599 0
M  V30 7279 H 682.91 2.8772 0.775947 0
M  V30 7280 H 680.447 1.42328 0.371652 0
M  V30 7281 H 682.405 2.62454 3.24305 0
M  V30 7282 H 681.035 1.56279 2.82448 0
M  V30 7283 H 680.087 3.53063 1.416 0
M  V30 7284 H 681.399 4.5434 2.05857 0
M  V30 7285 H 680.553 4.19012 4.38764 0
M  V30 7286 H 679.292 3.07941 3.78185 0
M  V30 7287 H 678.297 4.93762 2.41824 0
M  V30 7288 H 679.522 6.06561 3.05386 0
M  V30 7289 H 677.468 4.55899 4.71691 0
M  V30 7290 H 677.385 6.23347 4.27756 0
M  V30 7291 H 678.653 5.68531 5.33285 0
M  V30 7292 N 682.882 -0.391992 1.52647 0
M  V30 7293 C 683.832 -1.47815 1.73594 0
M  V30 7294 C 684.816 -1.49693 0.589979 0
M  V30 7295 O 686.008 -1.5538 0.847701 0
M  V30 7296 C 683.137 -2.85561 1.90551 0
M  V30 7297 C 682.223 -2.88264 3.1107 0
M  V30 7298 N 682.614 -2.60642 4.33474 0
M  V30 7299 C 680.912 -3.19432 3.11254 0
M  V30 7300 C 681.613 -2.70351 5.15058 0
M  V30 7301 N 680.589 -3.03956 4.50679 0
M  V30 7302 H 684.391 -1.2528 2.65861 0
M  V30 7303 H 681.905 -0.599907 1.50913 0
M  V30 7304 H 683.902 -3.63759 2.03678 0
M  V30 7305 H 682.562 -3.09081 0.994952 0
M  V30 7306 H 683.573 -2.34718 4.61658 0
M  V30 7307 H 680.25 -3.48436 2.29997 0
M  V30 7308 H 681.64 -2.52565 6.22624 0
M  V30 7309 N 684.36 -1.4356 -0.65026 0
M  V30 7310 C 685.307 -1.48948 -1.76304 0
M  V30 7311 C 686.277 -0.338919 -1.62605 0
M  V30 7312 O 687.462 -0.54649 -1.82806 0
M  V30 7313 C 684.602 -1.42131 -3.14472 0
M  V30 7314 C 683.715 -2.67415 -3.39284 0
M  V30 7315 C 682.85 -2.52565 -4.67316 0
M  V30 7316 C 681.889 -3.73103 -4.85243 0
M  V30 7317 N 681.026 -3.57046 -6.04535 0
M  V30 7318 H 685.866 -2.44032 -1.71034 0
M  V30 7319 H 683.403 -1.21131 -0.834601 0
M  V30 7320 H 685.361 -1.36172 -3.94351 0
M  V30 7321 H 683.991 -0.506273 -3.18805 0
M  V30 7322 H 683.043 -2.8364 -2.53481 0
M  V30 7323 H 684.355 -3.56943 -3.48415 0
M  V30 7324 H 683.509 -2.44331 -5.55326 0
M  V30 7325 H 682.248 -1.60566 -4.60511 0
M  V30 7326 H 681.253 -3.81743 -3.95667 0
M  V30 7327 H 682.478 -4.66115 -4.93876 0
M  V30 7328 H 680.424 -2.67783 -5.98856 0
M  V30 7329 H 680.341 -4.40178 -6.14638 0
M  V30 7330 H 681.609 -3.52669 -6.95158 0
M  V30 7331 N 685.838 0.888903 -1.30139 0
M  V30 7332 C 686.768 2.01046 -1.18755 0
M  V30 7333 C 687.749 1.69916 -0.0791438 0
M  V30 7334 O 688.934 1.92445 -0.260498 0
M  V30 7335 C 686.064 3.36109 -0.874518 0
M  V30 7336 C 685.018 3.81486 -1.94043 0
M  V30 7337 C 684.344 5.13796 -1.48047 0
M  V30 7338 C 685.644 4.00637 -3.35093 0
M  V30 7339 H 687.338 2.10828 -2.12584 0
M  V30 7340 H 684.884 1.01298 -1.02346 0
M  V30 7341 H 686.837 4.14089 -0.781548 0
M  V30 7342 H 685.561 3.26449 0.0994519 0
M  V30 7343 H 684.22 3.05731 -2.02297 0
M  V30 7344 H 683.868 5.0056 -0.494878 0
M  V30 7345 H 683.568 5.45127 -2.19341 0
M  V30 7346 H 685.092 5.94305 -1.40121 0
M  V30 7347 H 686.506 4.69067 -3.2962 0
M  V30 7348 H 684.903 4.43339 -4.04438 0
M  V30 7349 H 685.973 3.0462 -3.77273 0
M  V30 7350 N 687.317 1.12792 1.10072 0
M  V30 7351 C 688.557 0.895691 1.8373 0
M  V30 7352 C 688.921 -0.568131 1.83402 0
M  V30 7353 O 690.122 -0.917666 2.52651 0
M  V30 7354 C 688.393 1.4593 3.2625 0
M  V30 7355 S 689.952 1.36615 4.16991 0
M  V30 7356 H 686.77 0.323017 0.633389 0
M  V30 7357 H 689.372 1.43816 1.32428 0
M  V30 7358 H 688.076 2.51818 3.24062 0
M  V30 7359 H 687.607 0.914478 3.82624 0
M  V30 7360 H 689.622 0.340131 4.95033 0
M  V30 7361 N 688.795 -1.27931 0.920396 0
M  V30 7362 C 690.211 -1.47085 0.619537 0
M  V30 7363 C 690.411 -1.83463 -0.833291 0
M  V30 7364 O 689.467 -1.94363 -1.61181 0
M  V30 7365 C 690.78 -2.56878 1.56314 0
M  V30 7366 C 692.328 -2.70743 1.57058 0
M  V30 7367 C 692.803 -3.83687 2.50097 0
M  V30 7368 N 694.294 -3.9105 2.48262 0
M  V30 7369 C 695.029 -4.77842 3.16945 0
M  V30 7370 N 694.525 -5.69176 3.94982 0
M  V30 7371 N 696.318 -4.71509 3.06 0
M  V30 7372 H 688.469 -1.02601 1.85975 0
M  V30 7373 H 690.732 -0.511682 0.798051 0
M  V30 7374 H 690.438 -2.36923 2.59923 0
M  V30 7375 H 690.312 -3.54117 1.29928 0
M  V30 7376 H 692.699 -2.90083 0.541832 0
M  V30 7377 H 692.78 -1.74015 1.8749 0
M  V30 7378 H 692.424 -3.65101 3.53077 0
M  V30 7379 H 692.354 -4.79827 2.16964 0
M  V30 7380 H 694.845 -3.25738 1.91581 0
M  V30 7381 H 695.158 -6.32245 4.44394 0
M  V30 7382 H 693.503 -5.68995 3.99086 0
M  V30 7383 H 696.694 -3.99151 2.44533 0
M  V30 7384 H 696.867 -5.38933 3.59799 0
M  V30 7385 N 690.273 -0.685099 -1.4193 0
M  V30 7386 C 691.689 -0.355632 -1.55587 0
M  V30 7387 C 691.889 1.13823 -1.66273 0
M  V30 7388 O 690.945 1.92387 -1.63534 0
M  V30 7389 C 692.258 -1.09498 -2.80055 0
M  V30 7390 C 693.806 -1.07831 -2.93839 0
M  V30 7391 C 694.281 -1.79919 -4.21181 0
M  V30 7392 N 695.772 -1.76837 -4.28115 0
M  V30 7393 C 696.507 -2.29463 -5.25485 0
M  V30 7394 N 696.003 -2.90516 -6.28945 0
M  V30 7395 N 697.796 -2.19779 -5.17353 0
M  V30 7396 H 689.947 -1.65412 -1.33239 0
M  V30 7397 H 692.21 -0.697453 -0.642078 0
M  V30 7398 H 691.916 -2.14997 -2.78333 0
M  V30 7399 H 691.79 -0.666813 -3.71259 0
M  V30 7400 H 694.177 -0.0316152 -2.95083 0
M  V30 7401 H 694.258 -1.54545 -2.03837 0
M  V30 7402 H 693.902 -2.84562 -4.20698 0
M  V30 7403 H 693.832 -1.30647 -5.10136 0
M  V30 7404 H 696.323 -1.32315 -3.53979 0
M  V30 7405 H 696.636 -3.28266 -6.99615 0
M  V30 7406 H 694.981 -2.94589 -6.29478 0
M  V30 7407 H 698.172 -1.71763 -4.35448 0
M  V30 7408 H 698.345 -2.61097 -5.9307 0
M  V30 7409 N 691.751 1.51645 -0.429126 0
M  V30 7410 C 692.999 2.01616 0.139802 0
M  V30 7411 C 693.32 1.31568 1.43927 0
M  V30 7412 O 692.59 0.447688 1.90716 0
M  V30 7413 H 691.17 0.744998 0.054654 0
M  V30 7414 H 693.832 1.8638 -0.569952 0
M  V30 7415 H 692.928 3.10439 0.321609 0
M  V30 7416 N 693.229 0.160201 1.56784 0
M  V30 7417 C 694.176 -0.774416 2.1742 0
M  V30 7418 C 695.146 -1.23483 1.11091 0
M  V30 7419 O 696.331 -1.30499 1.39193 0
M  V30 7420 C 693.471 -2.00283 2.81035 0
M  V30 7421 C 692.584 -1.58701 4.01793 0
M  V30 7422 C 691.719 -2.76824 4.53367 0
M  V30 7423 C 690.758 -2.31679 5.66561 0
M  V30 7424 N 689.895 -3.42856 6.12694 0
M  V30 7425 H 694.735 -0.250542 2.96945 0
M  V30 7426 H 692.272 -0.111943 1.46673 0
M  V30 7427 H 694.23 -2.72316 3.16069 0
M  V30 7428 H 692.86 -2.5006 2.04132 0
M  V30 7429 H 691.912 -0.76384 3.72652 0
M  V30 7430 H 693.224 -1.21555 4.83762 0
M  V30 7431 H 692.378 -3.57029 4.90525 0
M  V30 7432 H 691.117 -3.17223 3.70433 0
M  V30 7433 H 690.122 -1.49917 5.28966 0
M  V30 7434 H 691.347 -1.9235 6.5129 0
M  V30 7435 H 689.293 -3.82852 5.32692 0
M  V30 7436 H 689.21 -3.09767 6.89624 0
M  V30 7437 H 690.478 -4.23379 6.545 0
M  V30 7438 N 694.707 -1.5719 -0.113559 0
M  V30 7439 C 695.947 -1.86958 -0.82621 0
M  V30 7440 C 696.311 -0.748884 -1.76793 0
M  V30 7441 O 697.512 -0.92847 -2.52256 0
M  V30 7442 C 695.783 -3.21957 -1.55173 0
M  V30 7443 S 697.342 -3.73371 -2.3052 0
M  V30 7444 H 694.16 -0.655394 -0.275643 0
M  V30 7445 H 696.762 -1.95318 -0.0842684 0
M  V30 7446 H 695.466 -4.01459 -0.851977 0
M  V30 7447 H 694.997 -3.16688 -2.33393 0
M  V30 7448 H 697.012 -3.45308 -3.56338 0
M  V30 7449 N 696.185 0.383891 -1.52853 0
M  V30 7450 C 697.117 1.48889 -1.74255 0
M  V30 7451 C 698.13 1.50405 -0.623063 0
M  V30 7452 O 699.319 1.54215 -0.898887 0
M  V30 7453 C 696.419 2.87721 -1.79081 0
M  V30 7454 C 695.592 3.10111 -3.08464 0
M  V30 7455 C 694.651 4.28954 -3.0477 0
M  V30 7456 O 693.677 4.25012 -3.78621 0
M  V30 7457 N 694.879 5.35411 -2.24311 0
M  V30 7458 H 697.644 1.30915 -2.69595 0
M  V30 7459 H 695.205 0.573454 -1.51404 0
M  V30 7460 H 697.197 3.65333 -1.7411 0
M  V30 7461 H 695.767 2.99029 -0.911052 0
M  V30 7462 H 694.987 2.20319 -3.26884 0
M  V30 7463 H 696.275 3.21928 -3.94005 0
M  V30 7464 H 695.673 5.41471 -1.63787 0
M  V30 7465 H 694.23 6.1167 -2.25175 0
M  V30 7466 N 697.663 1.43903 0.642637 0
M  V30 7467 C 698.61 1.49881 1.75512 0
M  V30 7468 C 699.58 0.347538 1.62423 0
M  V30 7469 O 700.765 0.556177 1.82514 0
M  V30 7470 C 697.905 1.43797 3.13714 0
M  V30 7471 C 697.018 2.6921 3.37861 0
M  V30 7472 C 696.153 2.5504 4.6597 0
M  V30 7473 C 695.192 3.75671 4.83257 0
M  V30 7474 N 694.329 3.60247 6.02633 0
M  V30 7475 H 699.169 2.44935 1.69737 0
M  V30 7476 H 696.706 1.21572 0.828165 0
M  V30 7477 H 698.664 1.38262 3.93624 0
M  V30 7478 H 697.294 0.523173 3.18532 0
M  V30 7479 H 696.346 2.8498 2.51973 0
M  V30 7480 H 697.658 3.58786 3.46517 0
M  V30 7481 H 696.812 2.47273 5.54023 0
M  V30 7482 H 695.551 1.63006 4.59653 0
M  V30 7483 H 694.556 3.83836 3.93637 0
M  V30 7484 H 695.781 4.68728 4.91397 0
M  V30 7485 H 693.727 2.70955 5.97427 0
M  V30 7486 H 693.644 4.43431 6.12295 0
M  V30 7487 H 694.912 3.56351 6.93278 0
M  V30 7488 N 699.141 -0.881989 1.30609 0
M  V30 7489 C 700.051 -2.02076 1.19174 0
M  V30 7490 C 701.067 -1.73645 0.11102 0
M  V30 7491 O 702.243 -1.98735 0.326528 0
M  V30 7492 C 699.308 -3.3515 0.887438 0
M  V30 7493 C 698.369 -3.76983 2.05383 0
M  V30 7494 C 697.602 -5.03707 1.76395 0
M  V30 7495 O 697.825 -5.66171 0.693302 0
M  V30 7496 O 696.759 -5.42019 2.61723 0
M  V30 7497 H 700.585 -2.14652 2.14845 0
M  V30 7498 H 698.17 -1.00843 1.10232 0
M  V30 7499 H 700.052 -4.14975 0.73306 0
M  V30 7500 H 698.727 -3.23676 -0.0393354 0
M  V30 7501 H 697.634 -2.97849 2.26355 0
M  V30 7502 H 698.967 -3.93066 2.96243 0
M  V30 7503 N 700.619 -1.13374 -1.09472 0
M  V30 7504 C 701.582 -0.813639 -2.14272 0
M  V30 7505 C 702.582 0.176677 -1.59826 0
M  V30 7506 O 703.772 -0.0503441 -1.74127 0
M  V30 7507 C 700.904 -0.210897 -3.40247 0
M  V30 7508 H 702.097 -1.74229 -2.44099 0
M  V30 7509 H 699.65 -0.938304 -1.25002 0
M  V30 7510 H 700.385 0.726998 -3.16046 0
M  V30 7511 H 700.17 -0.924048 -3.81056 0
M  V30 7512 H 701.66 -0.00377603 -4.176 0
M  V30 7513 N 702.098 1.27442 -0.927168 0
M  V30 7514 C 703.045 2.26863 -0.424459 0
M  V30 7515 C 704.015 1.5813 0.508346 0
M  V30 7516 O 705.2 1.85946 0.42762 0
M  V30 7517 C 702.34 3.43639 0.31718 0
M  V30 7518 C 701.453 4.27087 -0.649675 0
M  V30 7519 C 700.588 5.31082 0.111753 0
M  V30 7520 C 699.627 6.062 -0.847843 0
M  V30 7521 N 698.764 7.01999 -0.119074 0
M  V30 7522 H 703.604 2.69239 -1.27728 0
M  V30 7523 H 701.141 1.32394 -0.641106 0
M  V30 7524 H 703.099 4.10155 0.763486 0
M  V30 7525 H 701.729 3.02217 1.13424 0
M  V30 7526 H 700.781 3.60491 -1.21451 0
M  V30 7527 H 702.093 4.79242 -1.38307 0
M  V30 7528 H 701.247 6.03544 0.618 0
M  V30 7529 H 699.986 4.7973 0.878114 0
M  V30 7530 H 698.991 5.32577 -1.36534 0
M  V30 7531 H 700.216 6.59642 -1.61398 0
M  V30 7532 H 698.162 6.52977 0.629051 0
M  V30 7533 H 698.079 7.5184 -0.792046 0
M  V30 7534 H 699.347 7.78638 0.366537 0
M  V30 7535 N 703.576 0.692616 1.41565 0
M  V30 7536 C 704.992 0.363878 1.55397 0
M  V30 7537 C 705.192 -1.1294 1.66874 0
M  V30 7538 O 704.248 -1.91517 1.64552 0
M  V30 7539 C 705.561 1.10982 2.7947 0
M  V30 7540 C 707.109 1.09387 2.93263 0
M  V30 7541 C 707.584 1.8215 4.20221 0
M  V30 7542 N 709.075 1.79105 4.27172 0
M  V30 7543 C 709.81 2.32247 5.2426 0
M  V30 7544 N 709.306 2.93847 6.27396 0
M  V30 7545 N 711.099 2.22519 5.1618 0
M  V30 7546 H 703.25 1.66116 1.3236 0
M  V30 7547 H 705.513 0.700848 0.63837 0
M  V30 7548 H 705.219 2.1647 2.77188 0
M  V30 7549 H 705.093 0.686492 3.709 0
M  V30 7550 H 707.48 0.0472638 2.95062 0
M  V30 7551 H 707.561 1.55623 2.03015 0
M  V30 7552 H 707.205 2.86789 4.19183 0
M  V30 7553 H 707.135 1.33351 5.09436 0
M  V30 7554 H 709.626 1.34191 3.53272 0
M  V30 7555 H 709.939 3.31972 6.97864 0
M  V30 7556 H 708.284 2.97924 6.27906 0
M  V30 7557 H 711.475 1.7407 4.34531 0
M  V30 7558 H 711.648 2.64239 5.91677 0
M  V30 7559 N 705.054 -1.51416 0.437162 0
M  V30 7560 C 706.279 -2.0699 -0.130424 0
M  V30 7561 C 706.704 -1.30249 -1.35709 0
M  V30 7562 O 706.062 -0.340388 -1.78076 0
M  V30 7563 C 706.11 -3.5801 -0.43142 0
M  V30 7564 O 705.214 -3.8345 -1.5179 0
M  V30 7565 H 704.555 -0.663997 -0.00194339 0
M  V30 7566 H 707.085 -1.95029 0.618445 0
M  V30 7567 H 707.095 -4.02261 -0.681926 0
M  V30 7568 H 705.77 -4.13291 0.465137 0
M  V30 7569 H 704.347 -3.51062 -1.25737 0
M  V30 7570 N 706.532 -0.168513 -1.56696 0
M  V30 7571 C 707.757 0.486688 -2.01609 0
M  V30 7572 C 708.182 1.56203 -1.04796 0
M  V30 7573 O 707.54 1.8128 -0.0270596 0
M  V30 7574 C 707.588 1.04451 -3.45141 0
M  V30 7575 O 706.692 2.15862 -3.51393 0
M  V30 7576 H 706.033 0.116831 -0.653641 0
M  V30 7577 H 708.563 -0.271579 -2.0279 0
M  V30 7578 H 708.573 1.36782 -3.84389 0
M  V30 7579 H 707.248 0.257155 -4.15104 0
M  V30 7580 H 705.825 1.84597 -3.24004 0
M  V30 7581 N 708.01 1.57248 0.105221 0
M  V30 7582 C 708.973 2.00388 1.11252 0
M  V30 7583 C 709.973 0.89594 1.33527 0
M  V30 7584 O 711.163 1.16166 1.29811 0
M  V30 7585 C 708.295 2.35589 2.46395 0
M  V30 7586 H 709.488 2.90591 0.741424 0
M  V30 7587 H 707.041 1.52332 0.349956 0
M  V30 7588 H 707.776 1.4831 2.884 0
M  V30 7589 H 707.561 3.16408 2.31578 0
M  V30 7590 H 709.051 2.69658 3.18864 0
M  V30 7591 N 709.488 -0.375779 1.53054 0
M  V30 7592 C 710.765 -1.13453 1.59336 0
M  V30 7593 C 711.145 -2.07379 0.394614 0
M  V30 7594 O 710.493 -2.2004 -0.616 0
M  V30 7595 C 710.703 -1.8826 2.93869 0
M  V30 7596 C 712.051 -2.43155 3.48081 0
M  V30 7597 O 713.075 -1.984 2.95831 0
M  V30 7598 O 711.934 -3.24944 4.39401 0
M  V30 7599 H 709.028 -0.519856 0.643179 0
M  V30 7600 H 711.574 -0.379865 1.65394 0
M  V30 7601 H 710.346 -1.19652 3.72558 0
M  V30 7602 H 709.969 -2.70658 2.91256 0
M  V30 7603 N 710.966 -1.44241 -0.634997 0
M  V30 7604 C 711.913 -1.5081 -1.74714 0
M  V30 7605 C 712.883 -0.356147 -1.62237 0
M  V30 7606 O 714.068 -0.565848 -1.82216 0
M  V30 7607 C 711.208 -1.45458 -3.12947 0
M  V30 7608 C 710.321 -2.70998 -3.36428 0
M  V30 7609 C 709.456 -2.57507 -4.64611 0
M  V30 7610 C 708.495 -3.78229 -4.81258 0
M  V30 7611 N 707.632 -3.63438 -6.00714 0
M  V30 7612 H 712.472 -2.45832 -1.68436 0
M  V30 7613 H 710.009 -1.2201 -0.821706 0
M  V30 7614 H 711.967 -1.40347 -3.92885 0
M  V30 7615 H 710.597 -0.540058 -3.1825 0
M  V30 7616 H 709.649 -2.86312 -2.50458 0
M  V30 7617 H 710.961 -3.60619 -3.44609 0
M  V30 7618 H 710.115 -2.50207 -5.52703 0
M  V30 7619 H 708.854 -1.65441 -4.58782 0
M  V30 7620 H 707.859 -3.85918 -3.91596 0
M  V30 7621 H 709.084 -4.71327 -4.88904 0
M  V30 7622 H 707.03 -2.7412 -5.95982 0
M  V30 7623 H 706.947 -4.46672 -6.09934 0
M  V30 7624 H 708.215 -3.60022 -6.91378 0
M  V30 7625 N 712.444 0.87505 -1.31075 0
M  V30 7626 C 713.692 1.62447 -1.20231 0
M  V30 7627 C 714.013 1.93506 0.240888 0
M  V30 7628 O 713.283 1.57847 1.16022 0
M  V30 7629 H 711.863 0.602207 -0.441991 0
M  V30 7630 H 714.525 1.04788 -1.64334 0
M  V30 7631 H 713.621 2.57031 -1.77036 0
M  V30 7632 N 713.922 1.13953 1.08869 0
M  V30 7633 C 715.168 0.906151 1.8143 0
M  V30 7634 C 715.501 -0.566089 1.85766 0
M  V30 7635 O 714.776 -1.41915 1.33006 0
M  V30 7636 C 715.059 1.50183 3.27287 0
M  V30 7637 C 714.912 3.04359 3.31189 0
M  V30 7638 C 716.231 1.17477 4.24131 0
M  V30 7639 H 713.35 0.330624 0.658678 0
M  V30 7640 H 715.992 1.40873 1.27495 0
M  V30 7641 H 714.142 1.07442 3.73348 0
M  V30 7642 H 715.814 3.55896 2.93488 0
M  V30 7643 H 714.057 3.39053 2.70602 0
M  V30 7644 H 714.728 3.41141 4.33966 0
M  V30 7645 H 717.204 1.5442 3.86385 0
M  V30 7646 H 716.08 1.61795 5.24513 0
M  V30 7647 H 716.341 0.0893312 4.4201 0
M  V30 7648 N 715.4 -1.26948 0.933913 0
M  V30 7649 C 716.363 -2.24889 0.442457 0
M  V30 7650 C 717.363 -1.54594 -0.442426 0
M  V30 7651 O 718.553 -1.72502 -0.242629 0
M  V30 7652 C 715.685 -3.3896 -0.363173 0
M  V30 7653 H 716.878 -2.69879 1.30787 0
M  V30 7654 H 714.431 -1.38978 0.715187 0
M  V30 7655 H 715.166 -2.99361 -1.24714 0
M  V30 7656 H 714.951 -3.9116 0.271366 0
M  V30 7657 H 716.441 -4.11739 -0.697186 0
M  V30 7658 N 716.879 -0.700114 -1.41195 0
M  V30 7659 C 717.809 -0.0521132 -2.33442 0
M  V30 7660 C 718.79 0.76228 -1.52063 0
M  V30 7661 O 719.975 0.714336 -1.80585 0
M  V30 7662 C 717.105 0.881693 -3.35922 0
M  V30 7663 C 716.059 0.174062 -4.27646 0
M  V30 7664 C 715.385 1.22254 -5.20536 0
M  V30 7665 C 716.685 -0.962396 -5.13357 0
M  V30 7666 H 718.379 -0.822574 -2.87879 0
M  V30 7667 H 715.925 -0.397011 -1.38419 0
M  V30 7668 H 717.878 1.34429 -3.99383 0
M  V30 7669 H 716.602 1.68387 -2.79845 0
M  V30 7670 H 715.261 -0.268551 -3.65615 0
M  V30 7671 H 714.909 2.01736 -4.60773 0
M  V30 7672 H 714.609 0.754038 -5.82742 0
M  V30 7673 H 716.133 1.68555 -5.86874 0
M  V30 7674 H 717.547 -0.579875 -5.7036 0
M  V30 7675 H 715.944 -1.35828 -5.84526 0
M  V30 7676 H 717.014 -1.80003 -4.50252 0
M  V30 7677 N 718.357 1.51182 -0.445186 0
M  V30 7678 C 719.582 2.07056 0.119445 0
M  V30 7679 C 720.007 1.30966 1.35016 0
M  V30 7680 O 719.365 0.349827 1.77893 0
M  V30 7681 C 719.413 3.58234 0.412428 0
M  V30 7682 O 718.517 3.84249 1.49754 0
M  V30 7683 H 717.858 0.663998 -0.00157797 0
M  V30 7684 H 720.388 1.94699 -0.628779 0
M  V30 7685 H 720.398 4.02617 0.660583 0
M  V30 7686 H 719.073 4.13038 -0.487049 0
M  V30 7687 H 717.65 3.51724 1.23873 0
M  V30 7688 N 719.835 0.176821 1.56605 0
M  V30 7689 C 720.765 -0.746841 2.21234 0
M  V30 7690 C 721.746 -1.23502 1.16967 0
M  V30 7691 O 722.931 -1.28718 1.45414 0
M  V30 7692 C 720.061 -1.97407 2.8574 0
M  V30 7693 C 719.015 -1.62153 3.96094 0
M  V30 7694 C 718.341 -2.92387 4.47676 0
M  V30 7695 C 719.641 -0.845353 5.15413 0
M  V30 7696 H 721.335 -0.208116 2.98676 0
M  V30 7697 H 718.881 -0.0986594 1.43662 0
M  V30 7698 H 720.834 -2.62531 3.2963 0
M  V30 7699 H 719.558 -2.53703 2.05676 0
M  V30 7700 H 718.217 -0.993964 3.52868 0
M  V30 7701 H 717.865 -3.46734 3.64396 0
M  V30 7702 H 717.565 -2.69551 5.22127 0
M  V30 7703 H 719.089 -3.5853 4.94255 0
M  V30 7704 H 720.503 -1.39929 5.55961 0
M  V30 7705 H 718.9 -0.715814 5.95815 0
M  V30 7706 H 719.97 0.157239 4.84645 0
M  V30 7707 N 721.313 -1.57302 -0.09688 0
M  V30 7708 C 722.59 -1.7701 -0.832272 0
M  V30 7709 C 722.97 -0.758025 -1.97021 0
M  V30 7710 O 722.318 0.213824 -2.27497 0
M  V30 7711 C 722.528 -3.22725 -1.32851 0
M  V30 7712 C 723.876 -3.85856 -1.772 0
M  V30 7713 O 724.9 -3.26464 -1.42478 0
M  V30 7714 O 723.759 -4.90295 -2.41398 0
M  V30 7715 H 720.853 -0.725558 -0.396856 0
M  V30 7716 H 723.399 -1.69516 -0.0789005 0
M  V30 7717 H 722.171 -3.87921 -0.51312 0
M  V30 7718 H 721.794 -3.34845 -2.14394 0
M  V30 7719 N 722.791 0.367657 -1.53252 0
M  V30 7720 C 724.068 1.12606 -1.59935 0
M  V30 7721 C 724.448 2.07167 -0.405606 0
M  V30 7722 O 723.796 2.20364 0.604323 0
M  V30 7723 C 724.006 1.86699 -2.94863 0
M  V30 7724 C 725.354 2.41306 -3.49366 0
M  V30 7725 O 726.378 1.96828 -2.96879 0
M  V30 7726 O 725.237 3.2261 -4.41118 0
M  V30 7727 H 722.331 0.516438 -0.645926 0
M  V30 7728 H 724.877 0.371088 -1.65593 0
M  V30 7729 H 723.649 1.17674 -3.73187 0
M  V30 7730 H 723.272 2.6911 -2.92687 0
M  V30 7731 N 724.269 1.44576 0.627338 0
M  V30 7732 C 725.515 1.47777 1.38888 0
M  V30 7733 C 725.848 0.111406 1.9388 0
M  V30 7734 O 725.123 -0.87149 1.73883 0
M  V30 7735 C 725.406 2.54119 2.55138 0
M  V30 7736 C 725.259 4.00128 2.0547 0
M  V30 7737 C 726.578 2.56929 3.57317 0
M  V30 7738 H 723.697 0.538048 0.50366 0
M  V30 7739 H 726.339 1.76277 0.708978 0
M  V30 7740 H 724.489 2.29948 3.13139 0
M  V30 7741 H 726.161 4.35444 1.5227 0
M  V30 7742 H 724.404 4.11724 1.36623 0
M  V30 7743 H 725.075 4.7019 2.89181 0
M  V30 7744 H 727.551 2.78536 3.09122 0
M  V30 7745 H 726.427 3.33234 4.36173 0
M  V30 7746 H 726.688 1.6127 4.11636 0
M  V30 7747 N 725.747 -0.868086 1.31537 0
M  V30 7748 C 726.694 -1.97548 1.19346 0
M  V30 7749 C 727.664 -1.65913 0.0787922 0
M  V30 7750 O 728.849 -1.89129 0.251985 0
M  V30 7751 C 725.989 -3.32922 0.908692 0
M  V30 7752 C 725.102 -3.77141 2.10687 0
M  V30 7753 C 724.237 -5.01241 1.75873 0
M  V30 7754 C 723.276 -5.37914 2.92088 0
M  V30 7755 N 722.413 -6.53192 2.57457 0
M  V30 7756 H 727.253 -2.07307 2.14074 0
M  V30 7757 H 724.79 -1.01483 1.06487 0
M  V30 7758 H 726.748 -4.10867 0.724138 0
M  V30 7759 H 725.378 -3.228 -0.0017611 0
M  V30 7760 H 724.43 -2.94961 2.40213 0
M  V30 7761 H 725.742 -4.00248 2.97663 0
M  V30 7762 H 724.896 -5.86858 1.53891 0
M  V30 7763 H 723.635 -4.80041 0.86091 0
M  V30 7764 H 722.64 -4.50814 3.14717 0
M  V30 7765 H 723.865 -5.61077 3.82582 0
M  V30 7766 H 721.811 -6.33536 1.702 0
M  V30 7767 H 721.728 -6.76252 3.37963 0
M  V30 7768 H 722.996 -7.41997 2.38873 0
M  V30 7769 N 727.225 -1.14528 -1.08264 0
M  V30 7770 C 728.641 -0.885976 -1.3275 0
M  V30 7771 C 728.841 0.472096 -1.95892 0
M  V30 7772 O 727.897 1.21606 -2.21288 0
M  V30 7773 C 729.21 -2.01982 -2.22764 0
M  V30 7774 C 730.758 -2.05329 -2.36239 0
M  V30 7775 C 731.233 -3.1801 -3.29596 0
M  V30 7776 N 732.724 -3.17598 -3.37173 0
M  V30 7777 C 733.459 -4.01426 -4.09444 0
M  V30 7778 N 732.955 -4.95297 -4.8441 0
M  V30 7779 N 734.748 -3.89482 -4.0529 0
M  V30 7780 H 726.899 -2.01996 -0.656607 0
M  V30 7781 H 729.162 -0.880274 -0.351884 0
M  V30 7782 H 728.868 -2.99964 -1.83615 0
M  V30 7783 H 728.742 -1.94421 -3.23234 0
M  V30 7784 H 731.129 -1.07953 -2.74646 0
M  V30 7785 H 731.21 -2.1696 -1.35506 0
M  V30 7786 H 730.854 -4.15633 -2.9191 0
M  V30 7787 H 730.784 -3.03616 -4.30261 0
M  V30 7788 H 733.275 -2.4961 -2.83731 0
M  V30 7789 H 733.588 -5.55723 -5.37021 0
M  V30 7790 H 731.933 -4.99293 -4.83457 0
M  V30 7791 H 735.124 -3.15465 -3.45832 0
M  V30 7792 H 735.297 -4.55039 -4.6135 0
M  V30 7793 N 728.703 1.26451 -0.940633 0
M  V30 7794 C 729.653 2.24086 -0.420669 0
M  V30 7795 C 730.637 1.53501 0.482301 0
M  V30 7796 O 731.829 1.74127 0.317636 0
M  V30 7797 C 728.958 3.41866 0.313452 0
M  V30 7798 C 728.044 4.19737 -0.606779 0
M  V30 7799 N 728.435 4.7521 -1.73232 0
M  V30 7800 C 726.733 4.44091 -0.41226 0
M  V30 7801 C 727.434 5.34052 -2.30572 0
M  V30 7802 N 726.41 5.1971 -1.59381 0
M  V30 7803 H 730.212 2.64569 -1.27986 0
M  V30 7804 H 727.726 1.4153 -0.796436 0
M  V30 7805 H 729.723 4.1093 0.702991 0
M  V30 7806 H 728.383 3.0291 1.16942 0
M  V30 7807 H 729.394 4.72769 -2.11447 0
M  V30 7808 H 726.071 4.1556 0.401984 0
M  V30 7809 H 727.461 5.87845 -3.25404 0
M  V30 7810 N 730.181 0.707592 1.40822 0
M  V30 7811 C 731.129 0.0386643 2.32568 0
M  V30 7812 C 732.123 -0.755653 1.51612 0
M  V30 7813 O 733.329 -0.659921 1.67467 0
M  V30 7814 H 729.704 -0.00629912 0.751974 0
M  V30 7815 H 731.675 0.8293 2.86645 0
M  V30 7816 C 730.424 -0.87496 3.36511 0
M  V30 7817 H 729.747 -0.273157 3.98866 0
M  V30 7818 H 731.187 -1.31111 4.03219 0
M  V30 7819 C 729.646 -1.99672 2.71353 0
M  V30 7820 O 730.176 -3.08676 2.57064 0
M  V30 7821 N 728.382 -1.77799 2.29861 0
M  V30 7822 H 727.929 -0.89147 2.41683 0
M  V30 7823 H 727.887 -2.53036 1.86601 0
M  V30 7824 N 731.66 -1.50943 0.453197 0
M  V30 7825 C 733.071 -1.86699 -0.00619892 0
M  V30 7826 C 733.422 -1.3693 -1.40515 0
M  V30 7827 O 732.547 -0.726715 -2.03833 0
M  V30 7828 C 733.142 -3.38795 -0.018025 0
M  V30 7829 C 731.701 -3.74028 -0.421885 0
M  V30 7830 C 730.848 -2.74752 0.375087 0
M  V30 7831 H 733.799 -1.43942 0.668317 0
M  V30 7832 H 733.82 -3.71468 -0.824125 0
M  V30 7833 H 733.332 -3.74988 1.00028 0
M  V30 7834 H 731.433 -3.43431 -1.44521 0
M  V30 7835 H 731.546 -4.78908 -0.135664 0
M  V30 7836 H 729.91 -2.5414 -0.168794 0
M  V30 7837 H 730.693 -3.13787 1.39256 0
M  V30 7838 N 733.138 -0.185124 -1.56509 0
M  V30 7839 C 734.378 0.458547 -1.9919 0
M  V30 7840 C 734.742 1.59484 -1.06906 0
M  V30 7841 O 735.943 2.30201 -1.38783 0
M  V30 7842 C 734.214 0.916263 -3.45455 0
M  V30 7843 S 735.773 1.55918 -4.10165 0
M  V30 7844 H 732.591 0.147008 -0.695636 0
M  V30 7845 H 735.193 -0.285841 -1.93399 0
M  V30 7846 H 733.897 0.0790543 -4.10324 0
M  V30 7847 H 733.428 1.69436 -3.55042 0
M  V30 7848 H 735.443 2.84771 -4.0635 0
M  V30 7849 N 734.616 1.57351 0.0885366 0
M  V30 7850 C 735.526 2.05858 1.12516 0
M  V30 7851 C 736.542 0.984758 1.43452 0
M  V30 7852 O 737.718 1.29836 1.53963 0
M  V30 7853 C 734.783 2.47882 2.42395 0
M  V30 7854 C 733.844 3.69487 2.18582 0
M  V30 7855 C 733.077 4.09497 3.42268 0
M  V30 7856 O 733.3 3.49536 4.50755 0
M  V30 7857 O 732.234 5.02406 3.31469 0
M  V30 7858 H 736.06 2.94467 0.743146 0
M  V30 7859 H 733.645 1.46326 0.301507 0
M  V30 7860 H 735.527 2.75509 3.18862 0
M  V30 7861 H 734.202 1.62408 2.8001 0
M  V30 7862 H 733.109 3.46967 1.39875 0
M  V30 7863 H 734.442 4.55761 1.85857 0
M  V30 7864 N 736.094 -0.359525 1.53444 0
M  V30 7865 C 737.319 -1.12644 1.74144 0
M  V30 7866 C 737.744 -1.82082 0.472007 0
M  V30 7867 O 737.102 -1.71962 -0.57436 0
M  V30 7868 C 737.15 -2.12781 2.9113 0
M  V30 7869 O 736.254 -3.19984 2.60162 0
M  V30 7870 H 735.595 -0.326553 0.578152 0
M  V30 7871 H 738.125 -0.414798 2.00351 0
M  V30 7872 H 738.135 -2.56278 3.17467 0
M  V30 7873 H 736.81 -1.61634 3.83207 0
M  V30 7874 H 735.387 -2.81417 2.44661 0
M  V30 7875 N 737.572 -1.44907 -0.619662 0
M  V30 7876 C 738.502 -1.55488 -1.742 0
M  V30 7877 C 739.483 -0.407143 -1.65156 0
M  V30 7878 O 740.668 -0.628743 -1.8374 0
M  V30 7879 C 737.798 -1.5097 -3.1277 0
M  V30 7880 C 736.752 -2.64337 -3.36615 0
M  V30 7881 C 736.078 -2.44872 -4.75333 0
M  V30 7882 C 737.378 -4.06423 -3.28051 0
M  V30 7883 H 739.072 -2.49432 -1.65602 0
M  V30 7884 H 736.618 -1.20047 -0.795281 0
M  V30 7885 H 738.571 -1.56971 -3.91073 0
M  V30 7886 H 737.295 -0.535486 -3.2218 0
M  V30 7887 H 735.954 -2.57744 -2.60698 0
M  V30 7888 H 735.602 -1.45617 -4.81461 0
M  V30 7889 H 735.302 -3.20888 -4.92244 0
M  V30 7890 H 736.826 -2.52709 -5.55851 0
M  V30 7891 H 738.24 -4.14324 -3.96243 0
M  V30 7892 H 736.637 -4.82733 -3.56495 0
M  V30 7893 H 737.707 -4.29183 -2.25676 0
M  V30 7894 N 739.05 0.861098 -1.31996 0
M  V30 7895 C 740.466 1.14827 -1.10846 0
M  V30 7896 C 740.666 2.0117 0.11528 0
M  V30 7897 O 739.722 2.39423 0.802048 0
M  V30 7898 C 741.035 1.83183 -2.38462 0
M  V30 7899 C 742.583 1.95847 -2.44158 0
M  V30 7900 C 743.058 2.67617 -3.71679 0
M  V30 7901 N 744.549 2.75147 -3.72624 0
M  V30 7902 C 745.284 3.31314 -4.67994 0
M  V30 7903 N 744.78 3.88343 -5.73726 0
M  V30 7904 N 746.573 3.29356 -4.55501 0
M  V30 7905 H 738.724 0.285951 -2.10466 0
M  V30 7906 H 740.987 0.189303 -0.928907 0
M  V30 7907 H 740.693 1.27193 -3.27895 0
M  V30 7908 H 740.567 2.83393 -2.48935 0
M  V30 7909 H 742.954 2.50999 -1.55189 0
M  V30 7910 H 743.035 0.94653 -2.37644 0
M  V30 7911 H 742.679 2.13131 -4.61018 0
M  V30 7912 H 742.609 3.69237 -3.75462 0
M  V30 7913 H 745.1 2.34682 -2.96197 0
M  V30 7914 H 745.413 4.29338 -6.42564 0
M  V30 7915 H 743.758 3.86693 -5.77489 0
M  V30 7916 H 746.949 2.84047 -3.72069 0
M  V30 7917 H 747.122 3.7283 -5.30001 0
M  V30 7918 N 740.528 1.15101 1.07655 0
M  V30 7919 C 741.776 0.922149 1.79836 0
M  V30 7920 C 742.097 -0.552346 1.87014 0
M  V30 7921 O 741.367 -1.40145 1.3688 0
M  V30 7922 H 739.947 0.338182 0.666064 0
M  V30 7923 H 742.609 1.45107 1.30115 0
M  V30 7924 H 741.705 1.32883 2.82398 0
M  V30 7925 N 742.006 -1.2595 0.947325 0
M  V30 7926 C 742.956 -2.23859 0.432547 0
M  V30 7927 C 743.94 -1.53755 -0.474154 0
M  V30 7928 O 745.132 -1.74293 -0.308397 0
M  V30 7929 C 742.261 -3.42027 -0.295318 0
M  V30 7930 C 741.347 -4.19409 0.62903 0
M  V30 7931 N 741.738 -4.74284 1.7575 0
M  V30 7932 C 740.036 -4.43866 0.435805 0
M  V30 7933 C 740.737 -5.32821 2.33401 0
M  V30 7934 N 739.713 -5.18858 1.62135 0
M  V30 7935 H 743.515 -2.63886 1.29388 0
M  V30 7936 H 741.029 -1.41105 0.80393 0
M  V30 7937 H 743.026 -4.11297 -0.681188 0
M  V30 7938 H 741.686 -3.03526 -1.15334 0
M  V30 7939 H 742.697 -4.71641 2.13952 0
M  V30 7940 H 739.374 -4.15768 -0.37994 0
M  V30 7941 H 740.764 -5.86111 3.28517 0
M  V30 7942 N 743.484 -0.715051 -1.40445 0
M  V30 7943 C 744.895 -0.326763 -1.83818 0
M  V30 7944 C 745.246 1.13851 -1.59789 0
M  V30 7945 O 744.371 1.87611 -1.07848 0
M  V30 7946 C 744.966 -0.586297 -3.33688 0
M  V30 7947 C 743.525 -0.251724 -3.75557 0
M  V30 7948 C 742.672 -0.858928 -2.63662 0
M  V30 7949 H 745.623 -0.914241 -1.2972 0
M  V30 7950 H 745.644 0.148636 -3.8021 0
M  V30 7951 H 745.156 -1.65281 -3.51146 0
M  V30 7952 H 743.257 0.809754 -3.63695 0
M  V30 7953 H 743.37 -0.720348 -4.73654 0
M  V30 7954 H 741.734 -0.287013 -2.53078 0
M  V30 7955 H 742.517 -1.9297 -2.83932 0
M  V30 7956 N 744.962 1.50701 -0.461195 0
M  V30 7957 C 745.925 2.2686 0.326679 0
M  V30 7958 C 746.925 1.31243 0.929085 0
M  V30 7959 O 748.115 1.54754 0.799807 0
M  V30 7960 C 745.247 3.07844 1.46441 0
M  V30 7961 H 746.44 2.97954 -0.341095 0
M  V30 7962 H 743.993 1.54814 -0.214984 0
M  V30 7963 H 744.728 2.41223 2.16753 0
M  V30 7964 H 744.513 3.78101 1.03836 0
M  V30 7965 H 746.003 3.65469 2.02044 0
M  V30 7966 N 746.441 0.193421 1.56409 0
M  V30 7967 C 747.689 -0.444908 1.97142 0
M  V30 7968 C 748.01 -1.62268 1.08139 0
M  V30 7969 O 747.28 -1.95307 0.152326 0
M  V30 7970 H 745.86 -0.16736 0.728011 0
M  V30 7971 H 748.522 0.279763 1.92882 0
M  V30 7972 H 747.618 -0.790159 3.01932 0
M  V30 7973 N 747.919 -1.57396 -0.0801906 0
M  V30 7974 C 748.852 -1.98386 -1.12774 0
M  V30 7975 C 749.83 -0.859423 -1.38031 0
M  V30 7976 O 751.014 -1.12101 -1.51544 0
M  V30 7977 C 748.141 -2.3134 -2.47386 0
M  V30 7978 C 747.187 -3.53706 -2.38316 0
M  V30 7979 S 748.02 -5.04862 -1.78534 0
M  V30 7980 C 749.176 -5.41008 -3.1474 0
M  V30 7981 H 749.409 -2.86929 -0.778382 0
M  V30 7982 H 746.942 -1.51682 -0.28842 0
M  V30 7983 H 748.9 -2.51 -3.24822 0
M  V30 7984 H 747.561 -1.4334 -2.79486 0
M  V30 7985 H 746.754 -3.74253 -3.37566 0
M  V30 7986 H 746.356 -3.33632 -1.69014 0
M  V30 7987 H 748.648 -5.38565 -4.1104 0
M  V30 7988 H 749.591 -6.41885 -2.98981 0
M  V30 7989 H 749.999 -4.68467 -3.14958 0
M  V30 7990 N 749.397 0.351382 -1.53633 0
M  V30 7991 C 750.625 1.11275 -1.74429 0
M  V30 7992 C 751.04 1.82602 -0.479798 0
M  V30 7993 O 750.397 1.74074 0.548125 0
M  V30 7994 C 750.448 2.13223 -2.91921 0
M  V30 7995 O 750.169 1.44798 -4.13479 0
M  V30 7996 C 751.67 3.01797 -3.24706 0
M  V30 7997 H 748.89 0.332153 -0.583023 0
M  V30 7998 H 751.434 0.405974 -2.0043 0
M  V30 7999 H 749.589 2.79477 -2.68274 0
M  V30 8000 H 750.003 2.12839 -4.79374 0
M  V30 8001 H 751.477 3.69282 -4.10286 0
M  V30 8002 H 751.954 3.67387 -2.40673 0
M  V30 8003 H 752.56 2.41141 -3.5033 0
M  V30 8004 N 750.875 1.45233 0.611969 0
M  V30 8005 C 752.105 1.52318 1.39581 0
M  V30 8006 C 752.513 0.153093 1.8858 0
M  V30 8007 O 751.856 -0.854792 1.62601 0
M  V30 8008 C 751.918 2.4426 2.63775 0
M  V30 8009 C 751.582 3.91079 2.36445 0
M  V30 8010 C 752.579 4.81099 1.97079 0
M  V30 8011 C 750.264 4.35958 2.49492 0
M  V30 8012 C 752.258 6.14002 1.71115 0
M  V30 8013 C 749.945 5.68903 2.23142 0
M  V30 8014 C 750.943 6.57744 1.84015 0
M  V30 8015 O 750.631 7.88226 1.5797 0
M  V30 8016 H 750.363 0.518428 0.43383 0
M  V30 8017 H 752.917 1.91067 0.753837 0
M  V30 8018 H 751.147 2.00474 3.30677 0
M  V30 8019 H 752.836 2.42077 3.25812 0
M  V30 8020 H 753.602 4.47692 1.86539 0
M  V30 8021 H 749.481 3.67053 2.78914 0
M  V30 8022 H 753.025 6.83305 1.405 0
M  V30 8023 H 748.922 6.01866 2.33297 0
M  V30 8024 H 749.69 8.00211 1.72058 0
M  V30 8025 N 752.353 -0.854086 1.3245 0
M  V30 8026 C 753.316 -1.94427 1.21371 0
M  V30 8027 C 754.316 -1.60219 0.136613 0
M  V30 8028 O 755.506 -1.69846 0.387057 0
M  V30 8029 C 752.638 -3.29698 0.866701 0
M  V30 8030 H 753.831 -2.05679 2.18257 0
M  V30 8031 H 751.384 -1.04434 1.1629 0
M  V30 8032 H 752.119 -3.24145 -0.100319 0
M  V30 8033 H 751.904 -3.55903 1.64545 0
M  V30 8034 H 753.394 -4.09599 0.813515 0
M  V30 8035 N 753.831 -1.1567 -1.07043 0
M  V30 8036 C 754.794 -0.858906 -2.12498 0
M  V30 8037 C 755.794 0.142735 -1.60165 0
M  V30 8038 O 756.984 -0.0872678 -1.73981 0
M  V30 8039 C 754.116 -0.283021 -3.39723 0
M  V30 8040 H 755.309 -1.79368 -2.40348 0
M  V30 8041 H 752.862 -0.964608 -1.22984 0
M  V30 8042 H 753.597 0.659796 -3.17517 0
M  V30 8043 H 753.382 -1.00467 -3.7901 0
M  V30 8044 H 754.872 -0.0923543 -4.17498 0
M  V30 8045 N 755.309 1.25446 -0.953992 0
M  V30 8046 C 756.257 2.27909 -0.46478 0
M  V30 8047 C 757.251 1.62904 0.464607 0
M  V30 8048 O 758.457 1.76733 0.341407 0
M  V30 8049 H 754.832 0.74036 -0.131798 0
M  V30 8050 H 756.803 2.66559 -1.34122 0
M  V30 8051 C 755.552 3.46853 0.242589 0
M  V30 8052 H 754.875 3.97105 -0.463418 0
M  V30 8053 H 756.315 4.20432 0.548919 0
M  V30 8054 C 754.774 3.03386 1.46487 0
M  V30 8055 O 755.304 3.09342 2.56262 0
M  V30 8056 N 753.51 2.58584 1.32599 0
M  V30 8057 H 753.057 2.53938 0.432834 0
M  V30 8058 H 753.015 2.29866 2.14497 0
M  V30 8059 N 756.787 0.722489 1.40064 0
M  V30 8060 C 758.036 0.261932 1.99992 0
M  V30 8061 C 758.349 -1.15358 1.57961 0
M  V30 8062 O 759.555 -1.71301 2.10637 0
M  V30 8063 C 758.011 0.41737 3.57472 0
M  V30 8064 C 757.619 1.83997 4.08472 0
M  V30 8065 C 759.363 0.0179561 4.24496 0
M  V30 8066 C 757.27 1.94563 5.5848 0
M  V30 8067 H 756.2 0.0941768 0.748095 0
M  V30 8068 H 758.851 0.894572 1.60218 0
M  V30 8069 H 757.233 -0.283965 3.94981 0
M  V30 8070 H 758.407 2.57224 3.82325 0
M  V30 8071 H 756.722 2.19147 3.54067 0
M  V30 8072 H 759.319 0.076085 5.34646 0
M  V30 8073 H 759.662 -1.02498 4.03485 0
M  V30 8074 H 760.195 0.669988 3.92117 0
M  V30 8075 H 756.934 2.97001 5.84355 0
M  V30 8076 H 756.454 1.25756 5.86469 0
M  V30 8077 H 758.133 1.72095 6.23692 0
M  V30 8078 N 758.265 -1.50454 0.469181 0
M  V30 8079 C 759.195 -2.31353 -0.31592 0
M  V30 8080 C 760.176 -1.38172 -0.992094 0
M  V30 8081 O 761.361 -1.67093 -0.989633 0
M  V30 8082 C 758.491 -3.1786 -1.39937 0
M  V30 8083 C 757.445 -4.19578 -0.844909 0
M  V30 8084 C 756.771 -4.9481 -2.0265 0
M  V30 8085 C 758.071 -5.22106 0.142499 0
M  V30 8086 H 759.765 -2.97237 0.359269 0
M  V30 8087 H 757.311 -1.42942 0.174224 0
M  V30 8088 H 759.264 -3.7325 -1.95607 0
M  V30 8089 H 757.988 -2.49858 -2.1033 0
M  V30 8090 H 756.647 -3.65285 -0.310189 0
M  V30 8091 H 756.295 -4.23282 -2.71737 0
M  V30 8092 H 755.995 -5.63613 -1.66174 0
M  V30 8093 H 757.519 -5.53035 -2.58815 0
M  V30 8094 H 758.933 -5.72378 -0.324966 0
M  V30 8095 H 757.33 -5.98618 0.421441 0
M  V30 8096 H 758.4 -4.7297 1.06901 0
M  V30 8097 N 759.743 -0.201713 -1.56304 0
M  V30 8098 C 761.154 0.309711 -1.84113 0
M  V30 8099 C 761.505 1.60912 -1.12258 0
M  V30 8100 O 760.63 2.12937 -0.385587 0
M  V30 8101 C 761.225 0.568706 -3.33993 0
M  V30 8102 C 759.784 1.02448 -3.6219 0
M  V30 8103 C 758.931 0.0766842 -2.77194 0
M  V30 8104 H 761.882 -0.425356 -1.52893 0
M  V30 8105 H 761.903 1.41721 -3.53122 0
M  V30 8106 H 761.415 -0.37719 -3.86263 0
M  V30 8107 H 759.516 1.98443 -3.15359 0
M  V30 8108 H 759.629 0.912619 -4.70328 0
M  V30 8109 H 757.993 0.579809 -2.48013 0
M  V30 8110 H 758.776 -0.863774 -3.32256 0
M  V30 8111 N 761.222 1.57436 0.0718424 0
M  V30 8112 C 762.172 2.00132 1.09229 0
M  V30 8113 C 763.156 0.883379 1.34481 0
M  V30 8114 O 764.348 1.14728 1.34783 0
M  V30 8115 C 761.477 2.44876 2.40605 0
M  V30 8116 C 760.563 3.63405 2.18627 0
M  V30 8117 N 760.954 4.77583 1.66579 0
M  V30 8118 C 759.252 3.69953 2.491 0
M  V30 8119 C 759.953 5.5943 1.59415 0
M  V30 8120 N 758.929 5.03275 2.05464 0
M  V30 8121 H 762.731 2.85849 0.683185 0
M  V30 8122 H 760.245 1.59987 0.278914 0
M  V30 8123 H 762.242 2.73703 3.14471 0
M  V30 8124 H 760.902 1.60546 2.82232 0
M  V30 8125 H 761.913 4.99875 1.35443 0
M  V30 8126 H 758.59 2.96336 2.94094 0
M  V30 8127 H 759.98 6.61093 1.20026 0
M  V30 8128 N 762.7 -0.34323 1.53817 0
M  V30 8129 C 763.65 -1.42217 1.78208 0
M  V30 8130 C 764.634 -1.4774 0.637304 0
M  V30 8131 O 765.826 -1.52605 0.896705 0
M  V30 8132 C 762.955 -2.79354 1.9954 0
M  V30 8133 C 762.041 -2.78222 3.20084 0
M  V30 8134 N 762.432 -2.46719 4.41547 0
M  V30 8135 C 760.73 -3.09368 3.21259 0
M  V30 8136 C 761.431 -2.53828 5.23399 0
M  V30 8137 N 760.407 -2.89464 4.60121 0
M  V30 8138 H 764.209 -1.16759 2.69712 0
M  V30 8139 H 761.723 -0.551592 1.52746 0
M  V30 8140 H 763.72 -3.57095 2.15148 0
M  V30 8141 H 762.38 -3.05759 1.09278 0
M  V30 8142 H 763.391 -2.19912 4.68891 0
M  V30 8143 H 760.068 -3.40942 2.40966 0
M  V30 8144 H 761.458 -2.32629 6.30344 0
M  V30 8145 N 764.178 -1.45556 -0.604258 0
M  V30 8146 C 765.589 -1.44171 -1.18624 0
M  V30 8147 C 765.94 -0.171081 -1.95453 0
M  V30 8148 O 765.065 0.727156 -2.03817 0
M  V30 8149 C 765.66 -2.61193 -2.15786 0
M  V30 8150 C 764.219 -2.62918 -2.69353 0
M  V30 8151 C 763.366 -2.36479 -1.4482 0
M  V30 8152 H 766.317 -1.53747 -0.393381 0
M  V30 8153 H 766.338 -2.35481 -2.98879 0
M  V30 8154 H 765.85 -3.53656 -1.59841 0
M  V30 8155 H 763.951 -1.7447 -3.29228 0
M  V30 8156 H 764.064 -3.6224 -3.13559 0
M  V30 8157 H 762.428 -1.86103 -1.73891 0
M  V30 8158 H 763.211 -3.31091 -0.907376 0
M  V30 8159 N 765.656 0.84705 -1.32902 0
M  V30 8160 C 766.619 1.9378 -1.224 0
M  V30 8161 C 767.619 1.60144 -0.145108 0
M  V30 8162 O 768.809 1.69638 -0.396058 0
M  V30 8163 C 765.941 3.29234 -0.884174 0
M  V30 8164 H 767.134 2.04518 -2.19345 0
M  V30 8165 H 764.687 1.03816 -1.16842 0
M  V30 8166 H 765.422 3.24193 0.0831277 0
M  V30 8167 H 765.207 3.55026 -1.6643 0
M  V30 8168 H 766.697 4.09162 -0.835226 0
M  V30 8169 N 767.134 1.16236 1.06428 0
M  V30 8170 C 768.55 0.906983 1.31324 0
M  V30 8171 C 768.75 -0.440872 1.96618 0
M  V30 8172 O 767.806 -1.1807 2.23194 0
M  V30 8173 C 769.119 2.05501 2.19522 0
M  V30 8174 C 770.667 2.09061 2.32943 0
M  V30 8175 C 771.142 3.23214 3.24495 0
M  V30 8176 N 772.633 3.22922 3.32078 0
M  V30 8177 C 773.368 4.07889 4.03006 0
M  V30 8178 N 772.864 5.02941 4.76469 0
M  V30 8179 N 774.657 3.95881 3.99043 0
M  V30 8180 H 766.808 2.03015 0.624388 0
M  V30 8181 H 769.071 0.88576 0.337835 0
M  V30 8182 H 768.777 3.02847 1.78819 0
M  V30 8183 H 768.651 1.99538 3.201 0
M  V30 8184 H 771.038 1.12308 2.72893 0
M  V30 8185 H 771.119 2.19089 1.32037 0
M  V30 8186 H 770.763 4.20225 2.85261 0
M  V30 8187 H 770.693 3.10423 4.25377 0
M  V30 8188 H 773.184 2.54093 2.79724 0
M  V30 8189 H 773.497 5.64196 5.28112 0
M  V30 8190 H 771.842 5.06922 4.75453 0
M  V30 8191 H 775.033 3.20927 3.40769 0
M  V30 8192 H 775.206 4.62321 4.54052 0
M  V30 8193 N 768.612 -1.24939 0.960631 0
M  V30 8194 C 769.86 -1.92437 0.617441 0
M  V30 8195 C 770.181 -1.75543 -0.849101 0
M  V30 8196 O 769.451 -1.12269 -1.60538 0
M  V30 8197 H 768.031 -0.712192 0.225371 0
M  V30 8198 H 770.693 -1.5198 1.22017 0
M  V30 8199 H 769.789 -3.00247 0.851933 0
M  V30 8200 N 770.09 -0.729906 -1.39679 0
M  V30 8201 C 771.318 -0.285709 -2.04918 0
M  V30 8202 C 771.733 1.07765 -1.55023 0
M  V30 8203 O 771.09 1.67999 -0.712923 0
M  V30 8204 C 771.141 -0.272793 -3.60469 0
M  V30 8205 O 770.862 -1.58233 -4.08527 0
M  V30 8206 C 772.363 0.188199 -4.429 0
M  V30 8207 H 769.583 -0.125758 -0.65911 0
M  V30 8208 H 772.127 -0.992129 -1.78821 0
M  V30 8209 H 770.282 0.384699 -3.85485 0
M  V30 8210 H 770.696 -1.49245 -5.02818 0
M  V30 8211 H 772.17 0.14608 -5.51807 0
M  V30 8212 H 772.647 1.2326 -4.21549 0
M  V30 8213 H 773.253 -0.439541 -4.23023 0
M  V30 8214 N 771.568 1.50203 -0.477153 0
M  V30 8215 C 772.815 2.02358 0.0757385 0
M  V30 8216 C 773.143 1.3587 1.39174 0
M  V30 8217 O 772.398 0.475415 1.89838 0
M  V30 8218 C 772.697 3.56127 0.301325 0
M  V30 8219 C 772.363 4.41126 -0.933725 0
M  V30 8220 C 771.025 4.64075 -1.27233 0
M  V30 8221 C 773.377 4.90737 -1.75576 0
M  V30 8222 C 770.705 5.33878 -2.43292 0
M  V30 8223 C 773.057 5.61816 -2.90768 0
M  V30 8224 C 771.721 5.83016 -3.25036 0
M  V30 8225 H 770.991 0.740482 0.0277147 0
M  V30 8226 H 773.638 1.80754 -0.632467 0
M  V30 8227 H 771.943 3.76279 1.09183 0
M  V30 8228 H 773.64 3.94053 0.743184 0
M  V30 8229 H 770.23 4.23489 -0.659935 0
M  V30 8230 H 774.414 4.72856 -1.50734 0
M  V30 8231 H 769.67 5.48499 -2.70109 0
M  V30 8232 H 773.844 5.99237 -3.54807 0
M  V30 8233 H 771.471 6.36881 -4.15074 0
M  V30 8234 N 773.046 0.209999 1.56195 0
M  V30 8235 C 773.956 -0.716459 2.23392 0
M  V30 8236 C 774.972 -1.22291 1.23778 0
M  V30 8237 O 776.148 -1.26694 1.56558 0
M  V30 8238 C 773.213 -1.91261 2.89172 0
M  V30 8239 C 772.274 -1.44927 4.04097 0
M  V30 8240 C 771.507 -2.5884 4.66731 0
M  V30 8241 O 771.73 -3.76693 4.2832 0
M  V30 8242 O 770.664 -2.30701 5.55932 0
M  V30 8243 H 774.49 -0.174089 3.03201 0
M  V30 8244 H 772.075 -0.0199505 1.49387 0
M  V30 8245 H 773.957 -2.6114 3.30733 0
M  V30 8246 H 772.632 -2.4433 2.12331 0
M  V30 8247 H 771.539 -0.718839 3.67129 0
M  V30 8248 H 772.872 -0.965084 4.82646 0
M  V30 8249 N 774.524 -1.57472 -0.0634922 0
M  V30 8250 C 775.801 -1.78736 -0.794538 0
M  V30 8251 C 776.181 -0.799645 -1.95369 0
M  V30 8252 O 775.529 0.165521 -2.279 0
M  V30 8253 C 775.739 -3.25471 -1.25975 0
M  V30 8254 C 777.087 -3.89528 -1.68976 0
M  V30 8255 O 778.111 -3.29412 -1.35521 0
M  V30 8256 O 776.97 -4.95305 -2.30944 0
M  V30 8257 H 774.064 -0.733813 -0.381376 0
M  V30 8258 H 776.61 -1.69646 -0.0429258 0
M  V30 8259 H 775.382 -3.88922 -0.430721 0
M  V30 8260 H 775.005 -3.39317 -2.07243 0
M  V30 8261 N 776.003 0.335068 -1.53997 0
M  V30 8262 C 777.25 1.07435 -1.71651 0
M  V30 8263 C 777.578 1.88378 -0.48413 0
M  V30 8264 O 776.833 1.8827 0.534139 0
M  V30 8265 C 777.132 2.0364 -2.9371 0
M  V30 8266 C 776.798 1.38942 -4.28959 0
M  V30 8267 C 775.46 1.21027 -4.65732 0
M  V30 8268 C 777.812 0.924083 -5.12943 0
M  V30 8269 C 775.14 0.552097 -5.84097 0
M  V30 8270 C 777.492 0.27978 -6.31981 0
M  V30 8271 C 776.156 0.0883843 -6.67441 0
M  V30 8272 H 775.426 0.393133 -0.628114 0
M  V30 8273 H 778.073 0.352712 -1.88224 0
M  V30 8274 H 776.378 2.82215 -2.71775 0
M  V30 8275 H 778.075 2.6085 -3.04562 0
M  V30 8276 H 774.665 1.53885 -4.00022 0
M  V30 8277 H 778.849 1.05032 -4.85059 0
M  V30 8278 H 774.105 0.392502 -6.10139 0
M  V30 8279 H 778.279 -0.0888479 -6.96343 0
M  V30 8280 H 775.906 -0.423657 -7.59019 0
M  V30 8281 N 777.481 1.45874 0.596531 0
M  V30 8282 C 778.709 1.54013 1.38158 0
M  V30 8283 C 779.124 0.17648 1.87973 0
M  V30 8284 O 778.481 -0.823895 1.62844 0
M  V30 8285 C 778.532 2.53363 2.57855 0
M  V30 8286 O 778.253 3.8443 2.10108 0
M  V30 8287 C 779.754 2.71308 3.50581 0
M  V30 8288 H 776.974 0.521251 0.422538 0
M  V30 8289 H 779.518 1.9116 0.726493 0
M  V30 8290 H 777.673 2.19257 3.19382 0
M  V30 8291 H 778.087 4.38384 2.87958 0
M  V30 8292 H 779.561 3.44776 4.31084 0
M  V30 8293 H 780.038 1.77728 4.01633 0
M  V30 8294 H 780.644 3.06455 2.94899 0
M  V30 8295 N 778.959 -0.83999 1.33349 0
M  V30 8296 C 780.199 -1.60888 1.26073 0
M  V30 8297 C 780.563 -1.91234 -0.17129 0
M  V30 8298 O 781.764 -2.66269 -0.36799 0
M  V30 8299 C 780.035 -2.88438 2.11042 0
M  V30 8300 S 781.594 -3.79116 2.20944 0
M  V30 8301 H 778.412 -0.55166 0.448545 0
M  V30 8302 H 781.014 -0.99359 1.68369 0
M  V30 8303 H 779.718 -2.64113 3.14121 0
M  V30 8304 H 779.249 -3.54974 1.69579 0
M  V30 8305 H 781.264 -4.76921 1.36969 0
M  V30 8306 O 780.476 -1.28535 -0.977803 0
M  V30 8307 H 781.167 -1.08805 -1.60253 0
M  V30 END ATOM
M  V30 BEGIN BOND
M  V30 END BOND
M  V30 END CTAB
M  END
$$$$
