drugbank_target|P78417 Glutathione S-transferase omega-1 (DB00143)
 OpenBabel12092119403D

  0  0  0     0  0            999 V3000
M  V30 BEGIN CTAB
M  V30 COUNTS 3885 3934 0 0 0
M  V30 BEGIN ATOM
M  V30 1 H -0.908 1.98254 -0.117106 0
M  V30 2 N 0 1.576 0 0
M  V30 3 C 0.933 2.03868 1.02534 0
M  V30 4 C 1.911 0.928543 1.3348 0
M  V30 5 O 3.095 1.19667 1.45644 0
M  V30 6 C 0.222 2.43627 2.35294 0
M  V30 7 C -0.732 3.65373 2.2001 0
M  V30 8 S 0.101 5.13292 1.52614 0
M  V30 9 C 1.257 5.56322 2.86805 0
M  V30 10 H 1.49 2.90518 0.631377 0
M  V30 11 H -0.977 1.52953 0.210867 0
M  V30 12 H 0.981 2.67203 3.11629 0
M  V30 13 H -0.358 1.57376 2.7183 0
M  V30 14 H -1.165 3.90944 3.18086 0
M  V30 15 H -1.563 3.418 1.51819 0
M  V30 16 H 0.729 5.58782 3.83104 0
M  V30 17 H 1.672 6.56266 2.65933 0
M  V30 18 H 2.08 4.83886 2.90714 0
M  V30 19 N 1.4781 -0.272755 1.55222 0
M  V30 20 C 2.7031 -1.02683 1.80197 0
M  V30 21 C 3.1281 -1.79142 0.573551 0
M  V30 22 O 2.4861 -1.74917 -0.476849 0
M  V30 23 C 2.5341 -1.9609 3.02624 0
M  V30 24 O 1.6381 -3.04863 2.77727 0
M  V30 25 H 0.9791 -0.293557 0.595584 0
M  V30 26 H 3.5091 -0.30159 2.02365 0
M  V30 27 H 3.5191 -2.38039 3.31363 0
M  V30 28 H 2.1941 -1.39851 3.91682 0
M  V30 29 H 0.7711 -2.67228 2.60084 0
M  V30 30 N 2.9562 -1.48159 -0.537278 0
M  V30 31 C 4.2042 -1.55497 -1.29094 0
M  V30 32 C 4.5252 -0.227454 -1.93669 0
M  V30 33 O 3.7952 0.750386 -1.80959 0
M  V30 34 H 2.3752 -0.572832 -0.47945 0
M  V30 35 H 5.0372 -1.84579 -0.625818 0
M  V30 36 H 4.1332 -2.33216 -2.07405 0
M  V30 37 N 4.4343 0.785586 -1.36625 0
M  V30 38 C 5.3443 1.92964 -1.33425 0
M  V30 39 C 6.3603 1.72394 -0.235851 0
M  V30 40 O 7.5363 1.95866 -0.468878 0
M  V30 41 C 4.6013 3.27884 -1.12662 0
M  V30 42 C 3.6623 3.61204 -2.32013 0
M  V30 43 C 2.8953 4.89687 -2.12231 0
M  V30 44 O 3.1183 5.59704 -1.09945 0
M  V30 45 O 2.0523 5.21752 -3.00098 0
M  V30 46 H 5.8783 1.98613 -2.29753 0
M  V30 47 H 3.4633 0.926384 -1.17211 0
M  V30 48 H 5.3453 4.08614 -1.03016 0
M  V30 49 H 4.0203 3.23118 -0.193991 0
M  V30 50 H 2.9273 2.80765 -2.47228 0
M  V30 51 H 4.2603 3.70698 -3.23796 0
M  V30 52 N 5.9124 1.20967 1.01018 0
M  V30 53 C 7.1374 1.0503 1.78839 0
M  V30 54 C 7.5624 -0.395752 1.8389 0
M  V30 55 O 6.9204 -1.28529 1.27867 0
M  V30 56 C 6.9684 1.64602 3.2084 0
M  V30 57 O 6.0724 0.887988 4.02726 0
M  V30 58 H 5.4134 0.369987 0.551367 0
M  V30 59 H 7.9434 1.60399 1.27018 0
M  V30 60 H 7.9534 1.68607 3.71532 0
M  V30 61 H 6.6284 2.69841 3.16479 0
M  V30 62 H 5.2054 0.922648 3.61305 0
M  V30 63 N 7.3905 -1.2043 1.01659 0
M  V30 64 C 8.3535 -2.21433 0.591616 0
M  V30 65 C 9.3535 -1.57203 -0.338226 0
M  V30 66 O 10.5435 -1.73737 -0.126918 0
M  V30 67 C 7.6755 -3.40628 -0.136058 0
M  V30 68 H 8.8685 -2.60545 1.48514 0
M  V30 69 H 6.4215 -1.33893 0.806379 0
M  V30 70 H 7.1565 -3.07019 -1.04449 0
M  V30 71 H 6.9415 -3.88475 0.531917 0
M  V30 72 H 8.4315 -4.15475 -0.420735 0
M  V30 73 N 8.8686 -0.792821 -1.36206 0
M  V30 74 C 10.2846 -0.474903 -1.52371 0
M  V30 75 C 10.4846 1.00622 -1.74578 0
M  V30 76 O 9.5406 1.79162 -1.77924 0
M  V30 77 C 10.8536 -1.3083 -2.70747 0
M  V30 78 C 12.4016 -1.30234 -2.84619 0
M  V30 79 C 12.8766 -2.11956 -4.06004 0
M  V30 80 N 14.3676 -2.09419 -4.13156 0
M  V30 81 C 15.1026 -2.69419 -5.06163 0
M  V30 82 N 14.5986 -3.3829 -6.04592 0
M  V30 83 N 16.3916 -2.59134 -4.98804 0
M  V30 84 H 8.5426 -1.75222 -1.20046 0
M  V30 85 H 10.8056 -0.745024 -0.586211 0
M  V30 86 H 10.5116 -2.35881 -2.6087 0
M  V30 87 H 10.3856 -0.95196 -3.6499 0
M  V30 88 H 12.7726 -0.259748 -2.93955 0
M  V30 89 H 12.8536 -1.69847 -1.91274 0
M  V30 90 H 12.4976 -3.16248 -3.97429 0
M  V30 91 H 12.4276 -1.69711 -4.98503 0
M  V30 92 H 14.9186 -1.59297 -3.42685 0
M  V30 93 H 15.2316 -3.81394 -6.7213 0
M  V30 94 H 13.5766 -3.42393 -6.04807 0
M  V30 95 H 16.7676 -2.04927 -4.20859 0
M  V30 96 H 16.9406 -3.06185 -5.711 0
M  V30 97 N 10.3467 1.47872 -0.545128 0
M  V30 98 C 11.5717 2.07391 -0.0190611 0
M  V30 99 C 11.9967 1.39688 1.25971 0
M  V30 100 O 11.3547 0.467816 1.7516 0
M  V30 101 C 11.4027 3.60188 0.172335 0
M  V30 102 O 10.5067 3.9339 1.23766 0
M  V30 103 H 9.8477 0.662411 -0.0459059 0
M  V30 104 H 12.3777 1.90066 -0.757365 0
M  V30 105 H 12.3877 4.06129 0.390305 0
M  V30 106 H 11.0627 4.08865 -0.761725 0
M  V30 107 H 9.6397 3.5921 1.00114 0
M  V30 108 N 11.8248 0.280983 1.55075 0
M  V30 109 C 12.7548 -0.597469 2.25727 0
M  V30 110 C 13.7358 -1.15417 1.24952 0
M  V30 111 O 14.9208 -1.18722 1.53684 0
M  V30 112 C 12.0508 -1.7789 2.98283 0
M  V30 113 C 11.0048 -1.35347 4.06036 0
M  V30 114 C 10.3308 -2.61846 4.66198 0
M  V30 115 C 11.6308 -0.499354 5.19907 0
M  V30 116 H 13.3248 -0.00824265 2.99399 0
M  V30 117 H 10.8708 -0.0025244 1.44 0
M  V30 118 H 12.8238 -2.39937 3.46422 0
M  V30 119 H 11.5478 -2.39405 2.22155 0
M  V30 120 H 10.2068 -0.756156 3.58717 0
M  V30 121 H 9.8548 -3.21632 3.86732 0
M  V30 122 H 9.5548 -2.3409 5.38958 0
M  V30 123 H 11.0788 -3.24732 5.1709 0
M  V30 124 H 12.4928 -1.02498 5.64063 0
M  V30 125 H 10.8898 -0.316424 5.99265 0
M  V30 126 H 11.9598 0.480459 4.82514 0
M  V30 127 N 13.3029 -1.57598 0.00835791 0
M  V30 128 C 14.5509 -1.90551 -0.6734 0
M  V30 129 C 14.8719 -0.883301 -1.73847 0
M  V30 130 O 14.1419 0.0781442 -1.95744 0
M  V30 131 H 12.7219 -0.703312 -0.251717 0
M  V30 132 H 15.3839 -1.94833 0.0512592 0
M  V30 133 H 14.4799 -2.9056 -1.13935 0
M  V30 134 N 14.781 0.264519 -1.55364 0
M  V30 135 C 15.728 1.32717 -1.88825 0
M  V30 136 C 16.698 1.48675 -0.740605 0
M  V30 137 O 17.883 1.62945 -0.992657 0
M  V30 138 C 15.023 2.68089 -2.17307 0
M  V30 139 C 14.136 2.60284 -3.44785 0
M  V30 140 C 13.271 3.87892 -3.62924 0
M  V30 141 C 12.31 3.74631 -4.84064 0
M  V30 142 N 11.447 4.94092 -4.98816 0
M  V30 143 H 16.287 1.03481 -2.79456 0
M  V30 144 H 13.824 0.499757 -1.3835 0
M  V30 145 H 15.782 3.46864 -2.31821 0
M  V30 146 H 14.412 2.95509 -1.299 0
M  V30 147 H 13.464 1.73173 -3.38697 0
M  V30 148 H 14.776 2.46388 -4.33698 0
M  V30 149 H 13.93 4.75109 -3.77302 0
M  V30 150 H 12.669 4.04664 -2.7221 0
M  V30 151 H 11.674 2.85797 -4.69681 0
M  V30 152 H 12.899 3.5937 -5.76221 0
M  V30 153 H 10.845 5.11259 -4.11036 0
M  V30 154 H 10.762 4.8276 -5.81789 0
M  V30 155 H 12.03 5.82857 -5.17588 0
M  V30 156 N 16.2591 1.48442 0.529413 0
M  V30 157 C 17.5071 1.56179 1.28267 0
M  V30 158 C 17.8281 0.237721 1.93546 0
M  V30 159 O 17.0981 -0.740779 1.81354 0
M  V30 160 H 15.6781 0.575367 0.476405 0
M  V30 161 H 18.3401 1.84909 0.61602 0
M  V30 162 H 17.4361 2.34312 2.06165 0
M  V30 163 N 17.7372 -0.778329 1.37039 0
M  V30 164 C 18.9622 -1.57248 1.35233 0
M  V30 165 C 19.3872 -1.87999 -0.0615568 0
M  V30 166 O 18.7452 -1.48734 -1.03672 0
M  V30 167 C 18.7932 -2.86353 2.19167 0
M  V30 168 O 17.8972 -3.80442 1.59178 0
M  V30 169 H 17.2382 -0.476569 0.462362 0
M  V30 170 H 19.7682 -0.963853 1.80474 0
M  V30 171 H 19.7782 -3.35519 2.32145 0
M  V30 172 H 18.4532 -2.63299 3.21942 0
M  V30 173 H 17.0302 -3.39067 1.55203 0
M  V30 174 N 19.2153 -1.21501 -1.00376 0
M  V30 175 C 20.1783 -0.976927 -2.07337 0
M  V30 176 C 21.1783 0.0525322 -1.60714 0
M  V30 177 O 22.3683 -0.184869 -1.73216 0
M  V30 178 C 19.5003 -0.473423 -3.37597 0
M  V30 179 H 20.6933 -1.92587 -2.29892 0
M  V30 180 H 18.2463 -1.03217 -1.17371 0
M  V30 181 H 18.9813 0.480379 -3.20722 0
M  V30 182 H 18.7663 -1.216 -3.72768 0
M  V30 183 H 20.2563 -0.32675 -4.1632 0
M  V30 184 N 20.6934 1.19889 -1.02296 0
M  V30 185 C 22.1044 1.71124 -0.746568 0
M  V30 186 C 22.4554 1.81939 0.734335 0
M  V30 187 O 21.5804 1.48639 1.57275 0
M  V30 188 C 22.1754 3.10804 -1.34857 0
M  V30 189 C 20.7344 3.59323 -1.1209 0
M  V30 190 C 19.8814 2.3635 -1.45031 0
M  V30 191 H 22.8324 1.04813 -1.19163 0
M  V30 192 H 22.8534 3.73186 -0.742437 0
M  V30 193 H 22.3654 3.029 -2.42638 0
M  V30 194 H 20.4664 3.7255 -0.0610337 0
M  V30 195 H 20.5794 4.4378 -1.80544 0
M  V30 196 H 18.9434 2.39399 -0.869487 0
M  V30 197 H 19.7264 2.31081 -2.53883 0
M  V30 198 N 22.1715 0.800033 1.35784 0
M  V30 199 C 23.5825 0.439142 1.81462 0
M  V30 200 C 23.9335 -1.03813 1.66485 0
M  V30 201 O 23.0585 -1.80626 1.19177 0
M  V30 202 C 23.6535 0.790314 3.29453 0
M  V30 203 C 22.2125 0.482111 3.733 0
M  V30 204 C 21.3595 1.01938 2.57883 0
M  V30 205 H 24.3105 0.992254 1.23855 0
M  V30 206 H 24.3315 0.0853677 3.80404 0
M  V30 207 H 23.8435 1.86554 3.40322 0
M  V30 208 H 21.9445 -0.584652 3.67984 0
M  V30 209 H 22.0575 1.01015 4.6833 0
M  V30 210 H 20.4215 0.442043 2.50835 0
M  V30 211 H 21.2045 2.10059 2.71533 0
M  V30 212 N 23.6496 -1.47581 0.552962 0
M  V30 213 C 24.8976 -2.02082 0.0272703 0
M  V30 214 C 25.2186 -1.4301 -1.32563 0
M  V30 215 O 24.4886 -0.603745 -1.86365 0
M  V30 216 H 23.0686 -0.746966 0.00709182 0
M  V30 217 H 25.7306 -1.81033 0.722008 0
M  V30 218 H 24.8266 -3.12034 -0.0639951 0
M  V30 219 N 25.1277 -0.289203 -1.54924 0
M  V30 220 C 26.5387 0.205791 -1.85562 0
M  V30 221 C 26.8897 1.54351 -1.2112 0
M  V30 222 O 26.0147 2.10435 -0.504601 0
M  V30 223 C 26.6097 0.380177 -3.3666 0
M  V30 224 C 25.1687 0.819395 -3.67373 0
M  V30 225 C 24.3157 -0.079159 -2.77187 0
M  V30 226 H 27.2667 -0.510577 -1.50262 0
M  V30 227 H 27.2877 1.21659 -3.60526 0
M  V30 228 H 26.7997 -0.593589 -3.83534 0
M  V30 229 H 24.9007 1.80413 -3.26009 0
M  V30 230 H 25.0137 0.646957 -4.74712 0
M  V30 231 H 23.3777 0.439565 -2.50878 0
M  V30 232 H 24.1607 -1.04906 -3.26878 0
M  V30 233 N 26.6058 1.57591 -0.0167156 0
M  V30 234 C 27.8518 1.91567 0.665582 0
M  V30 235 C 28.1848 0.892298 1.72487 0
M  V30 236 O 27.4598 -0.0867127 1.94307 0
M  V30 237 C 27.7428 3.36069 1.29342 0
M  V30 238 C 27.5958 4.49135 0.244541 0
M  V30 239 C 28.9148 3.803 2.21495 0
M  V30 240 H 26.0338 0.69666 0.240488 0
M  V30 241 H 28.6758 1.89866 -0.0714356 0
M  V30 242 H 26.8258 3.3765 1.92158 0
M  V30 243 H 28.4978 4.59689 -0.385228 0
M  V30 244 H 26.7408 4.3165 -0.431379 0
M  V30 245 H 27.4118 5.47242 0.723207 0
M  V30 246 H 29.8878 3.80377 1.68678 0
M  V30 247 H 28.7638 4.82127 2.62382 0
M  V30 248 H 29.0248 3.15104 3.101 0
M  V30 249 N 28.0839 -0.256276 1.55502 0
M  V30 250 C 29.4949 -0.826068 1.67431 0
M  V30 251 C 29.8459 -1.86396 0.612446 0
M  V30 252 O 28.9709 -2.15031 -0.243025 0
M  V30 253 C 29.5659 -1.50512 3.03532 0
M  V30 254 C 28.1249 -2.02273 3.17431 0
M  V30 255 C 27.2719 -0.870548 2.63281 0
M  V30 256 H 30.2229 -0.0322728 1.58667 0
M  V30 257 H 30.2439 -2.37279 2.97454 0
M  V30 258 H 29.7559 -0.749484 3.80794 0
M  V30 259 H 27.8569 -2.80746 2.44974 0
M  V30 260 H 27.9699 -2.22655 4.24219 0
M  V30 261 H 26.3339 -1.26851 2.20864 0
M  V30 262 H 27.1169 -0.128149 3.43061 0
M  V30 263 N 29.562 -1.4872 -0.521534 0
M  V30 264 C 30.472 -1.66569 -1.65203 0
M  V30 265 C 31.488 -0.548197 -1.65139 0
M  V30 266 O 32.664 -0.820339 -1.83936 0
M  V30 267 C 29.729 -1.70917 -3.01642 0
M  V30 268 C 28.79 -2.94356 -3.12495 0
M  V30 269 C 28.023 -2.98487 -4.42426 0
M  V30 270 O 28.246 -2.10786 -5.30024 0
M  V30 271 O 27.18 -3.90746 -4.57822 0
M  V30 272 H 31.006 -2.62298 -1.5308 0
M  V30 273 H 28.591 -1.3222 -0.695565 0
M  V30 274 H 30.473 -1.7625 -3.82771 0
M  V30 275 H 29.148 -0.783633 -3.14071 0
M  V30 276 H 28.055 -2.94552 -2.3063 0
M  V30 277 H 29.388 -3.86322 -3.04986 0
M  V30 278 N 31.0401 0.771051 -1.3745 0
M  V30 279 C 32.2881 1.52661 -1.32435 0
M  V30 280 C 32.6091 1.9479 0.0905024 0
M  V30 281 O 31.8791 1.66348 1.03466 0
M  V30 282 H 30.4591 0.566218 -0.487244 0
M  V30 283 H 33.1211 0.917636 -1.71946 0
M  V30 284 H 32.2171 2.42568 -1.96385 0
M  V30 285 N 32.5182 1.22032 0.997298 0
M  V30 286 C 33.7432 1.06921 1.77715 0
M  V30 287 C 34.1682 -0.376226 1.84299 0
M  V30 288 O 33.5262 -1.27165 1.29223 0
M  V30 289 C 33.5742 1.67996 3.19076 0
M  V30 290 O 32.6782 0.930653 4.01762 0
M  V30 291 H 32.0192 0.375814 0.547412 0
M  V30 292 H 34.5492 1.61737 1.25309 0
M  V30 293 H 34.5592 1.72538 3.69723 0
M  V30 294 H 33.2342 2.73182 3.13599 0
M  V30 295 H 31.8112 0.960917 3.60307 0
M  V30 296 N 33.9963 -1.19345 1.0293 0
M  V30 297 C 35.2453 -1.88363 0.721256 0
M  V30 298 C 35.5583 -1.80514 -0.753254 0
M  V30 299 O 36.7643 -2.44788 -1.17436 0
M  V30 300 C 35.2203 -3.37872 1.23978 0
M  V30 301 C 34.8283 -3.54278 2.74211 0
M  V30 302 C 36.5723 -4.12365 1.00775 0
M  V30 303 C 34.4793 -4.97682 3.19479 0
M  V30 304 H 33.4093 -0.705484 0.266098 0
M  V30 305 H 36.0603 -1.34928 1.24365 0
M  V30 306 H 34.4423 -3.90707 0.6453 0
M  V30 307 H 35.6163 -3.11769 3.39318 0
M  V30 308 H 33.9313 -2.93174 2.95699 0
M  V30 309 H 36.5283 -5.18119 1.32123 0
M  V30 310 H 36.8713 -4.16263 -0.0554308 0
M  V30 311 H 37.4043 -3.65668 1.56625 0
M  V30 312 H 34.1433 -4.98945 4.25128 0
M  V30 313 H 33.6633 -5.4095 2.591 0
M  V30 314 H 35.3423 -5.66337 3.12845 0
M  V30 315 N 35.4744 -0.807222 -1.35358 0
M  V30 316 C 36.8904 -0.491038 -1.51858 0
M  V30 317 C 37.0904 0.987648 -1.75635 0
M  V30 318 O 36.1464 1.77265 -1.79815 0
M  V30 319 C 37.4594 -1.33695 -2.69344 0
M  V30 320 C 39.0074 -1.33246 -2.83222 0
M  V30 321 C 39.4824 -2.1625 -4.03733 0
M  V30 322 N 40.9734 -2.1379 -4.10911 0
M  V30 323 C 41.7084 -2.74772 -5.03277 0
M  V30 324 N 41.2044 -3.44684 -6.0097 0
M  V30 325 N 42.9974 -2.6441 -4.96028 0
M  V30 326 H 35.1484 -1.76485 -1.18181 0
M  V30 327 H 37.4114 -0.751199 -0.578276 0
M  V30 328 H 37.1174 -2.38634 -2.58354 0
M  V30 329 H 36.9914 -0.990618 -3.6396 0
M  V30 330 H 39.3784 -0.290911 -2.93663 0
M  V30 331 H 39.4594 -1.71866 -1.89461 0
M  V30 332 H 39.1034 -3.20445 -3.94052 0
M  V30 333 H 39.0334 -1.74989 -4.96675 0
M  V30 334 H 41.5244 -1.62923 -3.40976 0
M  V30 335 H 41.8374 -3.88501 -6.68047 0
M  V30 336 H 40.1824 -3.48788 -6.01142 0
M  V30 337 H 43.3734 -2.0938 -4.18662 0
M  V30 338 H 43.5464 -3.12225 -5.6782 0
M  V30 339 N 36.9525 1.47285 -0.560781 0
M  V30 340 C 38.2015 2.01668 -0.035895 0
M  V30 341 C 38.5145 1.44021 1.32353 0
M  V30 342 O 39.7205 1.90088 1.93853 0
M  V30 343 C 38.1765 3.59897 -0.0136659 0
M  V30 344 C 37.7845 4.26536 -1.37006 0
M  V30 345 C 39.5285 4.22017 0.458425 0
M  V30 346 C 37.4355 5.76782 -1.30675 0
M  V30 347 H 36.3655 0.753938 -0.00964879 0
M  V30 348 H 39.0165 1.69243 -0.709166 0
M  V30 349 H 37.3985 3.89301 0.725325 0
M  V30 350 H 38.5725 4.0877 -2.12705 0
M  V30 351 H 36.8875 3.76419 -1.78038 0
M  V30 352 H 39.4845 5.32124 0.524247 0
M  V30 353 H 39.8275 3.89437 1.4712 0
M  V30 354 H 40.3605 3.97159 -0.225818 0
M  V30 355 H 37.0995 6.13988 -2.29564 0
M  V30 356 H 36.6195 5.96875 -0.591622 0
M  V30 357 H 38.2985 6.39063 -1.01033 0
M  V30 358 N 38.4306 0.297415 1.54768 0
M  V30 359 C 39.6606 -0.315165 2.04182 0
M  V30 360 C 40.0686 -1.4834 1.17439 0
M  V30 361 O 39.4116 -1.82695 0.191891 0
M  V30 362 C 39.4736 -0.837583 3.49607 0
M  V30 363 C 39.1376 0.204912 4.5654 0
M  V30 364 C 40.1346 1.03214 5.09552 0
M  V30 365 C 37.8196 0.345578 5.0111 0
M  V30 366 C 39.8136 1.986 6.05671 0
M  V30 367 C 37.5006 1.30289 5.97049 0
M  V30 368 C 38.4986 2.12159 6.49213 0
M  V30 369 O 38.1866 3.06268 7.43273 0
M  V30 370 H 37.9186 -0.0729646 0.672051 0
M  V30 371 H 40.4726 0.433907 2.00765 0
M  V30 372 H 38.7026 -1.63712 3.50336 0
M  V30 373 H 40.3916 -1.36566 3.82236 0
M  V30 374 H 41.1576 0.934312 4.75916 0
M  V30 375 H 37.0366 -0.28171 4.60138 0
M  V30 376 H 40.5806 2.62542 6.46311 0
M  V30 377 H 36.4776 1.40145 6.30103 0
M  V30 378 H 37.2456 3.01205 7.61064 0
M  V30 379 N 39.9087 -1.5758 0.0250728 0
M  V30 380 C 41.1337 -1.96337 -0.668317 0
M  V30 381 C 41.5587 -0.901314 -1.651 0
M  V30 382 O 40.9167 0.138187 -1.80773 0
M  V30 383 C 40.9647 -3.34191 -1.35457 0
M  V30 384 O 40.0687 -3.30269 -2.46974 0
M  V30 385 H 39.4097 -0.640281 -0.175887 0
M  V30 386 H 41.9397 -2.0442 0.0857224 0
M  V30 387 H 41.9497 -3.70331 -1.71228 0
M  V30 388 H 40.6247 -4.11036 -0.634218 0
M  V30 389 H 39.2017 -3.05841 -2.13344 0
M  V30 390 N 41.3868 0.248026 -1.55636 0
M  V30 391 C 42.3198 1.3334 -1.85191 0
M  V30 392 C 43.2978 1.46429 -0.706906 0
M  V30 393 O 44.4818 1.62662 -0.952544 0
M  V30 394 C 41.6088 2.70703 -2.03562 0
M  V30 395 C 40.6548 2.7477 -3.26196 0
M  V30 396 S 41.4878 2.31493 -4.82878 0
M  V30 397 C 42.6438 3.70783 -5.04253 0
M  V30 398 H 42.8768 1.08072 -2.76962 0
M  V30 399 H 40.4098 0.448952 -1.47729 0
M  V30 400 H 42.3678 3.49798 -2.1483 0
M  V30 401 H 41.0288 2.9321 -1.12635 0
M  V30 402 H 40.2218 3.75648 -3.36013 0
M  V30 403 H 39.8238 2.03719 -3.13647 0
M  V30 404 H 42.1158 4.6627 -4.91527 0
M  V30 405 H 43.0588 3.65901 -6.06236 0
M  V30 406 H 43.4668 3.63244 -4.32105 0
M  V30 407 N 42.8649 1.48995 0.513639 0
M  V30 408 C 44.2809 1.35478 0.843682 0
M  V30 409 C 44.4809 0.378213 1.97919 0
M  V30 410 O 43.5369 -0.194689 2.51748 0
M  V30 411 C 44.8499 2.75901 1.1958 0
M  V30 412 C 46.3979 2.84509 1.30474 0
M  V30 413 C 46.8729 4.25671 1.69021 0
M  V30 414 N 48.3639 4.28422 1.76094 0
M  V30 415 C 49.0989 5.34601 2.07338 0
M  V30 416 N 48.5949 6.5104 2.36894 0
M  V30 417 N 50.3879 5.22007 2.08483 0
M  V30 418 H 42.5389 2.11092 -0.235328 0
M  V30 419 H 44.8019 0.947039 -0.0426669 0
M  V30 420 H 44.5079 3.49001 0.434913 0
M  V30 421 H 44.3819 3.10467 2.1422 0
M  V30 422 H 46.7689 2.11655 2.05637 0
M  V30 423 H 46.8499 2.53542 0.339155 0
M  V30 424 H 46.4939 4.99048 0.944135 0
M  V30 425 H 46.4239 4.54094 2.66658 0
M  V30 426 H 48.9149 3.44441 1.55464 0
M  V30 427 H 49.2279 7.2779 2.59887 0
M  V30 428 H 47.5729 6.54287 2.34378 0
M  V30 429 H 50.7639 4.30051 1.84861 0
M  V30 430 H 50.9369 6.04854 2.325 0
M  V30 431 N 44.343 -0.763751 1.37857 0
M  V30 432 C 45.59 -1.52257 1.33506 0
M  V30 433 C 45.918 -1.94343 -0.078022 0
M  V30 434 O 45.173 -1.64958 -1.05297 0
M  V30 435 C 45.472 -2.79499 2.22745 0
M  V30 436 C 45.138 -2.56426 3.70886 0
M  V30 437 C 43.8 -2.49842 4.11257 0
M  V30 438 C 46.152 -2.36008 4.64704 0
M  V30 439 C 43.48 -2.20841 5.43549 0
M  V30 440 C 45.832 -2.0853 5.97242 0
M  V30 441 C 44.496 -2.00396 6.36709 0
M  V30 442 H 43.766 -0.557149 0.488534 0
M  V30 443 H 46.413 -0.879073 1.70131 0
M  V30 444 H 44.718 -3.48447 1.79142 0
M  V30 445 H 46.415 -3.37413 2.16688 0
M  V30 446 H 43.005 -2.62416 3.38874 0
M  V30 447 H 47.189 -2.40079 4.34368 0
M  V30 448 H 42.445 -2.13045 5.73081 0
M  V30 449 H 46.619 -1.91732 6.69486 0
M  V30 450 H 44.246 -1.77688 7.39142 0
M  V30 451 N 45.8211 -1.22559 -0.990812 0
M  V30 452 C 47.0611 -1.06302 -1.74583 0
M  V30 453 C 47.4251 0.394737 -1.87898 0
M  V30 454 O 48.6261 0.678214 -2.60103 0
M  V30 455 C 46.8971 -1.75699 -3.11231 0
M  V30 456 S 48.4561 -1.74882 -4.02445 0
M  V30 457 H 45.2741 -0.380639 -0.600529 0
M  V30 458 H 47.8761 -1.55532 -1.18449 0
M  V30 459 H 46.5801 -2.80923 -2.99183 0
M  V30 460 H 46.1111 -1.26708 -3.72436 0
M  V30 461 H 48.1261 -0.799997 -4.89709 0
M  V30 462 N 47.2992 1.18797 -1.03562 0
M  V30 463 C 48.7102 1.70322 -0.764676 0
M  V30 464 C 49.0612 1.82708 0.714996 0
M  V30 465 O 48.1862 1.50299 1.55689 0
M  V30 466 C 48.7812 3.09356 -1.38145 0
M  V30 467 C 47.3402 3.58114 -1.15895 0
M  V30 468 C 46.4872 2.34798 -1.4753 0
M  V30 469 H 49.4382 1.03543 -1.20268 0
M  V30 470 H 49.4592 3.72378 -0.781977 0
M  V30 471 H 48.9712 3.00309 -2.45837 0
M  V30 472 H 47.0722 3.72464 -0.100544 0
M  V30 473 H 47.1852 4.4184 -1.8524 0
M  V30 474 H 45.5492 2.38464 -0.894829 0
M  V30 475 H 46.3322 2.28375 -2.56319 0
M  V30 476 N 48.7773 0.814389 1.34928 0
M  V30 477 C 50.0243 0.398423 1.98542 0
M  V30 478 C 50.3523 -1.03638 1.64589 0
M  V30 479 O 49.6073 -1.73509 0.90516 0
M  V30 480 C 49.9063 0.537781 3.53331 0
M  V30 481 C 49.5723 1.93704 4.07172 0
M  V30 482 C 48.2343 2.31984 4.21589 0
M  V30 483 C 50.5863 2.85213 4.36237 0
M  V30 484 C 47.9143 3.61125 4.62391 0
M  V30 485 C 50.2663 4.13809 4.78482 0
M  V30 486 C 48.9303 4.52077 4.91104 0
M  V30 487 H 48.2003 0.145793 0.726516 0
M  V30 488 H 50.8473 1.03669 1.61012 0
M  V30 489 H 49.1523 -0.183906 3.91368 0
M  V30 490 H 50.8493 0.196588 4.00518 0
M  V30 491 H 47.4393 1.62966 3.96409 0
M  V30 492 H 51.6233 2.56885 4.24645 0
M  V30 493 H 46.8793 3.90612 4.70353 0
M  V30 494 H 51.0533 4.84811 4.99932 0
M  V30 495 H 48.6803 5.52196 5.22478 0
M  V30 496 N 50.2554 -1.46986 0.568584 0
M  V30 497 C 51.2184 -2.28624 -0.162366 0
M  V30 498 C 52.2184 -1.37596 -0.832103 0
M  V30 499 O 53.4084 -1.60115 -0.68622 0
M  V30 500 C 50.5404 -3.17596 -1.23878 0
M  V30 501 H 51.7334 -2.94722 0.554899 0
M  V30 502 H 49.2864 -1.52863 0.325976 0
M  V30 503 H 50.0214 -2.56214 -1.98808 0
M  V30 504 H 49.8064 -3.846 -0.763219 0
M  V30 505 H 51.2964 -3.79078 -1.75185 0
M  V30 506 N 51.7335 -0.305618 -1.54608 0
M  V30 507 C 52.6435 0.57778 -2.27374 0
M  V30 508 C 53.6595 1.14451 -1.31061 0
M  V30 509 O 54.8355 1.16831 -1.6405 0
M  V30 510 C 51.9005 1.73123 -3.00382 0
M  V30 511 C 50.9615 1.19812 -4.12242 0
M  V30 512 C 50.1945 2.2966 -4.81759 0
M  V30 513 O 50.4175 3.49651 -4.50666 0
M  V30 514 O 49.3515 1.96091 -5.69062 0
M  V30 515 H 53.1775 -0.012624 -3.03697 0
M  V30 516 H 50.7625 -0.0719184 -1.49227 0
M  V30 517 H 52.6445 2.40315 -3.4616 0
M  V30 518 H 51.3195 2.30815 -2.26949 0
M  V30 519 H 50.2265 0.491798 -3.70853 0
M  V30 520 H 51.5595 0.666566 -4.87666 0
M  V30 521 N 53.2116 1.57565 -0.0334293 0
M  V30 522 C 54.6276 1.56297 0.322997 0
M  V30 523 C 54.8276 1.03945 1.7262 0
M  V30 524 O 53.8836 0.688109 2.42943 0
M  V30 525 C 55.1966 3.00232 0.167664 0
M  V30 526 C 56.7446 3.12078 0.240107 0
M  V30 527 C 57.2196 4.57859 0.113513 0
M  V30 528 N 58.7106 4.62887 0.170359 0
M  V30 529 C 59.4456 5.73319 0.0962517 0
M  V30 530 N 58.9416 6.92794 -0.0291881 0
M  V30 531 N 60.7346 5.61898 0.150551 0
M  V30 532 H 52.8856 1.89923 -0.950956 0
M  V30 533 H 55.1486 0.873824 -0.367608 0
M  V30 534 H 54.8546 3.42501 -0.799102 0
M  V30 535 H 54.7286 3.654 0.936083 0
M  V30 536 H 57.1156 2.69718 1.19733 0
M  V30 537 H 57.1966 2.49623 -0.558763 0
M  V30 538 H 56.8406 5.009 -0.840314 0
M  V30 539 H 56.7706 5.18299 0.931302 0
M  V30 540 H 59.2616 3.76954 0.26728 0
M  V30 541 H 59.5746 7.7276 -0.0789252 0
M  V30 542 H 57.9196 6.94971 -0.0640299 0
M  V30 543 H 61.1106 4.67448 0.246981 0
M  V30 544 H 61.2836 6.47938 0.0893365 0
M  V30 545 N 54.6897 -0.239769 1.55765 0
M  V30 546 C 55.9177 -0.98417 1.81994 0
M  V30 547 C 56.3327 -1.7867 0.610124 0
M  V30 548 O 55.6897 -1.77571 -0.421271 0
M  V30 549 C 55.7407 -1.91635 3.06526 0
M  V30 550 O 55.4617 -1.14629 4.22838 0
M  V30 551 C 56.9627 -2.77616 3.45607 0
M  V30 552 H 54.1827 -0.28928 0.605441 0
M  V30 553 H 56.7267 -0.260499 2.02834 0
M  V30 554 H 54.8817 -2.5942 2.87715 0
M  V30 555 H 55.2957 -1.77745 4.93464 0
M  V30 556 H 56.7697 -3.38759 4.35828 0
M  V30 557 H 57.2467 -3.4909 2.6652 0
M  V30 558 H 57.8527 -2.15271 3.66795 0
M  V30 559 N 56.1678 -1.49265 -0.50573 0
M  V30 560 C 57.5838 -1.35923 -0.836486 0
M  V30 561 C 57.7838 -0.388704 -1.97715 0
M  V30 562 O 56.8398 0.181336 -2.51848 0
M  V30 563 C 58.1528 -2.76531 -1.18115 0
M  V30 564 C 59.7008 -2.85197 -1.28964 0
M  V30 565 C 60.1758 -4.26561 -1.66761 0
M  V30 566 N 61.6668 -4.2935 -1.73819 0
M  V30 567 C 62.4018 -5.35693 -2.045 0
M  V30 568 N 61.8978 -6.52287 -2.33438 0
M  V30 569 N 63.6908 -5.23105 -2.05711 0
M  V30 570 H 55.8418 -2.10965 0.246519 0
M  V30 571 H 58.1048 -0.9468 0.0476887 0
M  V30 572 H 57.8108 -3.49226 -0.416398 0
M  V30 573 H 57.6848 -3.11599 -2.1257 0
M  V30 574 H 60.0718 -2.12742 -2.04511 0
M  V30 575 H 60.1528 -2.53718 -0.325704 0
M  V30 576 H 59.7968 -4.99541 -0.917656 0
M  V30 577 H 59.7268 -4.55502 -2.64246 0
M  V30 578 H 62.2178 -3.4526 -1.53635 0
M  V30 579 H 62.5308 -7.29158 -2.56024 0
M  V30 580 H 60.8758 -6.55521 -2.30905 0
M  V30 581 H 64.0668 -4.31026 -1.82577 0
M  V30 582 H 64.2398 -6.06078 -2.29289 0
M  V30 583 N 57.6459 0.756429 -1.3826 0
M  V30 584 C 58.5759 1.88374 -1.37976 0
M  V30 585 C 59.5569 1.68311 -0.246082 0
M  V30 586 O 60.7419 1.88944 -0.44874 0
M  V30 587 C 57.8719 3.25864 -1.20125 0
M  V30 588 C 56.8259 3.60523 -2.30666 0
M  V30 589 C 56.1519 4.9672 -1.97923 0
M  V30 590 C 57.4519 3.65692 -3.72916 0
M  V30 591 H 59.1459 1.88869 -2.32312 0
M  V30 592 H 56.6919 0.907272 -1.11824 0
M  V30 593 H 58.6449 4.0438 -1.18552 0
M  V30 594 H 57.3689 3.25841 -0.222498 0
M  V30 595 H 56.0279 2.84324 -2.3142 0
M  V30 596 H 55.6759 4.93253 -0.985393 0
M  V30 597 H 55.3759 5.20878 -2.71955 0
M  V30 598 H 56.8999 5.77618 -1.97964 0
M  V30 599 H 58.3139 4.34328 -3.74208 0
M  V30 600 H 56.7109 4.01358 -4.4613 0
M  V30 601 H 57.7809 2.65987 -4.05436 0
M  V30 602 N 59.124 1.23083 0.984299 0
M  V30 603 C 60.37 1.06214 1.72761 0
M  V30 604 C 60.703 -0.400584 1.90024 0
M  V30 605 O 59.978 -1.29672 1.44967 0
M  V30 606 C 60.261 1.78375 3.12817 0
M  V30 607 C 60.114 3.32296 3.03149 0
M  V30 608 C 61.433 1.54309 4.12161 0
M  V30 609 H 58.552 0.387251 0.627061 0
M  V30 610 H 61.194 1.51536 1.14616 0
M  V30 611 H 59.344 1.39848 3.62457 0
M  V30 612 H 61.016 3.8032 2.61064 0
M  V30 613 H 59.259 3.6153 2.39747 0
M  V30 614 H 59.93 3.77972 4.02295 0
M  V30 615 H 62.406 1.87791 3.71314 0
M  V30 616 H 61.282 2.07281 5.08258 0
M  V30 617 H 61.543 0.477572 4.39513 0
M  V30 618 N 60.6021 -1.18246 1.0419 0
M  V30 619 C 61.5321 -2.24127 0.654914 0
M  V30 620 C 62.5131 -1.66617 -0.342451 0
M  V30 621 O 63.6981 -1.92924 -0.222277 0
M  V30 622 C 60.8281 -3.47295 0.0183757 0
M  V30 623 C 59.7821 -4.17563 0.939414 0
M  V30 624 C 59.1081 -5.34438 0.167286 0
M  V30 625 C 60.4081 -4.70917 2.25908 0
M  V30 626 H 62.1021 -2.56753 1.54007 0
M  V30 627 H 59.6481 -1.23414 0.74195 0
M  V30 628 H 61.6011 -4.20572 -0.264082 0
M  V30 629 H 60.3251 -3.13907 -0.901664 0
M  V30 630 H 58.9841 -3.46186 1.20628 0
M  V30 631 H 58.6321 -4.97298 -0.7552 0
M  V30 632 H 58.3321 -5.82388 0.780901 0
M  V30 633 H 59.8561 -6.10504 -0.108125 0
M  V30 634 H 61.2701 -5.35882 2.03724 0
M  V30 635 H 59.6671 -5.29406 2.82577 0
M  V30 636 H 60.7371 -3.88272 2.9047 0
M  V30 637 N 62.0802 -0.821533 -1.34494 0
M  V30 638 C 63.0272 -0.240397 -2.29545 0
M  V30 639 C 63.9972 0.634031 -1.53523 0
M  V30 640 O 65.1822 0.575966 -1.81899 0
M  V30 641 C 62.3222 0.592869 -3.39969 0
M  V30 642 C 61.4352 -0.30365 -4.30932 0
M  V30 643 C 60.5702 0.539049 -5.28458 0
M  V30 644 C 59.6092 -0.356942 -6.11058 0
M  V30 645 N 58.7462 0.446603 -7.00678 0
M  V30 646 H 63.5862 -1.05632 -2.7865 0
M  V30 647 H 61.1232 -0.532413 -1.37127 0
M  V30 648 H 63.0812 1.09129 -4.02675 0
M  V30 649 H 61.7112 1.37392 -2.92102 0
M  V30 650 H 60.7632 -0.920276 -3.691 0
M  V30 651 H 62.0752 -0.992661 -4.88823 0
M  V30 652 H 61.2292 1.102 -5.96608 0
M  V30 653 H 59.9682 1.26157 -4.71101 0
M  V30 654 H 58.9732 -0.932047 -5.41842 0
M  V30 655 H 60.1982 -1.07755 -6.70497 0
M  V30 656 H 58.1442 1.15282 -6.45791 0
M  V30 657 H 58.0612 -0.184048 -7.55776 0
M  V30 658 H 59.3292 0.992352 -7.73158 0
M  V30 659 N 63.5583 1.46682 -0.576371 0
M  V30 660 C 64.5213 2.28707 0.150239 0
M  V30 661 C 65.5213 1.38035 0.824794 0
M  V30 662 O 66.7113 1.60476 0.677719 0
M  V30 663 C 63.8433 3.18248 1.22192 0
M  V30 664 H 65.0363 2.94423 -0.570521 0
M  V30 665 H 62.5893 1.52688 -0.334078 0
M  V30 666 H 63.3243 2.57265 1.97447 0
M  V30 667 H 63.1093 3.85 0.742812 0
M  V30 668 H 64.5993 3.80001 1.73172 0
M  V30 669 N 65.0364 0.313813 1.54444 0
M  V30 670 C 65.9834 -0.55655 2.23989 0
M  V30 671 C 66.9534 -1.11943 1.22711 0
M  V30 672 O 68.1384 -1.16158 1.51367 0
M  V30 673 C 65.2784 -1.71635 2.99392 0
M  V30 674 C 64.3914 -1.18364 4.15468 0
M  V30 675 C 63.5264 -2.30834 4.78424 0
M  V30 676 C 62.5654 -1.74762 5.86622 0
M  V30 677 N 61.7024 -2.80855 6.43479 0
M  V30 678 H 66.5424 0.0430893 2.97969 0
M  V30 679 H 64.0794 0.0330359 1.47063 0
M  V30 680 H 66.0374 -2.39868 3.41349 0
M  V30 681 H 64.6674 -2.28742 2.27765 0
M  V30 682 H 63.7194 -0.393163 3.78363 0
M  V30 683 H 65.0314 -0.733262 4.93381 0
M  V30 684 H 64.1854 -3.0699 5.23299 0
M  V30 685 H 62.9244 -2.79204 3.99871 0
M  V30 686 H 61.9294 -0.970995 5.41158 0
M  V30 687 H 63.1544 -1.2728 6.67066 0
M  V30 688 H 61.1004 -3.28535 5.67804 0
M  V30 689 H 61.0174 -2.40351 7.16776 0
M  V30 690 H 62.2854 -3.5687 6.93011 0
M  V30 691 N 66.5145 -1.57545 0.0417849 0
M  V30 692 C 67.7625 -1.91937 -0.632829 0
M  V30 693 C 68.0835 -0.919978 -1.71934 0
M  V30 694 O 67.3535 0.0366064 -1.95866 0
M  V30 695 H 65.9335 -0.708493 -0.236742 0
M  V30 696 H 68.5955 -1.9468 0.0925745 0
M  V30 697 H 67.6915 -2.92912 -1.07746 0
M  V30 698 N 67.9926 0.231505 -1.5589 0
M  V30 699 C 69.2416 0.955346 -1.7764 0
M  V30 700 C 69.5546 1.85893 -0.608546 0
M  V30 701 O 70.7606 2.62067 -0.70943 0
M  V30 702 C 69.2166 1.74886 -3.14552 0
M  V30 703 C 68.8246 0.891915 -4.39032 0
M  V30 704 C 70.5686 2.46452 -3.45633 0
M  V30 705 C 68.4756 1.68221 -5.66971 0
M  V30 706 H 67.4056 0.360446 -0.662265 0
M  V30 707 H 70.0566 0.209516 -1.823 0
M  V30 708 H 68.4386 2.53723 -3.04041 0
M  V30 709 H 69.6126 0.144793 -4.60572 0
M  V30 710 H 67.9276 0.288863 -4.15397 0
M  V30 711 H 70.5246 3.06061 -4.38441 0
M  V30 712 H 70.8676 3.18841 -2.67668 0
M  V30 713 H 71.4006 1.74613 -3.57428 0
M  V30 714 H 68.1396 1.00178 -6.478 0
M  V30 715 H 67.6596 2.4042 -5.49507 0
M  V30 716 H 69.3386 2.24544 -6.06786 0
M  V30 717 N 69.4707 1.49531 0.497807 0
M  V30 718 C 70.8867 1.36365 0.829266 0
M  V30 719 C 71.0867 0.399184 1.97506 0
M  V30 720 O 70.1427 -0.167977 2.51941 0
M  V30 721 C 71.4557 2.77153 1.16647 0
M  V30 722 C 73.0037 2.85877 1.27449 0
M  V30 723 C 73.4787 4.2744 1.64497 0
M  V30 724 N 74.9697 4.30265 1.7154 0
M  V30 725 C 75.7047 5.3677 2.01656 0
M  V30 726 N 75.2007 6.53516 2.29976 0
M  V30 727 N 76.9937 5.24189 2.02934 0
M  V30 728 H 69.1447 2.10831 -0.257703 0
M  V30 729 H 71.4077 0.946534 -0.0527091 0
M  V30 730 H 71.1137 3.49442 0.397872 0
M  V30 731 H 70.9877 3.12722 2.10915 0
M  V30 732 H 73.3747 2.13824 2.0338 0
M  V30 733 H 73.4557 2.53887 0.312244 0
M  V30 734 H 73.0997 5.00021 0.891151 0
M  V30 735 H 73.0297 4.56896 2.61827 0
M  V30 736 H 75.5207 3.4607 1.51802 0
M  V30 737 H 75.8337 7.30506 2.52153 0
M  V30 738 H 74.1787 6.56737 2.27425 0
M  V30 739 H 77.3697 4.31988 1.80289 0
M  V30 740 H 77.5427 6.07286 2.26071 0
M  V30 741 N 70.9488 -0.749086 1.3866 0
M  V30 742 C 71.8988 -1.85368 1.32751 0
M  V30 743 C 72.8828 -1.59511 0.210945 0
M  V30 744 O 74.0748 -1.71255 0.447299 0
M  V30 745 C 71.2038 -3.23131 1.15935 0
M  V30 746 C 70.2898 -3.54864 2.32233 0
M  V30 747 N 70.6808 -3.57625 3.57684 0
M  V30 748 C 68.9788 -3.85154 2.24883 0
M  V30 749 C 69.6798 -3.86753 4.34508 0
M  V30 750 N 68.6558 -4.03812 3.63918 0
M  V30 751 H 72.4578 -1.85787 2.27729 0
M  V30 752 H 69.9718 -0.946658 1.31955 0
M  V30 753 H 71.9688 -4.02185 1.09786 0
M  V30 754 H 70.6288 -3.23961 0.218947 0
M  V30 755 H 71.6398 -3.39276 3.91295 0
M  V30 756 H 68.3168 -3.93672 1.39027 0
M  V30 757 H 69.7068 -3.95474 5.43185 0
M  V30 758 N 72.4269 -1.23603 -0.977757 0
M  V30 759 C 73.3369 -1.03632 -2.1047 0
M  V30 760 C 74.3529 0.0199435 -1.73989 0
M  V30 761 O 75.5289 -0.176076 -2.00629 0
M  V30 762 C 72.5939 -0.63276 -3.40877 0
M  V30 763 C 71.6549 -1.76437 -3.91367 0
M  V30 764 C 70.8879 -1.37997 -5.15551 0
M  V30 765 O 71.1109 -0.265357 -5.69782 0
M  V30 766 O 70.0449 -2.20201 -5.60174 0
M  V30 767 H 73.8709 -1.98086 -2.30208 0
M  V30 768 H 71.4559 -1.02332 -1.08851 0
M  V30 769 H 73.3379 -0.418761 -4.19314 0
M  V30 770 H 72.0129 0.282754 -3.22463 0
M  V30 771 H 70.9199 -2.03304 -3.14036 0
M  V30 772 H 72.2529 -2.6583 -4.14241 0
M  V30 773 N 73.905 1.17692 -1.04816 0
M  V30 774 C 75.151 1.88137 -0.75711 0
M  V30 775 C 75.484 1.80604 0.713841 0
M  V30 776 O 74.759 1.21146 1.52164 0
M  V30 777 C 75.042 3.38318 -1.2334 0
M  V30 778 C 74.895 3.54622 -2.76701 0
M  V30 779 C 76.214 4.32214 -0.829415 0
M  V30 780 H 73.333 0.683163 -0.27651 0
M  V30 781 H 75.975 1.38424 -1.30149 0
M  V30 782 H 74.125 3.80787 -0.770286 0
M  V30 783 H 75.797 3.21194 -3.31107 0
M  V30 784 H 74.04 2.97026 -3.16161 0
M  V30 785 H 74.711 4.60028 -3.05088 0
M  V30 786 H 77.187 3.97565 -1.22805 0
M  V30 787 H 76.063 5.35838 -1.19033 0
M  V30 788 H 76.324 4.41294 0.266891 0
M  V30 789 N 75.3831 0.828654 1.34056 0
M  V30 790 C 76.6321 0.415828 1.97367 0
M  V30 791 C 76.9451 -1.02796 1.6641 0
M  V30 792 O 78.1511 -1.54497 2.23255 0
M  V30 793 C 76.6071 0.692601 3.53173 0
M  V30 794 C 76.2151 2.15038 3.93017 0
M  V30 795 C 77.9591 0.346222 4.23086 0
M  V30 796 C 75.8661 2.37174 5.41758 0
M  V30 797 H 74.7961 0.151755 0.738571 0
M  V30 798 H 77.4471 1.01581 1.52819 0
M  V30 799 H 75.8291 0.0223764 3.95994 0
M  V30 800 H 77.0031 2.86024 3.61285 0
M  V30 801 H 75.3181 2.45875 3.36057 0
M  V30 802 H 77.9151 0.48937 5.32456 0
M  V30 803 H 78.2581 -0.709842 4.10204 0
M  V30 804 H 78.7911 0.971258 3.85761 0
M  V30 805 H 75.5301 3.41308 5.59633 0
M  V30 806 H 75.0501 1.70738 5.74986 0
M  V30 807 H 76.7291 2.19818 6.08514 0
M  V30 808 N 76.8612 -1.46375 0.584142 0
M  V30 809 C 77.8092 -2.32042 -0.161047 0
M  V30 810 C 78.8032 -1.44569 -0.882966 0
M  V30 811 O 80.0092 -1.61186 -0.801191 0
M  V30 812 H 76.3842 -0.748659 -0.0708033 0
M  V30 813 H 78.3552 -2.92704 0.580269 0
M  V30 814 C 77.1042 -3.27762 -1.1605 0
M  V30 815 H 76.4272 -3.95051 -0.614419 0
M  V30 816 H 77.8672 -3.90481 -1.65228 0
M  V30 817 C 76.3262 -2.53218 -2.22221 0
M  V30 818 O 76.8562 -2.29628 -3.29597 0
M  V30 819 N 75.0622 -2.13756 -1.96868 0
M  V30 820 H 74.6092 -2.33142 -1.09557 0
M  V30 821 H 74.5672 -1.642 -2.68115 0
M  V30 822 N 78.3393 -0.321999 -1.54275 0
M  V30 823 C 79.5883 0.281931 -1.9972 0
M  V30 824 C 79.9013 1.53369 -1.21397 0
M  V30 825 O 81.1073 2.21352 -1.57211 0
M  V30 826 C 79.5633 0.5529 -3.55628 0
M  V30 827 C 79.1713 -0.681721 -4.42783 0
M  V30 828 C 80.9153 1.11687 -4.09544 0
M  V30 829 C 78.8223 -0.382742 -5.9016 0
M  V30 830 H 77.7523 0.109124 -0.746062 0
M  V30 831 H 80.4033 -0.43398 -1.78294 0
M  V30 832 H 78.7853 1.32896 -3.73035 0
M  V30 833 H 79.9593 -1.45723 -4.37151 0
M  V30 834 H 78.2743 -1.1658 -3.99748 0
M  V30 835 H 80.8713 1.35515 -5.17242 0
M  V30 836 H 81.2143 2.06575 -3.61431 0
M  V30 837 H 81.7473 0.402032 -3.95763 0
M  V30 838 H 78.4863 -1.30076 -6.42464 0
M  V30 839 H 78.0063 0.355094 -5.98748 0
M  V30 840 H 79.6853 0.00800157 -6.47 0
M  V30 841 N 79.8174 1.5752 -0.0501392 0
M  V30 842 C 80.7654 2.12651 0.942459 0
M  V30 843 C 81.7594 1.05807 1.32292 0
M  V30 844 O 82.9654 1.24217 1.3027 0
M  V30 845 H 79.3404 0.679673 0.321789 0
M  V30 846 H 81.3114 2.94951 0.452356 0
M  V30 847 C 80.0604 2.68565 2.20836 0
M  V30 848 H 79.3834 3.50439 1.92439 0
M  V30 849 H 80.8234 3.10761 2.8845 0
M  V30 850 C 79.2824 1.62291 2.95234 0
M  V30 851 O 79.8124 1.03508 3.88135 0
M  V30 852 N 78.0184 1.33836 2.57946 0
M  V30 853 H 77.5654 1.81826 1.82475 0
M  V30 854 H 77.5234 0.629595 3.08032 0
M  V30 855 N 81.2955 -0.223234 1.56011 0
M  V30 856 C 82.2255 -1.27988 1.95298 0
M  V30 857 C 83.2065 -1.48976 0.820979 0
M  V30 858 O 84.3915 -1.61188 1.08315 0
M  V30 859 C 81.5215 -2.63 2.26822 0
M  V30 860 C 80.4755 -2.56671 3.42497 0
M  V30 861 C 79.8015 -3.95697 3.59622 0
M  V30 862 C 81.1015 -2.11601 4.77517 0
M  V30 863 H 82.7955 -0.953525 2.8381 0
M  V30 864 H 80.3415 -0.457244 1.36548 0
M  V30 865 H 82.2945 -3.37077 2.52898 0
M  V30 866 H 81.0185 -2.9732 1.35161 0
M  V30 867 H 79.6775 -1.85051 3.16467 0
M  V30 868 H 79.3255 -4.27322 2.6534 0
M  V30 869 H 79.0255 -3.92345 4.37424 0
M  V30 870 H 80.5495 -4.71438 3.88044 0
M  V30 871 H 81.9635 -2.7542 5.02809 0
M  V30 872 H 80.3605 -2.19311 5.5859 0
M  V30 873 H 81.4305 -1.06824 4.72987 0
M  V30 874 N 82.7736 -1.49793 -0.48987 0
M  V30 875 C 83.7206 -1.67281 -1.59014 0
M  V30 876 C 84.6906 -0.514177 -1.57941 0
M  V30 877 O 85.8756 -0.742533 -1.75759 0
M  V30 878 C 83.0156 -1.75569 -2.97102 0
M  V30 879 C 82.1286 -3.0281 -3.08107 0
M  V30 880 C 81.2636 -3.02008 -4.36995 0
M  V30 881 C 80.3026 -4.23782 -4.41673 0
M  V30 882 N 79.4396 -4.20826 -5.62005 0
M  V30 883 H 84.2796 -2.61224 -1.43409 0
M  V30 884 H 81.8166 -1.29508 -0.697565 0
M  V30 885 H 83.7746 -1.78354 -3.77155 0
M  V30 886 H 82.4046 -0.850827 -3.11385 0
M  V30 887 H 81.4566 -3.09584 -2.21047 0
M  V30 888 H 82.7686 -3.92801 -3.07423 0
M  V30 889 H 81.9226 -3.03418 -5.25378 0
M  V30 890 H 80.6616 -2.09815 -4.4026 0
M  V30 891 H 79.6666 -4.22604 -3.5169 0
M  V30 892 H 80.8916 -5.17181 -4.40115 0
M  V30 893 H 78.8376 -3.31476 -5.66091 0
M  V30 894 H 78.7546 -5.04564 -5.62984 0
M  V30 895 H 80.0226 -4.26355 -6.52565 0
M  V30 896 N 84.2517 0.741722 -1.39055 0
M  V30 897 C 85.1997 1.87702 -1.3737 0
M  V30 898 C 86.1937 1.67427 -0.257812 0
M  V30 899 O 87.3997 1.7485 -0.427489 0
M  V30 900 H 83.7747 0.617757 -0.428812 0
M  V30 901 H 85.7457 1.86239 -2.33147 0
M  V30 902 C 84.4947 3.25315 -1.22741 0
M  V30 903 H 83.8177 3.41509 -2.07873 0
M  V30 904 H 85.2577 4.04964 -1.25618 0
M  V30 905 C 83.7167 3.36838 0.0647316 0
M  V30 906 O 84.2467 3.88073 1.03741 0
M  V30 907 N 82.4527 2.90329 0.125544 0
M  V30 908 H 81.9997 2.48823 -0.666682 0
M  V30 909 H 81.9577 2.98418 0.989639 0
M  V30 910 N 85.7298 1.2412 0.971189 0
M  V30 911 C 86.6768 1.0305 2.06517 0
M  V30 912 C 87.6468 -0.0550666 1.66009 0
M  V30 913 O 88.8318 0.0988688 1.90544 0
M  V30 914 C 85.9718 0.637653 3.39158 0
M  V30 915 C 85.0848 1.79633 3.92882 0
M  V30 916 C 84.2198 1.34939 5.13775 0
M  V30 917 C 83.2588 2.47823 5.59687 0
M  V30 918 N 82.3958 2.04022 6.71803 0
M  V30 919 H 87.2358 1.96685 2.23873 0
M  V30 920 H 84.7728 0.979694 1.09729 0
M  V30 921 H 86.7308 0.390931 4.15364 0
M  V30 922 H 85.3608 -0.261693 3.21737 0
M  V30 923 H 84.4128 2.15681 3.13346 0
M  V30 924 H 85.7248 2.64466 4.22918 0
M  V30 925 H 84.8788 1.06134 5.97345 0
M  V30 926 H 83.6178 0.471557 4.85415 0
M  V30 927 H 82.6228 2.77392 4.74693 0
M  V30 928 H 83.8478 3.36158 5.90063 0
M  V30 929 H 81.7938 1.18632 6.45184 0
M  V30 930 H 81.7108 2.82409 7.01271 0
M  V30 931 H 82.9788 1.78347 7.58823 0
M  V30 932 N 87.2079 -1.17134 1.05439 0
M  V30 933 C 88.6189 -1.69084 0.791676 0
M  V30 934 C 88.9699 -1.83822 -0.685839 0
M  V30 935 O 88.0949 -1.52757 -1.53278 0
M  V30 936 C 88.6899 -3.07119 1.4305 0
M  V30 937 C 87.2489 -3.56225 1.21577 0
M  V30 938 C 86.3959 -2.32421 1.51247 0
M  V30 939 H 89.3469 -1.01617 1.219 0
M  V30 940 H 89.3679 -3.71087 0.84112 0
M  V30 941 H 88.8799 -2.9636 2.50584 0
M  V30 942 H 86.9809 -3.72257 0.159787 0
M  V30 943 H 87.0939 -4.38837 1.92246 0
M  V30 944 H 85.4579 -2.3701 0.932653 0
M  V30 945 H 86.2409 -2.24268 2.5992 0
M  V30 946 N 88.686 -0.835752 -1.33615 0
M  V30 947 C 89.596 -0.269088 -2.33052 0
M  V30 948 C 90.612 0.603251 -1.63208 0
M  V30 949 O 91.788 0.508112 -1.94885 0
M  V30 950 C 88.853 0.549091 -3.42324 0
M  V30 951 C 87.914 -0.347156 -4.27894 0
M  V30 952 C 87.147 0.43207 -5.31948 0
M  V30 953 O 87.37 1.66409 -5.45586 0
M  V30 954 O 86.304 -0.192298 -6.01593 0
M  V30 955 H 90.13 -1.09243 -2.83372 0
M  V30 956 H 87.715 -0.598198 -1.36901 0
M  V30 957 H 89.597 1.01414 -4.09015 0
M  V30 958 H 88.272 1.34955 -2.94226 0
M  V30 959 H 87.179 -0.859979 -3.64081 0
M  V30 960 H 88.512 -1.1123 -4.79467 0
M  V30 961 N 90.1641 1.46063 -0.591896 0
M  V30 962 C 91.4101 2.03203 -0.0894879 0
M  V30 963 C 91.7651 1.45407 1.25994 0
M  V30 964 O 91.0581 0.61326 1.8152 0
M  V30 965 C 91.2521 3.57391 0.0249813 0
M  V30 966 C 91.0811 4.30142 -1.3118 0
M  V30 967 C 89.8511 4.68688 -1.88838 0
M  V30 968 C 92.0491 4.63098 -2.23708 0
M  V30 969 N 90.0311 5.26228 -3.1616 0
M  V30 970 C 91.4021 5.21305 -3.3562 0
M  V30 971 C 93.4571 4.45031 -2.23274 0
M  V30 972 C 92.1601 5.63351 -4.47245 0
M  V30 973 C 94.1861 4.881 -3.33935 0
M  V30 974 C 93.5481 5.46386 -4.44569 0
M  V30 975 H 89.6471 0.778323 -0.0757431 0
M  V30 976 H 92.2311 1.78094 -0.78681 0
M  V30 977 H 90.4021 3.82195 0.69149 0
M  V30 978 H 92.1341 4.0118 0.532613 0
M  V30 979 H 88.8891 4.5174 -1.42223 0
M  V30 980 H 89.3131 5.59512 -3.8115 0
M  V30 981 H 93.9551 3.99295 -1.39008 0
M  V30 982 H 91.6731 6.08061 -5.32247 0
M  V30 983 H 95.2591 4.75866 -3.34728 0
M  V30 984 H 94.1391 5.79102 -5.28782 0
M  V30 985 N 91.6422 0.330177 1.54103 0
M  V30 986 C 92.8892 -0.270405 2.00686 0
M  V30 987 C 93.2172 -1.51621 1.21825 0
M  V30 988 O 92.4722 -1.93536 0.29025 0
M  V30 989 C 92.7712 -0.643134 3.51566 0
M  V30 990 C 92.4372 0.504251 4.48072 0
M  V30 991 C 91.0992 0.819163 4.74176 0
M  V30 992 C 93.4512 1.27465 5.05373 0
M  V30 993 C 90.7792 1.90708 5.5484 0
M  V30 994 C 93.1312 2.35271 5.87223 0
M  V30 995 C 91.7952 2.67336 6.11627 0
M  V30 996 H 91.0652 -0.0989482 0.734364 0
M  V30 997 H 93.7122 0.455324 1.86008 0
M  V30 998 H 92.0172 -1.44938 3.64006 0
M  V30 999 H 93.7142 -1.11949 3.85056 0
M  V30 1000 H 90.3042 0.248733 4.27878 0
M  V30 1001 H 94.4882 1.04462 4.85182 0
M  V30 1002 H 89.7442 2.15991 5.71977 0
M  V30 1003 H 93.9182 2.95405 6.30641 0
M  V30 1004 H 91.5452 3.51763 6.73919 0
M  V30 1005 N 93.1203 -1.57491 0.0584922 0
M  V30 1006 C 94.3673 -1.92978 -0.613648 0
M  V30 1007 C 94.6953 -0.937461 -1.70417 0
M  V30 1008 O 93.9503 0.049078 -1.95638 0
M  V30 1009 C 94.2493 -3.3513 -1.24188 0
M  V30 1010 C 93.9153 -4.50037 -0.278826 0
M  V30 1011 C 92.5773 -4.81198 -0.0138447 0
M  V30 1012 C 94.9293 -5.19807 0.380777 0
M  V30 1013 C 92.2573 -5.79473 0.918052 0
M  V30 1014 C 94.6093 -6.19079 1.30091 0
M  V30 1015 C 93.2733 -6.48665 1.57449 0
M  V30 1016 H 92.5433 -0.706157 -0.22455 0
M  V30 1017 H 95.1903 -1.91082 0.126533 0
M  V30 1018 H 93.4953 -3.33429 -2.05749 0
M  V30 1019 H 95.1923 -3.59871 -1.769 0
M  V30 1020 H 91.7823 -4.25726 -0.495539 0
M  V30 1021 H 95.9663 -4.95939 0.189158 0
M  V30 1022 H 91.2223 -6.00727 1.1374 0
M  V30 1023 H 95.3963 -6.7225 1.81804 0
M  V30 1024 H 93.0233 -7.24628 2.29822 0
M  V30 1025 N 94.5984 0.214957 -1.56127 0
M  V30 1026 C 95.5454 1.26642 -1.92952 0
M  V30 1027 C 96.5154 1.46244 -0.78753 0
M  V30 1028 O 97.7004 1.59704 -1.04399 0
M  V30 1029 C 94.8404 2.6104 -2.25726 0
M  V30 1030 C 93.9534 2.49183 -3.52891 0
M  V30 1031 C 93.0884 3.76149 -3.7508 0
M  V30 1032 C 92.1274 3.59041 -4.95738 0
M  V30 1033 N 91.2644 4.77972 -5.14283 0
M  V30 1034 H 96.1044 0.945384 -2.82607 0
M  V30 1035 H 93.6414 0.455489 -1.3987 0
M  V30 1036 H 95.5994 3.39313 -2.42739 0
M  V30 1037 H 94.2294 2.91227 -1.39236 0
M  V30 1038 H 93.2814 1.6231 -3.44034 0
M  V30 1039 H 94.5934 2.32466 -4.41318 0
M  V30 1040 H 93.7474 4.62865 -3.92226 0
M  V30 1041 H 92.4864 3.95799 -2.84947 0
M  V30 1042 H 91.4914 2.7071 -4.78535 0
M  V30 1043 H 92.7164 3.40856 -5.87362 0
M  V30 1044 H 90.6624 4.97923 -4.27093 0
M  V30 1045 H 90.5794 4.64006 -5.96853 0
M  V30 1046 H 91.8474 5.66096 -5.35869 0
M  V30 1047 N 96.0765 1.50051 0.48192 0
M  V30 1048 C 97.0235 1.68122 1.58125 0
M  V30 1049 C 97.9935 0.522545 1.57666 0
M  V30 1050 O 99.1785 0.751844 1.75362 0
M  V30 1051 C 96.3185 1.77142 2.96167 0
M  V30 1052 C 95.4315 3.0444 3.06497 0
M  V30 1053 C 94.5665 3.04321 4.35387 0
M  V30 1054 C 93.6055 4.26118 4.3942 0
M  V30 1055 N 92.7425 4.238 5.59766 0
M  V30 1056 H 97.5825 2.6198 1.42022 0
M  V30 1057 H 95.1195 1.29877 0.690687 0
M  V30 1058 H 97.0775 1.80352 3.76203 0
M  V30 1059 H 95.7075 0.867329 3.1093 0
M  V30 1060 H 94.7595 3.10752 2.19402 0
M  V30 1061 H 96.0715 3.94426 3.05336 0
M  V30 1062 H 95.2255 3.062 5.23762 0
M  V30 1063 H 93.9645 2.12147 4.39141 0
M  V30 1064 H 92.9695 4.24463 3.49444 0
M  V30 1065 H 94.1945 5.19507 4.37366 0
M  V30 1066 H 92.1405 3.34474 5.64326 0
M  V30 1067 H 92.0575 5.07542 5.60301 0
M  V30 1068 H 93.3255 4.2981 6.50295 0
M  V30 1069 N 97.5546 -0.734337 1.39446 0
M  V30 1070 C 98.5026 -1.86971 1.38364 0
M  V30 1071 C 99.4966 -1.67288 0.266687 0
M  V30 1072 O 100.703 -1.74621 0.436755 0
M  V30 1073 H 97.0776 -0.615474 0.432082 0
M  V30 1074 H 99.0486 -1.85 2.34132 0
M  V30 1075 C 97.7976 -3.2466 1.24465 0
M  V30 1076 H 97.1206 -3.40402 2.09682 0
M  V30 1077 H 98.5606 -4.04292 1.27764 0
M  V30 1078 C 97.0196 -3.36867 -0.0468674 0
M  V30 1079 O 97.5496 -3.88618 -1.01681 0
M  V30 1080 N 95.7556 -2.90391 -0.110145 0
M  V30 1081 H 95.3026 -2.48466 0.679868 0
M  V30 1082 H 95.2606 -2.98939 -0.973799 0
M  V30 1083 N 99.0327 -1.24633 -0.964593 0
M  V30 1084 C 100.444 -1.08045 -1.5226 0
M  V30 1085 C 100.795 0.347116 -1.93105 0
M  V30 1086 O 99.9197 1.23588 -1.77637 0
M  V30 1087 C 100.515 -1.95514 -2.76695 0
M  V30 1088 C 99.0737 -1.8314 -3.28841 0
M  V30 1089 C 98.2207 -1.90262 -2.01732 0
M  V30 1090 H 101.172 -1.38064 -0.782553 0
M  V30 1091 H 101.193 -1.48925 -3.50145 0
M  V30 1092 H 100.705 -2.99407 -2.46936 0
M  V30 1093 H 98.8057 -0.82092 -3.63444 0
M  V30 1094 H 98.9187 -2.67406 -3.97531 0
M  V30 1095 H 97.2827 -1.34027 -2.16584 0
M  V30 1096 H 98.0657 -2.9574 -1.74334 0
M  V30 1097 N 100.511 1.16574 -1.06058 0
M  V30 1098 C 101.758 1.87047 -0.775873 0
M  V30 1099 C 102.086 1.81562 0.697534 0
M  V30 1100 O 101.341 1.22445 1.52662 0
M  V30 1101 C 101.64 3.36195 -1.21275 0
M  V30 1102 C 101.306 3.6188 -2.68986 0
M  V30 1103 C 99.9678 3.68599 -3.09335 0
M  V30 1104 C 102.32 3.72648 -3.64394 0
M  V30 1105 C 99.6478 3.83584 -4.43937 0
M  V30 1106 C 102 3.89154 -4.98741 0
M  V30 1107 C 100.664 3.94114 -5.3873 0
M  V30 1108 H 99.9338 0.684452 -0.283912 0
M  V30 1109 H 102.581 1.37853 -1.32925 0
M  V30 1110 H 100.886 3.87505 -0.578528 0
M  V30 1111 H 102.583 3.89103 -0.969542 0
M  V30 1112 H 99.1728 3.57281 -2.36744 0
M  V30 1113 H 103.357 3.66769 -3.34356 0
M  V30 1114 H 98.6128 3.85677 -4.74409 0
M  V30 1115 H 102.787 3.96427 -5.72554 0
M  V30 1116 H 100.414 4.05478 -6.43033 0
M  V30 1117 N 101.989 0.842826 1.3317 0
M  V30 1118 C 103.237 0.439577 1.97262 0
M  V30 1119 C 103.558 -1.00548 1.67078 0
M  V30 1120 O 102.828 -1.70098 0.971779 0
M  V30 1121 H 101.408 0.159558 0.72976 0
M  V30 1122 H 104.07 1.07665 1.62463 0
M  V30 1123 H 103.166 0.574886 3.0676 0
M  V30 1124 N 103.467 -1.45747 0.599634 0
M  V30 1125 C 104.397 -2.33235 -0.111306 0
M  V30 1126 C 105.378 -1.46359 -0.866781 0
M  V30 1127 O 106.563 -1.75146 -0.838904 0
M  V30 1128 C 103.693 -3.28932 -1.11451 0
M  V30 1129 C 102.647 -4.25381 -0.472772 0
M  V30 1130 C 101.973 -5.1071 -1.58365 0
M  V30 1131 C 103.273 -5.18831 0.600948 0
M  V30 1132 H 104.967 -2.92927 0.61919 0
M  V30 1133 H 102.513 -1.40857 0.299215 0
M  V30 1134 H 104.466 -3.89002 -1.62036 0
M  V30 1135 H 103.19 -2.67381 -1.8755 0
M  V30 1136 H 101.849 -3.66598 0.0121472 0
M  V30 1137 H 101.497 -4.45533 -2.33473 0
M  V30 1138 H 101.197 -5.7604 -1.15982 0
M  V30 1139 H 102.721 -5.73647 -2.09194 0
M  V30 1140 H 104.135 -5.73019 0.179491 0
M  V30 1141 H 102.532 -5.92595 0.946076 0
M  V30 1142 H 103.602 -4.6174 1.48068 0
M  V30 1143 N 104.945 -0.338344 -1.53925 0
M  V30 1144 C 106.191 0.260143 -2.01125 0
M  V30 1145 C 106.524 1.50617 -1.22589 0
M  V30 1146 O 105.799 1.91979 -0.312113 0
M  V30 1147 C 106.082 0.579499 -3.55407 0
M  V30 1148 C 105.935 -0.678264 -4.44657 0
M  V30 1149 C 107.254 1.39122 -4.17532 0
M  V30 1150 H 104.373 0.0930772 -0.731099 0
M  V30 1151 H 107.015 -0.457852 -1.84401 0
M  V30 1152 H 105.165 1.19118 -3.69788 0
M  V30 1153 H 106.837 -1.31631 -4.42121 0
M  V30 1154 H 105.08 -1.3042 -4.13731 0
M  V30 1155 H 105.751 -0.410143 -5.50474 0
M  V30 1156 H 108.227 0.874035 -4.06817 0
M  V30 1157 H 107.103 1.58342 -5.25565 0
M  V30 1158 H 107.364 2.39178 -3.71815 0
M  V30 1159 N 106.423 1.57458 -0.0668435 0
M  V30 1160 C 107.834 1.80776 0.466558 0
M  V30 1161 C 108.185 0.980361 1.69951 0
M  V30 1162 O 107.31 0.201441 2.1546 0
M  V30 1163 C 107.905 3.27881 0.85321 0
M  V30 1164 C 106.464 3.52062 1.3315 0
M  V30 1165 C 105.611 2.75513 0.314264 0
M  V30 1166 H 108.562 1.5598 -0.292588 0
M  V30 1167 H 108.583 3.39659 1.715 0
M  V30 1168 H 108.095 3.88075 -0.0443439 0
M  V30 1169 H 106.196 2.97167 2.24772 0
M  V30 1170 H 106.309 4.60762 1.31285 0
M  V30 1171 H 104.673 2.42123 0.790492 0
M  V30 1172 H 105.456 3.38442 -0.575477 0
M  V30 1173 N 107.901 -0.206675 1.56239 0
M  V30 1174 C 109.147 -0.930218 1.80208 0
M  V30 1175 C 109.48 -1.83387 0.638981 0
M  V30 1176 O 108.755 -1.91119 -0.361066 0
M  V30 1177 C 109.038 -1.75641 3.1436 0
M  V30 1178 C 108.891 -0.878257 4.41142 0
M  V30 1179 C 110.21 -2.73129 3.45092 0
M  V30 1180 H 107.329 -0.336742 0.655571 0
M  V30 1181 H 109.971 -0.198222 1.88963 0
M  V30 1182 H 108.121 -2.38048 3.07027 0
M  V30 1183 H 109.793 -0.269787 4.6051 0
M  V30 1184 H 108.036 -0.184385 4.33408 0
M  V30 1185 H 108.707 -1.49106 5.3148 0
M  V30 1186 H 111.183 -2.20856 3.52649 0
M  V30 1187 H 110.059 -3.28028 4.40101 0
M  V30 1188 H 110.32 -3.51606 2.68003 0
M  V30 1189 N 109.379 -1.50304 -0.473955 0
M  V30 1190 C 110.309 -1.71886 -1.58042 0
M  V30 1191 C 111.29 -0.567799 -1.60344 0
M  V30 1192 O 112.475 -0.806623 -1.76656 0
M  V30 1193 C 109.605 -1.81036 -2.96384 0
M  V30 1194 C 108.559 -2.962 -3.08949 0
M  V30 1195 C 107.885 -2.9049 -4.48909 0
M  V30 1196 C 109.185 -4.36752 -2.86434 0
M  V30 1197 H 110.879 -2.64527 -1.40234 0
M  V30 1198 H 108.425 -1.27295 -0.673201 0
M  V30 1199 H 110.378 -1.94719 -3.73714 0
M  V30 1200 H 109.102 -0.850147 -3.15341 0
M  V30 1201 H 107.761 -2.82164 -2.3405 0
M  V30 1202 H 107.409 -1.92321 -4.64781 0
M  V30 1203 H 107.109 -3.67802 -4.58253 0
M  V30 1204 H 108.633 -3.06218 -5.28264 0
M  V30 1205 H 110.047 -4.5133 -3.53517 0
M  V30 1206 H 108.444 -5.15493 -3.07225 0
M  V30 1207 H 109.514 -4.49321 -1.82316 0
M  V30 1208 N 110.857 0.726932 -1.39834 0
M  V30 1209 C 111.767 1.87131 -1.41489 0
M  V30 1210 C 112.783 1.71239 -0.308757 0
M  V30 1211 O 113.959 1.93701 -0.551529 0
M  V30 1212 C 111.024 3.22811 -1.26468 0
M  V30 1213 C 110.085 3.51039 -2.47124 0
M  V30 1214 C 109.318 4.80245 -2.3281 0
M  V30 1215 O 109.541 5.54537 -1.33585 0
M  V30 1216 O 108.475 5.08554 -3.21957 0
M  V30 1217 H 112.301 1.8869 -2.3797 0
M  V30 1218 H 109.886 0.875837 -1.21035 0
M  V30 1219 H 111.768 4.03877 -1.20255 0
M  V30 1220 H 110.443 3.22005 -0.330862 0
M  V30 1221 H 109.35 2.70027 -2.58914 0
M  V30 1222 H 110.683 3.56632 -3.39227 0
M  V30 1223 N 112.336 1.25143 0.95797 0
M  V30 1224 C 113.284 1.05019 2.07542 0
M  V30 1225 C 114.278 -0.0178751 1.69391 0
M  V30 1226 O 115.484 0.137472 1.79474 0
M  V30 1227 H 111.859 0.32265 0.679265 0
M  V30 1228 H 113.83 1.99759 2.21673 0
M  V30 1229 C 112.579 0.682074 3.40944 0
M  V30 1230 H 111.902 1.49573 3.70767 0
M  V30 1231 H 113.342 0.580945 4.20001 0
M  V30 1232 C 111.801 -0.611608 3.31302 0
M  V30 1233 O 112.331 -1.65465 3.66038 0
M  V30 1234 N 110.537 -0.595982 2.84423 0
M  V30 1235 H 110.084 0.253192 2.56353 0
M  V30 1236 H 110.042 -1.46173 2.78354 0
M  V30 1237 N 113.814 -1.1601 1.06675 0
M  V30 1238 C 115.039 -1.91068 0.806706 0
M  V30 1239 C 115.464 -1.77112 -0.633485 0
M  V30 1240 O 114.822 -1.09908 -1.44187 0
M  V30 1241 C 114.87 -3.39655 1.21106 0
M  V30 1242 O 113.974 -4.10893 0.352189 0
M  V30 1243 H 113.315 -0.595125 0.294486 0
M  V30 1244 H 115.845 -1.46955 1.42356 0
M  V30 1245 H 115.855 -3.90434 1.18428 0
M  V30 1246 H 114.53 -3.49132 2.26008 0
M  V30 1247 H 113.107 -3.70285 0.440868 0
M  V30 1248 N 115.292 -0.849877 -1.32721 0
M  V30 1249 C 116.224 -0.248332 -2.27851 0
M  V30 1250 C 117.237 0.577218 -1.52224 0
M  V30 1251 O 118.426 0.402489 -1.73903 0
M  V30 1252 C 115.526 0.668107 -3.32249 0
M  V30 1253 C 114.699 -0.120534 -4.37234 0
M  V30 1254 C 113.758 0.720932 -5.21238 0
M  V30 1255 O 112.784 0.156166 -5.68986 0
M  V30 1256 N 113.986 2.03647 -5.43607 0
M  V30 1257 H 116.751 -1.06575 -2.80111 0
M  V30 1258 H 114.312 -0.709395 -1.45531 0
M  V30 1259 H 116.304 1.23627 -3.85355 0
M  V30 1260 H 114.874 1.38621 -2.80184 0
M  V30 1261 H 114.094 -0.870108 -3.84477 0
M  V30 1262 H 115.382 -0.662406 -5.0447 0
M  V30 1263 H 114.78 2.51871 -5.06535 0
M  V30 1264 H 113.337 2.55287 -5.99727 0
M  V30 1265 N 116.77 1.45427 -0.607355 0
M  V30 1266 C 118.018 2.01841 -0.102253 0
M  V30 1267 C 118.339 1.47832 1.27164 0
M  V30 1268 O 117.609 0.672497 1.83995 0
M  V30 1269 H 116.189 0.746188 -0.0348101 0
M  V30 1270 H 118.851 1.78229 -0.7887 0
M  V30 1271 H 117.947 3.12057 -0.0518585 0
M  V30 1272 N 118.248 0.346503 1.53744 0
M  V30 1273 C 119.18 -0.543316 2.22667 0
M  V30 1274 C 120.193 -1.06159 1.23427 0
M  V30 1275 O 121.382 -0.971235 1.49764 0
M  V30 1276 C 118.482 -1.76076 2.89569 0
M  V30 1277 C 117.655 -1.37727 4.15151 0
M  V30 1278 C 116.714 -2.45471 4.65436 0
M  V30 1279 O 115.74 -2.08655 5.29577 0
M  V30 1280 N 116.942 -3.7677 4.41616 0
M  V30 1281 H 119.707 0.0469703 2.99663 0
M  V30 1282 H 117.268 0.170766 1.60997 0
M  V30 1283 H 119.26 -2.47593 3.20125 0
M  V30 1284 H 117.83 -2.25835 2.16142 0
M  V30 1285 H 117.05 -0.492746 3.91108 0
M  V30 1286 H 118.338 -1.09708 4.96832 0
M  V30 1287 H 117.736 -4.09467 3.90325 0
M  V30 1288 H 116.293 -4.44448 4.7677 0
M  V30 1289 N 119.726 -1.57421 0.075193 0
M  V30 1290 C 120.656 -2.15942 -0.888324 0
M  V30 1291 C 121.637 -1.08737 -1.30806 0
M  V30 1292 O 122.822 -1.36787 -1.37851 0
M  V30 1293 C 119.952 -2.72379 -2.1547 0
M  V30 1294 C 118.906 -3.8478 -1.87425 0
M  V30 1295 C 118.232 -4.27834 -3.20721 0
M  V30 1296 C 119.532 -5.08869 -1.17684 0
M  V30 1297 H 121.226 -2.96705 -0.400799 0
M  V30 1298 H 118.772 -1.42723 -0.191342 0
M  V30 1299 H 120.725 -3.11965 -2.83295 0
M  V30 1300 H 119.449 -1.88841 -2.6647 0
M  V30 1301 H 118.108 -3.45703 -1.22004 0
M  V30 1302 H 117.756 -3.41214 -3.6957 0
M  V30 1303 H 117.456 -5.03605 -3.02746 0
M  V30 1304 H 118.98 -4.70039 -3.89738 0
M  V30 1305 H 120.394 -5.4575 -1.75584 0
M  V30 1306 H 118.791 -5.8994 -1.09956 0
M  V30 1307 H 119.861 -4.84648 -0.156453 0
M  V30 1308 N 121.204 0.198386 -1.56346 0
M  V30 1309 C 122.453 0.917451 -1.79627 0
M  V30 1310 C 122.766 1.8456 -0.64784 0
M  V30 1311 O 123.972 2.60504 -0.764859 0
M  V30 1312 C 122.428 1.68175 -3.18191 0
M  V30 1313 C 122.036 0.798589 -4.40825 0
M  V30 1314 C 123.78 2.39065 -3.50782 0
M  V30 1315 C 121.687 1.56157 -5.70411 0
M  V30 1316 H 120.617 0.346317 -0.669762 0
M  V30 1317 H 123.268 0.170801 -1.82703 0
M  V30 1318 H 121.65 2.47216 -3.09354 0
M  V30 1319 H 122.824 0.0470665 -4.60776 0
M  V30 1320 H 121.139 0.200686 -4.15916 0
M  V30 1321 H 123.736 2.96692 -4.44835 0
M  V30 1322 H 124.079 3.13091 -2.74371 0
M  V30 1323 H 124.612 1.66993 -3.61052 0
M  V30 1324 H 121.351 0.864142 -6.49779 0
M  V30 1325 H 120.871 2.2871 -5.54483 0
M  V30 1326 H 122.55 2.11622 -6.11412 0
M  V30 1327 N 122.682 1.50554 0.465978 0
M  V30 1328 C 123.912 1.65323 1.23903 0
M  V30 1329 C 124.32 0.338051 1.86155 0
M  V30 1330 O 123.663 -0.690518 1.70228 0
M  V30 1331 C 123.725 2.69048 2.3844 0
M  V30 1332 C 123.389 4.12462 1.96784 0
M  V30 1333 C 124.386 4.98168 1.48745 0
M  V30 1334 C 122.071 4.58407 2.05349 0
M  V30 1335 C 124.065 6.27868 1.0982 0
M  V30 1336 C 121.752 5.88112 1.66035 0
M  V30 1337 C 122.75 6.72668 1.18349 0
M  V30 1338 O 122.438 7.99951 0.795825 0
M  V30 1339 H 122.17 0.558629 0.38067 0
M  V30 1340 H 124.724 1.97561 0.562022 0
M  V30 1341 H 122.954 2.32062 3.09328 0
M  V30 1342 H 124.643 2.72985 3.0039 0
M  V30 1343 H 125.409 4.63885 1.41546 0
M  V30 1344 H 121.288 3.92735 2.41414 0
M  V30 1345 H 124.832 6.93819 0.725293 0
M  V30 1346 H 120.729 6.21914 1.72895 0
M  V30 1347 H 121.497 8.13265 0.924222 0
M  V30 1348 N 124.16 -0.719506 1.40217 0
M  V30 1349 C 125.07 -1.86378 1.42479 0
M  V30 1350 C 126.086 -1.71073 0.317834 0
M  V30 1351 O 127.262 -1.93406 0.561794 0
M  V30 1352 C 124.327 -3.22136 1.28178 0
M  V30 1353 C 123.388 -3.49723 2.48982 0
M  V30 1354 C 122.621 -4.79004 2.35353 0
M  V30 1355 O 122.844 -5.53821 1.36524 0
M  V30 1356 O 121.778 -5.06839 3.2465 0
M  V30 1357 H 125.604 -1.87425 2.38968 0
M  V30 1358 H 123.189 -0.869405 1.21498 0
M  V30 1359 H 125.071 -4.03234 1.22395 0
M  V30 1360 H 123.746 -3.21825 0.347934 0
M  V30 1361 H 122.653 -2.6865 2.60342 0
M  V30 1362 H 123.986 -3.54828 3.41113 0
M  V30 1363 N 125.638 -1.25649 -0.95132 0
M  V30 1364 C 126.863 -1.13443 -1.73624 0
M  V30 1365 C 127.288 0.307565 -1.85568 0
M  V30 1366 O 126.646 1.22282 -1.33854 0
M  V30 1367 C 126.694 -1.79723 -3.12621 0
M  V30 1368 O 125.798 -1.07912 -3.98031 0
M  V30 1369 H 125.139 -0.395872 -0.533086 0
M  V30 1370 H 127.669 -1.66276 -1.1922 0
M  V30 1371 H 127.679 -1.86141 -3.63064 0
M  V30 1372 H 126.354 -2.84633 -3.03244 0
M  V30 1373 H 124.931 -1.09398 -3.56492 0
M  V30 1374 N 127.117 1.15442 -1.07289 0
M  V30 1375 C 128.08 2.18358 -0.696591 0
M  V30 1376 C 129.08 1.58637 0.262837 0
M  V30 1377 O 130.27 1.74145 0.0438809 0
M  V30 1378 C 127.402 3.4089 -0.0266151 0
M  V30 1379 H 128.595 2.53162 -1.60776 0
M  V30 1380 H 126.148 1.29893 -0.869342 0
M  V30 1381 H 126.883 3.11653 0.896822 0
M  V30 1382 H 126.668 3.85495 -0.716657 0
M  V30 1383 H 128.158 4.17009 0.222028 0
M  V30 1384 N 128.595 0.856903 1.32268 0
M  V30 1385 C 129.844 0.457599 1.96441 0
M  V30 1386 C 130.157 -0.992426 1.68553 0
M  V30 1387 O 131.363 -1.49727 2.26482 0
M  V30 1388 C 129.819 0.767358 3.51624 0
M  V30 1389 C 129.427 2.23326 3.88367 0
M  V30 1390 C 131.171 0.435887 4.22256 0
M  V30 1391 C 129.078 2.48613 5.36606 0
M  V30 1392 H 128.008 0.167387 0.735185 0
M  V30 1393 H 130.659 1.048 1.5063 0
M  V30 1394 H 129.041 0.106367 3.95857 0
M  V30 1395 H 130.215 2.93623 3.55137 0
M  V30 1396 H 128.53 2.52948 3.30766 0
M  V30 1397 H 131.127 0.602202 5.31298 0
M  V30 1398 H 131.47 -0.622672 4.11617 0
M  V30 1399 H 132.003 1.05286 3.83614 0
M  V30 1400 H 128.742 3.53101 5.52268 0
M  V30 1401 H 128.262 1.82896 5.71235 0
M  V30 1402 H 129.941 2.32676 6.03714 0
M  V30 1403 N 130.073 -1.45103 0.615059 0
M  V30 1404 C 131.301 -2.06553 0.11977 0
M  V30 1405 C 131.716 -1.45842 -1.19898 0
M  V30 1406 O 131.073 -0.575325 -1.73194 0
M  V30 1407 C 131.124 -3.61495 -0.018364 0
M  V30 1408 O 130.845 -4.19942 1.24822 0
M  V30 1409 C 132.346 -4.39947 -0.544237 0
M  V30 1410 H 129.566 -0.667096 0.0722739 0
M  V30 1411 H 132.11 -1.8623 0.84491 0
M  V30 1412 H 130.265 -3.81135 -0.693865 0
M  V30 1413 H 130.679 -5.13204 1.0827 0
M  V30 1414 H 132.153 -5.48838 -0.589953 0
M  V30 1415 H 132.63 -4.10255 -1.56805 0
M  V30 1416 H 133.236 -4.25188 0.0974703 0
M  V30 1417 N 131.551 -0.354651 -1.53558 0
M  V30 1418 C 132.791 0.238651 -2.03002 0
M  V30 1419 C 133.155 1.46878 -1.23656 0
M  V30 1420 O 134.356 2.13699 -1.63053 0
M  V30 1421 C 132.627 0.534175 -3.53386 0
M  V30 1422 S 134.186 1.10271 -4.24719 0
M  V30 1423 H 131.004 0.0702908 -0.707517 0
M  V30 1424 H 133.606 -0.494987 -1.8913 0
M  V30 1425 H 132.31 -0.368765 -4.0874 0
M  V30 1426 H 131.841 1.29718 -3.71398 0
M  V30 1427 H 133.856 2.38772 -4.34974 0
M  V30 1428 N 133.029 1.57378 -0.0835403 0
M  V30 1429 C 133.939 2.16897 0.894021 0
M  V30 1430 C 134.955 1.13528 1.31861 0
M  V30 1431 O 136.131 1.45848 1.3889 0
M  V30 1432 C 133.196 2.72831 2.13925 0
M  V30 1433 C 132.257 3.91115 1.76997 0
M  V30 1434 C 131.49 4.44371 2.95584 0
M  V30 1435 O 131.713 3.96596 4.09961 0
M  V30 1436 O 130.647 5.35549 2.74719 0
M  V30 1437 H 134.473 3.00814 0.417679 0
M  V30 1438 H 132.058 1.48741 0.140181 0
M  V30 1439 H 133.94 3.0863 2.86924 0
M  V30 1440 H 132.615 1.91967 2.60635 0
M  V30 1441 H 131.522 3.60148 1.01214 0
M  V30 1442 H 132.855 4.73307 1.3506 0
M  V30 1443 N 134.507 -0.190092 1.56449 0
M  V30 1444 C 135.737 -0.92443 1.84764 0
M  V30 1445 C 136.145 -1.77146 0.664529 0
M  V30 1446 O 135.488 -1.79812 -0.375957 0
M  V30 1447 C 135.55 -1.86651 3.07248 0
M  V30 1448 C 135.214 -1.20094 4.40938 0
M  V30 1449 C 136.211 -0.575445 5.16706 0
M  V30 1450 C 133.896 -1.2033 4.87674 0
M  V30 1451 C 135.89 0.0388111 6.37388 0
M  V30 1452 C 133.577 -0.585214 6.08291 0
M  V30 1453 C 134.575 0.0347578 6.82991 0
M  V30 1454 O 134.263 0.643147 8.01323 0
M  V30 1455 H 133.995 -0.274974 0.617548 0
M  V30 1456 H 136.549 -0.200788 2.04416 0
M  V30 1457 H 134.779 -2.62998 2.83494 0
M  V30 1458 H 136.468 -2.46907 3.22167 0
M  V30 1459 H 137.234 -0.565728 4.81689 0
M  V30 1460 H 133.113 -1.67526 4.29484 0
M  V30 1461 H 136.657 0.523329 6.95634 0
M  V30 1462 H 132.554 -0.592451 6.42775 0
M  V30 1463 H 133.322 0.540545 8.16713 0
M  V30 1464 N 135.985 -1.50799 -0.457987 0
M  V30 1465 C 136.915 -1.73553 -1.5621 0
M  V30 1466 C 137.896 -0.584774 -1.59732 0
M  V30 1467 O 139.081 -0.825314 -1.7579 0
M  V30 1468 C 136.211 -1.84169 -2.94447 0
M  V30 1469 C 135.165 -2.99461 -3.0579 0
M  V30 1470 C 134.491 -2.95235 -4.45803 0
M  V30 1471 C 135.791 -4.39766 -2.81786 0
M  V30 1472 H 137.485 -2.66 -1.37421 0
M  V30 1473 H 135.031 -1.28002 -0.659662 0
M  V30 1474 H 136.984 -1.98672 -3.71628 0
M  V30 1475 H 135.708 -0.883545 -3.14422 0
M  V30 1476 H 134.367 -2.8463 -2.31044 0
M  V30 1477 H 134.015 -1.97239 -4.62715 0
M  V30 1478 H 133.715 -3.72642 -4.54326 0
M  V30 1479 H 135.239 -3.11803 -5.24987 0
M  V30 1480 H 136.653 -4.55054 -3.4871 0
M  V30 1481 H 135.05 -5.18722 -3.0174 0
M  V30 1482 H 136.12 -4.51229 -1.7754 0
M  V30 1483 N 137.463 0.71206 -1.40597 0
M  V30 1484 C 138.74 1.46536 -1.29563 0
M  V30 1485 C 139.12 2.10931 0.0844217 0
M  V30 1486 O 138.468 2.00418 1.0975 0
M  V30 1487 C 138.678 2.49821 -2.43701 0
M  V30 1488 C 140.026 3.15551 -2.841 0
M  V30 1489 O 141.05 2.60142 -2.4332 0
M  V30 1490 O 139.909 4.15867 -3.54566 0
M  V30 1491 H 137.003 0.651801 -0.509004 0
M  V30 1492 H 139.549 0.743935 -1.52524 0
M  V30 1493 H 138.321 2.00778 -3.35863 0
M  V30 1494 H 137.944 3.29495 -2.22528 0
M  V30 1495 N 138.941 1.26152 0.944643 0
M  V30 1496 C 139.851 1.09176 2.07648 0
M  V30 1497 C 140.867 0.0261935 1.7398 0
M  V30 1498 O 142.043 0.229208 2.00091 0
M  V30 1499 C 139.108 0.722915 3.39079 0
M  V30 1500 C 138.169 1.86752 3.86552 0
M  V30 1501 C 137.402 1.51617 5.11711 0
M  V30 1502 O 137.625 0.416331 5.68879 0
M  V30 1503 O 136.559 2.34975 5.54139 0
M  V30 1504 H 140.385 2.0412 2.24875 0
M  V30 1505 H 137.97 1.05182 1.061 0
M  V30 1506 H 139.852 0.529787 4.18056 0
M  V30 1507 H 138.527 -0.197159 3.23099 0
M  V30 1508 H 137.434 2.11558 3.08535 0
M  V30 1509 H 138.767 2.76719 4.07047 0
M  V30 1510 N 140.419 -1.14872 1.07899 0
M  V30 1511 C 141.382 -2.17986 0.708161 0
M  V30 1512 C 142.382 -1.58775 -0.25442 0
M  V30 1513 O 143.572 -1.74166 -0.034645 0
M  V30 1514 C 140.704 -3.40871 0.0446929 0
M  V30 1515 H 141.897 -2.52306 1.62116 0
M  V30 1516 H 139.45 -1.2943 0.876218 0
M  V30 1517 H 140.185 -3.12124 -0.880281 0
M  V30 1518 H 139.97 -3.8511 0.737091 0
M  V30 1519 H 141.46 -4.17121 -0.19991 0
M  V30 1520 N 141.898 -0.863906 -1.31812 0
M  V30 1521 C 143.128 -0.485406 -2.00817 0
M  V30 1522 C 143.536 0.925007 -1.65046 0
M  V30 1523 O 142.879 1.61653 -0.872574 0
M  V30 1524 C 142.941 -0.555589 -3.55181 0
M  V30 1525 C 142.605 -1.92654 -4.14407 0
M  V30 1526 C 143.602 -2.89324 -4.31958 0
M  V30 1527 C 141.287 -2.2262 -4.50273 0
M  V30 1528 C 143.281 -4.14108 -4.84555 0
M  V30 1529 C 140.968 -3.47654 -5.02573 0
M  V30 1530 C 141.966 -4.43214 -5.19664 0
M  V30 1531 O 141.654 -5.66033 -5.70843 0
M  V30 1532 H 141.386 -0.188224 -0.649267 0
M  V30 1533 H 143.94 -1.16514 -1.69156 0
M  V30 1534 H 142.17 0.181037 -3.86276 0
M  V30 1535 H 143.859 -0.19138 -4.05449 0
M  V30 1536 H 144.625 -2.6748 -4.04573 0
M  V30 1537 H 140.504 -1.4902 -4.3625 0
M  V30 1538 H 144.048 -4.88703 -4.9781 0
M  V30 1539 H 139.945 -3.69345 -5.29391 0
M  V30 1540 H 140.713 -5.6812 -5.89222 0
M  V30 1541 N 143.376 1.44774 -0.622745 0
M  V30 1542 C 144.787 1.85546 -0.207226 0
M  V30 1543 C 145.138 1.52093 1.23944 0
M  V30 1544 O 144.263 0.95492 1.94191 0
M  V30 1545 C 144.858 3.36781 -0.369313 0
M  V30 1546 C 143.417 3.76399 -0.00836847 0
M  V30 1547 C 142.564 2.68664 -0.686651 0
M  V30 1548 H 145.515 1.3536 -0.828454 0
M  V30 1549 H 145.536 3.78453 0.394162 0
M  V30 1550 H 145.048 3.61098 -1.42231 0
M  V30 1551 H 143.149 3.57698 1.04322 0
M  V30 1552 H 143.262 4.7732 -0.412584 0
M  V30 1553 H 141.626 2.54404 -0.122777 0
M  V30 1554 H 142.409 2.95815 -1.74208 0
M  V30 1555 N 144.854 0.36279 1.53368 0
M  V30 1556 C 146.102 -0.227326 2.00817 0
M  V30 1557 C 146.423 -1.49511 1.25186 0
M  V30 1558 O 145.693 -1.92482 0.364348 0
M  V30 1559 H 144.273 -0.0869923 0.741917 0
M  V30 1560 H 146.935 0.488381 1.88682 0
M  V30 1561 H 146.031 -0.456273 3.08747 0
M  V30 1562 N 146.332 -1.57332 0.0918853 0
M  V30 1563 C 147.279 -2.13847 -0.868211 0
M  V30 1564 C 148.249 -1.05618 -1.28196 0
M  V30 1565 O 149.434 -1.33387 -1.36427 0
M  V30 1566 C 146.574 -2.72062 -2.12312 0
M  V30 1567 C 145.687 -3.94514 -1.7602 0
M  V30 1568 C 144.822 -4.40903 -2.96273 0
M  V30 1569 C 143.861 -5.55953 -2.56092 0
M  V30 1570 N 142.998 -5.97209 -3.69169 0
M  V30 1571 H 147.838 -2.95575 -0.379406 0
M  V30 1572 H 145.375 -1.46048 -0.175606 0
M  V30 1573 H 147.333 -3.03931 -2.858 0
M  V30 1574 H 145.963 -1.93068 -2.58698 0
M  V30 1575 H 145.015 -3.68979 -0.925135 0
M  V30 1576 H 146.327 -4.7802 -1.42472 0
M  V30 1577 H 145.481 -4.74539 -3.78018 0
M  V30 1578 H 144.22 -3.56291 -3.33029 0
M  V30 1579 H 143.225 -5.21948 -1.72773 0
M  V30 1580 H 144.45 -6.42311 -2.20484 0
M  V30 1581 H 142.396 -5.15543 -4.05649 0
M  V30 1582 H 142.313 -6.75504 -3.39456 0
M  V30 1583 H 143.581 -6.35475 -4.51434 0
M  V30 1584 N 147.81 0.181792 -1.56548 0
M  V30 1585 C 148.757 1.22521 -1.95595 0
M  V30 1586 C 149.727 1.4454 -0.818373 0
M  V30 1587 O 150.912 1.57454 -1.07763 0
M  V30 1588 C 148.052 2.56193 -2.31212 0
M  V30 1589 C 147.165 2.41641 -3.58097 0
M  V30 1590 C 146.3 3.68108 -3.82975 0
M  V30 1591 C 145.339 3.48445 -5.03242 0
M  V30 1592 N 144.476 4.66956 -5.24306 0
M  V30 1593 H 149.316 0.885226 -2.84548 0
M  V30 1594 H 146.853 0.425718 -1.40805 0
M  V30 1595 H 148.811 3.34088 -2.49882 0
M  V30 1596 H 147.441 2.88208 -1.45382 0
M  V30 1597 H 146.493 1.54976 -3.474 0
M  V30 1598 H 147.805 2.23052 -4.46149 0
M  V30 1599 H 146.959 4.54441 -4.01956 0
M  V30 1600 H 145.698 3.89666 -2.93278 0
M  V30 1601 H 144.703 2.60499 -4.8417 0
M  V30 1602 H 145.928 3.2832 -5.9446 0
M  V30 1603 H 143.874 4.88752 -4.37559 0
M  V30 1604 H 143.791 4.51242 -6.06561 0
M  V30 1605 H 145.059 5.54602 -5.47756 0
M  V30 1606 N 149.288 1.51039 0.449983 0
M  V30 1607 C 150.218 1.74379 1.55288 0
M  V30 1608 C 151.199 0.593236 1.5942 0
M  V30 1609 O 152.384 0.834625 1.7535 0
M  V30 1610 C 149.514 1.85728 2.93466 0
M  V30 1611 C 148.468 3.01078 3.04197 0
M  V30 1612 C 147.794 2.97595 4.44231 0
M  V30 1613 C 149.094 4.41254 2.7945 0
M  V30 1614 H 150.788 2.66725 1.36008 0
M  V30 1615 H 148.334 1.2835 0.652864 0
M  V30 1616 H 150.287 2.0064 3.70569 0
M  V30 1617 H 149.011 0.900207 3.13949 0
M  V30 1618 H 147.67 2.85851 2.29531 0
M  V30 1619 H 147.318 1.99691 4.61663 0
M  V30 1620 H 147.018 3.75046 4.52343 0
M  V30 1621 H 148.542 3.14583 5.23326 0
M  V30 1622 H 149.956 4.56897 3.46292 0
M  V30 1623 H 148.353 5.20315 2.98985 0
M  V30 1624 H 149.423 4.52164 1.75144 0
M  V30 1625 N 150.766 -0.704594 1.40972 0
M  V30 1626 C 151.696 -1.83124 1.44872 0
M  V30 1627 C 152.677 -1.67281 0.30838 0
M  V30 1628 O 153.862 -1.87149 0.518556 0
M  V30 1629 C 150.992 -3.21181 1.32136 0
M  V30 1630 C 149.946 -3.51714 2.43888 0
M  V30 1631 C 149.272 -4.89032 2.16222 0
M  V30 1632 C 150.572 -3.516 3.86232 0
M  V30 1633 H 152.266 -1.80117 2.39161 0
M  V30 1634 H 149.812 -0.865145 1.15114 0
M  V30 1635 H 151.765 -3.99702 1.33479 0
M  V30 1636 H 150.489 -3.24791 0.343279 0
M  V30 1637 H 149.148 -2.75539 2.41813 0
M  V30 1638 H 148.796 -4.89256 1.16778 0
M  V30 1639 H 148.496 -5.10426 2.911 0
M  V30 1640 H 150.02 -5.69873 2.19265 0
M  V30 1641 H 151.434 -4.2014 3.9007 0
M  V30 1642 H 149.831 -3.84523 4.60719 0
M  V30 1643 H 150.901 -2.50757 4.15029 0
M  V30 1644 N 152.244 -1.26651 -0.937939 0
M  V30 1645 C 153.655 -1.1125 -1.49934 0
M  V30 1646 C 154.006 0.306077 -1.93798 0
M  V30 1647 O 153.131 1.19792 -1.80219 0
M  V30 1648 C 153.726 -2.01339 -2.72485 0
M  V30 1649 C 152.285 -1.90074 -3.24883 0
M  V30 1650 C 151.432 -1.94498 -1.97651 0
M  V30 1651 H 154.383 -1.39693 -0.753091 0
M  V30 1652 H 154.404 -1.56319 -3.46907 0
M  V30 1653 H 153.916 -3.04577 -2.40529 0
M  V30 1654 H 152.017 -0.897827 -3.61621 0
M  V30 1655 H 152.13 -2.75778 -3.9177 0
M  V30 1656 H 150.494 -1.38591 -2.13693 0
M  V30 1657 H 151.277 -2.99372 -1.68022 0
M  V30 1658 N 153.722 1.14298 -1.08507 0
M  V30 1659 C 154.999 1.81544 -0.728088 0
M  V30 1660 C 155.379 1.95838 0.78808 0
M  V30 1661 O 154.727 1.51904 1.70697 0
M  V30 1662 C 154.937 3.17169 -1.45619 0
M  V30 1663 C 156.285 3.9265 -1.61591 0
M  V30 1664 O 157.309 3.26762 -1.41793 0
M  V30 1665 O 156.168 5.10807 -1.94263 0
M  V30 1666 H 153.262 0.78491 -0.260471 0
M  V30 1667 H 155.808 1.21307 -1.18671 0
M  V30 1668 H 154.58 3.01934 -2.489 0
M  V30 1669 H 154.203 3.851 -0.989124 0
M  V30 1670 N 155.201 0.870884 1.31352 0
M  V30 1671 C 156.478 0.402907 1.91405 0
M  V30 1672 C 156.858 -1.11512 1.79244 0
M  V30 1673 O 156.206 -1.94411 1.2007 0
M  V30 1674 C 156.416 0.885301 3.37585 0
M  V30 1675 C 157.764 0.911971 4.14691 0
M  V30 1676 O 158.788 0.831016 3.46371 0
M  V30 1677 O 157.647 1.02927 5.3672 0
M  V30 1678 H 154.741 0.120698 0.818145 0
M  V30 1679 H 157.287 0.958857 1.40014 0
M  V30 1680 H 156.059 1.92889 3.40455 0
M  V30 1681 H 155.682 0.307714 3.96407 0
M  V30 1682 N 156.679 -1.44442 0.630414 0
M  V30 1683 C 158.09 -1.85434 0.217063 0
M  V30 1684 C 158.441 -1.52748 -1.23136 0
M  V30 1685 O 157.566 -0.965205 -1.93682 0
M  V30 1686 C 158.161 -3.36581 0.387168 0
M  V30 1687 C 156.72 -3.76389 0.0283297 0
M  V30 1688 C 155.867 -2.68296 0.700889 0
M  V30 1689 H 158.818 -1.34919 0.83562 0
M  V30 1690 H 158.839 -3.78657 -0.374086 0
M  V30 1691 H 158.351 -3.60339 1.44144 0
M  V30 1692 H 156.452 -3.58246 -1.02423 0
M  V30 1693 H 156.565 -4.77095 0.437892 0
M  V30 1694 H 154.929 -2.54335 0.136267 0
M  V30 1695 H 155.712 -2.94887 1.75774 0
M  V30 1696 N 158.157 -0.370918 -1.53173 0
M  V30 1697 C 159.387 0.217389 -2.05453 0
M  V30 1698 C 159.795 1.42568 -1.24382 0
M  V30 1699 O 159.138 1.81571 -0.278839 0
M  V30 1700 C 159.2 0.669827 -3.53205 0
M  V30 1701 C 158.864 -0.4225 -4.55043 0
M  V30 1702 C 159.861 -1.27407 -5.04047 0
M  V30 1703 C 157.546 -0.58427 -4.9889 0
M  V30 1704 C 159.54 -2.27271 -5.95505 0
M  V30 1705 C 157.227 -1.58627 -5.90153 0
M  V30 1706 C 158.225 -2.42892 -6.38351 0
M  V30 1707 O 157.913 -3.41382 -7.27814 0
M  V30 1708 H 157.645 0.0408171 -0.674767 0
M  V30 1709 H 160.199 -0.5292 -1.98466 0
M  V30 1710 H 158.429 1.4681 -3.57748 0
M  V30 1711 H 160.118 1.18173 -3.88317 0
M  V30 1712 H 160.884 -1.16031 -4.70916 0
M  V30 1713 H 156.763 0.061851 -4.60959 0
M  V30 1714 H 160.307 -2.93079 -6.33049 0
M  V30 1715 H 156.204 -1.70048 -6.22699 0
M  V30 1716 H 156.972 -3.37173 -7.45826 0
M  V30 1717 N 159.635 1.57281 -0.100228 0
M  V30 1718 C 160.545 2.17833 0.870965 0
M  V30 1719 C 161.561 1.14921 1.30649 0
M  V30 1720 O 162.737 1.47313 1.37335 0
M  V30 1721 C 159.802 2.75085 2.1102 0
M  V30 1722 C 158.863 3.9297 1.72838 0
M  V30 1723 C 158.096 4.47482 2.90854 0
M  V30 1724 O 158.319 4.00922 4.05731 0
M  V30 1725 O 157.253 5.38433 2.69023 0
M  V30 1726 H 161.079 3.0124 0.38575 0
M  V30 1727 H 158.664 1.48881 0.124397 0
M  V30 1728 H 160.546 3.11656 2.83634 0
M  V30 1729 H 159.221 1.94721 2.58584 0
M  V30 1730 H 158.128 3.61201 0.973883 0
M  V30 1731 H 159.461 4.74713 1.30033 0
M  V30 1732 N 161.113 -0.173488 1.56642 0
M  V30 1733 C 162.06 -1.21482 1.96242 0
M  V30 1734 C 163.03 -1.44104 0.826027 0
M  V30 1735 O 164.215 -1.5688 1.08597 0
M  V30 1736 C 161.355 -2.54964 2.32567 0
M  V30 1737 C 160.468 -2.39739 3.59373 0
M  V30 1738 C 159.603 -3.66072 3.84921 0
M  V30 1739 C 158.642 -3.45771 5.05083 0
M  V30 1740 N 157.779 -4.64169 5.26775 0
M  V30 1741 H 162.619 -0.870123 2.85014 0
M  V30 1742 H 160.156 -0.418245 1.41029 0
M  V30 1743 H 162.114 -3.32758 2.5165 0
M  V30 1744 H 160.744 -2.87433 1.46908 0
M  V30 1745 H 159.796 -1.53131 3.48217 0
M  V30 1746 H 161.108 -2.20683 4.47326 0
M  V30 1747 H 160.262 -4.52303 4.0436 0
M  V30 1748 H 159.001 -3.88105 2.9534 0
M  V30 1749 H 158.006 -2.57927 4.85545 0
M  V30 1750 H 159.231 -3.25163 5.96193 0
M  V30 1751 H 157.177 -4.86425 4.40144 0
M  V30 1752 H 157.094 -4.48019 6.08946 0
M  V30 1753 H 158.362 -5.51689 5.5069 0
M  V30 1754 N 162.591 -1.51276 -0.441967 0
M  V30 1755 C 163.554 -1.7167 -1.51862 0
M  V30 1756 C 164.554 -0.586793 -1.49711 0
M  V30 1757 O 165.744 -0.854276 -1.51815 0
M  V30 1758 C 162.876 -1.76889 -2.91416 0
M  V30 1759 H 164.069 -2.67754 -1.35084 0
M  V30 1760 H 161.622 -1.41196 -0.670333 0
M  V30 1761 H 162.357 -0.826026 -3.13604 0
M  V30 1762 H 162.142 -2.59001 -2.94382 0
M  V30 1763 H 163.632 -1.94522 -3.69528 0
M  V30 1764 N 164.069 0.697108 -1.41344 0
M  V30 1765 C 165.309 1.46939 -1.42085 0
M  V30 1766 C 165.673 1.9198 -0.0280397 0
M  V30 1767 O 166.874 2.6865 0.0897504 0
M  V30 1768 C 165.145 2.64985 -2.39828 0
M  V30 1769 S 166.704 3.54147 -2.59085 0
M  V30 1770 H 163.522 0.502146 -0.503359 0
M  V30 1771 H 166.124 0.813546 -1.77769 0
M  V30 1772 H 164.828 2.30098 -3.39828 0
M  V30 1773 H 164.359 3.35464 -2.05493 0
M  V30 1774 H 166.374 4.60137 -1.85711 0
M  V30 1775 N 165.547 1.27147 0.931209 0
M  V30 1776 C 166.479 1.05364 2.03546 0
M  V30 1777 C 167.492 0.0108438 1.62796 0
M  V30 1778 O 168.681 0.25202 1.76712 0
M  V30 1779 C 165.781 0.575566 3.33977 0
M  V30 1780 C 164.954 1.68985 4.03439 0
M  V30 1781 C 164.013 1.20813 5.12143 0
M  V30 1782 O 163.039 1.90712 5.363 0
M  V30 1783 N 164.241 0.0618851 5.80467 0
M  V30 1784 H 167.006 2.00454 2.22796 0
M  V30 1785 H 164.567 1.18666 1.10136 0
M  V30 1786 H 166.559 0.237264 4.04004 0
M  V30 1787 H 165.129 -0.282016 3.11325 0
M  V30 1788 H 164.349 2.19861 3.27192 0
M  V30 1789 H 165.637 2.4378 4.46597 0
M  V30 1790 H 165.035 -0.521621 5.6329 0
M  V30 1791 H 163.592 -0.217264 6.51438 0
M  V30 1792 N 167.025 -1.13721 1.09112 0
M  V30 1793 C 167.972 -2.19031 0.727591 0
M  V30 1794 C 168.942 -1.63555 -0.289656 0
M  V30 1795 O 170.127 -1.90023 -0.172026 0
M  V30 1796 C 167.267 -3.4477 0.15082 0
M  V30 1797 C 166.38 -4.14365 1.22172 0
M  V30 1798 C 165.515 -5.27709 0.608042 0
M  V30 1799 C 164.554 -5.89147 1.66047 0
M  V30 1800 N 163.691 -6.93929 1.06806 0
M  V30 1801 H 168.531 -2.49475 1.62991 0
M  V30 1802 H 166.068 -1.22499 0.81439 0
M  V30 1803 H 168.026 -4.16714 -0.201358 0
M  V30 1804 H 166.656 -3.14787 -0.714783 0
M  V30 1805 H 165.708 -3.40737 1.69122 0
M  V30 1806 H 167.02 -4.56114 2.01895 0
M  V30 1807 H 166.174 -6.06355 0.204523 0
M  V30 1808 H 164.913 -4.872 -0.220769 0
M  V30 1809 H 163.918 -5.09198 2.07357 0
M  V30 1810 H 165.143 -6.31729 2.49189 0
M  V30 1811 H 163.089 -6.55483 0.260476 0
M  V30 1812 H 163.006 -7.34202 1.8023 0
M  V30 1813 H 164.274 -7.76434 0.690644 0
M  V30 1814 N 168.503 -0.877838 -1.30888 0
M  V30 1815 C 169.436 -0.283995 -2.26426 0
M  V30 1816 C 170.414 0.591361 -1.51465 0
M  V30 1817 O 171.598 0.54304 -1.80509 0
M  V30 1818 C 168.725 0.597129 -3.33395 0
M  V30 1819 C 167.771 -0.207937 -4.25993 0
M  V30 1820 S 168.604 -1.59158 -5.11301 0
M  V30 1821 C 169.76 -0.716791 -6.21782 0
M  V30 1822 H 169.993 -1.09383 -2.76446 0
M  V30 1823 H 167.526 -0.676828 -1.38775 0
M  V30 1824 H 169.484 1.09978 -3.95493 0
M  V30 1825 H 168.145 1.38099 -2.82113 0
M  V30 1826 H 167.338 0.464163 -5.01858 0
M  V30 1827 H 166.94 -0.642963 -3.68432 0
M  V30 1828 H 169.232 0.0692833 -6.77465 0
M  V30 1829 H 170.175 -1.44682 -6.93161 0
M  V30 1830 H 170.583 -0.280855 -5.63801 0
M  V30 1831 N 169.982 1.44106 -0.638065 0
M  V30 1832 C 171.231 2.01194 -0.142744 0
M  V30 1833 C 171.544 1.50835 1.24532 0
M  V30 1834 O 172.75 2.00096 1.83504 0
M  V30 1835 C 171.206 3.59319 -0.20442 0
M  V30 1836 C 170.814 4.18674 -1.59423 0
M  V30 1837 C 172.558 4.23854 0.234079 0
M  V30 1838 C 170.465 5.69045 -1.61065 0
M  V30 1839 H 169.395 0.752367 -0.0495998 0
M  V30 1840 H 172.046 1.65246 -0.797881 0
M  V30 1841 H 170.428 3.92598 0.517946 0
M  V30 1842 H 171.602 3.96921 -2.34074 0
M  V30 1843 H 169.917 3.66453 -1.97741 0
M  V30 1844 H 172.514 5.34155 0.241443 0
M  V30 1845 H 172.857 3.96688 1.2627 0
M  V30 1846 H 173.39 3.95403 -0.436025 0
M  V30 1847 H 170.129 6.00956 -2.61787 0
M  V30 1848 H 169.649 5.929 -0.90718 0
M  V30 1849 H 171.328 6.32809 -1.34766 0
M  V30 1850 N 171.46 0.379036 1.52974 0
M  V30 1851 C 172.39 -0.452706 2.29069 0
M  V30 1852 C 173.371 -1.07237 1.32039 0
M  V30 1853 O 174.556 -1.08708 1.60923 0
M  V30 1854 C 171.686 -1.5856 3.08992 0
M  V30 1855 C 170.64 -1.0925 4.13822 0
M  V30 1856 C 169.966 -2.31668 4.81907 0
M  V30 1857 C 171.266 -0.167702 5.22031 0
M  V30 1858 H 172.96 0.182181 2.98845 0
M  V30 1859 H 170.506 0.0890592 1.43724 0
M  V30 1860 H 172.459 -2.1742 3.6098 0
M  V30 1861 H 171.183 -2.24792 2.36931 0
M  V30 1862 H 169.842 -0.526494 3.628 0
M  V30 1863 H 169.49 -2.96386 4.06404 0
M  V30 1864 H 169.19 -1.9934 5.52754 0
M  V30 1865 H 170.714 -2.91189 5.36695 0
M  V30 1866 H 172.128 -0.664186 5.6944 0
M  V30 1867 H 170.525 0.0653265 6.00064 0
M  V30 1868 H 171.595 0.786347 4.78482 0
M  V30 1869 N 172.938 -1.57226 0.108567 0
M  V30 1870 C 173.848 -2.18292 -0.859401 0
M  V30 1871 C 174.864 -1.15612 -1.30038 0
M  V30 1872 O 176.04 -1.48039 -1.36552 0
M  V30 1873 C 173.105 -2.762 -2.09558 0
M  V30 1874 C 172.166 -3.93881 -1.70752 0
M  V30 1875 C 171.399 -4.49018 -2.88477 0
M  V30 1876 O 171.622 -4.03068 -4.036 0
M  V30 1877 O 170.556 -5.39852 -2.66164 0
M  V30 1878 H 174.382 -3.01441 -0.369769 0
M  V30 1879 H 171.967 -1.48945 -0.1165 0
M  V30 1880 H 173.849 -3.13156 -2.81978 0
M  V30 1881 H 172.524 -1.96089 -2.57548 0
M  V30 1882 H 171.431 -3.61713 -0.954714 0
M  V30 1883 H 172.764 -4.75396 -1.27513 0
M  V30 1884 N 174.416 0.165178 -1.56732 0
M  V30 1885 C 175.346 1.20651 -1.99914 0
M  V30 1886 C 176.327 1.45827 -0.875705 0
M  V30 1887 O 177.512 1.57057 -1.14223 0
M  V30 1888 C 174.642 2.54401 -2.36427 0
M  V30 1889 C 173.596 2.43782 -3.51787 0
M  V30 1890 C 172.922 3.82078 -3.7406 0
M  V30 1891 C 174.222 1.93732 -4.85041 0
M  V30 1892 H 175.916 0.847534 -2.87154 0
M  V30 1893 H 173.462 0.40625 -1.38151 0
M  V30 1894 H 175.415 3.27458 -2.65234 0
M  V30 1895 H 174.139 2.92098 -1.46103 0
M  V30 1896 H 172.798 1.73178 -3.23117 0
M  V30 1897 H 172.446 4.17179 -2.81017 0
M  V30 1898 H 172.146 3.7584 -4.51684 0
M  V30 1899 H 173.67 4.56712 -4.05274 0
M  V30 1900 H 175.084 2.56569 -5.12684 0
M  V30 1901 H 173.481 1.98428 -5.66345 0
M  V30 1902 H 174.551 0.891962 -4.76626 0
M  V30 1903 N 175.894 1.51508 0.433938 0
M  V30 1904 C 177.141 1.64345 1.18309 0
M  V30 1905 C 177.469 0.361315 1.91115 0
M  V30 1906 O 176.724 -0.654753 1.84422 0
M  V30 1907 C 177.023 2.79928 2.22205 0
M  V30 1908 C 176.689 4.19078 1.66387 0
M  V30 1909 C 175.351 4.56932 1.50887 0
M  V30 1910 C 177.703 5.05894 1.25381 0
M  V30 1911 C 175.031 5.79305 0.928608 0
M  V30 1912 C 177.383 6.2885 0.687823 0
M  V30 1913 C 176.047 6.65473 0.519755 0
M  V30 1914 H 175.317 0.601381 0.432923 0
M  V30 1915 H 177.964 1.85549 0.473676 0
M  V30 1916 H 176.269 2.52959 2.99197 0
M  V30 1917 H 177.966 2.87059 2.79997 0
M  V30 1918 H 174.556 3.89234 1.79428 0
M  V30 1919 H 178.74 4.77253 1.36175 0
M  V30 1920 H 173.996 6.06324 0.786186 0
M  V30 1921 H 178.17 6.95461 0.361581 0
M  V30 1922 H 175.797 7.6017 0.0679979 0
M  V30 1923 N 177.372 -0.689602 1.41712 0
M  V30 1924 C 178.597 -1.48329 1.44959 0
M  V30 1925 C 179.022 -1.8801 0.0581283 0
M  V30 1926 O 178.38 -1.55026 -0.940035 0
M  V30 1927 C 178.428 -2.71835 2.36935 0
M  V30 1928 O 177.532 -3.69549 1.8305 0
M  V30 1929 H 176.873 -0.446199 0.491734 0
M  V30 1930 H 179.403 -0.847127 1.86239 0
M  V30 1931 H 179.413 -3.20076 2.53013 0
M  V30 1932 H 178.088 -2.42291 3.38035 0
M  V30 1933 H 176.665 -3.2851 1.76452 0
M  V30 1934 N 178.85 -1.27639 -0.924453 0
M  V30 1935 C 179.797 -1.10644 -2.0255 0
M  V30 1936 C 180.767 -0.00658438 -1.66099 0
M  V30 1937 O 181.952 -0.16952 -1.90045 0
M  V30 1938 C 179.092 -0.76309 -3.36557 0
M  V30 1939 C 178.205 -1.94091 -3.85944 0
M  V30 1940 C 177.34 -1.53914 -5.08413 0
M  V30 1941 C 176.379 -2.68425 -5.50104 0
M  V30 1942 N 175.516 -2.28815 -6.63768 0
M  V30 1943 H 180.356 -2.04858 -2.16419 0
M  V30 1944 H 177.893 -1.01974 -1.06017 0
M  V30 1945 H 179.851 -0.544822 -4.13627 0
M  V30 1946 H 178.481 0.142102 -3.22487 0
M  V30 1947 H 177.533 -2.27162 -3.05125 0
M  V30 1948 H 178.845 -2.7998 -4.12811 0
M  V30 1949 H 177.999 -1.28231 -5.92994 0
M  V30 1950 H 176.738 -0.651391 -4.8333 0
M  V30 1951 H 175.743 -2.94819 -4.64071 0
M  V30 1952 H 176.968 -3.57826 -5.7718 0
M  V30 1953 H 174.914 -1.42495 -6.40337 0
M  V30 1954 H 174.831 -3.08242 -6.90306 0
M  V30 1955 H 176.099 -2.06387 -7.51681 0
M  V30 1956 N 180.328 1.1314 -1.09713 0
M  V30 1957 C 181.574 1.84757 -0.836224 0
M  V30 1958 C 181.907 1.8347 0.636598 0
M  V30 1959 O 181.182 1.27491 1.46889 0
M  V30 1960 C 181.465 3.32782 -1.37578 0
M  V30 1961 C 181.318 3.42567 -2.91493 0
M  V30 1962 C 182.637 4.28307 -1.01198 0
M  V30 1963 H 179.756 0.67082 -0.305236 0
M  V30 1964 H 182.398 1.3278 -1.35903 0
M  V30 1965 H 180.548 3.77177 -0.931097 0
M  V30 1966 H 182.22 3.06862 -3.44432 0
M  V30 1967 H 180.463 2.83349 -3.28475 0
M  V30 1968 H 181.134 4.46674 -3.24324 0
M  V30 1969 H 183.61 3.91999 -1.39556 0
M  V30 1970 H 182.486 5.30307 -1.41653 0
M  V30 1971 H 182.747 4.42029 0.0794833 0
M  V30 1972 N 181.806 0.884767 1.30421 0
M  V30 1973 C 183.217 0.553656 1.78302 0
M  V30 1974 C 183.568 -0.930153 1.7275 0
M  V30 1975 O 182.693 -1.72681 1.30423 0
M  V30 1976 C 183.288 0.998234 3.2376 0
M  V30 1977 C 181.847 0.71854 3.69478 0
M  V30 1978 C 180.994 1.18132 2.50879 0
M  V30 1979 H 183.945 1.06901 1.17294 0
M  V30 1980 H 183.966 0.327118 3.79091 0
M  V30 1981 H 183.478 2.0782 3.27769 0
M  V30 1982 H 181.579 -0.349444 3.70958 0
M  V30 1983 H 181.692 1.30595 4.60958 0
M  V30 1984 H 180.056 0.600669 2.47516 0
M  V30 1985 H 180.839 2.26902 2.57624 0
M  V30 1986 N 183.284 -1.43765 0.645699 0
M  V30 1987 C 184.509 -2.06767 0.161883 0
M  V30 1988 C 184.934 -1.48034 -1.16049 0
M  V30 1989 O 184.292 -0.587369 -1.71522 0
M  V30 1990 C 184.34 -3.60519 0.0762003 0
M  V30 1991 O 183.444 -4.00982 -0.963721 0
M  V30 1992 H 182.785 -0.657675 0.091429 0
M  V30 1993 H 185.315 -1.84397 0.886499 0
M  V30 1994 H 185.325 -4.07853 -0.109604 0
M  V30 1995 H 184 -4.02646 1.04157 0
M  V30 1996 H 182.577 -3.65253 -0.751312 0
M  V30 1997 N 184.763 -0.387143 -1.52771 0
M  V30 1998 C 185.693 0.440551 -2.29306 0
M  V30 1999 C 186.674 1.06535 -1.32606 0
M  V30 2000 O 187.859 1.07853 -1.61497 0
M  V30 2001 C 184.989 1.56919 -3.09829 0
M  V30 2002 C 183.943 1.07054 -4.14395 0
M  V30 2003 C 183.269 2.29109 -4.83129 0
M  V30 2004 C 184.569 0.140015 -5.22112 0
M  V30 2005 H 186.263 -0.198026 -2.98744 0
M  V30 2006 H 183.809 -0.09668 -1.43675 0
M  V30 2007 H 185.762 2.15503 -3.62128 0
M  V30 2008 H 184.486 2.23532 -2.3812 0
M  V30 2009 H 183.145 0.507247 -3.63074 0
M  V30 2010 H 182.793 2.94227 -4.0797 0
M  V30 2011 H 182.493 1.96406 -5.53804 0
M  V30 2012 H 184.017 2.88339 -5.38231 0
M  V30 2013 H 185.431 0.633978 -5.69784 0
M  V30 2014 H 183.828 -0.0971485 -6.00021 0
M  V30 2015 H 184.898 -0.811711 -4.78058 0
M  V30 2016 N 186.241 1.57166 -0.116904 0
M  V30 2017 C 187.487 1.95412 0.542405 0
M  V30 2018 C 187.82 1.00019 1.66463 0
M  V30 2019 O 187.095 0.0370346 1.94465 0
M  V30 2020 C 187.378 3.43615 1.07708 0
M  V30 2021 C 187.231 4.49781 -0.0415868 0
M  V30 2022 C 188.55 3.93616 1.96861 0
M  V30 2023 H 185.669 0.710543 0.195696 0
M  V30 2024 H 188.311 1.89027 -0.192038 0
M  V30 2025 H 186.461 3.49187 1.70296 0
M  V30 2026 H 188.133 4.56308 -0.676793 0
M  V30 2027 H 186.376 4.28033 -0.705019 0
M  V30 2028 H 187.047 5.50733 0.373717 0
M  V30 2029 H 189.523 3.90335 1.44146 0
M  V30 2030 H 188.399 4.97838 2.3119 0
M  V30 2031 H 188.66 3.34188 2.89432 0
M  V30 2032 N 187.719 -0.156864 1.56817 0
M  V30 2033 C 188.967 -0.869404 1.82444 0
M  V30 2034 C 189.288 -1.82147 0.69623 0
M  V30 2035 O 188.558 -1.93847 -0.28287 0
M  V30 2036 H 187.138 -0.324043 0.673056 0
M  V30 2037 H 189.8 -0.153224 1.94297 0
M  V30 2038 H 188.896 -1.43761 2.77019 0
M  V30 2039 N 189.197 -1.51736 -0.425897 0
M  V30 2040 C 190.422 -1.69082 -1.20108 0
M  V30 2041 C 190.847 -0.392398 -1.83962 0
M  V30 2042 O 190.205 0.64858 -1.69302 0
M  V30 2043 C 190.253 -2.81604 -2.25237 0
M  V30 2044 O 189.357 -2.46004 -3.30992 0
M  V30 2045 H 188.698 -0.563408 -0.35138 0
M  V30 2046 H 191.228 -1.98358 -0.501512 0
M  V30 2047 H 191.238 -3.06025 -2.69838 0
M  V30 2048 H 189.913 -3.75817 -1.78142 0
M  V30 2049 H 188.49 -2.32195 -2.91787 0
M  V30 2050 N 190.675 0.682077 -1.42076 0
M  V30 2051 C 191.922 1.44215 -1.42156 0
M  V30 2052 C 192.25 1.94468 -0.0354186 0
M  V30 2053 O 191.505 1.70816 0.955002 0
M  V30 2054 C 191.804 2.66036 -2.38662 0
M  V30 2055 C 191.47 2.34366 -3.85206 0
M  V30 2056 C 190.132 2.25439 -4.25124 0
M  V30 2057 C 192.484 2.08513 -4.77673 0
M  V30 2058 C 189.812 1.88775 -5.55501 0
M  V30 2059 C 192.164 1.73354 -6.08384 0
M  V30 2060 C 190.828 1.62933 -6.47309 0
M  V30 2061 H 190.098 0.527718 -0.520187 0
M  V30 2062 H 192.745 0.778387 -1.74967 0
M  V30 2063 H 191.05 3.3741 -1.99152 0
M  V30 2064 H 192.747 3.24205 -2.35991 0
M  V30 2065 H 189.337 2.42213 -3.53597 0
M  V30 2066 H 193.521 2.14346 -4.47626 0
M  V30 2067 H 188.777 1.7927 -5.84527 0
M  V30 2068 H 192.951 1.52373 -6.79526 0
M  V30 2069 H 190.578 1.34292 -7.48244 0
M  V30 2070 N 192.153 1.28127 0.917671 0
M  V30 2071 C 193.402 1.14432 1.66097 0
M  V30 2072 C 193.715 -0.307247 1.93172 0
M  V30 2073 O 194.921 -0.565259 2.65551 0
M  V30 2074 C 193.377 2.00015 2.99202 0
M  V30 2075 C 192.985 3.49889 2.79789 0
M  V30 2076 C 194.729 1.94996 3.77064 0
M  V30 2077 C 192.636 4.27636 4.08511 0
M  V30 2078 H 191.566 0.424662 0.62304 0
M  V30 2079 H 194.217 1.52628 1.01868 0
M  V30 2080 H 192.599 1.54672 3.64544 0
M  V30 2081 H 193.773 4.03162 2.23152 0
M  V30 2082 H 192.088 3.56392 2.15345 0
M  V30 2083 H 194.685 2.50354 4.72469 0
M  V30 2084 H 195.028 0.925819 4.05875 0
M  V30 2085 H 195.561 2.38287 3.18534 0
M  V30 2086 H 192.3 5.30615 3.84874 0
M  V30 2087 H 191.82 3.79137 4.64774 0
M  V30 2088 H 193.499 4.37346 4.76799 0
M  V30 2089 N 193.631 -1.12557 1.10312 0
M  V30 2090 C 195.047 -1.36036 0.834649 0
M  V30 2091 C 195.247 -1.93946 -0.546539 0
M  V30 2092 O 194.303 -2.16484 -1.29966 0
M  V30 2093 C 195.616 -2.30312 1.9333 0
M  V30 2094 C 197.164 -2.43906 1.9616 0
M  V30 2095 C 197.639 -3.41496 3.05195 0
M  V30 2096 N 199.13 -3.49053 3.04494 0
M  V30 2097 C 199.865 -4.24471 3.85502 0
M  V30 2098 N 199.361 -5.02966 4.76442 0
M  V30 2099 N 201.154 -4.19864 3.73725 0
M  V30 2100 H 193.305 -0.733246 1.99342 0
M  V30 2101 H 195.568 -0.385234 0.866198 0
M  V30 2102 H 195.274 -1.94933 2.92735 0
M  V30 2103 H 195.148 -3.30421 1.81939 0
M  V30 2104 H 197.535 -2.78567 0.973886 0
M  V30 2105 H 197.616 -1.4369 2.11629 0
M  V30 2106 H 197.26 -3.07565 4.04186 0
M  V30 2107 H 197.19 -4.41539 2.86968 0
M  V30 2108 H 199.681 -2.93053 2.38596 0
M  V30 2109 H 199.994 -5.57846 5.34815 0
M  V30 2110 H 198.339 -5.02167 4.80472 0
M  V30 2111 H 201.53 -3.57623 3.02032 0
M  V30 2112 H 201.703 -4.78386 4.37093 0
M  V30 2113 N 195.109 -0.891671 -1.2995 0
M  V30 2114 C 196.334 -0.527932 -2.00568 0
M  V30 2115 C 196.759 0.877969 -1.66353 0
M  V30 2116 O 196.117 1.58301 -0.883762 0
M  V30 2117 C 196.165 -0.717745 -3.53385 0
M  V30 2118 O 195.269 0.233376 -4.11739 0
M  V30 2119 H 194.61 -0.20722 -0.630837 0
M  V30 2120 H 197.14 -1.20105 -1.65638 0
M  V30 2121 H 197.15 -0.619307 -4.03272 0
M  V30 2122 H 195.825 -1.74276 -3.77625 0
M  V30 2123 H 194.402 0.0880706 -3.72796 0
M  V30 2124 N 196.587 1.43421 -0.653314 0
M  V30 2125 C 197.519 2.29071 0.0769134 0
M  V30 2126 C 198.532 1.42513 0.787017 0
M  V30 2127 O 199.721 1.66449 0.644757 0
M  V30 2128 C 196.821 3.19436 1.13199 0
M  V30 2129 C 195.994 4.34533 0.500006 0
M  V30 2130 C 195.053 5.05771 1.45198 0
M  V30 2131 O 194.079 5.61037 0.960538 0
M  V30 2132 N 195.281 5.0928 2.78594 0
M  V30 2133 H 198.046 2.92382 -0.658235 0
M  V30 2134 H 195.607 1.54112 -0.496104 0
M  V30 2135 H 197.599 3.63958 1.76964 0
M  V30 2136 H 196.169 2.57724 1.7691 0
M  V30 2137 H 195.389 3.92925 -0.316738 0
M  V30 2138 H 196.677 5.08766 0.0588345 0
M  V30 2139 H 196.075 4.65751 3.2108 0
M  V30 2140 H 194.632 5.57519 3.37662 0
M  V30 2141 N 198.065 0.39524 1.52563 0
M  V30 2142 C 199.013 -0.451859 2.28169 0
M  V30 2143 C 200.007 -1.05792 1.32304 0
M  V30 2144 O 201.213 -0.997718 1.49818 0
M  V30 2145 H 197.588 -0.164481 0.733792 0
M  V30 2146 H 199.559 0.207199 2.9768 0
M  V30 2147 C 198.308 -1.56385 3.10546 0
M  V30 2148 H 197.631 -1.10682 3.84174 0
M  V30 2149 H 199.071 -2.13067 3.66577 0
M  V30 2150 C 197.53 -2.52328 2.23231 0
M  V30 2151 O 198.06 -3.5588 1.86312 0
M  V30 2152 N 196.266 -2.22209 1.87274 0
M  V30 2153 H 195.813 -1.38033 2.17496 0
M  V30 2154 H 195.771 -2.86652 1.29143 0
M  V30 2155 N 199.544 -1.57102 0.125237 0
M  V30 2156 C 200.491 -2.15641 -0.822655 0
M  V30 2157 C 201.461 -1.08313 -1.25927 0
M  V30 2158 O 202.646 -1.36251 -1.33567 0
M  V30 2159 C 199.786 -2.76504 -2.06494 0
M  V30 2160 C 198.899 -3.98158 -1.67612 0
M  V30 2161 C 198.034 -4.47088 -2.86854 0
M  V30 2162 C 197.073 -5.6126 -2.44242 0
M  V30 2163 N 196.21 -6.04905 -3.56419 0
M  V30 2164 H 201.05 -2.96313 -0.316625 0
M  V30 2165 H 198.587 -1.46388 -0.144588 0
M  V30 2166 H 200.545 -3.09925 -2.79289 0
M  V30 2167 H 199.175 -1.98512 -2.54545 0
M  V30 2168 H 198.227 -3.70858 -0.846661 0
M  V30 2169 H 199.539 -4.80934 -1.32301 0
M  V30 2170 H 198.693 -4.82451 -3.67867 0
M  V30 2171 H 197.432 -3.63275 -3.25396 0
M  V30 2172 H 196.437 -5.25495 -1.61663 0
M  V30 2173 H 197.662 -6.46843 -2.0681 0
M  V30 2174 H 195.608 -5.24032 -3.94623 0
M  V30 2175 H 195.525 -6.82552 -3.25051 0
M  V30 2176 H 196.793 -6.44907 -4.37853 0
M  V30 2177 N 201.022 0.148545 -1.56898 0
M  V30 2178 C 201.932 1.20293 -2.01412 0
M  V30 2179 C 202.948 1.47107 -0.929273 0
M  V30 2180 O 204.124 1.58807 -1.23863 0
M  V30 2181 C 201.189 2.51682 -2.38447 0
M  V30 2182 C 200.25 2.32529 -3.60872 0
M  V30 2183 C 199.483 3.57653 -3.96132 0
M  V30 2184 O 199.706 4.63771 -3.32073 0
M  V30 2185 O 198.64 3.50408 -4.89385 0
M  V30 2186 H 202.466 0.855025 -2.91416 0
M  V30 2187 H 200.051 0.357151 -1.45068 0
M  V30 2188 H 201.933 3.29147 -2.63135 0
M  V30 2189 H 200.608 2.86006 -1.51599 0
M  V30 2190 H 199.515 1.53019 -3.41373 0
M  V30 2191 H 200.848 2.03121 -4.48333 0
M  V30 2192 N 202.5 1.5196 0.417844 0
M  V30 2193 C 203.777 1.56146 1.17803 0
M  V30 2194 C 204.157 0.337275 2.08388 0
M  V30 2195 O 203.505 -0.676447 2.18258 0
M  V30 2196 C 203.715 2.88566 1.96293 0
M  V30 2197 C 205.063 3.41244 2.52662 0
M  V30 2198 O 206.087 2.90247 2.06483 0
M  V30 2199 O 204.946 4.30273 3.36938 0
M  V30 2200 H 202.04 0.628598 0.537395 0
M  V30 2201 H 204.586 1.64283 0.425331 0
M  V30 2202 H 203.358 3.69116 1.2988 0
M  V30 2203 H 202.981 2.83681 2.78587 0
M  V30 2204 N 203.978 -0.674533 1.42435 0
M  V30 2205 C 205.208 -1.46071 1.46105 0
M  V30 2206 C 205.616 -1.89067 0.0709605 0
M  V30 2207 O 204.959 -1.58731 -0.924677 0
M  V30 2208 C 205.021 -2.74145 2.32561 0
M  V30 2209 C 204.685 -2.53224 3.8043 0
M  V30 2210 C 205.682 -2.17809 4.72075 0
M  V30 2211 C 203.367 -2.6821 4.24698 0
M  V30 2212 C 205.361 -1.97648 6.05982 0
M  V30 2213 C 203.048 -2.47665 5.58664 0
M  V30 2214 C 204.046 -2.12437 6.49122 0
M  V30 2215 O 203.734 -1.9209 7.80613 0
M  V30 2216 H 203.466 -0.455959 0.499076 0
M  V30 2217 H 206.02 -0.836193 1.87609 0
M  V30 2218 H 204.25 -3.3908 1.85908 0
M  V30 2219 H 205.939 -3.36028 2.27683 0
M  V30 2220 H 206.705 -2.05826 4.39159 0
M  V30 2221 H 202.584 -2.94609 3.54579 0
M  V30 2222 H 206.128 -1.70075 6.7655 0
M  V30 2223 H 202.025 -2.59244 5.91154 0
M  V30 2224 H 202.793 -2.06686 7.91974 0
M  V30 2225 N 205.456 -1.28612 -0.910864 0
M  V30 2226 C 206.419 -1.12803 -1.9952 0
M  V30 2227 C 207.419 -0.0668264 -1.60661 0
M  V30 2228 O 208.609 -0.312847 -1.71368 0
M  V30 2229 C 205.741 -0.72254 -3.33155 0
M  V30 2230 H 206.934 -2.09109 -2.14973 0
M  V30 2231 H 204.487 -1.11639 -1.09391 0
M  V30 2232 H 205.222 0.241152 -3.23402 0
M  V30 2233 H 205.007 -1.48916 -3.62721 0
M  V30 2234 H 206.497 -0.634666 -4.12749 0
M  V30 2235 N 206.934 1.1197 -1.10907 0
M  V30 2236 C 208.182 1.83225 -0.852819 0
M  V30 2237 C 208.503 1.84769 0.623341 0
M  V30 2238 O 207.773 1.3143 1.45269 0
M  V30 2239 H 206.353 0.67849 -0.312507 0
M  V30 2240 H 209.015 1.3556 -1.40033 0
M  V30 2241 H 208.111 2.87265 -1.22005 0
M  V30 2242 N 208.412 0.89855 1.29475 0
M  V30 2243 C 209.342 0.39201 2.30186 0
M  V30 2244 C 210.323 -0.532359 1.61555 0
M  V30 2245 O 211.508 -0.443331 1.89072 0
M  V30 2246 C 208.638 -0.382353 3.45189 0
M  V30 2247 C 207.592 0.451483 4.25612 0
M  V30 2248 C 206.918 -0.450307 5.328 0
M  V30 2249 C 208.218 1.70079 4.93832 0
M  V30 2250 H 209.912 1.23362 2.72804 0
M  V30 2251 H 207.458 0.594638 1.31149 0
M  V30 2252 H 209.411 -0.747451 4.14718 0
M  V30 2253 H 208.135 -1.25774 3.01411 0
M  V30 2254 H 206.794 0.798897 3.57789 0
M  V30 2255 H 206.442 -1.32379 4.85268 0
M  V30 2256 H 206.142 0.103902 5.87508 0
M  V30 2257 H 207.666 -0.811623 6.05182 0
M  V30 2258 H 209.08 1.40549 5.55805 0
M  V30 2259 H 207.477 2.19623 5.58467 0
M  V30 2260 H 208.547 2.43744 4.19186 0
M  V30 2261 N 209.89 -1.43072 0.660911 0
M  V30 2262 C 210.837 -2.30785 -0.0259884 0
M  V30 2263 C 211.807 -1.45184 -0.806888 0
M  V30 2264 O 212.992 -1.74041 -0.781943 0
M  V30 2265 C 210.132 -3.30861 -0.981067 0
M  V30 2266 C 209.245 -4.31558 -0.195458 0
M  V30 2267 C 208.38 -5.18712 -1.14503 0
M  V30 2268 C 207.419 -6.11097 -0.350299 0
M  V30 2269 N 206.556 -6.90849 -1.25186 0
M  V30 2270 H 211.396 -2.88975 0.727846 0
M  V30 2271 H 208.933 -1.42353 0.370682 0
M  V30 2272 H 210.891 -3.87399 -1.54849 0
M  V30 2273 H 209.521 -2.74304 -1.70169 0
M  V30 2274 H 208.573 -3.77252 0.488374 0
M  V30 2275 H 209.885 -4.9701 0.422176 0
M  V30 2276 H 209.039 -5.79914 -1.78284 0
M  V30 2277 H 207.778 -4.53404 -1.79656 0
M  V30 2278 H 206.783 -5.48976 0.300808 0
M  V30 2279 H 208.008 -6.7845 0.296941 0
M  V30 2280 H 205.954 -6.28182 -1.89005 0
M  V30 2281 H 205.871 -7.52854 -0.688971 0
M  V30 2282 H 207.139 -7.5655 -1.87757 0
M  V30 2283 N 211.368 -0.403325 -1.52352 0
M  V30 2284 C 212.278 0.432009 -2.30588 0
M  V30 2285 C 213.294 1.05884 -1.38075 0
M  V30 2286 O 214.47 1.06161 -1.71148 0
M  V30 2287 C 211.535 1.53669 -3.10784 0
M  V30 2288 C 210.596 0.933525 -4.19027 0
M  V30 2289 C 209.829 1.98557 -4.9539 0
M  V30 2290 O 210.052 3.20283 -4.71991 0
M  V30 2291 O 208.986 1.59504 -5.80381 0
M  V30 2292 H 212.812 -0.205739 -3.03002 0
M  V30 2293 H 210.397 -0.166675 -1.48467 0
M  V30 2294 H 212.279 2.17814 -3.60742 0
M  V30 2295 H 210.954 2.15915 -2.41169 0
M  V30 2296 H 209.861 0.254954 -3.7323 0
M  V30 2297 H 211.194 0.35508 -4.90918 0
M  V30 2298 N 212.846 1.57033 -0.133567 0
M  V30 2299 C 213.756 2.19632 0.824564 0
M  V30 2300 C 214.772 1.17666 1.28182 0
M  V30 2301 O 215.948 1.50193 1.3418 0
M  V30 2302 C 213.013 2.79499 2.05137 0
M  V30 2303 C 212.074 3.96548 1.64464 0
M  V30 2304 C 211.307 4.5355 2.81297 0
M  V30 2305 O 211.53 4.09438 3.97136 0
M  V30 2306 O 210.464 5.44018 2.57542 0
M  V30 2307 H 214.29 3.01991 0.321766 0
M  V30 2308 H 211.875 1.49112 0.0927889 0
M  V30 2309 H 213.757 3.17602 2.7696 0
M  V30 2310 H 212.432 2.00162 2.54395 0
M  V30 2311 H 211.339 3.63186 0.897048 0
M  V30 2312 H 212.672 4.77364 1.19934 0
M  V30 2313 N 214.325 -0.140222 1.56975 0
M  V30 2314 C 215.572 -0.851687 1.83719 0
M  V30 2315 C 215.9 -1.80862 0.715485 0
M  V30 2316 O 215.155 -1.93464 -0.294956 0
M  V30 2317 C 215.454 -1.65386 3.16832 0
M  V30 2318 C 215.12 -0.843112 4.42947 0
M  V30 2319 C 213.782 -0.619464 4.77196 0
M  V30 2320 C 216.134 -0.276582 5.20466 0
M  V30 2321 C 213.462 0.181312 5.8642 0
M  V30 2322 C 215.814 0.51127 6.30531 0
M  V30 2323 C 214.478 0.745432 6.63325 0
M  V30 2324 H 213.748 -0.311654 0.672274 0
M  V30 2325 H 216.395 -0.115006 1.91154 0
M  V30 2326 H 214.7 -2.46084 3.04877 0
M  V30 2327 H 216.397 -2.20793 3.34741 0
M  V30 2328 H 212.987 -1.0275 4.16101 0
M  V30 2329 H 217.171 -0.436632 4.94376 0
M  V30 2330 H 212.427 0.372165 6.10266 0
M  V30 2331 H 216.601 0.957354 6.89788 0
M  V30 2332 H 214.228 1.36778 7.47794 0
M  V30 2333 N 215.803 -1.52179 -0.40978 0
M  V30 2334 C 217.219 -1.40968 -0.74835 0
M  V30 2335 C 217.419 -0.513657 -1.94843 0
M  V30 2336 O 216.475 0.0208026 -2.52491 0
M  V30 2337 C 217.788 -2.83483 -1.0029 0
M  V30 2338 C 219.336 -2.92821 -1.10565 0
M  V30 2339 C 219.811 -4.36303 -1.39296 0
M  V30 2340 N 221.302 -4.39535 -1.46162 0
M  V30 2341 C 222.037 -5.47614 -1.70018 0
M  V30 2342 N 221.533 -6.65812 -1.91483 0
M  V30 2343 N 223.326 -5.35129 -1.72027 0
M  V30 2344 H 215.477 -2.0897 0.380186 0
M  V30 2345 H 217.74 -0.94185 0.107805 0
M  V30 2346 H 217.446 -3.51168 -0.193461 0
M  V30 2347 H 217.32 -3.24487 -1.92323 0
M  V30 2348 H 219.707 -2.25318 -1.90568 0
M  V30 2349 H 219.788 -2.55276 -0.16369 0
M  V30 2350 H 219.432 -5.04366 -0.598109 0
M  V30 2351 H 219.362 -4.71385 -2.34743 0
M  V30 2352 H 221.853 -3.54332 -1.31367 0
M  V30 2353 H 222.166 -7.43964 -2.09134 0
M  V30 2354 H 220.511 -6.68879 -1.88749 0
M  V30 2355 H 223.702 -4.41764 -1.54796 0
M  V30 2356 H 223.875 -6.19433 -1.9028 0
M  V30 2357 N 217.281 0.66697 -1.42791 0
M  V30 2358 C 218.228 1.7803 -1.4688 0
M  V30 2359 C 219.198 1.6299 -0.319919 0
M  V30 2360 O 220.383 1.83432 -0.525118 0
M  V30 2361 C 217.523 3.1611 -1.38451 0
M  V30 2362 C 216.636 3.42381 -2.63437 0
M  V30 2363 C 215.771 4.70232 -2.47094 0
M  V30 2364 C 214.81 4.89564 -3.67415 0
M  V30 2365 N 213.947 6.08661 -3.49966 0
M  V30 2366 H 218.787 1.7387 -2.42019 0
M  V30 2367 H 216.324 0.84868 -1.20149 0
M  V30 2368 H 218.282 3.95914 -1.31561 0
M  V30 2369 H 216.912 3.19374 -0.469033 0
M  V30 2370 H 215.964 2.56774 -2.80662 0
M  V30 2371 H 217.276 3.52557 -3.52853 0
M  V30 2372 H 216.43 5.5814 -2.37834 0
M  V30 2373 H 215.169 4.62353 -1.5518 0
M  V30 2374 H 214.174 4.00096 -3.77099 0
M  V30 2375 H 215.399 4.99282 -4.6032 0
M  V30 2376 H 213.345 6.0194 -2.60776 0
M  V30 2377 H 213.262 6.19733 -4.32975 0
M  V30 2378 H 214.53 6.99226 -3.44532 0
M  V30 2379 N 218.759 1.29093 0.90403 0
M  V30 2380 C 219.669 1.15727 2.0407 0
M  V30 2381 C 220.685 0.0815308 1.73809 0
M  V30 2382 O 221.861 0.292749 1.99261 0
M  V30 2383 C 218.926 0.830424 3.36608 0
M  V30 2384 C 217.987 1.98955 3.80415 0
M  V30 2385 C 217.22 1.6782 5.06628 0
M  V30 2386 O 217.443 0.597105 5.67266 0
M  V30 2387 O 216.377 2.52486 5.46383 0
M  V30 2388 H 220.203 2.11171 2.18267 0
M  V30 2389 H 217.788 1.08504 1.027 0
M  V30 2390 H 219.67 0.662521 4.16159 0
M  V30 2391 H 218.345 -0.0942678 3.23563 0
M  V30 2392 H 217.252 2.21267 3.01648 0
M  V30 2393 H 218.585 2.89529 3.98037 0
M  V30 2394 N 220.237 -1.11381 1.11499 0
M  V30 2395 C 221.484 -1.83132 0.864231 0
M  V30 2396 C 221.812 -1.84683 -0.610114 0
M  V30 2397 O 221.067 -1.29589 -1.46646 0
M  V30 2398 C 221.366 -3.30026 1.37177 0
M  V30 2399 C 221.032 -3.48634 2.85946 0
M  V30 2400 C 219.694 -3.53421 3.26569 0
M  V30 2401 C 222.046 -3.54837 3.81759 0
M  V30 2402 C 219.374 -3.61967 4.61733 0
M  V30 2403 C 221.726 -3.64915 5.1674 0
M  V30 2404 C 220.39 -3.67962 5.5692 0
M  V30 2405 H 219.66 -0.670127 0.316245 0
M  V30 2406 H 222.307 -1.31354 1.3935 0
M  V30 2407 H 220.612 -3.84304 0.762753 0
M  V30 2408 H 222.309 -3.84034 1.15408 0
M  V30 2409 H 218.899 -3.45579 2.53521 0
M  V30 2410 H 223.083 -3.50399 3.51474 0
M  V30 2411 H 218.339 -3.62603 4.92269 0
M  V30 2412 H 222.513 -3.68658 5.90816 0
M  V30 2413 H 220.14 -3.74336 6.61647 0
M  V30 2414 N 221.715 -0.905404 -1.28997 0
M  V30 2415 C 222.943 -0.549846 -1.9946 0
M  V30 2416 C 223.358 0.866834 -1.67724 0
M  V30 2417 O 222.715 1.57298 -0.925404 0
M  V30 2418 C 222.766 -0.739387 -3.53858 0
M  V30 2419 O 222.487 -2.10031 -3.84472 0
M  V30 2420 C 223.988 -0.389541 -4.41585 0
M  V30 2421 H 221.208 -0.210429 -0.637151 0
M  V30 2422 H 223.752 -1.21632 -1.64396 0
M  V30 2423 H 221.907 -0.120023 -3.87214 0
M  V30 2424 H 222.321 -2.13385 -4.79132 0
M  V30 2425 H 223.795 -0.572972 -5.49018 0
M  V30 2426 H 224.272 0.673756 -4.34001 0
M  V30 2427 H 224.878 -0.986089 -4.1371 0
M  V30 2428 N 223.193 1.4272 -0.668489 0
M  V30 2429 C 224.14 2.30796 0.0137489 0
M  V30 2430 C 225.11 1.4561 0.799177 0
M  V30 2431 O 226.295 1.74453 0.772702 0
M  V30 2432 C 223.435 3.31377 0.963507 0
M  V30 2433 C 222.548 4.31655 0.172569 0
M  V30 2434 C 221.683 5.19312 1.1175 0
M  V30 2435 C 220.722 6.11274 0.317886 0
M  V30 2436 N 219.859 6.91504 1.2152 0
M  V30 2437 H 224.699 2.88585 -0.743161 0
M  V30 2438 H 222.236 1.42154 -0.378226 0
M  V30 2439 H 224.194 3.88214 1.52792 0
M  V30 2440 H 222.824 2.75202 1.68712 0
M  V30 2441 H 221.876 3.76988 -0.508374 0
M  V30 2442 H 223.188 4.96779 -0.448527 0
M  V30 2443 H 222.342 5.80851 1.75206 0
M  V30 2444 H 221.081 4.5435 1.77249 0
M  V30 2445 H 220.086 5.48809 -0.329918 0
M  V30 2446 H 221.311 6.78283 -0.332917 0
M  V30 2447 H 219.257 6.29176 1.85671 0
M  V30 2448 H 219.174 7.53209 0.649036 0
M  V30 2449 H 220.442 7.57535 1.83742 0
M  V30 2450 N 224.671 0.411399 1.52136 0
M  V30 2451 C 225.601 -0.404015 2.29978 0
M  V30 2452 C 226.582 -1.04412 1.34284 0
M  V30 2453 O 227.767 -1.0527 1.63192 0
M  V30 2454 C 224.897 -1.5197 3.12286 0
M  V30 2455 C 223.851 -1.00448 4.16046 0
M  V30 2456 C 223.177 -2.21393 4.86712 0
M  V30 2457 C 224.477 -0.0569336 5.22269 0
M  V30 2458 H 226.171 0.245529 2.98392 0
M  V30 2459 H 223.717 0.119525 1.43503 0
M  V30 2460 H 225.67 -2.09715 3.6551 0
M  V30 2461 H 224.394 -2.19716 2.41646 0
M  V30 2462 H 223.053 -0.449421 3.63835 0
M  V30 2463 H 222.701 -2.87699 4.12599 0
M  V30 2464 H 222.401 -1.87571 5.56858 0
M  V30 2465 H 223.925 -2.7974 5.4275 0
M  V30 2466 H 225.339 -0.54325 5.7072 0
M  V30 2467 H 223.736 0.192594 5.99791 0
M  V30 2468 H 224.806 0.887663 4.76706 0
M  V30 2469 N 226.149 -1.5696 0.141893 0
M  V30 2470 C 227.059 -2.20066 -0.812905 0
M  V30 2471 C 228.075 -1.18344 -1.27557 0
M  V30 2472 O 229.251 -1.50902 -1.33381 0
M  V30 2473 C 226.316 -2.80583 -2.03652 0
M  V30 2474 C 225.377 -3.97414 -1.62359 0
M  V30 2475 C 224.61 -4.55036 -2.78887 0
M  V30 2476 O 224.833 -4.11538 -3.94959 0
M  V30 2477 O 223.767 -5.45376 -2.54653 0
M  V30 2478 H 227.593 -3.02157 -0.305746 0
M  V30 2479 H 225.178 -1.49159 -0.0848799 0
M  V30 2480 H 227.06 -3.19067 -2.75272 0
M  V30 2481 H 225.735 -2.01508 -2.5333 0
M  V30 2482 H 224.642 -3.63656 -0.877775 0
M  V30 2483 H 225.975 -4.77994 -1.17401 0
M  V30 2484 N 227.627 0.131896 -1.57047 0
M  V30 2485 C 228.537 1.1815 -2.02676 0
M  V30 2486 C 229.553 1.46113 -0.944824 0
M  V30 2487 O 230.729 1.57485 -1.25541 0
M  V30 2488 C 227.794 2.49139 -2.41103 0
M  V30 2489 C 226.855 2.28688 -3.63318 0
M  V30 2490 C 226.088 3.53431 -3.99903 0
M  V30 2491 O 226.311 4.60223 -3.36973 0
M  V30 2492 O 225.245 3.45198 -4.93074 0
M  V30 2493 H 229.071 0.824069 -2.92306 0
M  V30 2494 H 226.656 0.341745 -1.45439 0
M  V30 2495 H 228.538 3.26338 -2.66611 0
M  V30 2496 H 227.213 2.84382 -1.54624 0
M  V30 2497 H 226.12 1.4939 -3.42977 0
M  V30 2498 H 227.453 1.98355 -4.50462 0
M  V30 2499 N 229.106 1.52395 0.401703 0
M  V30 2500 C 230.352 1.67065 1.14966 0
M  V30 2501 C 230.685 0.403052 1.89971 0
M  V30 2502 O 229.96 -0.598774 1.85054 0
M  V30 2503 C 230.243 2.8975 2.13815 0
M  V30 2504 C 230.096 4.26578 1.42658 0
M  V30 2505 C 231.415 3.07965 3.14397 0
M  V30 2506 H 228.534 0.607968 0.416587 0
M  V30 2507 H 231.176 1.84965 0.434511 0
M  V30 2508 H 229.326 2.74619 2.74803 0
M  V30 2509 H 230.998 4.53451 0.847329 0
M  V30 2510 H 229.241 4.27639 0.72849 0
M  V30 2511 H 229.912 5.08483 2.14823 0
M  V30 2512 H 232.388 3.22043 2.63491 0
M  V30 2513 H 231.264 3.95308 3.80819 0
M  V30 2514 H 231.525 2.21611 3.82545 0
M  V30 2515 N 230.584 -0.659388 1.43143 0
M  V30 2516 C 231.514 -1.78422 1.50625 0
M  V30 2517 C 232.495 -1.66216 0.361443 0
M  V30 2518 O 233.68 -1.85404 0.577834 0
M  V30 2519 C 230.81 -3.16815 1.42287 0
M  V30 2520 C 229.764 -3.43777 2.54954 0
M  V30 2521 C 229.09 -4.81905 2.31671 0
M  V30 2522 C 230.39 -3.39134 3.97222 0
M  V30 2523 H 232.084 -1.72417 2.44771 0
M  V30 2524 H 229.63 -0.828084 1.17808 0
M  V30 2525 H 231.583 -3.95253 1.46127 0
M  V30 2526 H 230.307 -3.23534 0.446435 0
M  V30 2527 H 228.966 -2.67707 2.50457 0
M  V30 2528 H 228.614 -4.85294 1.32284 0
M  V30 2529 H 228.314 -5.00906 3.07192 0
M  V30 2530 H 229.838 -5.62609 2.37284 0
M  V30 2531 H 231.252 -4.07518 4.03239 0
M  V30 2532 H 229.649 -3.69671 4.72719 0
M  V30 2533 H 230.719 -2.37426 4.22797 0
M  V30 2534 N 232.062 -1.29571 -0.897171 0
M  V30 2535 C 233.29 -1.20583 -1.68129 0
M  V30 2536 C 233.705 0.233181 -1.87354 0
M  V30 2537 O 233.062 1.15579 -1.41236 0
M  V30 2538 C 233.113 -1.91772 -3.06441 0
M  V30 2539 O 232.834 -3.30053 -2.88091 0
M  V30 2540 C 234.335 -1.89291 -4.00854 0
M  V30 2541 H 231.555 -0.417826 -0.525036 0
M  V30 2542 H 234.099 -1.70987 -1.12177 0
M  V30 2543 H 232.254 -1.45196 -3.59161 0
M  V30 2544 H 232.668 -3.65942 -3.75748 0
M  V30 2545 H 234.142 -2.43662 -4.95311 0
M  V30 2546 H 234.619 -0.869014 -4.30517 0
M  V30 2547 H 235.225 -2.35622 -3.54066 0
M  V30 2548 N 233.54 1.10788 -1.12088 0
M  V30 2549 C 234.488 2.19111 -0.780587 0
M  V30 2550 C 235.482 1.67818 0.230961 0
M  V30 2551 O 236.688 1.79777 0.0895427 0
M  V30 2552 H 233.063 0.714477 -0.234578 0
M  V30 2553 H 235.034 2.45055 -1.70266 0
M  V30 2554 C 233.783 3.46818 -0.24747 0
M  V30 2555 H 233.106 3.86646 -1.01712 0
M  V30 2556 H 234.546 4.23973 -0.0476291 0
M  V30 2557 C 233.005 3.20968 1.02378 0
M  V30 2558 O 233.535 3.42298 2.10226 0
M  V30 2559 N 231.741 2.74658 0.949271 0
M  V30 2560 H 231.288 2.57501 0.0715173 0
M  V30 2561 H 231.246 2.57739 1.80049 0
M  V30 2562 N 235.018 0.912232 1.28515 0
M  V30 2563 C 235.965 0.397954 2.27343 0
M  V30 2564 C 236.935 -0.526766 1.57526 0
M  V30 2565 O 238.12 -0.449292 1.85435 0
M  V30 2566 C 235.26 -0.357263 3.43246 0
M  V30 2567 C 234.373 0.599788 4.27816 0
M  V30 2568 C 233.508 -0.173725 5.30916 0
M  V30 2569 C 232.547 0.777039 6.07148 0
M  V30 2570 N 231.684 0.0371398 7.0209 0
M  V30 2571 H 236.524 1.24577 2.70711 0
M  V30 2572 H 234.061 0.625612 1.33133 0
M  V30 2573 H 236.019 -0.8113 4.09236 0
M  V30 2574 H 234.649 -1.16943 3.00872 0
M  V30 2575 H 233.701 1.17235 3.61884 0
M  V30 2576 H 235.013 1.32704 4.80823 0
M  V30 2577 H 234.167 -0.688394 6.02782 0
M  V30 2578 H 232.906 -0.934041 4.78672 0
M  V30 2579 H 231.911 1.3031 5.34134 0
M  V30 2580 H 233.136 1.53689 6.61481 0
M  V30 2581 H 231.082 -0.705213 6.52198 0
M  V30 2582 H 230.999 0.704249 7.52713 0
M  V30 2583 H 232.267 -0.457383 7.78157 0
M  V30 2584 N 236.496 -1.42363 0.676048 0
M  V30 2585 C 237.443 -2.308 -0.00150904 0
M  V30 2586 C 238.413 -1.46032 -0.791444 0
M  V30 2587 O 239.598 -1.74861 -0.76344 0
M  V30 2588 C 236.738 -3.31883 -0.945919 0
M  V30 2589 C 235.851 -4.31741 -0.149675 0
M  V30 2590 C 234.986 -5.19898 -1.08995 0
M  V30 2591 C 234.025 -6.11434 -0.285465 0
M  V30 2592 N 233.162 -6.92138 -1.17851 0
M  V30 2593 H 238.002 -2.88187 0.758455 0
M  V30 2594 H 235.539 -1.41952 0.38576 0
M  V30 2595 H 237.497 -3.89019 -1.50731 0
M  V30 2596 H 236.127 -2.76093 -1.6725 0
M  V30 2597 H 235.179 -3.76713 0.528359 0
M  V30 2598 H 236.491 -4.96534 0.474866 0
M  V30 2599 H 235.645 -5.81772 -1.72123 0
M  V30 2600 H 234.384 -4.55284 -1.74837 0
M  V30 2601 H 233.389 -5.48627 0.359018 0
M  V30 2602 H 234.614 -6.78097 0.368883 0
M  V30 2603 H 232.56 -6.30152 -1.82332 0
M  V30 2604 H 232.477 -7.53542 -0.609082 0
M  V30 2605 H 233.745 -7.58499 -1.79722 0
M  V30 2606 N 237.974 -0.419461 -1.51915 0
M  V30 2607 C 239.202 0.152136 -2.0634 0
M  V30 2608 C 239.617 1.37988 -1.28859 0
M  V30 2609 O 238.974 1.79243 -0.343232 0
M  V30 2610 C 239.025 0.492266 -3.58133 0
M  V30 2611 O 238.746 -0.686736 -4.32684 0
M  V30 2612 C 240.247 1.11648 -4.2901 0
M  V30 2613 H 237.467 0.0158325 -0.670813 0
M  V30 2614 H 240.011 -0.593394 -1.95702 0
M  V30 2615 H 238.166 1.18769 -3.68745 0
M  V30 2616 H 238.58 -0.400341 -5.2297 0
M  V30 2617 H 240.054 1.3046 -5.36362 0
M  V30 2618 H 240.531 2.09251 -3.86148 0
M  V30 2619 H 241.137 0.460958 -4.22795 0
M  V30 2620 N 239.452 1.56882 -0.150215 0
M  V30 2621 C 240.68 2.00593 0.506948 0
M  V30 2622 C 241.095 1.03033 1.58208 0
M  V30 2623 O 240.452 0.0278396 1.82479 0
M  V30 2624 C 240.503 3.44209 1.10465 0
M  V30 2625 O 240.224 4.3804 0.0724636 0
M  V30 2626 C 241.725 4.03214 1.84211 0
M  V30 2627 H 238.945 0.65795 0.13169 0
M  V30 2628 H 241.489 2.03018 -0.245743 0
M  V30 2629 H 239.644 3.42625 1.80795 0
M  V30 2630 H 240.058 5.22007 0.510793 0
M  V30 2631 H 241.532 5.0569 2.21318 0
M  V30 2632 H 242.009 3.44107 2.72923 0
M  V30 2633 H 242.615 4.08437 1.18572 0
M  V30 2634 N 240.93 -0.123565 1.57115 0
M  V30 2635 C 242.177 -0.832153 1.84612 0
M  V30 2636 C 242.505 -1.80093 0.734627 0
M  V30 2637 O 241.76 -1.93766 -0.27442 0
M  V30 2638 C 242.059 -1.62016 3.18568 0
M  V30 2639 C 241.725 -0.796084 4.43817 0
M  V30 2640 C 240.387 -0.568816 4.77826 0
M  V30 2641 C 242.739 -0.221364 5.2073 0
M  V30 2642 C 240.067 0.243499 5.86194 0
M  V30 2643 C 242.419 0.578117 6.29953 0
M  V30 2644 C 241.083 0.815744 6.62497 0
M  V30 2645 H 240.353 -0.304507 0.675542 0
M  V30 2646 H 243 -0.0947248 1.91266 0
M  V30 2647 H 241.305 -2.42837 3.0747 0
M  V30 2648 H 243.002 -2.17231 3.37064 0
M  V30 2649 H 239.592 -0.983307 4.17168 0
M  V30 2650 H 243.776 -0.384173 4.94811 0
M  V30 2651 H 239.032 0.436871 6.09837 0
M  V30 2652 H 243.206 1.03046 6.88734 0
M  V30 2653 H 240.833 1.44701 7.46301 0
M  V30 2654 N 242.408 -1.52605 -0.393616 0
M  V30 2655 C 243.655 -1.67424 -1.1391 0
M  V30 2656 C 243.983 -0.411859 -1.90089 0
M  V30 2657 O 243.238 0.605626 -1.86093 0
M  V30 2658 C 243.537 -2.85721 -2.14705 0
M  V30 2659 C 243.203 -4.23342 -1.55218 0
M  V30 2660 C 241.865 -4.60771 -1.3872 0
M  V30 2661 C 244.217 -5.09041 -1.11924 0
M  V30 2662 C 241.545 -5.81563 -0.774689 0
M  V30 2663 C 243.897 -6.30452 -0.520853 0
M  V30 2664 C 242.561 -6.66617 -0.343134 0
M  V30 2665 H 241.831 -0.612648 -0.416826 0
M  V30 2666 H 244.478 -1.8674 -0.424315 0
M  V30 2667 H 242.783 -2.60803 -2.92385 0
M  V30 2668 H 244.48 -2.94382 -2.72288 0
M  V30 2669 H 241.07 -3.93855 -1.69045 0
M  V30 2670 H 245.254 -4.80695 -1.23473 0
M  V30 2671 H 240.51 -6.08196 -0.625154 0
M  V30 2672 H 244.684 -6.96175 -0.177065 0
M  V30 2673 H 242.311 -7.60083 0.133571 0
M  V30 2674 N 243.887 0.651787 -1.4349 0
M  V30 2675 C 245.135 1.40888 -1.44897 0
M  V30 2676 C 245.456 1.94856 -0.0749086 0
M  V30 2677 O 244.726 1.74518 0.889956 0
M  V30 2678 H 243.306 0.522887 -0.533478 0
M  V30 2679 H 245.968 0.768609 -1.79104 0
M  V30 2680 H 245.064 2.25052 -2.16236 0
M  V30 2681 N 245.365 1.30045 0.890287 0
M  V30 2682 C 246.613 1.18327 1.63839 0
M  V30 2683 C 246.934 -0.263455 1.93212 0
M  V30 2684 O 246.204 -1.17856 1.56482 0
M  V30 2685 H 244.784 0.434933 0.607324 0
M  V30 2686 H 247.446 1.631 1.06698 0
M  V30 2687 H 246.542 1.74024 2.59079 0
M  V30 2688 N 246.843 -1.10192 1.12674 0
M  V30 2689 C 247.791 -2.18694 0.792196 0
M  V30 2690 C 248.785 -1.67938 -0.222058 0
M  V30 2691 O 249.991 -1.79822 -0.0800074 0
M  V30 2692 H 246.366 -0.713223 0.238364 0
M  V30 2693 H 248.337 -2.44149 1.71564 0
M  V30 2694 C 247.086 -3.46682 0.265859 0
M  V30 2695 H 246.409 -3.86101 1.03761 0
M  V30 2696 H 247.849 -4.23942 0.0701128 0
M  V30 2697 C 246.308 -3.21506 -1.00675 0
M  V30 2698 O 246.838 -3.43408 -2.08408 0
M  V30 2699 N 245.044 -2.75158 -0.934692 0
M  V30 2700 H 244.591 -2.57535 -0.0578604 0
M  V30 2701 H 244.549 -2.58691 -1.7868 0
M  V30 2702 N 248.321 -0.919034 -1.28029 0
M  V30 2703 C 249.546 -0.570357 -1.99403 0
M  V30 2704 C 249.971 0.842486 -1.68178 0
M  V30 2705 O 249.329 1.56391 -0.917141 0
M  V30 2706 C 249.377 -0.792541 -3.51783 0
M  V30 2707 O 248.481 0.145988 -4.12142 0
M  V30 2708 H 247.822 -0.220555 -0.6263 0
M  V30 2709 H 250.352 -1.23592 -1.63053 0
M  V30 2710 H 250.362 -0.704708 -4.01868 0
M  V30 2711 H 249.037 -1.82247 -3.73844 0
M  V30 2712 H 247.614 0.00897528 -3.72899 0
M  V30 2713 N 249.799 1.42003 -0.683588 0
M  V30 2714 C 251.048 2.00638 -0.206681 0
M  V30 2715 C 251.361 1.5472 1.19671 0
M  V30 2716 O 252.567 2.05833 1.77045 0
M  V30 2717 C 251.023 3.58487 -0.318632 0
M  V30 2718 C 250.631 4.1339 -1.72663 0
M  V30 2719 C 252.375 4.24384 0.0991141 0
M  V30 2720 C 250.282 5.63633 -1.79087 0
M  V30 2721 H 249.212 0.750408 -0.0735107 0
M  V30 2722 H 251.863 1.62624 -0.850048 0
M  V30 2723 H 250.245 3.94047 0.392781 0
M  V30 2724 H 251.419 3.89273 -2.46583 0
M  V30 2725 H 249.734 3.59976 -2.09299 0
M  V30 2726 H 252.331 5.34652 0.0713833 0
M  V30 2727 H 252.674 4.00505 1.13586 0
M  V30 2728 H 253.207 3.93816 -0.561599 0
M  V30 2729 H 249.946 5.92323 -2.80774 0
M  V30 2730 H 249.466 5.89714 -1.09535 0
M  V30 2731 H 251.145 6.28201 -1.5483 0
M  V30 2732 N 251.277 0.427512 1.51691 0
M  V30 2733 C 252.502 -0.143601 2.06902 0
M  V30 2734 C 252.927 -1.36536 1.29382 0
M  V30 2735 O 252.285 -1.78289 0.329043 0
M  V30 2736 C 252.333 -0.454207 3.57728 0
M  V30 2737 O 251.437 -1.54228 3.82475 0
M  V30 2738 H 250.778 -0.00617128 0.663971 0
M  V30 2739 H 253.308 0.606014 1.95419 0
M  V30 2740 H 253.318 -0.707525 4.01818 0
M  V30 2741 H 251.993 0.438812 4.13579 0
M  V30 2742 H 250.57 -1.2797 3.50254 0
M  V30 2743 N 252.755 -1.56801 0.158532 0
M  V30 2744 C 253.688 -2.13148 -0.815065 0
M  V30 2745 C 254.666 -1.0581 -1.23462 0
M  V30 2746 O 255.85 -1.3371 -1.32868 0
M  V30 2747 C 252.977 -2.6606 -2.09594 0
M  V30 2748 C 252.023 -3.85651 -1.82141 0
M  V30 2749 S 252.856 -5.26041 -1.00207 0
M  V30 2750 C 254.012 -5.8235 -2.29389 0
M  V30 2751 H 254.245 -2.95396 -0.335937 0
M  V30 2752 H 251.778 -1.54299 -0.0559391 0
M  V30 2753 H 253.736 -2.97195 -2.8317 0
M  V30 2754 H 252.397 -1.83921 -2.54621 0
M  V30 2755 H 251.59 -4.20958 -2.77147 0
M  V30 2756 H 251.192 -3.55338 -1.16667 0
M  V30 2757 H 253.484 -5.94485 -3.24952 0
M  V30 2758 H 254.427 -6.79688 -1.9857 0
M  V30 2759 H 254.835 -5.10675 -2.40564 0
M  V30 2760 N 254.233 0.115231 -1.57178 0
M  V30 2761 C 255.482 0.820945 -1.84237 0
M  V30 2762 C 255.795 1.80866 -0.744761 0
M  V30 2763 O 257.001 2.56083 -0.901871 0
M  V30 2764 C 255.457 1.51072 -3.26658 0
M  V30 2765 C 255.065 0.563795 -4.44438 0
M  V30 2766 C 256.809 2.20134 -3.62962 0
M  V30 2767 C 254.716 1.25701 -5.77887 0
M  V30 2768 H 253.646 0.310328 -0.687177 0
M  V30 2769 H 256.297 0.0737134 -1.83352 0
M  V30 2770 H 254.679 2.30471 -3.22024 0
M  V30 2771 H 255.853 -0.197247 -4.60378 0
M  V30 2772 H 254.168 -0.0200638 -4.16395 0
M  V30 2773 H 256.765 2.72696 -4.59936 0
M  V30 2774 H 257.108 2.98107 -2.90582 0
M  V30 2775 H 257.641 1.47619 -3.69396 0
M  V30 2776 H 254.38 0.518493 -6.53446 0
M  V30 2777 H 253.9 1.98997 -5.65827 0
M  V30 2778 H 255.579 1.78915 -6.2177 0
M  V30 2779 N 255.711 1.52812 0.385517 0
M  V30 2780 C 256.988 1.5861 1.14465 0
M  V30 2781 C 257.368 0.381402 2.07626 0
M  V30 2782 O 256.716 -0.629999 2.19643 0
M  V30 2783 C 256.926 2.92664 1.90128 0
M  V30 2784 C 258.274 3.46526 2.45367 0
M  V30 2785 O 259.298 2.94562 2.0028 0
M  V30 2786 O 258.157 4.37323 3.27736 0
M  V30 2787 H 255.251 0.639855 0.523941 0
M  V30 2788 H 257.797 1.65149 0.390389 0
M  V30 2789 H 256.569 3.71788 1.22022 0
M  V30 2790 H 256.192 2.89527 2.72507 0
M  V30 2791 N 257.189 -0.644168 1.43834 0
M  V30 2792 C 258.419 -1.42939 1.49171 0
M  V30 2793 C 258.827 -1.88874 0.111048 0
M  V30 2794 O 258.17 -1.60656 -0.8908 0
M  V30 2795 C 258.232 -2.69151 2.38324 0
M  V30 2796 C 257.896 -2.45097 3.85715 0
M  V30 2797 C 258.893 -2.07747 4.76589 0
M  V30 2798 C 256.578 -2.59141 4.30292 0
M  V30 2799 C 258.572 -1.8475 6.10038 0
M  V30 2800 C 256.259 -2.35759 5.63792 0
M  V30 2801 C 257.257 -1.9862 6.53482 0
M  V30 2802 O 256.945 -1.75489 7.84512 0
M  V30 2803 H 256.677 -0.445271 0.508635 0
M  V30 2804 H 259.231 -0.79621 1.8934 0
M  V30 2805 H 257.461 -3.3506 1.93058 0
M  V30 2806 H 259.15 -3.31123 2.3476 0
M  V30 2807 H 259.916 -1.96465 4.43426 0
M  V30 2808 H 255.795 -2.87022 3.60749 0
M  V30 2809 H 259.339 -1.55686 6.80006 0
M  V30 2810 H 255.236 -2.46646 5.9652 0
M  V30 2811 H 256.004 -1.89841 7.9618 0
M  V30 2812 N 258.668 -1.30515 -0.883378 0
M  V30 2813 C 259.598 -1.19607 -2.00541 0
M  V30 2814 C 260.579 -0.086346 -1.69881 0
M  V30 2815 O 261.764 -0.268654 -1.92333 0
M  V30 2816 C 258.894 -0.888758 -3.35736 0
M  V30 2817 C 257.848 -1.95659 -3.8066 0
M  V30 2818 C 257.174 -1.50224 -5.13164 0
M  V30 2819 C 258.474 -3.36788 -3.99213 0
M  V30 2820 H 260.168 -2.13476 -2.09925 0
M  V30 2821 H 257.714 -1.02775 -1.00863 0
M  V30 2822 H 259.667 -0.799094 -4.13754 0
M  V30 2823 H 258.391 0.0856125 -3.26488 0
M  V30 2824 H 257.05 -2.03591 -3.04871 0
M  V30 2825 H 256.698 -0.516092 -5.00345 0
M  V30 2826 H 256.398 -2.2165 -5.44192 0
M  V30 2827 H 257.922 -1.42639 -5.93706 0
M  V30 2828 H 259.336 -3.31605 -4.67665 0
M  V30 2829 H 257.733 -4.06314 -4.41621 0
M  V30 2830 H 258.803 -3.78561 -3.03017 0
M  V30 2831 N 260.146 1.09593 -1.13257 0
M  V30 2832 C 261.395 1.81105 -0.887917 0
M  V30 2833 C 261.708 1.86563 0.587672 0
M  V30 2834 O 262.914 2.54367 0.949204 0
M  V30 2835 C 261.37 3.25338 -1.53895 0
M  V30 2836 C 260.978 3.28151 -3.04994 0
M  V30 2837 C 262.722 4.01617 -1.37492 0
M  V30 2838 C 260.629 4.66897 -3.6299 0
M  V30 2839 H 259.559 0.678661 -0.328534 0
M  V30 2840 H 262.21 1.23183 -1.36008 0
M  V30 2841 H 260.592 3.8331 -0.994446 0
M  V30 2842 H 261.766 2.79953 -3.66009 0
M  V30 2843 H 260.081 2.65361 -3.20893 0
M  V30 2844 H 262.678 5.04119 -1.78235 0
M  V30 2845 H 263.021 4.15072 -0.31957 0
M  V30 2846 H 263.554 3.50082 -1.88912 0
M  V30 2847 H 260.293 4.58643 -4.68323 0
M  V30 2848 H 259.813 5.15426 -3.06752 0
M  V30 2849 H 261.492 5.3587 -3.62563 0
M  V30 2850 N 261.624 0.925811 1.2754 0
M  V30 2851 C 262.87 0.575575 1.95086 0
M  V30 2852 C 263.225 -0.873246 1.71441 0
M  V30 2853 O 262.518 -1.61443 1.03183 0
M  V30 2854 C 262.712 0.835296 3.47502 0
M  V30 2855 C 262.541 2.30781 3.85967 0
M  V30 2856 C 261.311 2.96017 4.09514 0
M  V30 2857 C 263.509 3.28519 3.95702 0
M  V30 2858 N 261.491 4.3344 4.34744 0
M  V30 2859 C 262.862 4.51146 4.25285 0
M  V30 2860 C 264.917 3.23753 3.7827 0
M  V30 2861 C 263.62 5.69606 4.39251 0
M  V30 2862 C 265.646 4.41523 3.9346 0
M  V30 2863 C 265.008 5.62928 4.23428 0
M  V30 2864 H 261.107 0.260711 0.737261 0
M  V30 2865 H 263.691 1.19204 1.53943 0
M  V30 2866 H 261.862 0.248005 3.87607 0
M  V30 2867 H 263.594 0.447878 4.02214 0
M  V30 2868 H 260.349 2.46695 4.04275 0
M  V30 2869 H 260.773 5.04528 4.5142 0
M  V30 2870 H 265.415 2.3096 3.54143 0
M  V30 2871 H 263.133 6.62866 4.62205 0
M  V30 2872 H 266.719 4.39351 3.81394 0
M  V30 2873 H 265.599 6.52538 4.34929 0
M  V30 2874 N 263.102 -1.41638 0.69111 0
M  V30 2875 C 264.513 -1.84346 0.295517 0
M  V30 2876 C 264.864 -1.57833 -1.16547 0
M  V30 2877 O 263.989 -1.04648 -1.89414 0
M  V30 2878 C 264.584 -3.34636 0.529575 0
M  V30 2879 C 263.143 -3.7593 0.187944 0
M  V30 2880 C 262.29 -2.65082 0.814052 0
M  V30 2881 H 265.241 -1.31253 0.892092 0
M  V30 2882 H 265.262 -3.79903 -0.213148 0
M  V30 2883 H 264.774 -3.53901 1.59297 0
M  V30 2884 H 262.875 -3.62268 -0.871367 0
M  V30 2885 H 262.988 -4.74808 0.63985 0
M  V30 2886 H 261.352 -2.53528 0.244017 0
M  V30 2887 H 262.135 -2.87167 1.88123 0
M  V30 2888 N 264.58 -0.43555 -1.51462 0
M  V30 2889 C 265.826 0.123979 -2.03022 0
M  V30 2890 C 266.181 1.4054 -1.31401 0
M  V30 2891 O 265.474 1.86948 -0.419634 0
M  V30 2892 C 265.668 0.39942 -3.55161 0
M  V30 2893 C 265.497 -0.853754 -4.41521 0
M  V30 2894 C 264.267 -1.38675 -4.85898 0
M  V30 2895 C 266.465 -1.73939 -4.83994 0
M  V30 2896 N 264.447 -2.59265 -5.56466 0
M  V30 2897 C 265.818 -2.79135 -5.5361 0
M  V30 2898 C 267.873 -1.75402 -4.65981 0
M  V30 2899 C 266.576 -3.85737 -6.07124 0
M  V30 2900 C 268.602 -2.80938 -5.20411 0
M  V30 2901 C 267.964 -3.84854 -5.89972 0
M  V30 2902 H 264.063 0.00624887 -0.781975 0
M  V30 2903 H 266.647 -0.59582 -1.85359 0
M  V30 2904 H 264.818 1.08825 -3.72843 0
M  V30 2905 H 266.55 0.95015 -3.93388 0
M  V30 2906 H 263.305 -0.94094 -4.64159 0
M  V30 2907 H 263.729 -3.2041 -5.96378 0
M  V30 2908 H 268.371 -0.963926 -4.11665 0
M  V30 2909 H 266.089 -4.65586 -6.60496 0
M  V30 2910 H 269.675 -2.8301 -5.08327 0
M  V30 2911 H 268.555 -4.65176 -6.31333 0
M  V30 2912 N 266.058 1.56714 -0.166846 0
M  V30 2913 C 267.305 1.96747 0.479252 0
M  V30 2914 C 267.633 1.05263 1.63554 0
M  V30 2915 O 266.888 0.0858098 1.95512 0
M  V30 2916 C 267.187 3.42889 1.00806 0
M  V30 2917 C 266.853 4.50889 -0.0318574 0
M  V30 2918 C 265.515 4.8015 -0.317675 0
M  V30 2919 C 267.867 5.15949 -0.737956 0
M  V30 2920 C 265.195 5.71772 -1.31506 0
M  V30 2921 C 267.547 6.08647 -1.72429 0
M  V30 2922 C 266.211 6.36277 -2.0176 0
M  V30 2923 H 265.481 0.719949 0.175371 0
M  V30 2924 H 268.128 1.89756 -0.257864 0
M  V30 2925 H 266.433 3.4681 1.82291 0
M  V30 2926 H 268.13 3.71203 1.51689 0
M  V30 2927 H 264.72 4.28128 0.201088 0
M  V30 2928 H 268.904 4.93458 -0.530351 0
M  V30 2929 H 264.16 5.91465 -1.54853 0
M  V30 2930 H 268.334 6.58129 -2.27682 0
M  V30 2931 H 265.961 7.07075 -2.79194 0
M  V30 2932 N 267.536 -0.106894 1.57237 0
M  V30 2933 C 268.446 -1.14911 2.0453 0
M  V30 2934 C 269.462 -1.44592 0.96795 0
M  V30 2935 O 270.638 -1.55468 1.2803 0
M  V30 2936 C 267.703 -2.45272 2.45036 0
M  V30 2937 C 266.764 -2.22879 3.66911 0
M  V30 2938 C 265.997 -3.47024 4.05475 0
M  V30 2939 O 266.22 -4.54804 3.44252 0
M  V30 2940 O 265.154 -3.3731 4.98504 0
M  V30 2941 H 268.98 -0.777461 2.9358 0
M  V30 2942 H 266.565 -0.318563 1.45964 0
M  V30 2943 H 268.447 -3.22055 2.71769 0
M  V30 2944 H 267.122 -2.81886 1.59129 0
M  V30 2945 H 266.029 -1.43915 3.45311 0
M  V30 2946 H 267.362 -1.91163 4.53561 0
M  V30 2947 N 269.014 -1.53014 -0.377408 0
M  V30 2948 C 270.43 -1.42523 -0.718281 0
M  V30 2949 C 270.63 -0.55487 -1.9371 0
M  V30 2950 O 269.686 -0.0327593 -2.52479 0
M  V30 2951 C 270.999 -2.85546 -0.942539 0
M  V30 2952 C 272.547 -2.95101 -1.04329 0
M  V30 2953 C 273.022 -4.3916 -1.3001 0
M  V30 2954 N 274.513 -4.42536 -1.36806 0
M  V30 2955 C 275.248 -5.51097 -1.58364 0
M  V30 2956 N 274.744 -6.69724 -1.77317 0
M  V30 2957 N 276.537 -5.38657 -1.60638 0
M  V30 2958 H 268.688 -2.08116 0.424426 0
M  V30 2959 H 270.951 -0.939352 0.127759 0
M  V30 2960 H 270.657 -3.51499 -0.118929 0
M  V30 2961 H 270.531 -3.28493 -1.85397 0
M  V30 2962 H 272.918 -2.29309 -1.85745 0
M  V30 2963 H 272.999 -2.55566 -0.109505 0
M  V30 2964 H 272.643 -5.05521 -0.490991 0
M  V30 2965 H 272.573 -4.76258 -2.24691 0
M  V30 2966 H 275.064 -3.57039 -1.23821 0
M  V30 2967 H 275.377 -7.48233 -1.93306 0
M  V30 2968 H 273.722 -6.72732 -1.74518 0
M  V30 2969 H 276.913 -4.44948 -1.45391 0
M  V30 2970 H 277.086 -6.2333 -1.77098 0
M  V30 2971 N 270.492 0.636531 -1.44174 0
M  V30 2972 C 271.422 1.76003 -1.53444 0
M  V30 2973 C 272.403 1.65619 -0.387841 0
M  V30 2974 O 273.588 1.84461 -0.607257 0
M  V30 2975 C 270.718 3.14511 -1.4731 0
M  V30 2976 C 269.672 3.39677 -2.60391 0
M  V30 2977 C 268.998 4.78159 -2.39308 0
M  V30 2978 C 270.298 3.32772 -4.02567 0
M  V30 2979 H 271.992 1.68501 -2.47483 0
M  V30 2980 H 269.538 0.809237 -1.19111 0
M  V30 2981 H 271.491 3.92878 -1.52397 0
M  V30 2982 H 270.215 3.22783 -0.49785 0
M  V30 2983 H 268.874 2.63688 -2.54684 0
M  V30 2984 H 268.522 4.83128 -1.39988 0
M  V30 2985 H 268.222 4.95956 -3.15122 0
M  V30 2986 H 269.746 5.58762 -2.46205 0
M  V30 2987 H 271.16 4.01051 -4.09672 0
M  V30 2988 H 269.557 3.62104 -4.7854 0
M  V30 2989 H 270.627 2.30669 -4.2652 0
M  V30 2990 N 271.97 1.30982 0.876444 0
M  V30 2991 C 272.88 1.2003 2.01569 0
M  V30 2992 C 273.896 0.11838 1.73597 0
M  V30 2993 O 275.072 0.33495 1.98595 0
M  V30 2994 C 272.137 0.901637 3.34771 0
M  V30 2995 C 271.198 2.06979 3.76109 0
M  V30 2996 C 270.431 1.78529 5.02954 0
M  V30 2997 O 270.654 0.717296 5.65872 0
M  V30 2998 O 269.588 2.64019 5.40905 0
M  V30 2999 H 273.414 2.15753 2.13739 0
M  V30 3000 H 270.999 1.10658 1.00375 0
M  V30 3001 H 272.881 0.750645 4.1466 0
M  V30 3002 H 271.556 -0.0256141 3.2369 0
M  V30 3003 H 270.463 2.27616 2.96887 0
M  V30 3004 H 271.796 2.97907 3.91807 0
M  V30 3005 N 273.449 -1.08991 1.13837 0
M  V30 3006 C 274.412 -2.13925 0.822715 0
M  V30 3007 C 275.412 -1.599 -0.1699 0
M  V30 3008 O 276.602 -1.74104 0.0577251 0
M  V30 3009 C 273.734 -3.40155 0.225318 0
M  V30 3010 H 274.927 -2.43358 1.75262 0
M  V30 3011 H 272.48 -1.24603 0.943594 0
M  V30 3012 H 273.215 -3.16352 -0.713594 0
M  V30 3013 H 273 -3.80661 0.940193 0
M  V30 3014 H 274.49 -4.17594 0.0214784 0
M  V30 3015 N 274.927 -0.932562 -1.27047 0
M  V30 3016 C 275.86 -0.379774 -2.25018 0
M  V30 3017 C 276.838 0.526587 -1.53837 0
M  V30 3018 O 278.022 0.465992 -1.82649 0
M  V30 3019 C 275.149 0.455187 -3.35627 0
M  V30 3020 C 274.195 -0.388428 -4.24728 0
M  V30 3021 S 275.028 -1.80701 -5.04091 0
M  V30 3022 C 276.184 -0.979865 -6.18182 0
M  V30 3023 H 276.417 -1.2101 -2.71558 0
M  V30 3024 H 273.95 -0.735078 -1.35779 0
M  V30 3025 H 275.908 0.931052 -3.99802 0
M  V30 3026 H 274.569 1.26009 -2.87716 0
M  V30 3027 H 273.762 0.25089 -5.03375 0
M  V30 3028 H 273.364 -0.798649 -3.65373 0
M  V30 3029 H 275.656 -0.218115 -6.77149 0
M  V30 3030 H 276.599 -1.73951 -6.86401 0
M  V30 3031 H 277.007 -0.51973 -5.62102 0
M  V30 3032 N 276.405 1.4127 -0.698611 0
M  V30 3033 C 277.352 2.30773 -0.0352094 0
M  V30 3034 C 278.322 1.47273 0.768111 0
M  V30 3035 O 279.507 1.76053 0.735524 0
M  V30 3036 C 276.647 3.33346 0.893 0
M  V30 3037 C 275.76 4.31924 0.0809695 0
M  V30 3038 C 274.895 5.21566 1.0071 0
M  V30 3039 C 273.934 6.11811 0.188155 0
M  V30 3040 N 273.071 6.93926 1.06825 0
M  V30 3041 H 277.911 2.86943 -0.804207 0
M  V30 3042 H 275.448 1.4132 -0.408294 0
M  V30 3043 H 277.406 3.91368 1.44523 0
M  V30 3044 H 276.036 2.78719 1.62836 0
M  V30 3045 H 275.088 3.75825 -0.588224 0
M  V30 3046 H 276.4 4.95716 -0.553801 0
M  V30 3047 H 275.554 5.84437 1.62845 0
M  V30 3048 H 274.293 4.58008 1.67572 0
M  V30 3049 H 273.298 5.47986 -0.446254 0
M  V30 3050 H 274.523 6.77425 -0.476716 0
M  V30 3051 H 272.469 6.32973 1.72283 0
M  V30 3052 H 272.386 7.54416 0.489123 0
M  V30 3053 H 273.654 7.61262 1.67632 0
M  V30 3054 N 277.883 0.443576 1.51229 0
M  V30 3055 C 278.813 -0.355142 2.30783 0
M  V30 3056 C 279.794 -1.0154 1.36468 0
M  V30 3057 O 280.979 -1.01785 1.65389 0
M  V30 3058 C 278.109 -1.45312 3.15439 0
M  V30 3059 C 277.063 -0.916002 4.18083 0
M  V30 3060 C 276.389 -2.1102 4.91299 0
M  V30 3061 C 277.689 0.0538602 5.22272 0
M  V30 3062 H 279.383 0.308767 2.97804 0
M  V30 3063 H 276.929 0.149937 1.43217 0
M  V30 3064 H 278.882 -2.01914 3.69876 0
M  V30 3065 H 277.606 -2.14541 2.46252 0
M  V30 3066 H 276.265 -0.372145 3.64706 0
M  V30 3067 H 275.913 -2.78882 4.18609 0
M  V30 3068 H 275.613 -1.75717 5.60712 0
M  V30 3069 H 277.137 -2.68164 5.48562 0
M  V30 3070 H 278.551 -0.422069 5.71744 0
M  V30 3071 H 276.948 0.319776 5.99247 0
M  V30 3072 H 278.018 0.98858 4.74716 0
M  V30 3073 N 279.361 -1.56624 0.175154 0
M  V30 3074 C 280.309 -2.19468 -0.770495 0
M  V30 3075 C 281.303 -1.15985 -1.23466 0
M  V30 3076 O 282.509 -1.34176 -1.19987 0
M  V30 3077 H 278.884 -0.703095 -0.266761 0
M  V30 3078 H 280.855 -2.97613 -0.216542 0
M  V30 3079 C 279.604 -2.85264 -1.98796 0
M  V30 3080 H 278.927 -3.64623 -1.63983 0
M  V30 3081 H 280.367 -3.327 -2.62843 0
M  V30 3082 C 278.826 -1.85239 -2.81404 0
M  V30 3083 O 279.356 -1.34024 -3.78682 0
M  V30 3084 N 277.562 -1.53911 -2.46495 0
M  V30 3085 H 277.109 -1.95751 -1.67449 0
M  V30 3086 H 277.067 -0.872382 -3.02054 0
M  V30 3087 N 280.839 0.0985539 -1.57292 0
M  V30 3088 C 281.749 1.13824 -2.05137 0
M  V30 3089 C 282.765 1.44076 -0.975604 0
M  V30 3090 O 283.941 1.54786 -1.28853 0
M  V30 3091 C 281.006 2.43969 -2.46333 0
M  V30 3092 C 280.067 2.2093 -3.68087 0
M  V30 3093 C 279.3 3.44869 -4.0731 0
M  V30 3094 O 279.523 4.52972 -3.46659 0
M  V30 3095 O 278.457 3.34661 -5.00285 0
M  V30 3096 H 282.283 0.761881 -2.93988 0
M  V30 3097 H 279.868 0.310818 -1.46131 0
M  V30 3098 H 281.75 3.20609 -2.73473 0
M  V30 3099 H 280.425 2.81038 -1.60621 0
M  V30 3100 H 279.332 1.42081 -3.46069 0
M  V30 3101 H 280.665 1.88755 -4.54568 0
M  V30 3102 N 282.317 1.53212 0.369288 0
M  V30 3103 C 283.557 1.70915 1.12105 0
M  V30 3104 C 283.921 0.449444 1.86665 0
M  V30 3105 O 285.122 0.503105 2.6405 0
M  V30 3106 C 283.393 2.9222 2.05772 0
M  V30 3107 S 284.952 3.30609 2.88519 0
M  V30 3108 H 281.77 0.601445 0.379189 0
M  V30 3109 H 284.372 1.91306 0.402794 0
M  V30 3110 H 283.076 3.82103 1.49752 0
M  V30 3111 H 282.607 2.7422 2.82076 0
M  V30 3112 H 284.622 2.82333 4.08047 0
M  V30 3113 N 283.795 -0.628877 1.44509 0
M  V30 3114 C 285.041 -1.39045 1.47629 0
M  V30 3115 C 285.374 -1.93892 0.109343 0
M  V30 3116 O 284.649 -1.7379 -0.87334 0
M  V30 3117 C 284.932 -2.55408 2.53848 0
M  V30 3118 C 284.785 -2.05896 3.99909 0
M  V30 3119 C 286.104 -3.5759 2.56549 0
M  V30 3120 H 283.223 -0.504232 0.537512 0
M  V30 3121 H 285.865 -0.710854 1.76201 0
M  V30 3122 H 284.015 -3.13384 2.29615 0
M  V30 3123 H 285.687 -1.52734 4.35282 0
M  V30 3124 H 283.93 -1.37061 4.11578 0
M  V30 3125 H 284.601 -2.89681 4.69882 0
M  V30 3126 H 287.077 -3.09419 2.78207 0
M  V30 3127 H 285.953 -4.36527 3.32769 0
M  V30 3128 H 286.214 -4.11808 1.60832 0
M  V30 3129 N 285.273 -1.31445 -0.869486 0
M  V30 3130 C 286.55 -1.11795 -1.60503 0
M  V30 3131 C 286.93 0.327168 -2.08549 0
M  V30 3132 O 286.278 1.32135 -1.8642 0
M  V30 3133 C 286.488 -2.13258 -2.76265 0
M  V30 3134 C 287.836 -2.45805 -3.46215 0
M  V30 3135 O 288.86 -2.11688 -2.86473 0
M  V30 3136 O 287.719 -3.04228 -4.5399 0
M  V30 3137 H 284.813 -0.430421 -0.706163 0
M  V30 3138 H 287.359 -1.42925 -0.914907 0
M  V30 3139 H 286.131 -3.10461 -2.3818 0
M  V30 3140 H 285.754 -1.83035 -3.52964 0
M  V30 3141 N 286.751 1.08385 -1.14413 0
M  V30 3142 C 287.701 2.13509 -0.79987 0
M  V30 3143 C 288.685 1.5951 0.211059 0
M  V30 3144 O 289.877 1.76995 0.0133694 0
M  V30 3145 C 287.006 3.42162 -0.279297 0
M  V30 3146 C 286.092 4.03042 -1.31976 0
M  V30 3147 N 286.483 4.38327 -2.52395 0
M  V30 3148 C 284.781 4.30379 -1.17004 0
M  V30 3149 C 285.482 4.86428 -3.19003 0
M  V30 3150 N 284.458 4.84547 -2.46405 0
M  V30 3151 H 288.26 2.38609 -1.7159 0
M  V30 3152 H 285.774 1.2572 -1.02802 0
M  V30 3153 H 287.771 4.16898 -0.0143688 0
M  V30 3154 H 286.431 3.18511 0.630923 0
M  V30 3155 H 287.442 4.29349 -2.89621 0
M  V30 3156 H 284.119 4.16281 -0.318854 0
M  V30 3157 H 285.509 5.23107 -4.21674 0
M  V30 3158 N 288.23 0.939286 1.26551 0
M  V30 3159 C 289.458 0.602536 1.97932 0
M  V30 3160 C 289.873 -0.82206 1.69964 0
M  V30 3161 O 289.23 -1.54789 0.966784 0
M  V30 3162 C 289.281 0.832946 3.51773 0
M  V30 3163 O 289.002 2.20151 3.78768 0
M  V30 3164 C 290.503 0.506483 4.40397 0
M  V30 3165 H 287.723 0.227248 0.631347 0
M  V30 3166 H 290.267 1.25948 1.61113 0
M  V30 3167 H 288.422 0.222644 3.8676 0
M  V30 3168 H 288.836 2.26013 4.73306 0
M  V30 3169 H 290.31 0.718333 5.47306 0
M  V30 3170 H 290.787 -0.558451 4.35635 0
M  V30 3171 H 291.393 1.09543 4.10951 0
M  V30 3172 N 289.708 -1.40897 0.706093 0
M  V30 3173 C 291.119 -1.84023 0.315052 0
M  V30 3174 C 291.47 -1.5906 -1.14866 0
M  V30 3175 O 290.595 -1.06651 -1.88293 0
M  V30 3176 C 291.19 -3.34055 0.565038 0
M  V30 3177 C 289.749 -3.7571 0.227806 0
M  V30 3178 C 288.896 -2.64204 0.842122 0
M  V30 3179 H 291.847 -1.303 0.905963 0
M  V30 3180 H 291.868 -3.80107 -0.172843 0
M  V30 3181 H 291.38 -3.52192 1.63042 0
M  V30 3182 H 289.481 -3.63172 -0.832895 0
M  V30 3183 H 289.594 -4.74103 0.690174 0
M  V30 3184 H 287.958 -2.53255 0.270893 0
M  V30 3185 H 288.741 -2.85155 1.91158 0
M  V30 3186 N 291.186 -0.45159 -1.50991 0
M  V30 3187 C 292.133 0.352625 -2.2809 0
M  V30 3188 C 293.103 1.0044 -1.32291 0
M  V30 3189 O 294.288 1.02058 -1.6121 0
M  V30 3190 C 291.428 1.43983 -3.13629 0
M  V30 3191 C 290.541 0.804772 -4.24438 0
M  V30 3192 C 289.676 1.86822 -4.97263 0
M  V30 3193 C 288.715 1.21236 -5.99973 0
M  V30 3194 N 287.852 2.2178 -6.66152 0
M  V30 3195 H 292.692 -0.311186 -2.96371 0
M  V30 3196 H 290.229 -0.165308 -1.46168 0
M  V30 3197 H 292.187 2.08161 -3.61559 0
M  V30 3198 H 290.817 2.07307 -2.47434 0
M  V30 3199 H 289.869 0.0509129 -3.80366 0
M  V30 3200 H 291.181 0.286076 -4.97979 0
M  V30 3201 H 290.335 2.58628 -5.48813 0
M  V30 3202 H 289.074 2.42068 -4.23385 0
M  V30 3203 H 288.079 0.479828 -5.47702 0
M  V30 3204 H 289.304 0.667051 -6.75816 0
M  V30 3205 H 287.25 2.76079 -5.95077 0
M  V30 3206 H 287.167 1.74841 -7.35504 0
M  V30 3207 H 288.435 2.93026 -7.22327 0
M  V30 3208 N 292.664 1.56529 -0.183458 0
M  V30 3209 C 293.594 2.21549 0.737456 0
M  V30 3210 C 294.575 1.17489 1.23005 0
M  V30 3211 O 295.76 1.45959 1.281 0
M  V30 3212 C 292.89 2.86575 1.96194 0
M  V30 3213 C 291.844 3.96778 1.60473 0
M  V30 3214 C 291.17 4.48911 2.90487 0
M  V30 3215 C 292.47 5.15767 0.823497 0
M  V30 3216 H 294.164 2.98761 0.195453 0
M  V30 3217 H 291.71 1.43702 0.0925686 0
M  V30 3218 H 293.663 3.30739 2.61131 0
M  V30 3219 H 292.387 2.06749 2.52828 0
M  V30 3220 H 291.046 3.53286 0.978997 0
M  V30 3221 H 290.694 3.65862 3.45186 0
M  V30 3222 H 290.394 5.23265 2.67335 0
M  V30 3223 H 291.918 4.95771 3.56432 0
M  V30 3224 H 293.332 5.56549 1.37571 0
M  V30 3225 H 291.729 5.96114 0.690551 0
M  V30 3226 H 292.799 4.84574 -0.177782 0
M  V30 3227 N 294.142 -0.090211 1.57342 0
M  V30 3228 C 295.089 -1.10909 2.02405 0
M  V30 3229 C 296.059 -1.39523 0.901252 0
M  V30 3230 O 297.244 -1.50903 1.1676 0
M  V30 3231 C 294.384 -2.42277 2.45755 0
M  V30 3232 C 293.497 -2.20352 3.71576 0
M  V30 3233 C 292.632 -3.45154 4.03785 0
M  V30 3234 C 291.671 -3.18512 5.22701 0
M  V30 3235 N 290.808 -4.35593 5.50639 0
M  V30 3236 H 295.648 -0.71782 2.89225 0
M  V30 3237 H 293.185 -0.342901 1.43048 0
M  V30 3238 H 295.143 -3.18951 2.68935 0
M  V30 3239 H 293.773 -2.79242 1.61938 0
M  V30 3240 H 292.825 -1.34458 3.55844 0
M  V30 3241 H 294.137 -1.96661 4.58395 0
M  V30 3242 H 293.291 -4.30233 4.27767 0
M  V30 3243 H 292.03 -3.71904 3.15498 0
M  V30 3244 H 291.035 -2.31827 4.98534 0
M  V30 3245 H 292.26 -2.93103 6.12591 0
M  V30 3246 H 290.206 -4.6241 4.6531 0
M  V30 3247 H 290.123 -4.1511 6.31838 0
M  V30 3248 H 291.391 -5.21723 5.7916 0
M  V30 3249 N 295.62 -1.53406 -0.361157 0
M  V30 3250 C 296.55 -1.83136 -1.44857 0
M  V30 3251 C 297.531 -0.685174 -1.5569 0
M  V30 3252 O 298.716 -0.93544 -1.70186 0
M  V30 3253 C 295.846 -2.02522 -2.82138 0
M  V30 3254 C 294.8 -3.18302 -2.86126 0
M  V30 3255 C 294.126 -3.22989 -4.26125 0
M  V30 3256 C 295.426 -4.56796 -2.53248 0
M  V30 3257 H 297.12 -2.74201 -1.20226 0
M  V30 3258 H 294.666 -1.31938 -0.576922 0
M  V30 3259 H 296.619 -2.21904 -3.58241 0
M  V30 3260 H 295.343 -1.08172 -3.08166 0
M  V30 3261 H 294.002 -2.98747 -2.12475 0
M  V30 3262 H 293.65 -2.26267 -4.49235 0
M  V30 3263 H 293.35 -4.00781 -4.29708 0
M  V30 3264 H 294.874 -3.44559 -5.04094 0
M  V30 3265 H 296.288 -4.7631 -3.19064 0
M  V30 3266 H 294.685 -5.36862 -2.68141 0
M  V30 3267 H 295.755 -4.61606 -1.48484 0
M  V30 3268 N 297.098 0.621204 -1.44841 0
M  V30 3269 C 298.344 1.38073 -1.49357 0
M  V30 3270 C 298.699 1.91973 -0.128115 0
M  V30 3271 O 297.992 1.71311 0.858087 0
M  V30 3272 C 298.186 2.55675 -2.4973 0
M  V30 3273 C 298.015 2.13289 -3.95901 0
M  V30 3274 C 296.785 2.001 -4.63991 0
M  V30 3275 C 298.983 1.7159 -4.84831 0
M  V30 3276 N 296.965 1.51381 -5.94943 0
M  V30 3277 C 298.336 1.34188 -6.05304 0
M  V30 3278 C 300.391 1.59059 -4.7181 0
M  V30 3279 C 299.094 0.855085 -7.14199 0
M  V30 3280 C 301.12 1.11784 -5.8074 0
M  V30 3281 C 300.482 0.753385 -7.0036 0
M  V30 3282 H 296.581 0.499675 -0.601539 0
M  V30 3283 H 299.165 0.711609 -1.8123 0
M  V30 3284 H 297.336 3.20201 -2.19832 0
M  V30 3285 H 299.068 3.22509 -2.4448 0
M  V30 3286 H 295.823 2.20863 -4.18947 0
M  V30 3287 H 296.247 1.29293 -6.64539 0
M  V30 3288 H 300.889 1.85865 -3.79755 0
M  V30 3289 H 298.607 0.574552 -8.06055 0
M  V30 3290 H 302.193 1.02533 -5.72694 0
M  V30 3291 H 301.073 0.393183 -7.83214 0
M  V30 3292 N 298.576 1.31904 0.862503 0
M  V30 3293 C 299.509 1.14514 1.97388 0
M  V30 3294 C 300.487 0.0466493 1.62533 0
M  V30 3295 O 301.671 0.204484 1.87388 0
M  V30 3296 C 298.798 0.751347 3.30261 0
M  V30 3297 C 297.844 1.85395 3.84098 0
M  V30 3298 S 298.677 3.46081 4.08642 0
M  V30 3299 C 299.833 3.08655 5.44502 0
M  V30 3300 H 300.066 2.08597 2.11836 0
M  V30 3301 H 297.599 1.16475 1.01356 0
M  V30 3302 H 299.557 0.530901 4.07052 0
M  V30 3303 H 298.218 -0.170493 3.13637 0
M  V30 3304 H 297.411 1.53122 4.80177 0
M  V30 3305 H 297.013 2.02984 3.14123 0
M  V30 3306 H 299.305 2.58012 6.26447 0
M  V30 3307 H 300.248 4.03726 5.81731 0
M  V30 3308 H 300.656 2.45891 5.08132 0
M  V30 3309 N 300.054 -1.07777 1.14986 0
M  V30 3310 C 301.017 -2.13041 0.845358 0
M  V30 3311 C 302.017 -1.60071 -0.152931 0
M  V30 3312 O 303.207 -1.74033 0.0761879 0
M  V30 3313 C 300.339 -3.39896 0.261383 0
M  V30 3314 H 301.532 -2.41485 1.77834 0
M  V30 3315 H 299.085 -1.23595 0.956757 0
M  V30 3316 H 299.82 -3.17091 -0.68 0
M  V30 3317 H 299.605 -3.79642 0.980514 0
M  V30 3318 H 301.095 -4.17548 0.0657687 0
M  V30 3319 N 301.532 -0.945985 -1.26051 0
M  V30 3320 C 302.495 -0.463897 -2.24456 0
M  V30 3321 C 303.495 0.427655 -1.55009 0
M  V30 3322 O 304.685 0.226157 -1.72726 0
M  V30 3323 C 301.817 0.330812 -3.39291 0
M  V30 3324 H 303.01 -1.33357 -2.68619 0
M  V30 3325 H 300.563 -0.728416 -1.38289 0
M  V30 3326 H 301.298 1.21852 -3.00537 0
M  V30 3327 H 301.083 -0.308679 -3.90883 0
M  V30 3328 H 302.573 0.657865 -4.12386 0
M  V30 3329 N 303.011 1.40521 -0.713556 0
M  V30 3330 C 303.944 2.28198 -0.00881422 0
M  V30 3331 C 304.922 1.43227 0.769735 0
M  V30 3332 O 306.106 1.72641 0.756799 0
M  V30 3333 C 303.233 3.23758 0.994899 0
M  V30 3334 C 302.279 4.25391 0.3074 0
M  V30 3335 S 303.112 5.26765 -0.963247 0
M  V30 3336 C 304.268 6.25888 0.0384143 0
M  V30 3337 H 304.501 2.87622 -0.752407 0
M  V30 3338 H 302.034 1.45925 -0.504502 0
M  V30 3339 H 303.992 3.79341 1.56879 0
M  V30 3340 H 302.653 2.63396 1.71118 0
M  V30 3341 H 301.846 4.92596 1.0661 0
M  V30 3342 H 301.448 3.73497 -0.193879 0
M  V30 3343 H 303.74 6.71683 0.885912 0
M  V30 3344 H 304.683 7.05552 -0.60019 0
M  V30 3345 H 305.091 5.63072 0.401233 0
M  V30 3346 N 304.489 0.459591 1.5075 0
M  V30 3347 C 305.436 -0.340524 2.28274 0
M  V30 3348 C 306.406 -0.997371 1.32822 0
M  V30 3349 O 307.591 -1.01202 1.61749 0
M  V30 3350 C 304.731 -1.42317 3.14388 0
M  V30 3351 C 303.844 -0.782251 4.24859 0
M  V30 3352 C 302.979 -1.84182 4.98247 0
M  V30 3353 C 302.018 -1.18053 6.00608 0
M  V30 3354 N 301.155 -2.18244 6.67319 0
M  V30 3355 H 305.995 0.326899 2.96202 0
M  V30 3356 H 303.532 0.173057 1.46078 0
M  V30 3357 H 305.49 -2.06241 3.62658 0
M  V30 3358 H 304.12 -2.05992 2.4853 0
M  V30 3359 H 303.172 -0.0307404 3.80388 0
M  V30 3360 H 304.484 -0.259663 4.98124 0
M  V30 3361 H 303.638 -2.55714 5.50177 0
M  V30 3362 H 302.377 -2.39819 4.24662 0
M  V30 3363 H 301.382 -0.450776 5.47949 0
M  V30 3364 H 302.607 -0.631202 6.7616 0
M  V30 3365 H 300.553 -2.72919 5.96533 0
M  V30 3366 H 300.47 -1.70938 7.36421 0
M  V30 3367 H 301.738 -2.89191 7.23871 0
M  V30 3368 N 305.967 -1.56429 0.191757 0
M  V30 3369 C 306.877 -2.22541 -0.742481 0
M  V30 3370 C 307.893 -1.22342 -1.23727 0
M  V30 3371 O 309.069 -1.55069 -1.28513 0
M  V30 3372 C 306.134 -2.8692 -1.94623 0
M  V30 3373 C 305.195 -4.02378 -1.49633 0
M  V30 3374 C 304.428 -4.63678 -2.6427 0
M  V30 3375 O 304.651 -4.23895 -3.81666 0
M  V30 3376 O 303.585 -5.53202 -2.37174 0
M  V30 3377 H 307.411 -3.02977 -0.209462 0
M  V30 3378 H 304.996 -1.49353 -0.0373832 0
M  V30 3379 H 306.878 -3.27663 -2.64982 0
M  V30 3380 H 305.553 -2.09466 -2.46791 0
M  V30 3381 H 304.46 -3.66265 -0.761636 0
M  V30 3382 H 305.793 -4.81487 -1.02134 0
M  V30 3383 N 307.445 0.0818655 -1.57387 0
M  V30 3384 C 308.722 0.815343 -1.77796 0
M  V30 3385 C 309.102 1.96289 -0.77679 0
M  V30 3386 O 308.45 2.27691 0.192106 0
M  V30 3387 C 308.66 1.29765 -3.23978 0
M  V30 3388 C 310.008 1.7351 -3.8753 0
M  V30 3389 O 311.032 1.39356 -3.27808 0
M  V30 3390 O 309.891 2.36708 -4.92576 0
M  V30 3391 H 306.985 0.389914 -0.729312 0
M  V30 3392 H 309.531 0.0627213 -1.69584 0
M  V30 3393 H 308.303 0.47608 -3.88393 0
M  V30 3394 H 307.926 2.11189 -3.36875 0
M  V30 3395 N 308.923 1.53595 0.353017 0
M  V30 3396 C 310.334 1.61937 0.929153 0
M  V30 3397 C 310.685 0.494686 1.89861 0
M  V30 3398 O 309.81 -0.377017 2.1309 0
M  V30 3399 C 310.405 2.93526 1.69199 0
M  V30 3400 C 308.964 3.04161 2.21727 0
M  V30 3401 C 308.111 2.57322 1.03348 0
M  V30 3402 H 311.062 1.58155 0.131431 0
M  V30 3403 H 311.083 2.82034 2.55416 0
M  V30 3404 H 310.595 3.75362 0.986144 0
M  V30 3405 H 308.696 2.26938 2.95516 0
M  V30 3406 H 308.809 4.09465 2.48748 0
M  V30 3407 H 307.173 2.12499 1.40414 0
M  V30 3408 H 307.956 3.41588 0.342428 0
M  V30 3409 N 310.401 -0.613514 1.45168 0
M  V30 3410 C 311.629 -1.39946 1.5239 0
M  V30 3411 C 312.044 -1.88167 0.154531 0
M  V30 3412 O 311.401 -1.61872 -0.842843 0
M  V30 3413 C 311.452 -2.60795 2.50337 0
M  V30 3414 O 311.173 -2.1458 3.81952 0
M  V30 3415 C 312.674 -3.53723 2.67198 0
M  V30 3416 H 309.894 -0.428593 0.516284 0
M  V30 3417 H 312.438 -0.748753 1.903 0
M  V30 3418 H 310.593 -3.21919 2.15515 0
M  V30 3419 H 311.007 -2.93055 4.34993 0
M  V30 3420 H 312.481 -4.35079 3.39721 0
M  V30 3421 H 312.958 -4.0368 1.73029 0
M  V30 3422 H 313.564 -2.98456 3.02992 0
M  V30 3423 N 311.879 -1.3236 -0.855495 0
M  V30 3424 C 313.125 -1.23054 -1.612 0
M  V30 3425 C 313.458 0.207404 -1.93089 0
M  V30 3426 O 312.733 1.14432 -1.57275 0
M  V30 3427 C 313.016 -2.08937 -2.93287 0
M  V30 3428 C 312.869 -3.61105 -2.68185 0
M  V30 3429 C 314.188 -1.94986 -3.94549 0
M  V30 3430 H 311.307 -0.448364 -0.584926 0
M  V30 3431 H 313.949 -1.62297 -0.987917 0
M  V30 3432 H 312.099 -1.75599 -3.46551 0
M  V30 3433 H 313.771 -4.04652 -2.21483 0
M  V30 3434 H 312.014 -3.83813 -2.02164 0
M  V30 3435 H 312.685 -4.16522 -3.62234 0
M  V30 3436 H 315.161 -2.24189 -3.5054 0
M  V30 3437 H 314.037 -2.57356 -4.84829 0
M  V30 3438 H 314.298 -0.917263 -4.3248 0
M  V30 3439 N 313.357 1.07166 -1.15556 0
M  V30 3440 C 314.582 1.84053 -0.955988 0
M  V30 3441 C 315.007 1.81586 0.490739 0
M  V30 3442 O 314.365 1.21018 1.34997 0
M  V30 3443 C 314.413 3.28957 -1.47714 0
M  V30 3444 O 313.517 4.06795 -0.677593 0
M  V30 3445 H 312.858 0.569842 -0.340847 0
M  V30 3446 H 315.388 1.35178 -1.53584 0
M  V30 3447 H 315.398 3.79788 -1.4908 0
M  V30 3448 H 314.073 3.30068 -2.53037 0
M  V30 3449 H 312.65 3.6561 -0.733721 0
M  V30 3450 N 314.835 0.952656 1.25548 0
M  V30 3451 C 315.798 0.475794 2.24207 0
M  V30 3452 C 316.798 -0.419428 1.55234 0
M  V30 3453 O 317.988 -0.216994 1.72843 0
M  V30 3454 C 315.12 -0.312814 3.39462 0
M  V30 3455 H 316.313 1.34779 2.67908 0
M  V30 3456 H 313.866 0.735739 1.37901 0
M  V30 3457 H 314.601 -1.20257 3.01179 0
M  V30 3458 H 314.386 0.329404 3.90714 0
M  V30 3459 H 315.876 -0.635986 4.12729 0
M  V30 3460 N 316.313 -1.40141 0.720998 0
M  V30 3461 C 317.243 -2.33339 0.0867621 0
M  V30 3462 C 318.224 -1.53178 -0.739622 0
M  V30 3463 O 319.409 -1.81625 -0.687449 0
M  V30 3464 C 316.539 -3.37194 -0.831728 0
M  V30 3465 C 315.493 -4.27857 -0.110558 0
M  V30 3466 C 314.819 -5.22294 -1.14513 0
M  V30 3467 C 316.119 -5.11872 1.0385 0
M  V30 3468 H 317.813 -2.86626 0.865219 0
M  V30 3469 H 315.359 -1.37814 0.417516 0
M  V30 3470 H 317.312 -4.01335 -1.28485 0
M  V30 3471 H 316.036 -2.82314 -1.64214 0
M  V30 3472 H 314.695 -3.65176 0.322797 0
M  V30 3473 H 314.343 -4.63717 -1.94874 0
M  V30 3474 H 314.043 -5.83797 -0.667446 0
M  V30 3475 H 315.567 -5.89312 -1.59824 0
M  V30 3476 H 316.981 -5.69436 0.664482 0
M  V30 3477 H 315.378 -5.82445 1.4449 0
M  V30 3478 H 316.448 -4.4753 1.86668 0
M  V30 3479 N 317.792 -0.46758 -1.50504 0
M  V30 3480 C 318.722 0.318381 -2.31319 0
M  V30 3481 C 319.703 0.993564 -1.38066 0
M  V30 3482 O 320.888 0.991411 -1.66987 0
M  V30 3483 C 318.018 1.40275 -3.17711 0
M  V30 3484 C 316.972 0.849373 -4.19487 0
M  V30 3485 C 316.298 2.03177 -4.94594 0
M  V30 3486 C 317.598 -0.136942 -5.2212 0
M  V30 3487 H 319.292 -0.356106 -2.97275 0
M  V30 3488 H 316.838 -0.172703 -1.42961 0
M  V30 3489 H 318.791 1.96004 -3.73042 0
M  V30 3490 H 317.515 2.10596 -2.49634 0
M  V30 3491 H 316.174 0.314076 -3.65252 0
M  V30 3492 H 315.822 2.72187 -4.22993 0
M  V30 3493 H 315.522 1.66774 -5.63436 0
M  V30 3494 H 317.046 2.59403 -5.52759 0
M  V30 3495 H 318.46 0.331056 -5.72343 0
M  V30 3496 H 316.857 -0.41507 -5.98663 0
M  V30 3497 H 317.927 -1.06398 -4.73083 0
M  V30 3498 N 319.27 1.56325 -0.20005 0
M  V30 3499 C 320.498 2.02105 0.442874 0
M  V30 3500 C 320.913 1.08014 1.5485 0
M  V30 3501 O 320.27 0.0858797 1.82298 0
M  V30 3502 C 320.321 3.47549 0.994583 0
M  V30 3503 O 320.042 4.38049 -0.0669322 0
M  V30 3504 C 321.543 4.0887 1.7129 0
M  V30 3505 H 318.763 0.661807 0.110691 0
M  V30 3506 H 321.307 2.02134 -0.310207 0
M  V30 3507 H 319.462 3.48204 1.69803 0
M  V30 3508 H 319.876 5.23368 0.344462 0
M  V30 3509 H 321.35 5.12475 2.05118 0
M  V30 3510 H 321.827 3.52615 2.61838 0
M  V30 3511 H 322.433 4.12002 1.05518 0
M  V30 3512 N 320.748 -0.0735177 1.57428 0
M  V30 3513 C 321.973 -0.789787 1.91774 0
M  V30 3514 C 322.398 -1.70413 0.796306 0
M  V30 3515 O 321.756 -1.79555 -0.250961 0
M  V30 3516 C 321.804 -1.5609 3.25067 0
M  V30 3517 O 320.908 -2.67144 3.14178 0
M  V30 3518 H 320.249 -0.215582 0.628029 0
M  V30 3519 H 322.779 -0.0422781 2.04556 0
M  V30 3520 H 322.789 -1.94052 3.58898 0
M  V30 3521 H 321.464 -0.890015 4.06265 0
M  V30 3522 H 320.041 -2.32052 2.91901 0
M  V30 3523 N 322.226 -1.5378 -0.344866 0
M  V30 3524 C 323.136 -1.84667 -1.4469 0
M  V30 3525 C 324.152 -0.736704 -1.57635 0
M  V30 3526 O 325.328 -1.02888 -1.73136 0
M  V30 3527 C 322.393 -2.04869 -2.79696 0
M  V30 3528 C 321.454 -3.28731 -2.76106 0
M  V30 3529 C 320.687 -3.4796 -4.04673 0
M  V30 3530 O 320.91 -2.71052 -5.01883 0
M  V30 3531 O 319.844 -4.41383 -4.09224 0
M  V30 3532 H 323.67 -2.78334 -1.21506 0
M  V30 3533 H 321.255 -1.39418 -0.536921 0
M  V30 3534 H 323.137 -2.19609 -3.59652 0
M  V30 3535 H 321.812 -1.14391 -3.02814 0
M  V30 3536 H 320.719 -3.19396 -1.94774 0
M  V30 3537 H 322.052 -4.19198 -2.57941 0
M  V30 3538 N 323.704 0.605807 -1.45491 0
M  V30 3539 C 324.651 1.7164 -1.54299 0
M  V30 3540 C 325.621 1.61486 -0.388761 0
M  V30 3541 O 326.806 1.81039 -0.602445 0
M  V30 3542 C 323.946 3.09953 -1.51734 0
M  V30 3543 C 323.059 3.309 -2.77721 0
M  V30 3544 C 322.194 4.59329 -2.66816 0
M  V30 3545 C 321.233 4.7354 -3.87848 0
M  V30 3546 N 320.37 5.9327 -3.75467 0
M  V30 3547 H 325.21 1.63449 -2.49176 0
M  V30 3548 H 322.747 0.796957 -1.23641 0
M  V30 3549 H 324.705 3.89977 -1.48235 0
M  V30 3550 H 323.335 3.17098 -0.604068 0
M  V30 3551 H 322.387 2.44639 -2.913 0
M  V30 3552 H 323.699 3.37274 -3.67488 0
M  V30 3553 H 322.853 5.4755 -2.61292 0
M  V30 3554 H 321.592 4.55355 -1.74651 0
M  V30 3555 H 320.597 3.83741 -3.93729 0
M  V30 3556 H 321.822 4.79309 -4.81082 0
M  V30 3557 H 319.768 5.90338 -2.86072 0
M  V30 3558 H 319.685 6.00811 -4.5887 0
M  V30 3559 H 320.953 6.83984 -3.73879 0
M  V30 3560 N 325.182 1.32811 0.848464 0
M  V30 3561 C 326.459 1.14334 1.58704 0
M  V30 3562 C 326.839 -0.293948 2.09043 0
M  V30 3563 O 326.187 -1.29153 1.88499 0
M  V30 3564 C 326.397 2.17626 2.72837 0
M  V30 3565 C 327.745 2.51282 3.42261 0
M  V30 3566 O 328.769 2.16219 2.83068 0
M  V30 3567 O 327.628 3.11413 4.49093 0
M  V30 3568 H 324.722 0.441601 0.699226 0
M  V30 3569 H 327.268 1.44362 0.892053 0
M  V30 3570 H 326.04 3.14211 2.3321 0
M  V30 3571 H 325.663 1.88628 3.50008 0
M  V30 3572 N 326.66 -1.06551 1.16123 0
M  V30 3573 C 327.906 -1.79719 0.952505 0
M  V30 3574 C 328.261 -1.85396 -0.514385 0
M  V30 3575 O 327.554 -1.33263 -1.37665 0
M  V30 3576 C 327.748 -3.23911 1.51052 0
M  V30 3577 C 327.577 -3.32284 3.03013 0
M  V30 3578 C 326.347 -3.42371 3.71632 0
M  V30 3579 C 328.545 -3.22363 4.00732 0
M  V30 3580 N 326.527 -3.39732 5.11327 0
M  V30 3581 C 327.898 -3.26937 5.26794 0
M  V30 3582 C 329.953 -3.0623 3.92591 0
M  V30 3583 C 328.656 -3.17035 6.45663 0
M  V30 3584 C 330.682 -2.97665 5.11028 0
M  V30 3585 C 330.044 -3.02858 6.35969 0
M  V30 3586 H 326.143 -0.670585 0.402293 0
M  V30 3587 H 328.727 -1.27125 1.4747 0
M  V30 3588 H 326.898 -3.74907 1.01484 0
M  V30 3589 H 328.63 -3.85242 1.2398 0
M  V30 3590 H 325.385 -3.47058 3.22254 0
M  V30 3591 H 325.809 -3.41919 5.84312 0
M  V30 3592 H 330.451 -3.01063 2.96852 0
M  V30 3593 H 328.169 -3.2096 7.41627 0
M  V30 3594 H 331.755 -2.86273 5.06497 0
M  V30 3595 H 330.635 -2.96286 7.26075 0
M  V30 3596 N 328.138 -0.959301 -1.25041 0
M  V30 3597 C 329.07 -0.440543 -2.24926 0
M  V30 3598 C 330.083 0.446131 -1.56568 0
M  V30 3599 O 331.272 0.253657 -1.76689 0
M  V30 3600 C 328.372 0.38412 -3.36716 0
M  V30 3601 C 327.545 -0.490658 -4.34639 0
M  V30 3602 C 326.604 0.276587 -5.25473 0
M  V30 3603 O 325.63 -0.326614 -5.68262 0
M  V30 3604 N 326.832 1.56844 -5.5891 0
M  V30 3605 H 329.597 -1.29931 -2.70071 0
M  V30 3606 H 327.158 -0.830181 -1.38995 0
M  V30 3607 H 329.15 0.905228 -3.94446 0
M  V30 3608 H 327.72 1.14377 -2.90924 0
M  V30 3609 H 326.94 -1.19282 -3.7572 0
M  V30 3610 H 328.228 -1.08756 -4.97041 0
M  V30 3611 H 327.626 2.08036 -5.26059 0
M  V30 3612 H 326.183 2.03541 -6.19205 0
M  V30 3613 N 329.616 1.39756 -0.72842 0
M  V30 3614 C 330.864 2.00248 -0.272946 0
M  V30 3615 C 331.185 1.58077 1.14178 0
M  V30 3616 O 330.455 0.826014 1.77634 0
M  V30 3617 H 329.035 0.740554 -0.0979247 0
M  V30 3618 H 331.697 1.70903 -0.936912 0
M  V30 3619 H 330.793 3.10495 -0.316142 0
M  V30 3620 N 331.094 0.475555 1.50254 0
M  V30 3621 C 332.341 -0.0778919 2.0235 0
M  V30 3622 C 332.669 -1.39319 1.35722 0
M  V30 3623 O 331.924 -1.89888 0.473395 0
M  V30 3624 C 332.223 -0.305114 3.56095 0
M  V30 3625 C 331.889 0.92903 4.41225 0
M  V30 3626 C 330.551 1.26739 4.6421 0
M  V30 3627 C 332.903 1.75054 4.90923 0
M  V30 3628 C 330.231 2.42724 5.34137 0
M  V30 3629 C 332.583 2.9017 5.62125 0
M  V30 3630 C 331.247 3.24416 5.83362 0
M  V30 3631 H 330.517 -0.0285027 0.740452 0
M  V30 3632 H 333.164 0.630543 1.80821 0
M  V30 3633 H 331.469 -1.09584 3.76163 0
M  V30 3634 H 333.166 -0.747377 3.93974 0
M  V30 3635 H 329.756 0.655428 4.23559 0
M  V30 3636 H 333.94 1.50231 4.73016 0
M  V30 3637 H 329.196 2.69525 5.48786 0
M  V30 3638 H 333.37 3.54169 5.99614 0
M  V30 3639 H 330.997 4.14396 6.37323 0
M  V30 3640 N 332.573 -1.56217 0.208337 0
M  V30 3641 C 333.503 -2.22694 -0.702116 0
M  V30 3642 C 334.484 -1.19432 -1.2112 0
M  V30 3643 O 335.669 -1.47978 -1.25762 0
M  V30 3644 C 332.799 -2.8966 -1.9161 0
M  V30 3645 C 331.753 -3.9928 -1.5414 0
M  V30 3646 C 331.079 -4.53476 -2.83308 0
M  V30 3647 C 332.379 -5.17012 -0.741339 0
M  V30 3648 H 334.073 -2.99034 -0.147898 0
M  V30 3649 H 331.619 -1.43831 -0.0696951 0
M  V30 3650 H 333.572 -3.34852 -2.55836 0
M  V30 3651 H 332.296 -2.10746 -2.49507 0
M  V30 3652 H 330.955 -3.54799 -0.922668 0
M  V30 3653 H 330.603 -3.71308 -3.39322 0
M  V30 3654 H 330.303 -5.27451 -2.58976 0
M  V30 3655 H 331.827 -5.01378 -3.485 0
M  V30 3656 H 333.241 -5.58667 -1.28699 0
M  V30 3657 H 331.638 -5.97137 -0.595627 0
M  V30 3658 H 332.708 -4.8423 0.254851 0
M  V30 3659 N 334.051 0.0651679 -1.57465 0
M  V30 3660 C 334.961 1.09448 -2.07505 0
M  V30 3661 C 335.977 1.41974 -1.00595 0
M  V30 3662 O 337.153 1.52018 -1.32107 0
M  V30 3663 C 334.218 2.38689 -2.51453 0
M  V30 3664 C 333.279 2.13073 -3.72691 0
M  V30 3665 C 332.512 3.36152 -4.14533 0
M  V30 3666 O 332.735 4.45517 -3.56189 0
M  V30 3667 O 331.669 3.23974 -5.07272 0
M  V30 3668 H 335.495 0.69935 -2.95538 0
M  V30 3669 H 333.08 0.279752 -1.46757 0
M  V30 3670 H 334.962 3.14736 -2.80212 0
M  V30 3671 H 333.637 2.77568 -1.66546 0
M  V30 3672 H 332.544 1.34709 -3.49005 0
M  V30 3673 H 333.877 1.79071 -4.5847 0
M  V30 3674 N 335.529 1.53961 0.336706 0
M  V30 3675 C 336.459 1.85417 1.41925 0
M  V30 3676 C 337.44 0.709856 1.5458 0
M  V30 3677 O 338.625 0.962396 1.68676 0
M  V30 3678 C 335.755 2.06985 2.78881 0
M  V30 3679 C 334.709 3.22813 2.81026 0
M  V30 3680 C 334.035 3.29727 4.20932 0
M  V30 3681 C 335.335 4.60767 2.45949 0
M  V30 3682 H 337.029 2.76079 1.15848 0
M  V30 3683 H 334.575 1.32839 0.555859 0
M  V30 3684 H 336.528 2.27575 3.54665 0
M  V30 3685 H 335.252 1.13061 3.06406 0
M  V30 3686 H 333.911 3.0209 2.07695 0
M  V30 3687 H 333.559 2.33385 4.45579 0
M  V30 3688 H 333.259 4.07566 4.23277 0
M  V30 3689 H 334.783 3.52536 4.98549 0
M  V30 3690 H 336.197 4.81325 3.11446 0
M  V30 3691 H 334.594 5.4106 2.59566 0
M  V30 3692 H 335.664 4.6391 1.41122 0
M  V30 3693 N 337.007 -0.598083 1.45811 0
M  V30 3694 C 338.237 -1.38121 1.53643 0
M  V30 3695 C 338.645 -1.88425 0.171081 0
M  V30 3696 O 337.988 -1.63409 -0.839237 0
M  V30 3697 C 338.05 -2.61432 2.46766 0
M  V30 3698 C 337.714 -2.32702 3.93318 0
M  V30 3699 C 338.711 -1.92479 4.82957 0
M  V30 3700 C 336.396 -2.45321 4.38318 0
M  V30 3701 C 338.39 -1.65248 6.15607 0
M  V30 3702 C 336.077 -2.17703 5.71007 0
M  V30 3703 C 337.075 -1.7773 6.5947 0
M  V30 3704 O 336.763 -1.50441 7.89698 0
M  V30 3705 H 336.495 -0.428863 0.522544 0
M  V30 3706 H 339.049 -0.73557 1.91777 0
M  V30 3707 H 337.279 -3.28749 2.0362 0
M  V30 3708 H 338.968 -3.23487 2.45175 0
M  V30 3709 H 339.734 -1.82258 4.49452 0
M  V30 3710 H 335.613 -2.75399 3.69697 0
M  V30 3711 H 339.157 -1.33973 6.84614 0
M  V30 3712 H 335.054 -2.27544 6.04065 0
M  V30 3713 H 335.822 -1.64415 8.01817 0
M  V30 3714 N 338.485 -1.33259 -0.841409 0
M  V30 3715 C 339.415 -1.25926 -1.96634 0
M  V30 3716 C 340.396 -0.140349 -1.6952 0
M  V30 3717 O 341.581 -0.329707 -1.91381 0
M  V30 3718 C 338.711 -0.99512 -3.32738 0
M  V30 3719 C 337.665 -2.0767 -3.74242 0
M  V30 3720 C 336.991 -1.66474 -5.08125 0
M  V30 3721 C 338.291 -3.49318 -3.88297 0
M  V30 3722 H 339.985 -2.20046 -2.03027 0
M  V30 3723 H 337.531 -1.05931 -0.975425 0
M  V30 3724 H 339.484 -0.930323 -4.11002 0
M  V30 3725 H 338.208 -0.0183004 -3.26595 0
M  V30 3726 H 336.867 -2.13187 -2.98239 0
M  V30 3727 H 336.515 -0.675012 -4.9845 0
M  V30 3728 H 336.215 -2.3885 -5.36865 0
M  V30 3729 H 337.739 -1.61455 -5.88867 0
M  V30 3730 H 339.153 -3.46316 -4.56879 0
M  V30 3731 H 337.55 -4.20158 -4.28471 0
M  V30 3732 H 338.62 -3.8801 -2.9082 0
M  V30 3733 N 339.963 1.05934 -1.16686 0
M  V30 3734 C 340.895 2.13468 -0.834503 0
M  V30 3735 C 341.908 1.62013 0.15984 0
M  V30 3736 O 343.097 1.7838 -0.0654228 0
M  V30 3737 C 340.197 3.3817 -0.222361 0
M  V30 3738 C 339.37 4.18928 -1.25771 0
M  V30 3739 C 338.429 5.21985 -0.664703 0
M  V30 3740 O 337.455 5.53334 -1.33453 0
M  V30 3741 N 338.657 5.77919 0.546834 0
M  V30 3742 H 341.422 2.42578 -1.75999 0
M  V30 3743 H 338.983 1.21967 -1.06469 0
M  V30 3744 H 340.975 4.04266 0.187472 0
M  V30 3745 H 339.545 3.06655 0.606758 0
M  V30 3746 H 338.765 3.48433 -1.84358 0
M  V30 3747 H 340.053 4.69687 -1.95631 0
M  V30 3748 H 339.451 5.54721 1.10912 0
M  V30 3749 H 338.008 6.45573 0.898829 0
M  V30 3750 N 341.441 0.965919 1.2453 0
M  V30 3751 C 342.389 0.486506 2.27455 0
M  V30 3752 C 343.383 -0.449041 1.6334 0
M  V30 3753 O 344.589 -0.324527 1.7705 0
M  V30 3754 H 340.964 0.138857 0.739069 0
M  V30 3755 H 342.935 1.3666 2.65267 0
M  V30 3756 C 341.684 -0.209481 3.47068 0
M  V30 3757 H 341.007 0.50129 3.96645 0
M  V30 3758 H 342.447 -0.508775 4.20936 0
M  V30 3759 C 340.906 -1.43586 3.0477 0
M  V30 3760 O 341.436 -2.53299 3.11773 0
M  V30 3761 N 339.642 -1.30126 2.59838 0
M  V30 3762 H 339.189 -0.408583 2.54339 0
M  V30 3763 H 339.147 -2.12294 2.31902 0
M  V30 3764 N 342.919 -1.39368 0.735821 0
M  V30 3765 C 344.144 -2.05319 0.293052 0
M  V30 3766 C 344.569 -1.55115 -1.064 0
M  V30 3767 O 343.927 -0.695261 -1.67439 0
M  V30 3768 C 343.975 -3.59305 0.305323 0
M  V30 3769 O 343.079 -4.06299 -0.706761 0
M  V30 3770 H 342.42 -0.650529 0.13307 0
M  V30 3771 H 344.95 -1.78386 1.00197 0
M  V30 3772 H 344.96 -4.07724 0.149997 0
M  V30 3773 H 343.635 -3.95207 1.29553 0
M  V30 3774 H 342.212 -3.69292 -0.517504 0
M  V30 3775 N 344.397 -0.483516 -1.5 0
M  V30 3776 C 345.808 -0.0314176 -1.86674 0
M  V30 3777 C 346.159 1.37728 -1.39733 0
M  V30 3778 O 345.284 2.02327 -0.767635 0
M  V30 3779 C 345.879 -0.0502376 -3.38763 0
M  V30 3780 C 344.438 0.346442 -3.74802 0
M  V30 3781 C 343.585 -0.430366 -2.7394 0
M  V30 3782 H 346.536 -0.697182 -1.42566 0
M  V30 3783 H 346.557 0.749116 -3.73053 0
M  V30 3784 H 346.069 -1.07563 -3.72897 0
M  V30 3785 H 344.17 1.37572 -3.46273 0
M  V30 3786 H 344.283 0.0391486 -4.79084 0
M  V30 3787 H 342.647 0.117557 -2.54429 0
M  V30 3788 H 343.43 -1.4555 -3.10918 0
M  V30 3789 N 345.875 1.56104 -0.216619 0
M  V30 3790 C 346.785 2.23694 0.706982 0
M  V30 3791 C 347.801 1.24295 1.21765 0
M  V30 3792 O 348.977 1.57094 1.2603 0
M  V30 3793 C 346.042 2.8998 1.90033 0
M  V30 3794 C 345.103 4.04708 1.43213 0
M  V30 3795 C 344.336 4.67824 2.56859 0
M  V30 3796 O 344.559 4.29913 3.74874 0
M  V30 3797 O 343.493 5.56905 2.28343 0
M  V30 3798 H 347.319 3.03272 0.161235 0
M  V30 3799 H 344.904 1.49394 0.0136177 0
M  V30 3800 H 346.786 3.31837 2.59735 0
M  V30 3801 H 345.461 2.13365 2.43428 0
M  V30 3802 H 344.368 3.6743 0.70327 0
M  V30 3803 H 345.701 4.83051 0.944615 0
M  V30 3804 N 347.353 -0.0568162 1.57498 0
M  V30 3805 C 348.316 -1.05038 2.03715 0
M  V30 3806 C 349.316 -1.30709 0.936577 0
M  V30 3807 O 350.506 -1.26178 1.20103 0
M  V30 3808 C 347.638 -2.39034 2.43055 0
M  V30 3809 H 348.831 -0.651715 2.92733 0
M  V30 3810 H 346.384 -0.302947 1.53336 0
M  V30 3811 H 347.119 -2.83703 1.57108 0
M  V30 3812 H 346.904 -2.21739 3.2338 0
M  V30 3813 H 348.394 -3.10421 2.79336 0
M  V30 3814 N 348.832 -1.54138 -0.328536 0
M  V30 3815 C 350.072 -1.73827 -1.07534 0
M  V30 3816 C 350.436 -0.498777 -1.85408 0
M  V30 3817 O 351.637 -0.572937 -2.62623 0
M  V30 3818 C 349.908 -2.97573 -1.97952 0
M  V30 3819 S 351.467 -3.38143 -2.79652 0
M  V30 3820 H 348.285 -0.611287 -0.36311 0
M  V30 3821 H 350.887 -1.92306 -0.351931 0
M  V30 3822 H 349.591 -3.85939 -1.39569 0
M  V30 3823 H 349.122 -2.81603 -2.74706 0
M  V30 3824 H 351.137 -2.93052 -4.00418 0
M  V30 3825 N 350.31 0.590341 -1.46126 0
M  V30 3826 C 351.587 1.35029 -1.41515 0
M  V30 3827 C 351.967 2.10888 -0.0946472 0
M  V30 3828 O 351.315 2.08998 0.923693 0
M  V30 3829 C 351.525 2.28269 -2.63997 0
M  V30 3830 C 352.873 2.90338 -3.09821 0
M  V30 3831 O 353.897 2.38585 -2.64492 0
M  V30 3832 O 352.756 3.84321 -3.88535 0
M  V30 3833 H 349.85 0.606317 -0.562413 0
M  V30 3834 H 352.396 0.611994 -1.58281 0
M  V30 3835 H 351.168 1.71591 -3.51671 0
M  V30 3836 H 350.791 3.0945 -2.49652 0
M  V30 3837 N 351.788 1.33704 0.83433 0
M  V30 3838 C 353.018 1.28281 1.6195 0
M  V30 3839 C 353.426 -0.147603 1.88623 0
M  V30 3840 O 352.769 -1.1016 1.47005 0
M  V30 3841 C 352.831 1.99386 2.99141 0
M  V30 3842 C 352.495 3.48681 2.95416 0
M  V30 3843 C 353.492 4.438 2.70809 0
M  V30 3844 C 351.177 3.90925 3.15409 0
M  V30 3845 C 353.171 5.79138 2.66229 0
M  V30 3846 C 350.858 5.26366 3.10454 0
M  V30 3847 C 351.856 6.20284 2.85895 0
M  V30 3848 O 351.544 7.53245 2.80852 0
M  V30 3849 H 351.276 0.44315 0.510484 0
M  V30 3850 H 353.83 1.76711 1.04702 0
M  V30 3851 H 352.06 1.45554 3.58261 0
M  V30 3852 H 353.749 1.87403 3.60049 0
M  V30 3853 H 354.515 4.12485 2.5511 0
M  V30 3854 H 350.394 3.18229 3.33543 0
M  V30 3855 H 353.938 6.52416 2.4698 0
M  V30 3856 H 349.835 5.57304 3.25703 0
M  V30 3857 H 350.603 7.62846 2.96661 0
M  V30 3858 N 353.266 -1.05314 1.17247 0
M  V30 3859 C 354.514 -1.77941 0.958194 0
M  V30 3860 C 354.835 -1.88089 -0.514556 0
M  V30 3861 O 354.105 -1.39676 -1.37359 0
M  V30 3862 H 352.685 -0.659116 0.351533 0
M  V30 3863 H 355.347 -1.27166 1.47699 0
M  V30 3864 H 354.443 -2.79663 1.38546 0
M  V30 3865 N 354.744 -0.972509 -1.24016 0
M  V30 3866 C 355.674 -0.525548 -2.27509 0
M  V30 3867 C 356.655 0.437262 -1.64384 0
M  V30 3868 O 357.84 0.332343 -1.91335 0
M  V30 3869 C 354.97 0.180448 -3.46831 0
M  V30 3870 C 353.924 -0.698859 -4.22256 0
M  V30 3871 C 353.25 0.138903 -5.3452 0
M  V30 3872 C 354.55 -1.98582 -4.83076 0
M  V30 3873 H 356.244 -1.39058 -2.65148 0
M  V30 3874 H 353.79 -0.67009 -1.27459 0
M  V30 3875 H 355.743 0.504387 -4.18371 0
M  V30 3876 H 354.467 1.07987 -3.08231 0
M  V30 3877 H 353.126 -1.00614 -3.52523 0
M  V30 3878 H 352.774 1.03862 -4.9216 0
M  V30 3879 H 352.474 -0.446259 -5.85903 0
M  V30 3880 H 353.998 0.457404 -6.08884 0
M  V30 3881 H 355.412 -1.72715 -5.46665 0
M  V30 3882 H 353.809 -2.5181 -5.44713 0
M  V30 3883 H 354.879 -2.67769 -4.04262 0
M  V30 3884 O 356.261 1.3537 -0.880752 0
M  V30 3885 H 356.952 1.87543 -0.484504 0
M  V30 END ATOM
M  V30 BEGIN BOND
M  V30 END BOND
M  V30 END CTAB
M  END
$$$$
