drugbank_target|P78559 Microtubule-associated protein 1A (DB01196)
 OpenBabel12092119493D

  0  0  0     0  0            999 V3000
M  V30 BEGIN CTAB
M  V30 COUNTS 42395 42915 0 0 0
M  V30 BEGIN ATOM
M  V30 1 H -0.908 1.98254 -0.117106 0
M  V30 2 N 0 1.576 0 0
M  V30 3 C 0.933 2.03868 1.02534 0
M  V30 4 C 1.911 0.928543 1.3348 0
M  V30 5 O 3.095 1.19667 1.45644 0
M  V30 6 C 0.222 2.43627 2.35294 0
M  V30 7 C -0.732 3.65373 2.2001 0
M  V30 8 S 0.101 5.13292 1.52614 0
M  V30 9 C 1.257 5.56322 2.86805 0
M  V30 10 H 1.49 2.90518 0.631377 0
M  V30 11 H -0.977 1.52953 0.210867 0
M  V30 12 H 0.981 2.67203 3.11629 0
M  V30 13 H -0.358 1.57376 2.7183 0
M  V30 14 H -1.165 3.90944 3.18086 0
M  V30 15 H -1.563 3.418 1.51819 0
M  V30 16 H 0.729 5.58782 3.83104 0
M  V30 17 H 1.672 6.56266 2.65933 0
M  V30 18 H 2.08 4.83886 2.90714 0
M  V30 19 N 1.4781 -0.272755 1.55222 0
M  V30 20 C 2.7551 -1.02562 1.66555 0
M  V30 21 C 3.1351 -2.04282 0.532189 0
M  V30 22 O 2.4831 -2.23662 -0.467717 0
M  V30 23 C 2.6931 -1.6822 3.05782 0
M  V30 24 C 4.0411 -2.19373 3.63539 0
M  V30 25 O 5.0651 -1.78206 3.08417 0
M  V30 26 O 3.9241 -2.94883 4.60115 0
M  V30 27 H 1.0181 -0.475755 0.676451 0
M  V30 28 H 3.5641 -0.268593 1.67561 0
M  V30 29 H 2.3361 -0.945112 3.79715 0
M  V30 30 H 1.9591 -2.50609 3.08676 0
M  V30 31 N 2.9562 -1.48159 -0.537278 0
M  V30 32 C 4.2042 -1.55497 -1.29094 0
M  V30 33 C 4.5252 -0.227454 -1.93669 0
M  V30 34 O 3.7952 0.750386 -1.80959 0
M  V30 35 H 2.3752 -0.572832 -0.47945 0
M  V30 36 H 5.0372 -1.84579 -0.625818 0
M  V30 37 H 4.1332 -2.33216 -2.07405 0
M  V30 38 N 4.4343 0.785586 -1.36625 0
M  V30 39 C 5.6803 1.54591 -1.31261 0
M  V30 40 C 6.0133 1.93906 0.106823 0
M  V30 41 O 5.2883 1.63007 1.06108 0
M  V30 42 C 5.5713 2.82038 -2.23889 0
M  V30 43 C 5.4243 2.49066 -3.74548 0
M  V30 44 C 6.7433 3.83887 -2.15217 0
M  V30 45 H 3.8623 0.560846 -0.478143 0
M  V30 46 H 6.5043 0.902278 -1.67209 0
M  V30 47 H 4.6543 3.36961 -1.93363 0
M  V30 48 H 6.3263 2.00164 -4.15611 0
M  V30 49 H 4.5693 1.81954 -3.93796 0
M  V30 50 H 5.2403 3.40109 -4.34776 0
M  V30 51 H 7.7163 3.38421 -2.42096 0
M  V30 52 H 6.5923 4.70806 -2.82193 0
M  V30 53 H 6.8533 4.27131 -1.14068 0
M  V30 54 N 5.9124 1.20967 1.01018 0
M  V30 55 C 6.8754 0.965918 2.07853 0
M  V30 56 C 7.8754 -0.0610545 1.60684 0
M  V30 57 O 9.0654 0.175681 1.73312 0
M  V30 58 C 6.1974 0.455513 3.37843 0
M  V30 59 H 7.3904 1.91365 2.3091 0
M  V30 60 H 4.9434 1.02594 1.17916 0
M  V30 61 H 5.6784 -0.497381 3.20463 0
M  V30 62 H 5.4634 1.19622 3.73407 0
M  V30 63 H 6.9534 0.304667 4.16487 0
M  V30 64 N 7.3905 -1.2043 1.01659 0
M  V30 65 C 8.3005 -2.2689 0.596484 0
M  V30 66 C 9.3165 -1.70107 -0.36599 0
M  V30 67 O 10.4925 -2.00117 -0.226942 0
M  V30 68 C 7.5575 -3.4665 -0.0586659 0
M  V30 69 C 6.6185 -4.18662 0.949751 0
M  V30 70 C 5.8515 -5.32705 0.32577 0
M  V30 71 O 6.0745 -5.63656 -0.874509 0
M  V30 72 O 5.0085 -5.92803 1.04249 0
M  V30 73 H 8.8345 -2.65041 1.4828 0
M  V30 74 H 6.4195 -1.27048 0.786082 0
M  V30 75 H 8.3015 -4.19256 -0.424564 0
M  V30 76 H 6.9765 -3.10375 -0.91918 0
M  V30 77 H 5.8835 -3.48229 1.36702 0
M  V30 78 H 7.2165 -4.58878 1.78023 0
M  V30 79 N 8.8686 -0.792821 -1.36206 0
M  V30 80 C 10.1156 -0.366786 -1.99151 0
M  V30 81 C 10.4436 1.06243 -1.62919 0
M  V30 82 O 9.6986 1.74927 -0.877442 0
M  V30 83 C 9.9976 -0.481501 -3.54142 0
M  V30 84 C 9.6636 -1.87202 -4.10203 0
M  V30 85 C 8.3256 -2.25248 -4.25226 0
M  V30 86 C 10.6776 -2.78237 -4.40719 0
M  V30 87 C 8.0056 -3.53723 -4.68078 0
M  V30 88 C 10.3576 -4.06144 -4.85005 0
M  V30 89 C 9.0216 -4.44207 -4.98234 0
M  V30 90 H 8.2916 -0.134217 -0.728743 0
M  V30 91 H 10.9386 -1.01094 -1.62641 0
M  V30 92 H 9.2436 0.246146 -3.91026 0
M  V30 93 H 10.9406 -0.132844 -4.0078 0
M  V30 94 H 7.5306 -1.56639 -3.98951 0
M  V30 95 H 11.7146 -2.50097 -4.28679 0
M  V30 96 H 6.9706 -3.8308 -4.76508 0
M  V30 97 H 11.1446 -4.76796 -5.07581 0
M  V30 98 H 8.7716 -5.43814 -5.31197 0
M  V30 99 N 10.3467 1.47872 -0.545128 0
M  V30 100 C 11.5717 2.07391 -0.0190611 0
M  V30 101 C 11.9967 1.39688 1.25971 0
M  V30 102 O 11.3547 0.467816 1.7516 0
M  V30 103 C 11.4027 3.60188 0.172335 0
M  V30 104 O 10.5067 3.9339 1.23766 0
M  V30 105 H 9.8477 0.662411 -0.0459059 0
M  V30 106 H 12.3777 1.90066 -0.757365 0
M  V30 107 H 12.3877 4.06129 0.390305 0
M  V30 108 H 11.0627 4.08865 -0.761725 0
M  V30 109 H 9.6397 3.5921 1.00114 0
M  V30 110 N 11.8248 0.280983 1.55075 0
M  V30 111 C 12.7348 -0.61388 2.26426 0
M  V30 112 C 13.7508 -1.16521 1.29224 0
M  V30 113 O 14.9268 -1.19426 1.62171 0
M  V30 114 C 11.9918 -1.7788 2.9759 0
M  V30 115 C 11.0528 -1.26355 4.10284 0
M  V30 116 C 10.2858 -2.37295 4.78045 0
M  V30 117 O 10.5088 -3.56777 4.45047 0
M  V30 118 O 9.4428 -2.05119 5.65871 0
M  V30 119 H 13.2688 -0.0356932 3.03679 0
M  V30 120 H 10.8538 0.0481686 1.49322 0
M  V30 121 H 12.7358 -2.45791 3.42293 0
M  V30 122 H 11.4108 -2.34397 2.23249 0
M  V30 123 H 10.3178 -0.550735 3.70024 0
M  V30 124 H 11.6508 -0.744065 4.86543 0
M  V30 125 N 13.3029 -1.57598 0.00835791 0
M  V30 126 C 14.5329 -1.94931 -0.684496 0
M  V30 127 C 14.9409 -0.882233 -1.67372 0
M  V30 128 O 14.2839 0.146621 -1.83114 0
M  V30 129 C 14.3459 -3.283 -1.4649 0
M  V30 130 C 14.0099 -4.52548 -0.63634 0
M  V30 131 C 15.0069 -5.19839 0.0795586 0
M  V30 132 C 12.6919 -4.98942 -0.579849 0
M  V30 133 C 14.6859 -6.3183 0.840843 0
M  V30 134 C 12.3729 -6.10819 0.185155 0
M  V30 135 C 13.3709 -6.77121 0.894227 0
M  V30 136 O 13.0589 -7.86853 1.64673 0
M  V30 137 H 12.7909 -0.647249 -0.19505 0
M  V30 138 H 15.3449 -2.05318 0.0581272 0
M  V30 139 H 13.5749 -3.14345 -2.2522 0
M  V30 140 H 15.2639 -3.50685 -2.04389 0
M  V30 141 H 16.0299 -4.84979 0.0451202 0
M  V30 142 H 11.9089 -4.47155 -1.1213 0
M  V30 143 H 15.4529 -6.83513 1.39483 0
M  V30 144 H 11.3499 -6.4512 0.221384 0
M  V30 145 H 12.1179 -8.03412 1.56432 0
M  V30 146 N 14.781 0.264519 -1.55364 0
M  V30 147 C 16.027 0.99646 -1.76631 0
M  V30 148 C 16.36 1.85632 -0.570478 0
M  V30 149 O 15.635 1.89647 0.43175 0
M  V30 150 C 15.918 1.87187 -3.07625 0
M  V30 151 C 15.771 1.04138 -4.37579 0
M  V30 152 C 17.09 2.85749 -3.34717 0
M  V30 153 H 14.209 0.360841 -0.642622 0
M  V30 154 H 16.851 0.268218 -1.88097 0
M  V30 155 H 15.001 2.49279 -2.9798 0
M  V30 156 H 16.673 0.440517 -4.59192 0
M  V30 157 H 14.916 0.345115 -4.32425 0
M  V30 158 H 15.587 1.68729 -5.2558 0
M  V30 159 H 18.063 2.33793 -3.4421 0
M  V30 160 H 16.939 3.44136 -4.27623 0
M  V30 161 H 17.2 3.61311 -2.54768 0
M  V30 162 N 16.2591 1.48442 0.529413 0
M  V30 163 C 17.4841 1.60406 1.31471 0
M  V30 164 C 17.9091 0.264738 1.86228 0
M  V30 165 O 17.2671 -0.763668 1.64432 0
M  V30 166 C 17.3151 2.65419 2.44101 0
M  V30 167 O 16.4191 2.22618 3.47153 0
M  V30 168 H 15.7601 0.537863 0.389357 0
M  V30 169 H 18.2901 1.94432 0.636965 0
M  V30 170 H 18.3001 2.86709 2.90279 0
M  V30 171 H 16.9751 3.62652 2.03608 0
M  V30 172 H 15.5521 2.11543 3.0709 0
M  V30 173 N 17.7372 -0.778329 1.37039 0
M  V30 174 C 18.6472 -1.92253 1.34446 0
M  V30 175 C 19.6632 -1.72267 0.244991 0
M  V30 176 O 20.8392 -1.95615 0.479258 0
M  V30 177 C 17.9042 -3.27282 1.144 0
M  V30 178 C 16.9652 -3.59969 2.33925 0
M  V30 179 C 16.1982 -4.88555 2.14825 0
M  V30 180 O 16.4212 -5.59113 1.12912 0
M  V30 181 O 15.3552 -5.20153 3.02861 0
M  V30 182 H 19.1812 -1.97392 2.30803 0
M  V30 183 H 16.7662 -0.920154 1.17701 0
M  V30 184 H 18.6482 -4.08062 1.05182 0
M  V30 185 H 17.3232 -3.23011 0.211124 0
M  V30 186 H 16.2302 -2.7945 2.48714 0
M  V30 187 H 17.5632 -3.68976 3.25757 0
M  V30 188 N 19.2153 -1.21501 -1.00376 0
M  V30 189 C 20.4433 -1.059 -1.77744 0
M  V30 190 C 20.8583 0.391125 -1.84704 0
M  V30 191 O 20.2153 1.27133 -1.30933 0
M  V30 192 C 20.2663 -1.65111 -3.21591 0
M  V30 193 O 19.9873 -3.0445 -3.15027 0
M  V30 194 C 21.4883 -1.54637 -4.15454 0
M  V30 195 H 18.7083 -0.371825 -0.558558 0
M  V30 196 H 21.2523 -1.60865 -1.26264 0
M  V30 197 H 19.4073 -1.14235 -3.70175 0
M  V30 198 H 19.8213 -3.3278 -4.0541 0
M  V30 199 H 21.2953 -2.00808 -5.14179 0
M  V30 200 H 21.7723 -0.501022 -4.36333 0
M  V30 201 H 22.3783 -2.04767 -3.72761 0
M  V30 202 N 20.6934 1.19889 -1.02296 0
M  V30 203 C 21.9394 1.89701 -0.717033 0
M  V30 204 C 22.2724 1.7905 0.751989 0
M  V30 205 O 21.5474 1.17891 1.547 0
M  V30 206 C 21.8304 3.40858 -1.16136 0
M  V30 207 C 21.6834 3.60411 -2.69117 0
M  V30 208 C 23.0024 4.33876 -0.737549 0
M  V30 209 H 20.1214 0.688874 -0.261957 0
M  V30 210 H 22.7634 1.41154 -1.27183 0
M  V30 211 H 20.9134 3.82335 -0.689342 0
M  V30 212 H 22.5854 3.28145 -3.2422 0
M  V30 213 H 20.8284 3.03665 -3.0979 0
M  V30 214 H 21.4994 4.66396 -2.95261 0
M  V30 215 H 23.9754 4.00081 -1.14344 0
M  V30 216 H 22.8514 5.38242 -1.0764 0
M  V30 217 H 23.1124 4.40628 0.360436 0
M  V30 218 N 22.1715 0.800033 1.35784 0
M  V30 219 C 23.4485 0.30088 1.93272 0
M  V30 220 C 23.8285 -1.20857 1.73081 0
M  V30 221 O 23.1765 -2.00502 1.09596 0
M  V30 222 C 23.3865 0.70511 3.41803 0
M  V30 223 C 24.7345 0.690871 4.18942 0
M  V30 224 O 25.7585 0.646244 3.50289 0
M  V30 225 O 24.6175 0.74332 5.41421 0
M  V30 226 H 21.7115 0.0771605 0.823393 0
M  V30 227 H 24.2575 0.88329 1.449 0
M  V30 228 H 23.0295 1.74571 3.50201 0
M  V30 229 H 22.6525 0.0971541 3.97481 0
M  V30 230 N 23.6496 -1.47581 0.552962 0
M  V30 231 C 24.8956 -2.02782 0.0273648 0
M  V30 232 C 25.2286 -1.42687 -1.31734 0
M  V30 233 O 24.5036 -0.580897 -1.85623 0
M  V30 234 C 24.7866 -3.60031 -0.0702371 0
M  V30 235 C 24.6396 -4.30566 1.30126 0
M  V30 236 C 25.9586 -4.33028 -0.785771 0
M  V30 237 H 23.0776 -0.736912 0.0114185 0
M  V30 238 H 25.7196 -1.76056 0.714432 0
M  V30 239 H 23.8696 -3.82932 -0.655382 0
M  V30 240 H 25.5416 -4.19018 1.92929 0
M  V30 241 H 23.7846 -3.91086 1.87709 0
M  V30 242 H 24.4556 -5.39114 1.18573 0
M  V30 243 H 26.9316 -4.15095 -0.288982 0
M  V30 244 H 25.8076 -5.42695 -0.823013 0
M  V30 245 H 26.0686 -4.01945 -1.841 0
M  V30 246 N 25.1277 -0.289203 -1.54924 0
M  V30 247 C 26.5387 0.205791 -1.85562 0
M  V30 248 C 26.8897 1.54351 -1.2112 0
M  V30 249 O 26.0147 2.10435 -0.504601 0
M  V30 250 C 26.6097 0.380177 -3.3666 0
M  V30 251 C 25.1687 0.819395 -3.67373 0
M  V30 252 C 24.3157 -0.079159 -2.77187 0
M  V30 253 H 27.2667 -0.510577 -1.50262 0
M  V30 254 H 27.2877 1.21659 -3.60526 0
M  V30 255 H 26.7997 -0.593589 -3.83534 0
M  V30 256 H 24.9007 1.80413 -3.26009 0
M  V30 257 H 25.0137 0.646957 -4.74712 0
M  V30 258 H 23.3777 0.439565 -2.50878 0
M  V30 259 H 24.1607 -1.04906 -3.26878 0
M  V30 260 N 26.6058 1.57591 -0.0167156 0
M  V30 261 C 27.8308 1.9598 0.67872 0
M  V30 262 C 28.2558 0.892546 1.65575 0
M  V30 263 O 27.6138 -0.147772 1.80697 0
M  V30 264 C 27.6618 3.33468 1.37227 0
M  V30 265 O 26.7658 3.28954 2.48722 0
M  V30 266 H 26.1068 0.639339 0.17928 0
M  V30 267 H 28.6368 2.04463 -0.0748802 0
M  V30 268 H 28.6468 3.69417 1.7319 0
M  V30 269 H 27.3218 4.10694 0.656007 0
M  V30 270 H 25.8988 3.04705 2.14963 0
M  V30 271 N 28.0839 -0.256276 1.55502 0
M  V30 272 C 29.4949 -0.826068 1.67431 0
M  V30 273 C 29.8459 -1.86396 0.612446 0
M  V30 274 O 28.9709 -2.15031 -0.243025 0
M  V30 275 C 29.5659 -1.50512 3.03532 0
M  V30 276 C 28.1249 -2.02273 3.17431 0
M  V30 277 C 27.2719 -0.870548 2.63281 0
M  V30 278 H 30.2229 -0.0322728 1.58667 0
M  V30 279 H 30.2439 -2.37279 2.97454 0
M  V30 280 H 29.7559 -0.749484 3.80794 0
M  V30 281 H 27.8569 -2.80746 2.44974 0
M  V30 282 H 27.9699 -2.22655 4.24219 0
M  V30 283 H 26.3339 -1.26851 2.20864 0
M  V30 284 H 27.1169 -0.128149 3.43061 0
M  V30 285 N 29.562 -1.4872 -0.521534 0
M  V30 286 C 30.809 -1.57168 -1.27689 0
M  V30 287 C 31.137 -0.249275 -1.92896 0
M  V30 288 O 30.392 0.761162 -1.80291 0
M  V30 289 C 30.691 -2.66497 -2.38148 0
M  V30 290 C 30.357 -4.08664 -1.90538 0
M  V30 291 C 29.019 -4.47357 -1.77271 0
M  V30 292 C 31.371 -4.97724 -1.54663 0
M  V30 293 C 28.699 -5.72905 -1.26478 0
M  V30 294 C 31.051 -6.2377 -1.05329 0
M  V30 295 C 29.715 -6.61311 -0.906861 0
M  V30 296 H 28.985 -0.575117 -0.467249 0
M  V30 297 H 31.632 -1.82472 -0.581051 0
M  V30 298 H 29.937 -2.35085 -3.13437 0
M  V30 299 H 31.634 -2.70246 -2.96257 0
M  V30 300 H 28.224 -3.78111 -2.01816 0
M  V30 301 H 32.408 -4.68501 -1.63768 0
M  V30 302 H 27.664 -6.00709 -1.13835 0
M  V30 303 H 31.838 -6.9217 -0.76644 0
M  V30 304 H 29.465 -7.5848 -0.511083 0
M  V30 305 N 31.0401 0.771051 -1.3745 0
M  V30 306 C 32.3171 1.519 -1.23231 0
M  V30 307 C 32.6971 2.10383 0.173809 0
M  V30 308 O 32.0451 1.95583 1.18151 0
M  V30 309 C 32.2551 2.59933 -2.32886 0
M  V30 310 C 33.6031 3.27316 -2.70461 0
M  V30 311 O 34.6271 2.70228 -2.32068 0
M  V30 312 O 33.4861 4.30531 -3.36608 0
M  V30 313 H 30.5801 0.672803 -0.480901 0
M  V30 314 H 33.1261 0.807957 -1.49232 0
M  V30 315 H 31.8981 2.14842 -3.27045 0
M  V30 316 H 31.5211 3.38637 -2.08353 0
M  V30 317 N 32.5182 1.22032 0.997298 0
M  V30 318 C 33.4482 1.01065 2.10495 0
M  V30 319 C 34.4292 -0.0669542 1.69968 0
M  V30 320 O 35.6142 0.0943987 1.9397 0
M  V30 321 C 32.7442 0.582874 3.42374 0
M  V30 322 C 31.6982 1.60592 3.96729 0
M  V30 323 C 31.0242 1.03412 5.24605 0
M  V30 324 C 32.3242 2.99478 4.27914 0
M  V30 325 H 34.0182 1.93708 2.28292 0
M  V30 326 H 31.5642 0.932761 1.09707 0
M  V30 327 H 33.5172 0.423332 4.19268 0
M  V30 328 H 32.2412 -0.379213 3.24391 0
M  V30 329 H 30.9002 1.75316 3.21963 0
M  V30 330 H 30.5482 0.063518 5.0296 0
M  V30 331 H 30.2482 1.71754 5.61938 0
M  V30 332 H 31.7722 0.886066 6.04137 0
M  V30 333 H 33.1862 2.88153 4.95622 0
M  V30 334 H 31.5832 3.64903 4.76409 0
M  V30 335 H 32.6532 3.49742 3.3587 0
M  V30 336 N 33.9963 -1.19345 1.0293 0
M  V30 337 C 34.9263 -2.2481 0.631105 0
M  V30 338 C 35.9073 -1.66245 -0.360104 0
M  V30 339 O 37.0923 -1.92677 -0.242726 0
M  V30 340 C 34.2223 -3.47295 -0.0184607 0
M  V30 341 C 33.1763 -4.18536 0.895073 0
M  V30 342 C 32.5023 -5.34586 0.110592 0
M  V30 343 C 33.8023 -4.73287 2.209 0
M  V30 344 H 35.4963 -2.58372 1.51275 0
M  V30 345 H 33.0423 -1.24194 0.728818 0
M  V30 346 H 34.9953 -4.20268 -0.308675 0
M  V30 347 H 33.7193 -3.12933 -0.934907 0
M  V30 348 H 32.3783 -3.47446 1.16949 0
M  V30 349 H 32.0263 -4.96469 -0.807902 0
M  V30 350 H 31.7263 -5.83183 0.719087 0
M  V30 351 H 33.2503 -6.10355 -0.172871 0
M  V30 352 H 34.6643 -5.38013 1.98028 0
M  V30 353 H 33.0613 -5.32373 2.76946 0
M  V30 354 H 34.1313 -3.91331 2.86336 0
M  V30 355 N 35.4744 -0.807222 -1.35358 0
M  V30 356 C 36.3844 -0.219594 -2.3357 0
M  V30 357 C 37.4004 0.637734 -1.61892 0
M  V30 358 O 38.5764 0.549336 -1.93763 0
M  V30 359 C 35.6414 0.62158 -3.41083 0
M  V30 360 C 34.7024 -0.256315 -4.28534 0
M  V30 361 C 33.9354 0.544807 -5.30912 0
M  V30 362 O 34.1584 1.77944 -5.41934 0
M  V30 363 O 33.0924 -0.0646478 -6.01865 0
M  V30 364 H 36.9184 -1.03208 -2.85625 0
M  V30 365 H 34.5034 -0.569025 -1.38139 0
M  V30 366 H 36.3854 1.10067 -4.06772 0
M  V30 367 H 35.0604 1.41165 -2.91297 0
M  V30 368 H 33.9674 -0.782559 -3.65823 0
M  V30 369 H 35.3004 -1.01034 -4.81719 0
M  V30 370 N 36.9525 1.47285 -0.560781 0
M  V30 371 C 38.3635 1.86258 -0.128343 0
M  V30 372 C 38.7145 1.46699 1.30284 0
M  V30 373 O 37.8395 0.871698 1.98067 0
M  V30 374 C 38.4345 3.38044 -0.22614 0
M  V30 375 C 36.9935 3.76096 0.151283 0
M  V30 376 C 36.1405 2.71335 -0.572084 0
M  V30 377 H 39.0915 1.38752 -0.770297 0
M  V30 378 H 39.1125 3.76441 0.554322 0
M  V30 379 H 38.6245 3.66806 -1.26788 0
M  V30 380 H 36.7255 3.52951 1.19399 0
M  V30 381 H 36.8385 4.78641 -0.209765 0
M  V30 382 H 35.2025 2.54696 -0.0147653 0
M  V30 383 H 35.9855 3.02938 -1.61504 0
M  V30 384 N 38.4306 0.297415 1.54768 0
M  V30 385 C 39.8416 -0.195947 1.85669 0
M  V30 386 C 40.1926 -1.53707 1.21937 0
M  V30 387 O 39.3176 -2.10164 0.515754 0
M  V30 388 C 39.9126 -0.362318 3.36857 0
M  V30 389 C 38.4716 -0.799901 3.67802 0
M  V30 390 C 37.6186 0.0938578 2.77141 0
M  V30 391 H 40.5696 0.518538 1.4999 0
M  V30 392 H 40.5906 -1.19745 3.61167 0
M  V30 393 H 40.1026 0.613921 3.83214 0
M  V30 394 H 38.2036 -1.78682 3.26961 0
M  V30 395 H 38.3166 -0.621773 4.75048 0
M  V30 396 H 36.6806 -0.426254 2.51108 0
M  V30 397 H 37.4636 1.06639 3.26318 0
M  V30 398 N 39.9087 -1.5758 0.0250728 0
M  V30 399 C 41.1367 -1.9593 -0.664747 0
M  V30 400 C 41.5517 -0.901352 -1.65895 0
M  V30 401 O 40.9087 0.117255 -1.82123 0
M  V30 402 C 40.9597 -3.34342 -1.37468 0
M  V30 403 O 40.6807 -4.36079 -0.420324 0
M  V30 404 C 42.1817 -3.873 -2.1567 0
M  V30 405 H 39.4017 -0.645405 -0.183557 0
M  V30 406 H 41.9457 -2.04329 0.0836372 0
M  V30 407 H 40.1007 -3.27175 -2.0745 0
M  V30 408 H 40.5147 -5.16297 -0.923991 0
M  V30 409 H 41.9887 -4.86504 -2.60803 0
M  V30 410 H 42.4657 -3.21331 -2.99405 0
M  V30 411 H 43.0717 -3.97723 -1.50654 0
M  V30 412 N 41.3868 0.248026 -1.55636 0
M  V30 413 C 42.6118 0.998028 -1.81808 0
M  V30 414 C 43.0368 1.78207 -0.601979 0
M  V30 415 O 42.3948 1.75653 0.448961 0
M  V30 416 C 42.4428 1.9125 -3.05705 0
M  V30 417 O 41.5468 3.00406 -2.82542 0
M  V30 418 H 40.8878 0.284045 -0.600179 0
M  V30 419 H 43.4178 0.269357 -2.02819 0
M  V30 420 H 43.4278 2.32737 -3.35108 0
M  V30 421 H 42.1028 1.33602 -3.93857 0
M  V30 422 H 40.6798 2.63056 -2.64303 0
M  V30 423 N 42.8649 1.48995 0.513639 0
M  V30 424 C 44.1129 1.57531 1.26604 0
M  V30 425 C 44.4339 0.258236 1.93283 0
M  V30 426 O 43.7039 -0.721502 1.8213 0
M  V30 427 H 42.2839 0.580387 0.470276 0
M  V30 428 H 44.9459 1.85552 0.596373 0
M  V30 429 H 44.0419 2.36486 2.03669 0
M  V30 430 N 44.343 -0.763751 1.37857 0
M  V30 431 C 45.591 -1.51957 1.33243 0
M  V30 432 C 45.912 -1.94835 -0.0801709 0
M  V30 433 O 45.182 -1.66894 -1.02582 0
M  V30 434 H 43.762 -0.563626 0.49024 0
M  V30 435 H 46.424 -0.908504 1.7243 0
M  V30 436 H 45.52 -2.41523 1.97669 0
M  V30 437 N 45.8211 -1.22559 -0.990812 0
M  V30 438 C 47.0681 -1.05141 -1.73065 0
M  V30 439 C 47.3961 0.413191 -1.9006 0
M  V30 440 O 46.6511 1.32257 -1.44245 0
M  V30 441 C 46.9501 -1.71011 -3.13831 0
M  V30 442 C 46.6161 -3.20911 -3.16745 0
M  V30 443 C 45.2781 -3.61812 -3.17247 0
M  V30 444 C 47.6301 -4.16846 -3.12872 0
M  V30 445 C 44.9581 -4.97127 -3.1158 0
M  V30 446 C 47.3101 -5.5214 -3.08746 0
M  V30 447 C 45.9741 -5.92419 -3.07565 0
M  V30 448 H 45.2441 -0.384738 -0.633291 0
M  V30 449 H 47.8911 -1.5235 -1.16025 0
M  V30 450 H 46.1961 -1.16133 -3.74193 0
M  V30 451 H 47.8931 -1.55023 -3.69823 0
M  V30 452 H 44.4831 -2.88344 -3.17105 0
M  V30 453 H 48.6671 -3.86263 -3.11632 0
M  V30 454 H 43.9231 -5.27562 -3.09012 0
M  V30 455 H 48.0971 -6.26201 -3.04705 0
M  V30 456 H 45.7241 -6.97236 -3.02929 0
M  V30 457 N 47.2992 1.18797 -1.03562 0
M  V30 458 C 48.2292 2.24472 -0.643019 0
M  V30 459 C 49.2102 1.66433 0.351283 0
M  V30 460 O 50.3952 1.92803 0.232505 0
M  V30 461 C 47.5252 3.473 4.24935e-05 0
M  V30 462 C 46.4792 4.18055 -0.917257 0
M  V30 463 C 45.8052 5.34519 -0.138941 0
M  V30 464 C 47.1052 4.72109 -2.23407 0
M  V30 465 H 48.7992 2.57566 -1.52643 0
M  V30 466 H 46.3452 1.23806 -0.735394 0
M  V30 467 H 48.2982 4.20426 0.286383 0
M  V30 468 H 47.0222 3.13424 0.918299 0
M  V30 469 H 45.6812 3.46821 -1.1879 0
M  V30 470 H 45.3292 4.96891 0.781562 0
M  V30 471 H 45.0292 5.82794 -0.750005 0
M  V30 472 H 46.5532 6.10438 0.1405 0
M  V30 473 H 47.9672 5.36955 -2.00879 0
M  V30 474 H 46.3642 5.30897 -2.79765 0
M  V30 475 H 47.4342 3.89807 -2.88407 0
M  V30 476 N 48.7773 0.814389 1.34928 0
M  V30 477 C 49.7243 0.22822 2.29669 0
M  V30 478 C 50.6943 -0.642164 1.53184 0
M  V30 479 O 51.8793 -0.585605 1.81591 0
M  V30 480 C 49.0193 -0.61089 3.3965 0
M  V30 481 C 48.1323 0.280792 4.31086 0
M  V30 482 C 47.2673 -0.567067 5.28165 0
M  V30 483 C 46.3063 0.324531 6.11239 0
M  V30 484 N 45.4433 -0.483756 7.00431 0
M  V30 485 H 50.2833 1.04153 2.79206 0
M  V30 486 H 47.8203 0.525133 1.37407 0
M  V30 487 H 49.7783 -1.11263 4.0209 0
M  V30 488 H 48.4083 -1.38939 2.91369 0
M  V30 489 H 47.4603 0.900688 3.69583 0
M  V30 490 H 48.7723 0.966723 4.89342 0
M  V30 491 H 47.9263 -1.13363 5.96015 0
M  V30 492 H 46.6653 -1.28654 4.70425 0
M  V30 493 H 45.6703 0.903298 5.42329 0
M  V30 494 H 46.8953 1.04198 6.71059 0
M  V30 495 H 44.8413 -1.18706 6.45171 0
M  V30 496 H 44.7583 0.143965 7.55863 0
M  V30 497 H 46.0263 -1.03334 7.7262 0
M  V30 498 N 50.2554 -1.46986 0.568584 0
M  V30 499 C 51.1854 -2.32946 -0.160753 0
M  V30 500 C 52.1664 -1.44487 -0.897631 0
M  V30 501 O 53.3514 -1.73327 -0.875867 0
M  V30 502 C 50.4814 -3.26494 -1.18403 0
M  V30 503 C 49.4354 -4.24282 -0.562895 0
M  V30 504 C 48.7614 -5.07236 -1.69163 0
M  V30 505 C 50.0614 -5.19989 0.490761 0
M  V30 506 H 51.7554 -2.94175 0.556916 0
M  V30 507 H 49.3014 -1.4146 0.26927 0
M  V30 508 H 51.2544 -3.85477 -1.70251 0
M  V30 509 H 49.9784 -2.63343 -1.93179 0
M  V30 510 H 48.6374 -3.66541 -0.0656164 0
M  V30 511 H 48.2854 -4.4048 -2.42871 0
M  V30 512 H 47.9854 -5.7345 -1.28174 0
M  V30 513 H 49.5094 -5.6908 -2.21314 0
M  V30 514 H 50.9234 -5.73271 0.0579047 0
M  V30 515 H 49.3204 -5.94469 0.820165 0
M  V30 516 H 50.3904 -4.64777 1.3824 0
M  V30 517 N 51.7335 -0.305618 -1.54608 0
M  V30 518 C 52.9585 0.307562 -2.05107 0
M  V30 519 C 53.3835 1.46385 -1.18123 0
M  V30 520 O 52.7415 1.8034 -0.186324 0
M  V30 521 C 52.7895 0.73704 -3.52987 0
M  V30 522 O 51.8935 1.84134 -3.6901 0
M  V30 523 H 51.2345 0.0589143 -0.661381 0
M  V30 524 H 53.7645 -0.448807 -1.99617 0
M  V30 525 H 53.7745 1.02459 -3.94925 0
M  V30 526 H 52.4495 -0.108773 -4.15758 0
M  V30 527 H 51.0265 1.55398 -3.38978 0
M  V30 528 N 53.2116 1.57565 -0.0334293 0
M  V30 529 C 54.1586 2.10478 0.946981 0
M  V30 530 C 55.1286 1.00787 1.32027 0
M  V30 531 O 56.3136 1.28232 1.41284 0
M  V30 532 C 53.4536 2.63994 2.22263 0
M  V30 533 C 52.5666 3.87709 1.90541 0
M  V30 534 C 51.7016 4.29604 3.12433 0
M  V30 535 C 50.7406 5.46065 2.76549 0
M  V30 536 N 49.8776 5.83096 3.9108 0
M  V30 537 H 54.7176 2.93963 0.488846 0
M  V30 538 H 52.2546 1.45296 0.22969 0
M  V30 539 H 54.2126 2.93114 2.96884 0
M  V30 540 H 52.8426 1.83333 2.65685 0
M  V30 541 H 51.8946 3.65291 1.06144 0
M  V30 542 H 53.2066 4.72403 1.60116 0
M  V30 543 H 52.3606 4.60182 3.9537 0
M  V30 544 H 51.0996 3.43685 3.46023 0
M  V30 545 H 50.1046 5.15176 1.92026 0
M  V30 546 H 51.3296 6.33685 2.44171 0
M  V30 547 H 49.2756 5.00132 4.24504 0
M  V30 548 H 49.1926 6.6244 3.64293 0
M  V30 549 H 50.4606 6.18282 4.74708 0
M  V30 550 N 54.6897 -0.239769 1.55765 0
M  V30 551 C 56.1007 -0.808263 1.68297 0
M  V30 552 C 56.4517 -1.85736 0.632181 0
M  V30 553 O 55.5767 -2.15277 -0.220204 0
M  V30 554 C 56.1717 -1.47284 3.05111 0
M  V30 555 C 54.7307 -1.98895 3.19559 0
M  V30 556 C 53.8777 -0.842575 2.64189 0
M  V30 557 H 56.8287 -0.0154422 1.58692 0
M  V30 558 H 56.8497 -2.34111 2.99954 0
M  V30 559 H 56.3617 -0.709053 3.81568 0
M  V30 560 H 54.4627 -2.78132 2.47938 0
M  V30 561 H 54.5757 -2.18143 4.26556 0
M  V30 562 H 52.9397 -1.24501 2.22197 0
M  V30 563 H 53.7227 -0.0917552 3.43177 0
M  V30 564 N 56.1678 -1.49265 -0.50573 0
M  V30 565 C 57.4078 -1.60128 -1.27038 0
M  V30 566 C 57.7718 -0.279557 -1.89954 0
M  V30 567 O 58.9728 -0.263329 -2.67507 0
M  V30 568 C 57.2438 -2.72507 -2.31246 0
M  V30 569 S 58.8028 -3.0329 -3.17113 0
M  V30 570 H 55.6208 -0.564863 -0.4318 0
M  V30 571 H 58.2228 -1.86902 -0.573397 0
M  V30 572 H 56.9268 -3.67068 -1.83546 0
M  V30 573 H 56.4578 -2.4771 -3.05619 0
M  V30 574 H 58.4728 -2.44448 -4.31809 0
M  V30 575 N 57.6459 0.756429 -1.3826 0
M  V30 576 C 58.8859 1.52833 -1.35725 0
M  V30 577 C 59.2499 1.91926 0.0534106 0
M  V30 578 O 60.4509 2.68028 0.203613 0
M  V30 579 C 58.7219 2.74919 -2.28373 0
M  V30 580 S 60.2809 3.64817 -2.43832 0
M  V30 581 H 57.0989 0.523043 -0.481608 0
M  V30 582 H 59.7009 0.888212 -1.74158 0
M  V30 583 H 58.4049 2.44304 -3.29763 0
M  V30 584 H 57.9359 3.43878 -1.91079 0
M  V30 585 H 59.9509 4.676 -1.66027 0
M  V30 586 N 59.124 1.23083 0.984299 0
M  V30 587 C 60.354 1.08556 1.75781 0
M  V30 588 C 60.762 -0.366171 1.85623 0
M  V30 589 O 60.105 -1.26524 1.33182 0
M  V30 590 C 60.167 1.63208 3.20318 0
M  V30 591 C 59.831 3.11922 3.33997 0
M  V30 592 C 60.828 4.09259 3.2063 0
M  V30 593 C 58.513 3.51552 3.58771 0
M  V30 594 C 60.507 5.4421 3.31835 0
M  V30 595 C 58.194 4.86649 3.69616 0
M  V30 596 C 59.192 5.82787 3.56157 0
M  V30 597 O 58.88 7.15431 3.66626 0
M  V30 598 H 58.612 0.380713 0.5586 0
M  V30 599 H 61.166 1.63321 1.2456 0
M  V30 600 H 59.396 1.0286 3.72769 0
M  V30 601 H 61.085 1.44216 3.79416 0
M  V30 602 H 61.851 3.79984 3.01392 0
M  V30 603 H 57.73 2.77239 3.6832 0
M  V30 604 H 61.274 6.1923 3.21247 0
M  V30 605 H 57.171 5.15601 3.88363 0
M  V30 606 H 57.939 7.23127 3.83445 0
M  V30 607 N 60.6021 -1.18246 1.0419 0
M  V30 608 C 61.8511 -1.87588 0.741194 0
M  V30 609 C 62.1641 -1.81303 -0.734066 0
M  V30 610 O 63.3701 -2.46019 -1.14834 0
M  V30 611 C 61.8261 -3.36538 1.27555 0
M  V30 612 C 61.4341 -3.51349 2.77953 0
M  V30 613 C 63.1781 -4.11273 1.05143 0
M  V30 614 C 61.0851 -4.94265 3.2474 0
M  V30 615 H 60.0151 -0.702622 0.273565 0
M  V30 616 H 62.6661 -1.33601 1.25789 0
M  V30 617 H 61.0481 -3.9 0.686703 0
M  V30 618 H 62.2221 -3.08153 3.42605 0
M  V30 619 H 60.5371 -2.90022 2.98791 0
M  V30 620 H 63.1341 -5.16689 1.37611 0
M  V30 621 H 63.4771 -4.16298 -0.0112774 0
M  V30 622 H 64.0101 -3.63987 1.60495 0
M  V30 623 H 60.7491 -4.94408 4.30396 0
M  V30 624 H 60.2691 -5.38172 2.64823 0
M  V30 625 H 61.9481 -5.62987 3.18834 0
M  V30 626 N 62.0802 -0.821533 -1.34494 0
M  V30 627 C 63.3272 -0.408946 -1.98328 0
M  V30 628 C 63.6552 1.02764 -1.65136 0
M  V30 629 O 62.9102 1.73026 -0.914349 0
M  V30 630 C 63.2092 -0.556512 -3.53041 0
M  V30 631 C 62.8752 -1.95861 -4.0614 0
M  V30 632 C 61.5372 -2.34217 -4.20352 0
M  V30 633 C 63.8892 -2.87523 -4.34718 0
M  V30 634 C 61.2172 -3.63572 -4.6047 0
M  V30 635 C 63.5692 -4.1634 -4.76281 0
M  V30 636 C 62.2332 -4.54675 -4.88699 0
M  V30 637 H 61.5032 -0.149644 -0.725732 0
M  V30 638 H 64.1502 -1.04521 -1.6046 0
M  V30 639 H 62.4552 0.163148 -3.9146 0
M  V30 640 H 64.1522 -0.217826 -4.00408 0
M  V30 641 H 60.7422 -1.65066 -3.95539 0
M  V30 642 H 64.9262 -2.59133 -4.23277 0
M  V30 643 H 60.1822 -3.93101 -4.68275 0
M  V30 644 H 64.3562 -4.87455 -4.97354 0
M  V30 645 H 61.9832 -5.54959 -5.19542 0
M  V30 646 N 63.5583 1.46682 -0.576371 0
M  V30 647 C 64.9693 1.86112 -0.148091 0
M  V30 648 C 65.3203 1.48073 1.2872 0
M  V30 649 O 64.4453 0.892656 1.97131 0
M  V30 650 C 65.0403 3.37786 -0.261982 0
M  V30 651 C 63.5993 3.76235 0.111384 0
M  V30 652 C 62.7463 2.70713 -0.60083 0
M  V30 653 H 65.6973 1.37927 -0.78497 0
M  V30 654 H 65.7183 3.77007 0.514364 0
M  V30 655 H 65.2303 3.6544 -1.30671 0
M  V30 656 H 63.3313 3.54198 1.15649 0
M  V30 657 H 63.4443 4.78391 -0.26052 0
M  V30 658 H 61.8083 2.54666 -0.0417783 0
M  V30 659 H 62.5913 3.01208 -1.64708 0
M  V30 660 N 65.0364 0.313813 1.54444 0
M  V30 661 C 66.2844 -0.291099 1.99993 0
M  V30 662 C 66.6054 -1.53418 1.20366 0
M  V30 663 O 65.8754 -1.93544 0.302927 0
M  V30 664 H 64.4554 -0.110552 0.738774 0
M  V30 665 H 67.1174 0.428106 1.9014 0
M  V30 666 H 66.2134 -0.554268 3.07139 0
M  V30 667 N 66.5145 -1.57545 0.0417849 0
M  V30 668 C 67.7625 -1.91937 -0.632829 0
M  V30 669 C 68.0835 -0.919978 -1.71934 0
M  V30 670 O 67.3535 0.0366064 -1.95866 0
M  V30 671 H 65.9335 -0.708493 -0.236742 0
M  V30 672 H 68.5955 -1.9468 0.0925745 0
M  V30 673 H 67.6915 -2.92912 -1.07746 0
M  V30 674 N 67.9926 0.231505 -1.5589 0
M  V30 675 C 69.4086 0.580748 -1.48659 0
M  V30 676 C 69.6086 1.87617 -0.73498 0
M  V30 677 O 68.6646 2.51046 -0.270586 0
M  V30 678 C 69.9776 0.669202 -2.93159 0
M  V30 679 C 71.5256 0.760499 -3.03621 0
M  V30 680 C 72.0006 0.880383 -4.49459 0
M  V30 681 N 73.4916 0.944861 -4.53461 0
M  V30 682 C 74.2266 1.05716 -5.63571 0
M  V30 683 N 73.7226 1.13403 -6.83456 0
M  V30 684 N 75.5156 1.09152 -5.514 0
M  V30 685 H 67.6666 -0.618695 -2.03189 0
M  V30 686 H 69.9296 -0.215728 -0.923128 0
M  V30 687 H 69.6356 -0.212904 -3.51055 0
M  V30 688 H 69.5096 1.5361 -3.44505 0
M  V30 689 H 71.8966 1.63305 -2.45796 0
M  V30 690 H 71.9776 -0.131864 -2.5546 0
M  V30 691 H 71.6216 0.0123284 -5.07899 0
M  V30 692 H 71.5516 1.78802 -4.95316 0
M  V30 693 H 74.0426 0.896176 -3.6712 0
M  V30 694 H 74.3556 1.21921 -7.63122 0
M  V30 695 H 72.7006 1.10333 -6.86186 0
M  V30 696 H 75.8916 1.02805 -4.56671 0
M  V30 697 H 76.0646 1.17558 -6.37247 0
M  V30 698 N 69.4707 1.49531 0.497807 0
M  V30 699 C 70.7187 1.58865 1.24926 0
M  V30 700 C 71.0397 0.278721 1.92998 0
M  V30 701 O 70.3097 -0.702144 1.82885 0
M  V30 702 H 68.8897 0.585343 0.464094 0
M  V30 703 H 71.5517 1.86174 0.57666 0
M  V30 704 H 70.6477 2.38633 2.01149 0
M  V30 705 N 70.9488 -0.749086 1.3866 0
M  V30 706 C 72.2258 -1.4992 1.25632 0
M  V30 707 C 72.6058 -2.10633 -0.140317 0
M  V30 708 O 71.9538 -1.97437 -1.15025 0
M  V30 709 C 72.1638 -2.56195 2.36992 0
M  V30 710 C 73.5118 -3.22972 2.75634 0
M  V30 711 O 74.5358 -2.66502 2.36337 0
M  V30 712 O 73.3948 -4.25122 3.43415 0
M  V30 713 H 70.4888 -0.665067 0.491544 0
M  V30 714 H 73.0348 -0.784113 1.50498 0
M  V30 715 H 71.8068 -2.09612 3.30422 0
M  V30 716 H 71.4298 -3.35279 2.13714 0
M  V30 717 N 72.4269 -1.23603 -0.977757 0
M  V30 718 C 73.6519 -1.09735 -1.75991 0
M  V30 719 C 74.0769 0.346858 -1.84874 0
M  V30 720 O 73.4349 1.25093 -1.3123 0
M  V30 721 C 73.4829 -1.73051 -3.16363 0
M  V30 722 O 72.5869 -0.994452 -4.0023 0
M  V30 723 H 71.9279 -0.384476 -0.541364 0
M  V30 724 H 74.4579 -1.6371 -1.2272 0
M  V30 725 H 74.4679 -1.78398 -3.66931 0
M  V30 726 H 73.1429 -2.78137 -3.09213 0
M  V30 727 H 71.7199 -1.01812 -3.58732 0
M  V30 728 N 73.905 1.17692 -1.04816 0
M  V30 729 C 74.868 2.19787 -0.650117 0
M  V30 730 C 75.868 1.58044 0.296427 0
M  V30 731 O 77.058 1.74012 0.0808097 0
M  V30 732 C 74.19 3.40869 0.0456987 0
M  V30 733 H 75.383 2.56516 -1.5537 0
M  V30 734 H 72.936 1.31708 -0.841594 0
M  V30 735 H 73.671 3.09681 0.962726 0
M  V30 736 H 73.456 3.86928 -0.634727 0
M  V30 737 H 74.946 4.16445 0.310432 0
M  V30 738 N 75.3831 0.828654 1.34056 0
M  V30 739 C 76.3131 0.269443 2.3194 0
M  V30 740 C 77.2941 -0.617247 1.58506 0
M  V30 741 O 78.4791 -0.542931 1.86456 0
M  V30 742 C 75.6091 -0.564793 3.42677 0
M  V30 743 C 74.5631 0.225241 4.27407 0
M  V30 744 C 73.8891 -0.7321 5.29664 0
M  V30 745 C 75.1891 1.43663 5.02154 0
M  V30 746 H 76.8831 1.08728 2.7896 0
M  V30 747 H 74.4291 0.524283 1.34117 0
M  V30 748 H 76.3821 -0.966233 4.10173 0
M  V30 749 H 75.1061 -1.41574 2.9432 0
M  V30 750 H 73.7651 0.608117 3.61521 0
M  V30 751 H 73.4131 -1.57916 4.77568 0
M  V30 752 H 73.1131 -0.20767 5.87233 0
M  V30 753 H 74.6371 -1.13128 6.00029 0
M  V30 754 H 76.0511 1.1089 5.62473 0
M  V30 755 H 74.4481 1.89711 5.69324 0
M  V30 756 H 75.5181 2.21181 4.31517 0
M  V30 757 N 76.8612 -1.46375 0.584142 0
M  V30 758 C 78.1082 -2.02378 0.0702675 0
M  V30 759 C 78.4362 -1.45545 -1.29023 0
M  V30 760 O 77.6912 -0.610967 -1.85918 0
M  V30 761 C 77.9902 -3.57373 -0.0439342 0
M  V30 762 C 77.6562 -4.33252 1.24915 0
M  V30 763 C 76.3182 -4.53701 1.60341 0
M  V30 764 C 78.6702 -4.7681 2.1048 0
M  V30 765 C 75.9982 -5.1496 2.81128 0
M  V30 766 C 78.3502 -5.39404 3.30494 0
M  V30 767 C 77.0142 -5.5808 3.66201 0
M  V30 768 H 76.2842 -0.740554 0.0257127 0
M  V30 769 H 78.9312 -1.75727 0.761065 0
M  V30 770 H 77.2362 -3.83169 -0.817869 0
M  V30 771 H 78.9332 -3.98384 -0.457318 0
M  V30 772 H 75.5232 -4.17633 0.963364 0
M  V30 773 H 79.7072 -4.60766 1.84414 0
M  V30 774 H 74.9632 -5.27611 3.08928 0
M  V30 775 H 79.1372 -5.72114 3.97063 0
M  V30 776 H 76.7642 -6.05318 4.59885 0
M  V30 777 N 78.3393 -0.321999 -1.54275 0
M  V30 778 C 79.3023 0.531975 -2.22941 0
M  V30 779 C 80.3023 1.04478 -1.22234 0
M  V30 780 O 81.4923 0.937452 -1.46825 0
M  V30 781 C 78.6243 1.73874 -2.93224 0
M  V30 782 H 79.8173 -0.0682612 -2.99822 0
M  V30 783 H 77.3703 -0.0730644 -1.56129 0
M  V30 784 H 78.1053 2.37825 -2.20476 0
M  V30 785 H 77.8903 1.37847 -3.6707 0
M  V30 786 H 79.3803 2.34496 -3.45545 0
M  V30 787 N 79.8174 1.5752 -0.0501392 0
M  V30 788 C 81.0634 1.92936 0.624798 0
M  V30 789 C 81.3964 0.928685 1.70555 0
M  V30 790 O 80.6714 -0.0454779 1.94447 0
M  V30 791 C 80.9544 3.38737 1.22185 0
M  V30 792 C 80.8074 4.49552 0.149218 0
M  V30 793 C 82.1264 3.84913 2.13378 0
M  V30 794 H 79.2454 0.701604 0.225657 0
M  V30 795 H 81.8874 1.89671 -0.111693 0
M  V30 796 H 80.0374 3.4165 1.84953 0
M  V30 797 H 81.7094 4.58768 -0.482648 0
M  V30 798 H 79.9524 4.30638 -0.522841 0
M  V30 799 H 80.6234 5.48653 0.606966 0
M  V30 800 H 83.0994 3.8387 1.60572 0
M  V30 801 H 81.9754 4.87584 2.52097 0
M  V30 802 H 82.2364 3.21611 3.03346 0
M  V30 803 N 81.2955 -0.223234 1.56011 0
M  V30 804 C 82.2435 -1.29627 1.93131 0
M  V30 805 C 83.2375 -1.48608 0.813146 0
M  V30 806 O 84.4435 -1.49802 0.997966 0
M  V30 807 H 80.8185 -0.434563 0.613726 0
M  V30 808 H 82.7895 -0.955995 2.82672 0
M  V30 809 C 81.5385 -2.63983 2.26292 0
M  V30 810 H 80.8615 -2.50185 3.11846 0
M  V30 811 H 82.3015 -3.3788 2.56151 0
M  V30 812 C 80.7605 -3.18866 1.08747 0
M  V30 813 O 81.2905 -4.00192 0.347727 0
M  V30 814 N 79.4965 -2.77217 0.871743 0
M  V30 815 H 79.0435 -2.1119 1.47501 0
M  V30 816 H 79.0015 -3.1428 0.0869905 0
M  V30 817 N 82.7736 -1.49793 -0.48987 0
M  V30 818 C 84.0216 -1.59525 -1.24081 0
M  V30 819 C 84.3426 -0.288953 -1.92847 0
M  V30 820 O 83.6126 0.692436 -1.83254 0
M  V30 821 H 82.1926 -0.587796 -0.460983 0
M  V30 822 H 84.8546 -1.86477 -0.566778 0
M  V30 823 H 83.9506 -2.39696 -1.99881 0
M  V30 824 N 84.2517 0.741722 -1.39055 0
M  V30 825 C 85.4987 1.50114 -1.35912 0
M  V30 826 C 85.8267 1.94443 0.0470937 0
M  V30 827 O 85.0817 1.66612 1.02659 0
M  V30 828 C 85.3807 2.7592 -2.27163 0
M  V30 829 C 85.0467 2.50493 -3.74919 0
M  V30 830 C 83.7087 2.43267 -4.1518 0
M  V30 831 C 86.0607 2.28585 -4.684 0
M  V30 832 C 83.3887 2.12166 -5.46994 0
M  V30 833 C 85.7407 1.99002 -6.00484 0
M  V30 834 C 84.4047 1.90241 -6.39816 0
M  V30 835 H 83.6747 0.549306 -0.497336 0
M  V30 836 H 86.3217 0.851896 -1.71508 0
M  V30 837 H 84.6267 3.45553 -1.84663 0
M  V30 838 H 86.3237 3.33923 -2.22028 0
M  V30 839 H 82.9137 2.56992 -3.43006 0
M  V30 840 H 87.0977 2.33139 -4.38132 0
M  V30 841 H 82.3537 2.03901 -5.76398 0
M  V30 842 H 86.5277 1.81057 -6.72452 0
M  V30 843 H 84.1547 1.65907 -7.41875 0
M  V30 844 N 85.7298 1.2412 0.971189 0
M  V30 845 C 86.6778 1.02812 2.08644 0
M  V30 846 C 87.6718 -0.0358403 1.69362 0
M  V30 847 O 88.8778 0.118429 1.7961 0
M  V30 848 H 85.2528 0.315428 0.682649 0
M  V30 849 H 87.2238 1.97397 2.23779 0
M  V30 850 C 85.9728 0.645874 3.41649 0
M  V30 851 H 85.2958 1.45632 3.72332 0
M  V30 852 H 86.7358 0.536366 4.20594 0
M  V30 853 C 85.1948 -0.646713 3.30635 0
M  V30 854 O 85.7248 -1.69338 3.64263 0
M  V30 855 N 83.9308 -0.626115 2.83775 0
M  V30 856 H 83.4778 0.225988 2.56607 0
M  V30 857 H 83.4358 -1.49117 2.76788 0
M  V30 858 N 87.2079 -1.17134 1.05439 0
M  V30 859 C 88.4569 -1.86791 0.761049 0
M  V30 860 C 88.7699 -1.82072 -0.714795 0
M  V30 861 O 89.9759 -2.47223 -1.12218 0
M  V30 862 C 88.4319 -3.35166 1.31117 0
M  V30 863 C 88.0399 -3.48381 2.81664 0
M  V30 864 C 89.7839 -4.10134 1.09499 0
M  V30 865 C 87.6909 -4.90793 3.29964 0
M  V30 866 H 86.6209 -0.699681 0.281002 0
M  V30 867 H 89.2719 -1.3226 1.27199 0
M  V30 868 H 87.6539 -3.8925 0.72803 0
M  V30 869 H 88.8279 -3.04502 3.45855 0
M  V30 870 H 87.1429 -2.86836 3.01851 0
M  V30 871 H 89.7399 -5.152 1.43084 0
M  V30 872 H 90.0829 -4.16287 0.0328772 0
M  V30 873 H 90.6159 -3.62264 1.64346 0
M  V30 874 H 87.3549 -4.89816 4.35616 0
M  V30 875 H 86.8749 -5.35333 2.70516 0
M  V30 876 H 88.5539 -5.59573 3.24787 0
M  V30 877 N 88.686 -0.835752 -1.33615 0
M  V30 878 C 89.616 -0.281739 -2.31794 0
M  V30 879 C 90.597 0.608833 -1.58831 0
M  V30 880 O 91.782 0.533035 -1.86741 0
M  V30 881 C 88.912 0.546612 -3.42971 0
M  V30 882 C 87.866 -0.247904 -4.27281 0
M  V30 883 C 87.192 0.704001 -5.30045 0
M  V30 884 C 88.492 -1.46324 -5.01385 0
M  V30 885 H 90.186 -1.10206 -2.78379 0
M  V30 886 H 87.732 -0.531388 -1.33837 0
M  V30 887 H 89.685 0.944467 -4.1068 0
M  V30 888 H 88.409 1.40011 -2.95067 0
M  V30 889 H 87.068 -0.627281 -3.61194 0
M  V30 890 H 86.716 1.55381 -4.78399 0
M  V30 891 H 86.416 0.176524 -5.87335 0
M  V30 892 H 87.94 1.09944 -6.0062 0
M  V30 893 H 89.354 -1.13871 -5.61877 0
M  V30 894 H 87.751 -1.92728 -5.6831 0
M  V30 895 H 88.821 -2.23467 -4.30338 0
M  V30 896 N 90.1641 1.46063 -0.591896 0
M  V30 897 C 91.4101 2.02638 -0.0811191 0
M  V30 898 C 91.7431 1.4613 1.27905 0
M  V30 899 O 91.0181 0.629908 1.84017 0
M  V30 900 C 91.3011 3.60091 -0.0252436 0
M  V30 901 C 91.1541 4.26965 -1.41496 0
M  V30 902 C 92.4731 4.3496 0.670685 0
M  V30 903 H 89.5921 0.73635 -0.0309524 0
M  V30 904 H 92.2341 1.741 -0.760859 0
M  V30 905 H 90.3841 3.84535 0.553624 0
M  V30 906 H 92.0561 4.13756 -2.0397 0
M  V30 907 H 90.2991 3.85971 -1.98011 0
M  V30 908 H 90.9701 5.35781 -1.32825 0
M  V30 909 H 93.4461 4.15716 0.178825 0
M  V30 910 H 92.3221 5.44686 0.678837 0
M  V30 911 H 92.5831 4.06685 1.73379 0
M  V30 912 N 91.6422 0.330177 1.54103 0
M  V30 913 C 92.9192 -0.325007 1.92881 0
M  V30 914 C 93.2992 -1.6934 1.26045 0
M  V30 915 O 92.6472 -2.24855 0.406526 0
M  V30 916 C 92.8572 -0.410634 3.46576 0
M  V30 917 C 94.2052 -0.667801 4.19316 0
M  V30 918 O 95.2292 -0.49329 3.52768 0
M  V30 919 O 94.0882 -1.00491 5.37181 0
M  V30 920 H 91.1822 -0.186873 0.80561 0
M  V30 921 H 93.7282 0.380376 1.65382 0
M  V30 922 H 92.5002 0.550164 3.87413 0
M  V30 923 H 92.1232 -1.16333 3.802 0
M  V30 924 N 93.1203 -1.57491 0.0584922 0
M  V30 925 C 94.3683 -1.92597 -0.612436 0
M  V30 926 C 94.6893 -0.938162 -1.70949 0
M  V30 927 O 93.9593 0.0158301 -1.95894 0
M  V30 928 H 92.5393 -0.710964 -0.229214 0
M  V30 929 H 95.2013 -1.94571 0.113218 0
M  V30 930 H 94.2973 -2.94038 -1.04633 0
M  V30 931 N 94.5984 0.214957 -1.56127 0
M  V30 932 C 95.8464 0.936518 -1.79091 0
M  V30 933 C 96.1674 1.84606 -0.628148 0
M  V30 934 O 95.4374 1.92664 0.35462 0
M  V30 935 H 94.0174 0.3488 -0.660566 0
M  V30 936 H 96.6794 0.22523 -1.93594 0
M  V30 937 H 95.7754 1.53943 -2.71492 0
M  V30 938 N 96.0765 1.50051 0.48192 0
M  V30 939 C 97.3015 1.64508 1.26301 0
M  V30 940 C 97.7265 0.323851 1.85291 0
M  V30 941 O 97.0845 -0.710969 1.66778 0
M  V30 942 C 97.1325 2.7305 2.35533 0
M  V30 943 O 96.2365 2.3355 3.39895 0
M  V30 944 H 95.5775 0.549978 0.372048 0
M  V30 945 H 98.1075 1.9636 0.574786 0
M  V30 946 H 98.1175 2.95799 2.8101 0
M  V30 947 H 96.7925 3.68946 1.91967 0
M  V30 948 H 95.3695 2.21205 3.00204 0
M  V30 949 N 97.5546 -0.734337 1.39446 0
M  V30 950 C 98.8316 -1.48579 1.27215 0
M  V30 951 C 99.2116 -2.1077 -0.117968 0
M  V30 952 O 98.5596 -1.98646 -1.12924 0
M  V30 953 C 98.7696 -2.53667 2.39696 0
M  V30 954 C 100.118 -3.20031 2.79044 0
M  V30 955 O 101.142 -2.6398 2.39151 0
M  V30 956 O 100.001 -4.21455 3.47905 0
M  V30 957 H 97.0946 -0.659816 0.49857 0
M  V30 958 H 99.6406 -0.768106 1.51322 0
M  V30 959 H 98.4126 -2.06096 3.32626 0
M  V30 960 H 98.0356 -3.32994 2.17258 0
M  V30 961 N 99.0327 -1.24633 -0.964593 0
M  V30 962 C 100.449 -1.01239 -1.2338 0
M  V30 963 C 100.649 0.2769 -1.99588 0
M  V30 964 O 99.7047 0.992241 -2.32187 0
M  V30 965 C 101.018 -2.22937 -2.01791 0
M  V30 966 C 102.566 -2.27594 -2.14872 0
M  V30 967 C 103.041 -3.48921 -2.96678 0
M  V30 968 N 104.532 -3.49257 -3.04259 0
M  V30 969 C 105.267 -4.39795 -3.67924 0
M  V30 970 N 104.763 -5.40591 -4.33281 0
M  V30 971 N 106.556 -4.275 -3.64966 0
M  V30 972 H 98.7067 -2.0748 -0.454502 0
M  V30 973 H 100.97 -0.910647 -0.26349 0
M  V30 974 H 100.676 -3.16587 -1.53184 0
M  V30 975 H 100.55 -2.25306 -3.02518 0
M  V30 976 H 102.937 -1.34473 -2.6268 0
M  V30 977 H 103.018 -2.2925 -1.13482 0
M  V30 978 H 102.662 -4.42359 -2.49562 0
M  V30 979 H 102.592 -3.4451 -3.98272 0
M  V30 980 H 105.083 -2.76337 -2.57771 0
M  V30 981 H 105.396 -6.05904 -4.79687 0
M  V30 982 H 103.741 -5.44475 -4.3194 0
M  V30 983 H 106.932 -3.47987 -3.13086 0
M  V30 984 H 107.105 -4.98258 -4.14298 0
M  V30 985 N 100.511 1.16574 -1.06058 0
M  V30 986 C 101.458 2.20883 -0.669263 0
M  V30 987 C 102.428 1.62729 0.332918 0
M  V30 988 O 103.613 1.895 0.222346 0
M  V30 989 C 100.753 3.45049 -0.0593572 0
M  V30 990 C 99.8658 4.17458 -1.11143 0
M  V30 991 C 99.0008 5.29135 -0.467916 0
M  V30 992 C 98.0398 5.93343 -1.50369 0
M  V30 993 N 97.1768 6.96516 -0.883706 0
M  V30 994 H 102.017 2.53709 -1.5632 0
M  V30 995 H 99.5538 1.24616 -0.781625 0
M  V30 996 H 101.512 4.16033 0.311771 0
M  V30 997 H 100.142 3.12781 0.797992 0
M  V30 998 H 99.1938 3.45101 -1.60029 0
M  V30 999 H 100.506 4.61307 -1.89731 0
M  V30 1000 H 99.6598 6.06684 -0.0436871 0
M  V30 1001 H 98.3988 4.86443 0.349864 0
M  V30 1002 H 97.4038 5.14517 -1.93784 0
M  V30 1003 H 98.6288 6.38114 -2.32352 0
M  V30 1004 H 96.5748 6.55943 -0.086595 0
M  V30 1005 H 96.4918 7.38723 -1.607 0
M  V30 1006 H 97.7598 7.77993 -0.484543 0
M  V30 1007 N 101.989 0.842826 1.3317 0
M  V30 1008 C 103.214 0.453129 2.02389 0
M  V30 1009 C 103.639 -0.939105 1.6298 0
M  V30 1010 O 102.997 -1.61472 0.8244 0
M  V30 1011 C 103.045 0.586094 3.55805 0
M  V30 1012 O 102.149 -0.386029 4.10589 0
M  V30 1013 H 101.49 0.183664 0.638094 0
M  V30 1014 H 104.02 1.13875 1.69981 0
M  V30 1015 H 104.03 0.469209 4.05293 0
M  V30 1016 H 102.705 1.6014 3.83833 0
M  V30 1017 H 101.282 -0.226371 3.72212 0
M  V30 1018 N 103.467 -1.45747 0.599634 0
M  V30 1019 C 104.707 -2.04181 0.0946309 0
M  V30 1020 C 105.071 -1.45895 -1.24815 0
M  V30 1021 O 106.272 -1.95633 -1.8434 0
M  V30 1022 C 104.543 -3.57368 0.047581 0
M  V30 1023 S 106.102 -4.36997 -0.397387 0
M  V30 1024 H 102.92 -0.70953 0.0456954 0
M  V30 1025 H 105.522 -1.78564 0.795946 0
M  V30 1026 H 104.226 -3.97303 1.02852 0
M  V30 1027 H 103.757 -3.87549 -0.675977 0
M  V30 1028 H 105.772 -4.68012 -1.64862 0
M  V30 1029 N 104.945 -0.338344 -1.53925 0
M  V30 1030 C 106.192 0.259758 -2.00827 0
M  V30 1031 C 106.52 1.50973 -1.22628 0
M  V30 1032 O 105.775 1.93379 -0.300509 0
M  V30 1033 C 106.074 0.62448 -3.51902 0
M  V30 1034 C 105.74 -0.528006 -4.47798 0
M  V30 1035 C 104.402 -0.844298 -4.73735 0
M  V30 1036 C 106.754 -1.30143 -5.0469 0
M  V30 1037 C 104.082 -1.93648 -5.53821 0
M  V30 1038 C 106.434 -2.38382 -5.85967 0
M  V30 1039 C 105.098 -2.70576 -6.10201 0
M  V30 1040 H 104.368 0.0950523 -0.734878 0
M  V30 1041 H 107.015 -0.465182 -1.85764 0
M  V30 1042 H 105.32 1.43006 -3.64769 0
M  V30 1043 H 107.017 1.09905 -3.85645 0
M  V30 1044 H 103.607 -0.271421 -4.2774 0
M  V30 1045 H 107.791 -1.07033 -4.84621 0
M  V30 1046 H 103.047 -2.19021 -5.70824 0
M  V30 1047 H 107.221 -2.98746 -6.29066 0
M  V30 1048 H 104.848 -3.55333 -6.72044 0
M  V30 1049 N 106.423 1.57458 -0.0668435 0
M  V30 1050 C 107.669 1.94401 0.598316 0
M  V30 1051 C 108.024 0.946335 1.67518 0
M  V30 1052 O 107.317 -0.0321442 1.91573 0
M  V30 1053 C 107.511 3.35784 1.22409 0
M  V30 1054 C 107.34 4.49212 0.209367 0
M  V30 1055 C 106.11 5.04887 -0.204218 0
M  V30 1056 C 108.308 5.11335 -0.551431 0
M  V30 1057 N 106.29 6.01854 -1.21016 0
M  V30 1058 C 107.661 6.03754 -1.41 0
M  V30 1059 C 109.716 4.94173 -0.608038 0
M  V30 1060 C 108.419 6.80854 -2.32013 0
M  V30 1061 C 110.445 5.71912 -1.50566 0
M  V30 1062 C 109.807 6.63976 -2.35191 0
M  V30 1063 H 105.906 0.758538 0.190114 0
M  V30 1064 H 108.49 1.94175 -0.142832 0
M  V30 1065 H 106.661 3.36757 1.93518 0
M  V30 1066 H 108.393 3.59976 1.84931 0
M  V30 1067 H 105.148 4.73266 0.177908 0
M  V30 1068 H 105.572 6.55035 -1.71049 0
M  V30 1069 H 110.214 4.22788 0.032022 0
M  V30 1070 H 107.932 7.5152 -2.97057 0
M  V30 1071 H 111.518 5.60656 -1.55423 0
M  V30 1072 H 110.398 7.2308 -3.03522 0
M  V30 1073 N 107.901 -0.206675 1.56239 0
M  V30 1074 C 108.848 -1.25617 1.93621 0
M  V30 1075 C 109.818 -1.45824 0.795274 0
M  V30 1076 O 111.003 -1.59148 1.05245 0
M  V30 1077 C 108.143 -2.59839 2.27107 0
M  V30 1078 C 107.256 -2.47308 3.54207 0
M  V30 1079 C 106.391 -3.74155 3.7707 0
M  V30 1080 C 105.43 -3.56407 4.97635 0
M  V30 1081 N 104.567 -4.75238 5.1681 0
M  V30 1082 H 109.407 -0.930383 2.83104 0
M  V30 1083 H 106.944 -0.448065 1.4011 0
M  V30 1084 H 108.902 -3.38021 2.44535 0
M  V30 1085 H 107.532 -2.90485 1.40778 0
M  V30 1086 H 106.584 -1.60483 3.4489 0
M  V30 1087 H 107.896 -2.30122 4.42544 0
M  V30 1088 H 107.05 -4.60778 3.94675 0
M  V30 1089 H 105.789 -3.94282 2.87042 0
M  V30 1090 H 104.794 -2.68168 4.79964 0
M  V30 1091 H 106.019 -3.37736 5.89161 0
M  V30 1092 H 103.965 -4.95651 4.29728 0
M  V30 1093 H 103.882 -4.60835 5.99306 0
M  V30 1094 H 105.15 -5.63246 5.38864 0
M  V30 1095 N 109.379 -1.50304 -0.473955 0
M  V30 1096 C 110.309 -1.71886 -1.58042 0
M  V30 1097 C 111.29 -0.567799 -1.60344 0
M  V30 1098 O 112.475 -0.806623 -1.76656 0
M  V30 1099 C 109.605 -1.81036 -2.96384 0
M  V30 1100 C 108.559 -2.962 -3.08949 0
M  V30 1101 C 107.885 -2.9049 -4.48909 0
M  V30 1102 C 109.185 -4.36752 -2.86434 0
M  V30 1103 H 110.879 -2.64527 -1.40234 0
M  V30 1104 H 108.425 -1.27295 -0.673201 0
M  V30 1105 H 110.378 -1.94719 -3.73714 0
M  V30 1106 H 109.102 -0.850147 -3.15341 0
M  V30 1107 H 107.761 -2.82164 -2.3405 0
M  V30 1108 H 107.409 -1.92321 -4.64781 0
M  V30 1109 H 107.109 -3.67802 -4.58253 0
M  V30 1110 H 108.633 -3.06218 -5.28264 0
M  V30 1111 H 110.047 -4.5133 -3.53517 0
M  V30 1112 H 108.444 -5.15493 -3.07225 0
M  V30 1113 H 109.514 -4.49321 -1.82316 0
M  V30 1114 N 110.857 0.726932 -1.39834 0
M  V30 1115 C 112.103 1.48884 -1.377 0
M  V30 1116 C 112.436 1.94185 0.0244852 0
M  V30 1117 O 111.711 1.67361 0.990986 0
M  V30 1118 C 111.994 2.72288 -2.3565 0
M  V30 1119 C 111.847 2.32956 -3.84775 0
M  V30 1120 C 113.166 3.74414 -2.31306 0
M  V30 1121 H 110.285 0.540062 -0.5015 0
M  V30 1122 H 112.927 0.830547 -1.70886 0
M  V30 1123 H 111.077 3.28457 -2.07481 0
M  V30 1124 H 112.749 1.82356 -4.23726 0
M  V30 1125 H 110.992 1.65088 -4.01159 0
M  V30 1126 H 111.663 3.21362 -4.4881 0
M  V30 1127 H 114.139 3.27849 -2.56231 0
M  V30 1128 H 113.015 4.58414 -3.01907 0
M  V30 1129 H 113.276 4.21909 -1.32081 0
M  V30 1130 N 112.336 1.25143 0.95797 0
M  V30 1131 C 113.752 1.01892 1.22842 0
M  V30 1132 C 113.952 -0.266311 1.99732 0
M  V30 1133 O 113.008 -0.979913 2.3271 0
M  V30 1134 C 114.321 2.24004 2.00606 0
M  V30 1135 C 115.869 2.28731 2.13662 0
M  V30 1136 C 116.344 3.5049 2.94823 0
M  V30 1137 N 117.835 3.50866 3.02403 0
M  V30 1138 C 118.57 4.4174 3.65586 0
M  V30 1139 N 118.066 5.42882 4.30408 0
M  V30 1140 N 119.859 4.29429 3.62694 0
M  V30 1141 H 112.01 2.07718 0.443493 0
M  V30 1142 H 114.273 0.912031 0.258657 0
M  V30 1143 H 113.979 3.17395 1.51503 0
M  V30 1144 H 113.853 2.26907 3.01319 0
M  V30 1145 H 116.24 1.35865 2.61963 0
M  V30 1146 H 116.321 2.29848 1.12265 0
M  V30 1147 H 115.965 4.43676 2.47213 0
M  V30 1148 H 115.895 3.46617 3.96439 0
M  V30 1149 H 118.386 2.777 2.56302 0
M  V30 1150 H 118.699 6.0844 4.76467 0
M  V30 1151 H 117.044 5.46758 4.29047 0
M  V30 1152 H 120.235 3.49643 3.11236 0
M  V30 1153 H 120.408 5.00448 4.1165 0
M  V30 1154 N 113.814 -1.1601 1.06675 0
M  V30 1155 C 114.764 -2.18512 0.650888 0
M  V30 1156 C 115.748 -1.57677 -0.320441 0
M  V30 1157 O 116.94 -1.76482 -0.135266 0
M  V30 1158 C 114.069 -3.43273 0.0429255 0
M  V30 1159 C 113.155 -4.11176 1.03898 0
M  V30 1160 N 113.546 -4.54672 2.216 0
M  V30 1161 C 111.844 -4.37417 0.870779 0
M  V30 1162 C 112.545 -5.07248 2.84736 0
M  V30 1163 N 111.521 -5.0037 2.12441 0
M  V30 1164 H 115.323 -2.49863 1.54745 0
M  V30 1165 H 112.837 -1.32503 0.938975 0
M  V30 1166 H 114.834 -4.16006 -0.272857 0
M  V30 1167 H 113.494 -3.13408 -0.84884 0
M  V30 1168 H 114.505 -4.4828 2.59356 0
M  V30 1169 H 111.182 -4.17488 0.0313293 0
M  V30 1170 H 112.572 -5.50912 3.84636 0
M  V30 1171 N 115.292 -0.849877 -1.32721 0
M  V30 1172 C 116.222 -0.306308 -2.31482 0
M  V30 1173 C 117.203 0.591952 -1.59468 0
M  V30 1174 O 118.388 0.513199 -1.87296 0
M  V30 1175 C 115.518 0.510204 -3.43532 0
M  V30 1176 C 114.472 -0.293209 -4.26994 0
M  V30 1177 C 113.798 0.647743 -5.30762 0
M  V30 1178 C 115.098 -1.51634 -4.99804 0
M  V30 1179 H 116.792 -1.13153 -2.77195 0
M  V30 1180 H 114.338 -0.545553 -1.33266 0
M  V30 1181 H 116.291 0.900856 -4.11658 0
M  V30 1182 H 115.015 1.36874 -2.96535 0
M  V30 1183 H 113.674 -0.665555 -3.60508 0
M  V30 1184 H 113.322 1.50299 -4.8002 0
M  V30 1185 H 113.022 0.11422 -5.87489 0
M  V30 1186 H 114.546 1.03567 -6.01753 0
M  V30 1187 H 115.96 -1.19824 -5.60638 0
M  V30 1188 H 114.357 -1.98745 -5.66234 0
M  V30 1189 H 115.427 -2.28018 -4.27943 0
M  V30 1190 N 116.77 1.45427 -0.607355 0
M  V30 1191 C 118.047 1.9557 -0.0344566 0
M  V30 1192 C 118.427 1.54979 1.43334 0
M  V30 1193 O 117.775 0.812241 2.13576 0
M  V30 1194 C 117.985 3.48226 -0.232321 0
M  V30 1195 C 119.333 4.2445 -0.113001 0
M  V30 1196 O 120.357 3.55829 -0.162431 0
M  V30 1197 O 119.216 5.465 0.00209442 0
M  V30 1198 H 116.31 0.826222 0.0358667 0
M  V30 1199 H 118.856 1.55594 -0.6774 0
M  V30 1200 H 117.628 3.70739 -1.25174 0
M  V30 1201 H 117.251 3.95092 0.445896 0
M  V30 1202 N 118.248 0.346503 1.53744 0
M  V30 1203 C 119.664 -0.00530975 1.59599 0
M  V30 1204 C 119.864 -1.48465 1.36236 0
M  V30 1205 O 118.92 -2.24376 1.15808 0
M  V30 1206 C 120.233 0.433516 2.97559 0
M  V30 1207 C 121.781 0.386111 3.10609 0
M  V30 1208 C 122.256 0.800451 4.50951 0
M  V30 1209 N 123.747 0.754753 4.5701 0
M  V30 1210 C 124.482 1.04727 5.63755 0
M  V30 1211 N 123.978 1.4081 6.7834 0
M  V30 1212 N 125.771 0.971316 5.53644 0
M  V30 1213 H 117.922 1.31009 1.67184 0
M  V30 1214 H 120.185 0.534242 0.783128 0
M  V30 1215 H 119.891 1.46509 3.19731 0
M  V30 1216 H 119.765 -0.189753 3.76722 0
M  V30 1217 H 122.152 -0.636295 2.88158 0
M  V30 1218 H 122.233 1.04462 2.33498 0
M  V30 1219 H 121.877 1.82088 4.74137 0
M  V30 1220 H 121.807 0.119386 5.26465 0
M  V30 1221 H 124.298 0.488662 3.74727 0
M  V30 1222 H 124.611 1.61607 7.55714 0
M  V30 1223 H 122.956 1.44657 6.79779 0
M  V30 1224 H 126.147 0.688748 4.63005 0
M  V30 1225 H 126.32 1.20263 6.36742 0
M  V30 1226 N 119.726 -1.57421 0.075193 0
M  V30 1227 C 120.975 -1.92794 -0.592731 0
M  V30 1228 C 121.288 -0.957478 -1.70563 0
M  V30 1229 O 122.494 -1.20417 -2.43335 0
M  V30 1230 C 120.95 -3.42495 -1.10569 0
M  V30 1231 C 120.558 -4.47994 -0.0236121 0
M  V30 1232 C 122.302 -3.86864 -1.74748 0
M  V30 1233 C 120.209 -5.88829 -0.550803 0
M  V30 1234 H 119.139 -0.719591 -0.225177 0
M  V30 1235 H 121.79 -1.82902 0.147978 0
M  V30 1236 H 120.172 -3.47471 -1.89947 0
M  V30 1237 H 121.346 -4.54637 0.751099 0
M  V30 1238 H 119.661 -4.13113 0.522159 0
M  V30 1239 H 122.258 -4.8947 -2.15229 0
M  V30 1240 H 122.601 -3.24417 -2.60882 0
M  V30 1241 H 123.134 -3.84504 -1.01986 0
M  V30 1242 H 119.873 -6.54929 0.273457 0
M  V30 1243 H 119.393 -5.85698 -1.29296 0
M  V30 1244 H 121.072 -6.38811 -1.02613 0
M  V30 1245 N 121.204 0.198386 -1.56346 0
M  V30 1246 C 122.481 0.944982 -1.71258 0
M  V30 1247 C 122.861 2.0151 -0.629048 0
M  V30 1248 O 122.209 2.25639 0.360473 0
M  V30 1249 C 122.419 1.5344 -3.1346 0
M  V30 1250 C 123.767 2.01778 -3.73591 0
M  V30 1251 O 124.791 1.63288 -3.16568 0
M  V30 1252 O 123.65 2.72594 -4.73661 0
M  V30 1253 H 120.744 0.442939 -0.69838 0
M  V30 1254 H 123.29 0.188342 -1.68652 0
M  V30 1255 H 122.062 0.762869 -3.83792 0
M  V30 1256 H 121.685 2.35596 -3.20282 0
M  V30 1257 N 122.682 1.50554 0.465978 0
M  V30 1258 C 123.907 1.65838 1.24549 0
M  V30 1259 C 124.332 0.343486 1.84937 0
M  V30 1260 O 123.69 -0.69324 1.67523 0
M  V30 1261 C 123.738 2.75533 2.32624 0
M  V30 1262 O 122.842 2.37142 3.37398 0
M  V30 1263 H 122.183 0.553893 0.366194 0
M  V30 1264 H 124.713 1.96959 0.553927 0
M  V30 1265 H 124.723 2.98763 2.77857 0
M  V30 1266 H 123.398 3.70962 1.88043 0
M  V30 1267 H 121.975 2.24377 2.97841 0
M  V30 1268 N 124.16 -0.719506 1.40217 0
M  V30 1269 C 125.406 -1.48152 1.38488 0
M  V30 1270 C 125.739 -1.94195 -0.0141867 0
M  V30 1271 O 125.014 -1.67884 -0.982096 0
M  V30 1272 C 125.297 -2.71035 2.37091 0
M  V30 1273 C 125.15 -2.30912 3.86005 0
M  V30 1274 C 126.469 -3.73182 2.33288 0
M  V30 1275 H 123.588 -0.537395 0.504357 0
M  V30 1276 H 126.23 -0.821472 1.71324 0
M  V30 1277 H 124.38 -3.27352 2.0922 0
M  V30 1278 H 126.052 -1.80107 4.24687 0
M  V30 1279 H 124.295 -1.62958 4.02029 0
M  V30 1280 H 124.966 -3.18978 4.50508 0
M  V30 1281 H 127.442 -3.26485 2.57966 0
M  V30 1282 H 126.318 -4.56806 3.04334 0
M  V30 1283 H 126.579 -4.21202 1.34317 0
M  V30 1284 N 125.638 -1.25649 -0.95132 0
M  V30 1285 C 126.568 -1.08808 -2.06599 0
M  V30 1286 C 127.549 0.00382547 -1.701 0
M  V30 1287 O 128.734 -0.166325 -1.93486 0
M  V30 1288 C 125.864 -0.709542 -3.39975 0
M  V30 1289 C 124.818 -1.75206 -3.90496 0
M  V30 1290 C 124.144 -1.22811 -5.20405 0
M  V30 1291 C 125.444 -3.15153 -4.16504 0
M  V30 1292 H 127.138 -2.02048 -2.20946 0
M  V30 1293 H 124.684 -0.972835 -1.06169 0
M  V30 1294 H 126.637 -0.578649 -4.17408 0
M  V30 1295 H 125.361 0.258556 -3.25575 0
M  V30 1296 H 124.02 -1.87145 -3.15234 0
M  V30 1297 H 123.668 -0.250145 -5.02378 0
M  V30 1298 H 123.368 -1.92492 -5.55176 0
M  V30 1299 H 124.892 -1.10968 -6.00432 0
M  V30 1300 H 126.306 -3.06349 -4.84586 0
M  V30 1301 H 124.703 -3.82333 -4.62538 0
M  V30 1302 H 125.773 -3.61966 -3.22658 0
M  V30 1303 N 127.117 1.15442 -1.07289 0
M  V30 1304 C 128.047 2.22312 -0.714107 0
M  V30 1305 C 129.028 1.67467 0.298155 0
M  V30 1306 O 130.213 1.93445 0.171048 0
M  V30 1307 C 127.343 3.47124 -0.110448 0
M  V30 1308 C 126.297 4.14926 -1.04979 0
M  V30 1309 C 125.623 5.33807 -0.308924 0
M  V30 1310 C 126.923 4.64762 -2.38314 0
M  V30 1311 H 128.617 2.5258 -1.6076 0
M  V30 1312 H 126.163 1.21404 -0.77441 0
M  V30 1313 H 128.116 4.21124 0.152482 0
M  V30 1314 H 126.84 3.16187 0.81812 0
M  V30 1315 H 125.499 3.42866 -1.29764 0
M  V30 1316 H 125.147 4.99126 0.623084 0
M  V30 1317 H 124.847 5.80113 -0.935036 0
M  V30 1318 H 126.371 6.10576 -0.0537771 0
M  V30 1319 H 127.785 5.30292 -2.1786 0
M  V30 1320 H 126.182 5.21728 -2.96514 0
M  V30 1321 H 127.252 3.80434 -3.00663 0
M  V30 1322 N 128.595 0.856903 1.32268 0
M  V30 1323 C 129.823 0.475439 2.01363 0
M  V30 1324 C 130.238 -0.928486 1.64392 0
M  V30 1325 O 129.595 -1.60624 0.866387 0
M  V30 1326 C 129.646 0.607545 3.56358 0
M  V30 1327 O 129.367 1.95617 3.92002 0
M  V30 1328 C 130.868 0.225382 4.42727 0
M  V30 1329 H 128.088 0.186636 0.644521 0
M  V30 1330 H 130.632 1.15446 1.68797 0
M  V30 1331 H 128.787 -0.0237719 3.87393 0
M  V30 1332 H 129.201 1.95455 4.86721 0
M  V30 1333 H 130.675 0.368813 5.50767 0
M  V30 1334 H 131.152 -0.834369 4.31202 0
M  V30 1335 H 131.758 0.831864 4.17085 0
M  V30 1336 N 130.073 -1.45103 0.615059 0
M  V30 1337 C 131.023 -2.27679 -0.120966 0
M  V30 1338 C 132.007 -1.3775 -0.831491 0
M  V30 1339 O 133.199 -1.61683 -0.720249 0
M  V30 1340 C 130.328 -3.24767 -1.1127 0
M  V30 1341 C 129.414 -4.22184 -0.402627 0
M  V30 1342 N 129.805 -5.02692 0.559884 0
M  V30 1343 C 128.103 -4.4125 -0.649202 0
M  V30 1344 C 128.804 -5.73421 0.977942 0
M  V30 1345 N 127.78 -5.42657 0.320104 0
M  V30 1346 H 131.582 -2.87325 0.618181 0
M  V30 1347 H 129.096 -1.56345 0.439304 0
M  V30 1348 H 131.093 -3.82666 -1.65446 0
M  V30 1349 H 129.753 -2.66682 -1.85232 0
M  V30 1350 H 130.764 -5.09354 0.936976 0
M  V30 1351 H 127.441 -3.9428 -1.37293 0
M  V30 1352 H 128.831 -6.48107 1.77222 0
M  V30 1353 N 131.551 -0.354651 -1.53558 0
M  V30 1354 C 132.8 0.239504 -2.00273 0
M  V30 1355 C 133.113 1.50759 -1.24623 0
M  V30 1356 O 134.319 2.17968 -1.61871 0
M  V30 1357 C 132.775 0.477341 -3.5672 0
M  V30 1358 C 132.383 -0.775488 -4.41237 0
M  V30 1359 C 134.127 1.02975 -4.11821 0
M  V30 1360 C 132.034 -0.507838 -5.89216 0
M  V30 1361 H 130.964 0.0932743 -0.748208 0
M  V30 1362 H 133.615 -0.471701 -1.77334 0
M  V30 1363 H 131.997 1.24953 -3.7577 0
M  V30 1364 H 133.171 -1.54963 -4.33962 0
M  V30 1365 H 131.486 -1.25033 -3.97185 0
M  V30 1366 H 134.083 1.24513 -5.2 0
M  V30 1367 H 134.426 1.98862 -3.65731 0
M  V30 1368 H 134.959 0.317994 -3.96527 0
M  V30 1369 H 131.698 -1.43674 -6.39561 0
M  V30 1370 H 131.218 0.228011 -5.99366 0
M  V30 1371 H 132.897 -0.129238 -6.46871 0
M  V30 1372 N 133.029 1.57378 -0.0835403 0
M  V30 1373 C 134.277 1.93547 0.581718 0
M  V30 1374 C 134.598 0.96524 1.69435 0
M  V30 1375 O 133.868 0.0153369 1.95894 0
M  V30 1376 H 132.448 0.714521 0.217874 0
M  V30 1377 H 135.11 1.94366 -0.144158 0
M  V30 1378 H 134.206 2.95665 0.999423 0
M  V30 1379 N 134.507 -0.190092 1.56449 0
M  V30 1380 C 135.47 -1.21925 1.9408 0
M  V30 1381 C 136.47 -1.38176 0.822431 0
M  V30 1382 O 137.66 -1.35903 1.08977 0
M  V30 1383 C 134.792 -2.58773 2.21922 0
M  V30 1384 H 135.985 -0.897464 2.86157 0
M  V30 1385 H 133.538 -0.43181 1.50217 0
M  V30 1386 H 134.273 -2.95998 1.32499 0
M  V30 1387 H 134.058 -2.48348 3.03424 0
M  V30 1388 H 135.548 -3.32978 2.52022 0
M  V30 1389 N 135.985 -1.50799 -0.457987 0
M  V30 1390 C 137.262 -1.52968 -1.21902 0
M  V30 1391 C 137.642 -0.281906 -2.09209 0
M  V30 1392 O 136.99 0.734076 -2.16388 0
M  V30 1393 C 137.2 -2.8326 -2.03875 0
M  V30 1394 C 138.548 -3.34425 -2.6162 0
M  V30 1395 O 139.572 -2.8467 -2.14106 0
M  V30 1396 O 138.431 -4.21188 -3.48228 0
M  V30 1397 H 135.525 -0.614129 -0.553873 0
M  V30 1398 H 138.071 -1.63098 -0.468739 0
M  V30 1399 H 136.843 -3.65543 -1.39621 0
M  V30 1400 H 136.466 -2.76195 -2.8601 0
M  V30 1401 N 137.463 0.71206 -1.40597 0
M  V30 1402 C 138.411 1.84746 -1.41321 0
M  V30 1403 C 139.405 1.66842 -0.293268 0
M  V30 1404 O 140.611 1.73904 -0.464481 0
M  V30 1405 H 136.986 0.608522 -0.441819 0
M  V30 1406 H 138.957 1.81252 -2.37045 0
M  V30 1407 C 137.706 3.22638 -1.29614 0
M  V30 1408 H 137.029 3.37023 -2.15071 0
M  V30 1409 H 138.469 4.02209 -1.3418 0
M  V30 1410 C 136.928 3.36899 -0.00673121 0
M  V30 1411 O 137.458 3.90186 0.954859 0
M  V30 1412 N 135.664 2.9053 0.0639327 0
M  V30 1413 H 135.211 2.47353 -0.719311 0
M  V30 1414 H 135.169 3.0045 0.926118 0
M  V30 1415 N 138.941 1.26152 0.944643 0
M  V30 1416 C 139.871 1.09902 2.06019 0
M  V30 1417 C 140.852 0.00519538 1.70099 0
M  V30 1418 O 142.037 0.176583 1.93396 0
M  V30 1419 C 139.167 0.727562 3.39594 0
M  V30 1420 C 138.121 1.77274 3.89561 0
M  V30 1421 C 137.447 1.25569 5.19747 0
M  V30 1422 C 138.747 3.17357 4.14827 0
M  V30 1423 H 140.441 2.03217 2.19871 0
M  V30 1424 H 137.987 0.978452 1.05652 0
M  V30 1425 H 139.94 0.600777 4.17095 0
M  V30 1426 H 138.664 -0.241287 3.25707 0
M  V30 1427 H 137.323 1.88814 3.14237 0
M  V30 1428 H 136.971 0.276783 5.02238 0
M  V30 1429 H 136.671 1.95433 5.54148 0
M  V30 1430 H 138.195 1.1415 5.99835 0
M  V30 1431 H 139.609 3.08914 4.82954 0
M  V30 1432 H 138.006 3.84781 4.60504 0
M  V30 1433 H 139.076 3.63673 3.20734 0
M  V30 1434 N 140.419 -1.14872 1.07899 0
M  V30 1435 C 141.83 -1.67367 0.827363 0
M  V30 1436 C 142.181 -1.85236 -0.646693 0
M  V30 1437 O 141.306 -1.55974 -1.50004 0
M  V30 1438 C 141.901 -3.04016 1.49532 0
M  V30 1439 C 140.46 -3.53566 1.29106 0
M  V30 1440 C 139.607 -2.29161 1.56143 0
M  V30 1441 H 142.558 -0.990083 1.24028 0
M  V30 1442 H 142.579 -3.69219 0.919643 0
M  V30 1443 H 142.091 -2.90978 2.56814 0
M  V30 1444 H 140.192 -3.71835 0.238713 0
M  V30 1445 H 140.305 -4.34661 2.01511 0
M  V30 1446 H 138.669 -2.34978 0.982717 0
M  V30 1447 H 139.452 -2.18705 2.64619 0
M  V30 1448 N 141.898 -0.863906 -1.31812 0
M  V30 1449 C 143.146 -0.470904 -1.96537 0
M  V30 1450 C 143.467 0.978771 -1.68657 0
M  V30 1451 O 142.737 1.6853 -0.998717 0
M  V30 1452 H 141.317 -0.171148 -0.72713 0
M  V30 1453 H 143.979 -1.10236 -1.60729 0
M  V30 1454 H 143.075 -0.623616 -3.05806 0
M  V30 1455 N 143.376 1.44774 -0.622745 0
M  V30 1456 C 144.625 2.01334 -0.121397 0
M  V30 1457 C 144.938 1.49505 1.26125 0
M  V30 1458 O 146.144 1.98139 1.85616 0
M  V30 1459 C 144.6 3.59516 -0.166298 0
M  V30 1460 C 144.208 4.20342 -1.54974 0
M  V30 1461 C 145.952 4.23582 0.279021 0
M  V30 1462 C 143.859 5.70721 -1.55021 0
M  V30 1463 H 142.789 0.752851 -0.0416172 0
M  V30 1464 H 145.44 1.66083 -0.780309 0
M  V30 1465 H 143.822 3.92027 0.559557 0
M  V30 1466 H 144.996 3.99381 -2.29851 0
M  V30 1467 H 143.311 3.68529 -1.93843 0
M  V30 1468 H 145.908 5.33868 0.298083 0
M  V30 1469 H 146.251 3.95327 1.30471 0
M  V30 1470 H 146.784 3.95843 -0.394063 0
M  V30 1471 H 143.523 6.03698 -2.55399 0
M  V30 1472 H 143.043 5.93829 -0.844245 0
M  V30 1473 H 144.722 6.34203 -1.28047 0
M  V30 1474 N 144.854 0.36279 1.53368 0
M  V30 1475 C 145.802 -0.500155 2.27159 0
M  V30 1476 C 146.796 -1.08575 1.3003 0
M  V30 1477 O 148.002 -1.02927 1.47668 0
M  V30 1478 H 144.377 -0.180009 0.730138 0
M  V30 1479 H 146.348 0.14401 2.98052 0
M  V30 1480 C 145.097 -1.62937 3.07159 0
M  V30 1481 H 144.42 -1.18806 3.8174 0
M  V30 1482 H 145.86 -2.20795 3.61975 0
M  V30 1483 C 144.319 -2.57007 2.17829 0
M  V30 1484 O 144.849 -3.59752 1.78721 0
M  V30 1485 N 143.055 -2.26131 1.82518 0
M  V30 1486 H 142.602 -1.42616 2.14519 0
M  V30 1487 H 142.56 -2.89327 1.23034 0
M  V30 1488 N 146.332 -1.57332 0.0918853 0
M  V30 1489 C 147.58 -1.93853 -0.571446 0
M  V30 1490 C 147.901 -0.974212 -1.6892 0
M  V30 1491 O 147.171 -0.0257254 -1.95883 0
M  V30 1492 H 145.751 -0.715666 -0.214082 0
M  V30 1493 H 148.413 -1.94287 0.154464 0
M  V30 1494 H 147.509 -2.96191 -0.983729 0
M  V30 1495 N 147.81 0.181792 -1.56548 0
M  V30 1496 C 148.74 1.22765 -1.98623 0
M  V30 1497 C 149.721 1.46747 -0.860189 0
M  V30 1498 O 150.906 1.58259 -1.12551 0
M  V30 1499 C 148.036 2.56894 -2.33715 0
M  V30 1500 C 146.99 2.475 -3.49182 0
M  V30 1501 C 146.316 3.86023 -3.69986 0
M  V30 1502 C 147.616 1.98866 -4.82959 0
M  V30 1503 H 149.31 0.877942 -2.86239 0
M  V30 1504 H 146.856 0.42088 -1.37712 0
M  V30 1505 H 148.809 3.30253 -2.61746 0
M  V30 1506 H 147.533 2.93632 -1.42997 0
M  V30 1507 H 146.192 1.76596 -3.21262 0
M  V30 1508 H 145.84 4.20136 -2.76576 0
M  V30 1509 H 145.54 3.80609 -4.47672 0
M  V30 1510 H 147.064 4.60984 -4.00407 0
M  V30 1511 H 148.478 2.61992 -5.09934 0
M  V30 1512 H 146.875 2.04424 -5.64208 0
M  V30 1513 H 147.945 0.942465 -4.75653 0
M  V30 1514 N 149.288 1.51039 0.449983 0
M  V30 1515 C 150.218 1.74379 1.55288 0
M  V30 1516 C 151.199 0.593236 1.5942 0
M  V30 1517 O 152.384 0.834625 1.7535 0
M  V30 1518 C 149.514 1.85728 2.93466 0
M  V30 1519 C 148.468 3.01078 3.04197 0
M  V30 1520 C 147.794 2.97595 4.44231 0
M  V30 1521 C 149.094 4.41254 2.7945 0
M  V30 1522 H 150.788 2.66725 1.36008 0
M  V30 1523 H 148.334 1.2835 0.652864 0
M  V30 1524 H 150.287 2.0064 3.70569 0
M  V30 1525 H 149.011 0.900207 3.13949 0
M  V30 1526 H 147.67 2.85851 2.29531 0
M  V30 1527 H 147.318 1.99691 4.61663 0
M  V30 1528 H 147.018 3.75046 4.52343 0
M  V30 1529 H 148.542 3.14583 5.23326 0
M  V30 1530 H 149.956 4.56897 3.46292 0
M  V30 1531 H 148.353 5.20315 2.98985 0
M  V30 1532 H 149.423 4.52164 1.75144 0
M  V30 1533 N 150.766 -0.704594 1.40972 0
M  V30 1534 C 151.698 -1.82974 1.38033 0
M  V30 1535 C 152.711 -1.60305 0.283931 0
M  V30 1536 O 153.9 -1.69975 0.545042 0
M  V30 1537 C 151 -3.19578 1.12795 0
M  V30 1538 C 150.173 -3.69352 2.34302 0
M  V30 1539 C 149.232 -4.84601 2.05058 0
M  V30 1540 O 148.258 -4.96682 2.7802 0
M  V30 1541 N 149.46 -5.71194 1.03528 0
M  V30 1542 H 152.225 -1.85991 2.35005 0
M  V30 1543 H 149.786 -0.886567 1.35468 0
M  V30 1544 H 151.778 -3.9429 0.911987 0
M  V30 1545 H 150.348 -3.11642 0.24452 0
M  V30 1546 H 149.568 -2.85649 2.71659 0
M  V30 1547 H 150.856 -3.99345 3.1528 0
M  V30 1548 H 150.254 -5.64054 0.431217 0
M  V30 1549 H 148.811 -6.45843 0.879205 0
M  V30 1550 N 152.244 -1.26651 -0.937939 0
M  V30 1551 C 153.66 -1.03834 -1.21205 0
M  V30 1552 C 153.86 0.234502 -2.00131 0
M  V30 1553 O 152.916 0.942767 -2.3424 0
M  V30 1554 C 154.229 -2.27167 -1.97017 0
M  V30 1555 C 155.777 -2.32101 -2.09996 0
M  V30 1556 C 156.252 -3.55136 -2.8921 0
M  V30 1557 N 157.743 -3.55632 -2.96783 0
M  V30 1558 C 158.478 -4.475 -3.58512 0
M  V30 1559 N 157.974 -5.4966 -4.21717 0
M  V30 1560 N 159.767 -4.35145 -3.55816 0
M  V30 1561 H 151.918 -2.08398 -0.410391 0
M  V30 1562 H 154.181 -0.916031 -0.244114 0
M  V30 1563 H 153.887 -3.19765 -1.46434 0
M  V30 1564 H 153.761 -2.31672 -2.97671 0
M  V30 1565 H 156.148 -1.40015 -2.59769 0
M  V30 1566 H 156.229 -2.31605 -1.08594 0
M  V30 1567 H 155.873 -4.47553 -2.40123 0
M  V30 1568 H 155.803 -3.5288 -3.90875 0
M  V30 1569 H 158.294 -2.81743 -2.51852 0
M  V30 1570 H 158.607 -6.15943 -4.66727 0
M  V30 1571 H 156.952 -5.53514 -4.20294 0
M  V30 1572 H 160.143 -3.5455 -3.05634 0
M  V30 1573 H 160.316 -5.06934 -4.03636 0
M  V30 1574 N 153.722 1.14298 -1.08507 0
M  V30 1575 C 154.669 2.19414 -0.715965 0
M  V30 1576 C 155.639 1.63399 0.298326 0
M  V30 1577 O 156.824 1.89929 0.182101 0
M  V30 1578 C 153.964 3.44845 -0.132534 0
M  V30 1579 C 153.077 4.15007 -1.19973 0
M  V30 1580 C 152.212 5.28024 -0.580048 0
M  V30 1581 C 151.251 5.9002 -1.62921 0
M  V30 1582 N 150.388 6.94485 -1.03125 0
M  V30 1583 H 155.228 2.50336 -1.61666 0
M  V30 1584 H 152.765 1.2293 -0.807882 0
M  V30 1585 H 154.723 4.16601 0.223454 0
M  V30 1586 H 153.353 3.14403 0.731467 0
M  V30 1587 H 152.405 3.41629 -1.67313 0
M  V30 1588 H 153.717 4.57178 -1.99473 0
M  V30 1589 H 152.871 6.06455 -0.172364 0
M  V30 1590 H 151.61 4.87076 0.246603 0
M  V30 1591 H 150.615 5.10291 -2.04654 0
M  V30 1592 H 151.84 6.33042 -2.45835 0
M  V30 1593 H 149.786 6.55612 -0.225711 0
M  V30 1594 H 149.703 7.35148 -1.76334 0
M  V30 1595 H 150.971 7.7679 -0.649458 0
M  V30 1596 N 155.201 0.870884 1.31352 0
M  V30 1597 C 156.447 0.482987 1.96965 0
M  V30 1598 C 156.78 -0.962462 1.68672 0
M  V30 1599 O 156.055 -1.6779 0.98371 0
M  V30 1600 C 156.338 0.741752 3.52378 0
M  V30 1601 C 156.191 2.2368 3.9024 0
M  V30 1602 C 157.51 0.208838 4.39604 0
M  V30 1603 H 154.629 0.176955 0.715441 0
M  V30 1604 H 157.271 1.09229 1.55464 0
M  V30 1605 H 155.421 0.223149 3.87859 0
M  V30 1606 H 157.093 2.82273 3.64856 0
M  V30 1607 H 155.336 2.70901 3.38814 0
M  V30 1608 H 156.007 2.3685 4.98604 0
M  V30 1609 H 158.483 0.652529 4.10952 0
M  V30 1610 H 157.359 0.419336 5.47296 0
M  V30 1611 H 157.62 -0.889275 4.33064 0
M  V30 1612 N 156.679 -1.44442 0.630414 0
M  V30 1613 C 157.642 -2.29107 -0.0652523 0
M  V30 1614 C 158.642 -1.41002 -0.772995 0
M  V30 1615 O 159.832 -1.62881 -0.617692 0
M  V30 1616 C 156.964 -3.22564 -1.10296 0
M  V30 1617 H 158.157 -2.92103 0.679401 0
M  V30 1618 H 155.71 -1.51343 0.390517 0
M  V30 1619 H 156.445 -2.64416 -1.87762 0
M  V30 1620 H 156.23 -3.87491 -0.59941 0
M  V30 1621 H 157.72 -3.86167 -1.5895 0
M  V30 1622 N 158.157 -0.370918 -1.53173 0
M  V30 1623 C 159.067 0.480823 -2.2962 0
M  V30 1624 C 160.083 1.08789 -1.35798 0
M  V30 1625 O 161.259 1.09768 -1.68858 0
M  V30 1626 C 158.324 1.60227 -3.07454 0
M  V30 1627 C 157.385 1.0222 -4.16953 0
M  V30 1628 C 156.618 2.0902 -4.91066 0
M  V30 1629 O 156.841 3.30222 -4.65091 0
M  V30 1630 O 155.775 1.71778 -5.76867 0
M  V30 1631 H 159.601 -0.141421 -3.03371 0
M  V30 1632 H 157.186 -0.135146 -1.48787 0
M  V30 1633 H 159.068 2.25417 -3.56041 0
M  V30 1634 H 157.743 2.20982 -2.36535 0
M  V30 1635 H 156.65 0.334064 -3.72605 0
M  V30 1636 H 157.983 0.459131 -4.90054 0
M  V30 1637 N 159.635 1.57281 -0.100228 0
M  V30 1638 C 160.565 2.17328 0.853857 0
M  V30 1639 C 161.546 1.10804 1.2906 0
M  V30 1640 O 162.731 1.38963 1.35657 0
M  V30 1641 C 159.861 2.75772 2.11109 0
M  V30 1642 C 158.815 3.87713 1.81279 0
M  V30 1643 C 158.141 4.32882 3.13874 0
M  V30 1644 C 159.441 5.10677 1.09574 0
M  V30 1645 H 161.135 2.97305 0.353545 0
M  V30 1646 H 158.681 1.43009 0.168612 0
M  V30 1647 H 160.634 3.16433 2.78296 0
M  V30 1648 H 159.358 1.93057 2.63432 0
M  V30 1649 H 158.017 3.476 1.16489 0
M  V30 1650 H 157.665 3.47051 3.64095 0
M  V30 1651 H 157.365 5.08358 2.94696 0
M  V30 1652 H 158.889 4.7618 3.82211 0
M  V30 1653 H 160.303 5.48474 1.66879 0
M  V30 1654 H 158.7 5.91615 1.00557 0
M  V30 1655 H 159.77 4.84835 0.0793299 0
M  V30 1656 N 161.113 -0.173488 1.56642 0
M  V30 1657 C 162.023 -1.23482 1.99473 0
M  V30 1658 C 163.039 -1.48567 0.905752 0
M  V30 1659 O 164.215 -1.60758 1.21321 0
M  V30 1660 C 161.28 -2.55444 2.34413 0
M  V30 1661 C 160.341 -2.38241 3.57127 0
M  V30 1662 C 159.574 -3.63909 3.90392 0
M  V30 1663 O 159.797 -4.68996 3.24653 0
M  V30 1664 O 158.731 -3.58149 4.83749 0
M  V30 1665 H 162.557 -0.901279 2.90018 0
M  V30 1666 H 160.142 -0.380185 1.44482 0
M  V30 1667 H 162.024 -3.33292 2.57865 0
M  V30 1668 H 160.699 -2.88382 1.4703 0
M  V30 1669 H 159.606 -1.58431 3.38896 0
M  V30 1670 H 160.939 -2.10228 4.45045 0
M  V30 1671 N 162.591 -1.51276 -0.441967 0
M  V30 1672 C 163.501 -1.75092 -1.56141 0
M  V30 1673 C 164.517 -0.634963 -1.62001 0
M  V30 1674 O 165.693 -0.916686 -1.79329 0
M  V30 1675 C 162.758 -1.86666 -2.92158 0
M  V30 1676 C 161.819 -3.10506 -2.96453 0
M  V30 1677 C 161.052 -3.21519 -4.25982 0
M  V30 1678 O 161.275 -2.38586 -5.18105 0
M  V30 1679 O 160.209 -4.14465 -4.36466 0
M  V30 1680 H 164.035 -2.70044 -1.38961 0
M  V30 1681 H 161.62 -1.35722 -0.624499 0
M  V30 1682 H 163.502 -1.96292 -3.72891 0
M  V30 1683 H 162.177 -0.949014 -3.09476 0
M  V30 1684 H 161.084 -3.06363 -2.14692 0
M  V30 1685 H 162.417 -4.01945 -2.84079 0
M  V30 1686 N 164.069 0.697108 -1.41344 0
M  V30 1687 C 164.979 1.84088 -1.45427 0
M  V30 1688 C 165.995 1.70545 -0.34501 0
M  V30 1689 O 167.171 1.92488 -0.592492 0
M  V30 1690 C 164.236 3.20056 -1.33286 0
M  V30 1691 C 163.297 3.45718 -2.54514 0
M  V30 1692 C 162.53 4.75199 -2.42944 0
M  V30 1693 O 162.753 5.51579 -1.45318 0
M  V30 1694 O 161.687 5.0161 -3.32672 0
M  V30 1695 H 165.513 1.836 -2.41919 0
M  V30 1696 H 163.098 0.849966 -1.22866 0
M  V30 1697 H 164.98 4.01236 -1.28794 0
M  V30 1698 H 163.655 3.2123 -0.39909 0
M  V30 1699 H 162.562 2.64474 -2.64583 0
M  V30 1700 H 163.895 3.49356 -3.46715 0
M  V30 1701 N 165.547 1.27147 0.931209 0
M  V30 1702 C 166.479 1.05364 2.03546 0
M  V30 1703 C 167.492 0.0108438 1.62796 0
M  V30 1704 O 168.681 0.25202 1.76712 0
M  V30 1705 C 165.781 0.575566 3.33977 0
M  V30 1706 C 164.954 1.68985 4.03439 0
M  V30 1707 C 164.013 1.20813 5.12143 0
M  V30 1708 O 163.039 1.90712 5.363 0
M  V30 1709 N 164.241 0.0618851 5.80467 0
M  V30 1710 H 167.006 2.00454 2.22796 0
M  V30 1711 H 164.567 1.18666 1.10136 0
M  V30 1712 H 166.559 0.237264 4.04004 0
M  V30 1713 H 165.129 -0.282016 3.11325 0
M  V30 1714 H 164.349 2.19861 3.27192 0
M  V30 1715 H 165.637 2.4378 4.46597 0
M  V30 1716 H 165.035 -0.521621 5.6329 0
M  V30 1717 H 163.592 -0.217264 6.51438 0
M  V30 1718 N 167.025 -1.13721 1.09112 0
M  V30 1719 C 168.25 -1.89314 0.847053 0
M  V30 1720 C 168.675 -1.78416 -0.595774 0
M  V30 1721 O 168.033 -1.12942 -1.41823 0
M  V30 1722 C 168.081 -3.3701 1.28284 0
M  V30 1723 O 167.185 -4.10054 0.439267 0
M  V30 1724 H 166.526 -0.588745 0.307044 0
M  V30 1725 H 169.056 -1.43902 1.45442 0
M  V30 1726 H 169.066 -3.87834 1.26683 0
M  V30 1727 H 167.741 -3.4426 2.33363 0
M  V30 1728 H 166.318 -3.69266 0.519312 0
M  V30 1729 N 168.503 -0.877838 -1.30888 0
M  V30 1730 C 169.435 -0.296607 -2.27273 0
M  V30 1731 C 170.448 0.544799 -1.53414 0
M  V30 1732 O 171.637 0.365511 -1.74718 0
M  V30 1733 C 168.737 0.597481 -3.33592 0
M  V30 1734 C 167.91 -0.213251 -4.3688 0
M  V30 1735 C 166.969 0.610208 -5.2265 0
M  V30 1736 O 165.995 0.035441 -5.69189 0
M  V30 1737 N 167.197 1.92071 -5.47804 0
M  V30 1738 H 169.962 -1.12492 -2.77787 0
M  V30 1739 H 167.523 -0.740105 -1.43993 0
M  V30 1740 H 169.515 1.15425 -3.87891 0
M  V30 1741 H 168.085 1.32647 -2.83061 0
M  V30 1742 H 167.305 -0.951466 -3.82545 0
M  V30 1743 H 168.593 -0.769262 -5.02951 0
M  V30 1744 H 167.991 2.4107 -5.11763 0
M  V30 1745 H 166.548 2.42508 -6.05007 0
M  V30 1746 N 169.982 1.44106 -0.638065 0
M  V30 1747 C 171.23 2.01579 -0.145043 0
M  V30 1748 C 171.551 1.50496 1.24 0
M  V30 1749 O 170.821 0.711374 1.82527 0
M  V30 1750 H 169.401 0.745282 -0.05063 0
M  V30 1751 H 172.063 1.76516 -0.826327 0
M  V30 1752 H 171.159 3.11877 -0.118039 0
M  V30 1753 N 171.46 0.379036 1.52974 0
M  V30 1754 C 172.685 -0.209353 2.06341 0
M  V30 1755 C 173.11 -1.40583 1.24972 0
M  V30 1756 O 172.468 -1.79246 0.272155 0
M  V30 1757 C 172.516 -0.567786 3.56102 0
M  V30 1758 O 171.62 -1.66318 3.77375 0
M  V30 1759 H 170.961 -0.0272919 0.663439 0
M  V30 1760 H 173.491 0.543536 1.97248 0
M  V30 1761 H 173.501 -0.835003 3.99364 0
M  V30 1762 H 172.176 0.307013 4.14765 0
M  V30 1763 H 170.753 -1.39048 3.46006 0
M  V30 1764 N 172.938 -1.57226 0.108567 0
M  V30 1765 C 174.163 -1.99604 -0.563303 0
M  V30 1766 C 174.588 -0.987563 -1.6009 0
M  V30 1767 O 173.946 0.0421687 -1.81251 0
M  V30 1768 C 173.994 -3.40902 -1.17552 0
M  V30 1769 O 173.098 -3.42896 -2.2912 0
M  V30 1770 H 172.439 -0.648704 -0.1417 0
M  V30 1771 H 174.969 -2.03679 0.193961 0
M  V30 1772 H 174.979 -3.78886 -1.51357 0
M  V30 1773 H 173.654 -4.1382 -0.415445 0
M  V30 1774 H 172.231 -3.1672 -1.96832 0
M  V30 1775 N 174.416 0.165178 -1.56732 0
M  V30 1776 C 175.641 0.900253 -1.86843 0
M  V30 1777 C 176.066 1.74766 -0.695596 0
M  V30 1778 O 175.424 1.77786 0.35522 0
M  V30 1779 C 175.472 1.74777 -3.15413 0
M  V30 1780 O 174.576 2.85007 -2.98068 0
M  V30 1781 H 173.917 0.251832 -0.614391 0
M  V30 1782 H 176.447 0.161468 -2.03962 0
M  V30 1783 H 176.457 2.14646 -3.46974 0
M  V30 1784 H 175.132 1.12537 -4.00385 0
M  V30 1785 H 173.709 2.48676 -2.77875 0
M  V30 1786 N 175.894 1.51508 0.433938 0
M  V30 1787 C 177.124 1.67914 1.20369 0
M  V30 1788 C 177.532 0.377461 1.85397 0
M  V30 1789 O 176.875 -0.654255 1.71654 0
M  V30 1790 C 176.937 2.74045 2.32679 0
M  V30 1791 C 176.601 4.16543 1.87991 0
M  V30 1792 C 177.598 5.01211 1.38145 0
M  V30 1793 C 175.283 4.6266 1.95579 0
M  V30 1794 C 177.277 6.30056 0.964774 0
M  V30 1795 C 174.964 5.91501 1.53523 0
M  V30 1796 C 175.962 6.75027 1.04055 0
M  V30 1797 O 175.65 8.01459 0.625964 0
M  V30 1798 H 175.382 0.566578 0.368735 0
M  V30 1799 H 177.936 1.98709 0.51999 0
M  V30 1800 H 176.166 2.38572 3.04336 0
M  V30 1801 H 177.855 2.79295 2.94532 0
M  V30 1802 H 178.621 4.66783 1.31675 0
M  V30 1803 H 174.5 3.97767 2.33029 0
M  V30 1804 H 178.044 6.95202 0.57796 0
M  V30 1805 H 173.941 6.25442 1.59665 0
M  V30 1806 H 174.709 8.15043 0.751509 0
M  V30 1807 N 177.372 -0.689602 1.41712 0
M  V30 1808 C 178.597 -1.48329 1.44959 0
M  V30 1809 C 179.022 -1.8801 0.0581283 0
M  V30 1810 O 178.38 -1.55026 -0.940035 0
M  V30 1811 C 178.428 -2.71835 2.36935 0
M  V30 1812 O 177.532 -3.69549 1.8305 0
M  V30 1813 H 176.873 -0.446199 0.491734 0
M  V30 1814 H 179.403 -0.847127 1.86239 0
M  V30 1815 H 179.413 -3.20076 2.53013 0
M  V30 1816 H 178.088 -2.42291 3.38035 0
M  V30 1817 H 176.665 -3.2851 1.76452 0
M  V30 1818 N 178.85 -1.27639 -0.924453 0
M  V30 1819 C 180.127 -1.04887 -1.651 0
M  V30 1820 C 180.507 0.415327 -2.06974 0
M  V30 1821 O 179.855 1.39923 -1.80648 0
M  V30 1822 C 180.065 -2.01348 -2.85061 0
M  V30 1823 C 181.413 -2.30899 -3.56329 0
M  V30 1824 O 182.437 -1.99348 -2.95193 0
M  V30 1825 O 181.296 -2.84699 -4.66485 0
M  V30 1826 H 178.39 -0.400083 -0.723784 0
M  V30 1827 H 180.936 -1.38916 -0.974703 0
M  V30 1828 H 179.708 -3.0008 -2.51133 0
M  V30 1829 H 179.331 -1.679 -3.6041 0
M  V30 1830 N 180.328 1.1314 -1.09713 0
M  V30 1831 C 181.574 1.84967 -0.846104 0
M  V30 1832 C 181.929 1.82082 0.621601 0
M  V30 1833 O 181.222 1.2501 1.452 0
M  V30 1834 C 181.416 3.32167 -1.3191 0
M  V30 1835 C 181.245 3.49386 -2.83125 0
M  V30 1836 C 180.015 3.63456 -3.51038 0
M  V30 1837 C 182.213 3.45179 -3.81256 0
M  V30 1838 N 180.195 3.68966 -4.9065 0
M  V30 1839 C 181.566 3.57094 -5.06837 0
M  V30 1840 C 183.621 3.28598 -3.74069 0
M  V30 1841 C 182.324 3.5414 -6.26081 0
M  V30 1842 C 184.35 3.26953 -4.92804 0
M  V30 1843 C 183.712 3.39422 -6.17229 0
M  V30 1844 H 179.811 0.692899 -0.362512 0
M  V30 1845 H 182.395 1.35506 -1.39808 0
M  V30 1846 H 180.566 3.80186 -0.794535 0
M  V30 1847 H 182.298 3.91815 -1.01308 0
M  V30 1848 H 179.053 3.65256 -3.01471 0
M  V30 1849 H 179.477 3.75404 -5.63383 0
M  V30 1850 H 184.119 3.17858 -2.78794 0
M  V30 1851 H 181.837 3.63653 -7.21653 0
M  V30 1852 H 185.423 3.15316 -4.88945 0
M  V30 1853 H 184.303 3.38114 -7.07565 0
M  V30 1854 N 181.806 0.884767 1.30421 0
M  V30 1855 C 183.052 0.503851 1.96441 0
M  V30 1856 C 183.385 -0.944518 1.69684 0
M  V30 1857 O 182.66 -1.66737 1.00145 0
M  V30 1858 C 182.943 0.779085 3.51571 0
M  V30 1859 C 182.796 2.27807 3.87846 0
M  V30 1860 C 184.115 0.255452 4.39358 0
M  V30 1861 H 181.234 0.184533 0.713524 0
M  V30 1862 H 183.876 1.10872 1.54297 0
M  V30 1863 H 182.026 0.264274 3.876 0
M  V30 1864 H 183.698 2.86127 3.61841 0
M  V30 1865 H 181.941 2.74479 3.35922 0
M  V30 1866 H 182.612 2.42125 4.96064 0
M  V30 1867 H 185.088 0.696079 4.10236 0
M  V30 1868 H 183.964 0.477361 5.4682 0
M  V30 1869 H 184.225 -0.843293 4.33983 0
M  V30 1870 N 183.284 -1.43765 0.645699 0
M  V30 1871 C 184.231 -2.30745 -0.0504648 0
M  V30 1872 C 185.201 -1.4432 -0.822241 0
M  V30 1873 O 186.386 -1.73202 -0.800358 0
M  V30 1874 C 183.526 -3.29802 -1.0161 0
M  V30 1875 C 182.639 -4.31326 -0.241219 0
M  V30 1876 C 181.774 -5.17469 -1.19998 0
M  V30 1877 C 180.813 -6.10691 -0.415094 0
M  V30 1878 N 179.95 -6.89483 -1.32506 0
M  V30 1879 H 184.79 -2.8973 0.697155 0
M  V30 1880 H 182.327 -1.42738 0.355563 0
M  V30 1881 H 184.285 -3.85734 -1.58949 0
M  V30 1882 H 182.915 -2.72483 -1.73069 0
M  V30 1883 H 181.967 -3.77749 0.448334 0
M  V30 1884 H 183.279 -4.9743 0.369437 0
M  V30 1885 H 182.433 -5.7799 -1.84424 0
M  V30 1886 H 181.172 -4.51473 -1.84455 0
M  V30 1887 H 180.177 -5.49265 0.242565 0
M  V30 1888 H 181.402 -6.78727 0.224966 0
M  V30 1889 H 179.348 -6.26142 -1.95657 0
M  V30 1890 H 179.265 -7.52081 -0.768783 0
M  V30 1891 H 180.533 -7.54516 -1.9577 0
M  V30 1892 N 184.763 -0.387143 -1.52771 0
M  V30 1893 C 185.711 0.463953 -2.27926 0
M  V30 1894 C 186.705 1.06493 -1.31741 0
M  V30 1895 O 187.911 1.00565 -1.49287 0
M  V30 1896 H 184.286 0.16837 -0.732909 0
M  V30 1897 H 186.257 -0.19141 -2.97785 0
M  V30 1898 C 185.006 1.5803 -3.09713 0
M  V30 1899 H 184.329 1.12718 -3.83581 0
M  V30 1900 H 185.769 2.15008 -3.65442 0
M  V30 1901 C 184.228 2.53509 -2.2189 0
M  V30 1902 O 184.758 3.56863 -1.84422 0
M  V30 1903 N 182.964 2.23199 -1.86093 0
M  V30 1904 H 182.511 1.39185 -2.16761 0
M  V30 1905 H 182.469 2.87333 -1.27621 0
M  V30 1906 N 186.241 1.57166 -0.116904 0
M  V30 1907 C 187.171 2.18222 0.830759 0
M  V30 1908 C 188.152 1.12167 1.27877 0
M  V30 1909 O 189.337 1.40394 1.34176 0
M  V30 1910 C 186.467 2.77996 2.08172 0
M  V30 1911 C 185.421 3.89614 1.77157 0
M  V30 1912 C 184.747 4.36187 3.09265 0
M  V30 1913 C 186.047 5.1181 1.04151 0
M  V30 1914 H 187.741 2.97664 0.321992 0
M  V30 1915 H 185.287 1.4318 0.153434 0
M  V30 1916 H 187.24 3.19366 2.74924 0
M  V30 1917 H 185.964 1.9584 2.6137 0
M  V30 1918 H 184.623 3.48816 1.12796 0
M  V30 1919 H 184.271 3.50893 3.60393 0
M  V30 1920 H 183.971 5.11455 2.89288 0
M  V30 1921 H 185.495 4.80207 3.77139 0
M  V30 1922 H 186.909 5.50214 1.61052 0
M  V30 1923 H 185.306 5.92648 0.942762 0
M  V30 1924 H 186.376 4.84892 0.0279022 0
M  V30 1925 N 187.719 -0.156864 1.56817 0
M  V30 1926 C 188.968 -0.869504 1.81996 0
M  V30 1927 C 189.281 -1.82777 0.696545 0
M  V30 1928 O 190.487 -2.58384 0.833658 0
M  V30 1929 C 188.943 -1.59679 3.22538 0
M  V30 1930 C 188.551 -0.681431 4.42787 0
M  V30 1931 C 190.295 -2.2968 3.56997 0
M  V30 1932 C 188.202 -1.40978 5.74351 0
M  V30 1933 H 187.132 -0.328438 0.678708 0
M  V30 1934 H 189.783 -0.1223 1.83092 0
M  V30 1935 H 188.165 -2.38927 3.158 0
M  V30 1936 H 189.339 0.0751166 4.60739 0
M  V30 1937 H 187.654 -0.0903431 4.16302 0
M  V30 1938 H 190.251 -2.84794 4.52544 0
M  V30 1939 H 190.594 -3.05707 2.82576 0
M  V30 1940 H 191.127 -1.57361 3.65352 0
M  V30 1941 H 187.866 -0.691561 6.51842 0
M  V30 1942 H 187.386 -2.13929 5.60352 0
M  V30 1943 H 189.065 -1.95337 6.16808 0
M  V30 1944 N 189.197 -1.51736 -0.425897 0
M  V30 1945 C 190.422 -1.69082 -1.20108 0
M  V30 1946 C 190.847 -0.392398 -1.83962 0
M  V30 1947 O 190.205 0.64858 -1.69302 0
M  V30 1948 C 190.253 -2.81604 -2.25237 0
M  V30 1949 O 189.357 -2.46004 -3.30992 0
M  V30 1950 H 188.698 -0.563408 -0.35138 0
M  V30 1951 H 191.228 -1.98358 -0.501512 0
M  V30 1952 H 191.238 -3.06025 -2.69838 0
M  V30 1953 H 189.913 -3.75817 -1.78142 0
M  V30 1954 H 188.49 -2.32195 -2.91787 0
M  V30 1955 N 190.675 0.682077 -1.42076 0
M  V30 1956 C 192.086 1.26246 -1.37546 0
M  V30 1957 C 192.437 1.96092 -0.0651481 0
M  V30 1958 O 191.562 1.99587 0.836297 0
M  V30 1959 C 192.157 2.29594 -2.49143 0
M  V30 1960 C 190.716 2.83175 -2.47969 0
M  V30 1961 C 189.863 1.57395 -2.28303 0
M  V30 1962 H 192.814 0.475937 -1.51395 0
M  V30 1963 H 192.835 3.11175 -2.18976 0
M  V30 1964 H 192.347 1.78729 -3.44496 0
M  V30 1965 H 190.448 3.3818 -1.56413 0
M  V30 1966 H 190.561 3.32687 -3.44755 0
M  V30 1967 H 188.925 1.83699 -1.76428 0
M  V30 1968 H 189.708 1.08507 -3.25701 0
M  V30 1969 N 192.153 1.28127 0.917671 0
M  V30 1970 C 193.063 1.13556 2.05286 0
M  V30 1971 C 194.079 0.0630914 1.73886 0
M  V30 1972 O 195.255 0.271598 1.9956 0
M  V30 1973 C 192.32 0.794676 3.3747 0
M  V30 1974 C 191.381 1.94909 3.82504 0
M  V30 1975 C 190.614 1.62437 5.0838 0
M  V30 1976 O 190.837 0.536905 5.67867 0
M  V30 1977 O 189.771 2.46677 5.4903 0
M  V30 1978 H 193.597 2.08844 2.20495 0
M  V30 1979 H 191.182 1.07409 1.03845 0
M  V30 1980 H 193.064 0.618344 4.16839 0
M  V30 1981 H 191.739 -0.128581 3.23445 0
M  V30 1982 H 190.646 2.18055 3.03978 0
M  V30 1983 H 191.979 2.85291 4.01086 0
M  V30 1984 N 193.631 -1.12557 1.10312 0
M  V30 1985 C 194.561 -2.20341 0.772798 0
M  V30 1986 C 195.542 -1.68198 -0.25365 0
M  V30 1987 O 196.727 -1.93831 -0.119699 0
M  V30 1988 C 193.857 -3.46709 0.202443 0
M  V30 1989 C 192.811 -4.11996 1.15943 0
M  V30 1990 C 192.137 -5.328 0.450345 0
M  V30 1991 C 193.437 -4.5828 2.50552 0
M  V30 1992 H 195.131 -2.48229 1.674 0
M  V30 1993 H 192.677 -1.19308 0.806326 0
M  V30 1994 H 194.63 -4.2138 -0.0407752 0
M  V30 1995 H 193.354 -3.18245 -0.734001 0
M  V30 1996 H 192.013 -3.39305 1.38808 0
M  V30 1997 H 191.661 -5.00602 -0.490531 0
M  V30 1998 H 191.361 -5.7743 1.08851 0
M  V30 1999 H 192.885 -6.10219 0.215642 0
M  V30 2000 H 194.299 -5.2433 2.31843 0
M  V30 2001 H 192.696 -5.13683 3.10242 0
M  V30 2002 H 193.766 -3.72329 3.10643 0
M  V30 2003 N 195.109 -0.891671 -1.2995 0
M  V30 2004 C 196.357 -0.512486 -1.95494 0
M  V30 2005 C 196.678 0.942776 -1.70695 0
M  V30 2006 O 195.948 1.66374 -1.03424 0
M  V30 2007 H 194.528 -0.186533 -0.723336 0
M  V30 2008 H 197.19 -1.13621 -1.58355 0
M  V30 2009 H 196.286 -0.688342 -3.04415 0
M  V30 2010 N 196.587 1.43421 -0.653314 0
M  V30 2011 C 197.833 2.02111 -0.166992 0
M  V30 2012 C 198.166 1.51423 1.21592 0
M  V30 2013 O 197.441 0.707389 1.8118 0
M  V30 2014 C 197.724 3.5966 -0.177948 0
M  V30 2015 C 197.577 4.20579 -1.59478 0
M  V30 2016 C 198.896 4.37413 0.4856 0
M  V30 2017 H 196.015 0.734374 -0.0621557 0
M  V30 2018 H 198.657 1.70717 -0.834016 0
M  V30 2019 H 196.807 3.86537 0.390032 0
M  V30 2020 H 198.479 4.04732 -2.21336 0
M  V30 2021 H 196.722 3.77226 -2.14204 0
M  V30 2022 H 197.393 5.29665 -1.5543 0
M  V30 2023 H 199.869 4.161 0.00234528 0
M  V30 2024 H 198.745 5.47075 0.447207 0
M  V30 2025 H 199.006 4.13672 1.55974 0
M  V30 2026 N 198.065 0.39524 1.52563 0
M  V30 2027 C 199.311 -0.185318 2.01952 0
M  V30 2028 C 199.644 -1.45964 1.28095 0
M  V30 2029 O 198.919 -1.90689 0.38315 0
M  V30 2030 C 199.202 -0.447193 3.57312 0
M  V30 2031 C 199.055 0.842828 4.41833 0
M  V30 2032 C 200.374 -1.23529 4.22408 0
M  V30 2033 H 197.493 -0.0658788 0.73405 0
M  V30 2034 H 200.135 0.525975 1.82575 0
M  V30 2035 H 198.285 -1.05312 3.73954 0
M  V30 2036 H 199.957 1.4795 4.36931 0
M  V30 2037 H 198.2 1.45686 4.08605 0
M  V30 2038 H 198.871 0.614165 5.48573 0
M  V30 2039 H 201.347 -0.722445 4.0978 0
M  V30 2040 H 200.223 -1.38727 5.3108 0
M  V30 2041 H 200.484 -2.25213 3.80436 0
M  V30 2042 N 199.544 -1.57102 0.125237 0
M  V30 2043 C 200.791 -1.95407 -0.531248 0
M  V30 2044 C 201.119 -1.0089 -1.66287 0
M  V30 2045 O 200.374 -0.0339431 -1.95671 0
M  V30 2046 C 200.673 -3.40096 -1.09862 0
M  V30 2047 C 200.339 -4.50815 -0.0876989 0
M  V30 2048 C 199.001 -4.80824 0.19026 0
M  V30 2049 C 201.353 -5.17724 0.600902 0
M  V30 2050 C 198.681 -5.75058 1.163 0
M  V30 2051 C 201.033 -6.13005 1.56231 0
M  V30 2052 C 199.697 -6.41403 1.8482 0
M  V30 2053 H 198.967 -0.715046 -0.194397 0
M  V30 2054 H 201.614 -1.90373 0.207463 0
M  V30 2055 H 199.919 -3.41855 -1.91422 0
M  V30 2056 H 201.616 -3.6705 -1.61478 0
M  V30 2057 H 198.206 -4.27444 -0.314528 0
M  V30 2058 H 202.39 -4.94691 0.399333 0
M  V30 2059 H 197.646 -5.95362 1.39117 0
M  V30 2060 H 201.82 -6.63934 2.10153 0
M  V30 2061 H 199.447 -7.14229 2.60349 0
M  V30 2062 N 201.022 0.148545 -1.56898 0
M  V30 2063 C 202.269 0.861418 -1.83264 0
M  V30 2064 C 202.597 1.81239 -0.705883 0
M  V30 2065 O 201.852 1.93305 0.305212 0
M  V30 2066 C 202.151 1.67064 -3.1595 0
M  V30 2067 C 201.817 0.866591 -4.42494 0
M  V30 2068 C 200.479 0.644762 -4.76861 0
M  V30 2069 C 202.831 0.30418 -5.20312 0
M  V30 2070 C 200.159 -0.15021 -5.86508 0
M  V30 2071 C 202.511 -0.477824 -6.30793 0
M  V30 2072 C 201.175 -0.710244 -6.63711 0
M  V30 2073 H 200.445 0.315215 -0.670612 0
M  V30 2074 H 203.092 0.125142 -1.91091 0
M  V30 2075 H 201.397 2.47698 -3.03567 0
M  V30 2076 H 203.094 2.22566 -3.33565 0
M  V30 2077 H 199.684 1.04955 -4.15551 0
M  V30 2078 H 203.868 0.462844 -4.94137 0
M  V30 2079 H 199.124 -0.339796 -6.10455 0
M  V30 2080 H 203.298 -0.92076 -6.90286 0
M  V30 2081 H 200.925 -1.3281 -7.48509 0
M  V30 2082 N 202.5 1.5196 0.417844 0
M  V30 2083 C 203.448 1.75278 1.52907 0
M  V30 2084 C 204.442 0.619611 1.57662 0
M  V30 2085 O 205.648 0.801457 1.61173 0
M  V30 2086 H 202.023 0.554141 0.508362 0
M  V30 2087 H 203.994 2.68389 1.30422 0
M  V30 2088 C 202.743 1.91262 2.90369 0
M  V30 2089 H 202.066 2.77872 2.8745 0
M  V30 2090 H 203.506 2.11581 3.67436 0
M  V30 2091 C 201.965 0.677431 3.30019 0
M  V30 2092 O 202.495 -0.158799 4.01386 0
M  V30 2093 N 200.701 0.515851 2.85985 0
M  V30 2094 H 200.248 1.19744 2.28077 0
M  V30 2095 H 200.206 -0.309315 3.12875 0
M  V30 2096 N 203.978 -0.674533 1.42435 0
M  V30 2097 C 205.224 -1.43671 1.43131 0
M  V30 2098 C 205.557 -1.94142 0.0476021 0
M  V30 2099 O 204.832 -1.70924 -0.928188 0
M  V30 2100 C 205.115 -2.63355 2.45594 0
M  V30 2101 C 204.968 -2.18514 3.93156 0
M  V30 2102 C 206.287 -3.65571 2.45043 0
M  V30 2103 H 203.406 -0.521077 0.521198 0
M  V30 2104 H 206.048 -0.766551 1.7385 0
M  V30 2105 H 204.198 -3.2053 2.19528 0
M  V30 2106 H 205.87 -1.66504 4.30202 0
M  V30 2107 H 204.113 -1.50086 4.07009 0
M  V30 2108 H 204.784 -3.04484 4.60428 0
M  V30 2109 H 207.26 -3.18113 2.68223 0
M  V30 2110 H 206.136 -4.46893 3.18713 0
M  V30 2111 H 206.397 -4.16716 1.47649 0
M  V30 2112 N 205.456 -1.28612 -0.910864 0
M  V30 2113 C 206.867 -1.14406 -1.47541 0
M  V30 2114 C 207.218 0.264901 -1.94403 0
M  V30 2115 O 206.343 1.15942 -1.82719 0
M  V30 2116 C 206.938 -2.07073 -2.68153 0
M  V30 2117 C 205.497 -1.96923 -3.20778 0
M  V30 2118 C 204.644 -1.98646 -1.93481 0
M  V30 2119 H 207.595 -1.41259 -0.723291 0
M  V30 2120 H 207.616 -1.63642 -3.43514 0
M  V30 2121 H 207.128 -3.09611 -2.34015 0
M  V30 2122 H 205.229 -0.97433 -3.59635 0
M  V30 2123 H 205.342 -2.84026 -3.85832 0
M  V30 2124 H 203.706 -1.43093 -2.10705 0
M  V30 2125 H 204.489 -3.02868 -1.61634 0
M  V30 2126 N 206.934 1.1197 -1.10907 0
M  V30 2127 C 207.844 2.21433 -0.774896 0
M  V30 2128 C 208.86 1.72478 0.229657 0
M  V30 2129 O 210.036 2.01288 0.0672008 0
M  V30 2130 C 207.101 3.4602 -0.216986 0
M  V30 2131 C 206.162 4.09791 -1.27944 0
M  V30 2132 C 205.395 5.28431 -0.748055 0
M  V30 2133 O 205.618 5.68823 0.423833 0
M  V30 2134 O 204.552 5.82644 -1.51027 0
M  V30 2135 H 208.378 2.5242 -1.68873 0
M  V30 2136 H 205.963 1.20399 -0.884555 0
M  V30 2137 H 207.845 4.21304 0.090059 0
M  V30 2138 H 206.52 3.16698 0.669633 0
M  V30 2139 H 205.427 3.36265 -1.63941 0
M  V30 2140 H 206.76 4.4328 -2.13925 0
M  V30 2141 N 208.412 0.89855 1.29475 0
M  V30 2142 C 209.359 0.373819 2.27753 0
M  V30 2143 C 210.329 -0.543444 1.56958 0
M  V30 2144 O 211.514 -0.468934 1.84948 0
M  V30 2145 C 208.654 -0.393648 3.42848 0
M  V30 2146 C 207.767 0.554379 4.28428 0
M  V30 2147 C 206.902 -0.230026 5.30702 0
M  V30 2148 C 205.941 0.712599 6.07938 0
M  V30 2149 N 205.078 -0.0373283 7.0209 0
M  V30 2150 H 209.918 1.21699 2.72017 0
M  V30 2151 H 207.455 0.611456 1.33789 0
M  V30 2152 H 209.413 -0.85466 4.08352 0
M  V30 2153 H 208.043 -1.20128 2.99615 0
M  V30 2154 H 207.095 1.13391 3.63107 0
M  V30 2155 H 208.407 1.27597 4.82204 0
M  V30 2156 H 207.561 -0.752288 6.02018 0
M  V30 2157 H 206.3 -0.984758 4.77654 0
M  V30 2158 H 205.305 1.24637 5.35486 0
M  V30 2159 H 206.53 1.46664 6.63074 0
M  V30 2160 H 204.476 -0.774348 6.51414 0
M  V30 2161 H 204.393 0.624374 7.53417 0
M  V30 2162 H 205.661 -0.539891 7.77628 0
M  V30 2163 N 209.89 -1.43072 0.660911 0
M  V30 2164 C 210.82 -2.33497 -0.0122829 0
M  V30 2165 C 211.801 -1.49903 -0.803925 0
M  V30 2166 O 212.986 -1.78546 -0.763864 0
M  V30 2167 C 210.116 -3.33363 -0.973994 0
M  V30 2168 C 209.07 -4.27003 -0.291928 0
M  V30 2169 C 208.396 -5.16967 -1.36562 0
M  V30 2170 C 209.696 -5.15816 0.820462 0
M  V30 2171 H 211.39 -2.90038 0.742873 0
M  V30 2172 H 208.936 -1.39461 0.358688 0
M  V30 2173 H 210.889 -3.95524 -1.45392 0
M  V30 2174 H 209.613 -2.75095 -1.7604 0
M  V30 2175 H 208.272 -3.66217 0.167623 0
M  V30 2176 H 207.92 -4.55034 -2.14366 0
M  V30 2177 H 207.62 -5.80441 -0.914454 0
M  V30 2178 H 209.144 -5.82003 -1.84675 0
M  V30 2179 H 210.558 -5.71742 0.422366 0
M  V30 2180 H 208.955 -5.8805 1.19656 0
M  V30 2181 H 210.025 -4.55045 1.67518 0
M  V30 2182 N 211.368 -0.403325 -1.52352 0
M  V30 2183 C 212.784 -0.0539281 -1.59509 0
M  V30 2184 C 212.984 1.43307 -1.41652 0
M  V30 2185 O 212.04 2.19924 -1.24056 0
M  V30 2186 C 213.353 -0.543654 -2.95745 0
M  V30 2187 C 214.901 -0.501125 -3.08962 0
M  V30 2188 C 215.376 -0.967267 -4.47669 0
M  V30 2189 N 216.867 -0.923849 -4.53893 0
M  V30 2190 C 217.602 -1.25578 -5.5948 0
M  V30 2191 N 217.098 -1.65889 -6.72646 0
M  V30 2192 N 218.891 -1.17613 -5.49658 0
M  V30 2193 H 211.042 -1.37123 -1.62206 0
M  V30 2194 H 213.305 -0.56294 -0.76276 0
M  V30 2195 H 213.011 -1.58275 -3.14073 0
M  V30 2196 H 212.885 0.0498042 -3.77167 0
M  V30 2197 H 215.272 0.528909 -2.90321 0
M  V30 2198 H 215.353 -1.13056 -2.2946 0
M  V30 2199 H 214.997 -1.9956 -4.67053 0
M  V30 2200 H 214.927 -0.314698 -5.25659 0
M  V30 2201 H 217.418 -0.627403 -3.72655 0
M  V30 2202 H 217.731 -1.89543 -7.49195 0
M  V30 2203 H 216.076 -1.69787 -6.73942 0
M  V30 2204 H 219.267 -0.860115 -4.6013 0
M  V30 2205 H 219.44 -1.43812 -6.3184 0
M  V30 2206 N 212.846 1.57033 -0.133567 0
M  V30 2207 C 213.776 2.1909 0.807567 0
M  V30 2208 C 214.757 1.13517 1.26681 0
M  V30 2209 O 215.942 1.41809 1.32679 0
M  V30 2210 C 213.072 2.80188 2.05212 0
M  V30 2211 C 212.026 3.91471 1.73015 0
M  V30 2212 C 211.352 4.39443 3.04622 0
M  V30 2213 C 212.652 5.12886 0.987168 0
M  V30 2214 H 214.346 2.97988 0.290403 0
M  V30 2215 H 211.892 1.43335 0.138239 0
M  V30 2216 H 213.845 3.22264 2.71521 0
M  V30 2217 H 212.569 1.98601 2.59278 0
M  V30 2218 H 211.228 3.49993 1.0909 0
M  V30 2219 H 210.876 3.54695 3.56651 0
M  V30 2220 H 210.576 5.14495 2.83847 0
M  V30 2221 H 212.1 4.8418 3.72024 0
M  V30 2222 H 213.514 5.51891 1.55208 0
M  V30 2223 H 211.911 5.93615 0.87985 0
M  V30 2224 H 212.981 4.84894 -0.0235286 0
M  V30 2225 N 214.325 -0.140222 1.56975 0
M  V30 2226 C 215.736 -0.699596 1.73097 0
M  V30 2227 C 216.087 -1.8134 0.749022 0
M  V30 2228 O 215.212 -2.16241 -0.0828503 0
M  V30 2229 C 215.807 -1.27582 3.1386 0
M  V30 2230 C 214.366 -1.78169 3.31561 0
M  V30 2231 C 213.513 -0.672855 2.69013 0
M  V30 2232 H 216.464 0.0855115 1.58469 0
M  V30 2233 H 216.485 -2.14561 3.14235 0
M  V30 2234 H 215.997 -0.464955 3.85305 0
M  V30 2235 H 214.098 -2.61801 2.65124 0
M  V30 2236 H 214.211 -1.90574 4.39566 0
M  V30 2237 H 212.575 -1.10118 2.29665 0
M  V30 2238 H 213.358 0.126679 3.43066 0
M  V30 2239 N 215.803 -1.52179 -0.40978 0
M  V30 2240 C 217.08 -1.56769 -1.16974 0
M  V30 2241 C 217.46 -0.348322 -2.08206 0
M  V30 2242 O 216.808 0.664862 -2.18613 0
M  V30 2243 C 217.018 -2.89603 -1.9476 0
M  V30 2244 C 218.366 -3.42579 -2.50849 0
M  V30 2245 O 219.39 -2.91338 -2.04941 0
M  V30 2246 O 218.249 -4.32054 -3.34652 0
M  V30 2247 H 215.343 -0.631439 -0.534054 0
M  V30 2248 H 217.889 -1.64507 -0.416613 0
M  V30 2249 H 216.661 -3.698 -1.27921 0
M  V30 2250 H 216.284 -2.85155 -2.77079 0
M  V30 2251 N 217.281 0.66697 -1.42791 0
M  V30 2252 C 218.244 1.76211 -1.46568 0
M  V30 2253 C 219.244 1.56896 -0.352196 0
M  V30 2254 O 220.434 1.63044 -0.613364 0
M  V30 2255 C 217.566 3.14935 -1.30494 0
M  V30 2256 H 218.759 1.74247 -2.44086 0
M  V30 2257 H 216.312 0.877342 -1.29354 0
M  V30 2258 H 217.047 3.2252 -0.339301 0
M  V30 2259 H 216.832 3.30359 -2.11199 0
M  V30 2260 H 218.322 3.94821 -1.36038 0
M  V30 2261 N 218.759 1.29093 0.90403 0
M  V30 2262 C 219.984 1.19809 1.69294 0
M  V30 2263 C 220.409 -0.238481 1.86582 0
M  V30 2264 O 219.767 -1.1723 1.383 0
M  V30 2265 C 219.815 1.91202 3.05736 0
M  V30 2266 O 218.919 1.22611 3.93752 0
M  V30 2267 H 218.26 0.415385 0.518027 0
M  V30 2268 H 220.79 1.70586 1.12967 0
M  V30 2269 H 220.8 1.99487 3.55906 0
M  V30 2270 H 219.475 2.95692 2.92471 0
M  V30 2271 H 218.052 1.22554 3.52186 0
M  V30 2272 N 220.237 -1.11381 1.11499 0
M  V30 2273 C 221.653 -1.35143 0.849031 0
M  V30 2274 C 221.853 -1.94515 -0.525938 0
M  V30 2275 O 220.909 -2.1785 -1.27662 0
M  V30 2276 C 222.222 -2.28249 1.95762 0
M  V30 2277 C 223.77 -2.41812 1.98736 0
M  V30 2278 C 224.245 -3.3824 3.088 0
M  V30 2279 N 225.736 -3.45803 3.08179 0
M  V30 2280 C 226.471 -4.20358 3.89982 0
M  V30 2281 N 225.967 -4.97884 4.8175 0
M  V30 2282 N 227.76 -4.15877 3.78157 0
M  V30 2283 H 219.911 -0.712062 2.00109 0
M  V30 2284 H 222.174 -0.376025 0.870235 0
M  V30 2285 H 221.88 -1.91817 2.94787 0
M  V30 2286 H 221.754 -3.28473 1.85433 0
M  V30 2287 H 224.141 -2.77518 1.00338 0
M  V30 2288 H 224.222 -1.41437 2.13141 0
M  V30 2289 H 223.866 -3.03261 4.07425 0
M  V30 2290 H 223.796 -4.38471 2.91635 0
M  V30 2291 H 226.287 -2.90506 2.41691 0
M  V30 2292 H 226.6 -5.52142 5.40702 0
M  V30 2293 H 224.945 -4.97043 4.85771 0
M  V30 2294 H 228.136 -3.544 3.05808 0
M  V30 2295 H 228.309 -4.73723 4.42143 0
M  V30 2296 N 221.715 -0.905404 -1.28997 0
M  V30 2297 C 222.662 -0.385892 -2.27551 0
M  V30 2298 C 223.632 0.535113 -1.57244 0
M  V30 2299 O 224.817 0.459119 -1.85194 0
M  V30 2300 C 221.957 0.375461 -3.43051 0
M  V30 2301 C 221.07 -0.577092 -4.28128 0
M  V30 2302 C 220.205 0.201879 -5.30816 0
M  V30 2303 C 219.244 -0.744829 -6.07551 0
M  V30 2304 N 218.381 9.42587e-05 -7.021 0
M  V30 2305 H 223.221 -1.23139 -2.71368 0
M  V30 2306 H 220.758 -0.618542 -1.33463 0
M  V30 2307 H 222.716 0.832992 -4.088 0
M  V30 2308 H 221.346 1.18537 -3.00248 0
M  V30 2309 H 220.398 -1.15315 -3.62501 0
M  V30 2310 H 221.71 -1.30152 -4.8152 0
M  V30 2311 H 220.864 0.720351 -6.02408 0
M  V30 2312 H 219.603 0.959413 -4.7817 0
M  V30 2313 H 218.608 -1.27475 -5.34818 0
M  V30 2314 H 219.833 -1.50178 -6.62286 0
M  V30 2315 H 217.779 0.739791 -6.51815 0
M  V30 2316 H 217.696 -0.664321 -7.53076 0
M  V30 2317 H 218.964 0.498644 -7.77903 0
M  V30 2318 N 223.193 1.4272 -0.668489 0
M  V30 2319 C 224.156 2.292 0.00448567 0
M  V30 2320 C 225.156 1.43001 0.735339 0
M  V30 2321 O 226.346 1.64461 0.57429 0
M  V30 2322 C 223.478 3.25375 1.01705 0
M  V30 2323 H 224.671 2.90199 -0.756608 0
M  V30 2324 H 222.224 1.50254 -0.430506 0
M  V30 2325 H 222.959 2.69301 1.80686 0
M  V30 2326 H 222.744 3.88944 0.496463 0
M  V30 2327 H 224.234 3.90245 1.48655 0
M  V30 2328 N 224.671 0.411399 1.52136 0
M  V30 2329 C 225.618 -0.412975 2.27075 0
M  V30 2330 C 226.588 -1.03912 1.29582 0
M  V30 2331 O 227.773 -1.06296 1.58448 0
M  V30 2332 C 224.913 -1.52247 3.09701 0
M  V30 2333 C 224.026 -0.917021 4.22155 0
M  V30 2334 C 223.161 -1.9994 4.92135 0
M  V30 2335 C 222.2 -1.37101 5.96548 0
M  V30 2336 N 221.337 -2.39364 6.60038 0
M  V30 2337 H 226.177 0.232499 2.97092 0
M  V30 2338 H 223.714 0.126496 1.46555 0
M  V30 2339 H 225.672 -2.17674 3.55913 0
M  V30 2340 H 224.302 -2.13794 2.41851 0
M  V30 2341 H 223.354 -0.151742 3.80097 0
M  V30 2342 H 224.666 -0.418006 4.97045 0
M  V30 2343 H 223.82 -2.73088 5.41763 0
M  V30 2344 H 222.559 -2.53208 4.16818 0
M  V30 2345 H 221.564 -0.624873 5.46237 0
M  V30 2346 H 222.789 -0.845998 6.7381 0
M  V30 2347 H 220.735 -2.91759 5.87548 0
M  V30 2348 H 220.652 -1.9428 7.3061 0
M  V30 2349 H 221.92 -3.12074 7.14304 0
M  V30 2350 N 226.149 -1.5696 0.141893 0
M  V30 2351 C 227.565 -1.58151 -0.21456 0
M  V30 2352 C 227.765 -1.1559 -1.65049 0
M  V30 2353 O 226.821 -0.853832 -2.37626 0
M  V30 2354 C 228.134 -3.00674 0.0395576 0
M  V30 2355 C 229.682 -3.1299 -0.0245529 0
M  V30 2356 C 230.157 -4.57554 0.202167 0
M  V30 2357 N 231.648 -4.62961 0.148919 0
M  V30 2358 C 232.383 -5.7262 0.298924 0
M  V30 2359 N 231.879 -6.90947 0.50637 0
M  V30 2360 N 233.672 -5.61601 0.236886 0
M  V30 2361 H 225.823 -1.8292 1.07953 0
M  V30 2362 H 228.086 -0.846425 0.42693 0
M  V30 2363 H 227.792 -3.36183 1.03315 0
M  V30 2364 H 227.666 -3.70981 -0.682143 0
M  V30 2365 H 230.053 -2.77326 -1.00869 0
M  V30 2366 H 230.134 -2.4518 0.729396 0
M  V30 2367 H 229.778 -4.93922 1.18338 0
M  V30 2368 H 229.708 -5.23484 -0.572044 0
M  V30 2369 H 232.199 -3.77899 -0.00697015 0
M  V30 2370 H 232.512 -7.7038 0.611076 0
M  V30 2371 H 230.857 -6.92878 0.542628 0
M  V30 2372 H 234.048 -4.68039 0.0756209 0
M  V30 2373 H 234.221 -6.47015 0.357227 0
M  V30 2374 N 227.627 0.131896 -1.57047 0
M  V30 2375 C 228.852 0.860418 -1.8871 0
M  V30 2376 C 229.277 1.73251 -0.73251 0
M  V30 2377 O 228.635 1.785 0.317429 0
M  V30 2378 C 228.683 1.68047 -3.19049 0
M  V30 2379 O 227.787 2.7862 -3.04047 0
M  V30 2380 H 227.128 0.238743 -0.619595 0
M  V30 2381 H 229.658 0.118169 -2.04258 0
M  V30 2382 H 229.668 2.07238 -3.51449 0
M  V30 2383 H 228.343 1.04018 -4.02682 0
M  V30 2384 H 226.92 2.42726 -2.83088 0
M  V30 2385 N 229.106 1.52395 0.401703 0
M  V30 2386 C 230.355 1.66044 1.14509 0
M  V30 2387 C 230.668 0.400216 1.91462 0
M  V30 2388 O 231.874 0.416632 2.68284 0
M  V30 2389 C 230.33 2.93388 2.0845 0
M  V30 2390 C 229.938 4.26545 1.36978 0
M  V30 2391 C 231.682 3.16402 2.83001 0
M  V30 2392 C 229.589 5.45007 2.29611 0
M  V30 2393 H 228.519 0.618562 0.431158 0
M  V30 2394 H 231.17 1.78886 0.40892 0
M  V30 2395 H 229.552 2.74263 2.8565 0
M  V30 2396 H 230.726 4.56179 0.650916 0
M  V30 2397 H 229.041 4.09692 0.74438 0
M  V30 2398 H 231.638 4.02085 3.52465 0
M  V30 2399 H 231.981 2.30943 3.46368 0
M  V30 2400 H 232.514 3.36034 2.12898 0
M  V30 2401 H 229.253 6.32835 1.70879 0
M  V30 2402 H 228.773 5.19702 2.9945 0
M  V30 2403 H 230.452 5.7838 2.89974 0
M  V30 2404 N 230.584 -0.659388 1.43143 0
M  V30 2405 C 231.494 -1.80167 1.50256 0
M  V30 2406 C 232.51 -1.69571 0.390106 0
M  V30 2407 O 233.686 -1.90849 0.643319 0
M  V30 2408 C 230.751 -3.16409 1.41725 0
M  V30 2409 C 229.812 -3.38848 2.63591 0
M  V30 2410 C 229.045 -4.68591 2.55458 0
M  V30 2411 O 229.268 -5.47532 1.59891 0
M  V30 2412 O 228.202 -4.92614 3.45854 0
M  V30 2413 H 232.028 -1.77121 2.46702 0
M  V30 2414 H 229.613 -0.817092 1.25076 0
M  V30 2415 H 231.495 -3.9768 1.39387 0
M  V30 2416 H 230.17 -3.20059 0.484118 0
M  V30 2417 H 229.077 -2.57366 2.71502 0
M  V30 2418 H 230.41 -3.4004 3.55856 0
M  V30 2419 N 232.062 -1.29571 -0.897171 0
M  V30 2420 C 232.972 -1.16808 -2.03453 0
M  V30 2421 C 233.988 -0.0907471 -1.73763 0
M  V30 2422 O 235.164 -0.303312 -1.99103 0
M  V30 2423 C 232.229 -0.848264 -3.36163 0
M  V30 2424 C 231.29 -2.0097 -3.79354 0
M  V30 2425 C 230.523 -1.70505 -5.05731 0
M  V30 2426 O 230.746 -0.62718 -5.66941 0
M  V30 2427 O 229.68 -2.5538 -5.45036 0
M  V30 2428 H 233.506 -2.12325 -2.17144 0
M  V30 2429 H 231.091 -1.09047 -1.02123 0
M  V30 2430 H 232.973 -0.684581 -4.15802 0
M  V30 2431 H 231.648 0.0771071 -3.23608 0
M  V30 2432 H 230.555 -2.22863 -3.00471 0
M  V30 2433 H 231.888 -2.91636 -3.96496 0
M  V30 2434 N 233.54 1.10788 -1.12088 0
M  V30 2435 C 234.503 2.15207 -0.788577 0
M  V30 2436 C 235.503 1.59609 0.195317 0
M  V30 2437 O 236.693 1.74174 -0.0300193 0
M  V30 2438 C 233.825 3.4047 -0.171174 0
M  V30 2439 H 235.018 2.46116 -1.71368 0
M  V30 2440 H 232.571 1.26089 -0.923652 0
M  V30 2441 H 233.306 3.15176 0.763832 0
M  V30 2442 H 233.091 3.82109 -0.879514 0
M  V30 2443 H 234.581 4.17576 0.04496 0
M  V30 2444 N 235.018 0.912232 1.28515 0
M  V30 2445 C 236.258 0.551677 1.96814 0
M  V30 2446 C 236.622 -0.887825 1.7024 0
M  V30 2447 O 237.823 -1.35588 2.32098 0
M  V30 2448 C 236.094 0.850555 3.47132 0
M  V30 2449 S 237.653 0.59619 4.34731 0
M  V30 2450 H 234.471 0.204191 0.681049 0
M  V30 2451 H 237.073 1.17736 1.56072 0
M  V30 2452 H 235.777 1.8962 3.63968 0
M  V30 2453 H 235.308 0.213471 3.9282 0
M  V30 2454 H 237.323 -0.553154 4.93107 0
M  V30 2455 N 236.496 -1.42363 0.676048 0
M  V30 2456 C 237.426 -2.33497 0.0124832 0
M  V30 2457 C 238.407 -1.50748 -0.787981 0
M  V30 2458 O 239.592 -1.79346 -0.744884 0
M  V30 2459 C 236.722 -3.34377 -0.938582 0
M  V30 2460 C 235.676 -4.27289 -0.246622 0
M  V30 2461 C 235.002 -5.18386 -1.31071 0
M  V30 2462 C 236.302 -5.14916 0.875125 0
M  V30 2463 H 237.996 -2.89233 0.773593 0
M  V30 2464 H 235.542 -1.39073 0.37346 0
M  V30 2465 H 237.495 -3.97044 -1.41188 0
M  V30 2466 H 236.219 -2.76947 -1.73113 0
M  V30 2467 H 234.878 -3.66018 0.206456 0
M  V30 2468 H 234.526 -4.57282 -2.09528 0
M  V30 2469 H 234.226 -5.81378 -0.852839 0
M  V30 2470 H 235.75 -5.83929 -1.78492 0
M  V30 2471 H 237.164 -5.71262 0.482983 0
M  V30 2472 H 235.561 -5.86747 1.25887 0
M  V30 2473 H 236.631 -4.53242 1.72335 0
M  V30 2474 N 237.974 -0.419461 -1.51915 0
M  V30 2475 C 239.202 0.152136 -2.0634 0
M  V30 2476 C 239.617 1.37988 -1.28859 0
M  V30 2477 O 238.974 1.79243 -0.343232 0
M  V30 2478 C 239.025 0.492266 -3.58133 0
M  V30 2479 O 238.746 -0.686736 -4.32684 0
M  V30 2480 C 240.247 1.11648 -4.2901 0
M  V30 2481 H 237.467 0.0158325 -0.670813 0
M  V30 2482 H 240.011 -0.593394 -1.95702 0
M  V30 2483 H 238.166 1.18769 -3.68745 0
M  V30 2484 H 238.58 -0.400341 -5.2297 0
M  V30 2485 H 240.054 1.3046 -5.36362 0
M  V30 2486 H 240.531 2.09251 -3.86148 0
M  V30 2487 H 241.137 0.460958 -4.22795 0
M  V30 2488 N 239.452 1.56882 -0.150215 0
M  V30 2489 C 240.382 2.19935 0.784284 0
M  V30 2490 C 241.363 1.14854 1.25469 0
M  V30 2491 O 242.548 1.43209 1.31168 0
M  V30 2492 C 239.678 2.82349 2.02229 0
M  V30 2493 C 238.632 3.93285 1.68853 0
M  V30 2494 C 237.958 4.42649 2.99944 0
M  V30 2495 C 239.258 5.13904 0.932714 0
M  V30 2496 H 240.952 2.9828 0.258781 0
M  V30 2497 H 238.498 1.43473 0.123029 0
M  V30 2498 H 240.451 3.25126 2.68088 0
M  V30 2499 H 239.175 2.0134 2.57157 0
M  V30 2500 H 237.834 3.5113 1.05371 0
M  V30 2501 H 237.482 3.58458 3.52869 0
M  V30 2502 H 237.182 5.17476 2.78374 0
M  V30 2503 H 238.706 4.88099 3.66868 0
M  V30 2504 H 240.12 5.53506 1.49345 0
M  V30 2505 H 238.517 5.94515 0.81684 0
M  V30 2506 H 239.587 4.84842 -0.0749568 0
M  V30 2507 N 240.93 -0.123565 1.57115 0
M  V30 2508 C 241.862 -1.17739 1.96648 0
M  V30 2509 C 242.875 -1.37906 0.865201 0
M  V30 2510 O 244.064 -1.37062 1.14351 0
M  V30 2511 C 241.164 -2.53821 2.24562 0
M  V30 2512 C 240.337 -2.54317 3.55867 0
M  V30 2513 C 239.396 -3.72112 3.72047 0
M  V30 2514 O 238.422 -3.55907 4.44206 0
M  V30 2515 N 239.624 -4.90498 3.10471 0
M  V30 2516 H 242.389 -0.841147 2.87654 0
M  V30 2517 H 239.95 -0.31289 1.58848 0
M  V30 2518 H 241.942 -3.31175 2.32606 0
M  V30 2519 H 240.512 -2.79645 1.39705 0
M  V30 2520 H 239.732 -1.62711 3.59053 0
M  V30 2521 H 241.02 -2.51701 4.42181 0
M  V30 2522 H 240.418 -5.06567 2.51806 0
M  V30 2523 H 238.975 -5.65544 3.24043 0
M  V30 2524 N 242.408 -1.52605 -0.393616 0
M  V30 2525 C 243.358 -1.73436 -1.48 0
M  V30 2526 C 244.342 -0.588386 -1.49756 0
M  V30 2527 O 245.534 -0.846047 -1.5547 0
M  V30 2528 C 242.663 -1.90247 -2.85764 0
M  V30 2529 C 241.749 -3.10763 -2.88595 0
M  V30 2530 N 242.14 -4.33196 -2.61103 0
M  V30 2531 C 240.438 -3.10914 -3.19763 0
M  V30 2532 C 241.139 -5.1477 -2.70899 0
M  V30 2533 N 240.115 -4.50356 -3.04435 0
M  V30 2534 H 243.917 -2.65727 -1.25563 0
M  V30 2535 H 241.431 -1.5085 -0.601513 0
M  V30 2536 H 243.428 -2.03291 -3.63976 0
M  V30 2537 H 242.088 -0.991663 -3.09186 0
M  V30 2538 H 243.099 -4.61408 -2.35209 0
M  V30 2539 H 239.776 -2.29626 -3.4868 0
M  V30 2540 H 241.166 -6.22355 -2.53227 0
M  V30 2541 N 243.887 0.651787 -1.4349 0
M  V30 2542 C 244.817 1.77621 -1.51569 0
M  V30 2543 C 245.798 1.66022 -0.370253 0
M  V30 2544 O 246.983 1.85095 -0.587658 0
M  V30 2545 C 244.113 3.16056 -1.43966 0
M  V30 2546 C 243.067 3.4242 -2.56774 0
M  V30 2547 C 242.393 4.8067 -2.34223 0
M  V30 2548 C 243.693 3.37023 -3.99015 0
M  V30 2549 H 245.387 1.71117 -2.45681 0
M  V30 2550 H 242.933 0.821825 -1.18246 0
M  V30 2551 H 244.886 3.94472 -1.48221 0
M  V30 2552 H 243.61 3.23293 -0.463586 0
M  V30 2553 H 242.269 2.66375 -2.51873 0
M  V30 2554 H 241.917 4.84585 -1.34856 0
M  V30 2555 H 241.617 4.9927 -3.09844 0
M  V30 2556 H 243.141 5.61342 -2.40265 0
M  V30 2557 H 244.555 4.05374 -4.05395 0
M  V30 2558 H 242.952 3.67159 -4.74673 0
M  V30 2559 H 244.022 2.3518 -4.2405 0
M  V30 2560 N 245.365 1.30045 0.890287 0
M  V30 2561 C 246.313 1.15873 2.01683 0
M  V30 2562 C 247.307 0.0719403 1.69247 0
M  V30 2563 O 248.513 0.232414 1.78493 0
M  V30 2564 H 244.888 0.358203 0.661207 0
M  V30 2565 H 246.859 2.11229 2.10772 0
M  V30 2566 C 245.608 0.861842 3.36849 0
M  V30 2567 H 244.931 1.69016 3.62317 0
M  V30 2568 H 246.371 0.802762 4.16331 0
M  V30 2569 C 244.83 -0.435132 3.34078 0
M  V30 2570 O 245.36 -1.4583 3.74295 0
M  V30 2571 N 243.566 -0.444377 2.87182 0
M  V30 2572 H 243.113 0.388723 2.5465 0
M  V30 2573 H 243.071 -1.31213 2.85711 0
M  V30 2574 N 246.843 -1.10192 1.12674 0
M  V30 2575 C 248.259 -1.34235 0.863317 0
M  V30 2576 C 248.459 -1.95062 -0.505277 0
M  V30 2577 O 247.515 -2.19192 -1.25345 0
M  V30 2578 C 248.828 -2.2616 1.98172 0
M  V30 2579 C 250.376 -2.3969 2.0129 0
M  V30 2580 C 250.851 -3.34946 3.1237 0
M  V30 2581 N 252.342 -3.42515 3.11829 0
M  V30 2582 C 253.077 -4.16199 3.94419 0
M  V30 2583 N 252.573 -4.92747 4.87004 0
M  V30 2584 N 254.366 -4.11843 3.82547 0
M  V30 2585 H 246.517 -0.690798 2.00853 0
M  V30 2586 H 248.78 -0.366774 0.874174 0
M  V30 2587 H 248.486 -1.8868 2.96804 0
M  V30 2588 H 248.36 -3.26488 1.88906 0
M  V30 2589 H 250.747 -2.76438 1.03276 0
M  V30 2590 H 250.828 -1.39169 2.14629 0
M  V30 2591 H 250.472 -2.98923 4.10619 0
M  V30 2592 H 250.402 -4.35353 2.96269 0
M  V30 2593 H 252.893 -2.87926 2.44759 0
M  V30 2594 H 253.206 -5.46376 5.46528 0
M  V30 2595 H 251.551 -4.91862 4.91016 0
M  V30 2596 H 254.742 -3.51136 3.0955 0
M  V30 2597 H 254.915 -4.69007 4.47142 0
M  V30 2598 N 248.321 -0.919034 -1.28029 0
M  V30 2599 C 249.251 -0.428581 -2.29533 0
M  V30 2600 C 250.232 0.50659 -1.62381 0
M  V30 2601 O 251.417 0.413195 -1.89753 0
M  V30 2602 C 248.547 0.327388 -3.45753 0
M  V30 2603 C 247.501 -0.519137 -4.2484 0
M  V30 2604 C 246.827 0.365486 -5.33449 0
M  V30 2605 C 248.127 -1.77914 -4.91064 0
M  V30 2606 H 249.821 -1.27687 -2.70807 0
M  V30 2607 H 247.367 -0.615428 -1.30186 0
M  V30 2608 H 249.32 0.681378 -4.15855 0
M  V30 2609 H 248.044 1.20963 -3.03374 0
M  V30 2610 H 246.703 -0.855717 -3.56473 0
M  V30 2611 H 246.351 1.24642 -4.87312 0
M  V30 2612 H 246.051 -0.197356 -5.87268 0
M  V30 2613 H 247.575 0.715241 -6.06396 0
M  V30 2614 H 248.989 -1.49374 -5.53498 0
M  V30 2615 H 247.386 -2.2848 -5.54903 0
M  V30 2616 H 248.456 -2.50382 -4.15255 0
M  V30 2617 N 249.799 1.42003 -0.683588 0
M  V30 2618 C 251.047 2.01015 -0.209101 0
M  V30 2619 C 251.368 1.54365 1.19149 0
M  V30 2620 O 250.638 0.769083 1.80172 0
M  V30 2621 H 249.218 0.743294 -0.074315 0
M  V30 2622 H 251.88 1.73798 -0.882066 0
M  V30 2623 H 250.976 3.11343 -0.2172 0
M  V30 2624 N 251.277 0.427512 1.51691 0
M  V30 2625 C 252.526 -0.143679 2.01188 0
M  V30 2626 C 252.839 -1.44642 1.31674 0
M  V30 2627 O 254.045 -2.09997 1.72086 0
M  V30 2628 C 252.501 -0.306602 3.58592 0
M  V30 2629 C 252.109 0.985125 4.37035 0
M  V30 2630 C 253.853 -0.832091 4.16265 0
M  V30 2631 C 251.76 0.788382 5.86122 0
M  V30 2632 H 250.69 -0.0574701 0.751807 0
M  V30 2633 H 253.341 0.555772 1.74881 0
M  V30 2634 H 251.723 -1.06882 3.81303 0
M  V30 2635 H 252.897 1.75492 4.26074 0
M  V30 2636 H 251.212 1.4384 3.90767 0
M  V30 2637 H 253.809 -0.995617 5.25349 0
M  V30 2638 H 254.152 -1.81186 3.74803 0
M  V30 2639 H 254.685 -0.128444 3.97593 0
M  V30 2640 H 251.424 1.74025 6.31978 0
M  V30 2641 H 250.944 0.0582143 5.99772 0
M  V30 2642 H 252.623 0.437722 6.45518 0
M  V30 2643 N 252.755 -1.56801 0.158532 0
M  V30 2644 C 253.687 -2.14488 -0.807923 0
M  V30 2645 C 254.7 -1.09721 -1.20271 0
M  V30 2646 O 255.889 -1.36956 -1.14478 0
M  V30 2647 C 252.989 -2.66217 -2.09718 0
M  V30 2648 C 252.162 -3.95507 -1.86796 0
M  V30 2649 C 251.221 -4.3243 -2.99818 0
M  V30 2650 O 250.247 -5.00543 -2.71008 0
M  V30 2651 N 251.449 -3.92947 -4.27285 0
M  V30 2652 H 254.214 -2.98042 -0.314816 0
M  V30 2653 H 251.775 -1.61881 -0.0246692 0
M  V30 2654 H 253.767 -2.87924 -2.84398 0
M  V30 2655 H 252.337 -1.87324 -2.50257 0
M  V30 2656 H 251.557 -3.82309 -0.96089 0
M  V30 2657 H 252.845 -4.79972 -1.68833 0
M  V30 2658 H 252.243 -3.38087 -4.53557 0
M  V30 2659 H 250.8 -4.19681 -4.9871 0
M  V30 2660 N 254.233 0.115231 -1.57178 0
M  V30 2661 C 255.196 1.12526 -1.99676 0
M  V30 2662 C 256.196 1.34095 -0.88742 0
M  V30 2663 O 257.386 1.30548 -1.15337 0
M  V30 2664 C 254.518 2.4789 -2.34015 0
M  V30 2665 H 255.711 0.759912 -2.90113 0
M  V30 2666 H 253.264 0.359648 -1.52106 0
M  V30 2667 H 253.999 2.89339 -1.4647 0
M  V30 2668 H 253.784 2.33588 -3.14927 0
M  V30 2669 H 255.274 3.20575 -2.67622 0
M  V30 2670 N 255.711 1.52812 0.385517 0
M  V30 2671 C 256.621 1.80766 1.49535 0
M  V30 2672 C 257.637 0.694651 1.59532 0
M  V30 2673 O 258.813 0.982611 1.75803 0
M  V30 2674 C 255.878 1.97381 2.85029 0
M  V30 2675 C 254.939 3.21295 2.84724 0
M  V30 2676 C 254.172 3.37108 4.13756 0
M  V30 2677 O 254.395 2.5765 5.08893 0
M  V30 2678 O 253.329 4.30378 4.20783 0
M  V30 2679 H 257.155 2.75015 1.28842 0
M  V30 2680 H 254.74 1.37946 0.573697 0
M  V30 2681 H 256.622 2.09996 3.65349 0
M  V30 2682 H 255.297 1.06322 3.05741 0
M  V30 2683 H 254.204 3.1412 2.03174 0
M  V30 2684 H 255.537 4.12212 2.68965 0
M  V30 2685 N 257.189 -0.644168 1.43834 0
M  V30 2686 C 258.6 -1.22554 1.40845 0
M  V30 2687 C 258.951 -1.9585 0.117115 0
M  V30 2688 O 258.076 -2.01734 -0.783086 0
M  V30 2689 C 258.671 -2.22907 2.55143 0
M  V30 2690 C 257.23 -2.76501 2.5539 0
M  V30 2691 C 256.377 -1.51287 2.32396 0
M  V30 2692 H 259.328 -0.43563 1.52604 0
M  V30 2693 H 259.349 -3.05259 2.2715 0
M  V30 2694 H 258.861 -1.69533 3.49114 0
M  V30 2695 H 256.962 -3.33914 1.65324 0
M  V30 2696 H 257.075 -3.23429 3.53455 0
M  V30 2697 H 255.439 -1.78957 1.81236 0
M  V30 2698 H 256.222 -0.998336 3.28463 0
M  V30 2699 N 258.668 -1.30515 -0.883378 0
M  V30 2700 C 259.598 -1.19607 -2.00541 0
M  V30 2701 C 260.579 -0.086346 -1.69881 0
M  V30 2702 O 261.764 -0.268654 -1.92333 0
M  V30 2703 C 258.894 -0.888758 -3.35736 0
M  V30 2704 C 257.848 -1.95659 -3.8066 0
M  V30 2705 C 257.174 -1.50224 -5.13164 0
M  V30 2706 C 258.474 -3.36788 -3.99213 0
M  V30 2707 H 260.168 -2.13476 -2.09925 0
M  V30 2708 H 257.714 -1.02775 -1.00863 0
M  V30 2709 H 259.667 -0.799094 -4.13754 0
M  V30 2710 H 258.391 0.0856125 -3.26488 0
M  V30 2711 H 257.05 -2.03591 -3.04871 0
M  V30 2712 H 256.698 -0.516092 -5.00345 0
M  V30 2713 H 256.398 -2.2165 -5.44192 0
M  V30 2714 H 257.922 -1.42639 -5.93706 0
M  V30 2715 H 259.336 -3.31605 -4.67665 0
M  V30 2716 H 257.733 -4.06314 -4.41621 0
M  V30 2717 H 258.803 -3.78561 -3.03017 0
M  V30 2718 N 260.146 1.09593 -1.13257 0
M  V30 2719 C 261.376 1.85231 -0.915049 0
M  V30 2720 C 261.784 1.81345 0.539498 0
M  V30 2721 O 261.127 1.20664 1.38513 0
M  V30 2722 C 261.189 3.34275 -1.3229 0
M  V30 2723 C 260.853 3.6191 -2.79052 0
M  V30 2724 C 261.85 3.57777 -3.77216 0
M  V30 2725 C 259.535 3.90309 -3.16171 0
M  V30 2726 C 261.529 3.81652 -5.1051 0
M  V30 2727 C 259.216 4.13839 -4.49644 0
M  V30 2728 C 260.214 4.09502 -5.46623 0
M  V30 2729 O 259.902 4.32426 -6.77689 0
M  V30 2730 H 259.634 0.591997 -0.326367 0
M  V30 2731 H 262.188 1.394 -1.50854 0
M  V30 2732 H 260.418 3.80805 -0.672667 0
M  V30 2733 H 262.107 3.9132 -1.07812 0
M  V30 2734 H 262.873 3.35865 -3.49885 0
M  V30 2735 H 258.752 3.92811 -2.41289 0
M  V30 2736 H 262.296 3.78182 -5.86195 0
M  V30 2737 H 258.193 4.35232 -4.767 0
M  V30 2738 H 258.961 4.49896 -6.83766 0
M  V30 2739 N 261.624 0.925811 1.2754 0
M  V30 2740 C 263.04 0.625767 1.46821 0
M  V30 2741 C 263.24 -0.825506 1.83814 0
M  V30 2742 O 262.296 -1.60356 1.95044 0
M  V30 2743 C 263.609 1.57402 2.56213 0
M  V30 2744 C 265.157 1.58204 2.70075 0
M  V30 2745 C 265.632 2.51721 3.82623 0
M  V30 2746 N 267.123 2.49917 3.89994 0
M  V30 2747 C 267.858 3.18968 4.76494 0
M  V30 2748 N 267.354 3.97391 5.67496 0
M  V30 2749 N 269.147 3.07996 4.70208 0
M  V30 2750 H 261.298 1.86409 1.01811 0
M  V30 2751 H 263.561 0.800213 0.508295 0
M  V30 2752 H 263.267 2.60925 2.35819 0
M  V30 2753 H 263.141 1.31428 3.53563 0
M  V30 2754 H 265.528 0.554124 2.89851 0
M  V30 2755 H 265.609 1.88226 1.73218 0
M  V30 2756 H 265.253 3.54622 3.63601 0
M  V30 2757 H 265.183 2.18996 4.78903 0
M  V30 2758 H 267.674 1.9296 3.24923 0
M  V30 2759 H 267.987 4.4707 6.30356 0
M  V30 2760 H 266.332 4.01495 5.67298 0
M  V30 2761 H 269.523 2.46223 3.9811 0
M  V30 2762 H 269.696 3.6208 5.37403 0
M  V30 2763 N 263.102 -1.41638 0.69111 0
M  V30 2764 C 264.348 -2.01598 0.220519 0
M  V30 2765 C 264.681 -1.54594 -1.17535 0
M  V30 2766 O 263.956 -0.755177 -1.79241 0
M  V30 2767 C 264.239 -3.59062 0.273243 0
M  V30 2768 C 264.092 -4.16203 1.70573 0
M  V30 2769 C 265.411 -4.38546 -0.369457 0
M  V30 2770 H 262.53 -0.732468 0.0816045 0
M  V30 2771 H 265.172 -1.68445 0.878986 0
M  V30 2772 H 263.322 -3.87435 -0.287411 0
M  V30 2773 H 264.994 -3.98722 2.31989 0
M  V30 2774 H 263.237 -3.71414 2.2413 0
M  V30 2775 H 263.908 -5.25358 1.69419 0
M  V30 2776 H 266.384 -4.1596 0.107977 0
M  V30 2777 H 265.26 -5.48069 -0.302002 0
M  V30 2778 H 265.521 -4.17662 -1.44951 0
M  V30 2779 N 264.58 -0.43555 -1.51462 0
M  V30 2780 C 265.826 0.131709 -2.02372 0
M  V30 2781 C 266.159 1.42516 -1.3192 0
M  V30 2782 O 265.434 1.89606 -0.433573 0
M  V30 2783 C 265.717 0.352301 -3.58373 0
M  V30 2784 C 265.57 -0.959676 -4.39443 0
M  V30 2785 C 266.889 1.12286 -4.25535 0
M  V30 2786 H 264.008 0.0463936 -0.735538 0
M  V30 2787 H 266.65 -0.574197 -1.81116 0
M  V30 2788 H 264.8 0.9536 -3.76615 0
M  V30 2789 H 266.472 -1.59482 -4.32855 0
M  V30 2790 H 264.715 -1.56468 -4.04599 0
M  V30 2791 H 265.386 -0.759394 -5.46752 0
M  V30 2792 H 267.862 0.613545 -4.11552 0
M  V30 2793 H 266.738 1.24598 -5.34571 0
M  V30 2794 H 266.999 2.15048 -3.86273 0
M  V30 2795 N 266.058 1.56714 -0.166846 0
M  V30 2796 C 267.283 2.01557 0.488833 0
M  V30 2797 C 267.708 1.0463 1.56314 0
M  V30 2798 O 267.066 0.0251304 1.81283 0
M  V30 2799 C 267.114 3.4503 1.04818 0
M  V30 2800 O 266.218 3.51163 2.16236 0
M  V30 2801 H 265.559 0.653516 0.117526 0
M  V30 2802 H 268.089 2.02818 -0.269421 0
M  V30 2803 H 268.099 3.84243 1.37191 0
M  V30 2804 H 266.774 4.15077 0.261572 0
M  V30 2805 H 265.351 3.23807 1.84942 0
M  V30 2806 N 267.536 -0.106894 1.57237 0
M  V30 2807 C 268.484 -1.14944 2.02215 0
M  V30 2808 C 269.478 -1.42167 0.92114 0
M  V30 2809 O 270.684 -1.41987 1.10634 0
M  V30 2810 H 267.059 -0.387841 0.64427 0
M  V30 2811 H 269.03 -0.743683 2.88984 0
M  V30 2812 C 267.779 -2.4647 2.4525 0
M  V30 2813 H 267.102 -2.26363 3.29545 0
M  V30 2814 H 268.542 -3.17948 2.80508 0
M  V30 2815 C 267.001 -3.09921 1.321 0
M  V30 2816 O 267.531 -3.9651 0.643622 0
M  V30 2817 N 265.737 -2.69986 1.07497 0
M  V30 2818 H 265.284 -1.99667 1.62761 0
M  V30 2819 H 265.242 -3.12769 0.319876 0
M  V30 2820 N 269.014 -1.53014 -0.377408 0
M  V30 2821 C 270.242 -1.72515 -1.14219 0
M  V30 2822 C 270.657 -0.448735 -1.8339 0
M  V30 2823 O 270.014 0.577592 -1.73119 0
M  V30 2824 C 270.065 -2.8826 -2.18148 0
M  V30 2825 O 269.786 -4.10962 -1.51795 0
M  V30 2826 C 271.287 -3.19536 -3.07264 0
M  V30 2827 H 268.507 -0.577301 -0.342001 0
M  V30 2828 H 271.051 -1.99712 -0.439935 0
M  V30 2829 H 269.206 -2.63492 -2.83991 0
M  V30 2830 H 269.62 -4.75693 -2.20945 0
M  V30 2831 H 271.094 -4.03959 -3.76193 0
M  V30 2832 H 271.571 -2.34403 -3.71419 0
M  V30 2833 H 272.177 -3.46186 -2.47053 0
M  V30 2834 N 270.492 0.636531 -1.44174 0
M  V30 2835 C 271.741 1.39213 -1.45954 0
M  V30 2836 C 272.054 1.95374 -0.0939119 0
M  V30 2837 O 273.26 2.71498 0.0107767 0
M  V30 2838 C 271.716 2.52025 -2.56927 0
M  V30 2839 C 271.324 2.024 -3.99673 0
M  V30 2840 C 273.068 3.29269 -2.67922 0
M  V30 2841 C 270.975 3.12521 -5.0208 0
M  V30 2842 H 269.905 0.523132 -0.542999 0
M  V30 2843 H 272.556 0.685349 -1.70221 0
M  V30 2844 H 270.938 3.25253 -2.25891 0
M  V30 2845 H 272.112 1.36073 -4.40251 0
M  V30 2846 H 270.427 1.37987 -3.92872 0
M  V30 2847 H 273.024 4.11352 -3.41605 0
M  V30 2848 H 273.367 3.78397 -1.73555 0
M  V30 2849 H 273.9 2.63129 -2.98342 0
M  V30 2850 H 270.639 2.68343 -5.98057 0
M  V30 2851 H 270.159 3.77507 -4.66099 0
M  V30 2852 H 271.838 3.77385 -5.25538 0
M  V30 2853 N 271.97 1.30982 0.876444 0
M  V30 2854 C 272.88 1.2003 2.01569 0
M  V30 2855 C 273.896 0.11838 1.73597 0
M  V30 2856 O 275.072 0.33495 1.98595 0
M  V30 2857 C 272.137 0.901637 3.34771 0
M  V30 2858 C 271.198 2.06979 3.76109 0
M  V30 2859 C 270.431 1.78529 5.02954 0
M  V30 2860 O 270.654 0.717296 5.65872 0
M  V30 2861 O 269.588 2.64019 5.40905 0
M  V30 2862 H 273.414 2.15753 2.13739 0
M  V30 2863 H 270.999 1.10658 1.00375 0
M  V30 2864 H 272.881 0.750645 4.1466 0
M  V30 2865 H 271.556 -0.0256141 3.2369 0
M  V30 2866 H 270.463 2.27616 2.96887 0
M  V30 2867 H 271.796 2.97907 3.91807 0
M  V30 2868 N 273.449 -1.08991 1.13837 0
M  V30 2869 C 274.86 -1.62746 0.914917 0
M  V30 2870 C 275.211 -1.88403 -0.547594 0
M  V30 2871 O 274.336 -1.63706 -1.41525 0
M  V30 2872 C 274.931 -2.95662 1.65437 0
M  V30 2873 C 273.49 -3.46225 1.47666 0
M  V30 2874 C 272.637 -2.20562 1.6807 0
M  V30 2875 H 275.588 -0.922946 1.29102 0
M  V30 2876 H 275.609 -3.63825 1.11407 0
M  V30 2877 H 275.121 -2.76956 2.71877 0
M  V30 2878 H 273.222 -3.70046 0.435478 0
M  V30 2879 H 273.335 -4.23368 2.24268 0
M  V30 2880 H 271.699 -2.29439 1.10589 0
M  V30 2881 H 272.482 -2.0437 2.7584 0
M  V30 2882 N 274.927 -0.932562 -1.27047 0
M  V30 2883 C 275.857 -0.452902 -2.29066 0
M  V30 2884 C 276.838 0.489338 -1.62909 0
M  V30 2885 O 278.023 0.393046 -1.90181 0
M  V30 2886 C 275.153 0.290698 -3.46081 0
M  V30 2887 C 274.107 -0.564168 -4.24265 0
M  V30 2888 C 273.433 0.308886 -5.33807 0
M  V30 2889 C 274.733 -1.83112 -4.89149 0
M  V30 2890 H 276.427 -1.30552 -2.69437 0
M  V30 2891 H 273.973 -0.629201 -1.29526 0
M  V30 2892 H 275.926 0.637233 -4.16554 0
M  V30 2893 H 274.65 1.17738 -3.0464 0
M  V30 2894 H 273.309 -0.893477 -3.55545 0
M  V30 2895 H 272.957 1.19467 -4.88607 0
M  V30 2896 H 272.657 -0.259633 -5.87026 0
M  V30 2897 H 274.181 0.650884 -6.07121 0
M  V30 2898 H 275.595 -1.55236 -5.51883 0
M  V30 2899 H 273.992 -2.34353 -5.52448 0
M  V30 2900 H 275.062 -2.54772 -4.12576 0
M  V30 2901 N 276.405 1.4127 -0.698611 0
M  V30 2902 C 277.633 2.05503 -0.239992 0
M  V30 2903 C 278.048 1.52584 1.11191 0
M  V30 2904 O 277.405 0.675323 1.69545 0
M  V30 2905 C 277.456 3.60987 -0.192429 0
M  V30 2906 O 277.177 4.1195 -1.49094 0
M  V30 2907 C 278.678 4.42371 0.28681 0
M  V30 2908 H 275.898 0.661748 -0.111045 0
M  V30 2909 H 278.442 1.80987 -0.95205 0
M  V30 2910 H 276.597 3.84533 0.470472 0
M  V30 2911 H 277.011 5.06018 -1.38007 0
M  V30 2912 H 278.485 5.51344 0.26896 0
M  V30 2913 H 278.962 4.18699 1.32619 0
M  V30 2914 H 279.568 4.23897 -0.345201 0
M  V30 2915 N 277.883 0.443576 1.51229 0
M  V30 2916 C 278.813 -0.355142 2.30783 0
M  V30 2917 C 279.794 -1.0154 1.36468 0
M  V30 2918 O 280.979 -1.01785 1.65389 0
M  V30 2919 C 278.109 -1.45312 3.15439 0
M  V30 2920 C 277.063 -0.916002 4.18083 0
M  V30 2921 C 276.389 -2.1102 4.91299 0
M  V30 2922 C 277.689 0.0538602 5.22272 0
M  V30 2923 H 279.383 0.308767 2.97804 0
M  V30 2924 H 276.929 0.149937 1.43217 0
M  V30 2925 H 278.882 -2.01914 3.69876 0
M  V30 2926 H 277.606 -2.14541 2.46252 0
M  V30 2927 H 276.265 -0.372145 3.64706 0
M  V30 2928 H 275.913 -2.78882 4.18609 0
M  V30 2929 H 275.613 -1.75717 5.60712 0
M  V30 2930 H 277.137 -2.68164 5.48562 0
M  V30 2931 H 278.551 -0.422069 5.71744 0
M  V30 2932 H 276.948 0.319776 5.99247 0
M  V30 2933 H 278.018 0.98858 4.74716 0
M  V30 2934 N 279.361 -1.56624 0.175154 0
M  V30 2935 C 280.608 -1.96999 -0.468811 0
M  V30 2936 C 280.936 -1.06129 -1.62994 0
M  V30 2937 O 280.191 -0.0961771 -1.95464 0
M  V30 2938 C 280.49 -3.43419 -0.989864 0
M  V30 2939 C 280.156 -4.50866 0.0557687 0
M  V30 2940 C 278.818 -4.79975 0.343134 0
M  V30 2941 C 281.17 -5.15551 0.765308 0
M  V30 2942 C 278.498 -5.71066 1.34536 0
M  V30 2943 C 280.85 -6.07724 1.75654 0
M  V30 2944 C 279.514 -6.35199 2.05132 0
M  V30 2945 H 278.784 -0.720869 -0.17155 0
M  V30 2946 H 281.431 -1.89616 0.267924 0
M  V30 2947 H 279.736 -3.47772 -1.80449 0
M  V30 2948 H 281.433 -3.72002 -1.49719 0
M  V30 2949 H 278.023 -4.28229 -0.178381 0
M  V30 2950 H 282.207 -4.9317 0.556513 0
M  V30 2951 H 277.463 -5.90635 1.57988 0
M  V30 2952 H 281.637 -6.56912 2.31169 0
M  V30 2953 H 279.264 -7.05584 2.8294 0
M  V30 2954 N 280.839 0.0985539 -1.57292 0
M  V30 2955 C 281.789 1.1261 -1.9825 0
M  V30 2956 C 282.773 1.35961 -0.860426 0
M  V30 2957 O 283.965 1.36711 -1.12424 0
M  V30 2958 C 281.094 2.44727 -2.40757 0
M  V30 2959 C 280.18 2.24764 -3.59642 0
M  V30 2960 N 280.571 1.74661 -4.74687 0
M  V30 2961 C 278.869 2.55344 -3.65672 0
M  V30 2962 C 279.57 1.68887 -5.56644 0
M  V30 2963 N 278.546 2.13976 -4.99715 0
M  V30 2964 H 282.348 0.731604 -2.84648 0
M  V30 2965 H 279.862 0.306029 -1.59491 0
M  V30 2966 H 281.859 3.19072 -2.68326 0
M  V30 2967 H 280.519 2.84917 -1.55733 0
M  V30 2968 H 281.53 1.43908 -4.97505 0
M  V30 2969 H 278.207 2.99081 -2.91302 0
M  V30 2970 H 279.597 1.3123 -6.5896 0
M  V30 2971 N 282.317 1.53212 0.369288 0
M  V30 2972 C 283.264 1.79388 1.45219 0
M  V30 2973 C 284.234 0.638059 1.53356 0
M  V30 2974 O 285.419 0.879852 1.69302 0
M  V30 2975 C 282.559 1.98623 2.82211 0
M  V30 2976 C 281.672 3.26337 2.8307 0
M  V30 2977 C 280.807 3.35779 4.11614 0
M  V30 2978 C 279.846 4.5754 4.06601 0
M  V30 2979 N 278.983 4.64155 5.26787 0
M  V30 2980 H 283.823 2.71794 1.22198 0
M  V30 2981 H 281.36 1.34642 0.592444 0
M  V30 2982 H 283.318 2.07761 3.61789 0
M  V30 2983 H 281.948 1.09558 3.03639 0
M  V30 2984 H 281 3.26171 1.95747 0
M  V30 2985 H 282.312 4.15988 2.75237 0
M  V30 2986 H 281.466 3.44208 4.99606 0
M  V30 2987 H 280.205 2.44137 4.22195 0
M  V30 2988 H 279.21 4.49215 3.16996 0
M  V30 2989 H 280.435 5.50519 3.97625 0
M  V30 2990 H 278.381 3.75413 5.3796 0
M  V30 2991 H 278.298 5.47706 5.21109 0
M  V30 2992 H 279.566 4.76863 6.16621 0
M  V30 2993 N 283.795 -0.628877 1.44509 0
M  V30 2994 C 284.728 -1.75367 1.46019 0
M  V30 2995 C 285.706 -1.59444 0.318787 0
M  V30 2996 O 286.89 -1.81297 0.516099 0
M  V30 2997 C 284.017 -3.12965 1.29501 0
M  V30 2998 C 283.063 -3.47532 2.47233 0
M  V30 2999 S 283.896 -3.44758 4.09758 0
M  V30 3000 C 285.052 -4.84973 3.95667 0
M  V30 3001 H 285.285 -1.7382 2.41193 0
M  V30 3002 H 282.818 -0.803686 1.31834 0
M  V30 3003 H 284.776 -3.92367 1.20658 0
M  V30 3004 H 283.437 -3.12049 0.358341 0
M  V30 3005 H 282.63 -4.47664 2.31544 0
M  V30 3006 H 282.232 -2.75598 2.52828 0
M  V30 3007 H 284.524 -5.74255 3.59496 0
M  V30 3008 H 285.467 -5.05716 4.95638 0
M  V30 3009 H 285.875 -4.59653 3.27688 0
M  V30 3010 N 285.273 -1.31445 -0.869486 0
M  V30 3011 C 286.521 -1.20918 -1.61936 0
M  V30 3012 C 286.842 0.232683 -1.93607 0
M  V30 3013 O 286.112 1.15352 -1.58338 0
M  V30 3014 H 284.692 -0.44454 -0.600328 0
M  V30 3015 H 287.354 -1.64776 -1.0409 0
M  V30 3016 H 286.45 -1.78124 -2.56278 0
M  V30 3017 N 286.751 1.08385 -1.14413 0
M  V30 3018 C 287.997 1.81044 -0.913834 0
M  V30 3019 C 288.33 1.86004 0.558209 0
M  V30 3020 O 287.605 1.33606 1.4135 0
M  V30 3021 C 287.888 3.26648 -1.51569 0
M  V30 3022 C 287.741 3.29895 -3.0576 0
M  V30 3023 C 289.06 4.23629 -1.19273 0
M  V30 3024 H 286.179 0.65727 -0.333414 0
M  V30 3025 H 288.821 1.26896 -1.41412 0
M  V30 3026 H 286.971 3.72889 -1.09023 0
M  V30 3027 H 288.643 2.91977 -3.57137 0
M  V30 3028 H 286.886 2.69163 -3.40197 0
M  V30 3029 H 287.557 4.32516 -3.42977 0
M  V30 3030 H 290.033 3.85727 -1.56057 0
M  V30 3031 H 288.909 5.23822 -1.64017 0
M  V30 3032 H 289.17 4.41968 -0.108068 0
M  V30 3033 N 288.23 0.939286 1.26551 0
M  V30 3034 C 289.478 0.58469 1.93457 0
M  V30 3035 C 289.799 -0.878774 1.74076 0
M  V30 3036 O 289.069 -1.62421 1.09528 0
M  V30 3037 H 287.649 0.21325 0.715914 0
M  V30 3038 H 290.311 1.1942 1.54029 0
M  V30 3039 H 289.407 0.800849 3.0165 0
M  V30 3040 N 289.708 -1.40897 0.706093 0
M  V30 3041 C 291.124 -1.55042 0.37869 0
M  V30 3042 C 291.324 -1.67944 -1.11342 0
M  V30 3043 O 290.38 -1.66372 -1.89938 0
M  V30 3044 C 291.693 -2.78398 1.13643 0
M  V30 3045 C 293.241 -2.92206 1.12181 0
M  V30 3046 C 293.716 -4.18463 1.86152 0
M  V30 3047 N 295.207 -4.25443 1.83173 0
M  V30 3048 C 295.942 -5.2202 2.37239 0
M  V30 3049 N 295.438 -6.24563 2.99821 0
M  V30 3050 N 297.231 -5.14033 2.27435 0
M  V30 3051 H 289.382 -1.30769 1.67372 0
M  V30 3052 H 291.645 -0.631653 0.706907 0
M  V30 3053 H 291.351 -2.7511 2.19106 0
M  V30 3054 H 291.225 -3.70228 0.721853 0
M  V30 3055 H 293.612 -2.95004 0.0754171 0
M  V30 3056 H 293.693 -2.01521 1.57554 0
M  V30 3057 H 293.337 -4.16427 2.90776 0
M  V30 3058 H 293.267 -5.08141 1.38206 0
M  V30 3059 H 295.758 -3.51976 1.37556 0
M  V30 3060 H 296.071 -6.94665 3.38616 0
M  V30 3061 H 294.416 -6.25035 3.03902 0
M  V30 3062 H 297.607 -4.3285 1.78208 0
M  V30 3063 H 297.78 -5.89129 2.69873 0
M  V30 3064 N 291.186 -0.45159 -1.50991 0
M  V30 3065 C 292.116 0.342898 -2.30969 0
M  V30 3066 C 293.097 1.00815 -1.37005 0
M  V30 3067 O 294.282 1.00907 -1.65926 0
M  V30 3068 C 291.412 1.43637 -3.16205 0
M  V30 3069 C 290.366 0.893818 -4.18563 0
M  V30 3070 C 289.692 2.08411 -4.92411 0
M  V30 3071 C 290.992 -0.0815568 -5.22236 0
M  V30 3072 H 292.686 -0.324556 -2.97636 0
M  V30 3073 H 290.232 -0.157531 -1.43136 0
M  V30 3074 H 292.185 1.9995 -3.70942 0
M  V30 3075 H 290.909 2.13232 -2.47386 0
M  V30 3076 H 289.568 0.352798 -3.64898 0
M  V30 3077 H 289.216 2.76658 -4.20082 0
M  V30 3078 H 288.916 1.72741 -5.61636 0
M  V30 3079 H 290.44 2.65251 -5.49976 0
M  V30 3080 H 291.854 0.391742 -5.7196 0
M  V30 3081 H 290.251 -0.351551 -5.99069 0
M  V30 3082 H 291.321 -1.01374 -4.74185 0
M  V30 3083 N 292.664 1.56529 -0.183458 0
M  V30 3084 C 293.941 1.88959 0.50536 0
M  V30 3085 C 294.321 1.09523 1.80466 0
M  V30 3086 O 293.669 0.19278 2.27685 0
M  V30 3087 C 293.879 3.41162 0.73547 0
M  V30 3088 C 295.227 4.11155 1.06005 0
M  V30 3089 O 296.251 3.46548 0.823594 0
M  V30 3090 O 295.11 5.25318 1.50675 0
M  V30 3091 H 292.204 0.78441 0.261973 0
M  V30 3092 H 294.75 1.68231 -0.222802 0
M  V30 3093 H 293.522 3.90874 -0.182561 0
M  V30 3094 H 293.145 3.67543 1.51651 0
M  V30 3095 N 294.142 -0.090211 1.57342 0
M  V30 3096 C 295.075 -1.14035 1.97664 0
M  V30 3097 C 296.053 -1.38576 0.850616 0
M  V30 3098 O 297.237 -1.52255 1.11134 0
M  V30 3099 C 294.364 -2.48854 2.2976 0
M  V30 3100 C 293.41 -2.40564 3.52181 0
M  V30 3101 S 294.243 -1.81745 5.03715 0
M  V30 3102 C 295.399 -3.18178 5.38993 0
M  V30 3103 H 295.632 -0.796636 2.86428 0
M  V30 3104 H 293.165 -0.298072 1.51496 0
M  V30 3105 H 295.123 -3.26413 2.48927 0
M  V30 3106 H 293.784 -2.80393 1.41558 0
M  V30 3107 H 292.977 -3.39942 3.72096 0
M  V30 3108 H 292.579 -1.71135 3.32549 0
M  V30 3109 H 294.871 -4.14461 5.35937 0
M  V30 3110 H 295.814 -3.03062 6.39968 0
M  V30 3111 H 296.222 -3.17935 4.66452 0
M  V30 3112 N 295.62 -1.53406 -0.361157 0
M  V30 3113 C 296.85 -1.73465 -1.1222 0
M  V30 3114 C 297.258 -0.465486 -1.83384 0
M  V30 3115 O 296.601 0.571611 -1.7458 0
M  V30 3116 C 296.663 -2.84834 -2.19339 0
M  V30 3117 C 296.327 -4.25038 -1.67903 0
M  V30 3118 C 297.324 -5.07231 -1.14074 0
M  V30 3119 C 295.009 -4.71464 -1.73282 0
M  V30 3120 C 297.003 -6.33942 -0.663068 0
M  V30 3121 C 294.69 -5.98153 -1.25127 0
M  V30 3122 C 295.688 -6.79223 -0.717296 0
M  V30 3123 O 295.376 -8.03533 -0.242865 0
M  V30 3124 H 295.108 -0.583526 -0.341283 0
M  V30 3125 H 297.662 -2.00964 -0.424591 0
M  V30 3126 H 295.892 -2.5282 -2.92607 0
M  V30 3127 H 297.581 -2.9303 -2.80871 0
M  V30 3128 H 298.347 -4.72534 -1.09254 0
M  V30 3129 H 294.226 -4.08432 -2.13786 0
M  V30 3130 H 297.77 -6.97167 -0.245612 0
M  V30 3131 H 293.667 -6.32347 -1.29642 0
M  V30 3132 H 294.435 -8.177 -0.361786 0
M  V30 3133 N 297.098 0.621204 -1.44841 0
M  V30 3134 C 298.344 1.3826 -1.48365 0
M  V30 3135 C 298.677 1.93831 -0.119624 0
M  V30 3136 O 297.952 1.74251 0.864111 0
M  V30 3137 C 298.235 2.54058 -2.55199 0
M  V30 3138 C 298.088 2.03772 -4.00995 0
M  V30 3139 C 299.407 3.56225 -2.58442 0
M  V30 3140 H 296.526 0.501374 -0.540179 0
M  V30 3141 H 299.168 0.7015 -1.76576 0
M  V30 3142 H 297.318 3.12162 -2.31274 0
M  V30 3143 H 298.99 1.50423 -4.36086 0
M  V30 3144 H 297.233 1.34876 -4.12299 0
M  V30 3145 H 297.904 2.87185 -4.71411 0
M  V30 3146 H 300.38 3.07939 -2.79844 0
M  V30 3147 H 299.256 4.34756 -3.3508 0
M  V30 3148 H 299.517 4.10949 -1.63013 0
M  V30 3149 N 298.576 1.31904 0.862503 0
M  V30 3150 C 299.506 1.22782 1.98612 0
M  V30 3151 C 300.487 0.113362 1.69722 0
M  V30 3152 O 301.672 0.299218 1.91881 0
M  V30 3153 C 298.802 0.942058 3.34279 0
M  V30 3154 C 297.756 2.0169 3.77499 0
M  V30 3155 C 297.082 1.58369 5.10709 0
M  V30 3156 C 298.382 3.43096 3.93805 0
M  V30 3157 H 300.076 2.16788 2.06502 0
M  V30 3158 H 297.622 1.04366 0.992154 0
M  V30 3159 H 299.575 0.864818 4.1243 0
M  V30 3160 H 298.299 -0.0336603 3.26583 0
M  V30 3161 H 296.958 2.08416 3.01593 0
M  V30 3162 H 296.606 0.595628 4.99461 0
M  V30 3163 H 296.306 2.30279 5.40597 0
M  V30 3164 H 297.83 1.52067 5.91361 0
M  V30 3165 H 299.244 3.39003 4.62331 0
M  V30 3166 H 297.641 4.13288 4.35101 0
M  V30 3167 H 298.711 3.83334 2.96957 0
M  V30 3168 N 300.054 -1.07777 1.14986 0
M  V30 3169 C 301.002 -2.16964 0.838406 0
M  V30 3170 C 301.996 -1.68372 -0.186386 0
M  V30 3171 O 303.202 -1.79951 -0.0418465 0
M  V30 3172 H 299.577 -0.708006 0.253439 0
M  V30 3173 H 301.548 -2.40454 1.76704 0
M  V30 3174 C 300.297 -3.4604 0.339335 0
M  V30 3175 H 299.62 -3.83813 1.11927 0
M  V30 3176 H 301.06 -4.23698 0.160021 0
M  V30 3177 C 299.519 -3.23569 -0.938325 0
M  V30 3178 O 300.049 -3.47752 -2.01077 0
M  V30 3179 N 298.255 -2.77079 -0.876117 0
M  V30 3180 H 297.802 -2.576 -0.00322037 0
M  V30 3181 H 297.76 -2.62422 -1.73153 0
M  V30 3182 N 301.532 -0.945985 -1.26051 0
M  V30 3183 C 302.943 -0.638096 -1.75457 0
M  V30 3184 C 303.294 0.846672 -1.76991 0
M  V30 3185 O 302.419 1.66262 -1.38513 0
M  V30 3186 C 303.014 -1.15157 -3.18629 0
M  V30 3187 C 301.573 -0.894004 -3.65629 0
M  V30 3188 C 300.72 -1.29967 -2.44957 0
M  V30 3189 H 303.671 -1.12376 -1.1206 0
M  V30 3190 H 303.692 -0.507615 -3.77099 0
M  V30 3191 H 303.204 -2.23222 -3.1748 0
M  V30 3192 H 301.305 0.172057 -3.72203 0
M  V30 3193 H 301.418 -1.52439 -4.54202 0
M  V30 3194 H 299.782 -0.718078 -2.44368 0
M  V30 3195 H 300.565 -2.38935 -2.46505 0
M  V30 3196 N 303.011 1.40521 -0.713556 0
M  V30 3197 C 304.257 2.01221 -0.252564 0
M  V30 3198 C 304.59 1.56444 1.1506 0
M  V30 3199 O 303.865 0.783597 1.78017 0
M  V30 3200 C 304.148 3.58582 -0.330332 0
M  V30 3201 C 304.001 4.13437 -1.77173 0
M  V30 3202 C 305.32 4.39079 0.299641 0
M  V30 3203 H 302.439 0.731077 -0.0932471 0
M  V30 3204 H 305.081 1.67026 -0.905673 0
M  V30 3205 H 303.231 3.87844 0.225737 0
M  V30 3206 H 304.903 3.9498 -2.38303 0
M  V30 3207 H 303.146 3.67801 -2.3001 0
M  V30 3208 H 303.817 5.22597 -1.77755 0
M  V30 3209 H 306.293 4.15735 -0.174139 0
M  V30 3210 H 305.169 5.4848 0.214771 0
M  V30 3211 H 305.43 4.19915 1.38288 0
M  V30 3212 N 304.489 0.459591 1.5075 0
M  V30 3213 C 305.436 -0.340524 2.28274 0
M  V30 3214 C 306.406 -0.997371 1.32822 0
M  V30 3215 O 307.591 -1.01202 1.61749 0
M  V30 3216 C 304.731 -1.42317 3.14388 0
M  V30 3217 C 303.844 -0.782251 4.24859 0
M  V30 3218 C 302.979 -1.84182 4.98247 0
M  V30 3219 C 302.018 -1.18053 6.00608 0
M  V30 3220 N 301.155 -2.18244 6.67319 0
M  V30 3221 H 305.995 0.326899 2.96202 0
M  V30 3222 H 303.532 0.173057 1.46078 0
M  V30 3223 H 305.49 -2.06241 3.62658 0
M  V30 3224 H 304.12 -2.05992 2.4853 0
M  V30 3225 H 303.172 -0.0307404 3.80388 0
M  V30 3226 H 304.484 -0.259663 4.98124 0
M  V30 3227 H 303.638 -2.55714 5.50177 0
M  V30 3228 H 302.377 -2.39819 4.24662 0
M  V30 3229 H 301.382 -0.450776 5.47949 0
M  V30 3230 H 302.607 -0.631202 6.7616 0
M  V30 3231 H 300.553 -2.72919 5.96533 0
M  V30 3232 H 300.47 -1.70938 7.36421 0
M  V30 3233 H 301.738 -2.89191 7.23871 0
M  V30 3234 N 305.967 -1.56429 0.191757 0
M  V30 3235 C 307.244 -1.89224 -0.495332 0
M  V30 3236 C 307.624 -1.10478 -1.79883 0
M  V30 3237 O 306.972 -0.204852 -2.2758 0
M  V30 3238 C 307.182 -3.41548 -0.717367 0
M  V30 3239 C 308.53 -4.11711 -1.03823 0
M  V30 3240 O 309.554 -3.4698 -0.805204 0
M  V30 3241 O 308.413 -5.2611 -1.47887 0
M  V30 3242 H 305.507 -0.785788 -0.25781 0
M  V30 3243 H 308.053 -1.68111 0.231721 0
M  V30 3244 H 306.825 -3.90772 0.203287 0
M  V30 3245 H 306.448 -3.68342 -1.497 0
M  V30 3246 N 307.445 0.0818655 -1.57387 0
M  V30 3247 C 308.67 0.799946 -1.91352 0
M  V30 3248 C 309.095 1.70833 -0.787258 0
M  V30 3249 O 308.453 1.79419 0.26048 0
M  V30 3250 C 308.501 1.57812 -3.24234 0
M  V30 3251 O 307.605 2.68806 -3.12757 0
M  V30 3252 H 306.946 0.21891 -0.626877 0
M  V30 3253 H 309.476 0.0531256 -2.04531 0
M  V30 3254 H 309.486 1.95952 -3.57864 0
M  V30 3255 H 308.161 0.911548 -4.05788 0
M  V30 3256 H 306.738 2.33597 -2.90666 0
M  V30 3257 N 308.923 1.53595 0.353017 0
M  V30 3258 C 309.87 1.80919 1.43308 0
M  V30 3259 C 310.84 0.654288 1.5267 0
M  V30 3260 O 312.025 0.897759 1.6836 0
M  V30 3261 C 309.165 2.01605 2.80089 0
M  V30 3262 C 308.278 3.29321 2.79593 0
M  V30 3263 C 307.413 3.40125 4.0803 0
M  V30 3264 C 306.452 4.61826 4.01725 0
M  V30 3265 N 305.589 4.69716 5.21834 0
M  V30 3266 H 310.429 2.73074 1.19308 0
M  V30 3267 H 307.966 1.35263 0.578131 0
M  V30 3268 H 309.924 2.11586 3.59565 0
M  V30 3269 H 308.554 1.12772 3.0246 0
M  V30 3270 H 307.606 3.28229 1.92276 0
M  V30 3271 H 308.918 4.18884 2.70809 0
M  V30 3272 H 308.072 3.49488 4.95927 0
M  V30 3273 H 306.811 2.48601 4.19582 0
M  V30 3274 H 305.816 4.52552 3.12213 0
M  V30 3275 H 307.041 5.54705 3.91764 0
M  V30 3276 H 304.987 3.81097 5.33948 0
M  V30 3277 H 304.904 5.53202 5.1527 0
M  V30 3278 H 306.172 4.83376 6.11529 0
M  V30 3279 N 310.401 -0.613514 1.45168 0
M  V30 3280 C 311.311 -1.75296 1.55912 0
M  V30 3281 C 312.327 -1.68244 0.443856 0
M  V30 3282 O 313.503 -1.88706 0.70371 0
M  V30 3283 C 310.568 -3.1174 1.5172 0
M  V30 3284 C 309.629 -3.30291 2.74238 0
M  V30 3285 C 308.862 -4.60226 2.70236 0
M  V30 3286 O 309.085 -5.42168 1.77229 0
M  V30 3287 O 308.019 -4.81361 3.61352 0
M  V30 3288 H 311.845 -1.69183 2.52212 0
M  V30 3289 H 309.43 -0.776886 1.27612 0
M  V30 3290 H 311.312 -3.93044 1.51968 0
M  V30 3291 H 309.987 -3.18357 0.585697 0
M  V30 3292 H 308.894 -2.48598 2.79553 0
M  V30 3293 H 310.227 -3.28547 3.66494 0
M  V30 3294 N 311.879 -1.3236 -0.855495 0
M  V30 3295 C 312.812 -1.15559 -1.96777 0
M  V30 3296 C 313.79 -0.0552681 -1.62506 0
M  V30 3297 O 314.974 -0.214419 -1.87277 0
M  V30 3298 C 312.101 -0.768851 -3.29858 0
M  V30 3299 C 311.147 -1.87429 -3.83109 0
M  V30 3300 S 311.98 -3.48243 -4.06801 0
M  V30 3301 C 313.136 -3.11539 -5.42858 0
M  V30 3302 H 313.369 -2.09717 -2.10727 0
M  V30 3303 H 310.902 -1.17011 -1.00737 0
M  V30 3304 H 312.86 -0.55248 -4.06765 0
M  V30 3305 H 311.521 0.153857 -3.13723 0
M  V30 3306 H 310.714 -1.55667 -4.79358 0
M  V30 3307 H 310.316 -2.04647 -3.13042 0
M  V30 3308 H 312.608 -2.61331 -6.2507 0
M  V30 3309 H 313.551 -4.06806 -5.79582 0
M  V30 3310 H 313.959 -2.48582 -5.06821 0
M  V30 3311 N 313.357 1.07166 -1.15556 0
M  V30 3312 C 314.289 2.14341 -0.811815 0
M  V30 3313 C 315.302 1.61835 0.177015 0
M  V30 3314 O 316.491 1.78439 -0.0464996 0
M  V30 3315 C 313.591 3.38387 -0.186481 0
M  V30 3316 C 312.764 4.20238 -1.21321 0
M  V30 3317 C 311.823 5.2266 -0.609302 0
M  V30 3318 O 310.849 5.54719 -1.27576 0
M  V30 3319 N 312.051 5.77306 0.608099 0
M  V30 3320 H 314.816 2.44431 -1.73417 0
M  V30 3321 H 312.377 1.23089 -1.0517 0
M  V30 3322 H 314.369 4.04044 0.230339 0
M  V30 3323 H 312.939 3.05994 0.639249 0
M  V30 3324 H 312.159 3.50369 -1.80652 0
M  V30 3325 H 313.447 4.71736 -1.90638 0
M  V30 3326 H 312.845 5.53513 1.1679 0
M  V30 3327 H 311.402 6.44583 0.96725 0
M  V30 3328 N 314.835 0.952656 1.25548 0
M  V30 3329 C 316.082 0.606373 1.93208 0
M  V30 3330 C 316.41 -0.85631 1.74636 0
M  V30 3331 O 315.665 -1.62951 1.08376 0
M  V30 3332 C 315.964 0.908818 3.45652 0
M  V30 3333 C 315.63 2.35722 3.84378 0
M  V30 3334 C 314.292 2.75312 3.9466 0
M  V30 3335 C 316.644 3.29793 4.03591 0
M  V30 3336 C 313.972 4.08047 4.21562 0
M  V30 3337 C 316.324 4.62138 4.31985 0
M  V30 3338 C 314.988 5.01528 4.40484 0
M  V30 3339 H 314.258 0.221888 0.706998 0
M  V30 3340 H 316.905 1.20132 1.49133 0
M  V30 3341 H 315.21 0.231456 3.91116 0
M  V30 3342 H 316.907 0.619498 3.96186 0
M  V30 3343 H 313.497 2.04017 3.76928 0
M  V30 3344 H 317.681 3.00397 3.95064 0
M  V30 3345 H 312.937 4.38212 4.26357 0
M  V30 3346 H 317.111 5.35012 4.45797 0
M  V30 3347 H 314.738 6.04406 4.61083 0
M  V30 3348 N 316.313 -1.40141 0.720998 0
M  V30 3349 C 317.243 -2.33339 0.0867621 0
M  V30 3350 C 318.224 -1.53178 -0.739622 0
M  V30 3351 O 319.409 -1.81625 -0.687449 0
M  V30 3352 C 316.539 -3.37194 -0.831728 0
M  V30 3353 C 315.493 -4.27857 -0.110558 0
M  V30 3354 C 314.819 -5.22294 -1.14513 0
M  V30 3355 C 316.119 -5.11872 1.0385 0
M  V30 3356 H 317.813 -2.86626 0.865219 0
M  V30 3357 H 315.359 -1.37814 0.417516 0
M  V30 3358 H 317.312 -4.01335 -1.28485 0
M  V30 3359 H 316.036 -2.82314 -1.64214 0
M  V30 3360 H 314.695 -3.65176 0.322797 0
M  V30 3361 H 314.343 -4.63717 -1.94874 0
M  V30 3362 H 314.043 -5.83797 -0.667446 0
M  V30 3363 H 315.567 -5.89312 -1.59824 0
M  V30 3364 H 316.981 -5.69436 0.664482 0
M  V30 3365 H 315.378 -5.82445 1.4449 0
M  V30 3366 H 316.448 -4.4753 1.86668 0
M  V30 3367 N 317.792 -0.46758 -1.50504 0
M  V30 3368 C 318.725 0.374324 -2.25109 0
M  V30 3369 C 319.703 0.99921 -1.28275 0
M  V30 3370 O 320.887 1.03583 -1.57489 0
M  V30 3371 C 318.014 1.52419 -3.02467 0
M  V30 3372 C 317.06 1.01702 -4.14197 0
M  V30 3373 S 317.893 -0.0654477 -5.3546 0
M  V30 3374 C 319.049 1.08837 -6.16365 0
M  V30 3375 H 319.282 -0.258983 -2.9617 0
M  V30 3376 H 316.815 -0.252421 -1.52323 0
M  V30 3377 H 318.773 2.18322 -3.47628 0
M  V30 3378 H 317.434 2.129 -2.30938 0
M  V30 3379 H 316.627 1.87776 -4.67714 0
M  V30 3380 H 316.229 0.435757 -3.71453 0
M  V30 3381 H 318.521 2.00071 -6.47285 0
M  V30 3382 H 319.464 0.592538 -7.05616 0
M  V30 3383 H 319.872 1.34061 -5.4835 0
M  V30 3384 N 319.27 1.56325 -0.20005 0
M  V30 3385 C 320.202 2.16555 0.750771 0
M  V30 3386 C 321.215 1.12871 1.1732 0
M  V30 3387 O 322.404 1.39943 1.10807 0
M  V30 3388 C 319.504 2.71684 2.02586 0
M  V30 3389 C 318.677 4.00321 1.76244 0
M  V30 3390 C 317.736 4.40227 2.88248 0
M  V30 3391 O 316.762 5.07552 2.57642 0
M  V30 3392 N 317.964 4.04138 4.16717 0
M  V30 3393 H 320.729 2.98772 0.235685 0
M  V30 3394 H 318.29 1.6189 -0.0182594 0
M  V30 3395 H 320.282 2.95363 2.76664 0
M  V30 3396 H 318.852 1.93893 2.45202 0
M  V30 3397 H 318.072 3.84723 0.85919 0
M  V30 3398 H 319.36 4.84279 1.56048 0
M  V30 3399 H 318.758 3.49993 4.44434 0
M  V30 3400 H 317.315 4.32756 4.87407 0
M  V30 3401 N 320.748 -0.0735177 1.57428 0
M  V30 3402 C 321.695 -1.08756 2.0357 0
M  V30 3403 C 322.665 -1.38559 0.916 0
M  V30 3404 O 323.85 -1.49656 1.18354 0
M  V30 3405 C 320.99 -2.39657 2.48311 0
M  V30 3406 C 320.103 -2.16399 3.73892 0
M  V30 3407 C 319.238 -3.40852 4.07423 0
M  V30 3408 C 318.277 -3.1295 5.2605 0
M  V30 3409 N 317.414 -4.29729 5.55228 0
M  V30 3410 H 322.254 -0.687104 2.8997 0
M  V30 3411 H 319.791 -0.327709 1.43403 0
M  V30 3412 H 321.749 -3.16081 2.72303 0
M  V30 3413 H 320.379 -2.77508 1.64891 0
M  V30 3414 H 319.431 -1.30676 3.57251 0
M  V30 3415 H 320.743 -1.91788 4.60455 0
M  V30 3416 H 319.897 -4.25671 4.32306 0
M  V30 3417 H 318.636 -3.68537 3.19425 0
M  V30 3418 H 317.641 -2.26526 5.00965 0
M  V30 3419 H 318.866 -2.86589 6.15665 0
M  V30 3420 H 316.812 -4.57448 4.70188 0
M  V30 3421 H 316.729 -4.08385 6.36206 0
M  V30 3422 H 317.997 -5.1555 5.84661 0
M  V30 3423 N 322.226 -1.5378 -0.344866 0
M  V30 3424 C 323.472 -1.72158 -1.0832 0
M  V30 3425 C 323.827 -0.478218 -1.86362 0
M  V30 3426 O 323.12 0.529152 -1.84148 0
M  V30 3427 C 323.314 -2.92407 -2.05506 0
M  V30 3428 C 323.143 -4.28318 -1.37017 0
M  V30 3429 C 321.913 -4.92832 -1.11558 0
M  V30 3430 C 324.111 -5.08086 -0.797071 0
M  V30 3431 N 322.093 -6.12619 -0.396358 0
M  V30 3432 C 323.464 -6.1965 -0.208336 0
M  V30 3433 C 325.519 -4.92986 -0.697787 0
M  V30 3434 C 324.222 -7.17763 0.470023 0
M  V30 3435 C 326.248 -5.91391 -0.033171 0
M  V30 3436 C 325.61 -7.02292 0.544599 0
M  V30 3437 H 321.709 -0.683017 -0.380805 0
M  V30 3438 H 324.293 -1.91211 -0.366961 0
M  V30 3439 H 322.464 -2.74857 -2.74423 0
M  V30 3440 H 324.196 -2.9951 -2.72169 0
M  V30 3441 H 320.951 -4.52362 -1.40234 0
M  V30 3442 H 321.375 -6.7698 -0.0515119 0
M  V30 3443 H 326.017 -4.07414 -1.13022 0
M  V30 3444 H 323.735 -8.0291 0.914351 0
M  V30 3445 H 327.321 -5.81784 0.0430009 0
M  V30 3446 H 326.201 -7.77129 1.05073 0
M  V30 3447 N 323.704 0.605807 -1.45491 0
M  V30 3448 C 324.667 1.69836 -1.5391 0
M  V30 3449 C 325.667 1.55261 -0.418424 0
M  V30 3450 O 326.857 1.60296 -0.681965 0
M  V30 3451 C 323.989 3.09117 -1.43734 0
M  V30 3452 H 325.182 1.63738 -2.51257 0
M  V30 3453 H 322.735 0.821689 -1.32959 0
M  V30 3454 H 323.47 3.20791 -0.475788 0
M  V30 3455 H 323.255 3.21104 -2.25021 0
M  V30 3456 H 324.745 3.88696 -1.52661 0
M  V30 3457 N 325.182 1.32811 0.848464 0
M  V30 3458 C 326.43 1.23479 1.59991 0
M  V30 3459 C 326.751 -0.201853 1.93952 0
M  V30 3460 O 326.021 -1.12818 1.60153 0
M  V30 3461 H 324.601 0.454034 0.593179 0
M  V30 3462 H 327.263 1.66412 1.01455 0
M  V30 3463 H 326.359 1.82178 2.53412 0
M  V30 3464 N 326.66 -1.06551 1.16123 0
M  V30 3465 C 327.608 -2.16063 0.861371 0
M  V30 3466 C 328.602 -1.6856 -0.168517 0
M  V30 3467 O 329.808 -1.79986 -0.0227579 0
M  V30 3468 H 326.183 -0.705278 0.260934 0
M  V30 3469 H 328.154 -2.38567 1.79244 0
M  V30 3470 C 326.903 -3.45661 0.376018 0
M  V30 3471 H 326.226 -3.82604 1.15992 0
M  V30 3472 H 327.666 -4.23504 0.204951 0
M  V30 3473 C 326.125 -3.24546 -0.903954 0
M  V30 3474 O 326.655 -3.49865 -1.97377 0
M  V30 3475 N 324.861 -2.77992 -0.846679 0
M  V30 3476 H 324.408 -2.57589 0.0241017 0
M  V30 3477 H 324.366 -2.64244 -1.70359 0
M  V30 3478 N 328.138 -0.959301 -1.25041 0
M  V30 3479 C 329.363 -0.633507 -1.97488 0
M  V30 3480 C 329.788 0.788555 -1.70773 0
M  V30 3481 O 329.146 1.53394 -0.966431 0
M  V30 3482 C 329.194 -0.904057 -3.49083 0
M  V30 3483 O 328.298 0.0147939 -4.12397 0
M  V30 3484 H 327.639 -0.240368 -0.618966 0
M  V30 3485 H 330.169 -1.28717 -1.59038 0
M  V30 3486 H 330.179 -0.832203 -3.99423 0
M  V30 3487 H 328.854 -1.94048 -3.67856 0
M  V30 3488 H 327.431 -0.109664 -3.72739 0
M  V30 3489 N 329.616 1.39756 -0.72842 0
M  V30 3490 C 330.563 2.30647 -0.0841519 0
M  V30 3491 C 331.533 1.48869 0.7367 0
M  V30 3492 O 332.718 1.77574 0.698015 0
M  V30 3493 C 329.858 3.35165 0.822091 0
M  V30 3494 C 328.971 4.31999 -0.0106663 0
M  V30 3495 C 328.106 5.23585 0.896241 0
M  V30 3496 C 327.145 6.12072 0.0583381 0
M  V30 3497 N 326.282 6.96035 0.920818 0
M  V30 3498 H 331.122 2.85173 -0.864891 0
M  V30 3499 H 328.659 1.40422 -0.438179 0
M  V30 3500 H 330.617 3.94345 1.36189 0
M  V30 3501 H 329.247 2.8211 1.56888 0
M  V30 3502 H 328.299 3.74492 -0.66781 0
M  V30 3503 H 329.611 4.9443 -0.658825 0
M  V30 3504 H 328.765 5.87759 1.50412 0
M  V30 3505 H 327.504 4.61459 1.57819 0
M  V30 3506 H 326.509 5.46916 -0.562389 0
M  V30 3507 H 327.734 6.76261 -0.6203 0
M  V30 3508 H 325.68 6.36485 1.58818 0
M  V30 3509 H 325.597 7.55284 0.32899 0
M  V30 3510 H 326.865 7.64646 1.51447 0
M  V30 3511 N 331.094 0.475555 1.50254 0
M  V30 3512 C 332.057 -0.305016 2.27161 0
M  V30 3513 C 333.057 -0.916519 1.32123 0
M  V30 3514 O 334.247 -0.785003 1.5551 0
M  V30 3515 C 331.379 -1.43496 3.09227 0
M  V30 3516 H 332.572 0.369511 2.97615 0
M  V30 3517 H 330.125 0.229747 1.54602 0
M  V30 3518 H 330.86 -2.14441 2.43281 0
M  V30 3519 H 330.645 -1.00223 3.79075 0
M  V30 3520 H 332.135 -1.98548 3.67381 0
M  V30 3521 N 332.573 -1.56217 0.208337 0
M  V30 3522 C 333.52 -2.19699 -0.707192 0
M  V30 3523 C 334.49 -1.14836 -1.20008 0
M  V30 3524 O 335.675 -1.4314 -1.26157 0
M  V30 3525 C 332.815 -2.87061 -1.91546 0
M  V30 3526 C 331.928 -4.06483 -1.46271 0
M  V30 3527 C 331.063 -4.61665 -2.62752 0
M  V30 3528 C 330.102 -5.73417 -2.14147 0
M  V30 3529 N 329.239 -6.22948 -3.23853 0
M  V30 3530 H 334.079 -2.97575 -0.159111 0
M  V30 3531 H 331.616 -1.46948 -0.0667874 0
M  V30 3532 H 333.574 -3.24294 -2.62468 0
M  V30 3533 H 332.204 -2.11725 -2.43664 0
M  V30 3534 H 331.256 -3.74825 -0.648886 0
M  V30 3535 H 332.568 -4.87271 -1.06622 0
M  V30 3536 H 331.722 -5.01272 -3.41776 0
M  V30 3537 H 330.461 -3.80013 -3.05682 0
M  V30 3538 H 329.466 -5.33326 -1.33581 0
M  V30 3539 H 330.691 -6.56897 -1.72232 0
M  V30 3540 H 328.637 -5.44213 -3.6629 0
M  V30 3541 H 328.554 -6.98823 -2.88414 0
M  V30 3542 H 329.822 -6.6721 -4.03052 0
M  V30 3543 N 334.051 0.0651679 -1.57465 0
M  V30 3544 C 335.279 0.775808 -1.91804 0
M  V30 3545 C 335.694 1.70782 -0.804916 0
M  V30 3546 O 335.051 1.81153 0.221311 0
M  V30 3547 C 335.102 1.56381 -3.25925 0
M  V30 3548 O 334.823 0.669248 -4.32958 0
M  V30 3549 C 336.324 2.37485 -3.7432 0
M  V30 3550 H 333.544 0.2202 -0.63384 0
M  V30 3551 H 336.088 0.0334587 -2.04473 0
M  V30 3552 H 334.243 2.25837 -3.14764 0
M  V30 3553 H 334.657 1.21801 -5.10162 0
M  V30 3554 H 336.131 2.88223 -4.70778 0
M  V30 3555 H 336.608 3.17307 -3.03666 0
M  V30 3556 H 337.214 1.73173 -3.88447 0
M  V30 3557 N 335.529 1.53961 0.336706 0
M  V30 3558 C 336.777 1.71197 1.07405 0
M  V30 3559 C 337.098 0.481475 1.88962 0
M  V30 3560 O 336.368 -0.504585 1.8929 0
M  V30 3561 H 334.948 0.631185 0.399517 0
M  V30 3562 H 337.61 1.91232 0.376323 0
M  V30 3563 H 336.706 2.58587 1.74755 0
M  V30 3564 N 337.007 -0.598083 1.45811 0
M  V30 3565 C 338.256 -1.35295 1.49594 0
M  V30 3566 C 338.569 -1.95057 0.145679 0
M  V30 3567 O 339.775 -2.71431 0.0612099 0
M  V30 3568 C 338.231 -2.45124 2.63519 0
M  V30 3569 C 337.839 -1.91732 4.04899 0
M  V30 3570 C 339.583 -3.2205 2.76558 0
M  V30 3571 C 337.49 -2.991 5.1019 0
M  V30 3572 H 336.42 -0.508552 0.556679 0
M  V30 3573 H 339.071 -0.639977 1.71978 0
M  V30 3574 H 337.453 -3.19149 2.34435 0
M  V30 3575 H 338.627 -1.24352 4.43704 0
M  V30 3576 H 336.942 -1.27522 3.96393 0
M  V30 3577 H 339.539 -4.0215 3.52391 0
M  V30 3578 H 339.882 -3.73663 1.83526 0
M  V30 3579 H 340.415 -2.55127 3.05213 0
M  V30 3580 H 337.154 -2.52393 6.04961 0
M  V30 3581 H 336.674 -3.65017 4.75944 0
M  V30 3582 H 338.353 -3.63318 5.35359 0
M  V30 3583 N 338.485 -1.33259 -0.841409 0
M  V30 3584 C 339.731 -1.24757 -1.59886 0
M  V30 3585 C 340.064 0.186913 -1.93298 0
M  V30 3586 O 339.339 1.12757 -1.5848 0
M  V30 3587 C 339.622 -2.12036 -2.91055 0
M  V30 3588 C 339.475 -3.63929 -2.6434 0
M  V30 3589 C 340.794 -1.9916 -3.92458 0
M  V30 3590 H 337.913 -0.454542 -0.580138 0
M  V30 3591 H 340.555 -1.63335 -0.970647 0
M  V30 3592 H 338.705 -1.79265 -3.44669 0
M  V30 3593 H 340.377 -4.06978 -2.17178 0
M  V30 3594 H 338.62 -3.85935 -1.98082 0
M  V30 3595 H 339.291 -4.20341 -3.57796 0
M  V30 3596 H 341.767 -2.27895 -3.48143 0
M  V30 3597 H 340.643 -2.62484 -4.82072 0
M  V30 3598 H 340.904 -0.963082 -4.31482 0
M  V30 3599 N 339.963 1.05934 -1.16686 0
M  V30 3600 C 340.893 2.1546 -0.899949 0
M  V30 3601 C 341.874 1.69391 0.155154 0
M  V30 3602 O 343.059 1.94199 0.00648693 0
M  V30 3603 C 340.189 3.44939 -0.404241 0
M  V30 3604 C 339.143 4.04536 -1.39767 0
M  V30 3605 C 338.469 5.29268 -0.760216 0
M  V30 3606 C 339.769 4.42893 -2.76845 0
M  V30 3607 H 341.463 2.38046 -1.81588 0
M  V30 3608 H 339.009 1.14404 -0.874514 0
M  V30 3609 H 340.962 4.20901 -0.204971 0
M  V30 3610 H 339.686 3.21983 0.547206 0
M  V30 3611 H 338.345 3.30635 -1.58355 0
M  V30 3612 H 337.993 5.02611 0.197831 0
M  V30 3613 H 337.693 5.70101 -1.42332 0
M  V30 3614 H 339.217 6.07924 -0.57105 0
M  V30 3615 H 340.631 5.09921 -2.62019 0
M  V30 3616 H 339.028 4.94721 -3.39663 0
M  V30 3617 H 340.098 3.53584 -3.31823 0
M  V30 3618 N 341.441 0.965919 1.2453 0
M  V30 3619 C 342.852 0.665929 1.7442 0
M  V30 3620 C 343.203 -0.818407 1.78316 0
M  V30 3621 O 342.328 -1.64037 1.41141 0
M  V30 3622 C 342.923 1.20211 3.16757 0
M  V30 3623 C 341.482 0.952059 3.6416 0
M  V30 3624 C 340.629 1.33848 2.42858 0
M  V30 3625 H 343.58 1.14144 1.10258 0
M  V30 3626 H 343.601 0.567544 3.76244 0
M  V30 3627 H 343.113 2.28244 3.13889 0
M  V30 3628 H 341.214 -0.112821 3.72429 0
M  V30 3629 H 341.327 1.59645 4.51719 0
M  V30 3630 H 339.691 0.756864 2.43195 0
M  V30 3631 H 340.474 2.42827 2.42673 0
M  V30 3632 N 342.919 -1.39368 0.735821 0
M  V30 3633 C 343.867 -2.32443 0.0855131 0
M  V30 3634 C 344.861 -1.53104 -0.724954 0
M  V30 3635 O 346.067 -1.68762 -0.626047 0
M  V30 3636 H 342.442 -0.751948 0.00885257 0
M  V30 3637 H 344.413 -2.84916 0.886883 0
M  V30 3638 C 343.162 -3.38206 -0.806983 0
M  V30 3639 H 342.485 -3.99335 -0.19274 0
M  V30 3640 H 343.925 -4.05779 -1.2296 0
M  V30 3641 C 342.384 -2.75321 -1.94165 0
M  V30 3642 O 342.914 -2.63231 -3.03435 0
M  V30 3643 N 341.12 -2.33396 -1.73132 0
M  V30 3644 H 340.667 -2.4343 -0.842596 0
M  V30 3645 H 340.625 -1.91661 -2.49225 0
M  V30 3646 N 344.397 -0.483516 -1.5 0
M  V30 3647 C 345.645 0.067027 -2.01989 0
M  V30 3648 C 345.966 1.3909 -1.36671 0
M  V30 3649 O 345.236 1.88978 -0.516152 0
M  V30 3650 H 343.816 0.0277606 -0.746484 0
M  V30 3651 H 346.478 -0.636773 -1.84204 0
M  V30 3652 H 345.574 0.209484 -3.11396 0
M  V30 3653 N 345.875 1.56104 -0.216619 0
M  V30 3654 C 346.822 2.2007 0.695531 0
M  V30 3655 C 347.792 1.15471 1.19397 0
M  V30 3656 O 348.977 1.43807 1.25396 0
M  V30 3657 C 346.117 2.88073 1.90021 0
M  V30 3658 C 345.23 4.07253 1.44113 0
M  V30 3659 C 344.365 4.63052 2.603 0
M  V30 3660 C 343.404 5.74545 2.11103 0
M  V30 3661 N 342.541 6.24656 3.20545 0
M  V30 3662 H 347.381 2.97655 0.143327 0
M  V30 3663 H 344.918 1.46982 0.0589934 0
M  V30 3664 H 346.876 3.25681 2.60745 0
M  V30 3665 H 345.506 2.13015 2.42538 0
M  V30 3666 H 344.558 3.75164 0.628999 0
M  V30 3667 H 345.87 4.8783 1.04036 0
M  V30 3668 H 345.024 5.03078 3.39113 0
M  V30 3669 H 343.763 3.81628 3.03663 0
M  V30 3670 H 342.768 5.34027 1.3075 0
M  V30 3671 H 343.993 6.57801 1.68746 0
M  V30 3672 H 341.939 5.46148 3.63399 0
M  V30 3673 H 341.856 7.00343 2.84704 0
M  V30 3674 H 343.124 6.69338 3.99508 0
M  V30 3675 N 347.353 -0.0568162 1.57498 0
M  V30 3676 C 348.263 -1.08346 2.08083 0
M  V30 3677 C 349.279 -1.41439 1.01346 0
M  V30 3678 O 350.455 -1.51316 1.32912 0
M  V30 3679 C 347.52 -2.37352 2.52715 0
M  V30 3680 C 346.581 -2.11093 3.73816 0
M  V30 3681 C 345.814 -3.33949 4.1631 0
M  V30 3682 O 346.037 -4.43622 3.58547 0
M  V30 3683 O 344.971 -3.21279 5.08983 0
M  V30 3684 H 348.797 -0.683667 2.95905 0
M  V30 3685 H 346.382 -0.271965 1.46904 0
M  V30 3686 H 348.264 -3.13246 2.81877 0
M  V30 3687 H 346.939 -2.76681 1.68016 0
M  V30 3688 H 345.846 -1.32856 3.49714 0
M  V30 3689 H 347.179 -1.76637 4.59413 0
M  V30 3690 N 348.832 -1.54138 -0.328536 0
M  V30 3691 C 349.795 -1.82462 -1.38709 0
M  V30 3692 C 350.795 -0.696229 -1.44946 0
M  V30 3693 O 351.985 -0.964535 -1.4506 0
M  V30 3694 C 349.117 -1.98018 -2.77492 0
M  V30 3695 H 350.31 -2.77037 -1.14851 0
M  V30 3696 H 347.863 -1.45779 -0.563751 0
M  V30 3697 H 348.598 -1.05637 -3.06613 0
M  V30 3698 H 348.383 -2.80124 -2.74359 0
M  V30 3699 H 349.873 -2.21396 -3.54081 0
M  V30 3700 N 350.31 0.590341 -1.46126 0
M  V30 3701 C 351.22 1.72793 -1.58681 0
M  V30 3702 C 352.236 1.67516 -0.470566 0
M  V30 3703 O 353.412 1.87562 -0.733642 0
M  V30 3704 C 350.477 3.09287 -1.5666 0
M  V30 3705 C 349.538 3.25886 -2.79458 0
M  V30 3706 C 348.771 4.55869 -2.77524 0
M  V30 3707 O 348.994 5.3928 -1.85832 0
M  V30 3708 O 347.928 4.75552 -3.68964 0
M  V30 3709 H 351.754 1.65149 -2.54872 0
M  V30 3710 H 349.339 0.756486 -1.28832 0
M  V30 3711 H 351.221 3.90577 -1.58202 0
M  V30 3712 H 349.896 3.17385 -0.636271 0
M  V30 3713 H 348.803 2.44119 -2.83472 0
M  V30 3714 H 350.136 3.22675 -3.71674 0
M  V30 3715 N 351.788 1.33704 0.83433 0
M  V30 3716 C 353.037 1.24763 1.58484 0
M  V30 3717 C 353.35 -0.183775 1.94735 0
M  V30 3718 O 354.556 -0.395234 2.68608 0
M  V30 3719 C 353.012 2.18638 2.85876 0
M  V30 3720 C 352.62 3.66974 2.56971 0
M  V30 3721 C 354.364 2.18581 3.63899 0
M  V30 3722 C 352.271 4.5275 3.80488 0
M  V30 3723 H 351.201 0.463425 0.594772 0
M  V30 3724 H 353.852 1.58797 0.919551 0
M  V30 3725 H 352.234 1.77542 3.5397 0
M  V30 3726 H 353.408 4.16538 1.9706 0
M  V30 3727 H 351.723 3.69366 1.92244 0
M  V30 3728 H 354.32 2.79894 4.55591 0
M  V30 3729 H 354.663 1.18207 3.99165 0
M  V30 3730 H 355.196 2.58062 3.02735 0
M  V30 3731 H 351.935 5.54017 3.5035 0
M  V30 3732 H 351.455 4.07927 4.39722 0
M  V30 3733 H 353.134 4.66784 4.4802 0
M  V30 3734 N 353.266 -1.05314 1.17247 0
M  V30 3735 C 354.491 -1.82509 0.985148 0
M  V30 3736 C 354.916 -1.82343 -0.461788 0
M  V30 3737 O 354.274 -1.23151 -1.33055 0
M  V30 3738 C 354.322 -3.26566 1.52929 0
M  V30 3739 O 353.426 -4.05666 0.742225 0
M  V30 3740 H 352.767 -0.564347 0.349869 0
M  V30 3741 H 355.297 -1.32718 1.55715 0
M  V30 3742 H 355.307 -3.77369 1.55103 0
M  V30 3743 H 353.982 -3.26001 2.58256 0
M  V30 3744 H 352.559 -3.64397 0.791794 0
M  V30 3745 N 354.744 -0.972509 -1.24016 0
M  V30 3746 C 355.99 -0.637978 -1.92504 0
M  V30 3747 C 356.323 0.825383 -1.75787 0
M  V30 3748 O 355.598 1.59442 -1.11393 0
M  V30 3749 C 355.881 -1.01942 -3.45369 0
M  V30 3750 C 355.734 -2.53983 -3.71231 0
M  V30 3751 C 357.053 -0.55751 -4.36555 0
M  V30 3752 H 354.172 -0.233248 -0.699117 0
M  V30 3753 H 356.814 -1.21238 -1.46292 0
M  V30 3754 H 354.964 -0.530656 -3.84859 0
M  V30 3755 H 356.636 -3.10374 -3.41271 0
M  V30 3756 H 354.879 -2.96968 -3.16216 0
M  V30 3757 H 355.55 -2.75723 -4.78206 0
M  V30 3758 H 358.026 -0.977029 -4.04467 0
M  V30 3759 H 356.902 -0.85292 -5.42233 0
M  V30 3760 H 357.163 0.542328 -4.38761 0
M  V30 3761 N 356.222 1.38976 -0.743202 0
M  V30 3762 C 357.633 1.83123 -0.363732 0
M  V30 3763 C 357.984 1.6205 1.10609 0
M  V30 3764 O 357.109 1.11606 1.854 0
M  V30 3765 C 357.704 3.32439 -0.653408 0
M  V30 3766 C 356.263 3.74974 -0.327338 0
M  V30 3767 C 355.41 2.61878 -0.911875 0
M  V30 3768 H 358.361 1.27852 -0.940191 0
M  V30 3769 H 358.382 3.80432 0.0720031 0
M  V30 3770 H 357.894 3.47745 -1.72323 0
M  V30 3771 H 355.995 3.65252 0.736314 0
M  V30 3772 H 356.108 4.72106 -0.815631 0
M  V30 3773 H 354.472 2.52448 -0.337944 0
M  V30 3774 H 355.255 2.79987 -1.98651 0
M  V30 3775 N 357.7 0.491464 1.49741 0
M  V30 3776 C 358.93 -0.0534375 2.06531 0
M  V30 3777 C 359.338 -1.32233 1.35318 0
M  V30 3778 O 358.681 -1.78781 0.422243 0
M  V30 3779 C 358.743 -0.387034 3.57411 0
M  V30 3780 C 358.407 0.782764 4.50246 0
M  V30 3781 C 359.404 1.67059 4.92329 0
M  V30 3782 C 357.089 0.978866 4.9267 0
M  V30 3783 C 359.083 2.73874 5.75562 0
M  V30 3784 C 356.77 2.05022 5.75682 0
M  V30 3785 C 357.768 2.92851 6.17031 0
M  V30 3786 O 357.456 3.98138 6.98385 0
M  V30 3787 H 357.188 0.0129324 0.675876 0
M  V30 3788 H 359.742 0.685238 1.93633 0
M  V30 3789 H 357.972 -1.17918 3.68283 0
M  V30 3790 H 359.661 -0.869419 3.96479 0
M  V30 3791 H 360.427 1.53086 4.60206 0
M  V30 3792 H 356.306 0.304646 4.59992 0
M  V30 3793 H 359.85 3.42458 6.07757 0
M  V30 3794 H 355.747 2.18993 6.07217 0
M  V30 3795 H 356.515 3.95374 7.16674 0
M  V30 3796 N 359.178 -1.55987 0.224894 0
M  V30 3797 C 360.108 -2.23426 -0.678457 0
M  V30 3798 C 361.089 -1.20709 -1.19847 0
M  V30 3799 O 362.274 -1.49304 -1.24186 0
M  V30 3800 C 359.404 -2.91676 -1.88527 0
M  V30 3801 C 358.358 -4.00893 -1.49896 0
M  V30 3802 C 357.684 -4.56455 -2.78483 0
M  V30 3803 C 358.984 -5.17769 -0.686461 0
M  V30 3804 H 360.678 -2.99175 -0.116173 0
M  V30 3805 H 358.224 -1.43897 -0.054436 0
M  V30 3806 H 360.177 -3.37547 -2.5227 0
M  V30 3807 H 358.901 -2.1338 -2.47258 0
M  V30 3808 H 357.56 -3.55758 -0.884985 0
M  V30 3809 H 357.208 -3.74886 -3.35365 0
M  V30 3810 H 356.908 -5.30169 -2.53368 0
M  V30 3811 H 358.432 -5.05047 -3.43162 0
M  V30 3812 H 359.846 -5.60001 -1.22767 0
M  V30 3813 H 358.243 -5.97735 -0.532259 0
M  V30 3814 H 359.313 -4.83932 0.306196 0
M  V30 3815 N 360.656 0.0484629 -1.57525 0
M  V30 3816 C 361.884 0.755421 -1.92616 0
M  V30 3817 C 362.299 1.69919 -0.822984 0
M  V30 3818 O 361.656 1.81378 0.202085 0
M  V30 3819 C 361.707 1.52915 -3.27566 0
M  V30 3820 O 361.428 0.62329 -4.33644 0
M  V30 3821 C 362.929 2.33502 -3.76818 0
M  V30 3822 H 360.149 0.213465 -0.63614 0
M  V30 3823 H 362.693 0.0117698 -2.04497 0
M  V30 3824 H 360.848 2.22486 -3.17142 0
M  V30 3825 H 361.262 1.16383 -5.11425 0
M  V30 3826 H 362.736 2.83214 -4.73808 0
M  V30 3827 H 363.213 3.14068 -3.07014 0
M  V30 3828 H 363.819 1.69043 -3.90262 0
M  V30 3829 N 362.134 1.5431 0.320358 0
M  V30 3830 C 363.359 1.76954 1.08175 0
M  V30 3831 C 363.784 0.518193 1.80821 0
M  V30 3832 O 363.142 -0.530411 1.73368 0
M  V30 3833 C 363.19 2.96451 2.05303 0
M  V30 3834 O 362.294 2.68221 3.13259 0
M  V30 3835 H 361.635 0.586275 0.311733 0
M  V30 3836 H 364.165 2.01342 0.363676 0
M  V30 3837 H 364.175 3.23887 2.48116 0
M  V30 3838 H 362.85 3.87196 1.51829 0
M  V30 3839 H 361.427 2.51744 2.75099 0
M  V30 3840 N 363.613 -0.582584 1.46437 0
M  V30 3841 C 364.862 -1.337 1.5102 0
M  V30 3842 C 365.175 -1.94891 0.166359 0
M  V30 3843 O 366.381 -2.71351 0.0899954 0
M  V30 3844 C 364.837 -2.42315 2.66104 0
M  V30 3845 C 364.445 -1.87427 4.06909 0
M  V30 3846 C 366.189 -3.19099 2.79958 0
M  V30 3847 C 364.096 -2.93672 5.13333 0
M  V30 3848 H 363.026 -0.502619 0.562041 0
M  V30 3849 H 365.677 -0.621701 1.72647 0
M  V30 3850 H 364.059 -3.16645 2.37807 0
M  V30 3851 H 365.233 -1.19639 4.44998 0
M  V30 3852 H 363.548 -1.2331 3.97723 0
M  V30 3853 H 366.145 -3.9839 3.56636 0
M  V30 3854 H 366.488 -3.71695 1.87479 0
M  V30 3855 H 367.021 -2.51875 3.07902 0
M  V30 3856 H 363.76 -2.45962 6.07604 0
M  V30 3857 H 363.28 -3.59948 4.79789 0
M  V30 3858 H 364.959 -3.5762 5.39182 0
M  V30 3859 N 365.091 -1.34144 -0.827227 0
M  V30 3860 C 366.319 -1.29325 -1.61501 0
M  V30 3861 C 366.734 0.13354 -1.88327 0
M  V30 3862 O 366.091 1.0793 -1.47164 0
M  V30 3863 C 366.142 -2.07746 -2.95844 0
M  V30 3864 O 365.863 -3.4486 -2.70191 0
M  V30 3865 C 367.364 -2.10273 -3.90256 0
M  V30 3866 H 364.584 -0.445069 -0.50215 0
M  V30 3867 H 367.128 -1.76693 -1.02955 0
M  V30 3868 H 365.283 -1.6403 -3.5096 0
M  V30 3869 H 365.697 -3.85345 -3.55822 0
M  V30 3870 H 367.171 -2.69575 -4.81698 0
M  V30 3871 H 367.648 -1.096 -4.25305 0
M  V30 3872 H 368.254 -2.54059 -3.41078 0
M  V30 3873 N 366.569 1.04691 -1.17803 0
M  V30 3874 C 367.532 2.10724 -0.901545 0
M  V30 3875 C 368.532 1.6042 0.110437 0
M  V30 3876 O 369.722 1.7377 -0.122303 0
M  V30 3877 C 366.854 3.39084 -0.351409 0
M  V30 3878 H 368.047 2.36686 -1.84174 0
M  V30 3879 H 365.6 1.21015 -0.98919 0
M  V30 3880 H 366.335 3.18782 0.59569 0
M  V30 3881 H 366.12 3.76909 -1.08083 0
M  V30 3882 H 367.61 4.17227 -0.176451 0
M  V30 3883 N 368.047 0.979072 1.23499 0
M  V30 3884 C 368.977 0.537606 2.27227 0
M  V30 3885 C 369.958 -0.428539 1.64613 0
M  V30 3886 O 371.143 -0.322191 1.91509 0
M  V30 3887 C 368.273 -0.162052 3.46922 0
M  V30 3888 C 367.227 0.721242 4.21879 0
M  V30 3889 C 366.553 -0.110555 5.34586 0
M  V30 3890 C 367.853 2.01141 4.82016 0
M  V30 3891 H 369.547 1.40462 2.64406 0
M  V30 3892 H 367.093 0.67684 1.27102 0
M  V30 3893 H 369.046 -0.482192 4.18632 0
M  V30 3894 H 367.77 -1.06351 3.08799 0
M  V30 3895 H 366.429 1.02482 3.51984 0
M  V30 3896 H 366.077 -1.0125 4.92704 0
M  V30 3897 H 365.777 0.477325 5.85658 0
M  V30 3898 H 367.301 -0.425107 6.09118 0
M  V30 3899 H 368.715 1.75612 5.45741 0
M  V30 3900 H 367.112 2.54695 5.43369 0
M  V30 3901 H 368.182 2.69909 4.02836 0
M  V30 3902 N 369.525 -1.3858 0.750561 0
M  V30 3903 C 370.771 -2.00481 0.305825 0
M  V30 3904 C 371.104 -1.5944 -1.10872 0
M  V30 3905 O 370.379 -0.83052 -1.75877 0
M  V30 3906 C 370.662 -3.5758 0.425287 0
M  V30 3907 C 370.515 -4.08594 1.88072 0
M  V30 3908 C 371.834 -4.39719 -0.183122 0
M  V30 3909 H 368.953 -0.728348 0.112598 0
M  V30 3910 H 371.595 -1.64566 0.949638 0
M  V30 3911 H 369.745 -3.88306 -0.122828 0
M  V30 3912 H 371.417 -3.88523 2.48691 0
M  V30 3913 H 369.66 -3.61574 2.39681 0
M  V30 3914 H 370.331 -5.177 1.91548 0
M  V30 3915 H 372.807 -4.15128 0.284303 0
M  V30 3916 H 371.683 -5.48856 -0.0692757 0
M  V30 3917 H 371.944 -4.23434 -1.27106 0
M  V30 3918 N 371.003 -0.499398 -1.49478 0
M  V30 3919 C 372.249 0.0457576 -2.02748 0
M  V30 3920 C 372.582 1.36793 -1.37846 0
M  V30 3921 O 371.857 1.87596 -0.513601 0
M  V30 3922 C 372.14 0.199986 -3.59544 0
M  V30 3923 C 371.993 -1.1452 -4.34977 0
M  V30 3924 C 373.312 0.94137 -4.29914 0
M  V30 3925 H 370.431 0.0151552 -0.736844 0
M  V30 3926 H 373.073 -0.650498 -1.78518 0
M  V30 3927 H 371.223 0.793007 -3.8032 0
M  V30 3928 H 372.895 -1.77697 -4.25701 0
M  V30 3929 H 371.138 -1.73488 -3.97598 0
M  V30 3930 H 371.809 -0.990607 -5.43039 0
M  V30 3931 H 374.285 0.43844 -4.13784 0
M  V30 3932 H 373.161 1.01812 -5.39375 0
M  V30 3933 H 373.422 1.98471 -3.95046 0
M  V30 3934 N 372.481 1.55866 -0.233164 0
M  V30 3935 C 373.727 1.99643 0.389148 0
M  V30 3936 C 374.082 1.11836 1.56558 0
M  V30 3937 O 373.375 0.170848 1.90837 0
M  V30 3938 C 373.569 3.46856 0.861724 0
M  V30 3939 C 373.398 4.48904 -0.267376 0
M  V30 3940 C 372.168 4.99888 -0.737577 0
M  V30 3941 C 374.366 5.02624 -1.08966 0
M  V30 3942 N 372.348 5.8566 -1.84052 0
M  V30 3943 C 373.719 5.85434 -2.04125 0
M  V30 3944 C 375.774 4.84959 -1.12779 0
M  V30 3945 C 374.477 6.52466 -3.02789 0
M  V30 3946 C 376.503 5.52759 -2.10266 0
M  V30 3947 C 375.865 6.35346 -3.04162 0
M  V30 3948 H 371.964 0.774402 0.108742 0
M  V30 3949 H 374.548 1.91572 -0.347596 0
M  V30 3950 H 372.719 3.55352 1.5678 0
M  V30 3951 H 374.451 3.77531 1.45783 0
M  V30 3952 H 371.206 4.7249 -0.324122 0
M  V30 3953 H 371.63 6.33246 -2.39434 0
M  V30 3954 H 376.272 4.20751 -0.415749 0
M  V30 3955 H 373.99 7.15849 -3.74948 0
M  V30 3956 H 377.576 5.41051 -2.13905 0
M  V30 3957 H 376.456 6.86883 -3.78366 0
M  V30 3958 N 373.959 -0.0401083 1.57549 0
M  V30 3959 C 374.889 -1.04384 2.08869 0
M  V30 3960 C 375.87 -1.38407 0.988817 0
M  V30 3961 O 377.055 -1.47483 1.26342 0
M  V30 3962 C 374.185 -2.34808 2.55895 0
M  V30 3963 C 373.139 -2.15057 3.70047 0
M  V30 3964 C 372.465 -3.51145 4.03239 0
M  V30 3965 C 373.765 -1.54576 4.98902 0
M  V30 3966 H 375.459 -0.616666 2.92981 0
M  V30 3967 H 373.005 -0.295184 1.40942 0
M  V30 3968 H 374.958 -3.05346 2.90417 0
M  V30 3969 H 373.682 -2.79565 1.68853 0
M  V30 3970 H 372.341 -1.46954 3.35857 0
M  V30 3971 H 371.989 -3.93529 3.13279 0
M  V30 3972 H 371.689 -3.38758 4.80122 0
M  V30 3973 H 373.213 -4.23062 4.40285 0
M  V30 3974 H 374.627 -2.15017 5.31451 0
M  V30 3975 H 373.024 -1.52796 5.80322 0
M  V30 3976 H 374.094 -0.51039 4.82206 0
M  V30 3977 N 375.437 -1.54477 -0.31217 0
M  V30 3978 C 376.848 -1.64344 -0.885891 0
M  V30 3979 C 377.199 -0.54485 -1.88483 0
M  V30 3980 O 376.324 0.320387 -2.14015 0
M  V30 3981 C 376.919 -2.97908 -1.61357 0
M  V30 3982 C 375.478 -3.09933 -2.13585 0
M  V30 3983 C 374.625 -2.59971 -0.964897 0
M  V30 3984 H 377.576 -1.58448 -0.0894528 0
M  V30 3985 H 377.597 -2.88706 -2.47848 0
M  V30 3986 H 377.109 -3.77845 -0.886277 0
M  V30 3987 H 375.21 -2.34694 -2.89395 0
M  V30 3988 H 375.323 -4.15916 -2.37804 0
M  V30 3989 H 373.687 -2.16147 -1.34731 0
M  V30 3990 H 374.47 -3.42376 -0.251742 0
M  V30 3991 N 376.915 0.57481 -1.46744 0
M  V30 3992 C 377.878 1.66533 -1.57478 0
M  V30 3993 C 378.878 1.54338 -0.451263 0
M  V30 3994 O 380.068 1.58814 -0.715813 0
M  V30 3995 C 377.2 3.05999 -1.50259 0
M  V30 3996 H 378.393 1.58372 -2.54673 0
M  V30 3997 H 375.946 0.793301 -1.34672 0
M  V30 3998 H 376.681 3.19709 -0.543725 0
M  V30 3999 H 376.466 3.16259 -2.31781 0
M  V30 4000 H 377.956 3.8537 -1.60872 0
M  V30 4001 N 378.394 1.34581 0.820102 0
M  V30 4002 C 379.342 1.26401 1.95258 0
M  V30 4003 C 380.336 0.161553 1.68628 0
M  V30 4004 O 381.542 0.326703 1.7701 0
M  V30 4005 H 377.917 0.392749 0.64129 0
M  V30 4006 H 379.888 2.22105 1.99279 0
M  V30 4007 C 378.637 1.03919 3.31807 0
M  V30 4008 H 377.96 1.87984 3.52848 0
M  V30 4009 H 379.4 1.02232 4.11491 0
M  V30 4010 C 377.859 -0.257433 3.35915 0
M  V30 4011 O 378.389 -1.25784 3.81499 0
M  V30 4012 N 376.595 -0.291524 2.89134 0
M  V30 4013 H 376.142 0.523161 2.52232 0
M  V30 4014 H 376.1 -1.15883 2.92264 0
M  V30 4015 N 379.872 -1.04064 1.18357 0
M  V30 4016 C 381.283 -1.58719 0.98312 0
M  V30 4017 C 381.634 -1.90556 -0.467193 0
M  V30 4018 O 380.759 -1.69561 -1.34454 0
M  V30 4019 C 381.354 -2.88379 1.77828 0
M  V30 4020 C 379.913 -3.3965 1.62218 0
M  V30 4021 C 379.06 -2.13235 1.77274 0
M  V30 4022 H 382.011 -0.867359 1.32901 0
M  V30 4023 H 382.032 -3.58773 1.26737 0
M  V30 4024 H 381.544 -2.65176 2.83379 0
M  V30 4025 H 379.645 -3.67866 0.592036 0
M  V30 4026 H 379.758 -4.13475 2.42023 0
M  V30 4027 H 378.122 -2.24542 1.20221 0
M  V30 4028 H 378.905 -1.92487 2.8426 0
M  V30 4029 N 381.35 -0.985608 -1.22978 0
M  V30 4030 C 382.578 -0.675582 -1.95559 0
M  V30 4031 C 382.993 0.758413 -1.72897 0
M  V30 4032 O 382.35 1.51094 -1.02357 0
M  V30 4033 C 382.401 -0.96293 -3.48439 0
M  V30 4034 O 382.122 -2.34057 -3.70336 0
M  V30 4035 C 383.623 -0.669585 -4.38214 0
M  V30 4036 H 380.843 -0.250523 -0.622478 0
M  V30 4037 H 383.387 -1.3184 -1.56328 0
M  V30 4038 H 381.542 -0.366033 -3.85667 0
M  V30 4039 H 381.956 -2.43424 -4.64591 0
M  V30 4040 H 383.43 -0.920967 -5.44263 0
M  V30 4041 H 383.907 0.396383 -4.37408 0
M  V30 4042 H 384.513 -1.2472 -4.06602 0
M  V30 4043 N 382.828 1.3818 -0.7579 0
M  V30 4044 C 383.738 2.3421 -0.135247 0
M  V30 4045 C 384.754 1.59487 0.695683 0
M  V30 4046 O 385.93 1.91657 0.618832 0
M  V30 4047 C 382.995 3.3862 0.744139 0
M  V30 4048 C 382.056 4.2918 -0.101658 0
M  V30 4049 C 381.289 5.28603 0.735851 0
M  V30 4050 O 381.512 5.35166 1.97366 0
M  V30 4051 O 380.446 6.01707 0.152372 0
M  V30 4052 H 384.272 2.8916 -0.928436 0
M  V30 4053 H 381.857 1.40101 -0.518855 0
M  V30 4054 H 383.739 4.02539 1.2466 0
M  V30 4055 H 382.414 2.86019 1.51575 0
M  V30 4056 H 381.321 3.68407 -0.650167 0
M  V30 4057 H 382.654 4.85048 -0.836024 0
M  V30 4058 N 384.306 0.507319 1.49211 0
M  V30 4059 C 385.253 -0.267728 2.29242 0
M  V30 4060 C 386.223 -0.954609 1.35928 0
M  V30 4061 O 387.408 -0.960046 1.64887 0
M  V30 4062 C 384.548 -1.32243 3.18756 0
M  V30 4063 C 383.661 -0.64669 4.27132 0
M  V30 4064 C 382.796 -1.68238 5.03855 0
M  V30 4065 C 381.835 -0.98885 6.0406 0
M  V30 4066 N 380.972 -1.96903 6.73924 0
M  V30 4067 H 385.812 0.420968 2.95012 0
M  V30 4068 H 383.349 0.219443 1.45454 0
M  V30 4069 H 385.307 -1.94599 3.69036 0
M  V30 4070 H 383.937 -1.97981 2.54958 0
M  V30 4071 H 382.989 0.0902926 3.80293 0
M  V30 4072 H 384.301 -0.101058 4.98698 0
M  V30 4073 H 383.455 -2.38081 5.58034 0
M  V30 4074 H 382.194 -2.26187 4.32077 0
M  V30 4075 H 381.199 -0.276222 5.49106 0
M  V30 4076 H 382.424 -0.415767 6.77826 0
M  V30 4077 H 380.37 -2.53803 6.04913 0
M  V30 4078 H 380.287 -1.47423 7.41487 0
M  V30 4079 H 381.555 -2.66015 7.32705 0
M  V30 4080 N 385.784 -1.5574 0.241426 0
M  V30 4081 C 387.033 -1.97986 -0.385295 0
M  V30 4082 C 387.346 -1.13267 -1.59468 0
M  V30 4083 O 388.552 -1.45501 -2.2922 0
M  V30 4084 C 387.008 -3.52275 -0.736884 0
M  V30 4085 C 386.616 -4.45726 0.450796 0
M  V30 4086 C 388.36 -4.03189 -1.3281 0
M  V30 4087 C 386.267 -5.91352 0.0756662 0
M  V30 4088 H 385.197 -0.739386 -0.147731 0
M  V30 4089 H 387.848 -1.80308 0.340779 0
M  V30 4090 H 386.23 -3.65628 -1.52094 0
M  V30 4091 H 387.404 -4.44131 1.22819 0
M  V30 4092 H 385.719 -4.05264 0.956573 0
M  V30 4093 H 388.316 -5.09505 -1.62201 0
M  V30 4094 H 388.659 -3.50212 -2.25071 0
M  V30 4095 H 389.192 -3.93141 -0.607069 0
M  V30 4096 H 385.931 -6.48354 0.965272 0
M  V30 4097 H 385.451 -5.96095 -0.665635 0
M  V30 4098 H 387.13 -6.46084 -0.344075 0
M  V30 4099 N 387.262 0.0317525 -1.57568 0
M  V30 4100 C 388.508 0.724175 -1.8943 0
M  V30 4101 C 388.841 1.75149 -0.838836 0
M  V30 4102 O 388.116 1.93948 0.146422 0
M  V30 4103 C 388.399 1.39615 -3.31933 0
M  V30 4104 C 388.252 0.382537 -4.4817 0
M  V30 4105 C 389.571 2.33084 -3.73309 0
M  V30 4106 H 386.69 0.261797 -0.688935 0
M  V30 4107 H 389.332 -0.013017 -1.89996 0
M  V30 4108 H 387.482 2.02451 -3.31581 0
M  V30 4109 H 389.154 -0.243689 -4.60656 0
M  V30 4110 H 387.397 -0.29844 -4.32772 0
M  V30 4111 H 388.068 0.891145 -5.44759 0
M  V30 4112 H 390.544 1.80295 -3.7501 0
M  V30 4113 H 389.42 2.77084 -4.73831 0
M  V30 4114 H 389.681 3.19643 -3.05419 0
M  V30 4115 N 388.74 1.54641 0.303973 0
M  V30 4116 C 390.156 1.45788 0.649463 0
M  V30 4117 C 390.356 0.64666 1.90842 0
M  V30 4118 O 389.412 0.153183 2.52035 0
M  V30 4119 C 390.725 2.89718 0.805227 0
M  V30 4120 C 392.273 2.99742 0.901305 0
M  V30 4121 C 392.748 4.44863 1.08909 0
M  V30 4122 N 394.239 4.48559 1.15536 0
M  V30 4123 C 394.974 5.58026 1.3189 0
M  V30 4124 N 394.47 6.77422 1.45161 0
M  V30 4125 N 396.263 5.45708 1.34755 0
M  V30 4126 H 388.414 2.05854 -0.523237 0
M  V30 4127 H 390.677 0.932186 -0.172431 0
M  V30 4128 H 390.383 3.51666 -0.0489108 0
M  V30 4129 H 390.257 3.36964 1.69513 0
M  V30 4130 H 392.644 2.3791 1.74593 0
M  V30 4131 H 392.725 2.55797 -0.0125531 0
M  V30 4132 H 392.369 5.07288 0.249241 0
M  V30 4133 H 392.299 4.86436 2.01713 0
M  V30 4134 H 394.79 3.6254 1.06646 0
M  V30 4135 H 395.103 7.56604 1.57387 0
M  V30 4136 H 393.448 6.80292 1.42223 0
M  V30 4137 H 396.639 4.51378 1.23996 0
M  V30 4138 H 396.812 6.3107 1.47157 0
M  V30 4139 N 390.218 -0.567019 1.47046 0
M  V30 4140 C 391.464 -1.32658 1.53394 0
M  V30 4141 C 391.797 -1.93254 0.19148 0
M  V30 4142 O 391.072 -1.77338 -0.798844 0
M  V30 4143 C 391.355 -2.44412 2.64452 0
M  V30 4144 C 391.208 -1.88749 4.08282 0
M  V30 4145 C 392.527 -3.46387 2.71485 0
M  V30 4146 H 389.646 -0.48098 0.558415 0
M  V30 4147 H 392.288 -0.635481 1.79058 0
M  V30 4148 H 390.438 -3.03363 2.427 0
M  V30 4149 H 392.11 -1.34134 4.41368 0
M  V30 4150 H 390.353 -1.19481 4.17021 0
M  V30 4151 H 391.024 -2.69491 4.81745 0
M  V30 4152 H 393.5 -2.9734 2.91081 0
M  V30 4153 H 392.376 -4.2202 3.50985 0
M  V30 4154 H 392.637 -4.04616 1.78153 0
M  V30 4155 N 391.696 -1.35014 -0.812953 0
M  V30 4156 C 392.626 -1.30069 -1.93919 0
M  V30 4157 C 393.607 -0.176275 -1.69184 0
M  V30 4158 O 394.792 -0.370227 -1.90638 0
M  V30 4159 C 391.922 -1.06547 -3.30552 0
M  V30 4160 C 390.876 -2.15561 -3.69753 0
M  V30 4161 C 390.202 -1.77214 -5.04479 0
M  V30 4162 C 391.502 -3.57476 -3.808 0
M  V30 4163 H 393.196 -2.24303 -1.98314 0
M  V30 4164 H 390.742 -1.07977 -0.952736 0
M  V30 4165 H 392.695 -1.01729 -4.08937 0
M  V30 4166 H 391.419 -0.0875719 -3.26483 0
M  V30 4167 H 390.078 -2.19466 -2.9365 0
M  V30 4168 H 389.726 -0.780589 -4.96906 0
M  V30 4169 H 389.426 -2.50184 -5.31678 0
M  V30 4170 H 390.95 -1.7391 -5.8531 0
M  V30 4171 H 392.364 -3.55929 -4.4943 0
M  V30 4172 H 390.761 -4.29152 -4.19462 0
M  V30 4173 H 391.831 -3.94091 -2.82525 0
M  V30 4174 N 393.175 1.03435 -1.18907 0
M  V30 4175 C 394.422 1.76743 -0.988334 0
M  V30 4176 C 394.75 1.88447 0.481441 0
M  V30 4177 O 394.005 1.39383 1.37371 0
M  V30 4178 C 394.304 3.19792 -1.59586 0
M  V30 4179 C 393.97 3.28108 -3.09283 0
M  V30 4180 C 392.632 3.30084 -3.5014 0
M  V30 4181 C 394.984 3.27696 -4.05296 0
M  V30 4182 C 392.312 3.29299 -4.85571 0
M  V30 4183 C 394.664 3.28451 -5.4065 0
M  V30 4184 C 393.328 3.28723 -5.80946 0
M  V30 4185 H 392.598 0.64675 -0.361657 0
M  V30 4186 H 395.245 1.21442 -1.48068 0
M  V30 4187 H 393.55 3.78136 -1.02568 0
M  V30 4188 H 395.247 3.75171 -1.41589 0
M  V30 4189 H 391.837 3.27294 -2.76725 0
M  V30 4190 H 396.021 3.25354 -3.74778 0
M  V30 4191 H 391.277 3.2783 -5.16079 0
M  V30 4192 H 395.451 3.27082 -6.14809 0
M  V30 4193 H 393.078 3.27868 -6.85862 0
M  V30 4194 N 394.653 0.992116 1.22453 0
M  V30 4195 C 396.064 0.702776 1.72968 0
M  V30 4196 C 396.415 -0.780399 1.80012 0
M  V30 4197 O 395.54 -1.61007 1.44589 0
M  V30 4198 C 396.135 1.26903 3.14135 0
M  V30 4199 C 394.694 1.02909 3.62059 0
M  V30 4200 C 393.841 1.38969 2.39964 0
M  V30 4201 H 396.792 1.16457 1.07812 0
M  V30 4202 H 396.813 0.647223 3.74955 0
M  V30 4203 H 396.325 2.34851 3.08977 0
M  V30 4204 H 394.426 -0.0337979 3.72585 0
M  V30 4205 H 394.539 1.69191 4.48231 0
M  V30 4206 H 392.903 0.808279 2.41535 0
M  V30 4207 H 393.686 2.4792 2.37467 0
M  V30 4208 N 396.131 -1.37776 0.765217 0
M  V30 4209 C 397.379 -1.99454 0.325943 0
M  V30 4210 C 397.7 -1.61049 -1.09947 0
M  V30 4211 O 396.97 -0.872821 -1.75381 0
M  V30 4212 H 395.55 -0.737697 0.117525 0
M  V30 4213 H 398.212 -1.68359 0.981895 0
M  V30 4214 H 397.308 -3.09547 0.398353 0
M  V30 4215 N 397.609 -0.515225 -1.4894 0
M  V30 4216 C 398.557 0.269115 -2.31038 0
M  V30 4217 C 399.551 0.949443 -1.40292 0
M  V30 4218 O 400.757 0.87551 -1.57273 0
M  V30 4219 H 397.132 0.10565 -0.744542 0
M  V30 4220 H 399.103 -0.443096 -2.95092 0
M  V30 4221 C 397.852 1.31213 -3.21991 0
M  V30 4222 H 397.175 0.798034 -3.91754 0
M  V30 4223 H 398.615 1.83263 -3.82349 0
M  V30 4224 C 397.074 2.33791 -2.42576 0
M  V30 4225 O 397.604 3.3995 -2.14003 0
M  V30 4226 N 395.81 2.06625 -2.0434 0
M  V30 4227 H 395.357 1.20314 -2.27777 0
M  V30 4228 H 395.315 2.75483 -1.51514 0
M  V30 4229 N 399.087 1.5561 -0.249682 0
M  V30 4230 C 400.05 2.20217 0.635394 0
M  V30 4231 C 401.05 1.17227 1.10066 0
M  V30 4232 O 402.24 1.42292 1.00492 0
M  V30 4233 C 399.372 2.84794 1.87363 0
M  V30 4234 H 400.565 2.99814 0.0716752 0
M  V30 4235 H 398.118 1.563 -0.000153234 0
M  V30 4236 H 398.853 2.09142 2.47851 0
M  V30 4237 H 398.638 3.60241 1.5482 0
M  V30 4238 H 400.128 3.3423 2.5036 0
M  V30 4239 N 400.565 -0.0233959 1.57583 0
M  V30 4240 C 401.976 -0.56927 1.77809 0
M  V30 4241 C 402.327 -1.75284 0.881472 0
M  V30 4242 O 401.452 -2.1626 0.0777805 0
M  V30 4243 C 402.047 -1.03949 3.22459 0
M  V30 4244 C 400.606 -1.53084 3.43864 0
M  V30 4245 C 399.753 -0.471454 2.73263 0
M  V30 4246 H 402.704 0.202825 1.57399 0
M  V30 4247 H 402.725 -1.90661 3.29285 0
M  V30 4248 H 402.237 -0.177865 3.87692 0
M  V30 4249 H 400.338 -2.41414 2.83814 0
M  V30 4250 H 400.451 -1.57443 4.52491 0
M  V30 4251 H 398.815 -0.927788 2.37201 0
M  V30 4252 H 399.598 0.380808 3.41181 0
M  V30 4253 N 402.043 -1.548 -0.295768 0
M  V30 4254 C 402.975 -1.82492 -1.3867 0
M  V30 4255 C 403.988 -0.708134 -1.46592 0
M  V30 4256 O 405.177 -0.985686 -1.48817 0
M  V30 4257 C 402.277 -1.95256 -2.76999 0
M  V30 4258 C 401.45 -3.25709 -2.91946 0
M  V30 4259 C 400.509 -3.28824 -4.10806 0
M  V30 4260 O 399.535 -4.02328 -4.02643 0
M  V30 4261 N 400.737 -2.5459 -5.21694 0
M  V30 4262 H 403.502 -2.76646 -1.15269 0
M  V30 4263 H 401.063 -1.54438 -0.485849 0
M  V30 4264 H 403.055 -1.94736 -3.54768 0
M  V30 4265 H 401.625 -1.08072 -2.93324 0
M  V30 4266 H 400.845 -3.38959 -2.01247 0
M  V30 4267 H 402.133 -4.11786 -2.98847 0
M  V30 4268 H 401.531 -1.94512 -5.31208 0
M  V30 4269 H 400.088 -2.59818 -5.97778 0
M  V30 4270 N 403.521 0.559213 -1.47345 0
M  V30 4271 C 404.469 1.68747 -1.60085 0
M  V30 4272 C 405.463 1.628 -0.46825 0
M  V30 4273 O 406.669 1.68009 -0.645977 0
M  V30 4274 H 403.044 0.558329 -0.503759 0
M  V30 4275 H 405.015 1.55138 -2.54902 0
M  V30 4276 C 403.764 3.07103 -1.63042 0
M  V30 4277 H 403.087 3.12361 -2.49541 0
M  V30 4278 H 404.527 3.85743 -1.76006 0
M  V30 4279 C 402.986 3.34935 -0.363357 0
M  V30 4280 O 403.516 3.98102 0.536416 0
M  V30 4281 N 401.722 2.89574 -0.244 0
M  V30 4282 H 401.269 2.38348 -0.977133 0
M  V30 4283 H 401.227 3.08566 0.602836 0
M  V30 4284 N 404.999 1.35443 0.805782 0
M  V30 4285 C 405.946 1.28431 1.91766 0
M  V30 4286 C 406.916 0.156102 1.65365 0
M  V30 4287 O 408.101 0.339936 1.87747 0
M  V30 4288 C 405.241 1.06301 3.2832 0
M  V30 4289 C 404.354 2.2805 3.66902 0
M  V30 4290 C 403.489 1.99064 4.92491 0
M  V30 4291 C 402.528 3.16863 5.23703 0
M  V30 4292 N 401.665 2.87647 6.40471 0
M  V30 4293 H 406.505 2.23511 1.97096 0
M  V30 4294 H 404.042 1.11105 0.964054 0
M  V30 4295 H 406 0.915012 4.07042 0
M  V30 4296 H 404.63 0.148822 3.22457 0
M  V30 4297 H 403.682 2.53711 2.83434 0
M  V30 4298 H 404.994 3.1601 3.85927 0
M  V30 4299 H 404.148 1.81099 5.7904 0
M  V30 4300 H 402.887 1.0839 4.75503 0
M  V30 4301 H 401.892 3.35404 4.35642 0
M  V30 4302 H 403.117 4.08339 5.4262 0
M  V30 4303 H 401.063 1.99568 6.24907 0
M  V30 4304 H 400.98 3.69141 6.59751 0
M  V30 4305 H 402.248 2.73226 7.30047 0
M  V30 4306 N 406.477 -1.02803 1.19454 0
M  V30 4307 C 407.726 -1.7562 0.991996 0
M  V30 4308 C 408.039 -1.89672 -0.477901 0
M  V30 4309 O 409.245 -2.59468 -0.799287 0
M  V30 4310 C 407.701 -3.15812 1.72601 0
M  V30 4311 C 407.309 -3.0981 3.23607 0
M  V30 4312 C 409.053 -3.92918 1.60674 0
M  V30 4313 C 406.96 -4.44939 3.89594 0
M  V30 4314 H 405.89 -0.658352 0.367543 0
M  V30 4315 H 408.541 -1.15044 1.42959 0
M  V30 4316 H 406.923 -3.7686 1.21624 0
M  V30 4317 H 408.097 -2.58138 3.81709 0
M  V30 4318 H 406.412 -2.46201 3.35819 0
M  V30 4319 H 409.009 -4.9287 2.07323 0
M  V30 4320 H 409.352 -4.12502 0.561025 0
M  V30 4321 H 409.885 -3.38472 2.09001 0
M  V30 4322 H 406.624 -4.30559 4.94267 0
M  V30 4323 H 406.144 -4.96664 3.36281 0
M  V30 4324 H 407.823 -5.1382 3.93189 0
M  V30 4325 N 407.956 -0.998596 -1.21925 0
M  V30 4326 C 408.886 -0.573688 -2.26343 0
M  V30 4327 C 409.867 0.402296 -1.65274 0
M  V30 4328 O 411.052 0.291683 -1.91997 0
M  V30 4329 C 408.182 0.106839 -3.47136 0
M  V30 4330 C 407.136 -0.788269 -4.20678 0
M  V30 4331 C 406.462 0.0254927 -5.34694 0
M  V30 4332 C 407.762 -2.08784 -4.78755 0
M  V30 4333 H 409.456 -1.44651 -2.62138 0
M  V30 4334 H 407.002 -0.696975 -1.26009 0
M  V30 4335 H 408.955 0.415531 -4.19346 0
M  V30 4336 H 407.679 1.01424 -3.10452 0
M  V30 4337 H 406.338 -1.08069 -3.50309 0
M  V30 4338 H 405.986 0.933989 -4.94253 0
M  V30 4339 H 405.686 -0.570437 -5.84825 0
M  V30 4340 H 407.21 0.328147 -6.09718 0
M  V30 4341 H 408.624 -1.84272 -5.42878 0
M  V30 4342 H 407.021 -2.63307 -5.39249 0
M  V30 4343 H 408.091 -2.76284 -3.98491 0
M  V30 4344 N 409.434 1.37368 -0.772513 0
M  V30 4345 C 410.344 2.34053 -0.160081 0
M  V30 4346 C 411.36 1.60216 0.678728 0
M  V30 4347 O 412.536 1.92303 0.59847 0
M  V30 4348 C 409.601 3.3939 0.708182 0
M  V30 4349 C 408.662 4.29048 -0.147172 0
M  V30 4350 C 407.895 5.29354 0.679744 0
M  V30 4351 O 408.118 5.3723 1.91678 0
M  V30 4352 O 407.052 6.01835 0.0885444 0
M  V30 4353 H 410.878 2.88159 -0.959053 0
M  V30 4354 H 408.463 1.39543 -0.533685 0
M  V30 4355 H 410.345 4.03839 1.20384 0
M  V30 4356 H 409.02 2.8761 1.48533 0
M  V30 4357 H 407.927 3.67697 -0.689205 0
M  V30 4358 H 409.26 4.84134 -0.887423 0
M  V30 4359 N 410.912 0.523116 1.48665 0
M  V30 4360 C 412.16 -0.0134497 2.02096 0
M  V30 4361 C 412.481 -1.35418 1.40311 0
M  V30 4362 O 411.751 -1.87543 0.566074 0
M  V30 4363 H 410.331 -0.00795915 0.746958 0
M  V30 4364 H 412.993 0.685388 1.82451 0
M  V30 4365 H 412.089 -0.126849 3.11842 0
M  V30 4366 N 412.39 -1.55475 0.257931 0
M  V30 4367 C 413.32 -2.24815 -0.630912 0
M  V30 4368 C 414.301 -1.23224 -1.17259 0
M  V30 4369 O 415.486 -1.51904 -1.20991 0
M  V30 4370 C 412.616 -2.95609 -1.82298 0
M  V30 4371 C 411.57 -4.03982 -1.41359 0
M  V30 4372 C 410.896 -4.6226 -2.68738 0
M  V30 4373 C 412.196 -5.19109 -0.57648 0
M  V30 4374 H 413.89 -2.99354 -0.0526878 0
M  V30 4375 H 411.436 -1.4398 -0.023901 0
M  V30 4376 H 413.389 -3.42822 -2.45054 0
M  V30 4377 H 412.113 -2.18577 -2.42676 0
M  V30 4378 H 410.772 -3.57555 -0.809324 0
M  V30 4379 H 410.42 -3.81915 -3.27338 0
M  V30 4380 H 410.12 -5.35424 -2.42065 0
M  V30 4381 H 411.644 -5.12212 -3.32372 0
M  V30 4382 H 413.058 -5.62479 -1.10861 0
M  V30 4383 H 411.455 -5.98729 -0.405351 0
M  V30 4384 H 412.525 -4.83174 0.408776 0
M  V30 4385 N 413.868 0.0150385 -1.57593 0
M  V30 4386 C 414.778 1.02791 -2.10882 0
M  V30 4387 C 415.794 1.38702 -1.0506 0
M  V30 4388 O 416.97 1.47739 -1.36877 0
M  V30 4389 C 414.035 2.30568 -2.58919 0
M  V30 4390 C 413.096 2.01108 -3.79281 0
M  V30 4391 C 412.329 3.22794 -4.25018 0
M  V30 4392 O 412.552 4.33959 -3.70183 0
M  V30 4393 O 411.486 3.07672 -5.17322 0
M  V30 4394 H 415.312 0.604973 -2.97613 0
M  V30 4395 H 412.897 0.23292 -1.47573 0
M  V30 4396 H 414.779 3.05662 -2.90084 0
M  V30 4397 H 413.454 2.72129 -1.75293 0
M  V30 4398 H 412.361 1.23537 -3.53114 0
M  V30 4399 H 413.694 1.64394 -4.63935 0
M  V30 4400 N 415.346 1.54954 0.287554 0
M  V30 4401 C 416.293 1.86834 1.35505 0
M  V30 4402 C 417.263 0.718452 1.49758 0
M  V30 4403 O 418.448 0.968358 1.644 0
M  V30 4404 C 415.588 2.13303 2.71286 0
M  V30 4405 C 414.701 3.40883 2.65373 0
M  V30 4406 C 413.836 3.57125 3.93236 0
M  V30 4407 C 412.875 4.78449 3.81776 0
M  V30 4408 N 412.012 4.91426 5.01443 0
M  V30 4409 H 416.852 2.77889 1.07619 0
M  V30 4410 H 414.389 1.37593 0.520241 0
M  V30 4411 H 416.347 2.26646 3.50267 0
M  V30 4412 H 414.977 1.25499 2.97405 0
M  V30 4413 H 414.029 3.36088 1.78182 0
M  V30 4414 H 415.341 4.29993 2.52799 0
M  V30 4415 H 414.495 3.70207 4.80658 0
M  V30 4416 H 413.234 2.66173 4.0866 0
M  V30 4417 H 412.239 4.65386 2.92738 0
M  V30 4418 H 413.464 5.70822 3.67884 0
M  V30 4419 H 411.41 4.03401 5.17304 0
M  V30 4420 H 411.327 5.74559 4.91343 0
M  V30 4421 H 412.595 5.08879 5.90477 0
M  V30 4422 N 416.824 -0.551391 1.4764 0
M  V30 4423 C 417.754 -1.66757 1.63445 0
M  V30 4424 C 418.735 -1.63077 0.483742 0
M  V30 4425 O 419.92 -1.80607 0.71377 0
M  V30 4426 C 417.05 -3.05387 1.65396 0
M  V30 4427 C 416.004 -3.23918 2.79752 0
M  V30 4428 C 415.33 -4.63393 2.66779 0
M  V30 4429 C 416.63 -3.08735 4.21284 0
M  V30 4430 H 418.324 -1.53786 2.56886 0
M  V30 4431 H 415.87 -0.738415 1.23626 0
M  V30 4432 H 417.823 -3.83325 1.75043 0
M  V30 4433 H 416.547 -3.19332 0.685195 0
M  V30 4434 H 415.206 -2.48391 2.69625 0
M  V30 4435 H 414.854 -4.74144 1.67918 0
M  V30 4436 H 414.554 -4.7674 3.43501 0
M  V30 4437 H 416.078 -5.43458 2.78364 0
M  V30 4438 H 417.492 -3.76484 4.32357 0
M  V30 4439 H 415.889 -3.33588 4.98838 0
M  V30 4440 H 416.959 -2.0541 4.39243 0
M  V30 4441 N 418.302 -1.35869 -0.798587 0
M  V30 4442 C 419.718 -1.16082 -1.09532 0
M  V30 4443 C 419.918 0.0213124 -2.01489 0
M  V30 4444 O 418.974 0.689488 -2.42904 0
M  V30 4445 C 420.287 -2.46748 -1.7186 0
M  V30 4446 C 421.835 -2.53028 -1.84244 0
M  V30 4447 C 422.31 -3.83758 -2.49988 0
M  V30 4448 N 423.801 -3.85053 -2.57465 0
M  V30 4449 C 424.536 -4.8294 -3.09122 0
M  V30 4450 N 424.032 -5.91217 -3.61157 0
M  V30 4451 N 425.825 -4.70369 -3.0775 0
M  V30 4452 H 417.976 -2.11571 -0.187461 0
M  V30 4453 H 420.239 -0.936726 -0.145765 0
M  V30 4454 H 419.945 -3.33471 -1.11759 0
M  V30 4455 H 419.819 -2.61883 -2.71472 0
M  V30 4456 H 422.206 -1.66729 -2.43486 0
M  V30 4457 H 422.287 -2.418 -0.834643 0
M  V30 4458 H 421.931 -4.70459 -1.91393 0
M  V30 4459 H 421.861 -3.92278 -3.5132 0
M  V30 4460 H 424.352 -3.06822 -2.20609 0
M  V30 4461 H 424.665 -6.61892 -3.98896 0
M  V30 4462 H 423.01 -5.94899 -3.59333 0
M  V30 4463 H 426.201 -3.84914 -2.66381 0
M  V30 4464 H 426.374 -5.46816 -3.47701 0
M  V30 4465 N 419.78 1.02168 -1.19998 0
M  V30 4466 C 420.73 2.08969 -0.911921 0
M  V30 4467 C 421.714 1.60404 0.12621 0
M  V30 4468 O 422.906 1.76817 -0.0804706 0
M  V30 4469 C 420.035 3.402 -0.460277 0
M  V30 4470 C 419.121 3.9548 -1.53155 0
M  V30 4471 N 419.512 4.24332 -2.75275 0
M  V30 4472 C 417.81 4.23572 -1.39653 0
M  V30 4473 C 418.511 4.68834 -3.44339 0
M  V30 4474 N 417.487 4.70804 -2.71744 0
M  V30 4475 H 421.289 2.29178 -1.83997 0
M  V30 4476 H 418.803 1.20094 -1.09322 0
M  V30 4477 H 420.8 4.16235 -0.235337 0
M  V30 4478 H 419.46 3.21408 0.4612 0
M  V30 4479 H 420.471 4.13393 -3.11973 0
M  V30 4480 H 417.148 4.14005 -0.539067 0
M  V30 4481 H 418.538 5.00019 -4.4881 0
M  V30 4482 N 421.258 1.00505 1.21394 0
M  V30 4483 C 422.188 0.585684 2.26035 0
M  V30 4484 C 423.169 -0.393525 1.65485 0
M  V30 4485 O 424.354 -0.281497 1.92149 0
M  V30 4486 C 421.484 -0.0884283 3.47187 0
M  V30 4487 C 420.438 0.810567 4.20254 0
M  V30 4488 C 419.764 0.00286382 5.347 0
M  V30 4489 C 421.064 2.1132 4.77641 0
M  V30 4490 H 422.758 1.46039 2.61368 0
M  V30 4491 H 420.304 0.703648 1.25638 0
M  V30 4492 H 422.257 -0.393286 4.19561 0
M  V30 4493 H 420.981 -0.997766 3.10986 0
M  V30 4494 H 419.64 1.09925 3.49731 0
M  V30 4495 H 419.288 -0.907765 4.94741 0
M  V30 4496 H 418.988 0.601444 5.84514 0
M  V30 4497 H 420.512 -0.295808 6.09883 0
M  V30 4498 H 421.926 1.87148 5.41893 0
M  V30 4499 H 420.323 2.66164 5.37845 0
M  V30 4500 H 421.393 2.78393 3.9702 0
M  V30 4501 N 422.737 -1.36956 0.779787 0
M  V30 4502 C 424.014 -1.93697 0.272156 0
M  V30 4503 C 424.394 -1.71267 -1.23413 0
M  V30 4504 O 423.742 -1.06607 -2.02107 0
M  V30 4505 C 423.952 -3.42812 0.654291 0
M  V30 4506 C 425.3 -4.19921 0.628602 0
M  V30 4507 O 426.324 -3.51209 0.594172 0
M  V30 4508 O 425.183 -5.42465 0.662864 0
M  V30 4509 H 422.277 -0.824447 0.0649286 0
M  V30 4510 H 424.823 -1.46196 0.861682 0
M  V30 4511 H 423.595 -3.52754 1.69353 0
M  V30 4512 H 423.218 -3.97582 0.0381369 0
M  V30 4513 N 424.215 -0.530993 -1.48385 0
M  V30 4514 C 425.462 0.0027373 -2.025 0
M  V30 4515 C 425.79 1.34186 -1.40799 0
M  V30 4516 O 425.045 1.88 -0.543544 0
M  V30 4517 C 425.344 0.172742 -3.56982 0
M  V30 4518 C 425.01 -1.09215 -4.37473 0
M  V30 4519 C 423.672 -1.43881 -4.59186 0
M  V30 4520 C 426.024 -1.93153 -4.84088 0
M  V30 4521 C 423.352 -2.62381 -5.2476 0
M  V30 4522 C 425.704 -3.10833 -5.50968 0
M  V30 4523 C 424.368 -3.45843 -5.70919 0
M  V30 4524 H 423.638 0.00100165 -0.740999 0
M  V30 4525 H 426.285 -0.697219 -1.78357 0
M  V30 4526 H 424.59 0.955473 -3.79971 0
M  V30 4527 H 426.287 0.600642 -3.96476 0
M  V30 4528 H 422.877 -0.812177 -4.20834 0
M  V30 4529 H 427.061 -1.67683 -4.67115 0
M  V30 4530 H 422.317 -2.89707 -5.38405 0
M  V30 4531 H 426.491 -3.7618 -5.86056 0
M  V30 4532 H 424.118 -4.37764 -6.21503 0
M  V30 4533 N 425.693 1.55336 -0.266172 0
M  V30 4534 C 426.623 2.25146 0.618981 0
M  V30 4535 C 427.604 1.23845 1.16604 0
M  V30 4536 O 428.789 1.52544 1.20183 0
M  V30 4537 C 425.919 2.96572 1.80728 0
M  V30 4538 C 424.873 4.04726 1.39215 0
M  V30 4539 C 424.199 4.63678 2.66283 0
M  V30 4540 C 425.499 5.19407 0.548942 0
M  V30 4541 H 427.193 2.99377 0.0368116 0
M  V30 4542 H 424.739 1.43991 0.0162651 0
M  V30 4543 H 426.692 3.44116 2.43232 0
M  V30 4544 H 425.416 2.19861 2.41514 0
M  V30 4545 H 424.075 3.57979 0.790351 0
M  V30 4546 H 423.723 3.83646 3.25308 0
M  V30 4547 H 423.423 5.367 2.39222 0
M  V30 4548 H 424.947 5.13967 3.29651 0
M  V30 4549 H 426.361 5.63059 1.07876 0
M  V30 4550 H 424.758 5.98936 0.373593 0
M  V30 4551 H 425.828 4.8295 -0.434394 0
M  V30 4552 N 427.171 -0.0066808 1.57599 0
M  V30 4553 C 428.587 -0.36267 1.55425 0
M  V30 4554 C 428.787 -1.75209 0.995187 0
M  V30 4555 O 427.843 -2.44616 0.626058 0
M  V30 4556 C 429.156 -0.244017 2.99708 0
M  V30 4557 C 430.704 -0.319451 3.11366 0
M  V30 4558 C 431.179 -0.229998 4.57422 0
M  V30 4559 N 432.67 -0.288105 4.62303 0
M  V30 4560 C 433.405 -0.242127 5.72889 0
M  V30 4561 N 432.901 -0.147133 6.92644 0
M  V30 4562 N 434.694 -0.293502 5.61333 0
M  V30 4563 H 426.845 0.902314 1.92281 0
M  V30 4564 H 429.108 0.34525 0.882896 0
M  V30 4565 H 428.814 0.711678 3.44424 0
M  V30 4566 H 428.688 -1.02877 3.629 0
M  V30 4567 H 431.075 -1.26559 2.66584 0
M  V30 4568 H 431.156 0.495055 2.50964 0
M  V30 4569 H 430.8 0.712566 5.02877 0
M  V30 4570 H 430.73 -1.0629 5.15761 0
M  V30 4571 H 433.221 -0.363126 3.76151 0
M  V30 4572 H 433.534 -0.117763 7.7271 0
M  V30 4573 H 431.879 -0.112857 6.94908 0
M  V30 4574 H 435.07 -0.365864 4.66668 0
M  V30 4575 H 435.243 -0.254204 6.47501 0
M  V30 4576 N 428.649 -1.55105 -0.279332 0
M  V30 4577 C 429.879 -1.7917 -1.02867 0
M  V30 4578 C 430.287 -0.56204 -1.80659 0
M  V30 4579 O 429.63 0.478266 -1.77365 0
M  V30 4580 C 429.692 -2.96061 -2.03932 0
M  V30 4581 C 429.356 -4.33341 -1.45137 0
M  V30 4582 C 430.353 -5.12565 -0.870266 0
M  V30 4583 C 428.038 -4.79987 -1.48048 0
M  V30 4584 C 430.032 -6.36565 -0.326097 0
M  V30 4585 C 427.719 -6.03944 -0.932443 0
M  V30 4586 C 428.717 -6.8207 -0.356247 0
M  V30 4587 O 428.405 -8.03691 0.183412 0
M  V30 4588 H 428.137 -0.600796 -0.309872 0
M  V30 4589 H 430.691 -2.02932 -0.317468 0
M  V30 4590 H 428.921 -2.67975 -2.78794 0
M  V30 4591 H 430.61 -3.07506 -2.64943 0
M  V30 4592 H 431.376 -4.77661 -0.840521 0
M  V30 4593 H 427.255 -4.1919 -1.91835 0
M  V30 4594 H 430.799 -6.97489 0.124286 0
M  V30 4595 H 426.696 -6.3833 -0.959407 0
M  V30 4596 H 427.464 -8.18468 0.0721681 0
M  V30 4597 N 430.127 0.543554 -1.4793 0
M  V30 4598 C 431.538 1.12561 -1.48953 0
M  V30 4599 C 431.889 1.94578 -0.251754 0
M  V30 4600 O 431.014 2.0665 0.642255 0
M  V30 4601 C 431.609 2.04801 -2.69892 0
M  V30 4602 C 430.168 2.58251 -2.73831 0
M  V30 4603 C 429.315 1.34918 -2.42265 0
M  V30 4604 H 432.266 0.32947 -1.55242 0
M  V30 4605 H 432.287 2.88886 -2.47639 0
M  V30 4606 H 431.799 1.4508 -3.59963 0
M  V30 4607 H 429.9 3.21732 -1.87934 0
M  V30 4608 H 430.013 2.98312 -3.74895 0
M  V30 4609 H 428.377 1.66046 -1.93134 0
M  V30 4610 H 429.16 0.769693 -3.3456 0
M  V30 4611 N 431.605 1.3629 0.791371 0
M  V30 4612 C 432.851 1.30605 1.55146 0
M  V30 4613 C 433.184 -0.115042 1.93859 0
M  V30 4614 O 432.459 -1.06798 1.62556 0
M  V30 4615 C 432.742 2.22692 2.82985 0
M  V30 4616 C 432.595 3.73489 2.50651 0
M  V30 4617 C 433.914 2.13588 3.84796 0
M  V30 4618 H 431.033 0.475761 0.562868 0
M  V30 4619 H 433.675 1.66825 0.909358 0
M  V30 4620 H 431.825 1.91933 3.37778 0
M  V30 4621 H 433.497 4.14758 2.01924 0
M  V30 4622 H 431.74 3.93021 1.83622 0
M  V30 4623 H 432.411 4.3333 3.41949 0
M  V30 4624 H 434.887 2.40659 3.39445 0
M  V30 4625 H 433.763 2.80195 4.71998 0
M  V30 4626 H 434.024 1.12256 4.27611 0
M  V30 4627 N 433.083 -1.0153 1.20538 0
M  V30 4628 C 434.046 -2.0826 0.957098 0
M  V30 4629 C 435.046 -1.60657 -0.0678655 0
M  V30 4630 O 436.236 -1.73385 0.168332 0
M  V30 4631 C 433.368 -3.38033 0.441188 0
M  V30 4632 H 434.561 -2.31719 1.90384 0
M  V30 4633 H 432.114 -1.1835 1.02093 0
M  V30 4634 H 432.849 -3.20249 -0.510961 0
M  V30 4635 H 432.634 -3.73911 1.18038 0
M  V30 4636 H 434.124 -4.16613 0.287009 0
M  V30 4637 N 434.561 -1.01147 -1.20859 0
M  V30 4638 C 435.789 -0.716911 -1.94082 0
M  V30 4639 C 436.204 0.721568 -1.74467 0
M  V30 4640 O 435.561 1.48889 -1.05539 0
M  V30 4641 C 435.612 -1.03662 -3.46318 0
M  V30 4642 O 435.333 -2.4186 -3.65288 0
M  V30 4643 C 436.834 -0.762386 -4.36695 0
M  V30 4644 H 434.054 -0.26367 -0.617024 0
M  V30 4645 H 436.598 -1.35127 -1.53496 0
M  V30 4646 H 434.753 -0.447757 -3.84804 0
M  V30 4647 H 435.167 -2.53224 -4.59323 0
M  V30 4648 H 436.641 -1.03621 -5.42187 0
M  V30 4649 H 437.118 0.303514 -4.3815 0
M  V30 4650 H 437.724 -1.33316 -4.03865 0
M  V30 4651 N 436.039 1.36541 -0.78704 0
M  V30 4652 C 436.971 2.28761 -0.141773 0
M  V30 4653 C 437.984 1.49365 0.647599 0
M  V30 4654 O 439.173 1.71836 0.483173 0
M  V30 4655 C 436.273 3.28771 0.822368 0
M  V30 4656 C 435.446 4.3732 0.0835594 0
M  V30 4657 C 434.505 5.17307 0.963296 0
M  V30 4658 O 433.531 5.67638 0.421419 0
M  V30 4659 N 434.733 5.33515 2.28784 0
M  V30 4660 H 437.498 2.84777 -0.933919 0
M  V30 4661 H 435.059 1.48682 -0.640735 0
M  V30 4662 H 437.051 3.79169 1.41468 0
M  V30 4663 H 435.621 2.73412 1.5154 0
M  V30 4664 H 434.841 3.88118 -0.689809 0
M  V30 4665 H 436.129 5.0701 -0.426358 0
M  V30 4666 H 435.527 4.94234 2.75226 0
M  V30 4667 H 434.084 5.87165 2.82985 0
M  V30 4668 N 437.518 0.538854 1.48102 0
M  V30 4669 C 438.465 -0.219042 2.29758 0
M  V30 4670 C 439.435 -0.925562 1.37922 0
M  V30 4671 O 440.62 -0.924855 1.66886 0
M  V30 4672 C 437.76 -1.25452 3.2149 0
M  V30 4673 C 436.873 -0.555943 4.28408 0
M  V30 4674 C 436.008 -1.57512 5.0731 0
M  V30 4675 C 435.047 -0.860498 6.06021 0
M  V30 4676 N 434.184 -1.82564 6.77949 0
M  V30 4677 H 439.024 0.483449 2.94052 0
M  V30 4678 H 436.561 0.250247 1.44956 0
M  V30 4679 H 438.519 -1.86727 3.7308 0
M  V30 4680 H 437.149 -1.92528 2.591 0
M  V30 4681 H 436.201 0.170938 3.80016 0
M  V30 4682 H 437.513 0.00474616 4.988 0
M  V30 4683 H 436.667 -2.26191 5.62959 0
M  V30 4684 H 435.406 -2.16972 4.36778 0
M  V30 4685 H 434.411 -0.159686 5.49568 0
M  V30 4686 H 435.636 -0.271897 6.78555 0
M  V30 4687 H 433.582 -2.40915 6.10161 0
M  V30 4688 H 433.499 -1.31662 7.44447 0
M  V30 4689 H 434.767 -2.50414 7.38182 0
M  V30 4690 N 438.996 -1.55193 0.274407 0
M  V30 4691 C 440.273 -1.91584 -0.394331 0
M  V30 4692 C 440.653 -1.19858 -1.73774 0
M  V30 4693 O 440.001 -0.3252 -2.26174 0
M  V30 4694 C 440.211 -3.4487 -0.535311 0
M  V30 4695 C 441.559 -4.16636 -0.818534 0
M  V30 4696 O 442.583 -3.5076 -0.620146 0
M  V30 4697 O 441.442 -5.33209 -1.19792 0
M  V30 4698 H 438.536 -0.798349 -0.215794 0
M  V30 4699 H 441.082 -1.66646 0.320507 0
M  V30 4700 H 439.854 -3.89145 0.410141 0
M  V30 4701 H 439.477 -3.75759 -1.29964 0
M  V30 4702 N 440.474 -0.00167713 -1.576 0
M  V30 4703 C 441.404 0.988091 -2.11563 0
M  V30 4704 C 442.385 1.35736 -1.02517 0
M  V30 4705 O 443.57 1.44082 -1.30208 0
M  V30 4706 C 440.7 2.27941 -2.62031 0
M  V30 4707 C 439.654 2.0517 -3.75619 0
M  V30 4708 C 438.98 3.4033 -4.12407 0
M  V30 4709 C 440.28 1.41294 -5.02825 0
M  V30 4710 H 441.974 0.538771 -2.94513 0
M  V30 4711 H 439.52 0.257712 -1.41675 0
M  V30 4712 H 441.473 2.97539 -2.9841 0
M  V30 4713 H 440.197 2.74989 -1.76205 0
M  V30 4714 H 438.856 1.37998 -3.39635 0
M  V30 4715 H 438.504 3.85085 -3.23603 0
M  V30 4716 H 438.204 3.25909 -4.88935 0
M  V30 4717 H 439.728 4.1124 -4.51347 0
M  V30 4718 H 441.142 2.00851 -5.36965 0
M  V30 4719 H 439.539 1.37356 -5.84169 0
M  V30 4720 H 440.609 0.382362 -4.8339 0
M  V30 4721 N 441.952 1.55251 0.271103 0
M  V30 4722 C 442.915 1.87484 1.31842 0
M  V30 4723 C 443.915 0.749545 1.42262 0
M  V30 4724 O 445.105 1.01771 1.4138 0
M  V30 4725 C 442.237 2.0818 2.69951 0
M  V30 4726 H 443.43 2.81108 1.0449 0
M  V30 4727 H 440.983 1.47771 0.509258 0
M  V30 4728 H 441.718 1.16944 3.02481 0
M  V30 4729 H 441.503 2.90114 2.63774 0
M  V30 4730 H 442.993 2.34385 3.4562 0
M  V30 4731 N 443.43 -0.535701 1.48216 0
M  V30 4732 C 444.655 -1.32149 1.59848 0
M  V30 4733 C 445.08 -1.86338 0.256842 0
M  V30 4734 O 444.438 -1.64107 -0.770632 0
M  V30 4735 C 444.486 -2.45224 2.64381 0
M  V30 4736 O 443.59 -3.48093 2.21144 0
M  V30 4737 H 442.931 -0.391634 0.536208 0
M  V30 4738 H 445.461 -0.645202 1.94161 0
M  V30 4739 H 445.471 -2.91491 2.85476 0
M  V30 4740 H 444.146 -2.05143 3.61786 0
M  V30 4741 H 442.723 -3.07984 2.10239 0
M  V30 4742 N 444.908 -1.36708 -0.784132 0
M  V30 4743 C 446.156 -1.30972 -1.53918 0
M  V30 4744 C 446.477 0.109086 -1.94695 0
M  V30 4745 O 445.747 1.05048 -1.65353 0
M  V30 4746 H 444.327 -0.481819 -0.570841 0
M  V30 4747 H 446.989 -1.71063 -0.934002 0
M  V30 4748 H 446.085 -1.94061 -2.44431 0
M  V30 4749 N 446.386 1.0089 -1.21074 0
M  V30 4750 C 447.349 2.0775 -0.968129 0
M  V30 4751 C 448.349 1.6069 0.0593445 0
M  V30 4752 O 449.539 1.73293 -0.177525 0
M  V30 4753 C 446.671 3.37794 -0.459108 0
M  V30 4754 H 447.864 2.30707 -1.9161 0
M  V30 4755 H 445.417 1.17807 -1.02719 0
M  V30 4756 H 446.152 3.20516 0.49397 0
M  V30 4757 H 445.937 3.7328 -1.20019 0
M  V30 4758 H 447.427 4.16454 -0.309099 0
M  V30 4759 N 447.864 1.01787 1.20321 0
M  V30 4760 C 449.11 0.708985 1.90003 0
M  V30 4761 C 449.443 -0.759572 1.78729 0
M  V30 4762 O 448.718 -1.55198 1.17234 0
M  V30 4763 C 449.001 1.1469 3.41348 0
M  V30 4764 C 448.854 2.67586 3.61549 0
M  V30 4765 C 450.173 0.71915 4.34185 0
M  V30 4766 H 447.292 0.259034 0.689978 0
M  V30 4767 H 449.934 1.26584 1.41692 0
M  V30 4768 H 448.084 0.673128 3.82624 0
M  V30 4769 H 449.756 3.22826 3.29517 0
M  V30 4770 H 447.999 3.085 3.04976 0
M  V30 4771 H 448.67 2.93281 4.67643 0
M  V30 4772 H 451.146 1.12647 4.00562 0
M  V30 4773 H 450.022 1.05358 5.38694 0
M  V30 4774 H 450.283 -0.379111 4.40472 0
M  V30 4775 N 449.342 -1.36122 0.79427 0
M  V30 4776 C 450.753 -1.81646 0.431446 0
M  V30 4777 C 451.104 -1.66043 -1.04518 0
M  V30 4778 O 450.229 -1.1841 -1.8113 0
M  V30 4779 C 450.824 -3.29785 0.776341 0
M  V30 4780 C 449.383 -3.73501 0.466282 0
M  V30 4781 C 448.53 -2.58313 1.00844 0
M  V30 4782 H 451.481 -1.24274 0.986995 0
M  V30 4783 H 451.502 -3.80437 0.0692413 0
M  V30 4784 H 451.014 -3.4111 1.8511 0
M  V30 4785 H 449.115 -3.67733 -0.600245 0
M  V30 4786 H 449.228 -4.68754 0.990288 0
M  V30 4787 H 447.592 -2.5102 0.431406 0
M  V30 4788 H 448.375 -2.72421 2.08906 0
M  V30 4789 N 450.82 -0.546701 -1.47814 0
M  V30 4790 C 452.048 -0.0232857 -2.06887 0
M  V30 4791 C 452.463 1.26571 -1.4009 0
M  V30 4792 O 451.82 1.7569 -0.493906 0
M  V30 4793 C 451.871 0.186975 -3.61016 0
M  V30 4794 O 451.592 -1.05097 -4.25307 0
M  V30 4795 C 453.093 0.748872 -4.36929 0
M  V30 4796 H 450.313 -0.0410763 -0.669742 0
M  V30 4797 H 452.857 -0.757117 -1.89968 0
M  V30 4798 H 451.012 0.870903 -3.77484 0
M  V30 4799 H 451.426 -0.842121 -5.17695 0
M  V30 4800 H 452.9 0.845334 -5.45489 0
M  V30 4801 H 453.377 1.75772 -4.02493 0
M  V30 4802 H 453.983 0.100979 -4.2518 0
M  V30 4803 N 452.299 1.55045 -0.282633 0
M  V30 4804 C 453.247 2.24254 0.617478 0
M  V30 4805 C 454.241 1.24215 1.15183 0
M  V30 4806 O 455.447 1.42123 1.10459 0
M  V30 4807 H 451.822 0.719801 0.217693 0
M  V30 4808 H 453.793 2.98398 0.0110076 0
M  V30 4809 C 452.542 2.98281 1.78672 0
M  V30 4810 H 451.865 3.75053 1.38475 0
M  V30 4811 H 453.305 3.50017 2.393 0
M  V30 4812 C 451.764 2.04184 2.67975 0
M  V30 4813 O 452.294 1.59792 3.6855 0
M  V30 4814 N 450.5 1.70526 2.35307 0
M  V30 4815 H 450.047 2.06821 1.53567 0
M  V30 4816 H 450.005 1.07839 2.95327 0
M  V30 4817 N 453.777 0.010035 1.57597 0
M  V30 4818 C 454.707 -0.976857 2.12084 0
M  V30 4819 C 455.688 -1.35191 1.03235 0
M  V30 4820 O 456.873 -1.43389 1.3097 0
M  V30 4821 C 454.003 -2.26548 2.63236 0
M  V30 4822 C 452.957 -2.03175 3.76701 0
M  V30 4823 C 452.283 -3.38138 4.14206 0
M  V30 4824 C 453.583 -1.38625 5.03568 0
M  V30 4825 H 455.277 -0.523145 2.94794 0
M  V30 4826 H 452.823 -0.250195 1.4181 0
M  V30 4827 H 454.776 -2.95952 2.99984 0
M  V30 4828 H 453.5 -2.74051 1.77661 0
M  V30 4829 H 452.159 -1.36195 3.40362 0
M  V30 4830 H 451.807 -3.83363 3.25641 0
M  V30 4831 H 451.507 -3.23312 4.90656 0
M  V30 4832 H 453.031 -4.08841 4.53521 0
M  V30 4833 H 454.445 -1.98 5.38023 0
M  V30 4834 H 452.842 -1.34256 5.84889 0
M  V30 4835 H 453.912 -0.356722 4.83586 0
M  V30 4836 N 455.255 -1.55392 -0.262866 0
M  V30 4837 C 456.202 -1.88966 -1.32516 0
M  V30 4838 C 457.172 -0.742187 -1.48596 0
M  V30 4839 O 458.357 -0.99439 -1.62839 0
M  V30 4840 C 455.497 -2.17592 -2.67858 0
M  V30 4841 C 454.61 -3.45061 -2.59917 0
M  V30 4842 C 453.745 -3.63336 -3.87505 0
M  V30 4843 C 452.784 -4.84462 -3.74116 0
M  V30 4844 N 451.921 -4.99342 -4.93561 0
M  V30 4845 H 456.761 -2.79566 -1.03184 0
M  V30 4846 H 454.298 -1.38404 -0.498285 0
M  V30 4847 H 456.256 -2.3219 -3.46617 0
M  V30 4848 H 454.886 -1.30215 -2.95371 0
M  V30 4849 H 453.938 -3.38881 -1.72812 0
M  V30 4850 H 455.25 -4.3396 -2.45926 0
M  V30 4851 H 454.404 -3.77807 -4.74707 0
M  V30 4852 H 453.143 -2.72641 -4.04374 0
M  V30 4853 H 452.148 -4.69985 -2.85297 0
M  V30 4854 H 453.373 -5.76603 -3.58757 0
M  V30 4855 H 451.319 -4.1158 -5.10821 0
M  V30 4856 H 451.236 -5.82303 -4.82141 0
M  V30 4857 H 452.504 -5.18208 -5.82306 0
M  V30 4858 N 456.733 0.527833 -1.48498 0
M  V30 4859 C 458.144 1.10975 -1.50138 0
M  V30 4860 C 458.495 1.943 -0.272378 0
M  V30 4861 O 457.62 2.07319 0.620301 0
M  V30 4862 C 458.215 2.01927 -2.72049 0
M  V30 4863 C 456.774 2.55332 -2.76554 0
M  V30 4864 C 455.921 1.32341 -2.43683 0
M  V30 4865 H 458.872 0.312986 -1.55583 0
M  V30 4866 H 458.893 2.86244 -2.50689 0
M  V30 4867 H 458.405 1.41254 -3.61481 0
M  V30 4868 H 456.506 3.19721 -1.91336 0
M  V30 4869 H 456.619 2.94319 -3.78038 0
M  V30 4870 H 454.983 1.63989 -1.94884 0
M  V30 4871 H 455.766 0.734165 -3.35358 0
M  V30 4872 N 458.211 1.37122 0.776871 0
M  V30 4873 C 459.436 1.354 1.57104 0
M  V30 4874 C 459.861 -0.0595562 1.88006 0
M  V30 4875 O 459.219 -1.03514 1.48844 0
M  V30 4876 C 459.267 2.19472 2.8612 0
M  V30 4877 O 458.371 1.59582 3.80273 0
M  V30 4878 H 457.712 0.462869 0.476076 0
M  V30 4879 H 460.242 1.80577 0.961932 0
M  V30 4880 H 460.252 2.32502 3.35271 0
M  V30 4881 H 458.927 3.22222 2.62956 0
M  V30 4882 H 457.504 1.55564 3.38902 0
M  V30 4883 N 459.689 -1.00246 1.21608 0
M  V30 4884 C 460.636 -2.09073 0.977613 0
M  V30 4885 C 461.606 -1.65815 -0.097297 0
M  V30 4886 O 462.791 -1.90734 0.0503445 0
M  V30 4887 C 459.931 -3.40671 0.551133 0
M  V30 4888 C 459.044 -3.97326 1.69576 0
M  V30 4889 C 458.179 -5.17043 1.2182 0
M  V30 4890 C 457.218 -5.65813 2.335 0
M  V30 4891 N 456.355 -6.76778 1.86859 0
M  V30 4892 H 461.195 -2.28806 1.90924 0
M  V30 4893 H 458.732 -1.12186 0.951452 0
M  V30 4894 H 460.69 -4.16225 0.285097 0
M  V30 4895 H 459.32 -3.20967 -0.343489 0
M  V30 4896 H 458.372 -3.18734 2.07637 0
M  V30 4897 H 459.684 -4.29511 2.53617 0
M  V30 4898 H 458.838 -5.99852 0.908975 0
M  V30 4899 H 457.577 -4.86458 0.347869 0
M  V30 4900 H 456.582 -4.81599 2.65222 0
M  V30 4901 H 457.807 -5.98427 3.21033 0
M  V30 4902 H 455.753 -6.47994 1.02174 0
M  V30 4903 H 455.67 -7.08231 2.64471 0
M  V30 4904 H 456.938 -7.63116 1.58978 0
M  V30 4905 N 461.167 -1.02423 -1.1978 0
M  V30 4906 C 462.416 -0.713265 -1.88667 0
M  V30 4907 C 462.729 0.7609 -1.80193 0
M  V30 4908 O 463.935 1.18473 -2.44288 0
M  V30 4909 C 462.391 -1.22545 -3.38394 0
M  V30 4910 C 461.999 -2.72706 -3.55437 0
M  V30 4911 C 463.743 -0.990257 -4.12788 0
M  V30 4912 C 461.65 -3.17367 -4.99031 0
M  V30 4913 H 460.58 -0.263105 -0.706606 0
M  V30 4914 H 463.231 -1.23792 -1.35454 0
M  V30 4915 H 461.613 -0.628732 -3.90977 0
M  V30 4916 H 462.787 -3.37993 -3.13205 0
M  V30 4917 H 461.102 -2.94453 -2.94425 0
M  V30 4918 H 463.699 -1.29926 -5.18675 0
M  V30 4919 H 464.042 0.0730761 -4.16236 0
M  V30 4920 H 464.575 -1.55074 -3.66329 0
M  V30 4921 H 461.314 -4.23009 -5.00743 0
M  V30 4922 H 460.834 -2.56805 -5.42044 0
M  V30 4923 H 462.513 -3.10441 -5.67658 0
M  V30 4924 N 462.645 1.35699 -0.801477 0
M  V30 4925 C 463.592 2.29876 -0.206294 0
M  V30 4926 C 464.562 1.52565 0.656752 0
M  V30 4927 O 465.747 1.81024 0.602906 0
M  V30 4928 C 462.887 3.39052 0.643272 0
M  V30 4929 C 462 4.31335 -0.239644 0
M  V30 4930 C 461.135 5.27599 0.61744 0
M  V30 4931 C 460.174 6.11521 -0.26619 0
M  V30 4932 N 459.311 6.99938 0.550571 0
M  V30 4933 H 464.151 2.80187 -1.01484 0
M  V30 4934 H 461.688 1.37902 -0.511997 0
M  V30 4935 H 463.646 4.0101 1.15094 0
M  V30 4936 H 462.276 2.9003 1.41713 0
M  V30 4937 H 461.328 3.70426 -0.865381 0
M  V30 4938 H 462.64 4.90243 -0.919985 0
M  V30 4939 H 461.794 5.94906 1.19045 0
M  V30 4940 H 460.533 4.69176 1.33137 0
M  V30 4941 H 459.538 5.43166 -0.851507 0
M  V30 4942 H 460.763 6.72022 -0.9779 0
M  V30 4943 H 458.709 6.44008 1.24856 0
M  V30 4944 H 458.626 7.55966 -0.071832 0
M  V30 4945 H 459.894 7.71599 1.10702 0
M  V30 4946 N 464.123 0.554532 1.47522 0
M  V30 4947 C 465.055 -0.232106 2.28022 0
M  V30 4948 C 466.068 -0.881865 1.36847 0
M  V30 4949 O 467.257 -0.756168 1.61692 0
M  V30 4950 C 464.357 -1.34604 3.11022 0
M  V30 4951 C 463.53 -0.793582 4.30141 0
M  V30 4952 C 462.589 -1.79168 4.94758 0
M  V30 4953 O 461.615 -1.33886 5.5323 0
M  V30 4954 N 462.817 -3.12495 4.89211 0
M  V30 4955 H 465.582 0.458407 2.96173 0
M  V30 4956 H 463.143 0.390433 1.57122 0
M  V30 4957 H 465.135 -2.01243 3.51118 0
M  V30 4958 H 463.705 -1.93983 2.45131 0
M  V30 4959 H 462.925 0.0495025 3.94169 0
M  V30 4960 H 464.213 -0.403776 5.07195 0
M  V30 4961 H 463.611 -3.51931 4.42901 0
M  V30 4962 H 462.168 -3.74698 5.33333 0
M  V30 4963 N 465.601 -1.54893 0.290851 0
M  V30 4964 C 467.017 -1.59476 -0.0628432 0
M  V30 4965 C 467.217 -1.30795 -1.5328 0
M  V30 4966 O 466.273 -1.07644 -2.28406 0
M  V30 4967 C 467.586 -2.98928 0.325962 0
M  V30 4968 C 469.134 -3.11799 0.273882 0
M  V30 4969 C 469.609 -4.53544 0.637359 0
M  V30 4970 N 471.1 -4.59433 0.589507 0
M  V30 4971 C 471.835 -5.67164 0.84335 0
M  V30 4972 N 471.331 -6.82975 1.16263 0
M  V30 4973 N 473.124 -5.56786 0.771091 0
M  V30 4974 H 465.275 -1.71798 1.24896 0
M  V30 4975 H 467.538 -0.801879 0.505663 0
M  V30 4976 H 467.244 -3.24805 1.34887 0
M  V30 4977 H 467.118 -3.75793 -0.325441 0
M  V30 4978 H 469.505 -2.85677 -0.739765 0
M  V30 4979 H 469.586 -2.37112 0.959766 0
M  V30 4980 H 469.23 -4.80394 1.64877 0
M  V30 4981 H 469.16 -5.26553 -0.0704866 0
M  V30 4982 H 471.651 -3.76245 0.353252 0
M  V30 4983 H 471.964 -7.61048 1.34257 0
M  V30 4984 H 470.309 -6.84552 1.20057 0
M  V30 4985 H 473.5 -4.65187 0.521383 0
M  V30 4986 H 473.673 -6.40664 0.972295 0
M  V30 4987 N 467.08 -0.0183926 -1.57589 0
M  V30 4988 C 468.043 0.951986 -2.08494 0
M  V30 4989 C 469.043 1.26092 -0.997874 0
M  V30 4990 O 470.233 1.20304 -1.25987 0
M  V30 4991 C 467.365 2.27165 -2.54182 0
M  V30 4992 H 468.558 0.511307 -2.95509 0
M  V30 4993 H 466.111 0.229444 -1.54607 0
M  V30 4994 H 466.846 2.75884 -1.70465 0
M  V30 4995 H 466.631 2.06057 -3.33591 0
M  V30 4996 H 468.121 2.9674 -2.93828 0
M  V30 4997 N 468.558 1.5553 0.254621 0
M  V30 4998 C 469.835 1.6774 1.00611 0
M  V30 4999 C 470.215 0.555993 2.03647 0
M  V30 5000 O 469.563 -0.441583 2.24193 0
M  V30 5001 C 469.773 3.07725 1.6464 0
M  V30 5002 C 471.121 3.66074 2.15116 0
M  V30 5003 O 472.145 3.10476 1.74595 0
M  V30 5004 O 471.004 4.63526 2.89493 0
M  V30 5005 H 468.098 0.681958 0.467828 0
M  V30 5006 H 470.644 1.67863 0.24902 0
M  V30 5007 H 469.416 3.80792 0.900734 0
M  V30 5008 H 469.039 3.1158 2.46989 0
M  V30 5009 N 470.036 -0.519951 1.48776 0
M  V30 5010 C 471.261 -1.30447 1.6124 0
M  V30 5011 C 471.686 -1.86055 0.276591 0
M  V30 5012 O 471.044 -1.64915 -0.753183 0
M  V30 5013 C 471.092 -2.42406 2.66967 0
M  V30 5014 O 470.196 -3.45728 2.24824 0
M  V30 5015 H 469.537 -0.385924 0.540332 0
M  V30 5016 H 472.067 -0.624572 1.94834 0
M  V30 5017 H 472.077 -2.88447 2.88552 0
M  V30 5018 H 470.752 -2.01294 3.63941 0
M  V30 5019 H 469.329 -3.05737 2.13494 0
M  V30 5020 N 471.514 -1.37532 -0.769588 0
M  V30 5021 C 472.461 -1.3347 -1.88293 0
M  V30 5022 C 473.431 -0.199891 -1.64893 0
M  V30 5023 O 474.616 -0.389594 -1.8678 0
M  V30 5024 C 471.756 -1.14968 -3.25387 0
M  V30 5025 C 470.869 -2.37698 -3.60727 0
M  V30 5026 C 470.004 -2.12051 -4.8704 0
M  V30 5027 C 469.043 -3.30636 -5.15117 0
M  V30 5028 N 468.18 -3.04527 -6.3262 0
M  V30 5029 H 473.02 -2.28658 -1.911 0
M  V30 5030 H 470.557 -1.13622 -0.934257 0
M  V30 5031 H 472.515 -1.02261 -4.04473 0
M  V30 5032 H 471.145 -0.234263 -3.21949 0
M  V30 5033 H 470.197 -2.61137 -2.76608 0
M  V30 5034 H 471.509 -3.26131 -3.77413 0
M  V30 5035 H 470.663 -1.96388 -5.74035 0
M  V30 5036 H 469.402 -1.20959 -4.72462 0
M  V30 5037 H 468.407 -3.46836 -4.26597 0
M  V30 5038 H 469.632 -4.22582 -5.31603 0
M  V30 5039 H 467.578 -2.16067 -6.19396 0
M  V30 5040 H 467.495 -3.86503 -6.49732 0
M  V30 5041 H 468.763 -2.92485 -7.22546 0
M  V30 5042 N 472.992 0.995999 -1.22138 0
M  V30 5043 C 473.902 2.11985 -1.00496 0
M  V30 5044 C 474.918 1.7394 0.0457701 0
M  V30 5045 O 476.094 2.00868 -0.146273 0
M  V30 5046 C 473.159 3.41779 -0.582086 0
M  V30 5047 C 472.22 3.93943 -1.70608 0
M  V30 5048 C 471.453 5.17542 -1.30328 0
M  V30 5049 O 471.676 5.70114 -0.180743 0
M  V30 5050 O 470.61 5.63382 -2.11861 0
M  V30 5051 H 474.436 2.33123 -1.94647 0
M  V30 5052 H 472.021 1.10358 -1.00705 0
M  V30 5053 H 473.903 4.1989 -0.356467 0
M  V30 5054 H 472.578 3.22007 0.330592 0
M  V30 5055 H 471.485 3.17019 -1.98619 0
M  V30 5056 H 472.818 4.18141 -2.59651 0
M  V30 5057 N 474.47 1.03057 1.19235 0
M  V30 5058 C 475.695 0.74757 1.93458 0
M  V30 5059 C 476.12 -0.687648 1.7508 0
M  V30 5060 O 475.478 -1.47499 1.05422 0
M  V30 5061 C 475.526 1.10604 3.43219 0
M  V30 5062 O 474.63 0.225671 4.11782 0
M  V30 5063 H 473.971 0.276047 0.603899 0
M  V30 5064 H 476.501 1.3777 1.51263 0
M  V30 5065 H 476.511 1.06366 3.93891 0
M  V30 5066 H 475.186 2.15165 3.55917 0
M  V30 5067 H 473.763 0.326795 3.71465 0
M  V30 5068 N 475.948 -1.35272 0.808662 0
M  V30 5069 C 476.878 -2.32315 0.234981 0
M  V30 5070 C 477.859 -1.57572 -0.64071 0
M  V30 5071 O 479.044 -1.8563 -0.570551 0
M  V30 5072 C 476.174 -3.41801 -0.615601 0
M  V30 5073 C 475.128 -4.27694 0.161767 0
M  V30 5074 C 474.454 -5.28519 -0.810649 0
M  V30 5075 C 475.754 -5.04231 1.36193 0
M  V30 5076 H 477.448 -2.80543 1.04575 0
M  V30 5077 H 474.994 -1.3488 0.504315 0
M  V30 5078 H 476.947 -4.08693 -1.02702 0
M  V30 5079 H 475.671 -2.92186 -1.45928 0
M  V30 5080 H 474.33 -3.62384 0.554382 0
M  V30 5081 H 473.978 -4.75171 -1.64988 0
M  V30 5082 H 473.678 -5.8686 -0.294822 0
M  V30 5083 H 475.202 -5.98283 -1.22023 0
M  V30 5084 H 476.616 -5.64058 1.02528 0
M  V30 5085 H 475.013 -5.72077 1.81239 0
M  V30 5086 H 476.083 -4.34753 2.14751 0
M  V30 5087 N 477.426 -0.562348 -1.47226 0
M  V30 5088 C 478.373 0.182461 -2.30078 0
M  V30 5089 C 479.343 0.903503 -1.39377 0
M  V30 5090 O 480.528 0.898188 -1.68337 0
M  V30 5091 C 477.668 1.20322 -3.23445 0
M  V30 5092 C 476.781 0.487717 -4.29238 0
M  V30 5093 C 475.916 1.49422 -5.09752 0
M  V30 5094 C 474.955 0.763976 -6.07314 0
M  V30 5095 N 474.092 1.71755 -6.80768 0
M  V30 5096 H 478.932 -0.530169 -2.93246 0
M  V30 5097 H 476.469 -0.273276 -1.44539 0
M  V30 5098 H 478.427 1.80768 -3.76004 0
M  V30 5099 H 477.057 1.88382 -2.6213 0
M  V30 5100 H 476.109 -0.231374 -3.79696 0
M  V30 5101 H 477.421 -0.0841003 -4.98729 0
M  V30 5102 H 476.575 2.17206 -5.66486 0
M  V30 5103 H 475.314 2.09995 -4.40174 0
M  V30 5104 H 474.319 0.0722344 -5.49753 0
M  V30 5105 H 475.544 0.16391 -6.78902 0
M  V30 5106 H 473.49 2.31177 -6.13916 0
M  V30 5107 H 473.407 1.19802 -7.46447 0
M  V30 5108 H 474.675 2.38638 -7.42073 0
M  V30 5109 N 478.904 1.54736 -0.299062 0
M  V30 5110 C 479.867 2.22127 0.565012 0
M  V30 5111 C 480.867 1.20669 1.06281 0
M  V30 5112 O 482.057 1.45417 0.959145 0
M  V30 5113 C 479.189 2.90611 1.78208 0
M  V30 5114 H 480.382 2.99891 -0.0237448 0
M  V30 5115 H 477.935 1.5622 -0.0498788 0
M  V30 5116 H 478.67 2.16921 2.41072 0
M  V30 5117 H 478.455 3.64984 1.43281 0
M  V30 5118 H 479.945 3.42026 2.396 0
M  V30 5119 N 480.382 0.0267497 1.57577 0
M  V30 5120 C 481.61 -0.662661 1.96001 0
M  V30 5121 C 482.025 -1.65799 0.903117 0
M  V30 5122 O 481.382 -1.82135 -0.115317 0
M  V30 5123 C 481.433 -1.37112 3.34488 0
M  V30 5124 O 481.154 -0.415683 4.36123 0
M  V30 5125 C 482.655 -2.15257 3.8753 0
M  V30 5126 H 479.875 -0.18287 0.6456 0
M  V30 5127 H 482.419 0.0858116 2.0432 0
M  V30 5128 H 480.574 -2.07101 3.27395 0
M  V30 5129 H 480.988 -0.918496 5.16395 0
M  V30 5130 H 482.462 -2.60285 4.86781 0
M  V30 5131 H 482.939 -2.99063 3.21649 0
M  V30 5132 H 483.545 -1.50231 3.97883 0
M  V30 5133 N 481.861 -1.55662 -0.24637 0
M  V30 5134 C 483.089 -1.81575 -0.991876 0
M  V30 5135 C 483.504 -0.602545 -1.78927 0
M  V30 5136 O 482.861 0.428795 -1.77391 0
M  V30 5137 C 482.912 -3.05711 -1.92933 0
M  V30 5138 O 482.633 -4.22348 -1.1642 0
M  V30 5139 C 484.134 -3.44428 -2.79078 0
M  V30 5140 H 481.354 -0.604209 -0.291844 0
M  V30 5141 H 483.898 -2.02722 -0.269095 0
M  V30 5142 H 482.053 -2.86612 -2.60638 0
M  V30 5143 H 482.467 -4.92706 -1.79835 0
M  V30 5144 H 483.941 -4.34388 -3.40603 0
M  V30 5145 H 484.418 -2.65037 -3.50217 0
M  V30 5146 H 485.024 -3.65879 -2.16824 0
M  V30 5147 N 483.339 0.512053 -1.4905 0
M  V30 5148 C 484.286 1.6148 -1.64902 0
M  V30 5149 C 485.256 1.58687 -0.490673 0
M  V30 5150 O 486.441 1.76842 -0.71636 0
M  V30 5151 C 483.581 2.99676 -1.71139 0
M  V30 5152 C 482.694 3.12568 -2.98203 0
M  V30 5153 C 481.829 4.4143 -2.95487 0
M  V30 5154 C 480.868 4.47916 -4.17179 0
M  V30 5155 N 480.005 5.68191 -4.12437 0
M  V30 5156 H 484.845 1.47271 -2.59066 0
M  V30 5157 H 482.382 0.716713 -1.28459 0
M  V30 5158 H 484.34 3.79761 -1.72736 0
M  V30 5159 H 482.97 3.12614 -0.804508 0
M  V30 5160 H 482.022 2.25618 -3.06269 0
M  V30 5161 H 483.334 3.1322 -3.88194 0
M  V30 5162 H 482.488 5.29825 -2.95585 0
M  V30 5163 H 481.227 4.43326 -2.03256 0
M  V30 5164 H 480.232 3.57925 -4.17337 0
M  V30 5165 H 481.457 4.47744 -5.1059 0
M  V30 5166 H 479.403 5.7095 -3.23036 0
M  V30 5167 H 479.32 5.70413 -4.96151 0
M  V30 5168 H 480.588 6.58823 -4.16621 0
M  V30 5169 N 484.817 1.37938 0.762283 0
M  V30 5170 C 486.045 1.36883 1.55147 0
M  V30 5171 C 486.46 -0.0435348 1.8875 0
M  V30 5172 O 485.817 -1.00786 1.52146 0
M  V30 5173 C 485.868 2.21624 2.85596 0
M  V30 5174 O 485.589 3.57358 2.5343 0
M  V30 5175 C 487.09 2.28653 3.7978 0
M  V30 5176 H 484.31 0.468521 0.480343 0
M  V30 5177 H 486.854 1.81404 0.944079 0
M  V30 5178 H 485.009 1.80588 3.42734 0
M  V30 5179 H 485.423 4.01883 3.37032 0
M  V30 5180 H 486.897 2.9225 4.68288 0
M  V30 5181 H 487.374 1.29767 4.19592 0
M  V30 5182 H 487.98 2.70043 3.28568 0
M  V30 5183 N 486.295 -0.989507 1.22664 0
M  V30 5184 C 487.258 -2.06183 1.00106 0
M  V30 5185 C 488.258 -1.60765 -0.0337726 0
M  V30 5186 O 489.448 -1.72989 0.205072 0
M  V30 5187 C 486.58 -3.37021 0.51279 0
M  V30 5188 H 487.773 -2.27629 1.95256 0
M  V30 5189 H 485.326 -1.16158 1.0458 0
M  V30 5190 H 486.061 -3.21261 -0.442917 0
M  V30 5191 H 485.846 -3.71323 1.25942 0
M  V30 5192 H 487.336 -4.1591 0.375315 0
M  V30 5193 N 487.773 -1.03688 -1.18687 0
M  V30 5194 C 489.019 -0.739123 -1.88851 0
M  V30 5195 C 489.352 0.731042 -1.79915 0
M  V30 5196 O 488.627 1.53313 -1.19688 0
M  V30 5197 C 488.91 -1.20106 -3.3948 0
M  V30 5198 C 488.763 -2.73304 -3.57246 0
M  V30 5199 C 490.082 -0.788134 -4.32986 0
M  V30 5200 H 487.201 -0.269978 -0.68577 0
M  V30 5201 H 489.843 -1.28822 -1.3966 0
M  V30 5202 H 487.993 -0.733915 -3.81505 0
M  V30 5203 H 489.665 -3.28027 -3.24339 0
M  V30 5204 H 487.908 -3.13313 -3.00029 0
M  V30 5205 H 488.579 -3.00684 -4.62918 0
M  V30 5206 H 491.055 -1.19005 -3.98719 0
M  V30 5207 H 489.931 -1.13915 -5.36949 0
M  V30 5208 H 490.192 0.308988 -4.41019 0
M  V30 5209 N 489.251 1.34841 -0.815825 0
M  V30 5210 C 490.476 2.03261 -0.41226 0
M  V30 5211 C 490.901 1.61055 0.971751 0
M  V30 5212 O 490.259 0.7917 1.63101 0
M  V30 5213 C 490.307 3.56914 -0.514289 0
M  V30 5214 O 489.411 4.09728 0.468675 0
M  V30 5215 H 488.752 0.641664 -0.170771 0
M  V30 5216 H 491.282 1.72241 -1.10427 0
M  V30 5217 H 491.292 4.06156 -0.387457 0
M  V30 5218 H 489.967 3.86982 -1.52375 0
M  V30 5219 H 488.544 3.71681 0.301316 0
M  V30 5220 N 490.729 0.570148 1.46925 0
M  V30 5221 C 491.676 -0.170257 2.30171 0
M  V30 5222 C 492.646 -0.896099 1.39855 0
M  V30 5223 O 493.831 -0.889248 1.68811 0
M  V30 5224 C 490.971 -1.18605 3.24079 0
M  V30 5225 C 490.084 -0.464947 4.29491 0
M  V30 5226 C 489.219 -1.46716 5.10537 0
M  V30 5227 C 488.258 -0.731758 6.0771 0
M  V30 5228 N 487.395 -1.68142 6.81669 0
M  V30 5229 H 492.235 0.545713 2.92961 0
M  V30 5230 H 489.772 0.280938 1.44392 0
M  V30 5231 H 491.73 -1.78771 3.76957 0
M  V30 5232 H 490.36 -1.86989 2.63125 0
M  V30 5233 H 489.412 0.251506 3.79568 0
M  V30 5234 H 490.724 0.110548 4.98677 0
M  V30 5235 H 489.878 -2.14199 5.6763 0
M  V30 5236 H 488.617 -2.07658 4.41282 0
M  V30 5237 H 487.622 -0.0430787 5.49783 0
M  V30 5238 H 488.847 -0.127904 6.7898 0
M  V30 5239 H 486.793 -2.27918 6.15134 0
M  V30 5240 H 486.71 -1.15841 7.47072 0
M  V30 5241 H 487.978 -2.347 7.43328 0
M  V30 5242 N 492.207 -1.54576 0.307264 0
M  V30 5243 C 493.137 -2.26708 -0.55907 0
M  V30 5244 C 494.118 -1.26893 -1.1328 0
M  V30 5245 O 495.303 -1.55677 -1.16097 0
M  V30 5246 C 492.433 -3.01259 -1.72801 0
M  V30 5247 C 491.387 -4.08275 -1.28435 0
M  V30 5248 C 490.713 -4.70575 -2.53895 0
M  V30 5249 C 492.013 -5.2068 -0.411038 0
M  V30 5250 H 493.707 -2.9937 0.042576 0
M  V30 5251 H 491.253 -1.43983 0.0219173 0
M  V30 5252 H 493.206 -3.50444 -2.34023 0
M  V30 5253 H 491.93 -2.26187 -2.356 0
M  V30 5254 H 490.589 -3.59949 -0.695161 0
M  V30 5255 H 490.237 -3.92136 -3.15021 0
M  V30 5256 H 489.937 -5.42854 -2.24908 0
M  V30 5257 H 491.461 -5.22527 -3.15908 0
M  V30 5258 H 492.875 -5.65721 -0.929097 0
M  V30 5259 H 491.272 -5.99716 -0.214664 0
M  V30 5260 H 492.342 -4.81629 0.562287 0
M  V30 5261 N 493.685 -0.035106 -1.57561 0
M  V30 5262 C 494.648 0.929819 -2.09492 0
M  V30 5263 C 495.648 1.25026 -1.01119 0
M  V30 5264 O 496.838 1.18961 -1.27255 0
M  V30 5265 C 493.97 2.24457 -2.56577 0
M  V30 5266 H 495.163 0.479935 -2.96035 0
M  V30 5267 H 492.716 0.213033 -1.54841 0
M  V30 5268 H 493.451 2.74061 -1.73382 0
M  V30 5269 H 493.236 2.02508 -3.35757 0
M  V30 5270 H 494.726 2.93607 -2.96959 0
M  V30 5271 N 495.163 1.55791 0.238111 0
M  V30 5272 C 496.11 1.9105 1.29493 0
M  V30 5273 C 497.08 0.765733 1.47397 0
M  V30 5274 O 498.265 1.02017 1.61236 0
M  V30 5275 C 495.405 2.21826 2.64362 0
M  V30 5276 C 494.518 3.49153 2.54394 0
M  V30 5277 C 493.653 3.69455 3.81676 0
M  V30 5278 C 492.692 4.90353 3.66361 0
M  V30 5279 N 491.829 5.07131 4.85554 0
M  V30 5280 H 496.669 2.81172 0.987233 0
M  V30 5281 H 494.206 1.39179 0.476203 0
M  V30 5282 H 496.164 2.37675 3.4288 0
M  V30 5283 H 494.794 1.34897 2.93262 0
M  V30 5284 H 493.846 3.41587 1.67399 0
M  V30 5285 H 495.158 4.37818 2.38991 0
M  V30 5286 H 494.312 3.85311 4.68636 0
M  V30 5287 H 493.051 2.7904 3.99985 0
M  V30 5288 H 492.056 4.74464 2.77784 0
M  V30 5289 H 493.281 5.82237 3.49538 0
M  V30 5290 H 491.227 4.19654 5.04209 0
M  V30 5291 H 491.144 5.89899 4.72816 0
M  V30 5292 H 492.412 5.27407 5.73988 0
M  V30 5293 N 496.642 -0.504142 1.49319 0
M  V30 5294 C 498.058 -0.835039 1.36012 0
M  V30 5295 C 498.258 -1.97674 0.390808 0
M  V30 5296 O 497.314 -2.51867 -0.178655 0
M  V30 5297 C 498.627 -1.17821 2.76656 0
M  V30 5298 C 500.175 -1.2866 2.85334 0
M  V30 5299 C 500.65 -1.66307 4.26739 0
M  V30 5300 N 502.141 -1.73362 4.29534 0
M  V30 5301 C 502.876 -2.0393 5.35911 0
M  V30 5302 N 502.372 -2.32744 6.52535 0
M  V30 5303 N 504.165 -2.05155 5.23324 0
M  V30 5304 H 496.316 0.248764 2.10938 0
M  V30 5305 H 498.579 0.0486962 0.946748 0
M  V30 5306 H 498.285 -0.412682 3.4927 0
M  V30 5307 H 498.159 -2.12239 3.11825 0
M  V30 5308 H 500.546 -2.04285 2.1296 0
M  V30 5309 H 500.627 -0.323004 2.53752 0
M  V30 5310 H 500.271 -0.91234 4.99639 0
M  V30 5311 H 500.201 -2.63761 4.55782 0
M  V30 5312 H 502.692 -1.53268 3.45424 0
M  V30 5313 H 503.005 -2.55248 7.2943 0
M  V30 5314 H 501.35 -2.30207 6.55767 0
M  V30 5315 H 504.541 -1.82119 4.3122 0
M  V30 5316 H 504.714 -2.28644 6.06322 0
M  V30 5317 N 498.12 -1.38341 -0.754957 0
M  V30 5318 C 499.03 -1.3769 -1.89944 0
M  V30 5319 C 500.046 -0.274194 -1.71826 0
M  V30 5320 O 501.222 -0.512391 -1.94773 0
M  V30 5321 C 498.287 -1.19938 -3.25293 0
M  V30 5322 C 497.348 -2.40001 -3.55946 0
M  V30 5323 C 496.581 -2.23087 -4.84838 0
M  V30 5324 O 496.804 -1.22386 -5.57116 0
M  V30 5325 O 495.738 -3.11646 -5.14937 0
M  V30 5326 H 499.564 -2.3412 -1.93446 0
M  V30 5327 H 497.149 -1.19246 -0.900044 0
M  V30 5328 H 499.031 -1.12093 -4.06218 0
M  V30 5329 H 497.706 -0.265919 -3.22606 0
M  V30 5330 H 496.613 -2.53421 -2.75188 0
M  V30 5331 H 497.946 -3.31973 -3.63394 0
M  V30 5332 N 499.598 0.982988 -1.23187 0
M  V30 5333 C 500.508 2.10907 -1.02739 0
M  V30 5334 C 501.524 1.73979 0.0273188 0
M  V30 5335 O 502.7 2.00702 -0.16757 0
M  V30 5336 C 499.765 3.41142 -0.618304 0
M  V30 5337 C 498.826 3.92112 -1.74777 0
M  V30 5338 C 498.059 5.16131 -1.3581 0
M  V30 5339 O 498.282 5.6989 -0.241201 0
M  V30 5340 O 497.216 5.61103 -2.17824 0
M  V30 5341 H 501.042 2.31046 -1.97108 0
M  V30 5342 H 498.627 1.09284 -1.01869 0
M  V30 5343 H 500.509 4.19488 -0.400982 0
M  V30 5344 H 499.184 3.2234 0.296421 0
M  V30 5345 H 498.091 3.14895 -2.0197 0
M  V30 5346 H 499.424 4.15364 -2.64071 0
M  V30 5347 N 501.076 1.04316 1.18135 0
M  V30 5348 C 502.322 0.749128 1.88457 0
M  V30 5349 C 502.655 -0.72149 1.803 0
M  V30 5350 O 501.93 -1.52676 1.205 0
M  V30 5351 C 502.213 1.21905 3.38838 0
M  V30 5352 C 502.066 2.75195 3.55792 0
M  V30 5353 C 503.385 0.811085 4.32561 0
M  V30 5354 H 500.504 0.273611 0.684329 0
M  V30 5355 H 503.146 1.29561 1.38975 0
M  V30 5356 H 501.296 0.754137 3.8111 0
M  V30 5357 H 502.968 3.29743 3.22595 0
M  V30 5358 H 501.211 3.14899 2.98364 0
M  V30 5359 H 501.882 3.03135 4.61317 0
M  V30 5360 H 504.358 1.21118 3.98082 0
M  V30 5361 H 503.234 1.16761 5.36338 0
M  V30 5362 H 503.495 -0.285596 4.41177 0
M  V30 5363 N 502.554 -1.34406 0.822964 0
M  V30 5364 C 503.8 -1.98578 0.411666 0
M  V30 5365 C 504.133 -1.65093 -1.02264 0
M  V30 5366 O 503.408 -0.92258 -1.71227 0
M  V30 5367 C 503.691 -3.54823 0.614235 0
M  V30 5368 C 503.544 -3.9805 2.09466 0
M  V30 5369 C 504.863 -4.40071 0.050221 0
M  V30 5370 H 501.982 -0.721355 0.151047 0
M  V30 5371 H 504.624 -1.59301 1.03554 0
M  V30 5372 H 502.774 -3.88411 0.0831774 0
M  V30 5373 H 504.446 -3.74795 2.68936 0
M  V30 5374 H 502.689 -3.4836 2.5851 0
M  V30 5375 H 503.36 -5.06819 2.18721 0
M  V30 5376 H 505.836 -4.13037 0.503953 0
M  V30 5377 H 504.712 -5.48452 0.221759 0
M  V30 5378 H 504.973 -4.29576 -1.04482 0
M  V30 5379 N 504.032 -0.577932 -1.46621 0
M  V30 5380 C 504.942 0.160651 -2.34049 0
M  V30 5381 C 505.958 0.890911 -1.49462 0
M  V30 5382 O 507.134 0.855166 -1.82343 0
M  V30 5383 C 504.199 1.16447 -3.26559 0
M  V30 5384 C 503.26 0.4394 -4.27045 0
M  V30 5385 C 502.493 1.3954 -5.15135 0
M  V30 5386 O 502.716 2.63162 -5.06065 0
M  V30 5387 O 501.65 0.908585 -5.95003 0
M  V30 5388 H 505.476 -0.557057 -2.98547 0
M  V30 5389 H 503.061 -0.338369 -1.45518 0
M  V30 5390 H 504.943 1.7434 -3.83645 0
M  V30 5391 H 503.618 1.86373 -2.64663 0
M  V30 5392 H 502.525 -0.181247 -3.73661 0
M  V30 5393 H 503.858 -0.218799 -4.91713 0
M  V30 5394 N 505.51 1.54411 -0.315457 0
M  V30 5395 C 506.42 2.27737 0.56329 0
M  V30 5396 C 507.436 1.31787 1.13614 0
M  V30 5397 O 508.612 1.64791 1.15784 0
M  V30 5398 C 505.677 3.01478 1.71207 0
M  V30 5399 C 504.738 4.12997 1.17185 0
M  V30 5400 C 503.971 4.83212 2.26588 0
M  V30 5401 O 504.194 4.52884 3.46775 0
M  V30 5402 O 503.128 5.70299 1.92463 0
M  V30 5403 H 506.954 3.03683 -0.0319614 0
M  V30 5404 H 504.539 1.49178 -0.0814188 0
M  V30 5405 H 506.421 3.47683 2.38106 0
M  V30 5406 H 505.096 2.28414 2.29366 0
M  V30 5407 H 504.003 3.71159 0.468174 0
M  V30 5408 H 505.336 4.8808 0.635501 0
M  V30 5409 N 506.988 0.0434614 1.5754 0
M  V30 5410 C 508.236 -0.630786 1.92004 0
M  V30 5411 C 508.557 -1.71836 0.921807 0
M  V30 5412 O 507.827 -1.9587 -0.034522 0
M  V30 5413 H 506.407 -0.235988 0.708745 0
M  V30 5414 H 509.069 0.0946462 1.9467 0
M  V30 5415 H 508.165 -1.07434 2.93026 0
M  V30 5416 N 508.466 -1.55915 -0.229846 0
M  V30 5417 C 509.429 -1.90914 -1.26824 0
M  V30 5418 C 510.429 -0.786999 -1.40225 0
M  V30 5419 O 511.619 -1.05484 -1.38632 0
M  V30 5420 C 508.751 -2.15264 -2.64337 0
M  V30 5421 H 509.944 -2.8378 -0.969998 0
M  V30 5422 H 507.497 -1.49069 -0.4699 0
M  V30 5423 H 508.232 -1.24923 -2.99274 0
M  V30 5424 H 508.017 -2.97005 -2.55989 0
M  V30 5425 H 509.507 -2.43467 -3.39284 0
M  V30 5426 N 509.944 0.496216 -1.49584 0
M  V30 5427 C 510.891 1.59722 -1.66606 0
M  V30 5428 C 511.861 1.58158 -0.507477 0
M  V30 5429 O 513.046 1.76072 -0.735076 0
M  V30 5430 C 510.186 2.97844 -1.74308 0
M  V30 5431 C 509.299 3.09388 -3.01502 0
M  V30 5432 C 508.434 4.38271 -3.00153 0
M  V30 5433 C 507.473 4.43466 -4.21906 0
M  V30 5434 N 506.61 5.63784 -4.1844 0
M  V30 5435 H 511.45 1.44515 -2.60613 0
M  V30 5436 H 508.987 0.703048 -1.29212 0
M  V30 5437 H 510.945 3.77907 -1.76754 0
M  V30 5438 H 509.575 3.11743 -0.837619 0
M  V30 5439 H 508.627 2.22357 -3.08645 0
M  V30 5440 H 509.939 3.09085 -3.91494 0
M  V30 5441 H 509.093 5.2666 -3.01188 0
M  V30 5442 H 507.832 4.41146 -2.07947 0
M  V30 5443 H 506.837 3.53478 -4.21109 0
M  V30 5444 H 508.062 4.42303 -5.1531 0
M  V30 5445 H 506.008 5.67491 -3.29074 0
M  V30 5446 H 505.925 5.65118 -5.02173 0
M  V30 5447 H 507.193 6.54367 -4.23585 0
M  V30 5448 N 511.423 1.38739 0.74761 0
M  V30 5449 C 512.333 1.38696 1.89211 0
M  V30 5450 C 513.349 0.283303 1.71678 0
M  V30 5451 O 514.525 0.522713 1.94498 0
M  V30 5452 C 511.59 1.21662 3.24653 0
M  V30 5453 C 510.651 2.41886 3.54669 0
M  V30 5454 C 509.884 2.25655 4.83648 0
M  V30 5455 O 510.107 1.25339 5.56459 0
M  V30 5456 O 509.041 3.14372 5.13277 0
M  V30 5457 H 512.867 2.35143 1.92202 0
M  V30 5458 H 510.452 1.19721 0.893708 0
M  V30 5459 H 512.334 1.14246 4.05618 0
M  V30 5460 H 511.009 0.283024 3.2246 0
M  V30 5461 H 509.916 2.54877 2.73841 0
M  V30 5462 H 511.249 3.33895 3.61628 0
M  V30 5463 N 512.901 -0.976442 1.23707 0
M  V30 5464 C 513.864 -2.0511 1.02287 0
M  V30 5465 C 514.864 -1.60791 -0.0167195 0
M  V30 5466 O 516.054 -1.72761 0.223408 0
M  V30 5467 C 513.186 -3.36458 0.548507 0
M  V30 5468 H 514.379 -2.25545 1.9766 0
M  V30 5469 H 511.932 -1.15042 1.05806 0
M  V30 5470 H 512.667 -3.21713 -0.408818 0
M  V30 5471 H 512.452 -3.69967 1.29874 0
M  V30 5472 H 513.942 -4.15489 0.419406 0
M  V30 5473 N 514.379 -1.04941 -1.1758 0
M  V30 5474 C 515.795 -0.770282 -1.39781 0
M  V30 5475 C 515.995 0.636417 -1.91186 0
M  V30 5476 O 515.051 1.39923 -2.10185 0
M  V30 5477 C 516.364 -1.82376 -2.3908 0
M  V30 5478 C 517.912 -1.84569 -2.52791 0
M  V30 5479 C 518.387 -2.88933 -3.55361 0
M  V30 5480 N 519.878 -2.8788 -3.62877 0
M  V30 5481 C 520.613 -3.65282 -4.41992 0
M  V30 5482 N 520.109 -4.52461 -5.24643 0
M  V30 5483 N 521.902 -3.53732 -4.36841 0
M  V30 5484 H 514.053 -1.95705 -0.825438 0
M  V30 5485 H 516.316 -0.847284 -0.425222 0
M  V30 5486 H 516.022 -2.83323 -2.08376 0
M  V30 5487 H 515.896 -1.66327 -3.38549 0
M  V30 5488 H 518.283 -0.842879 -2.82807 0
M  V30 5489 H 518.364 -2.04696 -1.53406 0
M  V30 5490 H 518.008 -3.89398 -3.26085 0
M  V30 5491 H 517.938 -2.66059 -4.54445 0
M  V30 5492 H 520.429 -2.24666 -3.03864 0
M  V30 5493 H 520.742 -5.08211 -5.82187 0
M  V30 5494 H 519.087 -4.56524 -5.24033 0
M  V30 5495 H 522.278 -2.85021 -3.71323 0
M  V30 5496 H 522.451 -4.14302 -4.98255 0
M  V30 5497 N 515.857 1.33968 -0.830081 0
M  V30 5498 C 517.082 2.02813 -0.433796 0
M  V30 5499 C 517.507 1.62076 0.954614 0
M  V30 5500 O 516.865 0.808955 1.62252 0
M  V30 5501 C 516.913 3.56348 -0.552115 0
M  V30 5502 O 516.017 4.10202 0.425191 0
M  V30 5503 H 515.358 0.639817 -0.177567 0
M  V30 5504 H 517.888 1.7106 -1.12248 0
M  V30 5505 H 517.898 4.05722 -0.430513 0
M  V30 5506 H 516.573 3.85344 -1.56471 0
M  V30 5507 H 515.15 3.71979 0.261878 0
M  V30 5508 N 517.335 0.585699 1.46312 0
M  V30 5509 C 518.245 -0.148236 2.34131 0
M  V30 5510 C 519.261 -0.882972 1.49932 0
M  V30 5511 O 520.437 -0.845484 1.82794 0
M  V30 5512 C 517.502 -1.14714 3.27172 0
M  V30 5513 C 516.563 -0.416746 4.27272 0
M  V30 5514 C 515.796 -1.36806 5.15868 0
M  V30 5515 O 516.019 -2.60475 5.07454 0
M  V30 5516 O 514.953 -0.877018 5.95476 0
M  V30 5517 H 518.779 0.572882 2.98248 0
M  V30 5518 H 516.364 0.346082 1.45336 0
M  V30 5519 H 518.246 -1.72303 3.84564 0
M  V30 5520 H 516.921 -1.84967 2.65648 0
M  V30 5521 H 515.828 0.201061 3.73559 0
M  V30 5522 H 517.161 0.244872 4.9159 0
M  V30 5523 N 518.813 -1.54241 0.323641 0
M  V30 5524 C 519.743 -2.27289 -0.534993 0
M  V30 5525 C 520.724 -1.28087 -1.11927 0
M  V30 5526 O 521.909 -1.56899 -1.14439 0
M  V30 5527 C 519.039 -3.03075 -1.69596 0
M  V30 5528 C 517.993 -4.09614 -1.24098 0
M  V30 5529 C 517.319 -4.73242 -2.4889 0
M  V30 5530 C 518.619 -5.21087 -0.355789 0
M  V30 5531 H 520.313 -2.99308 0.0743257 0
M  V30 5532 H 517.859 -1.43952 0.0371874 0
M  V30 5533 H 519.812 -3.52907 -2.30293 0
M  V30 5534 H 518.536 -2.28673 -2.33187 0
M  V30 5535 H 517.195 -3.60666 -0.656945 0
M  V30 5536 H 516.843 -3.95455 -3.10845 0
M  V30 5537 H 516.543 -5.45209 -2.19138 0
M  V30 5538 H 518.067 -5.25848 -3.10348 0
M  V30 5539 H 519.481 -5.66675 -0.869042 0
M  V30 5540 H 517.878 -5.9991 -0.151045 0
M  V30 5541 H 518.948 -4.81005 0.613339 0
M  V30 5542 N 520.291 -0.0518155 -1.57515 0
M  V30 5543 C 521.254 0.907547 -2.10467 0
M  V30 5544 C 522.254 1.23947 -1.02439 0
M  V30 5545 O 523.444 1.17604 -1.2851 0
M  V30 5546 C 520.576 2.21723 -2.58944 0
M  V30 5547 H 521.769 0.44851 -2.96527 0
M  V30 5548 H 519.322 0.196598 -1.55059 0
M  V30 5549 H 520.057 2.72206 -1.76279 0
M  V30 5550 H 519.842 1.98935 -3.37886 0
M  V30 5551 H 521.332 2.90441 -3.00056 0
M  V30 5552 N 521.769 1.56035 0.221574 0
M  V30 5553 C 522.716 1.92413 1.27459 0
M  V30 5554 C 523.686 0.781323 1.46576 0
M  V30 5555 O 524.871 1.03721 1.60145 0
M  V30 5556 C 522.011 2.24617 2.61995 0
M  V30 5557 C 521.124 3.51831 2.50677 0
M  V30 5558 C 520.259 3.73482 3.77736 0
M  V30 5559 C 519.298 4.94211 3.6114 0
M  V30 5560 N 518.435 5.12252 4.80148 0
M  V30 5561 H 523.275 2.82203 0.957355 0
M  V30 5562 H 520.812 1.39676 0.461415 0
M  V30 5563 H 522.77 2.41298 3.40339 0
M  V30 5564 H 521.4 1.38 2.91815 0
M  V30 5565 H 520.452 3.43343 1.63767 0
M  V30 5566 H 521.764 4.40328 2.34334 0
M  V30 5567 H 520.918 3.9026 4.64523 0
M  V30 5568 H 519.657 2.83266 3.97003 0
M  V30 5569 H 518.662 4.77384 2.72736 0
M  V30 5570 H 519.887 5.85912 3.43343 0
M  V30 5571 H 517.833 4.24978 4.99729 0
M  V30 5572 H 517.75 5.94881 4.66532 0
M  V30 5573 H 519.018 5.33465 5.68362 0
M  V30 5574 N 523.247 -0.488276 1.49845 0
M  V30 5575 C 524.157 -1.61451 1.70207 0
M  V30 5576 C 525.173 -1.63877 0.584846 0
M  V30 5577 O 526.349 -1.82063 0.861107 0
M  V30 5578 C 523.414 -2.9776 1.77594 0
M  V30 5579 C 522.475 -3.05861 3.01243 0
M  V30 5580 C 521.708 -4.35668 3.08268 0
M  V30 5581 O 521.931 -5.25197 2.22541 0
M  V30 5582 O 520.865 -4.49005 4.00847 0
M  V30 5583 H 524.691 -1.47199 2.65643 0
M  V30 5584 H 522.276 -0.665939 1.33737 0
M  V30 5585 H 524.158 -3.7875 1.84732 0
M  V30 5586 H 522.833 -3.12248 0.8534 0
M  V30 5587 H 521.74 -2.24012 2.99616 0
M  V30 5588 H 523.073 -2.96304 3.9302 0
M  V30 5589 N 524.725 -1.39134 -0.740242 0
M  V30 5590 C 525.655 -1.40165 -1.86751 0
M  V30 5591 C 526.636 -0.265708 -1.68012 0
M  V30 5592 O 527.821 -0.47076 -1.88408 0
M  V30 5593 C 524.951 -1.2392 -3.2444 0
M  V30 5594 C 523.905 -2.34858 -3.57807 0
M  V30 5595 C 523.231 -2.03707 -4.94376 0
M  V30 5596 C 524.531 -3.77159 -3.61315 0
M  V30 5597 H 526.225 -2.345 -1.86145 0
M  V30 5598 H 523.771 -1.12875 -0.89416 0
M  V30 5599 H 525.724 -1.23263 -4.02969 0
M  V30 5600 H 524.448 -0.26051 -3.25559 0
M  V30 5601 H 523.107 -2.34723 -2.81604 0
M  V30 5602 H 522.755 -1.04289 -4.9207 0
M  V30 5603 H 522.455 -2.78016 -5.17669 0
M  V30 5604 H 523.979 -2.04691 -5.75268 0
M  V30 5605 H 525.393 -3.79252 -4.29931 0
M  V30 5606 H 523.79 -4.50784 -3.96124 0
M  V30 5607 H 524.86 -4.08513 -2.61238 0
M  V30 5608 N 526.204 0.969867 -1.24223 0
M  V30 5609 C 527.167 2.04564 -1.03373 0
M  V30 5610 C 528.167 1.60798 0.00819206 0
M  V30 5611 O 529.357 1.72641 -0.232567 0
M  V30 5612 C 526.489 3.36163 -0.566343 0
M  V30 5613 H 527.682 2.24494 -1.98853 0
M  V30 5614 H 525.235 1.1448 -1.06415 0
M  V30 5615 H 525.97 3.21925 0.391751 0
M  V30 5616 H 525.755 3.69273 -1.31834 0
M  V30 5617 H 527.245 4.1526 -0.441435 0
M  V30 5618 N 527.682 1.05563 1.17022 0
M  V30 5619 C 528.629 0.659893 2.21165 0
M  V30 5620 C 529.599 -0.339813 1.62587 0
M  V30 5621 O 530.784 -0.230378 1.89404 0
M  V30 5622 C 527.924 0.0447297 3.45071 0
M  V30 5623 C 527.037 1.09372 4.17926 0
M  V30 5624 C 526.172 0.445481 5.29329 0
M  V30 5625 C 525.211 1.47852 5.93975 0
M  V30 5626 N 524.348 0.854172 6.96885 0
M  V30 5627 H 529.188 1.55243 2.54369 0
M  V30 5628 H 526.725 0.776336 1.24946 0
M  V30 5629 H 528.683 -0.329404 4.15898 0
M  V30 5630 H 527.313 -0.811244 3.1244 0
M  V30 5631 H 526.365 1.58564 3.45777 0
M  V30 5632 H 527.677 1.87773 4.62107 0
M  V30 5633 H 526.831 0.0179688 6.06697 0
M  V30 5634 H 525.57 -0.370481 4.86291 0
M  V30 5635 H 524.575 1.91601 5.15334 0
M  V30 5636 H 525.8 2.29645 6.39093 0
M  V30 5637 H 523.746 0.0587882 6.55974 0
M  V30 5638 H 523.663 1.57567 7.39397 0
M  V30 5639 H 524.931 0.451559 7.78191 0
M  V30 5640 N 529.16 -1.33526 0.837174 0
M  V30 5641 C 530.388 -2.02047 0.445494 0
M  V30 5642 C 530.803 -1.62995 -0.952788 0
M  V30 5643 O 530.16 -0.842447 -1.61892 0
M  V30 5644 C 530.211 -3.57221 0.554577 0
M  V30 5645 O 529.932 -3.94863 1.89776 0
M  V30 5646 C 531.433 -4.43012 0.159634 0
M  V30 5647 H 528.653 -0.647221 0.177048 0
M  V30 5648 H 531.197 -1.70492 1.12928 0
M  V30 5649 H 529.352 -3.87315 -0.0812781 0
M  V30 5650 H 529.766 -4.89569 1.88208 0
M  V30 5651 H 531.24 -5.51253 0.28701 0
M  V30 5652 H 531.717 -4.29916 -0.898289 0
M  V30 5653 H 532.323 -4.18274 0.769855 0
M  V30 5654 N 530.638 -0.59345 -1.46 0
M  V30 5655 C 531.548 0.135817 -2.34207 0
M  V30 5656 C 532.564 0.875008 -1.50398 0
M  V30 5657 O 533.74 0.835778 -1.83239 0
M  V30 5658 C 530.805 1.12977 -3.27776 0
M  V30 5659 C 529.866 0.394081 -4.27487 0
M  V30 5660 C 529.099 1.34068 -5.16586 0
M  V30 5661 O 529.322 2.5778 -5.08828 0
M  V30 5662 O 528.256 0.845426 -5.95933 0
M  V30 5663 H 532.082 -0.588691 -2.9794 0
M  V30 5664 H 529.667 -0.353784 -1.45151 0
M  V30 5665 H 531.549 1.70261 -3.85473 0
M  V30 5666 H 530.224 1.83556 -2.66625 0
M  V30 5667 H 529.131 -0.220869 -3.73447 0
M  V30 5668 H 530.464 -0.270939 -4.91454 0
M  V30 5669 N 532.116 1.54067 -0.331816 0
M  V30 5670 C 533.063 2.24623 0.530372 0
M  V30 5671 C 534.033 1.24009 1.10503 0
M  V30 5672 O 535.218 1.52712 1.14384 0
M  V30 5673 C 532.358 3.01374 1.68129 0
M  V30 5674 C 531.471 4.16821 1.13507 0
M  V30 5675 C 530.606 4.81085 2.25234 0
M  V30 5676 C 529.645 5.88621 1.67903 0
M  V30 5677 N 528.782 6.46713 2.73326 0
M  V30 5678 H 533.622 2.97898 -0.0778607 0
M  V30 5679 H 531.159 1.47014 -0.0501965 0
M  V30 5680 H 533.117 3.44125 2.35868 0
M  V30 5681 H 531.747 2.30419 2.26069 0
M  V30 5682 H 530.799 3.78796 0.348979 0
M  V30 5683 H 532.111 4.94203 0.675633 0
M  V30 5684 H 531.265 5.26846 3.00862 0
M  V30 5685 H 530.004 4.03102 2.74518 0
M  V30 5686 H 529.009 5.42254 0.907773 0
M  V30 5687 H 530.234 6.68506 1.19487 0
M  V30 5688 H 528.18 5.71599 3.21886 0
M  V30 5689 H 528.097 7.19532 2.3197 0
M  V30 5690 H 529.365 6.97129 3.48758 0
M  V30 5691 N 533.594 0.0601682 1.57485 0
M  V30 5692 C 534.541 -0.91112 2.12055 0
M  V30 5693 C 535.511 -1.30298 1.03013 0
M  V30 5694 O 536.696 -1.39087 1.30612 0
M  V30 5695 C 533.836 -2.1775 2.67729 0
M  V30 5696 C 532.949 -1.83933 3.90887 0
M  V30 5697 C 532.084 -3.05096 4.34845 0
M  V30 5698 C 531.123 -2.67241 5.5068 0
M  V30 5699 N 530.26 -3.81127 5.8965 0
M  V30 5700 H 535.1 -0.43888 2.9475 0
M  V30 5701 H 532.637 -0.204995 1.45665 0
M  V30 5702 H 534.595 -2.91866 2.98111 0
M  V30 5703 H 533.225 -2.62535 1.87816 0
M  V30 5704 H 532.277 -0.999287 3.6704 0
M  V30 5705 H 533.589 -1.52074 4.75052 0
M  V30 5706 H 532.743 -3.87502 4.66827 0
M  V30 5707 H 531.482 -3.40139 3.49509 0
M  V30 5708 H 530.487 -1.83254 5.18361 0
M  V30 5709 H 531.712 -2.3338 6.37738 0
M  V30 5710 H 529.658 -4.15954 5.07266 0
M  V30 5711 H 529.575 -3.52997 6.68528 0
M  V30 5712 H 530.843 -4.64145 6.2625 0
M  V30 5713 N 535.072 -1.5615 -0.213296 0
M  V30 5714 C 536.035 -1.92249 -1.24792 0
M  V30 5715 C 537.035 -0.801828 -1.39382 0
M  V30 5716 O 538.225 -1.06948 -1.37506 0
M  V30 5717 C 535.357 -2.18056 -2.62039 0
M  V30 5718 H 536.55 -2.84793 -0.939845 0
M  V30 5719 H 534.103 -1.49559 -0.454062 0
M  V30 5720 H 534.838 -1.2809 -2.97932 0
M  V30 5721 H 534.623 -2.99703 -2.52825 0
M  V30 5722 H 536.113 -2.47051 -3.36683 0
M  V30 5723 N 536.55 0.480323 -1.50102 0
M  V30 5724 C 537.497 1.57946 -1.6829 0
M  V30 5725 C 538.467 1.57611 -0.524223 0
M  V30 5726 O 539.652 1.75282 -0.753709 0
M  V30 5727 C 536.792 2.95978 -1.77457 0
M  V30 5728 C 535.905 3.06173 -3.04766 0
M  V30 5729 C 535.04 4.35063 -3.04784 0
M  V30 5730 C 534.079 4.38966 -4.26586 0
M  V30 5731 N 533.216 5.59314 -4.24396 0
M  V30 5732 H 538.056 1.41743 -2.62131 0
M  V30 5733 H 535.593 0.689304 -1.2995 0
M  V30 5734 H 537.551 3.76011 -1.80752 0
M  V30 5735 H 536.181 3.10837 -0.870637 0
M  V30 5736 H 535.233 2.19071 -3.10986 0
M  V30 5737 H 536.545 3.04916 -3.9475 0
M  V30 5738 H 535.699 5.23436 -3.06757 0
M  V30 5739 H 534.438 4.38915 -2.12614 0
M  V30 5740 H 533.443 3.48992 -4.24835 0
M  V30 5741 H 534.668 4.36813 -5.19972 0
M  V30 5742 H 532.614 5.63969 -3.35074 0
M  V30 5743 H 532.531 5.5976 -5.08138 0
M  V30 5744 H 533.799 6.49837 -4.30502 0
M  V30 5745 N 538.028 1.39524 0.732853 0
M  V30 5746 C 538.938 1.40695 1.87729 0
M  V30 5747 C 539.954 0.301496 1.71368 0
M  V30 5748 O 541.13 0.543313 1.93933 0
M  V30 5749 C 538.195 1.25098 3.23344 0
M  V30 5750 C 537.256 2.45634 3.52083 0
M  V30 5751 C 536.489 2.30772 4.81228 0
M  V30 5752 O 536.712 1.31233 5.55098 0
M  V30 5753 O 535.646 3.19799 5.09914 0
M  V30 5754 H 539.472 2.37168 1.89697 0
M  V30 5755 H 537.057 1.20663 0.880959 0
M  V30 5756 H 538.939 1.18541 4.04383 0
M  V30 5757 H 537.614 0.317209 3.22142 0
M  V30 5758 H 536.521 2.57767 2.71122 0
M  V30 5759 H 537.854 3.37712 3.58066 0
M  V30 5760 N 539.506 -0.963266 1.24736 0
M  V30 5761 C 540.731 -1.74699 1.11781 0
M  V30 5762 C 541.156 -1.85267 -0.325258 0
M  V30 5763 O 540.514 -1.32681 -1.23553 0
M  V30 5764 C 540.562 -3.14322 1.76731 0
M  V30 5765 O 539.666 -3.99043 1.04109 0
M  V30 5766 H 539.007 -0.53684 0.390767 0
M  V30 5767 H 541.537 -1.20801 1.65131 0
M  V30 5768 H 541.547 -3.64824 1.82668 0
M  V30 5769 H 540.222 -3.05946 2.81726 0
M  V30 5770 H 538.799 -3.5752 1.05991 0
M  V30 5771 N 540.985 -1.06182 -1.16461 0
M  V30 5772 C 542.21 -0.798599 -1.91408 0
M  V30 5773 C 542.635 0.640987 -1.76842 0
M  V30 5774 O 541.993 1.44652 -1.09296 0
M  V30 5775 C 542.041 -1.19665 -3.40165 0
M  V30 5776 O 541.145 -0.334768 -4.11039 0
M  V30 5777 H 540.486 -0.291961 -0.596368 0
M  V30 5778 H 543.016 -1.41732 -1.47557 0
M  V30 5779 H 543.026 -1.16772 -3.90933 0
M  V30 5780 H 541.701 -2.24526 -3.50087 0
M  V30 5781 H 540.278 -0.425168 -3.70468 0
M  V30 5782 N 542.463 1.3308 -0.844243 0
M  V30 5783 C 543.373 2.32876 -0.283922 0
M  V30 5784 C 544.389 1.63589 0.592846 0
M  V30 5785 O 545.565 1.95205 0.495693 0
M  V30 5786 C 542.63 3.42667 0.527283 0
M  V30 5787 C 541.691 4.27664 -0.374394 0
M  V30 5788 C 540.924 5.32212 0.39819 0
M  V30 5789 O 541.147 5.46635 1.62932 0
M  V30 5790 O 540.081 6.01458 -0.2306 0
M  V30 5791 H 543.907 2.82671 -1.11045 0
M  V30 5792 H 541.492 1.36518 -0.606903 0
M  V30 5793 H 543.374 4.09652 0.988078 0
M  V30 5794 H 542.049 2.95079 1.33078 0
M  V30 5795 H 540.956 3.63526 -0.883144 0
M  V30 5796 H 542.289 4.78749 -1.1428 0
M  V30 5797 N 543.941 0.601185 1.45683 0
M  V30 5798 C 544.888 -0.121396 2.30481 0
M  V30 5799 C 545.858 -0.866232 1.41724 0
M  V30 5800 O 547.043 -0.85324 1.70659 0
M  V30 5801 C 544.183 -1.11704 3.26521 0
M  V30 5802 C 543.296 -0.373741 4.3038 0
M  V30 5803 C 542.431 -1.35854 5.13534 0
M  V30 5804 C 541.47 -0.602689 6.09126 0
M  V30 5805 N 540.607 -1.53645 6.85082 0
M  V30 5806 H 545.447 0.607732 2.91737 0
M  V30 5807 H 542.984 0.311502 1.43764 0
M  V30 5808 H 544.942 -1.70735 3.80664 0
M  V30 5809 H 543.572 -1.81366 2.67032 0
M  V30 5810 H 542.624 0.331962 3.78949 0
M  V30 5811 H 543.936 0.2163 4.98331 0
M  V30 5812 H 543.09 -2.02111 5.72046 0
M  V30 5813 H 541.829 -1.98251 4.45587 0
M  V30 5814 H 540.834 0.0735482 5.49751 0
M  V30 5815 H 542.059 0.0161467 6.79098 0
M  V30 5816 H 540.005 -2.14819 6.1983 0
M  V30 5817 H 539.922 -0.999688 7.49361 0
M  V30 5818 H 541.19 -2.1888 7.48139 0
M  V30 5819 N 545.419 -1.53889 0.339982 0
M  V30 5820 C 546.83 -1.86139 -0.144671 0
M  V30 5821 C 547.181 -1.2613 -1.50285 0
M  V30 5822 O 546.306 -0.573515 -2.08662 0
M  V30 5823 C 546.901 -3.37728 -0.269285 0
M  V30 5824 C 545.46 -3.69868 -0.698168 0
M  V30 5825 C 544.607 -2.76777 0.170249 0
M  V30 5826 H 547.558 -1.48503 0.559704 0
M  V30 5827 H 547.579 -3.64331 -1.0974 0
M  V30 5828 H 547.091 -3.81375 0.719366 0
M  V30 5829 H 545.192 -3.31764 -1.69597 0
M  V30 5830 H 545.305 -4.76582 -0.490533 0
M  V30 5831 H 543.669 -2.52188 -0.356844 0
M  V30 5832 H 544.452 -3.23253 1.15597 0
M  V30 5833 N 546.897 -0.0685191 -1.57451 0
M  V30 5834 C 548.308 0.464634 -1.80826 0
M  V30 5835 C 548.659 1.69847 -0.982169 0
M  V30 5836 O 547.784 2.15439 -0.203734 0
M  V30 5837 C 548.379 0.849721 -3.27971 0
M  V30 5838 C 546.938 1.32776 -3.52204 0
M  V30 5839 C 546.085 0.311332 -2.75547 0
M  V30 5840 H 549.036 -0.294248 -1.55948 0
M  V30 5841 H 549.057 1.71138 -3.39841 0
M  V30 5842 H 548.569 -0.0484736 -3.8807 0
M  V30 5843 H 546.67 2.24456 -2.97406 0
M  V30 5844 H 546.783 1.30794 -4.60901 0
M  V30 5845 H 545.147 0.787915 -2.42206 0
M  V30 5846 H 545.93 -0.579078 -3.38381 0
M  V30 5847 N 548.375 1.56261 0.205012 0
M  V30 5848 C 549.285 1.96944 1.27476 0
M  V30 5849 C 550.301 0.875636 1.50362 0
M  V30 5850 O 551.477 1.18058 1.6317 0
M  V30 5851 C 548.542 2.29219 2.60115 0
M  V30 5852 C 547.603 3.52255 2.45387 0
M  V30 5853 C 546.836 3.8298 3.71701 0
M  V30 5854 O 547.059 3.15138 4.75441 0
M  V30 5855 O 545.993 4.76435 3.67823 0
M  V30 5856 H 549.819 2.88144 0.959527 0
M  V30 5857 H 547.404 1.43686 0.409217 0
M  V30 5858 H 549.286 2.51098 3.3842 0
M  V30 5859 H 547.961 1.4119 2.91285 0
M  V30 5860 H 546.868 3.35635 1.65227 0
M  V30 5861 H 548.201 4.40719 2.19152 0
M  V30 5862 N 549.853 -0.472356 1.50355 0
M  V30 5863 C 550.8 -1.57051 1.69126 0
M  V30 5864 C 551.77 -1.5733 0.532574 0
M  V30 5865 O 552.955 -1.7488 0.762994 0
M  V30 5866 C 550.095 -2.95033 1.79024 0
M  V30 5867 C 549.208 -3.04552 3.06386 0
M  V30 5868 C 548.343 -4.33441 3.07087 0
M  V30 5869 C 547.382 -4.36697 4.28908 0
M  V30 5870 N 546.519 -5.57056 4.27356 0
M  V30 5871 H 551.359 -1.40351 2.62879 0
M  V30 5872 H 548.896 -0.682403 1.30314 0
M  V30 5873 H 550.854 -3.75048 1.82744 0
M  V30 5874 H 549.484 -3.10371 0.887109 0
M  V30 5875 H 548.536 -2.17419 3.12143 0
M  V30 5876 H 549.848 -3.02818 3.96362 0
M  V30 5877 H 549.002 -5.21801 3.09529 0
M  V30 5878 H 547.741 -4.37782 2.14939 0
M  V30 5879 H 546.746 -3.46734 4.2668 0
M  V30 5880 H 547.971 -4.34049 5.22282 0
M  V30 5881 H 545.917 -5.62184 3.3806 0
M  V30 5882 H 545.834 -5.57058 5.111 0
M  V30 5883 H 547.102 -6.47545 4.33942 0
M  V30 5884 N 551.331 -1.39911 -0.725443 0
M  V30 5885 C 552.742 -1.33599 -1.30415 0
M  V30 5886 C 553.093 -0.00481792 -1.96199 0
M  V30 5887 O 552.218 0.897275 -1.96921 0
M  V30 5888 C 552.813 -2.41965 -2.37146 0
M  V30 5889 C 551.372 -2.39144 -2.90667 0
M  V30 5890 C 550.519 -2.23355 -1.64341 0
M  V30 5891 H 553.47 -1.4986 -0.522267 0
M  V30 5892 H 553.491 -2.09304 -3.17761 0
M  V30 5893 H 553.003 -3.38837 -1.89238 0
M  V30 5894 H 551.104 -1.4594 -3.4283 0
M  V30 5895 H 551.217 -3.34362 -3.43131 0
M  V30 5896 H 549.581 -1.70696 -1.89037 0
M  V30 5897 H 550.364 -3.2221 -1.18471 0
M  V30 5898 N 552.809 0.956637 -1.25245 0
M  V30 5899 C 553.772 2.03457 -1.05537 0
M  V30 5900 C 554.772 1.60798 -0.00886317 0
M  V30 5901 O 555.962 1.72384 -0.250865 0
M  V30 5902 C 553.094 3.35543 -0.601965 0
M  V30 5903 H 554.287 2.22372 -2.01223 0
M  V30 5904 H 551.84 1.13344 -1.07623 0
M  V30 5905 H 552.575 3.22323 0.357584 0
M  V30 5906 H 552.36 3.67854 -1.35743 0
M  V30 5907 H 553.85 4.14769 -0.485454 0
M  V30 5908 N 554.287 1.06798 1.15896 0
M  V30 5909 C 555.234 0.683314 2.20453 0
M  V30 5910 C 556.204 -0.32255 1.62938 0
M  V30 5911 O 557.389 -0.210276 1.89638 0
M  V30 5912 C 554.529 0.0813266 3.45004 0
M  V30 5913 C 553.642 1.13799 4.16742 0
M  V30 5914 C 552.777 0.501598 5.28826 0
M  V30 5915 C 551.816 1.54144 5.92373 0
M  V30 5916 N 550.953 0.928038 6.9594 0
M  V30 5917 H 555.793 1.57932 2.52708 0
M  V30 5918 H 553.33 0.789544 1.24115 0
M  V30 5919 H 555.288 -0.285274 4.16224 0
M  V30 5920 H 553.918 -0.77806 3.13283 0
M  V30 5921 H 552.97 1.62223 3.44075 0
M  V30 5922 H 554.282 1.92664 4.60089 0
M  V30 5923 H 553.436 0.0823162 6.06644 0
M  V30 5924 H 552.175 -0.318883 4.86656 0
M  V30 5925 H 551.18 1.97056 5.13273 0
M  V30 5926 H 552.405 2.3641 6.36621 0
M  V30 5927 H 550.351 0.12836 6.55874 0
M  V30 5928 H 550.268 1.65401 7.37685 0
M  V30 5929 H 551.536 0.534071 7.77668 0
M  V30 5930 N 555.766 -1.3263 0.851289 0
M  V30 5931 C 557.177 -1.79653 0.5081 0
M  V30 5932 C 557.528 -1.70327 -0.973815 0
M  V30 5933 O 556.653 -1.25986 -1.75944 0
M  V30 5934 C 557.248 -3.26196 0.915515 0
M  V30 5935 C 555.807 -3.71187 0.624277 0
M  V30 5936 C 554.954 -2.53804 1.11709 0
M  V30 5937 H 557.905 -1.19976 1.03882 0
M  V30 5938 H 557.926 -3.79801 0.230535 0
M  V30 5939 H 557.438 -3.32952 1.99411 0
M  V30 5940 H 555.539 -3.69948 -0.443737 0
M  V30 5941 H 555.652 -4.64132 1.18821 0
M  V30 5942 H 554.016 -2.48964 0.537484 0
M  V30 5943 H 554.799 -2.63315 2.20272 0
M  V30 5944 N 557.244 -0.608902 -1.45362 0
M  V30 5945 C 558.154 0.110969 -2.34337 0
M  V30 5946 C 559.17 0.859007 -1.51318 0
M  V30 5947 O 560.346 0.816296 -1.84116 0
M  V30 5948 C 557.411 1.09494 -3.28956 0
M  V30 5949 C 556.472 0.348718 -4.27881 0
M  V30 5950 C 555.705 1.28582 -5.17979 0
M  V30 5951 O 555.928 2.52369 -5.11533 0
M  V30 5952 O 554.862 0.782172 -5.96796 0
M  V30 5953 H 558.688 -0.620258 -2.97299 0
M  V30 5954 H 556.273 -0.36916 -1.44767 0
M  V30 5955 H 558.155 1.66163 -3.87257 0
M  V30 5956 H 556.83 1.80717 -2.68557 0
M  V30 5957 H 555.737 -0.260465 -3.73192 0
M  V30 5958 H 557.07 -0.323049 -4.91139 0
M  V30 5959 N 558.722 1.53707 -0.348139 0
M  V30 5960 C 560.138 1.596 0.00361134 0
M  V30 5961 C 560.338 1.36394 1.4832 0
M  V30 5962 O 559.394 1.16046 2.24253 0
M  V30 5963 C 560.707 2.97512 -0.436682 0
M  V30 5964 C 562.255 3.10568 -0.389416 0
M  V30 5965 C 562.73 4.50866 -0.805249 0
M  V30 5966 N 564.221 4.56929 -0.759616 0
M  V30 5967 C 564.956 5.63643 -1.05327 0
M  V30 5968 N 564.452 6.78189 -1.41531 0
M  V30 5969 N 566.245 5.5354 -0.977207 0
M  V30 5970 H 558.396 1.67044 -1.31187 0
M  V30 5971 H 560.659 0.782559 -0.535075 0
M  V30 5972 H 560.365 3.19575 -1.46849 0
M  V30 5973 H 560.239 3.76742 0.185744 0
M  V30 5974 H 562.626 2.88226 0.633228 0
M  V30 5975 H 562.707 2.33387 -1.04711 0
M  V30 5976 H 562.351 4.73943 -1.82593 0
M  V30 5977 H 562.281 5.26452 -0.124989 0
M  V30 5978 H 564.772 3.74675 -0.49265 0
M  V30 5979 H 565.085 7.55541 -1.62411 0
M  V30 5980 H 563.43 6.79624 -1.45381 0
M  V30 5981 H 566.621 4.62932 -0.693675 0
M  V30 5982 H 566.794 6.36614 -1.2094 0
M  V30 5983 N 560.2 0.0768682 1.57412 0
M  V30 5984 C 561.446 -0.591961 1.93968 0
M  V30 5985 C 561.779 -1.68954 0.9575 0
M  V30 5986 O 561.054 -1.94496 -0.0124675 0
M  V30 5987 C 561.337 -1.16418 3.40762 0
M  V30 5988 C 561.19 -0.0728933 4.49741 0
M  V30 5989 C 562.509 -2.06814 3.88479 0
M  V30 5990 H 559.628 -0.213716 0.705333 0
M  V30 5991 H 562.27 0.14387 1.89455 0
M  V30 5992 H 560.42 -1.79128 3.4474 0
M  V30 5993 H 562.092 0.560446 4.57883 0
M  V30 5994 H 560.335 0.595859 4.29688 0
M  V30 5995 H 561.006 -0.513755 5.49604 0
M  V30 5996 H 563.482 -1.54033 3.8654 0
M  V30 5997 H 562.358 -2.43785 4.91793 0
M  V30 5998 H 562.619 -2.97844 3.26713 0
M  V30 5999 N 561.678 -1.56367 -0.196722 0
M  V30 6000 C 562.625 -1.94417 -1.24382 0
M  V30 6001 C 563.595 -0.804543 -1.45315 0
M  V30 6002 O 564.78 -1.06256 -1.58475 0
M  V30 6003 C 561.92 -2.28757 -2.58388 0
M  V30 6004 C 561.033 -3.55775 -2.45047 0
M  V30 6005 C 560.168 -3.79445 -3.71746 0
M  V30 6006 C 559.207 -4.99894 -3.53231 0
M  V30 6007 N 558.344 -5.19826 -4.71938 0
M  V30 6008 H 563.184 -2.83691 -0.912338 0
M  V30 6009 H 560.721 -1.40392 -0.439135 0
M  V30 6010 H 562.679 -2.46682 -3.36457 0
M  V30 6011 H 561.309 -1.42625 -2.89582 0
M  V30 6012 H 560.361 -3.45905 -1.58284 0
M  V30 6013 H 561.673 -4.44 -2.27299 0
M  V30 6014 H 560.827 -3.97601 -4.58256 0
M  V30 6015 H 559.566 -2.89546 -3.92446 0
M  V30 6016 H 558.571 -4.81662 -2.65107 0
M  V30 6017 H 559.796 -5.913 -3.33978 0
M  V30 6018 H 557.742 -4.32875 -4.92905 0
M  V30 6019 H 557.659 -6.02228 -4.57009 0
M  V30 6020 H 558.927 -5.42439 -5.59803 0
M  V30 6021 N 563.156 0.464375 -1.50603 0
M  V30 6022 C 564.384 1.23907 -1.65695 0
M  V30 6023 C 564.799 1.85658 -0.343027 0
M  V30 6024 O 564.156 1.69529 0.675739 0
M  V30 6025 C 564.207 2.3429 -2.75301 0
M  V30 6026 O 563.928 1.7507 -4.01599 0
M  V30 6027 C 565.429 3.25051 -3.01424 0
M  V30 6028 H 562.649 0.374485 -0.556778 0
M  V30 6029 H 565.193 0.55353 -1.96866 0
M  V30 6030 H 563.348 2.98607 -2.46804 0
M  V30 6031 H 563.762 2.47812 -4.62266 0
M  V30 6032 H 565.236 3.98699 -3.81763 0
M  V30 6033 H 565.713 3.84227 -2.12758 0
M  V30 6034 H 566.319 2.66463 -3.31477 0
M  V30 6035 N 564.634 1.40294 0.718013 0
M  V30 6036 C 565.544 1.42678 1.86226 0
M  V30 6037 C 566.56 0.319655 1.71039 0
M  V30 6038 O 567.736 0.563852 1.93346 0
M  V30 6039 C 564.801 1.2852 3.21999 0
M  V30 6040 C 563.862 2.49354 3.49458 0
M  V30 6041 C 563.095 2.35863 4.78753 0
M  V30 6042 O 563.318 1.37114 5.53675 0
M  V30 6043 O 562.252 3.25189 5.06494 0
M  V30 6044 H 566.078 2.39167 1.87171 0
M  V30 6045 H 563.663 1.2159 0.868112 0
M  V30 6046 H 565.545 1.22824 4.03103 0
M  V30 6047 H 564.22 0.351359 3.21787 0
M  V30 6048 H 563.127 2.60628 2.68373 0
M  V30 6049 H 564.46 3.41491 3.54464 0
M  V30 6050 N 566.112 -0.949982 1.2575 0
M  V30 6051 C 567.337 -1.73503 1.13628 0
M  V30 6052 C 567.762 -1.85601 -0.30559 0
M  V30 6053 O 567.12 -1.33984 -1.22139 0
M  V30 6054 C 567.168 -3.1243 1.80055 0
M  V30 6055 O 566.272 -3.97916 1.08336 0
M  V30 6056 H 565.613 -0.532665 0.396439 0
M  V30 6057 H 568.143 -1.19043 1.66403 0
M  V30 6058 H 568.153 -3.62866 1.86527 0
M  V30 6059 H 566.828 -3.02941 2.84956 0
M  V30 6060 H 565.405 -3.56375 1.09777 0
M  V30 6061 N 567.59 -1.07411 -1.15328 0
M  V30 6062 C 568.815 -0.818856 -1.90551 0
M  V30 6063 C 569.24 0.622194 -1.77512 0
M  V30 6064 O 568.598 1.43484 -1.10824 0
M  V30 6065 C 568.646 -1.23267 -3.38877 0
M  V30 6066 O 567.75 -0.378345 -4.10661 0
M  V30 6067 H 567.091 -0.29827 -0.593238 0
M  V30 6068 H 569.621 -1.43289 -1.46046 0
M  V30 6069 H 569.631 -1.20912 -3.89672 0
M  V30 6070 H 568.306 -2.28226 -3.47686 0
M  V30 6071 H 566.883 -0.464437 -3.69996 0
M  V30 6072 N 569.068 1.32177 -0.85831 0
M  V30 6073 C 569.978 2.32561 -0.308606 0
M  V30 6074 C 570.994 1.64209 0.575462 0
M  V30 6075 O 572.17 1.95719 0.474961 0
M  V30 6076 C 569.235 3.43207 0.490909 0
M  V30 6077 C 568.296 4.27243 -0.419733 0
M  V30 6078 C 567.529 5.32605 0.341719 0
M  V30 6079 O 567.752 5.48332 1.57125 0
M  V30 6080 O 566.686 6.0118 -0.294379 0
M  V30 6081 H 570.512 2.81477 -1.14037 0
M  V30 6082 H 568.097 1.35866 -0.621349 0
M  V30 6083 H 569.979 4.10677 0.944574 0
M  V30 6084 H 568.654 2.96474 1.29941 0
M  V30 6085 H 567.561 3.62569 -0.921652 0
M  V30 6086 H 568.894 4.7751 -1.19352 0
M  V30 6087 N 570.547 0.616602 1.45037 0
M  V30 6088 C 571.51 -0.0871112 2.29034 0
M  V30 6089 C 572.51 -0.786414 1.40258 0
M  V30 6090 O 573.7 -0.633207 1.62284 0
M  V30 6091 C 570.832 -1.13369 3.21497 0
M  V30 6092 H 572.025 0.651497 2.92738 0
M  V30 6093 H 569.578 0.376058 1.51709 0
M  V30 6094 H 570.313 -1.90277 2.62612 0
M  V30 6095 H 570.098 -0.636358 3.86902 0
M  V30 6096 H 571.588 -1.62627 3.84633 0
M  V30 6097 N 572.025 -1.5352 0.356285 0
M  V30 6098 C 572.955 -2.28372 -0.486661 0
M  V30 6099 C 573.936 -1.30432 -1.09185 0
M  V30 6100 O 575.121 -1.59291 -1.11085 0
M  V30 6101 C 572.251 -3.06604 -1.63129 0
M  V30 6102 C 571.205 -4.12154 -1.15381 0
M  V30 6103 C 570.531 -4.78415 -2.38796 0
M  V30 6104 C 571.831 -5.21724 -0.245179 0
M  V30 6105 H 573.525 -2.99083 0.137797 0
M  V30 6106 H 571.071 -1.43841 0.0677134 0
M  V30 6107 H 573.024 -3.57712 -2.22755 0
M  V30 6108 H 571.748 -2.33568 -2.28284 0
M  V30 6109 H 570.407 -3.61978 -0.580294 0
M  V30 6110 H 570.055 -4.01959 -3.02387 0
M  V30 6111 H 569.755 -5.49734 -2.07524 0
M  V30 6112 H 571.279 -5.32313 -2.99125 0
M  V30 6113 H 572.693 -5.68391 -0.748646 0
M  V30 6114 H 571.09 -6.00095 -0.0237608 0
M  V30 6115 H 572.16 -4.79596 0.715229 0
M  V30 6116 N 573.503 -0.0852151 -1.57369 0
M  V30 6117 C 574.45 0.877268 -2.13478 0
M  V30 6118 C 575.42 1.28642 -1.05073 0
M  V30 6119 O 576.605 1.36992 -1.32808 0
M  V30 6120 C 573.745 2.13464 -2.71159 0
M  V30 6121 C 572.858 1.77691 -3.93764 0
M  V30 6122 C 571.993 2.98139 -4.39643 0
M  V30 6123 C 571.032 2.58447 -5.54862 0
M  V30 6124 N 570.169 3.71698 -5.95639 0
M  V30 6125 H 575.009 0.391933 -2.95411 0
M  V30 6126 H 572.546 0.181796 -1.45972 0
M  V30 6127 H 574.504 2.87086 -3.02717 0
M  V30 6128 H 573.134 2.59514 -1.91969 0
M  V30 6129 H 572.186 0.940768 -3.68583 0
M  V30 6130 H 573.498 1.44497 -4.77412 0
M  V30 6131 H 572.652 3.80026 -4.72933 0
M  V30 6132 H 571.391 3.34536 -3.54876 0
M  V30 6133 H 570.396 1.74984 -5.21211 0
M  V30 6134 H 571.621 2.23205 -6.41371 0
M  V30 6135 H 569.567 4.07831 -5.13819 0
M  V30 6136 H 569.484 3.42317 -6.74059 0
M  V30 6137 H 570.752 4.54123 -6.33555 0
M  V30 6138 N 574.981 1.5647 0.188427 0
M  V30 6139 C 575.944 1.9421 1.21718 0
M  V30 6140 C 576.944 0.823901 1.38089 0
M  V30 6141 O 578.134 1.09122 1.35787 0
M  V30 6142 C 575.266 2.22197 2.58537 0
M  V30 6143 H 576.459 2.86252 0.894418 0
M  V30 6144 H 574.012 1.50263 0.430211 0
M  V30 6145 H 574.747 1.32814 2.95856 0
M  V30 6146 H 574.532 3.03688 2.48025 0
M  V30 6147 H 576.022 2.52376 3.3271 0
M  V30 6148 N 576.459 -0.456382 1.50847 0
M  V30 6149 C 577.369 -1.57805 1.73594 0
M  V30 6150 C 578.385 -1.62599 0.619476 0
M  V30 6151 O 579.561 -1.80195 0.899532 0
M  V30 6152 C 576.626 -2.93926 1.8387 0
M  V30 6153 C 575.687 -2.99402 3.07663 0
M  V30 6154 C 574.92 -4.29031 3.1744 0
M  V30 6155 O 575.143 -5.20358 2.33631 0
M  V30 6156 O 574.077 -4.40401 4.10281 0
M  V30 6157 H 577.903 -1.41531 2.68705 0
M  V30 6158 H 575.488 -0.637422 1.3512 0
M  V30 6159 H 577.37 -3.74747 1.92725 0
M  V30 6160 H 576.045 -3.10368 0.91944 0
M  V30 6161 H 574.952 -2.17606 3.043 0
M  V30 6162 H 576.285 -2.87901 3.99216 0
M  V30 6163 N 577.937 -1.40673 -0.710563 0
M  V30 6164 C 578.884 -1.41336 -1.82463 0
M  V30 6165 C 579.854 -0.269648 -1.63897 0
M  V30 6166 O 581.039 -0.468463 -1.8496 0
M  V30 6167 C 578.179 -1.28665 -3.20218 0
M  V30 6168 C 577.292 -2.52784 -3.5032 0
M  V30 6169 C 576.427 -2.32517 -4.77608 0
M  V30 6170 C 575.466 -3.52187 -5.0063 0
M  V30 6171 N 574.603 -3.31084 -6.19135 0
M  V30 6172 H 579.443 -2.36558 -1.8123 0
M  V30 6173 H 576.98 -1.17483 -0.885226 0
M  V30 6174 H 578.938 -1.19324 -3.99772 0
M  V30 6175 H 577.568 -0.370602 -3.20666 0
M  V30 6176 H 576.62 -2.72634 -2.65283 0
M  V30 6177 H 577.932 -3.41845 -3.63241 0
M  V30 6178 H 577.086 -2.20558 -5.65189 0
M  V30 6179 H 575.825 -1.40889 -4.66906 0
M  V30 6180 H 574.83 -3.64617 -4.11502 0
M  V30 6181 H 576.055 -4.44749 -5.13201 0
M  V30 6182 H 574.001 -2.42143 -6.09674 0
M  V30 6183 H 573.918 -4.13713 -6.32754 0
M  V30 6184 H 575.186 -3.22868 -7.0949 0
M  V30 6185 N 579.415 0.9433 -1.26252 0
M  V30 6186 C 580.831 1.21644 -1.03319 0
M  V30 6187 C 581.031 2.0003 0.242983 0
M  V30 6188 O 580.087 2.33838 0.952688 0
M  V30 6189 C 581.4 1.97978 -2.2633 0
M  V30 6190 C 582.948 2.10978 -2.31209 0
M  V30 6191 C 583.423 2.90713 -3.53907 0
M  V30 6192 N 584.914 2.98287 -3.54371 0
M  V30 6193 C 585.649 3.60406 -4.45976 0
M  V30 6194 N 585.145 4.24043 -5.47868 0
M  V30 6195 N 586.938 3.57658 -4.33633 0
M  V30 6196 H 579.089 0.419221 -2.08222 0
M  V30 6197 H 581.352 0.247995 -0.914988 0
M  V30 6198 H 581.058 1.47788 -3.19142 0
M  V30 6199 H 580.932 2.9865 -2.30408 0
M  V30 6200 H 583.319 2.6036 -1.38913 0
M  V30 6201 H 583.4 1.09575 -2.31143 0
M  V30 6202 H 583.044 2.42018 -4.46531 0
M  V30 6203 H 582.974 3.92367 -3.5122 0
M  V30 6204 H 585.465 2.53044 -2.80673 0
M  V30 6205 H 585.778 4.69334 -6.13959 0
M  V30 6206 H 584.123 4.22637 -5.51728 0
M  V30 6207 H 587.314 3.07134 -3.53251 0
M  V30 6208 H 587.487 4.05782 -5.05218 0
M  V30 6209 N 580.893 1.08022 1.14757 0
M  V30 6210 C 581.84 0.706657 2.19716 0
M  V30 6211 C 582.81 -0.30525 1.63271 0
M  V30 6212 O 583.995 -0.19015 1.8985 0
M  V30 6213 C 581.135 0.117914 3.44898 0
M  V30 6214 C 580.248 1.18212 4.15512 0
M  V30 6215 C 579.383 0.557659 5.28265 0
M  V30 6216 C 578.422 1.60418 5.90705 0
M  V30 6217 N 577.559 1.0018 6.94916 0
M  V30 6218 H 582.399 1.60603 2.51019 0
M  V30 6219 H 579.936 0.802664 1.23271 0
M  V30 6220 H 581.894 -0.241112 4.16503 0
M  V30 6221 H 580.524 -0.744788 3.1409 0
M  V30 6222 H 579.576 1.65863 3.42335 0
M  V30 6223 H 580.888 1.97533 4.5802 0
M  V30 6224 H 580.042 0.146654 6.06523 0
M  V30 6225 H 578.781 -0.267249 4.86967 0
M  V30 6226 H 577.786 2.02489 5.11154 0
M  V30 6227 H 579.011 2.43149 6.34078 0
M  V30 6228 H 576.957 0.197917 6.55701 0
M  V30 6229 H 576.874 1.73216 7.35889 0
M  V30 6230 H 578.142 0.616523 7.77058 0
M  V30 6231 N 582.371 -1.3172 0.865308 0
M  V30 6232 C 583.301 -2.31109 0.333302 0
M  V30 6233 C 584.282 -1.60148 -0.573301 0
M  V30 6234 O 585.467 -1.87882 -0.491305 0
M  V30 6235 C 582.597 -3.44104 -0.470078 0
M  V30 6236 C 581.551 -4.26623 0.343021 0
M  V30 6237 C 580.877 -5.31482 -0.585756 0
M  V30 6238 C 582.177 -4.98001 1.57456 0
M  V30 6239 H 583.871 -2.75855 1.1638 0
M  V30 6240 H 581.417 -1.3262 0.561069 0
M  V30 6241 H 583.37 -4.12682 -0.852752 0
M  V30 6242 H 582.094 -2.98112 -1.33404 0
M  V30 6243 H 580.753 -3.59707 0.707583 0
M  V30 6244 H 580.401 -4.81741 -1.44686 0
M  V30 6245 H 580.101 -5.87582 -0.0456494 0
M  V30 6246 H 581.625 -6.0292 -0.965375 0
M  V30 6247 H 583.039 -5.59201 1.26359 0
M  V30 6248 H 581.436 -5.63876 2.05339 0
M  V30 6249 H 582.506 -4.25253 2.32997 0
M  V30 6250 N 583.85 -0.624285 -1.44708 0
M  V30 6251 C 585.099 -0.123539 -2.01321 0
M  V30 6252 C 585.412 1.25966 -1.49639 0
M  V30 6253 O 586.618 1.85405 -1.98336 0
M  V30 6254 C 585.074 -0.170124 -3.59498 0
M  V30 6255 C 584.682 -1.55421 -4.20176 0
M  V30 6256 C 586.426 0.274513 -4.23611 0
M  V30 6257 C 584.332 -1.55628 -5.70556 0
M  V30 6258 H 583.263 -0.0424183 -0.752806 0
M  V30 6259 H 585.913 -0.782076 -1.65999 0
M  V30 6260 H 584.296 0.555385 -3.92086 0
M  V30 6261 H 585.47 -2.30276 -3.99136 0
M  V30 6262 H 583.784 -1.94235 -3.68323 0
M  V30 6263 H 586.382 0.292402 -5.339 0
M  V30 6264 H 586.725 1.3005 -3.95465 0
M  V30 6265 H 587.258 -0.398275 -3.95801 0
M  V30 6266 H 583.997 -2.56041 -6.03426 0
M  V30 6267 H 583.517 -0.850563 -5.93739 0
M  V30 6268 H 585.196 -1.28721 -6.34066 0
M  V30 6269 N 585.328 1.53329 -0.364422 0
M  V30 6270 C 586.275 2.25698 0.482607 0
M  V30 6271 C 587.245 1.26325 1.07848 0
M  V30 6272 O 588.43 1.55104 1.11119 0
M  V30 6273 C 585.57 3.04873 1.61699 0
M  V30 6274 C 584.683 4.19135 1.0464 0
M  V30 6275 C 583.818 4.85754 2.14979 0
M  V30 6276 C 582.857 5.9205 1.5538 0
M  V30 6277 N 581.994 6.52365 2.59547 0
M  V30 6278 H 586.834 2.97666 -0.141032 0
M  V30 6279 H 584.371 1.46875 -0.0813692 0
M  V30 6280 H 586.329 3.49051 2.28516 0
M  V30 6281 H 584.959 2.35162 2.2113 0
M  V30 6282 H 584.011 3.79451 0.268553 0
M  V30 6283 H 585.323 4.95525 0.570653 0
M  V30 6284 H 584.477 5.3311 2.89619 0
M  V30 6285 H 583.216 4.08834 2.65906 0
M  V30 6286 H 582.221 5.44058 0.792549 0
M  V30 6287 H 583.446 6.7089 1.0528 0
M  V30 6288 H 581.392 5.78298 3.09689 0
M  V30 6289 H 581.309 7.2429 2.16655 0
M  V30 6290 H 582.577 7.0437 3.33892 0
M  V30 6291 N 586.806 0.0935595 1.57322 0
M  V30 6292 C 588.083 -0.612692 1.85756 0
M  V30 6293 C 588.463 -1.86439 0.99013 0
M  V30 6294 O 587.811 -2.28416 0.0621362 0
M  V30 6295 C 588.021 -0.929547 3.36393 0
M  V30 6296 C 589.369 -1.29366 4.04413 0
M  V30 6297 O 590.393 -1.02061 3.41265 0
M  V30 6298 O 589.252 -1.80498 5.15832 0
M  V30 6299 H 586.346 -0.306444 0.768128 0
M  V30 6300 H 588.892 0.126141 1.69231 0
M  V30 6301 H 587.664 -0.0414766 3.91278 0
M  V30 6302 H 587.287 -1.72441 3.5826 0
M  V30 6303 N 588.284 -1.56567 -0.180126 0
M  V30 6304 C 589.231 -1.95725 -1.22313 0
M  V30 6305 C 590.201 -0.819911 -1.44453 0
M  V30 6306 O 591.386 -1.07931 -1.57339 0
M  V30 6307 C 588.526 -2.31484 -2.55947 0
M  V30 6308 C 587.639 -3.58354 -2.4126 0
M  V30 6309 C 586.774 -3.83366 -3.67701 0
M  V30 6310 C 585.813 -5.03612 -3.47909 0
M  V30 6311 N 584.95 -5.24802 -4.66398 0
M  V30 6312 H 589.79 -2.84642 -0.882198 0
M  V30 6313 H 587.327 -1.4085 -0.42422 0
M  V30 6314 H 589.285 -2.50237 -3.33822 0
M  V30 6315 H 587.915 -1.45689 -2.88053 0
M  V30 6316 H 586.967 -3.47565 -1.54606 0
M  V30 6317 H 588.279 -4.46386 -2.22577 0
M  V30 6318 H 587.433 -4.02439 -4.54013 0
M  V30 6319 H 586.172 -2.93692 -3.89353 0
M  V30 6320 H 585.177 -4.84447 -2.59983 0
M  V30 6321 H 586.402 -5.94809 -3.27688 0
M  V30 6322 H 584.348 -4.38079 -4.88286 0
M  V30 6323 H 584.265 -6.07041 -4.50596 0
M  V30 6324 H 585.533 -5.48346 -5.54019 0
M  V30 6325 N 589.762 0.448376 -1.51087 0
M  V30 6326 C 591.008 1.20049 -1.6345 0
M  V30 6327 C 591.341 1.91121 -0.344444 0
M  V30 6328 O 590.616 1.83125 0.655396 0
M  V30 6329 C 590.899 2.22624 -2.83038 0
M  V30 6330 C 590.752 1.55708 -4.21989 0
M  V30 6331 C 592.071 3.23718 -2.98152 0
M  V30 6332 H 589.19 0.435085 -0.59487 0
M  V30 6333 H 591.832 0.491183 -1.83541 0
M  V30 6334 H 589.982 2.83117 -2.66039 0
M  V30 6335 H 591.654 0.986367 -4.50631 0
M  V30 6336 H 589.897 0.859647 -4.25197 0
M  V30 6337 H 590.568 2.30357 -5.01637 0
M  V30 6338 H 593.044 2.73269 -3.13788 0
M  V30 6339 H 591.92 3.92795 -3.83411 0
M  V30 6340 H 592.181 3.89179 -2.09743 0
M  V30 6341 N 591.24 1.41047 0.703093 0
M  V30 6342 C 592.488 1.39723 1.4602 0
M  V30 6343 C 592.809 0.00461257 1.94999 0
M  V30 6344 O 592.079 -0.952292 1.71196 0
M  V30 6345 H 590.659 0.514281 0.541779 0
M  V30 6346 H 593.321 1.76217 0.832678 0
M  V30 6347 H 592.417 2.07982 2.32701 0
M  V30 6348 N 592.718 -0.936591 1.26751 0
M  V30 6349 C 593.665 -2.03597 1.08706 0
M  V30 6350 C 594.635 -1.66097 -0.00926542 0
M  V30 6351 O 595.82 -1.90199 0.151377 0
M  V30 6352 C 592.96 -3.3727 0.73094 0
M  V30 6353 C 592.073 -3.87778 1.90399 0
M  V30 6354 C 591.208 -5.09859 1.49056 0
M  V30 6355 C 590.247 -5.5264 2.63164 0
M  V30 6356 N 589.384 -6.65921 2.22471 0
M  V30 6357 H 594.224 -2.18364 2.02784 0
M  V30 6358 H 591.761 -1.06985 1.00958 0
M  V30 6359 H 593.719 -4.14128 0.505328 0
M  V30 6360 H 592.349 -3.22337 -0.172868 0
M  V30 6361 H 591.401 -3.07279 2.2424 0
M  V30 6362 H 592.713 -4.15464 2.76028 0
M  V30 6363 H 591.867 -5.9419 1.22567 0
M  V30 6364 H 590.606 -4.8393 0.60524 0
M  V30 6365 H 589.611 -4.66863 2.90377 0
M  V30 6366 H 590.836 -5.80568 3.52303 0
M  V30 6367 H 588.782 -6.41667 1.36379 0
M  V30 6368 H 588.699 -6.93216 3.01641 0
M  V30 6369 H 589.967 -7.53616 1.99205 0
M  V30 6370 N 594.196 -1.08629 -1.14182 0
M  V30 6371 C 595.143 -0.718299 -2.19338 0
M  V30 6372 C 596.113 0.296587 -1.63431 0
M  V30 6373 O 597.298 0.180079 -1.89948 0
M  V30 6374 C 594.438 -0.136203 -3.44831 0
M  V30 6375 C 593.551 -1.20414 -4.14879 0
M  V30 6376 C 592.686 -0.585666 -5.27962 0
M  V30 6377 C 591.725 -1.63548 -5.89846 0
M  V30 6378 N 590.862 -1.03864 -6.94375 0
M  V30 6379 H 595.702 -1.61932 -2.50164 0
M  V30 6380 H 593.239 -0.80919 -1.22844 0
M  V30 6381 H 595.197 0.219021 -4.16625 0
M  V30 6382 H 593.827 0.728121 -3.14481 0
M  V30 6383 H 592.879 -1.67676 -3.41451 0
M  V30 6384 H 594.191 -1.99959 -4.56966 0
M  V30 6385 H 593.345 -0.178818 -6.06436 0
M  V30 6386 H 592.084 0.24142 -4.87102 0
M  V30 6387 H 591.089 -2.05197 -5.10073 0
M  V30 6388 H 592.314 -2.46509 -6.3278 0
M  V30 6389 H 590.26 -0.232687 -6.55587 0
M  V30 6390 H 590.177 -1.77116 -7.3496 0
M  V30 6391 H 591.445 -0.657724 -7.7672 0
M  V30 6392 N 595.674 1.31259 -0.872281 0
M  V30 6393 C 596.624 2.26 -0.301295 0
M  V30 6394 C 597.608 1.50729 0.562991 0
M  V30 6395 O 598.8 1.72198 0.40949 0
M  V30 6396 C 595.929 3.39724 0.494227 0
M  V30 6397 C 595.015 4.22363 -0.383432 0
M  V30 6398 N 595.406 4.83724 -1.47799 0
M  V30 6399 C 593.704 4.45652 -0.176278 0
M  V30 6400 C 594.405 5.45523 -2.01939 0
M  V30 6401 N 593.381 5.27428 -1.31608 0
M  V30 6402 H 597.183 2.70981 -1.13782 0
M  V30 6403 H 594.697 1.45552 -0.720294 0
M  V30 6404 H 596.694 4.06626 0.919828 0
M  V30 6405 H 595.354 2.96286 1.32834 0
M  V30 6406 H 596.365 4.83313 -1.8609 0
M  V30 6407 H 593.042 4.12845 0.621698 0
M  V30 6408 H 594.432 6.04268 -2.93786 0
M  V30 6409 N 597.152 0.631951 1.44375 0
M  V30 6410 C 598.082 -0.0593243 2.33425 0
M  V30 6411 C 599.063 -0.833964 1.48253 0
M  V30 6412 O 600.248 -0.799682 1.76971 0
M  V30 6413 C 597.378 -1.04096 3.31333 0
M  V30 6414 C 596.332 -0.377899 4.26328 0
M  V30 6415 C 595.658 -1.4695 5.14111 0
M  V30 6416 C 596.958 0.716371 5.17364 0
M  V30 6417 H 598.652 0.684287 2.91475 0
M  V30 6418 H 596.198 0.330518 1.40156 0
M  V30 6419 H 598.151 -1.53331 3.92514 0
M  V30 6420 H 596.875 -1.81547 2.71493 0
M  V30 6421 H 595.534 0.0938054 3.6648 0
M  V30 6422 H 595.182 -2.2349 4.50623 0
M  V30 6423 H 594.882 -1.03121 5.78481 0
M  V30 6424 H 596.406 -1.96363 5.78164 0
M  V30 6425 H 597.82 0.307089 5.72477 0
M  V30 6426 H 596.217 1.07784 5.90341 0
M  V30 6427 H 597.287 1.58316 4.58327 0
M  V30 6428 N 598.631 -1.53133 0.372548 0
M  V30 6429 C 599.578 -2.25951 -0.470631 0
M  V30 6430 C 600.548 -1.26895 -1.07176 0
M  V30 6431 O 601.733 -1.55691 -1.10294 0
M  V30 6432 C 598.873 -3.05726 -1.6008 0
M  V30 6433 C 597.986 -4.19684 -1.02416 0
M  V30 6434 C 597.121 -4.86888 -2.124 0
M  V30 6435 C 596.16 -5.92866 -1.52238 0
M  V30 6436 N 595.297 -6.53732 -2.56084 0
M  V30 6437 H 600.137 -2.97587 0.156816 0
M  V30 6438 H 597.674 -1.4683 0.0891571 0
M  V30 6439 H 599.632 -3.50258 -2.26661 0
M  V30 6440 H 598.262 -2.36331 -2.1988 0
M  V30 6441 H 597.314 -3.79588 -0.248426 0
M  V30 6442 H 598.626 -4.95821 -0.544366 0
M  V30 6443 H 597.78 -5.34638 -2.86787 0
M  V30 6444 H 596.519 -4.10239 -2.63734 0
M  V30 6445 H 595.524 -5.4447 -0.763685 0
M  V30 6446 H 596.749 -6.71439 -1.0172 0
M  V30 6447 H 594.695 -5.79932 -3.06618 0
M  V30 6448 H 594.612 -7.25429 -2.12811 0
M  V30 6449 H 595.88 -7.0613 -3.30152 0
M  V30 6450 N 600.109 -0.101901 -1.5727 0
M  V30 6451 C 601.019 0.868647 -2.17926 0
M  V30 6452 C 602.035 1.30527 -1.1506 0
M  V30 6453 O 603.211 1.37178 -1.47459 0
M  V30 6454 C 600.276 2.10727 -2.75309 0
M  V30 6455 C 599.337 1.7242 -3.93154 0
M  V30 6456 C 598.57 2.90377 -4.47791 0
M  V30 6457 O 598.793 4.05305 -4.01353 0
M  V30 6458 O 597.727 2.6845 -5.38719 0
M  V30 6459 H 601.553 0.382544 -3.01281 0
M  V30 6460 H 599.138 0.122812 -1.48894 0
M  V30 6461 H 601.02 2.83303 -3.11958 0
M  V30 6462 H 599.695 2.58376 -1.94996 0
M  V30 6463 H 598.602 0.970039 -3.61305 0
M  V30 6464 H 599.935 1.29528 -4.74851 0
M  V30 6465 N 601.587 1.56661 0.17182 0
M  V30 6466 C 602.534 1.96371 1.21273 0
M  V30 6467 C 603.504 0.82756 1.44016 0
M  V30 6468 O 604.689 1.08764 1.56764 0
M  V30 6469 C 601.829 2.32838 2.54716 0
M  V30 6470 C 600.942 3.59628 2.39356 0
M  V30 6471 C 600.077 3.85311 3.65662 0
M  V30 6472 C 599.116 5.0545 3.45234 0
M  V30 6473 N 598.253 5.27268 4.63608 0
M  V30 6474 H 603.093 2.85106 0.86709 0
M  V30 6475 H 600.63 1.41073 0.416744 0
M  V30 6476 H 602.588 2.52004 3.3249 0
M  V30 6477 H 601.218 1.47214 2.87277 0
M  V30 6478 H 600.27 3.4838 1.52761 0
M  V30 6479 H 601.582 4.4756 2.20207 0
M  V30 6480 H 600.736 4.04841 4.51872 0
M  V30 6481 H 599.475 2.95753 3.8779 0
M  V30 6482 H 598.48 4.85819 2.5741 0
M  V30 6483 H 599.705 5.96538 3.24529 0
M  V30 6484 H 597.651 4.40662 4.85956 0
M  V30 6485 H 597.568 6.09422 4.4737 0
M  V30 6486 H 598.836 5.51277 5.51103 0
M  V30 6487 N 603.065 -0.440357 1.51323 0
M  V30 6488 C 604.314 -1.18697 1.63076 0
M  V30 6489 C 604.627 -1.92418 0.35136 0
M  V30 6490 O 605.833 -2.69258 0.348221 0
M  V30 6491 C 604.289 -2.15849 2.87988 0
M  V30 6492 C 603.897 -1.47789 4.22921 0
M  V30 6493 C 605.641 -2.90962 3.09098 0
M  V30 6494 C 603.548 -2.43407 5.38987 0
M  V30 6495 H 602.478 -0.44676 0.607389 0
M  V30 6496 H 605.129 -0.454313 1.77787 0
M  V30 6497 H 603.511 -2.92537 2.66905 0
M  V30 6498 H 604.685 -0.7668 4.54375 0
M  V30 6499 H 603 -0.848404 4.07665 0
M  V30 6500 H 605.597 -3.62584 3.92985 0
M  V30 6501 H 605.94 -3.52133 2.22053 0
M  V30 6502 H 606.473 -2.21381 3.30507 0
M  V30 6503 H 603.212 -1.86929 6.28282 0
M  V30 6504 H 602.732 -3.12579 5.11913 0
M  V30 6505 H 604.411 -3.046 5.70813 0
M  V30 6506 N 604.543 -1.41418 -0.695603 0
M  V30 6507 C 605.768 -1.44329 -1.48942 0
M  V30 6508 C 606.193 -0.0501579 -1.88033 0
M  V30 6509 O 605.551 0.946598 -1.54626 0
M  V30 6510 C 605.599 -2.3578 -2.72837 0
M  V30 6511 O 604.703 -1.81482 -3.70322 0
M  V30 6512 H 604.044 -0.489838 -0.44828 0
M  V30 6513 H 606.574 -1.85878 -0.855014 0
M  V30 6514 H 606.584 -2.51654 -3.21145 0
M  V30 6515 H 605.259 -3.37005 -2.43722 0
M  V30 6516 H 603.836 -1.75058 -3.29255 0
M  V30 6517 N 606.021 0.929856 -1.27246 0
M  V30 6518 C 606.968 2.03017 -1.09785 0
M  V30 6519 C 607.938 1.661 0.000456744 0
M  V30 6520 O 609.123 1.90116 -0.161462 0
M  V30 6521 C 606.263 3.36878 -0.748816 0
M  V30 6522 C 605.376 3.86763 -1.92453 0
M  V30 6523 C 604.511 5.09061 -1.51758 0
M  V30 6524 C 603.55 5.51237 -2.66091 0
M  V30 6525 N 602.687 6.64732 -2.25999 0
M  V30 6526 H 607.527 2.17285 -2.03939 0
M  V30 6527 H 605.064 1.06448 -1.01524 0
M  V30 6528 H 607.022 4.13855 -0.527283 0
M  V30 6529 H 605.652 3.22424 0.155771 0
M  V30 6530 H 604.704 3.06086 -2.25867 0
M  V30 6531 H 606.016 4.13994 -2.78227 0
M  V30 6532 H 605.17 5.93532 -1.25716 0
M  V30 6533 H 603.909 4.83602 -0.630896 0
M  V30 6534 H 602.914 4.65316 -2.92849 0
M  V30 6535 H 604.139 5.78692 -3.55377 0
M  V30 6536 H 602.085 6.40935 -1.3978 0
M  V30 6537 H 602.002 6.91607 -3.05313 0
M  V30 6538 H 603.27 7.52549 -2.03199 0
M  V30 6539 N 607.499 1.09233 1.13605 0
M  V30 6540 C 608.429 0.751738 2.21068 0
M  V30 6541 C 609.41 -0.269688 1.67948 0
M  V30 6542 O 610.595 -0.13819 1.93708 0
M  V30 6543 C 607.725 0.16935 3.46887 0
M  V30 6544 C 606.679 1.12007 4.13084 0
M  V30 6545 C 606.005 0.399483 5.33206 0
M  V30 6546 C 607.305 2.46168 4.6065 0
M  V30 6547 H 608.999 1.65024 2.49815 0
M  V30 6548 H 606.545 0.794905 1.20072 0
M  V30 6549 H 608.498 -0.0809824 4.21322 0
M  V30 6550 H 607.222 -0.764335 3.1753 0
M  V30 6551 H 605.881 1.35564 3.40614 0
M  V30 6552 H 605.529 -0.538277 5.00112 0
M  V30 6553 H 605.229 1.03337 5.78442 0
M  V30 6554 H 606.753 0.157403 6.10397 0
M  V30 6555 H 608.167 2.26829 5.26518 0
M  V30 6556 H 606.564 3.05326 5.1662 0
M  V30 6557 H 607.634 3.07076 3.75276 0
M  V30 6558 N 608.977 -1.30795 0.87923 0
M  V30 6559 C 609.887 -2.32041 0.345565 0
M  V30 6560 C 610.903 -1.65103 -0.549265 0
M  V30 6561 O 612.079 -1.9645 -0.443763 0
M  V30 6562 C 609.144 -3.43944 -0.436245 0
M  V30 6563 C 608.205 -4.26521 0.48765 0
M  V30 6564 C 607.438 -5.33081 -0.256943 0
M  V30 6565 O 607.661 -5.50762 -1.48381 0
M  V30 6566 O 606.595 -6.00635 0.389985 0
M  V30 6567 H 610.421 -2.79627 1.18501 0
M  V30 6568 H 608.006 -1.3486 0.642885 0
M  V30 6569 H 609.888 -4.12128 -0.879119 0
M  V30 6570 H 608.563 -2.98504 -1.25208 0
M  V30 6571 H 607.47 -3.61057 0.979216 0
M  V30 6572 H 608.803 -4.75551 1.26933 0
M  V30 6573 N 610.455 -0.639598 -1.44038 0
M  V30 6574 C 611.365 0.0612377 -2.3452 0
M  V30 6575 C 612.381 0.826717 -1.53106 0
M  V30 6576 O 613.557 0.777059 -1.85806 0
M  V30 6577 C 610.622 1.02492 -3.31204 0
M  V30 6578 C 609.683 0.25788 -4.28525 0
M  V30 6579 C 608.916 1.17566 -5.2059 0
M  V30 6580 O 609.139 2.41461 -5.16771 0
M  V30 6581 O 608.073 0.655407 -5.98321 0
M  V30 6582 H 611.899 -0.68318 -2.95916 0
M  V30 6583 H 609.484 -0.399784 -1.43952 0
M  V30 6584 H 611.366 1.57911 -3.90694 0
M  V30 6585 H 610.041 1.7498 -2.7233 0
M  V30 6586 H 608.948 -0.339566 -3.72556 0
M  V30 6587 H 610.281 -0.427154 -4.90343 0
M  V30 6588 N 611.933 1.52934 -0.380664 0
M  V30 6589 C 612.88 2.26197 0.458641 0
M  V30 6590 C 613.85 1.27462 1.06502 0
M  V30 6591 O 615.035 1.56274 1.09467 0
M  V30 6592 C 612.175 3.06571 1.58456 0
M  V30 6593 C 611.288 4.20222 1.00189 0
M  V30 6594 C 610.423 4.88007 2.09815 0
M  V30 6595 C 609.462 5.93665 1.49092 0
M  V30 6596 N 608.599 6.55081 2.52613 0
M  V30 6597 H 613.439 2.975 -0.172595 0
M  V30 6598 H 610.976 1.4678 -0.0969426 0
M  V30 6599 H 612.934 3.51455 2.24801 0
M  V30 6600 H 611.564 2.37494 2.18624 0
M  V30 6601 H 610.616 3.79714 0.228292 0
M  V30 6602 H 611.928 4.96102 0.518064 0
M  V30 6603 H 611.082 5.36151 2.83948 0
M  V30 6604 H 609.821 4.11632 2.61555 0
M  V30 6605 H 608.826 5.44868 0.7348 0
M  V30 6606 H 610.051 6.71969 0.981582 0
M  V30 6607 H 607.997 5.8155 3.03538 0
M  V30 6608 H 607.914 7.26548 2.08961 0
M  V30 6609 H 609.182 7.07871 3.26402 0
M  V30 6610 N 613.412 0.11024 1.57214 0
M  V30 6611 C 614.359 -0.843195 2.14846 0
M  V30 6612 C 615.329 -1.26954 1.07107 0
M  V30 6613 O 616.514 -1.34861 1.34971 0
M  V30 6614 C 613.654 -2.09123 2.74521 0
M  V30 6615 C 612.767 -1.71404 3.96541 0
M  V30 6616 C 611.902 -2.91107 4.44331 0
M  V30 6617 C 610.941 -2.49586 5.58903 0
M  V30 6618 N 610.078 -3.62175 6.01477 0
M  V30 6619 H 614.918 -0.344886 2.95998 0
M  V30 6620 H 612.455 -0.15855 1.46243 0
M  V30 6621 H 614.413 -2.82234 3.07246 0
M  V30 6622 H 613.043 -2.56427 1.96074 0
M  V30 6623 H 612.095 -0.88201 3.70033 0
M  V30 6624 H 613.407 -1.36884 4.7965 0
M  V30 6625 H 612.561 -3.72454 4.78919 0
M  V30 6626 H 611.3 -3.28848 3.60153 0
M  V30 6627 H 610.305 -1.6667 5.23929 0
M  V30 6628 H 611.53 -2.12973 6.4484 0
M  V30 6629 H 609.476 -3.99605 5.20242 0
M  V30 6630 H 609.393 -3.3155 6.79419 0
M  V30 6631 H 610.661 -4.43987 6.407 0
M  V30 6632 N 614.89 -1.56749 -0.16351 0
M  V30 6633 C 616.167 -1.73321 -0.906599 0
M  V30 6634 C 616.547 -0.673779 -2.00059 0
M  V30 6635 O 615.895 0.310121 -2.26386 0
M  V30 6636 C 616.105 -3.168 -1.46419 0
M  V30 6637 C 617.453 -3.77993 -1.93407 0
M  V30 6638 O 618.477 -3.20127 -1.56196 0
M  V30 6639 O 617.336 -4.79615 -2.61976 0
M  V30 6640 H 614.43 -0.708073 -0.427272 0
M  V30 6641 H 616.976 -1.69029 -0.150727 0
M  V30 6642 H 615.748 -3.85396 -0.677189 0
M  V30 6643 H 615.371 -3.2545 -2.28403 0
M  V30 6644 N 616.368 0.432326 -1.51554 0
M  V30 6645 C 617.315 1.52512 -1.7323 0
M  V30 6646 C 618.285 1.55863 -0.5741 0
M  V30 6647 O 619.47 1.72796 -0.809093 0
M  V30 6648 C 616.61 2.90183 -1.86783 0
M  V30 6649 C 615.723 2.96322 -3.14352 0
M  V30 6650 C 614.858 4.25147 -3.18471 0
M  V30 6651 C 613.897 4.25172 -4.40335 0
M  V30 6652 N 613.034 5.45529 -4.41975 0
M  V30 6653 H 617.874 1.33332 -2.66508 0
M  V30 6654 H 615.411 0.647613 -1.32077 0
M  V30 6655 H 617.369 3.70071 -1.92623 0
M  V30 6656 H 615.999 3.0791 -0.969087 0
M  V30 6657 H 615.051 2.09066 -3.17798 0
M  V30 6658 H 616.363 2.92203 -4.04251 0
M  V30 6659 H 615.517 5.13411 -3.23255 0
M  V30 6660 H 614.256 4.31929 -2.2647 0
M  V30 6661 H 613.261 3.353 -4.35723 0
M  V30 6662 H 614.486 4.20049 -5.33606 0
M  V30 6663 H 612.432 5.53024 -3.52847 0
M  V30 6664 H 612.349 5.43311 -5.25689 0
M  V30 6665 H 613.617 6.35812 -4.50958 0
M  V30 6666 N 617.846 1.41785 0.688094 0
M  V30 6667 C 618.756 1.46596 1.83158 0
M  V30 6668 C 619.772 0.355862 1.70322 0
M  V30 6669 O 620.948 0.604737 1.92106 0
M  V30 6670 C 618.013 1.35322 3.192 0
M  V30 6671 C 617.074 2.56711 3.4409 0
M  V30 6672 C 616.307 2.45965 4.73642 0
M  V30 6673 O 616.53 1.48827 5.50642 0
M  V30 6674 O 615.464 3.35859 4.99482 0
M  V30 6675 H 619.29 2.43083 1.82056 0
M  V30 6676 H 616.875 1.23404 0.842126 0
M  V30 6677 H 618.757 1.31347 4.00407 0
M  V30 6678 H 617.432 0.419536 3.2097 0
M  V30 6679 H 616.339 2.66262 2.62784 0
M  V30 6680 H 617.672 3.48933 3.47141 0
M  V30 6681 N 619.324 -0.923095 1.27737 0
M  V30 6682 C 620.271 -2.02432 1.1086 0
M  V30 6683 C 621.241 -1.66098 0.00835195 0
M  V30 6684 O 622.426 -1.90027 0.171542 0
M  V30 6685 C 619.566 -3.36476 0.766671 0
M  V30 6686 C 618.679 -3.85737 1.94501 0
M  V30 6687 C 617.814 -5.08249 1.54455 0
M  V30 6688 C 616.853 -5.49818 2.6901 0
M  V30 6689 N 615.99 -6.63524 2.29521 0
M  V30 6690 H 620.83 -2.16201 2.05089 0
M  V30 6691 H 618.367 -1.05909 1.02087 0
M  V30 6692 H 620.325 -4.13569 0.549223 0
M  V30 6693 H 618.955 -3.22502 -0.13867 0
M  V30 6694 H 618.007 -3.04883 2.27487 0
M  V30 6695 H 619.319 -4.12513 2.80419 0
M  V30 6696 H 618.473 -5.92857 1.28862 0
M  V30 6697 H 617.212 -4.83261 0.656534 0
M  V30 6698 H 616.217 -4.63757 2.95313 0
M  V30 6699 H 617.442 -5.76799 3.5844 0
M  V30 6700 H 615.388 -6.40185 1.43177 0
M  V30 6701 H 615.305 -6.89978 3.08977 0
M  V30 6702 H 616.573 -7.51461 2.07187 0
M  V30 6703 N 620.802 -1.09834 -1.13024 0
M  V30 6704 C 621.749 -0.741522 -2.18564 0
M  V30 6705 C 622.719 0.279236 -1.63736 0
M  V30 6706 O 623.904 0.159923 -1.90129 0
M  V30 6707 C 621.044 -0.17277 -3.44667 0
M  V30 6708 C 620.157 -1.24808 -4.13578 0
M  V30 6709 C 619.292 -0.641631 -5.27311 0
M  V30 6710 C 618.331 -1.69795 -5.88078 0
M  V30 6711 N 617.468 -1.11223 -6.93234 0
M  V30 6712 H 622.308 -1.64576 -2.48432 0
M  V30 6713 H 619.845 -0.822174 -1.21978 0
M  V30 6714 H 621.803 0.17482 -4.16834 0
M  V30 6715 H 620.433 0.694725 -3.15235 0
M  V30 6716 H 619.485 -1.71288 -3.39653 0
M  V30 6717 H 620.797 -2.04795 -4.54819 0
M  V30 6718 H 619.951 -0.243128 -6.06213 0
M  V30 6719 H 618.69 0.189742 -4.87331 0
M  V30 6720 H 617.695 -2.10595 -5.07868 0
M  V30 6721 H 618.92 -2.53206 -6.3013 0
M  V30 6722 H 616.866 -0.302208 -6.55304 0
M  V30 6723 H 616.783 -1.84901 -7.3304 0
M  V30 6724 H 618.051 -0.740068 -7.75979 0
M  V30 6725 N 622.28 1.30327 -0.886154 0
M  V30 6726 C 623.19 2.31854 -0.357866 0
M  V30 6727 C 624.206 1.65392 0.540502 0
M  V30 6728 O 625.382 1.96683 0.433339 0
M  V30 6729 C 622.447 3.44171 0.417999 0
M  V30 6730 C 621.508 4.26257 -0.510263 0
M  V30 6731 C 620.741 5.3321 0.228669 0
M  V30 6732 O 620.964 5.51542 1.45458 0
M  V30 6733 O 619.898 6.0042 -0.421832 0
M  V30 6734 H 623.724 2.78995 -1.19982 0
M  V30 6735 H 621.309 1.34518 -0.650028 0
M  V30 6736 H 623.191 4.12588 0.857251 0
M  V30 6737 H 621.866 2.99164 1.23623 0
M  V30 6738 H 620.773 3.60533 -0.99835 0
M  V30 6739 H 622.106 4.74871 -1.29454 0
M  V30 6740 N 623.758 0.647228 1.43697 0
M  V30 6741 C 625.007 0.155552 2.01099 0
M  V30 6742 C 625.32 -1.23569 1.51624 0
M  V30 6743 O 626.526 -1.82226 2.01261 0
M  V30 6744 C 624.982 0.227296 3.59182 0
M  V30 6745 C 624.59 1.62086 4.17651 0
M  V30 6746 C 626.334 -0.207085 4.23995 0
M  V30 6747 C 624.241 1.64685 5.68008 0
M  V30 6748 H 623.171 0.0543895 0.752036 0
M  V30 6749 H 625.822 0.808386 1.64734 0
M  V30 6750 H 624.204 -0.492937 3.9292 0
M  V30 6751 H 625.378 2.36597 3.95422 0
M  V30 6752 H 623.693 2.0007 3.65186 0
M  V30 6753 H 626.29 -0.207426 5.34298 0
M  V30 6754 H 626.633 -1.23742 3.97484 0
M  V30 6755 H 627.166 0.461193 3.95118 0
M  V30 6756 H 623.905 2.65608 5.99277 0
M  V30 6757 H 623.425 0.944914 5.9231 0
M  V30 6758 H 625.104 1.38792 6.31938 0
M  V30 6759 N 625.236 -1.5273 0.388769 0
M  V30 6760 C 626.183 -2.26437 -0.446639 0
M  V30 6761 C 627.153 -1.28025 -1.05824 0
M  V30 6762 O 628.338 -1.56852 -1.08637 0
M  V30 6763 C 625.478 -3.07407 -1.56828 0
M  V30 6764 C 624.591 -4.20747 -0.979589 0
M  V30 6765 C 623.726 -4.89113 -2.07224 0
M  V30 6766 C 622.765 -5.94447 -1.45942 0
M  V30 6767 N 621.902 -6.56411 -2.49135 0
M  V30 6768 H 626.742 -2.97404 0.18837 0
M  V30 6769 H 624.279 -1.46727 0.104725 0
M  V30 6770 H 626.237 -3.52642 -2.22934 0
M  V30 6771 H 624.867 -2.3865 -2.17361 0
M  V30 6772 H 623.919 -3.7983 -0.208151 0
M  V30 6773 H 625.231 -4.9637 -0.491747 0
M  V30 6774 H 624.385 -5.3765 -2.81101 0
M  V30 6775 H 623.124 -4.13013 -2.59368 0
M  V30 6776 H 622.129 -5.4525 -0.705894 0
M  V30 6777 H 623.354 -6.7248 -0.945932 0
M  V30 6778 H 621.3 -5.83152 -3.00449 0
M  V30 6779 H 621.217 -7.27645 -2.05105 0
M  V30 6780 H 622.485 -7.09592 -3.22644 0
M  V30 6781 N 626.714 -0.118576 -1.57153 0
M  V30 6782 C 627.661 0.831789 -2.1529 0
M  V30 6783 C 628.631 1.26385 -1.07778 0
M  V30 6784 O 629.816 1.34144 -1.35684 0
M  V30 6785 C 626.956 2.07664 -2.75626 0
M  V30 6786 C 626.069 1.69298 -3.97444 0
M  V30 6787 C 625.204 2.88747 -4.45868 0
M  V30 6788 C 624.243 2.46619 -5.60219 0
M  V30 6789 N 623.38 3.5898 -6.03389 0
M  V30 6790 H 628.22 0.329183 -2.96176 0
M  V30 6791 H 625.757 0.150792 -1.46325 0
M  V30 6792 H 627.715 2.80601 -3.08738 0
M  V30 6793 H 626.345 2.55384 -1.97431 0
M  V30 6794 H 625.397 0.862374 -3.70496 0
M  V30 6795 H 626.709 1.34338 -4.80369 0
M  V30 6796 H 625.863 3.69909 -4.80887 0
M  V30 6797 H 624.602 3.26933 -3.61892 0
M  V30 6798 H 623.607 1.63889 -5.24805 0
M  V30 6799 H 624.832 2.0955 -6.45961 0
M  V30 6800 H 622.778 3.9684 -5.22354 0
M  V30 6801 H 622.695 3.27942 -6.81168 0
M  V30 6802 H 623.963 4.40583 -6.43045 0
M  V30 6803 N 628.193 1.56834 0.155195 0
M  V30 6804 C 629.103 2.009 1.21146 0
M  V30 6805 C 630.119 0.923029 1.475 0
M  V30 6806 O 631.295 1.23189 1.59331 0
M  V30 6807 C 628.36 2.37378 2.52691 0
M  V30 6808 C 627.421 3.59883 2.34057 0
M  V30 6809 C 626.654 3.94612 3.59329 0
M  V30 6810 O 626.877 3.30104 4.65175 0
M  V30 6811 O 625.811 4.87895 3.52479 0
M  V30 6812 H 629.637 2.9105 0.867371 0
M  V30 6813 H 627.222 1.44916 0.363298 0
M  V30 6814 H 629.104 2.61737 3.3026 0
M  V30 6815 H 627.779 1.50385 2.86646 0
M  V30 6816 H 626.686 3.40722 1.54465 0
M  V30 6817 H 628.019 4.47468 2.0502 0
M  V30 6818 N 629.671 -0.424282 1.51781 0
M  V30 6819 C 631.087 -0.761768 1.40247 0
M  V30 6820 C 631.287 -1.95324 0.495041 0
M  V30 6821 O 630.343 -2.5246 -0.0448949 0
M  V30 6822 C 631.656 -1.0299 2.82513 0
M  V30 6823 C 633.204 -1.13354 2.91753 0
M  V30 6824 C 633.679 -1.43453 4.34954 0
M  V30 6825 N 635.17 -1.5035 4.3812 0
M  V30 6826 C 635.905 -1.75236 5.45967 0
M  V30 6827 N 635.401 -1.97827 6.63955 0
M  V30 6828 N 637.194 -1.77126 5.33463 0
M  V30 6829 H 629.345 0.360228 2.09323 0
M  V30 6830 H 631.608 0.0988128 0.942836 0
M  V30 6831 H 631.314 -0.226961 3.50967 0
M  V30 6832 H 631.188 -1.95411 3.22637 0
M  V30 6833 H 633.575 -1.92709 2.23489 0
M  V30 6834 H 633.656 -0.188041 2.55108 0
M  V30 6835 H 633.3 -0.646209 5.03772 0
M  V30 6836 H 633.23 -2.3923 4.69123 0
M  V30 6837 H 635.721 -1.34742 3.53062 0
M  V30 6838 H 636.034 -2.16223 7.41935 0
M  V30 6839 H 634.379 -1.95123 6.67047 0
M  V30 6840 H 637.57 -1.59005 4.40267 0
M  V30 6841 H 637.743 -1.96182 6.17589 0
M  V30 6842 N 631.149 -1.42148 -0.680565 0
M  V30 6843 C 632.096 -1.45175 -1.79424 0
M  V30 6844 C 633.066 -0.304352 -1.63288 0
M  V30 6845 O 634.251 -0.507591 -1.83924 0
M  V30 6846 C 631.391 -1.35429 -3.17416 0
M  V30 6847 C 630.504 -2.60158 -3.4488 0
M  V30 6848 C 629.639 -2.42596 -4.72568 0
M  V30 6849 C 628.678 -3.62727 -4.93047 0
M  V30 6850 N 627.815 -3.44143 -6.11973 0
M  V30 6851 H 632.655 -2.40349 -1.76172 0
M  V30 6852 H 630.192 -1.19334 -0.860107 0
M  V30 6853 H 632.15 -1.27777 -3.97151 0
M  V30 6854 H 630.78 -0.438536 -3.19807 0
M  V30 6855 H 629.832 -2.78199 -2.5944 0
M  V30 6856 H 631.144 -3.49473 -3.55908 0
M  V30 6857 H 630.298 -2.32497 -5.60384 0
M  V30 6858 H 629.037 -1.50761 -4.63813 0
M  V30 6859 H 628.042 -3.73264 -4.03676 0
M  V30 6860 H 629.267 -4.55534 -5.03652 0
M  V30 6861 H 627.213 -2.5502 -6.04401 0
M  V30 6862 H 627.13 -4.27041 -6.23836 0
M  V30 6863 H 628.398 -3.37845 -7.02482 0
M  V30 6864 N 632.627 0.916307 -1.28225 0
M  V30 6865 C 633.537 2.05165 -1.13775 0
M  V30 6866 C 634.553 1.73879 -0.0649418 0
M  V30 6867 O 635.729 1.99531 -0.273722 0
M  V30 6868 C 632.794 3.37385 -0.798267 0
M  V30 6869 C 631.855 3.82296 -1.95316 0
M  V30 6870 C 631.088 5.08206 -1.62978 0
M  V30 6871 O 631.311 5.6781 -0.542948 0
M  V30 6872 O 630.245 5.48768 -2.47261 0
M  V30 6873 H 634.071 2.20273 -2.09078 0
M  V30 6874 H 631.656 1.0373 -1.07519 0
M  V30 6875 H 633.538 4.16773 -0.62278 0
M  V30 6876 H 632.213 3.23458 0.125139 0
M  V30 6877 H 631.12 3.03746 -2.18378 0
M  V30 6878 H 632.453 4.00782 -2.85718 0
M  V30 6879 N 634.105 1.10431 1.1244 0
M  V30 6880 C 635.035 0.775143 2.20258 0
M  V30 6881 C 636.016 -0.25186 1.68225 0
M  V30 6882 O 637.201 -0.117637 1.93843 0
M  V30 6883 C 634.331 0.206133 3.46688 0
M  V30 6884 C 633.285 1.16382 4.11873 0
M  V30 6885 C 632.611 0.456014 5.32752 0
M  V30 6886 C 633.911 2.5104 4.58013 0
M  V30 6887 H 635.605 1.67665 2.4805 0
M  V30 6888 H 633.151 0.807595 1.19222 0
M  V30 6889 H 635.104 -0.036291 4.21384 0
M  V30 6890 H 633.828 -0.730614 3.18323 0
M  V30 6891 H 632.487 1.39169 3.39157 0
M  V30 6892 H 632.135 -0.485203 5.00654 0
M  V30 6893 H 631.835 1.09466 5.77314 0
M  V30 6894 H 633.359 0.222135 6.10196 0
M  V30 6895 H 634.773 2.32401 5.24083 0
M  V30 6896 H 633.17 3.10789 5.13352 0
M  V30 6897 H 634.24 3.11039 3.71998 0
M  V30 6898 N 635.583 -1.29855 0.893053 0
M  V30 6899 C 636.53 -2.27909 0.364161 0
M  V30 6900 C 637.5 -1.56726 -0.550093 0
M  V30 6901 O 638.685 -1.84747 -0.47677 0
M  V30 6902 C 635.825 -3.42678 -0.408178 0
M  V30 6903 C 634.938 -4.28659 0.536212 0
M  V30 6904 C 634.073 -5.30599 -0.252521 0
M  V30 6905 C 633.112 -6.08234 0.686822 0
M  V30 6906 N 632.249 -7.02068 -0.0670902 0
M  V30 6907 H 637.089 -2.72531 1.20544 0
M  V30 6908 H 634.626 -1.34047 0.605779 0
M  V30 6909 H 636.584 -4.07986 -0.871962 0
M  V30 6910 H 635.214 -2.99103 -1.21397 0
M  V30 6911 H 634.266 -3.63584 1.1185 0
M  V30 6912 H 635.578 -4.8274 1.25552 0
M  V30 6913 H 634.732 -6.01694 -0.777801 0
M  V30 6914 H 633.471 -4.77233 -1.005 0
M  V30 6915 H 632.476 -5.3601 1.22366 0
M  V30 6916 H 633.701 -6.63689 1.43852 0
M  V30 6917 H 631.647 -6.5108 -0.801955 0
M  V30 6918 H 631.564 -7.53675 0.59243 0
M  V30 6919 H 632.832 -7.77392 -0.572851 0
M  V30 6920 N 637.061 -0.65484 -1.43351 0
M  V30 6921 C 638.008 0.0357713 -2.30772 0
M  V30 6922 C 638.978 0.813035 -1.44841 0
M  V30 6923 O 640.163 0.789314 -1.73708 0
M  V30 6924 C 637.303 0.995084 -3.30442 0
M  V30 6925 C 636.416 0.21375 -4.31471 0
M  V30 6926 C 635.551 1.16701 -5.18222 0
M  V30 6927 C 634.59 0.376201 -6.10943 0
M  V30 6928 N 633.727 1.28113 -6.90313 0
M  V30 6929 H 638.567 -0.71559 -2.89281 0
M  V30 6930 H 636.104 -0.364645 -1.42509 0
M  V30 6931 H 638.062 1.5649 -3.86739 0
M  V30 6932 H 636.692 1.7133 -2.7358 0
M  V30 6933 H 635.744 -0.472377 -3.77456 0
M  V30 6934 H 637.056 -0.401103 -4.97185 0
M  V30 6935 H 636.21 1.8074 -5.79153 0
M  V30 6936 H 634.949 1.81577 -4.52638 0
M  V30 6937 H 633.954 -0.277534 -5.49099 0
M  V30 6938 H 635.179 -0.268178 -6.7857 0
M  V30 6939 H 633.125 1.91666 -6.27376 0
M  V30 6940 H 633.042 0.720879 -7.52555 0
M  V30 6941 H 634.31 1.90962 -7.55747 0
M  V30 6942 N 638.539 1.52521 -0.396863 0
M  V30 6943 C 639.816 1.94112 0.240842 0
M  V30 6944 C 640.196 1.33288 1.637 0
M  V30 6945 O 639.544 0.503901 2.22875 0
M  V30 6946 C 639.754 3.48033 0.259567 0
M  V30 6947 C 641.102 4.21822 0.484866 0
M  V30 6948 O 642.126 3.54579 0.339453 0
M  V30 6949 O 640.985 5.41042 0.770412 0
M  V30 6950 H 638.079 0.812973 0.151671 0
M  V30 6951 H 640.625 1.63572 -0.451918 0
M  V30 6952 H 639.397 3.84655 -0.718078 0
M  V30 6953 H 639.02 3.84899 0.996937 0
M  V30 6954 N 640.017 0.126909 1.57088 0
M  V30 6955 C 640.927 -0.833867 2.1928 0
M  V30 6956 C 641.943 -1.2868 1.17122 0
M  V30 6957 O 643.119 -1.34815 1.49622 0
M  V30 6958 C 640.184 -2.0632 2.78627 0
M  V30 6959 C 639.245 -1.66143 3.95847 0
M  V30 6960 C 638.478 -2.83217 4.52354 0
M  V30 6961 O 638.701 -3.98868 4.0775 0
M  V30 6962 O 637.635 -2.59846 5.42922 0
M  V30 6963 H 641.461 -0.334564 3.01852 0
M  V30 6964 H 639.046 -0.0991091 1.49071 0
M  V30 6965 H 640.928 -2.78304 3.16425 0
M  V30 6966 H 639.603 -2.55242 1.99082 0
M  V30 6967 H 638.51 -0.912435 3.62802 0
M  V30 6968 H 639.843 -1.21957 4.76852 0
M  V30 6969 N 641.495 -1.56914 -0.146875 0
M  V30 6970 C 642.743 -1.82994 -0.85777 0
M  V30 6971 C 643.064 -0.707814 -1.817 0
M  V30 6972 O 642.334 0.270521 -1.94023 0
M  V30 6973 H 640.914 -0.675106 -0.319751 0
M  V30 6974 H 643.576 -1.9439 -0.140849 0
M  V30 6975 H 642.672 -2.77928 -1.41994 0
M  V30 6976 N 642.974 0.416227 -1.52004 0
M  V30 6977 C 644.39 0.754319 -1.40649 0
M  V30 6978 C 644.59 1.95059 -0.505392 0
M  V30 6979 O 643.646 2.5248 0.0315057 0
M  V30 6980 C 644.959 1.0149 -2.83055 0
M  V30 6981 C 646.507 1.11805 -2.9235 0
M  V30 6982 C 646.982 1.41144 -4.35709 0
M  V30 6983 N 648.473 1.48024 -4.38911 0
M  V30 6984 C 649.208 1.72338 -5.46889 0
M  V30 6985 N 648.704 1.94303 -6.64995 0
M  V30 6986 N 650.497 1.74294 -5.34395 0
M  V30 6987 H 642.648 -0.371324 -2.09129 0
M  V30 6988 H 644.911 -0.103811 -0.942299 0
M  V30 6989 H 644.617 0.208345 -3.51082 0
M  V30 6990 H 644.491 1.93697 -3.23668 0
M  V30 6991 H 646.878 1.91521 -2.24508 0
M  V30 6992 H 646.959 0.17451 -2.55204 0
M  V30 6993 H 646.603 0.619484 -5.04108 0
M  V30 6994 H 646.533 2.36739 -4.70385 0
M  V30 6995 H 649.024 1.32868 -3.53772 0
M  V30 6996 H 649.337 2.12286 -7.43071 0
M  V30 6997 H 647.682 1.91582 -6.68073 0
M  V30 6998 H 650.873 1.56667 -4.41104 0
M  V30 6999 H 651.046 1.92904 -6.18621 0
M  V30 7000 N 644.452 1.42507 0.673017 0
M  V30 7001 C 645.399 1.46124 1.78651 0
M  V30 7002 C 646.369 0.313007 1.63124 0
M  V30 7003 O 647.554 0.517337 1.83653 0
M  V30 7004 C 644.694 1.3711 3.16694 0
M  V30 7005 C 643.807 2.61983 3.43495 0
M  V30 7006 C 642.942 2.45098 4.71275 0
M  V30 7007 C 641.981 3.65336 4.91117 0
M  V30 7008 N 641.118 3.47383 6.10139 0
M  V30 7009 H 645.958 2.4128 1.74895 0
M  V30 7010 H 643.495 1.19788 0.853766 0
M  V30 7011 H 645.453 1.29881 3.96468 0
M  V30 7012 H 644.083 0.45549 3.1957 0
M  V30 7013 H 643.135 2.79571 2.57961 0
M  V30 7014 H 644.447 3.51355 3.5405 0
M  V30 7015 H 643.601 2.35466 5.59143 0
M  V30 7016 H 642.34 1.53219 4.63007 0
M  V30 7017 H 641.345 3.754 4.0169 0
M  V30 7018 H 642.57 4.58199 5.01229 0
M  V30 7019 H 640.516 2.58222 6.0304 0
M  V30 7020 H 640.433 4.30344 6.21563 0
M  V30 7021 H 641.701 3.41565 7.00681 0
M  V30 7022 N 645.93 -0.909495 1.28709 0
M  V30 7023 C 646.84 -2.04558 1.14861 0
M  V30 7024 C 647.856 -1.73842 0.0741621 0
M  V30 7025 O 649.032 -1.99383 0.2843 0
M  V30 7026 C 646.097 -3.36957 0.816148 0
M  V30 7027 C 645.158 -3.81255 1.97341 0
M  V30 7028 C 644.391 -5.07335 1.65671 0
M  V30 7029 O 644.614 -5.67514 0.573053 0
M  V30 7030 O 643.548 -5.47449 2.50167 0
M  V30 7031 H 647.374 -2.19161 2.10243 0
M  V30 7032 H 644.959 -1.03159 1.08068 0
M  V30 7033 H 646.841 -4.16436 0.644873 0
M  V30 7034 H 645.516 -3.2352 -0.107983 0
M  V30 7035 H 644.423 -3.02584 2.19986 0
M  V30 7036 H 645.756 -3.99261 2.87839 0
M  V30 7037 N 647.408 -1.11026 -1.11852 0
M  V30 7038 C 648.318 -0.777252 -2.2135 0
M  V30 7039 C 649.334 0.227821 -1.72502 0
M  V30 7040 O 650.51 0.0650587 -2.01295 0
M  V30 7041 C 647.575 -0.220668 -3.45997 0
M  V30 7042 C 646.636 -1.2838 -4.09655 0
M  V30 7043 C 645.869 -0.753678 -5.28352 0
M  V30 7044 O 646.092 0.417779 -5.68868 0
M  V30 7045 O 645.026 -1.51647 -5.82483 0
M  V30 7046 H 648.852 -1.69141 -2.5224 0
M  V30 7047 H 646.437 -0.885836 -1.20305 0
M  V30 7048 H 648.319 0.0855756 -4.21313 0
M  V30 7049 H 646.994 0.666262 -3.16769 0
M  V30 7050 H 645.901 -1.64299 -3.3609 0
M  V30 7051 H 647.234 -2.14396 -4.43052 0
M  V30 7052 N 648.886 1.2938 -0.899927 0
M  V30 7053 C 649.833 2.27713 -0.376243 0
M  V30 7054 C 650.803 1.57016 0.541774 0
M  V30 7055 O 651.988 1.84997 0.466966 0
M  V30 7056 C 649.128 3.42889 0.39 0
M  V30 7057 C 648.241 4.28369 -0.558938 0
M  V30 7058 C 647.376 5.30726 0.224379 0
M  V30 7059 C 646.415 6.07862 -0.719068 0
M  V30 7060 N 645.552 7.02094 0.0298569 0
M  V30 7061 H 650.392 2.71888 -1.21988 0
M  V30 7062 H 647.929 1.33724 -0.612879 0
M  V30 7063 H 649.887 4.08443 0.850314 0
M  V30 7064 H 648.517 2.99743 1.19809 0
M  V30 7065 H 647.569 3.62986 -1.13777 0
M  V30 7066 H 648.881 4.82068 -1.2811 0
M  V30 7067 H 648.035 6.02098 0.745881 0
M  V30 7068 H 646.774 4.77759 0.979674 0
M  V30 7069 H 645.779 5.35353 -1.25207 0
M  V30 7070 H 647.004 6.62917 -1.4737 0
M  V30 7071 H 644.95 6.51496 0.767415 0
M  V30 7072 H 644.867 7.5335 -0.632391 0
M  V30 7073 H 646.135 7.77685 0.531615 0
M  V30 7074 N 650.364 0.662433 1.43002 0
M  V30 7075 C 651.311 -0.0235324 2.30788 0
M  V30 7076 C 652.281 -0.805342 1.4527 0
M  V30 7077 O 653.466 -0.78009 1.74124 0
M  V30 7078 C 650.606 -0.977545 3.30965 0
M  V30 7079 C 649.719 -0.190865 4.31578 0
M  V30 7080 C 648.854 -1.13951 5.18834 0
M  V30 7081 C 647.893 -0.343796 6.11134 0
M  V30 7082 N 647.03 -1.2445 6.90982 0
M  V30 7083 H 651.87 0.730921 2.88897 0
M  V30 7084 H 649.407 0.372197 1.42313 0
M  V30 7085 H 651.365 -1.54437 3.87563 0
M  V30 7086 H 649.995 -1.69877 2.74484 0
M  V30 7087 H 649.047 0.492388 3.772 0
M  V30 7088 H 650.359 0.427464 4.96965 0
M  V30 7089 H 649.513 -1.77666 5.80103 0
M  V30 7090 H 648.252 -1.79174 4.53595 0
M  V30 7091 H 647.257 0.30665 5.48944 0
M  V30 7092 H 648.482 0.304161 6.78419 0
M  V30 7093 H 646.428 -1.88336 6.28383 0
M  V30 7094 H 646.345 -0.680959 7.52927 0
M  V30 7095 H 647.613 -1.86952 7.56749 0
M  V30 7096 N 651.842 -1.52309 0.404946 0
M  V30 7097 C 653.119 -1.94237 -0.230544 0
M  V30 7098 C 653.499 -1.34154 -1.6299 0
M  V30 7099 O 652.847 -0.515713 -2.22604 0
M  V30 7100 C 653.057 -3.48166 -0.241106 0
M  V30 7101 C 654.405 -4.22074 -0.462488 0
M  V30 7102 O 655.429 -3.54754 -0.320644 0
M  V30 7103 O 654.288 -5.41443 -0.741708 0
M  V30 7104 H 651.382 -0.813766 -0.147358 0
M  V30 7105 H 653.928 -1.6333 0.460587 0
M  V30 7106 H 652.7 -3.84269 0.738467 0
M  V30 7107 H 652.323 -3.85422 -0.97651 0
M  V30 7108 N 653.32 -0.135238 -1.57019 0
M  V30 7109 C 654.283 0.794707 -2.14981 0
M  V30 7110 C 655.283 1.18342 -1.08866 0
M  V30 7111 O 656.473 1.10627 -1.34563 0
M  V30 7112 C 653.605 2.07685 -2.70333 0
M  V30 7113 H 654.798 0.290696 -2.98488 0
M  V30 7114 H 652.351 0.114128 -1.55883 0
M  V30 7115 H 653.086 2.6248 -1.9046 0
M  V30 7116 H 652.871 1.80745 -3.47957 0
M  V30 7117 H 654.361 2.74127 -3.1503 0
M  V30 7118 N 654.798 1.5699 0.138552 0
M  V30 7119 C 655.745 1.98899 1.17081 0
M  V30 7120 C 656.715 0.857922 1.42228 0
M  V30 7121 O 657.9 1.12065 1.54422 0
M  V30 7122 C 655.04 2.38189 2.4972 0
M  V30 7123 C 654.153 3.64624 2.31674 0
M  V30 7124 C 653.288 3.9298 3.57407 0
M  V30 7125 C 652.327 5.1266 3.34435 0
M  V30 7126 N 651.464 5.36983 4.5232 0
M  V30 7127 H 656.304 2.86881 0.80642 0
M  V30 7128 H 653.841 1.41925 0.386727 0
M  V30 7129 H 655.799 2.59 3.2707 0
M  V30 7130 H 654.429 1.53275 2.84089 0
M  V30 7131 H 653.481 3.51542 1.45337 0
M  V30 7132 H 654.793 4.52131 2.10664 0
M  V30 7133 H 653.947 4.14335 4.43183 0
M  V30 7134 H 652.686 3.03912 3.8143 0
M  V30 7135 H 651.691 4.9117 2.47048 0
M  V30 7136 H 652.916 6.03288 3.11802 0
M  V30 7137 H 650.862 4.50871 4.76499 0
M  V30 7138 H 650.779 6.18775 4.34343 0
M  V30 7139 H 652.047 5.62842 5.39285 0
M  V30 7140 N 656.276 -0.40816 1.52223 0
M  V30 7141 C 657.223 -1.49737 1.75635 0
M  V30 7142 C 658.193 -1.5493 0.598824 0
M  V30 7143 O 659.378 -1.71487 0.83648 0
M  V30 7144 C 656.518 -2.87174 1.91376 0
M  V30 7145 C 655.631 -2.91283 3.19027 0
M  V30 7146 C 654.766 -4.20026 3.25195 0
M  V30 7147 C 653.805 -4.18113 4.47044 0
M  V30 7148 N 652.942 -5.38429 4.50598 0
M  V30 7149 H 657.782 -1.29075 2.68596 0
M  V30 7150 H 655.319 -0.626518 1.33091 0
M  V30 7151 H 657.277 -3.66959 1.98486 0
M  V30 7152 H 655.907 -3.06329 1.01795 0
M  V30 7153 H 654.959 -2.03984 3.21084 0
M  V30 7154 H 656.271 -2.85734 4.08849 0
M  V30 7155 H 655.425 -5.08204 3.31382 0
M  V30 7156 H 654.164 -4.28271 2.33313 0
M  V30 7157 H 653.169 -3.28325 4.41002 0
M  V30 7158 H 654.394 -4.11507 5.40221 0
M  V30 7159 H 652.34 -5.4734 3.616 0
M  V30 7160 H 652.257 -5.34879 5.34266 0
M  V30 7161 H 653.525 -6.28557 4.61016 0
M  V30 7162 N 657.755 -1.42862 -0.66545 0
M  V30 7163 C 658.665 -1.49491 -1.80803 0
M  V30 7164 C 659.681 -0.382914 -1.69734 0
M  V30 7165 O 660.857 -0.635223 -1.9112 0
M  V30 7166 C 657.922 -1.40383 -3.17007 0
M  V30 7167 C 656.983 -2.62152 -3.39963 0
M  V30 7168 C 656.216 -2.53469 -4.69669 0
M  V30 7169 O 656.439 -1.57568 -5.48205 0
M  V30 7170 O 655.373 -3.43763 -4.94075 0
M  V30 7171 H 659.199 -2.45949 -1.78165 0
M  V30 7172 H 656.784 -1.24728 -0.822387 0
M  V30 7173 H 658.666 -1.377 -3.98267 0
M  V30 7174 H 657.341 -0.470546 -3.20262 0
M  V30 7175 H 656.248 -2.70409 -2.58515 0
M  V30 7176 H 657.581 -3.54411 -3.41546 0
M  V30 7177 N 659.233 0.902656 -1.29189 0
M  V30 7178 C 660.143 2.03946 -1.15944 0
M  V30 7179 C 661.159 1.738 -0.0833803 0
M  V30 7180 O 662.335 1.9923 -0.29487 0
M  V30 7181 C 659.4 3.36519 -0.834006 0
M  V30 7182 C 658.461 3.80203 -1.9936 0
M  V30 7183 C 657.694 5.06449 -1.68359 0
M  V30 7184 O 657.917 5.67202 -0.603141 0
M  V30 7185 O 656.851 5.46114 -2.53067 0
M  V30 7186 H 660.677 2.18043 -2.11403 0
M  V30 7187 H 658.262 1.02584 -1.08613 0
M  V30 7188 H 660.144 4.16089 -0.666949 0
M  V30 7189 H 658.819 3.23573 0.0908245 0
M  V30 7190 H 657.726 3.01413 -2.21588 0
M  V30 7191 H 659.059 3.97729 -2.89952 0
M  V30 7192 N 660.711 1.11618 1.11262 0
M  V30 7193 C 661.658 0.7762 2.17356 0
M  V30 7194 C 662.628 -0.253152 1.6416 0
M  V30 7195 O 663.813 -0.129655 1.90359 0
M  V30 7196 C 660.953 0.227581 3.44349 0
M  V30 7197 C 660.066 1.31372 4.1154 0
M  V30 7198 C 659.201 0.72544 5.26223 0
M  V30 7199 C 658.24 1.7913 5.85302 0
M  V30 7200 N 657.377 1.22237 6.91377 0
M  V30 7201 H 662.217 1.68508 2.45783 0
M  V30 7202 H 659.754 0.841475 1.20655 0
M  V30 7203 H 661.712 -0.108483 4.17059 0
M  V30 7204 H 660.342 -0.644486 3.16301 0
M  V30 7205 H 659.394 1.7667 3.36885 0
M  V30 7206 H 660.706 2.12005 4.51504 0
M  V30 7207 H 659.86 0.339541 6.05749 0
M  V30 7208 H 658.599 -0.112188 4.87571 0
M  V30 7209 H 657.604 2.18648 5.04453 0
M  V30 7210 H 658.829 2.63199 6.26022 0
M  V30 7211 H 656.775 0.406423 6.5474 0
M  V30 7212 H 656.692 1.9654 7.30006 0
M  V30 7213 H 657.96 0.863426 7.74703 0
M  V30 7214 N 662.189 -1.289 0.906776 0
M  V30 7215 C 663.605 -1.47733 0.603902 0
M  V30 7216 C 663.805 -1.82568 -0.852702 0
M  V30 7217 O 662.861 -1.92642 -1.63234 0
M  V30 7218 C 664.174 -2.58522 1.53581 0
M  V30 7219 C 665.722 -2.72394 1.54177 0
M  V30 7220 C 666.197 -3.86318 2.46013 0
M  V30 7221 N 667.688 -3.93661 2.441 0
M  V30 7222 C 668.423 -4.81177 3.11859 0
M  V30 7223 N 667.919 -5.73333 3.88923 0
M  V30 7224 N 669.712 -4.74728 3.00981 0
M  V30 7225 H 661.863 -1.04567 1.84877 0
M  V30 7226 H 664.126 -0.520118 0.792579 0
M  V30 7227 H 663.832 -2.39667 2.57396 0
M  V30 7228 H 663.706 -3.55475 1.26165 0
M  V30 7229 H 666.093 -2.90641 0.511034 0
M  V30 7230 H 666.174 -1.75993 1.85634 0
M  V30 7231 H 665.818 -3.68826 3.49185 0
M  V30 7232 H 665.748 -4.82102 2.11862 0
M  V30 7233 H 668.239 -3.27751 1.88115 0
M  V30 7234 H 668.552 -6.36923 4.37663 0
M  V30 7235 H 666.897 -5.73196 3.93029 0
M  V30 7236 H 670.088 -4.01722 2.40286 0
M  V30 7237 H 670.261 -5.42719 3.54062 0
M  V30 7238 N 663.667 -0.670007 -1.42649 0
M  V30 7239 C 664.614 0.0112928 -2.30797 0
M  V30 7240 C 665.584 0.797627 -1.45695 0
M  V30 7241 O 666.769 0.770845 -1.74535 0
M  V30 7242 C 663.909 0.95998 -3.31479 0
M  V30 7243 C 663.022 0.167975 -4.31673 0
M  V30 7244 C 662.157 1.11198 -5.19431 0
M  V30 7245 C 661.196 0.311381 -6.11307 0
M  V30 7246 N 660.333 1.20784 -6.91633 0
M  V30 7247 H 665.173 -0.746231 -2.88505 0
M  V30 7248 H 662.71 -0.379739 -1.42114 0
M  V30 7249 H 664.668 1.52379 -3.88377 0
M  V30 7250 H 663.298 1.68419 -2.75382 0
M  V30 7251 H 662.35 -0.512385 -3.76933 0
M  V30 7252 H 663.662 -0.453814 -4.96731 0
M  V30 7253 H 662.816 1.74587 -5.81037 0
M  V30 7254 H 661.555 1.76766 -4.54538 0
M  V30 7255 H 660.56 -0.335758 -5.48774 0
M  V30 7256 H 661.785 -0.340135 -6.78248 0
M  V30 7257 H 659.731 1.85001 -6.29373 0
M  V30 7258 H 659.648 0.64102 -7.53277 0
M  V30 7259 H 660.916 1.82936 -7.5773 0
M  V30 7260 N 665.145 1.52092 -0.413018 0
M  V30 7261 C 666.422 1.94356 0.22024 0
M  V30 7262 C 666.802 1.35017 1.62277 0
M  V30 7263 O 666.15 0.527511 2.22328 0
M  V30 7264 C 666.36 3.48289 0.222638 0
M  V30 7265 C 667.708 4.22313 0.440098 0
M  V30 7266 O 668.732 3.54919 0.301826 0
M  V30 7267 O 667.591 5.41829 0.712984 0
M  V30 7268 H 664.685 0.814536 0.14304 0
M  V30 7269 H 667.231 1.63083 -0.469242 0
M  V30 7270 H 666.003 3.83872 -0.758836 0
M  V30 7271 H 665.626 3.85934 0.956057 0
M  V30 7272 N 666.623 0.143563 1.56945 0
M  V30 7273 C 667.851 -0.515447 2.00377 0
M  V30 7274 C 668.266 -1.58643 1.02361 0
M  V30 7275 O 667.623 -1.82489 0.0201039 0
M  V30 7276 C 667.674 -1.11923 3.43737 0
M  V30 7277 O 667.395 -0.0910318 4.38005 0
M  V30 7278 C 668.896 -1.85918 4.02429 0
M  V30 7279 H 666.116 -0.134478 0.657386 0
M  V30 7280 H 668.66 0.237135 2.0312 0
M  V30 7281 H 666.815 -1.82245 3.41856 0
M  V30 7282 H 667.229 -0.532916 5.21786 0
M  V30 7283 H 668.703 -2.2346 5.04747 0
M  V30 7284 H 669.18 -2.7438 3.42947 0
M  V30 7285 H 669.786 -1.20303 4.07931 0
M  V30 7286 N 668.101 -1.57061 -0.130224 0
M  V30 7287 C 669.048 -1.99517 -1.16024 0
M  V30 7288 C 670.018 -0.865452 -1.41771 0
M  V30 7289 O 671.203 -1.12882 -1.53826 0
M  V30 7290 C 668.343 -2.3951 -2.48453 0
M  V30 7291 C 667.456 -3.65848 -2.29737 0
M  V30 7292 C 666.591 -3.9487 -3.55318 0
M  V30 7293 C 665.63 -5.14426 -3.31711 0
M  V30 7294 N 664.767 -5.39375 -4.49466 0
M  V30 7295 H 669.607 -2.87305 -0.791194 0
M  V30 7296 H 667.144 -1.42129 -0.379195 0
M  V30 7297 H 669.102 -2.60731 -3.25692 0
M  V30 7298 H 667.732 -1.54779 -2.83272 0
M  V30 7299 H 666.784 -3.52307 -1.4347 0
M  V30 7300 H 668.096 -4.53241 -2.08263 0
M  V30 7301 H 667.25 -4.16679 -4.4098 0
M  V30 7302 H 665.989 -3.05931 -3.79813 0
M  V30 7303 H 664.994 -4.92473 -2.44439 0
M  V30 7304 H 666.219 -6.04933 -3.08598 0
M  V30 7305 H 664.165 -4.53391 -4.74102 0
M  V30 7306 H 664.082 -6.21069 -4.31055 0
M  V30 7307 H 665.35 -5.65694 -5.36293 0
M  V30 7308 N 669.579 0.400081 -1.52437 0
M  V30 7309 C 670.99 0.97851 -1.59003 0
M  V30 7310 C 671.341 1.91293 -0.436068 0
M  V30 7311 O 670.466 2.1183 0.442365 0
M  V30 7312 C 671.061 1.78145 -2.88184 0
M  V30 7313 C 669.62 2.30976 -2.97199 0
M  V30 7314 C 668.767 1.11212 -2.54022 0
M  V30 7315 H 671.718 0.180002 -1.57676 0
M  V30 7316 H 671.739 2.63968 -2.74046 0
M  V30 7317 H 671.251 1.1011 -3.72152 0
M  V30 7318 H 669.352 3.02355 -2.17744 0
M  V30 7319 H 669.465 2.61221 -4.01622 0
M  V30 7320 H 667.829 1.46882 -2.08081 0
M  V30 7321 H 668.612 0.447307 -3.40373 0
M  V30 7322 N 671.057 1.43213 0.657864 0
M  V30 7323 C 671.967 1.50448 1.80007 0
M  V30 7324 C 672.983 0.39191 1.69529 0
M  V30 7325 O 674.159 0.645349 1.90781 0
M  V30 7326 C 671.224 1.42062 3.16258 0
M  V30 7327 C 670.285 2.63951 3.38568 0
M  V30 7328 C 669.518 2.55956 4.68318 0
M  V30 7329 O 669.741 1.60473 5.47361 0
M  V30 7330 O 668.675 3.46378 4.92245 0
M  V30 7331 H 672.501 2.4689 1.76858 0
M  V30 7332 H 670.086 1.25163 0.81576 0
M  V30 7333 H 671.968 1.3981 3.97531 0
M  V30 7334 H 670.643 0.487524 3.20008 0
M  V30 7335 H 669.55 2.71776 2.57077 0
M  V30 7336 H 670.883 3.56217 3.39662 0
M  V30 7337 N 672.536 -0.895792 1.29666 0
M  V30 7338 C 673.466 -2.01673 1.17688 0
M  V30 7339 C 674.447 -1.69955 0.0701317 0
M  V30 7340 O 675.632 -1.9258 0.250289 0
M  V30 7341 C 672.762 -3.36568 0.856681 0
M  V30 7342 C 671.716 -3.82509 1.92017 0
M  V30 7343 C 671.042 -5.14574 1.4532 0
M  V30 7344 C 672.342 -4.02409 3.32963 0
M  V30 7345 H 674.036 -2.11953 2.11463 0
M  V30 7346 H 671.582 -1.01839 1.01807 0
M  V30 7347 H 673.535 -4.14498 0.759577 0
M  V30 7348 H 672.259 -3.26391 -0.116763 0
M  V30 7349 H 670.918 -3.068 2.00673 0
M  V30 7350 H 670.566 -5.00815 0.468325 0
M  V30 7351 H 670.266 -5.46283 2.16447 0
M  V30 7352 H 671.79 -5.9504 1.36968 0
M  V30 7353 H 673.204 -4.70808 3.27127 0
M  V30 7354 H 671.601 -4.45478 4.02082 0
M  V30 7355 H 672.671 -3.06616 3.75652 0
M  V30 7356 N 674.014 -1.12206 -1.10668 0
M  V30 7357 C 674.961 -0.787716 -2.16942 0
M  V30 7358 C 675.931 0.244442 -1.64291 0
M  V30 7359 O 677.116 0.119558 -1.90425 0
M  V30 7360 C 674.256 -0.24584 -3.44223 0
M  V30 7361 C 673.369 -1.33552 -4.10838 0
M  V30 7362 C 672.504 -0.753337 -5.25831 0
M  V30 7363 C 671.543 -1.82231 -5.84344 0
M  V30 7364 N 670.68 -1.25902 -6.90719 0
M  V30 7365 H 675.52 -1.69809 -2.44885 0
M  V30 7366 H 673.057 -0.847862 -1.20207 0
M  V30 7367 H 675.015 0.0863639 -4.17111 0
M  V30 7368 H 673.645 0.627702 -3.16638 0
M  V30 7369 H 672.697 -1.78454 -3.35944 0
M  V30 7370 H 674.009 -2.14396 -4.50373 0
M  V30 7371 H 673.163 -0.37166 -6.05561 0
M  V30 7372 H 671.902 0.0863297 -4.87624 0
M  V30 7373 H 670.907 -2.2132 -5.03287 0
M  V30 7374 H 672.132 -2.66515 -6.24617 0
M  V30 7375 H 670.078 -0.44114 -6.54515 0
M  V30 7376 H 669.995 -2.00408 -7.28953 0
M  V30 7377 H 671.263 -0.904498 -7.74235 0
M  V30 7378 N 675.492 1.28418 -0.913599 0
M  V30 7379 C 676.439 2.27301 -0.400373 0
M  V30 7380 C 677.409 1.57582 0.52509 0
M  V30 7381 O 678.594 1.85482 0.447318 0
M  V30 7382 C 675.734 3.43284 0.35361 0
M  V30 7383 C 674.847 4.27752 -0.604341 0
M  V30 7384 C 673.982 5.30934 0.168075 0
M  V30 7385 C 673.021 6.07065 -0.783499 0
M  V30 7386 N 672.158 7.02086 -0.0446112 0
M  V30 7387 H 676.998 2.70579 -1.24865 0
M  V30 7388 H 674.535 1.33067 -0.627028 0
M  V30 7389 H 676.493 4.09322 0.806945 0
M  V30 7390 H 675.123 3.00997 1.16623 0
M  V30 7391 H 674.175 3.61759 -1.17621 0
M  V30 7392 H 675.487 4.80682 -1.33216 0
M  V30 7393 H 674.641 6.02855 0.681979 0
M  V30 7394 H 673.38 4.78771 0.928947 0
M  V30 7395 H 672.385 5.33995 -1.30878 0
M  V30 7396 H 673.61 6.61317 -1.54392 0
M  V30 7397 H 671.556 6.52273 0.698272 0
M  V30 7398 H 671.473 7.52637 -0.712258 0
M  V30 7399 H 672.741 7.78205 0.449102 0
M  V30 7400 N 676.97 0.677563 1.42291 0
M  V30 7401 C 678.219 0.198173 2.00724 0
M  V30 7402 C 678.532 -1.20325 1.54211 0
M  V30 7403 O 679.738 -1.77916 2.05081 0
M  V30 7404 C 678.194 0.303432 3.58619 0
M  V30 7405 C 677.802 1.70909 4.14119 0
M  V30 7406 C 679.546 -0.117103 4.24338 0
M  V30 7407 C 677.453 1.76696 5.64387 0
M  V30 7408 H 676.383 0.070329 0.750713 0
M  V30 7409 H 679.034 0.843147 1.62982 0
M  V30 7410 H 677.416 -0.409482 3.93877 0
M  V30 7411 H 678.59 2.44931 3.90315 0
M  V30 7412 H 676.905 2.07771 3.6086 0
M  V30 7413 H 679.502 -0.0940471 5.34617 0
M  V30 7414 H 679.845 -1.15283 4.00019 0
M  V30 7415 H 680.378 0.5449 3.9405 0
M  V30 7416 H 677.117 2.7826 5.93508 0
M  V30 7417 H 676.637 1.07034 5.90173 0
M  V30 7418 H 678.316 1.52166 6.28852 0
M  V30 7419 N 678.448 -1.51871 0.421078 0
M  V30 7420 C 679.673 -2.0684 -0.152371 0
M  V30 7421 C 680.098 -1.28802 -1.37083 0
M  V30 7422 O 679.456 -0.321482 -1.78427 0
M  V30 7423 C 679.504 -3.57532 -0.469368 0
M  V30 7424 O 678.608 -3.81818 -1.55848 0
M  V30 7425 H 677.949 -0.663939 -0.00898586 0
M  V30 7426 H 680.479 -1.95674 0.597724 0
M  V30 7427 H 680.489 -4.01515 -0.724553 0
M  V30 7428 H 679.164 -4.13761 0.421276 0
M  V30 7429 H 677.741 -3.49709 -1.29453 0
M  V30 7430 N 679.926 -0.151884 -1.56866 0
M  V30 7431 C 680.873 0.785936 -2.17006 0
M  V30 7432 C 681.843 1.2407 -1.10435 0
M  V30 7433 O 683.028 1.31235 -1.38499 0
M  V30 7434 C 680.168 2.01771 -2.79969 0
M  V30 7435 C 679.281 1.6083 -4.00946 0
M  V30 7436 C 678.416 2.79224 -4.51893 0
M  V30 7437 C 677.455 2.3468 -5.65324 0
M  V30 7438 N 676.592 3.461 -6.10867 0
M  V30 7439 H 681.432 0.266286 -2.96808 0
M  V30 7440 H 678.969 0.11972 -1.46612 0
M  V30 7441 H 680.927 2.73989 -3.14621 0
M  V30 7442 H 679.557 2.51139 -2.02803 0
M  V30 7443 H 678.609 0.783592 -3.72242 0
M  V30 7444 H 679.921 1.24119 -4.83111 0
M  V30 7445 H 679.075 3.59625 -4.88625 0
M  V30 7446 H 677.814 3.19183 -3.68746 0
M  V30 7447 H 676.819 1.52721 -5.28163 0
M  V30 7448 H 678.044 1.95801 -6.5026 0
M  V30 7449 H 675.99 3.85671 -5.30654 0
M  V30 7450 H 675.907 3.1342 -6.87971 0
M  V30 7451 H 677.175 4.26844 -6.52246 0
M  V30 7452 N 681.404 1.57128 0.121893 0
M  V30 7453 C 682.815 1.73902 0.679348 0
M  V30 7454 C 683.166 0.770135 1.80453 0
M  V30 7455 O 682.291 -0.0576083 2.16323 0
M  V30 7456 C 682.886 3.15328 1.2391 0
M  V30 7457 C 681.445 3.33618 1.74288 0
M  V30 7458 C 680.592 2.6978 0.641414 0
M  V30 7459 H 683.543 1.58359 -0.104 0
M  V30 7460 H 683.564 3.16718 2.10879 0
M  V30 7461 H 683.076 3.85821 0.419957 0
M  V30 7462 H 681.177 2.68162 2.58689 0
M  V30 7463 H 681.29 4.4176 1.85432 0
M  V30 7464 H 679.654 2.30935 1.0743 0
M  V30 7465 H 680.437 3.42895 -0.166707 0
M  V30 7466 N 682.882 -0.391992 1.52647 0
M  V30 7467 C 684.159 -1.15136 1.58123 0
M  V30 7468 C 684.539 -2.07786 0.372597 0
M  V30 7469 O 683.887 -2.19374 -0.639304 0
M  V30 7470 C 684.097 -1.91367 2.91856 0
M  V30 7471 C 685.445 -2.46833 3.45483 0
M  V30 7472 O 686.469 -2.01527 2.9371 0
M  V30 7473 O 685.328 -3.29587 4.3593 0
M  V30 7474 H 682.422 -0.526649 0.637629 0
M  V30 7475 H 684.968 -0.397386 1.64982 0
M  V30 7476 H 683.74 -1.23597 3.71268 0
M  V30 7477 H 683.363 -2.73732 2.88369 0
M  V30 7478 N 684.36 -1.4356 -0.65026 0
M  V30 7479 C 685.29 -1.51758 -1.77459 0
M  V30 7480 C 686.271 -0.372019 -1.65982 0
M  V30 7481 O 687.456 -0.589627 -1.85033 0
M  V30 7482 C 684.586 -1.44302 -3.15902 0
M  V30 7483 C 683.54 -2.57138 -3.42146 0
M  V30 7484 C 682.866 -2.34735 -4.8042 0
M  V30 7485 C 684.166 -3.99373 -3.36598 0
M  V30 7486 H 685.86 -2.45863 -1.70855 0
M  V30 7487 H 683.406 -1.18333 -0.820566 0
M  V30 7488 H 685.359 -1.48641 -3.94314 0
M  V30 7489 H 684.083 -0.467026 -3.23244 0
M  V30 7490 H 682.742 -2.52157 -2.66106 0
M  V30 7491 H 682.39 -1.35372 -4.84441 0
M  V30 7492 H 682.09 -3.10375 -4.9894 0
M  V30 7493 H 683.614 -2.40862 -5.61086 0
M  V30 7494 H 685.028 -4.05826 -4.04942 0
M  V30 7495 H 683.425 -4.75063 -3.66654 0
M  V30 7496 H 684.495 -4.243 -2.34729 0
M  V30 7497 N 685.838 0.888903 -1.30139 0
M  V30 7498 C 686.785 1.99422 -1.16188 0
M  V30 7499 C 687.755 1.66017 -0.0523869 0
M  V30 7500 O 688.94 1.89506 -0.221864 0
M  V30 7501 C 686.08 3.34325 -0.855612 0
M  V30 7502 C 685.193 3.80445 -2.0466 0
M  V30 7503 C 684.328 5.03975 -1.67876 0
M  V30 7504 C 683.367 5.42492 -2.83493 0
M  V30 7505 N 682.504 6.57206 -2.47032 0
M  V30 7506 H 687.344 2.10687 -2.10749 0
M  V30 7507 H 684.881 1.03165 -1.04859 0
M  V30 7508 H 686.839 4.11968 -0.658681 0
M  V30 7509 H 685.469 3.22756 0.0531155 0
M  V30 7510 H 684.521 2.98745 -2.3549 0
M  V30 7511 H 685.833 4.04933 -2.91257 0
M  V30 7512 H 684.987 5.89232 -1.44535 0
M  V30 7513 H 683.726 4.8135 -0.784431 0
M  V30 7514 H 682.731 4.55764 -3.07505 0
M  V30 7515 H 683.956 5.67093 -3.73607 0
M  V30 7516 H 681.902 6.36164 -1.601 0
M  V30 7517 H 681.819 6.81543 -3.27161 0
M  V30 7518 H 683.087 7.45704 -2.27038 0
M  V30 7519 N 687.317 1.12792 1.10072 0
M  V30 7520 C 688.728 0.899346 1.63611 0
M  V30 7521 C 689.079 -0.565547 1.87872 0
M  V30 7522 O 688.204 -1.43081 1.62348 0
M  V30 7523 C 688.799 1.62608 2.97227 0
M  V30 7524 C 687.358 1.44356 3.47618 0
M  V30 7525 C 686.505 1.65958 2.22156 0
M  V30 7526 H 689.456 1.28216 0.935223 0
M  V30 7527 H 689.477 1.0793 3.64872 0
M  V30 7528 H 688.989 2.69221 2.79538 0
M  V30 7529 H 687.09 0.400148 3.70445 0
M  V30 7530 H 687.203 2.20218 4.25489 0
M  V30 7531 H 685.567 1.08395 2.30484 0
M  V30 7532 H 686.35 2.73877 2.06993 0
M  V30 7533 N 688.795 -1.27931 0.920396 0
M  V30 7534 C 690.042 -1.94689 0.557007 0
M  V30 7535 C 690.37 -1.724 -0.900476 0
M  V30 7536 O 689.625 -1.04194 -1.65657 0
M  V30 7537 C 689.924 -3.47853 0.820558 0
M  V30 7538 C 689.59 -3.90252 2.25863 0
M  V30 7539 C 688.252 -4.01539 2.65179 0
M  V30 7540 C 690.604 -4.11853 3.19415 0
M  V30 7541 C 687.932 -4.3181 3.97187 0
M  V30 7542 C 690.284 -4.43606 4.50995 0
M  V30 7543 C 688.948 -4.53105 4.90155 0
M  V30 7544 H 688.218 -0.712416 0.203823 0
M  V30 7545 H 690.865 -1.52142 1.16298 0
M  V30 7546 H 689.17 -3.91578 0.131844 0
M  V30 7547 H 690.867 -3.97634 0.51847 0
M  V30 7548 H 687.457 -3.81999 1.94358 0
M  V30 7549 H 691.641 -4.0258 2.90246 0
M  V30 7550 H 686.897 -4.37371 4.2722 0
M  V30 7551 H 691.071 -4.59268 5.23494 0
M  V30 7552 H 688.698 -4.76315 5.92476 0
M  V30 7553 N 690.273 -0.685099 -1.4193 0
M  V30 7554 C 691.501 -0.220372 -2.05723 0
M  V30 7555 C 691.916 1.12642 -1.51516 0
M  V30 7556 O 691.273 1.70182 -0.659114 0
M  V30 7557 C 691.324 -0.157974 -3.61155 0
M  V30 7558 O 691.045 -1.45156 -4.13354 0
M  V30 7559 C 692.546 0.329009 -4.42077 0
M  V30 7560 H 689.766 -0.104725 -0.662777 0
M  V30 7561 H 692.31 -0.934736 -1.81887 0
M  V30 7562 H 690.465 0.507144 -3.84066 0
M  V30 7563 H 690.879 -1.33172 -5.07312 0
M  V30 7564 H 692.353 0.321559 -5.51063 0
M  V30 7565 H 692.83 1.36608 -4.17414 0
M  V30 7566 H 693.436 -0.304737 -4.24207 0
M  V30 7567 N 691.751 1.51645 -0.429126 0
M  V30 7568 C 693.162 1.86665 0.0359003 0
M  V30 7569 C 693.513 1.34677 1.42676 0
M  V30 7570 O 692.638 0.694195 2.04963 0
M  V30 7571 C 693.233 3.38724 0.0719221 0
M  V30 7572 C 691.792 3.7331 0.481336 0
M  V30 7573 C 690.939 2.75313 -0.331329 0
M  V30 7574 H 693.89 1.44987 -0.645333 0
M  V30 7575 H 693.911 3.7011 0.883118 0
M  V30 7576 H 693.423 3.76532 -0.940495 0
M  V30 7577 H 691.524 3.41088 1.49966 0
M  V30 7578 H 691.637 4.78631 0.211837 0
M  V30 7579 H 690.001 2.53839 0.209204 0
M  V30 7580 H 690.784 3.15963 -1.34247 0
M  V30 7581 N 693.229 0.160201 1.56784 0
M  V30 7582 C 694.139 -0.787167 2.21 0
M  V30 7583 C 695.155 -1.26167 1.19825 0
M  V30 7584 O 696.331 -1.31611 1.52448 0
M  V30 7585 C 693.396 -2.00364 2.8294 0
M  V30 7586 C 692.457 -1.5771 3.99282 0
M  V30 7587 C 691.69 -2.73558 4.58259 0
M  V30 7588 O 691.913 -3.90129 4.16119 0
M  V30 7589 O 690.847 -2.48271 5.48311 0
M  V30 7590 H 694.673 -0.270462 3.02493 0
M  V30 7591 H 692.258 -0.0674666 1.49248 0
M  V30 7592 H 694.14 -2.71529 3.22257 0
M  V30 7593 H 692.815 -2.50961 2.04451 0
M  V30 7594 H 691.722 -0.835274 3.64656 0
M  V30 7595 H 693.055 -1.11815 4.79331 0
M  V30 7596 N 694.707 -1.5719 -0.113559 0
M  V30 7597 C 695.953 -1.85412 -0.821597 0
M  V30 7598 C 696.286 -0.746722 -1.7927 0
M  V30 7599 O 695.561 0.246971 -1.92926 0
M  V30 7600 C 695.844 -3.24233 -1.56669 0
M  V30 7601 C 695.697 -4.45578 -0.614823 0
M  V30 7602 C 697.016 -3.60697 -2.52161 0
M  V30 7603 H 694.135 -0.674406 -0.29723 0
M  V30 7604 H 696.777 -1.89807 -0.085694 0
M  V30 7605 H 694.927 -3.20617 -2.19401 0
M  V30 7606 H 696.599 -4.613 0.00407137 0
M  V30 7607 H 694.842 -4.33738 0.0732332 0
M  V30 7608 H 695.513 -5.39395 -1.17292 0
M  V30 7609 H 697.989 -3.65139 -1.99532 0
M  V30 7610 H 696.865 -4.58798 -3.01323 0
M  V30 7611 H 697.126 -2.88403 -3.35076 0
M  V30 7612 N 696.185 0.383891 -1.52853 0
M  V30 7613 C 697.601 0.724316 -1.42218 0
M  V30 7614 C 697.801 1.93943 -0.546654 0
M  V30 7615 O 696.857 2.5249 -0.0220562 0
M  V30 7616 C 698.17 0.954635 -2.85144 0
M  V30 7617 C 699.718 1.05579 -2.94656 0
M  V30 7618 C 700.193 1.3187 -4.38605 0
M  V30 7619 N 701.684 1.38681 -4.41952 0
M  V30 7620 C 702.419 1.60699 -5.50421 0
M  V30 7621 N 701.915 1.80154 -6.68967 0
M  V30 7622 N 703.708 1.6292 -5.37972 0
M  V30 7623 H 695.859 -0.4156 -2.08294 0
M  V30 7624 H 698.122 -0.123776 -0.939885 0
M  V30 7625 H 697.828 0.133829 -3.51445 0
M  V30 7626 H 697.702 1.86788 -3.27704 0
M  V30 7627 H 700.089 1.86716 -2.2852 0
M  V30 7628 H 700.17 0.120338 -2.55517 0
M  V30 7629 H 699.814 0.512416 -5.05309 0
M  V30 7630 H 699.744 2.26708 -4.75301 0
M  V30 7631 H 702.235 1.25334 -3.56511 0
M  V30 7632 H 702.548 1.96476 -7.47407 0
M  V30 7633 H 700.893 1.77368 -6.71986 0
M  V30 7634 H 704.084 1.47276 -4.44328 0
M  V30 7635 H 704.257 1.79739 -6.22574 0
M  V30 7636 N 697.663 1.43903 0.642637 0
M  V30 7637 C 698.61 1.49881 1.75512 0
M  V30 7638 C 699.58 0.347538 1.62423 0
M  V30 7639 O 700.765 0.556177 1.82514 0
M  V30 7640 C 697.905 1.43797 3.13714 0
M  V30 7641 C 697.018 2.6921 3.37861 0
M  V30 7642 C 696.153 2.5504 4.6597 0
M  V30 7643 C 695.192 3.75671 4.83257 0
M  V30 7644 N 694.329 3.60247 6.02633 0
M  V30 7645 H 699.169 2.44935 1.69737 0
M  V30 7646 H 696.706 1.21572 0.828165 0
M  V30 7647 H 698.664 1.38262 3.93624 0
M  V30 7648 H 697.294 0.523173 3.18532 0
M  V30 7649 H 696.346 2.8498 2.51973 0
M  V30 7650 H 697.658 3.58786 3.46517 0
M  V30 7651 H 696.812 2.47273 5.54023 0
M  V30 7652 H 695.551 1.63006 4.59653 0
M  V30 7653 H 694.556 3.83836 3.93637 0
M  V30 7654 H 695.781 4.68728 4.91397 0
M  V30 7655 H 693.727 2.70955 5.97427 0
M  V30 7656 H 693.644 4.43431 6.12295 0
M  V30 7657 H 694.912 3.56351 6.93278 0
M  V30 7658 N 699.141 -0.881989 1.30609 0
M  V30 7659 C 700.369 -1.66711 1.22536 0
M  V30 7660 C 700.784 -1.87614 -0.2113 0
M  V30 7661 O 700.141 -1.42576 -1.13923 0
M  V30 7662 C 700.192 -3.04182 1.95335 0
M  V30 7663 O 699.913 -2.8422 3.33393 0
M  V30 7664 C 701.414 -3.98617 1.93956 0
M  V30 7665 H 698.634 -0.520124 0.423925 0
M  V30 7666 H 701.178 -1.10174 1.72285 0
M  V30 7667 H 699.333 -3.57442 1.49378 0
M  V30 7668 H 699.747 -3.71452 3.70302 0
M  V30 7669 H 701.221 -4.92433 2.49426 0
M  V30 7670 H 701.698 -4.29473 0.919198 0
M  V30 7671 H 702.304 -3.51292 2.39738 0
M  V30 7672 N 700.619 -1.13374 -1.09472 0
M  V30 7673 C 701.549 -0.833268 -2.18126 0
M  V30 7674 C 702.53 0.207169 -1.68834 0
M  V30 7675 O 703.715 0.0662012 -1.94087 0
M  V30 7676 C 700.845 -0.297979 -3.46019 0
M  V30 7677 C 699.799 -1.27261 -4.08642 0
M  V30 7678 C 699.125 -0.597104 -5.31356 0
M  V30 7679 C 700.425 -2.63095 -4.51197 0
M  V30 7680 H 702.119 -1.74182 -2.43518 0
M  V30 7681 H 699.665 -0.838921 -1.17039 0
M  V30 7682 H 701.618 -0.0754444 -4.21332 0
M  V30 7683 H 700.342 0.645959 -3.20148 0
M  V30 7684 H 699.001 -1.48113 -3.35348 0
M  V30 7685 H 698.649 0.352293 -5.01765 0
M  V30 7686 H 698.349 -1.24734 -5.74208 0
M  V30 7687 H 699.873 -0.38384 -6.09392 0
M  V30 7688 H 701.287 -2.46214 -5.17737 0
M  V30 7689 H 699.684 -3.2429 -5.04932 0
M  V30 7690 H 700.754 -3.20793 -3.6362 0
M  V30 7691 N 702.098 1.27442 -0.927168 0
M  V30 7692 C 703.328 1.9821 -0.582775 0
M  V30 7693 C 703.736 1.69361 0.843406 0
M  V30 7694 O 703.079 0.950381 1.57205 0
M  V30 7695 C 703.141 3.52048 -0.728165 0
M  V30 7696 C 702.805 4.04518 -2.12637 0
M  V30 7697 C 703.802 4.17332 -3.10048 0
M  V30 7698 C 701.487 4.38879 -2.44317 0
M  V30 7699 C 703.481 4.6378 -4.37249 0
M  V30 7700 C 701.168 4.85018 -3.71753 0
M  V30 7701 C 702.166 4.97428 -4.68033 0
M  V30 7702 O 701.854 5.42556 -5.93202 0
M  V30 7703 H 701.586 0.639314 -0.219667 0
M  V30 7704 H 704.14 1.63272 -1.24626 0
M  V30 7705 H 702.37 3.86699 -0.00758143 0
M  V30 7706 H 704.059 4.04033 -0.388906 0
M  V30 7707 H 704.825 3.91046 -2.86894 0
M  V30 7708 H 700.704 4.28462 -1.70121 0
M  V30 7709 H 704.248 4.73382 -5.12402 0
M  V30 7710 H 700.145 5.10746 -3.94726 0
M  V30 7711 H 700.913 5.60811 -5.96182 0
M  V30 7712 N 703.576 0.692616 1.41565 0
M  V30 7713 C 704.523 0.0254264 2.30786 0
M  V30 7714 C 705.493 -0.774347 1.46946 0
M  V30 7715 O 706.678 -0.742981 1.7574 0
M  V30 7716 C 703.818 -0.907123 3.32964 0
M  V30 7717 C 702.931 -0.0992784 4.31886 0
M  V30 7718 C 702.066 -1.0292 5.21134 0
M  V30 7719 C 701.105 -0.214088 6.11725 0
M  V30 7720 N 700.242 -1.09766 6.93467 0
M  V30 7721 H 705.082 0.792036 2.87282 0
M  V30 7722 H 702.619 0.4023 1.41492 0
M  V30 7723 H 704.577 -1.46181 3.90752 0
M  V30 7724 H 703.207 -1.64016 2.78026 0
M  V30 7725 H 702.259 0.572287 3.76071 0
M  V30 7726 H 703.571 0.532782 4.95946 0
M  V30 7727 H 702.725 -1.65321 5.83741 0
M  V30 7728 H 701.464 -1.69512 4.57293 0
M  V30 7729 H 700.469 0.42302 5.4817 0
M  V30 7730 H 701.694 0.447995 6.77621 0
M  V30 7731 H 699.64 -1.74965 6.32237 0
M  V30 7732 H 699.557 -0.521099 7.54202 0
M  V30 7733 H 700.825 -1.70858 7.60544 0
M  V30 7734 N 705.054 -1.51416 0.437162 0
M  V30 7735 C 706.017 -2.26312 -0.362729 0
M  V30 7736 C 707.017 -1.29748 -0.949847 0
M  V30 7737 O 708.207 -1.53462 -0.824325 0
M  V30 7738 C 705.339 -3.05475 -1.5132 0
M  V30 7739 H 706.532 -2.98459 0.29365 0
M  V30 7740 H 704.085 -1.55137 0.190327 0
M  V30 7741 H 704.82 -2.37744 -2.20563 0
M  V30 7742 H 704.605 -3.76401 -1.09838 0
M  V30 7743 H 706.095 -3.62209 -2.07833 0
M  V30 7744 N 706.532 -0.168513 -1.56696 0
M  V30 7745 C 707.479 0.762875 -2.17828 0
M  V30 7746 C 708.449 1.22892 -1.11745 0
M  V30 7747 O 709.634 1.29759 -1.39883 0
M  V30 7748 C 706.774 1.9879 -2.82093 0
M  V30 7749 C 705.887 1.56568 -4.02629 0
M  V30 7750 C 705.022 2.74416 -4.54829 0
M  V30 7751 C 704.061 2.28671 -5.67782 0
M  V30 7752 N 703.198 3.39602 -6.14504 0
M  V30 7753 H 708.038 0.23479 -2.97074 0
M  V30 7754 H 705.575 0.104163 -1.46731 0
M  V30 7755 H 707.533 2.70636 -3.17509 0
M  V30 7756 H 706.163 2.48973 -2.05456 0
M  V30 7757 H 705.215 0.744067 -3.73052 0
M  V30 7758 H 706.527 1.18988 -4.844 0
M  V30 7759 H 705.681 3.54423 -4.92412 0
M  V30 7760 H 704.42 3.15254 -3.7211 0
M  V30 7761 H 703.425 1.4711 -5.29753 0
M  V30 7762 H 704.65 1.88894 -6.52301 0
M  V30 7763 H 702.596 3.80021 -5.34715 0
M  V30 7764 H 702.513 3.06105 -6.91257 0
M  V30 7765 H 703.781 4.19902 -6.56737 0
M  V30 7766 N 708.01 1.57248 0.105221 0
M  V30 7767 C 709.256 1.85845 0.811753 0
M  V30 7768 C 709.589 0.756219 1.78871 0
M  V30 7769 O 708.864 -0.236736 1.93054 0
M  V30 7770 C 709.147 3.25059 1.54947 0
M  V30 7771 C 709 4.45898 0.591185 0
M  V30 7772 C 710.319 3.6203 2.50245 0
M  V30 7773 H 707.438 0.675973 0.293649 0
M  V30 7774 H 710.08 1.89849 0.0756269 0
M  V30 7775 H 708.23 3.21776 2.17698 0
M  V30 7776 H 709.902 4.61291 -0.0285352 0
M  V30 7777 H 708.145 4.33693 -0.0962343 0
M  V30 7778 H 708.816 5.40009 1.1443 0
M  V30 7779 H 711.292 3.66192 1.97593 0
M  V30 7780 H 710.168 4.60389 2.98886 0
M  V30 7781 H 710.429 2.90176 3.33542 0
M  V30 7782 N 709.488 -0.375779 1.53054 0
M  V30 7783 C 710.899 -0.95309 1.6054 0
M  V30 7784 C 711.25 -1.90575 0.466446 0
M  V30 7785 O 710.375 -2.12507 -0.408609 0
M  V30 7786 C 710.97 -1.73537 2.90982 0
M  V30 7787 C 709.529 -2.26218 3.00836 0
M  V30 7788 C 708.676 -1.07157 2.55759 0
M  V30 7789 H 711.627 -0.154895 1.57942 0
M  V30 7790 H 711.648 -2.59574 2.78211 0
M  V30 7791 H 711.16 -1.04176 3.73857 0
M  V30 7792 H 709.261 -2.98852 2.22527 0
M  V30 7793 H 709.374 -2.54799 4.05727 0
M  V30 7794 H 707.738 -1.43553 2.10391 0
M  V30 7795 H 708.521 -0.393099 3.41042 0
M  V30 7796 N 710.966 -1.44241 -0.634997 0
M  V30 7797 C 712.214 -1.46531 -1.39187 0
M  V30 7798 C 712.535 -0.0976441 -1.94755 0
M  V30 7799 O 711.805 0.869528 -1.75545 0
M  V30 7800 H 710.385 -0.539544 -0.516625 0
M  V30 7801 H 713.047 -1.79989 -0.747655 0
M  V30 7802 H 712.143 -2.18848 -2.22513 0
M  V30 7803 N 712.444 0.87505 -1.31075 0
M  V30 7804 C 713.86 1.15997 -1.09622 0
M  V30 7805 C 714.06 2.01036 0.136611 0
M  V30 7806 O 713.116 2.38559 0.827397 0
M  V30 7807 C 714.429 1.85702 -2.36506 0
M  V30 7808 C 715.977 1.98425 -2.42067 0
M  V30 7809 C 716.452 2.71544 -3.68819 0
M  V30 7810 N 717.943 2.79084 -3.69684 0
M  V30 7811 C 718.678 3.36259 -4.64454 0
M  V30 7812 N 718.174 3.94406 -5.69575 0
M  V30 7813 N 719.967 3.34169 -4.51982 0
M  V30 7814 H 712.118 0.308258 -2.10151 0
M  V30 7815 H 714.381 0.199145 -0.926847 0
M  V30 7816 H 714.087 1.30663 -3.26527 0
M  V30 7817 H 713.961 2.86017 -2.45915 0
M  V30 7818 H 716.348 2.5263 -1.52518 0
M  V30 7819 H 716.429 0.971682 -2.36626 0
M  V30 7820 H 716.073 2.18008 -4.58732 0
M  V30 7821 H 716.003 3.73198 -3.71525 0
M  V30 7822 H 718.494 2.3781 -2.93691 0
M  V30 7823 H 718.807 4.36129 -6.37974 0
M  V30 7824 H 717.152 3.92797 -5.73355 0
M  V30 7825 H 720.343 2.87977 -3.69035 0
M  V30 7826 H 720.516 3.78431 -5.26017 0
M  V30 7827 N 713.922 1.13953 1.08869 0
M  V30 7828 C 715.168 0.906151 1.8143 0
M  V30 7829 C 715.501 -0.566089 1.85766 0
M  V30 7830 O 714.776 -1.41915 1.33006 0
M  V30 7831 C 715.059 1.50183 3.27287 0
M  V30 7832 C 714.912 3.04359 3.31189 0
M  V30 7833 C 716.231 1.17477 4.24131 0
M  V30 7834 H 713.35 0.330624 0.658678 0
M  V30 7835 H 715.992 1.40873 1.27495 0
M  V30 7836 H 714.142 1.07442 3.73348 0
M  V30 7837 H 715.814 3.55896 2.93488 0
M  V30 7838 H 714.057 3.39053 2.70602 0
M  V30 7839 H 714.728 3.41141 4.33966 0
M  V30 7840 H 717.204 1.5442 3.86385 0
M  V30 7841 H 716.08 1.61795 5.24513 0
M  V30 7842 H 716.341 0.0893312 4.4201 0
M  V30 7843 N 715.4 -1.26948 0.933913 0
M  V30 7844 C 716.347 -2.26635 0.436484 0
M  V30 7845 C 717.317 -1.58397 -0.499953 0
M  V30 7846 O 718.502 -1.86171 -0.417753 0
M  V30 7847 C 715.642 -3.43803 -0.298951 0
M  V30 7848 C 714.755 -4.26736 0.672316 0
M  V30 7849 C 713.89 -5.31134 -0.0835872 0
M  V30 7850 C 712.929 -6.05742 0.879979 0
M  V30 7851 N 712.066 -7.01926 0.156301 0
M  V30 7852 H 716.906 -2.68558 1.29154 0
M  V30 7853 H 714.443 -1.32052 0.648118 0
M  V30 7854 H 716.401 -4.10554 -0.741723 0
M  V30 7855 H 715.031 -3.02814 -1.1182 0
M  V30 7856 H 714.083 -3.59842 1.23361 0
M  V30 7857 H 715.395 -4.78502 1.40846 0
M  V30 7858 H 714.549 -6.03863 -0.585984 0
M  V30 7859 H 713.288 -4.80188 -0.852661 0
M  V30 7860 H 712.293 -5.31846 1.39357 0
M  V30 7861 H 713.518 -6.58777 1.64894 0
M  V30 7862 H 711.464 -6.53301 -0.594413 0
M  V30 7863 H 711.381 -7.51409 0.831906 0
M  V30 7864 H 712.649 -7.78821 -0.325239 0
M  V30 7865 N 716.879 -0.700114 -1.41195 0
M  V30 7866 C 718.128 -0.230082 -2.00383 0
M  V30 7867 C 718.441 1.17857 -1.56106 0
M  V30 7868 O 719.647 1.74631 -2.07885 0
M  V30 7869 C 718.103 -0.360447 -3.5809 0
M  V30 7870 C 717.711 -1.77475 -4.11347 0
M  V30 7871 C 719.455 0.0495799 -4.24471 0
M  V30 7872 C 717.362 -1.85653 -5.61504 0
M  V30 7873 H 716.292 -0.0822633 -0.749499 0
M  V30 7874 H 718.943 -0.868969 -1.6162 0
M  V30 7875 H 717.325 0.346768 -3.94479 0
M  V30 7876 H 718.499 -2.51109 -3.86369 0
M  V30 7877 H 716.814 -2.13486 -3.57509 0
M  V30 7878 H 719.411 0.00898219 -5.34699 0
M  V30 7879 H 719.754 1.08904 -4.01803 0
M  V30 7880 H 720.287 -0.607521 -3.93134 0
M  V30 7881 H 717.026 -2.87667 -5.89006 0
M  V30 7882 H 716.546 -1.1641 -5.88395 0
M  V30 7883 H 718.225 -1.62151 -6.26351 0
M  V30 7884 N 718.357 1.51182 -0.445186 0
M  V30 7885 C 719.634 1.9478 0.178965 0
M  V30 7886 C 720.014 1.38428 1.59376 0
M  V30 7887 O 719.362 0.574552 2.21159 0
M  V30 7888 C 719.572 3.48683 0.148711 0
M  V30 7889 C 720.92 4.23152 0.35042 0
M  V30 7890 O 721.944 3.55479 0.226474 0
M  V30 7891 O 720.803 5.4322 0.597893 0
M  V30 7892 H 717.897 0.817387 0.12573 0
M  V30 7893 H 720.443 1.62051 -0.503729 0
M  V30 7894 H 719.215 3.82176 -0.84009 0
M  V30 7895 H 718.838 3.87875 0.873979 0
M  V30 7896 N 719.835 0.176821 1.56605 0
M  V30 7897 C 721.251 -0.179278 1.5859 0
M  V30 7898 C 721.451 -1.62433 1.19238 0
M  V30 7899 O 720.507 -2.35665 0.906552 0
M  V30 7900 C 721.82 0.106524 3.00511 0
M  V30 7901 C 723.368 0.0451731 3.12967 0
M  V30 7902 C 723.843 0.304038 4.5699 0
M  V30 7903 N 725.334 0.252008 4.62514 0
M  V30 7904 C 726.069 0.426404 5.71812 0
M  V30 7905 N 725.565 0.660155 6.89648 0
M  V30 7906 N 727.358 0.361926 5.60934 0
M  V30 7907 H 719.509 1.12001 1.8047 0
M  V30 7908 H 721.772 0.445679 0.836704 0
M  V30 7909 H 721.478 1.10778 3.33798 0
M  V30 7910 H 721.352 -0.599337 3.72408 0
M  V30 7911 H 723.739 -0.946662 2.79504 0
M  V30 7912 H 723.82 0.78383 2.43495 0
M  V30 7913 H 723.464 1.29311 4.91163 0
M  V30 7914 H 723.394 -0.455294 5.24628 0
M  V30 7915 H 725.885 0.0772102 3.77821 0
M  V30 7916 H 726.198 0.782529 7.68828 0
M  V30 7917 H 724.543 0.696835 6.91498 0
M  V30 7918 H 727.734 0.17986 4.67754 0
M  V30 7919 H 727.907 0.501263 6.46058 0
M  V30 7920 N 721.313 -1.57302 -0.09688 0
M  V30 7921 C 722.538 -1.9058 -0.818169 0
M  V30 7922 C 722.963 -0.770921 -1.71576 0
M  V30 7923 O 722.321 0.277588 -1.79162 0
M  V30 7924 C 722.369 -3.22714 -1.60898 0
M  V30 7925 O 721.473 -3.10178 -2.71779 0
M  V30 7926 H 720.814 -0.624759 -0.224882 0
M  V30 7927 H 723.344 -2.04471 -0.07264 0
M  V30 7928 H 723.354 -3.55978 -1.99358 0
M  V30 7929 H 722.029 -4.04899 -0.950227 0
M  V30 7930 H 720.606 -2.88424 -2.3636 0
M  V30 7931 N 722.791 0.367657 -1.53252 0
M  V30 7932 C 724.207 0.709191 -1.42978 0
M  V30 7933 C 724.407 1.93352 -0.567193 0
M  V30 7934 O 723.463 2.52453 -0.0488349 0
M  V30 7935 C 724.776 0.924338 -2.86141 0
M  V30 7936 C 726.324 1.02448 -2.95759 0
M  V30 7937 C 726.799 1.27211 -4.39979 0
M  V30 7938 N 728.29 1.33986 -4.43398 0
M  V30 7939 C 729.025 1.54852 -5.52095 0
M  V30 7940 N 728.521 1.73049 -6.7084 0
M  V30 7941 N 730.314 1.57205 -5.39669 0
M  V30 7942 H 722.465 -0.437669 -2.07842 0
M  V30 7943 H 724.728 -0.133737 -0.938519 0
M  V30 7944 H 724.434 0.0965455 -3.51567 0
M  V30 7945 H 724.308 1.83302 -3.29667 0
M  V30 7946 H 726.695 1.84282 -2.30487 0
M  V30 7947 H 726.776 0.0932301 -2.5563 0
M  V30 7948 H 726.42 0.458792 -5.05824 0
M  V30 7949 H 726.35 2.21654 -4.77679 0
M  V30 7950 H 728.841 1.21545 -3.5782 0
M  V30 7951 H 729.154 1.88538 -7.49449 0
M  V30 7952 H 727.499 1.70231 -6.7383 0
M  V30 7953 H 730.69 1.42555 -4.45865 0
M  V30 7954 H 730.863 1.73126 -6.24445 0
M  V30 7955 N 724.269 1.44576 0.627338 0
M  V30 7956 C 725.232 1.51372 1.72102 0
M  V30 7957 C 726.232 0.395329 1.55865 0
M  V30 7958 O 727.422 0.658094 1.61291 0
M  V30 7959 C 724.554 1.39129 3.11217 0
M  V30 7960 H 725.747 2.48798 1.6745 0
M  V30 7961 H 723.3 1.31724 0.841336 0
M  V30 7962 H 724.035 0.428114 3.21462 0
M  V30 7963 H 723.82 2.20229 3.24409 0
M  V30 7964 H 725.31 1.46874 3.90919 0
M  V30 7965 N 725.747 -0.868086 1.31537 0
M  V30 7966 C 726.996 -1.61607 1.20689 0
M  V30 7967 C 727.309 -1.94204 -0.233275 0
M  V30 7968 O 728.515 -2.67515 -0.463465 0
M  V30 7969 C 726.971 -2.91348 2.11292 0
M  V30 7970 C 726.579 -2.66227 3.60315 0
M  V30 7971 C 728.323 -3.69344 2.09249 0
M  V30 7972 C 726.23 -3.91887 4.42921 0
M  V30 7973 H 725.16 -0.606373 0.448138 0
M  V30 7974 H 727.811 -0.959666 1.56405 0
M  V30 7975 H 726.193 -3.58374 1.68477 0
M  V30 7976 H 727.367 -2.07597 4.11388 0
M  V30 7977 H 725.682 -2.01582 3.64354 0
M  V30 7978 H 728.279 -4.62567 2.68209 0
M  V30 7979 H 728.622 -4.02044 1.0801 0
M  V30 7980 H 729.155 -3.09205 2.50274 0
M  V30 7981 H 725.894 -3.64336 5.44922 0
M  V30 7982 H 725.414 -4.49961 3.96605 0
M  V30 7983 H 727.093 -4.59754 4.55231 0
M  V30 7984 N 727.225 -1.14528 -1.08264 0
M  V30 7985 C 728.641 -0.885976 -1.3275 0
M  V30 7986 C 728.841 0.472096 -1.95892 0
M  V30 7987 O 727.897 1.21606 -2.21288 0
M  V30 7988 C 729.21 -2.01982 -2.22764 0
M  V30 7989 C 730.758 -2.05329 -2.36239 0
M  V30 7990 C 731.233 -3.1801 -3.29596 0
M  V30 7991 N 732.724 -3.17598 -3.37173 0
M  V30 7992 C 733.459 -4.01426 -4.09444 0
M  V30 7993 N 732.955 -4.95297 -4.8441 0
M  V30 7994 N 734.748 -3.89482 -4.0529 0
M  V30 7995 H 726.899 -2.01996 -0.656607 0
M  V30 7996 H 729.162 -0.880274 -0.351884 0
M  V30 7997 H 728.868 -2.99964 -1.83615 0
M  V30 7998 H 728.742 -1.94421 -3.23234 0
M  V30 7999 H 731.129 -1.07953 -2.74646 0
M  V30 8000 H 731.21 -2.1696 -1.35506 0
M  V30 8001 H 730.854 -4.15633 -2.9191 0
M  V30 8002 H 730.784 -3.03616 -4.30261 0
M  V30 8003 H 733.275 -2.4961 -2.83731 0
M  V30 8004 H 733.588 -5.55723 -5.37021 0
M  V30 8005 H 731.933 -4.99293 -4.83457 0
M  V30 8006 H 735.124 -3.15465 -3.45832 0
M  V30 8007 H 735.297 -4.55039 -4.6135 0
M  V30 8008 N 728.703 1.26451 -0.940633 0
M  V30 8009 C 729.951 1.93395 -0.586748 0
M  V30 8010 C 730.272 1.7417 0.876921 0
M  V30 8011 O 729.542 1.097 1.62304 0
M  V30 8012 H 728.122 0.715687 -0.214012 0
M  V30 8013 H 730.784 1.53902 -1.19584 0
M  V30 8014 H 729.88 3.01565 -0.804059 0
M  V30 8015 N 730.181 0.707592 1.40822 0
M  V30 8016 C 731.091 0.0507246 2.34545 0
M  V30 8017 C 732.107 -0.752727 1.56876 0
M  V30 8018 O 733.283 -0.687524 1.89302 0
M  V30 8019 C 730.348 -0.865731 3.35717 0
M  V30 8020 C 729.409 -0.0531313 4.29267 0
M  V30 8021 C 728.642 -0.925939 5.25606 0
M  V30 8022 O 728.865 -2.16531 5.27703 0
M  V30 8023 O 727.799 -0.369194 6.00767 0
M  V30 8024 H 731.625 0.823587 2.9232 0
M  V30 8025 H 729.21 0.46801 1.4188 0
M  V30 8026 H 731.092 -1.39091 3.97783 0
M  V30 8027 H 729.767 -1.61788 2.80368 0
M  V30 8028 H 728.674 0.516931 3.70511 0
M  V30 8029 H 730.007 0.660617 4.87747 0
M  V30 8030 N 731.66 -1.50943 0.453197 0
M  V30 8031 C 732.607 -2.28128 -0.350197 0
M  V30 8032 C 733.577 -1.32398 -1.00299 0
M  V30 8033 O 734.762 -1.61319 -1.01887 0
M  V30 8034 C 731.902 -3.13782 -1.43649 0
M  V30 8035 C 731.015 -4.24523 -0.800255 0
M  V30 8036 C 730.15 -4.97462 -1.86293 0
M  V30 8037 C 729.189 -6.00102 -1.20598 0
M  V30 8038 N 728.326 -6.66387 -2.21071 0
M  V30 8039 H 733.166 -2.96337 0.31434 0
M  V30 8040 H 730.703 -1.46151 0.166863 0
M  V30 8041 H 732.661 -3.6178 -2.07776 0
M  V30 8042 H 731.291 -2.47655 -2.07044 0
M  V30 8043 H 730.343 -3.80371 -0.0468651 0
M  V30 8044 H 731.655 -4.98009 -0.280777 0
M  V30 8045 H 730.809 -5.49088 -2.58044 0
M  V30 8046 H 729.548 -4.23642 -2.41617 0
M  V30 8047 H 728.553 -5.47753 -0.474 0
M  V30 8048 H 729.778 -6.75887 -0.659859 0
M  V30 8049 H 727.724 -5.9537 -2.75446 0
M  V30 8050 H 727.641 -7.3569 -1.74058 0
M  V30 8051 H 728.909 -7.22638 -2.92257 0
M  V30 8052 N 733.138 -0.185124 -1.56509 0
M  V30 8053 C 734.048 0.751908 -2.22224 0
M  V30 8054 C 735.064 1.24244 -1.21817 0
M  V30 8055 O 736.24 1.29169 -1.54523 0
M  V30 8056 C 733.305 1.95837 -2.86092 0
M  V30 8057 C 732.366 1.51337 -4.01741 0
M  V30 8058 C 731.599 2.66233 -4.62554 0
M  V30 8059 O 731.822 3.8346 -4.22273 0
M  V30 8060 O 730.756 2.39517 -5.52191 0
M  V30 8061 H 734.582 0.222304 -3.02885 0
M  V30 8062 H 732.167 0.0437141 -1.49336 0
M  V30 8063 H 734.049 2.66368 -3.26536 0
M  V30 8064 H 732.724 2.47677 -2.08417 0
M  V30 8065 H 731.631 0.777155 -3.65939 0
M  V30 8066 H 732.964 1.04175 -4.81049 0
M  V30 8067 N 734.616 1.57351 0.0885366 0
M  V30 8068 C 735.546 2.05561 1.10757 0
M  V30 8069 C 736.527 0.945789 1.41382 0
M  V30 8070 O 737.712 1.21747 1.51299 0
M  V30 8071 C 734.842 2.48554 2.42566 0
M  V30 8072 C 733.796 3.63259 2.26334 0
M  V30 8073 C 733.122 3.9225 3.63378 0
M  V30 8074 C 734.422 4.93913 1.69844 0
M  V30 8075 H 736.116 2.90946 0.706468 0
M  V30 8076 H 733.662 1.39968 0.338385 0
M  V30 8077 H 735.615 2.8089 3.14132 0
M  V30 8078 H 734.339 1.60176 2.84625 0
M  V30 8079 H 732.998 3.31179 1.57213 0
M  V30 8080 H 732.646 3.0103 4.02976 0
M  V30 8081 H 732.346 4.69478 3.53362 0
M  V30 8082 H 733.87 4.27067 4.36401 0
M  V30 8083 H 735.284 5.24588 2.31258 0
M  V30 8084 H 733.681 5.75349 1.70569 0
M  V30 8085 H 734.751 4.80409 0.65843 0
M  V30 8086 N 736.094 -0.359525 1.53444 0
M  V30 8087 C 737.319 -1.12644 1.74144 0
M  V30 8088 C 737.744 -1.82082 0.472007 0
M  V30 8089 O 737.102 -1.71962 -0.57436 0
M  V30 8090 C 737.15 -2.12781 2.9113 0
M  V30 8091 O 736.254 -3.19984 2.60162 0
M  V30 8092 H 735.595 -0.326553 0.578152 0
M  V30 8093 H 738.125 -0.414798 2.00351 0
M  V30 8094 H 738.135 -2.56278 3.17467 0
M  V30 8095 H 736.81 -1.61634 3.83207 0
M  V30 8096 H 735.387 -2.81417 2.44661 0
M  V30 8097 N 737.572 -1.44907 -0.619662 0
M  V30 8098 C 738.797 -1.52021 -1.41083 0
M  V30 8099 C 739.222 -0.14976 -1.87503 0
M  V30 8100 O 738.58 0.863303 -1.59426 0
M  V30 8101 C 738.628 -2.49911 -2.59955 0
M  V30 8102 O 737.732 -2.00857 -3.60181 0
M  V30 8103 H 737.073 -0.512912 -0.421684 0
M  V30 8104 H 739.603 -1.90149 -0.755282 0
M  V30 8105 H 739.613 -2.68323 -3.07354 0
M  V30 8106 H 738.288 -3.4945 -2.25516 0
M  V30 8107 H 736.865 -1.92265 -3.19513 0
M  V30 8108 N 739.05 0.861098 -1.31996 0
M  V30 8109 C 739.96 2.00154 -1.22374 0
M  V30 8110 C 740.976 1.73447 -0.138631 0
M  V30 8111 O 742.152 1.98191 -0.358104 0
M  V30 8112 C 739.217 3.33696 -0.940645 0
M  V30 8113 C 738.278 3.73668 -2.11355 0
M  V30 8114 C 737.511 5.00837 -1.84386 0
M  V30 8115 O 737.734 5.64996 -0.783287 0
M  V30 8116 O 736.668 5.37787 -2.70313 0
M  V30 8117 H 740.494 2.11207 -2.18233 0
M  V30 8118 H 738.079 0.990768 -1.11822 0
M  V30 8119 H 739.961 4.13756 -0.798987 0
M  V30 8120 H 738.636 3.23698 -0.0121636 0
M  V30 8121 H 737.543 2.94211 -2.31065 0
M  V30 8122 H 738.876 3.88303 -3.02459 0
M  V30 8123 N 740.528 1.15101 1.07655 0
M  V30 8124 C 741.939 0.933848 1.61667 0
M  V30 8125 C 742.29 -0.525569 1.8903 0
M  V30 8126 O 741.415 -1.39605 1.65346 0
M  V30 8127 C 742.01 1.68876 2.93711 0
M  V30 8128 C 740.569 1.51697 3.44478 0
M  V30 8129 C 739.716 1.70633 2.18586 0
M  V30 8130 H 742.667 1.30171 0.907816 0
M  V30 8131 H 742.688 1.15645 3.625 0
M  V30 8132 H 742.2 2.7509 2.73764 0
M  V30 8133 H 740.301 0.478635 3.69513 0
M  V30 8134 H 740.414 2.29194 4.20722 0
M  V30 8135 H 738.778 1.13259 2.28132 0
M  V30 8136 H 739.561 2.78206 2.01137 0
M  V30 8137 N 742.006 -1.2595 0.947325 0
M  V30 8138 C 742.938 -2.25336 0.41906 0
M  V30 8139 C 743.951 -1.56135 -0.461051 0
M  V30 8140 O 745.14 -1.76438 -0.270505 0
M  V30 8141 C 742.24 -3.36334 -0.416233 0
M  V30 8142 C 741.413 -4.35088 0.449162 0
M  V30 8143 C 740.472 -5.25185 -0.326716 0
M  V30 8144 O 739.498 -5.68548 0.272374 0
M  V30 8145 N 740.7 -5.57388 -1.6217 0
M  V30 8146 H 743.465 -2.71298 1.27348 0
M  V30 8147 H 741.026 -1.39781 0.81688 0
M  V30 8148 H 743.018 -3.93564 -0.942826 0
M  V30 8149 H 741.588 -2.89819 -1.17148 0
M  V30 8150 H 740.808 -3.76841 1.15692 0
M  V30 8151 H 742.096 -4.98056 1.04008 0
M  V30 8152 H 741.494 -5.2405 -2.13046 0
M  V30 8153 H 740.051 -6.17234 -2.0944 0
M  V30 8154 N 743.484 -0.715051 -1.40445 0
M  V30 8155 C 744.712 -0.263959 -2.05209 0
M  V30 8156 C 745.127 1.09403 -1.53871 0
M  V30 8157 O 744.484 1.68746 -0.695064 0
M  V30 8158 C 744.535 -0.234545 -3.60738 0
M  V30 8159 O 744.256 -1.53891 -4.10182 0
M  V30 8160 C 745.757 0.235164 -4.42676 0
M  V30 8161 H 742.977 -0.11876 -0.660407 0
M  V30 8162 H 745.521 -0.973107 -1.79864 0
M  V30 8163 H 743.676 0.425563 -3.85055 0
M  V30 8164 H 744.09 -1.43903 -5.04373 0
M  V30 8165 H 745.564 0.204598 -5.51621 0
M  V30 8166 H 746.041 1.27724 -4.20218 0
M  V30 8167 H 746.647 -0.394649 -4.23465 0
M  V30 8168 N 744.962 1.50701 -0.461195 0
M  V30 8169 C 746.373 1.867 -0.00370227 0
M  V30 8170 C 746.724 1.37673 1.39787 0
M  V30 8171 O 745.849 0.737515 2.03445 0
M  V30 8172 C 746.444 3.388 5.75786e-05 0
M  V30 8173 C 745.003 3.74247 0.402044 0
M  V30 8174 C 744.15 2.74549 -0.389652 0
M  V30 8175 H 747.101 1.43585 -0.675942 0
M  V30 8176 H 747.122 3.719 0.804414 0
M  V30 8177 H 746.634 3.74452 -1.02015 0
M  V30 8178 H 744.735 3.44192 1.42697 0
M  V30 8179 H 744.848 4.78973 0.110265 0
M  V30 8180 H 743.212 2.54226 0.155314 0
M  V30 8181 H 743.995 3.13044 -1.40919 0
M  V30 8182 N 746.441 0.193421 1.56409 0
M  V30 8183 C 747.852 -0.319471 1.83946 0
M  V30 8184 C 748.203 -1.61505 1.11403 0
M  V30 8185 O 747.328 -2.13139 0.374289 0
M  V30 8186 C 747.923 -0.586411 3.33686 0
M  V30 8187 C 746.482 -1.04368 3.61641 0
M  V30 8188 C 745.629 -0.0913834 2.77149 0
M  V30 8189 H 748.58 0.417242 1.53117 0
M  V30 8190 H 748.601 -1.43591 3.52366 0
M  V30 8191 H 748.113 0.356701 3.86457 0
M  V30 8192 H 746.214 -2.00113 3.14302 0
M  V30 8193 H 746.327 -0.937549 4.69837 0
M  V30 8194 H 744.691 -0.592954 2.47702 0
M  V30 8195 H 745.474 0.846142 3.32709 0
M  V30 8196 N 747.919 -1.57396 -0.0801906 0
M  V30 8197 C 748.882 -2.02133 -1.0805 0
M  V30 8198 C 749.882 -0.91707 -1.32085 0
M  V30 8199 O 751.072 -1.18217 -1.27947 0
M  V30 8200 C 748.204 -2.39479 -2.42616 0
M  V30 8201 H 749.397 -2.91733 -0.6951 0
M  V30 8202 H 746.95 -1.52869 -0.325677 0
M  V30 8203 H 747.685 -1.52879 -2.86004 0
M  V30 8204 H 747.47 -3.20052 -2.26515 0
M  V30 8205 H 748.96 -2.74697 -3.14534 0
M  V30 8206 N 749.397 0.351382 -1.53633 0
M  V30 8207 C 750.329 1.45159 -1.77374 0
M  V30 8208 C 751.342 1.4905 -0.654826 0
M  V30 8209 O 752.531 1.52274 -0.931396 0
M  V30 8210 C 749.631 2.83858 -1.85143 0
M  V30 8211 C 748.804 3.03498 -3.14972 0
M  V30 8212 C 747.863 4.22393 -3.138 0
M  V30 8213 O 746.889 4.16885 -3.87551 0
M  V30 8214 N 748.091 5.30533 -2.35617 0
M  V30 8215 H 750.856 1.25167 -2.72311 0
M  V30 8216 H 748.417 0.54121 -1.52586 0
M  V30 8217 H 750.409 3.61557 -1.8182 0
M  V30 8218 H 748.979 2.9703 -0.974275 0
M  V30 8219 H 748.199 2.13336 -3.31484 0
M  V30 8220 H 749.487 3.13498 -4.00745 0
M  V30 8221 H 748.885 5.37875 -1.75235 0
M  V30 8222 H 747.442 6.06756 -2.38098 0
M  V30 8223 N 750.875 1.45233 0.611969 0
M  V30 8224 C 751.822 1.5357 1.72293 0
M  V30 8225 C 752.792 0.381912 1.6165 0
M  V30 8226 O 753.977 0.594765 1.81293 0
M  V30 8227 C 751.117 1.50419 3.10593 0
M  V30 8228 C 750.23 2.76316 3.32074 0
M  V30 8229 C 749.365 2.64866 4.60456 0
M  V30 8230 C 748.404 3.85838 4.7518 0
M  V30 8231 N 747.541 3.72949 5.94856 0
M  V30 8232 H 752.381 2.4848 1.64504 0
M  V30 8233 H 749.918 1.23302 0.802191 0
M  V30 8234 H 751.876 1.4658 3.90602 0
M  V30 8235 H 750.506 0.590621 3.17351 0
M  V30 8236 H 749.558 2.90261 2.45872 0
M  V30 8237 H 750.87 3.66055 3.38829 0
M  V30 8238 H 750.024 2.58969 5.48653 0
M  V30 8239 H 748.763 1.72719 4.56092 0
M  V30 8240 H 747.768 3.92099 3.85407 0
M  V30 8241 H 748.993 4.79045 4.81344 0
M  V30 8242 H 746.939 2.83567 5.91545 0
M  V30 8243 H 746.856 4.56319 6.02751 0
M  V30 8244 H 748.124 3.70976 6.85563 0
M  V30 8245 N 752.353 -0.854086 1.3245 0
M  V30 8246 C 753.601 -1.60513 1.228 0
M  V30 8247 C 753.922 -1.93865 -0.210073 0
M  V30 8248 O 753.192 -1.59673 -1.13496 0
M  V30 8249 H 751.772 -0.595099 0.451516 0
M  V30 8250 H 754.434 -1.0216 1.6598 0
M  V30 8251 H 753.53 -2.54182 1.81102 0
M  V30 8252 N 753.831 -1.1567 -1.07043 0
M  V30 8253 C 755.059 -0.957471 -1.83412 0
M  V30 8254 C 755.474 0.494271 -1.82215 0
M  V30 8255 O 754.831 1.34288 -1.23584 0
M  V30 8256 C 754.882 -1.46784 -3.30359 0
M  V30 8257 O 754.603 -2.86271 -3.31633 0
M  V30 8258 C 756.104 -1.31054 -4.23485 0
M  V30 8259 H 753.324 -0.33986 -0.578564 0
M  V30 8260 H 755.868 -1.53518 -1.35102 0
M  V30 8261 H 754.023 -0.932586 -3.76007 0
M  V30 8262 H 754.437 -3.0948 -4.23465 0
M  V30 8263 H 755.911 -1.71605 -5.24648 0
M  V30 8264 H 756.388 -0.255107 -4.38458 0
M  V30 8265 H 756.994 -1.83503 -3.83676 0
M  V30 8266 N 755.309 1.25446 -0.953992 0
M  V30 8267 C 756.555 1.9343 -0.60933 0
M  V30 8268 C 756.888 1.74542 0.851388 0
M  V30 8269 O 756.163 1.09014 1.61078 0
M  V30 8270 C 756.446 3.46844 -0.968041 0
M  V30 8271 C 756.299 3.74961 -2.48444 0
M  V30 8272 C 757.618 4.37334 -0.492641 0
M  V30 8273 H 754.737 0.702502 -0.222844 0
M  V30 8274 H 757.379 1.48076 -1.19053 0
M  V30 8275 H 755.529 3.85604 -0.473465 0
M  V30 8276 H 757.201 3.45841 -3.05273 0
M  V30 8277 H 755.444 3.20589 -2.92241 0
M  V30 8278 H 756.115 4.82246 -2.68594 0
M  V30 8279 H 758.591 4.05873 -0.916878 0
M  V30 8280 H 757.467 5.43439 -0.772331 0
M  V30 8281 H 757.728 4.37908 0.607403 0
M  V30 8282 N 756.787 0.722489 1.40064 0
M  V30 8283 C 758.198 0.336507 1.83642 0
M  V30 8284 C 758.549 -1.13002 1.6039 0
M  V30 8285 O 757.674 -1.87036 1.08842 0
M  V30 8286 C 758.269 0.603985 3.33373 0
M  V30 8287 C 756.828 0.271637 3.75419 0
M  V30 8288 C 755.975 0.872898 2.63203 0
M  V30 8289 H 758.926 0.921108 1.29233 0
M  V30 8290 H 758.947 -0.128471 3.80283 0
M  V30 8291 H 758.459 1.67141 3.50265 0
M  V30 8292 H 756.56 -0.790455 3.64119 0
M  V30 8293 H 756.673 0.745457 4.73265 0
M  V30 8294 H 755.037 0.300431 2.52922 0
M  V30 8295 H 755.82 1.94473 2.82905 0
M  V30 8296 N 758.265 -1.50454 0.469181 0
M  V30 8297 C 759.195 -2.31353 -0.31592 0
M  V30 8298 C 760.176 -1.38172 -0.992094 0
M  V30 8299 O 761.361 -1.67093 -0.989633 0
M  V30 8300 C 758.491 -3.1786 -1.39937 0
M  V30 8301 C 757.445 -4.19578 -0.844909 0
M  V30 8302 C 756.771 -4.9481 -2.0265 0
M  V30 8303 C 758.071 -5.22106 0.142499 0
M  V30 8304 H 759.765 -2.97237 0.359269 0
M  V30 8305 H 757.311 -1.42942 0.174224 0
M  V30 8306 H 759.264 -3.7325 -1.95607 0
M  V30 8307 H 757.988 -2.49858 -2.1033 0
M  V30 8308 H 756.647 -3.65285 -0.310189 0
M  V30 8309 H 756.295 -4.23282 -2.71737 0
M  V30 8310 H 755.995 -5.63613 -1.66174 0
M  V30 8311 H 757.519 -5.53035 -2.58815 0
M  V30 8312 H 758.933 -5.72378 -0.324966 0
M  V30 8313 H 757.33 -5.98618 0.421441 0
M  V30 8314 H 758.4 -4.7297 1.06901 0
M  V30 8315 N 759.743 -0.201713 -1.56304 0
M  V30 8316 C 761.154 0.309711 -1.84113 0
M  V30 8317 C 761.505 1.60912 -1.12258 0
M  V30 8318 O 760.63 2.12937 -0.385587 0
M  V30 8319 C 761.225 0.568706 -3.33993 0
M  V30 8320 C 759.784 1.02448 -3.6219 0
M  V30 8321 C 758.931 0.0766842 -2.77194 0
M  V30 8322 H 761.882 -0.425356 -1.52893 0
M  V30 8323 H 761.903 1.41721 -3.53122 0
M  V30 8324 H 761.415 -0.37719 -3.86263 0
M  V30 8325 H 759.516 1.98443 -3.15359 0
M  V30 8326 H 759.629 0.912619 -4.70328 0
M  V30 8327 H 757.993 0.579809 -2.48013 0
M  V30 8328 H 758.776 -0.863774 -3.32256 0
M  V30 8329 N 761.222 1.57436 0.0718424 0
M  V30 8330 C 762.45 1.91474 0.783932 0
M  V30 8331 C 762.865 0.797669 1.71122 0
M  V30 8332 O 762.222 -0.228989 1.81058 0
M  V30 8333 C 762.273 3.25259 1.57761 0
M  V30 8334 O 761.994 4.3267 0.687596 0
M  V30 8335 C 763.495 3.7331 2.3907 0
M  V30 8336 H 760.715 0.632901 0.222885 0
M  V30 8337 H 763.259 2.04457 0.0421262 0
M  V30 8338 H 761.414 3.13804 2.27169 0
M  V30 8339 H 761.828 5.09641 1.23962 0
M  V30 8340 H 763.302 4.69551 2.90216 0
M  V30 8341 H 763.779 3.02318 3.18591 0
M  V30 8342 H 764.385 3.8771 1.74818 0
M  V30 8343 N 762.7 -0.34323 1.53817 0
M  V30 8344 C 763.949 -1.08086 1.70295 0
M  V30 8345 C 764.262 -1.89794 0.47302 0
M  V30 8346 O 765.468 -2.66498 0.518754 0
M  V30 8347 C 763.924 -1.97097 3.01133 0
M  V30 8348 C 763.532 -1.20594 4.31464 0
M  V30 8349 C 765.276 -2.70715 3.26976 0
M  V30 8350 C 763.183 -2.08636 5.53376 0
M  V30 8351 H 762.113 -0.407228 0.634572 0
M  V30 8352 H 764.764 -0.340328 1.80316 0
M  V30 8353 H 763.146 -2.74971 2.84969 0
M  V30 8354 H 764.32 -0.476282 4.58332 0
M  V30 8355 H 762.635 -0.587426 4.12236 0
M  V30 8356 H 765.232 -3.36857 4.15248 0
M  V30 8357 H 765.575 -3.37299 2.43998 0
M  V30 8358 H 766.108 -1.99914 3.43917 0
M  V30 8359 H 762.847 -1.46594 6.38898 0
M  V30 8360 H 762.367 -2.7939 5.30755 0
M  V30 8361 H 764.046 -2.67682 5.89029 0
M  V30 8362 N 764.178 -1.45556 -0.604258 0
M  V30 8363 C 765.403 -1.53509 -1.39462 0
M  V30 8364 C 765.828 -0.169638 -1.87333 0
M  V30 8365 O 765.186 0.846346 -1.60333 0
M  V30 8366 C 765.234 -2.52654 -2.5729 0
M  V30 8367 O 764.338 -2.04666 -3.5803 0
M  V30 8368 H 763.679 -0.517355 -0.416221 0
M  V30 8369 H 766.209 -1.90939 -0.735072 0
M  V30 8370 H 766.219 -2.71568 -3.04491 0
M  V30 8371 H 764.894 -3.51823 -2.21797 0
M  V30 8372 H 763.471 -1.95643 -3.17456 0
M  V30 8373 N 765.656 0.84705 -1.32902 0
M  V30 8374 C 766.904 1.5986 -1.2365 0
M  V30 8375 C 767.225 1.93974 0.199789 0
M  V30 8376 O 766.495 1.60273 1.12648 0
M  V30 8377 H 765.075 0.592696 -0.454665 0
M  V30 8378 H 767.737 1.01278 -1.66519 0
M  V30 8379 H 766.833 2.53218 -1.82448 0
M  V30 8380 N 767.134 1.16236 1.06428 0
M  V30 8381 C 768.084 0.835994 2.12121 0
M  V30 8382 C 769.068 -0.183955 1.59845 0
M  V30 8383 O 770.26 0.0166741 1.76992 0
M  V30 8384 C 767.389 0.337333 3.41639 0
M  V30 8385 C 766.475 1.38798 4.00744 0
M  V30 8386 N 766.866 2.59799 4.3398 0
M  V30 8387 C 765.164 1.24292 4.28331 0
M  V30 8388 C 765.865 3.27213 4.80943 0
M  V30 8389 N 764.841 2.54594 4.80294 0
M  V30 8390 H 768.643 1.75615 2.35662 0
M  V30 8391 H 766.157 1.04921 1.23957 0
M  V30 8392 H 768.154 0.0851274 4.16813 0
M  V30 8393 H 766.814 -0.57677 3.19536 0
M  V30 8394 H 767.825 2.96867 4.24371 0
M  V30 8395 H 764.502 0.389464 4.15679 0
M  V30 8396 H 765.892 4.30492 5.15874 0
M  V30 8397 N 768.612 -1.24939 0.960631 0
M  V30 8398 C 770.028 -1.45039 0.666018 0
M  V30 8399 C 770.228 -1.86021 -0.774501 0
M  V30 8400 O 769.284 -1.99392 -1.54916 0
M  V30 8401 C 770.597 -2.51775 1.64408 0
M  V30 8402 C 772.145 -2.6561 1.65592 0
M  V30 8403 C 772.62 -3.75536 2.62177 0
M  V30 8404 N 774.111 -3.82954 2.60577 0
M  V30 8405 C 774.846 -4.67517 3.31987 0
M  V30 8406 N 774.342 -5.56321 4.1289 0
M  V30 8407 N 776.135 -4.61535 3.20845 0
M  V30 8408 H 768.286 -0.96632 1.89145 0
M  V30 8409 H 770.549 -0.486034 0.813926 0
M  V30 8410 H 770.255 -2.28534 2.67329 0
M  V30 8411 H 770.129 -3.49804 1.41128 0
M  V30 8412 H 772.516 -2.88212 0.633846 0
M  V30 8413 H 772.597 -1.67962 1.92931 0
M  V30 8414 H 772.241 -3.53684 3.64514 0
M  V30 8415 H 772.171 -4.72682 2.32119 0
M  V30 8416 H 774.662 -3.19478 2.01847 0
M  V30 8417 H 774.975 -6.17787 4.64283 0
M  V30 8418 H 773.32 -5.5601 4.16987 0
M  V30 8419 H 776.511 -3.91169 2.57108 0
M  V30 8420 H 776.684 -5.27214 3.76762 0
M  V30 8421 N 770.09 -0.729906 -1.39679 0
M  V30 8422 C 771 -0.0880322 -2.34435 0
M  V30 8423 C 772.016 0.727674 -1.58053 0
M  V30 8424 O 773.192 0.657321 -1.90371 0
M  V30 8425 C 770.257 0.812211 -3.37052 0
M  V30 8426 C 769.318 -0.0151681 -4.29297 0
M  V30 8427 C 768.551 0.842202 -5.27013 0
M  V30 8428 O 768.774 2.08108 -5.31081 0
M  V30 8429 O 767.708 0.27357 -6.01278 0
M  V30 8430 H 771.534 -0.869989 -2.90972 0
M  V30 8431 H 769.119 -0.490522 -1.41118 0
M  V30 8432 H 771.001 1.32745 -3.99946 0
M  V30 8433 H 769.676 1.57307 -2.82907 0
M  V30 8434 H 768.583 -0.575811 -3.69642 0
M  V30 8435 H 769.916 -0.738129 -4.86634 0
M  V30 8436 N 771.568 1.50203 -0.477153 0
M  V30 8437 C 772.498 2.31517 0.303646 0
M  V30 8438 C 773.479 1.38696 0.984753 0
M  V30 8439 O 774.664 1.67615 0.980758 0
M  V30 8440 C 771.794 3.18598 1.38249 0
M  V30 8441 C 770.748 4.2002 0.822645 0
M  V30 8442 C 770.074 4.95878 2.00024 0
M  V30 8443 C 771.374 5.22023 -0.170185 0
M  V30 8444 H 773.068 2.97042 -0.375027 0
M  V30 8445 H 770.614 1.42848 -0.181802 0
M  V30 8446 H 772.567 3.74282 1.93625 0
M  V30 8447 H 771.291 2.5097 2.09002 0
M  V30 8448 H 769.95 3.65445 0.290813 0
M  V30 8449 H 769.598 4.24717 2.69489 0
M  V30 8450 H 769.298 5.64487 1.63183 0
M  V30 8451 H 770.822 5.54399 2.55878 0
M  V30 8452 H 772.236 5.72543 0.294606 0
M  V30 8453 H 770.633 5.98386 -0.453181 0
M  V30 8454 H 771.703 4.72396 -1.09408 0
M  V30 8455 N 773.046 0.209999 1.56195 0
M  V30 8456 C 774.292 -0.425442 1.98287 0
M  V30 8457 C 774.625 -1.60232 1.09724 0
M  V30 8458 O 773.9 -1.93902 0.152414 0
M  V30 8459 C 774.183 -0.871189 3.49403 0
M  V30 8460 C 774.036 0.308527 4.48741 0
M  V30 8461 C 775.355 -1.73146 4.04609 0
M  V30 8462 H 772.474 -0.153169 0.720908 0
M  V30 8463 H 775.116 0.303916 1.87554 0
M  V30 8464 H 773.266 -1.49266 3.58681 0
M  V30 8465 H 774.938 0.946487 4.51486 0
M  V30 8466 H 773.181 0.957878 4.23092 0
M  V30 8467 H 773.852 -0.0461143 5.51981 0
M  V30 8468 H 776.328 -1.2072 3.98203 0
M  V30 8469 H 775.204 -2.01228 5.10684 0
M  V30 8470 H 775.465 -2.69083 3.5078 0
M  V30 8471 N 774.524 -1.57472 -0.0634922 0
M  V30 8472 C 775.454 -2.07297 -1.07473 0
M  V30 8473 C 776.435 -0.968162 -1.39859 0
M  V30 8474 O 777.62 -1.24139 -1.49343 0
M  V30 8475 C 774.75 -2.52381 -2.38581 0
M  V30 8476 C 773.704 -3.66813 -2.20526 0
M  V30 8477 C 773.03 -3.97982 -3.57092 0
M  V30 8478 C 774.33 -4.96553 -1.61965 0
M  V30 8479 H 776.024 -2.92033 -0.660092 0
M  V30 8480 H 773.57 -1.40488 -0.316074 0
M  V30 8481 H 775.523 -2.85852 -3.09624 0
M  V30 8482 H 774.247 -1.64684 -2.8204 0
M  V30 8483 H 772.906 -3.33639 -1.51924 0
M  V30 8484 H 772.554 -3.07403 -3.98136 0
M  V30 8485 H 772.254 -4.7504 -3.45848 0
M  V30 8486 H 773.778 -4.33956 -4.29552 0
M  V30 8487 H 775.192 -5.28201 -2.22883 0
M  V30 8488 H 773.589 -5.7799 -1.61394 0
M  V30 8489 H 774.659 -4.81396 -0.581918 0
M  V30 8490 N 776.003 0.335068 -1.53997 0
M  V30 8491 C 777.228 1.09859 -1.75914 0
M  V30 8492 C 777.653 1.81308 -0.500915 0
M  V30 8493 O 777.011 1.72854 0.54693 0
M  V30 8494 C 777.059 2.08122 -2.94478 0
M  V30 8495 O 776.163 3.15805 -2.65219 0
M  V30 8496 H 775.504 0.317313 -0.583274 0
M  V30 8497 H 778.034 0.382872 -2.00986 0
M  V30 8498 H 778.044 2.51195 -3.21504 0
M  V30 8499 H 776.719 1.55517 -3.8573 0
M  V30 8500 H 775.296 2.77489 -2.49107 0
M  V30 8501 N 777.481 1.45874 0.596531 0
M  V30 8502 C 778.706 1.54247 1.38646 0
M  V30 8503 C 779.131 0.179571 1.87241 0
M  V30 8504 O 778.489 -0.837831 1.6078 0
M  V30 8505 C 778.537 2.54015 2.55946 0
M  V30 8506 O 777.641 2.06561 3.5694 0
M  V30 8507 H 776.982 0.519555 0.413471 0
M  V30 8508 H 779.512 1.91327 0.724936 0
M  V30 8509 H 779.522 2.73179 3.03047 0
M  V30 8510 H 778.197 3.52994 2.19928 0
M  V30 8511 H 776.774 1.97324 3.16414 0
M  V30 8512 N 778.959 -0.83999 1.33349 0
M  V30 8513 C 780.37 -1.41139 1.22216 0
M  V30 8514 C 780.721 -1.95551 -0.159398 0
M  V30 8515 O 779.846 -1.88721 -1.05893 0
M  V30 8516 C 780.441 -2.56564 2.21269 0
M  V30 8517 C 779 -3.09661 2.13979 0
M  V30 8518 C 778.147 -1.82457 2.08818 0
M  V30 8519 H 781.098 -0.645853 1.44964 0
M  V30 8520 H 781.119 -3.34163 1.81976 0
M  V30 8521 H 780.631 -2.16932 3.21811 0
M  V30 8522 H 778.732 -3.53841 1.16736 0
M  V30 8523 H 778.845 -3.6991 3.04472 0
M  V30 8524 H 777.209 -2.0266 1.54276 0
M  V30 8525 H 777.992 -1.45022 3.11165 0
M  V30 8526 N 780.437 -1.16799 -1.0581 0
M  V30 8527 C 781.347 -0.893492 -2.16919 0
M  V30 8528 C 782.363 0.136061 -1.73467 0
M  V30 8529 O 783.539 -0.0417348 -2.01357 0
M  V30 8530 C 780.604 -0.403763 -3.44341 0
M  V30 8531 C 779.665 -1.49914 -4.02274 0
M  V30 8532 C 778.898 -1.03269 -5.23614 0
M  V30 8533 O 779.121 0.115647 -5.70283 0
M  V30 8534 O 778.055 -1.8231 -5.73626 0
M  V30 8535 H 781.881 -1.82274 -2.42919 0
M  V30 8536 H 779.466 -0.948361 -1.1544 0
M  V30 8537 H 781.348 -0.137874 -4.21174 0
M  V30 8538 H 780.023 0.497413 -3.19855 0
M  V30 8539 H 778.93 -1.81883 -3.26909 0
M  V30 8540 H 780.263 -2.3758 -4.31064 0
M  V30 8541 N 781.915 1.24427 -0.967243 0
M  V30 8542 C 783.192 1.87831 -0.545776 0
M  V30 8543 C 783.572 1.87126 0.977099 0
M  V30 8544 O 782.92 1.34357 1.84826 0
M  V30 8545 C 783.13 3.29967 -1.13679 0
M  V30 8546 C 784.478 4.06654 -1.22139 0
M  V30 8547 O 785.502 3.39136 -1.08926 0
M  V30 8548 O 784.361 5.27455 -1.43017 0
M  V30 8549 H 781.455 0.806745 -0.181912 0
M  V30 8550 H 784.001 1.32403 -1.06148 0
M  V30 8551 H 782.773 3.24977 -2.17958 0
M  V30 8552 H 782.396 3.92969 -0.605093 0
M  V30 8553 N 783.393 0.737304 1.3929 0
M  V30 8554 C 784.323 0.113988 2.33222 0
M  V30 8555 C 785.304 -0.721695 1.54031 0
M  V30 8556 O 786.489 -0.666206 1.82415 0
M  V30 8557 C 783.619 -0.792319 3.38141 0
M  V30 8558 C 782.573 -0.0606178 4.27957 0
M  V30 8559 C 781.899 -1.08409 5.23595 0
M  V30 8560 C 783.199 1.09817 5.10625 0
M  V30 8561 H 784.893 0.898611 2.85596 0
M  V30 8562 H 782.439 0.433571 1.37318 0
M  V30 8563 H 784.392 -1.23793 4.02807 0
M  V30 8564 H 783.116 -1.60908 2.84211 0
M  V30 8565 H 781.775 0.365393 3.64775 0
M  V30 8566 H 781.423 -1.89449 4.6596 0
M  V30 8567 H 781.123 -0.599269 5.84536 0
M  V30 8568 H 782.647 -1.52936 5.91137 0
M  V30 8569 H 784.061 0.730892 5.68622 0
M  V30 8570 H 782.458 1.51278 5.80719 0
M  V30 8571 H 783.528 1.91878 4.45321 0
M  V30 8572 N 784.871 -1.49948 0.485112 0
M  V30 8573 C 786.099 -2.06806 -0.0622824 0
M  V30 8574 C 786.514 -1.34736 -1.32256 0
M  V30 8575 O 785.871 -0.420836 -1.77582 0
M  V30 8576 C 785.922 -3.59934 -0.336096 0
M  V30 8577 O 785.643 -4.29289 0.874203 0
M  V30 8578 C 787.144 -4.33459 -0.928903 0
M  V30 8579 H 784.364 -0.670867 0.0133472 0
M  V30 8580 H 786.908 -1.92937 0.677917 0
M  V30 8581 H 785.063 -3.7356 -1.02625 0
M  V30 8582 H 785.477 -5.20735 0.627332 0
M  V30 8583 H 786.951 -5.41527 -1.07017 0
M  V30 8584 H 787.428 -3.94881 -1.92265 0
M  V30 8585 H 788.034 -4.24399 -0.276705 0
M  V30 8586 N 786.349 -0.21828 -1.56081 0
M  V30 8587 C 787.281 0.725447 -2.17416 0
M  V30 8588 C 788.294 1.15995 -1.14233 0
M  V30 8589 O 789.483 1.09166 -1.41227 0
M  V30 8590 C 786.583 1.99401 -2.7403 0
M  V30 8591 C 785.756 1.7156 -4.02351 0
M  V30 8592 C 784.815 2.8309 -4.43561 0
M  V30 8593 O 783.841 2.51701 -5.10525 0
M  V30 8594 N 785.043 4.11972 -4.08973 0
M  V30 8595 H 787.808 0.200801 -2.99027 0
M  V30 8596 H 785.369 -0.0371514 -1.61857 0
M  V30 8597 H 787.361 2.73198 -2.98571 0
M  V30 8598 H 785.931 2.42923 -1.96742 0
M  V30 8599 H 785.151 0.814233 -3.85699 0
M  V30 8600 H 786.439 1.50385 -4.86068 0
M  V30 8601 H 785.837 4.40319 -3.55156 0
M  V30 8602 H 784.394 4.82323 -4.38415 0
M  V30 8603 N 787.827 1.57504 0.0551401 0
M  V30 8604 C 789.104 1.79155 0.785048 0
M  V30 8605 C 789.484 0.809995 1.94942 0
M  V30 8606 O 788.832 -0.153432 2.27984 0
M  V30 8607 C 789.042 3.26134 1.24247 0
M  V30 8608 C 790.39 3.90419 1.66908 0
M  V30 8609 O 791.414 3.30126 1.33772 0
M  V30 8610 O 790.273 4.96523 2.28314 0
M  V30 8611 H 787.367 0.735825 0.377479 0
M  V30 8612 H 789.913 1.69666 0.0339285 0
M  V30 8613 H 788.685 3.89145 0.410089 0
M  V30 8614 H 788.308 3.40411 2.05441 0
M  V30 8615 N 789.305 -0.326896 1.54172 0
M  V30 8616 C 790.552 -1.06523 1.72218 0
M  V30 8617 C 790.88 -1.88119 0.494114 0
M  V30 8618 O 790.135 -1.8855 -0.524147 0
M  V30 8619 C 790.434 -2.0208 2.94785 0
M  V30 8620 C 790.1 -1.36665 4.2969 0
M  V30 8621 C 788.762 -1.18556 4.66367 0
M  V30 8622 C 791.114 -0.896868 5.13425 0
M  V30 8623 C 788.442 -0.521113 5.84381 0
M  V30 8624 C 790.794 -0.246261 6.3212 0
M  V30 8625 C 789.458 -0.052987 6.67479 0
M  V30 8626 H 788.728 -0.389796 0.63019 0
M  V30 8627 H 791.375 -0.342725 1.88408 0
M  V30 8628 H 789.68 -2.8077 2.73268 0
M  V30 8629 H 791.377 -2.59231 3.05941 0
M  V30 8630 H 787.967 -1.51762 4.00832 0
M  V30 8631 H 792.151 -1.02458 4.85609 0
M  V30 8632 H 787.407 -0.36014 6.10338 0
M  V30 8633 H 791.581 0.125775 6.96286 0
M  V30 8634 H 789.208 0.463903 7.58783 0
M  V30 8635 N 790.784 -1.46188 -0.588786 0
M  V30 8636 C 791.694 -1.58865 -1.72624 0
M  V30 8637 C 792.71 -0.472348 -1.67466 0
M  V30 8638 O 793.886 -0.735638 -1.87484 0
M  V30 8639 C 790.951 -1.56989 -3.0912 0
M  V30 8640 C 790.012 -2.79804 -3.25589 0
M  V30 8641 C 789.245 -2.78009 -4.55573 0
M  V30 8642 O 789.468 -1.86406 -5.39082 0
M  V30 8643 O 788.402 -3.6947 -4.75159 0
M  V30 8644 H 792.228 -2.55047 -1.64878 0
M  V30 8645 H 789.813 -1.28912 -0.755115 0
M  V30 8646 H 791.695 -1.58618 -3.90408 0
M  V30 8647 H 790.37 -0.639648 -3.17317 0
M  V30 8648 H 789.277 -2.83732 -2.43818 0
M  V30 8649 H 790.61 -3.72017 -3.22279 0
M  V30 8650 N 792.262 0.832906 -1.33792 0
M  V30 8651 C 793.172 1.97514 -1.26592 0
M  V30 8652 C 794.188 1.73114 -0.175391 0
M  V30 8653 O 795.364 1.97387 -0.400062 0
M  V30 8654 C 792.429 3.31625 -1.01121 0
M  V30 8655 C 791.49 3.69101 -2.19233 0
M  V30 8656 C 790.723 4.96813 -1.94968 0
M  V30 8657 O 790.946 5.63208 -0.902955 0
M  V30 8658 O 789.88 5.31932 -2.8166 0
M  V30 8659 H 793.706 2.0653 -2.22664 0
M  V30 8660 H 791.291 0.966826 -1.13898 0
M  V30 8661 H 793.173 4.11968 -0.886571 0
M  V30 8662 H 791.848 3.23599 -0.080822 0
M  V30 8663 H 790.755 2.89243 -2.37253 0
M  V30 8664 H 792.088 3.818 -3.10628 0
M  V30 8665 N 793.74 1.17359 1.05189 0
M  V30 8666 C 794.673 0.833768 2.12423 0
M  V30 8667 C 795.651 -0.19945 1.61372 0
M  V30 8668 O 796.835 -0.080979 1.88326 0
M  V30 8669 C 793.962 0.243745 3.37822 0
M  V30 8670 C 793.008 1.25235 4.07699 0
M  V30 8671 S 793.841 2.80368 4.56239 0
M  V30 8672 C 794.997 2.22846 5.84885 0
M  V30 8673 H 795.23 1.74197 2.40921 0
M  V30 8674 H 792.763 0.998242 1.1779 0
M  V30 8675 H 794.721 -0.0901915 4.10401 0
M  V30 8676 H 793.382 -0.642396 3.07461 0
M  V30 8677 H 792.575 0.788168 4.97799 0
M  V30 8678 H 792.177 1.53194 3.41185 0
M  V30 8679 H 794.469 1.60403 6.58238 0
M  V30 8680 H 795.412 3.112 6.3605 0
M  V30 8681 H 795.82 1.66296 5.39449 0
M  V30 8682 N 795.218 -1.23913 0.973828 0
M  V30 8683 C 796.165 -2.25132 0.508366 0
M  V30 8684 C 797.135 -1.59908 -0.449307 0
M  V30 8685 O 798.32 -1.87405 -0.358313 0
M  V30 8686 C 795.46 -3.4458 -0.189422 0
M  V30 8687 C 794.573 -4.24381 0.807738 0
M  V30 8688 C 793.708 -5.31131 0.0854315 0
M  V30 8689 C 792.747 -6.02635 1.07225 0
M  V30 8690 N 791.884 -7.01073 0.379535 0
M  V30 8691 H 796.724 -2.64313 1.37632 0
M  V30 8692 H 794.261 -1.29924 0.689802 0
M  V30 8693 H 796.219 -4.12706 -0.610733 0
M  V30 8694 H 794.849 -3.06218 -1.02129 0
M  V30 8695 H 793.901 -3.55735 1.34747 0
M  V30 8696 H 795.213 -4.73778 1.55998 0
M  V30 8697 H 794.367 -6.05422 -0.393572 0
M  V30 8698 H 793.106 -4.82658 -0.699461 0
M  V30 8699 H 792.111 -5.27143 1.56207 0
M  V30 8700 H 793.336 -6.53197 1.85769 0
M  V30 8701 H 791.282 -6.54862 -0.386269 0
M  V30 8702 H 791.199 -7.48382 1.07054 0
M  V30 8703 H 792.467 -7.79462 -0.0772984 0
M  V30 8704 N 796.696 -0.74468 -1.38897 0
M  V30 8705 C 798.112 -0.421302 -1.53939 0
M  V30 8706 C 798.312 1.06668 -1.70951 0
M  V30 8707 O 797.368 1.85278 -1.71547 0
M  V30 8708 C 798.681 -1.21278 -2.75159 0
M  V30 8709 C 800.229 -1.20196 -2.89001 0
M  V30 8710 C 800.704 -1.97621 -4.13171 0
M  V30 8711 N 802.195 -1.94836 -4.2023 0
M  V30 8712 C 802.93 -2.51545 -5.15279 0
M  V30 8713 N 802.426 -3.1693 -6.16058 0
M  V30 8714 N 804.219 -2.41524 -5.07565 0
M  V30 8715 H 796.37 -1.70914 -1.26103 0
M  V30 8716 H 798.633 -0.724058 -0.611919 0
M  V30 8717 H 798.339 -2.26609 -2.68963 0
M  V30 8718 H 798.213 -0.823677 -3.68097 0
M  V30 8719 H 800.6 -0.156742 -2.94683 0
M  V30 8720 H 800.681 -1.63051 -1.97099 0
M  V30 8721 H 800.325 -3.02149 -4.0825 0
M  V30 8722 H 800.255 -1.52166 -5.04136 0
M  V30 8723 H 802.746 -1.4721 -3.48048 0
M  V30 8724 H 803.059 -3.57644 -6.85062 0
M  V30 8725 H 801.404 -3.21023 -6.16417 0
M  V30 8726 H 804.595 -1.90077 -4.27771 0
M  V30 8727 H 804.768 -2.86016 -5.81462 0
M  V30 8728 N 798.174 1.49689 -0.493057 0
M  V30 8729 C 799.084 2.32746 0.294358 0
M  V30 8730 C 800.1 1.44117 0.975003 0
M  V30 8731 O 801.276 1.77149 0.958138 0
M  V30 8732 C 798.341 3.19358 1.34949 0
M  V30 8733 C 797.402 4.2383 0.683122 0
M  V30 8734 C 796.635 5.06303 1.68798 0
M  V30 8735 O 796.858 4.90172 2.91698 0
M  V30 8736 O 795.792 5.88826 1.24768 0
M  V30 8737 H 799.618 3.01247 -0.385254 0
M  V30 8738 H 797.203 1.47216 -0.254519 0
M  V30 8739 H 799.085 3.73037 1.96014 0
M  V30 8740 H 797.76 2.53561 2.01217 0
M  V30 8741 H 796.667 3.74086 0.0329351 0
M  V30 8742 H 798 4.9216 0.0630192 0
M  V30 8743 N 799.652 0.226554 1.55963 0
M  V30 8744 C 800.562 -0.692725 2.24139 0
M  V30 8745 C 801.578 -1.20971 1.25068 0
M  V30 8746 O 802.754 -1.25027 1.57893 0
M  V30 8747 C 799.819 -1.88183 2.91184 0
M  V30 8748 C 798.88 -1.40633 4.05612 0
M  V30 8749 C 798.113 -2.53875 4.6945 0
M  V30 8750 O 798.336 -3.72129 4.32292 0
M  V30 8751 O 797.27 -2.24792 5.58348 0
M  V30 8752 H 801.096 -0.141921 3.03368 0
M  V30 8753 H 798.681 -0.0041049 1.49399 0
M  V30 8754 H 800.563 -2.57617 3.33484 0
M  V30 8755 H 799.238 -2.42064 2.14911 0
M  V30 8756 H 798.145 -0.67986 3.67871 0
M  V30 8757 H 799.478 -0.913838 4.83642 0
M  V30 8758 N 801.13 -1.57531 -0.0467866 0
M  V30 8759 C 802.546 -1.54451 -0.402107 0
M  V30 8760 C 802.746 -0.950275 -1.77685 0
M  V30 8761 O 801.802 -0.563602 -2.4613 0
M  V30 8762 C 803.115 -2.9899 -0.320212 0
M  V30 8763 C 804.663 -3.10452 -0.398588 0
M  V30 8764 C 805.138 -4.56689 -0.346335 0
M  V30 8765 N 806.629 -4.6142 -0.405666 0
M  V30 8766 C 807.364 -5.72087 -0.387845 0
M  V30 8767 N 806.86 -6.92045 -0.32336 0
M  V30 8768 N 808.653 -5.60404 -0.436263 0
M  V30 8769 H 800.804 -1.94515 0.853087 0
M  V30 8770 H 803.067 -0.891397 0.322669 0
M  V30 8771 H 802.773 -3.46124 0.623794 0
M  V30 8772 H 802.647 -3.60164 -1.1208 0
M  V30 8773 H 805.034 -2.63276 -1.33302 0
M  V30 8774 H 805.115 -2.52142 0.431026 0
M  V30 8775 H 804.759 -5.04527 0.584356 0
M  V30 8776 H 804.689 -5.12889 -1.19382 0
M  V30 8777 H 807.18 -3.75105 -0.458737 0
M  V30 8778 H 807.493 -7.7216 -0.314375 0
M  V30 8779 H 805.838 -6.94396 -0.28967 0
M  V30 8780 H 809.029 -4.65586 -0.48451 0
M  V30 8781 H 809.202 -6.46645 -0.418907 0
M  V30 8782 N 802.608 0.318715 -1.54344 0
M  V30 8783 C 803.571 1.37545 -1.83342 0
M  V30 8784 C 804.571 1.445 -0.705444 0
M  V30 8785 O 805.761 1.44443 -0.973752 0
M  V30 8786 C 802.893 2.76225 -1.99781 0
M  V30 8787 H 804.086 1.13084 -2.77762 0
M  V30 8788 H 801.639 0.554457 -1.46135 0
M  V30 8789 H 802.374 3.05934 -1.07588 0
M  V30 8790 H 802.159 2.7257 -2.81865 0
M  V30 8791 H 803.649 3.52664 -2.23647 0
M  V30 8792 N 804.086 1.46499 0.581025 0
M  V30 8793 C 805.016 1.60052 1.70017 0
M  V30 8794 C 805.997 0.450788 1.64018 0
M  V30 8795 O 807.182 0.677237 1.82009 0
M  V30 8796 C 804.312 1.5921 3.08658 0
M  V30 8797 C 803.266 2.73169 3.29488 0
M  V30 8798 C 802.592 2.57389 4.68674 0
M  V30 8799 C 803.892 4.14978 3.1716 0
M  V30 8800 H 805.586 2.53735 1.5893 0
M  V30 8801 H 803.132 1.22113 0.763173 0
M  V30 8802 H 805.085 1.67285 3.86773 0
M  V30 8803 H 803.809 0.620718 3.20647 0
M  V30 8804 H 802.468 2.64566 2.53773 0
M  V30 8805 H 802.116 1.58331 4.77431 0
M  V30 8806 H 801.816 3.33826 4.83564 0
M  V30 8807 H 803.34 2.67358 5.48956 0
M  V30 8808 H 804.754 4.24684 3.85119 0
M  V30 8809 H 803.151 4.92016 3.4357 0
M  V30 8810 H 804.221 4.35016 2.14218 0
M  V30 8811 N 805.565 -0.825799 1.34232 0
M  V30 8812 C 806.495 -1.95151 1.28212 0
M  V30 8813 C 807.476 -1.69345 0.160123 0
M  V30 8814 O 808.661 -1.90983 0.352019 0
M  V30 8815 C 805.791 -3.31554 1.03388 0
M  V30 8816 C 804.745 -3.71793 2.12023 0
M  V30 8817 C 804.071 -5.06147 1.72392 0
M  V30 8818 C 805.371 -3.84193 3.53826 0
M  V30 8819 H 807.065 -2.00445 2.22401 0
M  V30 8820 H 804.611 -0.962996 1.07063 0
M  V30 8821 H 806.564 -4.09889 0.978225 0
M  V30 8822 H 805.288 -3.26551 0.0564142 0
M  V30 8823 H 803.947 -2.95731 2.16654 0
M  V30 8824 H 803.595 -4.97628 0.733137 0
M  V30 8825 H 803.295 -5.34041 2.451 0
M  V30 8826 H 804.819 -5.86943 1.68317 0
M  V30 8827 H 806.233 -4.52806 3.51624 0
M  V30 8828 H 804.63 -4.23538 4.2513 0
M  V30 8829 H 805.7 -2.86272 3.91377 0
M  V30 8830 N 807.043 -1.17915 -1.04565 0
M  V30 8831 C 808.006 -0.903787 -2.10628 0
M  V30 8832 C 809.006 0.10873 -1.60432 0
M  V30 8833 O 810.196 -0.124152 -1.73757 0
M  V30 8834 C 807.328 -0.355017 -3.39046 0
M  V30 8835 H 808.521 -1.84425 -2.3649 0
M  V30 8836 H 806.074 -0.990477 -1.2091 0
M  V30 8837 H 806.809 0.592297 -3.18845 0
M  V30 8838 H 806.594 -1.08484 -3.76794 0
M  V30 8839 H 808.084 -0.180891 -4.17208 0
M  V30 8840 N 808.521 1.23394 -0.980386 0
M  V30 8841 C 809.431 2.28561 -0.528864 0
M  V30 8842 C 810.447 1.68946 0.416329 0
M  V30 8843 O 811.623 1.99355 0.286251 0
M  V30 8844 C 808.688 3.46323 0.16155 0
M  V30 8845 C 807.749 4.21297 -0.825044 0
M  V30 8846 C 806.982 5.33437 -0.167483 0
M  V30 8847 O 807.205 5.60812 1.04146 0
M  V30 8848 O 806.139 5.95637 -0.866047 0
M  V30 8849 H 809.965 2.69326 -1.40346 0
M  V30 8850 H 807.55 1.29325 -0.748019 0
M  V30 8851 H 809.432 4.17811 0.548841 0
M  V30 8852 H 808.107 3.0751 1.01092 0
M  V30 8853 H 807.014 3.52134 -1.26303 0
M  V30 8854 H 808.347 4.6396 -1.64322 0
M  V30 8855 N 809.999 0.752036 1.385 0
M  V30 8856 C 810.931 0.0835089 2.29048 0
M  V30 8857 C 811.944 -0.685402 1.47669 0
M  V30 8858 O 813.133 -0.526748 1.70551 0
M  V30 8859 C 810.233 -0.905772 3.26572 0
M  V30 8860 C 809.406 -0.194828 4.36966 0
M  V30 8861 C 808.465 -1.09464 5.14688 0
M  V30 8862 O 807.491 -0.565743 5.66381 0
M  V30 8863 N 808.693 -2.42287 5.2752 0
M  V30 8864 H 811.458 0.861142 2.87062 0
M  V30 8865 H 809.019 0.602689 1.50264 0
M  V30 8866 H 811.011 -1.51072 3.75446 0
M  V30 8867 H 809.581 -1.58449 2.69467 0
M  V30 8868 H 808.801 0.590812 3.89747 0
M  V30 8869 H 810.089 0.297189 5.07931 0
M  V30 8870 H 809.487 -2.87715 4.8707 0
M  V30 8871 H 808.044 -2.97836 5.79773 0
M  V30 8872 N 811.477 -1.49425 0.500989 0
M  V30 8873 C 812.893 -1.58826 0.156951 0
M  V30 8874 C 813.093 -1.50622 -1.33848 0
M  V30 8875 O 812.149 -1.38016 -2.11442 0
M  V30 8876 C 813.462 -2.91611 0.73374 0
M  V30 8877 C 815.01 -3.05076 0.699846 0
M  V30 8878 C 815.485 -4.40479 1.2547 0
M  V30 8879 N 816.976 -4.4697 1.2154 0
M  V30 8880 C 817.711 -5.50189 1.6149 0
M  V30 8881 N 817.207 -6.60512 2.09034 0
M  V30 8882 N 819 -5.40903 1.52907 0
M  V30 8883 H 811.151 -1.53001 1.47324 0
M  V30 8884 H 813.414 -0.724765 0.61108 0
M  V30 8885 H 813.12 -3.03182 1.78251 0
M  V30 8886 H 812.994 -3.767 0.19417 0
M  V30 8887 H 815.381 -2.93134 -0.340085 0
M  V30 8888 H 815.462 -2.2167 1.27656 0
M  V30 8889 H 815.106 -4.53172 2.29341 0
M  V30 8890 H 815.036 -5.22524 0.653921 0
M  V30 8891 H 817.527 -3.67819 0.867043 0
M  V30 8892 H 817.84 -7.35372 2.37588 0
M  V30 8893 H 816.185 -6.61553 2.13008 0
M  V30 8894 H 819.376 -4.53606 1.15583 0
M  V30 8895 H 819.549 -6.21219 1.84365 0
M  V30 8896 N 812.955 -0.234822 -1.55841 0
M  V30 8897 C 814.232 0.442961 -1.90518 0
M  V30 8898 C 814.612 1.76768 -1.15397 0
M  V30 8899 O 813.96 2.26928 -0.267534 0
M  V30 8900 C 814.17 0.622905 -3.43396 0
M  V30 8901 C 815.518 0.9243 -4.14417 0
M  V30 8902 O 816.542 0.709211 -3.49068 0
M  V30 8903 O 815.401 1.33323 -5.29988 0
M  V30 8904 H 812.495 0.236042 -0.792599 0
M  V30 8905 H 815.041 -0.277992 -1.67408 0
M  V30 8906 H 813.813 -0.310973 -3.90062 0
M  V30 8907 H 813.436 1.39485 -3.7233 0
M  V30 8908 N 814.433 1.57553 0.0384317 0
M  V30 8909 C 815.661 1.93093 0.743141 0
M  V30 8910 C 816.076 0.833787 1.69391 0
M  V30 8911 O 815.433 -0.190532 1.81503 0
M  V30 8912 C 815.484 3.28533 1.50826 0
M  V30 8913 O 815.205 4.34032 0.595665 0
M  V30 8914 C 816.706 3.78297 2.31098 0
M  V30 8915 H 813.926 0.637486 0.20941 0
M  V30 8916 H 816.47 2.045 -0.00125154 0
M  V30 8917 H 814.625 3.18552 2.20462 0
M  V30 8918 H 815.039 5.12155 1.13124 0
M  V30 8919 H 816.513 4.75602 2.80191 0
M  V30 8920 H 816.99 3.09008 3.12107 0
M  V30 8921 H 817.596 3.91331 1.66555 0
M  V30 8922 N 815.911 -0.310526 1.54511 0
M  V30 8923 C 817.159 -1.04484 1.72996 0
M  V30 8924 C 817.48 -1.88118 0.513479 0
M  V30 8925 O 816.75 -1.90119 -0.472384 0
M  V30 8926 H 815.33 -0.388747 0.637875 0
M  V30 8927 H 817.992 -0.343811 1.91844 0
M  V30 8928 H 817.088 -1.70341 2.61515 0
M  V30 8929 N 817.389 -1.46805 -0.573248 0
M  V30 8930 C 818.319 -1.60951 -1.69165 0
M  V30 8931 C 819.3 -0.45948 -1.63777 0
M  V30 8932 O 820.485 -0.68688 -1.81647 0
M  V30 8933 C 817.615 -1.60844 -3.07809 0
M  V30 8934 C 816.569 -2.74913 -3.28035 0
M  V30 8935 C 815.895 -2.59871 -4.67302 0
M  V30 8936 C 817.195 -4.16654 -3.14955 0
M  V30 8937 H 818.889 -2.54574 -1.57582 0
M  V30 8938 H 816.435 -1.22516 -0.756686 0
M  V30 8939 H 818.388 -1.69334 -3.85881 0
M  V30 8940 H 817.112 -0.637714 -3.20314 0
M  V30 8941 H 815.771 -2.65908 -2.52366 0
M  V30 8942 H 815.419 -1.60861 -4.76585 0
M  V30 8943 H 815.119 -3.36386 -4.81786 0
M  V30 8944 H 816.643 -2.70265 -5.4753 0
M  V30 8945 H 818.057 -4.26721 -3.82861 0
M  V30 8946 H 816.454 -4.93831 -3.40956 0
M  V30 8947 H 817.524 -4.36146 -2.11908 0
M  V30 8948 N 818.867 0.818669 -1.34668 0
M  V30 8949 C 820.115 1.57201 -1.27013 0
M  V30 8950 C 820.436 1.94354 0.158599 0
M  V30 8951 O 819.706 1.62626 1.09223 0
M  V30 8952 H 818.286 0.582919 -0.467135 0
M  V30 8953 H 820.948 0.977234 -1.6863 0
M  V30 8954 H 820.044 2.49291 -1.87778 0
M  V30 8955 N 820.346 1.18468 1.03938 0
M  V30 8956 C 821.623 0.890435 1.74157 0
M  V30 8957 C 822.003 -0.606409 2.02203 0
M  V30 8958 O 821.351 -1.5615 1.66822 0
M  V30 8959 C 821.561 1.73906 3.02585 0
M  V30 8960 C 822.909 1.96686 3.76297 0
M  V30 8961 O 823.933 1.70969 3.12487 0
M  V30 8962 O 822.792 2.39986 4.90988 0
M  V30 8963 H 819.886 0.330889 0.757919 0
M  V30 8964 H 822.432 1.29228 1.09992 0
M  V30 8965 H 821.204 2.75369 2.78006 0
M  V30 8966 H 820.827 1.33581 3.74489 0
M  V30 8967 N 821.824 -1.22873 0.986916 0
M  V30 8968 C 822.771 -2.2458 0.532215 0
M  V30 8969 C 823.741 -1.60375 -0.432322 0
M  V30 8970 O 824.926 -1.87775 -0.338416 0
M  V30 8971 C 822.066 -3.44761 -0.152864 0
M  V30 8972 C 821.179 -4.23501 0.852704 0
M  V30 8973 C 820.314 -5.31011 0.14176 0
M  V30 8974 C 819.353 -6.01464 1.1361 0
M  V30 8975 N 818.49 -7.00631 0.453871 0
M  V30 8976 H 823.33 -2.62838 1.40428 0
M  V30 8977 H 820.867 -1.29185 0.703543 0
M  V30 8978 H 822.825 -4.1333 -0.566926 0
M  V30 8979 H 821.455 -3.07284 -0.988756 0
M  V30 8980 H 820.507 -3.54286 1.38512 0
M  V30 8981 H 821.819 -4.72097 1.61014 0
M  V30 8982 H 820.973 -6.05805 -0.329337 0
M  V30 8983 H 819.712 -4.83373 -0.648229 0
M  V30 8984 H 818.717 -5.25456 1.61789 0
M  V30 8985 H 819.942 -6.5119 1.92686 0
M  V30 8986 H 817.888 -6.55235 -0.316791 0
M  V30 8987 H 817.805 -7.47204 1.14986 0
M  V30 8988 H 819.073 -7.795 0.00537823 0
M  V30 8989 N 823.302 -0.75937 -1.38099 0
M  V30 8990 C 824.713 -0.385078 -1.82686 0
M  V30 8991 C 825.064 1.0871 -1.6333 0
M  V30 8992 O 824.189 1.84084 -1.13762 0
M  V30 8993 C 824.784 -0.692161 -3.31654 0
M  V30 8994 C 823.343 -0.371077 -3.74566 0
M  V30 8995 C 822.49 -0.942375 -2.60796 0
M  V30 8996 H 825.441 -0.955048 -1.26746 0
M  V30 8997 H 825.462 0.0276001 -3.8049 0
M  V30 8998 H 824.974 -1.76369 -3.4571 0
M  V30 8999 H 823.075 0.693637 -3.66087 0
M  V30 9000 H 823.188 -0.870672 -4.71122 0
M  V30 9001 H 821.552 -0.367383 -2.52036 0
M  V30 9002 H 822.335 -2.01905 -2.77649 0
M  V30 9003 N 824.78 1.49157 -0.508906 0
M  V30 9004 C 826.027 2.02473 0.0327983 0
M  V30 9005 C 826.355 1.38792 1.36261 0
M  V30 9006 O 825.61 0.515576 1.88786 0
M  V30 9007 C 825.909 3.56687 0.225717 0
M  V30 9008 C 825.575 4.39046 -1.02708 0
M  V30 9009 C 824.237 4.61271 -1.37048 0
M  V30 9010 C 826.589 4.86902 -1.85946 0
M  V30 9011 C 823.917 5.28598 -2.54562 0
M  V30 9012 C 826.269 5.55521 -3.0262 0
M  V30 9013 C 824.933 5.7599 -3.3733 0
M  V30 9014 H 824.203 0.740903 0.0120017 0
M  V30 9015 H 826.85 1.79372 -0.670665 0
M  V30 9016 H 825.155 3.78511 1.01177 0
M  V30 9017 H 826.852 3.95541 0.659433 0
M  V30 9018 H 823.442 4.21994 -0.749615 0
M  V30 9019 H 827.626 4.69553 -1.6073 0
M  V30 9020 H 822.882 5.42646 -2.81682 0
M  V30 9021 H 827.056 5.91576 -3.67438 0
M  V30 9022 H 824.683 6.27934 -4.2849 0
M  V30 9023 N 826.258 0.243083 1.55714 0
M  V30 9024 C 827.669 -0.260788 1.8487 0
M  V30 9025 C 828.02 -1.57879 1.16485 0
M  V30 9026 O 827.145 -2.1184 0.441908 0
M  V30 9027 C 827.74 -0.479954 3.35383 0
M  V30 9028 C 826.299 -0.928096 3.64778 0
M  V30 9029 C 825.446 -0.00316416 2.773 0
M  V30 9030 H 828.397 0.465743 1.51712 0
M  V30 9031 H 828.418 -1.32308 3.56756 0
M  V30 9032 H 827.93 0.479468 3.85127 0
M  V30 9033 H 826.031 -1.90012 3.20509 0
M  V30 9034 H 826.144 -0.7876 4.72582 0
M  V30 9035 H 824.508 -0.513849 2.49463 0
M  V30 9036 H 825.291 0.951562 3.29849 0
M  V30 9037 N 827.736 -1.57571 -0.0300757 0
M  V30 9038 C 828.666 -2.0953 -1.03051 0
M  V30 9039 C 829.647 -0.99761 -1.37774 0
M  V30 9040 O 830.832 -1.27279 -1.46676 0
M  V30 9041 C 827.962 -2.57385 -2.33174 0
M  V30 9042 C 826.916 -3.71409 -2.12696 0
M  V30 9043 C 826.242 -4.05467 -3.4857 0
M  V30 9044 C 827.542 -4.99877 -1.51396 0
M  V30 9045 H 829.236 -2.93367 -0.597999 0
M  V30 9046 H 826.782 -1.41127 -0.286203 0
M  V30 9047 H 828.735 -2.92355 -3.03491 0
M  V30 9048 H 827.459 -1.70629 -2.78484 0
M  V30 9049 H 826.118 -3.36786 -1.44813 0
M  V30 9050 H 825.766 -3.15779 -3.91526 0
M  V30 9051 H 825.466 -4.82269 -3.35694 0
M  V30 9052 H 826.99 -4.4297 -4.2025 0
M  V30 9053 H 828.404 -5.3281 -2.11629 0
M  V30 9054 H 826.801 -5.81283 -1.49098 0
M  V30 9055 H 827.871 -4.82522 -0.479676 0
M  V30 9056 N 829.214 0.302327 -1.54673 0
M  V30 9057 C 830.491 1.05721 -1.64567 0
M  V30 9058 C 830.871 2.0526 -0.493108 0
M  V30 9059 O 830.219 2.22729 0.510315 0
M  V30 9060 C 830.429 1.74025 -3.02517 0
M  V30 9061 C 831.777 2.26271 -3.59286 0
M  V30 9062 O 832.801 1.8406 -3.0496 0
M  V30 9063 O 831.66 3.0361 -4.54404 0
M  V30 9064 H 828.754 0.488577 -0.667249 0
M  V30 9065 H 831.3 0.300521 -1.67018 0
M  V30 9066 H 830.072 1.0174 -3.77842 0
M  V30 9067 H 829.695 2.56454 -3.03838 0
M  V30 9068 N 830.692 1.47107 0.565454 0
M  V30 9069 C 831.92 1.56909 1.3486 0
M  V30 9070 C 832.335 0.216312 1.87557 0
M  V30 9071 O 831.692 -0.789168 1.64555 0
M  V30 9072 C 831.743 2.58776 2.52423 0
M  V30 9073 O 831.464 3.888 2.01906 0
M  V30 9074 C 832.965 2.78683 3.44747 0
M  V30 9075 H 830.185 0.530096 0.411387 0
M  V30 9076 H 832.729 1.92658 0.685782 0
M  V30 9077 H 830.884 2.25983 3.1466 0
M  V30 9078 H 831.298 4.44393 2.78595 0
M  V30 9079 H 832.772 3.53842 4.23674 0
M  V30 9080 H 833.249 1.86208 3.97773 0
M  V30 9081 H 833.855 3.12641 2.88333 0
M  V30 9082 N 832.17 -0.811516 1.35101 0
M  V30 9083 C 833.133 -1.90467 1.27495 0
M  V30 9084 C 834.133 -1.59703 0.187516 0
M  V30 9085 O 835.323 -1.68528 0.440896 0
M  V30 9086 C 832.455 -3.26774 0.971154 0
M  V30 9087 H 833.648 -1.98631 2.2469 0
M  V30 9088 H 831.201 -1.00681 1.19553 0
M  V30 9089 H 831.936 -3.243 0.0028557 0
M  V30 9090 H 831.721 -3.50488 1.75785 0
M  V30 9091 H 833.211 -4.06804 0.943414 0
M  V30 9092 N 833.648 -1.19017 -1.03309 0
M  V30 9093 C 834.558 -0.939303 -2.14975 0
M  V30 9094 C 835.574 0.0992359 -1.73717 0
M  V30 9095 O 836.75 -0.0844362 -2.01223 0
M  V30 9096 C 833.815 -0.476712 -3.43407 0
M  V30 9097 C 832.876 -1.58413 -3.99003 0
M  V30 9098 C 832.109 -1.14352 -5.21305 0
M  V30 9099 O 832.332 -0.00534408 -5.704 0
M  V30 9100 O 831.266 -1.94436 -5.6963 0
M  V30 9101 H 835.092 -1.87386 -2.38998 0
M  V30 9102 H 832.677 -0.972635 -1.13403 0
M  V30 9103 H 834.559 -0.22718 -4.20787 0
M  V30 9104 H 833.234 0.429455 -3.20839 0
M  V30 9105 H 832.141 -1.88777 -3.22977 0
M  V30 9106 H 833.474 -2.4667 -4.25928 0
M  V30 9107 N 835.127 1.22348 -0.993418 0
M  V30 9108 C 836.037 2.27987 -0.553076 0
M  V30 9109 C 837.053 1.69378 0.398386 0
M  V30 9110 O 838.229 1.99648 0.26509 0
M  V30 9111 C 835.294 3.46475 0.124809 0
M  V30 9112 C 834.355 4.20399 -0.869682 0
M  V30 9113 C 833.588 5.33229 -0.224052 0
M  V30 9114 O 833.811 5.61885 0.981915 0
M  V30 9115 O 832.745 5.94685 -0.929174 0
M  V30 9116 H 836.571 2.67822 -1.43195 0
M  V30 9117 H 834.156 1.28525 -0.761694 0
M  V30 9118 H 836.038 4.18369 0.504496 0
M  V30 9119 H 834.713 3.08565 0.978243 0
M  V30 9120 H 833.62 3.50774 -1.30031 0
M  V30 9121 H 834.953 4.62191 -1.69233 0
M  V30 9122 N 836.605 0.766683 1.37694 0
M  V30 9123 C 837.853 0.328065 1.9942 0
M  V30 9124 C 838.174 -1.09775 1.61166 0
M  V30 9125 O 837.444 -1.75288 0.874686 0
M  V30 9126 H 836.024 0.11831 0.737572 0
M  V30 9127 H 838.686 0.983686 1.68255 0
M  V30 9128 H 837.782 0.401647 3.09505 0
M  V30 9129 N 838.083 -1.48885 0.516809 0
M  V30 9130 C 839.494 -1.86557 0.0729921 0
M  V30 9131 C 839.845 -1.42767 -1.34581 0
M  V30 9132 O 838.97 -0.812514 -2.00567 0
M  V30 9133 C 839.565 -3.38567 0.125686 0
M  V30 9134 C 838.124 -3.75481 -0.262867 0
M  V30 9135 C 837.271 -2.72913 0.491281 0
M  V30 9136 H 840.222 -1.40978 0.728767 0
M  V30 9137 H 840.243 -3.74629 -0.665831 0
M  V30 9138 H 839.755 -3.70408 1.15842 0
M  V30 9139 H 837.856 -3.49251 -1.29824 0
M  V30 9140 H 837.969 -4.79052 0.067579 0
M  V30 9141 H 836.333 -2.54627 -0.0608525 0
M  V30 9142 H 837.116 -3.07599 1.5244 0
M  V30 9143 N 839.561 -0.251338 -1.55583 0
M  V30 9144 C 840.972 0.25098 -1.85005 0
M  V30 9145 C 841.323 1.57259 -1.17321 0
M  V30 9146 O 840.448 2.11603 -0.453136 0
M  V30 9147 C 841.043 0.462161 -3.35633 0
M  V30 9148 C 839.602 0.908737 -3.65266 0
M  V30 9149 C 838.749 -0.0115418 -2.77298 0
M  V30 9150 H 841.7 -0.473782 -1.51463 0
M  V30 9151 H 841.721 1.30415 -3.57452 0
M  V30 9152 H 841.233 -0.499886 -3.84867 0
M  V30 9153 H 839.334 1.8831 -3.21512 0
M  V30 9154 H 839.447 0.762526 -4.72993 0
M  V30 9155 H 837.811 0.500612 -2.49732 0
M  V30 9156 H 838.594 -0.969042 -3.29339 0
M  V30 9157 N 841.039 1.57585 0.0217189 0
M  V30 9158 C 842.264 1.94267 0.726309 0
M  V30 9159 C 842.689 0.851904 1.67703 0
M  V30 9160 O 842.047 -0.191792 1.80283 0
M  V30 9161 C 842.095 3.30023 1.45318 0
M  V30 9162 O 841.199 3.22791 2.5667 0
M  V30 9163 H 840.54 0.634777 0.194818 0
M  V30 9164 H 843.07 2.04585 -0.0249985 0
M  V30 9165 H 843.08 3.65084 1.82147 0
M  V30 9166 H 841.755 4.08972 0.755962 0
M  V30 9167 H 840.332 2.99373 2.2233 0
M  V30 9168 N 842.517 -0.29412 1.54831 0
M  V30 9169 C 843.745 -1.04724 1.78439 0
M  V30 9170 C 844.16 -1.80695 0.547239 0
M  V30 9171 O 843.517 -1.75989 -0.483141 0
M  V30 9172 C 843.568 -2.02242 2.99634 0
M  V30 9173 O 843.289 -1.29352 4.18568 0
M  V30 9174 C 844.79 -2.89537 3.35683 0
M  V30 9175 H 842.01 -0.310285 0.594949 0
M  V30 9176 H 844.554 -0.331306 2.01798 0
M  V30 9177 H 842.709 -2.69328 2.78462 0
M  V30 9178 H 843.123 -1.94901 4.86943 0
M  V30 9179 H 844.597 -3.538 4.23709 0
M  V30 9180 H 845.074 -3.58201 2.54143 0
M  V30 9181 H 845.68 -2.27973 3.59038 0
M  V30 9182 N 843.995 -1.47404 -0.557645 0
M  V30 9183 C 844.958 -1.59411 -1.64684 0
M  V30 9184 C 845.958 -0.469244 -1.53801 0
M  V30 9185 O 847.148 -0.734298 -1.57967 0
M  V30 9186 C 844.28 -1.5382 -3.04224 0
M  V30 9187 H 845.473 -2.56504 -1.55389 0
M  V30 9188 H 843.026 -1.35588 -0.777531 0
M  V30 9189 H 843.761 -0.581 -3.19053 0
M  V30 9190 H 843.546 -2.35456 -3.13533 0
M  V30 9191 H 845.036 -1.65358 -3.83466 0
M  V30 9192 N 845.473 0.80434 -1.35529 0
M  V30 9193 C 846.722 1.55665 -1.28263 0
M  V30 9194 C 847.035 1.95096 0.140352 0
M  V30 9195 O 848.241 2.69422 0.335303 0
M  V30 9196 C 846.697 2.80935 -2.24952 0
M  V30 9197 C 846.305 2.48733 -3.72607 0
M  V30 9198 C 848.049 3.5894 -2.26632 0
M  V30 9199 C 845.956 3.70308 -4.61114 0
M  V30 9200 H 844.886 0.584301 -0.476559 0
M  V30 9201 H 847.537 0.88395 -1.60806 0
M  V30 9202 H 845.919 3.49927 -1.85383 0
M  V30 9203 H 847.093 1.87733 -4.20824 0
M  V30 9204 H 845.408 1.83969 -3.73557 0
M  V30 9205 H 848.005 4.49244 -2.89973 0
M  V30 9206 H 848.348 3.96433 -1.27069 0
M  V30 9207 H 848.881 2.96912 -2.64742 0
M  V30 9208 H 845.62 3.37922 -5.61684 0
M  V30 9209 H 845.14 4.30526 -4.17621 0
M  V30 9210 H 846.819 4.37511 -4.76648 0
M  V30 9211 N 846.951 1.19563 1.02676 0
M  V30 9212 C 847.883 0.893054 2.11086 0
M  V30 9213 C 848.896 -0.115101 1.62393 0
M  V30 9214 O 850.085 0.11459 1.78132 0
M  V30 9215 C 847.185 0.315533 3.37428 0
M  V30 9216 C 846.358 1.37276 4.153 0
M  V30 9217 C 845.417 0.808398 5.19953 0
M  V30 9218 O 844.443 1.48661 5.49444 0
M  V30 9219 N 845.645 -0.387253 5.79207 0
M  V30 9220 H 848.41 1.82622 2.37633 0
M  V30 9221 H 845.971 1.09792 1.18984 0
M  V30 9222 H 847.963 -0.0759166 4.04629 0
M  V30 9223 H 846.533 -0.521961 3.08211 0
M  V30 9224 H 845.753 1.93897 3.43217 0
M  V30 9225 H 847.041 2.08509 4.64114 0
M  V30 9226 H 846.439 -0.955725 5.57568 0
M  V30 9227 H 844.996 -0.720457 6.47806 0
M  V30 9228 N 848.429 -1.21819 0.999893 0
M  V30 9229 C 849.677 -1.90375 0.678351 0
M  V30 9230 C 849.998 -1.78155 -0.792824 0
M  V30 9231 O 849.268 -1.17319 -1.56885 0
M  V30 9232 H 847.848 -0.704661 0.247915 0
M  V30 9233 H 850.51 -1.48021 1.2679 0
M  V30 9234 H 849.606 -2.97385 0.947023 0
M  V30 9235 N 849.908 -0.773975 -1.37286 0
M  V30 9236 C 851.136 -0.350758 -2.03905 0
M  V30 9237 C 851.551 1.02779 -1.58373 0
M  V30 9238 O 850.908 1.65646 -0.766009 0
M  V30 9239 C 850.959 -0.387335 -3.59419 0
M  V30 9240 O 850.68 -1.7115 -4.03286 0
M  V30 9241 C 852.181 0.047198 -4.43275 0
M  V30 9242 H 849.401 -0.146663 -0.654775 0
M  V30 9243 H 851.945 -1.04852 -1.75574 0
M  V30 9244 H 850.1 0.261865 -3.86514 0
M  V30 9245 H 850.514 -1.65166 -4.97816 0
M  V30 9246 H 851.988 -0.0295474 -5.51992 0
M  V30 9247 H 852.465 1.09786 -4.25257 0
M  V30 9248 H 853.071 -0.573899 -4.2141 0
M  V30 9249 N 851.386 1.48609 -0.524698 0
M  V30 9250 C 852.797 1.86516 -0.0828846 0
M  V30 9251 C 853.148 1.43478 1.33822 0
M  V30 9252 O 852.273 0.823139 2.00133 0
M  V30 9253 C 852.868 3.38495 -0.143639 0
M  V30 9254 C 851.427 3.75615 0.242951 0
M  V30 9255 C 850.574 2.72649 -0.505747 0
M  V30 9256 H 853.525 1.40589 -0.736233 0
M  V30 9257 H 853.546 3.74977 0.645955 0
M  V30 9258 H 853.058 3.69789 -1.17805 0
M  V30 9259 H 851.159 3.49935 1.27971 0
M  V30 9260 H 851.272 4.7901 -0.0929834 0
M  V30 9261 H 849.636 2.54656 0.0473482 0
M  V30 9262 H 850.419 3.06786 -1.54069 0
M  V30 9263 N 852.864 0.259585 1.55447 0
M  V30 9264 C 854.275 -0.241165 1.85136 0
M  V30 9265 C 854.626 -1.56634 1.18153 0
M  V30 9266 O 853.751 -2.11359 0.464351 0
M  V30 9267 C 854.346 -0.444355 3.35873 0
M  V30 9268 C 852.905 -0.889354 3.65742 0
M  V30 9269 C 852.052 0.0262474 2.77288 0
M  V30 9270 H 855.003 0.481808 1.51209 0
M  V30 9271 H 855.024 -1.28517 3.58139 0
M  V30 9272 H 854.536 0.520289 3.84597 0
M  V30 9273 H 852.637 -1.86602 3.22507 0
M  V30 9274 H 852.75 -0.737432 4.73391 0
M  V30 9275 H 851.114 -0.487361 2.49994 0
M  V30 9276 H 851.897 0.986494 3.28821 0
M  V30 9277 N 854.342 -1.57594 -0.0133615 0
M  V30 9278 C 855.567 -1.94649 -0.715996 0
M  V30 9279 C 855.992 -0.860786 -1.67249 0
M  V30 9280 O 855.35 0.182228 -1.80382 0
M  V30 9281 C 855.398 -3.30789 -1.43566 0
M  V30 9282 O 854.502 -3.24148 -2.54955 0
M  V30 9283 H 853.843 -0.635801 -0.191449 0
M  V30 9284 H 856.373 -2.04569 0.0358478 0
M  V30 9285 H 856.383 -3.66045 -1.80208 0
M  V30 9286 H 855.058 -4.09367 -0.734263 0
M  V30 9287 H 853.635 -3.00548 -2.20739 0
M  V30 9288 N 855.82 0.285905 -1.54985 0
M  V30 9289 C 857.066 1.02071 -1.75241 0
M  V30 9290 C 857.399 1.864 -0.544842 0
M  V30 9291 O 856.674 1.89034 0.457844 0
M  V30 9292 C 856.957 1.91409 -3.05016 0
M  V30 9293 C 856.81 1.10158 -4.36102 0
M  V30 9294 C 858.129 2.90335 -3.30747 0
M  V30 9295 H 855.248 0.369663 -0.637588 0
M  V30 9296 H 857.89 0.294114 -1.8771 0
M  V30 9297 H 856.04 2.53362 -2.94517 0
M  V30 9298 H 857.712 0.503756 -4.58541 0
M  V30 9299 H 855.955 0.404675 -4.31908 0
M  V30 9300 H 856.626 1.75956 -5.23205 0
M  V30 9301 H 859.102 2.38514 -3.40955 0
M  V30 9302 H 857.978 3.49997 -4.2284 0
M  V30 9303 H 858.239 3.64787 -2.49765 0
M  V30 9304 N 857.298 1.47698 0.54982 0
M  V30 9305 C 858.709 1.48474 1.13191 0
M  V30 9306 C 859.06 0.243504 1.94683 0
M  V30 9307 O 858.185 -0.651009 2.06375 0
M  V30 9308 C 858.78 2.69022 2.05944 0
M  V30 9309 C 857.339 2.72733 2.5941 0
M  V30 9310 C 856.486 2.41691 1.35944 0
M  V30 9311 H 859.437 1.55101 0.336048 0
M  V30 9312 H 859.458 2.46412 2.89934 0
M  V30 9313 H 858.97 3.59345 1.46605 0
M  V30 9314 H 857.071 1.86568 3.22526 0
M  V30 9315 H 857.184 3.73628 2.99899 0
M  V30 9316 H 855.548 1.92428 1.66864 0
M  V30 9317 H 856.331 3.34231 0.783869 0
M  V30 9318 N 858.776 -0.797141 1.35954 0
M  V30 9319 C 860.024 -1.55161 1.29497 0
M  V30 9320 C 860.345 -1.94582 -0.127659 0
M  V30 9321 O 859.615 -1.64343 -1.06622 0
M  V30 9322 H 858.195 -0.575413 0.47635 0
M  V30 9323 H 860.857 -0.950282 1.70164 0
M  V30 9324 H 859.953 -2.46272 1.9172 0
M  V30 9325 N 860.254 -1.20106 -1.0204 0
M  V30 9326 C 861.184 -0.970301 -2.12385 0
M  V30 9327 C 862.165 0.099378 -1.69809 0
M  V30 9328 O 863.35 -0.057365 -1.94115 0
M  V30 9329 C 860.48 -0.517431 -3.43424 0
M  V30 9330 C 859.434 -1.52992 -3.99722 0
M  V30 9331 C 858.76 -0.933817 -5.26483 0
M  V30 9332 C 860.06 -2.91257 -4.33551 0
M  V30 9333 H 861.754 -1.89316 -2.31948 0
M  V30 9334 H 859.3 -0.911655 -1.11467 0
M  V30 9335 H 861.253 -0.343243 -4.2 0
M  V30 9336 H 859.977 0.441049 -3.23608 0
M  V30 9337 H 858.636 -1.6914 -3.2525 0
M  V30 9338 H 858.284 0.0324763 -5.0299 0
M  V30 9339 H 857.984 -1.60999 -5.65113 0
M  V30 9340 H 859.508 -0.770614 -6.05718 0
M  V30 9341 H 860.922 -2.78642 -5.0103 0
M  V30 9342 H 859.319 -3.55745 -4.83286 0
M  V30 9343 H 860.389 -3.43269 -3.42483 0
M  V30 9344 N 861.732 1.21287 -1.00634 0
M  V30 9345 C 862.98 1.90013 -0.688438 0
M  V30 9346 C 863.301 1.78573 0.783365 0
M  V30 9347 O 862.571 1.1815 1.56261 0
M  V30 9348 H 861.151 0.703336 -0.251648 0
M  V30 9349 H 863.813 1.47346 -1.27574 0
M  V30 9350 H 862.909 2.96879 -0.962781 0
M  V30 9351 N 863.21 0.781244 1.36873 0
M  V30 9352 C 864.142 0.132075 2.28819 0
M  V30 9353 C 865.155 -0.653925 1.49089 0
M  V30 9354 O 866.344 -0.490453 1.7163 0
M  V30 9355 C 863.444 -0.836297 3.28419 0
M  V30 9356 C 862.617 -0.102097 4.37281 0
M  V30 9357 C 861.676 -0.985217 5.16894 0
M  V30 9358 O 860.702 -0.445478 5.67454 0
M  V30 9359 N 861.904 -2.31043 5.3254 0
M  V30 9360 H 864.669 0.921838 2.85171 0
M  V30 9361 H 862.23 0.634427 1.48952 0
M  V30 9362 H 864.222 -1.43074 3.78566 0
M  V30 9363 H 862.792 -1.52698 2.72767 0
M  V30 9364 H 862.012 0.67335 3.88407 0
M  V30 9365 H 863.3 0.404862 5.07187 0
M  V30 9366 H 862.698 -2.77318 4.93063 0
M  V30 9367 H 861.255 -2.85472 5.8596 0
M  V30 9368 N 864.689 -1.48329 0.532571 0
M  V30 9369 C 865.599 -2.33445 -0.232546 0
M  V30 9370 C 866.615 -1.46651 -0.93645 0
M  V30 9371 O 867.791 -1.79627 -0.910834 0
M  V30 9372 C 864.856 -3.22824 -1.26434 0
M  V30 9373 C 863.917 -4.25492 -0.570511 0
M  V30 9374 C 863.15 -5.10601 -1.55315 0
M  V30 9375 O 863.373 -4.97733 -2.78599 0
M  V30 9376 O 862.307 -5.91927 -1.09112 0
M  V30 9377 H 866.133 -3.00119 0.464988 0
M  V30 9378 H 863.718 -1.46489 0.293462 0
M  V30 9379 H 865.6 -3.78103 -1.86055 0
M  V30 9380 H 864.275 -2.58807 -1.94424 0
M  V30 9381 H 863.182 -3.74041 0.0662587 0
M  V30 9382 H 864.515 -4.92154 0.0674904 0
M  V30 9383 N 866.167 -0.267825 -1.55308 0
M  V30 9384 C 867.077 0.633055 -2.25897 0
M  V30 9385 C 868.093 1.17613 -1.28231 0
M  V30 9386 O 869.269 1.20797 -1.61153 0
M  V30 9387 C 866.334 1.80397 -2.96071 0
M  V30 9388 C 865.395 1.29829 -4.09198 0
M  V30 9389 C 864.628 2.4134 -4.76016 0
M  V30 9390 O 864.851 3.60537 -4.42006 0
M  V30 9391 O 863.785 2.09909 -5.64111 0
M  V30 9392 H 867.611 0.0614381 -3.03638 0
M  V30 9393 H 865.196 -0.0355072 -1.49358 0
M  V30 9394 H 867.078 2.48685 -3.40197 0
M  V30 9395 H 865.753 2.36281 -2.21253 0
M  V30 9396 H 864.66 0.582086 -3.69544 0
M  V30 9397 H 865.993 0.785288 -4.85895 0
M  V30 9398 N 867.645 1.57599 0.00500368 0
M  V30 9399 C 868.595 2.04585 1.00643 0
M  V30 9400 C 869.579 0.939622 1.30614 0
M  V30 9401 O 870.771 1.20342 1.29796 0
M  V30 9402 C 867.9 2.5486 2.30002 0
M  V30 9403 C 866.986 3.7235 2.03017 0
M  V30 9404 N 867.377 4.84218 1.46173 0
M  V30 9405 C 865.675 3.80185 2.33185 0
M  V30 9406 C 866.376 5.65688 1.35544 0
M  V30 9407 N 865.352 5.11536 1.83933 0
M  V30 9408 H 869.154 2.8849 0.561332 0
M  V30 9409 H 866.668 1.61026 0.210808 0
M  V30 9410 H 868.665 2.86794 3.0258 0
M  V30 9411 H 867.325 1.72372 2.75169 0
M  V30 9412 H 868.336 5.0517 1.1412 0
M  V30 9413 H 865.013 3.08543 2.81261 0
M  V30 9414 H 866.403 6.65588 0.918791 0
M  V30 9415 N 869.123 -0.277682 1.55134 0
M  V30 9416 C 870.369 -1.0114 1.7578 0
M  V30 9417 C 870.702 -1.86109 0.554719 0
M  V30 9418 O 869.977 -1.89275 -0.447813 0
M  V30 9419 C 870.26 -1.89789 3.06027 0
M  V30 9420 C 870.113 -1.07844 4.3668 0
M  V30 9421 C 871.432 -2.88577 3.32282 0
M  V30 9422 H 868.551 -0.366277 0.639539 0
M  V30 9423 H 871.193 -0.284155 1.87863 0
M  V30 9424 H 869.343 -2.51796 2.95856 0
M  V30 9425 H 871.015 -0.479432 4.58802 0
M  V30 9426 H 869.258 -0.381764 4.32117 0
M  V30 9427 H 869.929 -1.73179 5.24131 0
M  V30 9428 H 872.405 -2.36702 3.42215 0
M  V30 9429 H 871.281 -3.47749 4.2469 0
M  V30 9430 H 871.542 -3.63458 2.51696 0
M  V30 9431 N 870.601 -1.47988 -0.541979 0
M  V30 9432 C 871.534 -1.56172 -1.66389 0
M  V30 9433 C 872.512 -0.412879 -1.57271 0
M  V30 9434 O 873.696 -0.622816 -1.77914 0
M  V30 9435 C 870.823 -1.47851 -3.04726 0
M  V30 9436 C 869.869 -2.67428 -3.32242 0
M  V30 9437 S 870.702 -4.29502 -3.19825 0
M  V30 9438 C 871.858 -4.2376 -4.60628 0
M  V30 9439 H 872.091 -2.51086 -1.59195 0
M  V30 9440 H 869.624 -1.36373 -0.724005 0
M  V30 9441 H 871.582 -1.43738 -3.84512 0
M  V30 9442 H 870.243 -0.542958 -3.09372 0
M  V30 9443 H 869.436 -2.57711 -4.33129 0
M  V30 9444 H 869.038 -2.68743 -2.60103 0
M  V30 9445 H 871.33 -3.92953 -5.51901 0
M  V30 9446 H 872.273 -5.24786 -4.75401 0
M  V30 9447 H 872.681 -3.54398 -4.39389 0
M  V30 9448 N 872.079 0.78992 -1.36375 0
M  V30 9449 C 873.026 1.90254 -1.3066 0
M  V30 9450 C 873.996 1.65171 -0.17539 0
M  V30 9451 O 875.181 1.87338 -0.361824 0
M  V30 9452 C 872.321 3.27057 -1.10125 0
M  V30 9453 C 871.434 3.64215 -2.32317 0
M  V30 9454 C 870.569 4.90134 -2.04798 0
M  V30 9455 C 869.608 5.19969 -3.22953 0
M  V30 9456 N 868.745 6.37071 -2.95102 0
M  V30 9457 H 873.585 1.94474 -2.25796 0
M  V30 9458 H 871.122 0.951022 -1.12223 0
M  V30 9459 H 873.08 4.05947 -0.962453 0
M  V30 9460 H 871.71 3.22261 -0.186444 0
M  V30 9461 H 870.762 2.80454 -2.57002 0
M  V30 9462 H 872.074 3.82212 -3.20492 0
M  V30 9463 H 871.228 5.76888 -1.87845 0
M  V30 9464 H 869.967 4.74205 -1.13932 0
M  V30 9465 H 868.972 4.31699 -3.40465 0
M  V30 9466 H 870.197 5.37817 -4.14644 0
M  V30 9467 H 868.143 6.22535 -2.06848 0
M  V30 9468 H 868.06 6.55398 -3.76815 0
M  V30 9469 H 869.328 7.26808 -2.81727 0
M  V30 9470 N 873.557 1.20646 1.01402 0
M  V30 9471 C 874.467 0.973385 2.13453 0
M  V30 9472 C 875.483 -0.0715865 1.73853 0
M  V30 9473 O 876.659 0.116438 2.01063 0
M  V30 9474 C 873.724 0.531285 3.42605 0
M  V30 9475 C 872.785 1.64741 3.96433 0
M  V30 9476 C 872.018 1.22631 5.1942 0
M  V30 9477 O 872.241 0.0960891 5.70319 0
M  V30 9478 O 871.175 2.03474 5.66465 0
M  V30 9479 H 875.001 1.91164 2.35987 0
M  V30 9480 H 872.586 0.990553 1.11841 0
M  V30 9481 H 874.468 0.294095 4.20373 0
M  V30 9482 H 873.143 -0.378358 3.21481 0
M  V30 9483 H 872.05 1.93891 3.19933 0
M  V30 9484 H 873.383 2.53415 4.2195 0
M  V30 9485 N 875.035 -1.20752 1.01276 0
M  V30 9486 C 875.982 -2.234 0.579732 0
M  V30 9487 C 876.952 -1.61256 -0.398206 0
M  V30 9488 O 878.137 -1.8845 -0.29851 0
M  V30 9489 C 875.277 -3.45008 -0.0797006 0
M  V30 9490 C 874.39 -4.21597 0.942343 0
M  V30 9491 C 873.525 -5.30591 0.254364 0
M  V30 9492 C 872.564 -5.98919 1.26343 0
M  V30 9493 N 871.701 -6.99511 0.602384 0
M  V30 9494 H 876.541 -2.59801 1.45971 0
M  V30 9495 H 874.078 -1.27663 0.730787 0
M  V30 9496 H 876.036 -4.1444 -0.479125 0
M  V30 9497 H 874.666 -3.09312 -0.923354 0
M  V30 9498 H 873.718 -3.51268 1.45996 0
M  V30 9499 H 875.03 -4.68576 1.70992 0
M  V30 9500 H 874.184 -6.06368 -0.200763 0
M  V30 9501 H 872.923 -4.84639 -0.545553 0
M  V30 9502 H 871.928 -5.21906 1.72898 0
M  V30 9503 H 873.153 -6.46957 2.06456 0
M  V30 9504 H 871.099 -6.55759 -0.177734 0
M  V30 9505 H 871.016 -7.44597 1.30809 0
M  V30 9506 H 872.284 -7.79313 0.17072 0
M  V30 9507 N 876.513 -0.788492 -1.36457 0
M  V30 9508 C 877.423 -0.187385 -2.3385 0
M  V30 9509 C 878.439 0.659984 -1.60998 0
M  V30 9510 O 879.615 0.575986 -1.92988 0
M  V30 9511 C 876.68 0.668525 -3.40194 0
M  V30 9512 C 875.741 -0.197234 -4.28847 0
M  V30 9513 C 874.974 0.61792 -5.30111 0
M  V30 9514 O 875.197 1.85396 -5.3943 0
M  V30 9515 O 874.131 0.0183016 -6.01897 0
M  V30 9516 H 877.957 -0.992617 -2.87021 0
M  V30 9517 H 875.542 -0.549934 -1.3891 0
M  V30 9518 H 877.424 1.15663 -4.05216 0
M  V30 9519 H 876.099 1.45166 -2.89324 0
M  V30 9520 H 875.006 -0.73207 -3.66867 0
M  V30 9521 H 876.339 -0.943863 -4.83065 0
M  V30 9522 N 877.991 1.48044 -0.54043 0
M  V30 9523 C 878.921 2.32597 0.205178 0
M  V30 9524 C 879.902 1.42748 0.925041 0
M  V30 9525 O 881.087 1.71624 0.908784 0
M  V30 9526 C 878.217 3.24175 1.24612 0
M  V30 9527 C 877.171 4.23131 0.64376 0
M  V30 9528 C 876.497 5.03915 1.78812 0
M  V30 9529 C 877.797 5.20831 -0.39144 0
M  V30 9530 H 879.491 2.95184 -0.500676 0
M  V30 9531 H 877.037 1.41948 -0.242225 0
M  V30 9532 H 878.99 3.82158 1.77576 0
M  V30 9533 H 877.714 2.59608 1.98169 0
M  V30 9534 H 876.373 3.66349 0.135554 0
M  V30 9535 H 876.021 4.35765 2.51232 0
M  V30 9536 H 875.721 5.709 1.39094 0
M  V30 9537 H 877.245 5.64753 2.32134 0
M  V30 9538 H 878.659 5.73277 0.0515064 0
M  V30 9539 H 877.056 5.95926 -0.706569 0
M  V30 9540 H 878.126 4.6733 -1.29345 0
M  V30 9541 N 879.47 0.276058 1.55163 0
M  V30 9542 C 880.716 -0.340959 1.99913 0
M  V30 9543 C 881.049 -1.55434 1.16422 0
M  V30 9544 O 880.324 -1.93081 0.234517 0
M  V30 9545 C 880.607 -0.722211 3.52783 0
M  V30 9546 C 880.46 0.498575 4.47028 0
M  V30 9547 C 881.779 -1.5583 4.11589 0
M  V30 9548 H 878.898 -0.122455 0.726756 0
M  V30 9549 H 881.54 0.38319 1.86096 0
M  V30 9550 H 879.69 -1.33919 3.64689 0
M  V30 9551 H 881.362 1.13713 4.47065 0
M  V30 9552 H 879.605 1.13646 4.18649 0
M  V30 9553 H 880.276 0.188041 5.5168 0
M  V30 9554 H 882.752 -1.03722 4.02965 0
M  V30 9555 H 881.628 -1.79387 5.1876 0
M  V30 9556 H 881.889 -2.53963 3.61877 0
M  V30 9557 N 880.948 -1.576 0.00335426 0
M  V30 9558 C 882.359 -1.7875 -0.539008 0
M  V30 9559 C 882.71 -0.911097 -1.73763 0
M  V30 9560 O 881.835 -0.114476 -2.16097 0
M  V30 9561 C 882.43 -3.24177 -0.984611 0
M  V30 9562 C 880.989 -3.46412 -1.47226 0
M  V30 9563 C 880.136 -2.74024 -0.425004 0
M  V30 9564 H 883.087 -1.57032 0.229511 0
M  V30 9565 H 883.108 -3.32474 -1.85044 0
M  V30 9566 H 882.62 -3.87938 -0.112035 0
M  V30 9567 H 880.721 -2.8787 -2.36562 0
M  V30 9568 H 880.834 -4.55098 -1.49741 0
M  V30 9569 H 879.198 -2.38741 -0.887394 0
M  V30 9570 H 879.981 -3.40486 0.438662 0
M  V30 9571 N 882.426 0.269451 -1.5528 0
M  V30 9572 C 883.336 1.35511 -1.91505 0
M  V30 9573 C 884.352 1.53854 -0.812712 0
M  V30 9574 O 885.528 1.67912 -1.1121 0
M  V30 9575 C 882.593 2.6937 -2.18267 0
M  V30 9576 C 881.654 2.59743 -3.41807 0
M  V30 9577 C 880.887 3.87219 -3.67283 0
M  V30 9578 O 881.11 4.88066 -2.95208 0
M  V30 9579 O 880.044 3.87209 -4.60818 0
M  V30 9580 H 883.87 1.07785 -2.8393 0
M  V30 9581 H 881.455 0.468282 -1.41871 0
M  V30 9582 H 883.337 3.48513 -2.36889 0
M  V30 9583 H 882.012 2.96874 -1.29024 0
M  V30 9584 H 880.919 1.78964 -3.28516 0
M  V30 9585 H 882.252 2.37188 -4.3128 0
M  V30 9586 N 883.904 1.48273 0.534124 0
M  V30 9587 C 885.15 1.56311 1.29208 0
M  V30 9588 C 885.483 0.234481 1.92779 0
M  V30 9589 O 884.758 -0.759143 1.79073 0
M  V30 9590 C 885.041 2.69831 2.3846 0
M  V30 9591 C 884.894 4.12385 1.79608 0
M  V30 9592 C 886.213 2.79133 3.40254 0
M  V30 9593 H 883.332 0.56899 0.468422 0
M  V30 9594 H 885.974 1.80429 0.595438 0
M  V30 9595 H 884.124 2.49397 2.97881 0
M  V30 9596 H 885.796 4.44246 1.24269 0
M  V30 9597 H 884.039 4.19579 1.10162 0
M  V30 9598 H 884.71 4.87629 2.58693 0
M  V30 9599 H 887.186 2.97632 2.90783 0
M  V30 9600 H 886.062 3.60298 4.14097 0
M  V30 9601 H 886.323 1.87122 4.00547 0
M  V30 9602 N 885.382 -0.782676 1.36792 0
M  V30 9603 C 886.793 -1.35828 1.28092 0
M  V30 9604 C 887.144 -1.96052 -0.076315 0
M  V30 9605 O 886.269 -1.93042 -0.977935 0
M  V30 9606 C 886.864 -2.46949 2.31952 0
M  V30 9607 C 885.423 -3.00307 2.2692 0
M  V30 9608 C 884.57 -1.73436 2.16368 0
M  V30 9609 H 887.521 -0.583788 1.47572 0
M  V30 9610 H 887.542 -3.26144 1.95986 0
M  V30 9611 H 887.054 -2.03087 3.30722 0
M  V30 9612 H 885.155 -3.48571 1.31639 0
M  V30 9613 H 885.268 -3.56663 3.19887 0
M  V30 9614 H 883.632 -1.95934 1.62733 0
M  V30 9615 H 884.415 -1.31693 3.17036 0
M  V30 9616 N 886.86 -1.21182 -1.00761 0
M  V30 9617 C 887.77 -0.984691 -2.12934 0
M  V30 9618 C 888.786 0.0623657 -1.73888 0
M  V30 9619 O 889.962 -0.1271 -2.00999 0
M  V30 9620 C 887.027 -0.549447 -3.42319 0
M  V30 9621 C 886.088 -1.66841 -3.95553 0
M  V30 9622 C 885.321 -1.25384 -5.18763 0
M  V30 9623 O 885.544 -0.126333 -5.7026 0
M  V30 9624 O 884.478 -2.06475 -5.65377 0
M  V30 9625 H 888.304 -1.92413 -2.3497 0
M  V30 9626 H 885.889 -0.99647 -1.11314 0
M  V30 9627 H 887.771 -0.316384 -4.20211 0
M  V30 9628 H 886.446 0.361304 -3.21677 0
M  V30 9629 H 885.353 -1.95585 -3.189 0
M  V30 9630 H 886.686 -2.55649 -4.206 0
M  V30 9631 N 888.338 1.20213 -1.01915 0
M  V30 9632 C 889.248 2.26763 -0.601311 0
M  V30 9633 C 890.264 1.70185 0.362369 0
M  V30 9634 O 891.44 2.00165 0.222682 0
M  V30 9635 C 888.505 3.46662 0.0512879 0
M  V30 9636 C 887.566 4.18459 -0.958659 0
M  V30 9637 C 886.799 5.32634 -0.337107 0
M  V30 9638 O 887.022 5.63841 0.86251 0
M  V30 9639 O 885.956 5.9258 -1.05511 0
M  V30 9640 H 889.782 2.64725 -1.48844 0
M  V30 9641 H 887.367 1.2688 -0.788784 0
M  V30 9642 H 889.249 4.19345 0.41564 0
M  V30 9643 H 887.924 3.1057 0.912572 0
M  V30 9644 H 886.831 3.47937 -1.37442 0
M  V30 9645 H 888.164 4.58498 -1.78999 0
M  V30 9646 N 889.816 0.795718 1.36037 0
M  V30 9647 C 890.748 0.156336 2.28666 0
M  V30 9648 C 891.761 -0.638075 1.49775 0
M  V30 9649 O 892.95 -0.472222 1.7214 0
M  V30 9650 C 890.05 -0.801417 3.29288 0
M  V30 9651 C 889.223 -0.0557118 4.37365 0
M  V30 9652 C 888.282 -0.930338 5.1791 0
M  V30 9653 O 887.308 -0.385266 5.67895 0
M  V30 9654 N 888.51 -2.25382 5.34961 0
M  V30 9655 H 891.275 0.952033 2.84177 0
M  V30 9656 H 888.836 0.650189 1.48271 0
M  V30 9657 H 890.828 -1.39051 3.80062 0
M  V30 9658 H 889.398 -1.49796 2.74372 0
M  V30 9659 H 888.618 0.714508 3.87671 0
M  V30 9660 H 889.906 0.458633 5.06729 0
M  V30 9661 H 889.304 -2.72073 4.95977 0
M  V30 9662 H 887.861 -2.79241 5.88955 0
M  V30 9663 N 891.294 -1.47756 0.548274 0
M  V30 9664 C 892.542 -2.02089 0.0208542 0
M  V30 9665 C 892.863 -1.42589 -1.33017 0
M  V30 9666 O 892.133 -0.597825 -1.86555 0
M  V30 9667 H 890.713 -0.746985 0.00472023 0
M  V30 9668 H 893.375 -1.81262 0.716257 0
M  V30 9669 H 892.471 -3.12012 -0.0739016 0
M  V30 9670 N 892.772 -0.284283 -1.55015 0
M  V30 9671 C 893.997 0.335799 -2.04664 0
M  V30 9672 C 894.422 1.47999 -1.16094 0
M  V30 9673 O 893.78 1.8058 -0.161454 0
M  V30 9674 C 893.828 0.785615 -3.51938 0
M  V30 9675 O 892.932 1.89202 -3.66437 0
M  V30 9676 H 892.273 0.0680233 -0.660506 0
M  V30 9677 H 894.803 -0.421255 -2.00216 0
M  V30 9678 H 894.813 1.07892 -3.93476 0
M  V30 9679 H 893.488 -0.0514675 -4.15868 0
M  V30 9680 H 892.065 1.60055 -3.36804 0
M  V30 9681 N 894.251 1.57596 -0.0117121 0
M  V30 9682 C 895.198 2.09153 0.975897 0
M  V30 9683 C 896.168 0.989579 1.33404 0
M  V30 9684 O 897.353 1.26273 1.43038 0
M  V30 9685 C 894.493 2.60906 2.2588 0
M  V30 9686 C 893.606 3.85046 1.95866 0
M  V30 9687 C 892.741 4.25257 3.18323 0
M  V30 9688 C 891.78 5.42202 2.84049 0
M  V30 9689 N 890.917 5.77651 3.99079 0
M  V30 9690 H 895.757 2.93261 0.52931 0
M  V30 9691 H 893.294 1.44965 0.249691 0
M  V30 9692 H 895.252 2.88995 3.00895 0
M  V30 9693 H 893.882 1.79654 2.68187 0
M  V30 9694 H 892.934 3.63794 1.11168 0
M  V30 9695 H 894.246 4.70151 1.66611 0
M  V30 9696 H 893.4 4.5469 4.01674 0
M  V30 9697 H 892.139 3.38884 3.50726 0
M  V30 9698 H 891.144 5.1248 1.99107 0
M  V30 9699 H 892.369 6.3026 2.52881 0
M  V30 9700 H 890.315 4.94235 4.31356 0
M  V30 9701 H 890.232 6.57356 3.73388 0
M  V30 9702 H 891.5 6.11681 4.83183 0
M  V30 9703 N 895.729 -0.261212 1.5542 0
M  V30 9704 C 897.006 -1.01321 1.67312 0
M  V30 9705 C 897.386 -2.0388 0.547356 0
M  V30 9706 O 896.734 -2.24003 -0.451083 0
M  V30 9707 C 896.944 -1.65943 3.07024 0
M  V30 9708 C 898.292 -2.16666 3.65159 0
M  V30 9709 O 899.316 -1.75909 3.09733 0
M  V30 9710 O 898.175 -2.91455 4.62294 0
M  V30 9711 H 895.269 -0.470714 0.679968 0
M  V30 9712 H 897.815 -0.256133 1.67756 0
M  V30 9713 H 896.587 -0.916868 3.80407 0
M  V30 9714 H 896.21 -2.48308 3.1053 0
M  V30 9715 N 897.207 -1.48554 -0.526253 0
M  V30 9716 C 898.623 -1.34757 -0.855138 0
M  V30 9717 C 898.823 -0.36142 -1.98232 0
M  V30 9718 O 897.879 0.216026 -2.51574 0
M  V30 9719 C 899.192 -2.74877 -1.21915 0
M  V30 9720 C 900.74 -2.83393 -1.32882 0
M  V30 9721 C 901.215 -4.24223 -1.72624 0
M  V30 9722 N 902.706 -4.26913 -1.7972 0
M  V30 9723 C 903.441 -5.32824 -2.11863 0
M  V30 9724 N 902.937 -6.49008 -2.42405 0
M  V30 9725 N 904.73 -5.20221 -2.12901 0
M  V30 9726 H 896.881 -2.11284 0.217422 0
M  V30 9727 H 899.144 -0.947367 0.0346362 0
M  V30 9728 H 898.85 -3.48619 -0.464486 0
M  V30 9729 H 898.724 -3.0864 -2.16844 0
M  V30 9730 H 901.111 -2.09904 -2.07424 0
M  V30 9731 H 901.192 -2.53245 -0.360638 0
M  V30 9732 H 900.836 -4.98229 -0.986411 0
M  V30 9733 H 900.766 -4.51817 -2.70498 0
M  V30 9734 H 903.257 -3.4311 -1.58379 0
M  V30 9735 H 903.57 -7.25561 -2.66048 0
M  V30 9736 H 901.915 -6.52277 -2.39917 0
M  V30 9737 H 905.106 -4.28469 -1.885 0
M  V30 9738 H 905.279 -6.02861 -2.37619 0
M  V30 9739 N 898.685 0.775411 -1.37205 0
M  V30 9740 C 899.933 1.53081 -1.3195 0
M  V30 9741 C 900.254 1.9476 0.0966864 0
M  V30 9742 O 899.524 1.66019 1.03993 0
M  V30 9743 H 898.104 0.567762 -0.485444 0
M  V30 9744 H 900.766 0.92309 -1.71654 0
M  V30 9745 H 899.862 2.4319 -1.95614 0
M  V30 9746 N 900.163 1.21714 1.00117 0
M  V30 9747 C 901.093 1.00397 2.10815 0
M  V30 9748 C 902.074 -0.0723502 1.69946 0
M  V30 9749 O 903.259 0.0882398 1.93999 0
M  V30 9750 C 900.389 0.572001 3.42557 0
M  V30 9751 C 899.343 1.59331 3.97237 0
M  V30 9752 C 898.669 1.01746 5.2493 0
M  V30 9753 C 899.969 2.98117 4.28863 0
M  V30 9754 H 901.663 1.92983 2.28906 0
M  V30 9755 H 899.209 0.929273 1.10002 0
M  V30 9756 H 901.162 0.410018 4.19401 0
M  V30 9757 H 899.886 -0.38951 3.24269 0
M  V30 9758 H 898.545 1.74293 3.22518 0
M  V30 9759 H 898.193 0.0475491 5.02978 0
M  V30 9760 H 897.893 1.69969 5.62481 0
M  V30 9761 H 899.417 0.866881 6.04415 0
M  V30 9762 H 900.831 2.86578 4.96534 0
M  V30 9763 H 899.228 3.63389 4.77565 0
M  V30 9764 H 900.298 3.48674 3.36979 0
M  V30 9765 N 901.641 -1.19671 1.02551 0
M  V30 9766 C 902.918 -1.85014 0.634771 0
M  V30 9767 C 903.298 -1.91574 -0.886706 0
M  V30 9768 O 902.646 -1.43022 -1.78205 0
M  V30 9769 C 902.856 -3.24167 1.29292 0
M  V30 9770 C 904.204 -4.00363 1.41402 0
M  V30 9771 O 905.228 -3.33553 1.24983 0
M  V30 9772 O 904.087 -5.2003 1.6802 0
M  V30 9773 H 901.181 -0.797147 0.220196 0
M  V30 9774 H 903.727 -1.27188 1.12345 0
M  V30 9775 H 902.499 -3.14208 2.33215 0
M  V30 9776 H 902.122 -3.89634 0.791895 0
M  V30 9777 N 903.119 -0.802921 -1.35613 0
M  V30 9778 C 904.344 -0.392846 -2.03645 0
M  V30 9779 C 904.769 0.987075 -1.6012 0
M  V30 9780 O 904.127 1.63849 -0.776101 0
M  V30 9781 C 904.175 -0.480208 -3.57388 0
M  V30 9782 O 903.279 0.507751 -4.09262 0
M  V30 9783 H 902.62 -0.16464 -0.643265 0
M  V30 9784 H 905.15 -1.08779 -1.73287 0
M  V30 9785 H 905.16 -0.348683 -4.06507 0
M  V30 9786 H 903.835 -1.48675 -3.88418 0
M  V30 9787 H 902.412 0.336769 -3.71376 0
M  V30 9788 N 904.597 1.47463 -0.556102 0
M  V30 9789 C 905.845 2.02075 -0.0315712 0
M  V30 9790 C 906.166 1.43292 1.32259 0
M  V30 9791 O 905.436 0.60771 1.86236 0
M  V30 9792 H 904.016 0.74695 -0.0086816 0
M  V30 9793 H 906.678 1.80879 -0.725859 0
M  V30 9794 H 905.774 3.12047 0.0573538 0
M  V30 9795 N 906.075 0.2925 1.54862 0
M  V30 9796 C 907.038 -0.574423 2.21885 0
M  V30 9797 C 908.038 -1.06791 1.20218 0
M  V30 9798 O 909.228 -0.9653 1.45009 0
M  V30 9799 C 906.36 -1.79438 2.89853 0
M  V30 9800 H 907.553 0.0110319 2.99898 0
M  V30 9801 H 905.106 0.043256 1.5624 0
M  V30 9802 H 905.841 -2.4199 2.15897 0
M  V30 9803 H 905.626 -1.44827 3.64373 0
M  V30 9804 H 907.116 -2.41048 3.41007 0
M  V30 9805 N 907.553 -1.57587 0.0200696 0
M  V30 9806 C 908.463 -2.13119 -0.980676 0
M  V30 9807 C 909.479 -1.08124 -1.36328 0
M  V30 9808 O 910.655 -1.40134 -1.44653 0
M  V30 9809 C 907.72 -2.63991 -2.24743 0
M  V30 9810 C 906.781 -3.83667 -1.9261 0
M  V30 9811 C 906.014 -4.32103 -3.13246 0
M  V30 9812 O 906.237 -3.79758 -4.25606 0
M  V30 9813 O 905.171 -5.24047 -2.96072 0
M  V30 9814 H 908.997 -2.98887 -0.538528 0
M  V30 9815 H 906.582 -1.48055 -0.19999 0
M  V30 9816 H 908.464 -2.9682 -2.99125 0
M  V30 9817 H 907.139 -1.81311 -2.68157 0
M  V30 9818 H 906.046 -3.55778 -1.15641 0
M  V30 9819 H 907.379 -4.67482 -1.54019 0
M  V30 9820 N 909.032 0.252966 -1.55557 0
M  V30 9821 C 910.26 0.999565 -1.81153 0
M  V30 9822 C 910.675 1.79181 -0.594955 0
M  V30 9823 O 910.032 1.77208 0.436311 0
M  V30 9824 C 910.083 1.94227 -3.04891 0
M  V30 9825 O 909.804 1.18209 -4.21851 0
M  V30 9826 C 911.305 2.80536 -3.43241 0
M  V30 9827 H 908.525 0.294402 -0.602966 0
M  V30 9828 H 911.069 0.277686 -2.02606 0
M  V30 9829 H 909.224 2.6185 -2.85505 0
M  V30 9830 H 909.638 1.81922 -4.9194 0
M  V30 9831 H 911.112 3.42442 -4.32941 0
M  V30 9832 H 911.589 3.51337 -2.6355 0
M  V30 9833 H 912.195 2.18373 -3.64956 0
M  V30 9834 N 910.51 1.48831 0.518367 0
M  V30 9835 C 911.42 1.6692 1.64848 0
M  V30 9836 C 912.436 0.551711 1.65022 0
M  V30 9837 O 913.612 0.824251 1.83761 0
M  V30 9838 C 910.677 1.71559 3.01278 0
M  V30 9839 C 909.738 2.9502 3.11868 0
M  V30 9840 C 908.971 2.99428 4.4179 0
M  V30 9841 O 909.194 2.11914 5.29574 0
M  V30 9842 O 908.128 3.91719 4.5699 0
M  V30 9843 H 911.954 2.62623 1.52521 0
M  V30 9844 H 909.539 1.32368 0.692749 0
M  V30 9845 H 911.421 1.77064 3.82396 0
M  V30 9846 H 910.096 0.790316 3.13904 0
M  V30 9847 H 909.003 2.95042 2.30003 0
M  V30 9848 H 910.336 3.8697 3.04163 0
M  V30 9849 N 911.988 -0.768124 1.37614 0
M  V30 9850 C 912.898 -1.91249 1.35871 0
M  V30 9851 C 913.914 -1.7208 0.257786 0
M  V30 9852 O 915.09 -1.95253 0.493782 0
M  V30 9853 C 912.155 -3.26423 1.16829 0
M  V30 9854 C 911.216 -3.5822 2.36594 0
M  V30 9855 C 910.449 -4.86945 2.1845 0
M  V30 9856 O 910.672 -5.58258 1.17064 0
M  V30 9857 O 909.606 -5.17888 3.06718 0
M  V30 9858 H 913.432 -1.95671 2.32264 0
M  V30 9859 H 911.017 -0.911382 1.18382 0
M  V30 9860 H 912.899 -4.07269 1.08212 0
M  V30 9861 H 911.574 -3.22845 0.235123 0
M  V30 9862 H 910.481 -2.77594 2.50783 0
M  V30 9863 H 911.814 -3.66545 3.2849 0
M  V30 9864 N 913.466 -1.22244 -0.994698 0
M  V30 9865 C 914.376 -1.00722 -2.11878 0
M  V30 9866 C 915.392 0.043919 -1.73945 0
M  V30 9867 O 916.568 -0.148411 -2.00852 0
M  V30 9868 C 913.633 -0.585723 -3.41717 0
M  V30 9869 C 912.694 -1.71027 -3.93762 0
M  V30 9870 C 911.927 -1.30879 -5.17403 0
M  V30 9871 O 912.15 -0.18681 -5.70094 0
M  V30 9872 O 911.084 -2.1246 -5.63156 0
M  V30 9873 H 914.91 -1.94894 -2.32916 0
M  V30 9874 H 912.495 -1.00822 -1.10251 0
M  V30 9875 H 914.377 -0.360935 -4.19851 0
M  V30 9876 H 913.052 0.327166 -3.22042 0
M  V30 9877 H 911.959 -1.98956 -3.16808 0
M  V30 9878 H 913.292 -2.60096 -4.17865 0
M  V30 9879 N 914.944 1.19125 -1.03184 0
M  V30 9880 C 915.891 2.2245 -0.6152 0
M  V30 9881 C 916.861 1.61869 0.372502 0
M  V30 9882 O 918.046 1.88901 0.268491 0
M  V30 9883 C 915.186 3.45091 0.0248027 0
M  V30 9884 C 914.299 4.20044 -1.0093 0
M  V30 9885 C 913.434 5.30119 -0.338744 0
M  V30 9886 C 912.473 5.96833 -1.35855 0
M  V30 9887 N 911.61 6.98464 -0.713594 0
M  V30 9888 H 916.45 2.57445 -1.50086 0
M  V30 9889 H 913.987 1.26485 -0.751005 0
M  V30 9890 H 915.945 4.15149 0.413131 0
M  V30 9891 H 914.575 3.10742 0.874028 0
M  V30 9892 H 913.627 3.48901 -1.51566 0
M  V30 9893 H 914.939 4.65796 -1.78425 0
M  V30 9894 H 914.093 6.0661 0.104269 0
M  V30 9895 H 912.832 4.85446 0.468382 0
M  V30 9896 H 911.837 5.1909 -1.81179 0
M  V30 9897 H 913.062 6.4359 -2.16722 0
M  V30 9898 H 911.008 6.55959 0.0733863 0
M  V30 9899 H 910.925 7.42422 -1.42638 0
M  V30 9900 H 912.193 7.78943 -0.294681 0
M  V30 9901 N 916.422 0.810101 1.35185 0
M  V30 9902 C 917.699 0.315235 1.93043 0
M  V30 9903 C 918.079 -1.19567 1.73974 0
M  V30 9904 O 917.427 -1.99682 1.11083 0
M  V30 9905 C 917.637 0.730492 3.41269 0
M  V30 9906 C 918.985 0.721985 4.18417 0
M  V30 9907 O 920.009 0.672258 3.49799 0
M  V30 9908 O 918.868 0.783535 5.40854 0
M  V30 9909 H 915.962 0.0832774 0.822796 0
M  V30 9910 H 918.508 0.894034 1.4424 0
M  V30 9911 H 917.28 1.77169 3.48894 0
M  V30 9912 H 916.903 0.12669 3.97398 0
M  V30 9913 N 917.9 -1.47166 0.563914 0
M  V30 9914 C 919.128 -2.06846 0.0474287 0
M  V30 9915 C 919.543 -1.41557 -1.24928 0
M  V30 9916 O 918.9 -0.514376 -1.75101 0
M  V30 9917 C 918.951 -3.6121 -0.144831 0
M  V30 9918 O 918.672 -4.24052 1.10053 0
M  V30 9919 C 920.173 -4.37773 -0.69783 0
M  V30 9920 H 917.393 -0.669217 0.0488896 0
M  V30 9921 H 919.937 -1.89072 0.779235 0
M  V30 9922 H 918.092 -3.78474 -0.82679 0
M  V30 9923 H 918.506 -5.16677 0.902481 0
M  V30 9924 H 919.98 -5.46438 -0.781616 0
M  V30 9925 H 920.457 -4.04517 -1.71063 0
M  V30 9926 H 921.063 -4.25269 -0.0513516 0
M  V30 9927 N 919.378 -0.300708 -1.54705 0
M  V30 9928 C 920.624 0.301982 -2.01146 0
M  V30 9929 C 920.979 1.51548 -1.18537 0
M  V30 9930 O 920.272 1.89914 -0.253656 0
M  V30 9931 C 920.466 0.710108 -3.50275 0
M  V30 9932 C 920.295 -0.462291 -4.47318 0
M  V30 9933 C 919.065 -0.954214 -4.96208 0
M  V30 9934 C 921.263 -1.30716 -4.97411 0
M  V30 9935 N 919.245 -2.09341 -5.77105 0
M  V30 9936 C 920.616 -2.29384 -5.76006 0
M  V30 9937 C 922.671 -1.33756 -4.79597 0
M  V30 9938 C 921.374 -3.30869 -6.38685 0
M  V30 9939 C 923.4 -2.34099 -5.43094 0
M  V30 9940 C 922.762 -3.31498 -6.21521 0
M  V30 9941 H 918.861 0.0749709 -0.778398 0
M  V30 9942 H 921.445 -0.430557 -1.8988 0
M  V30 9943 H 919.616 1.41182 -3.61832 0
M  V30 9944 H 921.348 1.29231 -3.83512 0
M  V30 9945 H 918.103 -0.529238 -4.70634 0
M  V30 9946 H 918.527 -2.66739 -6.22237 0
M  V30 9947 H 923.169 -0.598284 -4.18546 0
M  V30 9948 H 920.887 -4.05717 -6.9887 0
M  V30 9949 H 924.473 -2.37225 -5.31239 0
M  V30 9950 H 923.353 -4.07872 -6.69784 0
M  V30 9951 N 920.856 1.57574 -0.0284266 0
M  V30 9952 C 921.766 2.13637 0.96936 0
M  V30 9953 C 922.782 1.08845 1.35752 0
M  V30 9954 O 923.958 1.40899 1.43908 0
M  V30 9955 C 921.023 2.65179 2.2334 0
M  V30 9956 C 920.084 3.84683 1.90572 0
M  V30 9957 C 919.317 4.33758 3.1095 0
M  V30 9958 O 919.54 3.82009 4.23586 0
M  V30 9959 O 918.474 5.2561 2.93288 0
M  V30 9960 H 922.3 2.99169 0.52267 0
M  V30 9961 H 919.885 1.48159 0.192135 0
M  V30 9962 H 921.767 2.98402 2.97547 0
M  V30 9963 H 920.442 1.82731 2.67191 0
M  V30 9964 H 919.349 3.56386 1.13753 0
M  V30 9965 H 920.682 4.68292 1.51538 0
M  V30 9966 N 922.334 -0.244713 1.55689 0
M  V30 9967 C 923.244 -1.32447 1.93636 0
M  V30 9968 C 924.26 -1.52541 0.837086 0
M  V30 9969 O 925.436 -1.66121 1.13867 0
M  V30 9970 C 922.501 -2.65864 2.22525 0
M  V30 9971 C 921.562 -2.54273 3.45896 0
M  V30 9972 C 920.795 -3.81327 3.73397 0
M  V30 9973 O 921.018 -4.83307 3.02936 0
M  V30 9974 O 919.952 -3.79829 4.66919 0
M  V30 9975 H 923.778 -1.03255 2.85608 0
M  V30 9976 H 921.363 -0.445652 1.42598 0
M  V30 9977 H 923.245 -3.447 2.42404 0
M  V30 9978 H 921.92 -2.94784 1.33731 0
M  V30 9979 H 920.827 -1.73715 3.31321 0
M  V30 9980 H 922.16 -2.30297 4.34999 0
M  V30 9981 N 923.813 -1.49104 -0.510467 0
M  V30 9982 C 924.76 -1.65074 -1.61305 0
M  V30 9983 C 925.73 -0.492362 -1.58635 0
M  V30 9984 O 926.915 -0.718241 -1.76765 0
M  V30 9985 C 924.055 -1.71457 -2.99493 0
M  V30 9986 C 923.168 -2.98536 -3.12251 0
M  V30 9987 C 922.303 -2.95957 -4.41116 0
M  V30 9988 C 921.342 -4.17655 -4.47471 0
M  V30 9989 N 920.479 -4.13041 -5.67751 0
M  V30 9990 H 925.319 -2.59222 -1.46996 0
M  V30 9991 H 922.856 -1.28535 -0.715346 0
M  V30 9992 H 924.814 -1.7314 -3.79577 0
M  V30 9993 H 923.444 -0.807834 -3.12528 0
M  V30 9994 H 922.496 -3.06509 -2.25292 0
M  V30 9995 H 923.808 -3.88527 -3.12807 0
M  V30 9996 H 922.962 -2.96149 -5.2951 0
M  V30 9997 H 921.701 -2.03728 -4.4311 0
M  V30 9998 H 920.706 -4.17717 -3.57481 0
M  V30 9999 H 921.931 -5.11066 -4.472 0
M  V30 10000 H 919.877 -3.23643 -5.70606 0
M  V30 10001 H 919.794 -4.96757 -5.69884 0
M  V30 10002 H 921.062 -4.17322 -6.58379 0
M  V30 10003 N 925.291 0.760815 -1.38019 0
M  V30 10004 C 926.238 1.8744 -1.34666 0
M  V30 10005 C 927.208 1.64762 -0.210386 0
M  V30 10006 O 928.393 1.86528 -0.401479 0
M  V30 10007 C 925.533 3.24648 -1.17037 0
M  V30 10008 C 924.646 3.59206 -2.3999 0
M  V30 10009 C 923.781 4.8568 -2.15148 0
M  V30 10010 C 922.82 5.13002 -3.3391 0
M  V30 10011 N 921.957 6.30668 -3.08549 0
M  V30 10012 H 926.797 1.8964 -2.29871 0
M  V30 10013 H 924.334 0.927004 -1.14215 0
M  V30 10014 H 926.292 4.03814 -1.04834 0
M  V30 10015 H 924.922 3.21793 -0.254758 0
M  V30 10016 H 923.974 2.74939 -2.62893 0
M  V30 10017 H 925.286 3.75328 -3.28527 0
M  V30 10018 H 924.44 5.72773 -2.00039 0
M  V30 10019 H 923.179 4.71682 -1.23965 0
M  V30 10020 H 922.184 4.2438 -3.49545 0
M  V30 10021 H 923.409 5.28901 -4.25958 0
M  V30 10022 H 921.355 6.18008 -2.20006 0
M  V30 10023 H 921.272 6.47257 -3.90633 0
M  V30 10024 H 922.54 7.20669 -2.9708 0
M  V30 10025 N 926.769 1.22769 0.988202 0
M  V30 10026 C 927.701 0.959757 2.08138 0
M  V30 10027 C 928.714 -0.0633787 1.62677 0
M  V30 10028 O 929.903 0.171203 1.77677 0
M  V30 10029 C 927.003 0.422724 3.36253 0
M  V30 10030 C 926.176 1.50419 4.10722 0
M  V30 10031 C 925.235 0.973407 5.17118 0
M  V30 10032 O 924.261 1.66066 5.44436 0
M  V30 10033 N 925.463 -0.202787 5.80146 0
M  V30 10034 H 928.228 1.9009 2.31702 0
M  V30 10035 H 925.789 1.13522 1.15431 0
M  V30 10036 H 927.781 0.0528514 4.04665 0
M  V30 10037 H 926.351 -0.423642 3.09716 0
M  V30 10038 H 925.571 2.04718 3.36874 0
M  V30 10039 H 926.859 2.23169 4.57245 0
M  V30 10040 H 926.257 -0.777856 5.60327 0
M  V30 10041 H 924.814 -0.513998 6.4977 0
M  V30 10042 N 928.247 -1.18576 1.03814 0
M  V30 10043 C 929.663 -1.4051 0.756909 0
M  V30 10044 C 929.863 -1.9057 -0.654631 0
M  V30 10045 O 928.919 -2.0884 -1.41922 0
M  V30 10046 C 930.232 -2.4081 1.80087 0
M  V30 10047 C 931.78 -2.54541 1.82148 0
M  V30 10048 C 932.255 -3.58102 2.85529 0
M  V30 10049 N 933.746 -3.65607 2.84404 0
M  V30 10050 C 934.481 -4.45458 3.61047 0
M  V30 10051 N 933.977 -5.28937 4.47434 0
M  V30 10052 N 935.77 -4.40196 3.49548 0
M  V30 10053 H 927.921 -0.844075 1.94908 0
M  V30 10054 H 930.184 -0.433287 0.843188 0
M  V30 10055 H 929.89 -2.1107 2.81322 0
M  V30 10056 H 929.764 -3.4012 1.63089 0
M  V30 10057 H 932.151 -2.83598 0.815855 0
M  V30 10058 H 932.232 -1.55352 2.03223 0
M  V30 10059 H 931.876 -3.29786 3.86269 0
M  V30 10060 H 931.806 -4.56963 2.6171 0
M  V30 10061 H 934.297 -3.05994 2.21756 0
M  V30 10062 H 934.61 -5.8701 5.02632 0
M  V30 10063 H 932.955 -5.28366 4.51503 0
M  V30 10064 H 936.146 -3.74026 2.81464 0
M  V30 10065 H 936.319 -5.02186 4.09528 0
M  V30 10066 N 929.725 -0.817259 -1.34754 0
M  V30 10067 C 930.635 -0.236946 -2.334 0
M  V30 10068 C 931.651 0.625685 -1.62361 0
M  V30 10069 O 932.827 0.534921 -1.94166 0
M  V30 10070 C 929.892 0.596215 -3.41535 0
M  V30 10071 C 928.953 -0.288154 -4.28332 0
M  V30 10072 C 928.186 0.505337 -5.31302 0
M  V30 10073 O 928.409 1.73912 -5.43241 0
M  V30 10074 O 927.343 -0.109374 -6.01801 0
M  V30 10075 H 931.169 -1.05327 -2.84851 0
M  V30 10076 H 928.754 -0.579275 -1.37713 0
M  V30 10077 H 930.636 1.07041 -4.07578 0
M  V30 10078 H 929.311 1.38997 -2.92338 0
M  V30 10079 H 928.218 -0.809724 -3.65232 0
M  V30 10080 H 929.551 -1.04612 -4.80955 0
M  V30 10081 N 931.203 1.46865 -0.571711 0
M  V30 10082 C 932.166 2.28658 0.157499 0
M  V30 10083 C 933.166 1.37773 0.829172 0
M  V30 10084 O 934.356 1.6026 0.682811 0
M  V30 10085 C 931.488 3.17859 1.23202 0
M  V30 10086 H 932.681 2.94603 -0.561171 0
M  V30 10087 H 930.234 1.52793 -0.329229 0
M  V30 10088 H 930.969 2.56637 1.98262 0
M  V30 10089 H 930.754 3.84762 0.755031 0
M  V30 10090 H 932.244 3.7945 1.74378 0
M  V30 10091 N 932.681 0.308908 1.54543 0
M  V30 10092 C 933.591 -0.572939 2.27496 0
M  V30 10093 C 934.607 -1.14171 1.31305 0
M  V30 10094 O 935.783 -1.16481 1.64299 0
M  V30 10095 C 932.848 -1.72483 3.0075 0
M  V30 10096 C 931.909 -1.18934 4.12496 0
M  V30 10097 C 931.142 -2.28634 4.82247 0
M  V30 10098 O 931.365 -3.48691 4.5141 0
M  V30 10099 O 930.299 -1.94879 5.69478 0
M  V30 10100 H 934.125 0.0190877 3.03694 0
M  V30 10101 H 931.71 0.0750943 1.49211 0
M  V30 10102 H 933.592 -2.39578 3.46671 0
M  V30 10103 H 932.267 -2.30332 2.2744 0
M  V30 10104 H 931.174 -0.483904 3.70957 0
M  V30 10105 H 932.507 -0.656185 4.87806 0
M  V30 10106 N 934.159 -1.57557 0.0367827 0
M  V30 10107 C 935.575 -1.56366 -0.31967 0
M  V30 10108 C 935.775 -1.04313 -1.72398 0
M  V30 10109 O 934.831 -0.693278 -2.42796 0
M  V30 10110 C 936.144 -3.00267 -0.161274 0
M  V30 10111 C 937.692 -3.12128 -0.233464 0
M  V30 10112 C 938.167 -4.57882 -0.103767 0
M  V30 10113 N 939.658 -4.62922 -0.160506 0
M  V30 10114 C 940.393 -5.73338 -0.0840493 0
M  V30 10115 N 939.889 -6.92786 0.043933 0
M  V30 10116 N 941.682 -5.61929 -0.138592 0
M  V30 10117 H 933.833 -1.8972 0.954996 0
M  V30 10118 H 936.096 -0.87304 0.369467 0
M  V30 10119 H 935.802 -3.42331 0.80639 0
M  V30 10120 H 935.676 -3.65599 -0.928304 0
M  V30 10121 H 938.063 -2.69972 -1.19159 0
M  V30 10122 H 938.144 -2.49503 0.564075 0
M  V30 10123 H 937.788 -5.0072 0.850973 0
M  V30 10124 H 937.718 -5.18496 -0.920268 0
M  V30 10125 H 940.209 -3.7701 -0.259257 0
M  V30 10126 H 940.522 -7.72741 0.095372 0
M  V30 10127 H 938.867 -6.94955 0.0788211 0
M  V30 10128 H 942.058 -4.67499 -0.237031 0
M  V30 10129 H 942.231 -6.47956 -0.075546 0
M  V30 10130 N 935.637 0.236453 -1.55816 0
M  V30 10131 C 936.567 1.29639 -1.94206 0
M  V30 10132 C 937.548 1.49667 -0.808319 0
M  V30 10133 O 938.733 1.621 -1.06945 0
M  V30 10134 C 935.863 2.64914 -2.24584 0
M  V30 10135 C 934.817 2.59565 -3.40308 0
M  V30 10136 C 934.143 3.98732 -3.56254 0
M  V30 10137 C 935.443 2.15642 -4.75706 0
M  V30 10138 H 937.137 0.977552 -2.82992 0
M  V30 10139 H 934.683 0.468804 -1.36155 0
M  V30 10140 H 936.636 3.39209 -2.50031 0
M  V30 10141 H 935.36 2.98455 -1.32636 0
M  V30 10142 H 934.019 1.87728 -3.14887 0
M  V30 10143 H 933.667 4.29556 -2.61707 0
M  V30 10144 H 933.367 3.96039 -4.34082 0
M  V30 10145 H 934.891 4.74711 -3.84033 0
M  V30 10146 H 936.305 2.79673 -5.00456 0
M  V30 10147 H 934.702 2.24039 -5.56711 0
M  V30 10148 H 935.772 1.10831 -4.72064 0
M  V30 10149 N 937.115 1.49373 0.502552 0
M  V30 10150 C 938.526 1.52 1.0841 0
M  V30 10151 C 938.877 0.305317 1.9381 0
M  V30 10152 O 938.002 -0.585023 2.08342 0
M  V30 10153 C 938.597 2.75437 1.97281 0
M  V30 10154 C 937.156 2.80848 2.50602 0
M  V30 10155 C 936.303 2.45894 1.28186 0
M  V30 10156 H 939.254 1.56092 0.286533 0
M  V30 10157 H 939.275 2.55511 2.81947 0
M  V30 10158 H 938.787 3.63827 1.35098 0
M  V30 10159 H 936.888 1.96735 3.16427 0
M  V30 10160 H 937.001 3.82979 2.8786 0
M  V30 10161 H 935.365 1.97639 1.60657 0
M  V30 10162 H 936.148 3.36556 0.677139 0
M  V30 10163 N 938.594 -0.753485 1.38421 0
M  V30 10164 C 939.871 -1.50318 1.25155 0
M  V30 10165 C 940.251 -2.10588 -0.147003 0
M  V30 10166 O 939.599 -1.97071 -1.15651 0
M  V30 10167 C 939.809 -2.56946 2.36177 0
M  V30 10168 C 941.157 -3.23846 2.74607 0
M  V30 10169 O 942.181 -2.67251 2.3549 0
M  V30 10170 O 941.04 -4.2621 3.42064 0
M  V30 10171 H 938.134 -0.666624 0.48943 0
M  V30 10172 H 940.68 -0.788887 1.50249 0
M  V30 10173 H 939.452 -2.1066 3.29754 0
M  V30 10174 H 939.075 -3.35956 2.12648 0
M  V30 10175 N 940.072 -1.23292 -0.981677 0
M  V30 10176 C 941.488 -0.995295 -1.24764 0
M  V30 10177 C 941.688 0.304379 -1.99188 0
M  V30 10178 O 940.744 1.02414 -2.30798 0
M  V30 10179 C 942.057 -2.20135 -2.04844 0
M  V30 10180 C 943.605 -2.24612 -2.17988 0
M  V30 10181 C 944.08 -3.448 -3.01458 0
M  V30 10182 N 945.571 -3.45031 -3.09044 0
M  V30 10183 C 946.306 -4.34683 -3.7395 0
M  V30 10184 N 945.802 -5.34569 -4.4069 0
M  V30 10185 N 947.595 -4.22429 -3.70823 0
M  V30 10186 H 939.746 -2.06834 -0.483052 0
M  V30 10187 H 942.009 -0.906929 -0.276014 0
M  V30 10188 H 941.715 -3.14446 -1.57532 0
M  V30 10189 H 941.589 -2.21115 -3.05594 0
M  V30 10190 H 943.976 -1.30841 -2.64508 0
M  V30 10191 H 944.057 -2.27664 -1.16631 0
M  V30 10192 H 943.701 -4.38877 -2.55635 0
M  V30 10193 H 943.631 -3.38988 -4.02982 0
M  V30 10194 H 946.122 -2.72759 -2.61555 0
M  V30 10195 H 946.435 -5.99236 -4.87991 0
M  V30 10196 H 944.78 -5.3847 -4.39403 0
M  V30 10197 H 947.971 -3.43639 -3.17851 0
M  V30 10198 H 948.144 -4.92501 -4.21126 0
M  V30 10199 N 941.55 1.18024 -1.04442 0
M  V30 10200 C 942.778 1.92032 -0.770161 0
M  V30 10201 C 943.193 1.76391 0.673181 0
M  V30 10202 O 942.55 1.09604 1.45922 0
M  V30 10203 C 942.601 3.43328 -1.13173 0
M  V30 10204 O 942.322 3.5848 -2.51841 0
M  V30 10205 C 943.823 4.34427 -0.882523 0
M  V30 10206 H 941.043 0.609518 -0.280586 0
M  V30 10207 H 943.587 1.49711 -1.39308 0
M  V30 10208 H 941.742 3.83423 -0.553704 0
M  V30 10209 H 942.156 4.52166 -2.65794 0
M  V30 10210 H 943.63 5.39123 -1.18533 0
M  V30 10211 H 944.107 4.3882 0.18257 0
M  V30 10212 H 944.713 4.00035 -1.44403 0
M  V30 10213 N 943.028 0.824394 1.34319 0
M  V30 10214 C 943.938 0.24932 2.33271 0
M  V30 10215 C 944.954 -0.617066 1.62691 0
M  V30 10216 O 946.13 -0.524616 1.94447 0
M  V30 10217 C 943.195 -0.578094 3.41846 0
M  V30 10218 C 942.256 0.310866 4.28173 0
M  V30 10219 C 941.489 -0.477153 5.31563 0
M  V30 10220 O 941.712 -1.71028 5.44156 0
M  V30 10221 O 940.646 0.141287 6.01734 0
M  V30 10222 H 944.472 1.06837 2.84288 0
M  V30 10223 H 942.057 0.58657 1.37403 0
M  V30 10224 H 943.939 -1.04878 4.0814 0
M  V30 10225 H 942.614 -1.37444 2.93071 0
M  V30 10226 H 941.521 0.829081 3.64797 0
M  V30 10227 H 942.854 1.07161 4.80393 0
M  V30 10228 N 944.506 -1.46559 0.579492 0
M  V30 10229 C 945.469 -2.28739 -0.145371 0
M  V30 10230 C 946.469 -1.38211 -0.821854 0
M  V30 10231 O 947.659 -1.6062 -0.674302 0
M  V30 10232 C 944.791 -3.18507 -1.21515 0
M  V30 10233 H 945.984 -2.94301 0.576786 0
M  V30 10234 H 943.537 -1.52616 0.337327 0
M  V30 10235 H 944.272 -2.57685 -1.96899 0
M  V30 10236 H 944.057 -3.85157 -0.734616 0
M  V30 10237 H 945.547 -3.80369 -1.72363 0
M  V30 10238 N 945.984 -0.3171 -1.54377 0
M  V30 10239 C 947.4 0.035766 -1.5956 0
M  V30 10240 C 947.6 1.51038 -1.33378 0
M  V30 10241 O 946.656 2.26546 -1.11505 0
M  V30 10242 C 947.969 -0.376652 -2.98332 0
M  V30 10243 C 949.517 -0.326765 -3.1129 0
M  V30 10244 C 949.992 -0.714247 -4.52396 0
M  V30 10245 N 951.483 -0.667402 -4.58367 0
M  V30 10246 C 952.218 -0.939494 -5.65651 0
M  V30 10247 N 951.714 -1.27839 -6.80903 0
M  V30 10248 N 953.507 -0.865484 -5.55397 0
M  V30 10249 H 945.658 -1.27794 -1.69654 0
M  V30 10250 H 947.921 -0.5192 -0.79318 0
M  V30 10251 H 947.627 -1.40381 -3.22469 0
M  V30 10252 H 947.501 0.261611 -3.76292 0
M  V30 10253 H 949.888 0.69117 -2.86892 0
M  V30 10254 H 949.969 -0.999873 -2.35449 0
M  V30 10255 H 949.613 -1.73007 -4.77526 0
M  V30 10256 H 949.543 -0.0188962 -5.26597 0
M  V30 10257 H 952.034 -0.417062 -3.75592 0
M  V30 10258 H 952.347 -1.47155 -7.5866 0
M  V30 10259 H 950.692 -1.31658 -6.82416 0
M  V30 10260 H 953.883 -0.600265 -4.64235 0
M  V30 10261 H 954.056 -1.0809 -6.38921 0
M  V30 10262 N 947.462 1.57535 -0.0451378 0
M  V30 10263 C 948.372 2.14653 0.946646 0
M  V30 10264 C 949.388 1.10279 1.3459 0
M  V30 10265 O 950.564 1.42417 1.42405 0
M  V30 10266 C 947.629 2.67533 2.20515 0
M  V30 10267 C 946.69 3.86682 1.86481 0
M  V30 10268 C 945.923 4.37031 3.06332 0
M  V30 10269 O 946.146 3.86481 4.1951 0
M  V30 10270 O 945.08 5.28691 2.87697 0
M  V30 10271 H 948.906 2.99706 0.49091 0
M  V30 10272 H 946.491 1.48355 0.17641 0
M  V30 10273 H 948.373 3.01542 2.94365 0
M  V30 10274 H 947.048 1.85554 2.65238 0
M  V30 10275 H 945.955 3.57573 1.09966 0
M  V30 10276 H 947.288 4.69873 1.46562 0
M  V30 10277 N 948.94 -0.228186 1.55939 0
M  V30 10278 C 949.85 -1.30386 1.9503 0
M  V30 10279 C 950.866 -1.51645 0.853218 0
M  V30 10280 O 952.042 -1.64904 1.15623 0
M  V30 10281 C 949.107 -2.63489 2.25332 0
M  V30 10282 C 948.168 -2.5059 3.48573 0
M  V30 10283 C 947.401 -3.77345 3.7742 0
M  V30 10284 O 947.624 -4.80067 3.08045 0
M  V30 10285 O 946.558 -3.74855 4.70922 0
M  V30 10286 H 950.384 -1.0022 2.86687 0
M  V30 10287 H 947.969 -0.430503 1.43063 0
M  V30 10288 H 949.851 -3.4211 2.46046 0
M  V30 10289 H 948.526 -2.93349 1.3685 0
M  V30 10290 H 947.433 -1.70191 3.33145 0
M  V30 10291 H 948.766 -2.2567 4.37417 0
M  V30 10292 N 950.418 -1.49637 -0.494624 0
M  V30 10293 C 951.643 -1.63431 -1.27691 0
M  V30 10294 C 952.068 -0.30813 -1.85559 0
M  V30 10295 O 951.426 0.725083 -1.66169 0
M  V30 10296 C 951.474 -2.71043 -2.3784 0
M  V30 10297 O 950.578 -2.3066 -3.41862 0
M  V30 10298 H 949.919 -0.546804 -0.376698 0
M  V30 10299 H 952.449 -1.95866 -0.591413 0
M  V30 10300 H 952.459 -2.93406 -2.83508 0
M  V30 10301 H 951.134 -3.67306 -1.95088 0
M  V30 10302 H 949.711 -2.18652 -3.02069 0
M  V30 10303 N 951.896 0.746133 -1.38819 0
M  V30 10304 C 952.806 1.89063 -1.38897 0
M  V30 10305 C 953.822 1.71648 -0.28513 0
M  V30 10306 O 954.998 1.94443 -0.524783 0
M  V30 10307 C 952.063 3.24523 -1.22007 0
M  V30 10308 C 951.124 3.54411 -2.42263 0
M  V30 10309 C 950.357 4.83408 -2.26169 0
M  V30 10310 O 950.58 5.56325 -1.25931 0
M  V30 10311 O 949.514 5.12943 -3.14918 0
M  V30 10312 H 953.34 1.91951 -2.35347 0
M  V30 10313 H 950.925 0.892433 -1.19816 0
M  V30 10314 H 952.807 4.05496 -1.14677 0
M  V30 10315 H 951.482 3.2243 -0.286455 0
M  V30 10316 H 950.389 2.73569 -2.55168 0
M  V30 10317 H 951.722 3.61273 -3.3428 0
M  V30 10318 N 953.375 1.23811 0.975125 0
M  V30 10319 C 954.786 1.0675 1.53171 0
M  V30 10320 C 955.137 -0.363475 1.92804 0
M  V30 10321 O 954.262 -1.25089 1.76583 0
M  V30 10322 C 954.857 1.93161 2.78342 0
M  V30 10323 C 953.416 1.80346 3.30382 0
M  V30 10324 C 952.563 1.88544 2.03338 0
M  V30 10325 H 955.514 1.37396 0.79423 0
M  V30 10326 H 955.535 1.45951 3.51395 0
M  V30 10327 H 955.047 2.97302 2.49465 0
M  V30 10328 H 953.148 0.790077 3.64127 0
M  V30 10329 H 953.261 2.64026 3.99784 0
M  V30 10330 H 951.625 1.32186 2.17713 0
M  V30 10331 H 952.408 2.94252 1.76836 0
M  V30 10332 N 954.853 -1.17469 1.05066 0
M  V30 10333 C 955.763 -2.25089 0.661222 0
M  V30 10334 C 956.779 -1.71086 -0.31712 0
M  V30 10335 O 957.955 -2.00685 -0.169534 0
M  V30 10336 C 955.02 -3.46676 0.0406415 0
M  V30 10337 C 954.081 -4.15771 1.06927 0
M  V30 10338 C 953.314 -5.31553 0.478208 0
M  V30 10339 O 953.537 -5.6593 -0.712714 0
M  V30 10340 O 952.471 -5.89574 1.21185 0
M  V30 10341 H 956.297 -2.60685 1.5581 0
M  V30 10342 H 953.882 -1.24744 0.822147 0
M  V30 10343 H 955.764 -4.203 -0.304312 0
M  V30 10344 H 954.439 -3.1288 -0.829909 0
M  V30 10345 H 953.346 -3.44171 1.46619 0
M  V30 10346 H 954.679 -4.53591 1.91092 0
M  V30 10347 N 956.331 -0.831506 -1.3388 0
M  V30 10348 C 957.577 -0.424302 -1.98312 0
M  V30 10349 C 957.91 1.01211 -1.65741 0
M  V30 10350 O 957.185 1.70636 -0.933464 0
M  V30 10351 C 957.468 -0.636815 -3.54424 0
M  V30 10352 C 957.321 -2.11997 -3.96708 0
M  V30 10353 C 958.64 -0.0782411 -4.4003 0
M  V30 10354 H 955.759 -0.155637 -0.720379 0
M  V30 10355 H 958.401 -1.04566 -1.58638 0
M  V30 10356 H 956.551 -0.107907 -3.8835 0
M  V30 10357 H 958.223 -2.71317 -3.73075 0
M  V30 10358 H 956.466 -2.60723 -3.46707 0
M  V30 10359 H 957.137 -2.21944 -5.05416 0
M  V30 10360 H 959.613 -0.530243 -4.12708 0
M  V30 10361 H 958.489 -0.256676 -5.483 0
M  V30 10362 H 958.75 1.01745 -4.30233 0
M  V30 10363 N 957.809 1.4625 -0.587256 0
M  V30 10364 C 958.756 2.30354 0.143384 0
M  V30 10365 C 959.726 1.40891 0.879716 0
M  V30 10366 O 960.911 1.69837 0.869486 0
M  V30 10367 C 958.051 3.25441 1.14815 0
M  V30 10368 C 957.164 4.30004 0.414792 0
M  V30 10369 C 956.299 5.12214 1.40748 0
M  V30 10370 C 955.338 6.08523 0.660786 0
M  V30 10371 N 954.475 6.83585 1.60176 0
M  V30 10372 H 959.315 2.92304 -0.579866 0
M  V30 10373 H 956.852 1.44055 -0.29777 0
M  V30 10374 H 958.81 3.79018 1.7436 0
M  V30 10375 H 957.44 2.6529 1.83906 0
M  V30 10376 H 956.492 3.79248 -0.295787 0
M  V30 10377 H 957.804 4.98515 -0.168738 0
M  V30 10378 H 956.958 5.70091 2.0756 0
M  V30 10379 H 955.697 4.43675 2.02494 0
M  V30 10380 H 954.702 5.49796 -0.0210864 0
M  V30 10381 H 955.927 6.79083 0.0486551 0
M  V30 10382 H 953.873 6.17752 2.20724 0
M  V30 10383 H 953.79 7.48373 1.07115 0
M  V30 10384 H 955.058 7.46016 2.26009 0
M  V30 10385 N 959.287 0.325282 1.54207 0
M  V30 10386 C 960.197 -0.548778 2.28091 0
M  V30 10387 C 961.213 -1.12772 1.32508 0
M  V30 10388 O 962.389 -1.14732 1.65525 0
M  V30 10389 C 959.454 -1.69284 3.02562 0
M  V30 10390 C 958.515 -1.14553 4.13734 0
M  V30 10391 C 957.748 -2.23506 4.84645 0
M  V30 10392 O 957.971 -3.43884 4.55082 0
M  V30 10393 O 956.905 -1.88828 5.71513 0
M  V30 10394 H 960.731 0.0512974 3.03657 0
M  V30 10395 H 958.316 0.0909159 1.49123 0
M  V30 10396 H 960.198 -2.35887 3.49192 0
M  V30 10397 H 958.873 -2.27906 2.2987 0
M  V30 10398 H 957.78 -0.444532 3.71449 0
M  V30 10399 H 959.113 -0.60441 4.88475 0
M  V30 10400 N 960.765 -1.57509 0.0534917 0
M  V30 10401 C 962.042 -1.84137 -0.659767 0
M  V30 10402 C 962.422 -0.942362 -1.88899 0
M  V30 10403 O 961.77 -0.00398566 -2.285 0
M  V30 10404 C 961.98 -3.33919 -1.01486 0
M  V30 10405 C 963.328 -4.00989 -1.39616 0
M  V30 10406 O 964.352 -3.38557 -1.10713 0
M  V30 10407 O 963.211 -5.11071 -1.93567 0
M  V30 10408 H 960.305 -0.760081 -0.325893 0
M  V30 10409 H 962.851 -1.69497 0.0830315 0
M  V30 10410 H 961.623 -3.91046 -0.141041 0
M  V30 10411 H 961.246 -3.53755 -1.81503 0
M  V30 10412 N 962.243 0.219913 -1.56058 0
M  V30 10413 C 963.489 0.945463 -1.79412 0
M  V30 10414 C 963.822 1.83922 -0.62341 0
M  V30 10415 O 963.097 1.90806 0.377256 0
M  V30 10416 C 963.38 1.783 -3.1286 0
M  V30 10417 C 963.233 0.915626 -4.40382 0
M  V30 10418 C 964.552 2.76045 -3.42764 0
M  V30 10419 H 961.671 0.342288 -0.652693 0
M  V30 10420 H 964.313 0.214235 -1.88788 0
M  V30 10421 H 962.463 2.40642 -3.04998 0
M  V30 10422 H 964.135 0.30882 -4.60265 0
M  V30 10423 H 962.378 0.221124 -4.33236 0
M  V30 10424 H 963.049 1.53607 -5.30197 0
M  V30 10425 H 965.525 2.23838 -3.50764 0
M  V30 10426 H 964.401 3.31748 -4.37304 0
M  V30 10427 H 964.662 3.53866 -2.65012 0
M  V30 10428 N 963.721 1.49897 0.486681 0
M  V30 10429 C 964.97 1.59349 1.23656 0
M  V30 10430 C 965.283 0.292024 1.93408 0
M  V30 10431 O 966.489 0.265258 2.70201 0
M  V30 10432 C 964.945 2.81215 2.24602 0
M  V30 10433 C 964.553 4.18177 1.60725 0
M  V30 10434 C 966.297 3.00004 3.00329 0
M  V30 10435 C 964.204 5.31247 2.59866 0
M  V30 10436 H 963.134 0.593363 0.465227 0
M  V30 10437 H 965.785 1.76306 0.508769 0
M  V30 10438 H 964.167 2.57783 3.00606 0
M  V30 10439 H 965.341 4.51802 0.90616 0
M  V30 10440 H 963.656 4.04864 0.973362 0
M  V30 10441 H 966.253 3.81649 3.74497 0
M  V30 10442 H 966.596 2.1112 3.58795 0
M  V30 10443 H 967.129 3.23544 2.3144 0
M  V30 10444 H 963.868 6.22236 2.06161 0
M  V30 10445 H 963.388 5.02059 3.28172 0
M  V30 10446 H 965.067 5.61177 3.22009 0
M  V30 10447 N 965.199 -0.738761 1.39212 0
M  V30 10448 C 966.109 -1.88324 1.39897 0
M  V30 10449 C 967.125 -1.71494 0.294229 0
M  V30 10450 O 968.301 -1.94162 0.535087 0
M  V30 10451 C 965.366 -3.23871 1.23726 0
M  V30 10452 C 964.427 -3.53121 2.44139 0
M  V30 10453 C 963.66 -4.82202 2.2873 0
M  V30 10454 O 963.883 -5.55649 1.28879 0
M  V30 10455 O 962.817 -5.11265 3.17634 0
M  V30 10456 H 966.643 -1.90701 2.36362 0
M  V30 10457 H 964.228 -0.886067 1.20288 0
M  V30 10458 H 966.11 -4.04882 1.16826 0
M  V30 10459 H 964.785 -3.22274 0.303551 0
M  V30 10460 H 963.692 -2.72212 2.56615 0
M  V30 10461 H 965.025 -3.59495 3.36191 0
M  V30 10462 N 966.677 -1.24326 -0.968545 0
M  V30 10463 C 967.624 -1.0349 -2.06297 0
M  V30 10464 C 968.594 0.0515333 -1.6602 0
M  V30 10465 O 969.779 -0.102924 -1.90522 0
M  V30 10466 C 966.919 -0.64487 -3.39021 0
M  V30 10467 C 966.032 -1.80469 -3.92498 0
M  V30 10468 C 965.167 -1.36032 -5.13487 0
M  V30 10469 C 964.206 -2.49014 -5.59159 0
M  V30 10470 N 963.343 -2.05451 -6.71367 0
M  V30 10471 H 968.183 -1.97161 -2.23454 0
M  V30 10472 H 965.72 -0.982028 -1.0952 0
M  V30 10473 H 967.678 -0.399771 -4.1528 0
M  V30 10474 H 966.308 0.254845 -3.21792 0
M  V30 10475 H 965.36 -2.16348 -3.12886 0
M  V30 10476 H 966.672 -2.65365 -4.22354 0
M  V30 10477 H 965.826 -1.07405 -5.97117 0
M  V30 10478 H 964.565 -0.481887 -4.85313 0
M  V30 10479 H 963.57 -2.78402 -4.74102 0
M  V30 10480 H 964.795 -3.37413 -5.89346 0
M  V30 10481 H 962.741 -1.20004 -6.4493 0
M  V30 10482 H 962.658 -2.83901 -7.00668 0
M  V30 10483 H 963.926 -1.79962 -7.58442 0
M  V30 10484 N 968.156 1.1691 -1.05688 0
M  V30 10485 C 969.119 2.19297 -0.666433 0
M  V30 10486 C 970.119 1.5826 0.284674 0
M  V30 10487 O 971.309 1.74068 0.0678757 0
M  V30 10488 C 968.441 3.40894 0.0203656 0
M  V30 10489 H 969.634 2.55354 -1.57272 0
M  V30 10490 H 967.187 1.31078 -0.851359 0
M  V30 10491 H 967.922 3.10388 0.939686 0
M  V30 10492 H 967.707 3.86446 -0.663464 0
M  V30 10493 H 969.197 4.16664 0.279475 0
M  V30 10494 N 969.634 0.838594 1.33437 0
M  V30 10495 C 970.544 0.274048 2.32994 0
M  V30 10496 C 971.56 -0.599776 1.63336 0
M  V30 10497 O 972.736 -0.503963 1.94993 0
M  V30 10498 C 969.801 -0.541804 3.4244 0
M  V30 10499 C 968.862 0.356262 4.27819 0
M  V30 10500 C 968.095 -0.420747 5.32039 0
M  V30 10501 O 968.318 -1.65247 5.45939 0
M  V30 10502 O 967.252 0.205101 6.0155 0
M  V30 10503 H 971.078 1.09846 2.83139 0
M  V30 10504 H 968.663 0.601111 1.36774 0
M  V30 10505 H 970.545 -1.00544 4.0923 0
M  V30 10506 H 969.22 -1.34328 2.94513 0
M  V30 10507 H 968.127 0.867726 3.63897 0
M  V30 10508 H 969.46 1.1225 4.79229 0
M  V30 10509 N 971.112 -1.45937 0.595003 0
M  V30 10510 C 972.042 -2.33198 -0.11871 0
M  V30 10511 C 973.023 -1.46083 -0.871423 0
M  V30 10512 O 974.208 -1.74879 -0.844461 0
M  V30 10513 C 971.338 -3.28576 -1.12495 0
M  V30 10514 C 970.292 -4.25229 -0.486275 0
M  V30 10515 C 969.618 -5.10204 -1.59986 0
M  V30 10516 C 970.918 -5.19019 0.584473 0
M  V30 10517 H 972.612 -2.93122 0.609886 0
M  V30 10518 H 970.158 -1.40951 0.294742 0
M  V30 10519 H 972.111 -3.88485 -1.6327 0
M  V30 10520 H 970.835 -2.66784 -1.88398 0
M  V30 10521 H 969.494 -3.666 0.000507962 0
M  V30 10522 H 969.142 -4.44789 -2.34886 0
M  V30 10523 H 968.842 -5.75669 -1.1781 0
M  V30 10524 H 970.366 -5.7298 -2.11014 0
M  V30 10525 H 971.78 -5.73073 0.161297 0
M  V30 10526 H 970.177 -5.92893 0.927256 0
M  V30 10527 H 971.247 -4.62208 1.46601 0
M  V30 10528 N 972.59 -0.333456 -1.54032 0
M  V30 10529 C 973.5 0.536674 -2.28379 0
M  V30 10530 C 974.516 1.12068 -1.33104 0
M  V30 10531 O 975.692 1.13853 -1.66131 0
M  V30 10532 C 972.757 1.67677 -3.03456 0
M  V30 10533 C 971.818 1.12357 -4.14336 0
M  V30 10534 C 971.051 2.20933 -4.85823 0
M  V30 10535 O 971.274 3.41466 -4.569 0
M  V30 10536 O 970.208 1.85795 -5.72507 0
M  V30 10537 H 974.034 -0.0674003 -3.03625 0
M  V30 10538 H 971.619 -0.098823 -1.49073 0
M  V30 10539 H 973.501 2.34032 -3.50438 0
M  V30 10540 H 972.176 2.26684 -2.31076 0
M  V30 10541 H 971.083 0.424827 -3.7168 0
M  V30 10542 H 972.416 0.578497 -4.88789 0
M  V30 10543 N 974.068 1.57479 -0.061844 0
M  V30 10544 C 974.978 2.15645 0.923826 0
M  V30 10545 C 975.994 1.117 1.33413 0
M  V30 10546 O 977.17 1.4392 1.40887 0
M  V30 10547 C 974.235 2.69857 2.17665 0
M  V30 10548 C 973.296 3.88638 1.8237 0
M  V30 10549 C 972.529 4.40256 3.01679 0
M  V30 10550 O 972.752 3.90908 4.15388 0
M  V30 10551 O 971.686 5.31713 2.82073 0
M  V30 10552 H 975.512 3.0021 0.459094 0
M  V30 10553 H 973.097 1.48534 0.160665 0
M  V30 10554 H 974.979 3.04647 2.9115 0
M  V30 10555 H 973.654 1.88357 2.63255 0
M  V30 10556 H 972.561 3.58719 1.06167 0
M  V30 10557 H 973.894 4.71401 1.4157 0
M  V30 10558 N 975.546 -0.211634 1.56173 0
M  V30 10559 C 976.479 -1.28982 1.88252 0
M  V30 10560 C 977.457 -1.4474 0.740889 0
M  V30 10561 O 978.641 -1.60394 0.990249 0
M  V30 10562 C 975.768 -2.65879 2.09824 0
M  V30 10563 C 974.814 -2.67082 3.3252 0
M  V30 10564 S 975.647 -2.2016 4.8815 0
M  V30 10565 C 976.803 -3.58913 5.12769 0
M  V30 10566 H 977.036 -1.01578 2.79409 0
M  V30 10567 H 974.569 -0.414351 1.48736 0
M  V30 10568 H 976.527 -3.44688 2.22935 0
M  V30 10569 H 975.188 -2.90502 1.19447 0
M  V30 10570 H 974.381 -3.67703 3.44689 0
M  V30 10571 H 973.983 -1.96343 3.18317 0
M  V30 10572 H 976.275 -4.54671 5.02276 0
M  V30 10573 H 977.218 -3.51652 6.14611 0
M  V30 10574 H 977.626 -3.5306 4.40465 0
M  V30 10575 N 977.024 -1.50153 -0.478725 0
M  V30 10576 C 977.934 -1.71232 -1.60364 0
M  V30 10577 C 978.95 -0.595269 -1.63501 0
M  V30 10578 O 980.126 -0.872683 -1.81511 0
M  V30 10579 C 977.191 -1.79487 -2.96623 0
M  V30 10580 C 976.252 -3.03185 -3.03937 0
M  V30 10581 C 975.485 -3.11036 -4.33696 0
M  V30 10582 O 975.708 -2.2588 -5.23769 0
M  V30 10583 O 974.642 -4.03698 -4.46443 0
M  V30 10584 H 978.468 -2.66575 -1.45505 0
M  V30 10585 H 976.053 -1.34158 -0.65741 0
M  V30 10586 H 977.935 -1.8714 -3.77567 0
M  V30 10587 H 976.61 -0.873264 -3.11698 0
M  V30 10588 H 975.517 -3.01036 -2.22099 0
M  V30 10589 H 976.85 -3.94898 -2.93796 0
M  V30 10590 N 978.502 0.731368 -1.39602 0
M  V30 10591 C 979.412 1.87579 -1.40894 0
M  V30 10592 C 980.428 1.71336 -0.303319 0
M  V30 10593 O 981.604 1.93875 -0.545377 0
M  V30 10594 C 978.669 3.23211 -1.25442 0
M  V30 10595 C 977.73 3.51822 -2.46008 0
M  V30 10596 C 976.963 4.80982 -2.31284 0
M  V30 10597 O 977.186 5.54958 -1.31824 0
M  V30 10598 O 976.12 5.09574 -3.20341 0
M  V30 10599 H 979.946 1.89444 -2.3737 0
M  V30 10600 H 977.531 0.879675 -1.20756 0
M  V30 10601 H 979.413 4.04257 -1.18972 0
M  V30 10602 H 978.088 3.22108 -0.320637 0
M  V30 10603 H 976.995 2.70847 -2.58055 0
M  V30 10604 H 978.328 3.57707 -3.38093 0
M  V30 10605 N 979.98 1.24838 0.961938 0
M  V30 10606 C 981.226 1.09313 1.70817 0
M  V30 10607 C 981.559 -0.366244 1.90715 0
M  V30 10608 O 980.834 -1.27036 1.47282 0
M  V30 10609 C 981.117 1.83988 3.09549 0
M  V30 10610 C 980.97 3.3771 2.97106 0
M  V30 10611 C 982.289 1.61718 4.09311 0
M  V30 10612 H 979.408 0.398498 0.619974 0
M  V30 10613 H 982.05 1.53579 1.11864 0
M  V30 10614 H 980.2 1.46363 3.59875 0
M  V30 10615 H 981.872 3.84967 2.54161 0
M  V30 10616 H 980.115 3.65795 2.33187 0
M  V30 10617 H 980.786 3.85166 3.95412 0
M  V30 10618 H 983.262 1.94458 3.67866 0
M  V30 10619 H 982.138 2.16415 5.04436 0
M  V30 10620 H 982.399 0.55677 4.3858 0
M  V30 10621 N 981.458 -1.16348 1.06306 0
M  V30 10622 C 982.408 -2.18717 0.643947 0
M  V30 10623 C 983.392 -1.57574 -0.325445 0
M  V30 10624 O 984.584 -1.76439 -0.140868 0
M  V30 10625 C 981.713 -3.43285 0.0320266 0
M  V30 10626 C 980.799 -4.11504 1.02592 0
M  V30 10627 N 981.19 -4.55374 2.20155 0
M  V30 10628 C 979.488 -4.37691 0.856887 0
M  V30 10629 C 980.189 -5.08149 2.83124 0
M  V30 10630 N 979.165 -5.01042 2.10851 0
M  V30 10631 H 982.967 -2.50353 1.53951 0
M  V30 10632 H 980.481 -1.328 0.934763 0
M  V30 10633 H 982.478 -4.15917 -0.286064 0
M  V30 10634 H 981.138 -3.13137 -0.858786 0
M  V30 10635 H 982.149 -4.49101 2.57931 0
M  V30 10636 H 978.826 -4.17496 0.0180742 0
M  V30 10637 H 980.216 -5.52131 3.82885 0
M  V30 10638 N 982.937 -0.845659 -1.3299 0
M  V30 10639 C 984.348 -0.50048 -1.79867 0
M  V30 10640 C 984.699 0.981027 -1.69913 0
M  V30 10641 O 983.824 1.76477 -1.25239 0
M  V30 10642 C 984.419 -0.901679 -3.26581 0
M  V30 10643 C 982.978 -0.608536 -3.71448 0
M  V30 10644 C 982.125 -1.10632 -2.54275 0
M  V30 10645 H 985.076 -1.03372 -1.20416 0
M  V30 10646 H 985.097 -0.214433 -3.79895 0
M  V30 10647 H 984.609 -1.97998 -3.33794 0
M  V30 10648 H 982.71 0.459416 -3.69757 0
M  V30 10649 H 982.823 -1.16853 -4.64631 0
M  V30 10650 H 981.187 -0.526925 -2.4919 0
M  V30 10651 H 981.97 -2.19154 -2.64247 0
M  V30 10652 N 984.415 1.45619 -0.602734 0
M  V30 10653 C 985.64 2.07157 -0.100429 0
M  V30 10654 C 986.065 1.44524 1.20393 0
M  V30 10655 O 985.423 0.536191 1.7319 0
M  V30 10656 C 985.471 3.60587 0.0308604 0
M  V30 10657 O 984.575 3.97944 1.08234 0
M  V30 10658 H 983.916 0.6601 -0.0718643 0
M  V30 10659 H 986.446 1.86948 -0.831366 0
M  V30 10660 H 986.456 4.07348 0.230634 0
M  V30 10661 H 985.131 4.05561 -0.921581 0
M  V30 10662 H 983.708 3.62862 0.859414 0
M  V30 10663 N 985.893 0.34162 1.53853 0
M  V30 10664 C 987.17 -0.310664 1.93117 0
M  V30 10665 C 987.55 -1.68398 1.273 0
M  V30 10666 O 986.898 -2.24546 0.423225 0
M  V30 10667 C 987.108 -0.384867 3.46871 0
M  V30 10668 C 988.456 -0.636621 4.198 0
M  V30 10669 O 989.48 -0.467061 3.53125 0
M  V30 10670 O 988.339 -0.964962 5.37913 0
M  V30 10671 H 985.433 -0.180881 0.806977 0
M  V30 10672 H 987.979 0.392656 1.65095 0
M  V30 10673 H 986.751 0.57894 3.86994 0
M  V30 10674 H 986.374 -1.13505 3.81054 0
M  V30 10675 N 987.371 -1.57444 0.0701946 0
M  V30 10676 C 988.281 -2.16132 -0.912377 0
M  V30 10677 C 989.297 -1.12406 -1.32819 0
M  V30 10678 O 990.473 -1.44665 -1.40121 0
M  V30 10679 C 987.538 -2.71008 -2.16231 0
M  V30 10680 C 986.599 -3.896 -1.80306 0
M  V30 10681 C 985.832 -4.4185 -2.9934 0
M  V30 10682 O 986.055 -3.93106 -4.13309 0
M  V30 10683 O 984.989 -5.33201 -2.7925 0
M  V30 10684 H 988.815 -3.00449 -0.443167 0
M  V30 10685 H 986.4 -1.48617 -0.152786 0
M  V30 10686 H 988.282 -3.06186 -2.8953 0
M  V30 10687 H 986.957 -1.8975 -2.62253 0
M  V30 10688 H 985.864 -3.59277 -1.04264 0
M  V30 10689 H 987.197 -4.72145 -1.39068 0
M  V30 10690 N 988.849 0.203349 -1.56283 0
M  V30 10691 C 989.759 1.27266 -1.9708 0
M  V30 10692 C 990.775 1.50268 -0.877236 0
M  V30 10693 O 991.951 1.63044 -1.18231 0
M  V30 10694 C 989.016 2.59871 -2.29495 0
M  V30 10695 C 988.077 2.45012 -3.52516 0
M  V30 10696 C 987.31 3.71293 -3.83376 0
M  V30 10697 O 987.533 4.75106 -3.15643 0
M  V30 10698 O 986.467 3.67316 -4.76826 0
M  V30 10699 H 990.293 0.956461 -2.88246 0
M  V30 10700 H 987.878 0.407688 -1.4373 0
M  V30 10701 H 989.76 3.38152 -2.51458 0
M  V30 10702 H 988.435 2.91135 -1.415 0
M  V30 10703 H 987.342 1.6487 -3.35811 0
M  V30 10704 H 988.675 2.18683 -4.40952 0
M  V30 10705 N 990.327 1.50405 0.470755 0
M  V30 10706 C 991.237 1.7208 1.59454 0
M  V30 10707 C 992.253 0.603932 1.63183 0
M  V30 10708 O 993.429 0.882296 1.81046 0
M  V30 10709 C 990.494 1.81057 2.95667 0
M  V30 10710 C 989.555 3.04792 3.02324 0
M  V30 10711 C 988.788 3.13332 4.3204 0
M  V30 10712 O 989.011 2.28655 5.22564 0
M  V30 10713 O 987.945 4.0606 4.44296 0
M  V30 10714 H 991.771 2.67343 1.44089 0
M  V30 10715 H 989.356 1.34505 0.650286 0
M  V30 10716 H 991.238 1.8914 3.76569 0
M  V30 10717 H 989.913 0.889782 3.11231 0
M  V30 10718 H 988.82 3.0221 2.205 0
M  V30 10719 H 990.153 3.96451 2.91698 0
M  V30 10720 N 991.805 -0.723954 1.39988 0
M  V30 10721 C 992.715 -1.86829 1.41887 0
M  V30 10722 C 993.731 -1.71173 0.312401 0
M  V30 10723 O 994.907 -1.93583 0.555651 0
M  V30 10724 C 991.972 -3.22541 1.27154 0
M  V30 10725 C 991.033 -3.50512 2.47871 0
M  V30 10726 C 990.266 -4.79749 2.33831 0
M  V30 10727 O 990.489 -5.54251 1.34765 0
M  V30 10728 O 989.423 -5.07868 3.23039 0
M  V30 10729 H 993.249 -1.88183 2.38371 0
M  V30 10730 H 990.834 -0.873259 1.21221 0
M  V30 10731 H 992.716 -4.0362 1.21114 0
M  V30 10732 H 991.391 -3.21933 0.337715 0
M  V30 10733 H 990.298 -2.69475 2.59488 0
M  V30 10734 H 991.631 -3.55909 3.39985 0
M  V30 10735 N 993.283 -1.25346 -0.955304 0
M  V30 10736 C 994.56 -1.00829 -1.67609 0
M  V30 10737 C 994.94 0.465675 -2.059 0
M  V30 10738 O 994.288 1.44287 -1.77182 0
M  V30 10739 C 994.498 -1.94337 -2.89886 0
M  V30 10740 C 995.846 -2.22142 -3.61854 0
M  V30 10741 O 996.87 -1.9209 -2.99967 0
M  V30 10742 O 995.729 -2.73239 -4.73289 0
M  V30 10743 H 992.823 -0.382314 -0.733325 0
M  V30 10744 H 995.369 -1.36498 -1.00829 0
M  V30 10745 H 994.141 -2.93867 -2.58376 0
M  V30 10746 H 993.764 -1.59062 -3.64397 0
M  V30 10747 N 994.761 1.15782 -1.06922 0
M  V30 10748 C 995.724 2.18578 -0.689654 0
M  V30 10749 C 996.724 1.58553 0.267872 0
M  V30 10750 O 997.914 1.7413 0.0494097 0
M  V30 10751 C 995.046 3.40896 -0.0157919 0
M  V30 10752 H 996.239 2.53672 -1.59971 0
M  V30 10753 H 993.792 1.30168 -0.865214 0
M  V30 10754 H 994.527 3.11367 0.906712 0
M  V30 10755 H 994.312 3.85721 -0.704415 0
M  V30 10756 H 995.802 4.16937 0.235266 0
M  V30 10757 N 996.239 0.8527 1.3254 0
M  V30 10758 C 997.467 0.469044 2.01513 0
M  V30 10759 C 997.882 -0.933701 1.64096 0
M  V30 10760 O 997.239 -1.60898 0.861283 0
M  V30 10761 C 997.29 0.596228 3.56549 0
M  V30 10762 O 997.011 1.94371 3.92621 0
M  V30 10763 C 998.512 0.211324 4.42796 0
M  V30 10764 H 995.732 0.184589 0.645111 0
M  V30 10765 H 998.276 1.1491 1.69163 0
M  V30 10766 H 996.431 -0.0360712 3.87383 0
M  V30 10767 H 996.845 1.93909 4.87339 0
M  V30 10768 H 998.319 0.351324 5.50881 0
M  V30 10769 H 998.796 -0.848055 4.30935 0
M  V30 10770 H 999.402 0.818617 4.17347 0
M  V30 10771 N 997.718 -1.45297 0.610449 0
M  V30 10772 C 998.665 -2.30553 -0.106718 0
M  V30 10773 C 999.635 -1.42272 -0.85719 0
M  V30 10774 O 1000.82 -1.71199 -0.842357 0
M  V30 10775 C 997.96 -3.27226 -1.09623 0
M  V30 10776 C 997.073 -4.3061 -0.346329 0
M  V30 10777 C 996.208 -5.14389 -1.32581 0
M  V30 10778 C 995.247 -6.09497 -0.563892 0
M  V30 10779 N 994.384 -6.86047 -1.4928 0
M  V30 10780 H 999.224 -2.91344 0.626296 0
M  V30 10781 H 996.761 -1.43563 0.32065 0
M  V30 10782 H 998.719 -3.81744 -1.68308 0
M  V30 10783 H 997.349 -2.68182 -1.79662 0
M  V30 10784 H 996.401 -3.7873 0.356084 0
M  V30 10785 H 997.713 -4.98183 0.248026 0
M  V30 10786 H 996.867 -5.73321 -1.98464 0
M  V30 10787 H 995.606 -4.4684 -1.9541 0
M  V30 10788 H 994.611 -5.49693 0.108551 0
M  V30 10789 H 995.836 -6.79074 0.0593872 0
M  V30 10790 H 993.782 -6.21185 -2.10868 0
M  V30 10791 H 993.699 -7.49983 -0.951953 0
M  V30 10792 H 994.967 -7.49518 -2.14112 0
M  V30 10793 N 999.196 -0.349774 -1.5367 0
M  V30 10794 C 1000.16 0.491676 -2.23864 0
M  V30 10795 C 1001.16 1.02256 -1.24098 0
M  V30 10796 O 1002.35 0.910816 -1.48492 0
M  V30 10797 C 999.481 1.68557 -2.96313 0
M  V30 10798 H 1000.67 -0.12233 -2.9965 0
M  V30 10799 H 998.227 -0.101214 -1.55972 0
M  V30 10800 H 998.962 2.3381 -2.2473 0
M  V30 10801 H 998.747 1.31203 -3.69497 0
M  V30 10802 H 1000.24 2.28225 -3.49718 0
M  V30 10803 N 1000.67 1.57404 -0.0785433 0
M  V30 10804 C 1001.58 2.16612 0.900902 0
M  V30 10805 C 1002.6 1.13109 1.32221 0
M  V30 10806 O 1003.78 1.45406 1.39352 0
M  V30 10807 C 1000.84 2.7215 2.14791 0
M  V30 10808 C 999.902 3.90551 1.78237 0
M  V30 10809 C 999.135 4.43431 2.96993 0
M  V30 10810 O 999.358 3.95292 4.11218 0
M  V30 10811 O 998.292 5.34674 2.76418 0
M  V30 10812 H 1002.12 3.0068 0.427227 0
M  V30 10813 H 999.703 1.48696 0.144902 0
M  V30 10814 H 1001.58 3.07718 2.87902 0
M  V30 10815 H 1000.26 1.91139 2.61243 0
M  V30 10816 H 999.167 3.59825 1.02357 0
M  V30 10817 H 1000.5 4.72876 1.36562 0
M  V30 10818 N 1002.15 -0.195058 1.56388 0
M  V30 10819 C 1003.4 -0.913636 1.8027 0
M  V30 10820 C 1003.72 -1.83791 0.651606 0
M  V30 10821 O 1002.99 -1.931 -0.330057 0
M  V30 10822 H 1001.57 -0.34036 0.664954 0
M  V30 10823 H 1004.23 -0.200559 1.93865 0
M  V30 10824 H 1003.33 -1.50473 2.7343 0
M  V30 10825 N 1003.63 -1.50653 -0.462772 0
M  V30 10826 C 1004.88 -1.62057 -1.21424 0
M  V30 10827 C 1005.2 -0.324778 -1.91769 0
M  V30 10828 O 1004.46 0.689828 -1.83139 0
M  V30 10829 C 1004.76 -2.75637 -2.27507 0
M  V30 10830 C 1004.42 -4.15826 -1.74354 0
M  V30 10831 C 1003.09 -4.53969 -1.5958 0
M  V30 10832 C 1005.44 -5.03409 -1.35012 0
M  V30 10833 C 1002.77 -5.77427 -1.03899 0
M  V30 10834 C 1005.12 -6.27422 -0.807704 0
M  V30 10835 C 1003.78 -6.6436 -0.646657 0
M  V30 10836 H 1003.05 -0.59301 -0.44432 0
M  V30 10837 H 1005.7 -1.84612 -0.508999 0
M  V30 10838 H 1004 -2.47203 -3.0397 0
M  V30 10839 H 1005.7 -2.81663 -2.85424 0
M  V30 10840 H 1002.29 -3.85739 -1.86823 0
M  V30 10841 H 1006.48 -4.74567 -1.45258 0
M  V30 10842 H 1001.73 -6.04713 -0.901751 0
M  V30 10843 H 1005.91 -6.94644 -0.494234 0
M  V30 10844 H 1003.53 -7.59901 -0.213053 0
M  V30 10845 N 1005.11 0.71652 -1.4037 0
M  V30 10846 C 1006.34 1.50344 -1.41704 0
M  V30 10847 C 1006.75 1.89194 -0.0148011 0
M  V30 10848 O 1006.09 1.55916 0.971391 0
M  V30 10849 C 1006.15 2.80928 -2.2432 0
M  V30 10850 C 1005.82 2.64406 -3.72744 0
M  V30 10851 C 1006.81 2.31727 -4.65401 0
M  V30 10852 C 1004.5 2.807 -4.16549 0
M  V30 10853 C 1006.49 2.15551 -5.99847 0
M  V30 10854 C 1004.18 2.64141 -5.51065 0
M  V30 10855 C 1005.18 2.31614 -6.42529 0
M  V30 10856 O 1004.86 2.15179 -7.74566 0
M  V30 10857 H 1004.6 0.470574 -0.48532 0
M  V30 10858 H 1007.15 0.89152 -1.85043 0
M  V30 10859 H 1005.38 3.4445 -1.75759 0
M  V30 10860 H 1007.07 3.4264 -2.17607 0
M  V30 10861 H 1007.84 2.18773 -4.32855 0
M  V30 10862 H 1003.71 3.05005 -3.45677 0
M  V30 10863 H 1007.26 1.90084 -6.71203 0
M  V30 10864 H 1003.16 2.76679 -5.83197 0
M  V30 10865 H 1003.92 2.30106 -7.85489 0
M  V30 10866 N 1006.59 1.25851 0.948643 0
M  V30 10867 C 1007.52 1.02549 2.04979 0
M  V30 10868 C 1008.53 -0.0115923 1.62796 0
M  V30 10869 O 1009.72 0.227643 1.77042 0
M  V30 10870 C 1006.82 0.529486 3.34738 0
M  V30 10871 C 1005.99 1.6341 4.05729 0
M  V30 10872 C 1005.05 1.13743 5.1376 0
M  V30 10873 O 1004.08 1.83303 5.38877 0
M  V30 10874 N 1005.28 -0.0181151 5.80497 0
M  V30 10875 H 1008.05 1.97365 2.25537 0
M  V30 10876 H 1005.61 1.17137 1.11761 0
M  V30 10877 H 1007.6 0.181566 4.04293 0
M  V30 10878 H 1006.17 -0.324893 3.10907 0
M  V30 10879 H 1005.39 2.15331 3.30191 0
M  V30 10880 H 1006.68 2.37603 4.49914 0
M  V30 10881 H 1006.07 -0.599198 5.62518 0
M  V30 10882 H 1004.63 -0.307019 6.51077 0
M  V30 10883 N 1008.06 -1.15214 1.07534 0
M  V30 10884 C 1009.01 -2.20013 0.697337 0
M  V30 10885 C 1009.98 -1.6314 -0.312168 0
M  V30 10886 O 1011.17 -1.89768 -0.198196 0
M  V30 10887 C 1008.31 -3.44945 0.103293 0
M  V30 10888 C 1007.42 -4.16009 1.1645 0
M  V30 10889 C 1006.55 -5.28496 0.535261 0
M  V30 10890 C 1005.59 -5.9138 1.57912 0
M  V30 10891 N 1004.73 -6.95335 0.972332 0
M  V30 10892 H 1009.57 -2.51698 1.59538 0
M  V30 10893 H 1007.11 -1.2361 0.797431 0
M  V30 10894 H 1009.07 -4.16397 -0.258766 0
M  V30 10895 H 1007.7 -3.13772 -0.758096 0
M  V30 10896 H 1006.75 -3.43035 1.64411 0
M  V30 10897 H 1008.06 -4.58853 1.9559 0
M  V30 10898 H 1007.21 -6.06579 0.120942 0
M  V30 10899 H 1005.95 -4.8685 -0.287889 0
M  V30 10900 H 1004.96 -5.12008 2.0032 0
M  V30 10901 H 1006.18 -6.35103 2.40459 0
M  V30 10902 H 1004.13 -6.55779 0.170119 0
M  V30 10903 H 1004.05 -7.36616 1.70095 0
M  V30 10904 H 1005.31 -7.77312 0.583577 0
M  V30 10905 N 1009.54 -0.859717 -1.32086 0
M  V30 10906 C 1010.49 -0.279715 -2.26278 0
M  V30 10907 C 1011.48 0.577348 -1.50185 0
M  V30 10908 O 1012.67 0.425903 -1.71799 0
M  V30 10909 C 1009.8 0.526622 -3.39237 0
M  V30 10910 C 1008.88 -0.343112 -4.2271 0
M  V30 10911 N 1009.27 -1.43176 -4.85113 0
M  V30 10912 C 1007.57 -0.133744 -4.45799 0
M  V30 10913 C 1008.27 -1.96725 -5.47425 0
M  V30 10914 N 1007.25 -1.26569 -5.2866 0
M  V30 10915 H 1011.05 -1.11191 -2.72055 0
M  V30 10916 H 1008.57 -0.706372 -1.46233 0
M  V30 10917 H 1010.56 0.958587 -4.0573 0
M  V30 10918 H 1009.22 1.35655 -2.95005 0
M  V30 10919 H 1010.23 -1.81469 -4.85066 0
M  V30 10920 H 1006.91 0.661064 -4.12233 0
M  V30 10921 H 1008.3 -2.88006 -6.07044 0
M  V30 10922 N 1011.02 1.44971 -0.618145 0
M  V30 10923 C 1011.95 2.27748 0.143561 0
M  V30 10924 C 1012.93 1.37768 0.863642 0
M  V30 10925 O 1014.12 1.67203 0.870373 0
M  V30 10926 C 1011.24 3.16394 1.20883 0
M  V30 10927 C 1010.29 4.22389 0.590724 0
M  V30 10928 S 1011.12 5.32021 -0.609406 0
M  V30 10929 C 1012.28 6.24235 0.456199 0
M  V30 10930 H 1012.51 2.92003 -0.558699 0
M  V30 10931 H 1010.04 1.48968 -0.40595 0
M  V30 10932 H 1012 3.6802 1.81855 0
M  V30 10933 H 1010.66 2.51384 1.88322 0
M  V30 10934 H 1009.86 4.84379 1.3926 0
M  V30 10935 H 1009.46 3.73958 0.055917 0
M  V30 10936 H 1011.75 6.64269 1.33238 0
M  V30 10937 H 1012.69 7.07985 -0.127794 0
M  V30 10938 H 1013.1 5.59137 0.776269 0
M  V30 10939 N 1012.5 0.357919 1.53482 0
M  V30 10940 C 1013.43 -0.526753 2.23065 0
M  V30 10941 C 1014.44 -1.05239 1.24212 0
M  V30 10942 O 1015.63 -0.960078 1.50482 0
M  V30 10943 C 1012.73 -1.73919 2.9087 0
M  V30 10944 C 1011.91 -1.34638 4.16163 0
M  V30 10945 C 1010.96 -2.42005 4.67247 0
M  V30 10946 O 1009.99 -2.04714 5.31113 0
M  V30 10947 N 1011.19 -3.73478 4.44404 0
M  V30 10948 H 1013.96 0.0692386 2.9962 0
M  V30 10949 H 1011.52 0.182726 1.60866 0
M  V30 10950 H 1013.51 -2.45207 3.21956 0
M  V30 10951 H 1012.08 -2.24223 2.17814 0
M  V30 10952 H 1011.3 -0.463667 3.91464 0
M  V30 10953 H 1012.59 -1.06012 4.97633 0
M  V30 10954 H 1011.99 -4.06555 3.93357 0
M  V30 10955 H 1010.54 -4.40893 4.80059 0
M  V30 10956 N 1013.98 -1.5736 0.0868897 0
M  V30 10957 C 1014.89 -2.17087 -0.889402 0
M  V30 10958 C 1015.9 -1.13809 -1.31619 0
M  V30 10959 O 1017.08 -1.46143 -1.38579 0
M  V30 10960 C 1014.14 -2.73286 -2.13344 0
M  V30 10961 C 1013.2 -3.91491 -1.76164 0
M  V30 10962 C 1012.44 -4.45 -2.94637 0
M  V30 10963 O 1012.66 -3.97467 -4.09116 0
M  V30 10964 O 1011.59 -5.36133 -2.73579 0
M  V30 10965 H 1015.42 -3.00902 -0.411275 0
M  V30 10966 H 1013.01 -1.4877 -0.137015 0
M  V30 10967 H 1014.89 -3.0924 -2.86266 0
M  V30 10968 H 1013.56 -1.92521 -2.60225 0
M  V30 10969 H 1012.47 -3.60363 -1.00447 0
M  V30 10970 H 1013.8 -4.73593 -1.34053 0
M  V30 10971 N 1015.45 0.186762 -1.56489 0
M  V30 10972 C 1016.87 0.750675 -1.70944 0
M  V30 10973 C 1017.22 1.83483 -0.694858 0
M  V30 10974 O 1016.34 2.159 0.147009 0
M  V30 10975 C 1016.94 1.36843 -3.09934 0
M  V30 10976 C 1015.5 1.87934 -3.26125 0
M  V30 10977 C 1014.64 0.75242 -2.66897 0
M  V30 10978 H 1017.59 -0.0384292 -1.58653 0
M  V30 10979 H 1017.61 2.23795 -3.07727 0
M  V30 10980 H 1017.13 0.579135 -3.83755 0
M  V30 10981 H 1015.23 2.69556 -2.57235 0
M  V30 10982 H 1015.34 2.0354 -4.33715 0
M  V30 10983 H 1013.7 1.16888 -2.26295 0
M  V30 10984 H 1014.49 -0.0247769 -3.43291 0
M  V30 10985 N 1016.93 1.50896 0.454776 0
M  V30 10986 C 1017.86 1.73885 1.5584 0
M  V30 10987 C 1018.84 0.588172 1.59607 0
M  V30 10988 O 1020.03 0.829054 1.75614 0
M  V30 10989 C 1017.16 1.84796 2.94054 0
M  V30 10990 C 1016.11 3.00111 3.05152 0
M  V30 10991 C 1015.44 2.96183 4.45174 0
M  V30 10992 C 1016.74 4.40365 2.80849 0
M  V30 10993 H 1018.43 2.66292 1.36854 0
M  V30 10994 H 1015.98 1.28142 0.656936 0
M  V30 10995 H 1017.93 1.99462 3.71204 0
M  V30 10996 H 1016.66 0.890235 3.14233 0
M  V30 10997 H 1015.31 2.85121 2.30438 0
M  V30 10998 H 1014.96 1.98224 4.62295 0
M  V30 10999 H 1014.66 3.73608 4.53532 0
M  V30 11000 H 1016.19 3.1292 5.24322 0
M  V30 11001 H 1017.6 4.55795 3.47741 0
M  V30 11002 H 1016 5.19363 3.00636 0
M  V30 11003 H 1017.07 4.51606 1.76579 0
M  V30 11004 N 1018.41 -0.709066 1.40748 0
M  V30 11005 C 1019.36 -1.82312 1.4153 0
M  V30 11006 C 1020.33 -1.63868 0.271392 0
M  V30 11007 O 1021.51 -1.8491 0.470431 0
M  V30 11008 C 1018.65 -3.2008 1.29006 0
M  V30 11009 C 1017.77 -3.50051 2.53156 0
M  V30 11010 C 1016.9 -4.7736 2.33025 0
M  V30 11011 C 1015.94 -5.00255 3.52719 0
M  V30 11012 N 1015.08 -6.18782 3.31743 0
M  V30 11013 H 1019.92 -1.80978 2.36751 0
M  V30 11014 H 1017.45 -0.883975 1.17577 0
M  V30 11015 H 1019.41 -3.99645 1.19749 0
M  V30 11016 H 1018.04 -3.20626 0.374014 0
M  V30 11017 H 1017.09 -2.64993 2.72916 0
M  V30 11018 H 1018.41 -3.62877 3.42231 0
M  V30 11019 H 1017.56 -5.64954 2.21159 0
M  V30 11020 H 1016.3 -4.66756 1.41386 0
M  V30 11021 H 1015.3 -4.11114 3.65055 0
M  V30 11022 H 1016.53 -5.12728 4.45295 0
M  V30 11023 H 1014.47 -6.09416 2.42791 0
M  V30 11024 H 1014.39 -6.32313 4.14386 0
M  V30 11025 H 1015.66 -7.09146 3.23623 0
M  V30 11026 N 1019.89 -1.26353 -0.941956 0
M  V30 11027 C 1021.14 -1.12017 -1.69056 0
M  V30 11028 C 1021.47 0.335856 -1.91274 0
M  V30 11029 O 1020.74 1.24677 -1.49285 0
M  V30 11030 C 1021.03 -1.88889 -3.06583 0
M  V30 11031 C 1020.88 -3.42394 -2.91696 0
M  V30 11032 C 1022.2 -1.68209 -4.06686 0
M  V30 11033 H 1019.32 -0.408311 -0.613556 0
M  V30 11034 H 1021.96 -1.55339 -1.09407 0
M  V30 11035 H 1020.11 -1.5207 -3.57501 0
M  V30 11036 H 1021.78 -3.88962 -2.48005 0
M  V30 11037 H 1020.02 -3.69459 -2.27338 0
M  V30 11038 H 1020.7 -3.91408 -3.89235 0
M  V30 11039 H 1023.17 -2.00286 -3.64726 0
M  V30 11040 H 1022.05 -2.24412 -5.00929 0
M  V30 11041 H 1022.31 -0.626474 -4.37639 0
M  V30 11042 N 1021.37 1.14642 -1.08144 0
M  V30 11043 C 1022.6 1.89484 -0.830864 0
M  V30 11044 C 1023.01 1.78443 0.616722 0
M  V30 11045 O 1022.37 1.14191 1.42361 0
M  V30 11046 C 1022.42 3.39554 -1.24039 0
M  V30 11047 O 1022.14 3.50286 -2.63119 0
M  V30 11048 C 1023.64 4.31399 -1.02029 0
M  V30 11049 H 1020.86 0.600283 -0.299835 0
M  V30 11050 H 1023.4 1.45204 -1.44001 0
M  V30 11051 H 1021.56 3.81467 -0.675407 0
M  V30 11052 H 1021.97 4.43481 -2.80045 0
M  V30 11053 H 1023.45 5.35079 -1.35625 0
M  V30 11054 H 1023.92 4.39179 0.0428697 0
M  V30 11055 H 1024.53 3.95238 -1.57057 0
M  V30 11056 N 1022.85 0.866709 1.31628 0
M  V30 11057 C 1024.26 0.529032 1.79048 0
M  V30 11058 C 1024.61 -0.953871 1.71452 0
M  V30 11059 O 1023.73 -1.74462 1.28031 0
M  V30 11060 C 1024.33 0.953522 3.25105 0
M  V30 11061 C 1022.89 0.667554 3.70433 0
M  V30 11062 C 1022.03 1.14664 2.52483 0
M  V30 11063 H 1024.98 1.05275 1.18756 0
M  V30 11064 H 1025.01 0.274844 3.79506 0
M  V30 11065 H 1024.52 2.03283 3.30602 0
M  V30 11066 H 1022.62 -0.400532 3.70441 0
M  V30 11067 H 1022.73 1.2423 4.62714 0
M  V30 11068 H 1021.1 0.566502 2.4832 0
M  V30 11069 H 1021.88 2.2333 2.60727 0
M  V30 11070 N 1024.32 -1.44642 0.625825 0
M  V30 11071 C 1025.74 -1.56925 0.290992 0
M  V30 11072 C 1025.94 -1.61424 -1.20601 0
M  V30 11073 O 1025 -1.55439 -1.98985 0
M  V30 11074 C 1026.31 -2.84343 0.978242 0
M  V30 11075 C 1027.86 -2.98047 0.955882 0
M  V30 11076 C 1028.33 -4.2826 1.62349 0
M  V30 11077 N 1029.82 -4.35062 1.58983 0
M  V30 11078 C 1030.56 -5.34524 2.07538 0
M  V30 11079 N 1030.05 -6.4042 2.6426 0
M  V30 11080 N 1031.85 -5.25998 1.98198 0
M  V30 11081 H 1024 -1.39965 1.59761 0
M  V30 11082 H 1026.26 -0.670368 0.670306 0
M  V30 11083 H 1025.97 -2.86985 2.03304 0
M  V30 11084 H 1025.84 -3.73699 0.512726 0
M  V30 11085 H 1028.23 -2.94961 -0.0904292 0
M  V30 11086 H 1028.31 -2.10053 1.45984 0
M  V30 11087 H 1027.95 -4.32105 2.66923 0
M  V30 11088 H 1027.88 -5.15102 1.09441 0
M  V30 11089 H 1030.37 -3.59147 1.17565 0
M  V30 11090 H 1030.69 -7.1259 2.99056 0
M  V30 11091 H 1029.03 -6.41121 2.68308 0
M  V30 11092 H 1032.22 -4.42178 1.5361 0
M  V30 11093 H 1032.4 -6.03359 2.3635 0
M  V30 11094 N 1025.8 -0.366053 -1.5329 0
M  V30 11095 C 1027.03 0.226839 -2.06156 0
M  V30 11096 C 1027.45 1.41637 -1.23776 0
M  V30 11097 O 1026.81 1.7947 -0.256948 0
M  V30 11098 C 1026.86 0.597956 -3.55608 0
M  V30 11099 O 1025.96 1.69512 -3.75951 0
M  V30 11100 H 1025.3 0.0329156 -0.663184 0
M  V30 11101 H 1027.83 -0.526793 -1.97702 0
M  V30 11102 H 1027.84 0.868831 -3.98642 0
M  V30 11103 H 1026.52 -0.271838 -4.15011 0
M  V30 11104 H 1025.09 1.41976 -3.44815 0
M  V30 11105 N 1027.28 1.57312 -0.0952337 0
M  V30 11106 C 1028.7 1.57445 0.261416 0
M  V30 11107 C 1028.9 1.10639 1.68408 0
M  V30 11108 O 1027.95 0.782912 2.40056 0
M  V30 11109 C 1029.26 3.00659 0.0497206 0
M  V30 11110 C 1030.81 3.1278 0.117459 0
M  V30 11111 C 1031.29 4.57952 -0.0662441 0
M  V30 11112 N 1032.78 4.63199 -0.0114146 0
M  V30 11113 C 1033.51 5.73255 -0.128799 0
M  V30 11114 N 1033.01 6.92146 -0.301026 0
M  V30 11115 N 1034.8 5.62056 -0.0700599 0
M  V30 11116 H 1026.95 1.86045 -1.02475 0
M  V30 11117 H 1029.22 0.858726 -0.401614 0
M  V30 11118 H 1028.92 3.39102 -0.932888 0
M  V30 11119 H 1028.8 3.68792 0.791975 0
M  V30 11120 H 1031.18 2.74209 1.09057 0
M  V30 11121 H 1031.26 2.47238 -0.656288 0
M  V30 11122 H 1030.91 4.97217 -1.03623 0
M  V30 11123 H 1030.84 5.21555 0.727198 0
M  V30 11124 H 1033.33 3.77712 0.119154 0
M  V30 11125 H 1033.64 7.71855 -0.382104 0
M  V30 11126 H 1031.99 6.94184 -0.336695 0
M  V30 11127 H 1035.18 4.68057 0.0633587 0
M  V30 11128 H 1035.35 6.4779 -0.164991 0
M  V30 11129 N 1028.76 -0.17846 1.56586 0
M  V30 11130 C 1029.67 -1.24115 1.9908 0
M  V30 11131 C 1030.68 -1.48854 0.901031 0
M  V30 11132 O 1031.86 -1.61142 1.2081 0
M  V30 11133 C 1028.92 -2.56187 2.33601 0
M  V30 11134 C 1027.99 -2.39373 3.56369 0
M  V30 11135 C 1027.22 -3.65147 3.89234 0
M  V30 11136 O 1027.44 -4.70024 3.23162 0
M  V30 11137 O 1026.38 -3.59683 4.82609 0
M  V30 11138 H 1030.2 -0.910482 2.89731 0
M  V30 11139 H 1027.79 -0.38477 1.4436 0
M  V30 11140 H 1029.67 -3.34109 2.56806 0
M  V30 11141 H 1028.34 -2.88847 1.46113 0
M  V30 11142 H 1027.25 -1.59506 3.38391 0
M  V30 11143 H 1028.58 -2.1164 4.44375 0
M  V30 11144 N 1030.24 -1.51135 -0.446768 0
M  V30 11145 C 1031.2 -1.71187 -1.52406 0
M  V30 11146 C 1032.2 -0.582037 -1.49897 0
M  V30 11147 O 1033.39 -0.849452 -1.52085 0
M  V30 11148 C 1030.52 -1.75962 -2.91976 0
M  V30 11149 H 1031.71 -2.67324 -1.35934 0
M  V30 11150 H 1029.27 -1.40982 -0.674813 0
M  V30 11151 H 1030 -0.816065 -3.13864 0
M  V30 11152 H 1029.79 -2.58065 -2.95203 0
M  V30 11153 H 1031.28 -1.93347 -3.70144 0
M  V30 11154 N 1031.71 0.701592 -1.41122 0
M  V30 11155 C 1032.96 1.4616 -1.40155 0
M  V30 11156 C 1033.29 1.94498 -0.00861553 0
M  V30 11157 O 1032.54 1.69484 0.978452 0
M  V30 11158 C 1032.84 2.693 -2.34973 0
M  V30 11159 C 1032.51 2.39652 -3.81939 0
M  V30 11160 C 1031.17 2.31277 -4.21977 0
M  V30 11161 C 1033.52 2.15076 -4.74755 0
M  V30 11162 C 1030.85 1.96413 -5.52846 0
M  V30 11163 C 1033.2 1.81722 -6.05937 0
M  V30 11164 C 1031.87 1.71838 -6.45002 0
M  V30 11165 H 1031.14 0.534837 -0.512865 0
M  V30 11166 H 1033.78 0.802425 -1.73878 0
M  V30 11167 H 1032.09 3.40123 -1.94484 0
M  V30 11168 H 1033.79 3.27427 -2.31501 0
M  V30 11169 H 1030.38 2.47063 -3.50226 0
M  V30 11170 H 1034.56 2.20495 -4.4463 0
M  V30 11171 H 1029.82 1.87308 -5.82001 0
M  V30 11172 H 1033.99 1.61723 -6.77362 0
M  V30 11173 H 1031.62 1.44591 -7.46323 0
M  V30 11174 N 1033.19 1.2685 0.935242 0
M  V30 11175 C 1034.44 1.12522 1.67878 0
M  V30 11176 C 1034.76 -0.330894 1.92172 0
M  V30 11177 O 1034.03 -1.23259 1.52263 0
M  V30 11178 H 1032.61 0.413418 0.622169 0
M  V30 11179 H 1035.27 1.59267 1.12339 0
M  V30 11180 H 1034.37 1.64853 2.65009 0
M  V30 11181 N 1034.67 -1.14067 1.0875 0
M  V30 11182 C 1035.92 -1.84819 0.817698 0
M  V30 11183 C 1036.24 -1.83545 -0.658488 0
M  V30 11184 O 1035.51 -1.28633 -1.47751 0
M  V30 11185 H 1034.09 -0.68433 0.299502 0
M  V30 11186 H 1036.75 -1.38208 1.37421 0
M  V30 11187 H 1035.85 -2.89541 1.16501 0
M  V30 11188 N 1036.15 -0.873678 -1.31166 0
M  V30 11189 C 1037.56 -0.566109 -1.49223 0
M  V30 11190 C 1037.76 0.898889 -1.80339 0
M  V30 11191 O 1036.82 1.68084 -1.88425 0
M  V30 11192 C 1038.13 -1.46952 -2.62346 0
M  V30 11193 C 1039.68 -1.47195 -2.76229 0
M  V30 11194 C 1040.16 -2.36102 -3.92454 0
M  V30 11195 N 1041.65 -2.34003 -3.99746 0
M  V30 11196 C 1042.38 -2.99513 -4.88958 0
M  V30 11197 N 1041.88 -3.74206 -5.83045 0
M  V30 11198 N 1043.67 -2.88802 -4.82234 0
M  V30 11199 H 1035.82 -1.82156 -1.09239 0
M  V30 11200 H 1038.09 -0.779086 -0.54012 0
M  V30 11201 H 1037.79 -2.51213 -2.4614 0
M  V30 11202 H 1037.67 -1.17077 -3.5857 0
M  V30 11203 H 1040.05 -0.436902 -2.91848 0
M  V30 11204 H 1040.13 -1.81095 -1.80661 0
M  V30 11205 H 1039.78 -3.39685 -3.77593 0
M  V30 11206 H 1039.71 -1.99524 -4.87337 0
M  V30 11207 H 1042.2 -1.79713 -3.32433 0
M  V30 11208 H 1042.51 -4.21312 -6.47855 0
M  V30 11209 H 1040.86 -3.78314 -5.83012 0
M  V30 11210 H 1044.05 -2.29984 -4.07707 0
M  V30 11211 H 1044.22 -3.40136 -5.51554 0
M  V30 11212 N 1037.63 1.44308 -0.633487 0
M  V30 11213 C 1038.54 2.34492 0.0711787 0
M  V30 11214 C 1039.55 1.52754 0.8332 0
M  V30 11215 O 1040.73 1.85475 0.784929 0
M  V30 11216 C 1037.79 3.30767 1.03895 0
M  V30 11217 C 1036.85 4.28412 0.276043 0
M  V30 11218 C 1036.09 5.20087 1.19772 0
M  V30 11219 O 1036.31 5.15743 2.4365 0
M  V30 11220 O 1035.24 5.98038 0.680764 0
M  V30 11221 H 1039.07 2.96203 -0.67063 0
M  V30 11222 H 1036.66 1.4412 -0.393678 0
M  V30 11223 H 1038.54 3.90021 1.59566 0
M  V30 11224 H 1037.21 2.71586 1.76133 0
M  V30 11225 H 1036.12 3.72696 -0.32377 0
M  V30 11226 H 1037.45 4.9052 -0.406364 0
M  V30 11227 N 1039.1 0.374177 1.53094 0
M  V30 11228 C 1040.03 -0.459976 2.28925 0
M  V30 11229 C 1041.02 -1.07656 1.31698 0
M  V30 11230 O 1042.2 -1.09219 1.60577 0
M  V30 11231 C 1039.33 -1.5954 3.08487 0
M  V30 11232 C 1038.28 -1.10563 4.13473 0
M  V30 11233 C 1037.61 -2.33196 4.81169 0
M  V30 11234 C 1038.91 -0.184275 5.21975 0
M  V30 11235 H 1040.6 0.172692 2.98902 0
M  V30 11236 H 1038.15 0.0844956 1.43752 0
M  V30 11237 H 1040.1 -2.18565 3.60288 0
M  V30 11238 H 1038.83 -2.25543 2.36216 0
M  V30 11239 H 1037.49 -0.53801 3.62631 0
M  V30 11240 H 1037.13 -2.97675 4.05461 0
M  V30 11241 H 1036.83 -2.01094 5.52119 0
M  V30 11242 H 1038.36 -2.92892 5.35767 0
M  V30 11243 H 1039.77 -0.682262 5.69226 0
M  V30 11244 H 1038.17 0.0462746 6.00082 0
M  V30 11245 H 1039.24 0.771152 4.78729 0
M  V30 11246 N 1040.58 -1.57259 0.103575 0
M  V30 11247 C 1041.83 -1.94272 -0.557024 0
M  V30 11248 C 1042.15 -0.986739 -1.68192 0
M  V30 11249 O 1041.42 -0.0402818 -1.95859 0
M  V30 11250 H 1040 -0.717237 -0.208757 0
M  V30 11251 H 1042.66 -1.94167 0.168898 0
M  V30 11252 H 1041.76 -2.96914 -0.961691 0
M  V30 11253 N 1042.06 0.170153 -1.56679 0
M  V30 11254 C 1042.99 1.21285 -1.9953 0
M  V30 11255 C 1043.97 1.46104 -0.871071 0
M  V30 11256 O 1045.16 1.57419 -1.13724 0
M  V30 11257 C 1042.29 2.5515 -2.35618 0
M  V30 11258 C 1041.24 2.44898 -3.51011 0
M  V30 11259 C 1040.57 3.83263 -3.72845 0
M  V30 11260 C 1041.87 1.95271 -4.84424 0
M  V30 11261 H 1043.56 0.856646 -2.86883 0
M  V30 11262 H 1041.11 0.410634 -1.38021 0
M  V30 11263 H 1043.06 3.28299 -2.64193 0
M  V30 11264 H 1041.78 2.92561 -1.45175 0
M  V30 11265 H 1040.44 1.74203 -3.22566 0
M  V30 11266 H 1040.09 4.18069 -2.79691 0
M  V30 11267 H 1039.79 3.77272 -4.50488 0
M  V30 11268 H 1041.31 4.57996 -4.03822 0
M  V30 11269 H 1042.73 2.58195 -5.11867 0
M  V30 11270 H 1041.13 2.00225 -5.65712 0
M  V30 11271 H 1042.2 0.90709 -4.7634 0
M  V30 11272 N 1043.54 1.5137 0.438746 0
M  V30 11273 C 1044.47 1.68774 1.55074 0
M  V30 11274 C 1045.48 0.568436 1.52554 0
M  V30 11275 O 1046.67 0.842707 1.57355 0
M  V30 11276 C 1043.77 1.68592 2.9399 0
M  V30 11277 C 1042.95 2.97084 3.2103 0
M  V30 11278 C 1042 2.89108 4.39663 0
M  V30 11279 O 1041.03 3.63052 4.38385 0
M  V30 11280 N 1042.23 2.04863 5.4315 0
M  V30 11281 H 1045 2.647 1.40549 0
M  V30 11282 H 1042.56 1.49238 0.627663 0
M  V30 11283 H 1044.55 1.60826 3.71372 0
M  V30 11284 H 1043.12 0.802657 3.02119 0
M  V30 11285 H 1042.34 3.18729 2.3196 0
M  V30 11286 H 1043.63 3.82143 3.35923 0
M  V30 11287 H 1043.03 1.4416 5.47023 0
M  V30 11288 H 1041.58 2.02977 6.1939 0
M  V30 11289 N 1045.02 -0.694098 1.41492 0
M  V30 11290 C 1046.26 -1.45127 1.4065 0
M  V30 11291 C 1046.59 -1.94993 0.0170289 0
M  V30 11292 O 1045.86 -1.71799 -0.941372 0
M  V30 11293 H 1044.44 -0.538493 0.51772 0
M  V30 11294 H 1047.1 -0.821441 1.76744 0
M  V30 11295 H 1046.19 -2.31372 2.0946 0
M  V30 11296 N 1046.49 -1.27344 -0.928501 0
M  V30 11297 C 1047.44 -1.10001 -2.029 0
M  V30 11298 C 1048.41 -0.00131084 -1.661 0
M  V30 11299 O 1049.6 -0.163485 -1.90098 0
M  V30 11300 C 1046.74 -0.7524 -3.36798 0
M  V30 11301 C 1045.85 -1.92865 -3.86558 0
M  V30 11302 C 1044.98 -1.52299 -5.08899 0
M  V30 11303 C 1044.02 -2.66677 -5.50953 0
M  V30 11304 N 1043.16 -2.26706 -6.64491 0
M  V30 11305 H 1048 -2.0417 -2.17068 0
M  V30 11306 H 1045.54 -1.01637 -1.0634 0
M  V30 11307 H 1047.5 -0.531687 -4.13798 0
M  V30 11308 H 1046.13 0.15234 -3.2244 0
M  V30 11309 H 1045.18 -2.26192 -3.05845 0
M  V30 11310 H 1046.49 -2.78668 -4.13698 0
M  V30 11311 H 1045.64 -1.26348 -5.93398 0
M  V30 11312 H 1044.38 -0.636042 -4.83535 0
M  V30 11313 H 1043.39 -2.93344 -4.65004 0
M  V30 11314 H 1044.61 -3.55992 -5.78313 0
M  V30 11315 H 1042.56 -1.40462 -6.40786 0
M  V30 11316 H 1042.48 -3.06049 -6.91281 0
M  V30 11317 H 1043.74 -2.04 -7.52333 0
M  V30 11318 N 1047.97 1.13488 -1.09353 0
M  V30 11319 C 1048.94 2.17066 -0.735863 0
M  V30 11320 C 1049.94 1.59086 0.234181 0
M  V30 11321 O 1051.13 1.74196 0.012463 0
M  V30 11322 C 1048.26 3.40786 -0.0880975 0
M  V30 11323 H 1049.45 2.50221 -1.65316 0
M  V30 11324 H 1047 1.28304 -0.89263 0
M  V30 11325 H 1047.74 3.1322 0.840462 0
M  V30 11326 H 1047.52 3.8414 -0.786073 0
M  V30 11327 H 1049.01 4.17342 0.146775 0
M  V30 11328 N 1049.45 0.880621 1.30701 0
M  V30 11329 C 1050.86 0.547993 1.78477 0
M  V30 11330 C 1051.21 -0.935633 1.72454 0
M  V30 11331 O 1050.34 -1.73094 1.29874 0
M  V30 11332 C 1050.93 0.98795 3.24076 0
M  V30 11333 C 1049.49 0.706805 3.69704 0
M  V30 11334 C 1048.64 1.17335 2.51252 0
M  V30 11335 H 1051.59 1.06528 1.17633 0
M  V30 11336 H 1051.61 0.31508 3.79193 0
M  V30 11337 H 1051.12 2.06778 3.28427 0
M  V30 11338 H 1049.22 -0.36122 3.70845 0
M  V30 11339 H 1049.34 1.2913 4.6137 0
M  V30 11340 H 1047.7 0.592808 2.47705 0
M  V30 11341 H 1048.48 2.26083 2.58343 0
M  V30 11342 N 1050.93 -1.4397 0.641131 0
M  V30 11343 C 1051.84 -2.34526 -0.058742 0
M  V30 11344 C 1052.86 -1.53194 -0.825088 0
M  V30 11345 O 1054.03 -1.85888 -0.775081 0
M  V30 11346 C 1051.1 -3.31313 -1.02139 0
M  V30 11347 C 1050.16 -4.28552 -0.253319 0
M  V30 11348 C 1049.39 -5.20715 -1.17012 0
M  V30 11349 O 1049.61 -5.17028 -2.40911 0
M  V30 11350 O 1048.55 -5.9839 -0.649039 0
M  V30 11351 H 1052.37 -2.95843 0.686329 0
M  V30 11352 H 1049.96 -1.43909 0.401316 0
M  V30 11353 H 1051.84 -3.90862 -1.57496 0
M  V30 11354 H 1050.52 -2.72516 -1.7469 0
M  V30 11355 H 1049.42 -3.72519 0.343531 0
M  V30 11356 H 1050.76 -4.90297 0.432372 0
M  V30 11357 N 1052.41 -0.382291 -1.52893 0
M  V30 11358 C 1053.35 0.456234 -2.26246 0
M  V30 11359 C 1054.32 1.06366 -1.27575 0
M  V30 11360 O 1055.51 1.09301 -1.5639 0
M  V30 11361 C 1052.65 1.5813 -3.06739 0
M  V30 11362 C 1051.76 0.997416 -4.20328 0
M  V30 11363 C 1050.9 2.09296 -4.8823 0
M  V30 11364 C 1049.94 1.4846 -5.93823 0
M  V30 11365 N 1049.07 2.51916 -6.55349 0
M  V30 11366 H 1053.91 -0.175761 -2.97481 0
M  V30 11367 H 1051.45 -0.0985046 -1.4677 0
M  V30 11368 H 1053.41 2.24426 -3.51694 0
M  V30 11369 H 1052.04 2.18371 -2.37727 0
M  V30 11370 H 1051.09 0.224251 -3.79738 0
M  V30 11371 H 1052.4 0.512784 -4.96157 0
M  V30 11372 H 1051.56 2.83377 -5.36453 0
M  V30 11373 H 1050.3 2.61116 -4.1191 0
M  V30 11374 H 1049.3 0.729001 -5.44946 0
M  V30 11375 H 1050.53 0.97443 -6.72073 0
M  V30 11376 H 1048.47 3.02919 -5.81873 0
M  V30 11377 H 1048.39 2.08188 -7.26769 0
M  V30 11378 H 1049.66 3.25649 -7.08218 0
M  V30 11379 N 1053.89 1.57202 -0.111913 0
M  V30 11380 C 1054.8 2.18475 0.854753 0
M  V30 11381 C 1055.81 1.15888 1.29792 0
M  V30 11382 O 1056.99 1.48329 1.36237 0
M  V30 11383 C 1054.05 2.76645 2.0897 0
M  V30 11384 C 1053.11 3.94244 1.69913 0
M  V30 11385 C 1052.35 4.49631 2.8752 0
M  V30 11386 O 1052.57 4.03926 4.02741 0
M  V30 11387 O 1051.5 5.40417 2.65015 0
M  V30 11388 H 1055.33 3.01519 0.363352 0
M  V30 11389 H 1052.91 1.4897 0.113329 0
M  V30 11390 H 1054.8 3.13755 2.81311 0
M  V30 11391 H 1053.47 1.96637 2.5713 0
M  V30 11392 H 1052.38 3.61915 0.947013 0
M  V30 11393 H 1053.71 4.75666 1.26501 0
M  V30 11394 N 1055.36 -0.161842 1.56767 0
M  V30 11395 C 1056.59 -0.892247 1.86672 0
M  V30 11396 C 1057.01 -1.75407 0.69841 0
M  V30 11397 O 1056.36 -1.7945 -0.332251 0
M  V30 11398 C 1056.41 -1.7612 3.15696 0
M  V30 11399 O 1056.14 -0.934131 4.28025 0
M  V30 11400 C 1057.64 -2.60046 3.59014 0
M  V30 11401 H 1054.86 -0.258747 0.619105 0
M  V30 11402 H 1057.4 -0.159089 2.0388 0
M  V30 11403 H 1055.56 -2.44759 3.00286 0
M  V30 11404 H 1055.97 -1.52931 5.01709 0
M  V30 11405 H 1057.44 -3.16618 4.5217 0
M  V30 11406 H 1057.92 -3.35374 2.83586 0
M  V30 11407 H 1058.53 -1.96724 3.77067 0
M  V30 11408 N 1056.84 -1.516 -0.430713 0
M  V30 11409 C 1058.07 -1.687 -1.20644 0
M  V30 11410 C 1058.49 -0.386555 -1.84085 0
M  V30 11411 O 1057.85 0.653952 -1.69095 0
M  V30 11412 C 1057.9 -2.80887 -2.2613 0
M  V30 11413 O 1057 -2.44952 -3.31772 0
M  V30 11414 H 1056.34 -0.562289 -0.353167 0
M  V30 11415 H 1058.87 -1.98198 -0.507807 0
M  V30 11416 H 1058.88 -3.05167 -2.70809 0
M  V30 11417 H 1057.56 -3.75249 -1.79334 0
M  V30 11418 H 1056.13 -2.31267 -2.92523 0
M  V30 11419 N 1058.32 0.686584 -1.41858 0
M  V30 11420 C 1059.25 1.81264 -1.47193 0
M  V30 11421 C 1060.23 1.66875 -0.329657 0
M  V30 11422 O 1061.42 1.86473 -0.542347 0
M  V30 11423 C 1058.55 3.19472 -1.36216 0
M  V30 11424 C 1057.5 3.4858 -2.48347 0
M  V30 11425 C 1056.83 4.86239 -2.22432 0
M  V30 11426 C 1058.13 3.46653 -3.90678 0
M  V30 11427 H 1059.82 1.77057 -2.41436 0
M  V30 11428 H 1057.37 0.850415 -1.16206 0
M  V30 11429 H 1059.32 3.97969 -1.38558 0
M  V30 11430 H 1058.04 3.24327 -0.384611 0
M  V30 11431 H 1056.7 2.72437 -2.45303 0
M  V30 11432 H 1056.35 4.8773 -1.22999 0
M  V30 11433 H 1056.05 5.06677 -2.97577 0
M  V30 11434 H 1057.57 5.67034 -2.26505 0
M  V30 11435 H 1058.99 4.15139 -3.95389 0
M  V30 11436 H 1057.38 3.78625 -4.65578 0
M  V30 11437 H 1058.45 2.45451 -4.18189 0
M  V30 11438 N 1059.8 1.27835 0.921735 0
M  V30 11439 C 1061.04 1.14523 1.67005 0
M  V30 11440 C 1061.37 -0.307776 1.92049 0
M  V30 11441 O 1060.63 -1.24103 1.51317 0
M  V30 11442 C 1060.93 1.88054 3.03925 0
M  V30 11443 C 1060.59 3.37886 2.9857 0
M  V30 11444 C 1059.25 3.78752 2.96817 0
M  V30 11445 C 1061.61 4.33462 2.89414 0
M  V30 11446 C 1058.93 5.13549 2.83698 0
M  V30 11447 C 1061.29 5.68322 2.77836 0
M  V30 11448 C 1059.95 6.08475 2.74436 0
M  V30 11449 H 1059.22 0.419068 0.611116 0
M  V30 11450 H 1061.87 1.58515 1.07449 0
M  V30 11451 H 1060.17 1.36587 3.67221 0
M  V30 11452 H 1061.87 1.75176 3.60714 0
M  V30 11453 H 1058.46 3.05389 3.00725 0
M  V30 11454 H 1062.64 4.02857 2.89862 0
M  V30 11455 H 1057.9 5.43796 2.79456 0
M  V30 11456 H 1062.07 6.42048 2.69717 0
M  V30 11457 H 1059.7 7.12877 2.64027 0
M  V30 11458 N 1061.28 -1.12907 1.09954 0
M  V30 11459 C 1062.21 -2.20585 0.765799 0
M  V30 11460 C 1063.19 -1.68117 -0.258989 0
M  V30 11461 O 1064.37 -1.93792 -0.125853 0
M  V30 11462 C 1061.5 -3.46772 0.191435 0
M  V30 11463 C 1060.46 -4.12363 1.14635 0
M  V30 11464 C 1059.78 -5.3294 0.433426 0
M  V30 11465 C 1061.08 -4.59073 2.49096 0
M  V30 11466 H 1062.78 -2.48759 1.66612 0
M  V30 11467 H 1060.32 -1.19563 0.802534 0
M  V30 11468 H 1062.27 -4.21365 -0.0541535 0
M  V30 11469 H 1061 -3.18011 -0.744101 0
M  V30 11470 H 1059.66 -3.39744 1.37731 0
M  V30 11471 H 1059.31 -5.00444 -0.506422 0
M  V30 11472 H 1059.01 -5.77772 1.07018 0
M  V30 11473 H 1060.53 -6.10284 0.196267 0
M  V30 11474 H 1061.94 -5.25063 2.30177 0
M  V30 11475 H 1060.34 -5.14665 3.0861 0
M  V30 11476 H 1061.41 -3.73313 3.0946 0
M  V30 11477 N 1062.75 -0.88754 -1.30232 0
M  V30 11478 C 1063.98 -0.521562 -2.00735 0
M  V30 11479 C 1064.4 0.883247 -1.66073 0
M  V30 11480 O 1063.76 1.58581 -0.878731 0
M  V30 11481 C 1063.81 -0.706521 -3.53611 0
M  V30 11482 O 1062.91 0.246447 -4.11663 0
M  V30 11483 H 1062.25 -0.205216 -0.631492 0
M  V30 11484 H 1064.78 -1.19579 -1.66018 0
M  V30 11485 H 1064.79 -0.606501 -4.03467 0
M  V30 11486 H 1063.47 -1.73076 -3.78177 0
M  V30 11487 H 1062.05 0.0999062 -3.72766 0
M  V30 11488 N 1064.23 1.43628 -0.648757 0
M  V30 11489 C 1065.46 2.06732 -0.166284 0
M  V30 11490 C 1065.88 1.48281 1.15734 0
M  V30 11491 O 1065.24 0.591018 1.71396 0
M  V30 11492 C 1065.29 3.60502 -0.0838732 0
M  V30 11493 O 1064.39 4.01186 0.955185 0
M  V30 11494 H 1063.73 0.657479 -0.0928285 0
M  V30 11495 H 1066.26 1.84208 -0.890421 0
M  V30 11496 H 1066.27 4.07875 0.100923 0
M  V30 11497 H 1064.95 4.02424 -1.05014 0
M  V30 11498 H 1063.53 3.65412 0.743537 0
M  V30 11499 N 1065.71 0.390394 1.52688 0
M  V30 11500 C 1066.64 -0.43567 2.294 0
M  V30 11501 C 1067.62 -1.06253 1.32832 0
M  V30 11502 O 1068.81 -1.07509 1.61726 0
M  V30 11503 C 1065.94 -1.56259 3.10162 0
M  V30 11504 C 1064.89 -1.06172 4.14622 0
M  V30 11505 C 1064.22 -2.2808 4.83615 0
M  V30 11506 C 1065.52 -0.128902 5.22141 0
M  V30 11507 H 1067.21 0.204384 2.98702 0
M  V30 11508 H 1064.76 0.0997377 1.43654 0
M  V30 11509 H 1066.71 -2.14732 3.62585 0
M  V30 11510 H 1065.43 -2.23025 2.38595 0
M  V30 11511 H 1064.09 -0.499518 3.63181 0
M  V30 11512 H 1063.74 -2.93358 4.08595 0
M  V30 11513 H 1063.44 -1.95227 5.5422 0
M  V30 11514 H 1064.96 -2.87193 5.38844 0
M  V30 11515 H 1066.38 -0.621849 5.69917 0
M  V30 11516 H 1064.78 0.109919 5.99999 0
M  V30 11517 H 1065.85 0.821884 4.77884 0
M  V30 11518 N 1067.19 -1.57141 0.120249 0
M  V30 11519 C 1068.42 -1.99589 -0.545136 0
M  V30 11520 C 1068.83 -0.999951 -1.60145 0
M  V30 11521 O 1068.19 0.00698897 -1.82499 0
M  V30 11522 C 1068.24 -3.42038 -1.17014 0
M  V30 11523 O 1067.96 -4.37822 -0.156044 0
M  V30 11524 C 1069.46 -3.99625 -1.91872 0
M  V30 11525 H 1066.68 -0.655318 -0.144222 0
M  V30 11526 H 1069.23 -2.0345 0.206955 0
M  V30 11527 H 1067.38 -3.39113 -1.873 0
M  V30 11528 H 1067.79 -5.20937 -0.610317 0
M  V30 11529 H 1069.27 -5.01374 -2.30928 0
M  V30 11530 H 1069.75 -3.38836 -2.7944 0
M  V30 11531 H 1070.35 -4.061 -1.26345 0
M  V30 11532 N 1068.67 0.153526 -1.5685 0
M  V30 11533 C 1069.89 0.882335 -1.87143 0
M  V30 11534 C 1070.31 1.75034 -0.707702 0
M  V30 11535 O 1069.67 1.79624 0.32273 0
M  V30 11536 C 1069.72 1.74444 -3.16625 0
M  V30 11537 O 1069.44 0.911419 -4.28515 0
M  V30 11538 C 1070.94 2.58139 -3.60388 0
M  V30 11539 H 1068.16 0.25546 -0.620469 0
M  V30 11540 H 1070.7 0.148275 -2.03962 0
M  V30 11541 H 1068.86 2.43163 -3.0158 0
M  V30 11542 H 1069.27 1.50268 -5.02513 0
M  V30 11543 H 1070.75 3.14215 -4.53842 0
M  V30 11544 H 1071.22 3.33865 -2.85361 0
M  V30 11545 H 1071.83 1.94721 -3.78105 0
M  V30 11546 N 1070.14 1.51827 0.422667 0
M  V30 11547 C 1071.56 1.57533 1.00201 0
M  V30 11548 C 1071.91 0.407623 1.91919 0
M  V30 11549 O 1071.03 -0.473763 2.1115 0
M  V30 11550 C 1071.63 2.85508 1.82403 0
M  V30 11551 C 1070.19 2.93737 2.35362 0
M  V30 11552 C 1069.33 2.52343 1.14971 0
M  V30 11553 H 1072.28 1.57391 0.20339 0
M  V30 11554 H 1072.3 2.70097 2.68007 0
M  V30 11555 H 1071.82 3.70477 1.15623 0
M  V30 11556 H 1069.92 2.13231 3.05554 0
M  V30 11557 H 1070.03 3.977 2.67155 0
M  V30 11558 H 1068.39 2.05878 1.49955 0
M  V30 11559 H 1069.18 3.39672 0.497786 0
M  V30 11560 N 1071.62 -0.679052 1.4222 0
M  V30 11561 C 1072.59 -1.77448 1.45069 0
M  V30 11562 C 1073.59 -1.57189 0.338882 0
M  V30 11563 O 1074.78 -1.63559 0.599519 0
M  V30 11564 C 1071.91 -3.1603 1.27819 0
M  V30 11565 H 1073.1 -1.7631 2.426 0
M  V30 11566 H 1070.65 -0.888277 1.28605 0
M  V30 11567 H 1071.39 -3.22796 0.311946 0
M  V30 11568 H 1071.17 -3.32138 2.08391 0
M  V30 11569 H 1072.66 -3.9596 1.32686 0
M  V30 11570 N 1073.1 -1.28322 -0.914942 0
M  V30 11571 C 1074.35 -1.15179 -1.66067 0
M  V30 11572 C 1074.67 0.300279 -1.92674 0
M  V30 11573 O 1073.94 1.20821 -1.54205 0
M  V30 11574 H 1072.52 -0.423264 -0.615513 0
M  V30 11575 H 1075.18 -1.61034 -1.09791 0
M  V30 11576 H 1074.28 -1.69048 -2.62353 0
M  V30 11577 N 1074.58 1.12322 -1.10551 0
M  V30 11578 C 1075.54 2.16273 -0.758844 0
M  V30 11579 C 1076.54 1.59325 0.217294 0
M  V30 11580 O 1077.73 1.74199 -0.00601346 0
M  V30 11581 C 1074.86 3.40674 -0.124238 0
M  V30 11582 H 1076.06 2.48454 -1.6796 0
M  V30 11583 H 1073.61 1.2735 -0.906188 0
M  V30 11584 H 1074.34 3.14094 0.807194 0
M  V30 11585 H 1074.13 3.83284 -0.826772 0
M  V30 11586 H 1075.62 4.17474 0.102502 0
M  V30 11587 N 1076.06 0.894434 1.2976 0
M  V30 11588 C 1077.28 0.532916 1.99919 0
M  V30 11589 C 1077.7 -0.881022 1.66983 0
M  V30 11590 O 1077.06 -1.58076 0.912035 0
M  V30 11591 C 1077.11 0.70936 3.54472 0
M  V30 11592 O 1076.83 2.06764 3.86239 0
M  V30 11593 C 1078.33 0.352089 4.419 0
M  V30 11594 H 1075.55 0.205019 0.638912 0
M  V30 11595 H 1078.09 1.20233 1.65421 0
M  V30 11596 H 1076.25 0.0871901 3.87302 0
M  V30 11597 H 1076.66 2.09315 4.80924 0
M  V30 11598 H 1078.14 0.526405 5.49484 0
M  V30 11599 H 1078.61 -0.710527 4.33415 0
M  V30 11600 H 1079.22 0.950979 4.14532 0
M  V30 11601 N 1077.53 -1.43282 0.656365 0
M  V30 11602 C 1078.44 -2.34576 -0.033864 0
M  V30 11603 C 1079.46 -1.5406 -0.808793 0
M  V30 11604 O 1080.64 -1.867 -0.755322 0
M  V30 11605 C 1077.7 -3.32378 -0.986197 0
M  V30 11606 C 1076.76 -4.28797 -0.207851 0
M  V30 11607 C 1076 -5.21927 -1.11482 0
M  V30 11608 O 1076.22 -5.19554 -2.35414 0
M  V30 11609 O 1075.15 -5.99045 -0.585536 0
M  V30 11610 H 1078.98 -2.95099 0.717668 0
M  V30 11611 H 1076.56 -1.43475 0.416556 0
M  V30 11612 H 1078.45 -3.9251 -1.53341 0
M  V30 11613 H 1077.12 -2.74354 -1.7179 0
M  V30 11614 H 1076.03 -3.72134 0.383022 0
M  V30 11615 H 1077.36 -4.89811 0.48435 0
M  V30 11616 N 1079.01 -0.398486 -1.52479 0
M  V30 11617 C 1079.96 0.449343 -2.23528 0
M  V30 11618 C 1080.95 1.02218 -1.24259 0
M  V30 11619 O 1082.14 0.946757 -1.49551 0
M  V30 11620 C 1079.27 1.5712 -3.05235 0
M  V30 11621 C 1078.35 1.00966 -4.11906 0
M  V30 11622 N 1078.75 0.173855 -5.05501 0
M  V30 11623 C 1077.04 1.28124 -4.272 0
M  V30 11624 C 1077.74 -0.137391 -5.81538 0
M  V30 11625 N 1076.72 0.468972 -5.41573 0
M  V30 11626 H 1080.52 -0.195654 -2.93248 0
M  V30 11627 H 1078.04 -0.208305 -1.61059 0
M  V30 11628 H 1080.03 2.19108 -3.54679 0
M  V30 11629 H 1078.69 2.21893 -2.37052 0
M  V30 11630 H 1079.7 -0.189618 -5.17553 0
M  V30 11631 H 1076.38 1.92933 -3.70247 0
M  V30 11632 H 1077.77 -0.815159 -6.66937 0
M  V30 11633 N 1080.49 1.57075 -0.12858 0
M  V30 11634 C 1081.74 1.9581 0.527868 0
M  V30 11635 C 1082.07 1.01253 1.65715 0
M  V30 11636 O 1081.35 0.0514853 1.94432 0
M  V30 11637 C 1081.63 3.44406 1.05151 0
M  V30 11638 C 1081.48 4.49737 -0.0750113 0
M  V30 11639 C 1082.8 3.95069 1.9393 0
M  V30 11640 H 1079.92 0.711978 0.19041 0
M  V30 11641 H 1082.56 1.88879 -0.206081 0
M  V30 11642 H 1080.71 3.50443 1.67697 0
M  V30 11643 H 1082.38 4.55793 -0.710685 0
M  V30 11644 H 1080.63 4.27497 -0.736809 0
M  V30 11645 H 1081.3 5.50996 0.332779 0
M  V30 11646 H 1083.77 3.91395 1.41241 0
M  V30 11647 H 1082.65 4.99542 2.27484 0
M  V30 11648 H 1082.91 3.36329 2.86941 0
M  V30 11649 N 1081.97 -0.145205 1.5693 0
M  V30 11650 C 1083.19 -0.876386 1.87974 0
M  V30 11651 C 1083.62 -1.73866 0.717795 0
M  V30 11652 O 1082.98 -1.78224 -0.332551 0
M  V30 11653 C 1083.03 -1.70746 3.17613 0
M  V30 11654 O 1082.13 -2.81188 3.01674 0
M  V30 11655 H 1081.47 -0.243987 0.617549 0
M  V30 11656 H 1084 -0.135482 2.04151 0
M  V30 11657 H 1084.01 -2.1021 3.49679 0
M  V30 11658 H 1082.69 -1.07429 4.01786 0
M  V30 11659 H 1081.26 -2.45117 2.81019 0
M  V30 11660 N 1083.45 -1.52049 -0.414609 0
M  V30 11661 C 1084.68 -1.69433 -1.18221 0
M  V30 11662 C 1085.09 -0.40104 -1.84901 0
M  V30 11663 O 1084.43 0.632342 -1.72474 0
M  V30 11664 C 1084.49 -2.76986 -2.2917 0
M  V30 11665 C 1084.15 -4.18903 -1.82671 0
M  V30 11666 C 1085.15 -5.02929 -1.31751 0
M  V30 11667 C 1082.84 -4.65113 -1.89672 0
M  V30 11668 C 1084.83 -6.31234 -0.884461 0
M  V30 11669 C 1082.52 -5.93408 -1.45978 0
M  V30 11670 C 1083.52 -6.76297 -0.9545 0
M  V30 11671 O 1083.2 -8.02191 -0.523852 0
M  V30 11672 H 1082.94 -0.571228 -0.36149 0
M  V30 11673 H 1085.49 -1.99355 -0.494643 0
M  V30 11674 H 1083.72 -2.42428 -3.01273 0
M  V30 11675 H 1085.41 -2.83023 -2.90951 0
M  V30 11676 H 1086.17 -4.68422 -1.2572 0
M  V30 11677 H 1082.05 -4.00702 -2.27945 0
M  V30 11678 H 1085.6 -6.95881 -0.489383 0
M  V30 11679 H 1081.49 -6.27424 -1.51687 0
M  V30 11680 H 1082.26 -8.15934 -0.647656 0
M  V30 11681 N 1084.93 0.6715 -1.42579 0
M  V30 11682 C 1086.17 1.42731 -1.42516 0
M  V30 11683 C 1086.49 1.95545 -0.0462407 0
M  V30 11684 O 1087.69 2.71391 0.0769798 0
M  V30 11685 C 1086.15 2.58215 -2.50705 0
M  V30 11686 C 1085.76 2.12086 -3.94618 0
M  V30 11687 C 1087.5 3.35705 -2.59813 0
M  V30 11688 C 1085.41 3.24672 -4.9431 0
M  V30 11689 H 1084.34 0.536218 -0.530081 0
M  V30 11690 H 1086.99 0.726655 -1.68499 0
M  V30 11691 H 1085.37 3.30665 -2.17892 0
M  V30 11692 H 1086.55 1.46768 -4.36802 0
M  V30 11693 H 1084.86 1.47526 -3.89391 0
M  V30 11694 H 1087.46 4.1956 -3.31472 0
M  V30 11695 H 1087.8 3.82517 -1.64276 0
M  V30 11696 H 1088.33 2.70326 -2.91836 0
M  V30 11697 H 1085.07 2.82848 -5.91335 0
M  V30 11698 H 1084.59 3.88761 -4.56755 0
M  V30 11699 H 1086.27 3.90088 -5.16179 0
M  V30 11700 N 1086.4 1.28806 0.908124 0
M  V30 11701 C 1087.34 1.09018 2.01613 0
M  V30 11702 C 1088.35 0.0402059 1.6275 0
M  V30 11703 O 1089.54 0.283853 1.76229 0
M  V30 11704 C 1086.64 0.635712 3.32884 0
M  V30 11705 C 1085.81 1.76235 4.00325 0
M  V30 11706 C 1084.87 1.3003 5.09881 0
M  V30 11707 O 1083.9 2.00354 5.32773 0
M  V30 11708 N 1085.1 0.166575 5.80261 0
M  V30 11709 H 1087.86 2.0444 2.19144 0
M  V30 11710 H 1085.42 1.20633 1.07978 0
M  V30 11711 H 1087.42 0.310097 4.0351 0
M  V30 11712 H 1085.99 -0.225816 3.11783 0
M  V30 11713 H 1085.21 2.25727 3.23173 0
M  V30 11714 H 1086.49 2.51796 4.42127 0
M  V30 11715 H 1085.89 -0.419934 5.64139 0
M  V30 11716 H 1084.45 -0.0997281 6.51724 0
M  V30 11717 N 1087.88 -1.11734 1.11145 0
M  V30 11718 C 1089.16 -1.79795 0.770261 0
M  V30 11719 C 1089.54 -1.97624 -0.742158 0
M  V30 11720 O 1088.89 -1.55847 -1.67105 0
M  V30 11721 C 1089.1 -3.13684 1.52982 0
M  V30 11722 C 1090.44 -3.88771 1.70711 0
M  V30 11723 O 1091.47 -3.23363 1.49381 0
M  V30 11724 O 1090.33 -5.06134 2.06132 0
M  V30 11725 H 1087.42 -0.778617 0.27872 0
M  V30 11726 H 1089.97 -1.18504 1.2147 0
M  V30 11727 H 1088.74 -2.96043 2.55879 0
M  V30 11728 H 1088.36 -3.82687 1.07873 0
M  V30 11729 N 1089.36 -0.901303 -1.29284 0
M  V30 11730 C 1090.27 -0.3849 -2.31421 0
M  V30 11731 C 1091.29 0.521163 -1.66012 0
M  V30 11732 O 1092.46 0.410356 -1.97175 0
M  V30 11733 C 1089.53 0.377804 -3.44635 0
M  V30 11734 C 1088.59 -0.559974 -4.25632 0
M  V30 11735 C 1087.82 0.166425 -5.3344 0
M  V30 11736 O 1088.04 1.39012 -5.53202 0
M  V30 11737 O 1086.98 -0.491875 -5.99887 0
M  V30 11738 H 1090.8 -1.2323 -2.77575 0
M  V30 11739 H 1088.39 -0.665683 -1.3375 0
M  V30 11740 H 1090.27 0.809041 -4.13561 0
M  V30 11741 H 1088.95 1.20124 -3.00586 0
M  V30 11742 H 1087.85 -1.04036 -3.59343 0
M  V30 11743 H 1089.19 -1.34987 -4.73328 0
M  V30 11744 N 1090.84 1.42931 -0.663954 0
M  V30 11745 C 1092.07 2.06028 -0.189808 0
M  V30 11746 C 1092.48 1.49827 1.14879 0
M  V30 11747 O 1091.84 0.633778 1.71142 0
M  V30 11748 C 1091.89 3.61349 -0.104343 0
M  V30 11749 O 1091.61 4.15463 -1.39004 0
M  V30 11750 C 1093.11 4.4154 0.394599 0
M  V30 11751 H 1090.33 0.664259 -0.0948744 0
M  V30 11752 H 1092.87 1.83255 -0.907632 0
M  V30 11753 H 1091.03 3.83271 0.564103 0
M  V30 11754 H 1091.44 5.09233 -1.25626 0
M  V30 11755 H 1092.92 5.50525 0.403329 0
M  V30 11756 H 1093.39 4.1534 1.4279 0
M  V30 11757 H 1094 4.24612 -0.241729 0
M  V30 11758 N 1092.32 0.406567 1.52266 0
M  V30 11759 C 1093.56 -0.171391 2.00971 0
M  V30 11760 C 1093.88 -1.46443 1.29668 0
M  V30 11761 O 1095.08 -2.12348 1.69176 0
M  V30 11762 C 1093.54 -0.35599 3.58135 0
M  V30 11763 C 1093.15 0.924803 4.38351 0
M  V30 11764 C 1094.89 -0.889378 4.15079 0
M  V30 11765 C 1092.8 0.707534 5.87152 0
M  V30 11766 H 1091.73 -0.0678253 0.750943 0
M  V30 11767 H 1094.38 0.531619 1.7563 0
M  V30 11768 H 1092.76 -1.12127 3.79794 0
M  V30 11769 H 1093.94 1.69603 4.28452 0
M  V30 11770 H 1092.25 1.38442 3.92712 0
M  V30 11771 H 1094.85 -1.06792 5.23927 0
M  V30 11772 H 1095.19 -1.86334 3.7227 0
M  V30 11773 H 1095.72 -0.183224 3.97378 0
M  V30 11774 H 1092.46 1.65299 6.34316 0
M  V30 11775 H 1091.98 -0.024446 5.99795 0
M  V30 11776 H 1093.66 0.348721 6.4606 0
M  V30 11777 N 1093.79 -1.57004 0.136909 0
M  V30 11778 C 1095.21 -1.82675 -0.385577 0
M  V30 11779 C 1095.56 -1.05508 -1.65416 0
M  V30 11780 O 1094.68 -0.297207 -2.14349 0
M  V30 11781 C 1095.28 -3.31356 -0.706326 0
M  V30 11782 C 1093.84 -3.57644 -1.17337 0
M  V30 11783 C 1092.98 -2.7664 -0.191239 0
M  V30 11784 H 1095.93 -1.54522 0.36177 0
M  V30 11785 H 1095.95 -3.4696 -1.56201 0
M  V30 11786 H 1095.47 -3.87492 0.217147 0
M  V30 11787 H 1093.57 -3.06883 -2.11313 0
M  V30 11788 H 1093.68 -4.66152 -1.10632 0
M  V30 11789 H 1092.04 -2.45403 -0.681867 0
M  V30 11790 H 1092.83 -3.35543 0.725647 0
M  V30 11791 N 1095.27 0.136881 -1.57004 0
M  V30 11792 C 1096.52 0.8461 -1.83536 0
M  V30 11793 C 1096.84 1.81246 -0.71937 0
M  V30 11794 O 1096.11 1.94191 0.258161 0
M  V30 11795 H 1094.69 0.315446 -0.677128 0
M  V30 11796 H 1097.35 0.128469 -1.94476 0
M  V30 11797 H 1096.45 1.40221 -2.78827 0
M  V30 11798 N 1096.75 1.52266 0.40654 0
M  V30 11799 C 1097.98 1.70057 1.1732 0
M  V30 11800 C 1098.39 0.41084 1.84686 0
M  V30 11801 O 1097.73 -0.623187 1.72806 0
M  V30 11802 C 1097.79 2.78197 2.27698 0
M  V30 11803 C 1097.46 4.19866 1.80447 0
M  V30 11804 C 1098.45 5.03621 1.29082 0
M  V30 11805 C 1096.14 4.66112 1.87202 0
M  V30 11806 C 1098.13 6.31694 0.850973 0
M  V30 11807 C 1095.82 5.94174 1.42829 0
M  V30 11808 C 1096.82 6.76794 0.918621 0
M  V30 11809 O 1096.51 8.02458 0.481302 0
M  V30 11810 H 1096.24 0.573137 0.358455 0
M  V30 11811 H 1098.79 1.99615 0.484064 0
M  V30 11812 H 1097.02 2.44022 2.99983 0
M  V30 11813 H 1098.71 2.84562 2.89446 0
M  V30 11814 H 1099.48 4.69083 1.23234 0
M  V30 11815 H 1095.36 4.01905 2.25816 0
M  V30 11816 H 1098.9 6.96131 0.452471 0
M  V30 11817 H 1094.8 6.2822 1.48358 0
M  V30 11818 H 1095.57 8.16266 0.604376 0
M  V30 11819 N 1098.23 -0.663929 1.42933 0
M  V30 11820 C 1099.45 -1.45691 1.47611 0
M  V30 11821 C 1099.88 -1.87875 0.0920305 0
M  V30 11822 O 1099.24 -1.56696 -0.91192 0
M  V30 11823 C 1099.28 -2.67517 2.41799 0
M  V30 11824 O 1098.39 -3.66187 1.89686 0
M  V30 11825 H 1097.73 -0.437257 0.499702 0
M  V30 11826 H 1100.26 -0.813397 1.87737 0
M  V30 11827 H 1100.27 -3.1546 2.58745 0
M  V30 11828 H 1098.94 -2.36155 3.4235 0
M  V30 11829 H 1097.52 -3.25274 1.82349 0
M  V30 11830 N 1099.71 -1.29285 -0.901281 0
M  V30 11831 C 1100.62 -1.16161 -2.03823 0
M  V30 11832 C 1101.63 -0.0852298 -1.73791 0
M  V30 11833 O 1102.81 -0.29699 -1.99198 0
M  V30 11834 C 1099.87 -0.837586 -3.3643 0
M  V30 11835 C 1098.93 -1.99764 -3.7999 0
M  V30 11836 C 1098.17 -1.68898 -5.0627 0
M  V30 11837 O 1098.39 -0.609177 -5.67138 0
M  V30 11838 O 1097.32 -2.53648 -5.45845 0
M  V30 11839 H 1101.15 -2.11635 -2.17817 0
M  V30 11840 H 1098.74 -1.08722 -1.02468 0
M  V30 11841 H 1100.62 -0.671376 -4.16017 0
M  V30 11842 H 1099.29 0.0873811 -3.23582 0
M  V30 11843 H 1098.2 -2.21908 -3.01177 0
M  V30 11844 H 1099.53 -2.90376 -3.9742 0
M  V30 11845 N 1101.18 1.11143 -1.11736 0
M  V30 11846 C 1102.41 1.86745 -0.890727 0
M  V30 11847 C 1102.83 1.80315 0.55964 0
M  V30 11848 O 1102.18 1.18663 1.38656 0
M  V30 11849 C 1102.24 3.35436 -1.34779 0
M  V30 11850 O 1101.96 3.41738 -2.74129 0
M  V30 11851 C 1103.46 4.27935 -1.15702 0
M  V30 11852 H 1100.68 0.59044 -0.318781 0
M  V30 11853 H 1103.22 1.40549 -1.48547 0
M  V30 11854 H 1101.38 3.79125 -0.796425 0
M  V30 11855 H 1101.79 4.34347 -2.94012 0
M  V30 11856 H 1103.26 5.30494 -1.52579 0
M  V30 11857 H 1103.74 4.39093 -0.0968735 0
M  V30 11858 H 1104.35 3.90042 -1.69551 0
M  V30 11859 N 1102.66 0.908147 1.28804 0
M  V30 11860 C 1103.57 0.397167 2.31214 0
M  V30 11861 C 1104.59 -0.512352 1.66286 0
M  V30 11862 O 1105.76 -0.399893 1.9739 0
M  V30 11863 C 1102.83 -0.359522 3.44831 0
M  V30 11864 C 1101.89 0.582539 4.25329 0
M  V30 11865 C 1101.12 -0.138133 5.33521 0
M  V30 11866 O 1101.35 -1.36076 5.53931 0
M  V30 11867 O 1100.28 0.523682 5.99618 0
M  V30 11868 H 1104.11 1.247 2.76918 0
M  V30 11869 H 1101.69 0.672766 1.33395 0
M  V30 11870 H 1103.57 -0.787098 4.13984 0
M  V30 11871 H 1102.25 -1.18528 3.01219 0
M  V30 11872 H 1101.16 1.0594 3.58786 0
M  V30 11873 H 1102.49 1.37495 4.72605 0
M  V30 11874 N 1104.14 -1.42577 0.671525 0
M  V30 11875 C 1105.07 -2.2915 -0.0477361 0
M  V30 11876 C 1106.09 -1.43503 -0.768805 0
M  V30 11877 O 1107.27 -1.67256 -0.623509 0
M  V30 11878 C 1104.37 -3.20851 -1.09122 0
M  V30 11879 C 1103.55 -4.35134 -0.44463 0
M  V30 11880 C 1102.61 -5.07579 -1.38745 0
M  V30 11881 O 1101.63 -5.62215 -0.889015 0
M  V30 11882 N 1102.83 -5.12786 -2.72086 0
M  V30 11883 H 1105.6 -2.9152 0.695415 0
M  V30 11884 H 1103.16 -1.53467 0.515689 0
M  V30 11885 H 1105.15 -3.66183 -1.72315 0
M  V30 11886 H 1103.72 -2.59956 -1.73614 0
M  V30 11887 H 1102.94 -3.9249 0.36675 0
M  V30 11888 H 1104.23 -5.088 0.00595927 0
M  V30 11889 H 1103.63 -4.69802 -3.15123 0
M  V30 11890 H 1102.19 -5.61774 -3.30535 0
M  V30 11891 N 1105.62 -0.414636 -1.52048 0
M  V30 11892 C 1106.85 0.158686 -2.06291 0
M  V30 11893 C 1107.26 1.38397 -1.2842 0
M  V30 11894 O 1106.62 1.79351 -0.337539 0
M  V30 11895 C 1106.67 0.503634 -3.57975 0
M  V30 11896 O 1106.39 -0.672996 -4.329 0
M  V30 11897 C 1107.89 1.13009 -4.28653 0
M  V30 11898 H 1105.11 0.0179622 -0.67076 0
M  V30 11899 H 1107.66 -0.587177 -1.95889 0
M  V30 11900 H 1105.81 1.19939 -3.68366 0
M  V30 11901 H 1106.22 -0.383735 -5.23094 0
M  V30 11902 H 1107.7 1.32162 -5.35945 0
M  V30 11903 H 1108.18 2.10476 -3.85482 0
M  V30 11904 H 1108.78 0.474379 -4.22646 0
M  V30 11905 N 1107.1 1.56929 -0.145233 0
M  V30 11906 C 1108.35 1.95243 0.506273 0
M  V30 11907 C 1108.66 1.0325 1.66129 0
M  V30 11908 O 1109.86 1.31135 2.37731 0
M  V30 11909 C 1108.32 3.47079 0.952042 0
M  V30 11910 C 1107.93 4.47654 -0.175947 0
M  V30 11911 C 1109.67 3.94263 1.57344 0
M  V30 11912 C 1107.58 5.90698 0.287993 0
M  V30 11913 H 1106.51 0.728906 0.192903 0
M  V30 11914 H 1109.16 1.82062 -0.229295 0
M  V30 11915 H 1107.54 3.55587 1.74282 0
M  V30 11916 H 1108.72 4.50841 -0.952848 0
M  V30 11917 H 1107.03 4.10377 -0.70564 0
M  V30 11918 H 1109.63 4.9857 1.93214 0
M  V30 11919 H 1109.97 3.35714 2.46174 0
M  V30 11920 H 1110.5 3.88665 0.847593 0
M  V30 11921 H 1107.24 6.53061 -0.564889 0
M  V30 11922 H 1106.76 5.90876 1.03081 0
M  V30 11923 H 1108.44 6.42747 0.740586 0
M  V30 11924 N 1108.58 -0.128553 1.57075 0
M  V30 11925 C 1109.8 -0.8564 1.88893 0
M  V30 11926 C 1110.23 -1.73095 0.736196 0
M  V30 11927 O 1109.58 -1.78567 -0.313629 0
M  V30 11928 C 1109.63 -1.67368 3.19406 0
M  V30 11929 O 1108.74 -2.77973 3.04639 0
M  V30 11930 H 1108.08 -0.237424 0.620102 0
M  V30 11931 H 1110.61 -0.113821 2.04283 0
M  V30 11932 H 1110.62 -2.0649 3.51889 0
M  V30 11933 H 1109.29 -1.03161 4.02903 0
M  V30 11934 H 1107.87 -2.42123 2.83603 0
M  V30 11935 N 1110.05 -1.5248 -0.398459 0
M  V30 11936 C 1111.33 -1.57634 -1.15805 0
M  V30 11937 C 1111.71 -0.363785 -2.07942 0
M  V30 11938 O 1111.06 0.648598 -2.19101 0
M  V30 11939 C 1111.27 -2.91042 -1.92602 0
M  V30 11940 C 1112.62 -3.44433 -2.48296 0
M  V30 11941 O 1113.64 -2.92853 -2.0277 0
M  V30 11942 O 1112.5 -4.34529 -3.31432 0
M  V30 11943 H 1109.59 -0.63539 -0.529347 0
M  V30 11944 H 1112.14 -1.64812 -0.404376 0
M  V30 11945 H 1110.91 -3.7074 -1.25169 0
M  V30 11946 H 1110.53 -2.87206 -2.74952 0
M  V30 11947 N 1111.53 0.65634 -1.43283 0
M  V30 11948 C 1112.44 1.79847 -1.50639 0
M  V30 11949 C 1113.46 1.69487 -0.393714 0
M  V30 11950 O 1114.63 1.90712 -0.647379 0
M  V30 11951 C 1111.7 3.16107 -1.42398 0
M  V30 11952 C 1110.76 3.38287 -2.64312 0
M  V30 11953 C 1109.99 4.68046 -2.56454 0
M  V30 11954 O 1110.22 5.4719 -1.61056 0
M  V30 11955 O 1109.15 4.91877 -3.46902 0
M  V30 11956 H 1112.98 1.76596 -2.47078 0
M  V30 11957 H 1110.56 0.814428 -1.25249 0
M  V30 11958 H 1112.44 3.97382 -1.40233 0
M  V30 11959 H 1111.12 3.19956 -0.490929 0
M  V30 11960 H 1110.02 2.56788 -2.72049 0
M  V30 11961 H 1111.36 3.39282 -3.56579 0
M  V30 11962 N 1113.01 1.29761 0.894412 0
M  V30 11963 C 1113.92 1.1724 2.03204 0
M  V30 11964 C 1114.94 0.0944452 1.73743 0
M  V30 11965 O 1116.11 0.307549 1.99038 0
M  V30 11966 C 1113.18 0.855416 3.35981 0
M  V30 11967 C 1112.24 2.01777 3.78926 0
M  V30 11968 C 1111.47 1.71581 5.05367 0
M  V30 11969 O 1111.69 0.639245 5.66807 0
M  V30 11970 O 1110.63 2.56539 5.44492 0
M  V30 11971 H 1114.45 2.12787 2.16692 0
M  V30 11972 H 1112.04 1.09264 1.0189 0
M  V30 11973 H 1113.92 0.693429 4.15656 0
M  V30 11974 H 1112.6 -0.0702195 3.23624 0
M  V30 11975 H 1111.5 2.23502 2.99996 0
M  V30 11976 H 1112.84 2.92479 3.95875 0
M  V30 11977 N 1114.49 -1.10549 1.12324 0
M  V30 11978 C 1115.74 -1.81851 0.872531 0
M  V30 11979 C 1116.05 -1.86058 -0.603468 0
M  V30 11980 O 1117.26 -2.53553 -0.970736 0
M  V30 11981 C 1115.71 -3.26631 1.51131 0
M  V30 11982 C 1115.32 -3.30725 3.02201 0
M  V30 11983 C 1117.06 -4.02768 1.34082 0
M  V30 11984 C 1114.97 -4.69957 3.59018 0
M  V30 11985 H 1113.9 -0.681422 0.322769 0
M  V30 11986 H 1116.55 -1.24332 1.34959 0
M  V30 11987 H 1114.93 -3.8414 0.961913 0
M  V30 11988 H 1116.11 -2.83046 3.63623 0
M  V30 11989 H 1114.42 -2.68072 3.18632 0
M  V30 11990 H 1117.02 -5.05612 1.73955 0
M  V30 11991 H 1117.36 -4.15328 0.284369 0
M  V30 11992 H 1117.9 -3.51671 1.85937 0
M  V30 11993 H 1114.63 -4.62597 4.64418 0
M  V30 11994 H 1114.15 -5.18008 3.02371 0
M  V30 11995 H 1115.83 -5.38925 3.58007 0
M  V30 11996 N 1115.97 -0.914965 -1.28321 0
M  V30 11997 C 1116.92 -0.375436 -2.24888 0
M  V30 11998 C 1117.9 0.51313 -1.52498 0
M  V30 11999 O 1119.09 0.352654 -1.73451 0
M  V30 12000 C 1116.22 0.382266 -3.41165 0
M  V30 12001 C 1115.31 -0.522089 -4.20874 0
M  V30 12002 N 1115.7 -1.63623 -4.78603 0
M  V30 12003 C 1114 -0.322703 -4.44831 0
M  V30 12004 C 1114.7 -2.19766 -5.38589 0
M  V30 12005 N 1113.67 -1.48878 -5.22816 0
M  V30 12006 H 1117.47 -1.2263 -2.67094 0
M  V30 12007 H 1114.99 -0.767759 -1.43106 0
M  V30 12008 H 1116.99 0.785641 -4.0943 0
M  V30 12009 H 1115.65 1.23021 -3.00493 0
M  V30 12010 H 1116.66 -2.01879 -4.76933 0
M  V30 12011 H 1113.33 0.485627 -4.14666 0
M  V30 12012 H 1114.72 -3.13494 -5.94282 0
M  V30 12013 N 1117.44 1.42219 -0.679077 0
M  V30 12014 C 1118.72 1.95155 -0.13188 0
M  V30 12015 C 1119.1 1.6193 1.35433 0
M  V30 12016 O 1118.45 0.917672 2.09263 0
M  V30 12017 C 1118.66 3.46635 -0.405578 0
M  V30 12018 C 1120.01 4.23359 -0.324394 0
M  V30 12019 O 1121.03 3.54578 -0.339564 0
M  V30 12020 O 1119.89 5.45831 -0.270268 0
M  V30 12021 H 1116.98 0.826983 -0.00535438 0
M  V30 12022 H 1119.53 1.52024 -0.754101 0
M  V30 12023 H 1118.3 3.6404 -1.43495 0
M  V30 12024 H 1117.92 3.96823 0.248439 0
M  V30 12025 N 1118.92 0.422693 1.51826 0
M  V30 12026 C 1119.83 -0.40261 2.31119 0
M  V30 12027 C 1120.85 -1.04117 1.39412 0
M  V30 12028 O 1122.02 -1.03973 1.72486 0
M  V30 12029 C 1119.09 -1.49699 3.12716 0
M  V30 12030 C 1118.15 -0.880088 4.20182 0
M  V30 12031 C 1117.38 -1.92232 4.97878 0
M  V30 12032 O 1117.61 -3.14246 4.76031 0
M  V30 12033 O 1116.54 -1.521 5.82365 0
M  V30 12034 H 1120.37 0.244308 3.02716 0
M  V30 12035 H 1117.95 0.185569 1.48243 0
M  V30 12036 H 1119.83 -2.13202 3.63487 0
M  V30 12037 H 1118.51 -2.12826 2.43899 0
M  V30 12038 H 1117.41 -0.207404 3.73525 0
M  V30 12039 H 1118.75 -0.292535 4.9133 0
M  V30 12040 N 1120.4 -1.5685 0.153553 0
M  V30 12041 C 1121.81 -1.83074 -0.36618 0
M  V30 12042 C 1122.16 -1.07257 -1.64288 0
M  V30 12043 O 1121.29 -0.319925 -2.14022 0
M  V30 12044 C 1121.88 -3.32086 -0.671142 0
M  V30 12045 C 1120.44 -3.58868 -1.13537 0
M  V30 12046 C 1119.59 -2.76827 -0.161887 0
M  V30 12047 H 1122.54 -1.54129 0.378139 0
M  V30 12048 H 1122.56 -3.48598 -1.52512 0
M  V30 12049 H 1122.07 -3.8724 0.258234 0
M  V30 12050 H 1120.17 -3.09107 -2.08047 0
M  V30 12051 H 1120.29 -4.67299 -1.05682 0
M  V30 12052 H 1118.65 -2.46112 -0.6558 0
M  V30 12053 H 1119.43 -3.34755 0.761195 0
M  V30 12054 N 1121.88 0.120221 -1.57141 0
M  V30 12055 C 1122.79 1.16641 -2.03549 0
M  V30 12056 C 1123.8 1.45407 -0.955656 0
M  V30 12057 O 1124.98 1.56547 -1.26708 0
M  V30 12058 C 1122.04 2.4734 -2.42948 0
M  V30 12059 C 1121.11 2.25982 -3.65008 0
M  V30 12060 C 1120.34 3.50449 -4.02518 0
M  V30 12061 O 1120.56 4.57706 -3.40384 0
M  V30 12062 O 1119.5 3.41524 -4.95626 0
M  V30 12063 H 1123.32 0.802323 -2.9291 0
M  V30 12064 H 1120.91 0.330927 -1.45689 0
M  V30 12065 H 1122.79 3.24348 -2.69029 0
M  V30 12066 H 1121.46 2.83225 -1.56733 0
M  V30 12067 H 1120.37 1.46837 -3.44078 0
M  V30 12068 H 1121.7 1.95002 -4.51924 0
M  V30 12069 N 1123.36 1.52689 0.390367 0
M  V30 12070 C 1124.27 1.8029 1.50108 0
M  V30 12071 C 1125.28 0.689582 1.59752 0
M  V30 12072 O 1126.46 0.977024 1.76114 0
M  V30 12073 C 1123.52 1.96475 2.85654 0
M  V30 12074 C 1122.58 3.2039 2.85743 0
M  V30 12075 C 1121.82 3.35793 4.14824 0
M  V30 12076 O 1122.04 2.56033 5.09709 0
M  V30 12077 O 1120.97 4.2904 4.22147 0
M  V30 12078 H 1124.8 2.74605 1.29715 0
M  V30 12079 H 1122.39 1.37763 0.578074 0
M  V30 12080 H 1124.27 2.08835 3.66013 0
M  V30 12081 H 1122.94 1.05351 3.06077 0
M  V30 12082 H 1121.85 3.13473 2.0417 0
M  V30 12083 H 1123.18 4.11356 2.70272 0
M  V30 12084 N 1124.83 -0.648732 1.43629 0
M  V30 12085 C 1126.25 -0.964917 1.27128 0
M  V30 12086 C 1126.45 -2.00561 0.194251 0
M  V30 12087 O 1125.51 -2.48884 -0.42581 0
M  V30 12088 C 1126.82 -1.44491 2.6371 0
M  V30 12089 C 1128.37 -1.56133 2.71278 0
M  V30 12090 C 1128.84 -2.07521 4.08288 0
M  V30 12091 N 1130.33 -2.14817 4.10375 0
M  V30 12092 C 1131.07 -2.55712 5.13224 0
M  V30 12093 N 1130.56 -2.9587 6.26444 0
M  V30 12094 N 1132.36 -2.55691 5.00578 0
M  V30 12095 H 1124.51 0.0398357 2.12363 0
M  V30 12096 H 1126.77 -0.0447705 0.946942 0
M  V30 12097 H 1126.48 -0.754616 3.43509 0
M  V30 12098 H 1126.35 -2.41914 2.89409 0
M  V30 12099 H 1128.74 -2.24263 1.91808 0
M  V30 12100 H 1128.82 -0.571314 2.49338 0
M  V30 12101 H 1128.46 -1.39992 4.88226 0
M  V30 12102 H 1128.39 -3.07362 4.27594 0
M  V30 12103 H 1130.88 -1.86538 3.28652 0
M  V30 12104 H 1131.2 -3.25837 7.0075 0
M  V30 12105 H 1129.54 -2.93664 6.2991 0
M  V30 12106 H 1132.73 -2.23697 4.1119 0
M  V30 12107 H 1132.91 -2.87239 5.80859 0
M  V30 12108 N 1126.31 -1.30234 -0.887518 0
M  V30 12109 C 1127.72 -1.17048 -1.45453 0
M  V30 12110 C 1128.07 0.229793 -1.9485 0
M  V30 12111 O 1127.2 1.12628 -1.84781 0
M  V30 12112 C 1127.79 -2.11876 -2.64375 0
M  V30 12113 C 1126.35 -2.02676 -3.17174 0
M  V30 12114 C 1125.5 -2.02104 -1.89866 0
M  V30 12115 H 1128.45 -1.42541 -0.697694 0
M  V30 12116 H 1128.47 -1.69811 -3.40506 0
M  V30 12117 H 1127.98 -3.13781 -2.28392 0
M  V30 12118 H 1126.09 -1.03904 -3.57819 0
M  V30 12119 H 1126.2 -2.90939 -3.80646 0
M  V30 12120 H 1124.56 -1.4687 -2.0809 0
M  V30 12121 H 1125.35 -3.05735 -1.56145 0
M  V30 12122 N 1127.79 1.09952 -1.12909 0
M  V30 12123 C 1128.75 2.14615 -0.804548 0
M  V30 12124 C 1129.75 1.5975 0.18345 0
M  V30 12125 O 1130.94 1.74147 -0.0429623 0
M  V30 12126 C 1128.08 3.40333 -0.196471 0
M  V30 12127 H 1129.27 2.44835 -1.73193 0
M  V30 12128 H 1126.82 1.25399 -0.932997 0
M  V30 12129 H 1127.56 3.15735 0.740388 0
M  V30 12130 H 1127.34 3.81444 -0.907886 0
M  V30 12131 H 1128.83 4.17598 0.0139264 0
M  V30 12132 N 1129.27 0.921757 1.27833 0
M  V30 12133 C 1130.68 0.604496 1.76643 0
M  V30 12134 C 1131.03 -0.880294 1.75343 0
M  V30 12135 O 1130.16 -1.68875 1.35315 0
M  V30 12136 C 1130.75 1.09055 3.20768 0
M  V30 12137 C 1129.31 0.824066 3.67268 0
M  V30 12138 C 1128.46 1.25269 2.47392 0
M  V30 12139 H 1131.41 1.10217 1.14184 0
M  V30 12140 H 1131.43 0.435558 3.77999 0
M  V30 12141 H 1130.94 2.17122 3.21682 0
M  V30 12142 H 1129.04 -0.243055 3.71806 0
M  V30 12143 H 1129.15 1.43743 4.57028 0
M  V30 12144 H 1127.52 0.671313 2.45694 0
M  V30 12145 H 1128.3 2.34188 2.5102 0
M  V30 12146 N 1130.75 -1.41857 0.686609 0
M  V30 12147 C 1132.16 -1.84439 0.289662 0
M  V30 12148 C 1132.51 -1.57462 -1.17047 0
M  V30 12149 O 1131.63 -1.04046 -1.89745 0
M  V30 12150 C 1132.23 -3.34802 0.518948 0
M  V30 12151 C 1130.79 -3.75988 0.176007 0
M  V30 12152 C 1129.93 -2.65339 0.805632 0
M  V30 12153 H 1132.89 -1.31536 0.88792 0
M  V30 12154 H 1132.91 -3.79833 -0.225209 0
M  V30 12155 H 1132.42 -3.54405 1.58173 0
M  V30 12156 H 1130.52 -3.61989 -0.882865 0
M  V30 12157 H 1130.63 -4.75009 0.624772 0
M  V30 12158 H 1129 -2.53605 0.235966 0
M  V30 12159 H 1129.78 -2.87762 1.8721 0
M  V30 12160 N 1132.22 -0.430739 -1.51599 0
M  V30 12161 C 1133.64 -0.0826902 -1.59386 0
M  V30 12162 C 1133.84 1.40729 -1.44214 0
M  V30 12163 O 1132.9 2.1765 -1.28002 0
M  V30 12164 C 1134.21 -0.59691 -2.94716 0
M  V30 12165 C 1135.76 -0.556772 -3.08008 0
M  V30 12166 C 1136.23 -1.04786 -4.45852 0
M  V30 12167 N 1137.72 -1.00557 -4.52153 0
M  V30 12168 C 1138.46 -1.35649 -5.57124 0
M  V30 12169 N 1137.95 -1.77994 -6.69545 0
M  V30 12170 N 1139.75 -1.27508 -5.47447 0
M  V30 12171 H 1131.9 -1.40027 -1.59707 0
M  V30 12172 H 1134.16 -0.576606 -0.752482 0
M  V30 12173 H 1133.87 -1.63914 -3.11167 0
M  V30 12174 H 1133.74 -0.0182342 -3.77196 0
M  V30 12175 H 1136.13 0.476457 -2.91228 0
M  V30 12176 H 1136.21 -1.17177 -2.27383 0
M  V30 12177 H 1135.85 -2.07952 -4.63377 0
M  V30 12178 H 1135.78 -0.409461 -5.25006 0
M  V30 12179 H 1138.27 -0.694518 -3.71463 0
M  V30 12180 H 1138.59 -2.03026 -7.45654 0
M  V30 12181 H 1136.93 -1.81916 -6.70769 0
M  V30 12182 H 1140.12 -0.942969 -4.58504 0
M  V30 12183 H 1140.3 -1.55185 -6.29143 0
M  V30 12184 N 1133.7 1.56767 -0.161869 0
M  V30 12185 C 1134.95 1.96594 0.485496 0
M  V30 12186 C 1135.28 1.04743 1.63887 0
M  V30 12187 O 1134.53 0.079602 1.95538 0
M  V30 12188 C 1134.83 3.42567 1.01894 0
M  V30 12189 C 1134.5 4.50897 -0.0175419 0
M  V30 12190 C 1133.16 4.80249 -0.302429 0
M  V30 12191 C 1135.51 5.16181 -0.721572 0
M  V30 12192 C 1132.84 5.72187 -1.2969 0
M  V30 12193 C 1135.19 6.09191 -1.70496 0
M  V30 12194 C 1133.86 6.36915 -1.99739 0
M  V30 12195 H 1133.13 0.719388 0.177656 0
M  V30 12196 H 1135.77 1.89837 -0.251839 0
M  V30 12197 H 1134.08 3.4623 1.83391 0
M  V30 12198 H 1135.77 3.70719 1.52867 0
M  V30 12199 H 1132.36 4.28062 0.21468 0
M  V30 12200 H 1136.55 4.93624 -0.514681 0
M  V30 12201 H 1131.8 5.91953 -1.52974 0
M  V30 12202 H 1135.98 6.58849 -2.25591 0
M  V30 12203 H 1133.61 7.07958 -2.76948 0
M  V30 12204 N 1135.18 -0.111886 1.57202 0
M  V30 12205 C 1136.13 -1.14287 1.97288 0
M  V30 12206 C 1137.11 -1.36686 0.848868 0
M  V30 12207 O 1138.31 -1.37659 1.11261 0
M  V30 12208 C 1135.44 -2.46759 2.38673 0
M  V30 12209 C 1134.52 -2.27805 3.57723 0
M  V30 12210 N 1134.91 -1.78679 4.73189 0
M  V30 12211 C 1133.21 -2.58435 3.63494 0
M  V30 12212 C 1133.91 -1.736 5.55192 0
M  V30 12213 N 1132.89 -2.18205 4.97883 0
M  V30 12214 H 1136.69 -0.755711 2.84018 0
M  V30 12215 H 1134.2 -0.31954 1.59225 0
M  V30 12216 H 1136.2 -3.21335 2.65611 0
M  V30 12217 H 1134.86 -2.86227 1.53311 0
M  V30 12218 H 1135.87 -1.48121 4.96267 0
M  V30 12219 H 1132.55 -3.0154 2.88755 0
M  V30 12220 H 1133.94 -1.36812 6.57824 0
M  V30 12221 N 1136.66 -1.52894 -0.382264 0
M  V30 12222 C 1137.89 -1.72152 -1.14766 0
M  V30 12223 C 1138.3 -0.442911 -1.83531 0
M  V30 12224 O 1137.66 0.583085 -1.72935 0
M  V30 12225 C 1137.71 -2.87566 -2.19062 0
M  V30 12226 O 1137.43 -4.10478 -1.53099 0
M  V30 12227 C 1138.93 -3.18559 -3.08277 0
M  V30 12228 H 1136.15 -0.576212 -0.343832 0
M  V30 12229 H 1138.7 -1.99571 -0.446273 0
M  V30 12230 H 1136.85 -2.62589 -2.84826 0
M  V30 12231 H 1137.26 -4.74989 -2.22454 0
M  V30 12232 H 1138.74 -4.02763 -3.77473 0
M  V30 12233 H 1139.22 -2.33222 -3.72161 0
M  V30 12234 H 1139.82 -3.454 -2.48151 0
M  V30 12235 N 1138.14 0.641106 -1.43971 0
M  V30 12236 C 1139.36 1.43324 -1.4991 0
M  V30 12237 C 1139.79 1.87705 -0.121908 0
M  V30 12238 O 1139.15 1.58127 0.886875 0
M  V30 12239 C 1139.19 2.63637 -2.46025 0
M  V30 12240 O 1138.3 3.63123 -1.95488 0
M  V30 12241 H 1137.64 0.429252 -0.506595 0
M  V30 12242 H 1140.17 0.783427 -1.89007 0
M  V30 12243 H 1140.18 3.11304 -2.63731 0
M  V30 12244 H 1138.85 2.30678 -3.46064 0
M  V30 12245 H 1137.43 3.22332 -1.87501 0
M  V30 12246 N 1139.62 1.30703 0.880598 0
M  V30 12247 C 1140.84 1.22714 1.6658 0
M  V30 12248 C 1141.26 -0.209303 1.87636 0
M  V30 12249 O 1140.62 -1.13771 1.42697 0
M  V30 12250 C 1140.67 1.95659 3.03974 0
M  V30 12251 O 1140.39 3.33695 2.83865 0
M  V30 12252 C 1141.89 1.9438 3.98411 0
M  V30 12253 H 1139.11 0.424478 0.519673 0
M  V30 12254 H 1141.65 1.72402 1.0999 0
M  V30 12255 H 1139.81 1.49758 3.57283 0
M  V30 12256 H 1140.22 3.70697 3.71058 0
M  V30 12257 H 1141.7 2.4995 4.92168 0
M  V30 12258 H 1142.17 0.923767 4.29375 0
M  V30 12259 H 1142.78 2.40112 3.51036 0
M  V30 12260 N 1141.09 -1.09351 1.1349 0
M  V30 12261 C 1142.32 -1.85036 0.918989 0
M  V30 12262 C 1142.73 -1.8146 -0.535638 0
M  V30 12263 O 1142.07 -1.20958 -1.38256 0
M  V30 12264 C 1142.14 -3.33992 1.33001 0
M  V30 12265 C 1141.8 -3.61315 2.79822 0
M  V30 12266 C 1142.8 -3.56973 3.77976 0
M  V30 12267 C 1140.48 -3.89636 3.17001 0
M  V30 12268 C 1142.48 -3.80564 5.11321 0
M  V30 12269 C 1140.16 -4.12882 4.50524 0
M  V30 12270 C 1141.16 -4.08338 5.47494 0
M  V30 12271 O 1140.85 -4.30983 6.78608 0
M  V30 12272 H 1140.58 -0.591301 0.327627 0
M  V30 12273 H 1143.14 -1.39078 1.5115 0
M  V30 12274 H 1141.37 -3.8066 0.68077 0
M  V30 12275 H 1143.05 -3.9109 1.08645 0
M  V30 12276 H 1143.82 -3.3512 3.50599 0
M  V30 12277 H 1139.7 -3.92297 2.42124 0
M  V30 12278 H 1143.24 -3.76933 5.86998 0
M  V30 12279 H 1139.14 -4.34216 4.77626 0
M  V30 12280 H 1139.91 -4.4844 6.84722 0
M  V30 12281 N 1142.57 -0.928524 -1.27343 0
M  V30 12282 C 1143.85 -0.487758 -1.89421 0
M  V30 12283 C 1144.23 1.03418 -1.84032 0
M  V30 12284 O 1143.58 1.8887 -1.2861 0
M  V30 12285 C 1143.79 -1.03478 -3.33307 0
M  V30 12286 C 1145.13 -1.09577 -4.10217 0
M  V30 12287 O 1146.16 -0.984463 -3.42326 0
M  V30 12288 O 1145.02 -1.2673 -5.31603 0
M  V30 12289 H 1142.11 -0.157018 -0.811957 0
M  V30 12290 H 1144.66 -1.02027 -1.35605 0
M  V30 12291 H 1143.43 -2.07861 -3.31526 0
M  V30 12292 H 1143.05 -0.483967 -3.94644 0
M  V30 12293 N 1144.05 1.41491 -0.694123 0
M  V30 12294 C 1144.98 2.33462 -0.0422169 0
M  V30 12295 C 1145.96 1.51739 0.76872 0
M  V30 12296 O 1147.15 1.8028 0.721985 0
M  V30 12297 C 1144.28 3.35545 0.895925 0
M  V30 12298 C 1143.23 4.27568 0.192188 0
M  V30 12299 C 1142.56 5.20014 1.24459 0
M  V30 12300 C 1143.86 5.1376 -0.940626 0
M  V30 12301 H 1145.55 2.88225 -0.810363 0
M  V30 12302 H 1143.1 1.38586 -0.39114 0
M  V30 12303 H 1145.05 3.9881 1.36121 0
M  V30 12304 H 1143.77 2.79129 1.69572 0
M  V30 12305 H 1142.43 3.65726 -0.25305 0
M  V30 12306 H 1142.08 4.59913 2.03687 0
M  V30 12307 H 1141.78 5.82417 0.778734 0
M  V30 12308 H 1143.3 5.86155 1.71041 0
M  V30 12309 H 1144.72 5.70601 -0.555692 0
M  V30 12310 H 1143.11 5.85097 -1.33349 0
M  V30 12311 H 1144.18 4.51011 -1.78093 0
M  V30 12312 N 1145.53 0.438773 1.51369 0
M  V30 12313 C 1146.94 -0.0240139 1.86685 0
M  V30 12314 C 1147.29 -1.41816 1.35583 0
M  V30 12315 O 1146.41 -2.04517 0.707232 0
M  V30 12316 C 1147.01 -0.0503527 3.38763 0
M  V30 12317 C 1145.57 -0.457556 3.73609 0
M  V30 12318 C 1144.72 0.348852 2.75097 0
M  V30 12319 H 1147.67 0.654552 1.44573 0
M  V30 12320 H 1147.69 -0.859534 3.70665 0
M  V30 12321 H 1147.2 0.964451 3.75925 0
M  V30 12322 H 1145.3 -1.47791 3.42036 0
M  V30 12323 H 1145.41 -0.181357 4.78757 0
M  V30 12324 H 1143.78 -0.193037 2.53967 0
M  V30 12325 H 1144.56 1.36256 3.15102 0
M  V30 12326 N 1147.01 -1.56678 0.170181 0
M  V30 12327 C 1148.25 -1.9646 -0.474125 0
M  V30 12328 C 1148.57 -1.05719 -1.63855 0
M  V30 12329 O 1147.84 -0.123316 -1.95511 0
M  V30 12330 H 1146.42 -0.725446 -0.178149 0
M  V30 12331 H 1149.09 -1.93276 0.251099 0
M  V30 12332 H 1148.18 -3.00726 -0.834894 0
M  V30 12333 N 1148.48 0.103547 -1.57259 0
M  V30 12334 C 1149.89 0.659006 -1.74683 0
M  V30 12335 C 1150.25 1.79542 -0.791142 0
M  V30 12336 O 1149.37 2.16376 0.0323585 0
M  V30 12337 C 1149.97 1.20222 -3.16752 0
M  V30 12338 C 1148.52 1.70382 -3.35629 0
M  V30 12339 C 1147.67 0.609886 -2.7051 0
M  V30 12340 H 1150.62 -0.122474 -1.58227 0
M  V30 12341 H 1150.64 2.07169 -3.19157 0
M  V30 12342 H 1150.16 0.374901 -3.86285 0
M  V30 12343 H 1148.26 2.55542 -2.71162 0
M  V30 12344 H 1148.37 1.80263 -4.43894 0
M  V30 12345 H 1146.73 1.04728 -2.32173 0
M  V30 12346 H 1147.52 -0.206713 -3.42677 0
M  V30 12347 N 1149.96 1.53094 0.37415 0
M  V30 12348 C 1150.87 1.81872 1.48188 0
M  V30 12349 C 1151.89 0.706487 1.59012 0
M  V30 12350 O 1153.06 0.995648 1.75068 0
M  V30 12351 C 1150.13 1.99494 2.83554 0
M  V30 12352 C 1149.19 3.23402 2.82329 0
M  V30 12353 C 1148.42 3.40174 4.11239 0
M  V30 12354 O 1148.65 2.61425 5.06965 0
M  V30 12355 O 1147.58 4.33493 4.17573 0
M  V30 12356 H 1151.41 2.75965 1.26795 0
M  V30 12357 H 1148.99 1.38368 0.56343 0
M  V30 12358 H 1150.87 2.12705 3.63778 0
M  V30 12359 H 1149.55 1.08591 3.04942 0
M  V30 12360 H 1148.45 3.15621 2.00834 0
M  V30 12361 H 1149.79 4.14199 2.65894 0
M  V30 12362 N 1151.44 -0.633461 1.44309 0
M  V30 12363 C 1152.69 -1.39031 1.46679 0
M  V30 12364 C 1153.01 -1.94745 0.0997165 0
M  V30 12365 O 1152.28 -1.75637 -0.867659 0
M  V30 12366 H 1150.86 -0.516051 0.540093 0
M  V30 12367 H 1153.52 -0.745739 1.80069 0
M  V30 12368 H 1152.62 -2.2228 2.19085 0
M  V30 12369 N 1152.92 -1.31168 -0.873655 0
M  V30 12370 C 1153.88 -1.18471 -1.96207 0
M  V30 12371 C 1154.88 -0.112814 -1.60404 0
M  V30 12372 O 1156.07 -0.3618 -1.70401 0
M  V30 12373 C 1153.2 -0.817662 -3.30949 0
M  V30 12374 H 1154.4 -2.1518 -2.08896 0
M  V30 12375 H 1151.95 -1.14727 -1.06149 0
M  V30 12376 H 1152.68 0.148428 -3.2396 0
M  V30 12377 H 1152.47 -1.59244 -3.58307 0
M  V30 12378 H 1153.96 -0.75262 -4.10762 0
M  V30 12379 N 1154.4 1.08748 -1.14068 0
M  V30 12380 C 1155.64 1.80707 -0.904947 0
M  V30 12381 C 1155.97 1.86478 0.570167 0
M  V30 12382 O 1155.24 1.35536 1.41445 0
M  V30 12383 H 1153.82 0.669261 -0.331811 0
M  V30 12384 H 1156.48 1.31494 -1.43859 0
M  V30 12385 H 1155.57 2.83653 -1.30182 0
M  V30 12386 N 1155.87 0.935264 1.26849 0
M  V30 12387 C 1157.29 0.623198 1.75992 0
M  V30 12388 C 1157.64 -0.861647 1.76267 0
M  V30 12389 O 1156.76 -1.6743 1.37099 0
M  V30 12390 C 1157.36 1.12451 3.19594 0
M  V30 12391 C 1155.92 0.862974 3.66374 0
M  V30 12392 C 1155.06 1.27886 2.4605 0
M  V30 12393 H 1158.01 1.11422 1.13008 0
M  V30 12394 H 1158.03 0.475626 3.77516 0
M  V30 12395 H 1157.55 2.20522 3.19361 0
M  V30 12396 H 1155.65 -0.203606 3.72043 0
M  V30 12397 H 1155.76 1.48582 4.55478 0
M  V30 12398 H 1154.12 0.697335 2.44968 0
M  V30 12399 H 1154.91 2.36837 2.48522 0
M  V30 12400 N 1157.35 -1.41121 0.701616 0
M  V30 12401 C 1158.6 -2.0113 0.235147 0
M  V30 12402 C 1158.93 -1.55587 -1.16718 0
M  V30 12403 O 1158.18 -0.760615 -1.80314 0
M  V30 12404 C 1158.48 -3.5654 0.247781 0
M  V30 12405 C 1158.15 -4.21616 1.59846 0
M  V30 12406 C 1156.81 -4.39106 1.96822 0
M  V30 12407 C 1159.16 -4.58048 2.48679 0
M  V30 12408 C 1156.49 -4.90307 3.22205 0
M  V30 12409 C 1158.84 -5.10642 3.734 0
M  V30 12410 C 1157.51 -5.26343 4.10512 0
M  V30 12411 H 1156.78 -0.735987 0.0860462 0
M  V30 12412 H 1159.42 -1.68932 0.901898 0
M  V30 12413 H 1157.73 -3.88564 -0.502528 0
M  V30 12414 H 1159.42 -4.00787 -0.130766 0
M  V30 12415 H 1156.01 -4.08381 1.30088 0
M  V30 12416 H 1160.2 -4.44184 2.21391 0
M  V30 12417 H 1155.45 -5.00647 3.50945 0
M  V30 12418 H 1159.63 -5.37811 4.42416 0
M  V30 12419 H 1157.26 -5.65779 5.07738 0
M  V30 12420 N 1158.83 -0.446794 -1.51134 0
M  V30 12421 C 1159.74 0.36579 -2.31731 0
M  V30 12422 C 1160.76 1.01886 -1.41051 0
M  V30 12423 O 1161.93 1.01216 -1.74119 0
M  V30 12424 C 1159 1.44705 -3.15058 0
M  V30 12425 C 1158.06 0.813129 -4.21529 0
M  V30 12426 C 1157.29 1.84287 -5.00873 0
M  V30 12427 O 1157.51 3.06633 -4.8097 0
M  V30 12428 O 1156.45 1.42816 -5.84711 0
M  V30 12429 H 1160.27 -0.292436 -3.02289 0
M  V30 12430 H 1157.86 -0.209129 -1.47929 0
M  V30 12431 H 1159.74 2.07393 -3.66833 0
M  V30 12432 H 1158.42 2.08919 -2.47254 0
M  V30 12433 H 1157.32 0.147953 -3.73807 0
M  V30 12434 H 1158.66 0.214331 -4.91733 0
M  V30 12435 N 1160.31 1.56586 -0.178487 0
M  V30 12436 C 1161.27 2.17091 0.73512 0
M  V30 12437 C 1162.27 1.12088 1.15295 0
M  V30 12438 O 1163.46 1.37563 1.06874 0
M  V30 12439 C 1160.59 2.75957 2.00151 0
M  V30 12440 H 1161.79 2.99176 0.208272 0
M  V30 12441 H 1159.34 1.56138 0.0710967 0
M  V30 12442 H 1160.07 1.97626 2.57127 0
M  V30 12443 H 1159.86 3.52809 1.7108 0
M  V30 12444 H 1161.35 3.2247 2.65335 0
M  V30 12445 N 1161.79 -0.095206 1.57312 0
M  V30 12446 C 1163.01 -0.81614 1.90667 0
M  V30 12447 C 1163.44 -1.71494 0.772746 0
M  V30 12448 O 1162.79 -1.79192 -0.275682 0
M  V30 12449 C 1162.84 -1.60555 3.22885 0
M  V30 12450 O 1161.95 -2.71448 3.10467 0
M  V30 12451 H 1161.29 -0.224217 0.624998 0
M  V30 12452 H 1163.82 -0.070464 2.04479 0
M  V30 12453 H 1163.83 -1.98979 3.5619 0
M  V30 12454 H 1162.5 -0.945918 4.05 0
M  V30 12455 H 1161.08 -2.36053 2.88675 0
M  V30 12456 N 1163.26 -1.53291 -0.366026 0
M  V30 12457 C 1164.2 -1.75981 -1.46845 0
M  V30 12458 C 1165.21 -0.640574 -1.49668 0
M  V30 12459 O 1166.4 -0.916823 -1.53155 0
M  V30 12460 C 1163.5 -1.82426 -2.85611 0
M  V30 12461 C 1162.67 -3.12062 -3.0649 0
M  V30 12462 C 1161.73 -3.09755 -4.25368 0
M  V30 12463 O 1160.76 -3.83555 -4.20564 0
M  V30 12464 N 1161.96 -2.30544 -5.32757 0
M  V30 12465 H 1164.72 -2.71104 -1.2776 0
M  V30 12466 H 1162.28 -1.52063 -0.555745 0
M  V30 12467 H 1164.28 -1.78361 -3.63276 0
M  V30 12468 H 1162.85 -0.945888 -2.97946 0
M  V30 12469 H 1162.07 -3.29433 -2.16489 0
M  V30 12470 H 1163.35 -3.97735 -3.17308 0
M  V30 12471 H 1162.75 -1.70095 -5.39522 0
M  V30 12472 H 1161.31 -2.32298 -6.09 0
M  V30 12473 N 1164.74 0.6258 -1.44643 0
M  V30 12474 C 1166.15 1.20751 -1.42394 0
M  V30 12475 C 1166.5 1.95685 -0.142047 0
M  V30 12476 O 1165.63 2.02715 0.757332 0
M  V30 12477 C 1166.22 2.1964 -2.57961 0
M  V30 12478 C 1164.78 2.73227 -2.5889 0
M  V30 12479 C 1163.93 1.48315 -2.34303 0
M  V30 12480 H 1166.88 0.416162 -1.53146 0
M  V30 12481 H 1166.9 3.02342 -2.31019 0
M  V30 12482 H 1166.41 1.65073 -3.51244 0
M  V30 12483 H 1164.52 3.31782 -1.69563 0
M  V30 12484 H 1164.63 3.18902 -3.57545 0
M  V30 12485 H 1162.99 1.76634 -1.83501 0
M  V30 12486 H 1163.78 0.956427 -3.29708 0
M  V30 12487 N 1166.22 1.31629 0.866686 0
M  V30 12488 C 1167.18 1.1951 1.95576 0
M  V30 12489 C 1168.18 0.121319 1.60342 0
M  V30 12490 O 1169.37 0.370832 1.70207 0
M  V30 12491 C 1166.51 0.835201 3.30511 0
M  V30 12492 H 1167.7 2.16285 2.07752 0
M  V30 12493 H 1165.25 1.15288 1.05539 0
M  V30 12494 H 1165.99 -0.131245 3.24034 0
M  V30 12495 H 1165.77 1.61142 3.57457 0
M  V30 12496 H 1167.26 0.774393 4.10357 0
M  V30 12497 N 1167.7 -1.08142 1.14644 0
M  V30 12498 C 1168.98 -1.77254 0.827071 0
M  V30 12499 C 1169.36 -1.99885 -0.67891 0
M  V30 12500 O 1168.7 -1.61084 -1.62062 0
M  V30 12501 C 1168.91 -3.08658 1.62884 0
M  V30 12502 C 1170.26 -3.83143 1.82993 0
M  V30 12503 O 1171.29 -3.18447 1.59593 0
M  V30 12504 O 1170.15 -4.9932 2.2213 0
M  V30 12505 H 1167.24 -0.769356 0.30335 0
M  V30 12506 H 1169.79 -1.1458 1.25178 0
M  V30 12507 H 1168.56 -2.87753 2.65168 0
M  V30 12508 H 1168.18 -3.79061 1.19994 0
M  V30 12509 N 1169.18 -0.941978 -1.26351 0
M  V30 12510 C 1170.4 -0.606231 -1.98342 0
M  V30 12511 C 1170.83 0.812014 -1.6967 0
M  V30 12512 O 1170.19 1.54712 -0.9452 0
M  V30 12513 C 1170.23 -0.855864 -3.50296 0
M  V30 12514 O 1169.34 0.0716251 -4.12338 0
M  V30 12515 H 1168.68 -0.231815 -0.62222 0
M  V30 12516 H 1171.21 -1.26513 -1.60797 0
M  V30 12517 H 1171.22 -0.777079 -4.00531 0
M  V30 12518 H 1169.89 -1.8896 -3.70496 0
M  V30 12519 H 1168.47 -0.0582866 -3.72854 0
M  V30 12520 N 1170.66 1.40747 -0.709091 0
M  V30 12521 C 1171.62 2.29118 -0.0611607 0
M  V30 12522 C 1172.62 1.45049 0.694081 0
M  V30 12523 O 1173.81 1.66039 0.526952 0
M  V30 12524 C 1170.94 3.28154 0.923447 0
M  V30 12525 H 1172.13 2.87913 -0.839413 0
M  V30 12526 H 1169.69 1.4896 -0.473363 0
M  V30 12527 H 1170.42 2.74366 1.72899 0
M  V30 12528 H 1170.21 3.90207 0.384862 0
M  V30 12529 H 1171.7 3.94343 1.37417 0
M  V30 12530 N 1172.13 0.454803 1.50895 0
M  V30 12531 C 1173.38 -0.105927 2.02523 0
M  V30 12532 C 1173.71 -1.40825 1.33724 0
M  V30 12533 O 1172.99 -1.89038 0.457683 0
M  V30 12534 C 1173.27 -0.306635 3.58792 0
M  V30 12535 C 1173.12 1.01556 4.38185 0
M  V30 12536 C 1174.44 -1.06858 4.2693 0
M  V30 12537 H 1171.56 -0.0370232 0.736069 0
M  V30 12538 H 1174.2 0.597215 1.8037 0
M  V30 12539 H 1172.35 -0.905563 3.77799 0
M  V30 12540 H 1174.03 1.64981 4.30789 0
M  V30 12541 H 1172.27 1.61608 4.02574 0
M  V30 12542 H 1172.94 0.828959 5.4574 0
M  V30 12543 H 1175.42 -0.561086 4.123 0
M  V30 12544 H 1174.29 -1.1778 5.36115 0
M  V30 12545 H 1174.55 -2.10111 3.8898 0
M  V30 12546 N 1173.61 -1.56489 0.186789 0
M  V30 12547 C 1175.02 -1.83809 -0.327265 0
M  V30 12548 C 1175.37 -1.10718 -1.61976 0
M  V30 12549 O 1174.5 -0.36525 -2.13295 0
M  V30 12550 C 1175.09 -3.33435 -0.600551 0
M  V30 12551 C 1173.65 -3.61195 -1.059 0
M  V30 12552 C 1172.8 -2.77108 -0.103131 0
M  V30 12553 H 1175.75 -1.53292 0.410747 0
M  V30 12554 H 1175.77 -3.51754 -1.45084 0
M  V30 12555 H 1175.28 -3.86605 0.340315 0
M  V30 12556 H 1173.38 -3.13451 -2.01443 0
M  V30 12557 H 1173.5 -4.69435 -0.957458 0
M  V30 12558 H 1171.86 -2.47448 -0.603449 0
M  V30 12559 H 1172.64 -3.33065 0.832031 0
M  V30 12560 N 1175.09 0.086862 -1.5736 0
M  V30 12561 C 1176.05 1.08906 -2.01673 0
M  V30 12562 C 1177.05 1.32473 -0.911463 0
M  V30 12563 O 1178.24 1.28447 -1.17673 0
M  V30 12564 C 1175.37 2.43629 -2.38449 0
M  V30 12565 H 1176.57 0.707461 -2.91436 0
M  V30 12566 H 1174.12 0.332154 -1.5273 0
M  V30 12567 H 1174.86 2.8665 -1.51665 0
M  V30 12568 H 1174.64 2.2787 -3.19089 0
M  V30 12569 H 1176.13 3.15695 -2.73361 0
M  V30 12570 N 1176.57 1.53483 0.357892 0
M  V30 12571 C 1177.8 1.73956 1.12013 0
M  V30 12572 C 1178.21 0.472053 1.82803 0
M  V30 12573 O 1177.57 -0.555499 1.7384 0
M  V30 12574 C 1177.62 2.91015 2.14459 0
M  V30 12575 O 1177.34 4.12862 1.4655 0
M  V30 12576 C 1178.84 3.23423 3.0317 0
M  V30 12577 H 1176.06 0.58161 0.334621 0
M  V30 12578 H 1178.6 2.00256 0.414467 0
M  V30 12579 H 1176.76 2.67087 2.80612 0
M  V30 12580 H 1177.17 4.78468 2.14869 0
M  V30 12581 H 1178.65 4.08717 3.71018 0
M  V30 12582 H 1179.12 2.39114 3.68404 0
M  V30 12583 H 1179.73 3.49305 2.42624 0
M  V30 12584 N 1178.05 -0.61812 1.44973 0
M  V30 12585 C 1179.27 -1.40921 1.52171 0
M  V30 12586 C 1179.7 -1.87487 0.151755 0
M  V30 12587 O 1179.05 -1.59518 -0.861606 0
M  V30 12588 C 1179.1 -2.59689 2.50188 0
M  V30 12589 O 1178.21 -3.59967 2.0124 0
M  V30 12590 H 1177.55 -0.421138 0.51336 0
M  V30 12591 H 1180.08 -0.753258 1.90229 0
M  V30 12592 H 1180.09 -3.07069 2.6865 0
M  V30 12593 H 1178.76 -2.25144 3.4969 0
M  V30 12594 H 1177.34 -3.19308 1.92605 0
M  V30 12595 N 1179.52 -1.32087 -0.859693 0
M  V30 12596 C 1180.77 -1.22119 -1.61033 0
M  V30 12597 C 1181.09 0.218289 -1.93774 0
M  V30 12598 O 1180.36 1.14172 -1.5919 0
M  V30 12599 H 1178.94 -0.448989 -0.597008 0
M  V30 12600 H 1181.6 -1.65545 -1.02863 0
M  V30 12601 H 1180.7 -1.80023 -2.54947 0
M  V30 12602 N 1181 1.07532 -1.15215 0
M  V30 12603 C 1181.95 2.14687 -0.847243 0
M  V30 12604 C 1182.92 1.64903 0.199043 0
M  V30 12605 O 1184.1 1.90682 0.0669986 0
M  V30 12606 C 1181.24 3.43414 -0.340673 0
M  V30 12607 C 1180.36 4.06999 -1.44831 0
M  V30 12608 C 1179.49 5.23554 -0.898059 0
M  V30 12609 C 1178.53 5.79097 -1.98276 0
M  V30 12610 N 1177.67 6.86985 -1.44902 0
M  V30 12611 H 1182.51 2.4011 -1.76498 0
M  V30 12612 H 1180.04 1.17823 -0.880689 0
M  V30 12613 H 1182 4.1719 -0.0286956 0
M  V30 12614 H 1180.63 3.18249 0.540144 0
M  V30 12615 H 1179.68 3.30895 -1.87651 0
M  V30 12616 H 1181 4.44289 -2.26735 0
M  V30 12617 H 1180.15 6.04305 -0.538514 0
M  V30 12618 H 1178.89 4.87676 -0.0481752 0
M  V30 12619 H 1177.89 4.96992 -2.35115 0
M  V30 12620 H 1179.12 6.1703 -2.83639 0
M  V30 12621 H 1177.07 6.5305 -0.621468 0
M  V30 12622 H 1176.98 7.23149 -2.20434 0
M  V30 12623 H 1178.25 7.71446 -1.11767 0
M  V30 12624 N 1182.48 0.948665 1.2585 0
M  V30 12625 C 1183.73 0.601125 1.93686 0
M  V30 12626 C 1184.06 -0.858779 1.7418 0
M  V30 12627 O 1183.33 -1.61539 1.0833 0
M  V30 12628 C 1183.62 0.95333 3.47252 0
M  V30 12629 C 1183.47 2.46853 3.7601 0
M  V30 12630 C 1184.79 0.474098 4.37539 0
M  V30 12631 H 1181.91 0.219864 0.703441 0
M  V30 12632 H 1184.55 1.18424 1.48579 0
M  V30 12633 H 1182.7 0.457114 3.85801 0
M  V30 12634 H 1184.37 3.03804 3.47132 0
M  V30 12635 H 1182.62 2.9088 3.21825 0
M  V30 12636 H 1183.29 2.66547 4.83381 0
M  V30 12637 H 1185.76 0.899664 4.06258 0
M  V30 12638 H 1184.64 0.749287 5.43762 0
M  V30 12639 H 1184.9 -0.625961 4.37646 0
M  V30 12640 N 1183.96 -1.40369 0.716545 0
M  V30 12641 C 1185.19 -2.04884 0.265757 0
M  V30 12642 C 1185.6 -1.54095 -1.09779 0
M  V30 12643 O 1184.94 -0.692944 -1.70129 0
M  V30 12644 C 1185 -3.59103 0.16887 0
M  V30 12645 C 1184.67 -4.32785 1.46786 0
M  V30 12646 C 1185.66 -4.6067 2.40997 0
M  V30 12647 C 1183.35 -4.71676 1.72705 0
M  V30 12648 C 1185.34 -5.26432 3.59372 0
M  V30 12649 C 1183.03 -5.3717 2.91362 0
M  V30 12650 C 1184.03 -5.64478 3.84517 0
M  V30 12651 O 1183.71 -6.28618 5.01093 0
M  V30 12652 H 1183.45 -0.665794 0.117025 0
M  V30 12653 H 1186 -1.80746 0.975698 0
M  V30 12654 H 1184.23 -3.82064 -0.597023 0
M  V30 12655 H 1185.92 -4.05145 -0.247483 0
M  V30 12656 H 1186.69 -4.31087 2.22236 0
M  V30 12657 H 1182.56 -4.49789 1.0105 0
M  V30 12658 H 1186.11 -5.47663 4.321 0
M  V30 12659 H 1182.01 -5.66173 3.1003 0
M  V30 12660 H 1182.77 -6.47115 5.01183 0
M  V30 12661 N 1185.44 -0.462799 -1.50652 0
M  V30 12662 C 1186.68 0.0948568 -2.01877 0
M  V30 12663 C 1187.01 1.4096 -1.34741 0
M  V30 12664 O 1186.28 1.89671 -0.49006 0
M  V30 12665 H 1184.86 0.0380453 -0.746031 0
M  V30 12666 H 1187.52 -0.611327 -1.85064 0
M  V30 12667 H 1186.61 0.252378 -3.11078 0
M  V30 12668 N 1186.91 1.56388 -0.195085 0
M  V30 12669 C 1188.14 2.01963 0.449289 0
M  V30 12670 C 1188.56 1.07522 1.55192 0
M  V30 12671 O 1187.91 0.0800915 1.82324 0
M  V30 12672 C 1187.97 3.47231 1.00561 0
M  V30 12673 O 1187.69 4.38068 -0.0530241 0
M  V30 12674 C 1189.19 4.08324 1.72587 0
M  V30 12675 H 1186.41 0.661452 0.112792 0
M  V30 12676 H 1188.95 2.02231 -0.303788 0
M  V30 12677 H 1187.11 3.47663 1.70907 0
M  V30 12678 H 1187.52 5.23256 0.361076 0
M  V30 12679 H 1188.99 5.11821 2.06744 0
M  V30 12680 H 1189.47 3.51782 2.62956 0
M  V30 12681 H 1190.08 4.11665 1.06826 0
M  V30 12682 N 1188.39 -0.0785156 1.57404 0
M  V30 12683 C 1189.8 -0.631132 1.75709 0
M  V30 12684 C 1190.15 -1.78261 0.819605 0
M  V30 12685 O 1189.28 -2.164 0.00206912 0
M  V30 12686 C 1189.87 -1.15168 3.18625 0
M  V30 12687 C 1188.43 -1.65021 3.38297 0
M  V30 12688 C 1187.58 -0.566773 2.71446 0
M  V30 12689 H 1190.53 0.147631 1.58012 0
M  V30 12690 H 1190.55 -2.02065 3.22413 0
M  V30 12691 H 1190.06 -0.313399 3.86833 0
M  V30 12692 H 1188.17 -2.51196 2.75194 0
M  V30 12693 H 1188.28 -1.73179 4.46706 0
M  V30 12694 H 1186.64 -1.01021 2.33809 0
M  V30 12695 H 1187.43 0.261204 3.42305 0
M  V30 12696 N 1189.87 -1.5367 -0.349747 0
M  V30 12697 C 1190.78 -1.84207 -1.45275 0
M  V30 12698 C 1191.8 -0.731695 -1.57868 0
M  V30 12699 O 1192.97 -1.02337 -1.73462 0
M  V30 12700 C 1190.04 -2.0398 -2.80345 0
M  V30 12701 C 1189.1 -3.27853 -2.77148 0
M  V30 12702 C 1188.33 -3.46673 -4.05775 0
M  V30 12703 O 1188.55 -2.69457 -5.02741 0
M  V30 12704 O 1187.49 -4.40082 -4.10623 0
M  V30 12705 H 1191.31 -2.77947 -1.22389 0
M  V30 12706 H 1188.9 -1.39247 -0.541345 0
M  V30 12707 H 1190.78 -2.18466 -3.60348 0
M  V30 12708 H 1189.46 -1.13429 -3.03176 0
M  V30 12709 H 1188.36 -3.18776 -1.95787 0
M  V30 12710 H 1189.7 -4.18377 -2.59271 0
M  V30 12711 N 1191.35 0.610423 -1.45298 0
M  V30 12712 C 1192.58 1.39621 -1.52688 0
M  V30 12713 C 1192.99 1.88133 -0.158535 0
M  V30 12714 O 1192.35 1.62051 0.839396 0
M  V30 12715 C 1192.4 2.60261 -2.50891 0
M  V30 12716 O 1192.12 2.13766 -3.82408 0
M  V30 12717 C 1193.62 3.53154 -2.6795 0
M  V30 12718 H 1190.84 0.427493 -0.517195 0
M  V30 12719 H 1193.39 0.744701 -1.90459 0
M  V30 12720 H 1191.54 3.2146 -2.162 0
M  V30 12721 H 1191.95 2.92128 -4.35616 0
M  V30 12722 H 1193.43 4.34355 -3.40647 0
M  V30 12723 H 1193.91 4.03311 -1.73888 0
M  V30 12724 H 1194.51 2.9781 -3.03627 0
M  V30 12725 N 1192.83 1.32541 0.852676 0
M  V30 12726 C 1193.74 1.23646 1.99371 0
M  V30 12727 C 1194.75 0.149673 1.73355 0
M  V30 12728 O 1195.93 0.370716 1.97959 0
M  V30 12729 C 1192.99 0.961873 3.3309 0
M  V30 12730 C 1192.05 2.1373 3.72315 0
M  V30 12731 C 1191.29 1.87572 4.99652 0
M  V30 12732 O 1191.51 0.819247 5.64486 0
M  V30 12733 O 1190.44 2.73732 5.36054 0
M  V30 12734 H 1194.27 2.19573 2.09813 0
M  V30 12735 H 1191.86 1.12451 0.983627 0
M  V30 12736 H 1193.74 0.825316 4.13239 0
M  V30 12737 H 1192.41 0.0327745 3.23683 0
M  V30 12738 H 1191.32 2.32933 2.92733 0
M  V30 12739 H 1192.65 3.04925 3.86369 0
M  V30 12740 N 1194.3 -1.0692 1.15784 0
M  V30 12741 C 1195.23 -2.16216 0.881649 0
M  V30 12742 C 1196.22 -1.69253 -0.16951 0
M  V30 12743 O 1197.4 -1.94186 -0.0229511 0
M  V30 12744 C 1194.53 -3.4527 0.374982 0
M  V30 12745 C 1193.48 -4.05706 1.36332 0
M  V30 12746 C 1192.81 -5.29894 0.715317 0
M  V30 12747 C 1194.11 -4.45224 2.7308 0
M  V30 12748 H 1195.8 -2.39577 1.79563 0
M  V30 12749 H 1193.35 -1.15141 0.864784 0
M  V30 12750 H 1195.3 -4.2106 0.169279 0
M  V30 12751 H 1194.03 -3.21508 -0.574485 0
M  V30 12752 H 1192.69 -3.31965 1.55546 0
M  V30 12753 H 1192.33 -5.02425 -0.240436 0
M  V30 12754 H 1192.03 -5.71287 1.37494 0
M  V30 12755 H 1193.56 -6.08386 0.519489 0
M  V30 12756 H 1194.97 -5.12124 2.57686 0
M  V30 12757 H 1193.37 -4.97583 3.35457 0
M  V30 12758 H 1194.44 -3.56384 3.28813 0
M  V30 12759 N 1195.78 -0.955326 -1.25345 0
M  V30 12760 C 1197.01 -0.627693 -1.97149 0
M  V30 12761 C 1197.43 0.800349 -1.70997 0
M  V30 12762 O 1196.78 1.53545 -0.986417 0
M  V30 12763 C 1196.83 -0.877675 -3.50684 0
M  V30 12764 O 1196.55 -2.24957 -3.75934 0
M  V30 12765 C 1198.06 -0.562524 -4.39716 0
M  V30 12766 H 1195.28 -0.235269 -0.628402 0
M  V30 12767 H 1197.82 -1.27989 -1.59496 0
M  V30 12768 H 1195.97 -0.271878 -3.86445 0
M  V30 12769 H 1196.39 -2.32022 -4.70389 0
M  V30 12770 H 1197.86 -0.787972 -5.46347 0
M  V30 12771 H 1198.34 0.50293 -4.36311 0
M  V30 12772 H 1198.95 -1.14767 -4.09522 0
M  V30 12773 N 1197.26 1.39987 -0.723979 0
M  V30 12774 C 1198.49 2.0474 -0.276618 0
M  V30 12775 C 1198.9 1.54675 1.0896 0
M  V30 12776 O 1198.24 0.701956 1.69759 0
M  V30 12777 C 1198.3 3.59009 -0.187912 0
M  V30 12778 C 1197.97 4.32 -1.49079 0
M  V30 12779 C 1198.97 4.59385 -2.43436 0
M  V30 12780 C 1196.65 4.70753 -1.75204 0
M  V30 12781 C 1198.64 5.24519 -3.62159 0
M  V30 12782 C 1196.33 5.35617 -2.94206 0
M  V30 12783 C 1197.33 5.62431 -3.87506 0
M  V30 12784 O 1197.02 6.25952 -5.0442 0
M  V30 12785 H 1196.75 0.665164 -0.120554 0
M  V30 12786 H 1199.3 1.80226 -0.98527 0
M  V30 12787 H 1197.53 3.82375 0.576753 0
M  V30 12788 H 1199.22 4.0527 0.225993 0
M  V30 12789 H 1199.99 4.29902 -2.24519 0
M  V30 12790 H 1195.87 4.49247 -1.03433 0
M  V30 12791 H 1199.41 5.45364 -4.34999 0
M  V30 12792 H 1195.31 5.64521 -3.13029 0
M  V30 12793 H 1196.08 6.44448 -5.04608 0
M  V30 12794 N 1198.74 0.470782 1.50404 0
M  V30 12795 C 1200.15 0.0155901 1.86693 0
M  V30 12796 C 1200.5 -1.38908 1.38561 0
M  V30 12797 O 1199.63 -2.02971 0.750454 0
M  V30 12798 C 1200.22 0.0215152 3.38793 0
M  V30 12799 C 1198.78 -0.378206 3.74495 0
M  V30 12800 C 1197.93 0.407126 2.74295 0
M  V30 12801 H 1200.88 0.68507 1.43152 0
M  V30 12802 H 1200.9 -0.780717 3.72404 0
M  V30 12803 H 1200.41 1.04397 3.73795 0
M  V30 12804 H 1198.51 -1.40503 3.45094 0
M  V30 12805 H 1198.63 -0.0797643 4.79034 0
M  V30 12806 H 1196.99 -0.139123 2.5432 0
M  V30 12807 H 1197.77 1.42909 3.12141 0
M  V30 12808 N 1200.22 -1.56282 0.203376 0
M  V30 12809 C 1201.45 -2.02198 -0.438572 0
M  V30 12810 C 1201.86 -1.08343 -1.54619 0
M  V30 12811 O 1201.22 -0.0897594 -1.82279 0
M  V30 12812 C 1201.27 -3.4776 -0.987184 0
M  V30 12813 O 1200.99 -4.38034 0.0762552 0
M  V30 12814 C 1202.49 -4.09234 -1.70419 0
M  V30 12815 H 1199.71 -0.662041 -0.109282 0
M  V30 12816 H 1202.25 -2.02067 0.314509 0
M  V30 12817 H 1200.41 -3.48564 -1.69061 0
M  V30 12818 H 1200.82 -5.2344 -0.333322 0
M  V30 12819 H 1202.3 -5.1291 -2.04027 0
M  V30 12820 H 1202.77 -3.53172 -2.61087 0
M  V30 12821 H 1203.38 -4.12226 -1.04641 0
M  V30 12822 N 1201.7 0.070167 -1.57444 0
M  V30 12823 C 1202.64 1.10193 -2.04842 0
M  V30 12824 C 1203.64 1.39978 -0.954069 0
M  V30 12825 O 1204.84 1.39366 -1.13917 0
M  V30 12826 H 1201.22 0.372699 -0.653146 0
M  V30 12827 H 1203.19 0.676033 -2.90641 0
M  V30 12828 C 1201.94 2.40679 -2.50936 0
M  V30 12829 H 1201.26 2.1861 -3.34738 0
M  V30 12830 H 1202.7 3.11315 -2.87852 0
M  V30 12831 C 1201.16 3.06754 -1.39297 0
M  V30 12832 O 1201.69 3.949 -0.735989 0
M  V30 12833 N 1199.9 2.67404 -1.13769 0
M  V30 12834 H 1199.44 1.95813 -1.67376 0
M  V30 12835 H 1199.4 3.11937 -0.392787 0
M  V30 12836 N 1203.17 1.53854 0.341593 0
M  V30 12837 C 1204.42 1.7041 1.07905 0
M  V30 12838 C 1204.74 0.475039 1.89744 0
M  V30 12839 O 1205.94 0.521589 2.66443 0
M  V30 12840 C 1204.4 3.01342 1.96776 0
M  V30 12841 C 1204.01 4.31592 1.20135 0
M  V30 12842 C 1205.75 3.27264 2.70367 0
M  V30 12843 C 1203.66 5.53598 2.08047 0
M  V30 12844 H 1202.59 0.635005 0.406553 0
M  V30 12845 H 1205.24 1.80353 0.338409 0
M  V30 12846 H 1203.62 2.85261 2.74667 0
M  V30 12847 H 1204.79 4.58382 0.471404 0
M  V30 12848 H 1203.11 4.12298 0.583039 0
M  V30 12849 H 1205.71 4.15607 3.36415 0
M  V30 12850 H 1206.05 2.44357 3.37039 0
M  V30 12851 H 1206.58 3.4413 1.99548 0
M  V30 12852 H 1203.32 6.39053 1.45914 0
M  V30 12853 H 1202.84 5.31052 2.78825 0
M  V30 12854 H 1204.52 5.89314 2.67055 0
M  V30 12855 N 1204.65 -0.602709 1.4562 0
M  V30 12856 C 1205.9 -1.36359 1.50113 0
M  V30 12857 C 1206.23 -1.93663 0.144297 0
M  V30 12858 O 1205.51 -1.75337 -0.841851 0
M  V30 12859 C 1205.79 -2.50788 2.58413 0
M  V30 12860 C 1205.64 -1.98649 4.03557 0
M  V30 12861 C 1206.96 -3.52905 2.62957 0
M  V30 12862 H 1204.08 -0.494455 0.54652 0
M  V30 12863 H 1206.72 -0.678957 1.77455 0
M  V30 12864 H 1204.87 -3.09191 2.3523 0
M  V30 12865 H 1206.54 -1.44857 4.37966 0
M  V30 12866 H 1204.79 -1.29615 4.13984 0
M  V30 12867 H 1205.46 -2.81159 4.7503 0
M  V30 12868 H 1207.93 -3.0435 2.83743 0
M  V30 12869 H 1206.81 -4.30454 3.40589 0
M  V30 12870 H 1207.07 -4.0884 1.68233 0
M  V30 12871 N 1206.13 -1.32992 -0.845635 0
M  V30 12872 C 1207.09 -1.22607 -1.9365 0
M  V30 12873 C 1208.09 -0.146812 -1.60128 0
M  V30 12874 O 1209.28 -0.397863 -1.69596 0
M  V30 12875 C 1206.41 -0.887677 -3.2914 0
M  V30 12876 H 1207.61 -2.19563 -2.04285 0
M  V30 12877 H 1205.16 -1.16952 -1.03691 0
M  V30 12878 H 1205.9 0.0796777 -3.24202 0
M  V30 12879 H 1205.68 -1.66808 -3.54849 0
M  V30 12880 H 1207.17 -0.83958 -4.09073 0
M  V30 12881 N 1207.61 1.06304 -1.1635 0
M  V30 12882 C 1208.57 2.11947 -0.872419 0
M  V30 12883 C 1209.57 1.60253 0.132534 0
M  V30 12884 O 1210.76 1.73922 -0.0983441 0
M  V30 12885 C 1207.89 3.39536 -0.304646 0
M  V30 12886 H 1209.09 2.39201 -1.80894 0
M  V30 12887 H 1206.64 1.22367 -0.972419 0
M  V30 12888 H 1207.37 3.17931 0.639565 0
M  V30 12889 H 1207.16 3.78363 -1.02878 0
M  V30 12890 H 1208.65 4.17431 -0.118936 0
M  V30 12891 N 1209.09 0.96196 1.24836 0
M  V30 12892 C 1210.5 0.660388 1.7463 0
M  V30 12893 C 1210.85 -0.824064 1.78055 0
M  V30 12894 O 1209.97 -1.64485 1.40619 0
M  V30 12895 C 1210.57 1.19205 3.17137 0
M  V30 12896 C 1209.13 0.940493 3.64461 0
M  V30 12897 C 1208.27 1.33076 2.43282 0
M  V30 12898 H 1211.22 1.13794 1.1062 0
M  V30 12899 H 1211.25 0.555595 3.76422 0
M  V30 12900 H 1210.76 2.27247 3.14612 0
M  V30 12901 H 1208.86 -0.124645 3.72391 0
M  V30 12902 H 1208.97 1.5821 4.52224 0
M  V30 12903 H 1207.34 0.749139 2.43434 0
M  V30 12904 H 1208.12 2.42055 2.43442 0
M  V30 12905 N 1210.56 -1.39601 0.731392 0
M  V30 12906 C 1211.49 -2.33268 0.1041 0
M  V30 12907 C 1212.47 -1.53724 -0.728219 0
M  V30 12908 O 1213.66 -1.82131 -0.673933 0
M  V30 12909 C 1210.79 -3.37802 -0.806646 0
M  V30 12910 C 1209.74 -4.27928 -0.0787588 0
M  V30 12911 C 1209.07 -5.23131 -1.10628 0
M  V30 12912 C 1210.37 -5.11086 1.07651 0
M  V30 12913 H 1212.06 -2.85975 0.886496 0
M  V30 12914 H 1209.61 -1.375 0.427746 0
M  V30 12915 H 1211.56 -4.02278 -1.25499 0
M  V30 12916 H 1210.29 -2.83527 -1.62112 0
M  V30 12917 H 1208.95 -3.64926 0.349926 0
M  V30 12918 H 1208.59 -4.65152 -1.91422 0
M  V30 12919 H 1208.29 -5.84277 -0.624043 0
M  V30 12920 H 1209.82 -5.90483 -1.5544 0
M  V30 12921 H 1211.23 -5.68927 0.706781 0
M  V30 12922 H 1209.63 -5.81356 1.48814 0
M  V30 12923 H 1210.7 -4.46131 1.89988 0
M  V30 12924 N 1212.04 -0.478751 -1.50152 0
M  V30 12925 C 1213.01 0.300181 -2.27226 0
M  V30 12926 C 1214.01 0.913705 -1.32318 0
M  V30 12927 O 1215.2 0.781692 -1.55677 0
M  V30 12928 C 1212.33 1.42838 -3.09532 0
M  V30 12929 H 1213.52 -0.375845 -2.97536 0
M  V30 12930 H 1211.07 -0.233037 -1.54553 0
M  V30 12931 H 1211.81 2.13923 -2.43737 0
M  V30 12932 H 1211.59 0.994161 -3.79287 0
M  V30 12933 H 1213.08 1.97765 -3.67802 0
M  V30 12934 N 1213.52 1.56172 -0.211661 0
M  V30 12935 C 1214.43 2.23468 0.714081 0
M  V30 12936 C 1215.45 1.23908 1.22159 0
M  V30 12937 O 1216.62 1.56693 1.26528 0
M  V30 12938 C 1213.69 2.89375 1.90953 0
M  V30 12939 C 1212.75 4.04251 1.44497 0
M  V30 12940 C 1211.98 4.67006 2.58343 0
M  V30 12941 O 1212.2 4.28721 3.76237 0
M  V30 12942 O 1211.14 5.56177 2.3011 0
M  V30 12943 H 1214.96 3.03219 0.170862 0
M  V30 12944 H 1212.55 1.49389 0.0183607 0
M  V30 12945 H 1214.43 3.3101 2.60787 0
M  V30 12946 H 1213.11 2.12591 2.44104 0
M  V30 12947 H 1212.01 3.67205 0.714932 0
M  V30 12948 H 1213.35 4.82748 0.959947 0
M  V30 12949 N 1215 -0.0618163 1.57479 0
M  V30 12950 C 1215.91 -1.09006 2.07738 0
M  V30 12951 C 1216.92 -1.4176 1.00896 0
M  V30 12952 O 1218.1 -1.51737 1.32431 0
M  V30 12953 C 1215.17 -2.38153 2.5196 0
M  V30 12954 C 1214.23 -2.12279 3.73143 0
M  V30 12955 C 1213.46 -3.35269 4.15248 0
M  V30 12956 O 1213.68 -4.44758 3.57137 0
M  V30 12957 O 1212.62 -3.22894 5.0796 0
M  V30 12958 H 1216.44 -0.693059 2.95686 0
M  V30 12959 H 1214.03 -0.276628 1.46817 0
M  V30 12960 H 1215.91 -3.14139 2.80882 0
M  V30 12961 H 1214.58 -2.77213 1.67137 0
M  V30 12962 H 1213.49 -1.33966 3.49291 0
M  V30 12963 H 1214.82 -1.78094 4.5885 0
M  V30 12964 N 1216.48 -1.54033 -0.333429 0
M  V30 12965 C 1217.39 -1.85737 -1.43314 0
M  V30 12966 C 1218.4 -0.748398 -1.57083 0
M  V30 12967 O 1219.58 -1.04171 -1.72367 0
M  V30 12968 C 1216.64 -2.06942 -2.78165 0
M  V30 12969 C 1215.7 -3.30774 -2.73655 0
M  V30 12970 C 1214.94 -3.50957 -4.02075 0
M  V30 12971 O 1215.16 -2.74774 -4.99855 0
M  V30 12972 O 1214.09 -4.44412 -4.05933 0
M  V30 12973 H 1217.92 -2.7923 -1.19434 0
M  V30 12974 H 1215.51 -1.39814 -0.526546 0
M  V30 12975 H 1217.39 -2.22276 -3.58011 0
M  V30 12976 H 1216.06 -1.16638 -3.01956 0
M  V30 12977 H 1214.97 -3.20835 -1.92395 0
M  V30 12978 H 1216.3 -4.21103 -2.54819 0
M  V30 12979 N 1217.95 0.594978 -1.45938 0
M  V30 12980 C 1218.9 1.69949 -1.51991 0
M  V30 12981 C 1219.89 1.56301 -0.381956 0
M  V30 12982 O 1221.08 1.65423 -0.62961 0
M  V30 12983 C 1218.21 3.08723 -1.5015 0
M  V30 12984 C 1217.3 3.27712 -2.69194 0
M  V30 12985 N 1217.69 3.1691 -3.9421 0
M  V30 12986 C 1215.98 3.58618 -2.65158 0
M  V30 12987 C 1216.69 3.37572 -4.7373 0
M  V30 12988 N 1215.66 3.62154 -4.05395 0
M  V30 12989 H 1219.46 1.60109 -2.46459 0
M  V30 12990 H 1216.98 0.798634 -1.41406 0
M  V30 12991 H 1218.97 3.87978 -1.52573 0
M  V30 12992 H 1217.63 3.19702 -0.567488 0
M  V30 12993 H 1218.65 2.95039 -4.25643 0
M  V30 12994 H 1215.32 3.76358 -1.80724 0
M  V30 12995 H 1216.71 3.34507 -5.82713 0
M  V30 12996 N 1219.43 1.33438 0.838571 0
M  V30 12997 C 1220.68 1.25097 1.5962 0
M  V30 12998 C 1221.01 -0.182798 1.93338 0
M  V30 12999 O 1220.29 -1.1242 1.5872 0
M  V30 13000 C 1220.57 2.12655 2.90603 0
M  V30 13001 C 1220.42 3.64491 2.63565 0
M  V30 13002 C 1221.74 1.99994 3.92033 0
M  V30 13003 H 1218.86 0.455776 0.579169 0
M  V30 13004 H 1221.5 1.63542 0.967169 0
M  V30 13005 H 1219.65 1.79998 3.44286 0
M  V30 13006 H 1221.32 4.0744 2.16312 0
M  V30 13007 H 1219.57 3.86356 1.9726 0
M  V30 13008 H 1220.24 4.21101 3.569 0
M  V30 13009 H 1222.71 2.28635 3.47657 0
M  V30 13010 H 1221.59 2.63509 4.81512 0
M  V30 13011 H 1221.85 0.972263 4.31277 0
M  V30 13012 N 1220.91 -1.05686 1.16912 0
M  V30 13013 C 1222.14 -1.82821 0.979348 0
M  V30 13014 C 1222.56 -1.82196 -0.467575 0
M  V30 13015 O 1221.92 -1.22727 -1.33445 0
M  V30 13016 C 1221.97 -3.2705 1.51891 0
M  V30 13017 O 1221.07 -4.05899 0.729341 0
M  V30 13018 H 1220.41 -0.565455 0.348076 0
M  V30 13019 H 1222.94 -1.33211 1.55293 0
M  V30 13020 H 1222.95 -3.77859 1.53904 0
M  V30 13021 H 1221.63 -3.26819 2.5722 0
M  V30 13022 H 1220.2 -3.64646 0.780221 0
M  V30 13023 N 1222.39 -0.968567 -1.24324 0
M  V30 13024 C 1223.61 -0.648166 -1.97012 0
M  V30 13025 C 1224.04 0.775842 -1.71354 0
M  V30 13026 O 1223.4 1.52672 -0.977804 0
M  V30 13027 C 1223.44 -0.929974 -3.48402 0
M  V30 13028 O 1222.55 -0.015854 -4.12397 0
M  V30 13029 H 1221.89 -0.244961 -0.617163 0
M  V30 13030 H 1224.42 -1.29895 -1.58077 0
M  V30 13031 H 1224.43 -0.861863 -3.98793 0
M  V30 13032 H 1223.1 -1.96776 -3.66404 0
M  V30 13033 H 1221.68 -0.137361 -3.72647 0
M  V30 13034 N 1223.87 1.39211 -0.738786 0
M  V30 13035 C 1224.83 2.28937 -0.109746 0
M  V30 13036 C 1225.83 1.46488 0.663157 0
M  V30 13037 O 1227.02 1.67119 0.491614 0
M  V30 13038 C 1224.15 3.30039 0.853633 0
M  V30 13039 H 1225.34 2.86068 -0.900295 0
M  V30 13040 H 1222.9 1.47922 -0.504853 0
M  V30 13041 H 1223.63 2.77971 1.6704 0
M  V30 13042 H 1223.42 3.90935 0.302007 0
M  V30 13043 H 1224.91 3.97169 1.29022 0
M  V30 13044 N 1225.34 0.486708 1.49896 0
M  V30 13045 C 1226.57 -0.0600816 2.06813 0
M  V30 13046 C 1226.99 -1.32112 1.34877 0
M  V30 13047 O 1226.34 -1.77537 0.422725 0
M  V30 13048 C 1226.4 -0.332266 3.5997 0
M  V30 13049 O 1226.12 0.878771 4.29196 0
M  V30 13050 C 1227.62 -0.924289 4.33557 0
M  V30 13051 H 1224.84 0.0140611 0.670853 0
M  V30 13052 H 1227.38 0.67997 1.92864 0
M  V30 13053 H 1225.54 -1.02227 3.73669 0
M  V30 13054 H 1225.95 0.632873 5.20668 0
M  V30 13055 H 1227.42 -1.06441 5.4164 0
M  V30 13056 H 1227.9 -1.91844 3.95085 0
M  V30 13057 H 1228.51 -0.272189 4.24428 0
M  V30 13058 N 1226.82 -1.56058 0.219941 0
M  V30 13059 C 1228.05 -2.031 -0.42014 0
M  V30 13060 C 1228.47 -1.09875 -1.52673 0
M  V30 13061 O 1227.83 -0.0866458 -1.81093 0
M  V30 13062 C 1227.88 -3.48389 -0.93047 0
M  V30 13063 O 1226.98 -3.583 -2.04192 0
M  V30 13064 H 1226.32 -0.657129 -0.0952772 0
M  V30 13065 H 1228.85 -2.01787 0.338105 0
M  V30 13066 H 1228.86 -3.88678 -1.2407 0
M  V30 13067 H 1227.54 -4.15725 -0.120539 0
M  V30 13068 H 1226.12 -3.29898 -1.73845 0
M  V30 13069 N 1228.3 0.053464 -1.57509 0
M  V30 13070 C 1229.55 0.748016 -1.87317 0
M  V30 13071 C 1229.86 1.77805 -0.815161 0
M  V30 13072 O 1231.07 2.52347 -1.00167 0
M  V30 13073 C 1229.53 1.38137 -3.32334 0
M  V30 13074 C 1229.13 0.388958 -4.46308 0
M  V30 13075 C 1230.88 2.05722 -3.7132 0
M  V30 13076 C 1228.78 1.02927 -5.82374 0
M  V30 13077 H 1227.71 0.283123 -0.698826 0
M  V30 13078 H 1230.37 0.00170723 -1.835 0
M  V30 13079 H 1228.75 2.17656 -3.3082 0
M  V30 13080 H 1229.92 -0.377752 -4.59249 0
M  V30 13081 H 1228.24 -0.183447 -4.15996 0
M  V30 13082 H 1230.83 2.54437 -4.70283 0
M  V30 13083 H 1231.18 2.86475 -3.02056 0
M  V30 13084 H 1231.71 1.3301 -3.74904 0
M  V30 13085 H 1228.45 0.261674 -6.54977 0
M  V30 13086 H 1227.97 1.7664 -5.732 0
M  V30 13087 H 1229.65 1.54378 -6.28312 0
M  V30 13088 N 1229.78 1.54207 0.325255 0
M  V30 13089 C 1231.01 1.76293 1.08298 0
M  V30 13090 C 1231.42 0.510722 1.81761 0
M  V30 13091 O 1230.78 -0.5185 1.7498 0
M  V30 13092 C 1230.83 2.95498 2.08238 0
M  V30 13093 O 1230.55 4.15877 1.37759 0
M  V30 13094 C 1232.05 3.29781 2.96242 0
M  V30 13095 H 1229.27 0.588576 0.322209 0
M  V30 13096 H 1231.82 2.0109 0.371896 0
M  V30 13097 H 1229.97 2.72979 2.74884 0
M  V30 13098 H 1230.39 4.82918 2.04672 0
M  V30 13099 H 1231.86 4.16495 3.62265 0
M  V30 13100 H 1232.34 2.46874 3.63249 0
M  V30 13101 H 1232.94 3.54372 2.3516 0
M  V30 13102 N 1231.26 -0.58723 1.46251 0
M  V30 13103 C 1232.17 -1.72455 1.59048 0
M  V30 13104 C 1233.18 -1.67416 0.47413 0
M  V30 13105 O 1234.36 -1.87406 0.737633 0
M  V30 13106 C 1231.42 -3.08953 1.57318 0
M  V30 13107 C 1230.49 -3.25291 2.80151 0
M  V30 13108 C 1229.72 -4.55277 2.78493 0
M  V30 13109 O 1229.94 -5.38883 1.8698 0
M  V30 13110 O 1228.88 -4.74765 3.69975 0
M  V30 13111 H 1232.7 -1.64606 2.55223 0
M  V30 13112 H 1230.29 -0.753742 1.28993 0
M  V30 13113 H 1232.17 -3.90239 1.59033 0
M  V30 13114 H 1230.84 -3.17249 0.643025 0
M  V30 13115 H 1229.75 -2.43515 2.83991 0
M  V30 13116 H 1231.08 -3.21883 3.7236 0
M  V30 13117 N 1232.74 -1.33881 -0.831482 0
M  V30 13118 C 1233.98 -1.27095 -1.60082 0
M  V30 13119 C 1234.34 0.15911 -1.9134 0
M  V30 13120 O 1235.54 0.351029 -2.66498 0
M  V30 13121 C 1233.81 -2.12874 -2.87088 0
M  V30 13122 S 1235.37 -2.23354 -3.77702 0
M  V30 13123 H 1232.19 -0.452049 -0.548792 0
M  V30 13124 H 1234.79 -1.68998 -0.98285 0
M  V30 13125 H 1233.49 -3.15797 -2.62108 0
M  V30 13126 H 1233.03 -1.71836 -3.53887 0
M  V30 13127 H 1235.04 -1.40003 -4.76039 0
M  V30 13128 N 1234.21 1.05064 -1.1747 0
M  V30 13129 C 1235.49 1.74999 -0.873776 0
M  V30 13130 C 1235.87 2.01615 0.625676 0
M  V30 13131 O 1235.22 1.65324 1.57734 0
M  V30 13132 C 1235.43 3.04231 -1.7101 0
M  V30 13133 C 1236.78 3.78157 -1.93087 0
M  V30 13134 O 1237.8 3.14104 -1.6798 0
M  V30 13135 O 1236.66 4.93255 -2.3529 0
M  V30 13136 H 1233.75 0.761042 -0.323641 0
M  V30 13137 H 1236.3 1.1122 -1.28172 0
M  V30 13138 H 1235.07 2.80621 -2.72704 0
M  V30 13139 H 1234.69 3.75746 -1.30002 0
M  V30 13140 N 1235.69 0.975146 1.23809 0
M  V30 13141 C 1236.64 0.510761 2.25077 0
M  V30 13142 C 1237.61 -0.447605 1.59955 0
M  V30 13143 O 1238.79 -0.356318 1.87443 0
M  V30 13144 C 1235.93 -0.185755 3.446 0
M  V30 13145 C 1235.05 0.812254 4.24295 0
M  V30 13146 C 1234.18 0.0910835 5.31122 0
M  V30 13147 C 1233.22 1.07866 6.02521 0
M  V30 13148 N 1232.36 0.386995 7.01033 0
M  V30 13149 H 1237.2 1.37913 2.64166 0
M  V30 13150 H 1234.73 0.691184 1.2985 0
M  V30 13151 H 1236.69 -0.606341 4.1277 0
M  V30 13152 H 1235.32 -1.01803 3.06327 0
M  V30 13153 H 1234.37 1.35125 3.55592 0
M  V30 13154 H 1235.69 1.56502 4.73612 0
M  V30 13155 H 1234.84 -0.387129 6.05464 0
M  V30 13156 H 1233.58 -0.694324 4.82732 0
M  V30 13157 H 1232.58 1.56767 5.26976 0
M  V30 13158 H 1233.81 1.86464 6.52999 0
M  V30 13159 H 1231.76 -0.3793 6.54903 0
M  V30 13160 H 1231.67 1.0785 7.48268 0
M  V30 13161 H 1232.94 -0.0690036 7.79469 0
M  V30 13162 N 1237.17 -1.38817 0.746158 0
M  V30 13163 C 1238.1 -2.33144 0.128836 0
M  V30 13164 C 1239.08 -1.54487 -0.711873 0
M  V30 13165 O 1240.27 -1.82836 -0.654577 0
M  V30 13166 C 1237.4 -3.38639 -0.770772 0
M  V30 13167 C 1236.35 -4.27987 -0.0333669 0
M  V30 13168 C 1235.68 -5.24274 -1.05073 0
M  V30 13169 C 1236.98 -5.09915 1.13066 0
M  V30 13170 H 1238.67 -2.85019 0.916778 0
M  V30 13171 H 1236.22 -1.37039 0.442306 0
M  V30 13172 H 1238.17 -4.03587 -1.21225 0
M  V30 13173 H 1236.89 -2.8523 -1.59095 0
M  V30 13174 H 1235.55 -3.64534 0.388612 0
M  V30 13175 H 1235.2 -4.67156 -1.86478 0
M  V30 13176 H 1234.9 -5.84906 -0.562037 0
M  V30 13177 H 1236.42 -5.92099 -1.49169 0
M  V30 13178 H 1237.84 -5.68145 0.767084 0
M  V30 13179 H 1236.23 -5.79744 1.54972 0
M  V30 13180 H 1237.3 -4.4409 1.94709 0
M  V30 13181 N 1238.65 -0.49465 -1.49636 0
M  V30 13182 C 1239.87 0.051305 -2.07337 0
M  V30 13183 C 1240.3 1.30637 -1.35335 0
M  V30 13184 O 1239.66 1.76647 -0.408126 0
M  V30 13185 C 1239.7 0.294425 -3.59396 0
M  V30 13186 O 1238.81 1.3704 -3.88965 0
M  V30 13187 H 1238.15 -0.023408 -0.663587 0
M  V30 13188 H 1240.68 -0.692451 -1.92526 0
M  V30 13189 H 1240.69 0.527854 -4.04571 0
M  V30 13190 H 1239.36 -0.622583 -4.11214 0
M  V30 13191 H 1237.94 1.12242 -3.55607 0
M  V30 13192 N 1240.13 1.55939 -0.228214 0
M  V30 13193 C 1241.35 2.0332 0.409364 0
M  V30 13194 C 1241.78 1.10683 1.52088 0
M  V30 13195 O 1241.13 0.0962484 1.81044 0
M  V30 13196 C 1241.18 3.48877 0.911981 0
M  V30 13197 O 1240.29 3.59378 2.02289 0
M  V30 13198 H 1239.63 0.657625 0.0917909 0
M  V30 13199 H 1242.16 2.01605 -0.348802 0
M  V30 13200 H 1242.17 3.89331 1.22007 0
M  V30 13201 H 1240.84 4.15783 0.0984902 0
M  V30 13202 H 1239.42 3.30815 1.72093 0
M  V30 13203 N 1241.6 -0.0451101 1.57535 0
M  V30 13204 C 1242.85 -0.739114 1.88529 0
M  V30 13205 C 1243.18 -1.76208 0.823468 0
M  V30 13206 O 1242.43 -1.94893 -0.177512 0
M  V30 13207 C 1242.73 -1.45938 3.26247 0
M  V30 13208 C 1242.4 -0.57391 4.47233 0
M  V30 13209 C 1241.06 -0.329974 4.80067 0
M  V30 13210 C 1243.41 0.0384272 5.21186 0
M  V30 13211 C 1240.74 0.535339 5.84253 0
M  V30 13212 C 1243.09 0.891349 6.26289 0
M  V30 13213 C 1241.76 1.1449 6.57608 0
M  V30 13214 H 1241.03 -0.270461 0.689878 0
M  V30 13215 H 1243.67 0.000714103 1.915 0
M  V30 13216 H 1241.98 -2.27212 3.1919 0
M  V30 13217 H 1243.68 -2.00162 3.47471 0
M  V30 13218 H 1240.27 -0.774181 4.2155 0
M  V30 13219 H 1244.45 -0.137096 4.96111 0
M  V30 13220 H 1239.71 0.740253 6.06902 0
M  V30 13221 H 1243.88 1.37243 6.82743 0
M  V30 13222 H 1241.51 1.81715 7.38162 0
M  V30 13223 N 1243.08 -1.54377 -0.317073 0
M  V30 13224 C 1244.05 -1.83488 -1.37349 0
M  V30 13225 C 1245.05 -0.706981 -1.44424 0
M  V30 13226 O 1246.24 -0.975289 -1.44339 0
M  V30 13227 C 1243.37 -2.00074 -2.76013 0
M  V30 13228 H 1244.56 -2.77883 -1.12789 0
M  V30 13229 H 1242.11 -1.46194 -0.552902 0
M  V30 13230 H 1242.85 -1.07913 -3.05819 0
M  V30 13231 H 1242.63 -2.82155 -2.7227 0
M  V30 13232 H 1244.12 -2.24022 -3.52426 0
M  V30 13233 N 1244.56 0.579466 -1.4656 0
M  V30 13234 C 1245.79 1.36351 -1.55615 0
M  V30 13235 C 1246.2 1.87755 -0.198405 0
M  V30 13236 O 1245.56 1.63795 0.804834 0
M  V30 13237 C 1245.61 2.54881 -2.56355 0
M  V30 13238 O 1245.33 2.05607 -3.86856 0
M  V30 13239 C 1246.83 3.47391 -2.75381 0
M  V30 13240 H 1244.05 0.416426 -0.526147 0
M  V30 13241 H 1246.6 0.704134 -1.91995 0
M  V30 13242 H 1244.75 3.16802 -2.2297 0
M  V30 13243 H 1245.17 2.82823 -4.41714 0
M  V30 13244 H 1246.64 4.27031 -3.49783 0
M  V30 13245 H 1247.12 3.99532 -1.82403 0
M  V30 13246 H 1247.72 2.91303 -3.09875 0
M  V30 13247 N 1246.04 1.3432 0.824371 0
M  V30 13248 C 1247.26 1.2982 1.61745 0
M  V30 13249 C 1247.69 -0.125298 1.87682 0
M  V30 13250 O 1247.05 -1.08658 1.45131 0
M  V30 13251 C 1247.09 2.09327 2.93623 0
M  V30 13252 O 1246.2 1.4618 3.85623 0
M  V30 13253 H 1245.54 0.445929 0.491979 0
M  V30 13254 H 1248.07 1.77101 1.02452 0
M  V30 13255 H 1248.08 2.20629 3.43201 0
M  V30 13256 H 1246.75 3.12825 2.74069 0
M  V30 13257 H 1245.33 1.43611 3.44137 0
M  V30 13258 N 1247.52 -1.0444 1.18026 0
M  V30 13259 C 1248.76 -1.77838 0.974756 0
M  V30 13260 C 1249.1 -1.87792 -0.494755 0
M  V30 13261 O 1248.37 -1.38327 -1.36733 0
M  V30 13262 C 1248.65 -3.21315 1.62569 0
M  V30 13263 C 1248.51 -3.19327 3.16781 0
M  V30 13264 C 1249.83 -4.19337 1.33583 0
M  V30 13265 H 1246.94 -0.645575 0.35553 0
M  V30 13266 H 1249.59 -1.22023 1.45638 0
M  V30 13267 H 1247.74 -3.68974 1.21617 0
M  V30 13268 H 1249.41 -2.79687 3.66842 0
M  V30 13269 H 1247.65 -2.57461 3.49137 0
M  V30 13270 H 1248.32 -4.20626 3.5746 0
M  V30 13271 H 1250.8 -3.80208 1.69059 0
M  V30 13272 H 1249.67 -5.17953 1.81702 0
M  V30 13273 H 1249.94 -4.41346 0.258016 0
M  V30 13274 N 1248.99 -0.981699 -1.2329 0
M  V30 13275 C 1249.96 -0.527992 -2.23036 0
M  V30 13276 C 1250.96 0.383083 -1.5617 0
M  V30 13277 O 1252.15 0.176595 -1.73303 0
M  V30 13278 C 1249.28 0.233501 -3.40099 0
M  V30 13279 H 1250.47 -1.40995 -2.64689 0
M  V30 13280 H 1248.03 -0.767724 -1.36146 0
M  V30 13281 H 1248.76 1.13194 -3.03904 0
M  V30 13282 H 1248.55 -0.420505 -3.89839 0
M  V30 13283 H 1250.04 0.539485 -4.14101 0
M  V30 13284 N 1250.47 1.3842 -0.753509 0
M  V30 13285 C 1251.38 2.34252 -0.127811 0
M  V30 13286 C 1252.4 1.59266 0.700743 0
M  V30 13287 O 1253.57 1.9146 0.624914 0
M  V30 13288 C 1250.64 3.38382 0.754886 0
M  V30 13289 C 1249.7 4.2921 -0.0880312 0
M  V30 13290 C 1248.93 5.28367 0.75263 0
M  V30 13291 O 1249.16 5.34537 1.99064 0
M  V30 13292 O 1248.09 6.01656 0.171475 0
M  V30 13293 H 1251.92 2.89454 -0.91925 0
M  V30 13294 H 1249.5 1.40265 -0.514404 0
M  V30 13295 H 1251.38 4.02141 1.25938 0
M  V30 13296 H 1250.06 2.85536 1.52482 0
M  V30 13297 H 1248.97 3.68611 -0.638468 0
M  V30 13298 H 1250.3 4.85311 -0.82062 0
M  V30 13299 N 1251.95 0.502579 1.49372 0
M  V30 13300 C 1253.23 -0.104472 1.95321 0
M  V30 13301 C 1253.61 -1.53975 1.44412 0
M  V30 13302 O 1252.96 -2.18804 0.658566 0
M  V30 13303 C 1253.17 -0.0154833 3.48997 0
M  V30 13304 C 1254.51 -0.188615 4.24181 0
M  V30 13305 O 1255.54 -0.090595 3.56085 0
M  V30 13306 O 1254.4 -0.390068 5.45106 0
M  V30 13307 H 1251.49 -0.0944325 0.821591 0
M  V30 13308 H 1254.04 0.565229 1.6001 0
M  V30 13309 H 1252.81 0.985383 3.7869 0
M  V30 13310 H 1252.43 -0.72526 3.90929 0
M  V30 13311 N 1253.43 -1.55816 0.23648 0
M  V30 13312 C 1254.36 -2.18248 -0.700024 0
M  V30 13313 C 1255.37 -1.15579 -1.14654 0
M  V30 13314 O 1256.56 -1.42491 -1.07511 0
M  V30 13315 C 1253.66 -2.76338 -1.9619 0
M  V30 13316 C 1252.84 -4.04325 -1.66853 0
M  V30 13317 C 1251.89 -4.46834 -2.77895 0
M  V30 13318 O 1250.92 -5.13427 -2.45725 0
M  V30 13319 N 1252.12 -4.13753 -4.07171 0
M  V30 13320 H 1254.89 -2.99241 -0.16589 0
M  V30 13321 H 1252.45 -1.61803 0.0560383 0
M  V30 13322 H 1254.44 -3.01739 -2.69695 0
M  V30 13323 H 1253.01 -1.99563 -2.4061 0
M  V30 13324 H 1252.23 -3.86623 -0.769164 0
M  V30 13325 H 1253.52 -4.8779 -1.44703 0
M  V30 13326 H 1252.92 -3.60271 -4.36144 0
M  V30 13327 H 1251.47 -4.44014 -4.77174 0
M  V30 13328 N 1254.91 0.036755 -1.57557 0
M  V30 13329 C 1256.13 0.744813 -1.93565 0
M  V30 13330 C 1256.56 1.68508 -0.835863 0
M  V30 13331 O 1255.91 1.80091 0.208986 0
M  V30 13332 C 1255.96 1.48461 -3.28621 0
M  V30 13333 O 1255.07 2.59739 -3.20327 0
M  V30 13334 H 1254.41 0.200866 -0.632889 0
M  V30 13335 H 1256.94 -0.00547543 -2.04599 0
M  V30 13336 H 1256.95 1.85622 -3.63329 0
M  V30 13337 H 1255.62 0.794953 -4.08232 0
M  V30 13338 H 1254.2 2.25176 -2.97237 0
M  V30 13339 N 1256.39 1.54543 0.308881 0
M  V30 13340 C 1257.63 1.73706 1.04661 0
M  V30 13341 C 1257.96 0.517111 1.87189 0
M  V30 13342 O 1257.24 -0.485856 1.88334 0
M  V30 13343 C 1257.52 3.02141 1.95916 0
M  V30 13344 C 1257.38 4.34419 1.1662 0
M  V30 13345 C 1258.69 3.26401 2.95213 0
M  V30 13346 H 1255.81 0.63203 0.379087 0
M  V30 13347 H 1258.46 1.87253 0.321947 0
M  V30 13348 H 1256.61 2.90723 2.57706 0
M  V30 13349 H 1258.28 4.57743 0.571772 0
M  V30 13350 H 1256.52 4.3126 0.468747 0
M  V30 13351 H 1257.19 5.20535 1.83704 0
M  V30 13352 H 1259.67 3.37377 2.43549 0
M  V30 13353 H 1258.54 4.17597 3.56235 0
M  V30 13354 H 1258.8 2.44322 3.68455 0
M  V30 13355 N 1257.86 -0.571685 1.46866 0
M  V30 13356 C 1258.83 -1.66198 1.57832 0
M  V30 13357 C 1259.83 -1.54242 0.454547 0
M  V30 13358 O 1261.02 -1.58661 0.719191 0
M  V30 13359 C 1258.15 -3.05678 1.5091 0
M  V30 13360 H 1259.34 -1.57829 2.5501 0
M  V30 13361 H 1256.89 -0.790433 1.3484 0
M  V30 13362 H 1257.63 -3.19593 0.550529 0
M  V30 13363 H 1257.41 -3.15765 2.32454 0
M  V30 13364 H 1258.9 -3.85027 1.61692 0
M  V30 13365 N 1259.34 -1.34755 -0.817236 0
M  V30 13366 C 1260.57 -1.30676 -1.61054 0
M  V30 13367 C 1260.99 0.115343 -1.87746 0
M  V30 13368 O 1260.35 1.07887 -1.45705 0
M  V30 13369 C 1260.4 -2.10881 -2.92509 0
M  V30 13370 O 1259.5 -1.48223 -3.84842 0
M  V30 13371 H 1258.84 -0.448531 -0.489608 0
M  V30 13372 H 1261.37 -1.77642 -1.01512 0
M  V30 13373 H 1261.38 -2.22446 -3.42026 0
M  V30 13374 H 1260.06 -3.14274 -2.72406 0
M  V30 13375 H 1258.63 -1.45434 -3.4337 0
M  V30 13376 N 1260.82 1.03812 -1.18578 0
M  V30 13377 C 1261.75 2.13802 -0.938665 0
M  V30 13378 C 1262.73 1.69643 0.124575 0
M  V30 13379 O 1263.92 1.94179 -0.0285421 0
M  V30 13380 C 1261.05 3.44154 -0.466392 0
M  V30 13381 C 1260 4.01949 -1.47041 0
M  V30 13382 C 1259.33 5.27811 -0.855558 0
M  V30 13383 C 1260.63 4.37827 -2.84789 0
M  V30 13384 H 1262.32 2.34732 -1.85852 0
M  V30 13385 H 1259.87 1.12808 -0.895007 0
M  V30 13386 H 1261.82 4.20463 -0.280856 0
M  V30 13387 H 1260.54 3.22918 0.489041 0
M  V30 13388 H 1259.2 3.27725 -1.64293 0
M  V30 13389 H 1258.85 5.02886 0.107142 0
M  V30 13390 H 1258.55 5.67441 -1.52592 0
M  V30 13391 H 1260.07 6.06795 -0.680609 0
M  V30 13392 H 1261.49 5.05112 -2.71173 0
M  V30 13393 H 1259.88 4.88514 -3.48532 0
M  V30 13394 H 1260.95 3.47541 -3.38147 0
M  V30 13395 N 1262.3 0.988223 1.22768 0
M  V30 13396 C 1263.53 0.679743 1.95415 0
M  V30 13397 C 1263.94 -0.754731 1.73059 0
M  V30 13398 O 1263.3 -1.50876 1.02678 0
M  V30 13399 C 1263.35 0.970344 3.48234 0
M  V30 13400 O 1263.07 2.34845 3.69837 0
M  V30 13401 C 1264.57 0.67891 4.3807 0
M  V30 13402 H 1261.79 0.251847 0.621944 0
M  V30 13403 H 1264.33 1.32173 1.56047 0
M  V30 13404 H 1262.49 0.374241 3.85588 0
M  V30 13405 H 1262.9 2.44412 4.64072 0
M  V30 13406 H 1264.38 0.932549 5.44066 0
M  V30 13407 H 1264.85 -0.387073 4.37491 0
M  V30 13408 H 1265.46 1.25585 4.06335 0
M  V30 13409 N 1263.78 -1.38018 0.760839 0
M  V30 13410 C 1264.74 -2.28734 0.146154 0
M  V30 13411 C 1265.74 -1.47525 -0.639768 0
M  V30 13412 O 1266.93 -1.6788 -0.464964 0
M  V30 13413 C 1264.06 -3.31356 -0.801019 0
M  V30 13414 H 1265.25 -2.84599 0.945692 0
M  V30 13415 H 1262.81 -1.471 0.528323 0
M  V30 13416 H 1263.54 -2.80594 -1.62597 0
M  V30 13417 H 1263.33 -3.91366 -0.239775 0
M  V30 13418 H 1264.82 -3.99171 -1.22687 0
M  V30 13419 N 1265.25 -0.510493 -1.49103 0
M  V30 13420 C 1266.66 -0.0650831 -1.86587 0
M  V30 13421 C 1267.02 1.35185 -1.42195 0
M  V30 13422 O 1266.14 2.0091 -0.804004 0
M  V30 13423 C 1266.74 -0.111333 -3.38617 0
M  V30 13424 C 1265.29 0.278782 -3.75366 0
M  V30 13425 C 1264.44 -0.479707 -2.73119 0
M  V30 13426 H 1267.39 -0.722784 -1.41285 0
M  V30 13427 H 1267.41 0.681706 -3.74343 0
M  V30 13428 H 1266.93 -1.14271 -3.70896 0
M  V30 13429 H 1265.03 1.31304 -3.48698 0
M  V30 13430 H 1265.14 -0.047271 -4.79077 0
M  V30 13431 H 1263.5 0.0716459 -2.54599 0
M  V30 13432 H 1264.29 -1.51135 -3.08242 0
M  V30 13433 N 1266.73 1.55688 -0.24474 0
M  V30 13434 C 1267.66 2.18616 0.68844 0
M  V30 13435 C 1268.68 1.16185 1.14039 0
M  V30 13436 O 1269.87 1.43059 1.06754 0
M  V30 13437 C 1266.97 2.77375 1.94721 0
M  V30 13438 C 1266.14 4.05204 1.64706 0
M  V30 13439 C 1265.2 4.48302 2.75521 0
M  V30 13440 O 1264.22 5.14723 2.42999 0
M  V30 13441 N 1265.43 4.15907 4.04971 0
M  V30 13442 H 1268.19 2.99324 0.150018 0
M  V30 13443 H 1265.75 1.61771 -0.0646183 0
M  V30 13444 H 1267.74 3.03165 2.68091 0
M  V30 13445 H 1266.31 2.00837 2.39548 0
M  V30 13446 H 1265.53 3.87026 0.74865 0
M  V30 13447 H 1266.82 4.8855 1.42114 0
M  V30 13448 H 1266.22 3.62579 4.34227 0
M  V30 13449 H 1264.78 4.46538 4.74813 0
M  V30 13450 N 1268.21 -0.0283989 1.57574 0
M  V30 13451 C 1269.44 -0.730831 1.93563 0
M  V30 13452 C 1269.85 -1.68857 0.844556 0
M  V30 13453 O 1269.21 -1.8162 -0.178971 0
M  V30 13454 C 1269.26 -1.48731 3.29486 0
M  V30 13455 O 1268.98 -0.568017 4.34402 0
M  V30 13456 C 1270.48 -2.28684 3.79761 0
M  V30 13457 H 1267.7 -0.205346 0.638807 0
M  V30 13458 H 1270.25 0.0142728 2.04495 0
M  V30 13459 H 1268.4 -2.18429 3.19949 0
M  V30 13460 H 1268.82 -1.09861 5.12865 0
M  V30 13461 H 1270.29 -2.77157 4.77376 0
M  V30 13462 H 1270.77 -3.10133 3.10989 0
M  V30 13463 H 1271.37 -1.64059 3.92383 0
M  V30 13464 N 1269.69 -1.54705 -0.300681 0
M  V30 13465 C 1270.6 -1.88736 -1.39341 0
M  V30 13466 C 1271.61 -0.78155 -1.5546 0
M  V30 13467 O 1272.79 -1.07804 -1.70118 0
M  V30 13468 C 1269.85 -2.12795 -2.73713 0
M  V30 13469 C 1268.92 -3.36504 -2.66577 0
M  V30 13470 C 1268.15 -3.59407 -3.94541 0
M  V30 13471 O 1268.37 -2.85315 -4.93914 0
M  V30 13472 O 1267.31 -4.52923 -3.96415 0
M  V30 13473 H 1271.13 -2.817 -1.13484 0
M  V30 13474 H 1268.72 -1.40899 -0.496771 0
M  V30 13475 H 1270.6 -2.29819 -3.53215 0
M  V30 13476 H 1269.27 -1.23017 -2.99414 0
M  V30 13477 H 1268.18 -3.24844 -1.85546 0
M  V30 13478 H 1269.51 -4.26414 -2.45829 0
M  V30 13479 N 1271.17 0.563888 -1.47167 0
M  V30 13480 C 1272.08 1.69903 -1.61772 0
M  V30 13481 C 1273.09 1.6664 -0.500705 0
M  V30 13482 O 1274.27 1.86209 -0.767354 0
M  V30 13483 C 1271.33 3.06411 -1.62213 0
M  V30 13484 C 1270.39 3.20793 -2.8529 0
M  V30 13485 C 1269.63 4.50789 -2.85701 0
M  V30 13486 O 1269.85 5.3584 -1.95529 0
M  V30 13487 O 1268.78 4.68819 -3.77481 0
M  V30 13488 H 1272.61 1.60525 -2.57809 0
M  V30 13489 H 1270.2 0.733125 -1.30175 0
M  V30 13490 H 1272.08 3.87659 -1.65221 0
M  V30 13491 H 1270.75 3.16186 -0.693415 0
M  V30 13492 H 1269.66 2.38967 -2.87829 0
M  V30 13493 H 1270.99 3.15918 -3.77434 0
M  V30 13494 N 1272.64 1.35187 0.810078 0
M  V30 13495 C 1273.87 1.31371 1.59841 0
M  V30 13496 C 1274.29 -0.109547 1.88482 0
M  V30 13497 O 1273.64 -1.06047 1.48527 0
M  V30 13498 C 1273.7 2.11496 2.93175 0
M  V30 13499 O 1273.42 3.48273 2.65777 0
M  V30 13500 C 1274.92 2.15226 3.87547 0
M  V30 13501 H 1272.14 0.451428 0.496441 0
M  V30 13502 H 1274.68 1.7799 1.00697 0
M  V30 13503 H 1272.84 1.68486 3.48843 0
M  V30 13504 H 1273.25 3.89845 3.50886 0
M  V30 13505 H 1274.72 2.75687 4.78226 0
M  V30 13506 H 1275.2 1.15007 4.23875 0
M  V30 13507 H 1275.81 2.58382 3.37815 0
M  V30 13508 N 1274.12 -1.03182 1.19127 0
M  V30 13509 C 1275.37 -1.76184 0.990134 0
M  V30 13510 C 1275.69 -1.88986 -0.480546 0
M  V30 13511 O 1274.96 -1.4213 -1.34817 0
M  V30 13512 H 1273.54 -0.652668 0.363364 0
M  V30 13513 H 1276.2 -1.24481 1.49968 0
M  V30 13514 H 1275.3 -2.77119 1.43568 0
M  V30 13515 N 1275.6 -0.99472 -1.22242 0
M  V30 13516 C 1276.55 -0.546504 -2.24236 0
M  V30 13517 C 1277.52 0.422101 -1.60647 0
M  V30 13518 O 1278.7 0.326452 -1.87987 0
M  V30 13519 C 1275.84 0.130909 -3.44852 0
M  V30 13520 C 1274.96 -0.879653 -4.22949 0
M  V30 13521 C 1274.09 -0.175569 -5.3091 0
M  V30 13522 C 1273.13 -1.17438 -6.00729 0
M  V30 13523 N 1272.27 -0.498474 -7.00328 0
M  V30 13524 H 1277.11 -1.42099 -2.61939 0
M  V30 13525 H 1274.64 -0.711755 -1.28734 0
M  V30 13526 H 1276.6 0.540596 -4.13683 0
M  V30 13527 H 1275.23 0.96917 -3.07907 0
M  V30 13528 H 1274.28 -1.40765 -3.53397 0
M  V30 13529 H 1275.6 -1.64017 -4.71062 0
M  V30 13530 H 1274.75 0.290756 -6.06003 0
M  V30 13531 H 1273.49 0.617438 -4.83776 0
M  V30 13532 H 1272.49 -1.65131 -5.24416 0
M  V30 13533 H 1273.72 -1.96829 -6.4995 0
M  V30 13534 H 1271.66 0.275063 -6.55423 0
M  V30 13535 H 1271.58 -1.19741 -7.46457 0
M  V30 13536 H 1272.85 -0.0550119 -7.79481 0
M  V30 13537 N 1277.08 1.37613 -0.768148 0
M  V30 13538 C 1278.3 2.04579 -0.340892 0
M  V30 13539 C 1278.73 1.57556 1.02751 0
M  V30 13540 O 1278.09 0.734151 1.65771 0
M  V30 13541 C 1278.13 3.58495 -0.389099 0
M  V30 13542 O 1277.24 4.07838 0.611741 0
M  V30 13543 H 1276.58 0.647246 -0.148216 0
M  V30 13544 H 1279.11 1.75999 -1.04333 0
M  V30 13545 H 1279.12 4.07263 -0.245116 0
M  V30 13546 H 1277.79 3.92076 -1.38742 0
M  V30 13547 H 1276.37 3.70399 0.431173 0
M  V30 13548 N 1278.56 0.518393 1.4883 0
M  V30 13549 C 1279.78 -0.0183131 2.07392 0
M  V30 13550 C 1280.21 -1.28468 1.37396 0
M  V30 13551 O 1279.56 -1.75975 0.436177 0
M  V30 13552 C 1279.61 -0.237211 3.59819 0
M  V30 13553 O 1278.72 -1.30835 3.91096 0
M  V30 13554 H 1278.06 0.0339621 0.663131 0
M  V30 13555 H 1280.59 0.722993 1.914 0
M  V30 13556 H 1280.6 -0.463424 4.0536 0
M  V30 13557 H 1279.27 0.687925 4.10171 0
M  V30 13558 H 1277.85 -1.06571 3.57347 0
M  V30 13559 N 1280.03 -1.55556 0.252993 0
M  V30 13560 C 1280.96 -2.24613 -0.638047 0
M  V30 13561 C 1281.95 -1.22852 -1.1765 0
M  V30 13562 O 1283.13 -1.51519 -1.21472 0
M  V30 13563 C 1280.26 -2.95029 -1.83236 0
M  V30 13564 C 1279.21 -4.03531 -1.42641 0
M  V30 13565 C 1278.54 -4.61404 -2.70204 0
M  V30 13566 C 1279.84 -5.18923 -0.592958 0
M  V30 13567 H 1281.53 -2.99335 -0.0621918 0
M  V30 13568 H 1279.08 -1.43972 -0.0284722 0
M  V30 13569 H 1281.03 -3.42042 -2.46141 0
M  V30 13570 H 1279.76 -2.17805 -2.43369 0
M  V30 13571 H 1278.42 -3.57296 -0.820672 0
M  V30 13572 H 1278.06 -3.80874 -3.28548 0
M  V30 13573 H 1277.76 -5.34652 -2.43764 0
M  V30 13574 H 1279.29 -5.11154 -3.33997 0
M  V30 13575 H 1280.7 -5.62124 -1.12646 0
M  V30 13576 H 1279.1 -5.98598 -0.424358 0
M  V30 13577 H 1280.17 -4.83301 0.393434 0
M  V30 13578 N 1281.51 0.0200419 -1.57587 0
M  V30 13579 C 1282.44 1.01715 -2.10181 0
M  V30 13580 C 1283.42 1.37136 -1.00636 0
M  V30 13581 O 1284.61 1.45862 -1.2821 0
M  V30 13582 C 1281.74 2.31531 -2.58865 0
M  V30 13583 C 1280.69 2.10327 -3.72755 0
M  V30 13584 C 1280.02 3.45981 -4.07678 0
M  V30 13585 C 1281.32 1.4821 -5.0083 0
M  V30 13586 H 1283.01 0.579307 -2.93742 0
M  V30 13587 H 1280.56 0.277211 -1.41307 0
M  V30 13588 H 1282.51 3.01623 -2.94281 0
M  V30 13589 H 1281.24 2.77392 -1.72399 0
M  V30 13590 H 1279.89 1.42665 -3.37701 0
M  V30 13591 H 1279.54 3.89508 -3.18265 0
M  V30 13592 H 1279.24 3.32616 -4.84397 0
M  V30 13593 H 1280.77 4.17421 -4.45637 0
M  V30 13594 H 1282.18 2.08232 -5.34146 0
M  V30 13595 H 1280.58 1.45393 -5.82221 0
M  V30 13596 H 1281.65 0.448942 -4.82817 0
M  V30 13597 N 1282.99 1.54862 0.292472 0
M  V30 13598 C 1283.92 1.89406 1.36556 0
M  V30 13599 C 1284.9 0.753838 1.52484 0
M  V30 13600 O 1286.09 1.01031 1.6585 0
M  V30 13601 C 1283.22 2.14888 2.72838 0
M  V30 13602 C 1282.17 3.3073 2.71665 0
M  V30 13603 C 1281.5 3.41648 4.11316 0
M  V30 13604 C 1282.8 4.67622 2.32651 0
M  V30 13605 H 1284.49 2.79284 1.07894 0
M  V30 13606 H 1282.04 1.34377 0.517585 0
M  V30 13607 H 1283.99 2.3764 3.48002 0
M  V30 13608 H 1282.71 1.2179 3.03042 0
M  V30 13609 H 1281.37 3.07915 1.98958 0
M  V30 13610 H 1281.02 2.46051 4.38711 0
M  V30 13611 H 1280.72 4.19522 4.11431 0
M  V30 13612 H 1282.24 3.6667 4.88248 0
M  V30 13613 H 1283.66 4.90048 2.97533 0
M  V30 13614 H 1282.06 5.48272 2.43963 0
M  V30 13615 H 1283.13 4.67762 1.27777 0
M  V30 13616 N 1284.47 -0.556076 1.47464 0
M  V30 13617 C 1285.75 -1.31689 1.44628 0
M  V30 13618 C 1286.13 -2.10609 0.143841 0
M  V30 13619 O 1285.47 -2.11097 -0.874662 0
M  V30 13620 C 1285.68 -2.22045 2.69253 0
M  V30 13621 C 1287.03 -2.83028 3.16513 0
M  V30 13622 O 1288.06 -2.32346 2.69988 0
M  V30 13623 O 1286.91 -3.75148 3.97399 0
M  V30 13624 H 1284.01 -0.593026 0.576411 0
M  V30 13625 H 1286.55 -0.574885 1.59666 0
M  V30 13626 H 1285.33 -1.63337 3.5558 0
M  V30 13627 H 1284.95 -3.03539 2.56807 0
M  V30 13628 N 1285.95 -1.35615 -0.802897 0
M  V30 13629 C 1287.18 -1.32217 -1.59142 0
M  V30 13630 C 1287.59 0.0995496 -1.88537 0
M  V30 13631 O 1286.95 1.05258 -1.49087 0
M  V30 13632 C 1287 -2.13048 -2.92049 0
M  V30 13633 O 1286.72 -3.49677 -2.63927 0
M  V30 13634 C 1288.22 -2.17278 -3.864 0
M  V30 13635 H 1285.44 -0.454054 -0.49404 0
M  V30 13636 H 1287.98 -1.78521 -0.997516 0
M  V30 13637 H 1286.14 -1.70334 -3.47944 0
M  V30 13638 H 1286.55 -3.917 -3.48814 0
M  V30 13639 H 1288.03 -2.7822 -4.76758 0
M  V30 13640 H 1288.5 -1.17253 -4.23259 0
M  V30 13641 H 1289.11 -2.6017 -3.3644 0
M  V30 13642 N 1287.43 1.02549 -1.19673 0
M  V30 13643 C 1288.67 1.76265 -1.00293 0
M  V30 13644 C 1289 1.88555 0.464816 0
M  V30 13645 O 1288.28 1.40484 1.34515 0
M  V30 13646 C 1288.56 3.18688 -1.6766 0
M  V30 13647 C 1288.42 3.14247 -3.21821 0
M  V30 13648 C 1289.73 4.17159 -1.40238 0
M  V30 13649 H 1286.85 0.639837 -0.365756 0
M  V30 13650 H 1289.5 1.19691 -1.4756 0
M  V30 13651 H 1287.65 3.66992 -1.27472 0
M  V30 13652 H 1289.32 2.73815 -3.71245 0
M  V30 13653 H 1287.56 2.51874 -3.53188 0
M  V30 13654 H 1288.23 4.14886 -3.64107 0
M  V30 13655 H 1290.71 3.77471 -1.75086 0
M  V30 13656 H 1289.58 5.14997 -1.89919 0
M  V30 13657 H 1289.84 4.4088 -0.328197 0
M  V30 13658 N 1288.9 1.00119 1.21713 0
M  V30 13659 C 1290.13 0.700431 1.94683 0
M  V30 13660 C 1290.55 -0.736333 1.73849 0
M  V30 13661 O 1289.9 -1.49778 1.04272 0
M  V30 13662 C 1289.95 1.00722 3.47185 0
M  V30 13663 O 1289.68 2.38754 3.67326 0
M  V30 13664 C 1291.18 0.725335 4.37326 0
M  V30 13665 H 1288.4 0.25843 0.619238 0
M  V30 13666 H 1290.94 1.3382 1.54636 0
M  V30 13667 H 1289.1 0.415117 3.85169 0
M  V30 13668 H 1289.51 2.49321 4.61454 0
M  V30 13669 H 1290.98 0.990202 5.43046 0
M  V30 13670 H 1291.46 -0.340649 4.37877 0
M  V30 13671 H 1292.07 1.29888 4.04981 0
M  V30 13672 N 1290.38 -1.37203 0.775435 0
M  V30 13673 C 1291.61 -2.04396 0.351737 0
M  V30 13674 C 1292.03 -1.58099 -1.01913 0
M  V30 13675 O 1291.39 -0.742932 -1.65379 0
M  V30 13676 C 1291.44 -3.58283 0.408105 0
M  V30 13677 O 1290.54 -4.08156 -0.590104 0
M  V30 13678 H 1289.88 -0.646451 0.151647 0
M  V30 13679 H 1292.41 -1.75443 1.05265 0
M  V30 13680 H 1292.42 -4.07127 0.266711 0
M  V30 13681 H 1291.1 -3.91335 1.40819 0
M  V30 13682 H 1289.67 -3.70622 -0.411524 0
M  V30 13683 N 1291.86 -0.526279 -1.48553 0
M  V30 13684 C 1293.11 0.0111473 -2.01697 0
M  V30 13685 C 1293.42 1.35675 -1.40895 0
M  V30 13686 O 1294.63 1.98233 -1.85515 0
M  V30 13687 C 1293.08 0.0702721 -3.59831 0
M  V30 13688 C 1292.69 -1.27022 -4.29616 0
M  V30 13689 C 1294.44 0.556722 -4.20834 0
M  V30 13690 C 1292.34 -1.17188 -5.79673 0
M  V30 13691 H 1291.27 0.00793697 -0.753958 0
M  V30 13692 H 1293.92 -0.669503 -1.70851 0
M  V30 13693 H 1292.31 0.81592 -3.87503 0
M  V30 13694 H 1293.48 -2.03114 -4.1362 0
M  V30 13695 H 1291.79 -1.69211 -3.80469 0
M  V30 13696 H 1294.39 0.648205 -5.30756 0
M  V30 13697 H 1294.73 1.56163 -3.859 0
M  V30 13698 H 1295.27 -0.133132 -3.97577 0
M  V30 13699 H 1292.01 -2.15182 -6.19174 0
M  V30 13700 H 1291.53 -0.452259 -5.98093 0
M  V30 13701 H 1293.21 -0.861011 -6.41245 0
M  V30 13702 N 1293.34 1.5542 -0.261239 0
M  V30 13703 C 1294.75 1.85161 0.239195 0
M  V30 13704 C 1295.1 1.18319 1.56509 0
M  V30 13705 O 1294.22 0.4666 2.1131 0
M  V30 13706 C 1294.82 3.3592 0.440781 0
M  V30 13707 C 1293.38 3.65837 0.885461 0
M  V30 13708 C 1292.53 2.77285 -0.0291982 0
M  V30 13709 H 1295.48 1.51158 -0.483417 0
M  V30 13710 H 1295.5 3.58276 1.28136 0
M  V30 13711 H 1295.01 3.84541 -0.524382 0
M  V30 13712 H 1293.11 3.22705 1.86259 0
M  V30 13713 H 1293.22 4.73469 0.732394 0
M  V30 13714 H 1291.59 2.50045 0.484701 0
M  V30 13715 H 1292.37 3.28716 -0.989992 0
M  V30 13716 N 1294.82 -0.0116844 1.57596 0
M  V30 13717 C 1296.04 -0.713924 1.94725 0
M  V30 13718 C 1296.47 -1.67157 0.862565 0
M  V30 13719 O 1295.82 -1.80401 -0.180308 0
M  V30 13720 C 1295.87 -1.43214 3.30941 0
M  V30 13721 O 1294.98 -2.5461 3.24419 0
M  V30 13722 H 1294.32 -0.190772 0.636005 0
M  V30 13723 H 1296.85 0.0380247 2.04565 0
M  V30 13724 H 1296.86 -1.79819 3.66237 0
M  V30 13725 H 1295.53 -0.729906 4.09445 0
M  V30 13726 H 1294.11 -2.20419 3.00782 0
M  V30 13727 N 1296.29 -1.55015 -0.284256 0
M  V30 13728 C 1297.52 -1.79431 -1.04016 0
M  V30 13729 C 1297.94 -0.560254 -1.79563 0
M  V30 13730 O 1297.3 0.489804 -1.74558 0
M  V30 13731 C 1297.35 -3.01162 -1.98328 0
M  V30 13732 O 1296.45 -2.75459 -3.06914 0
M  V30 13733 H 1295.79 -0.593391 -0.297965 0
M  V30 13734 H 1298.32 -2.02136 -0.316585 0
M  V30 13735 H 1298.33 -3.29589 -2.40489 0
M  V30 13736 H 1297.01 -3.90634 -1.42751 0
M  V30 13737 H 1295.59 -2.58096 -2.69148 0
M  V30 13738 N 1297.77 0.548248 -1.47757 0
M  V30 13739 C 1299.19 0.875048 -1.33473 0
M  V30 13740 C 1299.39 1.98747 -0.331952 0
M  V30 13741 O 1298.44 2.51226 0.253348 0
M  V30 13742 C 1299.76 1.25982 -2.73037 0
M  V30 13743 C 1301.3 1.37074 -2.81389 0
M  V30 13744 C 1301.78 1.78902 -4.21613 0
M  V30 13745 N 1303.27 1.86037 -4.24198 0
M  V30 13746 C 1304.01 2.1975 -5.2962 0
M  V30 13747 N 1303.5 2.52013 -6.45338 0
M  V30 13748 N 1305.29 2.206 -5.17003 0
M  V30 13749 H 1297.45 -0.186033 -2.11584 0
M  V30 13750 H 1299.71 -0.0205687 -0.947777 0
M  V30 13751 H 1299.41 0.516188 -3.47891 0
M  V30 13752 H 1299.29 2.21402 -3.05387 0
M  V30 13753 H 1301.68 2.10517 -2.06801 0
M  V30 13754 H 1301.76 0.398193 -2.52682 0
M  V30 13755 H 1301.4 1.06026 -4.9671 0
M  V30 13756 H 1301.33 2.77176 -4.47751 0
M  V30 13757 H 1303.82 1.63455 -3.40721 0
M  V30 13758 H 1304.13 2.7679 -7.21531 0
M  V30 13759 H 1302.48 2.49573 -6.48643 0
M  V30 13760 H 1305.67 1.9484 -4.25623 0
M  V30 13761 H 1305.84 2.46543 -5.99267 0
M  V30 13762 N 1299.25 1.36039 0.795694 0
M  V30 13763 C 1300.48 1.33059 1.58439 0
M  V30 13764 C 1300.89 -0.0895496 1.88588 0
M  V30 13765 O 1300.25 -1.04466 1.49643 0
M  V30 13766 C 1300.3 2.14594 2.90915 0
M  V30 13767 O 1300.02 3.51072 2.62069 0
M  V30 13768 C 1301.52 2.19324 3.85242 0
M  V30 13769 H 1298.74 0.456668 0.491625 0
M  V30 13770 H 1301.29 1.79048 0.988035 0
M  V30 13771 H 1299.44 1.72177 3.47036 0
M  V30 13772 H 1299.86 3.93545 3.46732 0
M  V30 13773 H 1301.33 2.80744 4.75276 0
M  V30 13774 H 1301.81 1.19496 4.22631 0
M  V30 13775 H 1302.41 2.6195 3.35056 0
M  V30 13776 N 1300.73 -1.01913 1.20215 0
M  V30 13777 C 1301.64 -2.13864 0.964328 0
M  V30 13778 C 1302.65 -1.73821 -0.0789556 0
M  V30 13779 O 1303.83 -2.01111 0.107914 0
M  V30 13780 C 1300.9 -3.42827 0.516757 0
M  V30 13781 C 1299.96 -3.97127 1.63059 0
M  V30 13782 C 1299.19 -5.19935 1.20428 0
M  V30 13783 O 1299.41 -5.70355 0.0719119 0
M  V30 13784 O 1298.35 -5.67322 2.01071 0
M  V30 13785 H 1302.17 -2.36795 1.90162 0
M  V30 13786 H 1299.76 -1.1226 0.985803 0
M  V30 13787 H 1301.64 -4.20493 0.276272 0
M  V30 13788 H 1300.31 -3.21318 -0.391983 0
M  V30 13789 H 1299.22 -3.20752 1.92533 0
M  V30 13790 H 1300.55 -4.2302 2.51624 0
M  V30 13791 N 1302.21 -1.00763 -1.2118 0
M  V30 13792 C 1303.17 -0.575183 -2.21865 0
M  V30 13793 C 1304.17 0.349871 -1.56948 0
M  V30 13794 O 1305.36 0.139795 -1.73638 0
M  V30 13795 C 1302.49 0.161308 -3.40518 0
M  V30 13796 H 1303.68 -1.46578 -2.61639 0
M  V30 13797 H 1301.24 -0.79643 -1.34487 0
M  V30 13798 H 1301.97 1.06723 -3.06236 0
M  V30 13799 H 1301.76 -0.503101 -3.88859 0
M  V30 13800 H 1303.25 0.451527 -4.15152 0
M  V30 13801 N 1303.68 1.3679 -0.7827 0
M  V30 13802 C 1304.91 2.03678 -0.363734 0
M  V30 13803 C 1305.33 1.59024 1.01768 0
M  V30 13804 O 1304.68 0.776541 1.65155 0
M  V30 13805 C 1304.74 3.59165 -0.410213 0
M  V30 13806 O 1304.46 4.02188 -1.73714 0
M  V30 13807 C 1305.96 4.43296 0.018972 0
M  V30 13808 H 1303.18 0.653828 -0.150829 0
M  V30 13809 H 1305.72 1.74903 -1.05968 0
M  V30 13810 H 1303.88 3.86673 0.237249 0
M  V30 13811 H 1304.29 4.96754 -1.68332 0
M  V30 13812 H 1305.76 5.51962 -0.0646943 0
M  V30 13813 H 1306.24 4.25948 1.07076 0
M  V30 13814 H 1306.85 4.21036 -0.600721 0
M  V30 13815 N 1305.16 0.53415 1.48272 0
M  V30 13816 C 1306.09 -0.263508 2.2768 0
M  V30 13817 C 1307.11 -0.90064 1.35618 0
M  V30 13818 O 1308.3 -0.778379 1.60635 0
M  V30 13819 C 1305.4 -1.38878 3.09138 0
M  V30 13820 C 1304.57 -0.852784 4.29006 0
M  V30 13821 C 1303.63 -1.85969 4.92242 0
M  V30 13822 O 1302.65 -1.41497 5.51332 0
M  V30 13823 N 1303.86 -3.19207 4.84858 0
M  V30 13824 H 1306.62 0.417548 2.96777 0
M  V30 13825 H 1304.18 0.368743 1.57645 0
M  V30 13826 H 1306.17 -2.06062 3.48311 0
M  V30 13827 H 1304.74 -1.97343 2.42434 0
M  V30 13828 H 1303.96 -0.0048227 3.942 0
M  V30 13829 H 1305.25 -0.473634 5.06591 0
M  V30 13830 H 1304.65 -3.58001 4.38009 0
M  V30 13831 H 1303.21 -3.82013 5.28119 0
M  V30 13832 N 1306.64 -1.55279 0.269478 0
M  V30 13833 C 1307.89 -1.99077 -0.348224 0
M  V30 13834 C 1308.21 -1.15925 -1.568 0
M  V30 13835 O 1307.48 -0.247404 -1.94331 0
M  V30 13836 H 1306.06 -0.735307 -0.131653 0
M  V30 13837 H 1308.72 -1.91288 0.373506 0
M  V30 13838 H 1307.82 -3.05427 -0.641953 0
M  V30 13839 N 1308.12 0.00332656 -1.576 0
M  V30 13840 C 1309.05 0.994803 -2.11248 0
M  V30 13841 C 1310.03 1.36061 -1.02085 0
M  V30 13842 O 1311.21 1.44494 -1.2975 0
M  V30 13843 C 1308.34 2.28772 -2.61306 0
M  V30 13844 C 1307.3 2.06362 -3.74965 0
M  V30 13845 C 1306.62 3.41638 -4.11324 0
M  V30 13846 C 1307.92 1.4289 -5.02374 0
M  V30 13847 H 1309.62 0.548119 -2.9434 0
M  V30 13848 H 1307.16 0.262208 -1.41593 0
M  V30 13849 H 1309.12 2.98485 -2.97464 0
M  V30 13850 H 1307.84 2.75547 -1.75332 0
M  V30 13851 H 1306.5 1.39076 -3.39195 0
M  V30 13852 H 1306.15 3.8611 -3.22379 0
M  V30 13853 H 1305.85 3.2746 -4.87897 0
M  V30 13854 H 1307.37 4.12671 -4.50039 0
M  V30 13855 H 1308.79 2.02555 -5.36325 0
M  V30 13856 H 1307.18 1.3921 -5.8373 0
M  V30 13857 H 1308.25 0.397708 -4.83266 0
M  V30 13858 N 1309.6 1.55164 0.276031 0
M  V30 13859 C 1310.87 1.66338 1.02913 0
M  V30 13860 C 1311.25 0.527876 2.04393 0
M  V30 13861 O 1310.6 -0.472437 2.23563 0
M  V30 13862 C 1310.81 3.05427 1.68865 0
M  V30 13863 C 1312.16 3.63075 2.2014 0
M  V30 13864 O 1313.18 3.0804 1.78857 0
M  V30 13865 O 1312.04 4.59492 2.95854 0
M  V30 13866 H 1309.14 0.675446 0.477181 0
M  V30 13867 H 1311.68 1.67504 0.272129 0
M  V30 13868 H 1310.45 3.79514 0.953125 0
M  V30 13869 H 1310.08 3.08147 2.5126 0
M  V30 13870 N 1311.07 -0.540404 1.48045 0
M  V30 13871 C 1312.3 -1.31986 1.58944 0
M  V30 13872 C 1312.71 -1.87608 0.244889 0
M  V30 13873 O 1312.06 -1.66576 -0.774467 0
M  V30 13874 C 1312.12 -2.51547 2.56835 0
M  V30 13875 C 1311.78 -2.17089 4.02146 0
M  V30 13876 C 1312.78 -1.73379 4.90138 0
M  V30 13877 C 1310.46 -2.27932 4.47607 0
M  V30 13878 C 1312.46 -1.40964 6.21617 0
M  V30 13879 C 1310.14 -1.95129 5.7911 0
M  V30 13880 C 1311.14 -1.51715 6.65937 0
M  V30 13881 O 1310.83 -1.19337 7.94993 0
M  V30 13882 H 1310.56 -0.408028 0.538971 0
M  V30 13883 H 1313.12 -0.659748 1.94516 0
M  V30 13884 H 1311.35 -3.20505 2.16364 0
M  V30 13885 H 1313.04 -3.13617 2.57681 0
M  V30 13886 H 1313.8 -1.64481 4.56258 0
M  V30 13887 H 1309.68 -2.6068 3.8022 0
M  V30 13888 H 1313.22 -1.07005 6.89344 0
M  V30 13889 H 1309.12 -2.03664 6.12528 0
M  V30 13890 H 1309.89 -1.32824 8.07651 0
M  V30 13891 N 1312.55 -1.36459 -0.788468 0
M  V30 13892 C 1313.8 -1.30935 -1.54867 0
M  V30 13893 C 1314.13 0.110916 -1.93883 0
M  V30 13894 O 1313.41 1.06452 -1.62783 0
M  V30 13895 C 1313.69 -2.23294 -2.8251 0
M  V30 13896 C 1313.54 -3.74022 -2.49856 0
M  V30 13897 C 1314.86 -2.14407 -3.84341 0
M  V30 13898 H 1311.98 -0.476958 -0.561854 0
M  V30 13899 H 1314.62 -1.67018 -0.905805 0
M  V30 13900 H 1312.77 -1.92652 -3.37369 0
M  V30 13901 H 1314.44 -4.15187 -2.01041 0
M  V30 13902 H 1312.69 -3.93411 -1.82785 0
M  V30 13903 H 1313.36 -4.34057 -3.41026 0
M  V30 13904 H 1315.83 -2.41381 -3.38932 0
M  V30 13905 H 1314.71 -2.81199 -4.71401 0
M  V30 13906 H 1314.97 -1.13166 -4.27371 0
M  V30 13907 N 1314.03 1.01274 -1.20754 0
M  V30 13908 C 1315.44 1.56381 -1.0199 0
M  V30 13909 C 1315.79 1.91595 0.422591 0
M  V30 13910 O 1314.92 1.72653 1.3046 0
M  V30 13911 C 1315.51 2.8415 -1.8451 0
M  V30 13912 C 1314.07 3.35772 -1.70101 0
M  V30 13913 C 1313.22 2.0904 -1.82202 0
M  V30 13914 H 1316.17 0.836105 -1.34889 0
M  V30 13915 H 1316.19 3.55717 -1.35076 0
M  V30 13916 H 1315.7 2.5849 -2.8949 0
M  V30 13917 H 1313.8 3.66384 -0.677732 0
M  V30 13918 H 1313.92 4.07714 -2.51607 0
M  V30 13919 H 1312.28 2.21675 -1.25429 0
M  V30 13920 H 1313.06 1.858 -2.88675 0
M  V30 13921 N 1315.51 1.01404 1.20644 0
M  V30 13922 C 1316.73 0.720839 1.9447 0
M  V30 13923 C 1317.16 -0.711711 1.74116 0
M  V30 13924 O 1316.52 -1.48938 1.03379 0
M  V30 13925 C 1316.57 1.05864 3.4471 0
M  V30 13926 O 1315.67 0.168901 4.12054 0
M  V30 13927 H 1315.01 0.267698 0.607646 0
M  V30 13928 H 1317.54 1.35672 1.53147 0
M  V30 13929 H 1317.55 1.00928 3.9532 0
M  V30 13930 H 1316.23 2.1024 3.58848 0
M  V30 13931 H 1314.8 0.275572 3.7188 0
M  V30 13932 N 1316.99 -1.36373 0.789944 0
M  V30 13933 C 1317.95 -2.28372 0.194639 0
M  V30 13934 C 1318.95 -1.48849 -0.608332 0
M  V30 13935 O 1320.14 -1.68829 -0.42925 0
M  V30 13936 C 1317.27 -3.3298 -0.730553 0
M  V30 13937 H 1318.47 -2.82529 1.00585 0
M  V30 13938 H 1316.02 -1.45946 0.559406 0
M  V30 13939 H 1316.75 -2.8398 -1.56608 0
M  V30 13940 H 1316.54 -3.91787 -0.156706 0
M  V30 13941 H 1318.03 -4.01684 -1.14192 0
M  V30 13942 N 1318.47 -0.542005 -1.47987 0
M  V30 13943 C 1319.71 -0.0122873 -2.02096 0
M  V30 13944 C 1320.03 1.3362 -1.42024 0
M  V30 13945 O 1319.3 1.86807 -0.589911 0
M  V30 13946 H 1317.88 -0.00155365 -0.746998 0
M  V30 13947 H 1320.55 -0.708566 -1.81564 0
M  V30 13948 H 1319.64 0.0871275 -3.11978 0
M  V30 13949 N 1319.94 1.55134 -0.277709 0
M  V30 13950 C 1321.17 2.04061 0.341601 0
M  V30 13951 C 1321.59 1.15597 1.49274 0
M  V30 13952 O 1320.94 0.176625 1.81643 0
M  V30 13953 C 1320.99 3.52074 0.820139 0
M  V30 13954 O 1320.72 4.37171 -0.28516 0
M  V30 13955 C 1322.22 4.16899 1.507 0
M  V30 13956 H 1319.44 0.666501 0.0775708 0
M  V30 13957 H 1321.98 2.00336 -0.410559 0
M  V30 13958 H 1320.14 3.56233 1.52238 0
M  V30 13959 H 1320.55 5.24434 0.0832022 0
M  V30 13960 H 1322.02 5.22061 1.79323 0
M  V30 13961 H 1322.5 3.65227 2.43939 0
M  V30 13962 H 1323.11 4.16749 0.848541 0
M  V30 13963 N 1321.42 0.00503138 1.57599 0
M  V30 13964 C 1322.67 -0.677979 1.89964 0
M  V30 13965 C 1322.98 -1.74657 0.88059 0
M  V30 13966 O 1324.19 -2.48455 1.09463 0
M  V30 13967 C 1322.65 -1.25708 3.37232 0
M  V30 13968 C 1322.25 -0.223045 4.47444 0
M  V30 13969 C 1324 -1.91799 3.787 0
M  V30 13970 C 1321.9 -0.812416 5.85793 0
M  V30 13971 H 1320.83 -0.256991 0.708852 0
M  V30 13972 H 1323.49 0.0663988 1.8338 0
M  V30 13973 H 1321.87 -2.05228 3.3867 0
M  V30 13974 H 1323.04 0.54794 4.57531 0
M  V30 13975 H 1321.36 0.337714 4.15028 0
M  V30 13976 H 1323.95 -2.36808 4.79402 0
M  V30 13977 H 1324.3 -2.75067 3.1248 0
M  V30 13978 H 1324.83 -1.19004 3.79583 0
M  V30 13979 H 1321.57 -0.0184031 6.55497 0
M  V30 13980 H 1321.09 -1.55244 5.79361 0
M  V30 13981 H 1322.77 -1.30952 6.33609 0
M  V30 13982 N 1322.9 -1.55308 -0.267798 0
M  V30 13983 C 1324.12 -1.80524 -1.02107 0
M  V30 13984 C 1324.55 -0.579268 -1.78958 0
M  V30 13985 O 1323.91 0.471262 -1.75068 0
M  V30 13986 C 1323.96 -3.03248 -1.95123 0
M  V30 13987 O 1323.06 -2.78699 -3.03975 0
M  V30 13988 H 1322.4 -0.596518 -0.291655 0
M  V30 13989 H 1324.93 -2.0246 -0.295128 0
M  V30 13990 H 1324.94 -3.32121 -2.3698 0
M  V30 13991 H 1323.62 -3.92126 -1.386 0
M  V30 13992 H 1322.19 -2.60936 -2.66396 0
M  V30 13993 N 1324.38 0.532545 -1.4833 0
M  V30 13994 C 1325.79 1.11451 -1.49785 0
M  V30 13995 C 1326.14 1.94386 -0.266207 0
M  V30 13996 O 1325.26 2.07121 0.62688 0
M  V30 13997 C 1325.86 2.0279 -2.71407 0
M  V30 13998 C 1324.42 2.56209 -2.75742 0
M  V30 13999 C 1323.57 1.33114 -2.43261 0
M  V30 14000 H 1326.52 0.317924 -1.55483 0
M  V30 14001 H 1326.54 2.87038 -2.49779 0
M  V30 14002 H 1326.05 1.42401 -3.61031 0
M  V30 14003 H 1324.15 3.20327 -1.9032 0
M  V30 14004 H 1324.26 2.95518 -3.77102 0
M  V30 14005 H 1322.63 1.64607 -1.94362 0
M  V30 14006 H 1323.41 0.744809 -3.35123 0
M  V30 14007 N 1325.86 1.36875 0.78122 0
M  V30 14008 C 1327.08 1.34732 1.57019 0
M  V30 14009 C 1327.5 -0.0695423 1.88672 0
M  V30 14010 O 1326.86 -1.02873 1.50743 0
M  V30 14011 C 1326.91 2.17668 2.88623 0
M  V30 14012 O 1326.63 3.53832 2.5833 0
M  V30 14013 C 1328.13 2.23398 3.82895 0
M  V30 14014 H 1325.35 0.461857 0.486754 0
M  V30 14015 H 1327.89 1.80086 0.968989 0
M  V30 14016 H 1326.05 1.75848 3.4519 0
M  V30 14017 H 1326.46 3.972 3.42538 0
M  V30 14018 H 1327.94 2.85769 4.72271 0
M  V30 14019 H 1328.41 1.23972 4.2134 0
M  V30 14020 H 1329.02 2.65489 3.32258 0
M  V30 14021 N 1327.33 -1.00632 1.21289 0
M  V30 14022 C 1328.56 -1.78503 1.05601 0
M  V30 14023 C 1328.98 -1.84015 -0.389879 0
M  V30 14024 O 1328.34 -1.28277 -1.2812 0
M  V30 14025 C 1328.39 -3.20313 1.65626 0
M  V30 14026 O 1327.49 -4.02441 0.900841 0
M  V30 14027 H 1326.83 -0.550183 0.371746 0
M  V30 14028 H 1329.36 -1.26505 1.60803 0
M  V30 14029 H 1329.37 -3.70992 1.69792 0
M  V30 14030 H 1328.05 -3.15616 2.7085 0
M  V30 14031 H 1326.63 -3.61009 0.934178 0
M  V30 14032 N 1328.81 -1.02043 -1.20104 0
M  V30 14033 C 1330.04 -0.731142 -1.94085 0
M  V30 14034 C 1330.46 0.702467 -1.74491 0
M  V30 14035 O 1329.82 1.48387 -1.04168 0
M  V30 14036 C 1329.87 -1.07691 -3.44144 0
M  V30 14037 O 1328.97 -0.190751 -4.11959 0
M  V30 14038 H 1328.31 -0.270917 -0.606218 0
M  V30 14039 H 1330.84 -1.36483 -1.52426 0
M  V30 14040 H 1330.85 -1.03023 -3.94779 0
M  V30 14041 H 1329.53 -2.1214 -3.57728 0
M  V30 14042 H 1328.1 -0.29529 -3.71729 0
M  V30 14043 N 1330.29 1.35952 -0.797165 0
M  V30 14044 C 1331.22 2.32506 -0.215277 0
M  V30 14045 C 1332.2 1.57023 0.654046 0
M  V30 14046 O 1333.39 1.85139 0.586268 0
M  V30 14047 C 1330.52 3.41266 0.644557 0
M  V30 14048 C 1329.47 4.27816 -0.125501 0
M  V30 14049 C 1328.8 5.27813 0.855428 0
M  V30 14050 C 1330.1 5.05367 -1.31913 0
M  V30 14051 H 1331.79 2.8142 -1.02193 0
M  V30 14052 H 1329.34 1.35303 -0.492862 0
M  V30 14053 H 1331.29 4.07808 1.06163 0
M  V30 14054 H 1330.01 2.90938 1.484 0
M  V30 14055 H 1328.67 3.62841 -0.523639 0
M  V30 14056 H 1328.32 4.73755 1.69011 0
M  V30 14057 H 1328.02 5.86589 0.344566 0
M  V30 14058 H 1329.54 5.97227 1.2709 0
M  V30 14059 H 1330.96 5.64907 -0.977418 0
M  V30 14060 H 1329.36 5.73593 -1.76382 0
M  V30 14061 H 1330.43 4.36558 -2.11057 0
M  V30 14062 N 1331.77 0.549846 1.47697 0
M  V30 14063 C 1332.68 -0.205286 2.337 0
M  V30 14064 C 1333.69 -0.919271 1.47734 0
M  V30 14065 O 1334.87 -0.889808 1.80678 0
M  V30 14066 C 1331.94 -1.22658 3.24278 0
M  V30 14067 C 1331 -0.520815 4.26129 0
M  V30 14068 C 1330.23 -1.49345 5.12378 0
M  V30 14069 O 1330.45 -2.72772 5.00951 0
M  V30 14070 O 1329.39 -1.02197 5.93161 0
M  V30 14071 H 1333.21 0.499982 2.99556 0
M  V30 14072 H 1330.8 0.310538 1.46137 0
M  V30 14073 H 1332.68 -1.8163 3.80248 0
M  V30 14074 H 1331.35 -1.9139 2.61059 0
M  V30 14075 H 1330.26 0.109906 3.73939 0
M  V30 14076 H 1331.59 0.124922 4.92041 0
M  V30 14077 N 1333.25 -1.54984 0.285932 0
M  V30 14078 C 1334.16 -2.26621 -0.606648 0
M  V30 14079 C 1335.17 -1.29595 -1.16108 0
M  V30 14080 O 1336.35 -1.62551 -1.18908 0
M  V30 14081 C 1333.41 -2.98156 -1.76929 0
M  V30 14082 C 1332.47 -4.10685 -1.25045 0
M  V30 14083 C 1331.71 -4.788 -2.35768 0
M  V30 14084 O 1331.93 -4.46183 -3.55354 0
M  V30 14085 O 1330.86 -5.66523 -2.03312 0
M  V30 14086 H 1334.69 -3.03689 -0.0259981 0
M  V30 14087 H 1332.28 -1.49306 0.0529355 0
M  V30 14088 H 1334.16 -3.43076 -2.44697 0
M  V30 14089 H 1332.83 -2.23996 -2.33683 0
M  V30 14090 H 1331.74 -3.70198 -0.538919 0
M  V30 14091 H 1333.07 -4.86778 -0.728528 0
M  V30 14092 N 1334.72 -0.0133892 -1.57594 0
M  V30 14093 C 1336 0.706416 -1.82398 0
M  V30 14094 C 1336.38 1.91236 -0.893983 0
M  V30 14095 O 1335.73 2.28436 0.0541675 0
M  V30 14096 C 1335.94 1.09951 -3.31228 0
M  V30 14097 C 1337.29 1.49776 -3.97306 0
M  V30 14098 O 1338.31 1.19293 -3.3563 0
M  V30 14099 O 1337.17 2.06511 -5.0598 0
M  V30 14100 H 1334.26 0.345131 -0.751541 0
M  V30 14101 H 1336.81 -0.0398687 -1.69653 0
M  V30 14102 H 1335.58 0.240514 -3.9056 0
M  V30 14103 H 1335.21 1.90447 -3.49021 0
M  V30 14104 N 1336.2 1.55448 0.259558 0
M  V30 14105 C 1337.15 1.89248 1.32113 0
M  V30 14106 C 1338.12 0.745348 1.48438 0
M  V30 14107 O 1339.3 0.997854 1.62627 0
M  V30 14108 C 1336.44 2.18161 2.67394 0
M  V30 14109 C 1335.56 3.45614 2.59182 0
M  V30 14110 C 1334.69 3.6416 3.86731 0
M  V30 14111 C 1333.73 4.85258 3.73084 0
M  V30 14112 N 1332.87 5.00391 4.92497 0
M  V30 14113 H 1337.71 2.79785 1.02589 0
M  V30 14114 H 1335.25 1.38509 0.495338 0
M  V30 14115 H 1337.2 2.32927 3.46122 0
M  V30 14116 H 1335.83 1.30843 2.95093 0
M  V30 14117 H 1334.89 3.39248 1.72091 0
M  V30 14118 H 1336.2 4.34483 2.45002 0
M  V30 14119 H 1335.35 3.78817 4.73902 0
M  V30 14120 H 1334.09 2.73501 4.03793 0
M  V30 14121 H 1333.1 4.70591 2.84296 0
M  V30 14122 H 1334.32 5.77365 3.57528 0
M  V30 14123 H 1332.27 4.12666 5.09944 0
M  V30 14124 H 1332.18 5.83328 4.809 0
M  V30 14125 H 1333.45 5.19446 5.81202 0
M  V30 14126 N 1337.68 -0.524672 1.4861 0
M  V30 14127 C 1338.93 -1.27768 1.56588 0
M  V30 14128 C 1339.25 -1.93469 0.243899 0
M  V30 14129 O 1338.52 -1.8159 -0.734985 0
M  V30 14130 H 1337.1 -0.474566 0.576885 0
M  V30 14131 H 1339.76 -0.610114 1.85104 0
M  V30 14132 H 1338.86 -2.05416 2.34969 0
M  V30 14133 N 1339.16 -1.37287 -0.77395 0
M  V30 14134 C 1340.41 -1.32374 -1.53243 0
M  V30 14135 C 1340.73 0.0924284 -1.9428 0
M  V30 14136 O 1339.99 1.06517 -1.64173 0
M  V30 14137 C 1340.29 -2.20667 -2.81142 0
M  V30 14138 C 1339.95 -3.68975 -2.59168 0
M  V30 14139 C 1338.62 -4.09394 -2.52884 0
M  V30 14140 C 1340.97 -4.62941 -2.39447 0
M  V30 14141 C 1338.3 -5.41897 -2.24865 0
M  V30 14142 C 1340.65 -5.9568 -2.12952 0
M  V30 14143 C 1339.31 -6.35205 -2.05111 0
M  V30 14144 H 1338.58 -0.48439 -0.560756 0
M  V30 14145 H 1341.23 -1.69475 -0.891663 0
M  V30 14146 H 1339.53 -1.76553 -3.49766 0
M  V30 14147 H 1341.23 -2.1418 -3.3901 0
M  V30 14148 H 1337.82 -3.36919 -2.64922 0
M  V30 14149 H 1342 -4.32576 -2.43293 0
M  V30 14150 H 1337.26 -5.71486 -2.17288 0
M  V30 14151 H 1341.43 -6.68046 -1.9669 0
M  V30 14152 H 1339.06 -7.37804 -1.83163 0
M  V30 14153 N 1340.64 0.999871 -1.21821 0
M  V30 14154 C 1341.58 2.08864 -0.98206 0
M  V30 14155 C 1342.55 1.65835 0.0937677 0
M  V30 14156 O 1343.74 1.90722 -0.0544038 0
M  V30 14157 C 1340.88 3.40553 -0.558382 0
M  V30 14158 C 1339.99 3.96964 -1.70422 0
M  V30 14159 C 1339.13 5.16782 -1.2292 0
M  V30 14160 C 1338.17 5.65315 -2.34703 0
M  V30 14161 N 1337.3 6.76379 -1.88299 0
M  V30 14162 H 1342.14 2.28399 -1.9141 0
M  V30 14163 H 1339.68 1.11984 -0.953837 0
M  V30 14164 H 1341.64 4.16163 -0.293955 0
M  V30 14165 H 1340.27 3.2104 0.336656 0
M  V30 14166 H 1339.32 3.18291 -2.08315 0
M  V30 14167 H 1340.63 4.2897 -2.54531 0
M  V30 14168 H 1339.79 5.99657 -0.92174 0
M  V30 14169 H 1338.52 4.86383 -0.358222 0
M  V30 14170 H 1337.53 4.81033 -2.66246 0
M  V30 14171 H 1338.75 5.97742 -3.22306 0
M  V30 14172 H 1336.7 6.47775 -1.03552 0
M  V30 14173 H 1336.62 7.07666 -2.65978 0
M  V30 14174 H 1337.89 7.62776 -1.60601 0
M  V30 14175 N 1342.11 1.02678 1.19562 0
M  V30 14176 C 1343.34 0.741424 1.93695 0
M  V30 14177 C 1343.76 -0.693203 1.74861 0
M  V30 14178 O 1343.12 -1.47833 1.04953 0
M  V30 14179 C 1343.17 1.09514 3.43568 0
M  V30 14180 O 1342.27 0.212596 4.11852 0
M  V30 14181 H 1341.62 0.274128 0.604773 0
M  V30 14182 H 1344.15 1.37289 1.517 0
M  V30 14183 H 1344.16 1.05115 3.94227 0
M  V30 14184 H 1342.83 2.14034 3.56598 0
M  V30 14185 H 1341.41 0.315 3.71567 0
M  V30 14186 N 1343.59 -1.35528 0.804364 0
M  V30 14187 C 1345 -1.81321 0.444933 0
M  V30 14188 C 1345.35 -1.66816 -1.03281 0
M  V30 14189 O 1344.48 -1.19753 -1.80245 0
M  V30 14190 C 1345.07 -3.29199 0.800827 0
M  V30 14191 C 1343.63 -3.73144 0.494026 0
M  V30 14192 C 1342.78 -2.57557 1.02761 0
M  V30 14193 H 1345.73 -1.23537 0.996203 0
M  V30 14194 H 1345.75 -3.80375 0.0975117 0
M  V30 14195 H 1345.26 -3.39725 1.8764 0
M  V30 14196 H 1343.37 -3.68169 -0.572901 0
M  V30 14197 H 1343.48 -4.68005 1.0251 0
M  V30 14198 H 1341.84 -2.50692 0.450048 0
M  V30 14199 H 1342.63 -2.70861 2.10925 0
M  V30 14200 N 1345.07 -0.557671 -1.47404 0
M  V30 14201 C 1346.48 -0.124411 -1.86285 0
M  V30 14202 C 1346.83 1.30593 -1.46424 0
M  V30 14203 O 1345.96 1.9825 -0.867515 0
M  V30 14204 C 1346.55 -0.219005 -3.38091 0
M  V30 14205 C 1345.11 0.159221 -3.76063 0
M  V30 14206 C 1344.26 -0.566355 -2.71455 0
M  V30 14207 H 1347.21 -0.767367 -1.38914 0
M  V30 14208 H 1347.23 0.562267 -3.76323 0
M  V30 14209 H 1346.74 -1.26013 -3.67073 0
M  V30 14210 H 1344.84 1.20144 -3.52698 0
M  V30 14211 H 1344.96 -0.199662 -4.78684 0
M  V30 14212 H 1343.32 -0.00938921 -2.54698 0
M  V30 14213 H 1344.1 -1.60865 -3.03278 0
M  V30 14214 N 1346.55 1.54831 -0.294147 0
M  V30 14215 C 1347.79 2.0191 0.318092 0
M  V30 14216 C 1348.15 1.178 1.51615 0
M  V30 14217 O 1349.35 1.54546 2.1993 0
M  V30 14218 C 1347.63 3.51018 0.672375 0
M  V30 14219 S 1349.18 4.20066 1.26845 0
M  V30 14220 H 1346 0.704215 0.0979881 0
M  V30 14221 H 1348.6 1.90926 -0.420422 0
M  V30 14222 H 1347.31 4.09872 -0.208159 0
M  V30 14223 H 1346.84 3.66025 1.44186 0
M  V30 14224 H 1348.85 4.25274 2.55649 0
M  V30 14225 N 1348.03 0.0217466 1.57585 0
M  V30 14226 C 1348.94 -0.978407 2.13224 0
M  V30 14227 C 1349.95 -1.36212 1.08269 0
M  V30 14228 O 1351.13 -1.44504 1.40288 0
M  V30 14229 C 1348.19 -2.24462 2.6423 0
M  V30 14230 C 1347.26 -1.92201 3.83871 0
M  V30 14231 C 1346.49 -3.12786 4.32436 0
M  V30 14232 O 1346.71 -4.25201 3.8021 0
M  V30 14233 O 1345.65 -2.95514 5.24362 0
M  V30 14234 H 1349.47 -0.535347 2.98944 0
M  V30 14235 H 1347.06 -0.198414 1.48077 0
M  V30 14236 H 1348.94 -2.98809 2.97138 0
M  V30 14237 H 1347.61 -2.67964 1.81596 0
M  V30 14238 H 1346.52 -1.15262 3.55901 0
M  V30 14239 H 1347.85 -1.53521 4.67645 0
M  V30 14240 N 1349.51 -1.55583 -0.251311 0
M  V30 14241 C 1350.78 -1.67954 -1.00254 0
M  V30 14242 C 1351.16 -0.560326 -2.03528 0
M  V30 14243 O 1350.51 0.436811 -2.24286 0
M  V30 14244 C 1350.72 -3.08075 -1.63985 0
M  V30 14245 C 1352.07 -3.66531 -2.14336 0
M  V30 14246 O 1353.09 -3.10846 -1.73934 0
M  V30 14247 O 1351.95 -4.64141 -2.88506 0
M  V30 14248 H 1349.05 -0.682952 -0.466375 0
M  V30 14249 H 1351.59 -1.67916 -0.245447 0
M  V30 14250 H 1350.36 -3.80983 -0.892627 0
M  V30 14251 H 1349.99 -3.12105 -2.46325 0
M  V30 14252 N 1350.98 0.516783 -1.48886 0
M  V30 14253 C 1352.23 1.27187 -1.57574 0
M  V30 14254 C 1352.56 1.92815 -0.255432 0
M  V30 14255 O 1351.81 1.80533 0.755403 0
M  V30 14256 C 1352.11 2.37296 -2.67256 0
M  V30 14257 C 1351.78 1.89232 -4.0927 0
M  V30 14258 C 1350.44 1.75842 -4.47921 0
M  V30 14259 C 1352.79 1.53073 -4.98215 0
M  V30 14260 C 1350.12 1.24648 -5.73306 0
M  V30 14261 C 1352.47 1.03337 -6.24103 0
M  V30 14262 C 1351.14 0.885744 -6.61597 0
M  V30 14263 H 1350.41 0.46541 -0.576606 0
M  V30 14264 H 1353.05 0.575223 -1.82657 0
M  V30 14265 H 1351.36 3.12685 -2.36084 0
M  V30 14266 H 1353.06 2.95393 -2.7119 0
M  V30 14267 H 1349.65 2.00608 -3.78754 0
M  V30 14268 H 1353.83 1.62272 -4.69022 0
M  V30 14269 H 1349.09 1.11917 -6.0107 0
M  V30 14270 H 1353.26 0.744338 -6.92411 0
M  V30 14271 H 1350.89 0.486866 -7.58639 0
M  V30 14272 N 1352.46 1.37696 0.766659 0
M  V30 14273 C 1353.69 1.36564 1.56093 0
M  V30 14274 C 1354.11 -0.0455828 1.88045 0
M  V30 14275 O 1353.47 -1.02405 1.49609 0
M  V30 14276 C 1353.52 2.21592 2.84481 0
M  V30 14277 O 1352.62 1.62404 3.79076 0
M  V30 14278 H 1351.96 0.466394 0.472623 0
M  V30 14279 H 1354.49 1.81287 0.948486 0
M  V30 14280 H 1354.5 2.34987 3.33534 0
M  V30 14281 H 1353.18 3.24167 2.60554 0
M  V30 14282 H 1351.75 1.58078 3.37736 0
M  V30 14283 N 1353.94 -0.993397 1.22349 0
M  V30 14284 C 1355.19 -1.73544 1.04931 0
M  V30 14285 C 1355.52 -1.89721 -0.414661 0
M  V30 14286 O 1354.79 -1.44001 -1.30743 0
M  V30 14287 C 1355.08 -3.14131 1.7605 0
M  V30 14288 C 1354.93 -3.05604 3.30039 0
M  V30 14289 C 1356.25 -4.13294 1.51249 0
M  V30 14290 H 1353.37 -0.629915 0.382591 0
M  V30 14291 H 1356.01 -1.15737 1.50682 0
M  V30 14292 H 1354.16 -3.63483 1.37157 0
M  V30 14293 H 1355.83 -2.63876 3.78374 0
M  V30 14294 H 1354.07 -2.42421 3.59742 0
M  V30 14295 H 1354.75 -4.05086 3.74979 0
M  V30 14296 H 1357.22 -3.72696 1.85033 0
M  V30 14297 H 1356.1 -5.09781 2.03507 0
M  V30 14298 H 1356.36 -4.39855 0.444973 0
M  V30 14299 N 1355.42 -1.03311 -1.19015 0
M  V30 14300 C 1356.65 -0.751802 -1.92758 0
M  V30 14301 C 1357.06 0.689982 -1.7574 0
M  V30 14302 O 1356.42 1.46961 -1.08207 0
M  V30 14303 C 1356.47 -1.09892 -3.44392 0
M  V30 14304 O 1356.19 -2.48409 -3.60866 0
M  V30 14305 C 1357.69 -0.841029 -4.35249 0
M  V30 14306 H 1354.91 -0.274757 -0.612168 0
M  V30 14307 H 1357.45 -1.37873 -1.51034 0
M  V30 14308 H 1355.61 -0.517092 -3.83933 0
M  V30 14309 H 1356.02 -2.61468 -4.54681 0
M  V30 14310 H 1357.5 -1.13383 -5.4023 0
M  V30 14311 H 1357.97 0.224434 -4.38626 0
M  V30 14312 H 1358.58 -1.40579 -4.01395 0
M  V30 14313 N 1356.9 1.35099 -0.81154 0
M  V30 14314 C 1358.14 1.98233 -0.393453 0
M  V30 14315 C 1358.46 1.64688 1.04417 0
M  V30 14316 O 1357.73 0.931845 1.72318 0
M  V30 14317 H 1356.31 0.733283 -0.142496 0
M  V30 14318 H 1358.98 1.6493 -1.03847 0
M  V30 14319 H 1358.07 3.08017 -0.503188 0
M  V30 14320 N 1358.37 0.56548 1.47106 0
M  V30 14321 C 1359.28 -0.180488 2.33905 0
M  V30 14322 C 1360.3 -0.90355 1.48701 0
M  V30 14323 O 1361.48 -0.870595 1.81611 0
M  V30 14324 C 1358.54 -1.19212 3.2556 0
M  V30 14325 C 1357.6 -0.475589 4.26658 0
M  V30 14326 C 1356.83 -1.43902 5.13934 0
M  V30 14327 O 1357.06 -2.67443 5.03816 0
M  V30 14328 O 1355.99 -0.958998 5.94211 0
M  V30 14329 H 1359.82 0.531726 2.99009 0
M  V30 14330 H 1357.4 0.32602 1.45799 0
M  V30 14331 H 1359.28 -1.77586 3.82153 0
M  V30 14332 H 1357.96 -1.8861 2.63074 0
M  V30 14333 H 1356.87 0.149561 3.73801 0
M  V30 14334 H 1358.2 0.177103 4.91881 0
M  V30 14335 N 1359.85 -1.54672 0.302354 0
M  V30 14336 C 1361.08 -2.05041 -0.311891 0
M  V30 14337 C 1361.5 -1.17814 -1.46634 0
M  V30 14338 O 1360.86 -0.182517 -1.80379 0
M  V30 14339 C 1360.91 -3.52831 -0.744489 0
M  V30 14340 O 1360.01 -3.68621 -1.84913 0
M  V30 14341 H 1359.35 -0.661255 -0.0603102 0
M  V30 14342 H 1361.88 -1.99711 0.444593 0
M  V30 14343 H 1361.89 -3.94708 -1.03293 0
M  V30 14344 H 1360.57 -4.1578 0.0999976 0
M  V30 14345 H 1359.15 -3.38649 -1.56113 0
M  V30 14346 N 1361.33 -0.0301034 -1.57571 0
M  V30 14347 C 1362.24 0.967086 -2.1374 0
M  V30 14348 C 1363.26 1.35636 -1.0899 0
M  V30 14349 O 1364.43 1.43758 -1.41052 0
M  V30 14350 C 1361.5 2.23058 -2.65417 0
M  V30 14351 C 1360.56 1.90163 -3.84885 0
M  V30 14352 C 1359.79 3.10488 -4.34088 0
M  V30 14353 O 1360.01 4.23179 -3.8246 0
M  V30 14354 O 1358.95 2.92729 -5.25921 0
M  V30 14355 H 1362.77 0.519486 -2.99224 0
M  V30 14356 H 1360.36 0.190559 -1.4818 0
M  V30 14357 H 1362.24 2.97229 -2.98719 0
M  V30 14358 H 1360.92 2.66997 -1.83015 0
M  V30 14359 H 1359.82 1.13373 -3.56507 0
M  V30 14360 H 1361.16 1.51039 -4.68453 0
M  V30 14361 N 1362.81 1.55714 0.243056 0
M  V30 14362 C 1363.76 1.90638 1.30099 0
M  V30 14363 C 1364.73 0.761049 1.47639 0
M  V30 14364 O 1365.91 1.01505 1.61559 0
M  V30 14365 C 1363.05 2.20985 2.65065 0
M  V30 14366 C 1362.16 3.48343 2.55501 0
M  V30 14367 C 1361.3 3.68241 3.82847 0
M  V30 14368 C 1360.34 4.89187 3.67916 0
M  V30 14369 N 1359.47 5.05586 4.87162 0
M  V30 14370 H 1364.31 2.80857 0.996155 0
M  V30 14371 H 1361.85 1.39027 0.480619 0
M  V30 14372 H 1363.81 2.36585 3.43632 0
M  V30 14373 H 1362.44 1.33966 2.93689 0
M  V30 14374 H 1361.49 3.41054 1.68483 0
M  V30 14375 H 1362.8 4.37057 2.4038 0
M  V30 14376 H 1361.96 3.83822 4.69857 0
M  V30 14377 H 1360.7 2.77768 4.00869 0
M  V30 14378 H 1359.7 4.7358 2.79289 0
M  V30 14379 H 1360.93 5.81124 3.51385 0
M  V30 14380 H 1358.87 4.18051 5.05538 0
M  V30 14381 H 1358.79 5.88395 4.74686 0
M  V30 14382 H 1360.06 5.25582 5.7566 0
M  V30 14383 N 1364.29 -0.50888 1.49158 0
M  V30 14384 C 1365.7 -0.839353 1.35746 0
M  V30 14385 C 1365.9 -1.97797 0.38453 0
M  V30 14386 O 1364.96 -2.51809 -0.186651 0
M  V30 14387 C 1366.27 -1.18698 2.76281 0
M  V30 14388 C 1367.82 -1.29565 2.84924 0
M  V30 14389 C 1368.29 -1.67661 4.26209 0
M  V30 14390 N 1369.79 -1.74725 4.28982 0
M  V30 14391 C 1370.52 -2.05631 5.3526 0
M  V30 14392 N 1370.02 -2.34814 6.51793 0
M  V30 14393 N 1371.81 -2.06815 5.2267 0
M  V30 14394 H 1363.96 0.242065 2.11016 0
M  V30 14395 H 1366.22 0.0456901 0.946898 0
M  V30 14396 H 1365.93 -0.423769 3.49138 0
M  V30 14397 H 1365.8 -2.13227 3.11149 0
M  V30 14398 H 1368.19 -2.0496 2.1231 0
M  V30 14399 H 1368.27 -0.331059 2.53649 0
M  V30 14400 H 1367.92 -0.928198 4.99346 0
M  V30 14401 H 1367.85 -2.65207 4.54943 0
M  V30 14402 H 1370.34 -1.54364 3.44935 0
M  V30 14403 H 1370.65 -2.57562 7.28616 0
M  V30 14404 H 1368.99 -2.32288 6.55032 0
M  V30 14405 H 1372.19 -1.83487 4.30639 0
M  V30 14406 H 1372.36 -2.30568 6.05593 0
M  V30 14407 N 1365.76 -1.381 -0.759346 0
M  V30 14408 C 1367.01 -1.33727 -1.5153 0
M  V30 14409 C 1367.33 0.0739504 -1.9486 0
M  V30 14410 O 1366.6 1.02049 -1.67221 0
M  V30 14411 H 1365.18 -0.492037 -0.562058 0
M  V30 14412 H 1367.85 -1.72719 -0.902995 0
M  V30 14413 H 1366.94 -1.98439 -2.40891 0
M  V30 14414 N 1367.24 0.986894 -1.22875 0
M  V30 14415 C 1368.15 2.11232 -1.02069 0
M  V30 14416 C 1369.17 1.73969 0.0328424 0
M  V30 14417 O 1370.34 2.00754 -0.161197 0
M  V30 14418 C 1367.41 3.41337 -0.60747 0
M  V30 14419 C 1366.47 3.92665 -1.73531 0
M  V30 14420 C 1365.7 5.1656 -1.34171 0
M  V30 14421 O 1365.93 5.69964 -0.223106 0
M  V30 14422 O 1364.86 5.61791 -2.16041 0
M  V30 14423 H 1368.69 2.3167 -1.96374 0
M  V30 14424 H 1366.27 1.09607 -1.01522 0
M  V30 14425 H 1368.15 4.19613 -0.387661 0
M  V30 14426 H 1366.83 3.22244 0.306653 0
M  V30 14427 H 1365.74 3.15534 -2.0097 0
M  V30 14428 H 1367.07 4.162 -2.62751 0
M  V30 14429 N 1368.72 1.0394 1.18466 0
M  V30 14430 C 1369.97 0.737233 1.87744 0
M  V30 14431 C 1370.28 -0.737891 1.81148 0
M  V30 14432 O 1371.49 -1.15353 2.45776 0
M  V30 14433 C 1369.94 1.26844 3.36806 0
M  V30 14434 C 1369.55 2.7721 3.51935 0
M  V30 14435 C 1371.3 1.04274 4.11494 0
M  V30 14436 C 1369.2 3.23696 4.9495 0
M  V30 14437 H 1368.13 0.272082 0.703198 0
M  V30 14438 H 1370.78 1.25507 1.33866 0
M  V30 14439 H 1369.17 0.67847 3.90145 0
M  V30 14440 H 1370.34 3.41954 3.08875 0
M  V30 14441 H 1368.66 2.98179 2.90652 0
M  V30 14442 H 1371.25 1.3652 5.16978 0
M  V30 14443 H 1371.6 -0.0200645 4.16295 0
M  V30 14444 H 1372.13 1.59726 3.64325 0
M  V30 14445 H 1368.87 4.29351 4.95316 0
M  V30 14446 H 1368.39 2.63687 5.38729 0
M  V30 14447 H 1370.07 3.17645 5.63658 0
M  V30 14448 N 1370.2 -1.34667 0.818693 0
M  V30 14449 C 1371.45 -1.9767 0.401184 0
M  V30 14450 C 1371.76 -1.65644 -1.04027 0
M  V30 14451 O 1372.97 -2.22104 -1.56148 0
M  V30 14452 C 1371.42 -3.53677 0.666398 0
M  V30 14453 C 1371.03 -3.94601 2.12119 0
M  V30 14454 C 1372.77 -4.23331 0.314845 0
M  V30 14455 C 1370.68 -5.43502 2.33151 0
M  V30 14456 H 1369.61 -0.739675 0.146275 0
M  V30 14457 H 1372.26 -1.53568 1.00445 0
M  V30 14458 H 1370.64 -3.95999 -0.00698307 0
M  V30 14459 H 1371.82 -3.63396 2.83338 0
M  V30 14460 H 1370.13 -3.37871 2.43377 0
M  V30 14461 H 1372.73 -5.32804 0.449881 0
M  V30 14462 H 1373.07 -4.09666 -0.740235 0
M  V30 14463 H 1373.61 -3.8647 0.942631 0
M  V30 14464 H 1370.35 -5.62148 3.37149 0
M  V30 14465 H 1369.87 -5.76236 1.66471 0
M  V30 14466 H 1371.54 -6.10127 2.153 0
M  V30 14467 N 1371.68 -0.573274 -1.46804 0
M  V30 14468 C 1372.92 -0.0551522 -2.02025 0
M  V30 14469 C 1373.25 1.30577 -1.44826 0
M  V30 14470 O 1372.52 1.85514 -0.629403 0
M  V30 14471 H 1371.1 -0.0173982 -0.746797 0
M  V30 14472 H 1373.76 -0.746919 -1.8002 0
M  V30 14473 H 1372.85 0.0209326 -3.12093 0
M  V30 14474 N 1373.15 1.5451 -0.310553 0
M  V30 14475 C 1374.1 2.23871 0.561277 0
M  V30 14476 C 1375.07 1.22475 1.12202 0
M  V30 14477 O 1376.26 1.51121 1.16477 0
M  V30 14478 C 1373.4 2.99029 1.72267 0
M  V30 14479 C 1372.51 4.15218 1.19241 0
M  V30 14480 C 1371.64 4.77935 2.31843 0
M  V30 14481 C 1370.68 5.86251 1.75999 0
M  V30 14482 N 1369.82 6.42885 2.82212 0
M  V30 14483 H 1374.66 2.97977 -0.0367998 0
M  V30 14484 H 1372.2 1.4707 -0.0299317 0
M  V30 14485 H 1374.16 3.40842 2.40588 0
M  V30 14486 H 1372.79 2.27281 2.29223 0
M  V30 14487 H 1371.84 3.78279 0.401148 0
M  V30 14488 H 1373.15 4.93225 0.743675 0
M  V30 14489 H 1372.3 5.2265 3.08094 0
M  V30 14490 H 1371.04 3.99281 2.80047 0
M  V30 14491 H 1370.05 5.40952 0.982415 0
M  V30 14492 H 1371.27 6.66795 1.28688 0
M  V30 14493 H 1369.22 5.67109 3.29732 0
M  V30 14494 H 1369.14 7.16267 2.41864 0
M  V30 14495 H 1370.4 6.92256 3.58332 0
M  V30 14496 N 1374.63 0.0384594 1.57553 0
M  V30 14497 C 1375.88 -0.636879 1.91803 0
M  V30 14498 C 1376.2 -1.72128 0.916347 0
M  V30 14499 O 1375.47 -1.95858 -0.0407405 0
M  V30 14500 H 1374.05 -0.238237 0.707992 0
M  V30 14501 H 1376.71 0.0884651 1.94699 0
M  V30 14502 H 1375.81 -1.08364 2.92683 0
M  V30 14503 N 1376.11 -1.55841 -0.234795 0
M  V30 14504 C 1377.04 -1.94344 -1.29432 0
M  V30 14505 C 1378.02 -0.809912 -1.49581 0
M  V30 14506 O 1379.21 -1.07117 -1.61986 0
M  V30 14507 C 1376.34 -2.24866 -2.64675 0
M  V30 14508 C 1375.29 -3.40584 -2.59203 0
M  V30 14509 C 1374.62 -3.56678 -3.98353 0
M  V30 14510 C 1375.92 -4.75935 -2.15135 0
M  V30 14511 H 1377.61 -2.83096 -0.97454 0
M  V30 14512 H 1375.16 -1.36205 -0.467355 0
M  V30 14513 H 1377.11 -2.50392 -3.38942 0
M  V30 14514 H 1375.83 -1.32953 -2.98314 0
M  V30 14515 H 1374.49 -3.15087 -1.87393 0
M  V30 14516 H 1374.14 -2.62164 -4.29277 0
M  V30 14517 H 1373.84 -4.34503 -3.95577 0
M  V30 14518 H 1375.37 -3.84538 -4.74302 0
M  V30 14519 H 1376.78 -5.00753 -2.7914 0
M  V30 14520 H 1375.18 -5.56949 -2.23446 0
M  V30 14521 H 1376.25 -4.72182 -1.10328 0
M  V30 14522 N 1377.59 0.500963 -1.49426 0
M  V30 14523 C 1378.81 1.28383 -1.62888 0
M  V30 14524 C 1379.24 1.85688 -0.300262 0
M  V30 14525 O 1378.6 1.6586 0.73212 0
M  V30 14526 C 1378.65 2.38987 -2.70033 0
M  V30 14527 O 1377.75 3.42837 -2.29208 0
M  V30 14528 H 1377.09 0.379012 -0.545202 0
M  V30 14529 H 1379.62 0.59971 -1.95613 0
M  V30 14530 H 1379.63 2.84749 -2.92202 0
M  V30 14531 H 1378.31 1.96643 -3.66475 0
M  V30 14532 H 1376.88 3.02993 -2.1737 0
M  V30 14533 N 1379.07 1.38501 0.752011 0
M  V30 14534 C 1380.32 1.34529 1.50819 0
M  V30 14535 C 1380.64 -0.0636155 1.94896 0
M  V30 14536 O 1379.91 -1.01161 1.6776 0
M  V30 14537 H 1378.49 0.49501 0.559441 0
M  V30 14538 H 1381.15 1.73196 0.893822 0
M  V30 14539 H 1380.24 1.99713 2.39835 0
M  V30 14540 N 1380.55 -0.980364 1.23396 0
M  V30 14541 C 1381.46 -2.10688 1.03188 0
M  V30 14542 C 1382.47 -1.73984 -0.0236159 0
M  V30 14543 O 1383.65 -2.00666 0.171841 0
M  V30 14544 C 1380.71 -3.4101 0.625563 0
M  V30 14545 C 1379.77 -3.91739 1.75611 0
M  V30 14546 C 1379.01 -5.15841 1.36908 0
M  V30 14547 O 1379.23 -5.69837 0.253329 0
M  V30 14548 O 1378.16 -5.60638 2.19018 0
M  V30 14549 H 1381.99 -2.30626 1.97599 0
M  V30 14550 H 1379.57 -1.09067 1.02102 0
M  V30 14551 H 1381.46 -4.19402 0.409909 0
M  V30 14552 H 1380.13 -3.22402 -0.28956 0
M  V30 14553 H 1379.04 -3.14464 2.0264 0
M  V30 14554 H 1380.37 -4.14801 2.64955 0
M  V30 14555 N 1382.02 -1.04567 -1.17913 0
M  V30 14556 C 1383.44 -0.76584 -1.40025 0
M  V30 14557 C 1383.64 0.642484 -1.90983 0
M  V30 14558 O 1382.7 1.40589 -2.0974 0
M  V30 14559 C 1384.01 -1.81616 -2.39658 0
M  V30 14560 C 1385.56 -1.83765 -2.53376 0
M  V30 14561 C 1386.03 -2.87803 -3.56277 0
M  V30 14562 N 1387.52 -2.86726 -3.63789 0
M  V30 14563 C 1388.26 -3.63876 -4.4315 0
M  V30 14564 N 1387.75 -4.50793 -5.26077 0
M  V30 14565 N 1389.55 -3.52344 -4.37962 0
M  V30 14566 H 1381.7 -1.95442 -0.831647 0
M  V30 14567 H 1383.96 -0.84593 -0.42791 0
M  V30 14568 H 1383.67 -2.8266 -2.09275 0
M  V30 14569 H 1383.54 -1.65251 -3.39075 0
M  V30 14570 H 1385.93 -0.833896 -2.83073 0
M  V30 14571 H 1386.01 -2.04208 -1.54055 0
M  V30 14572 H 1385.65 -3.88361 -3.2732 0
M  V30 14573 H 1385.58 -2.64614 -4.55288 0
M  V30 14574 H 1388.07 -2.237 -3.04576 0
M  V30 14575 H 1388.39 -5.0636 -5.83798 0
M  V30 14576 H 1386.73 -4.54858 -5.2548 0
M  V30 14577 H 1389.92 -2.8384 -3.72226 0
M  V30 14578 H 1390.1 -4.12718 -4.99568 0
M  V30 14579 N 1383.5 1.34231 -0.825823 0
M  V30 14580 C 1384.46 2.27776 -0.25512 0
M  V30 14581 C 1385.46 1.50409 0.568654 0
M  V30 14582 O 1386.65 1.69907 0.384337 0
M  V30 14583 C 1383.79 3.348 0.642013 0
M  V30 14584 H 1384.98 2.79763 -1.0804 0
M  V30 14585 H 1382.53 1.44412 -0.597904 0
M  V30 14586 H 1383.27 2.88032 1.49024 0
M  V30 14587 H 1383.05 3.92064 0.0527756 0
M  V30 14588 H 1384.54 4.0457 1.03502 0
M  V30 14589 N 1384.98 0.581051 1.46498 0
M  V30 14590 C 1386.23 0.0660934 2.02692 0
M  V30 14591 C 1386.56 -1.28985 1.45178 0
M  V30 14592 O 1385.83 -1.84479 0.616247 0
M  V30 14593 C 1386.12 -0.00145411 3.601 0
M  V30 14594 C 1385.97 1.38327 4.28002 0
M  V30 14595 C 1387.29 -0.702914 4.3445 0
M  V30 14596 H 1384.41 0.0254923 0.736559 0
M  V30 14597 H 1387.05 0.74793 1.7466 0
M  V30 14598 H 1385.2 -0.582118 3.84114 0
M  V30 14599 H 1386.87 2.00897 4.15257 0
M  V30 14600 H 1385.11 1.95144 3.87429 0
M  V30 14601 H 1385.79 1.28849 5.36751 0
M  V30 14602 H 1388.26 -0.209641 4.15572 0
M  V30 14603 H 1387.14 -0.719202 5.44168 0
M  V30 14604 H 1387.4 -1.76389 4.05388 0
M  V30 14605 N 1386.46 -1.54343 0.318742 0
M  V30 14606 C 1387.37 -2.27856 -0.558442 0
M  V30 14607 C 1388.38 -1.32029 -1.13333 0
M  V30 14608 O 1389.56 -1.65037 -1.15433 0
M  V30 14609 C 1386.62 -3.01842 -1.70565 0
M  V30 14610 C 1385.69 -4.13245 -1.16305 0
M  V30 14611 C 1384.92 -4.83693 -2.25559 0
M  V30 14612 O 1385.14 -4.53621 -3.4581 0
M  V30 14613 O 1384.08 -5.70708 -1.91249 0
M  V30 14614 H 1387.9 -3.03676 0.0384247 0
M  V30 14615 H 1385.49 -1.4916 0.0845936 0
M  V30 14616 H 1387.37 -3.48189 -2.37365 0
M  V30 14617 H 1386.04 -2.28902 -2.28879 0
M  V30 14618 H 1384.95 -3.71258 -0.460274 0
M  V30 14619 H 1386.28 -4.88214 -0.625111 0
M  V30 14620 N 1387.94 -0.0468143 -1.5753 0
M  V30 14621 C 1388.85 0.944362 -2.14753 0
M  V30 14622 C 1389.86 1.34473 -1.10422 0
M  V30 14623 O 1391.04 1.42254 -1.42569 0
M  V30 14624 C 1388.1 2.2023 -2.67768 0
M  V30 14625 C 1387.16 1.8607 -3.8688 0
M  V30 14626 C 1386.4 3.05867 -4.37357 0
M  V30 14627 O 1386.62 4.19099 -3.86927 0
M  V30 14628 O 1385.55 2.87134 -5.28997 0
M  V30 14629 H 1389.38 0.48772 -2.99758 0
M  V30 14630 H 1386.96 0.174831 -1.48374 0
M  V30 14631 H 1388.85 2.94044 -3.01855 0
M  V30 14632 H 1387.52 2.65041 -1.85836 0
M  V30 14633 H 1386.43 1.09586 -3.5769 0
M  V30 14634 H 1387.76 1.46062 -4.70028 0
M  V30 14635 N 1389.41 1.55964 0.226527 0
M  V30 14636 C 1390.32 1.95169 1.30178 0
M  V30 14637 C 1391.34 0.854831 1.51554 0
M  V30 14638 O 1392.52 1.15798 1.64781 0
M  V30 14639 C 1389.58 2.25612 2.63249 0
M  V30 14640 C 1388.64 3.4884 2.50219 0
M  V30 14641 C 1387.88 3.77822 3.76944 0
M  V30 14642 O 1388.1 3.08556 4.79739 0
M  V30 14643 O 1387.03 4.7132 3.74354 0
M  V30 14644 H 1390.86 2.86794 0.999145 0
M  V30 14645 H 1388.44 1.43109 0.42898 0
M  V30 14646 H 1390.33 2.4641 3.41848 0
M  V30 14647 H 1389 1.37162 2.93203 0
M  V30 14648 H 1387.91 3.33326 1.69836 0
M  V30 14649 H 1389.24 4.37657 2.25205 0
M  V30 14650 N 1390.89 -0.493031 1.4969 0
M  V30 14651 C 1391.8 -1.61991 1.69694 0
M  V30 14652 C 1392.82 -1.64061 0.579641 0
M  V30 14653 O 1393.99 -1.82335 0.855323 0
M  V30 14654 C 1391.06 -2.98323 1.76648 0
M  V30 14655 C 1390.12 -3.06816 3.00271 0
M  V30 14656 C 1389.35 -4.36644 3.06883 0
M  V30 14657 O 1389.58 -5.25901 2.20872 0
M  V30 14658 O 1388.51 -4.50275 3.99419 0
M  V30 14659 H 1392.34 -1.48042 2.65174 0
M  V30 14660 H 1389.92 -0.670182 1.33525 0
M  V30 14661 H 1391.8 -3.79335 1.83529 0
M  V30 14662 H 1390.48 -3.12517 0.843482 0
M  V30 14663 H 1389.39 -2.24962 2.98903 0
M  V30 14664 H 1390.72 -2.97551 3.92077 0
M  V30 14665 N 1392.37 -1.38898 -0.744656 0
M  V30 14666 C 1393.28 -1.39098 -1.88915 0
M  V30 14667 C 1394.3 -0.286956 -1.71617 0
M  V30 14668 O 1395.47 -0.526852 -1.94387 0
M  V30 14669 C 1392.54 -1.22352 -3.24393 0
M  V30 14670 C 1391.6 -2.4264 -3.54153 0
M  V30 14671 C 1390.83 -2.26683 -4.83167 0
M  V30 14672 O 1391.05 -1.26523 -5.56191 0
M  V30 14673 O 1389.99 -3.15464 -5.12607 0
M  V30 14674 H 1393.81 -2.35551 -1.91701 0
M  V30 14675 H 1391.4 -1.19911 -0.891158 0
M  V30 14676 H 1393.28 -1.15109 -4.05374 0
M  V30 14677 H 1391.96 -0.289886 -3.22399 0
M  V30 14678 H 1390.86 -2.55459 -2.73298 0
M  V30 14679 H 1392.2 -3.34664 -3.60917 0
M  V30 14680 N 1393.85 0.973806 -1.23914 0
M  V30 14681 C 1394.76 2.10138 -1.04304 0
M  V30 14682 C 1395.77 1.73994 0.0143888 0
M  V30 14683 O 1396.95 2.00572 -0.182481 0
M  V30 14684 C 1394.02 3.40673 -0.643639 0
M  V30 14685 C 1393.08 3.90802 -1.77686 0
M  V30 14686 C 1392.31 5.15108 -1.39642 0
M  V30 14687 O 1392.53 5.69695 -0.283546 0
M  V30 14688 O 1391.47 5.59468 -2.21988 0
M  V30 14689 H 1395.29 2.29574 -1.9882 0
M  V30 14690 H 1392.88 1.08524 -1.02679 0
M  V30 14691 H 1394.76 4.19178 -0.432145 0
M  V30 14692 H 1393.43 3.22551 0.272458 0
M  V30 14693 H 1392.34 3.13385 -2.04305 0
M  V30 14694 H 1393.67 4.1339 -2.67151 0
M  V30 14695 N 1395.33 1.05191 1.17357 0
M  V30 14696 C 1396.55 0.782373 1.91537 0
M  V30 14697 C 1396.97 -0.661935 1.76816 0
M  V30 14698 O 1396.33 -1.45221 1.10531 0
M  V30 14699 C 1396.38 1.15357 3.426 0
M  V30 14700 O 1396.1 2.54119 3.56869 0
M  V30 14701 C 1397.6 0.910167 4.33856 0
M  V30 14702 H 1394.82 0.284461 0.607719 0
M  V30 14703 H 1397.36 1.40259 1.48821 0
M  V30 14704 H 1395.52 0.578107 3.83062 0
M  V30 14705 H 1395.93 2.68668 4.50464 0
M  V30 14706 H 1397.41 1.21964 5.38358 0
M  V30 14707 H 1397.88 -0.154624 4.38928 0
M  V30 14708 H 1398.49 1.46947 3.99107 0
M  V30 14709 N 1396.8 -1.33791 0.83293 0
M  V30 14710 C 1397.77 -2.27637 0.267196 0
M  V30 14711 C 1398.77 -1.50709 -0.560669 0
M  V30 14712 O 1399.96 -1.70109 -0.375321 0
M  V30 14713 C 1397.09 -3.35136 -0.624248 0
M  V30 14714 H 1398.28 -2.79186 1.09522 0
M  V30 14715 H 1395.84 -1.44093 0.605554 0
M  V30 14716 H 1396.57 -2.88818 -1.47494 0
M  V30 14717 H 1396.36 -3.92087 -0.0319827 0
M  V30 14718 H 1397.85 -4.05113 -1.01355 0
M  V30 14719 N 1398.28 -0.588812 -1.46187 0
M  V30 14720 C 1399.23 0.153638 -2.32092 0
M  V30 14721 C 1400.22 0.878346 -1.4485 0
M  V30 14722 O 1401.43 0.796042 -1.61441 0
M  V30 14723 H 1397.81 0.0684129 -0.748882 0
M  V30 14724 H 1399.78 -0.58961 -2.92517 0
M  V30 14725 C 1398.53 1.15003 -3.28131 0
M  V30 14726 H 1397.85 0.601804 -3.95245 0
M  V30 14727 H 1399.29 1.6398 -3.91007 0
M  V30 14728 C 1397.75 2.21411 -2.53926 0
M  V30 14729 O 1398.28 3.28862 -2.30679 0
M  V30 14730 N 1396.48 1.96184 -2.14383 0
M  V30 14731 H 1396.03 1.08812 -2.3349 0
M  V30 14732 H 1395.99 2.6759 -1.65055 0
M  V30 14733 N 1399.76 1.54172 -0.326923 0
M  V30 14734 C 1401.01 2.00926 0.275047 0
M  V30 14735 C 1401.34 1.21469 1.51522 0
M  V30 14736 O 1400.61 0.297871 1.92206 0
M  V30 14737 C 1400.9 3.54967 0.605833 0
M  V30 14738 C 1400.75 4.45147 -0.645279 0
M  V30 14739 C 1402.07 4.16489 1.42213 0
M  V30 14740 H 1399.19 0.730389 0.098495 0
M  V30 14741 H 1401.83 1.84735 -0.444168 0
M  V30 14742 H 1399.98 3.68895 1.21857 0
M  V30 14743 H 1401.65 4.43085 -1.2835 0
M  V30 14744 H 1399.9 4.14686 -1.27349 0
M  V30 14745 H 1400.57 5.50763 -0.36932 0
M  V30 14746 H 1403.04 4.06158 0.904172 0
M  V30 14747 H 1401.92 5.24377 1.62234 0
M  V30 14748 H 1402.18 3.70032 2.41928 0
M  V30 14749 N 1401.24 0.0551678 1.57503 0
M  V30 14750 C 1402.15 -0.932959 2.15251 0
M  V30 14751 C 1403.16 -1.33885 1.11134 0
M  V30 14752 O 1404.34 -1.41495 1.43321 0
M  V30 14753 C 1401.41 -2.18807 2.68932 0
M  V30 14754 C 1400.47 -1.84016 3.87862 0
M  V30 14755 C 1399.7 -3.03543 4.38973 0
M  V30 14756 O 1399.92 -4.17041 3.89144 0
M  V30 14757 O 1398.86 -2.84325 5.30512 0
M  V30 14758 H 1402.68 -0.471816 3.00013 0
M  V30 14759 H 1400.27 -0.16696 1.48464 0
M  V30 14760 H 1402.15 -2.92439 3.0341 0
M  V30 14761 H 1400.82 -2.64051 1.87239 0
M  V30 14762 H 1399.73 -1.07687 3.58266 0
M  V30 14763 H 1401.06 -1.43567 4.70796 0
M  V30 14764 N 1402.72 -1.56081 -0.218252 0
M  V30 14765 C 1403.65 -1.87704 -1.29779 0
M  V30 14766 C 1404.63 -0.734747 -1.45053 0
M  V30 14767 O 1405.81 -0.98344 -1.60813 0
M  V30 14768 C 1402.94 -2.08695 -2.66766 0
M  V30 14769 C 1401.98 -3.31385 -2.68489 0
M  V30 14770 S 1402.82 -4.87212 -2.22227 0
M  V30 14771 C 1403.97 -5.11243 -3.61083 0
M  V30 14772 H 1404.21 -2.78975 -1.02762 0
M  V30 14773 H 1401.74 -1.48559 -0.420653 0
M  V30 14774 H 1403.7 -2.21472 -3.4563 0
M  V30 14775 H 1402.36 -1.18215 -2.91005 0
M  V30 14776 H 1401.55 -3.43127 -3.69161 0
M  V30 14777 H 1401.15 -3.17482 -1.9769 0
M  V30 14778 H 1403.45 -5.00344 -4.56796 0
M  V30 14779 H 1404.39 -6.13115 -3.54254 0
M  V30 14780 H 1404.8 -4.38964 -3.54924 0
M  V30 14781 N 1404.2 0.485086 -1.49949 0
M  V30 14782 C 1405.42 1.26648 -1.64241 0
M  V30 14783 C 1405.85 1.85359 -0.319939 0
M  V30 14784 O 1405.2 1.66628 0.714487 0
M  V30 14785 C 1405.25 2.36109 -2.72552 0
M  V30 14786 O 1404.36 3.40387 -2.32832 0
M  V30 14787 H 1403.7 0.373208 -0.549192 0
M  V30 14788 H 1406.23 0.578929 -1.96239 0
M  V30 14789 H 1406.24 2.81634 -2.95205 0
M  V30 14790 H 1404.91 1.92745 -3.6854 0
M  V30 14791 H 1403.49 3.0067 -2.20571 0
M  V30 14792 N 1405.67 1.39291 0.737279 0
M  V30 14793 C 1406.58 1.40098 1.88175 0
M  V30 14794 C 1407.6 0.296053 1.71463 0
M  V30 14795 O 1408.78 0.537153 1.94105 0
M  V30 14796 C 1405.84 1.24071 3.2374 0
M  V30 14797 C 1404.9 2.44515 3.52861 0
M  V30 14798 C 1404.13 2.29243 4.81958 0
M  V30 14799 O 1404.36 1.2947 5.55512 0
M  V30 14800 O 1403.29 3.18178 5.10927 0
M  V30 14801 H 1407.12 2.36565 1.90449 0
M  V30 14802 H 1404.7 1.20382 0.884786 0
M  V30 14803 H 1406.58 1.17257 4.04758 0
M  V30 14804 H 1405.26 0.30698 3.22241 0
M  V30 14805 H 1404.17 2.56905 2.71939 0
M  V30 14806 H 1405.5 3.36573 3.59137 0
M  V30 14807 N 1407.15 -0.967221 1.24429 0
M  V30 14808 C 1408.1 -2.06187 1.03709 0
M  V30 14809 C 1409.07 -1.66025 -0.0497665 0
M  V30 14810 O 1410.25 -1.90511 0.104951 0
M  V30 14811 C 1407.39 -3.38952 0.648477 0
M  V30 14812 C 1406.51 -3.92306 1.80886 0
M  V30 14813 C 1405.64 -5.13342 1.36579 0
M  V30 14814 C 1404.68 -5.58893 2.49609 0
M  V30 14815 N 1403.82 -6.71148 2.06165 0
M  V30 14816 H 1408.66 -2.23244 1.97399 0
M  V30 14817 H 1406.19 -1.09415 0.983192 0
M  V30 14818 H 1408.15 -4.15237 0.40419 0
M  V30 14819 H 1406.78 -3.21819 -0.25142 0
M  V30 14820 H 1405.83 -3.12656 2.1668 0
M  V30 14821 H 1407.15 -4.22071 2.65815 0
M  V30 14822 H 1406.3 -5.97003 1.0804 0
M  V30 14823 H 1405.04 -4.85262 0.487051 0
M  V30 14824 H 1404.04 -4.73805 2.78906 0
M  V30 14825 H 1405.27 -5.88987 3.3804 0
M  V30 14826 H 1403.22 -6.44802 1.20691 0
M  V30 14827 H 1403.13 -7.00366 2.84647 0
M  V30 14828 H 1404.4 -7.5825 1.80769 0
M  V30 14829 N 1408.63 -1.05812 -1.16797 0
M  V30 14830 C 1409.56 -0.685778 -2.23202 0
M  V30 14831 C 1410.54 0.319428 -1.67074 0
M  V30 14832 O 1411.73 0.195635 -1.93212 0
M  V30 14833 C 1408.86 -0.0662958 -3.47237 0
M  V30 14834 C 1407.81 -0.996943 -4.16227 0
M  V30 14835 C 1407.14 -0.241015 -5.34157 0
M  V30 14836 C 1408.44 -2.32384 -4.67755 0
M  V30 14837 H 1410.13 -1.57535 -2.54604 0
M  V30 14838 H 1407.68 -0.758909 -1.22379 0
M  V30 14839 H 1409.63 0.206024 -4.20896 0
M  V30 14840 H 1408.35 0.858263 -3.15121 0
M  V30 14841 H 1407.01 -1.25393 -3.44488 0
M  V30 14842 H 1406.66 0.686508 -4.98293 0
M  V30 14843 H 1406.36 -0.861188 -5.81255 0
M  V30 14844 H 1407.88 0.0238739 -6.10595 0
M  V30 14845 H 1409.3 -2.11099 -5.3302 0
M  V30 14846 H 1407.69 -2.89855 -5.25456 0
M  V30 14847 H 1408.76 -2.958 -3.84227 0
M  V30 14848 N 1410.11 1.33347 -0.840014 0
M  V30 14849 C 1411.35 1.99556 -0.442363 0
M  V30 14850 C 1411.71 1.65088 0.980304 0
M  V30 14851 O 1412.91 2.24272 1.48174 0
M  V30 14852 C 1411.18 3.51292 -0.657939 0
M  V30 14853 S 1412.74 4.37356 -0.35568 0
M  V30 14854 H 1409.56 0.691267 -0.166344 0
M  V30 14855 H 1412.16 1.62324 -1.08955 0
M  V30 14856 H 1410.87 3.73866 -1.69271 0
M  V30 14857 H 1410.4 3.934 0.00335805 0
M  V30 14858 H 1412.41 4.89309 0.824091 0
M  V30 14859 N 1411.59 0.596556 1.45873 0
M  V30 14860 C 1412.81 0.0916466 2.07197 0
M  V30 14861 C 1413.24 -1.21004 1.44012 0
M  V30 14862 O 1412.59 -1.73415 0.528844 0
M  V30 14863 C 1412.64 -0.0461457 3.6057 0
M  V30 14864 O 1411.75 -1.09919 3.97481 0
M  V30 14865 H 1411.09 0.0690655 0.660398 0
M  V30 14866 H 1413.62 0.823434 1.87299 0
M  V30 14867 H 1413.63 -0.2479 4.07246 0
M  V30 14868 H 1412.3 0.904381 4.05948 0
M  V30 14869 H 1410.88 -0.874788 3.62494 0
M  V30 14870 N 1413.06 -1.53996 0.335095 0
M  V30 14871 C 1414 -2.22258 -0.559809 0
M  V30 14872 C 1415.01 -1.22636 -1.07071 0
M  V30 14873 O 1416.2 -1.4904 -0.982312 0
M  V30 14874 C 1413.3 -2.88256 -1.78218 0
M  V30 14875 C 1412.47 -4.14118 -1.40801 0
M  V30 14876 C 1411.53 -4.63603 -2.48915 0
M  V30 14877 O 1410.56 -5.28015 -2.12576 0
M  V30 14878 N 1411.76 -4.3881 -3.80034 0
M  V30 14879 H 1414.52 -2.9969 0.0247521 0
M  V30 14880 H 1412.08 -1.61119 0.158826 0
M  V30 14881 H 1414.08 -3.1828 -2.4996 0
M  V30 14882 H 1412.65 -2.14461 -2.27431 0
M  V30 14883 H 1411.87 -3.90732 -0.521729 0
M  V30 14884 H 1413.15 -4.96005 -1.13388 0
M  V30 14885 H 1412.55 -3.87278 -4.12349 0
M  V30 14886 H 1411.11 -4.73461 -4.47971 0
M  V30 14887 N 1414.54 -0.0635198 -1.57472 0
M  V30 14888 C 1415.77 0.615841 -1.97208 0
M  V30 14889 C 1416.18 1.64181 -0.940281 0
M  V30 14890 O 1415.52 1.83515 0.0824321 0
M  V30 14891 C 1415.58 1.34908 -3.33227 0
M  V30 14892 C 1415.25 0.477535 -4.54498 0
M  V30 14893 C 1416.25 -0.261479 -5.19242 0
M  V30 14894 C 1413.93 0.404839 -5.00666 0
M  V30 14895 C 1415.92 -1.0615 -6.28499 0
M  V30 14896 C 1413.61 -0.398859 -6.09797 0
M  V30 14897 C 1414.61 -1.1307 -6.73576 0
M  V30 14898 O 1414.3 -1.92116 -7.80607 0
M  V30 14899 H 1414.03 0.172273 -0.65368 0
M  V30 14900 H 1416.58 -0.129963 -2.04988 0
M  V30 14901 H 1414.81 2.14078 -3.22036 0
M  V30 14902 H 1416.5 1.91988 -3.57625 0
M  V30 14903 H 1417.27 -0.214859 -4.84524 0
M  V30 14904 H 1413.15 0.964087 -4.50806 0
M  V30 14905 H 1416.69 -1.63324 -6.78212 0
M  V30 14906 H 1412.59 -0.447073 -6.4395 0
M  V30 14907 H 1413.36 -1.84459 -7.97444 0
M  V30 14908 N 1416.02 1.56195 0.209972 0
M  V30 14909 C 1417.27 1.7939 0.930796 0
M  V30 14910 C 1417.59 0.634038 1.84404 0
M  V30 14911 O 1416.86 -0.348467 1.92776 0
M  V30 14912 H 1415.44 0.661676 0.346689 0
M  V30 14913 H 1418.1 1.93665 0.219049 0
M  V30 14914 H 1417.2 2.71982 1.53075 0
M  V30 14915 N 1417.5 -0.477127 1.50204 0
M  V30 14916 C 1418.73 -1.25307 1.64638 0
M  V30 14917 C 1419.14 -1.85942 0.327274 0
M  V30 14918 O 1418.5 -1.6895 -0.690088 0
M  V30 14919 C 1418.55 -2.36616 2.73304 0
M  V30 14920 O 1418.27 -1.78469 4.00101 0
M  V30 14921 C 1419.77 -3.27595 2.98658 0
M  V30 14922 H 1416.99 -0.379192 0.553583 0
M  V30 14923 H 1419.53 -0.5702 1.9639 0
M  V30 14924 H 1417.69 -3.00689 2.44264 0
M  V30 14925 H 1418.1 -2.51722 4.60148 0
M  V30 14926 H 1419.58 -4.01921 3.7837 0
M  V30 14927 H 1420.05 -3.86017 2.09493 0
M  V30 14928 H 1420.66 -2.69264 3.29206 0
M  V30 14929 N 1418.98 -1.3968 -0.729882 0
M  V30 14930 C 1420.39 -1.33184 -1.30839 0
M  V30 14931 C 1420.74 0.00141129 -1.962 0
M  V30 14932 O 1419.86 0.903523 -1.96635 0
M  V30 14933 C 1420.46 -2.41211 -2.37913 0
M  V30 14934 C 1419.02 -2.3822 -2.91424 0
M  V30 14935 C 1418.16 -2.22832 -1.65049 0
M  V30 14936 H 1421.12 -1.49694 -0.527023 0
M  V30 14937 H 1421.14 -2.08294 -3.18424 0
M  V30 14938 H 1420.65 -3.38234 -1.90313 0
M  V30 14939 H 1418.75 -1.4485 -3.43292 0
M  V30 14940 H 1418.86 -3.33271 -3.44191 0
M  V30 14941 H 1417.23 -1.70095 -1.89578 0
M  V30 14942 H 1418.01 -3.21832 -1.19494 0
M  V30 14943 N 1420.45 0.960609 -1.2494 0
M  V30 14944 C 1421.7 1.70701 -1.09495 0
M  V30 14945 C 1422.03 1.90754 0.364214 0
M  V30 14946 O 1421.31 1.47417 1.26879 0
M  V30 14947 C 1421.59 3.09353 -1.84317 0
M  V30 14948 C 1421.44 2.96747 -3.38026 0
M  V30 14949 C 1422.76 4.09139 -1.62153 0
M  V30 14950 H 1419.88 0.61955 -0.399158 0
M  V30 14951 H 1422.52 1.11701 -1.53698 0
M  V30 14952 H 1420.67 3.59719 -1.46746 0
M  V30 14953 H 1422.35 2.53752 -3.85237 0
M  V30 14954 H 1420.59 2.32798 -3.66043 0
M  V30 14955 H 1421.26 3.95002 -3.85587 0
M  V30 14956 H 1423.74 3.67659 -1.94849 0
M  V30 14957 H 1422.61 5.04206 -2.16951 0
M  V30 14958 H 1422.87 4.38521 -0.561437 0
M  V30 14959 N 1421.93 1.0643 1.16234 0
M  V30 14960 C 1423.18 0.78184 1.86798 0
M  V30 14961 C 1423.51 -0.691734 1.81784 0
M  V30 14962 O 1422.76 -1.52271 1.22931 0
M  V30 14963 C 1423.06 1.22348 3.35806 0
M  V30 14964 C 1422.73 2.7014 3.61019 0
M  V30 14965 C 1421.39 3.1051 3.6761 0
M  V30 14966 C 1423.74 3.65582 3.71482 0
M  V30 14967 C 1421.07 4.45159 3.82165 0
M  V30 14968 C 1423.42 4.99981 3.87559 0
M  V30 14969 C 1422.09 5.39986 3.92392 0
M  V30 14970 H 1421.36 0.286096 0.683542 0
M  V30 14971 H 1424 1.33364 1.37427 0
M  V30 14972 H 1422.31 0.590896 3.87319 0
M  V30 14973 H 1424 0.981959 3.88791 0
M  V30 14974 H 1420.59 2.37884 3.56524 0
M  V30 14975 H 1424.78 3.35525 3.657 0
M  V30 14976 H 1420.03 4.75637 3.8416 0
M  V30 14977 H 1424.21 5.73817 3.94597 0
M  V30 14978 H 1421.84 6.44324 4.03423 0
M  V30 14979 N 1423.41 -1.329 0.847073 0
M  V30 14980 C 1424.64 -2.02244 0.459588 0
M  V30 14981 C 1425.06 -1.63279 -0.933897 0
M  V30 14982 O 1424.42 -0.829551 -1.61208 0
M  V30 14983 C 1424.47 -3.55616 0.59745 0
M  V30 14984 O 1423.57 -4.1071 -0.372919 0
M  V30 14985 H 1422.91 -0.637504 0.1857 0
M  V30 14986 H 1425.44 -1.69617 1.14417 0
M  V30 14987 H 1425.45 -4.05141 0.482145 0
M  V30 14988 H 1424.13 -3.8332 1.61365 0
M  V30 14989 H 1422.7 -3.72283 -0.214487 0
M  V30 14990 N 1424.89 -0.604284 -1.45555 0
M  V30 14991 C 1425.85 0.106526 -2.28952 0
M  V30 14992 C 1426.85 0.798277 -1.39586 0
M  V30 14993 O 1428.04 0.646943 -1.61741 0
M  V30 14994 C 1425.17 1.16091 -3.20524 0
M  V30 14995 H 1426.37 -0.626655 -2.9328 0
M  V30 14996 H 1423.92 -0.363183 -1.52022 0
M  V30 14997 H 1424.65 1.92496 -2.6099 0
M  V30 14998 H 1424.44 0.669137 -3.86348 0
M  V30 14999 H 1425.93 1.65882 -3.8324 0
M  V30 15000 N 1426.37 1.53816 -0.343257 0
M  V30 15001 C 1427.78 1.86169 0.140709 0
M  V30 15002 C 1428.13 1.26449 1.50017 0
M  V30 15003 O 1427.25 0.577955 2.08539 0
M  V30 15004 C 1427.85 3.37785 0.262097 0
M  V30 15005 C 1426.41 3.70016 0.690294 0
M  V30 15006 C 1425.55 2.7674 -0.17614 0
M  V30 15007 H 1428.51 1.48383 -0.562863 0
M  V30 15008 H 1428.53 3.64564 1.08964 0
M  V30 15009 H 1428.04 3.81221 -0.727481 0
M  V30 15010 H 1426.14 3.32124 1.68891 0
M  V30 15011 H 1426.25 4.76686 0.480388 0
M  V30 15012 H 1424.62 2.52263 0.351476 0
M  V30 15013 H 1425.4 3.23006 -1.16285 0
M  V30 15014 N 1427.84 0.0718701 1.57436 0
M  V30 15015 C 1429.09 -0.596052 1.9311 0
M  V30 15016 C 1429.41 -1.70146 0.952652 0
M  V30 15017 O 1428.68 -1.959 0.000812941 0
M  V30 15018 H 1427.26 -0.223165 0.712886 0
M  V30 15019 H 1429.93 0.129744 1.94468 0
M  V30 15020 H 1429.02 -1.02132 2.94916 0
M  V30 15021 N 1429.32 -1.56304 -0.201686 0
M  V30 15022 C 1430.27 -1.90422 -1.25393 0
M  V30 15023 C 1431.26 -0.769236 -1.41321 0
M  V30 15024 O 1432.45 -1.03199 -1.43802 0
M  V30 15025 C 1429.58 -2.24157 -2.60016 0
M  V30 15026 C 1428.66 -3.44097 -2.47908 0
M  V30 15027 N 1429.05 -4.62185 -2.05471 0
M  V30 15028 C 1427.35 -3.48105 -2.78817 0
M  V30 15029 C 1428.05 -5.44345 -2.05095 0
M  V30 15030 N 1427.03 -4.84576 -2.46346 0
M  V30 15031 H 1430.83 -2.79227 -0.917045 0
M  V30 15032 H 1428.35 -1.57135 -0.410157 0
M  V30 15033 H 1430.34 -2.46782 -3.36012 0
M  V30 15034 H 1429 -1.36676 -2.94533 0
M  V30 15035 H 1430.01 -4.86974 -1.76285 0
M  V30 15036 H 1426.69 -2.71022 -3.17574 0
M  V30 15037 H 1428.08 -6.48914 -1.74242 0
M  V30 15038 N 1430.8 0.469154 -1.50455 0
M  V30 15039 C 1431.76 1.5493 -1.68906 0
M  V30 15040 C 1432.76 1.50744 -0.559721 0
M  V30 15041 O 1433.95 1.5333 -0.826781 0
M  V30 15042 C 1431.09 2.94556 -1.71609 0
M  V30 15043 H 1432.28 1.39887 -2.65276 0
M  V30 15044 H 1429.83 0.695667 -1.39965 0
M  V30 15045 H 1430.57 3.15041 -0.769382 0
M  V30 15046 H 1430.35 2.99002 -2.53654 0
M  V30 15047 H 1431.84 3.72973 -1.87831 0
M  V30 15048 N 1432.28 1.40065 0.722464 0
M  V30 15049 C 1433.21 1.42532 1.84951 0
M  V30 15050 C 1434.19 0.287082 1.6766 0
M  V30 15051 O 1435.37 0.494715 1.87793 0
M  V30 15052 C 1432.5 1.28041 3.22836 0
M  V30 15053 C 1431.46 2.39396 3.54787 0
M  V30 15054 C 1430.78 2.09986 4.91742 0
M  V30 15055 C 1432.08 3.81729 3.56483 0
M  V30 15056 H 1433.78 2.36851 1.83144 0
M  V30 15057 H 1431.32 1.14005 0.879714 0
M  V30 15058 H 1433.28 1.28385 4.01367 0
M  V30 15059 H 1432 0.301947 3.25201 0
M  V30 15060 H 1430.66 2.3829 2.78592 0
M  V30 15061 H 1430.31 1.10547 4.90702 0
M  V30 15062 H 1430.01 2.84586 5.14086 0
M  V30 15063 H 1431.53 2.12 5.72615 0
M  V30 15064 H 1432.95 3.84696 4.25067 0
M  V30 15065 H 1431.34 4.55791 3.90351 0
M  V30 15066 H 1432.41 4.11807 2.56014 0
M  V30 15067 N 1433.76 -0.95397 1.25448 0
M  V30 15068 C 1434.71 -2.03623 1.02575 0
M  V30 15069 C 1435.69 -1.60856 -0.0375824 0
M  V30 15070 O 1436.88 -1.76104 0.177833 0
M  V30 15071 C 1434.01 -3.37145 0.64714 0
M  V30 15072 C 1433.1 -3.86434 1.74726 0
M  V30 15073 N 1433.49 -4.08509 2.98251 0
M  V30 15074 C 1431.79 -4.15228 1.62793 0
M  V30 15075 C 1432.49 -4.49137 3.69663 0
M  V30 15076 N 1431.46 -4.55106 2.97287 0
M  V30 15077 H 1435.27 -2.18685 1.96352 0
M  V30 15078 H 1432.78 -1.13884 1.15777 0
M  V30 15079 H 1434.78 -4.14305 0.464462 0
M  V30 15080 H 1433.44 -3.23462 -0.283296 0
M  V30 15081 H 1434.45 -3.95564 3.3429 0
M  V30 15082 H 1431.13 -4.10403 0.766501 0
M  V30 15083 H 1432.52 -4.74515 4.75695 0
M  V30 15084 N 1435.24 -1.07045 -1.15668 0
M  V30 15085 C 1436.65 -0.814932 -1.67975 0
M  V30 15086 C 1437 0.660408 -1.84751 0
M  V30 15087 O 1436.12 1.51156 -1.54857 0
M  V30 15088 C 1436.72 -1.47274 -3.05116 0
M  V30 15089 C 1435.28 -1.26481 -3.54513 0
M  V30 15090 C 1434.42 -1.54439 -2.30312 0
M  V30 15091 H 1437.37 -1.23291 -0.999251 0
M  V30 15092 H 1437.4 -0.892244 -3.69891 0
M  V30 15093 H 1436.91 -2.54649 -2.92874 0
M  V30 15094 H 1435.01 -0.211138 -3.72001 0
M  V30 15095 H 1435.12 -1.98283 -4.36143 0
M  V30 15096 H 1433.49 -0.965269 -2.357 0
M  V30 15097 H 1434.27 -2.6299 -2.20661 0
M  V30 15098 N 1436.71 1.32449 -0.85411 0
M  V30 15099 C 1437.96 1.96881 -0.45632 0
M  V30 15100 C 1438.28 1.67926 0.991248 0
M  V30 15101 O 1437.55 0.986195 1.69266 0
M  V30 15102 H 1436.13 0.728378 -0.165752 0
M  V30 15103 H 1438.79 1.61542 -1.09042 0
M  V30 15104 H 1437.89 3.0626 -0.600927 0
M  V30 15105 N 1438.19 0.611994 1.45232 0
M  V30 15106 C 1439.1 -0.105981 2.3436 0
M  V30 15107 C 1440.12 -0.855785 1.515 0
M  V30 15108 O 1441.29 -0.812376 1.84289 0
M  V30 15109 C 1438.36 -1.08794 3.29188 0
M  V30 15110 C 1437.42 -0.339611 4.27955 0
M  V30 15111 C 1436.65 -1.27479 5.18252 0
M  V30 15112 O 1436.88 -2.51279 5.12069 0
M  V30 15113 O 1435.81 -0.769469 5.96961 0
M  V30 15114 H 1439.64 0.626584 2.97166 0
M  V30 15115 H 1437.22 0.37224 1.44688 0
M  V30 15116 H 1439.1 -1.65338 3.8761 0
M  V30 15117 H 1437.78 -1.80145 2.68941 0
M  V30 15118 H 1436.68 0.268408 3.73136 0
M  V30 15119 H 1438.02 0.333501 4.91069 0
M  V30 15120 N 1439.67 -1.53632 0.351409 0
M  V30 15121 C 1441.08 -1.86241 -0.130834 0
M  V30 15122 C 1441.43 -1.27243 -1.49344 0
M  V30 15123 O 1440.56 -0.589006 -2.0823 0
M  V30 15124 C 1441.15 -3.37919 -0.244179 0
M  V30 15125 C 1439.71 -3.70377 -0.670662 0
M  V30 15126 C 1438.86 -2.76643 0.190813 0
M  V30 15127 H 1441.81 -1.48083 0.570724 0
M  V30 15128 H 1441.83 -3.65137 -1.07029 0
M  V30 15129 H 1441.34 -3.8083 0.747688 0
M  V30 15130 H 1439.44 -3.33015 -1.67127 0
M  V30 15131 H 1439.56 -4.76934 -0.455102 0
M  V30 15132 H 1437.92 -2.52446 -0.338092 0
M  V30 15133 H 1438.7 -3.22385 1.17996 0
M  V30 15134 N 1441.15 -0.0802183 -1.57396 0
M  V30 15135 C 1442.11 0.869437 -2.12069 0
M  V30 15136 C 1443.11 1.22079 -1.04658 0
M  V30 15137 O 1444.3 1.15267 -1.3061 0
M  V30 15138 C 1441.43 2.17016 -2.62901 0
M  V30 15139 H 1442.63 0.394952 -2.97288 0
M  V30 15140 H 1440.18 0.168597 -1.55388 0
M  V30 15141 H 1440.91 2.68983 -1.8116 0
M  V30 15142 H 1440.7 1.92808 -3.4142 0
M  V30 15143 H 1442.19 2.84982 -3.05246 0
M  V30 15144 N 1442.63 1.56409 0.193394 0
M  V30 15145 C 1443.56 1.97707 1.24234 0
M  V30 15146 C 1444.54 0.849286 1.47381 0
M  V30 15147 O 1445.72 1.11374 1.59089 0
M  V30 15148 C 1442.85 2.31804 2.5862 0
M  V30 15149 C 1441.81 3.47337 2.50082 0
M  V30 15150 C 1441.13 3.67114 3.88756 0
M  V30 15151 C 1442.43 4.81472 2.02441 0
M  V30 15152 H 1444.13 2.8558 0.89914 0
M  V30 15153 H 1441.67 1.37396 0.431078 0
M  V30 15154 H 1443.62 2.5929 3.32185 0
M  V30 15155 H 1442.35 1.40816 2.94684 0
M  V30 15156 H 1441.01 3.19944 1.78973 0
M  V30 15157 H 1440.66 2.73454 4.22175 0
M  V30 15158 H 1440.36 4.44838 3.83918 0
M  V30 15159 H 1441.88 3.96978 4.6394 0
M  V30 15160 H 1443.29 5.07978 2.65766 0
M  V30 15161 H 1441.69 5.62677 2.08601 0
M  V30 15162 H 1442.76 4.74941 0.977704 0
M  V30 15163 N 1444.1 -0.461169 1.50702 0
M  V30 15164 C 1445.35 -1.21012 1.61866 0
M  V30 15165 C 1445.67 -1.9226 0.325736 0
M  V30 15166 O 1444.94 -1.84543 -0.657306 0
M  V30 15167 H 1443.52 -0.449671 0.596494 0
M  V30 15168 H 1446.18 -0.531056 1.87525 0
M  V30 15169 H 1445.28 -1.95266 2.4347 0
M  V30 15170 N 1445.58 -1.40446 -0.715026 0
M  V30 15171 C 1446.49 -1.43074 -1.85922 0
M  V30 15172 C 1447.51 -0.323294 -1.7097 0
M  V30 15173 O 1448.68 -0.567966 -1.93226 0
M  V30 15174 C 1445.75 -1.29206 -3.21725 0
M  V30 15175 C 1444.81 -2.50097 -3.48927 0
M  V30 15176 C 1444.04 -2.36881 -4.7825 0
M  V30 15177 O 1444.27 -1.38292 -5.53382 0
M  V30 15178 O 1443.2 -3.26266 -5.058 0
M  V30 15179 H 1447.03 -2.39565 -1.86661 0
M  V30 15180 H 1444.61 -1.21775 -0.865522 0
M  V30 15181 H 1446.49 -1.23681 -4.02841 0
M  V30 15182 H 1445.17 -0.358207 -3.21712 0
M  V30 15183 H 1444.07 -2.61199 -2.67817 0
M  V30 15184 H 1445.41 -3.42244 -3.53737 0
M  V30 15185 N 1447.06 0.947303 -1.25952 0
M  V30 15186 C 1448.02 2.02667 -1.07046 0
M  V30 15187 C 1449.02 1.60787 -0.0208127 0
M  V30 15188 O 1450.21 1.72193 -0.263668 0
M  V30 15189 C 1447.34 3.35087 -0.626885 0
M  V30 15190 H 1448.54 2.20871 -2.0287 0
M  V30 15191 H 1446.09 1.12541 -1.08462 0
M  V30 15192 H 1446.83 3.22579 0.333621 0
M  V30 15193 H 1446.61 3.66835 -1.38473 0
M  V30 15194 H 1448.1 4.14397 -0.516264 0
M  V30 15195 N 1448.54 1.07657 1.15099 0
M  V30 15196 C 1449.45 0.711198 2.2356 0
M  V30 15197 C 1450.46 -0.278932 1.7175 0
M  V30 15198 O 1451.64 -0.124788 2.01013 0
M  V30 15199 C 1448.71 0.117855 3.465 0
M  V30 15200 C 1447.77 1.16162 4.13286 0
M  V30 15201 C 1447 0.596494 5.30356 0
M  V30 15202 O 1447.22 -0.586474 5.67377 0
M  V30 15203 O 1446.16 1.34288 5.86729 0
M  V30 15204 H 1449.98 1.61578 2.5715 0
M  V30 15205 H 1447.57 0.84973 1.22882 0
M  V30 15206 H 1449.45 -0.210613 4.20873 0
M  V30 15207 H 1448.12 -0.760008 3.14652 0
M  V30 15208 H 1447.03 1.54249 3.4082 0
M  V30 15209 H 1448.36 2.01149 4.49221 0
M  V30 15210 N 1450.02 -1.31994 0.861122 0
M  V30 15211 C 1450.93 -2.32495 0.313555 0
M  V30 15212 C 1451.94 -1.64331 -0.571966 0
M  V30 15213 O 1453.12 -1.9582 -0.470794 0
M  V30 15214 C 1450.18 -3.43311 -0.483603 0
M  V30 15215 C 1449.24 -4.27153 0.428825 0
M  V30 15216 C 1448.48 -5.32676 -0.330383 0
M  V30 15217 O 1448.7 -5.48665 -1.55957 0
M  V30 15218 O 1447.63 -6.01116 0.307174 0
M  V30 15219 H 1451.46 -2.81234 1.14636 0
M  V30 15220 H 1449.05 -1.35734 0.624239 0
M  V30 15221 H 1450.93 -4.10877 -0.935831 0
M  V30 15222 H 1449.6 -2.9675 -1.2931 0
M  V30 15223 H 1448.51 -3.62372 0.929366 0
M  V30 15224 H 1449.84 -4.77255 1.20368 0
M  V30 15225 N 1451.49 -0.619688 -1.44906 0
M  V30 15226 C 1452.91 -0.284338 -1.57047 0
M  V30 15227 C 1453.11 1.21284 -1.60911 0
M  V30 15228 O 1452.17 1.99642 -1.54594 0
M  V30 15229 C 1453.48 -0.966179 -2.84755 0
M  V30 15230 C 1455.03 -0.943239 -2.98449 0
M  V30 15231 C 1455.5 -1.60532 -4.28945 0
M  V30 15232 N 1456.99 -1.57138 -4.35732 0
M  V30 15233 C 1457.73 -2.05271 -5.35399 0
M  V30 15234 N 1457.22 -2.61543 -6.41535 0
M  V30 15235 N 1459.02 -1.95967 -5.26833 0
M  V30 15236 H 1451.17 -1.59167 -1.40641 0
M  V30 15237 H 1453.43 -0.667458 -0.673204 0
M  V30 15238 H 1453.14 -2.02086 -2.87844 0
M  V30 15239 H 1453.01 -0.49688 -3.73913 0
M  V30 15240 H 1455.4 0.102932 -2.9492 0
M  V30 15241 H 1455.48 -1.45092 -2.1067 0
M  V30 15242 H 1455.12 -2.65088 -4.33233 0
M  V30 15243 H 1455.05 -1.07256 -5.15561 0
M  V30 15244 H 1457.54 -1.16042 -3.59643 0
M  V30 15245 H 1457.86 -2.96033 -7.13852 0
M  V30 15246 H 1456.2 -2.65588 -6.42252 0
M  V30 15247 H 1459.39 -1.51734 -4.42825 0
M  V30 15248 H 1459.57 -2.33791 -6.04356 0
M  V30 15249 N 1452.97 1.53444 -0.359552 0
M  V30 15250 C 1454.21 2.03077 0.232169 0
M  V30 15251 C 1454.58 1.24125 1.46482 0
M  V30 15252 O 1455.78 1.63735 2.13177 0
M  V30 15253 C 1454.05 3.53554 0.522891 0
M  V30 15254 S 1455.61 4.25068 1.08914 0
M  V30 15255 H 1452.43 0.707738 0.0680317 0
M  V30 15256 H 1455.03 1.88971 -0.501022 0
M  V30 15257 H 1453.73 4.0862 -0.381812 0
M  V30 15258 H 1453.26 3.71811 1.28532 0
M  V30 15259 H 1455.28 4.35734 2.37382 0
M  V30 15260 N 1454.45 0.0885642 1.57351 0
M  V30 15261 C 1455.38 -0.869946 2.16689 0
M  V30 15262 C 1456.36 -1.29878 1.09844 0
M  V30 15263 O 1457.55 -1.36684 1.37954 0
M  V30 15264 C 1454.68 -2.13148 2.74199 0
M  V30 15265 C 1453.63 -1.84149 3.86359 0
M  V30 15266 C 1452.96 -3.17075 4.30543 0
M  V30 15267 C 1454.26 -1.13357 5.09851 0
M  V30 15268 H 1455.95 -0.375578 2.97035 0
M  V30 15269 H 1453.5 -0.17921 1.42881 0
M  V30 15270 H 1455.45 -2.80634 3.14361 0
M  V30 15271 H 1454.17 -2.64856 1.91098 0
M  V30 15272 H 1452.83 -1.19063 3.46727 0
M  V30 15273 H 1452.48 -3.66658 3.44342 0
M  V30 15274 H 1452.18 -2.98457 5.06159 0
M  V30 15275 H 1453.7 -3.85731 4.73333 0
M  V30 15276 H 1455.12 -1.70941 5.47222 0
M  V30 15277 H 1453.52 -1.0494 5.90853 0
M  V30 15278 H 1454.59 -0.115273 4.84763 0
M  V30 15279 N 1455.93 -1.56509 -0.185096 0
M  V30 15280 C 1457.15 -1.85683 -0.923941 0
M  V30 15281 C 1457.58 -0.673315 -1.75636 0
M  V30 15282 O 1456.94 0.3778 -1.7732 0
M  V30 15283 C 1456.98 -3.13165 -1.78774 0
M  V30 15284 O 1456.09 -2.9442 -2.88775 0
M  V30 15285 H 1455.43 -0.611139 -0.259624 0
M  V30 15286 H 1457.96 -2.0374 -0.187393 0
M  V30 15287 H 1457.97 -3.44216 -2.19042 0
M  V30 15288 H 1456.64 -3.98922 -1.17619 0
M  V30 15289 H 1455.22 -2.7469 -2.5219 0
M  V30 15290 N 1457.41 0.45317 -1.50944 0
M  V30 15291 C 1458.82 1.03354 -1.55482 0
M  V30 15292 C 1459.17 1.92701 -0.368873 0
M  V30 15293 O 1458.29 2.10153 0.516208 0
M  V30 15294 C 1458.89 1.88118 -2.81775 0
M  V30 15295 C 1457.45 2.41232 -2.88936 0
M  V30 15296 C 1456.59 1.20032 -2.49975 0
M  V30 15297 H 1459.55 0.235059 -1.5695 0
M  V30 15298 H 1459.57 2.73394 -2.64643 0
M  V30 15299 H 1459.08 1.23064 -3.68072 0
M  V30 15300 H 1457.18 3.09788 -2.07032 0
M  V30 15301 H 1457.29 2.75113 -3.92237 0
M  V30 15302 H 1455.66 1.54072 -2.02815 0
M  V30 15303 H 1456.44 0.56612 -3.386 0
M  V30 15304 N 1458.88 1.40823 0.707568 0
M  V30 15305 C 1460.16 1.3003 1.46122 0
M  V30 15306 C 1460.54 -0.0776873 2.10957 0
M  V30 15307 O 1459.89 -1.09109 2.00767 0
M  V30 15308 C 1460.1 2.44498 2.49042 0
M  V30 15309 C 1461.45 2.85106 3.14642 0
M  V30 15310 O 1462.47 2.44149 2.59364 0
M  V30 15311 O 1461.33 3.55892 4.14733 0
M  V30 15312 H 1458.42 0.511082 0.650172 0
M  V30 15313 H 1460.97 1.52761 0.739062 0
M  V30 15314 H 1459.74 3.36502 1.99705 0
M  V30 15315 H 1459.37 2.23579 3.28783 0
M  V30 15316 N 1460.36 -0.94061 1.26453 0
M  V30 15317 C 1461.64 -1.66421 1.02779 0
M  V30 15318 C 1462.02 -2.06429 -0.441614 0
M  V30 15319 O 1461.37 -1.78854 -1.42209 0
M  V30 15320 C 1461.58 -2.87599 1.97707 0
M  V30 15321 C 1462.93 -3.59237 2.26349 0
M  V30 15322 O 1463.95 -2.97704 1.95577 0
M  V30 15323 O 1462.81 -4.70068 2.78744 0
M  V30 15324 H 1459.9 -0.728813 0.390846 0
M  V30 15325 H 1462.45 -0.99229 1.37665 0
M  V30 15326 H 1461.22 -2.54929 2.96862 0
M  V30 15327 H 1460.84 -3.62516 1.63303 0
M  V30 15328 N 1461.84 -1.08266 -1.14527 0
M  V30 15329 C 1463.07 -0.832994 -1.89937 0
M  V30 15330 C 1463.49 0.608985 -1.77969 0
M  V30 15331 O 1462.85 1.42657 -1.11887 0
M  V30 15332 C 1462.9 -1.25782 -3.37952 0
M  V30 15333 O 1462 -0.408853 -4.10368 0
M  V30 15334 H 1461.34 -0.30267 -0.591005 0
M  V30 15335 H 1463.87 -1.44371 -1.44977 0
M  V30 15336 H 1463.88 -1.23804 -3.88763 0
M  V30 15337 H 1462.56 -2.30804 -3.4598 0
M  V30 15338 H 1461.13 -0.49192 -3.69641 0
M  V30 15339 N 1463.32 1.31536 -0.86811 0
M  V30 15340 C 1464.55 2.00952 -0.492529 0
M  V30 15341 C 1464.96 1.65174 0.914487 0
M  V30 15342 O 1464.32 0.880002 1.59882 0
M  V30 15343 C 1464.37 3.55829 -0.637798 0
M  V30 15344 O 1464.09 3.90326 -1.9894 0
M  V30 15345 C 1465.59 4.42519 -0.262986 0
M  V30 15346 H 1462.81 0.642913 -0.192105 0
M  V30 15347 H 1465.36 1.6781 -1.16876 0
M  V30 15348 H 1463.51 3.87399 -0.0091406 0
M  V30 15349 H 1463.93 4.85043 -1.99583 0
M  V30 15350 H 1465.4 5.50433 -0.415591 0
M  V30 15351 H 1465.88 4.31895 0.797705 0
M  V30 15352 H 1466.48 4.16363 -0.867268 0
M  V30 15353 N 1464.8 0.627364 1.44575 0
M  V30 15354 C 1466.04 0.130545 2.02379 0
M  V30 15355 C 1466.38 -1.24301 1.49208 0
M  V30 15356 O 1465.65 -1.82425 0.674626 0
M  V30 15357 C 1465.93 0.11311 3.59922 0
M  V30 15358 C 1465.79 1.51874 4.23385 0
M  V30 15359 C 1467.11 -0.564341 4.36467 0
M  V30 15360 H 1464.23 0.0489125 0.735375 0
M  V30 15361 H 1466.87 0.803118 1.72192 0
M  V30 15362 H 1465.02 -0.459621 3.85772 0
M  V30 15363 H 1466.69 2.14007 4.08655 0
M  V30 15364 H 1464.93 2.07371 3.81024 0
M  V30 15365 H 1465.6 1.4586 5.3238 0
M  V30 15366 H 1468.08 -0.0773244 4.16028 0
M  V30 15367 H 1466.96 -0.545715 5.46181 0
M  V30 15368 H 1467.22 -1.63403 4.10794 0
M  V30 15369 N 1466.28 -1.53251 0.367684 0
M  V30 15370 C 1467.22 -2.258 -0.477802 0
M  V30 15371 C 1468.19 -1.26554 -1.07579 0
M  V30 15372 O 1469.38 -1.5534 -1.10788 0
M  V30 15373 C 1466.52 -3.05216 -1.6105 0
M  V30 15374 C 1465.63 -4.19357 -1.03748 0
M  V30 15375 C 1464.77 -4.86211 -2.13945 0
M  V30 15376 C 1463.8 -5.9238 -1.5412 0
M  V30 15377 N 1462.94 -6.52916 -2.58158 0
M  V30 15378 H 1467.78 -2.97635 0.147367 0
M  V30 15379 H 1465.32 -1.46857 0.084495 0
M  V30 15380 H 1467.28 -3.49536 -2.27772 0
M  V30 15381 H 1465.91 -2.35632 -2.20629 0
M  V30 15382 H 1464.96 -3.79507 -0.260476 0
M  V30 15383 H 1466.27 -4.95645 -0.560105 0
M  V30 15384 H 1465.42 -5.33725 -2.88483 0
M  V30 15385 H 1464.16 -4.09399 -2.65035 0
M  V30 15386 H 1463.17 -5.44225 -0.780968 0
M  V30 15387 H 1464.39 -6.71112 -1.03852 0
M  V30 15388 H 1462.34 -5.78956 -3.08457 0
M  V30 15389 H 1462.26 -7.2475 -2.15113 0
M  V30 15390 H 1463.52 -7.05079 -3.32392 0
M  V30 15391 N 1467.75 -0.0969077 -1.57302 0
M  V30 15392 C 1468.69 0.898042 -2.09787 0
M  V30 15393 C 1469.66 1.27518 -1.00886 0
M  V30 15394 O 1470.85 1.3801 -1.28396 0
M  V30 15395 C 1467.98 2.19868 -2.57635 0
M  V30 15396 C 1467.02 1.97127 -3.7821 0
M  V30 15397 S 1467.85 1.20763 -5.21705 0
M  V30 15398 C 1469.01 2.52054 -5.72905 0
M  V30 15399 H 1469.24 0.451544 -2.93851 0
M  V30 15400 H 1466.78 0.116417 -1.5396 0
M  V30 15401 H 1468.73 2.9461 -2.85859 0
M  V30 15402 H 1467.4 2.61639 -1.73793 0
M  V30 15403 H 1466.59 2.93445 -4.09763 0
M  V30 15404 H 1466.19 1.30515 -3.50488 0
M  V30 15405 H 1468.48 3.4802 -5.81282 0
M  V30 15406 H 1469.43 2.25077 -6.71376 0
M  V30 15407 H 1469.83 2.6041 -5.00846 0
M  V30 15408 N 1469.23 1.56605 0.176793 0
M  V30 15409 C 1470.19 1.95109 1.20271 0
M  V30 15410 C 1471.19 0.83414 1.37473 0
M  V30 15411 O 1472.38 1.10128 1.34972 0
M  V30 15412 C 1469.52 2.24112 2.56878 0
M  V30 15413 H 1470.71 2.86909 0.87312 0
M  V30 15414 H 1468.26 1.50578 0.419033 0
M  V30 15415 H 1469 1.35009 2.94861 0
M  V30 15416 H 1468.78 3.05523 2.45761 0
M  V30 15417 H 1470.27 2.54842 3.30825 0
M  V30 15418 N 1470.71 -0.445159 1.51182 0
M  V30 15419 C 1471.93 -1.22249 1.67541 0
M  V30 15420 C 1472.36 -1.84446 0.368972 0
M  V30 15421 O 1471.72 -1.68463 -0.670058 0
M  V30 15422 C 1471.77 -2.288 2.78717 0
M  V30 15423 O 1470.87 -3.34094 2.41775 0
M  V30 15424 H 1470.21 -0.358516 0.558894 0
M  V30 15425 H 1472.74 -0.526696 1.97704 0
M  V30 15426 H 1472.75 -2.73708 3.02569 0
M  V30 15427 H 1471.43 -1.82906 3.73521 0
M  V30 15428 H 1470 -2.94717 2.28466 0
M  V30 15429 N 1472.19 -1.41197 -0.700089 0
M  V30 15430 C 1473.6 -1.3593 -1.27985 0
M  V30 15431 C 1473.95 -0.0402059 -1.96159 0
M  V30 15432 O 1473.07 0.861611 -1.98508 0
M  V30 15433 C 1473.67 -2.46203 -2.32743 0
M  V30 15434 C 1472.23 -2.44348 -2.86306 0
M  V30 15435 C 1471.38 -2.26283 -1.60285 0
M  V30 15436 H 1474.33 -1.50778 -0.495152 0
M  V30 15437 H 1474.35 -2.15001 -3.13934 0
M  V30 15438 H 1473.86 -3.42195 -1.83096 0
M  V30 15439 H 1471.96 -1.521 -3.40142 0
M  V30 15440 H 1472.07 -3.40497 -3.37044 0
M  V30 15441 H 1470.44 -1.74078 -1.85928 0
M  V30 15442 H 1471.22 -3.24295 -1.1264 0
M  V30 15443 N 1473.67 0.933891 -1.2695 0
M  V30 15444 C 1475.08 1.49578 -1.11728 0
M  V30 15445 C 1475.43 1.93895 0.299889 0
M  V30 15446 O 1474.55 1.806 1.19216 0
M  V30 15447 C 1475.15 2.71841 -2.02208 0
M  V30 15448 C 1473.71 3.24274 -1.9111 0
M  V30 15449 C 1472.85 1.97029 -1.95128 0
M  V30 15450 H 1475.8 0.748628 -1.39933 0
M  V30 15451 H 1475.83 3.46407 -1.57425 0
M  V30 15452 H 1475.34 2.39556 -3.05343 0
M  V30 15453 H 1473.44 3.61333 -0.909367 0
M  V30 15454 H 1473.55 3.90887 -2.77027 0
M  V30 15455 H 1471.92 2.13249 -1.39273 0
M  V30 15456 H 1472.7 1.67066 -2.99907 0
M  V30 15457 N 1475.14 1.08871 1.13951 0
M  V30 15458 C 1476.55 0.841552 1.66658 0
M  V30 15459 C 1476.91 -0.630932 1.85779 0
M  V30 15460 O 1476.03 -1.48673 1.57243 0
M  V30 15461 C 1476.63 1.52109 3.02735 0
M  V30 15462 C 1475.18 1.32105 3.52456 0
M  V30 15463 C 1474.33 1.58084 2.27826 0
M  V30 15464 H 1477.28 1.24865 0.97951 0
M  V30 15465 H 1477.3 0.950978 3.68425 0
M  V30 15466 H 1476.82 2.59276 2.88786 0
M  V30 15467 H 1474.92 0.270294 3.71618 0
M  V30 15468 H 1475.03 2.05197 4.32933 0
M  V30 15469 H 1473.39 1.00264 2.34135 0
M  V30 15470 H 1474.18 2.66467 2.16449 0
M  V30 15471 N 1476.62 -1.31073 0.875073 0
M  V30 15472 C 1477.85 -2.01223 0.502383 0
M  V30 15473 C 1478.27 -1.65223 -0.899053 0
M  V30 15474 O 1477.63 -0.863559 -1.59412 0
M  V30 15475 C 1477.68 -3.54269 0.672747 0
M  V30 15476 O 1476.78 -4.11409 -0.285718 0
M  V30 15477 H 1476.12 -0.633422 0.199181 0
M  V30 15478 H 1478.65 -1.67152 1.17989 0
M  V30 15479 H 1478.66 -4.04027 0.567973 0
M  V30 15480 H 1477.34 -3.79811 1.69459 0
M  V30 15481 H 1475.91 -3.72654 -0.135472 0
M  V30 15482 N 1478.1 -0.635022 -1.4424 0
M  V30 15483 C 1479.35 -0.140788 -2.01609 0
M  V30 15484 C 1479.67 1.24317 -1.50234 0
M  V30 15485 O 1478.94 1.82677 -0.707519 0
M  V30 15486 H 1477.52 -0.0490568 -0.745387 0
M  V30 15487 H 1480.18 -0.8226 -1.7669 0
M  V30 15488 H 1479.28 -0.111456 -3.11901 0
M  V30 15489 N 1479.58 1.53054 -0.375806 0
M  V30 15490 C 1480.99 1.86426 0.101188 0
M  V30 15491 C 1481.34 1.29603 1.47301 0
M  V30 15492 O 1480.47 0.622059 2.07266 0
M  V30 15493 C 1481.06 3.38265 0.190389 0
M  V30 15494 C 1479.62 3.71397 0.611653 0
M  V30 15495 C 1478.77 2.76304 -0.234801 0
M  V30 15496 H 1481.72 1.47156 -0.594211 0
M  V30 15497 H 1481.74 3.66793 1.01207 0
M  V30 15498 H 1481.25 3.79592 -0.80818 0
M  V30 15499 H 1479.35 3.35632 1.61808 0
M  V30 15500 H 1479.46 4.77597 0.379168 0
M  V30 15501 H 1477.83 2.52952 0.297888 0
M  V30 15502 H 1478.61 3.20467 -1.2311 0
M  V30 15503 N 1481.06 0.105248 1.57248 0
M  V30 15504 C 1482.47 -0.422304 1.81861 0
M  V30 15505 C 1482.82 -1.67508 1.02154 0
M  V30 15506 O 1481.94 -2.14905 0.253961 0
M  V30 15507 C 1482.54 -0.772943 3.29865 0
M  V30 15508 C 1481.1 -1.24519 3.55207 0
M  V30 15509 C 1480.24 -0.246936 2.76198 0
M  V30 15510 H 1483.2 0.330565 1.55219 0
M  V30 15511 H 1483.22 -1.6316 3.43743 0
M  V30 15512 H 1482.73 0.139033 3.87851 0
M  V30 15513 H 1480.83 -2.17453 3.02564 0
M  V30 15514 H 1480.94 -1.20001 4.63828 0
M  V30 15515 H 1479.31 -0.731171 2.43979 0
M  V30 15516 H 1480.09 0.657896 3.36937 0
M  V30 15517 N 1482.53 -1.56697 -0.168486 0
M  V30 15518 C 1483.76 -1.86652 -0.904195 0
M  V30 15519 C 1484.18 -0.691906 -1.74912 0
M  V30 15520 O 1483.54 0.358971 -1.77711 0
M  V30 15521 C 1483.59 -3.15043 -1.75442 0
M  V30 15522 O 1482.69 -2.97466 -2.85636 0
M  V30 15523 H 1482.04 -0.613859 -0.253128 0
M  V30 15524 H 1484.57 -2.03927 -0.165773 0
M  V30 15525 H 1484.58 -3.4652 -2.15378 0
M  V30 15526 H 1483.25 -4.00147 -1.13381 0
M  V30 15527 H 1481.83 -2.7735 -2.49262 0
M  V30 15528 N 1484.01 0.437135 -1.51416 0
M  V30 15529 C 1484.98 1.51313 -1.72154 0
M  V30 15530 C 1485.98 1.49523 -0.59157 0
M  V30 15531 O 1487.17 1.51541 -0.859118 0
M  V30 15532 C 1484.3 2.9085 -1.77818 0
M  V30 15533 H 1485.49 1.34229 -2.68184 0
M  V30 15534 H 1483.04 0.665822 -1.41409 0
M  V30 15535 H 1483.78 3.13338 -0.836033 0
M  V30 15536 H 1483.56 2.93554 -2.59939 0
M  V30 15537 H 1485.05 3.68905 -1.957 0
M  V30 15538 N 1485.49 1.41566 0.692592 0
M  V30 15539 C 1486.72 1.44445 1.48132 0
M  V30 15540 C 1487.13 0.0505867 1.88732 0
M  V30 15541 O 1486.49 -0.930779 1.5698 0
M  V30 15542 C 1486.54 2.35582 2.74196 0
M  V30 15543 O 1486.26 3.69545 2.35305 0
M  V30 15544 C 1487.76 2.47296 3.67912 0
M  V30 15545 H 1484.98 0.491877 0.456396 0
M  V30 15546 H 1487.53 1.85884 0.852499 0
M  V30 15547 H 1485.68 1.97445 3.33308 0
M  V30 15548 H 1486.1 4.1818 3.16584 0
M  V30 15549 H 1487.57 3.15225 4.53141 0
M  V30 15550 H 1488.05 1.50517 4.12603 0
M  V30 15551 H 1488.65 2.86082 3.14702 0
M  V30 15552 N 1486.97 -0.927146 1.27443 0
M  V30 15553 C 1487.92 -2.01402 1.06871 0
M  V30 15554 C 1488.9 -1.609 -0.00345395 0
M  V30 15555 O 1490.09 -1.75688 0.215147 0
M  V30 15556 C 1487.22 -3.35697 0.718508 0
M  V30 15557 C 1486.31 -3.82641 1.82884 0
M  V30 15558 N 1486.7 -4.02091 3.06849 0
M  V30 15559 C 1485 -4.11682 1.71564 0
M  V30 15560 C 1485.7 -4.41195 3.79107 0
M  V30 15561 N 1484.68 -4.48697 3.06874 0
M  V30 15562 H 1488.48 -2.14471 2.00946 0
M  V30 15563 H 1485.99 -1.11402 1.18166 0
M  V30 15564 H 1487.99 -4.13226 0.552238 0
M  V30 15565 H 1486.65 -3.2399 -0.214622 0
M  V30 15566 H 1487.66 -3.88384 3.42605 0
M  V30 15567 H 1484.34 -4.08685 0.853381 0
M  V30 15568 H 1485.73 -4.64318 4.85653 0
M  V30 15569 N 1488.45 -1.09474 -1.13372 0
M  V30 15570 C 1489.67 -0.852921 -1.88502 0
M  V30 15571 C 1490.09 0.595855 -1.79151 0
M  V30 15572 O 1489.45 1.41019 -1.15845 0
M  V30 15573 C 1489.5 -1.27993 -3.38083 0
M  V30 15574 O 1489.22 -2.67189 -3.47191 0
M  V30 15575 C 1490.72 -1.07056 -4.30179 0
M  V30 15576 H 1487.94 -0.30682 -0.596743 0
M  V30 15577 H 1490.48 -1.45685 -1.43513 0
M  V30 15578 H 1488.64 -0.719879 -3.80653 0
M  V30 15579 H 1489.05 -2.85202 -4.40182 0
M  V30 15580 H 1490.53 -1.4186 -5.3346 0
M  V30 15581 H 1491 -0.00838732 -4.39199 0
M  V30 15582 H 1491.61 -1.61659 -3.93378 0
M  V30 15583 N 1489.92 1.30607 -0.882012 0
M  V30 15584 C 1491.34 1.78418 -0.549892 0
M  V30 15585 C 1491.69 1.72553 0.933797 0
M  V30 15586 O 1490.81 1.30058 1.72956 0
M  V30 15587 C 1491.41 3.2397 -0.991398 0
M  V30 15588 C 1489.97 3.69629 -0.710739 0
M  V30 15589 C 1489.11 2.51127 -1.17602 0
M  V30 15590 H 1492.06 1.17519 -1.06653 0
M  V30 15591 H 1492.08 3.79159 -0.319115 0
M  V30 15592 H 1491.6 3.28207 -2.07128 0
M  V30 15593 H 1489.7 3.70883 0.357273 0
M  V30 15594 H 1489.81 4.61232 -1.29621 0
M  V30 15595 H 1488.17 2.47642 -0.595444 0
M  V30 15596 H 1488.96 2.58103 -2.26358 0
M  V30 15597 N 1491.4 0.642663 1.43901 0
M  V30 15598 C 1492.65 0.151778 2.0193 0
M  V30 15599 C 1492.98 -1.23052 1.50627 0
M  V30 15600 O 1492.23 -1.83305 0.685404 0
M  V30 15601 C 1492.53 0.100139 3.5726 0
M  V30 15602 C 1492.2 1.42276 4.27865 0
M  V30 15603 C 1490.86 1.78497 4.46869 0
M  V30 15604 C 1493.21 2.29526 4.67939 0
M  V30 15605 C 1490.54 3.01655 5.03211 0
M  V30 15606 C 1492.89 3.51966 5.25645 0
M  V30 15607 C 1491.56 3.88396 5.42867 0
M  V30 15608 H 1490.83 0.0555394 0.738916 0
M  V30 15609 H 1493.47 0.831273 1.72517 0
M  V30 15610 H 1491.78 -0.66277 3.86154 0
M  V30 15611 H 1493.47 -0.29638 3.99903 0
M  V30 15612 H 1490.06 1.13091 4.13411 0
M  V30 15613 H 1494.25 2.02835 4.52959 0
M  V30 15614 H 1489.5 3.29943 5.14731 0
M  V30 15615 H 1493.68 4.19799 5.55645 0
M  V30 15616 H 1491.31 4.83909 5.8629 0
M  V30 15617 N 1492.88 -1.52852 0.383918 0
M  V30 15618 C 1493.83 -2.23089 -0.470652 0
M  V30 15619 C 1494.82 -1.23278 -1.03399 0
M  V30 15620 O 1496.01 -1.48641 -0.960985 0
M  V30 15621 C 1493.14 -3.03721 -1.60025 0
M  V30 15622 C 1492.22 -4.10924 -1.04892 0
M  V30 15623 N 1492.61 -5.05312 -0.222083 0
M  V30 15624 C 1490.91 -4.25958 -1.32195 0
M  V30 15625 C 1491.61 -5.81642 0.0818929 0
M  V30 15626 N 1490.59 -5.41101 -0.520629 0
M  V30 15627 H 1494.39 -2.93421 0.167663 0
M  V30 15628 H 1491.9 -1.6125 0.192927 0
M  V30 15629 H 1493.9 -3.52572 -2.22482 0
M  V30 15630 H 1492.56 -2.34924 -2.24145 0
M  V30 15631 H 1493.57 -5.1771 0.140223 0
M  V30 15632 H 1490.25 -3.68389 -1.96457 0
M  V30 15633 H 1491.64 -6.67684 0.751481 0
M  V30 15634 N 1494.36 -0.113586 -1.5719 0
M  V30 15635 C 1495.29 0.868985 -2.12088 0
M  V30 15636 C 1496.3 1.23362 -1.06233 0
M  V30 15637 O 1497.49 1.18352 -1.33623 0
M  V30 15638 C 1494.59 2.17252 -2.60106 0
M  V30 15639 C 1493.77 1.9804 -3.89999 0
M  V30 15640 C 1492.83 3.12073 -4.23671 0
M  V30 15641 O 1491.85 2.85224 -4.92581 0
M  V30 15642 N 1493.05 4.38358 -3.80556 0
M  V30 15643 H 1495.82 0.399996 -2.97019 0
M  V30 15644 H 1493.38 0.0709947 -1.61744 0
M  V30 15645 H 1495.37 2.92523 -2.79665 0
M  V30 15646 H 1493.94 2.55516 -1.80084 0
M  V30 15647 H 1493.16 1.06993 -3.79402 0
M  V30 15648 H 1494.45 1.82502 -4.74943 0
M  V30 15649 H 1493.85 4.63048 -3.24966 0
M  V30 15650 H 1492.4 5.10518 -4.05234 0
M  V30 15651 N 1495.84 1.56784 0.160173 0
M  V30 15652 C 1497.06 1.87129 0.894283 0
M  V30 15653 C 1497.49 0.701172 1.74543 0
M  V30 15654 O 1496.85 -0.349542 1.77899 0
M  V30 15655 C 1496.89 3.15969 1.73769 0
M  V30 15656 O 1496 2.98977 2.84054 0
M  V30 15657 H 1495.34 0.615192 0.249869 0
M  V30 15658 H 1497.87 2.04012 0.154956 0
M  V30 15659 H 1497.88 3.47657 2.13538 0
M  V30 15660 H 1496.55 4.00742 1.11258 0
M  V30 15661 H 1495.13 2.78668 2.47788 0
M  V30 15662 N 1497.32 -0.429099 1.51646 0
M  V30 15663 C 1498.73 -1.00868 1.57107 0
M  V30 15664 C 1499.08 -1.9209 0.399483 0
M  V30 15665 O 1498.2 -2.10948 -0.482709 0
M  V30 15666 C 1498.8 -1.83612 2.84732 0
M  V30 15667 C 1497.36 -2.36605 2.92737 0
M  V30 15668 C 1496.5 -1.1604 2.51853 0
M  V30 15669 H 1499.45 -0.21006 1.57304 0
M  V30 15670 H 1499.48 -2.69149 2.68959 0
M  V30 15671 H 1498.99 -1.17192 3.69983 0
M  V30 15672 H 1497.09 -3.06455 2.11934 0
M  V30 15673 H 1497.2 -2.68838 3.96564 0
M  V30 15674 H 1495.57 -1.50826 2.0524 0
M  V30 15675 H 1496.35 -0.51218 3.39458 0
M  V30 15676 N 1498.79 -1.41931 -0.685074 0
M  V30 15677 C 1500.04 -1.42062 -1.44728 0
M  V30 15678 C 1500.37 -0.0332072 -1.94172 0
M  V30 15679 O 1499.65 0.940835 -1.70231 0
M  V30 15680 C 1499.93 -2.43634 -2.65168 0
M  V30 15681 C 1499.78 -3.91525 -2.21423 0
M  V30 15682 C 1501.1 -2.42325 -3.67378 0
M  V30 15683 H 1498.22 -0.517321 -0.524927 0
M  V30 15684 H 1500.86 -1.73277 -0.779419 0
M  V30 15685 H 1499.01 -2.17146 -3.22149 0
M  V30 15686 H 1500.69 -4.28956 -1.69689 0
M  V30 15687 H 1498.93 -4.05886 -1.53099 0
M  V30 15688 H 1499.6 -4.58158 -3.07889 0
M  V30 15689 H 1502.08 -2.65857 -3.20093 0
M  V30 15690 H 1500.95 -3.15391 -4.49243 0
M  V30 15691 H 1501.21 -1.44555 -4.17799 0
M  V30 15692 N 1500.27 0.920374 -1.27933 0
M  V30 15693 C 1501.18 2.05525 -1.13123 0
M  V30 15694 C 1502.2 1.73899 -0.059421 0
M  V30 15695 O 1503.37 1.99617 -0.267386 0
M  V30 15696 C 1500.44 3.37637 -0.787551 0
M  V30 15697 C 1499.5 3.82914 -1.94101 0
M  V30 15698 C 1498.73 5.08721 -1.61364 0
M  V30 15699 O 1498.96 5.6798 -0.524918 0
M  V30 15700 O 1497.89 5.4955 -2.45517 0
M  V30 15701 H 1501.72 2.20935 -2.08378 0
M  V30 15702 H 1499.3 1.04071 -1.07189 0
M  V30 15703 H 1501.18 4.16968 -0.609544 0
M  V30 15704 H 1499.86 3.23417 0.135407 0
M  V30 15705 H 1498.76 3.04438 -2.17413 0
M  V30 15706 H 1500.1 4.01687 -2.84444 0
M  V30 15707 N 1501.75 1.10074 1.1279 0
M  V30 15708 C 1502.66 0.758458 2.22001 0
M  V30 15709 C 1503.68 -0.242438 1.72303 0
M  V30 15710 O 1504.85 -0.0821223 2.01233 0
M  V30 15711 C 1501.92 0.191326 3.46172 0
M  V30 15712 C 1500.98 1.24902 4.10729 0
M  V30 15713 C 1500.21 0.708857 5.28972 0
M  V30 15714 O 1500.43 -0.465993 5.68493 0
M  V30 15715 O 1499.37 1.46703 5.83748 0
M  V30 15716 H 1503.19 1.66997 2.53665 0
M  V30 15717 H 1500.78 0.875604 1.21052 0
M  V30 15718 H 1502.66 -0.121292 4.21225 0
M  V30 15719 H 1501.34 -0.693094 3.16193 0
M  V30 15720 H 1500.24 1.61444 3.37471 0
M  V30 15721 H 1501.58 2.10632 4.44854 0
M  V30 15722 N 1503.23 -1.30138 0.888926 0
M  V30 15723 C 1504.17 -2.28023 0.356923 0
M  V30 15724 C 1505.14 -1.56551 -0.555066 0
M  V30 15725 O 1506.33 -1.84595 -0.482633 0
M  V30 15726 C 1503.47 -3.42546 -0.419056 0
M  V30 15727 C 1502.58 -4.28827 0.5226 0
M  V30 15728 C 1501.72 -5.30517 -0.269366 0
M  V30 15729 C 1500.76 -6.08449 0.667507 0
M  V30 15730 N 1499.89 -7.02043 -0.08938 0
M  V30 15731 H 1504.73 -2.72912 1.19678 0
M  V30 15732 H 1502.27 -1.34239 0.60152 0
M  V30 15733 H 1504.23 -4.07707 -0.884911 0
M  V30 15734 H 1502.86 -2.98716 -1.22346 0
M  V30 15735 H 1501.91 -3.63938 1.10695 0
M  V30 15736 H 1503.22 -4.83136 1.24018 0
M  V30 15737 H 1502.38 -6.01444 -0.796901 0
M  V30 15738 H 1501.12 -4.76911 -1.02014 0
M  V30 15739 H 1500.12 -5.36396 1.20664 0
M  V30 15740 H 1501.35 -6.64143 1.41744 0
M  V30 15741 H 1499.29 -6.50822 -0.822622 0
M  V30 15742 H 1499.21 -7.53859 0.568499 0
M  V30 15743 H 1500.48 -7.77206 -0.597529 0
M  V30 15744 N 1504.71 -0.650285 -1.43559 0
M  V30 15745 C 1505.93 -0.168483 -2.06715 0
M  V30 15746 C 1506.36 1.15576 -1.48404 0
M  V30 15747 O 1505.71 1.71333 -0.592842 0
M  V30 15748 C 1505.76 -0.0877095 -3.60493 0
M  V30 15749 O 1504.87 0.950915 -4.01287 0
M  V30 15750 H 1504.21 -0.0935281 -0.65738 0
M  V30 15751 H 1506.74 -0.892381 -1.84113 0
M  V30 15752 H 1506.75 0.0965825 -4.07886 0
M  V30 15753 H 1505.42 -1.05442 -4.02312 0
M  V30 15754 H 1504 0.739648 -3.65491 0
M  V30 15755 N 1506.18 1.52647 -0.392018 0
M  V30 15756 C 1507.09 2.30261 0.449093 0
M  V30 15757 C 1508.11 1.37286 1.06905 0
M  V30 15758 O 1509.29 1.70357 1.07427 0
M  V30 15759 C 1506.35 3.09636 1.55969 0
M  V30 15760 C 1505.41 4.18324 0.964566 0
M  V30 15761 C 1504.64 4.93904 2.02224 0
M  V30 15762 O 1504.87 4.69603 3.23773 0
M  V30 15763 O 1503.8 5.79183 1.63802 0
M  V30 15764 H 1507.63 3.03147 -0.183269 0
M  V30 15765 H 1505.21 1.48587 -0.155664 0
M  V30 15766 H 1507.09 3.59118 2.20482 0
M  V30 15767 H 1505.77 2.39561 2.17697 0
M  V30 15768 H 1504.68 3.73031 0.282618 0
M  V30 15769 H 1506.01 4.90641 0.391466 0
M  V30 15770 N 1507.66 0.121921 1.57128 0
M  V30 15771 C 1509.07 -0.402991 1.82299 0
M  V30 15772 C 1509.42 -1.66415 1.03925 0
M  V30 15773 O 1508.55 -2.14623 0.27674 0
M  V30 15774 C 1509.14 -0.737913 3.30666 0
M  V30 15775 C 1507.7 -1.20745 3.56508 0
M  V30 15776 C 1506.85 -0.217628 2.76445 0
M  V30 15777 H 1509.8 0.347009 1.5486 0
M  V30 15778 H 1509.82 -1.59505 3.45454 0
M  V30 15779 H 1509.33 0.180162 3.87682 0
M  V30 15780 H 1507.44 -2.14232 3.04853 0
M  V30 15781 H 1507.55 -1.15075 4.65075 0
M  V30 15782 H 1505.91 -0.705253 2.44741 0
M  V30 15783 H 1506.7 0.693596 3.3622 0
M  V30 15784 N 1509.14 -1.56867 -0.151857 0
M  V30 15785 C 1510.07 -1.94494 -1.21263 0
M  V30 15786 C 1511.09 -0.84021 -1.39443 0
M  V30 15787 O 1512.27 -1.11863 -1.391 0
M  V30 15788 C 1509.37 -2.19952 -2.57826 0
M  V30 15789 C 1508.55 -3.51227 -2.60689 0
M  V30 15790 C 1507.61 -3.65282 -3.78756 0
M  V30 15791 O 1506.63 -4.3772 -3.63854 0
M  V30 15792 N 1507.83 -3.01582 -4.96012 0
M  V30 15793 H 1510.6 -2.86092 -0.892845 0
M  V30 15794 H 1508.16 -1.58258 -0.341463 0
M  V30 15795 H 1510.15 -2.266 -3.35312 0
M  V30 15796 H 1508.72 -1.34643 -2.82117 0
M  V30 15797 H 1507.94 -3.56062 -1.69155 0
M  V30 15798 H 1509.23 -4.37574 -2.59628 0
M  V30 15799 H 1508.63 -2.42637 -5.11022 0
M  V30 15800 H 1507.19 -3.13799 -5.71291 0
M  V30 15801 N 1510.62 0.421051 -1.51871 0
M  V30 15802 C 1511.9 1.18133 -1.55897 0
M  V30 15803 C 1512.28 2.08459 -0.332876 0
M  V30 15804 O 1511.62 2.18114 0.681052 0
M  V30 15805 C 1511.83 1.96902 -2.88151 0
M  V30 15806 C 1513.18 2.53382 -3.4071 0
M  V30 15807 O 1514.21 2.07095 -2.89811 0
M  V30 15808 O 1513.06 3.37846 -4.29561 0
M  V30 15809 H 1510.16 0.538721 -0.627462 0
M  V30 15810 H 1512.7 0.428798 -1.64193 0
M  V30 15811 H 1511.48 1.30659 -3.68841 0
M  V30 15812 H 1511.1 2.79185 -2.83093 0
M  V30 15813 N 1512.1 1.42293 0.677538 0
M  V30 15814 C 1513.34 1.42616 1.4376 0
M  V30 15815 C 1513.67 0.0416268 1.94455 0
M  V30 15816 O 1512.93 -0.949544 1.7112 0
M  V30 15817 C 1513.23 2.3951 2.65273 0
M  V30 15818 C 1512.89 3.85952 2.33135 0
M  V30 15819 C 1511.55 4.25842 2.24081 0
M  V30 15820 C 1513.91 4.78337 2.06987 0
M  V30 15821 C 1511.23 5.561 1.87001 0
M  V30 15822 C 1513.59 6.08934 1.71411 0
M  V30 15823 C 1512.25 6.47826 1.60865 0
M  V30 15824 H 1511.52 0.521869 0.526055 0
M  V30 15825 H 1514.17 1.75214 0.772797 0
M  V30 15826 H 1512.47 2.00229 3.36773 0
M  V30 15827 H 1514.17 2.37025 3.2345 0
M  V30 15828 H 1510.76 3.54369 2.41083 0
M  V30 15829 H 1514.94 4.48308 2.12916 0
M  V30 15830 H 1510.2 5.85097 1.77403 0
M  V30 15831 H 1514.37 6.80009 1.50203 0
M  V30 15832 H 1512 7.48669 1.31902 0
M  V30 15833 N 1513.57 -0.913576 1.28419 0
M  V30 15834 C 1514.51 -2.02073 1.08163 0
M  V30 15835 C 1515.52 -1.62766 0.0333064 0
M  V30 15836 O 1516.71 -1.76347 0.27638 0
M  V30 15837 C 1513.81 -3.33151 0.621596 0
M  V30 15838 C 1512.98 -4.01068 1.74536 0
M  V30 15839 C 1512.04 -5.10428 1.27868 0
M  V30 15840 O 1511.07 -5.33617 1.98094 0
M  V30 15841 N 1512.27 -5.80326 0.141976 0
M  V30 15842 H 1515.03 -2.20009 2.0351 0
M  V30 15843 H 1512.59 -1.08488 1.20174 0
M  V30 15844 H 1514.59 -4.03638 0.292989 0
M  V30 15845 H 1513.16 -3.11685 -0.239031 0
M  V30 15846 H 1512.38 -3.24127 2.24355 0
M  V30 15847 H 1513.66 -4.4319 2.49919 0
M  V30 15848 H 1513.06 -5.63956 -0.443845 0
M  V30 15849 H 1511.62 -6.51676 -0.127354 0
M  V30 15850 N 1515.05 -1.1067 -1.12204 0
M  V30 15851 C 1515.96 -0.770221 -2.21596 0
M  V30 15852 C 1516.98 0.233297 -1.72429 0
M  V30 15853 O 1518.15 0.0714493 -2.01273 0
M  V30 15854 C 1515.22 -0.209682 -3.46065 0
M  V30 15855 C 1514.28 -1.27079 -4.1006 0
M  V30 15856 C 1513.51 -0.736899 -5.28588 0
M  V30 15857 O 1513.74 0.435838 -5.68732 0
M  V30 15858 O 1512.67 -1.49797 -5.82962 0
M  V30 15859 H 1516.5 -1.6834 -2.52776 0
M  V30 15860 H 1514.08 -0.882012 -1.20586 0
M  V30 15861 H 1515.96 0.0989516 -4.21284 0
M  V30 15862 H 1514.64 0.676316 -3.16556 0
M  V30 15863 H 1513.55 -1.63231 -3.3661 0
M  V30 15864 H 1514.88 -2.12989 -4.4373 0
M  V30 15865 N 1516.53 1.29665 -0.895815 0
M  V30 15866 C 1517.49 2.26103 -0.3755 0
M  V30 15867 C 1518.49 1.53212 0.488126 0
M  V30 15868 O 1519.68 1.71706 0.293733 0
M  V30 15869 C 1516.82 3.37732 0.46364 0
M  V30 15870 H 1518.01 2.73643 -1.22718 0
M  V30 15871 H 1515.56 1.4104 -0.673613 0
M  V30 15872 H 1516.3 2.95526 1.33546 0
M  V30 15873 H 1516.08 3.91793 -0.155123 0
M  V30 15874 H 1517.57 4.09488 0.819112 0
M  V30 15875 N 1518.01 0.657889 1.43212 0
M  V30 15876 C 1519.29 0.102895 1.95329 0
M  V30 15877 C 1519.67 -1.37821 1.59901 0
M  V30 15878 O 1519.01 -2.10602 0.886505 0
M  V30 15879 C 1519.22 0.354075 3.47199 0
M  V30 15880 C 1520.57 0.261511 4.23794 0
M  V30 15881 O 1521.6 0.286889 3.55043 0
M  V30 15882 O 1520.45 0.189209 5.46172 0
M  V30 15883 H 1517.55 -0.00692284 0.826971 0
M  V30 15884 H 1520.09 0.73145 1.53127 0
M  V30 15885 H 1518.87 1.38075 3.6613 0
M  V30 15886 H 1518.49 -0.307321 3.96411 0
M  V30 15887 N 1519.49 -1.52437 0.400108 0
M  V30 15888 C 1520.71 -2.0661 -0.180861 0
M  V30 15889 C 1521.14 -1.269 -1.38845 0
M  V30 15890 O 1520.49 -0.296862 -1.78853 0
M  V30 15891 C 1520.54 -3.56851 -0.518595 0
M  V30 15892 O 1519.65 -3.79634 -1.61095 0
M  V30 15893 H 1518.99 -0.663752 -0.0181348 0
M  V30 15894 H 1521.52 -1.96479 0.570702 0
M  V30 15895 H 1521.53 -4.00478 -0.779817 0
M  V30 15896 H 1520.2 -4.14302 0.364216 0
M  V30 15897 H 1518.78 -3.47892 -1.3426 0
M  V30 15898 N 1520.96 -0.130252 -1.57061 0
M  V30 15899 C 1522.21 0.519478 -1.96654 0
M  V30 15900 C 1522.57 1.63568 -1.01308 0
M  V30 15901 O 1521.86 1.91547 -0.0450944 0
M  V30 15902 C 1522.05 1.08776 -3.40445 0
M  V30 15903 C 1521.88 0.0281442 -4.49691 0
M  V30 15904 C 1520.65 -0.407544 -5.03654 0
M  V30 15905 C 1522.85 -0.757073 -5.08697 0
M  V30 15906 N 1520.83 -1.45175 -5.96488 0
M  V30 15907 C 1522.2 -1.65219 -5.97581 0
M  V30 15908 C 1524.26 -0.806718 -4.91321 0
M  V30 15909 C 1522.96 -2.59266 -6.7095 0
M  V30 15910 C 1524.99 -1.73494 -5.65379 0
M  V30 15911 C 1524.35 -2.61761 -6.53957 0
M  V30 15912 H 1520.45 0.159387 -0.765585 0
M  V30 15913 H 1523.03 -0.220978 -1.93442 0
M  V30 15914 H 1521.2 1.79788 -3.44283 0
M  V30 15915 H 1522.93 1.70273 -3.67137 0
M  V30 15916 H 1519.69 -0.0129839 -4.73598 0
M  V30 15917 H 1520.11 -1.97311 -6.47609 0
M  V30 15918 H 1524.76 -0.138406 -4.22573 0
M  V30 15919 H 1522.47 -3.27105 -7.38937 0
M  V30 15920 H 1526.06 -1.77894 -5.53936 0
M  V30 15921 H 1524.94 -3.32418 -7.10259 0
M  V30 15922 N 1522.44 1.56945 0.143535 0
M  V30 15923 C 1523.69 1.83176 0.853873 0
M  V30 15924 C 1524.01 0.71168 1.81549 0
M  V30 15925 O 1523.28 -0.266391 1.9408 0
M  V30 15926 H 1521.86 0.675785 0.318313 0
M  V30 15927 H 1524.52 1.9442 0.136712 0
M  V30 15928 H 1523.62 2.7823 1.41402 0
M  V30 15929 N 1523.92 -0.412991 1.52093 0
M  V30 15930 C 1525.2 -1.17304 1.56522 0
M  V30 15931 C 1525.58 -2.0828 0.343926 0
M  V30 15932 O 1524.93 -2.18473 -0.669475 0
M  V30 15933 C 1525.14 -1.95371 2.89191 0
M  V30 15934 C 1526.48 -2.51571 3.42048 0
M  V30 15935 O 1527.51 -2.05555 2.90905 0
M  V30 15936 O 1526.37 -3.35563 4.31347 0
M  V30 15937 H 1523.46 -0.535386 0.63031 0
M  V30 15938 H 1526.01 -0.420084 1.64418 0
M  V30 15939 H 1524.78 -1.28701 3.69529 0
M  V30 15940 H 1524.4 -2.7768 2.84569 0
M  V30 15941 N 1525.4 -1.4265 -0.669982 0
M  V30 15942 C 1526.63 -1.46784 -1.45816 0
M  V30 15943 C 1527.04 -0.080606 -1.88628 0
M  V30 15944 O 1526.4 0.905687 -1.58441 0
M  V30 15945 C 1526.45 -2.39915 -2.70413 0
M  V30 15946 O 1526.17 -3.73241 -2.29396 0
M  V30 15947 C 1527.67 -2.53118 -3.63931 0
M  V30 15948 H 1524.89 -0.499076 -0.448513 0
M  V30 15949 H 1527.44 -1.87216 -0.822819 0
M  V30 15950 H 1525.59 -2.02722 -3.30125 0
M  V30 15951 H 1526.01 -4.23164 -3.09891 0
M  V30 15952 H 1527.48 -3.22395 -4.48069 0
M  V30 15953 H 1527.96 -1.57062 -4.10156 0
M  V30 15954 H 1528.56 -2.91052 -3.10111 0
M  V30 15955 N 1526.88 0.906753 -1.28902 0
M  V30 15956 C 1527.82 2.01004 -1.13429 0
M  V30 15957 C 1528.79 1.66074 -0.0295031 0
M  V30 15958 O 1529.98 1.89793 -0.195727 0
M  V30 15959 C 1527.12 3.35473 -0.809457 0
M  V30 15960 C 1526.23 3.83229 -1.99398 0
M  V30 15961 C 1525.37 5.06241 -1.60915 0
M  V30 15962 C 1524.41 5.46348 -2.7599 0
M  V30 15963 N 1523.54 6.60548 -2.37952 0
M  V30 15964 H 1528.38 2.13571 -2.07825 0
M  V30 15965 H 1525.92 1.046 -1.03428 0
M  V30 15966 H 1527.88 4.12836 -0.601845 0
M  V30 15967 H 1526.51 3.22652 0.0975896 0
M  V30 15968 H 1525.56 3.01962 -2.31351 0
M  V30 15969 H 1526.87 4.08908 -2.85649 0
M  V30 15970 H 1526.03 5.91168 -1.36401 0
M  V30 15971 H 1524.77 4.82385 -0.718021 0
M  V30 15972 H 1523.77 4.59959 -3.01195 0
M  V30 15973 H 1525 5.72188 -3.65757 0
M  V30 15974 H 1522.94 6.38309 -1.51318 0
M  V30 15975 H 1522.86 6.85987 -3.17738 0
M  V30 15976 H 1524.13 7.48762 -2.1674 0
M  V30 15977 N 1528.36 1.11264 1.11616 0
M  V30 15978 C 1529.77 0.846176 1.35322 0
M  V30 15979 C 1529.97 -0.530043 1.94404 0
M  V30 15980 O 1529.03 -1.28122 2.1758 0
M  V30 15981 C 1530.34 1.9528 2.28662 0
M  V30 15982 C 1531.89 1.98225 2.42231 0
M  V30 15983 C 1532.36 3.08086 3.38891 0
M  V30 15984 N 1533.85 3.07448 3.46453 0
M  V30 15985 C 1534.59 3.89094 4.21181 0
M  V30 15986 N 1534.09 4.80698 4.989 0
M  V30 15987 N 1535.88 3.77279 4.16674 0
M  V30 15988 H 1528.03 1.99958 0.716284 0
M  V30 15989 H 1530.29 0.869439 0.377862 0
M  V30 15990 H 1530 2.94381 1.92439 0
M  V30 15991 H 1529.87 1.84739 3.28864 0
M  V30 15992 H 1532.26 0.997517 2.77729 0
M  V30 15993 H 1532.34 2.12842 1.41887 0
M  V30 15994 H 1531.98 4.06784 3.0412 0
M  V30 15995 H 1531.91 2.90709 4.39085 0
M  V30 15996 H 1534.41 2.41077 2.91016 0
M  V30 15997 H 1534.72 5.39535 5.53282 0
M  V30 15998 H 1533.06 4.84721 4.98067 0
M  V30 15999 H 1536.25 3.05059 3.55044 0
M  V30 16000 H 1536.43 4.41142 4.74655 0
M  V30 16001 N 1529.83 -1.29188 0.902679 0
M  V30 16002 C 1531.06 -1.99576 0.545635 0
M  V30 16003 C 1531.48 -1.67541 -0.870372 0
M  V30 16004 O 1530.83 -0.922082 -1.57493 0
M  V30 16005 C 1530.88 -3.54013 0.731916 0
M  V30 16006 O 1530.61 -3.84914 2.09219 0
M  V30 16007 C 1532.11 -4.41666 0.38022 0
M  V30 16008 H 1529.33 -0.637593 0.209083 0
M  V30 16009 H 1531.87 -1.64652 1.21284 0
M  V30 16010 H 1530.03 -3.87239 0.111849 0
M  V30 16011 H 1530.44 -4.79581 2.12373 0
M  V30 16012 H 1531.91 -5.49138 0.561382 0
M  V30 16013 H 1532.39 -4.33858 -0.682915 0
M  V30 16014 H 1533 -4.13918 0.977354 0
M  V30 16015 N 1531.31 -0.665475 -1.42861 0
M  V30 16016 C 1532.72 -0.26225 -1.84849 0
M  V30 16017 C 1533.07 1.19372 -1.55707 0
M  V30 16018 O 1532.2 1.91269 -1.01218 0
M  V30 16019 C 1532.79 -0.469189 -3.35535 0
M  V30 16020 C 1531.35 -0.120172 -3.76208 0
M  V30 16021 C 1530.5 -0.766153 -2.66506 0
M  V30 16022 H 1533.45 -0.868296 -1.32839 0
M  V30 16023 H 1533.47 0.281571 -3.79457 0
M  V30 16024 H 1532.98 -1.52894 -3.56714 0
M  V30 16025 H 1531.08 0.936505 -3.60639 0
M  V30 16026 H 1531.2 -0.554188 -4.75884 0
M  V30 16027 H 1529.56 -0.198292 -2.53927 0
M  V30 16028 H 1530.34 -1.82918 -2.9051 0
M  V30 16029 N 1532.79 1.52222 -0.408187 0
M  V30 16030 C 1534.04 2.01404 0.167574 0
M  V30 16031 C 1534.36 1.29572 1.45726 0
M  V30 16032 O 1533.63 0.421363 1.91315 0
M  V30 16033 H 1532.21 0.744174 0.0649156 0
M  V30 16034 H 1534.87 1.87148 -0.544212 0
M  V30 16035 H 1533.97 3.09966 0.36436 0
M  V30 16036 N 1534.27 0.138579 1.5699 0
M  V30 16037 C 1535.51 -0.51539 1.96142 0
M  V30 16038 C 1535.85 -1.65067 1.02306 0
M  V30 16039 O 1535.12 -1.94395 0.0638645 0
M  V30 16040 C 1535.4 -1.02956 3.45068 0
M  V30 16041 C 1535.26 0.103646 4.49681 0
M  V30 16042 C 1536.58 -1.91411 3.96295 0
M  V30 16043 H 1533.7 -0.185873 0.713176 0
M  V30 16044 H 1536.34 0.218103 1.88744 0
M  V30 16045 H 1534.49 -1.65462 3.51503 0
M  V30 16046 H 1536.16 0.739693 4.55331 0
M  V30 16047 H 1534.4 0.764014 4.27019 0
M  V30 16048 H 1535.07 -0.297688 5.51197 0
M  V30 16049 H 1537.55 -1.38746 3.92286 0
M  V30 16050 H 1536.43 -2.24298 5.0098 0
M  V30 16051 H 1536.69 -2.84793 3.38149 0
M  V30 16052 N 1535.75 -1.57019 -0.13521 0
M  V30 16053 C 1536.99 -1.83626 -0.844147 0
M  V30 16054 C 1537.31 -0.721298 -1.81169 0
M  V30 16055 O 1536.58 0.256095 -1.94219 0
M  V30 16056 H 1535.16 -0.677464 -0.314725 0
M  V30 16057 H 1537.83 -1.9449 -0.126399 0
M  V30 16058 H 1536.92 -2.78976 -1.39925 0
M  V30 16059 N 1537.22 0.404919 -1.52309 0
M  V30 16060 C 1538.17 1.49363 -1.75953 0
M  V30 16061 C 1539.14 1.54802 -0.60212 0
M  V30 16062 O 1540.33 1.71308 -0.840128 0
M  V30 16063 C 1537.47 2.86767 -1.91987 0
M  V30 16064 C 1536.58 2.90603 -3.19646 0
M  V30 16065 C 1535.71 4.19333 -3.26088 0
M  V30 16066 C 1534.75 4.17161 -4.47932 0
M  V30 16067 N 1533.89 5.37469 -4.51743 0
M  V30 16068 H 1538.73 1.28503 -2.6887 0
M  V30 16069 H 1536.27 0.623684 -1.33224 0
M  V30 16070 H 1538.23 3.66536 -1.99267 0
M  V30 16071 H 1536.86 3.06112 -1.02447 0
M  V30 16072 H 1535.91 2.033 -3.21517 0
M  V30 16073 H 1537.22 2.84864 -4.09456 0
M  V30 16074 H 1536.37 5.07497 -3.32463 0
M  V30 16075 H 1535.11 4.27774 -2.34224 0
M  V30 16076 H 1534.12 3.27386 -4.417 0
M  V30 16077 H 1535.34 4.10356 -5.41096 0
M  V30 16078 H 1533.29 5.46569 -3.62764 0
M  V30 16079 H 1533.21 5.3374 -5.35404 0
M  V30 16080 H 1534.47 6.27575 -4.62353 0
M  V30 16081 N 1538.7 1.43003 0.662408 0
M  V30 16082 C 1539.61 1.49876 1.80484 0
M  V30 16083 C 1540.63 0.386526 1.69653 0
M  V30 16084 O 1541.8 0.639289 1.90984 0
M  V30 16085 C 1538.87 1.41057 3.16708 0
M  V30 16086 C 1537.93 2.62875 3.39404 0
M  V30 16087 C 1537.16 2.54468 4.69129 0
M  V30 16088 O 1537.39 1.58735 5.47868 0
M  V30 16089 O 1536.32 3.44814 4.93343 0
M  V30 16090 H 1540.15 2.46327 1.77641 0
M  V30 16091 H 1537.73 1.24903 0.81973 0
M  V30 16092 H 1539.61 1.38547 3.97973 0
M  V30 16093 H 1538.29 0.477361 3.20161 0
M  V30 16094 H 1537.2 2.70958 2.57939 0
M  V30 16095 H 1538.53 3.55137 3.40791 0
M  V30 16096 N 1540.18 -0.899904 1.29381 0
M  V30 16097 C 1541.46 -1.63067 1.08021 0
M  V30 16098 C 1541.84 -2.0773 -0.375716 0
M  V30 16099 O 1541.19 -1.83288 -1.36447 0
M  V30 16100 C 1541.4 -2.81163 2.06757 0
M  V30 16101 C 1542.74 -3.51854 2.37664 0
M  V30 16102 O 1543.77 -2.91332 2.0495 0
M  V30 16103 O 1542.63 -4.60962 2.93558 0
M  V30 16104 H 1539.72 -0.71601 0.413835 0
M  V30 16105 H 1542.27 -0.947991 1.40752 0
M  V30 16106 H 1541.04 -2.45355 3.04822 0
M  V30 16107 H 1540.66 -3.57137 1.74754 0
M  V30 16108 N 1541.66 -1.11854 -1.11024 0
M  V30 16109 C 1542.62 -0.784033 -2.15373 0
M  V30 16110 C 1543.62 0.198686 -1.59568 0
M  V30 16111 O 1544.81 -0.0263428 -1.7418 0
M  V30 16112 C 1541.94 -0.163987 -3.40505 0
M  V30 16113 H 1543.14 -1.70849 -2.46477 0
M  V30 16114 H 1540.69 -0.920988 -1.26283 0
M  V30 16115 H 1541.42 0.770483 -3.15014 0
M  V30 16116 H 1541.21 -0.871447 -3.82293 0
M  V30 16117 H 1542.7 0.0537739 -4.17565 0
M  V30 16118 N 1543.14 1.28707 -0.909517 0
M  V30 16119 C 1544.1 2.25692 -0.39946 0
M  V30 16120 C 1545.1 1.53721 0.471848 0
M  V30 16121 O 1546.29 1.72008 0.275504 0
M  V30 16122 C 1543.42 3.38205 0.427793 0
M  V30 16123 H 1544.61 2.72326 -1.25613 0
M  V30 16124 H 1542.17 1.40317 -0.688535 0
M  V30 16125 H 1542.9 2.96926 1.30404 0
M  V30 16126 H 1542.69 3.91606 -0.19667 0
M  V30 16127 H 1544.18 4.10334 0.775634 0
M  V30 16128 N 1544.61 0.673042 1.42506 0
M  V30 16129 C 1545.52 -0.00648572 2.34599 0
M  V30 16130 C 1546.54 -0.790758 1.54994 0
M  V30 16131 O 1547.72 -0.733482 1.87569 0
M  V30 16132 C 1544.78 -0.94734 3.33506 0
M  V30 16133 C 1543.84 -0.157795 4.2901 0
M  V30 16134 C 1543.08 -1.05384 5.23192 0
M  V30 16135 O 1543.3 -2.29334 5.22266 0
M  V30 16136 O 1542.23 -0.515584 5.99688 0
M  V30 16137 H 1546.06 0.752059 2.94241 0
M  V30 16138 H 1543.64 0.433272 1.42979 0
M  V30 16139 H 1545.53 -1.4875 3.94273 0
M  V30 16140 H 1544.2 -1.68577 2.7634 0
M  V30 16141 H 1543.11 0.426426 3.71662 0
M  V30 16142 H 1544.44 0.54148 4.89212 0
M  V30 16143 N 1546.09 -1.52004 0.416254 0
M  V30 16144 C 1547 -2.30947 -0.412403 0
M  V30 16145 C 1548.02 -1.38969 -1.04707 0
M  V30 16146 O 1549.19 -1.72044 -1.04703 0
M  V30 16147 C 1546.26 -3.12078 -1.51024 0
M  V30 16148 C 1545.32 -4.19805 -0.897892 0
M  V30 16149 C 1544.55 -4.97059 -1.94341 0
M  V30 16150 O 1544.78 -4.74695 -3.16261 0
M  V30 16151 O 1543.71 -5.81715 -1.54567 0
M  V30 16152 H 1547.54 -3.02817 0.231473 0
M  V30 16153 H 1545.12 -1.4832 0.179283 0
M  V30 16154 H 1547 -3.6258 -2.14741 0
M  V30 16155 H 1545.68 -2.42995 -2.13858 0
M  V30 16156 H 1544.59 -3.73433 -0.223236 0
M  V30 16157 H 1545.92 -4.91201 -0.31336 0
M  V30 16158 N 1547.57 -0.146903 -1.56914 0
M  V30 16159 C 1548.8 0.511181 -2.00486 0
M  V30 16160 C 1549.21 1.58425 -1.02699 0
M  V30 16161 O 1548.57 1.82484 -0.0239878 0
M  V30 16162 C 1548.62 1.11191 -3.43975 0
M  V30 16163 O 1548.34 0.0817094 -4.38024 0
M  V30 16164 C 1549.84 1.85061 -4.02824 0
M  V30 16165 H 1547.06 0.133078 -0.657671 0
M  V30 16166 H 1549.61 -0.241457 -2.0307 0
M  V30 16167 H 1547.76 1.81517 -3.42243 0
M  V30 16168 H 1548.18 0.52181 -5.21898 0
M  V30 16169 H 1549.65 2.22385 -5.05222 0
M  V30 16170 H 1550.13 2.73649 -3.4353 0
M  V30 16171 H 1550.73 1.19434 -4.08186 0
M  V30 16172 N 1549.05 1.57088 0.126881 0
M  V30 16173 C 1550.29 1.84709 0.837287 0
M  V30 16174 C 1550.63 0.731496 1.79897 0
M  V30 16175 O 1549.9 -0.263319 1.92709 0
M  V30 16176 C 1550.19 3.22893 1.59412 0
M  V30 16177 C 1550.04 4.45041 0.652578 0
M  V30 16178 C 1551.36 3.58547 2.5521 0
M  V30 16179 H 1548.48 0.671862 0.302937 0
M  V30 16180 H 1551.12 1.89727 0.101783 0
M  V30 16181 H 1549.27 3.18746 2.22112 0
M  V30 16182 H 1550.94 4.61287 0.0350382 0
M  V30 16183 H 1549.18 4.33785 -0.0364578 0
M  V30 16184 H 1549.85 5.38381 1.21861 0
M  V30 16185 H 1552.33 3.63434 2.0262 0
M  V30 16186 H 1551.21 4.56227 3.05202 0
M  V30 16187 H 1551.47 2.85552 3.37509 0
M  V30 16188 N 1550.53 -0.396836 1.52522 0
M  V30 16189 C 1551.47 -1.48427 1.76743 0
M  V30 16190 C 1552.44 -1.54481 0.610321 0
M  V30 16191 O 1553.63 -1.7086 0.849201 0
M  V30 16192 C 1550.77 -2.85744 1.93505 0
M  V30 16193 C 1549.88 -2.88904 3.21183 0
M  V30 16194 C 1549.02 -4.17598 3.28307 0
M  V30 16195 C 1548.06 -4.14779 4.50138 0
M  V30 16196 N 1547.19 -5.35065 4.54587 0
M  V30 16197 H 1552.03 -1.27075 2.69548 0
M  V30 16198 H 1549.57 -0.61661 1.33553 0
M  V30 16199 H 1551.53 -3.65474 2.01208 0
M  V30 16200 H 1550.16 -3.05564 1.04069 0
M  V30 16201 H 1549.21 -2.01592 3.22591 0
M  V30 16202 H 1550.52 -2.82688 4.10961 0
M  V30 16203 H 1549.68 -5.05727 3.35149 0
M  V30 16204 H 1548.41 -4.26526 2.36489 0
M  V30 16205 H 1547.42 -3.25039 4.4343 0
M  V30 16206 H 1548.64 -4.07481 5.43264 0
M  V30 16207 H 1546.59 -5.44638 3.65658 0
M  V30 16208 H 1546.51 -5.30894 5.38227 0
M  V30 16209 H 1547.78 -6.25114 4.65675 0
M  V30 16210 N 1552.01 -1.43353 -0.654814 0
M  V30 16211 C 1553.42 -1.39933 -1.23595 0
M  V30 16212 C 1553.77 -0.102592 -1.95932 0
M  V30 16213 O 1552.89 0.798021 -2.01148 0
M  V30 16214 C 1553.49 -2.53483 -2.24793 0
M  V30 16215 C 1552.05 -2.53333 -2.78387 0
M  V30 16216 C 1551.19 -2.31268 -1.53005 0
M  V30 16217 H 1554.14 -1.52277 -0.446932 0
M  V30 16218 H 1554.17 -2.2488 -3.06935 0
M  V30 16219 H 1553.68 -3.47847 -1.72116 0
M  V30 16220 H 1551.78 -1.62844 -3.35131 0
M  V30 16221 H 1551.89 -3.51047 -3.26041 0
M  V30 16222 H 1550.26 -1.79905 -1.80295 0
M  V30 16223 H 1551.04 -3.27714 -1.02266 0
M  V30 16224 N 1553.48 0.89303 -1.29857 0
M  V30 16225 C 1554.73 1.64088 -1.17981 0
M  V30 16226 C 1555.05 1.93156 0.267533 0
M  V30 16227 O 1554.32 1.56233 1.18186 0
M  V30 16228 H 1552.9 0.608241 -0.43365 0
M  V30 16229 H 1555.56 1.07042 -1.62874 0
M  V30 16230 H 1554.66 2.59446 -1.73477 0
M  V30 16231 N 1554.96 1.12442 1.10429 0
M  V30 16232 C 1556.37 0.894147 1.63896 0
M  V30 16233 C 1556.72 -0.571509 1.87692 0
M  V30 16234 O 1555.85 -1.43595 1.61893 0
M  V30 16235 C 1556.44 1.61664 2.97742 0
M  V30 16236 C 1555 1.43251 3.48075 0
M  V30 16237 C 1554.15 1.65252 2.22682 0
M  V30 16238 H 1557.1 1.27918 0.939289 0
M  V30 16239 H 1557.12 1.06771 3.65213 0
M  V30 16240 H 1556.63 2.68333 2.80391 0
M  V30 16241 H 1554.73 0.388385 3.7057 0
M  V30 16242 H 1554.85 2.18866 4.26186 0
M  V30 16243 H 1553.21 1.07663 2.30827 0
M  V30 16244 H 1553.99 2.73219 2.07862 0
M  V30 16245 N 1556.44 -1.28223 0.91633 0
M  V30 16246 C 1557.35 -2.30956 0.411882 0
M  V30 16247 C 1558.37 -1.66609 -0.501753 0
M  V30 16248 O 1559.54 -1.97641 -0.387317 0
M  V30 16249 C 1556.61 -3.45053 -0.337558 0
M  V30 16250 C 1555.67 -4.2495 0.609609 0
M  V30 16251 C 1554.9 -5.33598 -0.104159 0
M  V30 16252 O 1555.12 -5.54786 -1.32546 0
M  V30 16253 O 1554.06 -5.99272 0.561851 0
M  V30 16254 H 1557.88 -2.76118 1.26461 0
M  V30 16255 H 1555.47 -1.32964 0.681246 0
M  V30 16256 H 1557.35 -4.14477 -0.760722 0
M  V30 16257 H 1556.03 -3.01968 -1.16607 0
M  V30 16258 H 1554.93 -3.58104 1.08222 0
M  V30 16259 H 1556.27 -4.7172 1.40502 0
M  V30 16260 N 1557.92 -0.68059 -1.42147 0
M  V30 16261 C 1558.83 -0.00595573 -2.34599 0
M  V30 16262 C 1559.84 0.782528 -1.55411 0
M  V30 16263 O 1561.02 0.723524 -1.87955 0
M  V30 16264 C 1558.08 0.92964 -3.34004 0
M  V30 16265 C 1557.15 0.135041 -4.29088 0
M  V30 16266 C 1556.38 1.02607 -5.23744 0
M  V30 16267 O 1556.6 2.26562 -5.23475 0
M  V30 16268 O 1555.54 0.483774 -5.99953 0
M  V30 16269 H 1559.36 -0.767652 -2.93838 0
M  V30 16270 H 1556.95 -0.440849 -1.42748 0
M  V30 16271 H 1558.83 1.46657 -3.95057 0
M  V30 16272 H 1557.5 1.67109 -2.7723 0
M  V30 16273 H 1556.41 -0.44613 -3.7143 0
M  V30 16274 H 1557.74 -0.567417 -4.88918 0
M  V30 16275 N 1559.4 1.51781 -0.424309 0
M  V30 16276 C 1560.64 2.0157 0.146203 0
M  V30 16277 C 1560.96 1.3111 1.44344 0
M  V30 16278 O 1560.23 0.441631 1.90857 0
M  V30 16279 H 1558.81 0.744821 0.057019 0
M  V30 16280 H 1561.48 1.8656 -0.564031 0
M  V30 16281 H 1560.57 3.10335 0.331464 0
M  V30 16282 N 1560.87 0.155222 1.56834 0
M  V30 16283 C 1562.1 -0.500542 2.00754 0
M  V30 16284 C 1562.52 -1.57878 1.03538 0
M  V30 16285 O 1561.87 -1.82469 0.0336651 0
M  V30 16286 C 1561.92 -1.09366 3.4456 0
M  V30 16287 O 1561.65 -0.0584788 4.38061 0
M  V30 16288 C 1563.15 -1.82923 4.038 0
M  V30 16289 H 1560.37 -0.129589 0.658368 0
M  V30 16290 H 1562.91 0.252223 2.02939 0
M  V30 16291 H 1561.07 -1.797 3.43201 0
M  V30 16292 H 1561.48 -0.494125 5.22167 0
M  V30 16293 H 1562.95 -2.19703 5.06394 0
M  V30 16294 H 1563.43 -2.71823 3.44976 0
M  V30 16295 H 1564.04 -1.17268 4.08813 0
M  V30 16296 N 1562.35 -1.57153 -0.118549 0
M  V30 16297 C 1563.28 -2.03409 -1.1466 0
M  V30 16298 C 1564.26 -0.918636 -1.43161 0
M  V30 16299 O 1565.45 -1.18838 -1.53594 0
M  V30 16300 C 1562.58 -2.43879 -2.47265 0
M  V30 16301 C 1561.53 -3.58873 -2.33225 0
M  V30 16302 C 1560.86 -3.85244 -3.70798 0
M  V30 16303 C 1562.16 -4.90582 -1.79239 0
M  V30 16304 H 1563.85 -2.89545 -0.761862 0
M  V30 16305 H 1561.4 -1.39296 -0.365034 0
M  V30 16306 H 1563.35 -2.74844 -3.19435 0
M  V30 16307 H 1562.07 -1.54715 -2.8763 0
M  V30 16308 H 1560.73 -3.28119 -1.63504 0
M  V30 16309 H 1560.38 -2.93285 -4.08648 0
M  V30 16310 H 1560.08 -4.62649 -3.62257 0
M  V30 16311 H 1561.61 -4.18661 -4.44472 0
M  V30 16312 H 1563.02 -5.20079 -2.41227 0
M  V30 16313 H 1561.42 -5.71989 -1.81518 0
M  V30 16314 H 1562.49 -4.79065 -0.74999 0
M  V30 16315 N 1563.83 0.388742 -1.5273 0
M  V30 16316 C 1564.74 1.49916 -1.8045 0
M  V30 16317 C 1565.76 1.59679 -0.691282 0
M  V30 16318 O 1566.93 1.7601 -0.978898 0
M  V30 16319 C 1564 2.85445 -1.96779 0
M  V30 16320 C 1563.06 2.85402 -3.20693 0
M  V30 16321 C 1562.29 4.14466 -3.36234 0
M  V30 16322 O 1562.51 5.09436 -2.56576 0
M  V30 16323 O 1561.45 4.2169 -4.29489 0
M  V30 16324 H 1565.27 1.29423 -2.74743 0
M  V30 16325 H 1562.86 0.576607 -1.37825 0
M  V30 16326 H 1564.74 3.65791 -2.09224 0
M  V30 16327 H 1563.42 3.05964 -1.05676 0
M  V30 16328 H 1562.32 2.03836 -3.1369 0
M  V30 16329 H 1563.66 2.69835 -4.11643 0
M  V30 16330 N 1565.31 1.43698 0.647203 0
M  V30 16331 C 1566.25 1.49323 1.75987 0
M  V30 16332 C 1567.22 0.342379 1.62533 0
M  V30 16333 O 1568.41 0.550379 1.8269 0
M  V30 16334 C 1565.55 1.428 3.14169 0
M  V30 16335 C 1564.66 2.68136 3.38714 0
M  V30 16336 C 1563.8 2.53559 4.66778 0
M  V30 16337 C 1562.84 3.74135 4.84447 0
M  V30 16338 N 1561.97 3.58332 6.03774 0
M  V30 16339 H 1566.81 2.44395 1.70514 0
M  V30 16340 H 1564.35 1.21309 0.832021 0
M  V30 16341 H 1566.31 1.37011 3.94061 0
M  V30 16342 H 1564.94 0.513057 3.18697 0
M  V30 16343 H 1563.99 2.84179 2.52877 0
M  V30 16344 H 1565.3 3.57684 3.47654 0
M  V30 16345 H 1564.46 2.45513 5.54805 0
M  V30 16346 H 1563.2 1.61545 4.60168 0
M  V30 16347 H 1562.2 3.82584 3.94854 0
M  V30 16348 H 1563.43 4.67165 4.92883 0
M  V30 16349 H 1561.37 2.69057 5.98284 0
M  V30 16350 H 1561.29 4.41485 6.13699 0
M  V30 16351 H 1562.56 3.54148 6.94406 0
M  V30 16352 N 1566.79 -0.886131 1.30328 0
M  V30 16353 C 1567.7 -2.02453 1.18532 0
M  V30 16354 C 1568.71 -1.7368 0.105506 0
M  V30 16355 O 1569.89 -1.98838 0.320217 0
M  V30 16356 C 1566.95 -3.3543 0.876792 0
M  V30 16357 C 1566.01 -3.77633 2.04185 0
M  V30 16358 C 1565.25 -5.04264 1.74795 0
M  V30 16359 O 1565.47 -5.66388 0.675323 0
M  V30 16360 O 1564.4 -5.42847 2.60001 0
M  V30 16361 H 1568.23 -2.15333 2.14162 0
M  V30 16362 H 1565.82 -1.01193 1.09911 0
M  V30 16363 H 1567.7 -4.15206 0.719882 0
M  V30 16364 H 1566.37 -3.23662 -0.0496117 0
M  V30 16365 H 1565.28 -2.98567 2.25408 0
M  V30 16366 H 1566.61 -3.94004 2.94994 0
M  V30 16367 N 1568.26 -1.13026 -1.09832 0
M  V30 16368 C 1569.17 -0.817051 -2.19912 0
M  V30 16369 C 1570.19 0.19667 -1.72885 0
M  V30 16370 O 1571.37 0.0287402 -2.01379 0
M  V30 16371 C 1568.43 -0.28304 -3.45543 0
M  V30 16372 C 1567.49 -1.35748 -4.07273 0
M  V30 16373 C 1566.73 -0.848855 -5.26906 0
M  V30 16374 O 1566.95 0.315104 -5.69529 0
M  V30 16375 O 1565.88 -1.62128 -5.79653 0
M  V30 16376 H 1569.71 -1.73663 -2.49148 0
M  V30 16377 H 1567.29 -0.907391 -1.18688 0
M  V30 16378 H 1569.18 0.00956876 -4.21399 0
M  V30 16379 H 1567.85 0.609018 -3.17919 0
M  V30 16380 H 1566.76 -1.70334 -3.33072 0
M  V30 16381 H 1568.09 -2.22353 -4.39113 0
M  V30 16382 N 1569.74 1.27735 -0.923117 0
M  V30 16383 C 1570.69 2.26997 -0.417254 0
M  V30 16384 C 1571.66 1.57968 0.513364 0
M  V30 16385 O 1572.84 1.8581 0.433521 0
M  V30 16386 C 1569.98 3.43537 0.328089 0
M  V30 16387 C 1569.1 4.27291 -0.636112 0
M  V30 16388 C 1568.23 5.31044 0.128614 0
M  V30 16389 C 1567.27 6.06466 -0.828592 0
M  V30 16390 N 1566.41 7.02033 -0.0967858 0
M  V30 16391 H 1571.25 2.69643 -1.26872 0
M  V30 16392 H 1568.79 1.32597 -0.6369 0
M  V30 16393 H 1570.74 4.0991 0.776504 0
M  V30 16394 H 1569.37 3.01855 1.14383 0
M  V30 16395 H 1568.43 3.60875 -1.20306 0
M  V30 16396 H 1569.74 4.79679 -1.36784 0
M  V30 16397 H 1568.89 6.03345 0.637159 0
M  V30 16398 H 1567.63 4.79448 0.893341 0
M  V30 16399 H 1566.64 5.33008 -1.34843 0
M  V30 16400 H 1567.86 6.60151 -1.59303 0
M  V30 16401 H 1565.81 6.52774 0.649779 0
M  V30 16402 H 1565.72 7.52087 -0.768171 0
M  V30 16403 H 1566.99 7.78517 0.391257 0
M  V30 16404 N 1571.22 0.688118 1.41784 0
M  V30 16405 C 1572.47 0.216263 2.01644 0
M  V30 16406 C 1572.8 -1.17861 1.54345 0
M  V30 16407 O 1572.07 -1.794 0.751392 0
M  V30 16408 C 1572.36 0.265663 3.59119 0
M  V30 16409 C 1572.21 1.69694 4.16562 0
M  V30 16410 C 1573.53 -0.378713 4.38468 0
M  V30 16411 H 1570.65 0.0800582 0.732639 0
M  V30 16412 H 1573.29 0.875428 1.68631 0
M  V30 16413 H 1571.44 -0.295588 3.87374 0
M  V30 16414 H 1573.11 2.31146 3.9921 0
M  V30 16415 H 1571.36 2.23345 3.71886 0
M  V30 16416 H 1572.03 1.68309 5.25715 0
M  V30 16417 H 1574.5 0.0991969 4.15982 0
M  V30 16418 H 1573.38 -0.31357 5.48004 0
M  V30 16419 H 1573.64 -1.45832 4.17355 0
M  V30 16420 N 1572.7 -1.51554 0.432352 0
M  V30 16421 C 1574.11 -1.86673 -0.0319274 0
M  V30 16422 C 1574.46 -1.34981 -1.42389 0
M  V30 16423 O 1573.59 -0.698556 -2.04815 0
M  V30 16424 C 1574.18 -3.38738 -0.0647127 0
M  V30 16425 C 1572.74 -3.73411 -0.47339 0
M  V30 16426 C 1571.89 -2.75242 0.337187 0
M  V30 16427 H 1574.84 -1.44849 0.648417 0
M  V30 16428 H 1574.86 -3.70297 -0.875239 0
M  V30 16429 H 1574.37 -3.76331 0.948507 0
M  V30 16430 H 1572.47 -3.41406 -1.4924 0
M  V30 16431 H 1572.58 -4.78675 -0.20165 0
M  V30 16432 H 1570.95 -2.53883 -0.203801 0
M  V30 16433 H 1571.73 -3.15677 1.34919 0
M  V30 16434 N 1574.18 -0.163538 -1.56749 0
M  V30 16435 C 1575.59 0.354516 -1.83303 0
M  V30 16436 C 1575.94 1.63601 -1.08301 0
M  V30 16437 O 1575.06 2.13814 -0.333546 0
M  V30 16438 C 1575.66 0.649983 -3.32507 0
M  V30 16439 C 1574.22 1.1125 -3.59584 0
M  V30 16440 C 1573.36 0.144257 -2.76925 0
M  V30 16441 H 1576.32 -0.387945 -1.53885 0
M  V30 16442 H 1576.34 1.5029 -3.49562 0
M  V30 16443 H 1575.85 -0.282886 -3.87068 0
M  V30 16444 H 1573.95 2.06074 -3.10426 0
M  V30 16445 H 1574.06 1.02704 -4.67962 0
M  V30 16446 H 1572.43 0.640116 -2.46525 0
M  V30 16447 H 1573.21 -0.782495 -3.34263 0
M  V30 16448 N 1575.65 1.57214 0.110213 0
M  V30 16449 C 1577.07 1.74402 0.666405 0
M  V30 16450 C 1577.42 0.783524 1.79876 0
M  V30 16451 O 1576.54 -0.0415306 2.1636 0
M  V30 16452 C 1577.14 3.1624 1.21564 0
M  V30 16453 C 1575.7 3.34904 1.71804 0
M  V30 16454 C 1574.84 2.70249 0.621347 0
M  V30 16455 H 1577.79 1.58277 -0.115765 0
M  V30 16456 H 1577.81 3.18276 2.0852 0
M  V30 16457 H 1577.33 3.86123 0.391273 0
M  V30 16458 H 1575.43 2.70077 2.56689 0
M  V30 16459 H 1575.54 4.43126 1.82143 0
M  V30 16460 H 1573.9 2.31727 1.05711 0
M  V30 16461 H 1574.69 3.42762 -0.192185 0
M  V30 16462 N 1577.13 -0.380637 1.52934 0
M  V30 16463 C 1578.55 -0.721287 1.42371 0
M  V30 16464 C 1578.75 -1.93826 0.55078 0
M  V30 16465 O 1577.8 -2.52485 0.02743 0
M  V30 16466 C 1579.12 -0.948564 2.85347 0
M  V30 16467 C 1580.67 -1.04952 2.9488 0
M  V30 16468 C 1581.14 -1.30937 4.38885 0
M  V30 16469 N 1582.63 -1.3774 4.42246 0
M  V30 16470 C 1583.37 -1.59527 5.50762 0
M  V30 16471 N 1582.86 -1.7873 6.69349 0
M  V30 16472 N 1584.66 -1.61774 5.38317 0
M  V30 16473 H 1576.81 0.420032 2.08205 0
M  V30 16474 H 1579.07 0.125776 0.939619 0
M  V30 16475 H 1578.78 -0.126348 3.51473 0
M  V30 16476 H 1578.65 -1.8609 3.28101 0
M  V30 16477 H 1581.04 -1.86229 2.28917 0
M  V30 16478 H 1581.12 -0.114899 2.55542 0
M  V30 16479 H 1580.76 -0.50166 5.05416 0
M  V30 16480 H 1580.69 -2.25696 4.75782 0
M  V30 16481 H 1583.18 -1.24575 3.56777 0
M  V30 16482 H 1583.5 -1.94885 7.47823 0
M  V30 16483 H 1581.84 -1.75938 6.72362 0
M  V30 16484 H 1585.03 -1.4633 4.44641 0
M  V30 16485 H 1585.2 -1.78414 6.22955 0
M  V30 16486 N 1578.61 -1.44039 -0.639573 0
M  V30 16487 C 1579.84 -1.50063 -1.43164 0
M  V30 16488 C 1580.26 -0.123906 -1.87691 0
M  V30 16489 O 1579.62 0.885192 -1.58221 0
M  V30 16490 C 1579.67 -2.46305 -2.63375 0
M  V30 16491 O 1578.77 -1.95874 -3.62915 0
M  V30 16492 H 1578.11 -0.507052 -0.428713 0
M  V30 16493 H 1580.64 -1.8909 -0.781415 0
M  V30 16494 H 1580.65 -2.64062 -3.11023 0
M  V30 16495 H 1579.33 -3.46309 -2.3031 0
M  V30 16496 H 1577.9 -1.87844 -3.22132 0
M  V30 16497 N 1580.09 0.879207 -1.30796 0
M  V30 16498 C 1581.5 1.44705 -1.17972 0
M  V30 16499 C 1581.85 1.94992 0.217381 0
M  V30 16500 O 1580.98 1.85494 1.11449 0
M  V30 16501 C 1581.57 2.6302 -2.13555 0
M  V30 16502 C 1580.13 3.15877 -2.04692 0
M  V30 16503 C 1579.28 1.88576 -2.03309 0
M  V30 16504 H 1582.23 0.688604 -1.42982 0
M  V30 16505 H 1582.25 3.39418 -1.71976 0
M  V30 16506 H 1581.76 2.2639 -3.15229 0
M  V30 16507 H 1579.86 3.57151 -1.0618 0
M  V30 16508 H 1579.97 3.78786 -2.93357 0
M  V30 16509 H 1578.34 2.0715 -1.48192 0
M  V30 16510 H 1579.12 1.54195 -3.06723 0
M  V30 16511 N 1581.57 1.13606 1.09231 0
M  V30 16512 C 1582.5 0.77306 2.15769 0
M  V30 16513 C 1583.51 -0.206148 1.6149 0
M  V30 16514 O 1584.7 0.014338 1.78494 0
M  V30 16515 C 1581.8 0.125475 3.38668 0
M  V30 16516 C 1580.97 1.13728 4.22356 0
M  V30 16517 C 1580.03 0.515021 5.23674 0
M  V30 16518 O 1579.06 1.1756 5.56928 0
M  V30 16519 N 1580.26 -0.712028 5.76117 0
M  V30 16520 H 1583.03 1.68984 2.47517 0
M  V30 16521 H 1580.59 1.02935 1.24964 0
M  V30 16522 H 1582.58 -0.303109 4.03563 0
M  V30 16523 H 1581.15 -0.694284 3.04792 0
M  V30 16524 H 1580.37 1.74309 3.53568 0
M  V30 16525 H 1581.66 1.82106 4.75094 0
M  V30 16526 H 1581.06 -1.26745 5.51319 0
M  V30 16527 H 1579.61 -1.08324 6.42736 0
M  V30 16528 N 1583.05 -1.27244 0.929878 0
M  V30 16529 C 1584.01 -2.25028 0.435315 0
M  V30 16530 C 1585.01 -1.54453 -0.447332 0
M  V30 16531 O 1586.2 -1.72424 -0.248105 0
M  V30 16532 C 1583.33 -3.38843 -0.373933 0
M  V30 16533 H 1584.52 -2.70293 1.2993 0
M  V30 16534 H 1582.08 -1.39204 0.710771 0
M  V30 16535 H 1582.81 -2.98963 -1.25664 0
M  V30 16536 H 1582.6 -3.91244 0.258946 0
M  V30 16537 H 1584.09 -4.11516 -0.710255 0
M  V30 16538 N 1584.52 -0.695628 -1.41417 0
M  V30 16539 C 1585.46 0.00883515 -2.29198 0
M  V30 16540 C 1586.47 0.744337 -1.44788 0
M  V30 16541 O 1587.66 0.59503 -1.6829 0
M  V30 16542 C 1584.76 1.0366 -3.22657 0
M  V30 16543 C 1583.93 0.37071 -4.35826 0
M  V30 16544 C 1582.99 1.3011 -5.09861 0
M  V30 16545 O 1582.02 0.793461 -5.63642 0
M  V30 16546 N 1583.22 2.63343 -5.1733 0
M  V30 16547 H 1585.98 -0.744795 -2.90298 0
M  V30 16548 H 1583.54 -0.541663 -1.5257 0
M  V30 16549 H 1585.54 1.66075 -3.69054 0
M  V30 16550 H 1584.11 1.69177 -2.62865 0
M  V30 16551 H 1583.33 -0.433315 -3.91811 0
M  V30 16552 H 1584.61 -0.0923178 -5.08716 0
M  V30 16553 H 1584.01 3.07103 -4.75083 0
M  V30 16554 H 1582.57 3.20952 -5.67303 0
M  V30 16555 N 1586 1.51322 -0.440383 0
M  V30 16556 C 1586.91 2.31574 0.37561 0
M  V30 16557 C 1587.93 1.40617 1.02483 0
M  V30 16558 O 1589.1 1.73688 1.01953 0
M  V30 16559 C 1586.17 3.14441 1.4604 0
M  V30 16560 C 1585.23 4.21181 0.830991 0
M  V30 16561 C 1584.46 5.00087 1.86409 0
M  V30 16562 O 1584.69 4.79666 3.08669 0
M  V30 16563 O 1583.62 5.84101 1.45293 0
M  V30 16564 H 1587.45 3.0241 -0.27962 0
M  V30 16565 H 1585.03 1.48016 -0.202857 0
M  V30 16566 H 1586.91 3.6595 2.08946 0
M  V30 16567 H 1585.59 2.46366 2.09965 0
M  V30 16568 H 1584.49 3.73741 0.163798 0
M  V30 16569 H 1585.83 4.91638 0.235174 0
M  V30 16570 N 1587.48 0.171848 1.5666 0
M  V30 16571 C 1588.44 -0.744316 2.16778 0
M  V30 16572 C 1589.44 -1.15769 1.11598 0
M  V30 16573 O 1590.63 -1.07456 1.37109 0
M  V30 16574 C 1587.76 -2.01319 2.75106 0
M  V30 16575 H 1588.96 -0.220952 2.99085 0
M  V30 16576 H 1586.51 -0.0777149 1.56107 0
M  V30 16577 H 1587.25 -2.57963 1.96534 0
M  V30 16578 H 1587.03 -1.72575 3.5208 0
M  V30 16579 H 1588.52 -2.667 3.21342 0
M  V30 16580 N 1588.96 -1.5727 -0.101874 0
M  V30 16581 C 1590.37 -1.74753 -0.657147 0
M  V30 16582 C 1590.72 -0.793052 -1.79458 0
M  V30 16583 O 1589.84 0.0300559 -2.16379 0
M  V30 16584 C 1590.44 -3.1688 -1.19885 0
M  V30 16585 C 1589 -3.3581 -1.70025 0
M  V30 16586 C 1588.15 -2.70575 -0.607007 0
M  V30 16587 H 1591.1 -1.58214 0.124158 0
M  V30 16588 H 1591.12 -3.19378 -2.06829 0
M  V30 16589 H 1590.63 -3.86325 -0.37079 0
M  V30 16590 H 1588.73 -2.71434 -2.55253 0
M  V30 16591 H 1588.84 -4.44086 -1.79791 0
M  V30 16592 H 1587.21 -2.32284 -1.04481 0
M  V30 16593 H 1587.99 -3.42655 0.21036 0
M  V30 16594 N 1590.44 0.372521 -1.53134 0
M  V30 16595 C 1591.68 1.11754 -1.6923 0
M  V30 16596 C 1592.01 1.89167 -0.439265 0
M  V30 16597 O 1591.29 1.86164 0.563317 0
M  V30 16598 C 1591.57 2.08242 -2.93781 0
M  V30 16599 C 1591.43 1.34484 -4.29225 0
M  V30 16600 C 1592.74 3.08457 -3.13914 0
M  V30 16601 H 1589.86 0.404898 -0.615814 0
M  V30 16602 H 1592.51 0.399101 -1.85761 0
M  V30 16603 H 1590.66 2.69507 -2.79818 0
M  V30 16604 H 1592.33 0.76056 -4.54987 0
M  V30 16605 H 1590.57 0.646673 -4.28953 0
M  V30 16606 H 1591.24 2.05071 -5.12494 0
M  V30 16607 H 1593.72 2.57292 -3.27017 0
M  V30 16608 H 1592.59 3.73198 -4.0251 0
M  V30 16609 H 1592.85 3.78243 -2.28878 0
M  V30 16610 N 1591.91 1.44376 0.631925 0
M  V30 16611 C 1592.86 1.51479 1.76513 0
M  V30 16612 C 1593.86 0.386562 1.6493 0
M  V30 16613 O 1595.06 0.561473 1.71019 0
M  V30 16614 H 1591.44 0.475318 0.582733 0
M  V30 16615 H 1593.41 2.46856 1.67644 0
M  V30 16616 C 1592.16 1.4754 3.14845 0
M  V30 16617 H 1591.48 2.3367 3.24405 0
M  V30 16618 H 1592.92 1.5657 3.94033 0
M  V30 16619 C 1591.38 0.196043 3.36329 0
M  V30 16620 O 1591.91 -0.734083 3.94936 0
M  V30 16621 N 1590.11 0.0994331 2.9043 0
M  V30 16622 H 1589.66 0.857176 2.4292 0
M  V30 16623 H 1589.62 -0.755814 3.0518 0
M  V30 16624 N 1593.39 -0.872258 1.31261 0
M  V30 16625 C 1594.64 -1.6199 1.20176 0
M  V30 16626 C 1594.95 -1.94129 -0.239439 0
M  V30 16627 O 1596.16 -2.67366 -0.471956 0
M  V30 16628 C 1594.62 -2.92017 2.10366 0
M  V30 16629 C 1594.22 -2.6737 3.59468 0
M  V30 16630 C 1595.97 -3.70007 2.08075 0
M  V30 16631 C 1593.87 -3.93291 4.41674 0
M  V30 16632 H 1592.8 -0.607793 0.446211 0
M  V30 16633 H 1595.46 -0.964627 1.561 0
M  V30 16634 H 1593.84 -3.58907 1.67338 0
M  V30 16635 H 1595.01 -2.08902 4.10727 0
M  V30 16636 H 1593.33 -2.02738 3.63712 0
M  V30 16637 H 1595.92 -4.63416 2.66739 0
M  V30 16638 H 1596.27 -4.02385 1.06733 0
M  V30 16639 H 1596.8 -3.09998 2.49291 0
M  V30 16640 H 1593.54 -3.66064 5.43762 0
M  V30 16641 H 1593.06 -4.51218 3.95174 0
M  V30 16642 H 1594.74 -4.61197 4.53769 0
M  V30 16643 N 1594.87 -1.14184 -1.08627 0
M  V30 16644 C 1596.15 -0.81955 -1.77603 0
M  V30 16645 C 1596.53 0.687377 -1.99595 0
M  V30 16646 O 1595.87 1.62744 -1.60396 0
M  V30 16647 C 1596.08 -1.61574 -3.09346 0
M  V30 16648 C 1597.43 -1.81367 -3.83916 0
M  V30 16649 O 1598.46 -1.58241 -3.19121 0
M  V30 16650 O 1597.32 -2.20011 -5.00257 0
M  V30 16651 H 1594.41 -0.300086 -0.770635 0
M  V30 16652 H 1596.96 -1.24691 -1.15109 0
M  V30 16653 H 1595.73 -2.63946 -2.88874 0
M  V30 16654 H 1595.35 -1.18386 -3.79566 0
M  V30 16655 N 1596.35 1.26749 -0.936613 0
M  V30 16656 C 1597.26 2.30272 -0.448573 0
M  V30 16657 C 1598.27 1.67386 0.475184 0
M  V30 16658 O 1599.45 1.98232 0.355825 0
M  V30 16659 C 1596.52 3.45546 0.28262 0
M  V30 16660 C 1595.58 4.23926 -0.677138 0
M  V30 16661 C 1594.81 5.33697 0.019255 0
M  V30 16662 O 1595.03 5.56825 1.23703 0
M  V30 16663 O 1593.97 5.98302 -0.657119 0
M  V30 16664 H 1597.79 2.74072 -1.30838 0
M  V30 16665 H 1595.38 1.31863 -0.702314 0
M  V30 16666 H 1597.26 4.15635 0.694686 0
M  V30 16667 H 1595.93 3.03784 1.11789 0
M  V30 16668 H 1594.84 3.56337 -1.13906 0
M  V30 16669 H 1596.17 4.69425 -1.47988 0
M  V30 16670 N 1597.83 0.703118 1.41046 0
M  V30 16671 C 1599.07 0.236818 2.00708 0
M  V30 16672 C 1599.4 -1.17008 1.55994 0
M  V30 16673 O 1598.67 -1.79094 0.793871 0
M  V30 16674 H 1597.25 0.0845643 0.742198 0
M  V30 16675 H 1599.91 0.905964 1.72564 0
M  V30 16676 H 1599 0.260141 3.11014 0
M  V30 16677 N 1599.3 -1.51086 0.448402 0
M  V30 16678 C 1600.23 -2.30896 -0.347773 0
M  V30 16679 C 1601.22 -1.36792 -1.01104 0
M  V30 16680 O 1602.4 -1.65713 -1.01257 0
M  V30 16681 C 1599.53 -3.15901 -1.44304 0
M  V30 16682 C 1598.48 -4.18373 -0.90265 0
M  V30 16683 C 1597.81 -4.9197 -2.0945 0
M  V30 16684 C 1599.11 -5.22252 0.0705335 0
M  V30 16685 H 1600.8 -2.97704 0.318273 0
M  V30 16686 H 1598.35 -1.43169 0.154509 0
M  V30 16687 H 1600.3 -3.70519 -2.00733 0
M  V30 16688 H 1599.03 -2.46935 -2.13753 0
M  V30 16689 H 1597.69 -3.64823 -0.3605 0
M  V30 16690 H 1597.33 -4.19497 -2.77545 0
M  V30 16691 H 1597.03 -5.6127 -1.73926 0
M  V30 16692 H 1598.56 -5.49415 -2.66412 0
M  V30 16693 H 1599.97 -5.71876 -0.403814 0
M  V30 16694 H 1598.37 -5.99142 0.338905 0
M  V30 16695 H 1599.44 -4.74398 1.00373 0
M  V30 16696 N 1600.78 -0.180154 -1.56567 0
M  V30 16697 C 1602.01 0.46854 -2.01525 0
M  V30 16698 C 1602.43 1.56211 -1.06036 0
M  V30 16699 O 1601.78 1.82392 -0.06269 0
M  V30 16700 C 1601.83 1.0387 -3.46256 0
M  V30 16701 O 1601.55 -0.0112203 -4.38099 0
M  V30 16702 C 1603.06 1.76475 -4.06659 0
M  V30 16703 H 1600.28 0.119098 -0.660346 0
M  V30 16704 H 1602.82 -0.284477 -2.02512 0
M  V30 16705 H 1600.97 1.74217 -3.46016 0
M  V30 16706 H 1601.39 0.41099 -5.22887 0
M  V30 16707 H 1602.86 2.11618 -5.09825 0
M  V30 16708 H 1603.34 2.66301 -3.49257 0
M  V30 16709 H 1603.95 1.10749 -4.10627 0
M  V30 16710 N 1602.26 1.57322 0.0935319 0
M  V30 16711 C 1603.51 1.858 0.795165 0
M  V30 16712 C 1603.83 0.769078 1.79193 0
M  V30 16713 O 1603.1 -0.204511 1.9483 0
M  V30 16714 H 1601.68 0.68557 0.296653 0
M  V30 16715 H 1604.34 1.94756 0.0747892 0
M  V30 16716 H 1603.44 2.82588 1.32479 0
M  V30 16717 N 1603.74 -0.364395 1.53329 0
M  V30 16718 C 1604.98 -1.11559 1.71272 0
M  V30 16719 C 1605.34 -1.86521 0.455401 0
M  V30 16720 O 1606.54 -2.63888 0.511533 0
M  V30 16721 C 1604.81 -2.04838 2.92875 0
M  V30 16722 S 1606.37 -2.87462 3.31529 0
M  V30 16723 H 1603.19 -0.377267 0.602653 0
M  V30 16724 H 1605.79 -0.396684 1.91433 0
M  V30 16725 H 1604.5 -1.48532 3.82579 0
M  V30 16726 H 1604.03 -2.81199 2.75119 0
M  V30 16727 H 1606.04 -4.07144 2.83634 0
M  V30 16728 N 1605.22 -1.44709 -0.62426 0
M  V30 16729 C 1606.44 -1.51348 -1.41072 0
M  V30 16730 C 1606.86 -0.140576 -1.88276 0
M  V30 16731 O 1606.22 0.854821 -1.61242 0
M  V30 16732 C 1606.27 -2.48396 -2.62643 0
M  V30 16733 O 1605.99 -3.8035 -2.17406 0
M  V30 16734 C 1607.49 -2.64568 -3.55694 0
M  V30 16735 H 1604.71 -0.513092 -0.432409 0
M  V30 16736 H 1607.25 -1.89739 -0.762841 0
M  V30 16737 H 1605.41 -2.13122 -3.23508 0
M  V30 16738 H 1605.82 -4.32809 -2.96272 0
M  V30 16739 H 1607.3 -3.36486 -4.37585 0
M  V30 16740 H 1607.77 -1.70031 -4.04952 0
M  V30 16741 H 1608.38 -3.00771 -3.00694 0
M  V30 16742 N 1606.69 0.865285 -1.31722 0
M  V30 16743 C 1607.94 1.6135 -1.21033 0
M  V30 16744 C 1608.26 1.94253 0.229141 0
M  V30 16745 O 1609.46 2.67613 0.457771 0
M  V30 16746 C 1607.92 2.90898 -2.11912 0
M  V30 16747 C 1607.53 2.6546 -3.60881 0
M  V30 16748 C 1609.27 3.68898 -2.10035 0
M  V30 16749 C 1607.18 3.90943 -4.43754 0
M  V30 16750 H 1606.11 0.605418 -0.449428 0
M  V30 16751 H 1608.76 0.956335 -1.56609 0
M  V30 16752 H 1607.14 3.58014 -1.69239 0
M  V30 16753 H 1608.31 2.06721 -4.11829 0
M  V30 16754 H 1606.63 2.00806 -3.64782 0
M  V30 16755 H 1609.23 4.61995 -2.69193 0
M  V30 16756 H 1609.57 4.01813 -1.08865 0
M  V30 16757 H 1610.1 3.08671 -2.50932 0
M  V30 16758 H 1606.84 3.63176 -5.45696 0
M  V30 16759 H 1606.36 4.49116 -3.97561 0
M  V30 16760 H 1608.04 4.58784 -4.56208 0
M  V30 16761 N 1608.17 1.14759 1.0802 0
M  V30 16762 C 1609.1 0.795901 2.14937 0
M  V30 16763 C 1610.12 -0.189008 1.61699 0
M  V30 16764 O 1611.31 0.0332689 1.78469 0
M  V30 16765 C 1608.41 0.161388 3.38516 0
M  V30 16766 C 1607.58 1.18202 4.21126 0
M  V30 16767 C 1606.64 0.570535 5.23098 0
M  V30 16768 O 1605.66 1.2346 5.55649 0
M  V30 16769 N 1606.87 -0.650883 5.76839 0
M  V30 16770 H 1609.63 1.716 2.4571 0
M  V30 16771 H 1607.19 1.04254 1.23866 0
M  V30 16772 H 1609.18 -0.260289 4.03862 0
M  V30 16773 H 1607.75 -0.661917 3.05512 0
M  V30 16774 H 1606.97 1.78049 3.51699 0
M  V30 16775 H 1608.26 1.87135 4.73136 0
M  V30 16776 H 1607.66 -1.2089 5.52632 0
M  V30 16777 H 1606.22 -1.01501 6.43848 0
M  V30 16778 N 1609.65 -1.26251 0.943322 0
M  V30 16779 C 1610.58 -2.28673 0.472347 0
M  V30 16780 C 1611.56 -1.63319 -0.475481 0
M  V30 16781 O 1612.75 -1.90508 -0.376875 0
M  V30 16782 C 1609.88 -3.46316 -0.261286 0
M  V30 16783 C 1608.83 -4.23771 0.600192 0
M  V30 16784 C 1608.16 -5.3405 -0.263525 0
M  V30 16785 C 1609.46 -4.87576 1.87262 0
M  V30 16786 H 1611.15 -2.68319 1.32836 0
M  V30 16787 H 1608.7 -1.28987 0.640182 0
M  V30 16788 H 1610.65 -4.1708 -0.601821 0
M  V30 16789 H 1609.37 -3.05629 -1.15146 0
M  V30 16790 H 1608.03 -3.54774 0.923651 0
M  V30 16791 H 1607.68 -4.89604 -1.15312 0
M  V30 16792 H 1607.38 -5.86784 0.309495 0
M  V30 16793 H 1608.9 -6.07652 -0.599281 0
M  V30 16794 H 1610.32 -5.50544 1.59919 0
M  V30 16795 H 1608.72 -5.50437 2.39038 0
M  V30 16796 H 1609.79 -4.10397 2.58268 0
M  V30 16797 N 1611.13 -0.710588 -1.40671 0
M  V30 16798 C 1612.06 -0.0694601 -2.33397 0
M  V30 16799 C 1613.04 0.750959 -1.52626 0
M  V30 16800 O 1614.23 0.700896 -1.81111 0
M  V30 16801 C 1611.36 0.856704 -3.36568 0
M  V30 16802 C 1610.31 0.142276 -4.27763 0
M  V30 16803 C 1609.64 1.18382 -5.21431 0
M  V30 16804 C 1610.94 -1.00052 -5.12627 0
M  V30 16805 H 1612.63 -0.843945 -2.87259 0
M  V30 16806 H 1610.18 -0.407287 -1.3812 0
M  V30 16807 H 1612.13 1.31457 -4.00371 0
M  V30 16808 H 1610.85 1.66303 -2.81089 0
M  V30 16809 H 1609.51 -0.295714 -3.65405 0
M  V30 16810 H 1609.16 1.98306 -4.62259 0
M  V30 16811 H 1608.86 0.71071 -5.83286 0
M  V30 16812 H 1610.38 1.64189 -5.88111 0
M  V30 16813 H 1611.8 -0.622246 -5.69913 0
M  V30 16814 H 1610.19 -1.40168 -5.83501 0
M  V30 16815 H 1611.26 -1.83345 -4.48902 0
M  V30 16816 N 1612.61 1.50847 -0.456408 0
M  V30 16817 C 1614.02 1.867 0.00222532 0
M  V30 16818 C 1614.37 1.37229 1.40224 0
M  V30 16819 O 1613.49 0.731052 2.03678 0
M  V30 16820 C 1614.09 3.38798 0.0108142 0
M  V30 16821 C 1612.65 3.74117 0.413924 0
M  V30 16822 C 1611.8 2.74671 -0.380933 0
M  V30 16823 H 1614.75 1.43799 -0.671379 0
M  V30 16824 H 1614.77 3.71642 0.816217 0
M  V30 16825 H 1614.28 3.74774 -1.00826 0
M  V30 16826 H 1612.38 3.43737 1.43789 0
M  V30 16827 H 1612.49 4.78936 0.125471 0
M  V30 16828 H 1610.86 2.54175 0.163385 0
M  V30 16829 H 1611.64 3.1349 -1.39924 0
M  V30 16830 N 1614.09 0.188454 1.56469 0
M  V30 16831 C 1615.05 -0.721282 2.17555 0
M  V30 16832 C 1616.05 -1.14579 1.1282 0
M  V30 16833 O 1617.24 -1.05996 1.38241 0
M  V30 16834 C 1614.37 -1.9839 2.77226 0
M  V30 16835 H 1615.56 -0.189218 2.99302 0
M  V30 16836 H 1613.12 -0.0611533 1.5618 0
M  V30 16837 H 1613.85 -2.55864 1.99259 0
M  V30 16838 H 1613.64 -1.68831 3.53891 0
M  V30 16839 H 1615.13 -2.63277 3.24153 0
M  V30 16840 N 1615.56 -1.5737 -0.0851874 0
M  V30 16841 C 1616.5 -1.99462 -1.12905 0
M  V30 16842 C 1617.51 -0.898597 -1.35754 0
M  V30 16843 O 1618.7 -1.17662 -1.34231 0
M  V30 16844 C 1615.8 -2.30689 -2.48266 0
M  V30 16845 C 1614.97 -3.61967 -2.45557 0
M  V30 16846 C 1614.03 -3.81017 -3.62922 0
M  V30 16847 O 1613.06 -4.52759 -3.44961 0
M  V30 16848 N 1614.26 -3.22348 -4.82775 0
M  V30 16849 H 1617.02 -2.89621 -0.7707 0
M  V30 16850 H 1614.58 -1.59564 -0.274033 0
M  V30 16851 H 1616.58 -2.40618 -3.254 0
M  V30 16852 H 1615.15 -1.46488 -2.76152 0
M  V30 16853 H 1614.37 -3.62916 -1.539 0
M  V30 16854 H 1615.65 -4.48191 -2.40836 0
M  V30 16855 H 1615.05 -2.64093 -5.00271 0
M  V30 16856 H 1613.61 -3.37747 -5.57468 0
M  V30 16857 N 1617.04 0.356258 -1.53521 0
M  V30 16858 C 1618.32 1.11414 -1.60768 0
M  V30 16859 C 1618.7 2.0686 -0.420991 0
M  V30 16860 O 1618.05 2.20807 0.587929 0
M  V30 16861 C 1618.26 1.84503 -2.96243 0
M  V30 16862 C 1619.6 2.38703 -3.5115 0
M  V30 16863 O 1620.63 1.94617 -2.98333 0
M  V30 16864 O 1619.49 3.19322 -4.43504 0
M  V30 16865 H 1616.58 0.511623 -0.649747 0
M  V30 16866 H 1619.13 0.358772 -1.65864 0
M  V30 16867 H 1617.9 1.14898 -3.74051 0
M  V30 16868 H 1617.52 2.66927 -2.94679 0
M  V30 16869 N 1618.52 1.45038 0.616577 0
M  V30 16870 C 1619.47 1.53022 1.7278 0
M  V30 16871 C 1620.44 0.376778 1.6177 0
M  V30 16872 O 1621.62 0.589006 1.81481 0
M  V30 16873 C 1618.76 1.49432 3.11069 0
M  V30 16874 C 1617.87 2.7526 3.3295 0
M  V30 16875 C 1617.01 2.63403 4.61294 0
M  V30 16876 C 1616.05 3.84327 4.76402 0
M  V30 16877 N 1615.19 3.71058 5.96037 0
M  V30 16878 H 1620.03 2.47957 1.65292 0
M  V30 16879 H 1617.56 1.23046 0.806102 0
M  V30 16880 H 1619.52 1.45339 3.91066 0
M  V30 16881 H 1618.15 0.580542 3.17537 0
M  V30 16882 H 1617.2 2.89479 2.46792 0
M  V30 16883 H 1618.51 3.64978 3.39989 0
M  V30 16884 H 1617.67 2.57226 5.49472 0
M  V30 16885 H 1616.41 1.7127 4.56638 0
M  V30 16886 H 1615.41 3.90873 3.8665 0
M  V30 16887 H 1616.64 4.77515 4.82863 0
M  V30 16888 H 1614.58 2.81687 5.92443 0
M  V30 16889 H 1614.5 4.54403 6.04197 0
M  V30 16890 H 1615.77 3.68798 6.86738 0
M  V30 16891 N 1620 -0.858287 1.32179 0
M  V30 16892 C 1620.96 -1.94811 1.20753 0
M  V30 16893 C 1621.96 -1.60261 0.131526 0
M  V30 16894 O 1623.15 -1.69968 0.381662 0
M  V30 16895 C 1620.28 -3.29972 0.856229 0
M  V30 16896 H 1621.48 -2.06371 2.17603 0
M  V30 16897 H 1619.03 -1.04802 1.15958 0
M  V30 16898 H 1619.76 -3.24111 -0.11061 0
M  V30 16899 H 1619.55 -3.56424 1.63414 0
M  V30 16900 H 1621.04 -4.09856 0.800507 0
M  V30 16901 N 1621.48 -1.1533 -1.07409 0
M  V30 16902 C 1622.72 -0.922348 -1.79376 0
M  V30 16903 C 1623.04 0.551929 -1.87652 0
M  V30 16904 O 1624.24 0.900444 -2.56133 0
M  V30 16905 C 1622.7 -1.60081 -3.22339 0
M  V30 16906 C 1622.31 -3.11206 -3.22265 0
M  V30 16907 C 1624.05 -1.45138 -3.98917 0
M  V30 16908 C 1621.96 -3.71842 -4.59878 0
M  V30 16909 H 1620.89 -0.341438 -0.672262 0
M  V30 16910 H 1623.54 -1.38336 -1.20562 0
M  V30 16911 H 1621.92 -1.06748 -3.81341 0
M  V30 16912 H 1623.1 -3.7129 -2.72911 0
M  V30 16913 H 1621.41 -3.25903 -2.59183 0
M  V30 16914 H 1624.01 -1.87832 -5.00623 0
M  V30 16915 H 1624.35 -0.398796 -4.14385 0
M  V30 16916 H 1624.88 -1.95564 -3.46409 0
M  V30 16917 H 1621.62 -4.76998 -4.49614 0
M  V30 16918 H 1621.14 -3.16541 -5.09472 0
M  V30 16919 H 1622.82 -3.72733 -5.28847 0
M  V30 16920 N 1622.95 1.25748 -0.950004 0
M  V30 16921 C 1624.2 1.93622 -0.603186 0
M  V30 16922 C 1624.53 1.74271 0.856925 0
M  V30 16923 O 1623.81 1.08502 1.61423 0
M  V30 16924 C 1624.09 3.4715 -0.957024 0
M  V30 16925 C 1623.94 3.75747 -2.47253 0
M  V30 16926 C 1625.26 4.37488 -0.478754 0
M  V30 16927 H 1622.38 0.703206 -0.220612 0
M  V30 16928 H 1625.02 1.48453 -1.18582 0
M  V30 16929 H 1623.17 3.85753 -0.46122 0
M  V30 16930 H 1624.85 3.46808 -3.04174 0
M  V30 16931 H 1623.09 3.21516 -2.91222 0
M  V30 16932 H 1623.76 4.83097 -2.67061 0
M  V30 16933 H 1626.24 4.06162 -0.903987 0
M  V30 16934 H 1625.11 5.43682 -0.755073 0
M  V30 16935 H 1625.37 4.37712 0.621303 0
M  V30 16936 N 1624.43 0.718038 1.40292 0
M  V30 16937 C 1625.68 0.258603 2.00842 0
M  V30 16938 C 1626.01 -1.14894 1.56938 0
M  V30 16939 O 1625.26 -1.79414 0.781606 0
M  V30 16940 C 1625.56 0.289374 3.56227 0
M  V30 16941 C 1625.23 1.64756 4.19722 0
M  V30 16942 C 1623.89 2.01934 4.36779 0
M  V30 16943 C 1626.24 2.54008 4.55115 0
M  V30 16944 C 1623.57 3.27905 4.86513 0
M  V30 16945 C 1625.92 3.79334 5.06249 0
M  V30 16946 C 1624.58 4.16626 5.21516 0
M  V30 16947 H 1623.85 0.0946296 0.734933 0
M  V30 16948 H 1626.5 0.921552 1.67868 0
M  V30 16949 H 1624.81 -0.457147 3.89124 0
M  V30 16950 H 1626.5 -0.0839832 4.00912 0
M  V30 16951 H 1623.09 1.34846 4.06835 0
M  V30 16952 H 1627.28 2.2656 4.4157 0
M  V30 16953 H 1622.53 3.56763 4.96518 0
M  V30 16954 H 1626.71 4.48663 5.32611 0
M  V30 16955 H 1624.33 5.14306 5.59815 0
M  V30 16956 N 1625.91 -1.50602 0.464402 0
M  V30 16957 C 1626.82 -2.32142 -0.338721 0
M  V30 16958 C 1627.84 -1.4223 -1.00233 0
M  V30 16959 O 1629.01 -1.75288 -0.99177 0
M  V30 16960 C 1626.08 -3.16725 -1.41019 0
M  V30 16961 C 1625.14 -4.22449 -0.76388 0
M  V30 16962 C 1624.37 -5.0299 -1.78429 0
M  V30 16963 O 1624.59 -4.84516 -3.00999 0
M  V30 16964 O 1623.53 -5.86338 -1.35982 0
M  V30 16965 H 1627.35 -3.01927 0.327695 0
M  V30 16966 H 1624.94 -1.47675 0.226379 0
M  V30 16967 H 1626.82 -3.69228 -2.03097 0
M  V30 16968 H 1625.5 -2.49675 -2.06019 0
M  V30 16969 H 1624.4 -3.73955 -0.104318 0
M  V30 16970 H 1625.74 -4.9195 -0.156929 0
M  V30 16971 N 1627.39 -0.19675 -1.56367 0
M  V30 16972 C 1628.64 0.441807 -1.96802 0
M  V30 16973 C 1628.95 1.62645 -1.08656 0
M  V30 16974 O 1630.16 2.33291 -1.3888 0
M  V30 16975 C 1628.61 0.837415 -3.50022 0
M  V30 16976 C 1628.22 -0.323031 -4.46834 0
M  V30 16977 C 1629.96 1.44296 -3.99223 0
M  V30 16978 C 1627.87 0.0936285 -5.91326 0
M  V30 16979 H 1626.8 0.168834 -0.734854 0
M  V30 16980 H 1629.45 -0.289029 -1.81209 0
M  V30 16981 H 1627.83 1.62497 -3.61124 0
M  V30 16982 H 1629.01 -1.10056 -4.47464 0
M  V30 16983 H 1627.32 -0.840182 -4.07836 0
M  V30 16984 H 1629.92 1.76718 -5.04653 0
M  V30 16985 H 1630.26 2.35003 -3.43627 0
M  V30 16986 H 1630.8 0.71935 -3.91242 0
M  V30 16987 H 1627.54 -0.779297 -6.50851 0
M  V30 16988 H 1627.06 0.835984 -5.93946 0
M  V30 16989 H 1628.73 0.528864 -6.44835 0
M  V30 16990 N 1628.87 1.57413 0.0768405 0
M  V30 16991 C 1629.8 1.98626 1.12352 0
M  V30 16992 C 1630.78 0.862359 1.37848 0
M  V30 16993 O 1631.96 1.12423 1.51305 0
M  V30 16994 C 1629.09 2.31866 2.46893 0
M  V30 16995 C 1628.13 3.54212 2.37563 0
M  V30 16996 S 1628.97 5.05241 1.77459 0
M  V30 16997 C 1630.12 5.41677 3.13588 0
M  V30 16998 H 1630.36 2.87094 0.772273 0
M  V30 16999 H 1627.89 1.51743 0.285191 0
M  V30 17000 H 1629.85 2.51691 3.24287 0
M  V30 17001 H 1628.51 1.43935 2.7918 0
M  V30 17002 H 1627.7 3.7497 3.36769 0
M  V30 17003 H 1627.3 3.33991 1.68304 0
M  V30 17004 H 1629.6 5.39439 4.09893 0
M  V30 17005 H 1630.54 6.42519 2.97614 0
M  V30 17006 H 1630.95 4.69136 3.13961 0
M  V30 17007 N 1630.34 -0.348112 1.53707 0
M  V30 17008 C 1631.25 -1.45079 1.84361 0
M  V30 17009 C 1632.27 -1.5779 0.733375 0
M  V30 17010 O 1633.45 -1.73353 1.02522 0
M  V30 17011 C 1630.51 -2.80127 2.04278 0
M  V30 17012 C 1629.57 -2.76799 3.28148 0
M  V30 17013 C 1628.81 -4.05406 3.47105 0
M  V30 17014 O 1629.03 -5.02454 2.69992 0
M  V30 17015 O 1627.96 -4.10155 4.40519 0
M  V30 17016 H 1631.79 -1.22093 2.78077 0
M  V30 17017 H 1629.37 -0.539863 1.39305 0
M  V30 17018 H 1631.26 -3.60115 2.18849 0
M  V30 17019 H 1629.93 -3.03055 1.13751 0
M  V30 17020 H 1628.84 -1.95448 3.18984 0
M  V30 17021 H 1630.17 -2.58826 4.18653 0
M  V30 17022 N 1631.82 -1.45363 -0.608876 0
M  V30 17023 C 1632.79 -1.53551 -1.70161 0
M  V30 17024 C 1633.79 -0.415146 -1.55349 0
M  V30 17025 O 1634.98 -0.67858 -1.6044 0
M  V30 17026 C 1632.11 -1.43081 -3.0942 0
M  V30 17027 H 1633.3 -2.5091 -1.64268 0
M  V30 17028 H 1630.85 -1.32785 -0.824493 0
M  V30 17029 H 1631.59 -0.469016 -3.20891 0
M  V30 17030 H 1631.37 -2.24343 -3.21579 0
M  V30 17031 H 1632.86 -1.51841 -3.89017 0
M  V30 17032 N 1633.3 0.851265 -1.32632 0
M  V30 17033 C 1634.55 1.60252 -1.23141 0
M  V30 17034 C 1634.87 1.93909 0.205946 0
M  V30 17035 O 1634.14 1.59914 1.13156 0
M  V30 17036 H 1632.72 0.594137 -0.452781 0
M  V30 17037 H 1635.38 1.01806 -1.66197 0
M  V30 17038 H 1634.48 2.53796 -1.81643 0
M  V30 17039 N 1634.78 1.15898 1.06796 0
M  V30 17040 C 1635.69 0.87507 2.17669 0
M  V30 17041 C 1636.7 -0.150763 1.73346 0
M  V30 17042 O 1637.88 0.0246621 2.01385 0
M  V30 17043 C 1634.95 0.374555 3.44671 0
M  V30 17044 C 1634.01 1.46498 4.0353 0
M  V30 17045 C 1633.24 0.988256 5.2447 0
M  V30 17046 O 1633.46 -0.163992 5.70164 0
M  V30 17047 O 1632.4 1.7744 5.75151 0
M  V30 17048 H 1636.22 1.80208 2.44456 0
M  V30 17049 H 1633.81 0.93854 1.1624 0
M  V30 17050 H 1635.69 0.102161 4.21276 0
M  V30 17051 H 1634.36 -0.524513 3.19422 0
M  V30 17052 H 1633.27 1.79105 3.28439 0
M  V30 17053 H 1634.6 2.33917 4.33063 0
M  V30 17054 N 1636.26 -1.25243 0.956659 0
M  V30 17055 C 1637.67 -1.74909 0.652979 0
M  V30 17056 C 1638.02 -1.77704 -0.831605 0
M  V30 17057 O 1637.14 -1.39921 -1.65079 0
M  V30 17058 C 1637.74 -3.17639 1.1786 0
M  V30 17059 C 1636.3 -3.64856 0.925034 0
M  V30 17060 C 1635.44 -2.43844 1.32044 0
M  V30 17061 H 1638.4 -1.11101 1.13324 0
M  V30 17062 H 1638.42 -3.76654 0.539633 0
M  V30 17063 H 1637.93 -3.15572 2.25911 0
M  V30 17064 H 1636.03 -3.72335 -0.14043 0
M  V30 17065 H 1636.14 -4.5289 1.56292 0
M  V30 17066 H 1634.51 -2.43749 0.738813 0
M  V30 17067 H 1635.29 -2.44466 2.41021 0
M  V30 17068 N 1637.73 -0.725468 -1.3991 0
M  V30 17069 C 1638.96 -0.279202 -2.05007 0
M  V30 17070 C 1639.38 1.08257 -1.5468 0
M  V30 17071 O 1638.73 1.68224 -0.707585 0
M  V30 17072 C 1638.79 -0.261347 -3.60554 0
M  V30 17073 O 1638.51 -1.56935 -4.09027 0
M  V30 17074 C 1640.01 0.202259 -4.42838 0
M  V30 17075 H 1637.23 -0.123664 -0.659506 0
M  V30 17076 H 1639.77 -0.986447 -1.79135 0
M  V30 17077 H 1637.93 0.396936 -3.85361 0
M  V30 17078 H 1638.34 -1.47647 -5.0329 0
M  V30 17079 H 1639.81 0.163598 -5.51758 0
M  V30 17080 H 1640.29 1.24597 -4.21156 0
M  V30 17081 H 1640.9 -0.426108 -4.2316 0
M  V30 17082 N 1639.21 1.50354 -0.472382 0
M  V30 17083 C 1640.46 2.01934 0.0820006 0
M  V30 17084 C 1640.78 1.35636 1.401 0
M  V30 17085 O 1640.05 0.502127 1.89355 0
M  V30 17086 H 1638.63 0.746258 0.0332943 0
M  V30 17087 H 1641.29 1.84671 -0.623099 0
M  V30 17088 H 1640.39 3.11232 0.232565 0
M  V30 17089 N 1640.69 0.205039 1.56261 0
M  V30 17090 C 1642.1 -0.305792 1.84179 0
M  V30 17091 C 1642.45 -1.60672 1.126 0
M  V30 17092 O 1641.58 -2.12855 0.390118 0
M  V30 17093 C 1642.17 -0.561596 3.34113 0
M  V30 17094 C 1640.73 -1.01677 3.62407 0
M  V30 17095 C 1639.88 -0.0707844 2.7721 0
M  V30 17096 H 1642.83 0.428609 1.52803 0
M  V30 17097 H 1642.85 -1.40969 3.53423 0
M  V30 17098 H 1642.36 0.38541 3.86182 0
M  V30 17099 H 1640.46 -1.97771 3.1578 0
M  V30 17100 H 1640.58 -0.902607 4.70521 0
M  V30 17101 H 1638.94 -0.574529 2.48136 0
M  V30 17102 H 1639.72 0.870844 3.32071 0
M  V30 17103 N 1642.17 -1.57451 -0.0684915 0
M  V30 17104 C 1643.42 -1.86595 -0.765856 0
M  V30 17105 C 1643.73 -0.798157 -1.78574 0
M  V30 17106 O 1644.94 -0.977541 -2.53291 0
M  V30 17107 C 1643.39 -3.31001 -1.41302 0
M  V30 17108 C 1643 -4.45917 -0.431528 0
M  V30 17109 C 1644.75 -3.6934 -2.09256 0
M  V30 17110 C 1642.65 -5.81366 -1.08479 0
M  V30 17111 H 1641.58 -0.696092 -0.289778 0
M  V30 17112 H 1644.23 -1.8349 -0.0192171 0
M  V30 17113 H 1642.62 -3.28728 -2.20803 0
M  V30 17114 H 1643.79 -4.59589 0.333913 0
M  V30 17115 H 1642.1 -4.16152 0.143743 0
M  V30 17116 H 1644.7 -4.67833 -2.58913 0
M  V30 17117 H 1645.04 -2.99308 -2.89344 0
M  V30 17118 H 1645.58 -3.73618 -1.36581 0
M  V30 17119 H 1642.32 -6.54698 -0.324162 0
M  V30 17120 H 1641.84 -5.71488 -1.82102 0
M  V30 17121 H 1643.52 -6.26811 -1.60367 0
M  V30 17122 N 1643.65 0.339955 -1.5389 0
M  V30 17123 C 1644.58 1.42316 -1.85117 0
M  V30 17124 C 1645.56 1.5473 -0.706591 0
M  V30 17125 O 1646.74 1.68879 -0.958834 0
M  V30 17126 C 1643.87 2.79317 -2.06396 0
M  V30 17127 C 1642.83 2.81707 -3.22219 0
M  V30 17128 C 1642.15 4.21627 -3.28838 0
M  V30 17129 C 1643.45 2.46921 -4.60247 0
M  V30 17130 H 1645.15 1.16431 -2.75834 0
M  V30 17131 H 1642.69 0.558661 -1.32721 0
M  V30 17132 H 1644.65 3.55145 -2.26826 0
M  V30 17133 H 1643.37 3.06644 -1.12414 0
M  V30 17134 H 1642.03 2.08332 -3.01651 0
M  V30 17135 H 1641.68 4.4607 -2.32444 0
M  V30 17136 H 1641.38 4.24137 -4.06672 0
M  V30 17137 H 1642.9 4.99292 -3.51482 0
M  V30 17138 H 1644.32 3.12462 -4.80667 0
M  V30 17139 H 1642.71 2.60707 -5.40511 0
M  V30 17140 H 1643.78 1.421 -4.63611 0
M  V30 17141 N 1645.13 1.45684 0.601159 0
M  V30 17142 C 1646.37 1.4974 1.35729 0
M  V30 17143 C 1646.69 0.143072 1.94474 0
M  V30 17144 O 1645.96 -0.82832 1.77527 0
M  V30 17145 H 1644.54 0.551455 0.503892 0
M  V30 17146 H 1647.21 1.81685 0.705443 0
M  V30 17147 H 1646.3 2.23982 2.17344 0
M  V30 17148 N 1646.6 -0.84422 1.33082 0
M  V30 17149 C 1647.57 -1.93519 1.22813 0
M  V30 17150 C 1648.57 -1.60113 0.148516 0
M  V30 17151 O 1649.76 -1.69553 0.399668 0
M  V30 17152 C 1646.89 -3.29045 0.891179 0
M  V30 17153 H 1648.08 -2.04051 2.1978 0
M  V30 17154 H 1645.63 -1.03567 1.17063 0
M  V30 17155 H 1646.37 -3.2421 -0.0762276 0
M  V30 17156 H 1646.15 -3.54671 1.67186 0
M  V30 17157 H 1647.64 -4.08984 0.843932 0
M  V30 17158 N 1648.08 -1.16463 -1.0618 0
M  V30 17159 C 1648.99 -0.886601 -2.17202 0
M  V30 17160 C 1650.01 0.141568 -1.73423 0
M  V30 17161 O 1651.18 -0.0353417 -2.01369 0
M  V30 17162 C 1648.25 -0.392829 -3.44467 0
M  V30 17163 C 1647.31 -1.48636 -4.02748 0
M  V30 17164 C 1646.54 -1.01606 -5.23939 0
M  V30 17165 O 1646.77 0.133753 -5.70243 0
M  V30 17166 O 1645.7 -1.80487 -5.74202 0
M  V30 17167 H 1649.53 -1.81502 -2.43497 0
M  V30 17168 H 1647.11 -0.944691 -1.15741 0
M  V30 17169 H 1648.99 -0.124501 -4.21216 0
M  V30 17170 H 1647.67 0.507566 -3.19696 0
M  V30 17171 H 1646.57 -1.80845 -3.27484 0
M  V30 17172 H 1647.91 -2.3621 -4.31817 0
M  V30 17173 N 1649.56 1.24734 -0.963288 0
M  V30 17174 C 1650.52 2.23795 -0.494824 0
M  V30 17175 C 1651.52 1.55584 0.406225 0
M  V30 17176 O 1652.71 1.73021 0.202302 0
M  V30 17177 C 1649.84 3.39715 0.283963 0
M  V30 17178 H 1651.04 2.66753 -1.37051 0
M  V30 17179 H 1648.59 1.37271 -0.747428 0
M  V30 17180 H 1649.33 3.0219 1.17693 0
M  V30 17181 H 1649.11 3.9042 -0.362586 0
M  V30 17182 H 1650.6 4.13254 0.600899 0
M  V30 17183 N 1651.04 0.732878 1.39523 0
M  V30 17184 C 1651.97 0.106583 2.33257 0
M  V30 17185 C 1652.95 -0.726582 1.53801 0
M  V30 17186 O 1654.13 -0.671994 1.82203 0
M  V30 17187 C 1651.26 -0.803051 3.37888 0
M  V30 17188 C 1650.22 -0.0742048 4.27936 0
M  V30 17189 C 1649.54 -1.10071 5.23248 0
M  V30 17190 C 1650.84 1.08195 5.10971 0
M  V30 17191 H 1652.54 0.889539 2.8588 0
M  V30 17192 H 1650.08 0.429209 1.37455 0
M  V30 17193 H 1652.04 -1.25071 4.02412 0
M  V30 17194 H 1650.76 -1.6181 2.83699 0
M  V30 17195 H 1649.42 0.35381 3.64889 0
M  V30 17196 H 1649.07 -1.90927 4.65356 0
M  V30 17197 H 1648.77 -0.617825 5.84343 0
M  V30 17198 H 1650.29 -1.54812 5.90649 0
M  V30 17199 H 1651.71 0.712835 5.68851 0
M  V30 17200 H 1650.1 1.49433 5.81197 0
M  V30 17201 H 1651.17 1.90463 4.45928 0
M  V30 17202 N 1652.52 -1.50101 0.480349 0
M  V30 17203 C 1653.93 -1.8668 0.0274773 0
M  V30 17204 C 1654.28 -1.39442 -1.38023 0
M  V30 17205 O 1653.4 -0.763363 -2.02489 0
M  V30 17206 C 1654 -3.38773 0.043087 0
M  V30 17207 C 1652.56 -3.74728 -0.354352 0
M  V30 17208 C 1651.7 -2.7403 0.424583 0
M  V30 17209 H 1654.65 -1.42713 0.694172 0
M  V30 17210 H 1654.68 -3.72894 -0.756989 0
M  V30 17211 H 1654.19 -3.73123 1.06775 0
M  V30 17212 H 1652.29 -3.45981 -1.38303 0
M  V30 17213 H 1652.4 -4.79075 -0.0492608 0
M  V30 17214 H 1650.77 -2.54403 -0.122927 0
M  V30 17215 H 1651.55 -3.11225 1.44894 0
M  V30 17216 N 1653.99 -0.213323 -1.5615 0
M  V30 17217 C 1655.24 0.419767 -1.97693 0
M  V30 17218 C 1655.56 1.60878 -1.10197 0
M  V30 17219 O 1654.83 1.95097 -0.177185 0
M  V30 17220 H 1653.41 0.158075 -0.730083 0
M  V30 17221 H 1656.07 -0.304303 -1.9251 0
M  V30 17222 H 1655.17 0.751645 -3.02914 0
M  V30 17223 N 1655.47 1.57485 0.0601405 0
M  V30 17224 C 1656.72 1.87445 0.755575 0
M  V30 17225 C 1657.04 0.806915 1.77522 0
M  V30 17226 O 1656.31 -0.163139 1.9522 0
M  V30 17227 H 1654.89 0.691708 0.282044 0
M  V30 17228 H 1657.55 1.94871 0.0334616 0
M  V30 17229 H 1656.65 2.85334 1.26455 0
M  V30 17230 N 1656.95 -0.331789 1.54068 0
M  V30 17231 C 1657.88 -1.41332 1.8587 0
M  V30 17232 C 1658.86 -1.54353 0.714787 0
M  V30 17233 O 1660.05 -1.68368 0.967777 0
M  V30 17234 C 1657.18 -2.78218 2.07875 0
M  V30 17235 C 1656.13 -2.79994 3.23709 0
M  V30 17236 C 1655.46 -4.19878 3.31069 0
M  V30 17237 C 1656.76 -2.44476 4.6155 0
M  V30 17238 H 1658.45 -1.14966 2.76447 0
M  V30 17239 H 1656 -0.551615 1.33016 0
M  V30 17240 H 1657.95 -3.53937 2.28706 0
M  V30 17241 H 1656.67 -3.06044 1.14038 0
M  V30 17242 H 1655.33 -2.0673 3.02751 0
M  V30 17243 H 1654.98 -4.44831 2.34807 0
M  V30 17244 H 1654.68 -4.21974 4.08915 0
M  V30 17245 H 1656.2 -4.97421 3.54125 0
M  V30 17246 H 1657.62 -3.09908 4.82317 0
M  V30 17247 H 1656.02 -2.57837 5.41886 0
M  V30 17248 H 1657.09 -1.3964 4.64358 0
M  V30 17249 N 1658.43 -1.46001 -0.593424 0
M  V30 17250 C 1659.84 -1.30719 -0.915678 0
M  V30 17251 C 1660.04 -0.270679 -1.99674 0
M  V30 17252 O 1659.1 0.330482 -2.50328 0
M  V30 17253 C 1660.41 -2.69034 -1.34318 0
M  V30 17254 C 1661.96 -2.77041 -1.45662 0
M  V30 17255 C 1662.44 -4.15913 -1.91783 0
M  V30 17256 N 1663.93 -4.18277 -1.98994 0
M  V30 17257 C 1664.66 -5.22612 -2.35932 0
M  V30 17258 N 1664.16 -6.37283 -2.71738 0
M  V30 17259 N 1665.95 -5.09975 -2.36394 0
M  V30 17260 H 1658.1 -2.12056 0.120882 0
M  V30 17261 H 1660.37 -0.947961 -0.00858574 0
M  V30 17262 H 1660.07 -3.4614 -0.622922 0
M  V30 17263 H 1659.95 -2.98434 -2.30688 0
M  V30 17264 H 1662.33 -2.0023 -2.16776 0
M  V30 17265 H 1662.41 -2.51338 -0.475706 0
M  V30 17266 H 1662.06 -4.93215 -1.2125 0
M  V30 17267 H 1661.99 -4.39016 -2.90813 0
M  V30 17268 H 1664.48 -3.35534 -1.73855 0
M  V30 17269 H 1664.79 -7.12679 -2.98846 0
M  V30 17270 H 1663.14 -6.40662 -2.69401 0
M  V30 17271 H 1666.33 -4.1943 -2.07836 0
M  V30 17272 H 1666.5 -5.91402 -2.64854 0
M  V30 17273 N 1659.91 0.83715 -1.33527 0
M  V30 17274 C 1661.13 1.62456 -1.28124 0
M  V30 17275 C 1661.55 1.88223 0.147499 0
M  V30 17276 O 1660.91 1.4636 1.09018 0
M  V30 17277 C 1660.96 2.97376 -2.05547 0
M  V30 17278 O 1660.68 2.7274 -3.42847 0
M  V30 17279 C 1662.18 3.91805 -2.07374 0
M  V30 17280 H 1659.4 0.505436 -0.441334 0
M  V30 17281 H 1661.94 1.04263 -1.75925 0
M  V30 17282 H 1660.1 3.52166 -1.61424 0
M  V30 17283 H 1660.51 3.58669 -3.82696 0
M  V30 17284 H 1661.99 4.83684 -2.65996 0
M  V30 17285 H 1662.46 4.26106 -1.06444 0
M  V30 17286 H 1663.07 3.42952 -2.51523 0
M  V30 17287 N 1661.38 1.17024 1.05561 0
M  V30 17288 C 1662.31 0.906823 2.15172 0
M  V30 17289 C 1663.3 -0.149745 1.6944 0
M  V30 17290 O 1664.48 -0.000287092 1.942 0
M  V30 17291 C 1661.61 0.415251 3.44809 0
M  V30 17292 C 1660.56 1.41058 4.04088 0
M  V30 17293 C 1659.89 0.777109 5.29023 0
M  V30 17294 C 1661.19 2.78258 4.42007 0
M  V30 17295 H 1662.88 1.82347 2.37466 0
M  V30 17296 H 1660.43 0.878162 1.14124 0
M  V30 17297 H 1662.38 0.218407 4.20834 0
M  V30 17298 H 1661.11 -0.536924 3.22156 0
M  V30 17299 H 1659.77 1.5941 3.30127 0
M  V30 17300 H 1659.41 -0.181784 5.02671 0
M  V30 17301 H 1659.11 1.44151 5.69644 0
M  V30 17302 H 1660.64 0.590455 6.07738 0
M  V30 17303 H 1662.05 2.63645 5.09082 0
M  V30 17304 H 1660.45 3.41241 4.93634 0
M  V30 17305 H 1661.52 3.3295 3.52523 0
M  V30 17306 N 1662.86 -1.24221 0.969889 0
M  V30 17307 C 1664.27 -1.74206 0.671494 0
M  V30 17308 C 1664.62 -1.78576 -0.81271 0
M  V30 17309 O 1663.75 -1.41664 -1.63586 0
M  V30 17310 C 1664.34 -3.16371 1.21222 0
M  V30 17311 C 1662.9 -3.63855 0.96368 0
M  V30 17312 C 1662.05 -2.42429 1.34623 0
M  V30 17313 H 1665 -1.09893 1.14496 0
M  V30 17314 H 1665.02 -3.7606 0.579552 0
M  V30 17315 H 1664.53 -3.13159 2.29245 0
M  V30 17316 H 1662.64 -3.72463 -0.100931 0
M  V30 17317 H 1662.75 -4.51207 1.61087 0
M  V30 17318 H 1661.11 -2.42952 0.764624 0
M  V30 17319 H 1661.9 -2.41896 2.436 0
M  V30 17320 N 1664.34 -0.740267 -1.39132 0
M  V30 17321 C 1665.27 -0.064087 -2.2911 0
M  V30 17322 C 1666.29 0.697897 -1.47082 0
M  V30 17323 O 1667.47 0.541189 -1.70098 0
M  V30 17324 C 1664.57 0.933426 -3.25792 0
M  V30 17325 C 1663.75 0.231867 -4.36785 0
M  V30 17326 C 1662.81 1.13823 -5.13742 0
M  V30 17327 O 1661.83 0.613741 -5.65881 0
M  V30 17328 N 1663.03 2.46751 -5.25447 0
M  V30 17329 H 1665.8 -0.836774 -2.87781 0
M  V30 17330 H 1663.36 -0.589928 -1.5077 0
M  V30 17331 H 1665.35 1.5425 -3.74151 0
M  V30 17332 H 1663.92 1.60728 -2.68114 0
M  V30 17333 H 1663.14 -0.557747 -3.90234 0
M  V30 17334 H 1664.43 -0.254115 -5.08165 0
M  V30 17335 H 1663.83 2.91834 -4.84613 0
M  V30 17336 H 1662.39 3.02741 -5.77227 0
M  V30 17337 N 1665.82 1.49844 -0.488302 0
M  V30 17338 C 1666.73 2.32651 0.301746 0
M  V30 17339 C 1667.74 1.43807 0.979573 0
M  V30 17340 O 1668.92 1.76844 0.963758 0
M  V30 17341 C 1665.99 3.18928 1.35962 0
M  V30 17342 C 1665.05 4.23611 0.696575 0
M  V30 17343 C 1664.28 5.05765 1.70404 0
M  V30 17344 O 1664.5 4.89243 2.93253 0
M  V30 17345 O 1663.44 5.88427 1.26637 0
M  V30 17346 H 1667.26 3.01367 -0.375687 0
M  V30 17347 H 1664.85 1.47296 -0.249844 0
M  V30 17348 H 1666.73 3.72413 1.97198 0
M  V30 17349 H 1665.4 2.52921 2.02021 0
M  V30 17350 H 1664.31 3.74073 0.0448118 0
M  V30 17351 H 1665.64 4.92137 0.0786446 0
M  V30 17352 N 1667.3 0.221601 1.56034 0
M  V30 17353 C 1668.71 -0.28624 1.84493 0
M  V30 17354 C 1669.06 -1.59469 1.14298 0
M  V30 17355 O 1668.18 -2.12429 0.412672 0
M  V30 17356 C 1668.78 -0.526128 3.3469 0
M  V30 17357 C 1667.34 -0.978278 3.63465 0
M  V30 17358 C 1666.48 -0.0413786 2.77269 0
M  V30 17359 H 1669.44 0.444792 1.52339 0
M  V30 17360 H 1669.46 -1.37212 3.54899 0
M  V30 17361 H 1668.97 0.426348 3.85751 0
M  V30 17362 H 1667.07 -1.94411 3.1786 0
M  V30 17363 H 1667.18 -0.852651 4.71452 0
M  V30 17364 H 1665.55 -0.548179 2.48731 0
M  V30 17365 H 1666.33 0.906016 3.31129 0
M  V30 17366 N 1668.77 -1.57515 -0.0517878 0
M  V30 17367 C 1670.02 -1.87843 -0.745624 0
M  V30 17368 C 1670.34 -0.816318 -1.77091 0
M  V30 17369 O 1669.61 0.152784 -1.95303 0
M  V30 17370 H 1668.19 -0.693194 -0.278372 0
M  V30 17371 H 1670.86 -1.94886 -0.0231267 0
M  V30 17372 H 1669.95 -2.86001 -1.2494 0
M  V30 17373 N 1670.25 0.323614 -1.54242 0
M  V30 17374 C 1671.2 1.39826 -1.83623 0
M  V30 17375 C 1672.17 1.51393 -0.683331 0
M  V30 17376 O 1673.36 1.66614 -0.929754 0
M  V30 17377 C 1670.5 2.76187 -2.06918 0
M  V30 17378 C 1669.61 2.73251 -3.34601 0
M  V30 17379 C 1668.74 4.01458 -3.47857 0
M  V30 17380 C 1667.78 3.9283 -4.69415 0
M  V30 17381 N 1666.92 5.12767 -4.79598 0
M  V30 17382 H 1671.76 1.1407 -2.75303 0
M  V30 17383 H 1669.3 0.552188 -1.36343 0
M  V30 17384 H 1671.25 3.55458 -2.18416 0
M  V30 17385 H 1669.88 3.00251 -1.18529 0
M  V30 17386 H 1668.94 1.85971 -3.31842 0
M  V30 17387 H 1670.25 2.62759 -4.2398 0
M  V30 17388 H 1669.4 4.89161 -3.58897 0
M  V30 17389 H 1668.14 4.14757 -2.5657 0
M  V30 17390 H 1667.15 3.03512 -4.58433 0
M  V30 17391 H 1668.37 3.81097 -5.62087 0
M  V30 17392 H 1666.32 5.26572 -3.91227 0
M  V30 17393 H 1666.23 5.0461 -5.62943 0
M  V30 17394 H 1667.5 6.02184 -4.94969 0
M  V30 17395 N 1671.73 1.46313 0.585673 0
M  V30 17396 C 1673.14 1.4567 1.16778 0
M  V30 17397 C 1673.49 0.195957 1.95219 0
M  V30 17398 O 1672.62 -0.701142 2.04727 0
M  V30 17399 C 1673.21 2.6392 2.12443 0
M  V30 17400 C 1671.77 2.66327 2.65983 0
M  V30 17401 C 1670.92 2.38304 1.41797 0
M  V30 17402 H 1673.87 1.54236 0.37377 0
M  V30 17403 H 1673.89 2.39268 2.95856 0
M  V30 17404 H 1673.4 3.55663 1.55324 0
M  V30 17405 H 1671.5 1.78648 3.2698 0
M  V30 17406 H 1671.62 3.66203 3.08921 0
M  V30 17407 H 1669.98 1.88302 1.71507 0
M  V30 17408 H 1670.76 3.3222 0.86514 0
M  V30 17409 N 1673.21 -0.830057 1.33969 0
M  V30 17410 C 1674.14 -1.94785 1.20795 0
M  V30 17411 C 1675.15 -1.62225 0.136752 0
M  V30 17412 O 1676.34 -1.74233 0.38797 0
M  V30 17413 C 1673.44 -3.28523 0.832209 0
M  V30 17414 C 1672.62 -3.89157 1.99689 0
M  V30 17415 C 1671.68 -5.01262 1.6007 0
M  V30 17416 O 1670.7 -5.19939 2.31629 0
M  V30 17417 N 1671.9 -5.78249 0.510754 0
M  V30 17418 H 1674.67 -2.06621 2.17089 0
M  V30 17419 H 1672.23 -1.00626 1.26831 0
M  V30 17420 H 1674.22 -4.00958 0.549094 0
M  V30 17421 H 1672.79 -3.12574 -0.0403271 0
M  V30 17422 H 1672.01 -3.09203 2.44514 0
M  V30 17423 H 1673.3 -4.26399 2.77599 0
M  V30 17424 H 1672.7 -5.65637 -0.0842912 0
M  V30 17425 H 1671.25 -6.51166 0.287345 0
M  V30 17426 N 1674.69 -1.17582 -1.04939 0
M  V30 17427 C 1675.63 -0.894855 -2.12746 0
M  V30 17428 C 1676.6 0.162261 -1.65306 0
M  V30 17429 O 1677.79 0.0245068 -1.90784 0
M  V30 17430 C 1674.93 -0.417085 -3.4257 0
M  V30 17431 C 1674.04 -1.53861 -4.03672 0
M  V30 17432 C 1673.18 -1.01446 -5.21423 0
M  V30 17433 C 1672.22 -2.11127 -5.74536 0
M  V30 17434 N 1671.35 -1.60169 -6.83586 0
M  V30 17435 H 1676.19 -1.81802 -2.36118 0
M  V30 17436 H 1673.73 -0.906716 -1.15832 0
M  V30 17437 H 1675.69 -0.121619 -4.17023 0
M  V30 17438 H 1674.32 0.469119 -3.19373 0
M  V30 17439 H 1673.37 -1.94975 -3.26633 0
M  V30 17440 H 1674.68 -2.36575 -4.39128 0
M  V30 17441 H 1673.84 -0.672992 -6.02956 0
M  V30 17442 H 1672.58 -0.156795 -4.87448 0
M  V30 17443 H 1671.58 -2.46128 -4.91631 0
M  V30 17444 H 1672.81 -2.97313 -6.10559 0
M  V30 17445 H 1670.75 -0.766783 -6.51503 0
M  V30 17446 H 1670.67 -2.36488 -7.18059 0
M  V30 17447 H 1671.94 -1.28923 -7.68765 0
M  V30 17448 N 1676.17 1.23705 -0.976463 0
M  V30 17449 C 1677.44 1.87421 -0.559719 0
M  V30 17450 C 1677.82 1.87847 0.963166 0
M  V30 17451 O 1677.17 1.35726 1.83822 0
M  V30 17452 C 1677.38 3.29113 -1.16128 0
M  V30 17453 C 1678.73 4.05735 -1.25158 0
M  V30 17454 O 1679.75 3.38317 -1.11444 0
M  V30 17455 O 1678.61 5.26377 -1.46933 0
M  V30 17456 H 1675.71 0.80537 -0.187903 0
M  V30 17457 H 1678.25 1.31611 -1.07129 0
M  V30 17458 H 1677.02 3.23348 -2.20367 0
M  V30 17459 H 1676.65 3.92508 -0.63428 0
M  V30 17460 N 1677.64 0.747635 1.38738 0
M  V30 17461 C 1678.55 0.117879 2.34304 0
M  V30 17462 C 1679.57 -0.707488 1.58967 0
M  V30 17463 O 1680.75 -0.633025 1.91193 0
M  V30 17464 C 1677.81 -0.769223 3.38059 0
M  V30 17465 C 1676.87 0.0698358 4.29243 0
M  V30 17466 C 1676.1 -0.775021 5.28043 0
M  V30 17467 O 1676.33 -2.01328 5.33688 0
M  V30 17468 O 1675.26 -0.196978 6.01578 0
M  V30 17469 H 1679.09 0.906972 2.89841 0
M  V30 17470 H 1676.67 0.508453 1.40482 0
M  V30 17471 H 1678.55 -1.27641 4.01604 0
M  V30 17472 H 1677.23 -1.53691 2.84887 0
M  V30 17473 H 1676.14 0.622836 3.68879 0
M  V30 17474 H 1677.47 0.80004 4.85654 0
M  V30 17475 N 1679.12 -1.49583 0.496242 0
M  V30 17476 C 1680.37 -2.02738 -0.050037 0
M  V30 17477 C 1680.7 -1.37556 -1.37083 0
M  V30 17478 O 1679.98 -0.50964 -1.87704 0
M  V30 17479 C 1680.26 -3.59501 -0.207575 0
M  V30 17480 C 1680.11 -4.35218 1.13601 0
M  V30 17481 C 1681.43 -4.29715 -0.950443 0
M  V30 17482 H 1678.55 -0.736811 -0.0167105 0
M  V30 17483 H 1681.19 -1.78654 0.646728 0
M  V30 17484 H 1679.34 -3.80152 -0.801033 0
M  V30 17485 H 1681.01 -4.26075 1.76798 0
M  V30 17486 H 1679.26 -3.97964 1.72648 0
M  V30 17487 H 1679.93 -5.43247 0.979142 0
M  V30 17488 H 1682.4 -4.1369 -0.447173 0
M  V30 17489 H 1681.28 -5.39159 -1.02951 0
M  V30 17490 H 1681.54 -3.94627 -1.99304 0
M  V30 17491 N 1680.6 -0.229873 -1.55915 0
M  V30 17492 C 1681.53 0.671321 -2.23642 0
M  V30 17493 C 1682.51 1.19461 -1.21091 0
M  V30 17494 O 1683.7 1.23708 -1.49699 0
M  V30 17495 C 1680.83 1.87595 -2.92276 0
M  V30 17496 C 1679.78 1.48616 -4.01369 0
M  V30 17497 C 1679.11 2.77024 -4.57342 0
M  V30 17498 C 1680.41 0.669928 -5.17986 0
M  V30 17499 H 1682.1 0.106622 -2.9921 0
M  V30 17500 H 1679.65 0.0498418 -1.43914 0
M  V30 17501 H 1681.6 2.51191 -3.3835 0
M  V30 17502 H 1680.32 2.46576 -2.14168 0
M  V30 17503 H 1678.98 0.873623 -3.56038 0
M  V30 17504 H 1678.63 3.34166 -3.75955 0
M  V30 17505 H 1678.33 2.51674 -5.30975 0
M  V30 17506 H 1679.85 3.41548 -5.0614 0
M  V30 17507 H 1681.27 1.20978 -5.6039 0
M  V30 17508 H 1679.66 0.513174 -5.97902 0
M  V30 17509 H 1680.73 -0.321644 -4.83832 0
M  V30 17510 N 1682.08 1.5754 0.0434337 0
M  V30 17511 C 1683.49 1.54537 0.398819 0
M  V30 17512 C 1683.69 0.954055 1.77483 0
M  V30 17513 O 1682.75 0.568839 2.46009 0
M  V30 17514 C 1684.06 2.99058 0.313848 0
M  V30 17515 C 1685.61 3.10536 0.39198 0
M  V30 17516 C 1686.09 4.56761 0.336614 0
M  V30 17517 N 1687.58 4.61505 0.395844 0
M  V30 17518 C 1688.31 5.72168 0.375669 0
M  V30 17519 N 1687.81 6.92112 0.30863 0
M  V30 17520 N 1689.6 5.60496 0.424335 0
M  V30 17521 H 1681.75 1.94333 -0.857225 0
M  V30 17522 H 1684.01 0.890708 -0.324566 0
M  V30 17523 H 1683.72 3.4599 -0.631159 0
M  V30 17524 H 1683.59 3.60402 1.11313 0
M  V30 17525 H 1685.98 2.6356 1.32742 0
M  V30 17526 H 1686.06 2.5205 -0.436391 0
M  V30 17527 H 1685.71 5.04402 -0.595093 0
M  V30 17528 H 1685.64 5.13142 1.1829 0
M  V30 17529 H 1688.13 3.75202 0.450753 0
M  V30 17530 H 1688.44 7.72225 0.29794 0
M  V30 17531 H 1686.79 6.94456 0.274891 0
M  V30 17532 H 1689.98 4.65688 0.474599 0
M  V30 17533 H 1690.15 6.46732 0.405143 0
M  V30 17534 N 1683.56 -0.31543 1.54411 0
M  V30 17535 C 1684.79 -1.07018 1.76722 0
M  V30 17536 C 1685.19 -1.81921 0.519754 0
M  V30 17537 O 1684.54 -1.76201 -0.519501 0
M  V30 17538 C 1684.6 -2.10781 2.91224 0
M  V30 17539 C 1684.26 -1.55204 4.29838 0
M  V30 17540 C 1685.26 -0.989568 5.10395 0
M  V30 17541 C 1682.94 -1.59201 4.76403 0
M  V30 17542 C 1684.94 -0.474466 6.35632 0
M  V30 17543 C 1682.63 -1.07304 6.01605 0
M  V30 17544 C 1683.62 -0.51522 6.81054 0
M  V30 17545 O 1683.31 -0.00407259 8.039 0
M  V30 17546 H 1683.04 -0.323799 0.593406 0
M  V30 17547 H 1685.6 -0.364708 2.02136 0
M  V30 17548 H 1683.83 -2.84968 2.614 0
M  V30 17549 H 1685.52 -2.72043 3.01243 0
M  V30 17550 H 1686.28 -0.951691 4.75571 0
M  V30 17551 H 1682.16 -2.01559 4.14602 0
M  V30 17552 H 1685.71 -0.0384139 6.97589 0
M  V30 17553 H 1681.6 -1.10802 6.35919 0
M  V30 17554 H 1682.37 -0.118732 8.18414 0
M  V30 17555 N 1685.03 -1.46622 -0.577906 0
M  V30 17556 C 1686.45 -1.46287 -1.16004 0
M  V30 17557 C 1686.8 -0.206307 -1.95112 0
M  V30 17558 O 1685.92 0.690275 -2.05096 0
M  V30 17559 C 1686.52 -2.65042 -2.1104 0
M  V30 17560 C 1685.08 -2.67733 -2.64567 0
M  V30 17561 C 1684.22 -2.39053 -1.40531 0
M  V30 17562 H 1687.17 -1.54432 -0.365585 0
M  V30 17563 H 1687.19 -2.40834 -2.94583 0
M  V30 17564 H 1686.71 -3.56481 -1.53436 0
M  V30 17565 H 1684.81 -1.80379 -3.26028 0
M  V30 17566 H 1684.92 -3.67836 -3.06974 0
M  V30 17567 H 1683.28 -1.89209 -1.70506 0
M  V30 17568 H 1684.07 -3.32674 -0.847509 0
M  V30 17569 N 1686.51 0.822941 -1.34408 0
M  V30 17570 C 1687.79 1.56492 -1.17345 0
M  V30 17571 C 1688.17 2.09567 0.253965 0
M  V30 17572 O 1687.52 1.90931 1.25529 0
M  V30 17573 C 1687.73 2.6863 -2.22797 0
M  V30 17574 C 1689.08 3.37399 -2.57773 0
M  V30 17575 O 1690.1 2.78887 -2.21587 0
M  V30 17576 O 1688.96 4.43063 -3.19934 0
M  V30 17577 H 1686.05 0.690664 -0.454876 0
M  V30 17578 H 1688.6 0.864315 -1.4604 0
M  V30 17579 H 1687.37 2.27166 -3.18608 0
M  V30 17580 H 1686.99 3.46341 -1.95279 0
M  V30 17581 N 1687.99 1.18137 1.04314 0
M  V30 17582 C 1689.41 0.930523 1.29667 0
M  V30 17583 C 1689.61 -0.405336 1.97381 0
M  V30 17584 O 1688.66 -1.14025 2.25288 0
M  V30 17585 C 1689.98 2.09427 2.1578 0
M  V30 17586 C 1691.52 2.13229 2.29134 0
M  V30 17587 C 1692 3.29014 3.18612 0
M  V30 17588 N 1693.49 3.28859 3.26199 0
M  V30 17589 C 1694.22 4.15092 3.95583 0
M  V30 17590 N 1693.72 5.11453 4.67319 0
M  V30 17591 N 1695.51 4.03014 3.91837 0
M  V30 17592 H 1687.66 2.04108 0.587669 0
M  V30 17593 H 1689.93 0.89171 0.321804 0
M  V30 17594 H 1689.63 3.06023 1.73328 0
M  V30 17595 H 1689.51 2.0528 3.16449 0
M  V30 17596 H 1691.89 1.17212 2.70823 0
M  V30 17597 H 1691.98 2.21435 1.28064 0
M  V30 17598 H 1691.62 4.25302 2.77635 0
M  V30 17599 H 1691.55 3.18045 4.19708 0
M  V30 17600 H 1694.04 2.59097 2.75095 0
M  V30 17601 H 1694.35 5.7363 5.1785 0
M  V30 17602 H 1692.7 5.15415 4.66232 0
M  V30 17603 H 1695.89 3.27021 3.34925 0
M  V30 17604 H 1696.06 4.70435 4.4564 0
M  V30 17605 N 1689.47 -1.23186 0.98301 0
M  V30 17606 C 1690.69 -1.96242 0.671114 0
M  V30 17607 C 1691.12 -1.72248 -0.755792 0
M  V30 17608 O 1690.48 -0.995555 -1.5152 0
M  V30 17609 C 1690.52 -3.47293 0.970571 0
M  V30 17610 O 1689.63 -4.1235 0.0639814 0
M  V30 17611 H 1688.97 -0.614262 0.252147 0
M  V30 17612 H 1691.5 -1.56551 1.31731 0
M  V30 17613 H 1691.51 -3.9776 0.908345 0
M  V30 17614 H 1690.18 -3.64083 2.01039 0
M  V30 17615 H 1688.76 -3.72461 0.180842 0
M  V30 17616 N 1690.95 -0.754982 -1.38339 0
M  V30 17617 C 1691.88 -0.143678 -2.33058 0
M  V30 17618 C 1692.86 0.702022 -1.54938 0
M  V30 17619 O 1694.04 0.642922 -1.83249 0
M  V30 17620 C 1691.17 0.749194 -3.39123 0
M  V30 17621 C 1690.13 0.00611459 -4.28 0
M  V30 17622 C 1689.45 1.01733 -5.24933 0
M  V30 17623 C 1690.75 -1.1631 -5.09185 0
M  V30 17624 H 1692.45 -0.934907 -2.84429 0
M  V30 17625 H 1689.99 -0.451023 -1.36754 0
M  V30 17626 H 1691.95 1.18653 -4.04351 0
M  V30 17627 H 1690.67 1.57276 -2.86237 0
M  V30 17628 H 1689.33 -0.411816 -3.6428 0
M  V30 17629 H 1688.98 1.83499 -4.68334 0
M  V30 17630 H 1688.68 0.524783 -5.85252 0
M  V30 17631 H 1690.2 1.45395 -5.93037 0
M  V30 17632 H 1691.61 -0.803244 -5.67645 0
M  V30 17633 H 1690.01 -1.5866 -5.78746 0
M  V30 17634 H 1691.08 -1.97533 -4.42842 0
M  V30 17635 N 1692.42 1.49318 -0.504168 0
M  V30 17636 C 1693.65 2.07365 0.038102 0
M  V30 17637 C 1694.07 1.36164 1.29773 0
M  V30 17638 O 1693.43 0.419365 1.76383 0
M  V30 17639 C 1693.48 3.59576 0.271535 0
M  V30 17640 O 1692.58 3.8983 1.34561 0
M  V30 17641 H 1691.93 0.663425 -0.0276328 0
M  V30 17642 H 1694.46 1.92081 -0.704696 0
M  V30 17643 H 1694.47 4.04899 0.502083 0
M  V30 17644 H 1693.14 4.10809 -0.648754 0
M  V30 17645 H 1691.72 3.56314 1.09976 0
M  V30 17646 N 1693.9 0.238138 1.5579 0
M  V30 17647 C 1695.31 -0.266656 1.84786 0
M  V30 17648 C 1695.66 -1.58248 1.15983 0
M  V30 17649 O 1694.79 -2.11979 0.43518 0
M  V30 17650 C 1695.38 -0.4906 3.35229 0
M  V30 17651 C 1693.94 -0.939672 3.64482 0
M  V30 17652 C 1693.09 -0.0119682 2.77297 0
M  V30 17653 H 1696.04 0.460924 1.51859 0
M  V30 17654 H 1696.06 -1.3344 3.56334 0
M  V30 17655 H 1695.57 0.467239 3.85277 0
M  V30 17656 H 1693.68 -1.91029 3.19904 0
M  V30 17657 H 1693.79 -0.8026 4.72329 0
M  V30 17658 H 1692.15 -0.521767 2.49298 0
M  V30 17659 H 1692.94 0.941085 3.30149 0
M  V30 17660 N 1695.38 -1.57561 -0.0350783 0
M  V30 17661 C 1696.29 -2.09558 -1.05464 0
M  V30 17662 C 1697.31 -1.03288 -1.40027 0
M  V30 17663 O 1698.48 -1.34987 -1.49467 0
M  V30 17664 C 1695.55 -2.55966 -2.33842 0
M  V30 17665 C 1694.61 -3.76693 -2.05915 0
M  V30 17666 C 1693.84 -4.20878 -3.28172 0
M  V30 17667 O 1694.06 -3.64634 -4.38632 0
M  V30 17668 O 1693 -5.13367 -3.14225 0
M  V30 17669 H 1696.82 -2.9682 -0.642771 0
M  V30 17670 H 1694.41 -1.47265 -0.251668 0
M  V30 17671 H 1696.29 -2.86173 -3.09327 0
M  V30 17672 H 1694.97 -1.71818 -2.74336 0
M  V30 17673 H 1693.87 -3.51514 -1.28018 0
M  V30 17674 H 1695.21 -4.61807 -1.70281 0
M  V30 17675 N 1696.86 0.307236 -1.54576 0
M  V30 17676 C 1698.14 1.06243 -1.64231 0
M  V30 17677 C 1698.52 2.05415 -0.486589 0
M  V30 17678 O 1697.86 2.22565 0.517384 0
M  V30 17679 C 1698.07 1.74985 -3.01962 0
M  V30 17680 C 1699.42 2.2741 -3.58566 0
M  V30 17681 O 1700.45 1.85027 -3.04374 0
M  V30 17682 O 1699.3 3.05051 -4.53438 0
M  V30 17683 H 1696.4 0.490693 -0.665695 0
M  V30 17684 H 1698.94 0.305822 -1.66922 0
M  V30 17685 H 1697.72 1.02939 -3.77517 0
M  V30 17686 H 1697.34 2.57417 -3.03022 0
M  V30 17687 N 1698.34 1.46926 0.570122 0
M  V30 17688 C 1699.3 1.58009 1.6603 0
M  V30 17689 C 1700.3 0.456188 1.54193 0
M  V30 17690 O 1701.49 0.720879 1.58584 0
M  V30 17691 C 1698.62 1.51235 3.05517 0
M  V30 17692 H 1699.81 2.55178 1.57558 0
M  V30 17693 H 1697.37 1.34924 0.788998 0
M  V30 17694 H 1698.1 0.553929 3.19534 0
M  V30 17695 H 1697.89 2.3279 3.15518 0
M  V30 17696 H 1699.38 1.62101 3.84854 0
M  V30 17697 N 1699.82 -0.815801 1.34842 0
M  V30 17698 C 1700.73 -1.95886 1.29097 0
M  V30 17699 C 1701.74 -1.72876 0.197422 0
M  V30 17700 O 1702.92 -1.96861 0.425166 0
M  V30 17701 C 1699.98 -3.30311 1.05336 0
M  V30 17702 C 1699.04 -3.66279 2.23916 0
M  V30 17703 C 1698.28 -4.9429 2.01279 0
M  V30 17704 O 1698.5 -5.62012 0.974603 0
M  V30 17705 O 1697.43 -5.28302 2.88411 0
M  V30 17706 H 1701.26 -2.03678 2.25276 0
M  V30 17707 H 1698.84 -0.952243 1.1512 0
M  V30 17708 H 1700.73 -4.10806 0.938961 0
M  V30 17709 H 1699.4 -3.2347 0.122024 0
M  V30 17710 H 1698.31 -2.86198 2.40918 0
M  V30 17711 H 1699.64 -3.77814 3.15464 0
M  V30 17712 N 1701.29 -1.18689 -1.03686 0
M  V30 17713 C 1702.52 -1.01024 -1.81132 0
M  V30 17714 C 1702.94 0.436584 -1.82963 0
M  V30 17715 O 1702.3 1.31343 -1.24975 0
M  V30 17716 C 1702.35 -1.5742 -3.24424 0
M  V30 17717 O 1701.45 -0.79813 -4.04603 0
M  V30 17718 H 1700.79 -0.357623 -0.559465 0
M  V30 17719 H 1703.32 -1.57532 -1.30556 0
M  V30 17720 H 1703.33 -1.60295 -3.75193 0
M  V30 17721 H 1702.01 -2.6273 -3.22406 0
M  V30 17722 H 1700.59 -0.842 -3.6327 0
M  V30 17723 N 1702.77 1.22662 -0.989529 0
M  V30 17724 C 1703.7 2.26762 -0.556891 0
M  V30 17725 C 1704.68 1.64971 0.414538 0
M  V30 17726 O 1705.87 1.91775 0.305909 0
M  V30 17727 C 1703 3.47047 0.132573 0
M  V30 17728 C 1701.95 4.21251 -0.757058 0
M  V30 17729 C 1701.28 5.3466 0.065134 0
M  V30 17730 C 1702.58 4.8029 -2.05229 0
M  V30 17731 H 1704.27 2.63204 -1.42703 0
M  V30 17732 H 1701.82 1.26522 -0.687614 0
M  V30 17733 H 1703.77 4.19027 0.446609 0
M  V30 17734 H 1702.49 3.09692 1.03723 0
M  V30 17735 H 1701.15 3.51101 -1.05469 0
M  V30 17736 H 1700.8 4.93547 0.970607 0
M  V30 17737 H 1700.5 5.85231 -0.527063 0
M  V30 17738 H 1702.03 6.09458 0.373342 0
M  V30 17739 H 1703.44 5.44229 -1.80242 0
M  V30 17740 H 1701.84 5.41186 -2.59302 0
M  V30 17741 H 1702.91 4.00529 -2.73322 0
M  V30 17742 N 1704.25 0.762308 1.37937 0
M  V30 17743 C 1705.47 0.332217 2.04722 0
M  V30 17744 C 1705.9 -1.03417 1.57119 0
M  V30 17745 O 1705.26 -1.6608 0.727117 0
M  V30 17746 C 1705.31 0.373899 3.58656 0
M  V30 17747 O 1704.41 -0.629024 4.07575 0
M  V30 17748 H 1703.75 0.145471 0.647869 0
M  V30 17749 H 1706.28 1.03586 1.7644 0
M  V30 17750 H 1706.29 0.22785 4.07363 0
M  V30 17751 H 1704.97 1.37079 3.92661 0
M  V30 17752 H 1703.54 -0.446871 3.70213 0
M  V30 17753 N 1705.73 -1.49049 0.51208 0
M  V30 17754 C 1706.97 -2.0278 -0.0285311 0
M  V30 17755 C 1707.31 -1.39003 -1.35617 0
M  V30 17756 O 1706.58 -0.52952 -1.87153 0
M  V30 17757 C 1706.86 -3.59701 -0.169433 0
M  V30 17758 C 1706.72 -4.33989 1.18211 0
M  V30 17759 C 1708.04 -4.30698 -0.904812 0
M  V30 17760 H 1705.16 -0.736946 -0.00889467 0
M  V30 17761 H 1707.8 -1.77959 0.66564 0
M  V30 17762 H 1705.95 -3.8098 -0.760667 0
M  V30 17763 H 1707.62 -4.24176 1.81307 0
M  V30 17764 H 1705.86 -3.9611 1.76859 0
M  V30 17765 H 1706.53 -5.42177 1.03671 0
M  V30 17766 H 1709.01 -4.14141 -0.40327 0
M  V30 17767 H 1707.89 -5.40221 -0.972264 0
M  V30 17768 H 1708.15 -3.96718 -1.95108 0
M  V30 17769 N 1707.21 -0.246397 -1.55662 0
M  V30 17770 C 1708.14 0.647563 -2.24341 0
M  V30 17771 C 1709.12 1.1817 -1.22352 0
M  V30 17772 O 1710.3 1.22114 -1.51003 0
M  V30 17773 C 1707.43 1.84485 -2.94249 0
M  V30 17774 C 1706.39 1.4435 -4.02923 0
M  V30 17775 C 1705.71 2.72158 -4.60255 0
M  V30 17776 C 1707.01 0.614951 -5.18667 0
M  V30 17777 H 1708.71 0.0748803 -2.99306 0
M  V30 17778 H 1706.25 0.034575 -1.43958 0
M  V30 17779 H 1708.2 2.47588 -3.40995 0
M  V30 17780 H 1706.93 2.4429 -2.16772 0
M  V30 17781 H 1705.59 0.835811 -3.56945 0
M  V30 17782 H 1705.24 3.3016 -3.79478 0
M  V30 17783 H 1704.94 2.46028 -5.33614 0
M  V30 17784 H 1706.46 3.36161 -5.09734 0
M  V30 17785 H 1707.87 1.15028 -5.61642 0
M  V30 17786 H 1706.27 0.449729 -5.98412 0
M  V30 17787 H 1707.34 -0.372943 -4.83464 0
M  V30 17788 N 1708.68 1.57577 0.026722 0
M  V30 17789 C 1709.91 1.94035 0.732473 0
M  V30 17790 C 1710.33 0.846575 1.67972 0
M  V30 17791 O 1709.69 -0.197514 1.80221 0
M  V30 17792 C 1709.74 3.2956 1.46365 0
M  V30 17793 O 1708.84 3.21975 2.57694 0
M  V30 17794 H 1708.18 0.634155 0.196832 0
M  V30 17795 H 1710.71 2.04592 -0.018503 0
M  V30 17796 H 1710.72 3.64504 1.83305 0
M  V30 17797 H 1709.4 4.0873 0.768943 0
M  V30 17798 H 1707.98 2.98665 2.23279 0
M  V30 17799 N 1710.16 -0.299034 1.54737 0
M  V30 17800 C 1711.41 -1.03553 1.74369 0
M  V30 17801 C 1711.74 -1.86856 0.529019 0
M  V30 17802 O 1711.02 -1.8864 -0.473854 0
M  V30 17803 C 1711.3 -1.93988 3.03382 0
M  V30 17804 C 1711.15 -1.13852 4.35153 0
M  V30 17805 C 1712.47 -2.93128 3.28274 0
M  V30 17806 H 1709.59 -0.375055 0.634431 0
M  V30 17807 H 1712.23 -0.310018 1.87454 0
M  V30 17808 H 1710.38 -2.5585 2.92358 0
M  V30 17809 H 1712.05 -0.542614 4.58098 0
M  V30 17810 H 1710.3 -0.441278 4.3155 0
M  V30 17811 H 1710.97 -1.80385 5.21694 0
M  V30 17812 H 1713.44 -2.41396 3.38921 0
M  V30 17813 H 1712.32 -3.53569 4.19857 0
M  V30 17814 H 1712.58 -3.66892 2.46663 0
M  V30 17815 N 1711.64 -1.47227 -0.562322 0
M  V30 17816 C 1713.05 -1.47509 -1.14446 0
M  V30 17817 C 1713.4 -0.22699 -1.94883 0
M  V30 17818 O 1712.53 0.668483 -2.05816 0
M  V30 17819 C 1713.12 -2.67266 -2.08217 0
M  V30 17820 C 1711.68 -2.70524 -2.61713 0
M  V30 17821 C 1710.83 -2.4053 -1.37988 0
M  V30 17822 H 1713.78 -1.54811 -0.349185 0
M  V30 17823 H 1713.8 -2.43945 -2.92012 0
M  V30 17824 H 1713.31 -3.58089 -1.49646 0
M  V30 17825 H 1711.41 -1.83827 -3.24096 0
M  V30 17826 H 1711.53 -3.71072 -3.03056 0
M  V30 17827 H 1709.89 -1.91007 -1.68489 0
M  V30 17828 H 1710.67 -3.33554 -0.812177 0
M  V30 17829 N 1713.12 0.808639 -1.35273 0
M  V30 17830 C 1714.34 1.60219 -1.31699 0
M  V30 17831 C 1714.77 1.87816 0.103386 0
M  V30 17832 O 1714.13 1.46389 1.06957 0
M  V30 17833 C 1714.17 2.9116 -2.12739 0
M  V30 17834 O 1713.28 3.83891 -1.5067 0
M  V30 17835 H 1712.62 0.486742 -0.45164 0
M  V30 17836 H 1715.15 1.00378 -1.78284 0
M  V30 17837 H 1715.16 3.40602 -2.2462 0
M  V30 17838 H 1713.83 2.70399 -3.16002 0
M  V30 17839 H 1712.41 3.42437 -1.47618 0
M  V30 17840 N 1714.6 1.19237 1.03055 0
M  V30 17841 C 1716.01 0.996569 1.57878 0
M  V30 17842 C 1716.36 -0.450987 1.90946 0
M  V30 17843 O 1715.48 -1.33009 1.70697 0
M  V30 17844 C 1716.08 1.80272 2.86858 0
M  V30 17845 C 1714.64 1.65097 3.3826 0
M  V30 17846 C 1713.78 1.79079 2.11721 0
M  V30 17847 H 1716.74 1.33633 0.856037 0
M  V30 17848 H 1716.76 1.29781 3.57683 0
M  V30 17849 H 1716.27 2.85621 2.62759 0
M  V30 17850 H 1714.37 0.623267 3.6735 0
M  V30 17851 H 1714.48 2.45527 4.11404 0
M  V30 17852 H 1712.85 1.22124 2.23512 0
M  V30 17853 H 1713.63 2.85885 1.90065 0
M  V30 17854 N 1716.07 -1.22136 0.99602 0
M  V30 17855 C 1717.35 -1.86506 0.589466 0
M  V30 17856 C 1717.73 -1.89355 -0.933159 0
M  V30 17857 O 1717.08 -1.38634 -1.8164 0
M  V30 17858 C 1717.29 -3.27224 1.21349 0
M  V30 17859 C 1718.64 -4.03692 1.31597 0
M  V30 17860 O 1719.66 -3.36502 1.16812 0
M  V30 17861 O 1718.52 -5.23973 1.55289 0
M  V30 17862 H 1715.61 -0.802279 0.200692 0
M  V30 17863 H 1718.16 -1.2989 1.0921 0
M  V30 17864 H 1716.93 -3.19802 2.25483 0
M  V30 17865 H 1716.56 -3.91449 0.696645 0
M  V30 17866 N 1717.55 -0.769612 -1.37531 0
M  V30 17867 C 1718.78 -0.344282 -2.04015 0
M  V30 17868 C 1719.2 1.03281 -1.58046 0
M  V30 17869 O 1718.55 1.65888 -0.760746 0
M  V30 17870 C 1718.6 -0.375922 -3.5954 0
M  V30 17871 O 1718.32 -1.69869 -4.03827 0
M  V30 17872 C 1719.83 0.0612715 -4.43258 0
M  V30 17873 H 1717.05 -0.144584 -0.655238 0
M  V30 17874 H 1719.59 -1.04294 -1.75906 0
M  V30 17875 H 1717.74 0.274136 -3.86429 0
M  V30 17876 H 1718.16 -1.63584 -4.98338 0
M  V30 17877 H 1719.63 -0.012022 -5.51999 0
M  V30 17878 H 1720.11 1.11136 -4.24906 0
M  V30 17879 H 1720.72 -0.560517 -4.2159 0
M  V30 17880 N 1719.03 1.48775 -0.519977 0
M  V30 17881 C 1719.99 2.27967 0.237405 0
M  V30 17882 C 1720.99 1.34787 0.876868 0
M  V30 17883 O 1722.18 1.57773 0.738463 0
M  V30 17884 C 1719.32 3.13353 1.34248 0
M  V30 17885 H 1720.51 2.96386 -0.457753 0
M  V30 17886 H 1718.06 1.53852 -0.275569 0
M  V30 17887 H 1718.8 2.49543 2.0712 0
M  V30 17888 H 1718.58 3.81885 0.889187 0
M  V30 17889 H 1720.07 3.73116 1.87547 0
M  V30 17890 N 1720.51 0.254649 1.55529 0
M  V30 17891 C 1721.46 -0.657787 2.23105 0
M  V30 17892 C 1722.45 -1.17402 1.22119 0
M  V30 17893 O 1723.66 -1.13002 1.40109 0
M  V30 17894 H 1720.03 -0.230628 0.715762 0
M  V30 17895 H 1722 -0.0647759 2.9833 0
M  V30 17896 C 1720.75 -1.84018 2.95013 0
M  V30 17897 H 1720.07 -1.45211 3.72497 0
M  V30 17898 H 1721.51 -2.45568 3.45648 0
M  V30 17899 C 1719.97 -2.7161 1.99322 0
M  V30 17900 O 1720.5 -3.7137 1.53125 0
M  V30 17901 N 1718.71 -2.38342 1.66258 0
M  V30 17902 H 1718.26 -1.57268 2.04021 0
M  V30 17903 H 1718.21 -2.97222 1.025 0
M  V30 17904 N 1721.99 -1.57589 -0.0183649 0
M  V30 17905 C 1722.92 -2.04071 -1.04343 0
M  V30 17906 C 1723.93 -0.955366 -1.3182 0
M  V30 17907 O 1725.12 -1.23249 -1.29119 0
M  V30 17908 C 1722.22 -2.41011 -2.38258 0
M  V30 17909 C 1721.39 -3.72057 -2.29984 0
M  V30 17910 C 1720.45 -3.96067 -3.46435 0
M  V30 17911 O 1719.48 -4.66982 -3.25447 0
M  V30 17912 N 1720.68 -3.42535 -4.68669 0
M  V30 17913 H 1723.45 -2.92629 -0.647168 0
M  V30 17914 H 1721.01 -1.60583 -0.20611 0
M  V30 17915 H 1723 -2.54203 -3.14902 0
M  V30 17916 H 1721.57 -1.58068 -2.69691 0
M  V30 17917 H 1720.79 -3.69117 -1.38369 0
M  V30 17918 H 1722.08 -4.58003 -2.2161 0
M  V30 17919 H 1721.47 -2.85073 -4.8862 0
M  V30 17920 H 1720.03 -3.61087 -5.42641 0
M  V30 17921 N 1723.46 0.290824 -1.54893 0
M  V30 17922 C 1724.37 1.38137 -1.89619 0
M  V30 17923 C 1725.39 1.54959 -0.791432 0
M  V30 17924 O 1726.57 1.69428 -1.08885 0
M  V30 17925 C 1723.63 2.72353 -2.14534 0
M  V30 17926 C 1722.69 2.64429 -3.38195 0
M  V30 17927 C 1721.93 3.92244 -3.61912 0
M  V30 17928 O 1722.15 4.92088 -2.88454 0
M  V30 17929 O 1721.08 3.93523 -4.55438 0
M  V30 17930 H 1724.91 1.11688 -2.82417 0
M  V30 17931 H 1722.49 0.487789 -1.41213 0
M  V30 17932 H 1724.38 3.51745 -2.32064 0
M  V30 17933 H 1723.05 2.98624 -1.24921 0
M  V30 17934 H 1721.96 1.83474 -3.26018 0
M  V30 17935 H 1723.29 2.43109 -4.2797 0
M  V30 17936 N 1724.94 1.47523 0.554506 0
M  V30 17937 C 1726.35 1.48114 1.13662 0
M  V30 17938 C 1726.7 0.237321 1.94759 0
M  V30 17939 O 1725.83 -0.657558 2.06168 0
M  V30 17940 C 1726.42 2.68366 2.06797 0
M  V30 17941 C 1724.98 2.71908 2.60274 0
M  V30 17942 C 1724.13 2.41258 1.3671 0
M  V30 17943 H 1727.08 1.54994 0.34097 0
M  V30 17944 H 1727.1 2.4549 2.90714 0
M  V30 17945 H 1726.61 3.58877 1.47745 0
M  V30 17946 H 1724.72 1.85543 3.23117 0
M  V30 17947 H 1724.83 3.72673 3.01084 0
M  V30 17948 H 1723.19 1.91897 1.67474 0
M  V30 17949 H 1723.98 3.3398 0.794476 0
M  V30 17950 N 1726.42 -0.801453 1.357 0
M  V30 17951 C 1727.65 -1.59001 1.32386 0
M  V30 17952 C 1728.06 -1.88548 -0.0975432 0
M  V30 17953 O 1727.42 -1.49199 -1.05099 0
M  V30 17954 C 1727.47 -2.91822 2.13359 0
M  V30 17955 O 1727.19 -2.63554 3.49958 0
M  V30 17956 C 1728.69 -3.86169 2.17689 0
M  V30 17957 H 1725.91 -0.493557 0.45458 0
M  V30 17958 H 1728.46 -0.995616 1.78627 0
M  V30 17959 H 1726.61 -3.47763 1.70704 0
M  V30 17960 H 1727.03 -3.48397 3.92071 0
M  V30 17961 H 1728.5 -4.76461 2.78727 0
M  V30 17962 H 1728.98 -4.23134 1.17704 0
M  V30 17963 H 1729.58 -3.36163 2.60527 0
M  V30 17964 N 1727.9 -1.19782 -1.02421 0
M  V30 17965 C 1729.31 -1.00493 -1.57347 0
M  V30 17966 C 1729.66 0.440854 -1.91183 0
M  V30 17967 O 1728.79 1.32102 -1.714 0
M  V30 17968 C 1729.38 -1.8179 -2.85898 0
M  V30 17969 C 1727.94 -1.66889 -3.3738 0
M  V30 17970 C 1727.09 -1.80199 -2.10769 0
M  V30 17971 H 1730.04 -1.34085 -0.848938 0
M  V30 17972 H 1730.06 -1.31676 -3.5699 0
M  V30 17973 H 1729.57 -2.87011 -2.6124 0
M  V30 17974 H 1727.67 -0.64274 -3.67014 0
M  V30 17975 H 1727.78 -2.47705 -4.10096 0
M  V30 17976 H 1726.15 -1.23308 -2.22862 0
M  V30 17977 H 1726.93 -2.86889 -1.88546 0
M  V30 17978 N 1729.38 1.21606 -1.00248 0
M  V30 17979 C 1730.32 2.23884 -0.560771 0
M  V30 17980 C 1731.29 1.60913 0.411864 0
M  V30 17981 O 1732.48 1.88191 0.314476 0
M  V30 17982 C 1729.62 3.44928 0.108948 0
M  V30 17983 C 1728.73 4.22381 -0.906566 0
M  V30 17984 C 1727.87 5.30787 -0.20937 0
M  V30 17985 C 1726.91 5.99969 -1.2126 0
M  V30 17986 N 1726.04 6.99997 -0.543057 0
M  V30 17987 H 1730.88 2.61029 -1.43764 0
M  V30 17988 H 1728.42 1.28278 -0.719937 0
M  V30 17989 H 1730.38 4.14019 0.514244 0
M  V30 17990 H 1729.01 3.08518 0.949544 0
M  V30 17991 H 1728.06 3.52493 -1.43012 0
M  V30 17992 H 1729.37 4.70009 -1.67013 0
M  V30 17993 H 1728.53 6.06176 0.252164 0
M  V30 17994 H 1727.27 4.84159 0.586621 0
M  V30 17995 H 1726.27 5.23353 -1.68467 0
M  V30 17996 H 1727.5 6.48684 -2.00963 0
M  V30 17997 H 1725.44 6.55585 0.233324 0
M  V30 17998 H 1725.36 7.45679 -1.24492 0
M  V30 17999 H 1726.63 7.7943 -0.104643 0
M  V30 18000 N 1730.86 0.776895 1.37121 0
M  V30 18001 C 1732.08 0.353911 2.04358 0
M  V30 18002 C 1732.51 -1.01745 1.58207 0
M  V30 18003 O 1731.86 -1.653 0.744691 0
M  V30 18004 C 1731.91 0.411918 3.5824 0
M  V30 18005 O 1731.02 -0.58576 4.08219 0
M  V30 18006 H 1730.36 0.152335 0.64629 0
M  V30 18007 H 1732.89 1.05452 1.75331 0
M  V30 18008 H 1732.9 0.271043 4.07099 0
M  V30 18009 H 1731.57 1.41236 3.91185 0
M  V30 18010 H 1730.15 -0.40758 3.70666 0
M  V30 18011 N 1732.33 -1.48497 0.527859 0
M  V30 18012 C 1733.74 -1.86498 0.0868541 0
M  V30 18013 C 1734.1 -1.43763 -1.33517 0
M  V30 18014 O 1733.22 -0.827397 -1.99958 0
M  V30 18015 C 1733.82 -3.38464 0.150843 0
M  V30 18016 C 1732.37 -3.75666 -0.234956 0
M  V30 18017 C 1731.52 -2.72541 0.511549 0
M  V30 18018 H 1734.47 -1.40432 0.739223 0
M  V30 18019 H 1734.49 -3.75114 -0.637972 0
M  V30 18020 H 1734.01 -3.69537 1.18592 0
M  V30 18021 H 1732.11 -3.50206 -1.27225 0
M  V30 18022 H 1732.22 -4.78989 0.103178 0
M  V30 18023 H 1730.58 -2.54665 -0.0419281 0
M  V30 18024 H 1731.37 -3.06457 1.54722 0
M  V30 18025 N 1733.81 -0.262893 -1.55392 0
M  V30 18026 C 1735.05 0.358707 -2.01228 0
M  V30 18027 C 1735.42 1.53958 -1.14722 0
M  V30 18028 O 1736.62 2.22999 -1.50083 0
M  V30 18029 C 1734.89 0.74296 -3.49592 0
M  V30 18030 S 1736.45 1.35282 -4.17426 0
M  V30 18031 H 1733.26 0.112156 -0.702098 0
M  V30 18032 H 1735.87 -0.38187 -1.91734 0
M  V30 18033 H 1734.57 -0.125537 -4.10208 0
M  V30 18034 H 1734.1 1.51531 -3.63045 0
M  V30 18035 H 1736.12 2.64166 -4.20037 0
M  V30 18036 N 1735.29 1.57597 0.0100073 0
M  V30 18037 C 1736.54 1.89754 0.695559 0
M  V30 18038 C 1736.86 0.862983 1.74865 0
M  V30 18039 O 1736.13 -0.100949 1.9564 0
M  V30 18040 H 1734.71 0.700331 0.259895 0
M  V30 18041 H 1737.37 1.94879 -0.0285521 0
M  V30 18042 H 1736.47 2.89213 1.17313 0
M  V30 18043 N 1736.77 -0.282606 1.55045 0
M  V30 18044 C 1737.7 -1.35347 1.90272 0
M  V30 18045 C 1738.68 -1.52001 0.763532 0
M  V30 18046 O 1739.86 -1.65204 1.02085 0
M  V30 18047 C 1736.99 -2.71464 2.16621 0
M  V30 18048 C 1735.95 -2.69554 3.32453 0
M  V30 18049 C 1735.27 -4.09132 3.4426 0
M  V30 18050 C 1736.57 -2.29669 4.69094 0
M  V30 18051 H 1738.27 -1.06113 2.79965 0
M  V30 18052 H 1735.81 -0.509018 1.34703 0
M  V30 18053 H 1737.77 -3.46482 2.39851 0
M  V30 18054 H 1736.49 -3.02261 1.23717 0
M  V30 18055 H 1735.15 -1.96993 3.09175 0
M  V30 18056 H 1734.8 -4.37136 2.4884 0
M  V30 18057 H 1734.5 -4.08751 4.22133 0
M  V30 18058 H 1736.02 -4.85903 3.69771 0
M  V30 18059 H 1737.44 -2.94407 4.91932 0
M  V30 18060 H 1735.83 -2.40467 5.49814 0
M  V30 18061 H 1736.9 -1.24796 4.68566 0
M  V30 18062 N 1738.25 -1.47815 -0.546675 0
M  V30 18063 C 1739.47 -1.58613 -1.32851 0
M  V30 18064 C 1739.89 -0.240179 -1.87266 0
M  V30 18065 O 1739.25 0.768148 -1.65547 0
M  V30 18066 C 1739.3 -2.61969 -2.49107 0
M  V30 18067 O 1739.02 -3.9134 -1.96938 0
M  V30 18068 C 1740.52 -2.83051 -3.4117 0
M  V30 18069 H 1737.74 -0.535292 -0.404603 0
M  V30 18070 H 1740.28 -1.93516 -0.661192 0
M  V30 18071 H 1738.44 -2.29971 -3.11756 0
M  V30 18072 H 1738.85 -4.47905 -2.72913 0
M  V30 18073 H 1740.33 -3.59209 -4.19134 0
M  V30 18074 H 1740.8 -1.91258 -3.95369 0
M  V30 18075 H 1741.41 -3.16287 -2.84328 0
M  V30 18076 N 1739.72 0.794246 -1.36123 0
M  V30 18077 C 1740.63 1.93807 -1.32197 0
M  V30 18078 C 1741.65 1.7254 -0.2249 0
M  V30 18079 O 1742.83 1.9616 -0.456431 0
M  V30 18080 C 1739.89 3.28593 -1.10578 0
M  V30 18081 C 1738.95 3.6267 -2.29715 0
M  V30 18082 C 1738.18 4.91025 -2.09118 0
M  V30 18083 O 1738.41 5.6039 -1.06389 0
M  V30 18084 O 1737.34 5.23647 -2.96779 0
M  V30 18085 H 1741.17 2.00068 -2.28487 0
M  V30 18086 H 1738.75 0.933808 -1.16621 0
M  V30 18087 H 1740.63 4.0926 -1.0042 0
M  V30 18088 H 1739.31 3.23235 -0.17347 0
M  V30 18089 H 1738.22 2.82329 -2.4544 0
M  V30 18090 H 1739.55 3.72747 -3.21435 0
M  V30 18091 N 1741.2 1.20323 1.01785 0
M  V30 18092 C 1742.13 0.908716 2.10416 0
M  V30 18093 C 1743.15 -0.103029 1.62474 0
M  V30 18094 O 1744.34 0.127825 1.78042 0
M  V30 18095 C 1741.44 0.340601 3.37184 0
M  V30 18096 C 1740.61 1.40358 4.14268 0
M  V30 18097 C 1739.67 0.847016 5.19338 0
M  V30 18098 O 1738.69 1.5274 5.48324 0
M  V30 18099 N 1739.9 -0.344198 5.79479 0
M  V30 18100 H 1742.66 1.84383 2.36269 0
M  V30 18101 H 1740.22 1.10673 1.18165 0
M  V30 18102 H 1742.21 -0.0458443 4.04674 0
M  V30 18103 H 1740.78 -0.499042 3.08591 0
M  V30 18104 H 1740 1.96442 3.41766 0
M  V30 18105 H 1741.29 2.11952 4.62551 0
M  V30 18106 H 1740.69 -0.914263 5.58263 0
M  V30 18107 H 1739.25 -0.672296 6.48324 0
M  V30 18108 N 1742.68 -1.21073 1.00892 0
M  V30 18109 C 1743.91 -1.93952 0.71178 0
M  V30 18110 C 1744.32 -1.74538 -0.730278 0
M  V30 18111 O 1743.66 -1.05164 -1.50619 0
M  V30 18112 C 1743.72 -3.46502 0.957957 0
M  V30 18113 C 1743.39 -3.89669 2.38762 0
M  V30 18114 C 1744.38 -3.96053 3.36805 0
M  V30 18115 C 1742.07 -4.21873 2.72632 0
M  V30 18116 C 1744.06 -4.34042 4.66783 0
M  V30 18117 C 1741.75 -4.59538 4.02825 0
M  V30 18118 C 1742.75 -4.65593 4.99712 0
M  V30 18119 O 1742.44 -5.02398 6.27576 0
M  V30 18120 H 1742.17 -0.623495 0.261208 0
M  V30 18121 H 1744.72 -1.54728 1.35086 0
M  V30 18122 H 1742.95 -3.85813 0.261704 0
M  V30 18123 H 1744.64 -4.00603 0.653596 0
M  V30 18124 H 1745.41 -3.71346 3.11974 0
M  V30 18125 H 1741.29 -4.16356 1.97912 0
M  V30 18126 H 1744.83 -4.38683 5.42405 0
M  V30 18127 H 1740.73 -4.837 4.27439 0
M  V30 18128 H 1741.49 -5.20417 6.3175 0
M  V30 18129 N 1744.16 -0.784156 -1.36707 0
M  V30 18130 C 1745.09 -0.193081 -2.327 0
M  V30 18131 C 1746.07 0.668999 -1.56392 0
M  V30 18132 O 1747.25 0.603908 -1.84571 0
M  V30 18133 C 1744.38 0.677092 -3.40636 0
M  V30 18134 C 1743.34 -0.0846718 -4.27916 0
M  V30 18135 C 1742.66 0.905754 -5.26973 0
M  V30 18136 C 1743.96 -1.27085 -5.06603 0
M  V30 18137 H 1745.66 -0.995029 -2.82382 0
M  V30 18138 H 1743.2 -0.479929 -1.35767 0
M  V30 18139 H 1745.16 1.1005 -4.06776 0
M  V30 18140 H 1743.88 1.51169 -2.89509 0
M  V30 18141 H 1742.54 -0.488992 -3.63324 0
M  V30 18142 H 1742.19 1.73524 -4.72121 0
M  V30 18143 H 1741.89 0.400524 -5.86233 0
M  V30 18144 H 1743.41 1.32784 -5.95987 0
M  V30 18145 H 1744.83 -0.923469 -5.65814 0
M  V30 18146 H 1743.22 -1.70901 -5.7525 0
M  V30 18147 H 1744.29 -2.06882 -4.38552 0
M  V30 18148 N 1745.64 1.48215 -0.535727 0
M  V30 18149 C 1746.59 2.26692 0.243856 0
M  V30 18150 C 1747.57 1.33054 0.904734 0
M  V30 18151 O 1748.76 1.57554 0.80659 0
M  V30 18152 C 1745.89 3.18278 1.28662 0
M  V30 18153 C 1744.98 4.19391 0.630241 0
M  V30 18154 N 1745.37 5.04983 -0.287346 0
M  V30 18155 C 1743.67 4.37096 0.886761 0
M  V30 18156 C 1744.37 5.77868 -0.666561 0
M  V30 18157 N 1743.34 5.43594 -0.0263142 0
M  V30 18158 H 1747.15 2.90247 -0.46197 0
M  V30 18159 H 1744.66 1.58491 -0.354153 0
M  V30 18160 H 1746.66 3.73164 1.85888 0
M  V30 18161 H 1745.32 2.5628 1.99376 0
M  V30 18162 H 1746.33 5.13674 -0.660285 0
M  V30 18163 H 1743 3.86283 1.58404 0
M  V30 18164 H 1744.39 6.56738 -1.4193 0
M  V30 18165 N 1747.11 0.27113 1.5525 0
M  V30 18166 C 1748.06 -0.618069 2.2237 0
M  V30 18167 C 1749.03 -1.15282 1.19579 0
M  V30 18168 O 1750.22 -1.20285 1.48108 0
M  V30 18169 C 1747.36 -1.79821 2.94548 0
M  V30 18170 C 1746.47 -1.29769 4.12049 0
M  V30 18171 C 1745.6 -2.43931 4.7188 0
M  V30 18172 C 1744.64 -1.90862 5.81582 0
M  V30 18173 N 1743.78 -2.98482 6.35494 0
M  V30 18174 H 1748.62 -0.0390456 2.97974 0
M  V30 18175 H 1746.16 -0.00750636 1.47098 0
M  V30 18176 H 1748.12 -2.49184 3.34609 0
M  V30 18177 H 1746.75 -2.34933 2.21374 0
M  V30 18178 H 1745.8 -0.497288 3.77136 0
M  V30 18179 H 1747.11 -0.868957 4.91173 0
M  V30 18180 H 1746.26 -3.21295 5.1464 0
M  V30 18181 H 1745 -2.90118 3.92024 0
M  V30 18182 H 1744.01 -1.11977 5.38276 0
M  V30 18183 H 1745.23 -1.45616 6.63304 0
M  V30 18184 H 1743.18 -3.44058 5.58534 0
M  V30 18185 H 1743.1 -2.60014 7.09879 0
M  V30 18186 H 1744.36 -3.75833 6.82913 0
M  V30 18187 N 1748.59 -1.576 -0.00164943 0
M  V30 18188 C 1749.87 -1.81716 -0.723788 0
M  V30 18189 C 1750.25 -0.875694 -1.9208 0
M  V30 18190 O 1749.6 0.0759629 -2.28374 0
M  V30 18191 C 1749.81 -3.30164 -1.13106 0
M  V30 18192 C 1751.16 -3.95859 -1.5356 0
M  V30 18193 O 1752.18 -3.34477 -1.2249 0
M  V30 18194 O 1751.04 -5.03986 -2.1133 0
M  V30 18195 H 1748.13 -0.748213 -0.352287 0
M  V30 18196 H 1750.68 -1.69683 0.0236782 0
M  V30 18197 H 1749.45 -3.90313 -0.277771 0
M  V30 18198 H 1749.07 -3.47188 -1.93768 0
M  V30 18199 N 1750.07 0.274379 -1.55193 0
M  V30 18200 C 1751.49 0.621497 -1.47002 0
M  V30 18201 C 1751.69 1.89572 -0.682995 0
M  V30 18202 O 1750.74 2.51696 -0.201296 0
M  V30 18203 C 1752.06 0.749741 -2.91203 0
M  V30 18204 C 1753.6 0.843886 -3.01409 0
M  V30 18205 C 1754.08 1.00392 -4.46862 0
M  V30 18206 N 1755.57 1.06947 -4.50684 0
M  V30 18207 C 1756.3 1.21207 -5.60443 0
M  V30 18208 N 1755.8 1.32195 -6.80071 0
M  V30 18209 N 1757.59 1.24307 -5.48183 0
M  V30 18210 H 1749.74 -0.562462 -2.04817 0
M  V30 18211 H 1752.01 -0.190205 -0.928723 0
M  V30 18212 H 1751.71 -0.116074 -3.51508 0
M  V30 18213 H 1751.59 1.63046 -3.40141 0
M  V30 18214 H 1753.97 1.70017 -2.41202 0
M  V30 18215 H 1754.06 -0.061411 -2.55726 0
M  V30 18216 H 1753.7 0.152298 -5.07672 0
M  V30 18217 H 1753.63 1.92384 -4.902 0
M  V30 18218 H 1756.12 0.997012 -3.64511 0
M  V30 18219 H 1756.43 1.42906 -7.59472 0
M  V30 18220 H 1754.78 1.29202 -6.82885 0
M  V30 18221 H 1757.97 1.15352 -4.53665 0
M  V30 18222 H 1758.14 1.35076 -6.33765 0
M  V30 18223 N 1751.55 1.48103 0.538828 0
M  V30 18224 C 1752.79 1.5688 1.29461 0
M  V30 18225 C 1753.15 0.235793 1.9095 0
M  V30 18226 O 1752.44 -0.760462 1.75862 0
M  V30 18227 C 1752.64 2.63703 2.41237 0
M  V30 18228 C 1752.47 4.07262 1.90704 0
M  V30 18229 C 1751.24 4.74503 1.73709 0
M  V30 18230 C 1753.43 4.93708 1.44073 0
M  V30 18231 N 1751.42 6.0251 1.17709 0
M  V30 18232 C 1752.79 6.11889 0.999608 0
M  V30 18233 C 1754.84 4.80003 1.32294 0
M  V30 18234 C 1753.54 7.17876 0.452385 0
M  V30 18235 C 1755.57 5.86104 0.789719 0
M  V30 18236 C 1754.93 7.03486 0.358624 0
M  V30 18237 H 1751.03 0.628668 0.465081 0
M  V30 18238 H 1753.62 1.84942 0.608641 0
M  V30 18239 H 1751.79 2.37478 3.07341 0
M  V30 18240 H 1753.52 2.62217 3.0826 0
M  V30 18241 H 1750.27 4.30696 1.96971 0
M  V30 18242 H 1750.7 6.70755 0.917441 0
M  V30 18243 H 1755.34 3.896 1.64231 0
M  V30 18244 H 1753.06 8.0801 0.120677 0
M  V30 18245 H 1756.64 5.77551 0.70188 0
M  V30 18246 H 1755.52 7.84186 -0.0475698 0
M  V30 18247 N 1753.03 -0.787016 1.36542 0
M  V30 18248 C 1754.44 -1.36234 1.2766 0
M  V30 18249 C 1754.79 -1.96026 -0.0825391 0
M  V30 18250 O 1753.91 -1.92731 -0.984059 0
M  V30 18251 C 1754.51 -2.47684 2.31167 0
M  V30 18252 C 1753.07 -3.01026 2.25966 0
M  V30 18253 C 1752.21 -1.74122 2.15816 0
M  V30 18254 H 1755.17 -0.58847 1.47386 0
M  V30 18255 H 1755.19 -3.26765 1.94949 0
M  V30 18256 H 1754.7 -2.04136 3.30076 0
M  V30 18257 H 1752.8 -3.48988 1.30531 0
M  V30 18258 H 1752.91 -3.57677 3.18754 0
M  V30 18259 H 1751.28 -1.9645 1.6211 0
M  V30 18260 H 1752.06 -1.32699 3.16616 0
M  V30 18261 N 1754.5 -1.20861 -1.01145 0
M  V30 18262 C 1755.41 -0.977926 -2.13246 0
M  V30 18263 C 1756.43 0.0678862 -1.73868 0
M  V30 18264 O 1757.61 -0.120717 -2.01038 0
M  V30 18265 C 1754.67 -0.538575 -3.42491 0
M  V30 18266 C 1753.73 -1.65584 -3.96081 0
M  V30 18267 C 1752.97 -1.23736 -5.19158 0
M  V30 18268 O 1753.19 -0.108227 -5.70297 0
M  V30 18269 O 1752.12 -2.04679 -5.6603 0
M  V30 18270 H 1755.95 -1.91666 -2.3558 0
M  V30 18271 H 1753.53 -0.992931 -1.1163 0
M  V30 18272 H 1755.42 -0.303041 -4.20309 0
M  V30 18273 H 1754.09 0.371515 -3.21561 0
M  V30 18274 H 1753 -1.94572 -3.19519 0
M  V30 18275 H 1754.33 -2.54313 -4.21409 0
M  V30 18276 N 1755.98 1.20536 -1.01532 0
M  V30 18277 C 1757.23 1.90152 -0.704973 0
M  V30 18278 C 1757.56 1.78569 0.763343 0
M  V30 18279 O 1756.84 1.16906 1.55445 0
M  V30 18280 C 1757.12 3.41589 -1.1397 0
M  V30 18281 C 1756.97 3.62113 -2.66823 0
M  V30 18282 C 1758.29 4.34335 -0.709984 0
M  V30 18283 H 1755.41 0.690524 -0.257577 0
M  V30 18284 H 1758.05 1.41959 -1.26284 0
M  V30 18285 H 1756.2 3.82765 -0.66505 0
M  V30 18286 H 1757.87 3.30197 -3.2213 0
M  V30 18287 H 1756.12 3.05626 -3.07855 0
M  V30 18288 H 1756.79 4.68261 -2.92294 0
M  V30 18289 H 1759.26 4.00799 -1.11801 0
M  V30 18290 H 1758.14 5.38915 -1.04221 0
M  V30 18291 H 1758.4 4.40391 0.388408 0
M  V30 18292 N 1757.46 0.791395 1.36289 0
M  V30 18293 C 1758.69 0.375566 2.03971 0
M  V30 18294 C 1759.11 -1.00061 1.59277 0
M  V30 18295 O 1758.47 -1.64501 0.762182 0
M  V30 18296 C 1758.52 0.449891 3.57783 0
M  V30 18297 O 1757.62 -0.54243 4.08817 0
M  V30 18298 H 1756.96 0.159181 0.644637 0
M  V30 18299 H 1759.49 1.07306 1.74203 0
M  V30 18300 H 1759.5 0.314206 4.06788 0
M  V30 18301 H 1758.18 1.45377 3.89665 0
M  V30 18302 H 1756.75 -0.368243 3.71077 0
M  V30 18303 N 1758.94 -1.47929 0.54358 0
M  V30 18304 C 1760.35 -1.86395 0.10663 0
M  V30 18305 C 1760.7 -1.45171 -1.31984 0
M  V30 18306 O 1759.83 -0.848558 -1.99069 0
M  V30 18307 C 1760.42 -3.38285 0.186733 0
M  V30 18308 C 1758.98 -3.75894 -0.195098 0
M  V30 18309 C 1758.13 -2.71983 0.540427 0
M  V30 18310 H 1761.08 -1.3964 0.754076 0
M  V30 18311 H 1761.1 -3.75769 -0.598151 0
M  V30 18312 H 1760.61 -3.68258 1.22505 0
M  V30 18313 H 1758.71 -3.51536 -1.23504 0
M  V30 18314 H 1758.83 -4.78853 0.153975 0
M  V30 18315 H 1757.19 -2.54696 -0.0149151 0
M  V30 18316 H 1757.97 -3.04799 1.57963 0
M  V30 18317 N 1760.42 -0.27936 -1.55104 0
M  V30 18318 C 1761.33 0.616249 -2.26361 0
M  V30 18319 C 1762.34 1.16656 -1.29102 0
M  V30 18320 O 1763.52 1.19596 -1.62046 0
M  V30 18321 C 1760.58 1.78191 -2.97403 0
M  V30 18322 C 1759.65 1.26785 -4.10151 0
M  V30 18323 C 1758.88 2.37795 -4.77796 0
M  V30 18324 O 1759.1 3.57242 -4.44673 0
M  V30 18325 O 1758.04 2.05711 -5.65656 0
M  V30 18326 H 1761.86 0.0388715 -3.03675 0
M  V30 18327 H 1759.45 -0.0466058 -1.49327 0
M  V30 18328 H 1761.33 2.4615 -3.42036 0
M  V30 18329 H 1760 2.3463 -2.23003 0
M  V30 18330 H 1758.91 0.554608 -3.69966 0
M  V30 18331 H 1760.24 0.749157 -4.86465 0
M  V30 18332 N 1761.9 1.57599 -0.0067085 0
M  V30 18333 C 1763.17 1.82097 0.714141 0
M  V30 18334 C 1763.55 0.885868 1.91613 0
M  V30 18335 O 1762.9 -0.0638506 2.28411 0
M  V30 18336 C 1763.11 3.30759 1.11354 0
M  V30 18337 C 1764.46 3.96668 1.51459 0
M  V30 18338 O 1765.48 3.35121 1.20715 0
M  V30 18339 O 1764.34 5.051 2.08654 0
M  V30 18340 H 1761.44 0.750071 0.348314 0
M  V30 18341 H 1763.98 1.69669 -0.0326766 0
M  V30 18342 H 1762.75 3.90455 0.257068 0
M  V30 18343 H 1762.38 3.48211 1.91924 0
M  V30 18344 N 1763.37 -0.266145 1.55336 0
M  V30 18345 C 1764.6 -1.01489 1.80299 0
M  V30 18346 C 1765.02 -1.79679 0.579742 0
M  V30 18347 O 1764.37 -1.76831 -0.451319 0
M  V30 18348 C 1764.42 -1.96805 3.03233 0
M  V30 18349 O 1764.15 -1.21782 4.20834 0
M  V30 18350 C 1765.65 -2.83436 3.40851 0
M  V30 18351 H 1762.87 -0.299504 0.600449 0
M  V30 18352 H 1765.41 -0.294854 2.02363 0
M  V30 18353 H 1763.57 -2.64262 2.83275 0
M  V30 18354 H 1763.98 -1.86086 4.9038 0
M  V30 18355 H 1765.45 -3.461 4.30022 0
M  V30 18356 H 1765.93 -3.53559 2.60562 0
M  V30 18357 H 1766.54 -2.2146 3.63092 0
M  V30 18358 N 1764.85 -1.48386 -0.530967 0
M  V30 18359 C 1765.78 -1.58922 -1.65156 0
M  V30 18360 C 1766.8 -0.473583 -1.5576 0
M  V30 18361 O 1767.99 -0.744383 -1.62238 0
M  V30 18362 C 1765.09 -1.50201 -3.03798 0
M  V30 18363 C 1764.26 -2.76787 -3.38685 0
M  V30 18364 C 1763.32 -2.61534 -4.56603 0
M  V30 18365 O 1762.34 -3.35417 -4.59874 0
M  V30 18366 N 1763.55 -1.71087 -5.54716 0
M  V30 18367 H 1766.31 -2.55559 -1.56555 0
M  V30 18368 H 1763.87 -1.45097 -0.718216 0
M  V30 18369 H 1765.86 -1.37693 -3.80556 0
M  V30 18370 H 1764.43 -0.615419 -3.06482 0
M  V30 18371 H 1763.65 -3.03867 -2.51115 0
M  V30 18372 H 1764.94 -3.6077 -3.58779 0
M  V30 18373 H 1764.34 -1.10261 -5.54851 0
M  V30 18374 H 1762.9 -1.64518 -6.30696 0
M  V30 18375 N 1766.33 0.779763 -1.36958 0
M  V30 18376 C 1767.55 1.57389 -1.35068 0
M  V30 18377 C 1767.98 1.87993 0.0635244 0
M  V30 18378 O 1767.34 1.48625 1.03828 0
M  V30 18379 C 1767.39 2.86582 -2.18868 0
M  V30 18380 O 1766.49 3.80609 -1.58779 0
M  V30 18381 H 1765.83 0.477052 -0.461863 0
M  V30 18382 H 1768.36 0.965741 -1.80373 0
M  V30 18383 H 1768.37 3.35761 -2.31794 0
M  V30 18384 H 1767.05 2.63635 -3.21666 0
M  V30 18385 H 1765.62 3.39229 -1.54848 0
M  V30 18386 N 1767.81 1.21396 1.00503 0
M  V30 18387 C 1768.74 0.997268 2.11132 0
M  V30 18388 C 1769.72 -0.0777455 1.69922 0
M  V30 18389 O 1770.9 0.08208 1.94026 0
M  V30 18390 C 1768.03 0.561122 3.42737 0
M  V30 18391 C 1766.99 1.58069 3.97741 0
M  V30 18392 C 1766.31 1.00079 5.25251 0
M  V30 18393 C 1767.61 2.96754 4.29807 0
M  V30 18394 H 1769.31 1.92255 2.29518 0
M  V30 18395 H 1766.85 0.925776 1.10297 0
M  V30 18396 H 1768.81 0.396701 4.19529 0
M  V30 18397 H 1767.53 -0.399804 3.24144 0
M  V30 18398 H 1766.19 1.73268 3.23069 0
M  V30 18399 H 1765.84 0.0315797 5.0299 0
M  V30 18400 H 1765.54 1.68182 5.63017 0
M  V30 18401 H 1767.06 0.847687 6.04687 0
M  V30 18402 H 1768.48 2.85 4.97441 0
M  V30 18403 H 1766.87 3.61871 4.78717 0
M  V30 18404 H 1767.94 3.47602 3.38084 0
M  V30 18405 N 1769.29 -1.19996 1.0217 0
M  V30 18406 C 1770.51 -1.94007 0.733207 0
M  V30 18407 C 1770.94 -1.74565 -0.70061 0
M  V30 18408 O 1770.29 -1.04326 -1.48276 0
M  V30 18409 C 1770.34 -3.44029 1.08057 0
M  V30 18410 O 1769.45 -4.11938 0.195135 0
M  V30 18411 H 1768.79 -0.605929 0.271562 0
M  V30 18412 H 1771.32 -1.5228 1.36645 0
M  V30 18413 H 1771.33 -3.94669 1.03443 0
M  V30 18414 H 1770 -3.57502 2.1252 0
M  V30 18415 H 1768.58 -3.71697 0.299246 0
M  V30 18416 N 1770.76 -0.798611 -1.35867 0
M  V30 18417 C 1771.69 -0.217751 -2.32482 0
M  V30 18418 C 1772.67 0.652374 -1.57093 0
M  V30 18419 O 1773.86 0.584297 -1.85202 0
M  V30 18420 C 1770.99 0.640925 -3.41335 0
M  V30 18421 C 1769.94 -0.130053 -4.27802 0
M  V30 18422 C 1769.27 0.849811 -5.27904 0
M  V30 18423 C 1770.57 -1.32451 -5.05227 0
M  V30 18424 H 1772.26 -1.02492 -2.81311 0
M  V30 18425 H 1769.81 -0.494302 -1.3525 0
M  V30 18426 H 1771.76 1.05729 -4.07921 0
M  V30 18427 H 1770.49 1.4809 -2.91096 0
M  V30 18428 H 1769.15 -0.5275 -3.62785 0
M  V30 18429 H 1768.79 1.68507 -4.73935 0
M  V30 18430 H 1768.49 0.338323 -5.86625 0
M  V30 18431 H 1770.02 1.26455 -5.97362 0
M  V30 18432 H 1771.43 -0.983429 -5.64802 0
M  V30 18433 H 1769.83 -1.76992 -5.73405 0
M  V30 18434 H 1770.9 -2.11522 -4.36333 0
M  V30 18435 N 1772.24 1.47639 -0.551417 0
M  V30 18436 C 1773.47 2.07381 -0.0278888 0
M  V30 18437 C 1773.89 1.40223 1.25375 0
M  V30 18438 O 1773.25 0.475268 1.7496 0
M  V30 18439 C 1773.3 3.60258 0.157001 0
M  V30 18440 O 1772.4 3.93913 1.2209 0
M  V30 18441 H 1771.74 0.66221 -0.0487252 0
M  V30 18442 H 1774.27 1.89742 -0.765449 0
M  V30 18443 H 1774.28 4.06291 0.373013 0
M  V30 18444 H 1772.96 4.08537 -0.779122 0
M  V30 18445 H 1771.53 3.59633 0.985843 0
M  V30 18446 N 1773.72 0.287581 1.54954 0
M  V30 18447 C 1774.63 -0.604236 2.26685 0
M  V30 18448 C 1775.65 -1.1597 1.29719 0
M  V30 18449 O 1776.82 -1.18735 1.62678 0
M  V30 18450 C 1773.89 -1.76612 2.98344 0
M  V30 18451 C 1772.95 -1.24608 4.10818 0
M  V30 18452 C 1772.18 -2.35258 4.7905 0
M  V30 18453 O 1772.4 -3.54879 4.46561 0
M  V30 18454 O 1771.34 -2.02709 5.66739 0
M  V30 18455 H 1775.16 -0.0227663 3.03691 0
M  V30 18456 H 1772.75 0.0545243 1.493 0
M  V30 18457 H 1774.63 -2.44332 3.43336 0
M  V30 18458 H 1773.31 -2.33444 2.24244 0
M  V30 18459 H 1772.21 -0.53498 3.70255 0
M  V30 18460 H 1773.55 -0.723348 4.86856 0
M  V30 18461 N 1775.2 -1.57593 0.0150662 0
M  V30 18462 C 1776.11 -2.12807 -0.987437 0
M  V30 18463 C 1777.12 -1.07691 -1.3667 0
M  V30 18464 O 1778.3 -1.39674 -1.45097 0
M  V30 18465 C 1775.37 -2.63276 -2.2558 0
M  V30 18466 C 1774.43 -3.83053 -1.93827 0
M  V30 18467 C 1773.66 -4.31106 -3.14616 0
M  V30 18468 O 1773.88 -3.78405 -4.26809 0
M  V30 18469 O 1772.82 -5.23104 -2.97734 0
M  V30 18470 H 1776.64 -2.98715 -0.548015 0
M  V30 18471 H 1774.23 -1.47991 -0.20469 0
M  V30 18472 H 1776.11 -2.95869 -3.00066 0
M  V30 18473 H 1774.78 -1.80459 -2.68731 0
M  V30 18474 H 1773.69 -3.55409 -1.1677 0
M  V30 18475 H 1775.02 -4.6699 -1.55502 0
M  V30 18476 N 1776.68 0.257904 -1.55475 0
M  V30 18477 C 1777.9 1.00955 -1.81171 0
M  V30 18478 C 1778.33 1.78586 -0.590651 0
M  V30 18479 O 1777.68 1.75365 0.460105 0
M  V30 18480 C 1777.73 1.93188 -3.04485 0
M  V30 18481 O 1776.84 3.02194 -2.80628 0
M  V30 18482 H 1776.18 0.28785 -0.598363 0
M  V30 18483 H 1778.71 0.28223 -2.02644 0
M  V30 18484 H 1778.72 2.3486 -3.33624 0
M  V30 18485 H 1777.39 1.361 -3.93001 0
M  V30 18486 H 1775.97 2.64729 -2.62627 0
M  V30 18487 N 1778.15 1.48666 0.52309 0
M  V30 18488 C 1779.57 1.50492 1.10495 0
M  V30 18489 C 1779.92 0.278579 1.94212 0
M  V30 18490 O 1779.04 -0.613679 2.07516 0
M  V30 18491 C 1779.64 2.72692 2.01058 0
M  V30 18492 C 1778.2 2.77368 2.54448 0
M  V30 18493 C 1777.34 2.44104 1.31562 0
M  V30 18494 H 1780.29 1.55682 0.308017 0
M  V30 18495 H 1780.31 2.51601 2.85442 0
M  V30 18496 H 1779.83 3.61931 1.401 0
M  V30 18497 H 1777.93 1.92356 3.19108 0
M  V30 18498 H 1778.04 3.78976 2.93111 0
M  V30 18499 H 1776.4 1.95407 1.63366 0
M  V30 18500 H 1777.19 3.35591 0.723455 0
M  V30 18501 N 1779.63 -0.772489 1.37369 0
M  V30 18502 C 1780.86 -1.56671 1.35901 0
M  V30 18503 C 1781.28 -1.88024 -0.0535538 0
M  V30 18504 O 1780.64 -1.49174 -1.03038 0
M  V30 18505 C 1780.69 -2.85417 2.20384 0
M  V30 18506 O 1779.79 -3.79761 1.60796 0
M  V30 18507 H 1779.13 -0.474596 0.464386 0
M  V30 18508 H 1781.66 -0.956162 1.80883 0
M  V30 18509 H 1781.67 -3.34527 2.33571 0
M  V30 18510 H 1780.35 -2.61926 3.2306 0
M  V30 18511 H 1778.93 -3.38403 1.56645 0
M  V30 18512 N 1781.11 -1.21927 -0.998575 0
M  V30 18513 C 1782.06 -0.984283 -2.08759 0
M  V30 18514 C 1783.03 0.0920029 -1.65845 0
M  V30 18515 O 1784.21 -0.0564334 -1.90717 0
M  V30 18516 C 1781.35 -0.562006 -3.40493 0
M  V30 18517 C 1780.47 -1.70844 -3.96783 0
M  V30 18518 C 1779.6 -1.2347 -5.16651 0
M  V30 18519 C 1778.64 -2.35305 -5.65065 0
M  V30 18520 N 1777.78 -1.89018 -6.76178 0
M  V30 18521 H 1782.62 -1.91653 -2.28195 0
M  V30 18522 H 1780.15 -0.955028 -1.11882 0
M  V30 18523 H 1782.11 -0.298383 -4.16132 0
M  V30 18524 H 1780.74 0.33324 -3.21075 0
M  V30 18525 H 1779.79 -2.08653 -3.18069 0
M  V30 18526 H 1781.11 -2.54987 -4.28699 0
M  V30 18527 H 1780.26 -0.928121 -5.99559 0
M  V30 18528 H 1779 -0.363397 -4.86344 0
M  V30 18529 H 1778 -2.66758 -4.8075 0
M  V30 18530 H 1779.23 -3.22941 -5.97399 0
M  V30 18531 H 1777.17 -1.04242 -6.47665 0
M  V30 18532 H 1777.09 -2.66731 -7.07383 0
M  V30 18533 H 1778.36 -1.61413 -7.62605 0
M  V30 18534 N 1782.59 1.19452 -1.02805 0
M  V30 18535 C 1783.5 2.2631 -0.618147 0
M  V30 18536 C 1784.51 1.70449 0.349712 0
M  V30 18537 O 1785.69 2.00325 0.207801 0
M  V30 18538 C 1782.76 3.46691 0.0255242 0
M  V30 18539 C 1781.82 4.17735 -0.98973 0
M  V30 18540 C 1781.05 5.32369 -0.376681 0
M  V30 18541 O 1781.27 5.64467 0.820584 0
M  V30 18542 O 1780.21 5.9178 -1.09911 0
M  V30 18543 H 1784.03 2.63611 -1.50807 0
M  V30 18544 H 1781.62 1.2629 -0.798192 0
M  V30 18545 H 1783.5 4.19643 0.384464 0
M  V30 18546 H 1782.17 3.1124 0.889467 0
M  V30 18547 H 1781.08 3.46906 -1.40024 0
M  V30 18548 H 1782.41 4.57155 -1.82402 0
M  V30 18549 N 1784.07 0.805805 1.35442 0
M  V30 18550 C 1785.29 0.398252 2.03031 0
M  V30 18551 C 1785.71 -0.990542 1.60729 0
M  V30 18552 O 1785.07 -1.63813 0.804461 0
M  V30 18553 C 1785.12 0.471116 3.58417 0
M  V30 18554 O 1784.84 1.80516 3.99181 0
M  V30 18555 C 1786.34 0.056272 4.43264 0
M  V30 18556 H 1783.56 0.161905 0.651174 0
M  V30 18557 H 1786.1 1.08921 1.73079 0
M  V30 18558 H 1784.26 -0.171584 3.8702 0
M  V30 18559 H 1784.67 1.76739 4.93825 0
M  V30 18560 H 1786.15 0.15837 5.51773 0
M  V30 18561 H 1786.62 -0.998308 4.27704 0
M  V30 18562 H 1787.23 0.672097 4.19956 0
M  V30 18563 N 1785.54 -1.47344 0.559239 0
M  V30 18564 C 1786.77 -2.07364 0.0388864 0
M  V30 18565 C 1787.19 -1.40886 -1.2463 0
M  V30 18566 O 1786.55 -0.48454 -1.74705 0
M  V30 18567 C 1786.6 -3.60336 -0.137894 0
M  V30 18568 O 1785.7 -3.94555 -1.2 0
M  V30 18569 H 1785.05 -0.661942 0.0522363 0
M  V30 18570 H 1787.58 -1.89333 0.7755 0
M  V30 18571 H 1787.59 -4.06483 -0.351462 0
M  V30 18572 H 1786.26 -4.08118 0.800776 0
M  V30 18573 H 1784.84 -3.6015 -0.966757 0
M  V30 18574 N 1787.02 -0.295795 -1.54799 0
M  V30 18575 C 1787.95 0.575863 -2.26288 0
M  V30 18576 C 1788.93 1.14217 -1.26049 0
M  V30 18577 O 1790.12 1.17248 -1.54812 0
M  V30 18578 C 1787.25 1.7503 -2.9997 0
M  V30 18579 C 1786.2 1.31459 -4.07311 0
M  V30 18580 C 1785.53 2.57377 -4.6868 0
M  V30 18581 C 1786.83 0.449629 -5.20361 0
M  V30 18582 H 1788.52 -0.0203797 -2.99393 0
M  V30 18583 H 1786.07 -0.0112418 -1.43996 0
M  V30 18584 H 1788.02 2.36615 -3.487 0
M  V30 18585 H 1786.75 2.3727 -2.24434 0
M  V30 18586 H 1785.4 0.721829 -3.59423 0
M  V30 18587 H 1785.05 3.1792 -3.89789 0
M  V30 18588 H 1784.75 2.28927 -5.41171 0
M  V30 18589 H 1786.28 3.19774 -5.2017 0
M  V30 18590 H 1787.69 0.971014 -5.65017 0
M  V30 18591 H 1786.09 0.259121 -5.9954 0
M  V30 18592 H 1787.16 -0.526564 -4.82032 0
M  V30 18593 N 1788.5 1.57583 -0.0234236 0
M  V30 18594 C 1789.78 1.82844 0.694787 0
M  V30 18595 C 1790.16 0.906142 1.90663 0
M  V30 18596 O 1789.51 -0.039621 2.28466 0
M  V30 18597 C 1789.72 3.31921 1.07839 0
M  V30 18598 C 1791.06 3.98252 1.47243 0
M  V30 18599 O 1792.09 3.36383 1.17154 0
M  V30 18600 O 1790.95 5.07284 2.03285 0
M  V30 18601 H 1788.04 0.753723 0.340339 0
M  V30 18602 H 1790.59 1.69624 -0.0506703 0
M  V30 18603 H 1789.36 3.90705 0.215641 0
M  V30 18604 H 1788.98 3.50227 1.8822 0
M  V30 18605 N 1789.98 -0.249655 1.5561 0
M  V30 18606 C 1791.23 -0.979529 1.77576 0
M  V30 18607 C 1791.56 -1.85078 0.588198 0
M  V30 18608 O 1790.83 -1.90052 -0.4136 0
M  V30 18609 C 1791.12 -1.84238 3.094 0
M  V30 18610 C 1790.97 -0.9995 4.38554 0
M  V30 18611 C 1792.29 -2.82536 3.37433 0
M  V30 18612 H 1789.41 -0.354681 0.646042 0
M  V30 18613 H 1792.05 -0.250224 1.88345 0
M  V30 18614 H 1790.2 -2.46419 3.0035 0
M  V30 18615 H 1791.87 -0.396599 4.59592 0
M  V30 18616 H 1790.11 -0.30376 4.32735 0
M  V30 18617 H 1790.79 -1.63697 5.27169 0
M  V30 18618 H 1793.26 -2.30491 3.46429 0
M  V30 18619 H 1792.14 -3.40033 4.30893 0
M  V30 18620 H 1792.4 -3.58859 2.58211 0
M  V30 18621 N 1791.46 -1.48941 -0.515198 0
M  V30 18622 C 1792.68 -1.61656 -1.29931 0
M  V30 18623 C 1793.11 -0.282529 -1.85966 0
M  V30 18624 O 1792.47 0.747914 -1.65154 0
M  V30 18625 C 1792.51 -2.6774 -2.41553 0
M  V30 18626 O 1791.62 -2.25926 -3.45009 0
M  V30 18627 H 1790.96 -0.541561 -0.384197 0
M  V30 18628 H 1793.49 -1.95032 -0.618349 0
M  V30 18629 H 1793.5 -2.89471 -2.87525 0
M  V30 18630 H 1792.17 -3.64582 -2.00131 0
M  V30 18631 H 1790.75 -2.14469 -3.05053 0
M  V30 18632 N 1792.94 0.765193 -1.37777 0
M  V30 18633 C 1794.16 1.55948 -1.3673 0
M  V30 18634 C 1794.59 1.8805 0.0435817 0
M  V30 18635 O 1793.94 1.49718 1.02246 0
M  V30 18636 C 1793.99 2.84245 -2.21895 0
M  V30 18637 O 1793.1 3.78903 -1.62807 0
M  V30 18638 H 1792.44 0.472127 -0.466897 0
M  V30 18639 H 1794.97 0.946556 -1.81388 0
M  V30 18640 H 1794.98 3.33284 -2.35342 0
M  V30 18641 H 1793.65 2.60209 -3.24444 0
M  V30 18642 H 1792.23 3.37568 -1.58437 0
M  V30 18643 N 1794.41 1.22455 0.992094 0
M  V30 18644 C 1795.36 0.99534 2.08235 0
M  V30 18645 C 1796.33 -0.0832064 1.65891 0
M  V30 18646 O 1797.52 0.0665468 1.90684 0
M  V30 18647 C 1794.66 0.580055 3.4019 0
M  V30 18648 C 1793.77 1.72946 3.95871 0
M  V30 18649 C 1792.9 1.26208 5.15989 0
M  V30 18650 C 1791.94 2.38298 5.63809 0
M  V30 18651 N 1791.08 1.92602 6.75166 0
M  V30 18652 H 1795.92 1.92861 2.27175 0
M  V30 18653 H 1793.46 0.960948 1.11374 0
M  V30 18654 H 1795.41 0.320448 4.15968 0
M  V30 18655 H 1794.04 -0.316208 3.21248 0
M  V30 18656 H 1793.1 2.10337 3.16958 0
M  V30 18657 H 1794.41 2.57257 4.27341 0
M  V30 18658 H 1793.56 0.959904 5.99058 0
M  V30 18659 H 1792.3 0.389184 4.86145 0
M  V30 18660 H 1791.31 2.69304 4.79328 0
M  V30 18661 H 1792.53 3.26105 5.95678 0
M  V30 18662 H 1790.48 1.07675 6.47103 0
M  V30 18663 H 1790.39 2.70478 7.05959 0
M  V30 18664 H 1791.66 1.65455 7.61738 0
M  V30 18665 N 1795.89 -1.18905 1.03437 0
M  V30 18666 C 1796.82 -2.21792 0.578016 0
M  V30 18667 C 1797.84 -1.59015 -0.349014 0
M  V30 18668 O 1799.03 -1.77914 -0.144532 0
M  V30 18669 C 1796.13 -3.38441 -0.176348 0
M  V30 18670 C 1795.3 -4.308 0.756988 0
M  V30 18671 C 1794.36 -5.26179 0.0470478 0
M  V30 18672 O 1793.38 -5.65179 0.675418 0
M  V30 18673 N 1794.59 -5.67497 -1.2218 0
M  V30 18674 H 1797.35 -2.6157 1.46291 0
M  V30 18675 H 1794.91 -1.33627 0.914078 0
M  V30 18676 H 1796.9 -3.99266 -0.660972 0
M  V30 18677 H 1795.47 -2.97406 -0.962715 0
M  V30 18678 H 1794.69 -3.67674 1.4216 0
M  V30 18679 H 1795.98 -4.89413 1.39113 0
M  V30 18680 H 1795.38 -5.37855 -1.75295 0
M  V30 18681 H 1793.94 -6.30548 -1.65081 0
M  V30 18682 N 1797.37 -0.812977 -1.35013 0
M  V30 18683 C 1798.3 -0.242397 -2.32238 0
M  V30 18684 C 1799.28 0.635676 -1.57776 0
M  V30 18685 O 1800.47 0.564621 -1.85811 0
M  V30 18686 C 1797.6 0.604686 -3.41995 0
M  V30 18687 C 1796.55 -0.17542 -4.2764 0
M  V30 18688 C 1795.88 0.793772 -5.28775 0
M  V30 18689 C 1797.18 -1.37802 -5.03794 0
M  V30 18690 H 1798.87 -1.0547 -2.80208 0
M  V30 18691 H 1796.42 -0.508619 -1.34718 0
M  V30 18692 H 1798.37 1.01396 -4.09019 0
M  V30 18693 H 1797.09 1.44994 -2.9265 0
M  V30 18694 H 1795.75 -0.565948 -3.62205 0
M  V30 18695 H 1795.4 1.63471 -4.75696 0
M  V30 18696 H 1795.1 0.276085 -5.86951 0
M  V30 18697 H 1796.62 1.20112 -5.9867 0
M  V30 18698 H 1798.04 -1.04328 -5.63727 0
M  V30 18699 H 1796.43 -1.83064 -5.71496 0
M  V30 18700 H 1797.5 -2.16138 -4.34065 0
M  V30 18701 N 1798.85 1.47045 -0.567045 0
M  V30 18702 C 1800.07 2.0734 -0.0498828 0
M  V30 18703 C 1800.5 1.41545 1.23881 0
M  V30 18704 O 1799.86 0.493798 1.74446 0
M  V30 18705 C 1799.9 3.60404 0.118782 0
M  V30 18706 O 1799.01 3.95186 1.17905 0
M  V30 18707 H 1798.35 0.661656 -0.055746 0
M  V30 18708 H 1800.88 1.8892 -0.78553 0
M  V30 18709 H 1800.89 4.06664 0.3299 0
M  V30 18710 H 1799.56 4.07688 -0.822409 0
M  V30 18711 H 1798.14 3.60658 0.947644 0
M  V30 18712 N 1800.33 0.304 1.5464 0
M  V30 18713 C 1801.74 -0.188042 1.85751 0
M  V30 18714 C 1802.09 -1.53186 1.22591 0
M  V30 18715 O 1801.21 -2.09943 0.524696 0
M  V30 18716 C 1801.81 -0.347976 3.37008 0
M  V30 18717 C 1800.37 -0.784238 3.68139 0
M  V30 18718 C 1799.51 0.105654 2.77099 0
M  V30 18719 H 1802.46 0.524918 1.49767 0
M  V30 18720 H 1802.49 -1.18207 3.61673 0
M  V30 18721 H 1802 0.630227 3.82949 0
M  V30 18722 H 1800.1 -1.77288 3.27719 0
M  V30 18723 H 1800.21 -0.601546 4.75309 0
M  V30 18724 H 1798.58 -0.415561 2.51287 0
M  V30 18725 H 1799.36 1.08027 3.25861 0
M  V30 18726 N 1801.8 -1.57568 0.0317802 0
M  V30 18727 C 1802.71 -2.13842 -0.964811 0
M  V30 18728 C 1803.73 -1.09134 -1.3552 0
M  V30 18729 O 1804.91 -1.41205 -1.43608 0
M  V30 18730 C 1801.97 -2.65654 -2.22775 0
M  V30 18731 C 1801.03 -3.85087 -1.89753 0
M  V30 18732 C 1800.26 -4.34419 -3.10026 0
M  V30 18733 O 1800.49 -3.8291 -4.22772 0
M  V30 18734 O 1799.42 -5.26233 -2.92169 0
M  V30 18735 H 1803.25 -2.99279 -0.516302 0
M  V30 18736 H 1800.83 -1.482 -0.188982 0
M  V30 18737 H 1802.71 -2.99035 -2.96911 0
M  V30 18738 H 1801.39 -1.83299 -2.66802 0
M  V30 18739 H 1800.3 -3.56628 -1.12994 0
M  V30 18740 H 1801.63 -4.68613 -1.50541 0
M  V30 18741 N 1803.28 0.241399 -1.5574 0
M  V30 18742 C 1804.51 0.99028 -1.82231 0
M  V30 18743 C 1804.93 1.77949 -0.609559 0
M  V30 18744 O 1804.29 1.75843 0.44148 0
M  V30 18745 C 1804.34 1.89947 -3.06516 0
M  V30 18746 O 1803.44 2.99201 -2.83818 0
M  V30 18747 H 1802.78 0.281488 -0.601382 0
M  V30 18748 H 1805.31 0.260721 -2.02932 0
M  V30 18749 H 1805.32 2.31308 -3.36096 0
M  V30 18750 H 1804 1.31924 -3.94422 0
M  V30 18751 H 1802.58 2.61929 -2.6542 0
M  V30 18752 N 1804.76 1.49212 0.507292 0
M  V30 18753 C 1805.69 1.68326 1.61829 0
M  V30 18754 C 1806.67 0.531969 1.61568 0
M  V30 18755 O 1807.86 0.767104 1.78407 0
M  V30 18756 C 1804.99 1.74394 3.0034 0
M  V30 18757 C 1803.94 2.89251 3.15465 0
M  V30 18758 C 1803.27 2.80426 4.55264 0
M  V30 18759 C 1804.57 4.30269 2.96085 0
M  V30 18760 H 1806.26 2.6134 1.46087 0
M  V30 18761 H 1803.81 1.25765 0.701367 0
M  V30 18762 H 1805.76 1.86353 3.77956 0
M  V30 18763 H 1804.48 0.779748 3.17155 0
M  V30 18764 H 1803.14 2.76884 2.40272 0
M  V30 18765 H 1802.79 1.81928 4.68947 0
M  V30 18766 H 1802.49 3.57511 4.66326 0
M  V30 18767 H 1804.01 2.94384 5.34949 0
M  V30 18768 H 1805.43 4.4335 3.63475 0
M  V30 18769 H 1803.83 5.08527 3.18623 0
M  V30 18770 H 1804.9 4.45151 1.92272 0
M  V30 18771 N 1806.24 -0.757876 1.38181 0
M  V30 18772 C 1807.49 -1.51388 1.33888 0
M  V30 18773 C 1807.81 -1.94867 -0.0718767 0
M  V30 18774 O 1807.08 -1.67329 -1.01871 0
M  V30 18775 H 1805.66 -0.561534 0.492634 0
M  V30 18776 H 1808.32 -0.901156 1.72815 0
M  V30 18777 H 1807.42 -2.4068 1.98695 0
M  V30 18778 N 1807.72 -1.22979 -0.985586 0
M  V30 18779 C 1808.94 -1.0853 -1.7615 0
M  V30 18780 C 1809.36 0.36363 -1.85265 0
M  V30 18781 O 1808.72 1.25173 -1.32808 0
M  V30 18782 C 1808.77 -1.69872 -3.19101 0
M  V30 18783 O 1808.49 -3.09098 -3.10467 0
M  V30 18784 C 1809.99 -1.60795 -4.1311 0
M  V30 18785 H 1807.21 -0.380086 -0.55297 0
M  V30 18786 H 1809.75 -1.62724 -1.2386 0
M  V30 18787 H 1807.91 -1.19724 -3.68436 0
M  V30 18788 H 1808.32 -3.38769 -4.00419 0
M  V30 18789 H 1809.8 -2.08428 -5.11138 0
M  V30 18790 H 1810.27 -0.565817 -4.3554 0
M  V30 18791 H 1810.88 -2.10284 -3.69676 0
M  V30 18792 N 1809.19 1.18355 -1.04066 0
M  V30 18793 C 1810.12 2.24196 -0.652568 0
M  V30 18794 C 1811.11 1.66581 0.344195 0
M  V30 18795 O 1812.29 1.929 0.224296 0
M  V30 18796 C 1809.42 3.47297 -0.0147409 0
M  V30 18797 C 1808.37 4.17661 -0.935044 0
M  V30 18798 C 1807.7 5.34455 -0.161692 0
M  V30 18799 C 1809 4.71153 -2.25415 0
M  V30 18800 H 1810.69 2.56914 -1.53738 0
M  V30 18801 H 1808.24 1.23492 -0.740658 0
M  V30 18802 H 1810.19 4.20544 0.268484 0
M  V30 18803 H 1808.92 3.13812 0.904949 0
M  V30 18804 H 1807.58 3.46312 -1.20265 0
M  V30 18805 H 1807.22 4.97219 0.760404 0
M  V30 18806 H 1806.92 5.82469 -0.774805 0
M  V30 18807 H 1808.45 6.10493 0.114515 0
M  V30 18808 H 1809.86 5.36095 -2.03163 0
M  V30 18809 H 1808.26 5.29701 -2.82022 0
M  V30 18810 H 1809.33 3.88576 -2.90064 0
M  V30 18811 N 1810.67 0.820125 1.3458 0
M  V30 18812 C 1811.6 0.197556 2.28347 0
M  V30 18813 C 1812.62 -0.610956 1.50901 0
M  V30 18814 O 1813.81 -0.441096 1.72964 0
M  V30 18815 C 1810.91 -0.741893 3.3068 0
M  V30 18816 C 1810.08 0.0231854 4.37394 0
M  V30 18817 C 1809.14 -0.83677 5.19504 0
M  V30 18818 O 1808.16 -0.282772 5.68497 0
M  V30 18819 N 1809.37 -2.15696 5.38939 0
M  V30 18820 H 1812.13 1.00314 2.82413 0
M  V30 18821 H 1809.69 0.676827 1.47074 0
M  V30 18822 H 1811.68 -1.32173 3.82508 0
M  V30 18823 H 1810.25 -1.44823 2.77029 0
M  V30 18824 H 1809.47 0.784316 3.86319 0
M  V30 18825 H 1810.76 0.549958 5.05819 0
M  V30 18826 H 1810.16 -2.63083 5.00803 0
M  V30 18827 H 1808.72 -2.68572 5.93896 0
M  V30 18828 N 1812.15 -1.46743 0.574835 0
M  V30 18829 C 1813.4 -2.02419 0.0574154 0
M  V30 18830 C 1813.73 -1.44723 -1.29944 0
M  V30 18831 O 1812.98 -0.599149 -1.86303 0
M  V30 18832 C 1813.28 -3.57338 -0.0666259 0
M  V30 18833 C 1812.95 -4.34036 1.22161 0
M  V30 18834 C 1811.61 -4.5471 1.57457 0
M  V30 18835 C 1813.96 -4.78137 2.07448 0
M  V30 18836 C 1811.29 -5.16735 2.77852 0
M  V30 18837 C 1813.64 -5.41492 3.27062 0
M  V30 18838 C 1812.3 -5.60394 3.6265 0
M  V30 18839 H 1811.57 -0.740702 0.0210098 0
M  V30 18840 H 1814.22 -1.76207 0.749892 0
M  V30 18841 H 1812.53 -3.82642 -0.842183 0
M  V30 18842 H 1814.22 -3.98085 -0.482605 0
M  V30 18843 H 1810.81 -4.18236 0.936826 0
M  V30 18844 H 1815 -4.61928 1.81484 0
M  V30 18845 H 1810.25 -5.29562 3.05572 0
M  V30 18846 H 1814.43 -5.74623 3.93422 0
M  V30 18847 H 1812.05 -6.08226 4.56032 0
M  V30 18848 N 1813.63 -0.312197 -1.54477 0
M  V30 18849 C 1814.88 0.293192 -1.99962 0
M  V30 18850 C 1815.2 1.53544 -1.20205 0
M  V30 18851 O 1814.47 1.93575 -0.300901 0
M  V30 18852 H 1813.05 0.111325 -0.738658 0
M  V30 18853 H 1815.71 -0.426116 -1.90185 0
M  V30 18854 H 1814.81 0.557482 -3.07081 0
M  V30 18855 N 1815.11 1.57549 -0.040136 0
M  V30 18856 C 1816.02 2.14351 0.953457 0
M  V30 18857 C 1817.03 1.09851 1.3494 0
M  V30 18858 O 1818.21 1.41965 1.42857 0
M  V30 18859 C 1815.27 2.66832 2.21363 0
M  V30 18860 C 1814.33 3.86088 1.87708 0
M  V30 18861 C 1813.57 4.36057 3.07718 0
M  V30 18862 O 1813.79 3.85147 4.20735 0
M  V30 18863 O 1812.72 5.27775 2.89374 0
M  V30 18864 H 1816.55 2.99549 0.500423 0
M  V30 18865 H 1814.14 1.48298 0.18112 0
M  V30 18866 H 1816.02 3.00605 2.95321 0
M  V30 18867 H 1814.69 1.84711 2.65826 0
M  V30 18868 H 1813.6 3.57222 1.11101 0
M  V30 18869 H 1814.93 4.69405 1.48053 0
M  V30 18870 N 1816.58 -0.233136 1.55866 0
M  V30 18871 C 1817.51 -1.29225 1.94482 0
M  V30 18872 C 1818.5 -1.49495 0.811503 0
M  V30 18873 O 1819.68 -1.61872 1.07289 0
M  V30 18874 C 1816.81 -2.64435 2.25147 0
M  V30 18875 C 1815.76 -2.5884 3.4086 0
M  V30 18876 C 1815.09 -3.97973 3.57102 0
M  V30 18877 C 1816.39 -2.14629 4.76164 0
M  V30 18878 H 1818.08 -0.971527 2.83199 0
M  V30 18879 H 1815.63 -0.465905 1.36255 0
M  V30 18880 H 1817.58 -3.38676 2.50752 0
M  V30 18881 H 1816.31 -2.98172 1.33271 0
M  V30 18882 H 1814.97 -1.87057 3.15286 0
M  V30 18883 H 1814.61 -4.28998 2.62621 0
M  V30 18884 H 1814.31 -3.95114 4.34924 0
M  V30 18885 H 1815.84 -4.73893 3.85043 0
M  V30 18886 H 1817.25 -2.78607 5.0105 0
M  V30 18887 H 1815.65 -2.22853 5.57186 0
M  V30 18888 H 1816.72 -1.09826 4.72299 0
M  V30 18889 N 1818.06 -1.49479 -0.499372 0
M  V30 18890 C 1819.01 -1.66756 -1.62158 0
M  V30 18891 C 1820.01 -0.533485 -1.6078 0
M  V30 18892 O 1821.21 -0.713167 -1.65269 0
M  V30 18893 H 1817.59 -0.525853 -0.537571 0
M  V30 18894 H 1819.56 -2.60947 -1.44738 0
M  V30 18895 C 1818.31 -1.75287 -3.00283 0
M  V30 18896 H 1817.63 -2.61928 -3.02049 0
M  V30 18897 H 1819.07 -1.91411 -3.78336 0
M  V30 18898 C 1817.53 -0.498056 -3.33198 0
M  V30 18899 O 1818.06 0.375528 -3.99941 0
M  V30 18900 N 1816.26 -0.360513 -2.88355 0
M  V30 18901 H 1815.81 -1.0724 -2.34216 0
M  V30 18902 H 1815.77 0.477981 -3.10745 0
M  V30 18903 N 1819.54 0.750537 -1.38581 0
M  V30 18904 C 1820.47 1.87785 -1.38777 0
M  V30 18905 C 1821.45 1.68204 -0.253244 0
M  V30 18906 O 1822.64 1.88752 -0.456779 0
M  V30 18907 C 1819.77 3.2535 -1.21511 0
M  V30 18908 C 1818.72 3.59538 -2.32199 0
M  V30 18909 C 1818.05 4.95873 -2.00036 0
M  V30 18910 C 1819.35 3.64102 -3.74469 0
M  V30 18911 H 1821.04 1.87879 -2.33113 0
M  V30 18912 H 1818.59 0.902504 -1.12209 0
M  V30 18913 H 1820.54 4.03872 -1.20272 0
M  V30 18914 H 1819.26 3.25744 -0.236366 0
M  V30 18915 H 1817.92 2.83336 -2.32629 0
M  V30 18916 H 1817.57 4.9283 -1.00638 0
M  V30 18917 H 1817.27 5.19716 -2.7417 0
M  V30 18918 H 1818.8 5.7677 -2.00421 0
M  V30 18919 H 1820.21 4.32731 -3.76054 0
M  V30 18920 H 1818.61 3.99455 -4.47834 0
M  V30 18921 H 1819.68 2.64259 -4.06565 0
M  V30 18922 N 1821.02 1.235 0.979051 0
M  V30 18923 C 1822.27 1.0658 1.71713 0
M  V30 18924 C 1822.59 -0.397927 1.90897 0
M  V30 18925 O 1821.86 -1.28511 1.47857 0
M  V30 18926 H 1820.44 0.391397 0.636253 0
M  V30 18927 H 1823.1 1.55239 1.17843 0
M  V30 18928 H 1822.2 1.5548 2.70615 0
M  V30 18929 N 1822.5 -1.17802 1.04693 0
M  V30 18930 C 1823.44 -2.21648 0.643478 0
M  V30 18931 C 1824.41 -1.6233 -0.351858 0
M  V30 18932 O 1825.6 -1.89228 -0.244414 0
M  V30 18933 C 1822.74 -3.45095 0.019145 0
M  V30 18934 C 1821.85 -4.18725 1.06271 0
M  V30 18935 C 1820.99 -5.29644 0.406224 0
M  V30 18936 C 1820.03 -5.95055 1.43444 0
M  V30 18937 N 1819.16 -6.97499 0.802482 0
M  V30 18938 H 1824 -2.55513 1.53352 0
M  V30 18939 H 1821.54 -1.25518 0.767051 0
M  V30 18940 H 1823.5 -4.15642 -0.36023 0
M  V30 18941 H 1822.13 -3.1183 -0.834386 0
M  V30 18942 H 1821.18 -3.46943 1.55996 0
M  V30 18943 H 1822.49 -4.63486 1.84342 0
M  V30 18944 H 1821.65 -6.06694 -0.027012 0
M  V30 18945 H 1820.39 -4.86003 -0.406525 0
M  V30 18946 H 1819.39 -5.1674 1.87775 0
M  V30 18947 H 1820.62 -6.40778 2.249 0
M  V30 18948 H 1818.56 -6.55999 0.010153 0
M  V30 18949 H 1818.48 -7.40545 1.52081 0
M  V30 18950 H 1819.75 -7.78504 0.393852 0
M  V30 18951 N 1823.98 -0.827251 -1.34143 0
M  V30 18952 C 1824.89 -0.254285 -2.33218 0
M  V30 18953 C 1825.9 0.613602 -1.62822 0
M  V30 18954 O 1827.08 0.520477 -1.94558 0
M  V30 18955 C 1824.14 0.570817 -3.41969 0
M  V30 18956 C 1823.2 -0.319978 -4.28106 0
M  V30 18957 C 1822.44 0.465839 -5.31663 0
M  V30 18958 O 1822.66 1.6987 -5.44518 0
M  V30 18959 O 1821.59 -0.154094 -6.01703 0
M  V30 18960 H 1825.42 -1.07441 -2.8406 0
M  V30 18961 H 1823 -0.589493 -1.37278 0
M  V30 18962 H 1824.89 1.04009 -4.08363 0
M  V30 18963 H 1823.56 1.3682 -2.93363 0
M  V30 18964 H 1822.47 -0.836843 -3.6462 0
M  V30 18965 H 1823.8 -1.08183 -4.80164 0
M  V30 18966 N 1825.45 1.46436 -0.582609 0
M  V30 18967 C 1826.36 2.34099 0.153178 0
M  V30 18968 C 1827.38 1.49745 0.886135 0
M  V30 18969 O 1828.56 1.82615 0.849341 0
M  V30 18970 C 1825.62 3.26929 1.15404 0
M  V30 18971 C 1824.68 4.27183 0.425764 0
M  V30 18972 C 1823.91 5.15578 1.37895 0
M  V30 18973 O 1824.14 5.06903 2.61545 0
M  V30 18974 O 1823.07 5.9529 0.889585 0
M  V30 18975 H 1826.9 2.98368 -0.566585 0
M  V30 18976 H 1824.48 1.45409 -0.343013 0
M  V30 18977 H 1826.36 3.842 1.73114 0
M  V30 18978 H 1825.04 2.65257 1.85527 0
M  V30 18979 H 1823.95 3.73601 -0.193175 0
M  V30 18980 H 1825.28 4.91641 -0.234496 0
M  V30 18981 N 1826.93 0.320385 1.54309 0
M  V30 18982 C 1827.86 -0.589487 2.20455 0
M  V30 18983 C 1828.84 -1.11816 1.1805 0
M  V30 18984 O 1830.03 -1.18276 1.46776 0
M  V30 18985 C 1827.15 -1.80854 2.86373 0
M  V30 18986 C 1826.2 -1.41139 4.0247 0
M  V30 18987 S 1827.03 -0.450803 5.33599 0
M  V30 18988 C 1828.19 -1.67721 6.03009 0
M  V30 18989 H 1828.42 -0.0275989 2.97287 0
M  V30 18990 H 1825.95 0.104475 1.54046 0
M  V30 18991 H 1827.91 -2.50803 3.24974 0
M  V30 18992 H 1826.57 -2.34161 2.0935 0
M  V30 18993 H 1825.77 -2.31969 4.47444 0
M  V30 18994 H 1825.37 -0.791646 3.65526 0
M  V30 18995 H 1827.66 -2.6151 6.24995 0
M  V30 18996 H 1828.6 -1.26968 6.96624 0
M  V30 18997 H 1829.01 -1.86274 5.32881 0
M  V30 18998 N 1828.41 -1.57525 0.0484906 0
M  V30 18999 C 1829.66 -1.92204 -0.624654 0
M  V30 19000 C 1829.98 -0.927289 -1.71541 0
M  V30 19001 O 1829.25 0.0282687 -1.9588 0
M  V30 19002 H 1827.83 -0.709494 -0.233724 0
M  V30 19003 H 1830.49 -1.94639 0.100861 0
M  V30 19004 H 1829.59 -2.93368 -1.06498 0
M  V30 19005 N 1829.89 0.224867 -1.55988 0
M  V30 19006 C 1830.84 1.28206 -1.8854 0
M  V30 19007 C 1831.82 1.42447 -0.748172 0
M  V30 19008 O 1833.01 1.45318 -1.01053 0
M  V30 19009 C 1830.14 2.63315 -2.20273 0
M  V30 19010 C 1829.23 2.52988 -3.40379 0
M  V30 19011 N 1829.62 2.1231 -4.59084 0
M  V30 19012 C 1827.92 2.83954 -3.43927 0
M  V30 19013 C 1828.62 2.13153 -5.4124 0
M  V30 19014 N 1827.59 2.53513 -4.80866 0
M  V30 19015 H 1831.4 0.958396 -2.77834 0
M  V30 19016 H 1828.91 0.433439 -1.56509 0
M  V30 19017 H 1830.91 3.39639 -2.41767 0
M  V30 19018 H 1829.57 2.9653 -1.32289 0
M  V30 19019 H 1830.58 1.83495 -4.84304 0
M  V30 19020 H 1827.26 3.21563 -2.66277 0
M  V30 19021 H 1828.65 1.83856 -6.46256 0
M  V30 19022 N 1831.37 1.49742 0.491438 0
M  V30 19023 C 1832.3 1.70033 1.60034 0
M  V30 19024 C 1833.28 0.549076 1.60994 0
M  V30 19025 O 1834.46 0.785983 1.77584 0
M  V30 19026 C 1831.59 1.7757 2.98473 0
M  V30 19027 C 1830.55 2.9258 3.12379 0
M  V30 19028 C 1829.87 2.85239 4.52264 0
M  V30 19029 C 1831.17 4.33385 2.91504 0
M  V30 19030 H 1832.87 2.62875 1.43307 0
M  V30 19031 H 1830.41 1.26502 0.687989 0
M  V30 19032 H 1832.36 1.90351 3.75958 0
M  V30 19033 H 1831.09 0.813343 3.1631 0
M  V30 19034 H 1829.75 2.79417 2.37322 0
M  V30 19035 H 1829.4 1.86892 4.66991 0
M  V30 19036 H 1829.1 3.62437 4.62508 0
M  V30 19037 H 1830.62 3.00041 5.31797 0
M  V30 19038 H 1832.03 4.4718 3.58752 0
M  V30 19039 H 1830.43 5.11878 3.13211 0
M  V30 19040 H 1831.5 4.47166 1.87539 0
M  V30 19041 N 1832.84 -0.743177 1.38977 0
M  V30 19042 C 1833.78 -1.86554 1.31427 0
M  V30 19043 C 1834.76 -1.61493 0.189386 0
M  V30 19044 O 1835.94 -1.84864 0.368464 0
M  V30 19045 C 1833.07 -3.22375 1.03884 0
M  V30 19046 C 1832.11 -3.66308 2.18451 0
M  V30 19047 S 1832.95 -3.76628 3.80672 0
M  V30 19048 C 1834.1 -5.15253 3.55338 0
M  V30 19049 H 1834.33 -1.92674 2.26416 0
M  V30 19050 H 1831.87 -0.907215 1.24936 0
M  V30 19051 H 1833.83 -4.00807 0.88677 0
M  V30 19052 H 1832.49 -3.13921 0.105952 0
M  V30 19053 H 1831.68 -4.64852 1.94752 0
M  V30 19054 H 1831.28 -2.95058 2.29819 0
M  V30 19055 H 1833.57 -6.01333 3.12097 0
M  V30 19056 H 1834.52 -5.43977 4.53315 0
M  V30 19057 H 1834.92 -4.84542 2.89619 0
M  V30 19058 N 1834.32 -1.24018 -0.972487 0
M  V30 19059 C 1835.25 -0.986185 -2.06899 0
M  V30 19060 C 1836.27 0.0426574 -1.62744 0
M  V30 19061 O 1837.46 -0.193816 -1.77445 0
M  V30 19062 C 1834.56 -0.46551 -3.35688 0
M  V30 19063 C 1833.73 -1.55637 -4.08774 0
M  V30 19064 C 1832.79 -1.03918 -5.15837 0
M  V30 19065 O 1831.81 -1.72986 -5.42277 0
M  V30 19066 N 1833.02 0.128891 -5.80357 0
M  V30 19067 H 1835.78 -1.93025 -2.29263 0
M  V30 19068 H 1833.34 -1.14983 -1.13976 0
M  V30 19069 H 1835.33 -0.104379 -4.04565 0
M  V30 19070 H 1833.9 0.384166 -3.1023 0
M  V30 19071 H 1833.12 -2.08991 -3.3424 0
M  V30 19072 H 1834.41 -2.28973 -4.54366 0
M  V30 19073 H 1833.81 0.706438 -5.61272 0
M  V30 19074 H 1832.37 0.431211 -6.50372 0
M  V30 19075 N 1835.8 1.17245 -1.05316 0
M  V30 19076 C 1836.76 2.19508 -0.659467 0
M  V30 19077 C 1837.76 1.58169 0.289697 0
M  V30 19078 O 1838.95 1.74045 0.0734019 0
M  V30 19079 C 1836.09 3.40886 0.0311886 0
M  V30 19080 H 1837.28 2.55852 -1.5646 0
M  V30 19081 H 1834.83 1.31348 -0.847193 0
M  V30 19082 H 1835.57 3.10088 0.949535 0
M  V30 19083 H 1835.35 3.86655 -0.651191 0
M  V30 19084 H 1836.84 4.16573 0.292702 0
M  V30 19085 N 1837.28 0.834353 1.33702 0
M  V30 19086 C 1838.19 0.266649 2.3308 0
M  V30 19087 C 1839.2 -0.604958 1.63145 0
M  V30 19088 O 1840.38 -0.510151 1.94832 0
M  V30 19089 C 1837.45 -0.552673 3.42267 0
M  V30 19090 C 1836.51 0.342677 4.2793 0
M  V30 19091 C 1835.74 -0.437637 5.31903 0
M  V30 19092 O 1835.96 -1.6698 5.45412 0
M  V30 19093 O 1834.9 0.186001 6.01613 0
M  V30 19094 H 1838.72 1.08946 2.83486 0
M  V30 19095 H 1836.31 0.596765 1.36964 0
M  V30 19096 H 1838.19 -1.01842 4.08908 0
M  V30 19097 H 1836.86 -1.35263 2.94085 0
M  V30 19098 H 1835.77 0.856168 3.64171 0
M  V30 19099 H 1837.1 1.10728 4.79583 0
M  V30 19100 N 1838.76 -1.46125 0.590367 0
M  V30 19101 C 1840.03 -1.95597 0.0116648 0
M  V30 19102 C 1840.41 -1.53298 -1.45131 0
M  V30 19103 O 1839.76 -0.787298 -2.14508 0
M  V30 19104 C 1839.97 -3.48473 0.191727 0
M  V30 19105 C 1841.32 -4.24552 0.0635332 0
M  V30 19106 O 1842.34 -3.55995 0.120955 0
M  V30 19107 O 1841.2 -5.4646 -0.0657772 0
M  V30 19108 H 1838.3 -0.825748 -0.0454921 0
M  V30 19109 H 1840.84 -1.56372 0.659223 0
M  V30 19110 H 1839.61 -3.72172 1.20846 0
M  V30 19111 H 1839.24 -3.94545 -0.491905 0
M  V30 19112 N 1840.23 -0.328564 -1.54137 0
M  V30 19113 C 1841.46 0.274326 -2.05073 0
M  V30 19114 C 1841.88 1.45393 -1.20442 0
M  V30 19115 O 1841.23 1.80964 -0.23625 0
M  V30 19116 C 1841.29 0.703941 -3.5458 0
M  V30 19117 O 1841.01 -0.428738 -4.35997 0
M  V30 19118 C 1842.51 1.36912 -4.21628 0
M  V30 19119 H 1839.73 0.0556157 -0.668691 0
M  V30 19120 H 1842.27 -0.476204 -1.98878 0
M  V30 19121 H 1840.43 1.40444 -3.61046 0
M  V30 19122 H 1840.84 -0.0892654 -5.24424 0
M  V30 19123 H 1842.31 1.62062 -5.27674 0
M  V30 19124 H 1842.79 2.31799 -3.73049 0
M  V30 19125 H 1843.4 0.711064 -4.19314 0
M  V30 19126 N 1841.71 1.57497 -0.0568439 0
M  V30 19127 C 1842.94 1.97645 0.628589 0
M  V30 19128 C 1843.36 0.934424 1.63249 0
M  V30 19129 O 1842.72 -0.101706 1.81015 0
M  V30 19130 C 1842.77 3.36855 1.2869 0
M  V30 19131 O 1841.87 3.35182 2.40264 0
M  V30 19132 H 1841.21 0.643698 0.16294 0
M  V30 19133 H 1843.74 2.04206 -0.126927 0
M  V30 19134 H 1843.75 3.73708 1.63726 0
M  V30 19135 H 1842.43 4.12231 0.551203 0
M  V30 19136 H 1841.01 3.10081 2.07133 0
M  V30 19137 N 1843.19 -0.216591 1.56105 0
M  V30 19138 C 1844.14 -1.27204 1.89217 0
M  V30 19139 C 1845.12 -1.42048 0.755716 0
M  V30 19140 O 1846.32 -1.4478 1.01822 0
M  V30 19141 C 1843.45 -2.62143 2.21666 0
M  V30 19142 C 1842.53 -2.5118 3.41716 0
M  V30 19143 N 1842.92 -2.09872 4.60203 0
M  V30 19144 C 1841.22 -2.82126 3.45428 0
M  V30 19145 C 1841.92 -2.1028 5.42363 0
M  V30 19146 N 1840.9 -2.50959 4.82204 0
M  V30 19147 H 1844.7 -0.943648 2.78339 0
M  V30 19148 H 1842.21 -0.425133 1.56737 0
M  V30 19149 H 1844.21 -3.38352 2.43565 0
M  V30 19150 H 1842.87 -2.95824 1.3386 0
M  V30 19151 H 1843.88 -1.80924 4.8527 0
M  V30 19152 H 1840.56 -3.20146 2.67979 0
M  V30 19153 H 1841.95 -1.80426 6.47222 0
M  V30 19154 N 1844.67 -1.5 -0.48349 0
M  V30 19155 C 1845.62 -1.64347 -1.58032 0
M  V30 19156 C 1846.6 -0.498472 -1.52984 0
M  V30 19157 O 1847.79 -0.752287 -1.60217 0
M  V30 19158 C 1844.92 -1.72952 -2.96551 0
M  V30 19159 C 1844.01 -2.93088 -3.06529 0
M  V30 19160 N 1844.4 -4.16937 -2.86352 0
M  V30 19161 C 1842.7 -2.91389 -3.37652 0
M  V30 19162 C 1843.4 -4.97786 -3.00972 0
M  V30 19163 N 1842.38 -4.31494 -3.30626 0
M  V30 19164 H 1846.18 -2.57807 -1.41112 0
M  V30 19165 H 1843.69 -1.47014 -0.689978 0
M  V30 19166 H 1845.69 -1.81332 -3.75399 0
M  V30 19167 H 1844.35 -0.80642 -3.14527 0
M  V30 19168 H 1845.36 -4.46635 -2.62178 0
M  V30 19169 H 1842.04 -2.08528 -3.61694 0
M  V30 19170 H 1843.43 -6.06229 -2.89716 0
M  V30 19171 N 1846.15 0.735796 -1.39369 0
M  V30 19172 C 1847.37 1.52504 -1.39822 0
M  V30 19173 C 1847.79 1.88799 0.00747346 0
M  V30 19174 O 1847.15 1.54044 0.978611 0
M  V30 19175 C 1847.2 2.8131 -2.27039 0
M  V30 19176 O 1846.92 2.46557 -3.62134 0
M  V30 19177 C 1848.42 3.75343 -2.35866 0
M  V30 19178 H 1845.64 0.471306 -0.47761 0
M  V30 19179 H 1848.18 0.909257 -1.83174 0
M  V30 19180 H 1846.34 3.39222 -1.87102 0
M  V30 19181 H 1846.75 3.29294 -4.08247 0
M  V30 19182 H 1848.23 4.6262 -3.01142 0
M  V30 19183 H 1848.7 4.17036 -1.37758 0
M  V30 19184 H 1849.31 3.2335 -2.7627 0
M  V30 19185 N 1847.63 1.24532 0.965897 0
M  V30 19186 C 1848.59 1.04026 2.04233 0
M  V30 19187 C 1849.59 -0.00305855 1.608 0
M  V30 19188 O 1850.78 0.238077 1.72565 0
M  V30 19189 C 1847.91 0.577072 3.3598 0
M  V30 19190 H 1849.1 1.99569 2.23858 0
M  V30 19191 H 1846.66 1.0678 1.14139 0
M  V30 19192 H 1847.39 -0.381471 3.22049 0
M  V30 19193 H 1847.18 1.33012 3.6885 0
M  V30 19194 H 1848.67 0.45469 4.15117 0
M  V30 19195 N 1849.1 -1.16685 1.05936 0
M  V30 19196 C 1850.51 -1.68745 0.798866 0
M  V30 19197 C 1850.87 -1.84113 -0.678008 0
M  V30 19198 O 1849.99 -1.53408 -1.52627 0
M  V30 19199 C 1850.59 -3.06508 1.44356 0
M  V30 19200 C 1849.14 -3.55704 1.23092 0
M  V30 19201 C 1848.29 -2.31776 1.52235 0
M  V30 19202 H 1851.24 -1.01097 1.22332 0
M  V30 19203 H 1851.26 -3.70725 0.856908 0
M  V30 19204 H 1850.78 -2.95291 2.51843 0
M  V30 19205 H 1848.88 -3.72186 0.175632 0
M  V30 19206 H 1848.99 -4.38015 1.94112 0
M  V30 19207 H 1847.35 -2.36611 0.942734 0
M  V30 19208 H 1848.14 -2.2316 2.60873 0
M  V30 19209 N 1850.58 -0.841432 -1.33258 0
M  V30 19210 C 1851.51 -0.221485 -2.27123 0
M  V30 19211 C 1852.49 0.632879 -1.49778 0
M  V30 19212 O 1853.68 0.592581 -1.78943 0
M  V30 19213 C 1850.8 0.688784 -3.31622 0
M  V30 19214 C 1849.85 -0.0904563 -4.26404 0
M  V30 19215 S 1850.68 -1.45006 -5.15493 0
M  V30 19216 C 1851.84 -0.545159 -6.23521 0
M  V30 19217 H 1852.07 -1.01723 -2.79356 0
M  V30 19218 H 1849.6 -0.638326 -1.40587 0
M  V30 19219 H 1851.56 1.20836 -3.92312 0
M  V30 19220 H 1850.22 1.45821 -2.78199 0
M  V30 19221 H 1849.42 0.602296 -5.00388 0
M  V30 19222 H 1849.02 -0.541181 -3.70064 0
M  V30 19223 H 1851.31 0.255962 -6.77016 0
M  V30 19224 H 1852.25 -1.25524 -6.96885 0
M  V30 19225 H 1852.66 -0.125368 -5.64361 0
M  V30 19226 N 1852.06 1.4581 -0.598108 0
M  V30 19227 C 1853.28 2.07188 -0.0938515 0
M  V30 19228 C 1853.71 1.44141 1.20851 0
M  V30 19229 O 1853.07 0.530689 1.73359 0
M  V30 19230 C 1853.12 3.60575 0.0423086 0
M  V30 19231 O 1852.22 3.97598 1.09496 0
M  V30 19232 H 1851.56 0.660324 -0.0697682 0
M  V30 19233 H 1854.09 1.87211 -0.825426 0
M  V30 19234 H 1854.1 4.07272 0.243566 0
M  V30 19235 H 1852.78 4.05852 -0.9087 0
M  V30 19236 H 1851.35 3.62587 0.87093 0
M  V30 19237 N 1853.54 0.336733 1.53961 0
M  V30 19238 C 1854.78 -0.262248 2.01097 0
M  V30 19239 C 1855.12 -1.50745 1.22431 0
M  V30 19240 O 1854.39 -1.92012 0.310103 0
M  V30 19241 C 1854.67 -0.583219 3.55346 0
M  V30 19242 C 1854.53 0.67361 4.44727 0
M  V30 19243 C 1855.85 -1.39558 4.17386 0
M  V30 19244 H 1852.97 -0.0938423 0.731001 0
M  V30 19245 H 1855.61 0.455921 1.84449 0
M  V30 19246 H 1853.76 -1.19505 3.69663 0
M  V30 19247 H 1855.43 1.31168 4.42258 0
M  V30 19248 H 1853.67 1.29987 4.13867 0
M  V30 19249 H 1854.34 0.404382 5.50517 0
M  V30 19250 H 1856.82 -0.878292 4.06725 0
M  V30 19251 H 1855.7 -1.58892 5.25399 0
M  V30 19252 H 1855.96 -2.39567 3.71564 0
M  V30 19253 N 1855.02 -1.57465 0.0651956 0
M  V30 19254 C 1856.43 -1.80728 -0.468449 0
M  V30 19255 C 1856.78 -0.978581 -1.70054 0
M  V30 19256 O 1855.9 -0.199186 -2.15481 0
M  V30 19257 C 1856.5 -3.27791 -0.856641 0
M  V30 19258 C 1855.06 -3.51923 -1.33519 0
M  V30 19259 C 1854.2 -2.7548 -0.317147 0
M  V30 19260 H 1857.15 -1.5601 0.290955 0
M  V30 19261 H 1857.18 -3.39479 -1.71855 0
M  V30 19262 H 1856.69 -3.88079 0.0402823 0
M  V30 19263 H 1854.79 -2.96932 -2.25083 0
M  V30 19264 H 1854.9 -4.60624 -1.31767 0
M  V30 19265 H 1853.27 -2.4204 -0.793026 0
M  V30 19266 H 1854.05 -3.38502 0.571935 0
M  V30 19267 N 1856.49 0.20831 -1.56217 0
M  V30 19268 C 1857.4 1.27891 -1.96675 0
M  V30 19269 C 1858.42 1.50546 -0.87246 0
M  V30 19270 O 1859.6 1.63418 -1.17713 0
M  V30 19271 C 1856.66 2.60598 -2.28669 0
M  V30 19272 C 1855.72 2.4613 -3.51736 0
M  V30 19273 C 1854.95 3.72509 -3.82195 0
M  V30 19274 O 1855.18 4.76105 -3.14133 0
M  V30 19275 O 1854.11 3.68828 -4.75657 0
M  V30 19276 H 1857.94 0.965607 -2.8794 0
M  V30 19277 H 1855.52 0.412249 -1.436 0
M  V30 19278 H 1857.4 3.38949 -2.50383 0
M  V30 19279 H 1856.08 2.91583 -1.40575 0
M  V30 19280 H 1854.99 1.65935 -3.35286 0
M  V30 19281 H 1856.32 2.20082 -4.40255 0
M  V30 19282 N 1857.97 1.50255 0.475528 0
M  V30 19283 C 1859.38 1.53931 1.05651 0
M  V30 19284 C 1859.73 0.340226 1.93228 0
M  V30 19285 O 1858.86 -0.547349 2.09363 0
M  V30 19286 C 1859.45 2.78951 1.92281 0
M  V30 19287 C 1858.01 2.85323 2.45495 0
M  V30 19288 C 1857.16 2.48166 1.2373 0
M  V30 19289 H 1860.11 1.56583 0.258332 0
M  V30 19290 H 1860.13 2.60555 2.77293 0
M  V30 19291 H 1859.64 3.66205 1.28514 0
M  V30 19292 H 1857.74 2.0241 3.12827 0
M  V30 19293 H 1857.86 3.88109 2.80906 0
M  V30 19294 H 1856.22 2.00505 1.57066 0
M  V30 19295 H 1857 3.37722 0.616324 0
M  V30 19296 N 1859.45 -0.728395 1.39758 0
M  V30 19297 C 1860.4 -1.83374 1.35491 0
M  V30 19298 C 1861.38 -1.5918 0.234629 0
M  V30 19299 O 1862.58 -1.70571 0.472703 0
M  V30 19300 C 1859.7 -3.21373 1.20725 0
M  V30 19301 C 1858.79 -3.51373 2.37482 0
M  V30 19302 N 1859.18 -3.52269 3.6296 0
M  V30 19303 C 1857.48 -3.81769 2.30583 0
M  V30 19304 C 1858.18 -3.80252 4.40208 0
M  V30 19305 N 1857.16 -3.98359 3.6988 0
M  V30 19306 H 1860.96 -1.82381 2.30465 0
M  V30 19307 H 1858.47 -0.926941 1.33348 0
M  V30 19308 H 1860.47 -4.00509 1.15751 0
M  V30 19309 H 1859.13 -3.236 0.267072 0
M  V30 19310 H 1860.14 -3.33423 3.96295 0
M  V30 19311 H 1856.82 -3.91562 1.44862 0
M  V30 19312 H 1858.21 -3.87357 5.49003 0
M  V30 19313 N 1860.93 -1.25042 -0.959279 0
M  V30 19314 C 1861.89 -1.05107 -2.03679 0
M  V30 19315 C 1862.89 -0.0054691 -1.60799 0
M  V30 19316 O 1864.08 -0.247225 -1.72437 0
M  V30 19317 C 1861.21 -0.594881 -3.35669 0
M  V30 19318 H 1862.41 -2.00753 -2.22796 0
M  V30 19319 H 1859.96 -1.07384 -1.13571 0
M  V30 19320 H 1860.69 0.364387 -3.22246 0
M  V30 19321 H 1860.48 -1.34966 -3.68139 0
M  V30 19322 H 1861.97 -0.476698 -4.1487 0
M  V30 19323 N 1862.41 1.16121 -1.06553 0
M  V30 19324 C 1863.37 2.18796 -0.682711 0
M  V30 19325 C 1864.37 1.58467 0.272905 0
M  V30 19326 O 1865.56 1.74113 0.0549379 0
M  V30 19327 C 1862.69 3.409 -0.00496866 0
M  V30 19328 H 1863.88 2.54178 -1.59165 0
M  V30 19329 H 1861.44 1.30442 -0.861077 0
M  V30 19330 H 1862.17 3.11077 0.916593 0
M  V30 19331 H 1861.96 3.85942 -0.692165 0
M  V30 19332 H 1863.45 4.1686 0.248503 0
M  V30 19333 N 1863.88 0.848487 1.3281 0
M  V30 19334 C 1865.11 0.462643 2.01661 0
M  V30 19335 C 1865.53 -0.938906 1.63799 0
M  V30 19336 O 1864.88 -1.61171 0.85617 0
M  V30 19337 C 1864.94 0.584905 3.56737 0
M  V30 19338 O 1864.66 1.93124 3.93236 0
M  V30 19339 C 1866.16 0.197265 4.42861 0
M  V30 19340 H 1863.38 0.18254 0.645694 0
M  V30 19341 H 1865.92 1.14372 1.69527 0
M  V30 19342 H 1864.08 -0.0483701 3.8737 0
M  V30 19343 H 1864.49 1.92361 4.87952 0
M  V30 19344 H 1865.96 0.333833 5.5099 0
M  V30 19345 H 1866.44 -0.861732 4.30663 0
M  V30 19346 H 1867.05 0.805363 4.17605 0
M  V30 19347 N 1865.36 -1.4549 0.605832 0
M  V30 19348 C 1866.33 -2.28964 -0.104089 0
M  V30 19349 C 1867.33 -1.39671 -0.796791 0
M  V30 19350 O 1868.52 -1.6181 -0.645221 0
M  V30 19351 C 1865.65 -3.20647 -1.1575 0
M  V30 19352 H 1866.84 -2.93213 0.629776 0
M  V30 19353 H 1864.39 -1.51983 0.3648 0
M  V30 19354 H 1865.13 -2.61194 -1.92219 0
M  V30 19355 H 1864.91 -3.86419 -0.665025 0
M  V30 19356 H 1866.4 -3.83416 -1.65474 0
M  V30 19357 N 1866.84 -0.344893 -1.5378 0
M  V30 19358 C 1868.07 0.255228 -2.05824 0
M  V30 19359 C 1868.49 1.43329 -1.21812 0
M  V30 19360 O 1867.85 1.79807 -0.232191 0
M  V30 19361 C 1867.9 0.646906 -3.5475 0
M  V30 19362 O 1867 1.74677 -3.7358 0
M  V30 19363 H 1866.34 0.0420518 -0.662667 0
M  V30 19364 H 1868.87 -0.499498 -1.98409 0
M  V30 19365 H 1868.88 0.923686 -3.97407 0
M  V30 19366 H 1867.56 -0.214619 -4.15346 0
M  V30 19367 H 1866.13 1.46715 -3.42825 0
M  V30 19368 N 1868.32 1.57428 -0.0735454 0
M  V30 19369 C 1869.73 1.80973 0.458858 0
M  V30 19370 C 1870.08 0.987586 1.69532 0
M  V30 19371 O 1869.21 0.210611 2.15373 0
M  V30 19372 C 1869.8 3.28241 0.839246 0
M  V30 19373 C 1868.36 3.52626 1.3165 0
M  V30 19374 C 1867.51 2.75645 0.302533 0
M  V30 19375 H 1870.46 1.55854 -0.299225 0
M  V30 19376 H 1870.48 3.40386 1.70052 0
M  V30 19377 H 1869.99 3.88052 -0.0608625 0
M  V30 19378 H 1868.09 2.98121 2.23505 0
M  V30 19379 H 1868.2 4.61316 1.29322 0
M  V30 19380 H 1866.57 2.42457 0.780179 0
M  V30 19381 H 1867.35 3.38194 -0.589878 0
M  V30 19382 N 1869.8 -0.200022 1.56326 0
M  V30 19383 C 1871.21 -0.765141 1.70301 0
M  V30 19384 C 1871.56 -1.84066 0.679277 0
M  V30 19385 O 1870.68 -2.15768 -0.165308 0
M  V30 19386 C 1871.28 -1.39466 3.08763 0
M  V30 19387 C 1869.84 -1.90692 3.2452 0
M  V30 19388 C 1868.98 -0.77502 2.66249 0
M  V30 19389 H 1871.94 0.024977 1.5868 0
M  V30 19390 H 1871.96 -2.26396 3.05819 0
M  V30 19391 H 1871.47 -0.61165 3.8325 0
M  V30 19392 H 1869.57 -2.71728 2.54941 0
M  V30 19393 H 1869.68 -2.0721 4.31973 0
M  V30 19394 H 1868.05 -1.18802 2.25296 0
M  V30 19395 H 1868.83 -0.00432851 3.433 0
M  V30 19396 N 1871.27 -1.50505 -0.467553 0
M  V30 19397 C 1872.5 -1.65433 -1.24256 0
M  V30 19398 C 1872.92 -0.339107 -1.8573 0
M  V30 19399 O 1872.27 0.679316 -1.69386 0
M  V30 19400 C 1872.33 -2.74805 -2.34871 0
M  V30 19401 O 1872.05 -4.01229 -1.75917 0
M  V30 19402 C 1873.55 -3.00738 -3.25687 0
M  V30 19403 H 1870.77 -0.555987 -0.375659 0
M  V30 19404 H 1873.31 -1.96749 -0.557684 0
M  V30 19405 H 1871.47 -2.46174 -2.99128 0
M  V30 19406 H 1871.88 -4.61742 -2.48787 0
M  V30 19407 H 1873.35 -3.80921 -3.99504 0
M  V30 19408 H 1873.83 -2.11947 -3.84675 0
M  V30 19409 H 1874.44 -3.30914 -2.67163 0
M  V30 19410 N 1872.75 0.720973 -1.40142 0
M  V30 19411 C 1874.03 1.47356 -1.28629 0
M  V30 19412 C 1874.41 2.10873 0.0978138 0
M  V30 19413 O 1873.76 1.99717 1.1102 0
M  V30 19414 C 1873.97 2.51364 -2.4211 0
M  V30 19415 C 1875.32 3.17348 -2.82091 0
M  V30 19416 O 1876.34 2.61682 -2.41663 0
M  V30 19417 O 1875.2 4.1811 -3.51918 0
M  V30 19418 H 1872.29 0.655019 -0.504855 0
M  V30 19419 H 1874.84 0.753605 -1.52049 0
M  V30 19420 H 1873.61 2.02907 -3.34581 0
M  V30 19421 H 1873.23 3.30901 -2.20432 0
M  V30 19422 N 1874.23 1.25549 0.952634 0
M  V30 19423 C 1875.48 1.10198 1.69413 0
M  V30 19424 C 1875.8 -0.357345 1.91698 0
M  V30 19425 O 1875.07 -1.25345 1.5055 0
M  V30 19426 H 1873.65 0.404804 0.627808 0
M  V30 19427 H 1876.31 1.57703 1.14524 0
M  V30 19428 H 1875.41 1.61185 2.67256 0
M  V30 19429 N 1875.71 -1.15554 1.07168 0
M  V30 19430 C 1876.94 -1.90182 0.81477 0
M  V30 19431 C 1877.35 -1.77914 -0.631829 0
M  V30 19432 O 1876.71 -1.1298 -1.43324 0
M  V30 19433 C 1876.76 -3.40593 1.21155 0
M  V30 19434 O 1876.48 -3.52504 2.60139 0
M  V30 19435 C 1877.98 -4.32248 0.983675 0
M  V30 19436 H 1875.2 -0.602804 0.294735 0
M  V30 19437 H 1877.75 -1.46419 1.42764 0
M  V30 19438 H 1875.9 -3.82026 0.643041 0
M  V30 19439 H 1876.31 -4.45839 2.76275 0
M  V30 19440 H 1877.79 -5.3621 1.31084 0
M  V30 19441 H 1878.27 -4.39127 -0.0801022 0
M  V30 19442 H 1878.87 -3.96556 1.537 0
M  V30 19443 N 1877.19 -0.855519 -1.32358 0
M  V30 19444 C 1878.42 -0.473331 -2.01413 0
M  V30 19445 C 1878.83 0.930206 -1.64294 0
M  V30 19446 O 1878.19 1.60714 -0.864705 0
M  V30 19447 C 1878.24 -0.603815 -3.56422 0
M  V30 19448 O 1877.96 -1.95207 -3.92207 0
M  V30 19449 C 1879.46 -0.220748 -4.4275 0
M  V30 19450 H 1876.68 -0.185962 -0.644716 0
M  V30 19451 H 1879.22 -1.1527 -1.68918 0
M  V30 19452 H 1877.38 0.0278263 -3.8739 0
M  V30 19453 H 1877.79 -1.94946 -4.86925 0
M  V30 19454 H 1879.27 -0.363048 -5.50805 0
M  V30 19455 H 1879.74 0.838881 -4.31114 0
M  V30 19456 H 1880.35 -0.827498 -4.17172 0
M  V30 19457 N 1878.67 1.45167 -0.61354 0
M  V30 19458 C 1880.08 1.57166 -0.277678 0
M  V30 19459 C 1880.28 1.60395 1.21965 0
M  V30 19460 O 1879.34 1.53747 2.00295 0
M  V30 19461 C 1880.65 2.85162 -0.9541 0
M  V30 19462 C 1882.2 2.98847 -0.930579 0
M  V30 19463 C 1882.67 4.29621 -1.58712 0
M  V30 19464 N 1884.16 4.36394 -1.55289 0
M  V30 19465 C 1884.9 5.36264 -2.02999 0
M  V30 19466 N 1884.4 6.42638 -2.58821 0
M  V30 19467 N 1886.19 5.27659 -1.93732 0
M  V30 19468 H 1878.34 1.41314 -1.58569 0
M  V30 19469 H 1880.6 0.676027 -0.664598 0
M  V30 19470 H 1880.31 2.88698 -2.00864 0
M  V30 19471 H 1880.18 3.7412 -0.481025 0
M  V30 19472 H 1882.57 2.94874 0.115433 0
M  V30 19473 H 1882.65 2.11283 -1.44198 0
M  V30 19474 H 1882.29 4.34352 -2.6325 0
M  V30 19475 H 1882.22 5.16011 -1.0507 0
M  V30 19476 H 1884.72 3.60131 -1.14516 0
M  V30 19477 H 1885.03 7.151 -2.93004 0
M  V30 19478 H 1883.37 6.43372 -2.62863 0
M  V30 19479 H 1886.56 4.43465 -1.49856 0
M  V30 19480 H 1886.74 6.05341 -2.31227 0
M  V30 19481 N 1880.14 0.353044 1.53595 0
M  V30 19482 C 1881.37 -0.241315 2.05186 0
M  V30 19483 C 1881.78 -1.44008 1.22713 0
M  V30 19484 O 1881.12 -1.81884 0.257661 0
M  V30 19485 C 1881.19 -0.71094 3.524 0
M  V30 19486 C 1880.85 0.369445 4.55504 0
M  V30 19487 C 1881.85 1.21525 5.05497 0
M  V30 19488 C 1879.53 0.526096 4.99537 0
M  V30 19489 C 1881.53 2.20316 5.98113 0
M  V30 19490 C 1879.21 1.51739 5.91962 0
M  V30 19491 C 1880.21 2.35437 6.41138 0
M  V30 19492 O 1879.9 3.32877 7.31743 0
M  V30 19493 H 1879.63 -0.0486773 0.674245 0
M  V30 19494 H 1882.19 0.506038 1.99069 0
M  V30 19495 H 1880.42 -1.50969 3.56013 0
M  V30 19496 H 1882.1 -1.2269 3.86913 0
M  V30 19497 H 1882.87 1.10536 4.72236 0
M  V30 19498 H 1878.75 -0.115562 4.60855 0
M  V30 19499 H 1882.29 2.85682 6.36421 0
M  V30 19500 H 1878.19 1.62781 6.24638 0
M  V30 19501 H 1878.96 3.2846 7.49704 0
M  V30 19502 N 1881.62 -1.57387 0.0818932 0
M  V30 19503 C 1882.85 -1.9862 -0.597066 0
M  V30 19504 C 1883.27 -0.960277 -1.61741 0
M  V30 19505 O 1882.63 0.0728948 -1.81153 0
M  V30 19506 C 1882.68 -3.3886 -1.23315 0
M  V30 19507 O 1881.78 -3.38962 -2.34901 0
M  V30 19508 H 1881.12 -0.646208 -0.152679 0
M  V30 19509 H 1883.65 -2.03978 0.159398 0
M  V30 19510 H 1883.66 -3.76266 -1.5776 0
M  V30 19511 H 1882.34 -4.13056 -0.485551 0
M  V30 19512 H 1880.91 -3.13337 -2.02174 0
M  V30 19513 N 1883.1 0.191729 -1.56429 0
M  V30 19514 C 1884.06 1.22128 -1.93952 0
M  V30 19515 C 1885.06 1.38262 -0.820984 0
M  V30 19516 O 1886.25 1.36017 -1.08835 0
M  V30 19517 C 1883.38 2.59005 -2.21651 0
M  V30 19518 H 1884.58 0.900458 -2.86063 0
M  V30 19519 H 1882.13 0.433382 -1.50172 0
M  V30 19520 H 1882.87 2.96136 -1.32189 0
M  V30 19521 H 1882.65 2.48665 -3.03164 0
M  V30 19522 H 1884.14 3.33242 -2.51674 0
M  V30 19523 N 1884.58 1.50751 0.459565 0
M  V30 19524 C 1885.51 1.66621 1.57385 0
M  V30 19525 C 1886.52 0.547358 1.53323 0
M  V30 19526 O 1887.71 0.820941 1.58502 0
M  V30 19527 C 1884.81 1.64524 2.96285 0
M  V30 19528 C 1883.98 2.92631 3.25093 0
M  V30 19529 C 1883.04 2.83021 4.43605 0
M  V30 19530 O 1882.07 3.56977 4.43347 0
M  V30 19531 N 1883.27 1.97358 5.45921 0
M  V30 19532 H 1886.04 2.62738 1.44184 0
M  V30 19533 H 1883.6 1.48359 0.64817 0
M  V30 19534 H 1885.59 1.55693 3.73553 0
M  V30 19535 H 1884.16 0.760945 3.03197 0
M  V30 19536 H 1883.38 3.15502 2.36331 0
M  V30 19537 H 1884.67 3.77477 3.41157 0
M  V30 19538 H 1884.07 1.36608 5.48958 0
M  V30 19539 H 1882.62 1.94422 6.22128 0
M  V30 19540 N 1886.06 -0.713531 1.40522 0
M  V30 19541 C 1887.28 -1.5026 1.4223 0
M  V30 19542 C 1887.7 -1.88787 0.0225637 0
M  V30 19543 O 1887.06 -1.55581 -0.95398 0
M  V30 19544 C 1887.11 -2.77663 2.31486 0
M  V30 19545 O 1886.83 -2.40765 3.66011 0
M  V30 19546 C 1888.33 -3.71543 2.41807 0
M  V30 19547 H 1885.55 -0.463648 0.485048 0
M  V30 19548 H 1888.09 -0.88 1.84598 0
M  V30 19549 H 1886.25 -3.36203 1.92475 0
M  V30 19550 H 1886.66 -3.22757 4.13434 0
M  V30 19551 H 1888.14 -4.57771 3.08464 0
M  V30 19552 H 1888.61 -4.14792 1.44375 0
M  V30 19553 H 1889.22 -3.18914 2.81379 0
M  V30 19554 N 1887.53 -1.26053 -0.945962 0
M  V30 19555 C 1888.81 -1.02072 -1.66855 0
M  V30 19556 C 1889.19 0.45036 -2.0624 0
M  V30 19557 O 1888.54 1.42966 -1.7825 0
M  V30 19558 C 1888.75 -1.96486 -2.88434 0
M  V30 19559 C 1890.1 -2.24825 -3.60193 0
M  V30 19560 O 1891.12 -1.94314 -2.98531 0
M  V30 19561 O 1889.98 -2.76749 -4.71245 0
M  V30 19562 H 1887.07 -0.387753 -0.730463 0
M  V30 19563 H 1889.62 -1.37243 -0.998117 0
M  V30 19564 H 1888.39 -2.95779 -2.56185 0
M  V30 19565 H 1888.01 -1.61765 -3.63205 0
M  V30 19566 N 1889.01 1.14984 -1.07779 0
M  V30 19567 C 1890.26 1.85219 -0.798561 0
M  V30 19568 C 1890.57 1.83476 0.677935 0
M  V30 19569 O 1891.78 2.49436 1.0721 0
M  V30 19570 C 1890.24 3.32454 -1.37849 0
M  V30 19571 C 1889.84 3.42631 -2.88631 0
M  V30 19572 C 1891.59 4.07843 -1.17747 0
M  V30 19573 C 1889.49 4.8404 -3.39794 0
M  V30 19574 H 1888.42 0.693872 -0.295054 0
M  V30 19575 H 1891.08 1.29668 -1.2984 0
M  V30 19576 H 1889.46 3.87703 -0.806374 0
M  V30 19577 H 1890.63 2.97466 -3.51925 0
M  V30 19578 H 1888.95 2.80691 -3.07573 0
M  V30 19579 H 1891.54 5.1221 -1.53444 0
M  V30 19580 H 1891.89 4.16136 -0.116815 0
M  V30 19581 H 1892.42 3.58876 -1.71618 0
M  V30 19582 H 1889.16 4.80932 -4.45404 0
M  V30 19583 H 1888.68 5.29769 -2.81256 0
M  V30 19584 H 1890.36 5.5291 -3.36005 0
M  V30 19585 N 1890.49 0.862526 1.31902 0
M  V30 19586 C 1891.72 0.484006 2.01159 0
M  V30 19587 C 1892.13 -0.92148 1.64785 0
M  V30 19588 O 1891.49 -1.60254 0.873216 0
M  V30 19589 C 1891.54 0.622709 3.56096 0
M  V30 19590 O 1891.26 1.97284 3.91166 0
M  V30 19591 C 1892.76 0.244225 4.42627 0
M  V30 19592 H 1889.98 0.189378 0.643721 0
M  V30 19593 H 1892.53 1.16164 1.68304 0
M  V30 19594 H 1890.68 -0.00728166 3.87399 0
M  V30 19595 H 1891.1 1.97525 4.85885 0
M  V30 19596 H 1892.57 0.392254 5.50605 0
M  V30 19597 H 1893.05 -0.816006 4.31553 0
M  V30 19598 H 1893.65 0.84961 4.16727 0
M  V30 19599 N 1891.97 -1.4484 0.62123 0
M  V30 19600 C 1893.25 -1.95528 0.0531511 0
M  V30 19601 C 1893.63 -1.56342 -1.41846 0
M  V30 19602 O 1892.97 -0.832621 -2.1279 0
M  V30 19603 C 1893.18 -3.47988 0.2656 0
M  V30 19604 C 1894.53 -4.24322 0.153573 0
M  V30 19605 O 1895.56 -3.55658 0.19644 0
M  V30 19606 O 1894.41 -5.46477 0.05015 0
M  V30 19607 H 1891.51 -0.826527 -0.0279665 0
M  V30 19608 H 1894.05 -1.54939 0.692243 0
M  V30 19609 H 1892.83 -3.69525 1.28713 0
M  V30 19610 H 1892.45 -3.955 -0.408105 0
M  V30 19611 N 1893.45 -0.361184 -1.53405 0
M  V30 19612 C 1894.72 0.286047 -1.93497 0
M  V30 19613 C 1895.1 1.66764 -1.29434 0
M  V30 19614 O 1894.45 2.23989 -0.451785 0
M  V30 19615 C 1894.66 0.340663 -3.47333 0
M  V30 19616 C 1896.01 0.58311 -4.20577 0
M  V30 19617 O 1897.03 0.422054 -3.53691 0
M  V30 19618 O 1895.89 0.896383 -5.39099 0
M  V30 19619 H 1892.99 0.17059 -0.809215 0
M  V30 19620 H 1895.53 -0.413648 -1.64581 0
M  V30 19621 H 1894.3 -0.628175 -3.86225 0
M  V30 19622 H 1893.93 1.08643 -3.82469 0
M  V30 19623 N 1894.92 1.57341 -0.0902386 0
M  V30 19624 C 1896.15 1.98934 0.586524 0
M  V30 19625 C 1896.57 0.968841 1.6123 0
M  V30 19626 O 1895.93 -0.0632868 1.8119 0
M  V30 19627 C 1895.98 3.39509 1.21516 0
M  V30 19628 O 1895.08 3.40203 2.331 0
M  V30 19629 H 1894.43 0.647009 0.14925 0
M  V30 19630 H 1896.96 2.03891 -0.170213 0
M  V30 19631 H 1896.97 3.77097 1.55762 0
M  V30 19632 H 1895.64 4.13308 0.463639 0
M  V30 19633 H 1894.22 3.14405 2.0051 0
M  V30 19634 N 1896.4 -0.183431 1.56529 0
M  V30 19635 C 1897.33 -1.22973 1.98494 0
M  V30 19636 C 1898.31 -1.46837 0.858653 0
M  V30 19637 O 1899.5 -1.58377 1.12385 0
M  V30 19638 C 1896.63 -2.57138 2.33446 0
M  V30 19639 C 1895.58 -2.47865 3.48922 0
M  V30 19640 C 1894.91 -3.8641 3.69582 0
M  V30 19641 C 1896.21 -1.99371 4.82751 0
M  V30 19642 H 1897.9 -0.880938 2.86147 0
M  V30 19643 H 1895.45 -0.422321 1.37668 0
M  V30 19644 H 1897.4 -3.30527 2.614 0
M  V30 19645 H 1896.13 -2.93781 1.42689 0
M  V30 19646 H 1894.78 -1.76932 3.21077 0
M  V30 19647 H 1894.43 -4.20426 2.76136 0
M  V30 19648 H 1894.13 -3.81077 4.47274 0
M  V30 19649 H 1895.66 -4.61403 3.99924 0
M  V30 19650 H 1897.07 -2.62526 5.0966 0
M  V30 19651 H 1895.47 -2.05014 5.63994 0
M  V30 19652 H 1896.54 -0.947442 4.75554 0
M  V30 19653 N 1897.88 -1.50992 -0.451564 0
M  V30 19654 C 1899.16 -1.53486 -1.2125 0
M  V30 19655 C 1899.54 -0.290809 -2.09087 0
M  V30 19656 O 1898.89 0.724859 -2.16698 0
M  V30 19657 C 1899.1 -2.84125 -2.02667 0
M  V30 19658 C 1900.44 -3.35535 -2.60195 0
M  V30 19659 O 1901.47 -2.85579 -2.12892 0
M  V30 19660 O 1900.33 -4.22667 -3.46432 0
M  V30 19661 H 1897.42 -0.616481 -0.551253 0
M  V30 19662 H 1899.97 -1.63296 -0.461792 0
M  V30 19663 H 1898.74 -3.66134 -1.38064 0
M  V30 19664 H 1898.36 -2.7741 -2.84832 0
M  V30 19665 N 1899.36 0.706069 -1.40899 0
M  V30 19666 C 1900.77 1.01535 -1.23137 0
M  V30 19667 C 1900.97 2.01181 -0.113293 0
M  V30 19668 O 1900.03 2.46966 0.525732 0
M  V30 19669 C 1901.34 1.54998 -2.57674 0
M  V30 19670 C 1902.89 1.66935 -2.64767 0
M  V30 19671 C 1903.37 2.23802 -3.99596 0
M  V30 19672 N 1904.86 2.31176 -4.01388 0
M  V30 19673 C 1905.59 2.76181 -5.02506 0
M  V30 19674 N 1905.09 3.20868 -6.14016 0
M  V30 19675 N 1906.88 2.7565 -4.89871 0
M  V30 19676 H 1899.03 0.045751 -2.12351 0
M  V30 19677 H 1901.3 0.0828835 -0.94437 0
M  V30 19678 H 1901 0.892393 -3.4019 0
M  V30 19679 H 1900.88 2.53377 -2.79428 0
M  V30 19680 H 1903.26 2.31808 -1.82617 0
M  V30 19681 H 1903.34 0.671301 -2.46834 0
M  V30 19682 H 1902.99 1.59547 -4.8219 0
M  V30 19683 H 1902.92 3.24339 -4.14864 0
M  V30 19684 H 1905.41 1.99627 -3.2087 0
M  V30 19685 H 1905.72 3.53803 -6.87054 0
M  V30 19686 H 1904.07 3.18803 -6.17568 0
M  V30 19687 H 1907.26 2.40081 -4.01844 0
M  V30 19688 H 1907.43 3.10407 -5.68816 0
M  V30 19689 N 1900.84 1.26553 0.939264 0
M  V30 19690 C 1901.78 1.08276 2.03826 0
M  V30 19691 C 1902.75 -0.0127713 1.66095 0
M  V30 19692 O 1903.94 0.147362 1.9023 0
M  V30 19693 C 1901.08 0.723819 3.37424 0
M  V30 19694 C 1900.19 1.8958 3.88179 0
M  V30 19695 C 1899.33 1.4798 5.10172 0
M  V30 19696 C 1898.37 2.61997 5.53194 0
M  V30 19697 N 1897.5 2.21064 6.66389 0
M  V30 19698 H 1902.34 2.02323 2.18791 0
M  V30 19699 H 1899.88 1.00732 1.07198 0
M  V30 19700 H 1901.84 0.496585 4.14234 0
M  V30 19701 H 1900.47 -0.179671 3.223 0
M  V30 19702 H 1899.52 2.23591 3.07752 0
M  V30 19703 H 1900.83 2.7515 4.16045 0
M  V30 19704 H 1899.99 1.21312 5.94448 0
M  V30 19705 H 1898.72 0.595025 4.84057 0
M  V30 19706 H 1897.73 2.89391 4.67475 0
M  V30 19707 H 1898.95 3.51076 5.81311 0
M  V30 19708 H 1896.9 1.35024 6.41954 0
M  V30 19709 H 1896.82 3.00177 6.93851 0
M  V30 19710 H 1898.09 1.97614 7.54035 0
M  V30 19711 N 1902.31 -1.14411 1.08387 0
M  V30 19712 C 1903.54 -1.89848 0.835015 0
M  V30 19713 C 1903.96 -1.78034 -0.607091 0
M  V30 19714 O 1903.32 -1.12039 -1.42538 0
M  V30 19715 C 1903.37 -3.37818 1.26141 0
M  V30 19716 O 1902.47 -4.10325 0.41322 0
M  V30 19717 H 1901.82 -0.590682 0.303299 0
M  V30 19718 H 1904.35 -1.44823 1.44525 0
M  V30 19719 H 1904.36 -3.88631 1.24218 0
M  V30 19720 H 1903.03 -3.45735 2.31172 0
M  V30 19721 H 1901.61 -3.69589 0.495854 0
M  V30 19722 N 1903.79 -0.869509 -1.31443 0
M  V30 19723 C 1905.2 -0.532842 -1.78935 0
M  V30 19724 C 1905.55 0.95022 -1.71654 0
M  V30 19725 O 1904.68 1.74189 -1.28402 0
M  V30 19726 C 1905.27 -0.960439 -3.24902 0
M  V30 19727 C 1903.83 -0.675436 -3.7029 0
M  V30 19728 C 1902.98 -1.15201 -2.52238 0
M  V30 19729 H 1905.93 -1.05527 -1.18531 0
M  V30 19730 H 1905.95 -0.282921 -3.79447 0
M  V30 19731 H 1905.46 -2.03986 -3.30168 0
M  V30 19732 H 1903.57 0.392647 -3.70525 0
M  V30 19733 H 1903.68 -1.25214 -4.62448 0
M  V30 19734 H 1902.04 -0.571786 -2.48199 0
M  V30 19735 H 1902.83 -2.23885 -2.60251 0
M  V30 19736 N 1905.27 1.44508 -0.628902 0
M  V30 19737 C 1906.23 2.291 0.0676501 0
M  V30 19738 C 1907.23 1.40921 0.77447 0
M  V30 19739 O 1908.42 1.62816 0.619397 0
M  V30 19740 C 1905.56 3.22448 1.10634 0
M  V30 19741 H 1906.75 2.92174 -0.676344 0
M  V30 19742 H 1904.3 1.51384 -0.388933 0
M  V30 19743 H 1905.04 2.64219 1.88039 0
M  V30 19744 H 1904.82 3.87428 0.603465 0
M  V30 19745 H 1906.31 3.86 1.59354 0
M  V30 19746 N 1906.75 0.369315 1.53212 0
M  V30 19747 C 1907.97 -0.222451 2.06204 0
M  V30 19748 C 1908.4 -1.41373 1.24077 0
M  V30 19749 O 1907.76 -1.79415 0.260767 0
M  V30 19750 C 1907.81 -0.590386 3.55734 0
M  V30 19751 O 1906.91 -1.68711 3.76311 0
M  V30 19752 H 1906.25 -0.0315041 0.663252 0
M  V30 19753 H 1908.78 0.531 1.97589 0
M  V30 19754 H 1908.79 -0.860345 3.98826 0
M  V30 19755 H 1907.47 0.28067 4.14952 0
M  V30 19756 H 1906.04 -1.41242 3.45116 0
M  V30 19757 N 1908.23 -1.57291 0.0985816 0
M  V30 19758 C 1909.45 -1.99242 -0.575966 0
M  V30 19759 C 1909.88 -0.977378 -1.60714 0
M  V30 19760 O 1909.24 0.053677 -1.81221 0
M  V30 19761 C 1909.28 -3.40148 -1.19714 0
M  V30 19762 O 1908.39 -3.41434 -2.31293 0
M  V30 19763 H 1907.73 -0.647791 -0.145816 0
M  V30 19764 H 1910.26 -2.03798 0.181023 0
M  V30 19765 H 1910.27 -3.77918 -1.5376 0
M  V30 19766 H 1908.94 -4.13548 -0.441714 0
M  V30 19767 H 1907.52 -3.15464 -1.98839 0
M  V30 19768 N 1909.71 0.175127 -1.56624 0
M  V30 19769 C 1910.95 0.892368 -1.81777 0
M  V30 19770 C 1911.28 1.8241 -0.675051 0
M  V30 19771 O 1910.54 1.9276 0.337944 0
M  V30 19772 C 1910.83 1.72397 -3.13072 0
M  V30 19773 C 1910.5 0.941494 -4.40961 0
M  V30 19774 C 1909.16 0.725524 -4.75699 0
M  V30 19775 C 1911.51 0.392358 -5.19721 0
M  V30 19776 C 1908.84 -0.0507428 -5.86678 0
M  V30 19777 C 1911.19 -0.370801 -6.31512 0
M  V30 19778 C 1909.86 -0.597606 -6.64819 0
M  V30 19779 H 1909.13 0.326541 -0.665171 0
M  V30 19780 H 1911.78 0.157524 -1.90851 0
M  V30 19781 H 1910.08 2.52809 -2.99324 0
M  V30 19782 H 1911.78 2.28189 -3.29743 0
M  V30 19783 H 1908.37 1.11986 -4.13711 0
M  V30 19784 H 1912.55 0.546561 -4.93281 0
M  V30 19785 H 1907.81 -0.236241 -6.10943 0
M  V30 19786 H 1911.98 -0.803585 -6.91748 0
M  V30 19787 H 1909.61 -1.201 -7.50653 0
M  V30 19788 N 1911.18 1.5123 0.44355 0
M  V30 19789 C 1912.41 1.67671 1.2207 0
M  V30 19790 C 1912.83 0.370934 1.84406 0
M  V30 19791 O 1912.19 -0.668265 1.68535 0
M  V30 19792 C 1912.24 2.7896 2.28503 0
M  V30 19793 O 1911.34 2.4213 3.33837 0
M  V30 19794 H 1910.68 0.559275 0.357921 0
M  V30 19795 H 1913.21 1.9776 0.524592 0
M  V30 19796 H 1913.22 3.0286 2.73386 0
M  V30 19797 H 1911.9 3.73716 1.82509 0
M  V30 19798 H 1910.48 2.28779 2.94473 0
M  V30 19799 N 1912.66 -0.698586 1.41271 0
M  V30 19800 C 1913.61 -1.80459 1.3935 0
M  V30 19801 C 1914.6 -1.58647 0.268341 0
M  V30 19802 O 1915.79 -1.6953 0.508777 0
M  V30 19803 C 1912.92 -3.18739 1.27515 0
M  V30 19804 C 1912 -3.46257 2.44881 0
M  V30 19805 N 1912.39 -3.44491 3.70351 0
M  V30 19806 C 1910.69 -3.76792 2.38629 0
M  V30 19807 C 1911.39 -3.70829 4.48175 0
M  V30 19808 N 1910.37 -3.90423 3.78247 0
M  V30 19809 H 1914.17 -1.77452 2.34282 0
M  V30 19810 H 1911.68 -0.898448 1.35284 0
M  V30 19811 H 1913.68 -3.97963 1.24221 0
M  V30 19812 H 1912.34 -3.2296 0.335652 0
M  V30 19813 H 1913.35 -3.24942 4.03278 0
M  V30 19814 H 1910.03 -3.88402 1.53136 0
M  V30 19815 H 1911.42 -3.75625 5.57096 0
M  V30 19816 N 1914.14 -1.27049 -0.93254 0
M  V30 19817 C 1915.36 -1.16011 -1.71919 0
M  V30 19818 C 1915.79 0.279951 -1.86005 0
M  V30 19819 O 1915.15 1.20279 -1.35657 0
M  V30 19820 C 1915.2 -1.84349 -3.09916 0
M  V30 19821 O 1914.3 -1.13816 -3.96383 0
M  V30 19822 H 1913.64 -0.403752 -0.527144 0
M  V30 19823 H 1916.17 -1.6803 -1.16736 0
M  V30 19824 H 1916.18 -1.91516 -3.60258 0
M  V30 19825 H 1914.86 -2.89109 -2.9898 0
M  V30 19826 H 1913.43 -1.14684 -3.54827 0
M  V30 19827 N 1915.62 1.13835 -1.08993 0
M  V30 19828 C 1916.85 1.88861 -0.844923 0
M  V30 19829 C 1917.26 1.78897 0.603444 0
M  V30 19830 O 1916.62 1.15246 1.41508 0
M  V30 19831 C 1916.67 3.38622 -1.26559 0
M  V30 19832 O 1916.39 3.48321 -2.65714 0
M  V30 19833 C 1917.89 4.30629 -1.05232 0
M  V30 19834 H 1915.11 0.598038 -0.304288 0
M  V30 19835 H 1917.65 1.44129 -1.45076 0
M  V30 19836 H 1915.81 3.80954 -0.703737 0
M  V30 19837 H 1916.22 4.41387 -2.83333 0
M  V30 19838 H 1917.7 5.34057 -1.39598 0
M  V30 19839 H 1918.17 4.39199 0.0102308 0
M  V30 19840 H 1918.78 3.9406 -1.5999 0
M  V30 19841 N 1917.1 0.876467 1.3098 0
M  V30 19842 C 1918.51 0.542323 1.7865 0
M  V30 19843 C 1918.86 -0.941103 1.72156 0
M  V30 19844 O 1917.98 -1.73506 1.29324 0
M  V30 19845 C 1918.58 0.977656 3.24388 0
M  V30 19846 C 1917.14 0.695064 3.69927 0
M  V30 19847 C 1916.28 1.16537 2.51624 0
M  V30 19848 H 1919.23 1.06154 1.1797 0
M  V30 19849 H 1919.26 0.30304 3.79291 0
M  V30 19850 H 1918.77 2.05735 3.29082 0
M  V30 19851 H 1916.87 -0.372992 3.70728 0
M  V30 19852 H 1916.98 1.27665 4.61778 0
M  V30 19853 H 1915.35 0.584941 2.47892 0
M  V30 19854 H 1916.13 2.25262 2.5906 0
M  V30 19855 N 1918.57 -1.44173 0.636557 0
M  V30 19856 C 1919.8 -2.06866 0.148751 0
M  V30 19857 C 1920.22 -1.47295 -1.16987 0
M  V30 19858 O 1919.58 -0.576466 -1.71891 0
M  V30 19859 C 1919.63 -3.60561 0.0533064 0
M  V30 19860 O 1918.73 -4.00361 -0.989163 0
M  V30 19861 H 1918.07 -0.658243 0.087251 0
M  V30 19862 H 1920.6 -1.84956 0.874772 0
M  V30 19863 H 1920.61 -4.07775 -0.135499 0
M  V30 19864 H 1919.29 -4.033 1.01599 0
M  V30 19865 H 1917.87 -3.64769 -0.77449 0
M  V30 19866 N 1920.05 -0.377435 -1.53014 0
M  V30 19867 C 1921.3 0.208118 -2.01026 0
M  V30 19868 C 1921.62 1.48307 -1.26609 0
M  V30 19869 O 1920.89 1.92125 -0.382732 0
M  V30 19870 H 1919.47 0.0798957 -0.742715 0
M  V30 19871 H 1922.13 -0.506396 -1.88206 0
M  V30 19872 H 1921.23 0.426737 -3.09169 0
M  V30 19873 N 1921.53 1.57237 -0.106922 0
M  V30 19874 C 1922.48 2.15912 0.865145 0
M  V30 19875 C 1923.47 1.1051 1.2839 0
M  V30 19876 O 1924.68 1.28834 1.25705 0
M  V30 19877 H 1921.05 0.690837 0.297065 0
M  V30 19878 H 1923.02 2.96391 0.345677 0
M  V30 19879 C 1921.77 2.76355 2.11005 0
M  V30 19880 H 1921.1 3.57152 1.79674 0
M  V30 19881 H 1922.54 3.20963 2.77053 0
M  V30 19882 C 1921 1.72834 2.89188 0
M  V30 19883 O 1921.53 1.1744 3.84149 0
M  V30 19884 N 1919.73 1.43053 2.52951 0
M  V30 19885 H 1919.28 1.88289 1.75798 0
M  V30 19886 H 1919.24 0.740287 3.0556 0
M  V30 19887 N 1923.01 -0.166818 1.56715 0
M  V30 19888 C 1924.26 -0.880972 1.81888 0
M  V30 19889 C 1924.58 -1.82586 0.68465 0
M  V30 19890 O 1923.85 -1.93663 -0.295173 0
M  V30 19891 H 1922.43 -0.32831 0.670985 0
M  V30 19892 H 1925.09 -0.165558 1.94196 0
M  V30 19893 H 1924.19 -1.45517 2.761 0
M  V30 19894 N 1924.49 -1.51463 -0.435524 0
M  V30 19895 C 1925.43 -1.72908 -1.52877 0
M  V30 19896 C 1926.4 -0.570809 -1.55984 0
M  V30 19897 O 1927.59 -0.805443 -1.72966 0
M  V30 19898 C 1924.73 -1.8617 -2.90576 0
M  V30 19899 C 1923.84 -3.13726 -2.96985 0
M  V30 19900 C 1922.98 -3.17573 -4.25818 0
M  V30 19901 C 1922.02 -4.39437 -4.26101 0
M  V30 19902 N 1921.15 -4.40823 -5.46461 0
M  V30 19903 H 1925.99 -2.66226 -1.33894 0
M  V30 19904 H 1923.53 -1.3194 -0.650399 0
M  V30 19905 H 1925.49 -1.91841 -3.70476 0
M  V30 19906 H 1924.12 -0.962585 -3.08114 0
M  V30 19907 H 1923.17 -3.17356 -2.09737 0
M  V30 19908 H 1924.48 -4.03634 -2.93055 0
M  V30 19909 H 1923.64 -3.2217 -5.14093 0
M  V30 19910 H 1922.37 -2.25558 -4.32406 0
M  V30 19911 H 1921.38 -4.35014 -3.36219 0
M  V30 19912 H 1922.6 -5.32718 -4.21175 0
M  V30 19913 H 1920.55 -3.51679 -5.53767 0
M  V30 19914 H 1920.47 -5.24541 -5.44419 0
M  V30 19915 H 1921.74 -4.49615 -6.36763 0
M  V30 19916 N 1925.96 0.691085 -1.4164 0
M  V30 19917 C 1927.19 1.47764 -1.44393 0
M  V30 19918 C 1927.6 1.89137 -0.0489239 0
M  V30 19919 O 1926.95 1.57642 0.943111 0
M  V30 19920 C 1927.01 2.76837 -2.29351 0
M  V30 19921 C 1926.67 2.5764 -3.77453 0
M  V30 19922 C 1927.67 2.23295 -4.69505 0
M  V30 19923 C 1925.35 2.73141 -4.21544 0
M  V30 19924 C 1927.35 2.04696 -6.03638 0
M  V30 19925 C 1925.03 2.54158 -5.5574 0
M  V30 19926 C 1926.03 2.19987 -6.46603 0
M  V30 19927 O 1925.72 2.01173 -7.78322 0
M  V30 19928 H 1925.45 0.461744 -0.493729 0
M  V30 19929 H 1928.01 0.857998 -1.86621 0
M  V30 19930 H 1926.24 3.41223 -1.81944 0
M  V30 19931 H 1927.93 3.38659 -2.23752 0
M  V30 19932 H 1928.69 2.1093 -4.36731 0
M  V30 19933 H 1924.57 2.98721 -3.51122 0
M  V30 19934 H 1928.11 1.77947 -6.74523 0
M  V30 19935 H 1924.01 2.66115 -5.88093 0
M  V30 19936 H 1924.78 2.15901 -7.89512 0
M  V30 19937 N 1927.44 1.27542 0.925789 0
M  V30 19938 C 1928.37 1.12952 2.04363 0
M  V30 19939 C 1929.35 0.0304761 1.70073 0
M  V30 19940 O 1930.54 0.205307 1.93112 0
M  V30 19941 C 1927.67 0.777954 3.38475 0
M  V30 19942 C 1926.62 1.83044 3.86883 0
M  V30 19943 C 1925.95 1.3328 5.17823 0
M  V30 19944 C 1927.25 3.23488 4.10065 0
M  V30 19945 H 1928.94 2.06462 2.16827 0
M  V30 19946 H 1926.49 0.994046 1.04186 0
M  V30 19947 H 1928.44 0.662702 4.16156 0
M  V30 19948 H 1927.17 -0.192851 3.2603 0
M  V30 19949 H 1925.82 1.93463 3.11396 0
M  V30 19950 H 1925.47 0.351399 5.01771 0
M  V30 19951 H 1925.17 2.03648 5.51182 0
M  V30 19952 H 1926.7 1.23053 5.98072 0
M  V30 19953 H 1928.11 3.16058 4.7831 0
M  V30 19954 H 1926.51 3.91583 4.54734 0
M  V30 19955 H 1927.58 3.68399 3.15293 0
M  V30 19956 N 1928.92 -1.13255 1.09595 0
M  V30 19957 C 1930.33 -1.66118 0.852147 0
M  V30 19958 C 1930.68 -1.86177 -0.61909 0
M  V30 19959 O 1929.81 -1.58186 -1.47669 0
M  V30 19960 C 1930.4 -3.0176 1.54034 0
M  V30 19961 C 1928.96 -3.51608 1.34347 0
M  V30 19962 C 1928.11 -2.26815 1.59531 0
M  V30 19963 H 1931.06 -0.971539 1.25486 0
M  V30 19964 H 1931.08 -3.67812 0.974418 0
M  V30 19965 H 1930.59 -2.87129 2.6111 0
M  V30 19966 H 1928.69 -3.71439 0.293951 0
M  V30 19967 H 1928.81 -4.31618 2.07949 0
M  V30 19968 H 1927.17 -2.33492 1.01753 0
M  V30 19969 H 1927.95 -2.14748 2.6784 0
M  V30 19970 N 1930.4 -0.883401 -1.30514 0
M  V30 19971 C 1931.65 -0.500062 -1.95816 0
M  V30 19972 C 1931.97 0.953596 -1.70093 0
M  V30 19973 O 1931.24 1.67027 -1.02365 0
M  V30 19974 H 1929.82 -0.181936 -0.724506 0
M  V30 19975 H 1932.48 -1.12613 -1.59073 0
M  V30 19976 H 1931.58 -0.668998 -3.04846 0
M  V30 19977 N 1931.88 1.43833 -0.644194 0
M  V30 19978 C 1932.84 2.29159 0.0433471 0
M  V30 19979 C 1933.84 1.41734 0.75948 0
M  V30 19980 O 1935.03 1.63464 0.602093 0
M  V30 19981 C 1932.16 3.23604 1.07208 0
M  V30 19982 H 1933.35 2.9144 -0.707295 0
M  V30 19983 H 1930.91 1.50963 -0.404968 0
M  V30 19984 H 1931.64 2.66199 1.85226 0
M  V30 19985 H 1931.43 3.88047 0.562339 0
M  V30 19986 H 1932.92 3.87669 1.55251 0
M  V30 19987 N 1933.35 0.385544 1.52811 0
M  V30 19988 C 1934.6 -0.19907 2.00715 0
M  V30 19989 C 1934.92 -1.48216 1.27638 0
M  V30 19990 O 1936.12 -2.14659 1.66234 0
M  V30 19991 C 1934.58 -0.405311 3.5761 0
M  V30 19992 C 1934.19 0.864306 4.39584 0
M  V30 19993 C 1935.93 -0.946495 4.13814 0
M  V30 19994 C 1933.84 0.626551 5.88072 0
M  V30 19995 H 1932.77 -0.0781676 0.749937 0
M  V30 19996 H 1935.42 0.507365 1.76346 0
M  V30 19997 H 1933.8 -1.1735 3.78213 0
M  V30 19998 H 1934.97 1.63683 4.30749 0
M  V30 19999 H 1933.29 1.33017 3.94583 0
M  V30 20000 H 1935.89 -1.14002 5.22406 0
M  V30 20001 H 1936.23 -1.91447 3.69667 0
M  V30 20002 H 1936.76 -0.23797 3.97088 0
M  V30 20003 H 1933.5 1.56542 6.36534 0
M  V30 20004 H 1933.02 -0.107102 5.99704 0
M  V30 20005 H 1934.7 0.259654 6.46479 0
M  V30 20006 N 1934.83 -1.57178 0.115259 0
M  V30 20007 C 1936.06 -1.99415 -0.55147 0
M  V30 20008 C 1936.48 -0.994862 -1.60462 0
M  V30 20009 O 1935.83 0.0127831 -1.82496 0
M  V30 20010 C 1935.88 -3.41665 -1.18099 0
M  V30 20011 O 1935.6 -4.3777 -0.169944 0
M  V30 20012 C 1937.11 -3.99014 -1.9314 0
M  V30 20013 H 1934.33 -0.654856 -0.146302 0
M  V30 20014 H 1936.87 -2.03515 0.200495 0
M  V30 20015 H 1935.02 -3.38516 -1.88376 0
M  V30 20016 H 1935.44 -5.20741 -0.626853 0
M  V30 20017 H 1936.91 -5.00639 -2.32519 0
M  V30 20018 H 1937.39 -3.37947 -2.80515 0
M  V30 20019 H 1938 -4.05697 -1.27634 0
M  V30 20020 N 1936.31 0.158505 -1.56801 0
M  V30 20021 C 1937.54 0.892291 -1.87224 0
M  V30 20022 C 1937.96 1.74468 -0.703029 0
M  V30 20023 O 1937.32 1.77936 0.347649 0
M  V30 20024 C 1937.37 1.73433 -3.16154 0
M  V30 20025 O 1936.47 2.83736 -2.99279 0
M  V30 20026 H 1935.81 0.249214 -0.615458 0
M  V30 20027 H 1938.34 0.152785 -2.04029 0
M  V30 20028 H 1938.35 2.13168 -3.47884 0
M  V30 20029 H 1937.03 1.10831 -4.00861 0
M  V30 20030 H 1935.6 2.47491 -2.78931 0
M  V30 20031 N 1937.79 1.51692 0.427485 0
M  V30 20032 C 1939.2 1.57214 1.007 0
M  V30 20033 C 1939.55 0.401527 1.92047 0
M  V30 20034 O 1938.68 -0.480464 2.10999 0
M  V30 20035 C 1939.27 2.84927 1.83309 0
M  V30 20036 C 1937.83 2.92989 2.36294 0
M  V30 20037 C 1936.98 2.51977 1.15772 0
M  V30 20038 H 1939.93 1.57326 0.208386 0
M  V30 20039 H 1939.95 2.69245 2.68863 0
M  V30 20040 H 1939.46 3.70108 1.16799 0
M  V30 20041 H 1937.56 2.1226 3.06229 0
M  V30 20042 H 1937.68 3.9685 2.68416 0
M  V30 20043 H 1936.04 2.054 1.50608 0
M  V30 20044 H 1936.82 3.39512 0.508568 0
M  V30 20045 N 1939.27 -0.683564 1.42004 0
M  V30 20046 C 1940.54 -1.43894 1.32491 0
M  V30 20047 C 1940.92 -2.11058 -0.0418701 0
M  V30 20048 O 1940.27 -2.0259 -1.05686 0
M  V30 20049 C 1940.48 -2.44856 2.48689 0
M  V30 20050 C 1941.83 -3.09758 2.90405 0
M  V30 20051 O 1942.85 -2.55182 2.48516 0
M  V30 20052 O 1941.71 -4.08633 3.6288 0
M  V30 20053 H 1938.81 -0.641404 0.522044 0
M  V30 20054 H 1941.35 -0.713027 1.53994 0
M  V30 20055 H 1940.13 -1.93964 3.39843 0
M  V30 20056 H 1939.75 -3.24941 2.29127 0
M  V30 20057 N 1940.75 -1.28031 -0.919012 0
M  V30 20058 C 1941.66 -1.13341 -2.05404 0
M  V30 20059 C 1942.67 -0.0612715 -1.73892 0
M  V30 20060 O 1943.85 -0.26951 -1.99589 0
M  V30 20061 C 1940.91 -0.791143 -3.37553 0
M  V30 20062 C 1939.97 -1.94509 -3.82707 0
M  V30 20063 C 1939.21 -1.61905 -5.08549 0
M  V30 20064 O 1939.43 -0.530962 -5.67923 0
M  V30 20065 O 1938.36 -2.46102 -5.49288 0
M  V30 20066 H 1942.19 -2.08613 -2.20713 0
M  V30 20067 H 1939.77 -1.073 -1.03957 0
M  V30 20068 H 1941.66 -0.613981 -4.16903 0
M  V30 20069 H 1940.33 0.131966 -3.23431 0
M  V30 20070 H 1939.24 -2.17737 -3.04206 0
M  V30 20071 H 1940.57 -2.84871 -4.01384 0
M  V30 20072 N 1942.22 1.12672 -1.10194 0
M  V30 20073 C 1943.17 2.16406 -0.717811 0
M  V30 20074 C 1944.16 1.58588 0.271775 0
M  V30 20075 O 1945.35 1.76815 0.0809013 0
M  V30 20076 C 1942.48 3.42979 -0.148524 0
M  V30 20077 C 1941.56 4.07785 -1.165 0
M  V30 20078 N 1941.96 4.47639 -2.35485 0
M  V30 20079 C 1940.25 4.3453 -1.00495 0
M  V30 20080 C 1940.95 4.98247 -3.00208 0
M  V30 20081 N 1939.93 4.93596 -2.27736 0
M  V30 20082 H 1943.73 2.44983 -1.62359 0
M  V30 20083 H 1941.25 1.29551 -0.979299 0
M  V30 20084 H 1943.24 4.16649 0.144731 0
M  V30 20085 H 1941.9 3.15872 0.752008 0
M  V30 20086 H 1942.91 4.40088 -2.73026 0
M  V30 20087 H 1939.59 4.17194 -0.159768 0
M  V30 20088 H 1940.98 5.38817 -4.01405 0
M  V30 20089 N 1943.7 0.89031 1.30043 0
M  V30 20090 C 1944.95 0.507478 1.95212 0
M  V30 20091 C 1945.26 -0.949179 1.71026 0
M  V30 20092 O 1946.47 -1.4391 2.30222 0
M  V30 20093 C 1944.93 0.856657 3.49556 0
M  V30 20094 C 1944.53 2.33145 3.82554 0
M  V30 20095 C 1946.28 0.543281 4.21009 0
M  V30 20096 C 1944.18 2.62198 5.301 0
M  V30 20097 H 1943.11 0.186056 0.730684 0
M  V30 20098 H 1945.77 1.08602 1.47912 0
M  V30 20099 H 1944.15 0.207146 3.95458 0
M  V30 20100 H 1945.32 3.02572 3.47544 0
M  V30 20101 H 1943.64 2.61289 3.24217 0
M  V30 20102 H 1946.23 0.737312 5.29592 0
M  V30 20103 H 1946.58 -0.517644 4.13069 0
M  V30 20104 H 1947.11 1.15022 3.80808 0
M  V30 20105 H 1943.85 3.67052 5.43096 0
M  V30 20106 H 1943.37 1.97385 5.66392 0
M  V30 20107 H 1945.05 2.47975 5.97593 0
M  V30 20108 N 1945.18 -1.43489 0.651812 0
M  V30 20109 C 1946.11 -2.33484 -0.0271093 0
M  V30 20110 C 1947.09 -1.4939 -0.813427 0
M  V30 20111 O 1948.28 -1.78058 -0.775186 0
M  V30 20112 C 1945.41 -3.32737 -0.995143 0
M  V30 20113 C 1944.36 -4.26809 -0.319036 0
M  V30 20114 C 1943.69 -5.1609 -1.39842 0
M  V30 20115 C 1944.99 -5.16326 0.787692 0
M  V30 20116 H 1946.68 -2.90503 0.724441 0
M  V30 20117 H 1944.23 -1.39686 0.349826 0
M  V30 20118 H 1946.18 -3.94593 -1.479 0
M  V30 20119 H 1944.9 -2.73972 -1.77784 0
M  V30 20120 H 1943.56 -3.66316 0.144366 0
M  V30 20121 H 1943.21 -4.53664 -2.17251 0
M  V30 20122 H 1942.91 -5.79848 -0.951292 0
M  V30 20123 H 1944.43 -5.80819 -1.88367 0
M  V30 20124 H 1945.85 -5.71999 0.386053 0
M  V30 20125 H 1944.24 -5.88798 1.1592 0
M  V30 20126 H 1945.31 -4.56099 1.64626 0
M  V30 20127 N 1946.66 -0.393643 -1.52605 0
M  V30 20128 C 1947.89 0.1871 -2.06052 0
M  V30 20129 C 1948.3 1.40154 -1.26501 0
M  V30 20130 O 1947.66 1.798 -0.31279 0
M  V30 20131 C 1947.71 0.552918 -3.57246 0
M  V30 20132 O 1947.43 -0.613274 -4.33786 0
M  V30 20133 C 1948.93 1.18906 -4.27055 0
M  V30 20134 H 1946.15 0.0272042 -0.670448 0
M  V30 20135 H 1948.69 -0.560126 -1.9668 0
M  V30 20136 H 1946.85 1.25004 -3.66678 0
M  V30 20137 H 1947.26 -0.311611 -5.23574 0
M  V30 20138 H 1948.74 1.39535 -5.34073 0
M  V30 20139 H 1949.21 2.15768 -3.82545 0
M  V30 20140 H 1949.82 0.532579 -4.21952 0
M  V30 20141 N 1948.14 1.57115 -0.123593 0
M  V30 20142 C 1949.55 1.82342 0.401051 0
M  V30 20143 C 1949.9 1.04102 1.66304 0
M  V30 20144 O 1949.02 0.279024 2.14594 0
M  V30 20145 C 1949.62 3.30745 0.734394 0
M  V30 20146 C 1948.18 3.56636 1.20365 0
M  V30 20147 C 1947.32 2.76468 0.214686 0
M  V30 20148 H 1950.27 1.54823 -0.348657 0
M  V30 20149 H 1950.3 3.45624 1.59137 0
M  V30 20150 H 1949.81 3.87662 -0.184288 0
M  V30 20151 H 1947.91 3.05081 2.13908 0
M  V30 20152 H 1948.02 4.65197 1.1458 0
M  V30 20153 H 1946.39 2.44816 0.702648 0
M  V30 20154 H 1947.17 3.36146 -0.697174 0
M  V30 20155 N 1949.61 -0.150187 1.56883 0
M  V30 20156 C 1950.89 -0.891842 1.74085 0
M  V30 20157 C 1951.27 -1.99479 0.690751 0
M  V30 20158 O 1950.62 -2.26641 -0.290877 0
M  V30 20159 C 1950.83 -1.43722 3.18033 0
M  V30 20160 C 1952.18 -1.90188 3.79623 0
M  V30 20161 O 1953.2 -1.53471 3.21442 0
M  V30 20162 O 1952.06 -2.57892 4.81824 0
M  V30 20163 H 1949.15 -0.421241 0.711678 0
M  V30 20164 H 1951.7 -0.136362 1.69151 0
M  V30 20165 H 1950.47 -0.644422 3.85957 0
M  V30 20166 H 1950.09 -2.2563 3.27379 0
M  V30 20167 N 1951.09 -1.51916 -0.419434 0
M  V30 20168 C 1952.32 -1.69592 -1.19387 0
M  V30 20169 C 1952.74 -0.400225 -1.83793 0
M  V30 20170 O 1952.1 0.641368 -1.69576 0
M  V30 20171 C 1952.15 -2.8256 -2.24036 0
M  V30 20172 O 1951.25 -2.4741 -3.29942 0
M  V30 20173 H 1950.59 -0.564898 -0.348978 0
M  V30 20174 H 1953.12 -1.9857 -0.493064 0
M  V30 20175 H 1953.13 -3.07171 -2.68533 0
M  V30 20176 H 1951.81 -3.76572 -1.7654 0
M  V30 20177 H 1950.39 -2.33435 -2.90796 0
M  V30 20178 N 1952.57 0.676023 -1.42365 0
M  V30 20179 C 1953.8 1.46937 -1.46371 0
M  V30 20180 C 1954.22 1.87946 -0.076099 0
M  V30 20181 O 1953.58 1.55917 0.925172 0
M  V30 20182 C 1953.63 2.69558 -2.39523 0
M  V30 20183 O 1952.73 3.67782 -1.86575 0
M  V30 20184 H 1952.07 0.441478 -0.495977 0
M  V30 20185 H 1954.6 0.829284 -1.8704 0
M  V30 20186 H 1954.61 3.17642 -2.56061 0
M  V30 20187 H 1953.29 2.39049 -3.40336 0
M  V30 20188 H 1951.86 3.26808 -1.79585 0
M  V30 20189 N 1954.05 1.28517 0.912209 0
M  V30 20190 C 1955.3 1.15761 1.6615 0
M  V30 20191 C 1955.62 -0.293495 1.92273 0
M  V30 20192 O 1954.88 -1.22975 1.52235 0
M  V30 20193 C 1955.18 1.90307 3.02519 0
M  V30 20194 C 1954.84 3.40095 2.96051 0
M  V30 20195 C 1953.51 3.80948 2.93994 0
M  V30 20196 C 1955.86 4.35601 2.86185 0
M  V30 20197 C 1953.19 5.15643 2.79873 0
M  V30 20198 C 1955.54 5.70371 2.73604 0
M  V30 20199 C 1954.2 6.10497 2.69906 0
M  V30 20200 H 1953.47 0.423598 0.607985 0
M  V30 20201 H 1956.12 1.59309 1.06268 0
M  V30 20202 H 1954.42 1.39312 3.66196 0
M  V30 20203 H 1956.12 1.77852 3.59402 0
M  V30 20204 H 1952.71 3.07615 2.98447 0
M  V30 20205 H 1956.89 4.05 2.8686 0
M  V30 20206 H 1952.15 5.45858 2.75407 0
M  V30 20207 H 1956.32 6.44035 2.64939 0
M  V30 20208 H 1953.95 7.1482 2.58722 0
M  V30 20209 N 1955.53 -1.12086 1.1079 0
M  V30 20210 C 1956.75 -1.88034 0.875097 0
M  V30 20211 C 1957.18 -1.79281 -0.569191 0
M  V30 20212 O 1956.53 -1.15037 -1.40129 0
M  V30 20213 C 1956.58 -3.35066 1.33278 0
M  V30 20214 O 1955.69 -4.09356 0.500163 0
M  V30 20215 H 1955.03 -0.584116 0.31576 0
M  V30 20216 H 1957.56 -1.41725 1.47564 0
M  V30 20217 H 1957.57 -3.85908 1.32434 0
M  V30 20218 H 1956.24 -3.40753 2.38453 0
M  V30 20219 H 1954.82 -3.68454 0.574137 0
M  V30 20220 N 1957 -0.897194 -1.29569 0
M  V30 20221 C 1957.95 -0.371435 -2.27792 0
M  V30 20222 C 1958.92 0.545087 -1.56901 0
M  V30 20223 O 1960.11 0.47087 -1.84899 0
M  V30 20224 C 1957.25 0.397236 -3.42806 0
M  V30 20225 C 1956.36 -0.549895 -4.28486 0
M  V30 20226 C 1955.49 0.23558 -5.30677 0
M  V30 20227 C 1954.53 -0.706236 -6.08012 0
M  V30 20228 N 1953.67 0.0446763 -7.02086 0
M  V30 20229 H 1958.51 -1.21414 -2.72145 0
M  V30 20230 H 1956.05 -0.610055 -1.33853 0
M  V30 20231 H 1958.01 0.858933 -4.08262 0
M  V30 20232 H 1956.64 1.20441 -2.99489 0
M  V30 20233 H 1955.69 -1.13011 -3.63226 0
M  V30 20234 H 1957 -1.27092 -4.82337 0
M  V30 20235 H 1956.15 0.758588 -6.01939 0
M  V30 20236 H 1954.89 0.989757 -4.77551 0
M  V30 20237 H 1953.9 -1.24077 -5.35617 0
M  V30 20238 H 1955.12 -1.4597 -6.63227 0
M  V30 20239 H 1953.07 0.781165 -6.51332 0
M  V30 20240 H 1952.99 -0.616488 -7.53482 0
M  V30 20241 H 1954.25 0.548029 -7.77571 0
M  V30 20242 N 1958.48 1.43142 -0.659413 0
M  V30 20243 C 1959.71 2.06603 -0.181642 0
M  V30 20244 C 1960.13 1.49137 1.14629 0
M  V30 20245 O 1959.49 0.603739 1.70952 0
M  V30 20246 C 1959.54 3.6043 -0.110662 0
M  V30 20247 O 1958.64 4.01884 0.925344 0
M  V30 20248 H 1957.98 0.656771 -0.097712 0
M  V30 20249 H 1960.51 1.83541 -0.904086 0
M  V30 20250 H 1960.52 4.07939 0.0706089 0
M  V30 20251 H 1959.2 4.01632 -1.08002 0
M  V30 20252 H 1957.78 3.65954 0.716361 0
M  V30 20253 N 1959.96 0.40173 1.52394 0
M  V30 20254 C 1961.37 -0.0695308 1.8657 0
M  V30 20255 C 1961.72 -1.4508 1.32084 0
M  V30 20256 O 1960.85 -2.06181 0.657149 0
M  V30 20257 C 1961.44 -0.132947 3.38539 0
M  V30 20258 C 1960 -0.548527 3.72382 0
M  V30 20259 C 1959.15 0.281664 2.75866 0
M  V30 20260 H 1962.1 0.619102 1.46126 0
M  V30 20261 H 1962.12 -0.949667 3.68458 0
M  V30 20262 H 1961.63 0.872493 3.78166 0
M  V30 20263 H 1959.73 -1.56088 3.3833 0
M  V30 20264 H 1959.85 -0.29805 4.78172 0
M  V30 20265 H 1958.21 -0.254911 2.53421 0
M  V30 20266 H 1958.99 1.28531 3.18331 0
M  V30 20267 N 1961.44 -1.57047 0.131923 0
M  V30 20268 C 1962.35 -2.19545 -0.826862 0
M  V30 20269 C 1963.36 -1.17532 -1.28305 0
M  V30 20270 O 1964.54 -1.50052 -1.34337 0
M  V30 20271 C 1961.61 -2.79284 -2.0543 0
M  V30 20272 C 1960.67 -3.96375 -1.64879 0
M  V30 20273 C 1959.9 -4.53256 -2.81771 0
M  V30 20274 O 1960.12 -4.09022 -3.97564 0
M  V30 20275 O 1959.06 -5.43748 -2.58111 0
M  V30 20276 H 1962.88 -3.01957 -0.324926 0
M  V30 20277 H 1960.47 -1.49102 -0.0943495 0
M  V30 20278 H 1962.35 -3.17312 -2.77292 0
M  V30 20279 H 1961.02 -1.99895 -2.54605 0
M  V30 20280 H 1959.93 -3.63092 -0.900848 0
M  V30 20281 H 1961.26 -4.77238 -1.20434 0
M  V30 20282 N 1962.92 0.141865 -1.5696 0
M  V30 20283 C 1964.14 0.872384 -1.8816 0
M  V30 20284 C 1964.57 1.73713 -0.721494 0
M  V30 20285 O 1963.92 1.78294 0.328757 0
M  V30 20286 C 1963.97 1.7007 -3.17976 0
M  V30 20287 O 1963.08 2.80545 -3.02271 0
M  V30 20288 H 1962.42 0.242672 -0.618066 0
M  V30 20289 H 1964.95 0.131136 -2.04179 0
M  V30 20290 H 1964.96 2.09466 -3.50126 0
M  V30 20291 H 1963.63 1.06573 -4.02014 0
M  V30 20292 H 1962.21 2.44519 -2.81541 0
M  V30 20293 N 1964.39 1.52136 0.411372 0
M  V30 20294 C 1965.32 1.78277 1.50796 0
M  V30 20295 C 1966.31 0.633643 1.57857 0
M  V30 20296 O 1967.49 0.879011 1.73168 0
M  V30 20297 C 1964.62 1.93142 2.88641 0
M  V30 20298 C 1963.57 3.08727 2.96431 0
M  V30 20299 C 1962.9 3.08812 4.36508 0
M  V30 20300 C 1964.2 4.48228 2.68122 0
M  V30 20301 H 1965.89 2.70102 1.29171 0
M  V30 20302 H 1963.44 1.29971 0.619965 0
M  V30 20303 H 1965.39 2.10012 3.65339 0
M  V30 20304 H 1964.12 0.979869 3.11554 0
M  V30 20305 H 1962.78 2.91604 2.22177 0
M  V30 20306 H 1962.42 2.11383 4.56428 0
M  V30 20307 H 1962.12 3.86444 4.42645 0
M  V30 20308 H 1963.65 3.27809 5.15144 0
M  V30 20309 H 1965.06 4.65568 3.34544 0
M  V30 20310 H 1963.46 5.27761 2.85638 0
M  V30 20311 H 1964.53 4.56478 1.63572 0
M  V30 20312 N 1965.87 -0.668464 1.42721 0
M  V30 20313 C 1967.28 -1.24925 1.38747 0
M  V30 20314 C 1967.64 -1.96021 0.0838911 0
M  V30 20315 O 1966.76 -2.00378 -0.817178 0
M  V30 20316 C 1967.36 -2.27201 2.51327 0
M  V30 20317 C 1965.91 -2.80792 2.50665 0
M  V30 20318 C 1965.06 -1.55205 2.29797 0
M  V30 20319 H 1968.01 -0.461443 1.51843 0
M  V30 20320 H 1968.03 -3.09067 2.21941 0
M  V30 20321 H 1967.55 -1.75428 3.46189 0
M  V30 20322 H 1965.65 -3.36669 1.59639 0
M  V30 20323 H 1965.76 -3.29376 3.4792 0
M  V30 20324 H 1964.12 -1.82004 1.78176 0
M  V30 20325 H 1964.91 -1.05389 3.26723 0
M  V30 20326 N 1967.35 -1.28999 -0.905381 0
M  V30 20327 C 1968.6 -1.1641 -1.65207 0
M  V30 20328 C 1968.92 0.285952 -1.92892 0
M  V30 20329 O 1968.19 1.19672 -1.55098 0
M  V30 20330 H 1966.77 -0.427826 -0.612351 0
M  V30 20331 H 1969.43 -1.61845 -1.08592 0
M  V30 20332 H 1968.53 -1.70993 -2.6109 0
M  V30 20333 N 1968.83 1.11497 -1.11383 0
M  V30 20334 C 1970.24 1.64742 -0.878467 0
M  V30 20335 C 1970.59 1.87138 0.589393 0
M  V30 20336 O 1969.72 1.60515 1.45134 0
M  V30 20337 C 1970.31 2.99271 -1.58815 0
M  V30 20338 C 1968.87 3.49426 -1.39923 0
M  V30 20339 C 1968.02 2.24248 -1.6312 0
M  V30 20340 H 1970.97 0.951453 -1.27016 0
M  V30 20341 H 1970.99 3.66215 -1.03281 0
M  V30 20342 H 1970.5 2.82939 -2.65645 0
M  V30 20343 H 1968.6 3.70924 -0.353006 0
M  V30 20344 H 1968.72 4.28255 -2.1479 0
M  V30 20345 H 1967.08 2.31843 -1.05455 0
M  V30 20346 H 1967.86 2.10459 -2.71223 0
M  V30 20347 N 1970.31 0.904053 1.29092 0
M  V30 20348 C 1971.27 0.389889 2.25859 0
M  V30 20349 C 1972.27 -0.47836 1.5352 0
M  V30 20350 O 1973.46 -0.282793 1.71889 0
M  V30 20351 C 1970.59 -0.442126 3.38021 0
M  V30 20352 H 1971.79 1.24458 2.72856 0
M  V30 20353 H 1969.34 0.68258 1.40608 0
M  V30 20354 H 1970.07 -1.31662 2.96371 0
M  V30 20355 H 1969.86 0.180067 3.91686 0
M  V30 20356 H 1971.35 -0.793021 4.10001 0
M  V30 20357 N 1971.79 -1.4279 0.666995 0
M  V30 20358 C 1972.72 -2.335 -0.00234362 0
M  V30 20359 C 1973.7 -1.50244 -0.797537 0
M  V30 20360 O 1974.88 -1.7887 -0.756257 0
M  V30 20361 C 1972.01 -3.33774 -0.959795 0
M  V30 20362 C 1970.97 -4.27124 -0.273749 0
M  V30 20363 C 1970.29 -5.17544 -1.3436 0
M  V30 20364 C 1971.59 -5.15462 0.842411 0
M  V30 20365 H 1973.29 -2.89719 0.755212 0
M  V30 20366 H 1970.83 -1.39307 0.364622 0
M  V30 20367 H 1972.78 -3.96139 -1.43707 0
M  V30 20368 H 1971.51 -2.75842 -1.74868 0
M  V30 20369 H 1970.17 -3.66142 0.18321 0
M  V30 20370 H 1969.82 -4.55943 -2.12427 0
M  V30 20371 H 1969.52 -5.80825 -0.889738 0
M  V30 20372 H 1971.04 -5.82784 -1.82196 0
M  V30 20373 H 1972.45 -5.71557 0.4467 0
M  V30 20374 H 1970.85 -5.87535 1.22158 0
M  V30 20375 H 1971.92 -4.54327 1.69454 0
M  V30 20376 N 1973.26 -0.409806 -1.52179 0
M  V30 20377 C 1974.17 0.42219 -2.3077 0
M  V30 20378 C 1975.19 1.05295 -1.38524 0
M  V30 20379 O 1976.37 1.05432 -1.71599 0
M  V30 20380 C 1973.43 1.52345 -3.11435 0
M  V30 20381 C 1972.49 0.91568 -4.19421 0
M  V30 20382 C 1971.72 1.96446 -4.9623 0
M  V30 20383 O 1971.95 3.18271 -4.7335 0
M  V30 20384 O 1970.88 1.57032 -5.81055 0
M  V30 20385 H 1974.71 -0.218635 -3.02912 0
M  V30 20386 H 1972.29 -0.172994 -1.48395 0
M  V30 20387 H 1974.17 2.16276 -3.61666 0
M  V30 20388 H 1972.85 2.14886 -2.42086 0
M  V30 20389 H 1971.76 0.239064 -3.73335 0
M  V30 20390 H 1973.09 0.33418 -4.91064 0
M  V30 20391 N 1974.74 1.56975 -0.14025 0
M  V30 20392 C 1976.02 1.87494 0.557244 0
M  V30 20393 C 1976.4 1.04507 1.83416 0
M  V30 20394 O 1975.75 0.129958 2.2813 0
M  V30 20395 C 1975.96 3.39006 0.829213 0
M  V30 20396 C 1977.3 4.08077 1.17296 0
M  V30 20397 O 1978.33 3.44146 0.918788 0
M  V30 20398 O 1977.19 5.20966 1.65096 0
M  V30 20399 H 1974.28 0.776892 0.283492 0
M  V30 20400 H 1976.83 1.68781 -0.176354 0
M  V30 20401 H 1975.6 3.91229 -0.0747688 0
M  V30 20402 H 1975.22 3.63224 1.61723 0
M  V30 20403 N 1976.22 -0.133539 1.57033 0
M  V30 20404 C 1977.47 -0.842358 1.83268 0
M  V30 20405 C 1977.78 -1.81722 0.723634 0
M  V30 20406 O 1978.99 -2.57117 0.871969 0
M  V30 20407 C 1977.44 -1.54868 3.24875 0
M  V30 20408 C 1977.05 -0.615546 4.43751 0
M  V30 20409 C 1978.8 -2.24349 3.60372 0
M  V30 20410 C 1976.7 -1.32426 5.76383 0
M  V30 20411 H 1975.63 -0.318314 0.683515 0
M  V30 20412 H 1978.28 -0.0950741 1.83254 0
M  V30 20413 H 1976.67 -2.34207 3.19316 0
M  V30 20414 H 1977.84 0.143586 4.60576 0
M  V30 20415 H 1976.15 -0.0284595 4.1639 0
M  V30 20416 H 1978.75 -2.78037 4.56727 0
M  V30 20417 H 1979.09 -3.01473 2.87088 0
M  V30 20418 H 1979.63 -1.51914 3.67651 0
M  V30 20419 H 1976.37 -0.594603 6.52798 0
M  V30 20420 H 1975.89 -2.05577 5.6347 0
M  V30 20421 H 1977.57 -1.86148 6.19643 0
M  V30 20422 N 1977.7 -1.52352 -0.403298 0
M  V30 20423 C 1978.66 -1.75482 -1.4744 0
M  V30 20424 C 1979.66 -0.62473 -1.48168 0
M  V30 20425 O 1980.85 -0.892662 -1.4959 0
M  V30 20426 C 1977.98 -1.84253 -2.86817 0
M  V30 20427 H 1979.18 -2.71107 -1.28222 0
M  V30 20428 H 1976.73 -1.42857 -0.634157 0
M  V30 20429 H 1977.46 -0.905623 -3.11398 0
M  V30 20430 H 1977.25 -2.66414 -2.87691 0
M  V30 20431 H 1978.74 -2.03869 -3.64454 0
M  V30 20432 N 1979.18 0.660885 -1.43074 0
M  V30 20433 C 1980.42 1.41668 -1.43572 0
M  V30 20434 C 1980.74 1.95506 -0.0607715 0
M  V30 20435 O 1981.94 2.71441 0.0568092 0
M  V30 20436 C 1980.4 2.56345 -2.52617 0
M  V30 20437 C 1980.01 2.09147 -3.96183 0
M  V30 20438 C 1981.75 3.33765 -2.623 0
M  V30 20439 C 1979.66 3.20989 -4.96709 0
M  V30 20440 H 1978.59 0.532264 -0.534051 0
M  V30 20441 H 1981.24 0.714113 -1.69035 0
M  V30 20442 H 1979.62 3.29036 -2.20343 0
M  V30 20443 H 1980.8 1.43518 -4.3788 0
M  V30 20444 H 1979.11 1.44628 -3.90476 0
M  V30 20445 H 1981.71 4.17085 -3.34581 0
M  V30 20446 H 1982.05 3.81285 -1.67114 0
M  V30 20447 H 1982.58 2.6815 -2.93837 0
M  V30 20448 H 1979.32 2.78445 -5.93421 0
M  V30 20449 H 1978.84 3.85356 -4.59631 0
M  V30 20450 H 1980.52 3.86241 -5.19063 0
M  V30 20451 N 1980.65 1.29477 0.898527 0
M  V30 20452 C 1981.6 1.14706 2.00278 0
M  V30 20453 C 1982.57 0.040077 1.66052 0
M  V30 20454 O 1983.76 0.207808 1.89665 0
M  V30 20455 C 1980.9 0.830802 3.3495 0
M  V30 20456 C 1980.01 2.01834 3.81952 0
M  V30 20457 C 1979.14 1.64135 5.05206 0
M  V30 20458 C 1978.18 2.79464 5.44579 0
M  V30 20459 N 1977.32 2.42153 6.59019 0
M  V30 20460 H 1982.16 2.09181 2.12244 0
M  V30 20461 H 1979.7 1.04092 1.03939 0
M  V30 20462 H 1981.66 0.628119 4.12445 0
M  V30 20463 H 1980.29 -0.0770431 3.22708 0
M  V30 20464 H 1979.34 2.33269 3.00483 0
M  V30 20465 H 1980.65 2.88247 4.07081 0
M  V30 20466 H 1979.8 1.40163 5.90288 0
M  V30 20467 H 1978.54 0.748722 4.81918 0
M  V30 20468 H 1977.55 3.04117 4.58031 0
M  V30 20469 H 1978.77 3.69393 5.69847 0
M  V30 20470 H 1976.72 1.55379 6.37333 0
M  V30 20471 H 1976.64 3.221 6.8395 0
M  V30 20472 H 1977.9 2.21503 7.47366 0
M  V30 20473 N 1982.13 -1.10905 1.11972 0
M  V30 20474 C 1983.38 -1.83223 0.88323 0
M  V30 20475 C 1983.73 -1.83299 -0.584758 0
M  V30 20476 O 1983.03 -1.27913 -1.4265 0
M  V30 20477 C 1983.22 -3.29439 1.38581 0
M  V30 20478 C 1983.05 -3.43605 2.90113 0
M  V30 20479 C 1981.82 -3.56303 3.58296 0
M  V30 20480 C 1984.02 -3.37421 3.88139 0
M  V30 20481 N 1982 -3.58997 4.97991 0
M  V30 20482 C 1983.37 -3.46801 5.13935 0
M  V30 20483 C 1985.43 -3.20988 3.80619 0
M  V30 20484 C 1984.13 -3.41443 6.33095 0
M  V30 20485 C 1986.15 -3.16949 4.99297 0
M  V30 20486 C 1985.52 -3.26906 6.23948 0
M  V30 20487 H 1981.62 -0.685448 0.376411 0
M  V30 20488 H 1984.2 -1.32659 1.42512 0
M  V30 20489 H 1982.37 -3.78507 0.871038 0
M  V30 20490 H 1984.1 -3.89692 1.09189 0
M  V30 20491 H 1980.86 -3.59102 3.08776 0
M  V30 20492 H 1981.28 -3.63967 5.70839 0
M  V30 20493 H 1985.92 -3.12171 2.85147 0
M  V30 20494 H 1983.64 -3.49026 7.28839 0
M  V30 20495 H 1987.23 -3.05393 4.95204 0
M  V30 20496 H 1986.11 -3.23777 7.14239 0
M  V30 20497 N 1983.61 -0.910886 -1.2861 0
M  V30 20498 C 1984.52 -0.402088 -2.31129 0
M  V30 20499 C 1985.54 0.508811 -1.66394 0
M  V30 20500 O 1986.71 0.395691 -1.97475 0
M  V30 20501 C 1983.78 0.352182 -3.44907 0
M  V30 20502 C 1982.84 -0.59159 -4.25204 0
M  V30 20503 C 1982.07 0.126778 -5.33549 0
M  V30 20504 O 1982.29 1.34897 -5.54219 0
M  V30 20505 O 1981.23 -0.536442 -5.99505 0
M  V30 20506 H 1985.05 -1.25289 -2.76652 0
M  V30 20507 H 1982.64 -0.675604 -1.33251 0
M  V30 20508 H 1984.52 0.778285 -4.14151 0
M  V30 20509 H 1983.2 1.17886 -3.01471 0
M  V30 20510 H 1982.1 -1.06703 -3.5856 0
M  V30 20511 H 1983.44 -1.38501 -4.72312 0
M  V30 20512 N 1985.09 1.42434 -0.674558 0
M  V30 20513 C 1986.37 1.95196 -0.125683 0
M  V30 20514 C 1986.75 1.61499 1.35946 0
M  V30 20515 O 1986.09 0.911023 2.09553 0
M  V30 20516 C 1986.3 3.46762 -0.39457 0
M  V30 20517 C 1987.65 4.2346 -0.310951 0
M  V30 20518 O 1988.68 3.54684 -0.328304 0
M  V30 20519 O 1987.53 5.45914 -0.252937 0
M  V30 20520 H 1984.63 0.826995 -0.00272875 0
M  V30 20521 H 1987.17 1.52263 -0.749271 0
M  V30 20522 H 1985.95 3.64493 -1.42339 0
M  V30 20523 H 1985.57 3.96742 0.261037 0
M  V30 20524 N 1986.57 0.417871 1.51959 0
M  V30 20525 C 1987.51 -0.403305 2.27249 0
M  V30 20526 C 1988.48 -1.0336 1.30023 0
M  V30 20527 O 1989.67 -1.05621 1.58899 0
M  V30 20528 C 1986.81 -1.50928 3.10346 0
M  V30 20529 C 1985.92 -0.899043 4.22541 0
M  V30 20530 C 1985.06 -1.97844 4.92982 0
M  V30 20531 C 1984.1 -1.3456 5.97126 0
M  V30 20532 N 1983.23 -2.36552 6.6105 0
M  V30 20533 H 1988.07 0.245143 2.9699 0
M  V30 20534 H 1985.61 0.132733 1.465 0
M  V30 20535 H 1987.57 -2.16157 3.56836 0
M  V30 20536 H 1986.2 -2.12763 2.42759 0
M  V30 20537 H 1985.25 -0.135561 3.80158 0
M  V30 20538 H 1986.56 -0.396845 4.97219 0
M  V30 20539 H 1985.72 -2.7078 5.42921 0
M  V30 20540 H 1984.45 -2.51432 4.17892 0
M  V30 20541 H 1983.46 -0.601616 5.46499 0
M  V30 20542 H 1984.68 -0.817308 6.74164 0
M  V30 20543 H 1982.63 -2.89256 5.88784 0
M  V30 20544 H 1982.55 -1.91169 7.3143 0
M  V30 20545 H 1983.82 -3.09031 7.15626 0
M  V30 20546 N 1988.04 -1.56898 0.148573 0
M  V30 20547 C 1989.29 -1.96466 -0.50289 0
M  V30 20548 C 1989.62 -1.03355 -1.64412 0
M  V30 20549 O 1988.9 -0.0762411 -1.94351 0
M  V30 20550 C 1989.18 -3.45717 -1.00757 0
M  V30 20551 C 1989.03 -4.49605 0.132277 0
M  V30 20552 C 1990.35 -3.97506 -1.88883 0
M  V30 20553 H 1987.47 -0.714345 -0.181328 0
M  V30 20554 H 1990.11 -1.88601 0.230117 0
M  V30 20555 H 1988.26 -3.5255 -1.6322 0
M  V30 20556 H 1989.94 -4.54851 0.76867 0
M  V30 20557 H 1988.18 -4.26524 0.791189 0
M  V30 20558 H 1988.85 -5.51375 -0.262585 0
M  V30 20559 H 1991.33 -3.93162 -1.36246 0
M  V30 20560 H 1990.2 -5.02399 -2.21104 0
M  V30 20561 H 1990.46 -3.39956 -2.82635 0
M  V30 20562 N 1989.52 0.125209 -1.57102 0
M  V30 20563 C 1990.93 0.683017 -1.73758 0
M  V30 20564 C 1991.28 1.80615 -0.766324 0
M  V30 20565 O 1990.41 2.16311 0.0621742 0
M  V30 20566 C 1991 1.24576 -3.15066 0
M  V30 20567 C 1989.56 1.74992 -3.33249 0
M  V30 20568 C 1988.71 0.647107 -2.69644 0
M  V30 20569 H 1991.66 -0.100657 -1.5838 0
M  V30 20570 H 1991.68 2.11547 -3.16272 0
M  V30 20571 H 1991.19 0.4281 -3.85732 0
M  V30 20572 H 1989.3 2.59255 -2.67615 0
M  V30 20573 H 1989.41 1.86364 -4.41368 0
M  V30 20574 H 1987.77 1.07918 -2.30707 0
M  V30 20575 H 1988.56 -0.159469 -3.42929 0
M  V30 20576 N 1991 1.52564 0.395213 0
M  V30 20577 C 1992.25 1.66974 1.1386 0
M  V30 20578 C 1992.57 0.409016 1.90662 0
M  V30 20579 O 1991.84 -0.576451 1.87227 0
M  V30 20580 H 1990.42 0.61548 0.423313 0
M  V30 20581 H 1993.08 1.89657 0.449024 0
M  V30 20582 H 1992.18 2.5173 1.84496 0
M  V30 20583 N 1992.48 -0.653289 1.43422 0
M  V30 20584 C 1993.41 -1.77779 1.51383 0
M  V30 20585 C 1994.39 -1.6606 0.368515 0
M  V30 20586 O 1995.57 -1.85157 0.585721 0
M  V30 20587 C 1992.7 -3.16206 1.43635 0
M  V30 20588 C 1991.66 -3.42688 2.56415 0
M  V30 20589 C 1990.98 -4.80915 2.3372 0
M  V30 20590 C 1992.28 -3.3744 3.98662 0
M  V30 20591 H 1993.98 -1.71374 2.45502 0
M  V30 20592 H 1991.52 -0.823062 1.1816 0
M  V30 20593 H 1993.48 -3.94627 1.47808 0
M  V30 20594 H 1992.2 -3.23341 0.460202 0
M  V30 20595 H 1990.86 -2.66638 2.51594 0
M  V30 20596 H 1990.51 -4.84726 1.34349 0
M  V30 20597 H 1990.21 -4.99594 3.09321 0
M  V30 20598 H 1991.73 -5.61594 2.39677 0
M  V30 20599 H 1993.15 -4.05798 4.0497 0
M  V30 20600 H 1991.54 -3.67656 4.74288 0
M  V30 20601 H 1992.61 -2.35624 4.23803 0
M  V30 20602 N 1993.96 -1.29952 -0.891648 0
M  V30 20603 C 1994.9 -1.15767 -1.99667 0
M  V30 20604 C 1995.87 -0.0488826 -1.66028 0
M  V30 20605 O 1997.06 -0.217864 -1.89552 0
M  V30 20606 C 1994.2 -0.848553 -3.34505 0
M  V30 20607 C 1993.31 -2.03857 -3.80876 0
M  V30 20608 C 1992.45 -1.66812 -5.04328 0
M  V30 20609 C 1991.49 -2.82348 -5.4309 0
M  V30 20610 N 1990.62 -2.45645 -6.57726 0
M  V30 20611 H 1995.46 -2.10304 -2.11131 0
M  V30 20612 H 1993 -1.04641 -1.03386 0
M  V30 20613 H 1994.96 -0.649983 -4.12106 0
M  V30 20614 H 1993.59 0.059928 -3.22744 0
M  V30 20615 H 1992.64 -2.34859 -2.99241 0
M  V30 20616 H 1993.95 -2.90402 -4.05547 0
M  V30 20617 H 1993.11 -1.43291 -5.89536 0
M  V30 20618 H 1991.84 -0.774269 -4.81515 0
M  V30 20619 H 1990.85 -3.06542 -4.56412 0
M  V30 20620 H 1992.07 -3.72409 -5.6788 0
M  V30 20621 H 1990.02 -1.58757 -6.365 0
M  V30 20622 H 1989.94 -3.25722 -6.82232 0
M  V30 20623 H 1991.21 -2.25463 -7.46181 0
M  V30 20624 N 1995.44 1.1031 -1.12559 0
M  V30 20625 C 1996.71 1.788 -0.793094 0
M  V30 20626 C 1997.09 1.98553 0.716932 0
M  V30 20627 O 1996.44 1.57962 1.65107 0
M  V30 20628 C 1996.65 3.1171 -1.56964 0
M  V30 20629 C 1998 3.86566 -1.75648 0
M  V30 20630 O 1999.02 3.21435 -1.53487 0
M  V30 20631 O 1997.88 5.03468 -2.1256 0
M  V30 20632 H 1994.98 0.775004 -0.288612 0
M  V30 20633 H 1997.52 1.16948 -1.22969 0
M  V30 20634 H 1996.29 2.92761 -2.59628 0
M  V30 20635 H 1995.92 3.81282 -1.12738 0
M  V30 20636 N 1996.91 0.917694 1.28125 0
M  V30 20637 C 1998.33 0.616431 1.47215 0
M  V30 20638 C 1998.53 -0.837161 1.83286 0
M  V30 20639 O 1997.59 -1.61591 1.94022 0
M  V30 20640 C 1998.9 1.55772 2.57207 0
M  V30 20641 C 2000.45 1.56486 2.71074 0
M  V30 20642 C 2000.92 2.49286 3.84214 0
M  V30 20643 N 2002.41 2.47436 3.91573 0
M  V30 20644 C 2003.15 3.15936 4.7851 0
M  V30 20645 N 2002.64 3.9378 5.70008 0
M  V30 20646 N 2004.44 3.05004 4.72154 0
M  V30 20647 H 1996.59 1.85758 1.02993 0
M  V30 20648 H 1998.85 0.796969 0.513366 0
M  V30 20649 H 1998.56 2.59423 2.37471 0
M  V30 20650 H 1998.43 1.2918 3.5439 0
M  V30 20651 H 2000.82 0.535708 2.90197 0
M  V30 20652 H 2000.9 1.87122 1.7441 0
M  V30 20653 H 2000.54 3.52306 3.65846 0
M  V30 20654 H 2000.47 2.1595 4.80284 0
M  V30 20655 H 2002.96 1.90893 3.26141 0
M  V30 20656 H 2003.28 4.43058 6.33182 0
M  V30 20657 H 2001.62 3.97885 5.69836 0
M  V30 20658 H 2004.81 2.4369 3.99666 0
M  V30 20659 H 2004.99 3.5866 5.39691 0
M  V30 20660 N 1998.39 -1.42074 0.682102 0
M  V30 20661 C 1999.62 -2.05769 0.216029 0
M  V30 20662 C 2000.03 -1.51278 -1.12962 0
M  V30 20663 O 1999.39 -0.655521 -1.70321 0
M  V30 20664 C 1999.44 -3.61187 0.150351 0
M  V30 20665 O 1999.16 -4.13659 1.44283 0
M  V30 20666 C 2000.66 -4.42007 -0.338339 0
M  V30 20667 H 1997.88 -0.662997 0.103326 0
M  V30 20668 H 2000.43 -1.82084 0.930895 0
M  V30 20669 H 1998.58 -3.83958 -0.515249 0
M  V30 20670 H 1999 -5.07592 1.32101 0
M  V30 20671 H 2000.47 -5.50994 -0.33319 0
M  V30 20672 H 2000.95 -4.17125 -1.37489 0
M  V30 20673 H 2001.55 -4.2427 0.295782 0
M  V30 20674 N 1999.87 -0.425924 -1.51735 0
M  V30 20675 C 2001.09 0.145767 -2.06887 0
M  V30 20676 C 2001.52 1.36671 -1.29239 0
M  V30 20677 O 2000.88 1.78323 -0.327176 0
M  V30 20678 C 2000.93 0.457951 -3.5768 0
M  V30 20679 O 2000.03 1.54629 -3.82314 0
M  V30 20680 H 1999.37 0.00686619 -0.663964 0
M  V30 20681 H 2001.9 -0.603968 -1.95482 0
M  V30 20682 H 2001.91 0.71173 -4.01744 0
M  V30 20683 H 2000.59 -0.434483 -4.13624 0
M  V30 20684 H 1999.16 1.28336 -3.5012 0
M  V30 20685 N 2001.35 1.56817 -0.156891 0
M  V30 20686 C 2002.26 2.20833 0.79183 0
M  V30 20687 C 2003.27 1.19558 1.26419 0
M  V30 20688 O 2004.45 1.5217 1.31933 0
M  V30 20689 C 2001.51 2.82517 2.00961 0
M  V30 20690 C 2000.58 3.98948 1.58552 0
M  V30 20691 C 1999.81 4.57681 2.74525 0
M  V30 20692 O 2000.03 4.15295 3.91007 0
M  V30 20693 O 1998.97 5.47786 2.49428 0
M  V30 20694 H 2002.79 3.02436 0.276846 0
M  V30 20695 H 2000.38 1.49233 0.0706167 0
M  V30 20696 H 2002.26 3.21683 2.72209 0
M  V30 20697 H 2000.93 2.03921 2.51392 0
M  V30 20698 H 1999.84 3.64479 0.84297 0
M  V30 20699 H 2001.17 4.79094 1.12826 0
M  V30 20700 N 2002.83 -0.116876 1.57166 0
M  V30 20701 C 2003.76 -1.16901 1.97147 0
M  V30 20702 C 2004.77 -1.37537 0.871063 0
M  V30 20703 O 2005.96 -1.36574 1.14934 0
M  V30 20704 C 2003.06 -2.52863 2.2564 0
M  V30 20705 C 2002.23 -2.528 3.56946 0
M  V30 20706 C 2001.29 -3.70525 3.73628 0
M  V30 20707 O 2000.32 -3.54013 4.45717 0
M  V30 20708 N 2001.52 -4.89172 3.12556 0
M  V30 20709 H 2004.28 -0.828895 2.88009 0
M  V30 20710 H 2001.85 -0.306125 1.5898 0
M  V30 20711 H 2003.84 -3.30182 2.34013 0
M  V30 20712 H 2002.41 -2.79048 1.40894 0
M  V30 20713 H 2001.63 -1.61181 3.59742 0
M  V30 20714 H 2002.92 -2.49817 4.43248 0
M  V30 20715 H 2002.31 -5.05491 2.5396 0
M  V30 20716 H 2000.87 -5.64159 3.26447 0
M  V30 20717 N 2004.3 -1.52772 -0.387116 0
M  V30 20718 C 2005.25 -1.77684 -1.47299 0
M  V30 20719 C 2006.22 -0.620145 -1.54089 0
M  V30 20720 O 2007.41 -0.860064 -1.70316 0
M  V30 20721 C 2004.55 -1.95321 -2.84506 0
M  V30 20722 C 2003.66 -3.23016 -2.86853 0
M  V30 20723 C 2002.79 -3.30959 -4.15499 0
M  V30 20724 C 2001.83 -4.5277 -4.11905 0
M  V30 20725 N 2000.97 -4.57985 -5.3216 0
M  V30 20726 H 2005.81 -2.70351 -1.25356 0
M  V30 20727 H 2003.35 -1.33943 -0.608094 0
M  V30 20728 H 2005.3 -2.03531 -3.64185 0
M  V30 20729 H 2003.93 -1.06012 -3.04895 0
M  V30 20730 H 2002.99 -3.23868 -1.99534 0
M  V30 20731 H 2004.3 -4.12753 -2.80066 0
M  V30 20732 H 2003.45 -3.38363 -5.03583 0
M  V30 20733 H 2002.19 -2.392 -4.25011 0
M  V30 20734 H 2001.2 -4.4549 -3.22209 0
M  V30 20735 H 2002.42 -5.45848 -4.04013 0
M  V30 20736 H 2000.37 -3.69118 -5.42299 0
M  V30 20737 H 2000.28 -5.41596 -5.27456 0
M  V30 20738 H 2001.55 -4.69645 -6.22136 0
M  V30 20739 N 2005.78 0.645673 -1.43767 0
M  V30 20740 C 2006.73 1.75828 -1.4951 0
M  V30 20741 C 2007.7 1.62496 -0.344109 0
M  V30 20742 O 2008.88 1.82631 -0.552323 0
M  V30 20743 C 2006.02 3.14017 -1.43134 0
M  V30 20744 C 2005.14 3.38428 -2.68496 0
M  V30 20745 C 2004.27 4.66507 -2.54056 0
M  V30 20746 C 2003.31 4.84049 -3.74651 0
M  V30 20747 N 2002.45 6.03392 -3.58974 0
M  V30 20748 H 2007.29 1.70254 -2.44576 0
M  V30 20749 H 2004.82 0.830729 -1.21397 0
M  V30 20750 H 2006.78 3.93915 -1.37431 0
M  V30 20751 H 2005.41 3.18642 -0.516449 0
M  V30 20752 H 2004.46 2.52574 -2.84448 0
M  V30 20753 H 2005.78 3.47274 -3.58054 0
M  V30 20754 H 2004.93 5.54543 -2.46103 0
M  V30 20755 H 2003.67 4.59996 -1.62035 0
M  V30 20756 H 2002.67 3.94447 -3.83004 0
M  V30 20757 H 2003.9 4.92385 -4.67689 0
M  V30 20758 H 2001.85 5.97998 -2.69694 0
M  V30 20759 H 2001.76 6.13229 -4.42138 0
M  V30 20760 H 2003.03 6.94029 -3.54887 0
M  V30 20761 N 2007.26 1.30423 0.884744 0
M  V30 20762 C 2008.17 1.18747 2.02327 0
M  V30 20763 C 2009.19 0.107354 1.73669 0
M  V30 20764 O 2010.36 0.322332 1.98804 0
M  V30 20765 C 2007.43 0.880361 3.35336 0
M  V30 20766 C 2006.49 2.04587 3.77416 0
M  V30 20767 C 2005.72 1.75332 5.04078 0
M  V30 20768 O 2005.94 0.68135 5.66316 0
M  V30 20769 O 2004.88 2.60579 5.4257 0
M  V30 20770 H 2008.7 2.14391 2.15105 0
M  V30 20771 H 2006.29 1.10019 1.01076 0
M  V30 20772 H 2008.17 0.7243 4.15129 0
M  V30 20773 H 2006.85 -0.0461673 3.23667 0
M  V30 20774 H 2005.75 2.25726 2.98326 0
M  V30 20775 H 2007.09 2.95413 3.9369 0
M  V30 20776 N 2008.74 -1.09711 1.13142 0
M  V30 20777 C 2010.15 -1.63323 0.904565 0
M  V30 20778 C 2010.5 -1.88052 -0.559546 0
M  V30 20779 O 2009.62 -1.62804 -1.42562 0
M  V30 20780 C 2010.22 -2.96707 1.63556 0
M  V30 20781 C 2008.78 -3.47156 1.45465 0
M  V30 20782 C 2007.93 -2.21625 1.66667 0
M  V30 20783 H 2010.88 -0.931125 1.28514 0
M  V30 20784 H 2010.9 -3.64525 1.09094 0
M  V30 20785 H 2010.41 -2.78677 2.70113 0
M  V30 20786 H 2008.51 -3.70315 0.411972 0
M  V30 20787 H 2008.62 -4.24784 2.21576 0
M  V30 20788 H 2006.99 -2.30136 1.0913 0
M  V30 20789 H 2007.77 -2.06118 2.74537 0
M  V30 20790 N 2010.22 -0.924476 -1.27637 0
M  V30 20791 C 2011.13 -0.426579 -2.30689 0
M  V30 20792 C 2012.14 0.491134 -1.66925 0
M  V30 20793 O 2013.32 0.374724 -1.97883 0
M  V30 20794 C 2010.38 0.31558 -3.45261 0
M  V30 20795 C 2009.44 -0.636655 -4.24553 0
M  V30 20796 C 2008.68 0.0701807 -5.33654 0
M  V30 20797 O 2008.9 1.29011 -5.55619 0
M  V30 20798 O 2007.83 -0.599998 -5.98902 0
M  V30 20799 H 2011.66 -1.28216 -2.75308 0
M  V30 20800 H 2009.25 -0.689699 -1.32527 0
M  V30 20801 H 2011.13 0.734315 -4.14953 0
M  V30 20802 H 2009.8 1.14682 -3.02704 0
M  V30 20803 H 2008.71 -1.105 -3.57408 0
M  V30 20804 H 2010.04 -1.43502 -4.70816 0
M  V30 20805 N 2011.69 1.41711 -0.689627 0
M  V30 20806 C 2013.11 1.84377 -0.293587 0
M  V30 20807 C 2013.46 1.57711 1.16712 0
M  V30 20808 O 2012.58 1.0445 1.89523 0
M  V30 20809 C 2013.18 3.34691 -0.526073 0
M  V30 20810 C 2011.74 3.7595 -0.184009 0
M  V30 20811 C 2010.88 2.65167 -0.811277 0
M  V30 20812 H 2013.83 1.31347 -0.890718 0
M  V30 20813 H 2013.85 3.7988 0.217124 0
M  V30 20814 H 2013.37 3.54068 -1.58927 0
M  V30 20815 H 2011.47 3.62176 0.875158 0
M  V30 20816 H 2011.58 4.74875 -0.63488 0
M  V30 20817 H 2009.94 2.53554 -0.241363 0
M  V30 20818 H 2010.73 2.87363 -1.87822 0
M  V30 20819 N 2013.17 0.433965 1.51507 0
M  V30 20820 C 2014.12 -0.37918 2.27664 0
M  V30 20821 C 2015.09 -1.01975 1.31112 0
M  V30 20822 O 2016.27 -1.0393 1.6001 0
M  V30 20823 C 2013.41 -1.47628 3.1193 0
M  V30 20824 C 2012.53 -0.854176 4.23471 0
M  V30 20825 C 2011.66 -1.92604 4.95053 0
M  V30 20826 C 2010.7 -1.28219 5.9852 0
M  V30 20827 N 2009.84 -2.29527 6.63522 0
M  V30 20828 H 2014.68 0.276629 2.96713 0
M  V30 20829 H 2012.22 0.148264 1.46351 0
M  V30 20830 H 2014.17 -2.1236 3.59109 0
M  V30 20831 H 2012.8 -2.10176 2.45002 0
M  V30 20832 H 2011.86 -0.0952329 3.80281 0
M  V30 20833 H 2013.17 -0.344086 4.97612 0
M  V30 20834 H 2012.32 -2.65006 5.45762 0
M  V30 20835 H 2011.06 -2.46985 4.20535 0
M  V30 20836 H 2010.07 -0.543619 5.47106 0
M  V30 20837 H 2011.29 -0.745758 6.74993 0
M  V30 20838 H 2009.24 -2.82995 5.91819 0
M  V30 20839 H 2009.15 -1.834 7.33417 0
M  V30 20840 H 2010.42 -3.01423 7.18863 0
M  V30 20841 N 2014.65 -1.56732 0.165206 0
M  V30 20842 C 2015.93 -1.88357 -0.527344 0
M  V30 20843 C 2016.31 -1.07412 -1.8173 0
M  V30 20844 O 2015.66 -0.166236 -2.27895 0
M  V30 20845 C 2015.87 -3.40282 -0.775175 0
M  V30 20846 C 2017.21 -4.09891 -1.10789 0
M  V30 20847 O 2018.24 -3.45565 -0.863921 0
M  V30 20848 O 2017.1 -5.23527 -1.56787 0
M  V30 20849 H 2014.19 -0.781304 -0.271096 0
M  V30 20850 H 2016.74 -1.68479 0.203183 0
M  V30 20851 H 2015.51 -3.9106 0.137 0
M  V30 20852 H 2015.13 -3.65751 -1.55924 0
M  V30 20853 N 2016.13 0.10854 -1.57226 0
M  V30 20854 C 2017.04 1.15125 -2.0441 0
M  V30 20855 C 2018.05 1.44693 -0.966436 0
M  V30 20856 O 2019.23 1.55601 -1.27868 0
M  V30 20857 C 2016.3 2.45528 -2.44779 0
M  V30 20858 C 2015.36 2.23263 -3.66677 0
M  V30 20859 C 2014.59 3.47448 -4.05112 0
M  V30 20860 O 2014.81 4.55164 -3.43776 0
M  V30 20861 O 2013.75 3.37831 -4.9815 0
M  V30 20862 H 2017.57 0.780533 -2.93498 0
M  V30 20863 H 2015.16 0.320091 -1.45931 0
M  V30 20864 H 2017.04 3.22339 -2.71432 0
M  V30 20865 H 2015.71 2.82052 -1.58834 0
M  V30 20866 H 2014.62 1.44276 -3.4516 0
M  V30 20867 H 2015.95 1.91638 -4.53361 0
M  V30 20868 N 2017.61 1.52975 0.379009 0
M  V30 20869 C 2018.85 1.68755 1.12471 0
M  V30 20870 C 2019.19 0.431242 1.89351 0
M  V30 20871 O 2018.46 -0.571204 1.85923 0
M  V30 20872 C 2018.74 2.92896 2.09485 0
M  V30 20873 C 2018.6 4.28651 1.36302 0
M  V30 20874 C 2019.92 3.12604 3.09785 0
M  V30 20875 H 2017.03 0.614092 0.407504 0
M  V30 20876 H 2019.68 1.8559 0.406972 0
M  V30 20877 H 2017.83 2.78673 2.70691 0
M  V30 20878 H 2019.5 4.54661 0.779841 0
M  V30 20879 H 2017.74 4.28675 0.664851 0
M  V30 20880 H 2018.41 5.1162 2.07241 0
M  V30 20881 H 2020.89 3.25924 2.58675 0
M  V30 20882 H 2019.76 4.00924 3.74901 0
M  V30 20883 H 2020.03 2.27272 3.79209 0
M  V30 20884 N 2019.08 -0.63804 1.44107 0
M  V30 20885 C 2020.01 -1.76164 1.5326 0
M  V30 20886 C 2021 -1.6566 0.386107 0
M  V30 20887 O 2022.18 -1.84525 0.605326 0
M  V30 20888 C 2019.31 -3.14665 1.4698 0
M  V30 20889 C 2018.26 -3.39949 2.60035 0
M  V30 20890 C 2017.59 -4.78409 2.38808 0
M  V30 20891 C 2018.89 -3.33193 4.02219 0
M  V30 20892 H 2020.58 -1.6876 2.47306 0
M  V30 20893 H 2018.13 -0.810483 1.19026 0
M  V30 20894 H 2020.08 -3.93037 1.51986 0
M  V30 20895 H 2018.81 -3.22835 0.494471 0
M  V30 20896 H 2017.47 -2.63955 2.54408 0
M  V30 20897 H 2017.11 -4.83274 1.39483 0
M  V30 20898 H 2016.81 -4.96285 3.14602 0
M  V30 20899 H 2018.34 -5.5902 2.4562 0
M  V30 20900 H 2019.75 -4.0148 4.09252 0
M  V30 20901 H 2018.15 -3.62605 4.78161 0
M  V30 20902 H 2019.22 -2.31116 4.26279 0
M  V30 20903 N 2020.56 -1.3089 -0.877815 0
M  V30 20904 C 2021.49 -1.13694 -1.99013 0
M  V30 20905 C 2022.51 -0.0781797 -1.62612 0
M  V30 20906 O 2023.7 -0.324906 -1.75518 0
M  V30 20907 C 2020.8 -0.713232 -3.3131 0
M  V30 20908 C 2019.97 -1.8553 -3.96103 0
M  V30 20909 C 2019.03 -1.41895 -5.06707 0
M  V30 20910 O 2018.05 -2.12734 -5.27952 0
M  V30 20911 N 2019.26 -0.301958 -5.79714 0
M  V30 20912 H 2022.02 -2.09499 -2.14313 0
M  V30 20913 H 2019.58 -1.2312 -1.05133 0
M  V30 20914 H 2021.57 -0.404189 -4.02677 0
M  V30 20915 H 2020.14 0.152987 -3.12225 0
M  V30 20916 H 2019.36 -2.33208 -3.17817 0
M  V30 20917 H 2020.65 -2.62046 -4.3613 0
M  V30 20918 H 2020.05 0.288154 -5.64966 0
M  V30 20919 H 2018.61 -0.0524068 -6.51779 0
M  V30 20920 N 2022.04 1.0911 -1.13723 0
M  V30 20921 C 2022.97 2.15687 -0.775355 0
M  V30 20922 C 2023.99 1.61511 0.204429 0
M  V30 20923 O 2025.17 1.78493 -0.0162374 0
M  V30 20924 C 2022.27 3.38654 -0.129079 0
M  V30 20925 C 2021.45 4.22235 -1.14178 0
M  V30 20926 C 2020.51 5.23618 -0.520594 0
M  V30 20927 O 2019.53 5.56802 -1.18152 0
M  V30 20928 N 2020.73 5.76192 0.705897 0
M  V30 20929 H 2023.5 2.47337 -1.69247 0
M  V30 20930 H 2021.06 1.24855 -1.03067 0
M  V30 20931 H 2023.05 4.03595 0.298814 0
M  V30 20932 H 2021.62 3.04866 0.69104 0
M  V30 20933 H 2020.84 3.53382 -1.74685 0
M  V30 20934 H 2022.13 4.749 -1.82612 0
M  V30 20935 H 2021.53 5.51453 1.26158 0
M  V30 20936 H 2020.09 6.42851 1.0764 0
M  V30 20937 N 2023.52 0.931232 1.27145 0
M  V30 20938 C 2024.47 0.4317 2.26727 0
M  V30 20939 C 2025.44 -0.503295 1.58291 0
M  V30 20940 O 2026.62 -0.421681 1.86082 0
M  V30 20941 C 2023.76 -0.306208 3.43739 0
M  V30 20942 C 2022.87 0.663307 4.26877 0
M  V30 20943 C 2022.01 -0.0947979 5.31115 0
M  V30 20944 C 2021.05 0.867191 6.05926 0
M  V30 20945 N 2020.18 0.141485 7.01957 0
M  V30 20946 H 2025.02 1.28587 2.6883 0
M  V30 20947 H 2022.56 0.64533 1.32189 0
M  V30 20948 H 2024.52 -0.750387 4.10396 0
M  V30 20949 H 2023.15 -1.12458 3.02577 0
M  V30 20950 H 2022.2 1.22601 3.60102 0
M  V30 20951 H 2023.51 1.39836 4.78798 0
M  V30 20952 H 2022.67 -0.598728 6.03738 0
M  V30 20953 H 2021.41 -0.862794 4.80007 0
M  V30 20954 H 2020.41 1.38234 5.32139 0
M  V30 20955 H 2021.64 1.63503 6.59123 0
M  V30 20956 H 2019.58 -0.608201 6.53174 0
M  V30 20957 H 2019.5 0.816044 7.51583 0
M  V30 20958 H 2020.77 -0.341677 7.78751 0
M  V30 20959 N 2025 -1.41343 0.697132 0
M  V30 20960 C 2026.27 -1.94971 0.156721 0
M  V30 20961 C 2026.65 -1.63641 -1.33359 0
M  V30 20962 O 2026 -0.944246 -2.08077 0
M  V30 20963 C 2026.21 -3.46091 0.449687 0
M  V30 20964 C 2027.56 -4.22912 0.378281 0
M  V30 20965 O 2028.58 -3.54117 0.38469 0
M  V30 20966 O 2027.44 -5.45443 0.339755 0
M  V30 20967 H 2024.54 -0.826847 0.0158852 0
M  V30 20968 H 2027.08 -1.51052 0.7734 0
M  V30 20969 H 2025.86 -3.62183 1.48119 0
M  V30 20970 H 2025.48 -3.97107 -0.197886 0
M  V30 20971 N 2026.48 -0.441993 -1.51275 0
M  V30 20972 C 2027.42 0.367101 -2.27862 0
M  V30 20973 C 2028.39 1.01278 -1.31651 0
M  V30 20974 O 2029.58 1.0308 -1.60559 0
M  V30 20975 C 2026.72 1.45971 -3.12708 0
M  V30 20976 C 2025.83 0.831707 -4.23918 0
M  V30 20977 C 2024.97 1.89976 -4.96067 0
M  V30 20978 C 2024 1.25043 -5.99192 0
M  V30 20979 N 2023.14 2.26005 -6.6473 0
M  V30 20980 H 2027.98 -0.292361 -2.96562 0
M  V30 20981 H 2025.52 -0.156023 -1.4627 0
M  V30 20982 H 2027.48 2.10453 -3.6023 0
M  V30 20983 H 2026.11 2.08874 -2.46113 0
M  V30 20984 H 2025.16 0.0750644 -3.80326 0
M  V30 20985 H 2026.47 0.317691 -4.97787 0
M  V30 20986 H 2025.62 2.62108 -5.4716 0
M  V30 20987 H 2024.36 2.44751 -4.21839 0
M  V30 20988 H 2023.37 0.514597 -5.47386 0
M  V30 20989 H 2024.59 0.709951 -6.75379 0
M  V30 20990 H 2022.54 2.79852 -5.93312 0
M  V30 20991 H 2022.46 1.79508 -7.34379 0
M  V30 20992 H 2023.72 2.97607 -7.20452 0
M  V30 20993 N 2027.95 1.56642 -0.173515 0
M  V30 20994 C 2029.18 2.01325 0.477079 0
M  V30 20995 C 2029.6 1.05373 1.56659 0
M  V30 20996 O 2028.95 0.0549577 1.82417 0
M  V30 20997 C 2029 3.45813 1.05337 0
M  V30 20998 O 2028.73 4.38099 0.00735116 0
M  V30 20999 C 2030.23 4.05907 1.78198 0
M  V30 21000 H 2027.45 0.659835 0.121896 0
M  V30 21001 H 2029.99 2.0263 -0.27589 0
M  V30 21002 H 2028.15 3.45275 1.75682 0
M  V30 21003 H 2028.56 5.22708 0.433152 0
M  V30 21004 H 2030.03 5.08923 2.13778 0
M  V30 21005 H 2030.51 3.48125 2.67779 0
M  V30 21006 H 2031.12 4.10154 1.12489 0
M  V30 21007 N 2029.43 -0.1002 1.57281 0
M  V30 21008 C 2030.36 -1.12278 2.04734 0
M  V30 21009 C 2031.34 -1.42079 0.935281 0
M  V30 21010 O 2032.53 -1.52197 1.20622 0
M  V30 21011 C 2029.66 -2.44402 2.46748 0
M  V30 21012 C 2028.61 -2.29021 3.61571 0
M  V30 21013 C 2027.94 -3.66276 3.89545 0
M  V30 21014 C 2029.24 -1.73501 4.9264 0
M  V30 21015 H 2030.93 -0.728019 2.90414 0
M  V30 21016 H 2028.48 -0.348753 1.39713 0
M  V30 21017 H 2030.43 -3.16206 2.78553 0
M  V30 21018 H 2029.15 -2.85804 1.58061 0
M  V30 21019 H 2027.81 -1.59664 3.30005 0
M  V30 21020 H 2027.46 -4.05197 2.98034 0
M  V30 21021 H 2027.16 -3.56833 4.66845 0
M  V30 21022 H 2028.69 -4.39555 4.2382 0
M  V30 21023 H 2030.1 -2.35141 5.22859 0
M  V30 21024 H 2028.5 -1.7483 5.74068 0
M  V30 21025 H 2029.57 -0.69403 4.79908 0
M  V30 21026 N 2030.91 -1.53174 -0.370891 0
M  V30 21027 C 2031.82 -1.82187 -1.478 0
M  V30 21028 C 2032.84 -0.70987 -1.58861 0
M  V30 21029 O 2034.01 -0.999372 -1.74856 0
M  V30 21030 C 2031.08 -2.00097 -2.83129 0
M  V30 21031 C 2030.14 -3.24002 -2.8164 0
M  V30 21032 C 2029.37 -3.41048 -4.10514 0
M  V30 21033 O 2029.59 -2.62503 -5.06407 0
M  V30 21034 O 2028.53 -4.34381 -4.16649 0
M  V30 21035 H 2032.35 -2.76234 -1.26207 0
M  V30 21036 H 2029.94 -1.38488 -0.560483 0
M  V30 21037 H 2031.82 -2.13479 -3.63324 0
M  V30 21038 H 2030.5 -1.0924 -3.0471 0
M  V30 21039 H 2029.4 -3.16048 -2.00162 0
M  V30 21040 H 2030.74 -4.14764 -2.65012 0
M  V30 21041 N 2032.39 0.630389 -1.44443 0
M  V30 21042 C 2033.34 1.73605 -1.47802 0
M  V30 21043 C 2034.32 1.57186 -0.343728 0
M  V30 21044 O 2035.51 1.6691 -0.589083 0
M  V30 21045 C 2032.64 3.12293 -1.42577 0
M  V30 21046 C 2031.73 3.34179 -2.61123 0
M  V30 21047 N 2032.12 3.26429 -3.86365 0
M  V30 21048 C 2030.42 3.64978 -2.56334 0
M  V30 21049 C 2031.12 3.49024 -4.65357 0
M  V30 21050 N 2030.09 3.71932 -3.96443 0
M  V30 21051 H 2033.9 1.66072 -2.42482 0
M  V30 21052 H 2031.41 0.832879 -1.39416 0
M  V30 21053 H 2033.41 3.91583 -1.43067 0
M  V30 21054 H 2032.07 3.20991 -0.489358 0
M  V30 21055 H 2033.08 3.05331 -4.18322 0
M  V30 21056 H 2029.76 3.80653 -1.71492 0
M  V30 21057 H 2031.15 3.48618 -5.74383 0
M  V30 21058 N 2033.87 1.31354 0.870861 0
M  V30 21059 C 2034.81 1.18928 1.978 0
M  V30 21060 C 2035.78 0.07529 1.65929 0
M  V30 21061 O 2036.97 0.247992 1.89181 0
M  V30 21062 C 2034.11 0.901663 3.33113 0
M  V30 21063 C 2033.22 2.0989 3.77584 0
M  V30 21064 C 2032.36 1.74815 5.01611 0
M  V30 21065 C 2031.39 2.90952 5.38529 0
M  V30 21066 N 2030.53 2.56077 6.53734 0
M  V30 21067 H 2035.37 2.13636 2.07759 0
M  V30 21068 H 2032.91 1.06273 1.01708 0
M  V30 21069 H 2034.87 0.715464 4.11019 0
M  V30 21070 H 2033.5 -0.00857463 3.22799 0
M  V30 21071 H 2032.55 2.3959 2.95467 0
M  V30 21072 H 2033.86 2.96817 4.00875 0
M  V30 21073 H 2033.01 1.52652 5.87182 0
M  V30 21074 H 2031.75 0.850776 4.80222 0
M  V30 21075 H 2030.76 3.13764 4.51478 0
M  V30 21076 H 2031.98 3.81397 5.61884 0
M  V30 21077 H 2029.93 1.68863 6.33894 0
M  V30 21078 H 2029.85 3.36535 6.76964 0
M  V30 21079 H 2031.11 2.37306 7.425 0
M  V30 21080 N 2035.34 -1.08505 1.143 0
M  V30 21081 C 2036.25 -2.18944 0.84266 0
M  V30 21082 C 2037.27 -1.73103 -0.17648 0
M  V30 21083 O 2038.45 -2.01399 -0.0052364 0
M  V30 21084 C 2035.51 -3.45189 0.323347 0
M  V30 21085 C 2034.57 -4.05661 1.40492 0
M  V30 21086 C 2033.8 -5.2588 0.910289 0
M  V30 21087 O 2034.03 -5.69858 -0.248616 0
M  V30 21088 O 2032.96 -5.77722 1.68882 0
M  V30 21089 H 2036.79 -2.47104 1.76559 0
M  V30 21090 H 2034.37 -1.17621 0.921181 0
M  V30 21091 H 2036.25 -4.21381 0.039611 0
M  V30 21092 H 2034.93 -3.18608 -0.571874 0
M  V30 21093 H 2033.84 -3.31061 1.7421 0
M  V30 21094 H 2035.17 -4.36488 2.27462 0
M  V30 21095 N 2036.82 -0.937962 -1.26649 0
M  V30 21096 C 2038.07 -0.584683 -1.94189 0
M  V30 21097 C 2038.4 0.873516 -1.73446 0
M  V30 21098 O 2037.68 1.62451 -1.06957 0
M  V30 21099 C 2037.96 -0.923855 -3.48047 0
M  V30 21100 C 2037.81 -2.43656 -3.7809 0
M  V30 21101 C 2039.13 -0.436986 -4.37925 0
M  V30 21102 H 2036.25 -0.213892 -0.70528 0
M  V30 21103 H 2038.89 -1.1716 -1.49578 0
M  V30 21104 H 2037.04 -0.424389 -3.86175 0
M  V30 21105 H 2038.71 -3.00851 -3.49695 0
M  V30 21106 H 2036.96 -2.88141 -3.2428 0
M  V30 21107 H 2037.63 -2.62439 -4.85623 0
M  V30 21108 H 2040.1 -0.865189 -4.07006 0
M  V30 21109 H 2038.98 -0.703159 -5.44378 0
M  V30 21110 H 2039.24 0.663042 -4.371 0
M  V30 21111 N 2038.3 1.40971 -0.704618 0
M  V30 21112 C 2039.55 2.01377 -0.239781 0
M  V30 21113 C 2039.88 1.5571 1.16051 0
M  V30 21114 O 2039.15 0.772278 1.78511 0
M  V30 21115 C 2039.44 3.58784 -0.307556 0
M  V30 21116 C 2039.29 4.14553 -1.74544 0
M  V30 21117 C 2040.61 4.3888 0.327516 0
M  V30 21118 H 2037.73 0.731655 -0.088603 0
M  V30 21119 H 2040.37 1.67597 -0.895048 0
M  V30 21120 H 2038.52 3.87692 0.25036 0
M  V30 21121 H 2040.19 3.96486 -2.3579 0
M  V30 21122 H 2038.43 3.69254 -2.2767 0
M  V30 21123 H 2039.11 5.23715 -1.74433 0
M  V30 21124 H 2041.58 4.15838 -0.147737 0
M  V30 21125 H 2040.46 5.48332 0.249594 0
M  V30 21126 H 2040.72 4.19029 1.40952 0
M  V30 21127 N 2039.78 0.45001 1.51039 0
M  V30 21128 C 2040.69 -0.360857 2.31808 0
M  V30 21129 C 2041.7 -1.01585 1.41267 0
M  V30 21130 O 2042.88 -1.00845 1.74334 0
M  V30 21131 C 2039.95 -1.44034 3.15365 0
M  V30 21132 C 2039.01 -0.804156 4.21701 0
M  V30 21133 C 2038.24 -1.83221 5.01264 0
M  V30 21134 O 2038.46 -3.05609 4.81622 0
M  V30 21135 O 2037.4 -1.41571 5.85014 0
M  V30 21136 H 2041.22 0.298869 3.02226 0
M  V30 21137 H 2038.81 0.212277 1.47884 0
M  V30 21138 H 2040.69 -2.06611 3.67273 0
M  V30 21139 H 2039.36 -2.08392 2.47698 0
M  V30 21140 H 2038.27 -0.139997 3.73838 0
M  V30 21141 H 2039.6 -0.203865 4.91778 0
M  V30 21142 N 2041.26 -1.56548 0.18182 0
M  V30 21143 C 2042.67 -1.83704 -0.3331 0
M  V30 21144 C 2043.02 -1.10203 -1.62326 0
M  V30 21145 O 2042.14 -0.358476 -2.1341 0
M  V30 21146 C 2042.74 -3.33243 -0.611134 0
M  V30 21147 C 2041.3 -3.60857 -1.07046 0
M  V30 21148 C 2040.44 -2.77074 -0.111929 0
M  V30 21149 H 2043.4 -1.53422 0.405878 0
M  V30 21150 H 2043.42 -3.51292 -1.462 0
M  V30 21151 H 2042.93 -3.86711 0.328039 0
M  V30 21152 H 2041.03 -3.1281 -2.02437 0
M  V30 21153 H 2041.14 -4.69129 -0.972357 0
M  V30 21154 H 2039.51 -2.47255 -0.611302 0
M  V30 21155 H 2040.29 -3.33327 0.821452 0
M  V30 21156 N 2042.73 0.0918577 -1.57332 0
M  V30 21157 C 2043.68 1.11121 -2.02289 0
M  V30 21158 C 2044.65 1.39617 -0.899791 0
M  V30 21159 O 2045.84 1.51025 -1.16602 0
M  V30 21160 C 2042.98 2.42534 -2.45502 0
M  V30 21161 C 2042.09 2.20741 -3.71345 0
M  V30 21162 C 2041.22 3.45576 -4.03424 0
M  V30 21163 C 2040.26 3.19059 -5.22368 0
M  V30 21164 N 2039.4 4.36169 -5.50182 0
M  V30 21165 H 2044.24 0.720847 -2.8915 0
M  V30 21166 H 2041.78 0.344398 -1.43012 0
M  V30 21167 H 2043.74 3.19232 -2.68601 0
M  V30 21168 H 2042.37 2.79411 -1.61646 0
M  V30 21169 H 2041.42 1.3483 -3.55704 0
M  V30 21170 H 2042.73 1.97141 -4.58189 0
M  V30 21171 H 2041.88 4.3068 -4.27317 0
M  V30 21172 H 2040.62 3.72234 -3.15108 0
M  V30 21173 H 2039.63 2.32349 -4.98291 0
M  V30 21174 H 2040.85 2.93744 -6.12284 0
M  V30 21175 H 2038.8 4.62896 -4.64826 0
M  V30 21176 H 2038.72 4.15771 -6.31404 0
M  V30 21177 H 2039.98 5.22328 -5.78613 0
M  V30 21178 N 2044.21 1.53368 0.362763 0
M  V30 21179 C 2045.49 1.60294 1.12095 0
M  V30 21180 C 2045.87 0.412218 2.07036 0
M  V30 21181 O 2045.22 -0.597284 2.20556 0
M  V30 21182 C 2045.43 2.95458 1.85757 0
M  V30 21183 C 2046.78 3.50135 2.40189 0
M  V30 21184 O 2047.8 2.97506 1.9588 0
M  V30 21185 O 2046.66 4.42146 3.212 0
M  V30 21186 H 2043.75 0.647572 0.514373 0
M  V30 21187 H 2046.3 1.65711 0.3658 0
M  V30 21188 H 2045.07 3.73561 1.16482 0
M  V30 21189 H 2044.69 2.93545 2.68174 0
M  V30 21190 N 2045.69 -0.62272 1.44776 0
M  V30 21191 C 2046.92 -1.40911 1.51498 0
M  V30 21192 C 2047.33 -1.88261 0.142579 0
M  V30 21193 O 2046.69 -1.61333 -0.853105 0
M  V30 21194 C 2046.74 -2.62379 2.48676 0
M  V30 21195 O 2046.46 -2.17001 3.80582 0
M  V30 21196 C 2047.96 -3.55413 2.64947 0
M  V30 21197 H 2045.18 -0.431862 0.513552 0
M  V30 21198 H 2047.73 -0.760822 1.8982 0
M  V30 21199 H 2045.88 -3.23281 2.13467 0
M  V30 21200 H 2046.3 -2.95811 4.33124 0
M  V30 21201 H 2047.77 -4.37227 3.36952 0
M  V30 21202 H 2048.25 -4.04771 1.70462 0
M  V30 21203 H 2048.85 -3.00374 3.01091 0
M  V30 21204 N 2047.17 -1.31814 -0.863883 0
M  V30 21205 C 2048.13 -1.19926 -1.95321 0
M  V30 21206 C 2049.13 -0.124731 -1.60316 0
M  V30 21207 O 2050.32 -0.374454 -1.70128 0
M  V30 21208 C 2047.45 -0.842234 -3.30332 0
M  V30 21209 H 2048.65 -2.16727 -2.07291 0
M  V30 21210 H 2046.2 -1.15512 -1.05293 0
M  V30 21211 H 2046.93 0.124348 -3.24062 0
M  V30 21212 H 2046.72 -1.61902 -3.57114 0
M  V30 21213 H 2048.21 -0.783125 -4.10191 0
M  V30 21214 N 2048.65 1.07897 -1.14873 0
M  V30 21215 C 2049.9 1.79765 -0.914736 0
M  V30 21216 C 2050.21 1.87416 0.559879 0
M  V30 21217 O 2051.41 2.55749 0.911294 0
M  V30 21218 C 2049.87 3.23014 -1.58713 0
M  V30 21219 C 2049.48 3.23581 -3.09837 0
M  V30 21220 C 2051.22 3.99529 -1.43446 0
M  V30 21221 C 2049.13 4.6145 -3.69889 0
M  V30 21222 H 2048.06 0.673704 -0.338585 0
M  V30 21223 H 2050.71 1.21148 -1.37824 0
M  V30 21224 H 2049.09 3.8179 -1.05131 0
M  V30 21225 H 2050.27 2.74482 -3.7013 0
M  V30 21226 H 2048.58 2.60562 -3.24802 0
M  V30 21227 H 2051.18 5.01415 -1.85708 0
M  V30 21228 H 2051.52 4.14551 -0.381226 0
M  V30 21229 H 2052.05 3.47235 -1.94094 0
M  V30 21230 H 2048.79 4.51632 -4.75088 0
M  V30 21231 H 2048.31 5.10809 -3.14378 0
M  V30 21232 H 2049.99 5.30422 -3.70488 0
M  V30 21233 N 2050.12 0.944665 1.2615 0
M  V30 21234 C 2051.35 0.61007 1.97387 0
M  V30 21235 C 2051.76 -0.819956 1.70509 0
M  V30 21236 O 2051.11 -1.55879 0.971982 0
M  V30 21237 C 2051.17 0.776673 3.5101 0
M  V30 21238 C 2050.83 2.18198 4.01545 0
M  V30 21239 C 2051.83 3.15777 4.13014 0
M  V30 21240 C 2049.51 2.5035 4.35466 0
M  V30 21241 C 2051.51 4.43607 4.57703 0
M  V30 21242 C 2049.19 3.7841 4.79842 0
M  V30 21243 C 2050.19 4.74852 4.90922 0
M  V30 21244 O 2049.88 6.00632 5.34319 0
M  V30 21245 H 2049.61 0.228468 0.636222 0
M  V30 21246 H 2052.17 1.26867 1.61536 0
M  V30 21247 H 2050.4 0.0609398 3.86652 0
M  V30 21248 H 2052.09 0.44462 4.03457 0
M  V30 21249 H 2052.85 2.92263 3.8705 0
M  V30 21250 H 2048.73 1.76017 4.26074 0
M  V30 21251 H 2052.27 5.18885 4.66266 0
M  V30 21252 H 2048.17 4.01736 5.05251 0
M  V30 21253 H 2048.94 6.03864 5.52531 0
M  V30 21254 N 2051.6 -1.40596 0.712085 0
M  V30 21255 C 2052.53 -2.29193 0.0179139 0
M  V30 21256 C 2053.55 -1.45646 -0.727389 0
M  V30 21257 O 2054.74 -1.68973 -0.575349 0
M  V30 21258 C 2051.84 -3.23845 -0.998876 0
M  V30 21259 C 2051.01 -4.36229 -0.319822 0
M  V30 21260 C 2050.07 -5.11344 -1.24151 0
M  V30 21261 O 2049.09 -5.6453 -0.727627 0
M  V30 21262 N 2050.3 -5.20369 -2.57287 0
M  V30 21263 H 2053.06 -2.89409 0.778623 0
M  V30 21264 H 2050.62 -1.51928 0.559432 0
M  V30 21265 H 2052.61 -3.70968 -1.61757 0
M  V30 21266 H 2051.18 -2.64821 -1.66098 0
M  V30 21267 H 2050.4 -3.91279 0.479012 0
M  V30 21268 H 2051.69 -5.08574 0.151681 0
M  V30 21269 H 2051.09 -4.78635 -3.01538 0
M  V30 21270 H 2049.65 -5.7101 -3.14309 0
M  V30 21271 N 2053.08 -0.458013 -1.50798 0
M  V30 21272 C 2054.03 0.342913 -2.28238 0
M  V30 21273 C 2055 0.99876 -1.32718 0
M  V30 21274 O 2056.18 1.01371 -1.61643 0
M  V30 21275 C 2053.32 1.42646 -3.14239 0
M  V30 21276 C 2052.44 0.786698 -4.24776 0
M  V30 21277 C 2051.57 1.84704 -4.98054 0
M  V30 21278 C 2050.61 1.18681 -6.00484 0
M  V30 21279 N 2049.75 2.18942 -6.6709 0
M  V30 21280 H 2054.59 -0.323799 -2.96236 0
M  V30 21281 H 2052.12 -0.171528 -1.46097 0
M  V30 21282 H 2054.08 2.0662 -3.62442 0
M  V30 21283 H 2052.71 2.06252 -2.48314 0
M  V30 21284 H 2051.76 0.0347215 -3.80384 0
M  V30 21285 H 2053.08 0.264877 -4.98096 0
M  V30 21286 H 2052.23 2.5629 -5.49909 0
M  V30 21287 H 2050.97 2.40263 -4.24411 0
M  V30 21288 H 2049.97 0.45651 -5.47901 0
M  V30 21289 H 2051.2 0.638278 -6.76094 0
M  V30 21290 H 2049.14 2.73543 -5.96247 0
M  V30 21291 H 2049.06 1.71709 -7.36242 0
M  V30 21292 H 2050.33 2.89949 -7.23568 0
M  V30 21293 N 2054.56 1.56449 -0.190119 0
M  V30 21294 C 2055.84 1.89172 0.497312 0
M  V30 21295 C 2056.22 1.1029 1.79998 0
M  V30 21296 O 2055.56 0.202471 2.27601 0
M  V30 21297 C 2055.77 3.41472 0.720941 0
M  V30 21298 C 2057.12 4.11602 1.04254 0
M  V30 21299 O 2058.15 3.46895 0.808835 0
M  V30 21300 O 2057.01 5.25955 1.48438 0
M  V30 21301 H 2054.1 0.785518 0.258632 0
M  V30 21302 H 2056.65 1.68135 -0.229961 0
M  V30 21303 H 2055.42 3.90793 -0.199197 0
M  V30 21304 H 2055.04 3.68185 1.50085 0
M  V30 21305 N 2056.04 -0.0835127 1.57379 0
M  V30 21306 C 2056.95 -1.11858 2.06216 0
M  V30 21307 C 2057.96 -1.43137 0.989333 0
M  V30 21308 O 2059.14 -1.53548 1.30327 0
M  V30 21309 C 2056.2 -2.41603 2.48655 0
M  V30 21310 C 2055.27 -2.17401 3.70183 0
M  V30 21311 C 2054.5 -3.40959 4.10588 0
M  V30 21312 O 2054.72 -4.49637 3.50974 0
M  V30 21313 O 2053.66 -3.29863 5.03462 0
M  V30 21314 H 2057.48 -0.733741 2.94703 0
M  V30 21315 H 2055.07 -0.296834 1.46421 0
M  V30 21316 H 2056.95 -3.1798 2.76526 0
M  V30 21317 H 2055.62 -2.7949 1.63301 0
M  V30 21318 H 2054.53 -1.38767 3.47411 0
M  V30 21319 H 2055.86 -1.84401 4.56352 0
M  V30 21320 N 2057.52 -1.53558 -0.354624 0
M  V30 21321 C 2058.48 -1.80084 -1.41783 0
M  V30 21322 C 2059.48 -0.671552 -1.46105 0
M  V30 21323 O 2060.67 -0.939801 -1.46674 0
M  V30 21324 C 2057.8 -1.93284 -2.8081 0
M  V30 21325 H 2058.99 -2.75049 -1.19532 0
M  V30 21326 H 2056.55 -1.44802 -0.588388 0
M  V30 21327 H 2057.28 -1.00423 -3.0836 0
M  V30 21328 H 2057.07 -2.75432 -2.7907 0
M  V30 21329 H 2058.56 -2.15361 -3.57784 0
M  V30 21330 N 2058.99 0.615033 -1.45104 0
M  V30 21331 C 2059.92 1.73703 -1.56043 0
M  V30 21332 C 2060.9 1.65025 -0.412413 0
M  V30 21333 O 2062.09 1.83539 -0.634606 0
M  V30 21334 C 2059.22 3.12287 -1.51968 0
M  V30 21335 C 2058.17 3.35769 -2.65411 0
M  V30 21336 C 2057.5 4.74549 -2.46389 0
M  V30 21337 C 2058.8 3.26752 -4.07469 0
M  V30 21338 H 2060.49 1.64805 -2.4996 0
M  V30 21339 H 2058.04 0.791445 -1.203 0
M  V30 21340 H 2059.99 3.9057 -1.58219 0
M  V30 21341 H 2058.72 3.22008 -0.545769 0
M  V30 21342 H 2057.38 2.59874 -2.58575 0
M  V30 21343 H 2057.02 4.80994 -1.47153 0
M  V30 21344 H 2056.72 4.91217 -3.22458 0
M  V30 21345 H 2058.25 5.55041 -2.54482 0
M  V30 21346 H 2059.66 3.94918 -4.15587 0
M  V30 21347 H 2058.06 3.54952 -4.83869 0
M  V30 21348 H 2059.13 2.24305 -4.29902 0
M  V30 21349 N 2060.47 1.3227 0.85688 0
M  V30 21350 C 2061.42 1.17604 1.95329 0
M  V30 21351 C 2062.41 0.0835503 1.60683 0
M  V30 21352 O 2063.6 0.309827 1.74267 0
M  V30 21353 C 2060.73 0.89897 3.31321 0
M  V30 21354 C 2059.81 2.03306 3.72193 0
M  V30 21355 N 2060.2 3.28141 3.84911 0
M  V30 21356 C 2058.5 1.93573 4.01803 0
M  V30 21357 C 2059.2 4.02408 4.20051 0
M  V30 21358 N 2058.18 3.30686 4.31448 0
M  V30 21359 H 2061.98 2.12249 2.03292 0
M  V30 21360 H 2059.49 1.24017 1.0485 0
M  V30 21361 H 2061.49 0.774863 4.09636 0
M  V30 21362 H 2060.15 -0.0391247 3.24676 0
M  V30 21363 H 2061.16 3.63104 3.69291 0
M  V30 21364 H 2057.84 1.07311 4.03473 0
M  V30 21365 H 2059.23 5.10048 4.37379 0
M  V30 21366 N 2061.95 -1.07287 1.15444 0
M  V30 21367 C 2063.2 -1.80162 0.931099 0
M  V30 21368 C 2063.53 -1.8653 -0.540402 0
M  V30 21369 O 2062.8 -1.34951 -1.40066 0
M  V30 21370 C 2063.09 -3.25184 1.54685 0
M  V30 21371 C 2062.94 -3.26957 3.089 0
M  V30 21372 C 2064.26 -4.2247 1.23318 0
M  V30 21373 H 2061.38 -0.654053 0.339682 0
M  V30 21374 H 2064.02 -1.25539 1.42619 0
M  V30 21375 H 2062.17 -3.7183 1.12583 0
M  V30 21376 H 2063.84 -2.88549 3.59912 0
M  V30 21377 H 2062.08 -2.65898 3.42755 0
M  V30 21378 H 2062.76 -4.29218 3.47097 0
M  V30 21379 H 2065.23 -3.84218 1.59737 0
M  V30 21380 H 2064.11 -5.2223 1.69018 0
M  V30 21381 H 2064.37 -4.41844 0.150314 0
M  V30 21382 N 2063.43 -0.951342 -1.25647 0
M  V30 21383 C 2064.37 -0.467715 -2.26011 0
M  V30 21384 C 2065.34 0.478049 -1.59072 0
M  V30 21385 O 2066.53 0.392024 -1.86729 0
M  V30 21386 C 2063.67 0.251483 -3.44182 0
M  V30 21387 C 2062.78 -0.731135 -4.25768 0
M  V30 21388 C 2061.92 0.0102901 -5.31199 0
M  V30 21389 C 2060.96 -0.963479 -6.0447 0
M  V30 21390 N 2060.09 -0.253142 -7.01643 0
M  V30 21391 H 2064.93 -1.32847 -2.6675 0
M  V30 21392 H 2062.47 -0.666278 -1.31146 0
M  V30 21393 H 2064.43 0.685002 -4.11538 0
M  V30 21394 H 2063.06 1.07631 -3.04328 0
M  V30 21395 H 2062.11 -1.28314 -3.58106 0
M  V30 21396 H 2063.42 -1.47435 -4.76513 0
M  V30 21397 H 2062.58 0.502603 -6.04615 0
M  V30 21398 H 2061.32 0.78632 -4.81319 0
M  V30 21399 H 2060.32 -1.46682 -5.29872 0
M  V30 21400 H 2061.55 -1.73968 -6.56439 0
M  V30 21401 H 2059.49 0.50421 -6.54059 0
M  V30 21402 H 2059.41 -0.935511 -7.50189 0
M  V30 21403 H 2060.68 0.217742 -7.79196 0
M  V30 21404 N 2064.91 1.40216 -0.719531 0
M  V30 21405 C 2065.85 2.32527 -0.0584211 0
M  V30 21406 C 2066.85 1.52249 0.742746 0
M  V30 21407 O 2068.05 1.68021 0.64567 0
M  V30 21408 H 2064.43 0.752 -8.96276e-05 0
M  V30 21409 H 2066.4 2.8593 -0.853622 0
M  V30 21410 C 2065.15 3.37242 0.846339 0
M  V30 21411 H 2064.47 3.99083 0.23926 0
M  V30 21412 H 2065.91 4.04319 1.2768 0
M  V30 21413 C 2064.37 2.7304 1.9736 0
M  V30 21414 O 2064.9 2.59677 3.06481 0
M  V30 21415 N 2063.11 2.31363 1.7584 0
M  V30 21416 H 2062.65 2.42431 0.870906 0
M  V30 21417 H 2062.61 1.88744 2.51442 0
M  V30 21418 N 2066.38 0.466004 1.50553 0
M  V30 21419 C 2067.29 -0.33625 2.32178 0
M  V30 21420 C 2068.31 -1.00081 1.42337 0
M  V30 21421 O 2069.49 -0.989904 1.75393 0
M  V30 21422 C 2066.55 -1.40682 3.16875 0
M  V30 21423 C 2065.61 -0.759384 4.2253 0
M  V30 21424 C 2064.84 -1.77894 5.03179 0
M  V30 21425 O 2065.07 -3.00483 4.84836 0
M  V30 21426 O 2064 -1.35358 5.86483 0
M  V30 21427 H 2067.83 0.330908 3.01892 0
M  V30 21428 H 2065.41 0.22795 1.47651 0
M  V30 21429 H 2067.29 -2.02704 3.69444 0
M  V30 21430 H 2065.97 -2.05753 2.49894 0
M  V30 21431 H 2064.88 -0.100338 3.73965 0
M  V30 21432 H 2066.21 -0.151694 4.91966 0
M  V30 21433 N 2067.86 -1.56346 0.198413 0
M  V30 21434 C 2068.82 -2.1801 -0.707414 0
M  V30 21435 C 2069.82 -1.13547 -1.13858 0
M  V30 21436 O 2071.01 -1.38913 -1.05114 0
M  V30 21437 C 2068.15 -2.78484 -1.96621 0
M  V30 21438 H 2069.34 -2.99417 -0.170156 0
M  V30 21439 H 2066.89 -1.56216 -0.0512075 0
M  V30 21440 H 2067.63 -2.00884 -2.5459 0
M  V30 21441 H 2067.41 -3.54959 -1.66574 0
M  V30 21442 H 2068.9 -3.25823 -2.61207 0
M  V30 21443 N 2069.34 0.0751653 -1.57421 0
M  V30 21444 C 2070.59 0.776106 -1.87362 0
M  V30 21445 C 2070.92 1.77394 -0.790247 0
M  V30 21446 O 2070.19 1.93471 0.199817 0
M  V30 21447 C 2070.48 1.4871 -3.27959 0
M  V30 21448 C 2070.33 0.505905 -4.46946 0
M  V30 21449 C 2071.65 2.43284 -3.66744 0
M  V30 21450 H 2068.77 0.280684 -0.681458 0
M  V30 21451 H 2071.41 0.0393497 -1.89959 0
M  V30 21452 H 2069.56 2.11512 -3.25876 0
M  V30 21453 H 2071.23 -0.116642 -4.61153 0
M  V30 21454 H 2069.48 -0.179057 -4.3343 0
M  V30 21455 H 2070.15 1.04094 -5.42096 0
M  V30 21456 H 2072.62 1.90562 -3.69899 0
M  V30 21457 H 2071.5 2.90037 -4.66015 0
M  V30 21458 H 2071.76 3.27938 -2.96494 0
M  V30 21459 N 2070.82 1.53744 0.346476 0
M  V30 21460 C 2071.77 1.81527 1.42536 0
M  V30 21461 C 2072.74 0.660781 1.52391 0
M  V30 21462 O 2073.92 0.904918 1.67976 0
M  V30 21463 C 2071.06 2.02795 2.79228 0
M  V30 21464 C 2070.17 3.30508 2.78188 0
M  V30 21465 C 2069.31 3.41859 4.06578 0
M  V30 21466 C 2068.35 4.63532 3.99755 0
M  V30 21467 N 2067.48 4.71933 5.1983 0
M  V30 21468 H 2072.32 2.7358 1.18144 0
M  V30 21469 H 2069.86 1.35508 0.572368 0
M  V30 21470 H 2071.82 2.13115 3.58661 0
M  V30 21471 H 2070.45 1.14059 3.01978 0
M  V30 21472 H 2069.5 3.29044 1.90877 0
M  V30 21473 H 2070.81 4.20033 2.69024 0
M  V30 21474 H 2069.97 3.51595 4.94435 0
M  V30 21475 H 2068.71 2.50385 4.1852 0
M  V30 21476 H 2067.71 4.53876 3.10284 0
M  V30 21477 H 2068.94 5.56368 3.89399 0
M  V30 21478 H 2066.88 3.83367 5.32321 0
M  V30 21479 H 2066.8 5.5539 5.12911 0
M  V30 21480 H 2068.07 4.85975 6.09466 0
M  V30 21481 N 2072.3 -0.607329 1.45428 0
M  V30 21482 C 2073.23 -1.73188 1.50129 0
M  V30 21483 C 2074.24 -1.58009 0.392034 0
M  V30 21484 O 2075.43 -1.65886 0.659103 0
M  V30 21485 C 2072.53 -3.1119 1.34217 0
M  V30 21486 C 2071.7 -3.52606 2.58821 0
M  V30 21487 C 2070.76 -4.69572 2.37463 0
M  V30 21488 O 2069.79 -4.76676 3.11076 0
M  V30 21489 N 2070.99 -5.62854 1.42041 0
M  V30 21490 H 2073.76 -1.69619 2.47082 0
M  V30 21491 H 2071.32 -0.792618 1.41171 0
M  V30 21492 H 2073.31 -3.87195 1.17739 0
M  V30 21493 H 2071.88 -3.09265 0.455386 0
M  V30 21494 H 2071.1 -2.6656 2.90412 0
M  V30 21495 H 2072.39 -3.77035 3.41646 0
M  V30 21496 H 2071.78 -5.59829 0.812899 0
M  V30 21497 H 2070.34 -6.3839 1.31534 0
M  V30 21498 N 2073.77 -1.32722 -0.849853 0
M  V30 21499 C 2074.71 -1.1789 -1.96557 0
M  V30 21500 C 2075.72 -0.112655 -1.6241 0
M  V30 21501 O 2076.91 -0.362063 -1.74789 0
M  V30 21502 C 2074.01 -0.783347 -3.29722 0
M  V30 21503 C 2073.18 -1.9389 -3.92078 0
M  V30 21504 C 2072.24 -1.52611 -5.03583 0
M  V30 21505 O 2071.27 -2.23885 -5.2332 0
M  V30 21506 N 2072.47 -0.424856 -5.78943 0
M  V30 21507 H 2075.23 -2.13998 -2.09821 0
M  V30 21508 H 2072.79 -1.25323 -1.02498 0
M  V30 21509 H 2074.79 -0.489511 -4.01729 0
M  V30 21510 H 2073.36 0.0867245 -3.1248 0
M  V30 21511 H 2072.58 -2.39897 -3.12799 0
M  V30 21512 H 2073.86 -2.71238 -4.30473 0
M  V30 21513 H 2073.26 0.168251 -5.6545 0
M  V30 21514 H 2071.82 -0.190647 -6.51521 0
M  V30 21515 N 2075.25 1.06673 -1.16011 0
M  V30 21516 C 2076.53 1.76186 -0.849577 0
M  V30 21517 C 2076.91 2.00733 0.653401 0
M  V30 21518 O 2076.26 1.63135 1.59998 0
M  V30 21519 C 2076.47 3.06559 -1.66802 0
M  V30 21520 C 2077.82 3.80782 -1.87857 0
M  V30 21521 O 2078.84 3.16389 -1.63635 0
M  V30 21522 O 2077.7 4.96451 -2.2847 0
M  V30 21523 H 2074.79 0.76543 -0.313123 0
M  V30 21524 H 2077.34 1.12976 -1.26627 0
M  V30 21525 H 2076.11 2.84353 -2.68811 0
M  V30 21526 H 2075.73 3.77502 -1.24811 0
M  V30 21527 N 2076.73 0.957992 1.25141 0
M  V30 21528 C 2077.68 0.479695 2.2576 0
M  V30 21529 C 2078.65 -0.469606 1.59323 0
M  V30 21530 O 2079.83 -0.382116 1.86935 0
M  V30 21531 C 2076.97 -0.233227 3.44311 0
M  V30 21532 C 2076.09 0.753705 4.25374 0
M  V30 21533 C 2075.22 0.0178808 5.31197 0
M  V30 21534 C 2074.26 0.995522 6.0395 0
M  V30 21535 N 2073.4 0.290349 7.01499 0
M  V30 21536 H 2078.24 1.3426 2.66042 0
M  V30 21537 H 2075.77 0.673224 1.3079 0
M  V30 21538 H 2077.73 -0.663168 4.11896 0
M  V30 21539 H 2076.36 -1.06015 3.04894 0
M  V30 21540 H 2075.41 1.30212 3.5742 0
M  V30 21541 H 2076.73 1.4996 4.75724 0
M  V30 21542 H 2075.88 -0.470532 6.04873 0
M  V30 21543 H 2074.62 -0.760784 4.8173 0
M  V30 21544 H 2073.62 1.4949 5.29087 0
M  V30 21545 H 2074.85 1.77447 6.55507 0
M  V30 21546 H 2072.79 -0.469516 6.54318 0
M  V30 21547 H 2072.71 0.975282 7.49683 0
M  V30 21548 H 2073.98 -0.176416 7.793 0
M  V30 21549 N 2078.21 -1.39832 0.726957 0
M  V30 21550 C 2079.17 -2.29022 0.0903329 0
M  V30 21551 C 2080.17 -1.45921 -0.675553 0
M  V30 21552 O 2081.36 -1.66696 -0.505765 0
M  V30 21553 C 2078.49 -3.29304 -0.881584 0
M  V30 21554 H 2079.69 -2.86821 0.87601 0
M  V30 21555 H 2077.24 -1.48345 0.492294 0
M  V30 21556 H 2077.97 -2.76545 -1.69391 0
M  V30 21557 H 2077.76 -3.90665 -0.33514 0
M  V30 21558 H 2079.25 -3.96061 -1.32384 0
M  V30 21559 N 2079.69 -0.473982 -1.50304 0
M  V30 21560 C 2080.62 0.308532 -2.31453 0
M  V30 21561 C 2081.6 0.987678 -1.38488 0
M  V30 21562 O 2082.78 0.984294 -1.67408 0
M  V30 21563 C 2079.91 1.38921 -3.18305 0
M  V30 21564 C 2078.87 0.831509 -4.19845 0
M  V30 21565 C 2078.19 2.0107 -4.95454 0
M  V30 21566 C 2079.49 -0.159166 -5.22057 0
M  V30 21567 H 2081.19 -0.368757 -2.9712 0
M  V30 21568 H 2078.73 -0.178787 -1.42886 0
M  V30 21569 H 2080.69 1.94415 -3.73873 0
M  V30 21570 H 2079.41 2.09531 -2.50528 0
M  V30 21571 H 2078.07 0.298526 -3.65383 0
M  V30 21572 H 2077.72 2.70384 -4.24148 0
M  V30 21573 H 2077.42 1.64374 -5.64141 0
M  V30 21574 H 2078.94 2.57048 -5.53858 0
M  V30 21575 H 2080.35 0.306691 -5.72479 0
M  V30 21576 H 2078.75 -0.440549 -5.98481 0
M  V30 21577 H 2079.82 -1.08411 -4.72626 0
M  V30 21578 N 2081.16 1.56239 -0.206702 0
M  V30 21579 C 2082.07 2.2324 0.721172 0
M  V30 21580 C 2083.09 1.2352 1.22552 0
M  V30 21581 O 2084.27 1.56291 1.27025 0
M  V30 21582 C 2081.33 2.88767 1.91871 0
M  V30 21583 C 2080.39 4.03791 1.45779 0
M  V30 21584 C 2079.63 4.66183 2.59825 0
M  V30 21585 O 2079.85 4.27524 3.77597 0
M  V30 21586 O 2078.78 5.55444 2.31874 0
M  V30 21587 H 2082.61 3.03163 0.180488 0
M  V30 21588 H 2080.19 1.49382 0.0231036 0
M  V30 21589 H 2082.08 3.30181 2.61837 0
M  V30 21590 H 2080.75 2.11815 2.44777 0
M  V30 21591 H 2079.66 3.66976 0.726587 0
M  V30 21592 H 2080.99 4.82441 0.975269 0
M  V30 21593 N 2082.64 -0.0668159 1.57458 0
M  V30 21594 C 2083.57 -1.10569 2.00766 0
M  V30 21595 C 2084.59 -1.34696 0.914378 0
M  V30 21596 O 2085.78 -1.32848 1.19221 0
M  V30 21597 C 2082.88 -2.45556 2.33571 0
M  V30 21598 C 2082.05 -2.41316 3.64808 0
M  V30 21599 C 2081.11 -3.58451 3.85227 0
M  V30 21600 O 2080.13 -3.39654 4.56754 0
M  V30 21601 N 2081.34 -4.7898 3.27961 0
M  V30 21602 H 2084.1 -0.736847 2.90501 0
M  V30 21603 H 2081.66 -0.255392 1.59873 0
M  V30 21604 H 2083.65 -3.2257 2.44399 0
M  V30 21605 H 2082.22 -2.74424 1.497 0
M  V30 21606 H 2081.44 -1.49655 3.64688 0
M  V30 21607 H 2082.73 -2.35589 4.50972 0
M  V30 21608 H 2082.13 -4.97155 2.69913 0
M  V30 21609 H 2080.69 -5.53488 3.4423 0
M  V30 21610 N 2084.12 -1.53926 -0.338317 0
M  V30 21611 C 2085.07 -1.8228 -1.41572 0
M  V30 21612 C 2086.04 -0.668853 -1.52038 0
M  V30 21613 O 2087.22 -0.913813 -1.67494 0
M  V30 21614 C 2084.36 -2.04273 -2.78148 0
M  V30 21615 C 2083.48 -3.31978 -2.76432 0
M  V30 21616 C 2082.61 -3.44011 -4.04759 0
M  V30 21617 C 2081.65 -4.65646 -3.97292 0
M  V30 21618 N 2080.79 -4.74683 -5.1732 0
M  V30 21619 H 2085.63 -2.74202 -1.16692 0
M  V30 21620 H 2083.16 -1.35809 -0.565173 0
M  V30 21621 H 2085.12 -2.15014 -3.57526 0
M  V30 21622 H 2083.75 -1.15659 -3.01368 0
M  V30 21623 H 2082.8 -3.30052 -1.89129 0
M  V30 21624 H 2084.12 -4.21454 -2.66792 0
M  V30 21625 H 2083.27 -3.54213 -4.92563 0
M  V30 21626 H 2082.01 -2.52601 -4.17186 0
M  V30 21627 H 2081.01 -4.55516 -3.07873 0
M  V30 21628 H 2082.24 -5.58425 -3.86443 0
M  V30 21629 H 2080.19 -3.86184 -5.30281 0
M  V30 21630 H 2080.1 -5.58103 -5.09958 0
M  V30 21631 H 2081.37 -4.89201 -6.0688 0
M  V30 21632 N 2085.6 0.599608 -1.45748 0
M  V30 21633 C 2086.85 1.3557 -1.49884 0
M  V30 21634 C 2087.17 1.94459 -0.145141 0
M  V30 21635 O 2086.44 1.77615 0.82643 0
M  V30 21636 H 2085.02 0.503305 -0.551991 0
M  V30 21637 H 2087.68 0.703509 -1.8176 0
M  V30 21638 H 2086.78 2.17106 -2.24213 0
M  V30 21639 N 2087.08 1.33171 0.842803 0
M  V30 21640 C 2088.49 1.1242 1.13287 0
M  V30 21641 C 2088.69 -0.0875106 2.0131 0
M  V30 21642 O 2087.75 -0.768934 2.40507 0
M  V30 21643 C 2089.06 2.40967 1.79876 0
M  V30 21644 C 2090.61 2.46837 1.92459 0
M  V30 21645 C 2091.09 3.75336 2.62463 0
M  V30 21646 N 2092.58 3.76385 2.69979 0
M  V30 21647 C 2093.31 4.72521 3.24825 0
M  V30 21648 N 2092.81 5.7903 3.80389 0
M  V30 21649 N 2094.6 4.60002 3.2304 0
M  V30 21650 H 2086.75 2.10841 0.256882 0
M  V30 21651 H 2089.01 0.931431 0.176468 0
M  V30 21652 H 2088.72 3.29618 1.22656 0
M  V30 21653 H 2088.59 2.52821 2.79931 0
M  V30 21654 H 2090.98 1.58638 2.48833 0
M  V30 21655 H 2091.06 2.38927 0.913649 0
M  V30 21656 H 2090.71 4.63915 2.06749 0
M  V30 21657 H 2090.64 3.80521 3.64021 0
M  V30 21658 H 2093.13 2.99407 2.30573 0
M  V30 21659 H 2093.44 6.48427 4.20431 0
M  V30 21660 H 2091.79 5.8277 3.78688 0
M  V30 21661 H 2094.98 3.75953 2.78886 0
M  V30 21662 H 2095.15 5.35096 3.65482 0
M  V30 21663 N 2088.56 -1.06056 1.16576 0
M  V30 21664 C 2089.83 -1.75733 0.858908 0
M  V30 21665 C 2090.21 -2.01077 -0.642746 0
M  V30 21666 O 2089.56 -1.63981 -1.5913 0
M  V30 21667 C 2089.77 -3.0567 1.68425 0
M  V30 21668 C 2091.12 -3.7978 1.89874 0
M  V30 21669 O 2092.14 -3.15517 1.65311 0
M  V30 21670 O 2091 -4.95232 2.311 0
M  V30 21671 H 2088.1 -0.763759 0.317177 0
M  V30 21672 H 2090.64 -1.12303 1.27225 0
M  V30 21673 H 2089.41 -2.82923 2.70315 0
M  V30 21674 H 2089.04 -3.76835 1.26811 0
M  V30 21675 N 2090.03 -0.964615 -1.24631 0
M  V30 21676 C 2090.96 -0.511091 -2.27838 0
M  V30 21677 C 2091.94 0.447692 -1.64103 0
M  V30 21678 O 2093.13 0.344485 -1.9112 0
M  V30 21679 C 2090.26 0.202467 -3.46709 0
M  V30 21680 C 2089.21 -0.672032 -4.22691 0
M  V30 21681 C 2088.54 0.172842 -5.34421 0
M  V30 21682 C 2089.84 -1.9551 -4.84327 0
M  V30 21683 H 2091.53 -1.37371 -2.66025 0
M  V30 21684 H 2089.08 -0.661983 -1.27882 0
M  V30 21685 H 2091.03 0.530942 -4.18042 0
M  V30 21686 H 2089.76 1.09942 -3.07539 0
M  V30 21687 H 2088.42 -0.983734 -3.53155 0
M  V30 21688 H 2088.06 1.06985 -4.91491 0
M  V30 21689 H 2087.76 -0.409046 -5.86175 0
M  V30 21690 H 2089.29 0.496057 -6.08582 0
M  V30 21691 H 2090.7 -1.69241 -5.4775 0
M  V30 21692 H 2089.1 -2.48346 -5.46301 0
M  V30 21693 H 2090.17 -2.65197 -4.05954 0
M  V30 21694 N 2091.51 1.39445 -0.734362 0
M  V30 21695 C 2092.42 2.34405 -0.0955161 0
M  V30 21696 C 2093.44 1.58285 0.722625 0
M  V30 21697 O 2094.61 1.9058 0.65124 0
M  V30 21698 C 2091.68 3.3731 0.801447 0
M  V30 21699 C 2090.74 4.2929 -0.0288733 0
M  V30 21700 C 2089.97 5.27279 0.825373 0
M  V30 21701 O 2090.2 5.31743 2.06411 0
M  V30 21702 O 2089.13 6.01362 0.254373 0
M  V30 21703 H 2092.96 2.90693 -0.879273 0
M  V30 21704 H 2090.54 1.4096 -0.495025 0
M  V30 21705 H 2092.42 4.00368 1.31468 0
M  V30 21706 H 2091.1 2.83408 1.56403 0
M  V30 21707 H 2090 3.69456 -0.587608 0
M  V30 21708 H 2091.34 4.86396 -0.753661 0
M  V30 21709 N 2092.99 0.481946 1.5005 0
M  V30 21710 C 2093.92 -0.343006 2.26619 0
M  V30 21711 C 2094.93 -0.947538 1.32384 0
M  V30 21712 O 2096.12 -0.834105 1.57813 0
M  V30 21713 C 2093.22 -1.49609 3.0409 0
M  V30 21714 C 2092.4 -1.00236 4.2576 0
M  V30 21715 C 2091.46 -2.03077 4.85434 0
M  V30 21716 O 2090.48 -1.607 5.46044 0
M  V30 21717 N 2091.68 -3.35975 4.73393 0
M  V30 21718 H 2094.45 0.313457 2.98056 0
M  V30 21719 H 2092.01 0.313362 1.58838 0
M  V30 21720 H 2094 -2.18123 3.40888 0
M  V30 21721 H 2092.57 -2.05705 2.35381 0
M  V30 21722 H 2091.79 -0.14274 3.93941 0
M  V30 21723 H 2093.08 -0.650587 5.04623 0
M  V30 21724 H 2092.48 -3.73107 4.25215 0
M  V30 21725 H 2091.03 -4.00256 5.1443 0
M  V30 21726 N 2094.47 -1.56127 0.214985 0
M  V30 21727 C 2095.41 -2.19998 -0.697834 0
M  V30 21728 C 2096.38 -1.15346 -1.19518 0
M  V30 21729 O 2097.57 -1.43676 -1.25547 0
M  V30 21730 C 2094.71 -2.87874 -1.90323 0
M  V30 21731 C 2093.82 -4.07102 -1.44539 0
M  V30 21732 C 2092.96 -4.6278 -2.60784 0
M  V30 21733 C 2092 -5.74324 -2.11705 0
M  V30 21734 N 2091.13 -6.24321 -3.21198 0
M  V30 21735 H 2095.97 -2.9764 -0.146443 0
M  V30 21736 H 2093.51 -1.46975 -0.0605317 0
M  V30 21737 H 2095.47 -3.25408 -2.61085 0
M  V30 21738 H 2094.1 -2.12761 -2.42761 0
M  V30 21739 H 2093.15 -3.75098 -0.632926 0
M  V30 21740 H 2094.46 -4.87721 -1.04546 0
M  V30 21741 H 2093.62 -5.02723 -3.39639 0
M  V30 21742 H 2092.36 -3.8131 -3.04062 0
M  V30 21743 H 2091.36 -5.33889 -1.31309 0
M  V30 21744 H 2092.59 -6.57624 -1.69434 0
M  V30 21745 H 2090.53 -5.45767 -3.6397 0
M  V30 21746 H 2090.45 -7.00044 -2.85437 0
M  V30 21747 H 2091.72 -6.6892 -4.00208 0
M  V30 21748 N 2095.95 0.0584645 -1.57492 0
M  V30 21749 C 2097.22 0.788828 -1.78988 0
M  V30 21750 C 2097.6 1.95112 -0.805878 0
M  V30 21751 O 2096.95 2.27951 0.158244 0
M  V30 21752 C 2097.16 1.24936 -3.25871 0
M  V30 21753 C 2098.51 1.67732 -3.90066 0
M  V30 21754 O 2099.53 1.34469 -3.29843 0
M  V30 21755 O 2098.39 2.29361 -4.9604 0
M  V30 21756 H 2095.49 0.379032 -0.735027 0
M  V30 21757 H 2098.03 0.0375096 -1.69659 0
M  V30 21758 H 2096.8 0.418302 -3.89058 0
M  V30 21759 H 2096.43 2.06159 -3.39977 0
M  V30 21760 N 2097.42 1.54103 0.330149 0
M  V30 21761 C 2098.65 1.75948 1.08857 0
M  V30 21762 C 2099.07 0.504949 1.81922 0
M  V30 21763 O 2098.42 -0.524053 1.74814 0
M  V30 21764 C 2098.47 2.94836 2.09175 0
M  V30 21765 O 2098.2 4.15438 1.39079 0
M  V30 21766 C 2099.7 3.28839 2.97287 0
M  V30 21767 H 2096.92 0.587551 0.324076 0
M  V30 21768 H 2099.46 2.00971 0.378279 0
M  V30 21769 H 2097.62 2.72105 2.75749 0
M  V30 21770 H 2098.03 4.82266 2.06204 0
M  V30 21771 H 2099.5 4.15343 3.63586 0
M  V30 21772 H 2099.98 2.4572 3.64031 0
M  V30 21773 H 2100.59 3.53624 2.36284 0
M  V30 21774 N 2098.9 -0.59187 1.46064 0
M  V30 21775 C 2099.87 -1.68357 1.55526 0
M  V30 21776 C 2100.87 -1.54854 0.433247 0
M  V30 21777 O 2102.06 -1.59637 0.697258 0
M  V30 21778 C 2099.19 -3.07729 1.46683 0
M  V30 21779 H 2100.38 -1.61328 2.5281 0
M  V30 21780 H 2097.93 -0.808941 1.33738 0
M  V30 21781 H 2098.67 -3.20321 0.506433 0
M  V30 21782 H 2098.45 -3.18939 2.2808 0
M  V30 21783 H 2099.94 -3.87218 1.5637 0
M  V30 21784 N 2100.38 -1.33616 -0.835729 0
M  V30 21785 C 2101.31 -1.26762 -1.96096 0
M  V30 21786 C 2102.29 -0.147563 -1.69459 0
M  V30 21787 O 2103.48 -0.33785 -1.91239 0
M  V30 21788 C 2100.61 -1.00927 -3.32312 0
M  V30 21789 C 2099.56 -2.09261 -3.73355 0
M  V30 21790 C 2098.89 -1.68635 -5.07411 0
M  V30 21791 C 2100.19 -3.50968 -3.86806 0
M  V30 21792 H 2101.88 -2.20908 -2.02089 0
M  V30 21793 H 2099.43 -1.06346 -0.970907 0
M  V30 21794 H 2101.38 -0.947809 -4.10603 0
M  V30 21795 H 2100.1 -0.0322023 -3.26584 0
M  V30 21796 H 2098.76 -2.14455 -2.97329 0
M  V30 21797 H 2098.41 -0.696223 -4.98158 0
M  V30 21798 H 2098.11 -2.41134 -5.35844 0
M  V30 21799 H 2099.63 -1.63961 -5.88175 0
M  V30 21800 H 2101.05 -3.48257 -4.55401 0
M  V30 21801 H 2099.45 -4.21978 -4.26678 0
M  V30 21802 H 2100.52 -3.89244 -2.89166 0
M  V30 21803 N 2101.86 1.05436 -1.17136 0
M  V30 21804 C 2102.77 2.16633 -0.900413 0
M  V30 21805 C 2103.78 1.7351 0.130523 0
M  V30 21806 O 2104.96 2.01342 -0.0481629 0
M  V30 21807 C 2102.03 3.4421 -0.414754 0
M  V30 21808 C 2101.09 4.01793 -1.51198 0
M  V30 21809 C 2100.32 5.23281 -1.0494 0
M  V30 21810 O 2100.54 5.70317 0.0974405 0
M  V30 21811 O 2099.48 5.73041 -1.8414 0
M  V30 21812 H 2103.3 2.42336 -1.83049 0
M  V30 21813 H 2100.89 1.15137 -0.952042 0
M  V30 21814 H 2102.77 4.21128 -0.151319 0
M  V30 21815 H 2101.44 3.20013 0.487199 0
M  V30 21816 H 2100.35 3.26326 -1.82926 0
M  V30 21817 H 2101.68 4.30304 -2.38955 0
M  V30 21818 N 2103.34 0.971211 1.24118 0
M  V30 21819 C 2104.27 0.462026 2.24495 0
M  V30 21820 C 2105.28 -0.431143 1.56987 0
M  V30 21821 O 2106.47 -0.236754 1.76923 0
M  V30 21822 C 2103.57 -0.351913 3.37068 0
M  V30 21823 C 2102.74 0.532187 4.3415 0
M  V30 21824 C 2101.8 -0.22634 5.25713 0
M  V30 21825 O 2100.83 0.380923 5.67924 0
M  V30 21826 N 2102.03 -1.51493 5.60384 0
M  V30 21827 H 2104.8 1.32507 2.68816 0
M  V30 21828 H 2102.36 0.843431 1.38195 0
M  V30 21829 H 2104.35 -0.867478 3.95293 0
M  V30 21830 H 2102.92 -1.1159 2.92004 0
M  V30 21831 H 2102.14 1.22869 3.74562 0
M  V30 21832 H 2103.43 1.13503 4.95978 0
M  V30 21833 H 2102.82 -2.02997 5.28023 0
M  V30 21834 H 2101.38 -1.97612 6.21122 0
M  V30 21835 N 2104.81 -1.39054 0.741747 0
M  V30 21836 C 2105.76 -2.30556 0.106197 0
M  V30 21837 C 2106.73 -1.49566 -0.722434 0
M  V30 21838 O 2107.92 -1.78233 -0.681008 0
M  V30 21839 C 2105.06 -3.35936 -0.790013 0
M  V30 21840 C 2104.17 -4.31969 0.051964 0
M  V30 21841 C 2103.3 -5.24418 -0.846146 0
M  V30 21842 C 2102.34 -6.121 0.000177444 0
M  V30 21843 N 2101.48 -6.96884 -0.854237 0
M  V30 21844 H 2106.32 -2.84333 0.892113 0
M  V30 21845 H 2103.86 -1.39997 0.451583 0
M  V30 21846 H 2105.82 -3.95629 -1.32413 0
M  V30 21847 H 2104.45 -2.83597 -1.54183 0
M  V30 21848 H 2103.5 -3.73837 0.70358 0
M  V30 21849 H 2104.81 -4.93777 0.706061 0
M  V30 21850 H 2103.96 -5.8917 -1.44786 0
M  V30 21851 H 2102.7 -4.62947 -1.53401 0
M  V30 21852 H 2101.71 -5.46353 0.614648 0
M  V30 21853 H 2102.93 -6.75637 0.684921 0
M  V30 21854 H 2100.88 -6.37974 -1.52727 0
M  V30 21855 H 2100.8 -7.55564 -0.256771 0
M  V30 21856 H 2102.06 -7.66059 -1.4413 0
M  V30 21857 N 2106.29 -0.489897 -1.49792 0
M  V30 21858 C 2107.57 0.121028 -1.95225 0
M  V30 21859 C 2107.95 1.55194 -1.43101 0
M  V30 21860 O 2107.3 2.19354 -0.639992 0
M  V30 21861 C 2107.51 0.045071 -3.48971 0
M  V30 21862 C 2108.86 0.224571 -4.24006 0
M  V30 21863 O 2109.88 0.120781 -3.55995 0
M  V30 21864 O 2108.74 0.436269 -5.44756 0
M  V30 21865 H 2105.83 0.101395 -0.820761 0
M  V30 21866 H 2108.38 -0.551643 -1.60484 0
M  V30 21867 H 2107.15 -0.953242 -3.79512 0
M  V30 21868 H 2106.77 0.758377 -3.903 0
M  V30 21869 N 2107.77 1.56011 -0.223262 0
M  V30 21870 C 2108.72 2.20365 0.686157 0
M  V30 21871 C 2109.69 1.15978 1.18905 0
M  V30 21872 O 2110.87 1.44339 1.24783 0
M  V30 21873 C 2108.01 2.88879 1.88793 0
M  V30 21874 C 2107.13 4.07863 1.42378 0
M  V30 21875 C 2106.26 4.64156 2.58326 0
M  V30 21876 C 2105.3 5.75438 2.08656 0
M  V30 21877 N 2104.44 6.26015 3.17883 0
M  V30 21878 H 2109.28 2.97713 0.130656 0
M  V30 21879 H 2106.81 1.47005 0.0527363 0
M  V30 21880 H 2108.77 3.26788 2.59356 0
M  V30 21881 H 2107.4 2.14045 2.41629 0
M  V30 21882 H 2106.45 3.75428 0.613024 0
M  V30 21883 H 2107.77 4.88268 1.01958 0
M  V30 21884 H 2106.92 5.04517 3.36968 0
M  V30 21885 H 2105.66 3.82918 3.02035 0
M  V30 21886 H 2104.66 5.34578 1.28476 0
M  V30 21887 H 2105.89 6.58513 1.65944 0
M  V30 21888 H 2103.83 5.4769 3.61071 0
M  V30 21889 H 2103.75 7.01548 2.8172 0
M  V30 21890 H 2105.02 6.71033 3.96655 0
M  V30 21891 N 2109.25 -0.0501116 1.5752 0
M  V30 21892 C 2110.21 -1.0417 2.0416 0
M  V30 21893 C 2111.21 -1.30309 0.942133 0
M  V30 21894 O 2112.4 -1.25665 1.20639 0
M  V30 21895 C 2109.53 -2.37997 2.4407 0
M  V30 21896 H 2110.73 -0.639249 2.93008 0
M  V30 21897 H 2108.28 -0.296417 1.53464 0
M  V30 21898 H 2109.01 -2.83032 1.58314 0
M  V30 21899 H 2108.8 -2.2036 3.2432 0
M  V30 21900 H 2110.29 -3.09229 2.80654 0
M  V30 21901 N 2110.73 -1.54276 -0.321972 0
M  V30 21902 C 2111.66 -1.86766 -1.40146 0
M  V30 21903 C 2112.64 -0.724601 -1.53895 0
M  V30 21904 O 2113.82 -0.978478 -1.67748 0
M  V30 21905 C 2110.95 -2.09642 -2.76889 0
M  V30 21906 C 2109.91 -3.25485 -2.77927 0
M  V30 21907 C 2109.23 -3.33736 -4.17761 0
M  V30 21908 C 2110.53 -4.63097 -2.41533 0
M  V30 21909 H 2112.23 -2.77174 -1.13204 0
M  V30 21910 H 2109.77 -1.33364 -0.543134 0
M  V30 21911 H 2111.73 -2.30955 -3.52474 0
M  V30 21912 H 2110.45 -1.15985 -3.05311 0
M  V30 21913 H 2109.11 -3.04062 -2.04798 0
M  V30 21914 H 2108.76 -2.37634 -4.43327 0
M  V30 21915 H 2108.46 -4.11594 -4.19362 0
M  V30 21916 H 2109.98 -3.57285 -4.95156 0
M  V30 21917 H 2111.39 -4.84281 -3.06831 0
M  V30 21918 H 2109.79 -5.43516 -2.54382 0
M  V30 21919 H 2110.86 -4.65238 -1.3668 0
M  V30 21920 N 2112.2 0.584116 -1.46376 0
M  V30 21921 C 2113.11 1.72116 -1.59415 0
M  V30 21922 C 2114.13 1.67314 -0.477692 0
M  V30 21923 O 2115.31 1.87248 -0.74162 0
M  V30 21924 C 2112.37 3.08617 -1.57975 0
M  V30 21925 C 2111.43 3.24694 -2.80842 0
M  V30 21926 C 2110.67 4.54683 -2.79462 0
M  V30 21927 O 2110.89 5.38484 -1.88126 0
M  V30 21928 O 2109.82 4.73977 -3.70985 0
M  V30 21929 H 2113.65 1.64062 -2.55572 0
M  V30 21930 H 2111.23 0.750995 -1.29153 0
M  V30 21931 H 2113.12 3.899 -1.59863 0
M  V30 21932 H 2111.79 3.17111 -0.649775 0
M  V30 21933 H 2110.7 2.4291 -2.84509 0
M  V30 21934 H 2112.03 3.2109 -3.73044 0
M  V30 21935 N 2113.68 1.34058 0.828631 0
M  V30 21936 C 2115.09 1.2341 1.40095 0
M  V30 21937 C 2115.45 -0.142779 1.9568 0
M  V30 21938 O 2114.57 -1.04286 1.89614 0
M  V30 21939 C 2115.17 2.23441 2.54675 0
M  V30 21940 C 2113.72 2.16602 3.07832 0
M  V30 21941 C 2112.87 2.1036 1.80676 0
M  V30 21942 H 2115.82 1.45507 0.633514 0
M  V30 21943 H 2115.84 1.84809 3.32605 0
M  V30 21944 H 2115.36 3.23642 2.1419 0
M  V30 21945 H 2113.46 1.19738 3.52836 0
M  V30 21946 H 2113.57 3.07604 3.6731 0
M  V30 21947 H 2111.93 1.55992 2.01342 0
M  V30 21948 H 2112.72 3.12386 1.42373 0
M  V30 21949 N 2115.16 -1.04814 1.17694 0
M  V30 21950 C 2116.11 -2.12651 0.897118 0
M  V30 21951 C 2117.08 -1.65323 -0.160501 0
M  V30 21952 O 2118.26 -1.90787 -0.0224765 0
M  V30 21953 C 2115.4 -3.42526 0.420731 0
M  V30 21954 C 2114.52 -4.03508 1.54291 0
M  V30 21955 C 2113.65 -5.21315 1.02001 0
M  V30 21956 C 2112.69 -5.74311 2.11738 0
M  V30 21957 N 2111.83 -6.83415 1.60897 0
M  V30 21958 H 2116.67 -2.35925 1.82054 0
M  V30 21959 H 2114.2 -1.15736 0.907948 0
M  V30 21960 H 2116.16 -4.1701 0.126057 0
M  V30 21961 H 2114.79 -3.19423 -0.46572 0
M  V30 21962 H 2113.84 -3.26425 1.95323 0
M  V30 21963 H 2115.16 -4.38876 2.37042 0
M  V30 21964 H 2114.31 -6.02884 0.679408 0
M  V30 21965 H 2113.05 -4.87431 0.161982 0
M  V30 21966 H 2112.05 -4.91369 2.46651 0
M  V30 21967 H 2113.28 -6.10242 2.97963 0
M  V30 21968 H 2111.23 -6.51421 0.773715 0
M  V30 21969 H 2111.14 -7.17807 2.37252 0
M  V30 21970 H 2112.41 -7.68627 1.29741 0
M  V30 21971 N 2116.64 -0.977779 -1.23601 0
M  V30 21972 C 2117.92 -0.561714 -1.87361 0
M  V30 21973 C 2118.3 0.961166 -1.87949 0
M  V30 21974 O 2117.64 1.83678 -1.35922 0
M  V30 21975 C 2117.85 -1.16478 -3.28989 0
M  V30 21976 C 2119.2 -1.2559 -4.05601 0
M  V30 21977 O 2120.23 -1.11804 -3.38199 0
M  V30 21978 O 2119.09 -1.47493 -5.2622 0
M  V30 21979 H 2116.18 -0.18876 -0.80517 0
M  V30 21980 H 2118.73 -1.07269 -1.31497 0
M  V30 21981 H 2117.5 -2.20711 -3.23114 0
M  V30 21982 H 2117.12 -0.638457 -3.9244 0
M  V30 21983 N 2118.12 1.38658 -0.749111 0
M  V30 21984 C 2119.06 2.30496 -0.118423 0
M  V30 21985 C 2120.03 1.49947 0.714492 0
M  V30 21986 O 2121.22 1.78591 0.671546 0
M  V30 21987 C 2118.36 3.3635 0.772186 0
M  V30 21988 C 2117.47 4.31935 -0.0748716 0
M  V30 21989 C 2116.61 5.24859 0.818323 0
M  V30 21990 C 2115.65 6.12091 -0.0326386 0
M  V30 21991 N 2114.78 6.97327 0.817267 0
M  V30 21992 H 2119.62 2.83856 -0.90718 0
M  V30 21993 H 2117.16 1.39755 -0.459001 0
M  V30 21994 H 2119.12 3.96326 1.30313 0
M  V30 21995 H 2117.75 2.84411 1.52677 0
M  V30 21996 H 2116.8 3.73458 -0.723395 0
M  V30 21997 H 2118.11 4.93396 -0.732237 0
M  V30 21998 H 2117.27 5.8993 1.4166 0
M  V30 21999 H 2116.01 4.63754 1.50943 0
M  V30 22000 H 2115.01 5.4602 -0.643614 0
M  V30 22001 H 2116.24 6.75264 -0.720742 0
M  V30 22002 H 2114.18 6.38775 1.49341 0
M  V30 22003 H 2114.1 7.55689 0.216698 0
M  V30 22004 H 2115.37 7.66813 1.40066 0
M  V30 22005 N 2119.6 0.497834 1.49531 0
M  V30 22006 C 2120.87 -0.110673 1.95287 0
M  V30 22007 C 2121.25 -1.54433 1.43923 0
M  V30 22008 O 2120.6 -2.19012 0.651616 0
M  V30 22009 C 2120.81 -0.0265636 3.4899 0
M  V30 22010 C 2122.16 -0.202082 4.24119 0
M  V30 22011 O 2123.18 -0.1019 3.56054 0
M  V30 22012 O 2122.04 -0.407373 5.4498 0
M  V30 22013 H 2119.14 -0.0970406 0.821287 0
M  V30 22014 H 2121.68 0.560146 1.60189 0
M  V30 22015 H 2120.45 0.973355 3.79001 0
M  V30 22016 H 2120.08 -0.737668 3.90697 0
M  V30 22017 N 2121.07 -1.5589 0.231532 0
M  V30 22018 C 2122 -2.23713 -0.66894 0
M  V30 22019 C 2122.98 -1.21219 -1.19332 0
M  V30 22020 O 2124.17 -1.49831 -1.23549 0
M  V30 22021 C 2121.3 -2.92476 -1.87284 0
M  V30 22022 C 2120.25 -4.01527 -1.48189 0
M  V30 22023 C 2119.58 -4.57637 -2.76537 0
M  V30 22024 C 2120.88 -5.18057 -0.664415 0
M  V30 22025 H 2122.57 -2.99221 -0.103437 0
M  V30 22026 H 2120.12 -1.43919 -0.0483103 0
M  V30 22027 H 2122.07 -3.38617 -2.50831 0
M  V30 22028 H 2120.8 -2.14431 -2.46347 0
M  V30 22029 H 2119.46 -3.56131 -0.869833 0
M  V30 22030 H 2119.1 -3.7631 -3.33766 0
M  V30 22031 H 2118.8 -5.31242 -2.51108 0
M  V30 22032 H 2120.33 -5.06503 -3.41009 0
M  V30 22033 H 2121.74 -5.60519 -1.20382 0
M  V30 22034 H 2120.14 -5.97956 -0.506811 0
M  V30 22035 H 2121.21 -4.83798 0.326792 0
M  V30 22036 N 2122.55 0.0417572 -1.57545 0
M  V30 22037 C 2123.46 1.06351 -2.09109 0
M  V30 22038 C 2124.48 1.40464 -1.02694 0
M  V30 22039 O 2125.65 1.50038 -1.34352 0
M  V30 22040 C 2122.72 2.34925 -2.54973 0
M  V30 22041 C 2121.78 2.0751 -3.75816 0
M  V30 22042 C 2121.01 3.29954 -4.19483 0
M  V30 22043 O 2121.24 4.40174 -3.62772 0
M  V30 22044 O 2120.17 3.16399 -5.12031 0
M  V30 22045 H 2124 0.655348 -2.96545 0
M  V30 22046 H 2121.58 0.257909 -1.47157 0
M  V30 22047 H 2123.46 3.10537 -2.84859 0
M  V30 22048 H 2122.14 2.75062 -1.70653 0
M  V30 22049 H 2121.04 1.29507 -3.50968 0
M  V30 22050 H 2122.38 1.72237 -4.61081 0
M  V30 22051 N 2124.03 1.54445 0.313786 0
M  V30 22052 C 2124.94 1.87547 1.40937 0
M  V30 22053 C 2125.96 0.768341 1.56117 0
M  V30 22054 O 2127.13 1.06358 1.71026 0
M  V30 22055 C 2124.2 2.10467 2.75508 0
M  V30 22056 C 2123.26 3.34232 2.69421 0
M  V30 22057 C 2122.49 3.56049 3.97574 0
M  V30 22058 O 2122.71 2.81118 4.96316 0
M  V30 22059 O 2121.65 4.49546 4.0024 0
M  V30 22060 H 2125.47 2.80728 1.15868 0
M  V30 22061 H 2123.06 1.40473 0.508698 0
M  V30 22062 H 2124.94 2.26817 3.55151 0
M  V30 22063 H 2123.62 1.20474 3.00446 0
M  V30 22064 H 2122.52 3.23259 1.88294 0
M  V30 22065 H 2123.86 4.24314 2.49436 0
M  V30 22066 N 2125.51 -0.576345 1.46683 0
M  V30 22067 C 2126.45 -1.68494 1.57729 0
M  V30 22068 C 2127.42 -1.6067 0.421246 0
M  V30 22069 O 2128.61 -1.79788 0.638829 0
M  V30 22070 C 2125.75 -3.0683 1.57953 0
M  V30 22071 C 2124.86 -3.25233 2.84337 0
M  V30 22072 C 2124 -4.53855 2.76024 0
M  V30 22073 C 2123.04 -4.65623 3.97319 0
M  V30 22074 N 2122.17 -5.85578 3.87354 0
M  V30 22075 H 2127.01 -1.58391 2.52421 0
M  V30 22076 H 2124.55 -0.771863 1.25223 0
M  V30 22077 H 2126.51 -3.86909 1.56068 0
M  V30 22078 H 2125.14 -3.15815 0.667889 0
M  V30 22079 H 2124.19 -2.38715 2.96174 0
M  V30 22080 H 2125.5 -3.29795 3.74215 0
M  V30 22081 H 2124.66 -5.4217 2.72281 0
M  V30 22082 H 2123.4 -4.51741 1.83797 0
M  V30 22083 H 2122.4 -3.75724 4.01387 0
M  V30 22084 H 2123.63 -4.69511 4.90649 0
M  V30 22085 H 2121.57 -5.84449 2.97918 0
M  V30 22086 H 2121.49 -5.91436 4.70892 0
M  V30 22087 H 2122.76 -6.76306 3.87596 0
M  V30 22088 N 2126.99 -1.34495 -0.82151 0
M  V30 22089 C 2128.26 -1.17511 -1.56367 0
M  V30 22090 C 2128.64 0.251735 -2.09594 0
M  V30 22091 O 2127.99 1.25325 -1.91065 0
M  V30 22092 C 2128.2 -2.23083 -2.68393 0
M  V30 22093 C 2129.55 -2.58132 -3.37124 0
M  V30 22094 O 2130.57 -2.21883 -2.78651 0
M  V30 22095 O 2129.43 -3.20405 -4.42722 0
M  V30 22096 H 2126.53 -0.455611 -0.690179 0
M  V30 22097 H 2129.07 -1.46132 -0.862761 0
M  V30 22098 H 2127.84 -3.1885 -2.26827 0
M  V30 22099 H 2127.47 -1.95647 -3.46133 0
M  V30 22100 N 2128.46 1.04188 -1.18248 0
M  V30 22101 C 2129.41 2.12172 -0.908383 0
M  V30 22102 C 2130.38 1.65406 0.151732 0
M  V30 22103 O 2131.57 1.90796 0.0123583 0
M  V30 22104 C 2128.71 3.42298 -0.43889 0
M  V30 22105 C 2127.82 4.02684 -1.56428 0
M  V30 22106 C 2126.95 5.20767 -1.04764 0
M  V30 22107 C 2125.99 5.7318 -2.14781 0
M  V30 22108 N 2125.13 6.82553 -1.64519 0
M  V30 22109 H 2129.97 2.34956 -1.83302 0
M  V30 22110 H 2127.51 1.15252 -0.914073 0
M  V30 22111 H 2129.47 4.16937 -0.14817 0
M  V30 22112 H 2128.1 3.19665 0.448774 0
M  V30 22113 H 2127.15 3.25384 -1.97051 0
M  V30 22114 H 2128.46 4.37613 -2.39366 0
M  V30 22115 H 2127.61 6.02515 -0.711371 0
M  V30 22116 H 2126.35 4.87338 -0.18783 0
M  V30 22117 H 2125.36 4.90054 -2.49253 0
M  V30 22118 H 2126.58 6.08653 -3.01195 0
M  V30 22119 H 2124.53 6.51002 -0.808251 0
M  V30 22120 H 2124.45 7.16539 -2.41056 0
M  V30 22121 H 2125.71 7.67928 -1.33815 0
M  V30 22122 N 2129.94 0.98432 1.23081 0
M  V30 22123 C 2130.91 0.532738 2.22923 0
M  V30 22124 C 2131.91 -0.379759 1.56251 0
M  V30 22125 O 2133.1 -0.172906 1.7334 0
M  V30 22126 C 2130.23 -0.226262 3.40148 0
M  V30 22127 H 2131.42 1.41558 2.64388 0
M  V30 22128 H 2128.97 0.77062 1.35982 0
M  V30 22129 H 2129.71 -1.12547 3.04144 0
M  V30 22130 H 2129.49 0.428801 3.89748 0
M  V30 22131 H 2130.98 -0.530671 4.14214 0
M  V30 22132 N 2131.42 -1.38259 0.756453 0
M  V30 22133 C 2132.35 -2.33042 0.146158 0
M  V30 22134 C 2133.33 -1.55012 -0.700373 0
M  V30 22135 O 2134.52 -1.83317 -0.640972 0
M  V30 22136 C 2131.65 -3.39202 -0.745585 0
M  V30 22137 C 2130.6 -4.28 -0.00155995 0
M  V30 22138 C 2129.93 -5.25041 -1.01174 0
M  V30 22139 C 2131.23 -5.09061 1.16852 0
M  V30 22140 H 2132.92 -2.84329 0.937934 0
M  V30 22141 H 2130.47 -1.36706 0.452478 0
M  V30 22142 H 2132.42 -4.04477 -1.18223 0
M  V30 22143 H 2131.14 -2.86405 -1.56971 0
M  V30 22144 H 2129.8 -3.64236 0.415692 0
M  V30 22145 H 2129.45 -4.68529 -1.83001 0
M  V30 22146 H 2129.15 -5.85307 -0.518554 0
M  V30 22147 H 2130.67 -5.93191 -1.44764 0
M  V30 22148 H 2132.09 -5.67559 0.809284 0
M  V30 22149 H 2130.49 -5.78577 1.59276 0
M  V30 22150 H 2131.56 -4.42631 1.98004 0
M  V30 22151 N 2132.9 -0.505757 -1.49264 0
M  V30 22152 C 2133.81 0.274574 -2.32988 0
M  V30 22153 C 2134.82 0.962724 -1.4494 0
M  V30 22154 O 2136 0.943054 -1.77956 0
M  V30 22155 C 2133.07 1.32231 -3.20493 0
M  V30 22156 C 2132.13 0.64709 -4.24395 0
M  V30 22157 C 2131.36 1.6449 -5.07719 0
M  V30 22158 O 2131.58 2.87523 -4.92632 0
M  V30 22159 O 2130.52 1.19761 -5.89865 0
M  V30 22160 H 2134.34 -0.410833 -3.00908 0
M  V30 22161 H 2131.93 -0.267017 -1.46994 0
M  V30 22162 H 2133.81 1.92838 -3.74689 0
M  V30 22163 H 2132.48 1.99056 -2.55262 0
M  V30 22164 H 2131.39 0.00115278 -3.741 0
M  V30 22165 H 2132.72 0.0212046 -4.92195 0
M  V30 22166 N 2134.38 1.55765 -0.239796 0
M  V30 22167 C 2135.31 2.18397 0.695377 0
M  V30 22168 C 2136.32 1.15822 1.14407 0
M  V30 22169 O 2137.51 1.4272 1.07207 0
M  V30 22170 C 2134.61 2.76755 1.95601 0
M  V30 22171 C 2133.78 4.0468 1.65992 0
M  V30 22172 C 2132.84 4.47425 2.76943 0
M  V30 22173 O 2131.87 5.13949 2.44632 0
M  V30 22174 N 2133.07 4.14619 4.0629 0
M  V30 22175 H 2135.84 2.99275 0.15952 0
M  V30 22176 H 2133.4 1.61791 -0.0594819 0
M  V30 22177 H 2135.39 3.02313 2.69052 0
M  V30 22178 H 2133.96 2.00075 2.40185 0
M  V30 22179 H 2133.18 3.86786 0.760934 0
M  V30 22180 H 2134.47 4.88096 1.43664 0
M  V30 22181 H 2133.86 3.61198 4.35376 0
M  V30 22182 H 2132.42 4.45028 4.76228 0
M  V30 22183 N 2135.85 -0.0334016 1.57565 0
M  V30 22184 C 2136.8 -1.03536 2.06274 0
M  V30 22185 C 2137.77 -1.36182 0.950989 0
M  V30 22186 O 2138.96 -1.46593 1.22127 0
M  V30 22187 C 2136.1 -2.33256 2.54334 0
M  V30 22188 C 2135.21 -2.06807 3.79282 0
M  V30 22189 C 2134.34 -3.30365 4.15971 0
M  V30 22190 C 2133.38 -2.99452 5.33849 0
M  V30 22191 N 2132.52 -4.15449 5.65991 0
M  V30 22192 H 2137.36 -0.613034 2.91626 0
M  V30 22193 H 2134.9 -0.291083 1.44191 0
M  V30 22194 H 2136.86 -3.09044 2.80264 0
M  V30 22195 H 2135.49 -2.73219 1.71905 0
M  V30 22196 H 2134.54 -1.21536 3.60463 0
M  V30 22197 H 2135.85 -1.8 4.6519 0
M  V30 22198 H 2135 -4.14524 4.43007 0
M  V30 22199 H 2133.74 -3.60282 3.28706 0
M  V30 22200 H 2132.75 -2.13695 5.06571 0
M  V30 22201 H 2133.97 -2.70817 6.22764 0
M  V30 22202 H 2131.92 -4.45326 4.81686 0
M  V30 22203 H 2131.84 -3.9205 6.464 0
M  V30 22204 H 2133.1 -5.00494 5.976 0
M  V30 22205 N 2137.33 -1.54609 -0.305591 0
M  V30 22206 C 2138.61 -1.64344 -1.06068 0
M  V30 22207 C 2138.99 -0.488774 -2.05364 0
M  V30 22208 O 2138.34 0.515015 -2.2262 0
M  V30 22209 C 2138.55 -3.02149 -1.74663 0
M  V30 22210 C 2139.9 -3.58808 -2.27029 0
M  V30 22211 O 2140.92 -3.04571 -1.84703 0
M  V30 22212 O 2139.78 -4.53762 -3.04568 0
M  V30 22213 H 2136.87 -0.666216 -0.489984 0
M  V30 22214 H 2139.42 -1.66954 -0.304046 0
M  V30 22215 H 2138.19 -3.77626 -1.02538 0
M  V30 22216 H 2137.81 -3.03296 -2.57094 0
M  V30 22217 N 2138.81 0.568558 -1.46987 0
M  V30 22218 C 2139.76 1.67655 -1.5862 0
M  V30 22219 C 2140.73 1.60444 -0.429761 0
M  V30 22220 O 2141.91 1.79446 -0.648355 0
M  V30 22221 C 2139.05 3.05988 -1.59578 0
M  V30 22222 C 2138.17 3.2372 -2.86058 0
M  V30 22223 C 2137.3 4.52385 -2.78427 0
M  V30 22224 C 2136.34 4.63509 -3.99782 0
M  V30 22225 N 2135.48 5.83515 -3.90454 0
M  V30 22226 H 2140.32 1.5705 -2.53257 0
M  V30 22227 H 2137.85 0.765211 -1.2563 0
M  V30 22228 H 2139.81 3.86076 -1.58118 0
M  V30 22229 H 2138.44 3.15456 -0.684628 0
M  V30 22230 H 2137.49 2.37141 -2.97436 0
M  V30 22231 H 2138.81 3.27806 -3.75959 0
M  V30 22232 H 2137.96 5.40718 -2.75152 0
M  V30 22233 H 2136.7 4.5076 -1.86191 0
M  V30 22234 H 2135.7 3.7359 -4.03374 0
M  V30 22235 H 2136.93 4.66902 -4.93132 0
M  V30 22236 H 2134.87 5.82861 -3.01013 0
M  V30 22237 H 2134.79 5.8893 -4.74022 0
M  V30 22238 H 2136.06 6.74241 -3.91177 0
M  V30 22239 N 2140.29 1.34929 0.814366 0
M  V30 22240 C 2141.54 1.27105 1.56612 0
M  V30 22241 C 2141.85 -0.154812 1.94986 0
M  V30 22242 O 2143.06 -0.355268 2.69166 0
M  V30 22243 C 2141.51 2.22863 2.82595 0
M  V30 22244 C 2141.12 3.70753 2.51489 0
M  V30 22245 C 2142.86 2.23965 3.6061 0
M  V30 22246 C 2140.77 4.58355 3.73717 0
M  V30 22247 H 2139.7 0.472214 0.587818 0
M  V30 22248 H 2142.35 1.60146 0.895848 0
M  V30 22249 H 2140.73 1.82784 3.51292 0
M  V30 22250 H 2141.91 4.19421 1.90848 0
M  V30 22251 H 2140.22 3.72182 1.86733 0
M  V30 22252 H 2142.82 2.86634 4.51381 0
M  V30 22253 H 2143.16 1.24126 3.97364 0
M  V30 22254 H 2143.7 2.62533 2.98866 0
M  V30 22255 H 2140.44 5.59163 3.42077 0
M  V30 22256 H 2139.96 4.14418 4.3361 0
M  V30 22257 H 2141.63 4.73391 4.41033 0
M  V30 22258 N 2141.77 -1.0356 1.18799 0
M  V30 22259 C 2143.18 -1.58299 0.989867 0
M  V30 22260 C 2143.53 -1.90754 -0.459077 0
M  V30 22261 O 2142.65 -1.70132 -1.33731 0
M  V30 22262 C 2143.25 -2.8762 1.79054 0
M  V30 22263 C 2141.81 -3.38957 1.63662 0
M  V30 22264 C 2140.95 -2.12479 1.7818 0
M  V30 22265 H 2143.91 -0.861694 1.33269 0
M  V30 22266 H 2143.93 -3.5823 1.28263 0
M  V30 22267 H 2143.44 -2.63967 2.84505 0
M  V30 22268 H 2141.54 -3.67611 0.607689 0
M  V30 22269 H 2141.65 -4.12441 2.43781 0
M  V30 22270 H 2140.02 -2.24028 1.21176 0
M  V30 22271 H 2140.8 -1.91275 2.85076 0
M  V30 22272 N 2143.25 -0.990834 -1.22557 0
M  V30 22273 C 2144.16 -0.548263 -2.28104 0
M  V30 22274 C 2145.17 0.401961 -1.69293 0
M  V30 22275 O 2146.35 0.269304 -1.99591 0
M  V30 22276 C 2143.41 0.132121 -3.46448 0
M  V30 22277 C 2142.47 -0.860806 -4.20581 0
M  V30 22278 C 2141.71 -0.212796 -5.33276 0
M  V30 22279 O 2141.93 0.993773 -5.61676 0
M  V30 22280 O 2140.86 -0.916619 -5.9488 0
M  V30 22281 H 2144.69 -1.4263 -2.68124 0
M  V30 22282 H 2142.27 -0.758979 -1.28685 0
M  V30 22283 H 2144.16 0.513325 -4.18262 0
M  V30 22284 H 2142.83 0.984754 -3.08357 0
M  V30 22285 H 2141.74 -1.2929 -3.51048 0
M  V30 22286 H 2143.07 -1.68257 -4.62548 0
M  V30 22287 N 2144.72 1.37856 -0.763775 0
M  V30 22288 C 2145.63 2.3415 -0.145216 0
M  V30 22289 C 2146.65 1.59782 0.688888 0
M  V30 22290 O 2147.83 1.91919 0.610668 0
M  V30 22291 C 2144.89 3.38934 0.729718 0
M  V30 22292 C 2143.95 4.29132 -0.119926 0
M  V30 22293 C 2143.18 5.28911 0.713343 0
M  V30 22294 O 2143.41 5.36002 1.95086 0
M  V30 22295 O 2142.34 6.01767 0.126758 0
M  V30 22296 H 2146.17 2.88763 -0.940736 0
M  V30 22297 H 2143.75 1.39879 -0.524814 0
M  V30 22298 H 2145.63 4.03066 1.22946 0
M  V30 22299 H 2144.31 2.86661 1.50356 0
M  V30 22300 H 2143.22 3.68127 -0.665843 0
M  V30 22301 H 2144.55 4.84688 -0.856664 0
M  V30 22302 N 2146.2 0.513665 1.48994 0
M  V30 22303 C 2147.15 -0.257967 2.29354 0
M  V30 22304 C 2148.12 -0.948815 1.36333 0
M  V30 22305 O 2149.3 -0.953018 1.65294 0
M  V30 22306 C 2146.44 -1.30885 3.19317 0
M  V30 22307 C 2145.56 -0.628503 4.27404 0
M  V30 22308 C 2144.69 -1.66091 5.04566 0
M  V30 22309 C 2143.73 -0.963129 6.04475 0
M  V30 22310 N 2142.87 -1.94033 6.74756 0
M  V30 22311 H 2147.71 0.433522 2.9483 0
M  V30 22312 H 2145.24 0.225633 1.45359 0
M  V30 22313 H 2147.2 -1.93026 3.69861 0
M  V30 22314 H 2145.83 -1.96894 2.55798 0
M  V30 22315 H 2144.88 0.10648 3.80251 0
M  V30 22316 H 2146.2 -0.0798289 4.98736 0
M  V30 22317 H 2145.35 -2.35704 5.59043 0
M  V30 22318 H 2144.09 -2.24346 4.33036 0
M  V30 22319 H 2143.09 -0.252846 5.49218 0
M  V30 22320 H 2144.32 -0.386911 6.77997 0
M  V30 22321 H 2142.27 -2.51226 6.05988 0
M  V30 22322 H 2142.18 -1.44265 7.42107 0
M  V30 22323 H 2143.45 -2.62894 7.3383 0
M  V30 22324 N 2147.68 -1.55636 0.248053 0
M  V30 22325 C 2148.96 -1.90888 -0.426759 0
M  V30 22326 C 2149.34 -1.16894 -1.75781 0
M  V30 22327 O 2148.68 -0.286804 -2.26693 0
M  V30 22328 C 2148.89 -3.43913 -0.593709 0
M  V30 22329 C 2150.24 -4.15188 -0.889059 0
M  V30 22330 O 2151.27 -3.49658 -0.67953 0
M  V30 22331 O 2150.13 -5.31102 -1.28815 0
M  V30 22332 H 2147.22 -0.794576 -0.2293 0
M  V30 22333 H 2149.77 -1.67165 0.292205 0
M  V30 22334 H 2148.54 -3.89784 0.3441 0
M  V30 22335 H 2148.16 -3.73502 -1.36317 0
M  V30 22336 N 2149.16 0.0250451 -1.5758 0
M  V30 22337 C 2150.1 1.02441 -2.0682 0
M  V30 22338 C 2151.07 1.35675 -0.958198 0
M  V30 22339 O 2152.26 1.45944 -1.22903 0
M  V30 22340 C 2149.4 2.31904 -2.55567 0
M  V30 22341 C 2148.51 2.04792 -3.80374 0
M  V30 22342 C 2147.65 3.28155 -4.17718 0
M  V30 22343 C 2146.69 2.96616 -5.3543 0
M  V30 22344 N 2145.82 4.12442 -5.68187 0
M  V30 22345 H 2150.66 0.59756 -2.91947 0
M  V30 22346 H 2148.2 0.283432 -1.44344 0
M  V30 22347 H 2150.16 3.07553 -2.81899 0
M  V30 22348 H 2148.79 2.72304 -1.73351 0
M  V30 22349 H 2147.84 1.19622 -3.61102 0
M  V30 22350 H 2149.15 1.7753 -4.66138 0
M  V30 22351 H 2148.31 4.12169 -4.45199 0
M  V30 22352 H 2147.05 3.58534 -3.30612 0
M  V30 22353 H 2146.05 2.11005 -5.07698 0
M  V30 22354 H 2147.28 2.67511 -6.24191 0
M  V30 22355 H 2145.22 4.42765 -4.84041 0
M  V30 22356 H 2145.14 3.88617 -6.4847 0
M  V30 22357 H 2146.41 4.97317 -6.00246 0
M  V30 22358 N 2150.64 1.54769 0.297388 0
M  V30 22359 C 2151.6 1.85222 1.35002 0
M  V30 22360 C 2152.6 0.725316 1.43512 0
M  V30 22361 O 2153.79 0.993591 1.43085 0
M  V30 22362 C 2150.92 2.03573 2.73443 0
M  V30 22363 H 2152.11 2.79296 1.09241 0
M  V30 22364 H 2149.67 1.46886 0.53424 0
M  V30 22365 H 2150.4 1.11799 3.0442 0
M  V30 22366 H 2150.19 2.85599 2.68655 0
M  V30 22367 H 2151.68 2.28492 3.49545 0
M  V30 22368 N 2152.11 -0.560755 1.47286 0
M  V30 22369 C 2153.04 -1.67792 1.62383 0
M  V30 22370 C 2154.02 -1.6338 0.473377 0
M  V30 22371 O 2155.21 -1.81057 0.702288 0
M  V30 22372 C 2152.34 -3.06431 1.63454 0
M  V30 22373 C 2151.29 -3.25688 2.7769 0
M  V30 22374 C 2150.62 -4.65078 2.63831 0
M  V30 22375 C 2151.92 -3.11404 4.19315 0
M  V30 22376 H 2153.61 -1.55414 2.55904 0
M  V30 22377 H 2151.16 -0.746251 1.23155 0
M  V30 22378 H 2153.11 -3.84428 1.72606 0
M  V30 22379 H 2151.84 -3.1976 0.664904 0
M  V30 22380 H 2150.5 -2.50098 2.68042 0
M  V30 22381 H 2150.14 -4.75201 1.64904 0
M  V30 22382 H 2149.84 -4.78911 3.40467 0
M  V30 22383 H 2151.37 -5.45214 2.74907 0
M  V30 22384 H 2152.78 -3.79222 4.29958 0
M  V30 22385 H 2151.18 -3.36749 4.9671 0
M  V30 22386 H 2152.25 -2.08195 4.3793 0
M  V30 22387 N 2153.59 -1.35359 -0.807199 0
M  V30 22388 C 2154.5 -1.30342 -1.9506 0
M  V30 22389 C 2155.52 -0.208425 -1.72747 0
M  V30 22390 O 2156.69 -0.437692 -1.96586 0
M  V30 22391 C 2153.76 -1.07437 -3.29633 0
M  V30 22392 C 2152.82 -2.26243 -3.64846 0
M  V30 22393 C 2152.05 -2.04423 -4.92998 0
M  V30 22394 O 2152.28 -1.01037 -5.6138 0
M  V30 22395 O 2151.21 -2.91769 -5.26455 0
M  V30 22396 H 2155.04 -2.26568 -2.02239 0
M  V30 22397 H 2152.62 -1.15724 -0.944893 0
M  V30 22398 H 2154.5 -0.9651 -4.102 0
M  V30 22399 H 2153.18 -0.142618 -3.23386 0
M  V30 22400 H 2152.08 -2.42735 -2.84659 0
M  V30 22401 H 2153.42 -3.17864 -3.75797 0
M  V30 22402 N 2155.07 1.02928 -1.19346 0
M  V30 22403 C 2156 2.11274 -0.888596 0
M  V30 22404 C 2157.01 1.62368 0.118528 0
M  V30 22405 O 2158.2 1.78156 -0.11083 0
M  V30 22406 C 2155.3 3.37494 -0.30841 0
M  V30 22407 C 2154.48 4.15589 -1.36399 0
M  V30 22408 C 2153.54 5.20123 -0.797421 0
M  V30 22409 O 2152.56 5.49756 -1.47501 0
M  V30 22410 N 2153.76 5.79124 0.399478 0
M  V30 22411 H 2156.53 2.38018 -1.8212 0
M  V30 22412 H 2154.09 1.19216 -1.09541 0
M  V30 22413 H 2156.08 4.04612 0.0844572 0
M  V30 22414 H 2154.65 3.08101 0.528465 0
M  V30 22415 H 2153.87 3.43625 -1.93172 0
M  V30 22416 H 2155.16 4.64553 -2.07529 0
M  V30 22417 H 2154.56 5.57365 0.967492 0
M  V30 22418 H 2153.11 6.47653 0.734129 0
M  V30 22419 N 2156.55 0.997319 1.2203 0
M  V30 22420 C 2157.49 0.551276 2.2412 0
M  V30 22421 C 2158.46 -0.418681 1.60737 0
M  V30 22422 O 2159.65 -0.322451 1.88056 0
M  V30 22423 C 2156.79 -0.123569 3.44879 0
M  V30 22424 C 2155.9 0.888653 4.22761 0
M  V30 22425 C 2155.04 0.186868 5.30871 0
M  V30 22426 C 2154.08 1.18716 6.00477 0
M  V30 22427 N 2153.21 0.513378 7.00221 0
M  V30 22428 H 2158.05 1.42656 2.61636 0
M  V30 22429 H 2155.59 0.714493 1.28582 0
M  V30 22430 H 2157.55 -0.53179 4.13797 0
M  V30 22431 H 2156.18 -0.962614 3.08113 0
M  V30 22432 H 2155.23 1.41517 3.53096 0
M  V30 22433 H 2156.54 1.65019 4.70712 0
M  V30 22434 H 2155.7 -0.277858 6.06063 0
M  V30 22435 H 2154.44 -0.60714 4.83906 0
M  V30 22436 H 2153.44 1.66247 5.24063 0
M  V30 22437 H 2154.67 1.98212 6.4953 0
M  V30 22438 H 2152.61 -0.261113 6.5548 0
M  V30 22439 H 2152.53 1.21329 7.462 0
M  V30 22440 H 2153.8 0.0716018 7.79467 0
M  V30 22441 N 2158.03 -1.37449 0.771075 0
M  V30 22442 C 2159.3 -1.93866 0.259851 0
M  V30 22443 C 2159.68 -1.7048 -1.24498 0
M  V30 22444 O 2159.03 -1.05322 -2.0278 0
M  V30 22445 C 2159.24 -3.4322 0.63251 0
M  V30 22446 C 2160.59 -4.20312 0.601925 0
M  V30 22447 O 2161.61 -3.5158 0.571859 0
M  V30 22448 O 2160.47 -5.42875 0.628405 0
M  V30 22449 H 2157.57 -0.824843 0.0596922 0
M  V30 22450 H 2160.11 -1.4674 0.852382 0
M  V30 22451 H 2158.88 -3.53822 1.6711 0
M  V30 22452 H 2158.51 -3.97598 0.0128904 0
M  V30 22453 N 2159.5 -0.52156 -1.4872 0
M  V30 22454 C 2160.73 0.0117966 -2.06897 0
M  V30 22455 C 2161.15 1.28928 -1.37924 0
M  V30 22456 O 2160.5 1.76502 -0.464046 0
M  V30 22457 C 2160.56 0.248161 -3.60647 0
M  V30 22458 O 2160.28 -0.978703 -4.27028 0
M  V30 22459 C 2161.78 0.822848 -4.35596 0
M  V30 22460 H 2159 -0.0297145 -0.670342 0
M  V30 22461 H 2161.54 -0.724798 -1.91225 0
M  V30 22462 H 2159.7 0.934783 -3.75953 0
M  V30 22463 H 2160.11 -0.754221 -5.19049 0
M  V30 22464 H 2161.58 0.937703 -5.43977 0
M  V30 22465 H 2162.06 1.82571 -3.99455 0
M  V30 22466 H 2162.67 0.173056 -4.24948 0
M  V30 22467 N 2160.98 1.55502 -0.256304 0
M  V30 22468 C 2161.95 2.20485 0.626014 0
M  V30 22469 C 2162.95 1.17694 1.09566 0
M  V30 22470 O 2164.14 1.42718 0.998856 0
M  V30 22471 C 2161.27 2.85589 1.86149 0
M  V30 22472 H 2162.46 2.99842 0.0589124 0
M  V30 22473 H 2160.01 1.56299 -0.0068064 0
M  V30 22474 H 2160.75 2.10195 2.46959 0
M  V30 22475 H 2160.53 3.60896 1.53285 0
M  V30 22476 H 2162.02 3.35293 2.48935 0
M  V30 22477 N 2162.46 -0.0166879 1.57591 0
M  V30 22478 C 2163.39 -1.01268 2.10398 0
M  V30 22479 C 2164.37 -1.36922 1.00928 0
M  V30 22480 O 2165.56 -1.45589 1.2852 0
M  V30 22481 C 2162.69 -2.30979 2.59357 0
M  V30 22482 C 2161.64 -2.09533 3.73202 0
M  V30 22483 C 2160.97 -3.45113 4.08413 0
M  V30 22484 C 2162.27 -1.47144 5.01145 0
M  V30 22485 H 2163.96 -0.573053 2.93865 0
M  V30 22486 H 2161.51 -0.274203 1.41365 0
M  V30 22487 H 2163.46 -3.00996 2.94923 0
M  V30 22488 H 2162.18 -2.77024 1.72989 0
M  V30 22489 H 2160.84 -1.41946 3.38004 0
M  V30 22490 H 2160.49 -3.88829 3.19094 0
M  V30 22491 H 2160.19 -3.31585 4.85104 0
M  V30 22492 H 2161.71 -4.16472 4.46524 0
M  V30 22493 H 2163.13 -2.07094 5.34588 0
M  V30 22494 H 2161.53 -1.44154 5.82529 0
M  V30 22495 H 2162.6 -0.438665 4.82912 0
M  V30 22496 N 2163.94 -1.54924 -0.289176 0
M  V30 22497 C 2164.85 -1.89766 -1.37935 0
M  V30 22498 C 2165.86 -0.793081 -1.54875 0
M  V30 22499 O 2167.04 -1.09065 -1.69312 0
M  V30 22500 C 2164.11 -2.14824 -2.72124 0
M  V30 22501 C 2163.17 -3.38476 -2.64069 0
M  V30 22502 C 2162.4 -3.62329 -3.91859 0
M  V30 22503 O 2162.62 -2.88978 -4.9178 0
M  V30 22504 O 2161.56 -4.55856 -3.93038 0
M  V30 22505 H 2165.38 -2.82536 -1.11387 0
M  V30 22506 H 2162.97 -1.41264 -0.486286 0
M  V30 22507 H 2164.85 -2.32438 -3.51498 0
M  V30 22508 H 2163.52 -1.25238 -2.98491 0
M  V30 22509 H 2162.43 -3.26213 -1.83127 0
M  V30 22510 H 2163.76 -4.28229 -2.42654 0
M  V30 22511 N 2165.42 0.552936 -1.47582 0
M  V30 22512 C 2166.35 1.67497 -1.56453 0
M  V30 22513 C 2167.36 1.56445 -0.450408 0
M  V30 22514 O 2168.55 1.63325 -0.720217 0
M  V30 22515 C 2165.65 3.05994 -1.45674 0
M  V30 22516 C 2164.82 3.42757 -2.71729 0
M  V30 22517 C 2163.88 4.60435 -2.54727 0
M  V30 22518 O 2162.91 4.64802 -3.28554 0
M  V30 22519 N 2164.11 5.57194 -1.62833 0
M  V30 22520 H 2166.88 1.60332 -2.53207 0
M  V30 22521 H 2164.44 0.739677 -1.44015 0
M  V30 22522 H 2166.43 3.82558 -1.32028 0
M  V30 22523 H 2165 3.07362 -0.569854 0
M  V30 22524 H 2164.22 2.55598 -3.00106 0
M  V30 22525 H 2165.51 3.64095 -3.55404 0
M  V30 22526 H 2164.9 5.56426 -1.02012 0
M  V30 22527 H 2163.46 6.33068 -1.55137 0
M  V30 22528 N 2166.89 1.35785 0.800009 0
M  V30 22529 C 2167.84 1.29246 1.91217 0
M  V30 22530 C 2168.81 0.16314 1.65297 0
M  V30 22531 O 2170 0.347924 1.87601 0
M  V30 22532 C 2167.14 1.07697 3.27865 0
M  V30 22533 C 2166.25 2.2961 3.65928 0
M  V30 22534 C 2165.38 2.01158 4.91639 0
M  V30 22535 C 2164.42 3.19089 5.22349 0
M  V30 22536 N 2163.56 2.90371 6.39241 0
M  V30 22537 H 2168.4 2.24348 1.96142 0
M  V30 22538 H 2165.94 1.11515 0.959316 0
M  V30 22539 H 2167.9 0.93233 4.06649 0
M  V30 22540 H 2166.53 0.162546 3.2239 0
M  V30 22541 H 2165.58 2.54915 2.82351 0
M  V30 22542 H 2166.89 3.1765 3.84578 0
M  V30 22543 H 2166.04 1.83563 5.78264 0
M  V30 22544 H 2164.78 1.10413 4.75037 0
M  V30 22545 H 2163.79 3.37255 4.34211 0
M  V30 22546 H 2165.01 4.10645 5.40877 0
M  V30 22547 H 2162.96 2.02227 6.24052 0
M  V30 22548 H 2162.88 3.71946 6.58173 0
M  V30 22549 H 2164.14 2.76331 7.28877 0
M  V30 22550 N 2168.37 -1.02294 1.19891 0
M  V30 22551 C 2169.65 -1.72912 0.914382 0
M  V30 22552 C 2170.03 -2.0302 -0.57845 0
M  V30 22553 O 2169.38 -1.68961 -1.53833 0
M  V30 22554 C 2169.59 -3.00157 1.78064 0
M  V30 22555 C 2170.94 -3.73547 2.0186 0
M  V30 22556 O 2171.96 -3.10098 1.75265 0
M  V30 22557 O 2170.82 -4.87629 2.46738 0
M  V30 22558 H 2167.91 -0.753281 0.341315 0
M  V30 22559 H 2170.46 -1.08199 1.30733 0
M  V30 22560 H 2169.23 -2.7418 2.79179 0
M  V30 22561 H 2168.85 -3.7261 1.38736 0
M  V30 22562 N 2169.85 -1.00378 -1.21499 0
M  V30 22563 C 2170.8 -0.563153 -2.23824 0
M  V30 22564 C 2171.77 0.410151 -1.60956 0
M  V30 22565 O 2172.95 0.312473 -1.88224 0
M  V30 22566 C 2170.09 0.105277 -3.44939 0
M  V30 22567 C 2169.21 -0.91106 -4.22284 0
M  V30 22568 C 2168.34 -0.215019 -5.30765 0
M  V30 22569 C 2167.38 -1.21899 -5.99839 0
M  V30 22570 N 2166.52 -0.550506 -6.99938 0
M  V30 22571 H 2171.36 -1.44041 -2.60876 0
M  V30 22572 H 2168.89 -0.721302 -1.28202 0
M  V30 22573 H 2170.85 0.509838 -4.14073 0
M  V30 22574 H 2169.48 0.946261 -3.08619 0
M  V30 22575 H 2168.53 -1.43387 -3.52341 0
M  V30 22576 H 2169.85 -1.67513 -4.69831 0
M  V30 22577 H 2169 0.245713 -6.06202 0
M  V30 22578 H 2167.74 0.581469 -4.84221 0
M  V30 22579 H 2166.74 -1.69024 -5.23174 0
M  V30 22580 H 2167.97 -2.01654 -6.48469 0
M  V30 22581 H 2165.91 0.226347 -6.55609 0
M  V30 22582 H 2165.83 -1.25285 -7.45547 0
M  V30 22583 H 2167.1 -0.112938 -7.79418 0
M  V30 22584 N 2171.33 1.37038 -0.778354 0
M  V30 22585 C 2172.29 2.28529 -0.175271 0
M  V30 22586 C 2173.29 1.48328 0.62093 0
M  V30 22587 O 2174.48 1.68459 0.443548 0
M  V30 22588 C 2171.61 3.32349 0.758757 0
M  V30 22589 H 2172.81 2.83372 -0.981858 0
M  V30 22590 H 2170.36 1.46415 -0.547012 0
M  V30 22591 H 2171.09 2.82642 1.5901 0
M  V30 22592 H 2170.88 3.9164 0.189916 0
M  V30 22593 H 2172.37 4.00701 1.17594 0
M  V30 22594 N 2172.81 0.529439 1.48441 0
M  V30 22595 C 2173.74 -0.222417 2.32438 0
M  V30 22596 C 2174.72 -0.935598 1.42058 0
M  V30 22597 O 2175.9 -0.921483 1.70945 0
M  V30 22598 C 2173.03 -1.27012 3.23242 0
M  V30 22599 C 2171.99 -0.675114 4.22642 0
M  V30 22600 C 2171.31 -1.82543 5.02576 0
M  V30 22601 C 2172.61 0.352815 5.21107 0
M  V30 22602 H 2174.31 0.478777 2.95547 0
M  V30 22603 H 2171.85 0.231695 1.42124 0
M  V30 22604 H 2173.81 -1.80405 3.80831 0
M  V30 22605 H 2172.53 -2.00089 2.58132 0
M  V30 22606 H 2171.19 -0.162711 3.66239 0
M  V30 22607 H 2170.84 -2.54456 4.33891 0
M  V30 22608 H 2170.54 -1.43323 5.69853 0
M  V30 22609 H 2172.06 -2.36315 5.63017 0
M  V30 22610 H 2173.48 -0.0940075 5.73223 0
M  V30 22611 H 2171.87 0.662368 5.96433 0
M  V30 22612 H 2172.94 1.25877 4.68277 0
M  V30 22613 N 2174.29 -1.55364 0.264547 0
M  V30 22614 C 2175.2 -2.25763 -0.637821 0
M  V30 22615 C 2176.21 -1.27983 -1.17883 0
M  V30 22616 O 2177.39 -1.60897 -1.21136 0
M  V30 22617 C 2174.45 -2.95689 -1.81021 0
M  V30 22618 C 2173.51 -4.08923 -1.30693 0
M  V30 22619 C 2172.75 -4.75505 -2.42344 0
M  V30 22620 O 2172.97 -4.41244 -3.61469 0
M  V30 22621 O 2171.9 -5.63667 -2.111 0
M  V30 22622 H 2175.73 -3.03624 -0.0678471 0
M  V30 22623 H 2173.31 -1.49365 0.0323545 0
M  V30 22624 H 2175.2 -3.39671 -2.49402 0
M  V30 22625 H 2173.87 -2.20754 -2.36747 0
M  V30 22626 H 2172.78 -3.6942 -0.589885 0
M  V30 22627 H 2174.11 -4.85728 -0.795542 0
M  V30 22628 N 2175.76 0.00833021 -1.57598 0
M  V30 22629 C 2177.17 0.552246 -1.78346 0
M  V30 22630 C 2177.53 1.74433 -0.898189 0
M  V30 22631 O 2176.65 2.16176 -0.098451 0
M  V30 22632 C 2177.25 1.00862 -3.23438 0
M  V30 22633 C 2175.8 1.4979 -3.45311 0
M  V30 22634 C 2174.95 0.445309 -2.73701 0
M  V30 22635 H 2177.9 -0.217862 -1.57197 0
M  V30 22636 H 2177.92 1.87504 -3.31093 0
M  V30 22637 H 2177.44 0.140794 -3.87845 0
M  V30 22638 H 2175.54 2.38689 -2.86109 0
M  V30 22639 H 2175.65 1.53111 -4.53976 0
M  V30 22640 H 2174.01 0.90507 -2.38077 0
M  V30 22641 H 2174.8 -0.413406 -3.40802 0
M  V30 22642 N 2177.24 1.55075 0.280956 0
M  V30 22643 C 2178.19 1.87409 1.34709 0
M  V30 22644 C 2179.16 0.72482 1.49451 0
M  V30 22645 O 2180.34 0.975348 1.63987 0
M  V30 22646 C 2177.48 2.14456 2.70375 0
M  V30 22647 C 2176.6 3.42009 2.6392 0
M  V30 22648 C 2175.73 3.58796 3.91713 0
M  V30 22649 C 2174.77 4.8007 3.79736 0
M  V30 22650 N 2173.91 4.93556 4.99346 0
M  V30 22651 H 2178.75 2.78344 1.06435 0
M  V30 22652 H 2176.28 1.37813 0.514379 0
M  V30 22653 H 2178.24 2.28135 3.493 0
M  V30 22654 H 2176.87 1.26764 2.96868 0
M  V30 22655 H 2175.92 3.36844 1.7675 0
M  V30 22656 H 2177.24 4.31065 2.50967 0
M  V30 22657 H 2176.39 3.7225 4.79077 0
M  V30 22658 H 2175.13 2.6791 4.07524 0
M  V30 22659 H 2174.13 4.66628 2.90754 0
M  V30 22660 H 2175.36 5.72383 3.65451 0
M  V30 22661 H 2173.31 4.05599 5.15582 0
M  V30 22662 H 2173.22 5.76645 4.88893 0
M  V30 22663 H 2174.49 5.11387 5.88305 0
M  V30 22664 N 2178.72 -0.545102 1.47873 0
M  V30 22665 C 2180 -1.30611 1.45603 0
M  V30 22666 C 2180.38 -2.10497 0.159489 0
M  V30 22667 O 2179.72 -2.11741 -0.85895 0
M  V30 22668 C 2179.93 -2.20038 2.70895 0
M  V30 22669 C 2181.28 -2.80668 3.18608 0
M  V30 22670 O 2182.31 -2.30334 2.71707 0
M  V30 22671 O 2181.17 -3.72185 4.00176 0
M  V30 22672 H 2178.26 -0.588726 0.580802 0
M  V30 22673 H 2180.81 -0.563004 1.60089 0
M  V30 22674 H 2179.58 -1.6069 3.56784 0
M  V30 22675 H 2179.2 -3.01622 2.59056 0
M  V30 22676 N 2180.2 -1.36208 -0.792797 0
M  V30 22677 C 2181.14 -1.30258 -1.90529 0
M  V30 22678 C 2182.11 -0.171903 -1.65208 0
M  V30 22679 O 2183.3 -0.357869 -1.87414 0
M  V30 22680 C 2180.44 -1.09434 -3.27289 0
M  V30 22681 C 2179.55 -2.31548 -3.64705 0
M  V30 22682 C 2178.69 -2.03763 -4.90565 0
M  V30 22683 C 2177.73 -3.21855 -5.20649 0
M  V30 22684 N 2176.86 -2.93756 -6.37692 0
M  V30 22685 H 2181.7 -2.25385 -1.9495 0
M  V30 22686 H 2179.24 -1.12022 -0.953389 0
M  V30 22687 H 2181.2 -0.953883 -4.06149 0
M  V30 22688 H 2179.83 -0.179641 -3.223 0
M  V30 22689 H 2178.88 -2.56409 -2.80996 0
M  V30 22690 H 2180.19 -3.19685 -3.82888 0
M  V30 22691 H 2179.35 -1.86627 -5.77283 0
M  V30 22692 H 2178.09 -1.12931 -4.74445 0
M  V30 22693 H 2177.09 -3.39553 -4.32416 0
M  V30 22694 H 2178.32 -4.13507 -5.38691 0
M  V30 22695 H 2176.26 -2.05533 -6.2297 0
M  V30 22696 H 2176.18 -3.75431 -6.56192 0
M  V30 22697 H 2177.45 -2.80192 -7.27401 0
M  V30 22698 N 2181.68 1.01656 -1.20431 0
M  V30 22699 C 2182.95 1.72424 -0.923539 0
M  V30 22700 C 2183.33 2.03324 0.567675 0
M  V30 22701 O 2182.68 1.69774 1.52935 0
M  V30 22702 C 2182.89 2.99208 -1.79654 0
M  V30 22703 C 2184.24 3.72472 -2.03838 0
M  V30 22704 O 2185.26 3.09164 -1.76907 0
M  V30 22705 O 2184.12 4.86314 -2.49321 0
M  V30 22706 H 2181.22 0.751461 -0.345305 0
M  V30 22707 H 2183.76 1.07504 -1.31305 0
M  V30 22708 H 2182.53 2.72695 -2.80629 0
M  V30 22709 H 2182.16 3.71869 -1.4071 0
M  V30 22710 N 2183.15 1.01021 1.20965 0
M  V30 22711 C 2184.08 0.5953 2.25784 0
M  V30 22712 C 2185.06 -0.386477 1.65651 0
M  V30 22713 O 2186.25 -0.273315 1.92267 0
M  V30 22714 C 2183.38 -0.0736489 3.47222 0
M  V30 22715 C 2182.33 0.828449 4.19906 0
M  V30 22716 C 2181.66 0.0256242 5.34694 0
M  V30 22717 C 2182.96 2.13351 4.76737 0
M  V30 22718 H 2184.65 1.4715 2.60744 0
M  V30 22719 H 2182.2 0.70899 1.25337 0
M  V30 22720 H 2184.15 -0.375423 4.19724 0
M  V30 22721 H 2182.88 -0.984519 3.11408 0
M  V30 22722 H 2181.54 1.11413 3.4926 0
M  V30 22723 H 2181.18 -0.886697 4.95123 0
M  V30 22724 H 2180.88 0.626319 5.84253 0
M  V30 22725 H 2182.41 -0.269844 6.10003 0
M  V30 22726 H 2183.82 1.89453 5.41092 0
M  V30 22727 H 2182.22 2.68451 5.36707 0
M  V30 22728 H 2183.29 2.80081 3.95832 0
M  V30 22729 N 2184.63 -1.36623 0.78561 0
M  V30 22730 C 2185.54 -2.33889 0.182448 0
M  V30 22731 C 2186.56 -1.60858 -0.66338 0
M  V30 22732 O 2187.73 -1.92866 -0.580058 0
M  V30 22733 C 2184.8 -3.40052 -0.675704 0
M  V30 22734 C 2183.86 -4.28887 0.188182 0
M  V30 22735 C 2183.09 -5.29979 -0.629108 0
M  V30 22736 O 2183.32 -5.39037 -1.86534 0
M  V30 22737 O 2182.25 -6.01892 -0.0310062 0
M  V30 22738 H 2186.08 -2.87229 0.986556 0
M  V30 22739 H 2183.66 -1.39026 0.547001 0
M  V30 22740 H 2185.54 -4.04971 -1.16518 0
M  V30 22741 H 2184.22 -2.89017 -1.45777 0
M  V30 22742 H 2183.12 -3.67021 0.724325 0
M  V30 22743 H 2184.46 -4.83263 0.933665 0
M  V30 22744 N 2186.11 -0.537304 -1.48158 0
M  V30 22745 C 2187.04 0.258662 -2.27736 0
M  V30 22746 C 2188.05 0.897752 -1.3581 0
M  V30 22747 O 2189.24 0.774959 -1.608 0
M  V30 22748 C 2186.34 1.38219 -3.09433 0
M  V30 22749 C 2185.52 0.843651 -4.29187 0
M  V30 22750 C 2184.58 1.84921 -4.92636 0
M  V30 22751 O 2183.6 1.40323 -5.51632 0
M  V30 22752 N 2184.8 3.18174 -4.85536 0
M  V30 22753 H 2187.57 -0.423863 -2.96688 0
M  V30 22754 H 2185.13 -0.372098 -1.57566 0
M  V30 22755 H 2187.12 2.0532 -3.48749 0
M  V30 22756 H 2185.69 1.96827 -2.42854 0
M  V30 22757 H 2184.91 -0.00356721 -3.942 0
M  V30 22758 H 2186.2 0.462851 -5.0669 0
M  V30 22759 H 2185.6 3.57068 -4.3877 0
M  V30 22760 H 2184.15 3.80888 -5.28931 0
M  V30 22761 N 2187.59 1.55221 -0.272782 0
M  V30 22762 C 2188.54 2.22436 0.615702 0
M  V30 22763 C 2189.51 1.19702 1.15155 0
M  V30 22764 O 2190.69 1.48236 1.20128 0
M  V30 22765 C 2187.83 2.94739 1.79507 0
M  V30 22766 C 2186.94 4.12186 1.2933 0
M  V30 22767 C 2186.08 4.7214 2.43429 0
M  V30 22768 C 2185.12 5.81785 1.90243 0
M  V30 22769 N 2184.25 6.35811 2.97806 0
M  V30 22770 H 2189.09 2.97978 0.0358746 0
M  V30 22771 H 2186.63 1.47099 0.00594098 0
M  V30 22772 H 2188.59 3.34874 2.48828 0
M  V30 22773 H 2187.22 2.21624 2.34697 0
M  V30 22774 H 2186.27 3.77188 0.493274 0
M  V30 22775 H 2187.58 4.91265 0.86373 0
M  V30 22776 H 2186.74 5.14982 3.20747 0
M  V30 22777 H 2185.48 3.92333 2.897 0
M  V30 22778 H 2184.48 5.38395 1.11404 0
M  V30 22779 H 2185.71 6.63459 1.4491 0
M  V30 22780 H 2183.65 5.589 3.43464 0
M  V30 22781 H 2183.57 7.10156 2.59258 0
M  V30 22782 H 2184.84 6.83312 3.75106 0
M  V30 22783 N 2189.07 2.77022e-05 1.576 0
M  V30 22784 C 2190.34 -0.721854 1.81793 0
M  V30 22785 C 2190.72 -1.91987 0.877738 0
M  V30 22786 O 2190.07 -2.28382 -0.0735325 0
M  V30 22787 C 2190.28 -1.12755 3.30284 0
M  V30 22788 C 2191.63 -1.53139 3.96022 0
M  V30 22789 O 2192.65 -1.22134 3.34607 0
M  V30 22790 O 2191.51 -2.10793 5.04211 0
M  V30 22791 H 2188.61 -0.35149 0.748588 0
M  V30 22792 H 2191.15 0.0254839 1.69681 0
M  V30 22793 H 2189.92 -0.273618 3.90342 0
M  V30 22794 H 2189.55 -1.93399 3.47394 0
M  V30 22795 N 2190.54 -1.55222 -0.272728 0
M  V30 22796 C 2191.96 -1.47068 -0.619933 0
M  V30 22797 C 2192.16 -0.685012 -1.89499 0
M  V30 22798 O 2191.22 -0.203975 -2.51675 0
M  V30 22799 C 2192.53 -2.91283 -0.746642 0
M  V30 22800 C 2194.08 -3.01499 -0.840678 0
M  V30 22801 C 2194.55 -4.46968 -0.999161 0
M  V30 22802 N 2196.04 -4.50798 -1.06468 0
M  V30 22803 C 2196.78 -5.60572 -1.20611 0
M  V30 22804 N 2196.27 -6.80211 -1.31471 0
M  V30 22805 N 2198.07 -5.48315 -1.23723 0
M  V30 22806 H 2190.22 -2.04757 0.564642 0
M  V30 22807 H 2192.48 -0.92852 0.191194 0
M  V30 22808 H 2192.19 -3.51496 0.119815 0
M  V30 22809 H 2192.06 -3.40314 -1.62684 0
M  V30 22810 H 2194.45 -2.41382 -1.6976 0
M  V30 22811 H 2194.53 -2.5572 0.0641323 0
M  V30 22812 H 2194.17 -5.07688 -0.146895 0
M  V30 22813 H 2194.1 -4.90404 -1.91862 0
M  V30 22814 H 2196.59 -3.64617 -0.993132 0
M  V30 22815 H 2196.91 -7.59624 -1.42098 0
M  V30 22816 H 2195.25 -6.83022 -1.28475 0
M  V30 22817 H 2198.44 -4.53787 -1.14869 0
M  V30 22818 H 2198.62 -6.33909 -1.34401 0
M  V30 22819 N 2192.02 0.537252 -1.4816 0
M  V30 22820 C 2193.27 1.29538 -1.56038 0
M  V30 22821 C 2193.6 1.92828 -0.230411 0
M  V30 22822 O 2192.88 1.78913 0.762921 0
M  V30 22823 C 2193.16 2.39029 -2.69327 0
M  V30 22824 C 2193.01 1.80478 -4.12005 0
M  V30 22825 C 2194.33 3.40842 -2.78414 0
M  V30 22826 H 2191.45 0.469622 -0.568 0
M  V30 22827 H 2194.09 0.599245 -1.80303 0
M  V30 22828 H 2192.24 2.98407 -2.48768 0
M  V30 22829 H 2193.91 1.25207 -4.43983 0
M  V30 22830 H 2192.16 1.11048 -4.19346 0
M  V30 22831 H 2192.83 2.59722 -4.87082 0
M  V30 22832 H 2195.3 2.9141 -2.97017 0
M  V30 22833 H 2194.18 4.14857 -3.59423 0
M  V30 22834 H 2194.44 4.00941 -1.86276 0
M  V30 22835 N 2193.5 1.36626 0.785562 0
M  V30 22836 C 2194.43 1.33953 1.91256 0
M  V30 22837 C 2195.41 0.210355 1.68794 0
M  V30 22838 O 2196.6 0.408594 1.89853 0
M  V30 22839 C 2193.73 1.13191 3.28337 0
M  V30 22840 C 2192.68 2.22974 3.65331 0
M  V30 22841 C 2192.01 1.87351 5.00803 0
M  V30 22842 C 2193.31 3.65082 3.73514 0
M  V30 22843 H 2195 2.28257 1.93751 0
M  V30 22844 H 2192.55 1.09876 0.930768 0
M  V30 22845 H 2194.5 1.09955 4.06802 0
M  V30 22846 H 2193.22 0.15339 3.2624 0
M  V30 22847 H 2191.88 2.25342 2.89165 0
M  V30 22848 H 2191.53 0.880632 4.95231 0
M  V30 22849 H 2191.23 2.60855 5.26525 0
M  V30 22850 H 2192.75 1.85677 5.81684 0
M  V30 22851 H 2194.17 3.64919 4.42162 0
M  V30 22852 H 2192.57 4.37523 4.10723 0
M  V30 22853 H 2193.64 3.99708 2.7452 0
M  V30 22854 N 2194.98 -1.01016 1.20969 0
M  V30 22855 C 2195.89 -2.13142 0.980194 0
M  V30 22856 C 2196.9 -1.73875 -0.0660359 0
M  V30 22857 O 2198.08 -2.01025 0.122857 0
M  V30 22858 C 2195.15 -3.42434 0.54222 0
M  V30 22859 C 2194.21 -3.95905 1.66006 0
M  V30 22860 C 2193.44 -5.19026 1.24289 0
M  V30 22861 O 2193.66 -5.70285 0.114296 0
M  V30 22862 O 2192.6 -5.65812 2.05281 0
M  V30 22863 H 2196.42 -2.35376 1.91917 0
M  V30 22864 H 2194.01 -1.11524 0.994118 0
M  V30 22865 H 2195.89 -4.20276 0.307514 0
M  V30 22866 H 2194.56 -3.216 -0.368093 0
M  V30 22867 H 2193.47 -3.19312 1.94912 0
M  V30 22868 H 2194.8 -4.21139 2.54761 0
M  V30 22869 N 2196.46 -1.01661 -1.20428 0
M  V30 22870 C 2197.39 -0.545027 -2.22625 0
M  V30 22871 C 2198.4 0.372581 -1.58479 0
M  V30 22872 O 2199.59 0.170927 -1.7768 0
M  V30 22873 C 2196.69 0.22657 -3.38142 0
M  V30 22874 C 2195.86 -0.692952 -4.31876 0
M  V30 22875 C 2194.92 0.0310691 -5.26191 0
M  V30 22876 O 2193.95 -0.591442 -5.66119 0
M  V30 22877 N 2195.15 1.30591 -5.6562 0
M  V30 22878 H 2197.92 -1.42392 -2.63713 0
M  V30 22879 H 2195.48 -0.89414 -1.34969 0
M  V30 22880 H 2197.47 0.72017 -3.98241 0
M  V30 22881 H 2196.04 1.00676 -2.95944 0
M  V30 22882 H 2195.26 -1.36686 -3.69744 0
M  V30 22883 H 2196.55 -1.31833 -4.91424 0
M  V30 22884 H 2195.94 1.8326 -5.35194 0
M  V30 22885 H 2194.5 1.74424 -6.28028 0
M  V30 22886 N 2197.93 1.36205 -0.792844 0
M  V30 22887 C 2198.88 2.30003 -0.191693 0
M  V30 22888 C 2199.85 1.52145 0.666426 0
M  V30 22889 O 2201.04 1.80638 0.614388 0
M  V30 22890 C 2198.18 3.38636 0.664788 0
M  V30 22891 C 2197.29 4.31478 -0.212251 0
M  V30 22892 C 2196.42 5.27197 0.650929 0
M  V30 22893 C 2195.46 6.11678 -0.227354 0
M  V30 22894 N 2194.6 6.99574 0.595004 0
M  V30 22895 H 2199.44 2.80826 -0.997027 0
M  V30 22896 H 2196.98 1.38224 -0.503231 0
M  V30 22897 H 2198.94 4.00271 1.17638 0
M  V30 22898 H 2197.57 2.89124 1.43552 0
M  V30 22899 H 2196.62 3.70968 -0.841842 0
M  V30 22900 H 2197.93 4.90817 -0.888837 0
M  V30 22901 H 2197.08 5.94138 1.2282 0
M  V30 22902 H 2195.82 4.68321 1.36113 0
M  V30 22903 H 2194.83 5.43696 -0.817 0
M  V30 22904 H 2196.05 6.7263 -0.935208 0
M  V30 22905 H 2194 6.43203 1.28943 0
M  V30 22906 H 2193.92 7.55996 -0.0238281 0
M  V30 22907 H 2195.18 7.70881 1.15599 0
M  V30 22908 N 2199.41 0.545154 1.47871 0
M  V30 22909 C 2200.32 -0.212705 2.33634 0
M  V30 22910 C 2201.34 -0.923957 1.47442 0
M  V30 22911 O 2202.51 -0.89554 1.80394 0
M  V30 22912 C 2199.58 -1.23687 3.23886 0
M  V30 22913 C 2198.64 -0.534342 4.25962 0
M  V30 22914 C 2197.87 -1.50971 5.11902 0
M  V30 22915 O 2198.1 -2.74361 5.00082 0
M  V30 22916 O 2197.03 -1.0408 5.92833 0
M  V30 22917 H 2200.86 0.490469 2.99713 0
M  V30 22918 H 2198.44 0.305896 1.46235 0
M  V30 22919 H 2200.32 -1.82836 3.7967 0
M  V30 22920 H 2199 -1.92218 2.6045 0
M  V30 22921 H 2197.91 0.0980336 3.73972 0
M  V30 22922 H 2199.24 0.1093 4.92079 0
M  V30 22923 N 2200.89 -1.55074 0.28101 0
M  V30 22924 C 2201.84 -2.22759 -0.603897 0
M  V30 22925 C 2202.81 -1.20311 -1.14518 0
M  V30 22926 O 2203.99 -1.48871 -1.1934 0
M  V30 22927 C 2201.13 -2.95687 -1.77942 0
M  V30 22928 C 2200.25 -4.12866 -1.27143 0
M  V30 22929 C 2199.38 -4.73424 -2.40921 0
M  V30 22930 C 2198.42 -5.82786 -1.87155 0
M  V30 22931 N 2197.56 -6.37382 -2.9443 0
M  V30 22932 H 2202.4 -2.97993 -0.0200716 0
M  V30 22933 H 2199.93 -1.471 0.00186011 0
M  V30 22934 H 2201.89 -3.36189 -2.47049 0
M  V30 22935 H 2200.52 -2.22866 -2.33518 0
M  V30 22936 H 2199.57 -3.77445 -0.473264 0
M  V30 22937 H 2200.89 -4.91716 -0.837664 0
M  V30 22938 H 2200.04 -5.16676 -3.18012 0
M  V30 22939 H 2198.78 -3.93864 -2.87616 0
M  V30 22940 H 2197.78 -5.38978 -1.08547 0
M  V30 22941 H 2199.01 -6.64218 -1.41389 0
M  V30 22942 H 2196.95 -5.60713 -3.40495 0
M  V30 22943 H 2196.87 -7.11521 -2.55488 0
M  V30 22944 H 2198.14 -6.85292 -3.71477 0
M  V30 22945 N 2202.37 -0.00838561 -1.57598 0
M  V30 22946 C 2203.62 0.673935 -1.90108 0
M  V30 22947 C 2203.93 1.74469 -0.884306 0
M  V30 22948 O 2205.14 2.48222 -1.09992 0
M  V30 22949 C 2203.59 1.24989 -3.37499 0
M  V30 22950 C 2203.2 0.213522 -4.47491 0
M  V30 22951 C 2204.95 1.90992 -3.79107 0
M  V30 22952 C 2202.85 0.799947 -5.85965 0
M  V30 22953 H 2201.78 0.255482 -0.709398 0
M  V30 22954 H 2204.43 -0.0703015 -1.83365 0
M  V30 22955 H 2202.82 2.04507 -3.39106 0
M  V30 22956 H 2203.99 -0.557676 -4.57413 0
M  V30 22957 H 2202.3 -0.346547 -4.14955 0
M  V30 22958 H 2204.9 2.35787 -4.79905 0
M  V30 22959 H 2205.24 2.74401 -3.13065 0
M  V30 22960 H 2205.78 1.18196 -3.79835 0
M  V30 22961 H 2202.52 0.00445186 -6.555 0
M  V30 22962 H 2202.04 1.54011 -5.7969 0
M  V30 22963 H 2203.72 1.29604 -6.33886 0
M  V30 22964 N 2203.85 1.55365 0.264492 0
M  V30 22965 C 2205.26 1.66992 0.834906 0
M  V30 22966 C 2205.61 0.602585 1.86717 0
M  V30 22967 O 2204.73 -0.254387 2.149 0
M  V30 22968 C 2205.33 3.02732 1.52114 0
M  V30 22969 C 2203.89 3.16358 2.03948 0
M  V30 22970 C 2203.04 2.62817 0.884452 0
M  V30 22971 H 2205.99 1.58648 0.040659 0
M  V30 22972 H 2206.01 2.96196 2.38848 0
M  V30 22973 H 2205.52 3.80393 0.769601 0
M  V30 22974 H 2203.62 2.43487 2.82037 0
M  V30 22975 H 2203.73 4.23036 2.24894 0
M  V30 22976 H 2202.1 2.20191 1.28016 0
M  V30 22977 H 2202.88 3.42988 0.14628 0
M  V30 22978 N 2205.33 -0.529387 1.48443 0
M  V30 22979 C 2206.24 -1.66081 1.65693 0
M  V30 22980 C 2207.25 -1.65426 0.539461 0
M  V30 22981 O 2208.43 -1.84367 0.810605 0
M  V30 22982 C 2205.49 -3.02542 1.69321 0
M  V30 22983 C 2204.55 -3.14047 2.927 0
M  V30 22984 C 2203.79 -4.43998 2.96144 0
M  V30 22985 O 2204.01 -5.31131 2.07982 0
M  V30 22986 O 2202.94 -4.59881 3.8832 0
M  V30 22987 H 2206.77 -1.54464 2.61485 0
M  V30 22988 H 2204.35 -0.702544 1.31851 0
M  V30 22989 H 2206.24 -3.83698 1.74224 0
M  V30 22990 H 2204.91 -3.14481 0.767022 0
M  V30 22991 H 2203.82 -2.32184 2.93328 0
M  V30 22992 H 2205.15 -3.07023 3.84704 0
M  V30 22993 N 2206.8 -1.37041 -0.778305 0
M  V30 22994 C 2207.71 -1.3445 -1.92251 0
M  V30 22995 C 2208.73 -0.245021 -1.72266 0
M  V30 22996 O 2209.91 -0.479293 -1.95614 0
M  V30 22997 C 2206.97 -1.14405 -3.2728 0
M  V30 22998 C 2206.03 -2.33931 -3.59965 0
M  V30 22999 C 2205.26 -2.14834 -4.88551 0
M  V30 23000 O 2205.49 -1.12922 -5.59111 0
M  V30 23001 O 2204.42 -3.0287 -5.20147 0
M  V30 23002 H 2208.25 -2.30807 -1.97388 0
M  V30 23003 H 2205.83 -1.17703 -0.920134 0
M  V30 23004 H 2207.71 -1.05189 -4.0806 0
M  V30 23005 H 2206.39 -0.211181 -3.2301 0
M  V30 23006 H 2205.3 -2.48718 -2.79446 0
M  V30 23007 H 2206.63 -3.25763 -3.6897 0
M  V30 23008 N 2208.28 1.00373 -1.21503 0
M  V30 23009 C 2209.23 2.09175 -0.975424 0
M  V30 23010 C 2210.2 1.65805 0.0990324 0
M  V30 23011 O 2211.38 1.90739 -0.0483483 0
M  V30 23012 C 2208.52 3.40728 -0.547567 0
M  V30 23013 C 2207.64 3.97503 -1.6916 0
M  V30 23014 C 2206.77 5.1717 -1.21279 0
M  V30 23015 C 2205.81 5.66057 -2.32907 0
M  V30 23016 N 2204.95 6.76973 -1.8615 0
M  V30 23017 H 2209.79 2.29005 -1.90684 0
M  V30 23018 H 2207.32 1.12286 -0.950277 0
M  V30 23019 H 2209.28 4.16254 -0.280741 0
M  V30 23020 H 2207.91 3.20931 0.346848 0
M  V30 23021 H 2206.96 3.18951 -2.07303 0
M  V30 23022 H 2208.28 4.29776 -2.53167 0
M  V30 23023 H 2207.43 5.99947 -0.902697 0
M  V30 23024 H 2206.17 4.86494 -0.342777 0
M  V30 23025 H 2205.17 4.81876 -2.64718 0
M  V30 23026 H 2206.4 5.98763 -3.20406 0
M  V30 23027 H 2204.35 6.48101 -1.01495 0
M  V30 23028 H 2204.26 7.08507 -2.6373 0
M  V30 23029 H 2205.53 7.63282 -1.58179 0
M  V30 23030 N 2209.76 1.02298 1.19887 0
M  V30 23031 C 2211.04 0.630864 1.85147 0
M  V30 23032 C 2211.42 -0.890748 1.91387 0
M  V30 23033 O 2210.76 -1.78506 1.42645 0
M  V30 23034 C 2210.97 1.28608 3.2444 0
M  V30 23035 C 2212.32 1.40557 4.00661 0
M  V30 23036 O 2213.35 1.24279 3.33816 0
M  V30 23037 O 2212.21 1.66922 5.20384 0
M  V30 23038 H 2209.3 0.218513 0.79761 0
M  V30 23039 H 2211.85 1.12076 1.27425 0
M  V30 23040 H 2210.62 2.32551 3.147 0
M  V30 23041 H 2210.24 0.783669 3.898 0
M  V30 23042 N 2211.24 -1.35782 0.800057 0
M  V30 23043 C 2212.18 -2.29898 0.203888 0
M  V30 23044 C 2213.15 -1.52496 -0.658348 0
M  V30 23045 O 2214.34 -1.80961 -0.6048 0
M  V30 23046 C 2211.48 -3.38984 -0.64682 0
M  V30 23047 C 2210.59 -4.3136 0.23513 0
M  V30 23048 C 2209.73 -5.27534 -0.622961 0
M  V30 23049 C 2208.77 -6.11548 0.25979 0
M  V30 23050 N 2207.9 -6.9988 -0.557896 0
M  V30 23051 H 2212.74 -2.80294 1.01191 0
M  V30 23052 H 2210.28 -1.37956 0.510554 0
M  V30 23053 H 2212.24 -4.00889 -1.15514 0
M  V30 23054 H 2210.87 -2.89881 -1.42016 0
M  V30 23055 H 2209.92 -3.70516 0.861504 0
M  V30 23056 H 2211.23 -4.90339 0.914854 0
M  V30 23057 H 2210.39 -5.94781 -1.19667 0
M  V30 23058 H 2209.13 -4.69036 -1.33628 0
M  V30 23059 H 2208.13 -5.43255 0.845822 0
M  V30 23060 H 2209.36 -6.72124 0.970866 0
M  V30 23061 H 2207.3 -6.43877 -1.2553 0
M  V30 23062 H 2207.22 -7.55973 0.06392 0
M  V30 23063 H 2208.49 -7.71483 -1.11509 0
M  V30 23064 N 2212.72 -0.552988 -1.4758 0
M  V30 23065 C 2213.68 0.186565 -2.28439 0
M  V30 23066 C 2214.68 0.846626 -1.36707 0
M  V30 23067 O 2215.87 0.703136 -1.59379 0
M  V30 23068 C 2213 1.27234 -3.16266 0
M  V30 23069 H 2214.19 -0.523661 -2.95293 0
M  V30 23070 H 2211.75 -0.309772 -1.532 0
M  V30 23071 H 2212.48 2.0151 -2.54095 0
M  V30 23072 H 2212.27 0.8039 -3.83771 0
M  V30 23073 H 2213.76 1.79189 -3.77201 0
M  V30 23074 N 2214.19 1.54923 -0.28923 0
M  V30 23075 C 2215.12 2.26041 0.58545 0
M  V30 23076 C 2216.1 1.25564 1.14751 0
M  V30 23077 O 2217.29 1.54313 1.17903 0
M  V30 23078 C 2214.42 2.99225 1.763 0
M  V30 23079 C 2213.37 4.06751 1.33184 0
M  V30 23080 C 2212.7 4.67585 2.59362 0
M  V30 23081 C 2214 5.20166 0.471684 0
M  V30 23082 H 2215.69 2.99399 -0.00768794 0
M  V30 23083 H 2213.24 1.43999 -0.0051376 0
M  V30 23084 H 2215.19 3.47694 2.38091 0
M  V30 23085 H 2213.92 2.23426 2.38219 0
M  V30 23086 H 2212.58 3.59114 0.737058 0
M  V30 23087 H 2212.22 3.88438 3.1957 0
M  V30 23088 H 2211.92 5.40196 2.31219 0
M  V30 23089 H 2213.45 5.1881 3.21976 0
M  V30 23090 H 2214.86 5.646 0.994956 0
M  V30 23091 H 2213.26 5.99425 0.284534 0
M  V30 23092 H 2214.33 4.82251 -0.506126 0
M  V30 23093 N 2215.67 0.0167433 1.57591 0
M  V30 23094 C 2216.95 -0.702532 1.82548 0
M  V30 23095 C 2217.33 -1.91045 0.898051 0
M  V30 23096 O 2216.68 -2.28447 -0.0493055 0
M  V30 23097 C 2216.89 -1.09246 3.31461 0
M  V30 23098 C 2218.23 -1.4893 3.97624 0
M  V30 23099 O 2219.26 -1.18578 3.35883 0
M  V30 23100 O 2218.12 -2.05433 5.06418 0
M  V30 23101 H 2215.21 -0.343531 0.752274 0
M  V30 23102 H 2217.76 0.0434794 1.69644 0
M  V30 23103 H 2216.53 -0.232201 3.9061 0
M  V30 23104 H 2216.15 -1.89703 3.49426 0
M  V30 23105 N 2217.15 -1.55503 -0.256249 0
M  V30 23106 C 2218.08 -1.85964 -1.33978 0
M  V30 23107 C 2219.1 -0.745237 -1.44741 0
M  V30 23108 O 2220.28 -1.02327 -1.46258 0
M  V30 23109 C 2217.38 -2.02247 -2.71936 0
M  V30 23110 C 2216.56 -3.33038 -2.83556 0
M  V30 23111 C 2215.62 -3.39179 -4.02298 0
M  V30 23112 O 2214.64 -4.12451 -3.92266 0
M  V30 23113 N 2215.84 -2.67793 -5.15041 0
M  V30 23114 H 2218.61 -2.79492 -1.08186 0
M  V30 23115 H 2216.17 -1.55625 -0.446361 0
M  V30 23116 H 2218.16 -2.03708 -3.49693 0
M  V30 23117 H 2216.73 -1.15507 -2.90477 0
M  V30 23118 H 2215.95 -3.43974 -1.92549 0
M  V30 23119 H 2217.24 -4.19263 -2.88263 0
M  V30 23120 H 2216.64 -2.07977 -5.26082 0
M  V30 23121 H 2215.2 -2.74957 -5.90967 0
M  V30 23122 N 2218.63 0.521507 -1.48721 0
M  V30 23123 C 2219.58 1.62524 -1.63874 0
M  V30 23124 C 2220.55 1.58996 -0.480587 0
M  V30 23125 O 2221.73 1.77293 -0.705116 0
M  V30 23126 C 2218.87 3.00756 -1.69232 0
M  V30 23127 C 2217.98 3.14455 -2.96212 0
M  V30 23128 C 2217.12 4.43298 -2.92678 0
M  V30 23129 C 2216.16 4.50556 -4.14326 0
M  V30 23130 N 2215.29 5.70798 -4.0882 0
M  V30 23131 H 2220.13 1.48913 -2.58126 0
M  V30 23132 H 2217.67 0.724856 -1.28001 0
M  V30 23133 H 2219.63 3.8085 -1.70321 0
M  V30 23134 H 2218.26 3.13119 -0.784641 0
M  V30 23135 H 2217.31 2.27558 -3.0483 0
M  V30 23136 H 2218.62 3.15679 -3.86197 0
M  V30 23137 H 2217.78 5.31691 -2.92215 0
M  V30 23138 H 2216.52 4.44608 -2.00437 0
M  V30 23139 H 2215.52 3.60568 -4.15055 0
M  V30 23140 H 2216.75 4.50977 -5.07737 0
M  V30 23141 H 2214.69 5.7299 -3.19404 0
M  V30 23142 H 2214.61 5.73552 -4.92519 0
M  V30 23143 H 2215.88 6.61455 -4.12429 0
M  V30 23144 N 2220.11 1.37452 0.771027 0
M  V30 23145 C 2221.35 1.32896 1.53187 0
M  V30 23146 C 2221.69 -0.086217 1.94009 0
M  V30 23147 O 2220.96 -1.0437 1.64125 0
M  V30 23148 C 2221.24 2.26873 2.79644 0
M  V30 23149 C 2221.1 3.77173 2.45072 0
M  V30 23150 C 2222.42 2.19284 3.81579 0
M  V30 23151 H 2219.53 0.484074 0.555735 0
M  V30 23152 H 2222.18 1.68158 0.884463 0
M  V30 23153 H 2220.33 1.96932 3.34888 0
M  V30 23154 H 2222 4.17714 1.95737 0
M  V30 23155 H 2220.24 3.95707 1.7776 0
M  V30 23156 H 2220.91 4.38365 3.3547 0
M  V30 23157 H 2223.39 2.45677 3.3583 0
M  V30 23158 H 2222.26 2.87179 4.67782 0
M  V30 23159 H 2222.53 1.18599 4.25895 0
M  V30 23160 N 2221.58 -0.997276 1.22033 0
M  V30 23161 C 2223 -1.2602 0.979348 0
M  V30 23162 C 2223.2 -1.98785 -0.329685 0
M  V30 23163 O 2222.26 -2.29477 -1.05341 0
M  V30 23164 C 2223.57 -2.07627 2.17512 0
M  V30 23165 C 2225.12 -2.20826 2.21821 0
M  V30 23166 C 2225.59 -3.05819 3.40938 0
M  V30 23167 N 2227.08 -3.13406 3.41073 0
M  V30 23168 C 2227.82 -3.79447 4.29892 0
M  V30 23169 N 2227.31 -4.47453 5.28922 0
M  V30 23170 N 2229.11 -3.76165 4.17679 0
M  V30 23171 H 2221.26 -0.509316 2.06203 0
M  V30 23172 H 2223.52 -0.287525 0.903346 0
M  V30 23173 H 2223.23 -1.61518 3.12418 0
M  V30 23174 H 2223.1 -3.08381 2.17211 0
M  V30 23175 H 2225.49 -2.66151 1.27466 0
M  V30 23176 H 2225.57 -1.19516 2.26162 0
M  V30 23177 H 2225.21 -2.61195 4.35591 0
M  V30 23178 H 2225.14 -4.0726 3.33836 0
M  V30 23179 H 2227.63 -2.65003 2.6941 0
M  V30 23180 H 2227.95 -4.95572 5.92982 0
M  V30 23181 H 2226.29 -4.46215 5.32839 0
M  V30 23182 H 2229.48 -3.22196 3.3957 0
M  V30 23183 H 2229.66 -4.27355 4.87106 0
M  V30 23184 N 2223.06 -1.02932 -1.19343 0
M  V30 23185 C 2224.29 -0.745545 -1.93537 0
M  V30 23186 C 2224.71 0.68948 -1.75008 0
M  V30 23187 O 2224.07 1.47609 -1.05268 0
M  V30 23188 C 2224.12 -1.10245 -3.43334 0
M  V30 23189 O 2223.22 -0.221361 -4.11805 0
M  V30 23190 H 2222.56 -0.275415 -0.604188 0
M  V30 23191 H 2225.09 -1.37612 -1.51407 0
M  V30 23192 H 2225.1 -1.05954 -3.94002 0
M  V30 23193 H 2223.78 -2.14792 -3.56142 0
M  V30 23194 H 2222.36 -0.322907 -3.71499 0
M  V30 23195 N 2224.54 1.35356 -0.807246 0
M  V30 23196 C 2225.79 1.99044 -0.388498 0
M  V30 23197 C 2226.12 1.6389 1.04181 0
M  V30 23198 O 2225.39 0.902565 1.7229 0
M  V30 23199 C 2225.68 3.55514 -0.572846 0
M  V30 23200 C 2225.53 4.00464 -2.04814 0
M  V30 23201 C 2226.85 4.401 0.00106328 0
M  V30 23202 H 2223.97 0.723067 -0.142631 0
M  V30 23203 H 2226.61 1.60496 -1.0169 0
M  V30 23204 H 2224.76 3.88482 -0.0379108 0
M  V30 23205 H 2226.43 3.77903 -2.6455 0
M  V30 23206 H 2224.68 3.51349 -2.54433 0
M  V30 23207 H 2225.35 5.09333 -2.128 0
M  V30 23208 H 2227.82 4.13596 -0.455788 0
M  V30 23209 H 2226.7 5.48673 -0.157833 0
M  V30 23210 H 2226.96 4.2833 1.09481 0
M  V30 23211 N 2226.02 0.560807 1.47284 0
M  V30 23212 C 2226.93 -0.187913 2.33846 0
M  V30 23213 C 2227.94 -0.908267 1.48413 0
M  V30 23214 O 2229.12 -0.876357 1.81334 0
M  V30 23215 C 2226.19 -1.20245 3.2518 0
M  V30 23216 C 2225.25 -0.489133 4.26504 0
M  V30 23217 C 2224.48 -1.45533 5.13474 0
M  V30 23218 O 2224.7 -2.69041 5.02964 0
M  V30 23219 O 2223.64 -0.977859 5.93904 0
M  V30 23220 H 2227.46 0.52223 2.99176 0
M  V30 23221 H 2225.05 0.321389 1.45902 0
M  V30 23222 H 2226.93 -1.78799 3.81587 0
M  V30 23223 H 2225.6 -1.89445 2.62474 0
M  V30 23224 H 2224.51 0.137693 3.73847 0
M  V30 23225 H 2225.84 0.161485 4.91935 0
M  V30 23226 N 2227.5 -1.54768 0.297442 0
M  V30 23227 C 2228.45 -2.20093 -0.595236 0
M  V30 23228 C 2229.43 -1.17275 -1.10161 0
M  V30 23229 O 2230.62 -1.43007 -1.04297 0
M  V30 23230 C 2227.75 -2.94252 -1.76835 0
M  V30 23231 C 2226.84 -4.04382 -1.27811 0
M  V30 23232 N 2227.23 -5.03267 -0.505606 0
M  V30 23233 C 2225.53 -4.17859 -1.55915 0
M  V30 23234 C 2226.23 -5.81184 -0.244992 0
M  V30 23235 N 2225.2 -5.37322 -0.823787 0
M  V30 23236 H 2229.01 -2.939 0.00256003 0
M  V30 23237 H 2226.52 -1.62079 0.102035 0
M  V30 23238 H 2228.52 -3.39517 -2.41938 0
M  V30 23239 H 2227.18 -2.21961 -2.36988 0
M  V30 23240 H 2228.19 -5.1768 -0.150837 0
M  V30 23241 H 2224.86 -3.56771 -2.16842 0
M  V30 23242 H 2226.25 -6.70852 0.375202 0
M  V30 23243 N 2228.97 -0.0251005 -1.5758 0
M  V30 23244 C 2229.92 0.958093 -2.09974 0
M  V30 23245 C 2230.89 1.32558 -1.00088 0
M  V30 23246 O 2232.08 1.4196 -1.27484 0
M  V30 23247 C 2229.22 2.23656 -2.62816 0
M  V30 23248 C 2228.33 1.92587 -3.86696 0
M  V30 23249 C 2227.46 3.14699 -4.27946 0
M  V30 23250 C 2226.5 2.79432 -5.44595 0
M  V30 23251 N 2225.64 3.94157 -5.81021 0
M  V30 23252 H 2230.48 0.504377 -2.93701 0
M  V30 23253 H 2228.02 0.237366 -1.45172 0
M  V30 23254 H 2229.98 2.98429 -2.91541 0
M  V30 23255 H 2228.61 2.66651 -1.81926 0
M  V30 23256 H 2227.66 1.08073 -3.64725 0
M  V30 23257 H 2228.97 1.6261 -4.7155 0
M  V30 23258 H 2228.12 3.97796 -4.58086 0
M  V30 23259 H 2226.86 3.47834 -3.41852 0
M  V30 23260 H 2225.87 1.94746 -5.14154 0
M  V30 23261 H 2227.09 2.47517 -6.32386 0
M  V30 23262 H 2225.04 4.27141 -4.97882 0
M  V30 23263 H 2224.96 3.6779 -6.60505 0
M  V30 23264 H 2226.22 4.77969 -6.15764 0
M  V30 23265 N 2230.45 1.55637 0.247999 0
M  V30 23266 C 2231.42 1.89423 1.29041 0
M  V30 23267 C 2232.42 0.770606 1.41132 0
M  V30 23268 O 2233.61 1.03861 1.39852 0
M  V30 23269 C 2230.74 2.12169 2.66828 0
M  V30 23270 H 2231.93 2.8263 1.003 0
M  V30 23271 H 2229.48 1.48512 0.487239 0
M  V30 23272 H 2230.22 1.21427 3.00709 0
M  V30 23273 H 2230 2.94002 2.59433 0
M  V30 23274 H 2231.49 2.39496 3.42098 0
M  V30 23275 N 2231.93 -0.513613 1.48996 0
M  V30 23276 C 2233.34 -1.09534 1.51192 0
M  V30 23277 C 2233.69 -1.94031 0.29094 0
M  V30 23278 O 2232.82 -2.07903 -0.600453 0
M  V30 23279 C 2233.41 -1.99317 2.73967 0
M  V30 23280 C 2231.97 -2.52677 2.78983 0
M  V30 23281 C 2231.12 -1.30005 2.44937 0
M  V30 23282 H 2234.07 -0.298098 1.55875 0
M  V30 23283 H 2234.09 -2.83834 2.53414 0
M  V30 23284 H 2233.6 -1.37792 3.62815 0
M  V30 23285 H 2231.7 -3.17877 1.94383 0
M  V30 23286 H 2231.82 -2.90692 3.80835 0
M  V30 23287 H 2230.18 -1.62118 1.96443 0
M  V30 23288 H 2230.96 -0.702072 3.36044 0
M  V30 23289 N 2233.41 -1.37859 -0.763727 0
M  V30 23290 C 2234.32 -1.36481 -1.90814 0
M  V30 23291 C 2235.34 -0.263278 -1.71997 0
M  V30 23292 O 2236.51 -0.500013 -1.95094 0
M  V30 23293 C 2233.58 -1.1787 -3.26048 0
M  V30 23294 C 2232.64 -2.37736 -3.57463 0
M  V30 23295 C 2231.87 -2.20003 -4.86245 0
M  V30 23296 O 2232.09 -1.18846 -5.57882 0
M  V30 23297 O 2231.03 -3.0837 -5.16906 0
M  V30 23298 H 2234.85 -2.32887 -1.94929 0
M  V30 23299 H 2232.44 -1.18672 -0.907598 0
M  V30 23300 H 2234.32 -1.09511 -4.06922 0
M  V30 23301 H 2233 -0.245429 -3.22768 0
M  V30 23302 H 2231.9 -2.51668 -2.76792 0
M  V30 23303 H 2233.24 -3.29658 -3.65494 0
M  V30 23304 N 2234.89 0.990791 -1.22561 0
M  V30 23305 C 2236.16 1.70426 -0.959905 0
M  V30 23306 C 2236.54 2.04482 0.524419 0
M  V30 23307 O 2235.89 1.7298 1.49299 0
M  V30 23308 C 2236.1 2.9533 -1.8596 0
M  V30 23309 C 2237.45 3.68064 -2.11693 0
M  V30 23310 O 2238.47 3.05342 -1.83425 0
M  V30 23311 O 2237.33 4.80916 -2.5958 0
M  V30 23312 H 2234.43 0.743967 -0.361167 0
M  V30 23313 H 2236.97 1.04695 -1.33556 0
M  V30 23314 H 2235.75 2.66682 -2.86351 0
M  V30 23315 H 2235.37 3.68801 -1.48566 0
M  V30 23316 N 2236.37 1.03564 1.18795 0
M  V30 23317 C 2237.59 0.755903 1.92597 0
M  V30 23318 C 2238.01 -0.68624 1.75887 0
M  V30 23319 O 2237.37 -1.4673 1.08519 0
M  V30 23320 C 2237.42 1.10625 3.44158 0
M  V30 23321 O 2237.14 2.49177 3.60337 0
M  V30 23322 C 2238.64 0.850291 4.35069 0
M  V30 23323 H 2235.86 0.276059 0.611582 0
M  V30 23324 H 2238.4 1.38194 1.5074 0
M  V30 23325 H 2236.56 0.525262 3.83823 0
M  V30 23326 H 2236.97 2.62435 4.54124 0
M  V30 23327 H 2238.45 1.14533 5.39987 0
M  V30 23328 H 2238.92 -0.215098 4.38673 0
M  V30 23329 H 2239.53 1.41433 4.01094 0
M  V30 23330 N 2237.84 -1.34926 0.814413 0
M  V30 23331 C 2239.09 -1.98835 0.399048 0
M  V30 23332 C 2239.42 -1.6444 -1.03311 0
M  V30 23333 O 2238.7 -0.911689 -1.71809 0
M  V30 23334 C 2238.98 -3.55206 0.591692 0
M  V30 23335 C 2238.83 -3.99372 2.06935 0
M  V30 23336 C 2240.15 -4.40094 0.0222763 0
M  V30 23337 H 2237.27 -0.7223 0.146464 0
M  V30 23338 H 2239.91 -1.59955 1.0254 0
M  V30 23339 H 2238.06 -3.88456 0.0585124 0
M  V30 23340 H 2239.74 -3.76495 2.66551 0
M  V30 23341 H 2237.98 -3.49995 2.56293 0
M  V30 23342 H 2238.65 -5.08197 2.15499 0
M  V30 23343 H 2241.13 -4.13349 0.477716 0
M  V30 23344 H 2240 -5.48582 0.186928 0
M  V30 23345 H 2240.26 -4.28904 -1.07208 0
M  V30 23346 N 2239.32 -0.56861 -1.46985 0
M  V30 23347 C 2240.28 0.162326 -2.28624 0
M  V30 23348 C 2241.28 0.832078 -1.37598 0
M  V30 23349 O 2242.47 0.686192 -1.60116 0
M  V30 23350 C 2239.61 1.23873 -3.17598 0
M  V30 23351 H 2240.8 -0.554951 -2.94721 0
M  V30 23352 H 2238.35 -0.326003 -1.52862 0
M  V30 23353 H 2239.09 1.98804 -2.56218 0
M  V30 23354 H 2238.87 0.763151 -3.84602 0
M  V30 23355 H 2240.36 1.75178 -3.79081 0
M  V30 23356 N 2240.8 1.54608 -0.305646 0
M  V30 23357 C 2241.71 2.27375 0.57774 0
M  V30 23358 C 2242.73 1.31063 1.14448 0
M  V30 23359 O 2243.9 1.64052 1.16828 0
M  V30 23360 C 2240.97 3.00385 1.73118 0
M  V30 23361 C 2240.03 4.12244 1.19805 0
M  V30 23362 C 2239.26 4.81763 2.29651 0
M  V30 23363 O 2239.48 4.50673 3.49643 0
M  V30 23364 O 2238.42 5.69066 1.96081 0
M  V30 23365 H 2242.24 3.03697 -0.0126774 0
M  V30 23366 H 2239.83 1.49227 -0.0719446 0
M  V30 23367 H 2241.71 3.46164 2.40309 0
M  V30 23368 H 2240.39 2.26953 2.30811 0
M  V30 23369 H 2239.29 3.70854 0.491733 0
M  V30 23370 H 2240.63 4.87667 0.66648 0
M  V30 23371 N 2242.28 0.033457 1.57564 0
M  V30 23372 C 2243.21 -0.98183 2.05998 0
M  V30 23373 C 2244.19 -1.31478 0.956671 0
M  V30 23374 O 2245.37 -1.43071 1.22732 0
M  V30 23375 C 2242.5 -2.30069 2.48568 0
M  V30 23376 C 2241.55 -2.12204 3.69962 0
M  V30 23377 S 2242.38 -1.41683 5.16417 0
M  V30 23378 C 2243.53 -2.7493 5.62285 0
M  V30 23379 H 2243.77 -0.56956 2.91793 0
M  V30 23380 H 2241.3 -0.178349 1.53366 0
M  V30 23381 H 2243.26 -3.05887 2.73758 0
M  V30 23382 H 2241.92 -2.68428 1.63111 0
M  V30 23383 H 2241.11 -3.09715 3.97609 0
M  V30 23384 H 2240.71 -1.44529 3.44946 0
M  V30 23385 H 2243.01 -3.71155 5.66789 0
M  V30 23386 H 2243.95 -2.51942 6.61764 0
M  V30 23387 H 2244.36 -2.80376 4.89949 0
M  V30 23388 N 2243.76 -1.55766 -0.239741 0
M  V30 23389 C 2244.7 -1.90915 -1.29693 0
M  V30 23390 C 2245.67 -0.76419 -1.47477 0
M  V30 23391 O 2246.86 -1.01848 -1.61343 0
M  V30 23392 C 2244 -2.21549 -2.64594 0
M  V30 23393 C 2243.11 -3.48886 -2.54759 0
M  V30 23394 C 2242.25 -3.69055 -3.82062 0
M  V30 23395 C 2241.28 -4.89969 -3.66874 0
M  V30 23396 N 2240.42 -5.06622 -4.86085 0
M  V30 23397 H 2245.26 -2.81069 -0.990175 0
M  V30 23398 H 2242.8 -1.39129 -0.477659 0
M  V30 23399 H 2244.76 -2.37316 -3.43128 0
M  V30 23400 H 2243.39 -1.3459 -2.93403 0
M  V30 23401 H 2242.44 -3.41412 -1.67757 0
M  V30 23402 H 2243.75 -4.37568 -2.3945 0
M  V30 23403 H 2242.9 -3.84821 -4.69039 0
M  V30 23404 H 2241.64 -2.78621 -4.00277 0
M  V30 23405 H 2240.65 -4.74173 -2.7828 0
M  V30 23406 H 2241.87 -5.81871 -3.50147 0
M  V30 23407 H 2239.82 -4.19126 -5.04647 0
M  V30 23408 H 2239.74 -5.89404 -4.73433 0
M  V30 23409 H 2241 -5.26806 -5.7454 0
M  V30 23410 N 2245.23 0.505704 -1.49266 0
M  V30 23411 C 2246.51 1.26704 -1.49015 0
M  V30 23412 C 2246.89 2.1 -0.215242 0
M  V30 23413 O 2246.24 2.13944 0.802509 0
M  V30 23414 C 2246.45 2.12778 -2.76634 0
M  V30 23415 C 2247.8 2.72122 -3.25937 0
M  V30 23416 O 2248.82 2.23049 -2.77719 0
M  V30 23417 O 2247.68 3.61444 -4.09903 0
M  V30 23418 H 2244.77 0.57312 -0.596207 0
M  V30 23419 H 2247.32 0.520361 -1.61525 0
M  V30 23420 H 2246.09 1.51174 -3.60919 0
M  V30 23421 H 2245.71 2.94648 -2.66961 0
M  V30 23422 N 2246.71 1.38262 0.756405 0
M  V30 23423 C 2248.13 1.19397 1.05908 0
M  V30 23424 C 2248.33 0.0406921 2.01459 0
M  V30 23425 O 2247.38 -0.614424 2.4491 0
M  V30 23426 C 2248.7 2.51919 1.64187 0
M  V30 23427 C 2250.25 2.58577 1.76371 0
M  V30 23428 C 2250.72 3.91268 2.38062 0
M  V30 23429 N 2252.21 3.92793 2.45496 0
M  V30 23430 C 2252.95 4.92222 2.94117 0
M  V30 23431 N 2252.44 6.02049 3.42795 0
M  V30 23432 N 2254.24 4.79615 2.93131 0
M  V30 23433 H 2246.39 2.12048 0.122276 0
M  V30 23434 H 2248.65 0.940768 0.116875 0
M  V30 23435 H 2248.36 3.36752 1.01445 0
M  V30 23436 H 2248.23 2.70112 2.63285 0
M  V30 23437 H 2250.62 1.74142 2.38241 0
M  V30 23438 H 2250.7 2.44254 0.759851 0
M  V30 23439 H 2250.34 4.76125 1.76827 0
M  V30 23440 H 2250.27 4.02901 3.39084 0
M  V30 23441 H 2252.76 3.13465 2.11065 0
M  V30 23442 H 2253.08 6.73852 3.78342 0
M  V30 23443 H 2251.42 6.05673 3.40859 0
M  V30 23444 H 2254.61 3.92928 2.54412 0
M  V30 23445 H 2254.78 5.57256 3.30712 0
M  V30 23446 N 2248.19 -0.984277 1.23084 0
M  V30 23447 C 2249.47 -1.69915 0.968929 0
M  V30 23448 C 2249.85 -2.04758 -0.513568 0
M  V30 23449 O 2249.2 -1.73769 -1.4838 0
M  V30 23450 C 2249.41 -2.9434 1.87524 0
M  V30 23451 C 2250.75 -3.66936 2.13642 0
M  V30 23452 O 2251.78 -3.04365 1.85042 0
M  V30 23453 O 2250.64 -4.79533 2.62127 0
M  V30 23454 H 2247.73 -0.742041 0.365108 0
M  V30 23455 H 2250.28 -1.03985 1.34109 0
M  V30 23456 H 2249.05 -2.65159 2.87761 0
M  V30 23457 H 2248.67 -3.68007 1.5052 0
M  V30 23458 N 2249.67 -1.04192 -1.18244 0
M  V30 23459 C 2250.6 -0.654953 -2.24126 0
M  V30 23460 C 2251.58 0.342422 -1.66618 0
M  V30 23461 O 2252.76 0.222243 -1.92924 0
M  V30 23462 C 2249.89 -0.0184367 -3.47295 0
M  V30 23463 C 2248.85 -0.939488 -4.17562 0
M  V30 23464 C 2248.17 -0.16738 -5.34438 0
M  V30 23465 C 2249.47 -2.25916 -4.70913 0
M  V30 23466 H 2251.17 -1.54012 -2.5675 0
M  V30 23467 H 2248.71 -0.741971 -1.23413 0
M  V30 23468 H 2250.67 0.264009 -4.20572 0
M  V30 23469 H 2249.39 0.901609 -3.13909 0
M  V30 23470 H 2248.05 -1.20634 -3.46184 0
M  V30 23471 H 2247.7 0.755112 -4.973 0
M  V30 23472 H 2247.4 -0.781003 -5.82387 0
M  V30 23473 H 2248.92 0.108018 -6.10504 0
M  V30 23474 H 2250.34 -2.03733 -5.35879 0
M  V30 23475 H 2248.73 -2.82586 -5.29401 0
M  V30 23476 H 2249.8 -2.90477 -3.88267 0
M  V30 23477 N 2251.15 1.34492 -0.821557 0
M  V30 23478 C 2252.06 2.33324 -0.244396 0
M  V30 23479 C 2253.07 1.6256 0.620499 0
M  V30 23480 O 2254.25 1.94336 0.52872 0
M  V30 23481 C 2251.31 3.41724 0.585308 0
M  V30 23482 C 2250.37 4.28238 -0.301827 0
M  V30 23483 C 2249.61 5.31461 0.488372 0
M  V30 23484 O 2249.83 5.43794 1.72177 0
M  V30 23485 O 2248.76 6.01763 -0.128586 0
M  V30 23486 H 2252.59 2.84513 -1.06236 0
M  V30 23487 H 2250.18 1.37527 -0.583669 0
M  V30 23488 H 2252.06 4.07918 1.0574 0
M  V30 23489 H 2250.73 2.9278 1.38063 0
M  V30 23490 H 2249.64 3.64971 -0.821379 0
M  V30 23491 H 2250.97 4.80618 -1.06147 0
M  V30 23492 N 2252.62 0.576397 1.46681 0
M  V30 23493 C 2253.56 -0.198191 2.28342 0
M  V30 23494 C 2254.57 -0.861429 1.38142 0
M  V30 23495 O 2255.76 -0.732053 1.62798 0
M  V30 23496 C 2252.86 -1.29967 3.12989 0
M  V30 23497 C 2252.03 -0.729563 4.31273 0
M  V30 23498 C 2251.09 -1.71795 4.97366 0
M  V30 23499 O 2250.12 -1.25648 5.55159 0
M  V30 23500 N 2251.32 -3.05189 4.93801 0
M  V30 23501 H 2254.08 0.502376 2.95459 0
M  V30 23502 H 2251.64 0.413743 1.56524 0
M  V30 23503 H 2253.64 -1.96002 3.5407 0
M  V30 23504 H 2252.21 -1.90319 2.47987 0
M  V30 23505 H 2251.43 0.108081 3.94052 0
M  V30 23506 H 2252.71 -0.328348 5.07739 0
M  V30 23507 H 2252.11 -3.45309 4.48083 0
M  V30 23508 H 2250.67 -3.6673 5.38843 0
M  V30 23509 N 2254.1 -1.54444 0.313841 0
M  V30 23510 C 2255.33 -2.04802 -0.293882 0
M  V30 23511 C 2255.75 -1.1905 -1.46535 0
M  V30 23512 O 2255.1 -0.218971 -1.81182 0
M  V30 23513 C 2255.15 -3.53892 -0.737744 0
M  V30 23514 O 2254.87 -4.36386 0.387115 0
M  V30 23515 C 2256.38 -4.20302 -1.40929 0
M  V30 23516 H 2253.6 -0.66813 -0.061994 0
M  V30 23517 H 2256.14 -1.99324 0.457205 0
M  V30 23518 H 2254.29 -3.5969 -1.43883 0
M  V30 23519 H 2254.71 -5.24485 0.0392196 0
M  V30 23520 H 2256.18 -5.26104 -1.67089 0
M  V30 23521 H 2256.66 -3.7082 -2.35348 0
M  V30 23522 H 2257.27 -4.18616 -0.751043 0
M  V30 23523 N 2255.58 -0.0418125 -1.57545 0
M  V30 23524 C 2256.86 0.673401 -1.83643 0
M  V30 23525 C 2257.24 1.89592 -0.928331 0
M  V30 23526 O 2256.59 2.28496 0.0129553 0
M  V30 23527 C 2256.8 1.03958 -3.33157 0
M  V30 23528 C 2258.14 1.42585 -3.99943 0
M  V30 23529 O 2259.17 1.1322 -3.37727 0
M  V30 23530 O 2258.03 1.97351 -5.09622 0
M  V30 23531 H 2255.12 0.331519 -0.757644 0
M  V30 23532 H 2257.67 -0.0704628 -1.69554 0
M  V30 23533 H 2256.44 0.170029 -3.9093 0
M  V30 23534 H 2256.06 1.8412 -3.524 0
M  V30 23535 N 2257.06 1.55891 0.231477 0
M  V30 23536 C 2258.01 1.916 1.28678 0
M  V30 23537 C 2258.98 0.772 1.47069 0
M  V30 23538 O 2260.16 1.02702 1.60801 0
M  V30 23539 C 2257.3 2.22949 2.63416 0
M  V30 23540 C 2256.41 3.50232 2.52906 0
M  V30 23541 C 2255.55 3.71076 3.801 0
M  V30 23542 C 2254.59 4.91908 3.6427 0
M  V30 23543 N 2253.72 5.09193 4.83391 0
M  V30 23544 H 2258.56 2.8159 0.975255 0
M  V30 23545 H 2256.1 1.3938 0.470274 0
M  V30 23546 H 2258.06 2.39132 3.41865 0
M  V30 23547 H 2256.69 1.36144 2.92685 0
M  V30 23548 H 2255.74 3.42296 1.65944 0
M  V30 23549 H 2257.05 4.38831 2.37126 0
M  V30 23550 H 2256.21 3.87303 4.66992 0
M  V30 23551 H 2254.95 2.8074 3.98794 0
M  V30 23552 H 2253.95 4.75642 2.75762 0
M  V30 23553 H 2255.18 5.8372 3.47056 0
M  V30 23554 H 2253.12 4.21797 5.02418 0
M  V30 23555 H 2253.04 5.91907 4.703 0
M  V30 23556 H 2254.31 5.29845 5.71738 0
M  V30 23557 N 2258.54 -0.497781 1.49532 0
M  V30 23558 C 2259.5 -1.58125 1.65919 0
M  V30 23559 C 2260.5 -1.51785 0.530851 0
M  V30 23560 O 2261.69 -1.54879 0.79737 0
M  V30 23561 C 2258.82 -2.97777 1.65956 0
M  V30 23562 H 2260.01 -1.44924 2.62559 0
M  V30 23563 H 2257.57 -0.722251 1.38612 0
M  V30 23564 H 2258.3 -3.16452 0.70912 0
M  V30 23565 H 2258.09 -3.03788 2.47902 0
M  V30 23566 H 2259.58 -3.7649 1.80679 0
M  V30 23567 N 2260.01 -1.38661 -0.749062 0
M  V30 23568 C 2261.43 -1.31369 -1.32662 0
M  V30 23569 C 2261.78 0.0284495 -1.96179 0
M  V30 23570 O 2260.9 0.930536 -1.95371 0
M  V30 23571 C 2261.5 -2.37909 -2.41215 0
M  V30 23572 C 2260.06 -2.34181 -2.9468 0
M  V30 23573 C 2259.2 -2.20536 -1.68104 0
M  V30 23574 H 2262.15 -1.48953 -0.547602 0
M  V30 23575 H 2262.17 -2.03886 -3.21264 0
M  V30 23576 H 2261.69 -3.3558 -1.94956 0
M  V30 23577 H 2259.79 -1.40106 -3.45255 0
M  V30 23578 H 2259.9 -3.28496 -3.48751 0
M  V30 23579 H 2258.26 -1.67466 -1.91904 0
M  V30 23580 H 2259.05 -3.20155 -1.23918 0
M  V30 23581 N 2261.49 0.977736 -1.23605 0
M  V30 23582 C 2262.4 2.10468 -1.03636 0
M  V30 23583 C 2263.42 1.73989 0.0199129 0
M  V30 23584 O 2264.6 2.00629 -0.176112 0
M  V30 23585 C 2261.66 3.40876 -0.63282 0
M  V30 23586 C 2260.72 3.91364 -1.76444 0
M  V30 23587 C 2259.95 5.15548 -1.38006 0
M  V30 23588 O 2260.18 5.69782 -0.265457 0
M  V30 23589 O 2259.11 5.6017 -2.2021 0
M  V30 23590 H 2262.94 2.30204 -1.9809 0
M  V30 23591 H 2260.52 1.08849 -1.02334 0
M  V30 23592 H 2262.4 4.19313 -0.418834 0
M  V30 23593 H 2261.08 3.22463 0.282697 0
M  V30 23594 H 2259.99 3.14032 -2.03309 0
M  V30 23595 H 2261.32 4.14236 -2.65837 0
M  V30 23596 N 2262.97 1.04818 1.1769 0
M  V30 23597 C 2263.9 0.603861 2.21102 0
M  V30 23598 C 2264.92 -0.330432 1.59411 0
M  V30 23599 O 2266.11 -0.123758 1.7807 0
M  V30 23600 C 2263.21 -0.136838 3.38624 0
M  V30 23601 C 2262.38 0.807213 4.29887 0
M  V30 23602 C 2261.44 0.108452 5.26088 0
M  V30 23603 O 2260.46 0.741331 5.64352 0
M  V30 23604 N 2261.67 -1.15548 5.68884 0
M  V30 23605 H 2264.43 1.49334 2.59845 0
M  V30 23606 H 2261.99 0.92961 1.32551 0
M  V30 23607 H 2263.98 -0.614331 4.0001 0
M  V30 23608 H 2262.55 -0.927941 2.9851 0
M  V30 23609 H 2261.77 1.46441 3.6599 0
M  V30 23610 H 2263.06 1.44816 4.87756 0
M  V30 23611 H 2262.46 -1.69006 5.39864 0
M  V30 23612 H 2261.02 -1.57711 6.32432 0
M  V30 23613 N 2264.45 -1.34055 0.828678 0
M  V30 23614 C 2265.4 -2.29413 0.252607 0
M  V30 23615 C 2266.37 -1.53858 -0.625853 0
M  V30 23616 O 2267.55 -1.82203 -0.56628 0
M  V30 23617 C 2264.69 -3.4028 -0.574771 0
M  V30 23618 C 2263.8 -4.30764 0.326575 0
M  V30 23619 C 2262.94 -5.28737 -0.510923 0
M  V30 23620 C 2261.98 -6.1086 0.38945 0
M  V30 23621 N 2261.12 -7.00906 -0.409315 0
M  V30 23622 H 2265.96 -2.78084 1.07113 0
M  V30 23623 H 2263.49 -1.36842 0.539701 0
M  V30 23624 H 2265.45 -4.03249 -1.06985 0
M  V30 23625 H 2264.08 -2.92828 -1.35836 0
M  V30 23626 H 2263.13 -3.68605 0.939902 0
M  V30 23627 H 2264.44 -4.88288 1.01866 0
M  V30 23628 H 2263.6 -5.97186 -1.07024 0
M  V30 23629 H 2262.34 -4.71765 -1.23648 0
M  V30 23630 H 2261.34 -5.41339 0.960864 0
M  V30 23631 H 2262.57 -6.69914 1.11321 0
M  V30 23632 H 2260.51 -6.46395 -1.11845 0
M  V30 23633 H 2260.43 -7.55667 0.224259 0
M  V30 23634 H 2261.7 -7.73675 -0.9512 0
M  V30 23635 N 2265.93 -0.584167 -1.46374 0
M  V30 23636 C 2266.88 0.169192 -2.27371 0
M  V30 23637 C 2267.86 0.860499 -1.35957 0
M  V30 23638 O 2269.05 0.754354 -1.6012 0
M  V30 23639 C 2266.18 1.18128 -3.22336 0
M  V30 23640 C 2265.27 0.492014 -4.21236 0
M  V30 23641 N 2265.66 -0.453218 -5.03765 0
M  V30 23642 C 2263.96 0.742574 -4.39775 0
M  V30 23643 C 2264.66 -0.856192 -5.75364 0
M  V30 23644 N 2263.63 -0.205022 -5.43213 0
M  V30 23645 H 2267.44 -0.557147 -2.88571 0
M  V30 23646 H 2264.95 -0.40607 -1.57241 0
M  V30 23647 H 2266.95 1.73519 -3.79074 0
M  V30 23648 H 2265.61 1.90843 -2.62696 0
M  V30 23649 H 2266.62 -0.828813 -5.11225 0
M  V30 23650 H 2263.3 1.45618 -3.91282 0
M  V30 23651 H 2264.69 -1.63446 -6.51717 0
M  V30 23652 N 2267.41 1.54275 -0.322027 0
M  V30 23653 C 2268.34 2.21776 0.578632 0
M  V30 23654 C 2269.35 1.21724 1.08107 0
M  V30 23655 O 2270.54 1.48202 0.994912 0
M  V30 23656 C 2267.64 2.86735 1.80656 0
M  V30 23657 C 2266.81 4.12909 1.44307 0
M  V30 23658 C 2265.87 4.61476 2.52837 0
M  V30 23659 O 2264.9 5.26194 2.17045 0
M  V30 23660 N 2266.1 4.35573 3.8374 0
M  V30 23661 H 2268.86 2.997 0.000656767 0
M  V30 23662 H 2266.43 1.61248 -0.14516 0
M  V30 23663 H 2268.42 3.16149 2.52649 0
M  V30 23664 H 2266.99 2.12525 2.29242 0
M  V30 23665 H 2266.21 3.90276 0.554837 0
M  V30 23666 H 2267.5 4.95025 1.17589 0
M  V30 23667 H 2266.89 3.83769 4.15618 0
M  V30 23668 H 2265.45 4.69646 4.51969 0
M  V30 23669 N 2268.88 0.0501669 1.5752 0
M  V30 23670 C 2269.85 -0.909749 2.10372 0
M  V30 23671 C 2270.85 -1.24054 1.0231 0
M  V30 23672 O 2272.04 -1.17739 1.28387 0
M  V30 23673 C 2269.17 -2.21994 2.58712 0
M  V30 23674 H 2270.36 -0.451613 2.9648 0
M  V30 23675 H 2267.91 -0.19822 1.55038 0
M  V30 23676 H 2268.65 -2.72391 1.75994 0
M  V30 23677 H 2268.43 -1.99289 3.37678 0
M  V30 23678 H 2269.92 -2.90755 2.99752 0
M  V30 23679 N 2270.36 -1.56011 -0.223207 0
M  V30 23680 C 2271.29 -1.88764 -1.30003 0
M  V30 23681 C 2272.31 -0.775771 -1.43128 0
M  V30 23682 O 2273.5 -1.05406 -1.44055 0
M  V30 23683 C 2270.6 -2.0797 -2.67585 0
M  V30 23684 C 2269.77 -3.38978 -2.76428 0
M  V30 23685 C 2268.83 -3.47636 -3.95013 0
M  V30 23686 O 2267.85 -4.20679 -3.83429 0
M  V30 23687 N 2269.06 -2.78658 -5.09245 0
M  V30 23688 H 2271.82 -2.81724 -1.02233 0
M  V30 23689 H 2269.38 -1.56537 -0.41325 0
M  V30 23690 H 2271.37 -2.11079 -3.45294 0
M  V30 23691 H 2269.94 -1.21643 -2.87961 0
M  V30 23692 H 2269.16 -3.47981 -1.8521 0
M  V30 23693 H 2270.45 -4.25283 -2.79305 0
M  V30 23694 H 2269.85 -2.1909 -5.21552 0
M  V30 23695 H 2268.41 -2.87431 -5.85002 0
M  V30 23696 N 2271.84 0.489844 -1.49794 0
M  V30 23697 C 2272.75 1.6163 -1.70038 0
M  V30 23698 C 2273.77 1.63938 -0.583131 0
M  V30 23699 O 2274.94 1.82153 -0.859201 0
M  V30 23700 C 2272.01 2.97946 -1.77282 0
M  V30 23701 C 2271.07 3.06176 -3.00923 0
M  V30 23702 C 2270.3 4.3599 -3.07812 0
M  V30 23703 O 2270.52 5.2543 -2.21991 0
M  V30 23704 O 2269.46 4.49424 -4.00377 0
M  V30 23705 H 2273.28 1.47477 -2.65489 0
M  V30 23706 H 2270.87 0.667339 -1.33667 0
M  V30 23707 H 2272.75 3.78944 -1.84336 0
M  V30 23708 H 2271.43 3.12337 -0.850131 0
M  V30 23709 H 2270.33 2.24325 -2.99381 0
M  V30 23710 H 2271.67 2.96716 -3.92709 0
M  V30 23711 N 2273.32 1.39056 0.741698 0
M  V30 23712 C 2274.25 1.33136 1.86567 0
M  V30 23713 C 2275.26 0.241357 1.61001 0
M  V30 23714 O 2276.45 0.499814 1.7136 0
M  V30 23715 C 2273.55 1.04288 3.22455 0
M  V30 23716 C 2272.72 2.24434 3.75431 0
M  V30 23717 C 2271.78 1.92146 4.89864 0
M  V30 23718 O 2270.81 2.64763 5.03874 0
M  V30 23719 N 2272.01 0.883571 5.73736 0
M  V30 23720 H 2274.78 2.29995 1.92152 0
M  V30 23721 H 2272.34 1.33072 0.922149 0
M  V30 23722 H 2274.33 0.807197 3.96568 0
M  V30 23723 H 2272.9 0.161862 3.12181 0
M  V30 23724 H 2272.12 2.63995 2.92746 0
M  V30 23725 H 2273.41 3.04588 4.07558 0
M  V30 23726 H 2272.81 0.281616 5.64999 0
M  V30 23727 H 2271.36 0.707776 6.47946 0
M  V30 23728 N 2274.8 -0.971167 1.24121 0
M  V30 23729 C 2275.74 -2.06515 1.03054 0
M  V30 23730 C 2276.71 -1.66009 -0.0550374 0
M  V30 23731 O 2277.9 -1.90543 0.0989023 0
M  V30 23732 C 2275.04 -3.39157 0.637712 0
M  V30 23733 C 2274.15 -3.92878 1.7964 0
M  V30 23734 C 2273.29 -5.13773 1.34948 0
M  V30 23735 C 2272.32 -5.59683 2.47833 0
M  V30 23736 N 2271.46 -6.718 2.04034 0
M  V30 23737 H 2276.3 -2.23869 1.96689 0
M  V30 23738 H 2273.84 -1.09727 0.979714 0
M  V30 23739 H 2275.8 -4.15364 0.391004 0
M  V30 23740 H 2274.43 -3.21738 -0.261636 0
M  V30 23741 H 2273.48 -3.13342 2.15687 0
M  V30 23742 H 2274.79 -4.22913 2.64473 0
M  V30 23743 H 2273.94 -5.97343 1.06144 0
M  V30 23744 H 2272.68 -4.85414 0.471642 0
M  V30 23745 H 2271.69 -4.74688 2.77401 0
M  V30 23746 H 2272.91 -5.90057 3.36169 0
M  V30 23747 H 2270.86 -6.45182 1.18643 0
M  V30 23748 H 2270.78 -7.01266 2.82422 0
M  V30 23749 H 2272.04 -7.5882 1.7836 0
M  V30 23750 N 2276.27 -1.05441 -1.17133 0
M  V30 23751 C 2277.55 -0.679731 -1.83409 0
M  V30 23752 C 2277.93 0.839692 -1.93681 0
M  V30 23753 O 2277.28 1.74662 -1.47328 0
M  V30 23754 C 2277.49 -1.37164 -3.20916 0
M  V30 23755 C 2278.84 -1.5113 -3.96793 0
M  V30 23756 O 2279.86 -1.33086 -3.30404 0
M  V30 23757 O 2278.72 -1.8066 -5.15775 0
M  V30 23758 H 2275.81 -0.239583 -0.791536 0
M  V30 23759 H 2278.36 -1.15415 -1.24408 0
M  V30 23760 H 2277.13 -2.40813 -3.08423 0
M  V30 23761 H 2276.76 -0.886742 -3.87586 0
M  V30 23762 N 2277.75 1.33613 -0.835776 0
M  V30 23763 C 2278.7 2.29276 -0.26477 0
M  V30 23764 C 2279.67 1.54188 0.617685 0
M  V30 23765 O 2280.85 1.82501 0.556609 0
M  V30 23766 C 2277.99 3.4058 0.556717 0
M  V30 23767 C 2277.11 4.30585 -0.349415 0
M  V30 23768 C 2276.24 5.29001 0.482876 0
M  V30 23769 C 2275.28 6.10645 -0.42184 0
M  V30 23770 N 2274.42 7.01113 0.372139 0
M  V30 23771 H 2279.26 2.77512 -1.08586 0
M  V30 23772 H 2276.8 1.36553 -0.546951 0
M  V30 23773 H 2278.75 4.03811 1.04845 0
M  V30 23774 H 2277.38 2.93545 1.34281 0
M  V30 23775 H 2276.44 3.68102 -0.959437 0
M  V30 23776 H 2277.75 4.87741 -1.04454 0
M  V30 23777 H 2276.9 5.97745 1.03856 0
M  V30 23778 H 2275.64 4.72414 1.21145 0
M  V30 23779 H 2274.65 5.40821 -0.989559 0
M  V30 23780 H 2275.87 6.69314 -1.14873 0
M  V30 23781 H 2273.82 6.46979 1.08415 0
M  V30 23782 H 2273.73 7.55538 -0.26433 0
M  V30 23783 H 2275 7.74168 0.910157 0
M  V30 23784 N 2279.23 0.591922 1.46062 0
M  V30 23785 C 2280.48 0.0811547 2.02638 0
M  V30 23786 C 2280.81 -1.27902 1.46132 0
M  V30 23787 O 2280.08 -1.84016 0.62994 0
M  V30 23788 C 2280.37 0.0253069 3.60091 0
M  V30 23789 C 2280.22 1.41504 4.26962 0
M  V30 23790 C 2281.54 -0.670608 4.34961 0
M  V30 23791 H 2278.66 0.0309654 0.736349 0
M  V30 23792 H 2281.3 0.76089 1.74099 0
M  V30 23793 H 2279.45 -0.553557 3.84536 0
M  V30 23794 H 2281.12 2.03978 4.13752 0
M  V30 23795 H 2279.37 1.98018 3.85968 0
M  V30 23796 H 2280.04 1.32835 5.35779 0
M  V30 23797 H 2282.51 -0.178752 4.15716 0
M  V30 23798 H 2281.39 -0.678742 5.44687 0
M  V30 23799 H 2281.65 -1.73371 4.06688 0
M  V30 23800 N 2280.71 -1.54102 0.330204 0
M  V30 23801 C 2281.93 -2.05571 -0.274857 0
M  V30 23802 C 2282.36 -1.20439 -1.44485 0
M  V30 23803 O 2281.72 -0.215023 -1.8002 0
M  V30 23804 C 2281.76 -3.54116 -0.680727 0
M  V30 23805 O 2280.87 -3.71896 -1.78234 0
M  V30 23806 H 2280.21 -0.662236 -0.0483732 0
M  V30 23807 H 2282.74 -1.98877 0.480543 0
M  V30 23808 H 2282.75 -3.96507 -0.961565 0
M  V30 23809 H 2281.42 -4.15532 0.174976 0
M  V30 23810 H 2280 -3.4141 -1.49979 0
M  V30 23811 N 2282.19 -0.0585199 -1.57491 0
M  V30 23812 C 2283.1 0.928376 -2.15449 0
M  V30 23813 C 2284.11 1.33648 -1.11419 0
M  V30 23814 O 2285.29 1.4119 -1.43622 0
M  V30 23815 C 2282.35 2.18234 -2.69397 0
M  V30 23816 C 2281.41 1.8319 -3.88253 0
M  V30 23817 C 2280.65 3.02608 -4.39618 0
M  V30 23818 O 2280.87 4.16212 -3.90031 0
M  V30 23819 O 2279.8 2.83195 -5.31116 0
M  V30 23820 H 2283.63 0.46543 -3.00112 0
M  V30 23821 H 2281.22 0.1638 -1.48499 0
M  V30 23822 H 2283.1 2.91792 -3.04032 0
M  V30 23823 H 2281.77 2.63652 -1.87801 0
M  V30 23824 H 2280.68 1.06924 -3.58494 0
M  V30 23825 H 2282.01 1.42565 -4.71101 0
M  V30 23826 N 2283.66 1.56128 0.21493 0
M  V30 23827 C 2284.61 1.92954 1.26639 0
M  V30 23828 C 2285.58 0.787555 1.46242 0
M  V30 23829 O 2286.77 1.04402 1.59702 0
M  V30 23830 C 2283.91 2.2573 2.61036 0
M  V30 23831 C 2283.02 3.52895 2.49177 0
M  V30 23832 C 2282.15 3.75087 3.76143 0
M  V30 23833 C 2281.19 4.95744 3.59033 0
M  V30 23834 N 2280.33 5.14291 4.77963 0
M  V30 23835 H 2285.17 2.82608 0.945334 0
M  V30 23836 H 2282.71 1.39871 0.455465 0
M  V30 23837 H 2284.67 2.42745 3.39309 0
M  V30 23838 H 2283.3 1.39241 2.91225 0
M  V30 23839 H 2282.35 3.44037 1.62304 0
M  V30 23840 H 2283.66 4.41322 2.32458 0
M  V30 23841 H 2282.81 3.92234 4.62858 0
M  V30 23842 H 2281.55 2.84954 3.95794 0
M  V30 23843 H 2280.56 4.7854 2.70701 0
M  V30 23844 H 2281.78 5.87368 3.40846 0
M  V30 23845 H 2279.73 4.27102 4.97916 0
M  V30 23846 H 2279.65 5.96862 4.63996 0
M  V30 23847 H 2280.91 5.35879 5.66086 0
M  V30 23848 N 2285.14 -0.481893 1.50052 0
M  V30 23849 C 2286.09 -1.58122 1.68125 0
M  V30 23850 C 2287.06 -1.57665 0.522573 0
M  V30 23851 O 2288.24 -1.75361 0.751874 0
M  V30 23852 C 2285.38 -2.96164 1.77147 0
M  V30 23853 C 2284.5 -3.06491 3.04445 0
M  V30 23854 C 2283.63 -4.35382 3.04329 0
M  V30 23855 C 2282.67 -4.39412 4.26126 0
M  V30 23856 N 2281.81 -5.59758 4.2381 0
M  V30 23857 H 2286.65 -1.42017 2.61983 0
M  V30 23858 H 2284.19 -0.690664 1.29878 0
M  V30 23859 H 2286.14 -3.762 1.80358 0
M  V30 23860 H 2284.77 -3.10928 0.867383 0
M  V30 23861 H 2283.83 -2.19396 3.10756 0
M  V30 23862 H 2285.14 -3.05329 3.94431 0
M  V30 23863 H 2284.29 -5.23756 3.06209 0
M  V30 23864 H 2283.03 -4.39138 2.12154 0
M  V30 23865 H 2282.04 -3.49437 4.24469 0
M  V30 23866 H 2283.26 -4.37357 5.19515 0
M  V30 23867 H 2281.21 -5.6432 3.34484 0
M  V30 23868 H 2281.12 -5.60292 5.07552 0
M  V30 23869 H 2282.39 -6.50287 4.29821 0
M  V30 23870 N 2286.62 -1.39448 -0.734313 0
M  V30 23871 C 2287.9 -1.27217 -1.48577 0
M  V30 23872 C 2288.28 0.117931 -2.1077 0
M  V30 23873 O 2287.63 1.12921 -1.98648 0
M  V30 23874 C 2287.84 -2.397 -2.53663 0
M  V30 23875 C 2289.18 -2.7905 -3.20026 0
M  V30 23876 O 2290.21 -2.39155 -2.63976 0
M  V30 23877 O 2289.07 -3.47912 -4.21449 0
M  V30 23878 H 2286.16 -0.498582 -0.659807 0
M  V30 23879 H 2288.71 -1.51323 -0.76808 0
M  V30 23880 H 2287.48 -3.3263 -2.0609 0
M  V30 23881 H 2287.1 -2.17264 -3.3299 0
M  V30 23882 N 2288.1 0.964571 -1.24635 0
M  V30 23883 C 2289.03 2.06266 -0.999339 0
M  V30 23884 C 2290.04 1.62768 0.032294 0
M  V30 23885 O 2291.23 1.77318 -0.20511 0
M  V30 23886 C 2288.33 3.35384 -0.486875 0
M  V30 23887 C 2287.51 4.07774 -1.58237 0
M  V30 23888 C 2286.56 5.15165 -1.07201 0
M  V30 23889 O 2285.59 5.41165 -1.76435 0
M  V30 23890 N 2286.79 5.80427 0.0919352 0
M  V30 23891 H 2289.56 2.28029 -1.94481 0
M  V30 23892 H 2287.12 1.13242 -1.15706 0
M  V30 23893 H 2289.11 4.04491 -0.130138 0
M  V30 23894 H 2287.68 3.10469 0.364405 0
M  V30 23895 H 2286.9 3.32903 -2.11115 0
M  V30 23896 H 2288.19 4.52899 -2.31862 0
M  V30 23897 H 2287.59 5.6171 0.670685 0
M  V30 23898 H 2286.14 6.50633 0.389791 0
M  V30 23899 N 2289.58 1.0606 1.16572 0
M  V30 23900 C 2290.54 0.67343 2.19083 0
M  V30 23901 C 2291.54 -0.27962 1.5835 0
M  V30 23902 O 2292.73 -0.0623182 1.74088 0
M  V30 23903 C 2289.86 -0.00948241 3.40899 0
M  V30 23904 H 2291.05 1.58086 2.54851 0
M  V30 23905 H 2288.61 0.855539 1.30806 0
M  V30 23906 H 2289.34 -0.929772 3.10686 0
M  V30 23907 H 2289.13 0.675798 3.86232 0
M  V30 23908 H 2290.62 -0.266171 4.16751 0
M  V30 23909 N 2291.06 -1.33168 0.84285 0
M  V30 23910 C 2291.99 -2.31641 0.294069 0
M  V30 23911 C 2292.97 -1.59153 -0.600373 0
M  V30 23912 O 2294.15 -1.87022 -0.523091 0
M  V30 23913 C 2291.28 -3.43257 -0.528355 0
M  V30 23914 C 2290.24 -4.27143 0.270635 0
M  V30 23915 C 2289.56 -5.30412 -0.675788 0
M  V30 23916 C 2290.86 -5.00599 1.4899 0
M  V30 23917 H 2292.56 -2.77789 1.11686 0
M  V30 23918 H 2290.1 -1.33552 0.538502 0
M  V30 23919 H 2292.05 -4.11176 -0.922602 0
M  V30 23920 H 2290.78 -2.95808 -1.38439 0
M  V30 23921 H 2289.44 -3.60855 0.646491 0
M  V30 23922 H 2289.09 -4.79219 -1.52834 0
M  V30 23923 H 2288.79 -5.8742 -0.145271 0
M  V30 23924 H 2290.31 -6.01197 -1.06746 0
M  V30 23925 H 2291.72 -5.61264 1.16859 0
M  V30 23926 H 2290.12 -5.67276 1.95749 0
M  V30 23927 H 2291.19 -4.29143 2.25753 0
M  V30 23928 N 2292.53 -0.599659 -1.45746 0
M  V30 23929 C 2293.44 0.125847 -2.34262 0
M  V30 23930 C 2294.46 0.868598 -1.50769 0
M  V30 23931 O 2295.64 0.827971 -1.83594 0
M  V30 23932 C 2292.7 1.11581 -3.28254 0
M  V30 23933 C 2291.76 0.375881 -4.27651 0
M  V30 23934 C 2290.99 1.31868 -5.17152 0
M  V30 23935 O 2291.22 2.55612 -5.0992 0
M  V30 23936 O 2290.15 0.820052 -5.96287 0
M  V30 23937 H 2293.98 -0.601368 -2.97687 0
M  V30 23938 H 2291.56 -0.35996 -1.44999 0
M  V30 23939 H 2293.44 1.68619 -3.86194 0
M  V30 23940 H 2292.12 1.82419 -2.67404 0
M  V30 23941 H 2291.03 -0.236763 -3.7335 0
M  V30 23942 H 2292.36 -0.291856 -4.91334 0
M  V30 23943 N 2294.01 1.53925 -0.338371 0
M  V30 23944 C 2294.94 2.22377 0.555078 0
M  V30 23945 C 2295.96 1.22864 1.0681 0
M  V30 23946 O 2297.15 1.49249 0.979137 0
M  V30 23947 C 2294.25 2.88635 1.77604 0
M  V30 23948 C 2293.42 4.14417 1.3992 0
M  V30 23949 C 2292.48 4.64132 2.47928 0
M  V30 23950 O 2291.5 5.28466 2.11452 0
M  V30 23951 N 2292.71 4.39618 3.79099 0
M  V30 23952 H 2295.47 2.99684 -0.0311305 0
M  V30 23953 H 2293.03 1.61085 -0.162254 0
M  V30 23954 H 2295.02 3.18811 2.49282 0
M  V30 23955 H 2293.59 2.14945 2.26975 0
M  V30 23956 H 2292.81 3.90842 0.513412 0
M  V30 23957 H 2294.1 4.96245 1.12332 0
M  V30 23958 H 2293.5 3.88155 4.11524 0
M  V30 23959 H 2292.06 4.74414 4.46962 0
M  V30 23960 N 2295.49 0.0668712 1.57458 0
M  V30 23961 C 2296.44 -0.902085 2.12441 0
M  V30 23962 C 2297.41 -1.29858 1.03567 0
M  V30 23963 O 2298.59 -1.3853 1.31203 0
M  V30 23964 C 2295.73 -2.16609 2.68653 0
M  V30 23965 C 2294.84 -1.82267 3.91667 0
M  V30 23966 C 2293.98 -3.03242 4.36139 0
M  V30 23967 C 2293.02 -2.64895 5.51813 0
M  V30 23968 N 2292.16 -3.78613 5.91267 0
M  V30 23969 H 2297 -0.42633 2.94935 0
M  V30 23970 H 2294.53 -0.198793 1.45751 0
M  V30 23971 H 2296.49 -2.90594 2.99351 0
M  V30 23972 H 2295.12 -2.61734 1.88932 0
M  V30 23973 H 2294.17 -0.983654 3.67462 0
M  V30 23974 H 2295.48 -1.50051 4.75695 0
M  V30 23975 H 2294.64 -3.85511 4.68472 0
M  V30 23976 H 2293.38 -3.38649 3.50954 0
M  V30 23977 H 2292.38 -1.81046 5.19136 0
M  V30 23978 H 2293.61 -2.30664 6.38726 0
M  V30 23979 H 2291.55 -4.13791 5.09032 0
M  V30 23980 H 2291.47 -3.50148 6.70024 0
M  V30 23981 H 2292.74 -4.61475 6.2822 0
M  V30 23982 N 2296.97 -1.56239 -0.206647 0
M  V30 23983 C 2298.2 -1.83775 -0.943942 0
M  V30 23984 C 2298.61 -0.645734 -1.7784 0
M  V30 23985 O 2297.95 0.394976 -1.79404 0
M  V30 23986 C 2298.01 -3.05255 -1.89894 0
M  V30 23987 C 2297.67 -4.39642 -1.24757 0
M  V30 23988 C 2298.67 -5.16067 -0.630125 0
M  V30 23989 C 2296.36 -4.86373 -1.25487 0
M  V30 23990 C 2298.35 -6.37394 -0.0286826 0
M  V30 23991 C 2296.04 -6.07638 -0.649592 0
M  V30 23992 C 2297.04 -6.8299 -0.0375645 0
M  V30 23993 O 2296.72 -8.01959 0.558261 0
M  V30 23994 H 2296.46 -0.614602 -0.281497 0
M  V30 23995 H 2299.01 -2.04192 -0.222422 0
M  V30 23996 H 2297.24 -2.80693 -2.65985 0
M  V30 23997 H 2298.93 -3.19535 -2.50305 0
M  V30 23998 H 2299.69 -4.81063 -0.616701 0
M  V30 23999 H 2295.57 -4.27686 -1.72064 0
M  V30 24000 H 2299.12 -6.96149 0.44964 0
M  V30 24001 H 2295.01 -6.42112 -0.660479 0
M  V30 24002 H 2295.78 -8.1724 0.454035 0
M  V30 24003 N 2298.45 0.473929 -1.50305 0
M  V30 24004 C 2299.69 1.22518 -1.6236 0
M  V30 24005 C 2300.05 1.89744 -0.318588 0
M  V30 24006 O 2299.34 1.79002 0.683284 0
M  V30 24007 C 2299.53 2.29544 -2.73942 0
M  V30 24008 C 2299.36 1.72817 -4.15168 0
M  V30 24009 C 2298.13 1.52915 -4.81607 0
M  V30 24010 C 2300.33 1.22472 -4.99505 0
M  V30 24011 N 2298.31 0.914023 -6.07058 0
M  V30 24012 C 2299.68 0.732635 -6.15656 0
M  V30 24013 C 2301.74 1.113 -4.85301 0
M  V30 24014 C 2300.44 0.139849 -7.19164 0
M  V30 24015 C 2302.47 0.534155 -5.88983 0
M  V30 24016 C 2301.83 0.0524324 -7.0438 0
M  V30 24017 H 2297.93 0.437309 -0.648294 0
M  V30 24018 H 2300.51 0.527659 -1.87414 0
M  V30 24019 H 2298.68 2.96726 -2.50616 0
M  V30 24020 H 2300.42 2.96569 -2.75371 0
M  V30 24021 H 2297.17 1.7806 -4.38853 0
M  V30 24022 H 2297.59 0.624952 -6.74109 0
M  V30 24023 H 2302.24 1.47137 -3.96372 0
M  V30 24024 H 2299.95 -0.230733 -8.07771 0
M  V30 24025 H 2303.54 0.450117 -5.80056 0
M  V30 24026 H 2302.42 -0.388462 -7.83237 0
M  V30 24027 N 2299.92 1.39835 0.726907 0
M  V30 24028 C 2300.89 1.38966 1.82267 0
M  V30 24029 C 2301.89 0.285362 1.58248 0
M  V30 24030 O 2303.08 0.543689 1.65498 0
M  V30 24031 C 2300.21 1.17025 3.20184 0
M  V30 24032 H 2301.4 2.36479 1.84439 0
M  V30 24033 H 2298.95 1.25518 0.931393 0
M  V30 24034 H 2299.69 0.202261 3.23669 0
M  V30 24035 H 2299.47 1.97003 3.39016 0
M  V30 24036 H 2300.96 1.19177 4.00233 0
M  V30 24037 N 2301.4 -0.957948 1.25144 0
M  V30 24038 C 2302.33 -2.07171 1.07715 0
M  V30 24039 C 2303.31 -1.70095 -0.0128163 0
M  V30 24040 O 2304.5 -1.93572 0.156095 0
M  V30 24041 C 2301.63 -3.40345 0.691562 0
M  V30 24042 C 2300.58 -3.91416 1.73139 0
M  V30 24043 C 2299.91 -5.21047 1.20059 0
M  V30 24044 C 2301.21 -4.18164 3.12947 0
M  V30 24045 H 2302.9 -2.22011 2.00877 0
M  V30 24046 H 2300.45 -1.06682 0.96721 0
M  V30 24047 H 2302.4 -4.17708 0.556578 0
M  V30 24048 H 2301.12 -3.25434 -0.275761 0
M  V30 24049 H 2299.78 -3.16219 1.85476 0
M  V30 24050 H 2299.43 -5.02503 0.223587 0
M  V30 24051 H 2299.13 -5.56186 1.89554 0
M  V30 24052 H 2300.66 -6.0101 1.07792 0
M  V30 24053 H 2302.07 -4.86198 3.03783 0
M  V30 24054 H 2300.47 -4.64552 3.79883 0
M  V30 24055 H 2301.54 -3.24567 3.60256 0
M  V30 24056 N 2302.88 -1.06677 -1.16008 0
M  V30 24057 C 2304.13 -0.784262 -1.86263 0
M  V30 24058 C 2304.45 0.691456 -1.82329 0
M  V30 24059 O 2303.72 1.50045 -1.2595 0
M  V30 24060 H 2302.3 -0.287122 -0.689616 0
M  V30 24061 H 2304.96 -1.34908 -1.40662 0
M  V30 24062 H 2304.06 -1.11264 -2.91593 0
M  V30 24063 N 2304.36 1.32719 -0.8499 0
M  V30 24064 C 2305.29 2.2785 -0.248372 0
M  V30 24065 C 2306.3 1.52225 0.577191 0
M  V30 24066 O 2307.49 1.73904 0.402458 0
M  V30 24067 C 2304.59 3.3225 0.668048 0
M  V30 24068 C 2303.76 4.37234 -0.120611 0
M  V30 24069 C 2302.82 5.21239 0.720841 0
M  V30 24070 O 2301.85 5.68986 0.156066 0
M  V30 24071 N 2303.05 5.4361 2.03638 0
M  V30 24072 H 2305.82 2.80109 -1.06579 0
M  V30 24073 H 2303.38 1.45529 -0.709421 0
M  V30 24074 H 2305.37 3.85357 1.2362 0
M  V30 24075 H 2303.94 2.80186 1.38616 0
M  V30 24076 H 2303.16 3.84476 -0.870176 0
M  V30 24077 H 2304.45 5.04468 -0.662494 0
M  V30 24078 H 2303.85 5.06539 2.51862 0
M  V30 24079 H 2302.4 5.99731 2.55276 0
M  V30 24080 N 2305.84 0.60738 1.45426 0
M  V30 24081 C 2306.78 -0.111584 2.3053 0
M  V30 24082 C 2307.75 -0.860191 1.42091 0
M  V30 24083 O 2308.94 -0.845968 1.71021 0
M  V30 24084 C 2306.08 -1.10313 3.26994 0
M  V30 24085 C 2305.19 -0.355417 4.30535 0
M  V30 24086 C 2304.33 -1.33667 5.14108 0
M  V30 24087 C 2303.37 -0.576755 6.09377 0
M  V30 24088 N 2302.5 -1.50728 6.8573 0
M  V30 24089 H 2307.34 0.620145 2.91476 0
M  V30 24090 H 2304.88 0.317619 1.4363 0
M  V30 24091 H 2306.84 -1.69114 3.81388 0
M  V30 24092 H 2305.47 -1.80227 2.67802 0
M  V30 24093 H 2304.52 0.348089 3.78804 0
M  V30 24094 H 2305.83 0.23751 4.98234 0
M  V30 24095 H 2304.99 -1.99674 5.72901 0
M  V30 24096 H 2303.72 -1.96353 4.46427 0
M  V30 24097 H 2302.73 0.0969486 5.49715 0
M  V30 24098 H 2303.95 0.0450534 6.79085 0
M  V30 24099 H 2301.9 -2.12179 6.20738 0
M  V30 24100 H 2301.82 -0.967781 7.4978 0
M  V30 24101 H 2303.09 -2.15693 7.49064 0
M  V30 24102 N 2307.31 -1.53743 0.34653 0
M  V30 24103 C 2308.59 -1.93215 -0.304498 0
M  V30 24104 C 2308.97 -1.27837 -1.67991 0
M  V30 24105 O 2308.32 -0.430391 -2.2441 0
M  V30 24106 C 2308.53 -3.46993 -0.373791 0
M  V30 24107 C 2309.88 -4.20001 -0.623216 0
M  V30 24108 O 2310.9 -3.53272 -0.455785 0
M  V30 24109 O 2309.76 -5.38219 -0.947784 0
M  V30 24110 H 2306.85 -0.80755 -0.178304 0
M  V30 24111 H 2309.4 -1.64969 0.397924 0
M  V30 24112 H 2308.17 -3.86807 0.591292 0
M  V30 24113 H 2307.8 -3.81415 -1.12288 0
M  V30 24114 N 2308.79 -0.0752207 -1.5742 0
M  V30 24115 C 2309.7 0.905473 -2.16422 0
M  V30 24116 C 2310.72 1.32459 -1.1283 0
M  V30 24117 O 2311.89 1.39659 -1.45112 0
M  V30 24118 C 2308.96 2.15365 -2.71696 0
M  V30 24119 C 2308.02 1.79061 -3.90174 0
M  V30 24120 C 2307.25 2.97928 -4.42803 0
M  V30 24121 O 2307.48 4.12051 -3.94423 0
M  V30 24122 O 2306.41 2.77546 -5.3409 0
M  V30 24123 H 2310.24 0.433573 -3.00589 0
M  V30 24124 H 2307.82 0.148041 -1.48665 0
M  V30 24125 H 2309.7 2.88551 -3.07109 0
M  V30 24126 H 2308.38 2.61646 -1.90587 0
M  V30 24127 H 2307.29 1.03116 -3.59608 0
M  V30 24128 H 2308.62 1.3756 -4.72587 0
M  V30 24129 N 2310.27 1.56347 0.198358 0
M  V30 24130 C 2311.23 1.93433 1.22949 0
M  V30 24131 C 2312.23 0.815116 1.38609 0
M  V30 24132 O 2313.42 1.08258 1.36477 0
M  V30 24133 C 2310.56 2.20551 2.59942 0
M  V30 24134 H 2311.75 2.85678 0.912576 0
M  V30 24135 H 2309.3 1.49986 0.439744 0
M  V30 24136 H 2310.04 1.30932 2.96694 0
M  V30 24137 H 2309.82 3.02107 2.49948 0
M  V30 24138 H 2311.31 2.50259 3.34306 0
M  V30 24139 N 2311.75 -0.465951 1.50554 0
M  V30 24140 C 2312.68 -1.57125 1.72725 0
M  V30 24141 C 2313.66 -1.60039 0.576322 0
M  V30 24142 O 2314.84 -1.76224 0.816011 0
M  V30 24143 C 2311.97 -2.95416 1.82611 0
M  V30 24144 C 2310.93 -3.07368 2.9784 0
M  V30 24145 C 2310.25 -4.47357 2.92875 0
M  V30 24146 C 2311.55 -2.84106 4.3827 0
M  V30 24147 H 2313.25 -1.38825 2.6527 0
M  V30 24148 H 2310.79 -0.666418 1.27651 0
M  V30 24149 H 2312.75 -3.72673 1.96705 0
M  V30 24150 H 2311.47 -3.14884 0.866914 0
M  V30 24151 H 2310.13 -2.32545 2.83405 0
M  V30 24152 H 2309.78 -4.63752 1.94791 0
M  V30 24153 H 2309.48 -4.56289 3.70235 0
M  V30 24154 H 2311 -5.26627 3.09024 0
M  V30 24155 H 2312.42 -3.5111 4.53205 0
M  V30 24156 H 2310.81 -3.04478 5.1712 0
M  V30 24157 H 2311.88 -1.79923 4.50284 0
M  V30 24158 N 2313.23 -1.40218 -0.719481 0
M  V30 24159 C 2314.14 -1.42483 -1.86375 0
M  V30 24160 C 2315.15 -0.317864 -1.71072 0
M  V30 24161 O 2316.33 -0.561828 -1.93405 0
M  V30 24162 C 2313.39 -1.28183 -3.22133 0
M  V30 24163 C 2312.45 -2.48988 -3.49719 0
M  V30 24164 C 2311.69 -2.35362 -4.79 0
M  V30 24165 O 2311.91 -1.36534 -5.53818 0
M  V30 24166 O 2310.84 -3.24659 -5.06834 0
M  V30 24167 H 2314.67 -2.38971 -1.87421 0
M  V30 24168 H 2312.26 -1.21499 -0.869384 0
M  V30 24169 H 2314.14 -1.22402 -4.03232 0
M  V30 24170 H 2312.81 -0.347991 -3.21824 0
M  V30 24171 H 2311.72 -2.60347 -2.68645 0
M  V30 24172 H 2313.05 -3.4112 -3.54822 0
M  V30 24173 N 2314.7 0.951297 -1.25651 0
M  V30 24174 C 2315.64 2.05195 -1.02116 0
M  V30 24175 C 2316.65 1.62793 0.0150285 0
M  V30 24176 O 2317.84 1.7709 -0.223906 0
M  V30 24177 C 2314.94 3.34849 -0.522419 0
M  V30 24178 C 2314.11 4.06073 -1.62553 0
M  V30 24179 C 2313.17 5.13999 -1.12659 0
M  V30 24180 O 2312.2 5.39263 -1.82165 0
M  V30 24181 N 2313.4 5.80492 0.030368 0
M  V30 24182 H 2316.16 2.25954 -1.96888 0
M  V30 24183 H 2313.72 1.12008 -1.16901 0
M  V30 24184 H 2315.72 4.0433 -0.173032 0
M  V30 24185 H 2314.29 3.10838 0.331455 0
M  V30 24186 H 2313.51 3.30645 -2.14634 0
M  V30 24187 H 2314.79 4.50414 -2.36652 0
M  V30 24188 H 2314.19 5.6239 0.61107 0
M  V30 24189 H 2312.75 6.5101 0.320761 0
M  V30 24190 N 2316.18 1.07291 1.1544 0
M  V30 24191 C 2317.13 0.686991 2.22223 0
M  V30 24192 C 2318.12 -0.301901 1.66688 0
M  V30 24193 O 2319.33 -0.16568 1.79236 0
M  V30 24194 H 2315.71 0.204077 0.723779 0
M  V30 24195 H 2317.68 1.59724 2.52053 0
M  V30 24196 C 2316.43 0.10021 3.47556 0
M  V30 24197 H 2315.75 0.852279 3.9061 0
M  V30 24198 H 2317.19 -0.132161 4.23794 0
M  V30 24199 C 2315.65 -1.15894 3.16339 0
M  V30 24200 O 2316.18 -2.24549 3.33078 0
M  V30 24201 N 2314.38 -1.06486 2.70387 0
M  V30 24202 H 2313.93 -0.180623 2.56966 0
M  V30 24203 H 2313.89 -1.90815 2.49874 0
M  V30 24204 N 2317.66 -1.32267 0.856927 0
M  V30 24205 C 2318.91 -1.9644 0.457633 0
M  V30 24206 C 2319.22 -1.68555 -0.992397 0
M  V30 24207 O 2320.43 -2.26485 -1.49723 0
M  V30 24208 C 2318.88 -3.51623 0.76742 0
M  V30 24209 C 2318.49 -3.88364 2.23333 0
M  V30 24210 C 2320.24 -4.22255 0.435961 0
M  V30 24211 C 2318.14 -5.36601 2.48622 0
M  V30 24212 H 2317.07 -0.735182 0.1674 0
M  V30 24213 H 2319.72 -1.50628 1.04802 0
M  V30 24214 H 2318.11 -3.95857 0.106437 0
M  V30 24215 H 2319.28 -3.55132 2.93629 0
M  V30 24216 H 2317.6 -3.30762 2.52954 0
M  V30 24217 H 2320.19 -5.31297 0.602295 0
M  V30 24218 H 2320.54 -4.11618 -0.6226 0
M  V30 24219 H 2321.07 -3.83612 1.05293 0
M  V30 24220 H 2317.81 -5.52261 3.53111 0
M  V30 24221 H 2317.33 -5.71231 1.82906 0
M  V30 24222 H 2319.01 -6.0371 2.32687 0
M  V30 24223 N 2319.14 -0.615084 -1.45102 0
M  V30 24224 C 2320.07 0.13758 -2.28787 0
M  V30 24225 C 2321.08 0.8245 -1.40377 0
M  V30 24226 O 2322.27 0.688633 -1.64682 0
M  V30 24227 C 2319.37 1.21623 -3.16324 0
M  V30 24228 C 2318.55 0.614963 -4.33055 0
M  V30 24229 C 2317.6 1.58547 -5.01746 0
M  V30 24230 O 2316.63 1.10885 -5.58295 0
M  V30 24231 N 2317.83 2.9199 -5.01719 0
M  V30 24232 H 2320.6 -0.580535 -2.94024 0
M  V30 24233 H 2318.16 -0.455097 -1.55372 0
M  V30 24234 H 2320.15 1.86545 -3.59142 0
M  V30 24235 H 2318.72 1.83677 -2.52946 0
M  V30 24236 H 2317.94 -0.212519 -3.93627 0
M  V30 24237 H 2319.23 0.193615 -5.08431 0
M  V30 24238 H 2318.63 3.33308 -4.5708 0
M  V30 24239 H 2317.18 3.52315 -5.48377 0
M  V30 24240 N 2320.62 1.53557 -0.354678 0
M  V30 24241 C 2321.58 2.2402 0.484526 0
M  V30 24242 C 2322.58 1.24424 1.01859 0
M  V30 24243 O 2323.77 1.48782 0.906071 0
M  V30 24244 C 2320.9 2.9685 1.6761 0
M  V30 24245 H 2322.1 2.9961 -0.131895 0
M  V30 24246 H 2319.65 1.55939 -0.106193 0
M  V30 24247 H 2320.38 2.25475 2.33091 0
M  V30 24248 H 2320.17 3.69914 1.30023 0
M  V30 24249 H 2321.66 3.50445 2.27108 0
M  V30 24250 N 2322.1 0.083568 1.57378 0
M  V30 24251 C 2323.03 -0.876822 2.16412 0
M  V30 24252 C 2324.01 -1.30226 1.09431 0
M  V30 24253 O 2325.19 -1.37121 1.37519 0
M  V30 24254 C 2322.32 -2.14017 2.73521 0
M  V30 24255 C 2321.28 -1.85375 3.85772 0
M  V30 24256 C 2320.6 -3.1844 4.29534 0
M  V30 24257 C 2321.9 -1.14975 5.09488 0
M  V30 24258 H 2323.6 -0.385006 2.96914 0
M  V30 24259 H 2321.14 -0.183745 1.42823 0
M  V30 24260 H 2323.09 -2.81631 3.13468 0
M  V30 24261 H 2321.82 -2.65462 1.90257 0
M  V30 24262 H 2320.48 -1.20163 3.46347 0
M  V30 24263 H 2320.13 -3.67749 3.43176 0
M  V30 24264 H 2319.83 -3.00063 5.05209 0
M  V30 24265 H 2321.35 -3.87231 4.72106 0
M  V30 24266 H 2322.76 -1.72677 5.46677 0
M  V30 24267 H 2321.16 -1.06816 5.90517 0
M  V30 24268 H 2322.23 -0.130663 4.84724 0
M  V30 24269 N 2323.57 -1.5645 -0.190064 0
M  V30 24270 C 2324.48 -1.98154 -1.25587 0
M  V30 24271 C 2325.5 -0.88997 -1.49518 0
M  V30 24272 O 2326.68 -1.19612 -1.62034 0
M  V30 24273 C 2323.74 -2.31695 -2.57912 0
M  V30 24274 C 2322.8 -3.54585 -2.42009 0
M  V30 24275 C 2322.03 -3.86516 -3.68023 0
M  V30 24276 O 2322.26 -3.19668 -4.72407 0
M  V30 24277 O 2321.19 -4.79929 -3.63251 0
M  V30 24278 H 2325.02 -2.89048 -0.931938 0
M  V30 24279 H 2322.6 -1.44071 -0.395463 0
M  V30 24280 H 2324.48 -2.54321 -3.36004 0
M  V30 24281 H 2323.16 -1.43968 -2.89922 0
M  V30 24282 H 2322.07 -3.37199 -1.62011 0
M  V30 24283 H 2323.4 -4.42794 -2.14929 0
M  V30 24284 N 2325.05 0.45796 -1.50799 0
M  V30 24285 C 2325.96 1.57986 -1.73429 0
M  V30 24286 C 2326.98 1.62664 -0.617773 0
M  V30 24287 O 2328.15 1.80289 -0.897646 0
M  V30 24288 C 2325.22 2.94119 -1.83562 0
M  V30 24289 C 2324.28 2.99724 -3.0735 0
M  V30 24290 C 2323.51 4.29363 -3.16991 0
M  V30 24291 O 2323.74 5.20603 -2.33086 0
M  V30 24292 O 2322.67 4.4083 -4.0982 0
M  V30 24293 H 2326.5 1.41812 -2.68557 0
M  V30 24294 H 2324.08 0.638836 -1.35053 0
M  V30 24295 H 2325.96 3.74948 -1.92332 0
M  V30 24296 H 2324.64 3.10464 -0.916191 0
M  V30 24297 H 2323.54 2.17924 -3.04072 0
M  V30 24298 H 2324.88 2.88319 -3.98915 0
M  V30 24299 N 2326.53 1.40598 0.712035 0
M  V30 24300 C 2327.48 1.41324 1.84744 0
M  V30 24301 C 2328.47 0.293297 1.66842 0
M  V30 24302 O 2329.68 0.464511 1.73903 0
M  V30 24303 H 2326.05 0.44183 0.608515 0
M  V30 24304 H 2328.02 2.37048 1.81247 0
M  V30 24305 C 2326.77 1.2962 3.22636 0
M  V30 24306 H 2326.1 2.15077 3.37019 0
M  V30 24307 H 2327.54 1.34187 4.02206 0
M  V30 24308 C 2325.99 0.00679043 3.36899 0
M  V30 24309 O 2326.52 -0.954791 3.90188 0
M  V30 24310 N 2324.73 -0.0638816 2.9053 0
M  V30 24311 H 2324.28 0.719354 2.47352 0
M  V30 24312 H 2324.24 -0.926065 3.00452 0
M  V30 24313 N 2328.01 -0.94462 1.26153 0
M  V30 24314 C 2328.96 -2.02855 1.04085 0
M  V30 24315 C 2329.94 -1.6088 -0.0256272 0
M  V30 24316 O 2331.13 -1.75967 0.190915 0
M  V30 24317 C 2328.26 -3.36655 0.672177 0
M  V30 24318 C 2327.35 -3.85125 1.77593 0
M  V30 24319 N 2327.74 -4.06282 3.01279 0
M  V30 24320 C 2326.04 -4.14007 1.65874 0
M  V30 24321 C 2326.74 -4.46377 3.72991 0
M  V30 24322 N 2325.71 -4.52884 3.00661 0
M  V30 24323 H 2329.52 -2.1722 1.97972 0
M  V30 24324 H 2327.03 -1.1302 1.1662 0
M  V30 24325 H 2329.03 -4.13948 0.495239 0
M  V30 24326 H 2327.69 -3.23663 -0.25925 0
M  V30 24327 H 2328.7 -3.93069 3.3722 0
M  V30 24328 H 2325.38 -4.09823 0.796979 0
M  V30 24329 H 2326.77 -4.70966 4.79208 0
M  V30 24330 N 2329.49 -1.07901 -1.1487 0
M  V30 24331 C 2330.42 -0.66227 -2.19423 0
M  V30 24332 C 2331.43 0.288051 -1.60231 0
M  V30 24333 O 2332.62 0.0765027 -1.78336 0
M  V30 24334 C 2329.72 0.04701 -3.38867 0
M  V30 24335 C 2328.89 -0.920906 -4.27596 0
M  V30 24336 C 2327.95 -0.247897 -5.25616 0
M  V30 24337 O 2326.98 -0.890698 -5.62188 0
M  V30 24338 N 2328.18 1.00425 -5.71747 0
M  V30 24339 H 2330.94 -1.56171 -2.55794 0
M  V30 24340 H 2328.51 -0.964427 -1.3004 0
M  V30 24341 H 2330.5 0.508059 -4.01498 0
M  V30 24342 H 2329.07 0.84847 -3.00865 0
M  V30 24343 H 2328.29 -1.56093 -3.61979 0
M  V30 24344 H 2329.58 -1.57697 -4.83745 0
M  V30 24345 H 2328.97 1.54633 -5.44155 0
M  V30 24346 H 2327.53 1.40888 -6.36391 0
M  V30 24347 N 2330.96 1.31811 -0.863929 0
M  V30 24348 C 2332.19 2.01107 -0.486147 0
M  V30 24349 C 2332.61 1.64883 0.919726 0
M  V30 24350 O 2331.96 0.874921 1.6016 0
M  V30 24351 C 2332.01 3.5603 -0.626498 0
M  V30 24352 O 2331.74 3.90956 -1.977 0
M  V30 24353 C 2333.24 4.42601 -0.248935 0
M  V30 24354 H 2330.46 0.643519 -0.190063 0
M  V30 24355 H 2333 1.6818 -1.16343 0
M  V30 24356 H 2331.16 3.874 0.00315907 0
M  V30 24357 H 2331.57 4.85674 -1.98042 0
M  V30 24358 H 2333.04 5.50562 -0.398113 0
M  V30 24359 H 2333.52 4.3164 0.811413 0
M  V30 24360 H 2334.13 4.16637 -0.854044 0
M  V30 24361 N 2332.44 0.62277 1.44773 0
M  V30 24362 C 2333.37 -0.125445 2.28856 0
M  V30 24363 C 2334.39 -0.817044 1.40813 0
M  V30 24364 O 2335.58 -0.679889 1.65045 0
M  V30 24365 C 2332.68 -1.19944 3.16965 0
M  V30 24366 C 2331.85 -0.591988 4.33375 0
M  V30 24367 C 2330.91 -1.55884 5.0258 0
M  V30 24368 O 2329.93 -1.07923 5.58875 0
M  V30 24369 N 2331.14 -2.89325 5.03261 0
M  V30 24370 H 2333.9 0.596119 2.93712 0
M  V30 24371 H 2331.46 0.46333 1.55129 0
M  V30 24372 H 2333.45 -1.84638 3.60126 0
M  V30 24373 H 2332.02 -1.82333 2.53916 0
M  V30 24374 H 2331.24 0.233391 3.93508 0
M  V30 24375 H 2332.53 -0.166649 5.08527 0
M  V30 24376 H 2331.93 -3.30879 4.58842 0
M  V30 24377 H 2330.49 -3.49402 5.50238 0
M  V30 24378 N 2333.92 -1.53367 0.362817 0
M  V30 24379 C 2334.83 -2.29362 -0.492953 0
M  V30 24380 C 2335.85 -1.35221 -1.09505 0
M  V30 24381 O 2337.02 -1.68275 -1.10659 0
M  V30 24382 C 2334.09 -3.06603 -1.6185 0
M  V30 24383 C 2333.15 -4.16407 -1.04422 0
M  V30 24384 C 2332.38 -4.89955 -2.11613 0
M  V30 24385 O 2332.6 -4.63339 -3.32676 0
M  V30 24386 O 2331.54 -5.75951 -1.74825 0
M  V30 24387 H 2335.36 -3.03441 0.125384 0
M  V30 24388 H 2332.95 -1.48857 0.12728 0
M  V30 24389 H 2334.83 -3.54845 -2.27295 0
M  V30 24390 H 2333.51 -2.35363 -2.22229 0
M  V30 24391 H 2332.41 -3.72424 -0.353754 0
M  V30 24392 H 2333.75 -4.89804 -0.485027 0
M  V30 24393 N 2335.4 -0.091913 -1.57332 0
M  V30 24394 C 2336.33 0.898131 -2.1087 0
M  V30 24395 C 2337.34 1.24815 -1.04523 0
M  V30 24396 O 2338.53 1.20182 -1.31979 0
M  V30 24397 C 2335.63 2.20816 -2.57087 0
M  V30 24398 C 2334.81 2.03396 -3.87232 0
M  V30 24399 C 2333.86 3.17882 -4.1933 0
M  V30 24400 O 2332.89 2.91985 -4.88603 0
M  V30 24401 N 2334.09 4.43561 -3.74479 0
M  V30 24402 H 2336.86 0.440891 -2.96439 0
M  V30 24403 H 2334.42 0.093278 -1.61631 0
M  V30 24404 H 2336.41 2.96349 -2.75607 0
M  V30 24405 H 2334.98 2.57973 -1.76546 0
M  V30 24406 H 2334.2 1.12211 -3.77892 0
M  V30 24407 H 2335.49 1.8903 -4.72382 0
M  V30 24408 H 2334.89 4.67483 -3.18554 0
M  V30 24409 H 2333.44 5.16054 -3.9816 0
M  V30 24410 N 2336.88 1.56548 0.181765 0
M  V30 24411 C 2337.79 1.98817 1.24535 0
M  V30 24412 C 2338.8 0.897887 1.49044 0
M  V30 24413 O 2339.98 1.2047 1.61397 0
M  V30 24414 C 2337.04 2.33059 2.56679 0
M  V30 24415 C 2336.1 3.55863 2.40125 0
M  V30 24416 C 2335.34 3.88463 3.65968 0
M  V30 24417 O 2335.56 3.22169 4.70705 0
M  V30 24418 O 2334.49 4.81849 3.60701 0
M  V30 24419 H 2338.32 2.89538 0.916596 0
M  V30 24420 H 2335.91 1.44279 0.387817 0
M  V30 24421 H 2337.79 2.561 3.3465 0
M  V30 24422 H 2336.46 1.45503 2.89155 0
M  V30 24423 H 2335.37 3.38054 1.6022 0
M  V30 24424 H 2336.7 4.43928 2.12578 0
M  V30 24425 N 2338.35 -0.449957 1.5104 0
M  V30 24426 C 2339.58 -1.2278 1.67152 0
M  V30 24427 C 2340 -1.84562 0.363114 0
M  V30 24428 O 2339.36 -1.6825 -0.675403 0
M  V30 24429 C 2339.41 -2.29684 2.77989 0
M  V30 24430 O 2338.51 -3.3486 2.40713 0
M  V30 24431 H 2337.86 -0.360289 0.557753 0
M  V30 24432 H 2340.39 -0.532971 1.97536 0
M  V30 24433 H 2340.4 -2.74667 3.01698 0
M  V30 24434 H 2339.07 -1.84091 3.72939 0
M  V30 24435 H 2337.65 -2.95441 2.27529 0
M  V30 24436 N 2339.83 -1.40974 -0.704569 0
M  V30 24437 C 2340.76 -1.44876 -1.83121 0
M  V30 24438 C 2341.74 -0.308409 -1.67281 0
M  V30 24439 O 2342.93 -0.518589 -1.87148 0
M  V30 24440 C 2340.06 -1.32142 -3.21179 0
M  V30 24441 C 2339.01 -2.43894 -3.5171 0
M  V30 24442 C 2338.34 -2.16231 -4.89028 0
M  V30 24443 C 2339.64 -3.86238 -3.51593 0
M  V30 24444 H 2341.33 -2.39164 -1.80113 0
M  V30 24445 H 2338.88 -1.15116 -0.865124 0
M  V30 24446 H 2340.83 -1.33486 -3.99699 0
M  V30 24447 H 2339.56 -0.343336 -3.2479 0
M  V30 24448 H 2338.21 -2.41818 -2.75535 0
M  V30 24449 H 2337.86 -1.16787 -4.89254 0
M  V30 24450 H 2337.56 -2.91109 -5.10421 0
M  V30 24451 H 2339.09 -2.19275 -5.69869 0
M  V30 24452 H 2340.5 -3.90078 -4.20134 0
M  V30 24453 H 2338.9 -4.60725 -3.84515 0
M  V30 24454 H 2339.97 -4.15033 -2.50749 0
M  V30 24455 N 2341.31 0.937917 -1.26653 0
M  V30 24456 C 2342.56 1.68698 -1.12556 0
M  V30 24457 C 2342.89 1.9138 0.329748 0
M  V30 24458 O 2342.16 1.49682 1.242 0
M  V30 24459 C 2342.45 3.05978 -1.89867 0
M  V30 24460 C 2342.3 2.90601 -3.43323 0
M  V30 24461 C 2343.62 4.06147 -1.69506 0
M  V30 24462 H 2340.74 0.612249 -0.410268 0
M  V30 24463 H 2343.38 1.0891 -1.55687 0
M  V30 24464 H 2341.53 3.57014 -1.5321 0
M  V30 24465 H 2343.2 2.46762 -3.89752 0
M  V30 24466 H 2341.45 2.26158 -3.70183 0
M  V30 24467 H 2342.12 3.87983 -3.92649 0
M  V30 24468 H 2344.59 3.64085 -2.01449 0
M  V30 24469 H 2343.47 5.0021 -2.2601 0
M  V30 24470 H 2343.73 4.37437 -0.640442 0
M  V30 24471 N 2342.79 1.08509 1.14296 0
M  V30 24472 C 2343.72 0.673897 2.19069 0
M  V30 24473 C 2344.73 -0.279549 1.60382 0
M  V30 24474 O 2345.92 -0.067044 1.78374 0
M  V30 24475 C 2343.02 -0.0290383 3.38888 0
M  V30 24476 C 2342.2 0.943569 4.27101 0
M  V30 24477 C 2341.25 0.275768 5.25477 0
M  V30 24478 O 2340.28 0.9205 5.61708 0
M  V30 24479 N 2341.48 -0.973913 5.72272 0
M  V30 24480 H 2344.25 1.57525 2.54963 0
M  V30 24481 H 2341.81 0.97131 1.29527 0
M  V30 24482 H 2343.8 -0.486759 4.01762 0
M  V30 24483 H 2342.37 -0.832502 3.01311 0
M  V30 24484 H 2341.59 1.5801 3.61146 0
M  V30 24485 H 2342.88 1.6026 4.82902 0
M  V30 24486 H 2342.28 -1.51745 5.44968 0
M  V30 24487 H 2340.83 -1.37511 6.37129 0
M  V30 24488 N 2344.27 -1.31351 0.870907 0
M  V30 24489 C 2345.18 -2.32256 0.330824 0
M  V30 24490 C 2346.19 -1.64751 -0.559738 0
M  V30 24491 O 2347.37 -1.96165 -0.456229 0
M  V30 24492 C 2344.43 -3.43661 -0.458076 0
M  V30 24493 C 2343.49 -4.26822 0.460557 0
M  V30 24494 C 2342.73 -5.32907 -0.290787 0
M  V30 24495 O 2342.95 -5.49809 -1.51875 0
M  V30 24496 O 2341.88 -6.00871 0.351837 0
M  V30 24497 H 2345.71 -2.80374 1.16723 0
M  V30 24498 H 2343.3 -1.35266 0.634309 0
M  V30 24499 H 2345.18 -4.11561 -0.905271 0
M  V30 24500 H 2343.85 -2.97703 -1.27101 0
M  V30 24501 H 2342.76 -3.61672 0.95627 0
M  V30 24502 H 2344.09 -4.76347 1.23911 0
M  V30 24503 N 2345.74 -0.630439 -1.44441 0
M  V30 24504 C 2347.02 -0.0656 -1.9549 0
M  V30 24505 C 2347.4 1.40848 -1.57242 0
M  V30 24506 O 2346.75 2.12256 -0.846154 0
M  V30 24507 C 2346.96 -0.287752 -3.47812 0
M  V30 24508 C 2348.31 -0.180588 -4.24216 0
M  V30 24509 O 2349.33 -0.219082 -3.55526 0
M  V30 24510 O 2348.19 -0.0849453 -5.46434 0
M  V30 24511 H 2345.28 0.0227031 -0.826688 0
M  V30 24512 H 2347.83 -0.702095 -1.54495 0
M  V30 24513 H 2346.6 -1.31063 -3.68698 0
M  V30 24514 H 2346.23 0.382914 -3.95752 0
M  V30 24515 N 2347.22 1.53172 -0.370945 0
M  V30 24516 C 2348.17 2.25901 0.472995 0
M  V30 24517 C 2349.14 1.26783 1.07309 0
M  V30 24518 O 2350.32 1.55576 1.10457 0
M  V30 24519 C 2347.46 3.05558 1.604 0
M  V30 24520 C 2346.58 4.19577 1.02855 0
M  V30 24521 C 2345.71 4.86665 2.1291 0
M  V30 24522 C 2344.75 5.92706 1.52859 0
M  V30 24523 N 2343.89 6.53464 2.56768 0
M  V30 24524 H 2348.73 2.97603 -0.153701 0
M  V30 24525 H 2346.27 1.46839 -0.0876204 0
M  V30 24526 H 2348.22 3.5002 2.27028 0
M  V30 24527 H 2346.85 2.36101 2.20127 0
M  V30 24528 H 2345.91 3.79562 0.252398 0
M  V30 24529 H 2347.22 4.95763 0.549555 0
M  V30 24530 H 2346.37 5.34338 2.87347 0
M  V30 24531 H 2345.11 4.09962 2.64163 0
M  V30 24532 H 2344.12 5.4439 0.769383 0
M  V30 24533 H 2345.34 6.71332 1.02423 0
M  V30 24534 H 2343.29 5.79611 3.07224 0
M  V30 24535 H 2343.2 7.25206 2.1357 0
M  V30 24536 H 2344.47 7.05784 3.30891 0
M  V30 24537 N 2348.7 0.100255 1.57281 0
M  V30 24538 C 2349.93 -0.570474 1.9888 0
M  V30 24539 C 2350.34 -1.61404 0.979505 0
M  V30 24540 O 2349.7 -1.82475 -0.0301967 0
M  V30 24541 C 2349.75 -1.21354 3.40522 0
M  V30 24542 O 2349.47 -0.211709 4.37588 0
M  V30 24543 C 2350.97 -1.96939 3.97153 0
M  V30 24544 H 2348.19 -0.152544 0.65343 0
M  V30 24545 H 2350.74 0.181066 2.03697 0
M  V30 24546 H 2348.89 -1.91597 3.36703 0
M  V30 24547 H 2349.31 -0.676515 5.20119 0
M  V30 24548 H 2350.78 -2.37285 4.98397 0
M  V30 24549 H 2351.26 -2.83727 3.35255 0
M  V30 24550 H 2351.86 -1.31499 4.0446 0
M  V30 24551 N 2350.18 -1.56643 -0.17346 0
M  V30 24552 C 2351.6 -1.50713 -0.525148 0
M  V30 24553 C 2351.8 -0.804139 -1.84759 0
M  V30 24554 O 2350.85 -0.363618 -2.49868 0
M  V30 24555 C 2352.16 -2.95442 -0.559885 0
M  V30 24556 C 2353.71 -3.06235 -0.647234 0
M  V30 24557 C 2354.19 -4.52418 -0.712884 0
M  V30 24558 N 2355.68 -4.56656 -0.775831 0
M  V30 24559 C 2356.41 -5.67107 -0.847164 0
M  V30 24560 N 2355.91 -6.87195 -0.879464 0
M  V30 24561 N 2357.7 -5.55073 -0.88602 0
M  V30 24562 H 2349.85 -2.00752 0.693717 0
M  V30 24563 H 2352.12 -0.914481 0.249857 0
M  V30 24564 H 2351.82 -3.50022 0.34311 0
M  V30 24565 H 2351.7 -3.49971 -1.40712 0
M  V30 24566 H 2354.08 -2.5169 -1.54066 0
M  V30 24567 H 2354.16 -2.54794 0.226631 0
M  V30 24568 H 2353.81 -5.07594 0.176273 0
M  V30 24569 H 2353.74 -5.01613 -1.60286 0
M  V30 24570 H 2356.23 -3.70194 -0.759239 0
M  V30 24571 H 2356.54 -7.67123 -0.935009 0
M  V30 24572 H 2354.89 -6.8981 -0.847777 0
M  V30 24573 H 2358.08 -4.60174 -0.857772 0
M  V30 24574 H 2358.25 -6.41173 -0.93815 0
M  V30 24575 N 2351.66 0.44194 -1.51277 0
M  V30 24576 C 2352.6 1.53609 -1.72258 0
M  V30 24577 C 2353.57 1.56224 -0.564191 0
M  V30 24578 O 2354.76 1.73306 -0.798104 0
M  V30 24579 C 2351.9 2.91363 -1.84937 0
M  V30 24580 C 2351.01 2.98312 -3.12465 0
M  V30 24581 C 2350.15 4.2716 -3.15765 0
M  V30 24582 C 2349.19 4.2796 -4.37627 0
M  V30 24583 N 2348.32 5.48325 -4.38502 0
M  V30 24584 H 2353.16 1.35021 -2.65656 0
M  V30 24585 H 2350.7 0.655986 -1.31663 0
M  V30 24586 H 2352.66 3.71286 -1.90269 0
M  V30 24587 H 2351.29 3.08519 -0.949515 0
M  V30 24588 H 2350.34 2.1108 -3.16464 0
M  V30 24589 H 2351.65 2.94764 -4.02388 0
M  V30 24590 H 2350.81 5.15454 -3.19988 0
M  V30 24591 H 2349.55 4.33358 -2.23723 0
M  V30 24592 H 2348.55 3.3806 -4.33585 0
M  V30 24593 H 2349.78 4.23429 -5.30928 0
M  V30 24594 H 2347.72 5.55253 -3.49328 0
M  V30 24595 H 2347.64 5.46638 -5.22229 0
M  V30 24596 H 2348.91 6.38663 -4.46912 0
M  V30 24597 N 2353.14 1.41345 0.697083 0
M  V30 24598 C 2354.55 1.36202 1.27695 0
M  V30 24599 C 2354.9 0.0443808 1.9615 0
M  V30 24600 O 2354.02 -0.857384 1.9869 0
M  V30 24601 C 2354.62 2.46698 2.32219 0
M  V30 24602 C 2353.18 2.44957 2.85785 0
M  V30 24603 C 2352.32 2.26623 1.59804 0
M  V30 24604 H 2355.27 1.50883 0.491942 0
M  V30 24605 H 2355.3 2.15669 3.13476 0
M  V30 24606 H 2354.81 3.42584 1.82367 0
M  V30 24607 H 2352.91 1.52823 3.39817 0
M  V30 24608 H 2353.02 3.41213 3.36319 0
M  V30 24609 H 2351.39 1.74473 1.85557 0
M  V30 24610 H 2352.17 3.24534 1.1195 0
M  V30 24611 N 2354.61 -0.931187 1.27148 0
M  V30 24612 C 2355.56 -2.03132 1.09572 0
M  V30 24613 C 2356.53 -1.661 -0.00219513 0
M  V30 24614 O 2357.72 -1.90132 0.159472 0
M  V30 24615 C 2354.86 -3.36956 0.74529 0
M  V30 24616 C 2353.97 -3.86964 1.92048 0
M  V30 24617 C 2353.1 -5.09219 1.51225 0
M  V30 24618 C 2352.14 -5.51515 2.65514 0
M  V30 24619 N 2351.28 -6.64968 2.25303 0
M  V30 24620 H 2356.12 -2.17498 2.03712 0
M  V30 24621 H 2353.66 -1.06555 1.01413 0
M  V30 24622 H 2355.61 -4.13909 0.522951 0
M  V30 24623 H 2354.24 -3.22407 -0.159145 0
M  V30 24624 H 2353.3 -3.06322 2.25546 0
M  V30 24625 H 2354.61 -4.14285 2.77794 0
M  V30 24626 H 2353.76 -5.93663 1.25095 0
M  V30 24627 H 2352.5 -4.83668 0.625834 0
M  V30 24628 H 2351.51 -4.65623 2.92362 0
M  V30 24629 H 2352.73 -5.79064 3.54771 0
M  V30 24630 H 2350.68 -6.41081 1.39109 0
M  V30 24631 H 2350.59 -6.91926 3.04589 0
M  V30 24632 H 2351.86 -7.52762 2.02411 0
M  V30 24633 N 2356.09 -1.09114 -1.13719 0
M  V30 24634 C 2357.02 -0.671618 -2.18093 0
M  V30 24635 C 2358 0.320271 -1.59415 0
M  V30 24636 O 2359.19 0.222411 -1.87183 0
M  V30 24637 C 2356.31 0.0110594 -3.38698 0
M  V30 24638 C 2355.36 -0.942128 -4.15964 0
M  V30 24639 S 2356.19 -2.45255 -4.76036 0
M  V30 24640 C 2357.35 -1.78219 -5.99991 0
M  V30 24641 H 2357.58 -1.55581 -2.53341 0
M  V30 24642 H 2355.11 -0.906811 -1.24965 0
M  V30 24643 H 2357.07 0.398645 -4.0856 0
M  V30 24644 H 2355.73 0.871852 -3.01757 0
M  V30 24645 H 2354.93 -0.411485 -5.02317 0
M  V30 24646 H 2354.53 -1.27096 -3.51742 0
M  V30 24647 H 2356.82 -1.10435 -6.68439 0
M  V30 24648 H 2357.76 -2.62474 -6.57657 0
M  V30 24649 H 2358.17 -1.25247 -5.5043 0
M  V30 24650 N 2357.57 1.30887 -0.877861 0
M  V30 24651 C 2358.5 2.3078 -0.355381 0
M  V30 24652 C 2359.48 1.60688 0.557965 0
M  V30 24653 O 2360.67 1.88344 0.473322 0
M  V30 24654 C 2357.8 3.44538 0.437161 0
M  V30 24655 C 2356.75 4.26276 -0.38379 0
M  V30 24656 C 2356.08 5.32018 0.534921 0
M  V30 24657 C 2357.38 4.96473 -1.6221 0
M  V30 24658 H 2359.07 2.7473 -1.19012 0
M  V30 24659 H 2356.62 1.32077 -0.573722 0
M  V30 24660 H 2358.57 4.13478 0.813261 0
M  V30 24661 H 2357.29 2.99374 1.30548 0
M  V30 24662 H 2355.95 3.59014 -0.741938 0
M  V30 24663 H 2355.6 4.83103 1.40074 0
M  V30 24664 H 2355.3 5.87599 -0.0105244 0
M  V30 24665 H 2356.82 6.03816 0.907693 0
M  V30 24666 H 2358.24 5.57968 -1.31699 0
M  V30 24667 H 2356.63 5.61887 -2.10721 0
M  V30 24668 H 2357.7 4.23006 -2.37052 0
M  V30 24669 N 2359.05 0.638091 1.44105 0
M  V30 24670 C 2359.96 -0.0636922 2.34514 0
M  V30 24671 C 2360.97 -0.828319 1.53019 0
M  V30 24672 O 2362.15 -0.779003 1.85724 0
M  V30 24673 C 2359.21 -1.02839 3.31097 0
M  V30 24674 C 2358.28 -0.262364 4.28498 0
M  V30 24675 C 2357.51 -1.18111 5.20467 0
M  V30 24676 O 2357.73 -2.42002 5.16518 0
M  V30 24677 O 2356.67 -0.661668 5.98252 0
M  V30 24678 H 2360.49 0.680082 2.95987 0
M  V30 24679 H 2358.08 0.398277 1.43993 0
M  V30 24680 H 2359.96 -1.5832 3.90529 0
M  V30 24681 H 2358.63 -1.75265 2.72147 0
M  V30 24682 H 2357.54 0.335667 3.72591 0
M  V30 24683 H 2358.87 0.422022 4.90387 0
M  V30 24684 N 2360.53 -1.52973 0.379063 0
M  V30 24685 C 2361.44 -2.29872 -0.468599 0
M  V30 24686 C 2362.45 -1.36375 -1.08065 0
M  V30 24687 O 2363.63 -1.6944 -1.08868 0
M  V30 24688 C 2360.69 -3.08303 -1.58589 0
M  V30 24689 C 2359.75 -4.17491 -0.999997 0
M  V30 24690 C 2358.99 -4.92172 -2.06404 0
M  V30 24691 O 2359.21 -4.66841 -3.27743 0
M  V30 24692 O 2358.14 -5.77773 -1.68707 0
M  V30 24693 H 2361.97 -3.03291 0.157561 0
M  V30 24694 H 2359.55 -1.48713 0.143061 0
M  V30 24695 H 2361.44 -3.57235 -2.23519 0
M  V30 24696 H 2360.11 -2.37707 -2.1972 0
M  V30 24697 H 2359.02 -3.72778 -0.314233 0
M  V30 24698 H 2360.35 -4.90291 -0.433049 0
M  V30 24699 N 2362 -0.108595 -1.57225 0
M  V30 24700 C 2362.95 0.845443 -2.14758 0
M  V30 24701 C 2363.92 1.27066 -1.06974 0
M  V30 24702 O 2365.11 1.35003 -1.34829 0
M  V30 24703 C 2362.25 2.0941 -2.74302 0
M  V30 24704 C 2361.36 1.71819 -3.96361 0
M  V30 24705 C 2360.49 2.91572 -4.44026 0
M  V30 24706 C 2359.53 2.50171 -5.58642 0
M  V30 24707 N 2358.67 3.62804 -6.01097 0
M  V30 24708 H 2363.51 0.347983 -2.95961 0
M  V30 24709 H 2361.05 0.16008 -1.46226 0
M  V30 24710 H 2363 2.82555 -3.0695 0
M  V30 24711 H 2361.63 2.56632 -1.95805 0
M  V30 24712 H 2360.69 0.885882 -3.69941 0
M  V30 24713 H 2362 1.37386 -4.79507 0
M  V30 24714 H 2361.15 3.72955 -4.78528 0
M  V30 24715 H 2359.89 3.29225 -3.59809 0
M  V30 24716 H 2358.9 1.67218 -5.23754 0
M  V30 24717 H 2360.12 2.13648 -6.44617 0
M  V30 24718 H 2358.07 4.00149 -5.19824 0
M  V30 24719 H 2357.98 3.32261 -6.79072 0
M  V30 24720 H 2359.25 4.44657 -6.40235 0
M  V30 24721 N 2363.48 1.56732 0.16515 0
M  V30 24722 C 2364.71 1.86844 0.90022 0
M  V30 24723 C 2365.13 0.695627 1.74765 0
M  V30 24724 O 2364.49 -0.355188 1.77787 0
M  V30 24725 C 2364.54 3.15416 1.74771 0
M  V30 24726 O 2363.64 2.98073 2.85002 0
M  V30 24727 H 2362.98 0.614396 0.251821 0
M  V30 24728 H 2365.51 2.03962 0.161433 0
M  V30 24729 H 2365.52 3.46978 2.1464 0
M  V30 24730 H 2364.2 4.00387 1.12529 0
M  V30 24731 H 2362.77 2.7788 2.48671 0
M  V30 24732 N 2364.96 -0.433911 1.51509 0
M  V30 24733 C 2366.37 -1.01366 1.56786 0
M  V30 24734 C 2366.72 -1.92216 0.393383 0
M  V30 24735 O 2365.85 -2.10793 -0.489404 0
M  V30 24736 C 2366.44 -1.84515 2.84147 0
M  V30 24737 C 2365 -2.37533 2.91984 0
M  V30 24738 C 2364.15 -1.16839 2.51484 0
M  V30 24739 H 2367.1 -0.215053 1.57236 0
M  V30 24740 H 2367.12 -2.70002 2.68103 0
M  V30 24741 H 2366.63 -1.18366 3.69609 0
M  V30 24742 H 2364.73 -3.07126 2.1096 0
M  V30 24743 H 2364.85 -2.70096 3.95708 0
M  V30 24744 H 2363.21 -1.51477 2.0476 0
M  V30 24745 H 2363.99 -0.522955 3.39293 0
M  V30 24746 N 2366.44 -1.41713 -0.689577 0
M  V30 24747 C 2367.35 -1.46404 -1.83311 0
M  V30 24748 C 2368.36 -0.35408 -1.70359 0
M  V30 24749 O 2369.54 -0.602726 -1.9217 0
M  V30 24750 C 2366.61 -1.34988 -3.19342 0
M  V30 24751 C 2365.67 -2.5635 -3.44359 0
M  V30 24752 C 2364.9 -2.45469 -4.73899 0
M  V30 24753 O 2365.12 -1.48251 -5.50798 0
M  V30 24754 O 2364.06 -3.35336 -4.99833 0
M  V30 24755 H 2367.88 -2.42893 -1.8231 0
M  V30 24756 H 2365.47 -1.23316 -0.843417 0
M  V30 24757 H 2367.35 -1.30927 -4.00545 0
M  V30 24758 H 2366.02 -0.416176 -3.21013 0
M  V30 24759 H 2364.93 -2.65987 -2.63063 0
M  V30 24760 H 2366.26 -3.48569 -3.47506 0
M  V30 24761 N 2367.92 0.924431 -1.2764 0
M  V30 24762 C 2368.86 2.02548 -1.10648 0
M  V30 24763 C 2369.83 1.66099 -0.00661358 0
M  V30 24764 O 2371.02 1.90045 -0.169553 0
M  V30 24765 C 2368.16 3.36556 -0.763149 0
M  V30 24766 C 2367.27 3.85941 -1.94098 0
M  V30 24767 C 2366.41 5.0841 -1.53923 0
M  V30 24768 C 2365.45 5.50099 -2.68435 0
M  V30 24769 N 2364.58 6.63764 -2.28826 0
M  V30 24770 H 2369.42 2.16415 -2.04862 0
M  V30 24771 H 2366.96 1.06015 -1.01976 0
M  V30 24772 H 2368.92 4.13626 -0.544894 0
M  V30 24773 H 2367.55 3.22487 0.142045 0
M  V30 24774 H 2366.6 3.05121 -2.27168 0
M  V30 24775 H 2367.91 4.12806 -2.79987 0
M  V30 24776 H 2367.07 5.92992 -1.28241 0
M  V30 24777 H 2365.8 4.83329 -0.651476 0
M  V30 24778 H 2364.81 4.64066 -2.94827 0
M  V30 24779 H 2366.03 5.77174 -3.57837 0
M  V30 24780 H 2363.98 6.40334 -1.42507 0
M  V30 24781 H 2363.9 6.90301 -3.08254 0
M  V30 24782 H 2365.17 7.51678 -2.064 0
M  V30 24783 N 2369.39 1.09715 1.13139 0
M  V30 24784 C 2370.64 0.836257 1.84755 0
M  V30 24785 C 2370.97 -0.636566 1.83471 0
M  V30 24786 O 2370.25 -1.46887 1.27493 0
M  V30 24787 C 2370.53 1.37584 3.3278 0
M  V30 24788 C 2370.38 2.91499 3.42562 0
M  V30 24789 C 2371.7 1.01206 4.28305 0
M  V30 24790 H 2368.82 0.305248 0.670815 0
M  V30 24791 H 2371.46 1.35905 1.32777 0
M  V30 24792 H 2369.61 0.931164 3.77176 0
M  V30 24793 H 2371.29 3.44438 3.06856 0
M  V30 24794 H 2369.53 3.2848 2.83343 0
M  V30 24795 H 2370.2 3.24332 4.46668 0
M  V30 24796 H 2372.68 1.39563 3.91997 0
M  V30 24797 H 2371.55 1.41662 5.30305 0
M  V30 24798 H 2371.81 -0.0794056 4.42029 0
M  V30 24799 N 2370.87 -1.30419 0.88479 0
M  V30 24800 C 2371.82 -2.28136 0.349682 0
M  V30 24801 C 2372.79 -1.56374 -0.560034 0
M  V30 24802 O 2373.97 -1.84441 -0.488492 0
M  V30 24803 C 2371.11 -3.42411 -0.429929 0
M  V30 24804 C 2370.23 -4.28991 0.508983 0
M  V30 24805 C 2369.36 -5.30428 -0.286208 0
M  V30 24806 C 2368.4 -6.08658 0.648186 0
M  V30 24807 N 2367.54 -7.02011 -0.111669 0
M  V30 24808 H 2372.38 -2.73291 1.18811 0
M  V30 24809 H 2369.92 -1.34429 0.597255 0
M  V30 24810 H 2371.87 -4.07424 -0.897851 0
M  V30 24811 H 2370.5 -2.98326 -1.23294 0
M  V30 24812 H 2369.56 -3.64287 1.09539 0
M  V30 24813 H 2370.87 -4.83528 1.22484 0
M  V30 24814 H 2370.02 -6.01188 -0.815992 0
M  V30 24815 H 2368.76 -4.76585 -1.03528 0
M  V30 24816 H 2367.77 -5.36776 1.1896 0
M  V30 24817 H 2368.99 -6.64589 1.39635 0
M  V30 24818 H 2366.94 -6.50557 -0.843281 0
M  V30 24819 H 2366.85 -7.54036 0.544561 0
M  V30 24820 H 2368.12 -7.77013 -0.622202 0
M  V30 24821 N 2372.35 -0.645724 -1.43764 0
M  V30 24822 C 2373.31 0.0409085 -2.29163 0
M  V30 24823 C 2374.31 0.757971 -1.41815 0
M  V30 24824 O 2375.5 0.600353 -1.63528 0
M  V30 24825 C 2372.64 1.06863 -3.23718 0
M  V30 24826 H 2373.83 -0.710396 -2.91365 0
M  V30 24827 H 2371.38 -0.406574 -1.50919 0
M  V30 24828 H 2372.12 1.84943 -2.66396 0
M  V30 24829 H 2371.9 0.558209 -3.88106 0
M  V30 24830 H 2373.39 1.54838 -3.87834 0
M  V30 24831 N 2373.83 1.5277 -0.38717 0
M  V30 24832 C 2374.76 2.22809 0.493084 0
M  V30 24833 C 2375.74 1.228 1.06578 0
M  V30 24834 O 2376.92 1.51779 1.11783 0
M  V30 24835 C 2374.05 2.93965 1.68232 0
M  V30 24836 C 2373.1 4.08225 1.23508 0
M  V30 24837 S 2373.93 5.35055 0.218386 0
M  V30 24838 C 2375.09 6.09731 1.41346 0
M  V30 24839 H 2375.32 2.97126 -0.101678 0
M  V30 24840 H 2372.85 1.53446 -0.17135 0
M  V30 24841 H 2374.81 3.35571 2.36437 0
M  V30 24842 H 2373.47 2.19332 2.24838 0
M  V30 24843 H 2372.66 4.57106 2.12296 0
M  V30 24844 H 2372.27 3.68622 0.631979 0
M  V30 24845 H 2374.56 6.35774 2.3409 0
M  V30 24846 H 2375.5 7.01485 0.965613 0
M  V30 24847 H 2375.91 5.40476 1.6293 0
M  V30 24848 N 2375.31 0.116931 1.57166 0
M  V30 24849 C 2376.22 -0.847774 2.18746 0
M  V30 24850 C 2377.23 -1.29421 1.16302 0
M  V30 24851 O 2378.41 -1.35762 1.48763 0
M  V30 24852 C 2375.47 -2.08085 2.77311 0
M  V30 24853 C 2374.53 -1.68654 3.94784 0
M  V30 24854 C 2373.77 -2.86083 4.50546 0
M  V30 24855 O 2373.99 -4.01449 4.05209 0
M  V30 24856 O 2372.92 -2.63288 5.41261 0
M  V30 24857 H 2376.75 -0.353725 3.01633 0
M  V30 24858 H 2374.34 -0.108573 1.49005 0
M  V30 24859 H 2376.22 -2.80307 3.14652 0
M  V30 24860 H 2374.89 -2.56501 1.97457 0
M  V30 24861 H 2373.8 -0.935454 3.62215 0
M  V30 24862 H 2375.13 -1.24982 4.76068 0
M  V30 24863 N 2376.78 -1.56818 -0.156836 0
M  V30 24864 C 2377.69 -2.00773 -1.21356 0
M  V30 24865 C 2378.71 -0.921485 -1.47596 0
M  V30 24866 O 2379.89 -1.23022 -1.5946 0
M  V30 24867 C 2376.95 -2.37113 -2.52939 0
M  V30 24868 C 2376.01 -3.59638 -2.34433 0
M  V30 24869 C 2375.25 -3.94236 -3.59741 0
M  V30 24870 O 2375.47 -3.29617 -4.6552 0
M  V30 24871 O 2374.4 -4.87526 -3.5299 0
M  V30 24872 H 2378.23 -2.9096 -0.870417 0
M  V30 24873 H 2375.81 -1.44877 -0.364814 0
M  V30 24874 H 2377.7 -2.61391 -3.30534 0
M  V30 24875 H 2376.37 -1.50085 -2.86803 0
M  V30 24876 H 2375.28 -3.4056 -1.54822 0
M  V30 24877 H 2376.61 -4.47253 -2.05488 0
M  V30 24878 N 2378.26 0.425871 -1.51737 0
M  V30 24879 C 2379.21 1.51773 -1.73878 0
M  V30 24880 C 2380.18 1.55617 -0.580729 0
M  V30 24881 O 2381.36 1.7245 -0.816441 0
M  V30 24882 C 2378.5 2.89385 -1.88017 0
M  V30 24883 C 2377.62 2.94981 -3.15611 0
M  V30 24884 C 2376.75 4.23787 -3.20278 0
M  V30 24885 C 2375.79 4.23294 -4.42141 0
M  V30 24886 N 2374.93 5.43643 -4.44293 0
M  V30 24887 H 2379.77 1.32196 -2.67073 0
M  V30 24888 H 2377.31 0.641985 -1.32352 0
M  V30 24889 H 2379.26 3.69247 -1.94197 0
M  V30 24890 H 2377.89 3.07495 -0.982185 0
M  V30 24891 H 2376.95 2.07712 -3.18685 0
M  V30 24892 H 2378.26 2.90479 -4.05491 0
M  V30 24893 H 2377.41 5.12031 -3.25437 0
M  V30 24894 H 2376.15 4.30961 -2.28307 0
M  V30 24895 H 2375.16 3.33442 -4.37146 0
M  V30 24896 H 2376.38 4.17774 -5.35389 0
M  V30 24897 H 2374.33 5.51517 -3.55198 0
M  V30 24898 H 2374.24 5.41068 -5.27997 0
M  V30 24899 H 2375.51 6.33887 -4.5366 0
M  V30 24900 N 2379.74 1.42077 0.682052 0
M  V30 24901 C 2380.67 1.4777 1.80793 0
M  V30 24902 C 2381.65 0.334983 1.66769 0
M  V30 24903 O 2382.84 0.548297 1.86299 0
M  V30 24904 C 2379.97 1.37235 3.19036 0
M  V30 24905 C 2378.92 2.49459 3.47785 0
M  V30 24906 C 2378.25 2.23983 4.85526 0
M  V30 24907 C 2379.55 3.91783 3.45404 0
M  V30 24908 H 2381.24 2.42 1.76285 0
M  V30 24909 H 2378.79 1.16477 0.846701 0
M  V30 24910 H 2380.74 1.39828 3.97525 0
M  V30 24911 H 2379.46 0.394964 3.24203 0
M  V30 24912 H 2378.12 2.46171 2.71653 0
M  V30 24913 H 2377.77 1.24556 4.87334 0
M  V30 24914 H 2377.47 2.99193 5.05725 0
M  V30 24915 H 2378.99 2.28314 5.66308 0
M  V30 24916 H 2380.41 3.96712 4.13875 0
M  V30 24917 H 2378.81 4.66784 3.77137 0
M  V30 24918 H 2379.88 4.1897 2.44115 0
M  V30 24919 N 2381.22 -0.917649 1.28129 0
M  V30 24920 C 2382.13 -2.05284 1.1356 0
M  V30 24921 C 2383.15 -1.73885 0.063122 0
M  V30 24922 O 2384.32 -1.9956 0.271634 0
M  V30 24923 C 2381.39 -3.37468 0.794735 0
M  V30 24924 C 2380.45 -3.825 1.94916 0
M  V30 24925 C 2379.68 -5.08377 1.62446 0
M  V30 24926 O 2379.9 -5.67867 0.537005 0
M  V30 24927 O 2378.84 -5.49026 2.46686 0
M  V30 24928 H 2382.66 -2.20491 2.08848 0
M  V30 24929 H 2380.25 -1.03843 1.07411 0
M  V30 24930 H 2382.13 -4.16838 0.618417 0
M  V30 24931 H 2380.81 -3.23445 -0.128524 0
M  V30 24932 H 2379.71 -3.03974 2.1806 0
M  V30 24933 H 2381.05 -4.01081 2.85298 0
M  V30 24934 N 2382.7 -1.10314 -1.12555 0
M  V30 24935 C 2383.66 -0.754278 -2.16433 0
M  V30 24936 C 2384.66 0.220657 -1.59279 0
M  V30 24937 O 2385.85 -0.00233653 -1.742 0
M  V30 24938 C 2382.98 -0.117046 -3.40699 0
M  V30 24939 H 2384.18 -1.67436 -2.48808 0
M  V30 24940 H 2381.73 -0.903498 -1.27541 0
M  V30 24941 H 2382.46 0.813822 -3.13923 0
M  V30 24942 H 2382.25 -0.81868 -3.83458 0
M  V30 24943 H 2383.74 0.111314 -4.17452 0
M  V30 24944 N 2384.18 1.29948 -0.891694 0
M  V30 24945 C 2385.11 2.3039 -0.379838 0
M  V30 24946 C 2386.09 1.61271 0.540891 0
M  V30 24947 O 2387.27 1.88835 0.453319 0
M  V30 24948 C 2384.4 3.44982 0.400593 0
M  V30 24949 C 2383.36 4.25845 -0.42898 0
M  V30 24950 C 2382.68 5.32555 0.478463 0
M  V30 24951 C 2383.98 4.94724 -1.67467 0
M  V30 24952 H 2385.68 2.73452 -1.21919 0
M  V30 24953 H 2383.22 1.31461 -0.587698 0
M  V30 24954 H 2385.17 4.14317 0.769361 0
M  V30 24955 H 2383.9 3.00742 1.27365 0
M  V30 24956 H 2382.56 3.58207 -0.779974 0
M  V30 24957 H 2382.21 4.84561 1.34943 0
M  V30 24958 H 2381.91 5.87555 -0.0728465 0
M  V30 24959 H 2383.43 6.04744 0.843599 0
M  V30 24960 H 2384.84 5.5654 -1.3761 0
M  V30 24961 H 2383.24 5.5962 -2.16668 0
M  V30 24962 H 2384.31 4.20468 -2.41525 0
M  V30 24963 N 2385.65 0.653339 1.4342 0
M  V30 24964 C 2386.58 -0.0246246 2.33487 0
M  V30 24965 C 2387.56 -0.811837 1.49476 0
M  V30 24966 O 2388.75 -0.773291 1.7814 0
M  V30 24967 C 2385.88 -0.991601 3.32843 0
M  V30 24968 C 2384.83 -0.314493 4.26843 0
M  V30 24969 C 2384.16 -1.39292 5.16238 0
M  V30 24970 C 2385.46 0.793186 5.16242 0
M  V30 24971 H 2387.15 0.727532 2.90426 0
M  V30 24972 H 2384.7 0.351312 1.39649 0
M  V30 24973 H 2386.65 -1.4748 3.9475 0
M  V30 24974 H 2385.38 -1.77492 2.74161 0
M  V30 24975 H 2384.04 0.148264 3.663 0
M  V30 24976 H 2383.68 -2.16768 4.53895 0
M  V30 24977 H 2383.38 -0.945121 5.79949 0
M  V30 24978 H 2384.91 -1.87749 5.81019 0
M  V30 24979 H 2386.32 0.39214 5.71957 0
M  V30 24980 H 2384.72 1.16547 5.88674 0
M  V30 24981 H 2385.79 1.65111 4.55924 0
M  V30 24982 N 2387.13 -1.52563 0.395266 0
M  V30 24983 C 2388.04 -2.30356 -0.444191 0
M  V30 24984 C 2389.06 -1.37513 -1.06612 0
M  V30 24985 O 2390.23 -1.70585 -1.07064 0
M  V30 24986 C 2387.3 -3.09967 -1.5531 0
M  V30 24987 C 2386.36 -4.18528 -0.95566 0
M  V30 24988 C 2385.59 -4.94333 -2.01173 0
M  V30 24989 O 2385.82 -4.70291 -3.22773 0
M  V30 24990 O 2384.75 -5.7953 -1.62569 0
M  V30 24991 H 2388.58 -3.03107 0.18972 0
M  V30 24992 H 2386.16 -1.48553 0.158826 0
M  V30 24993 H 2388.04 -3.59586 -2.19718 0
M  V30 24994 H 2386.72 -2.40024 -2.17187 0
M  V30 24995 H 2385.62 -3.7309 -0.274678 0
M  V30 24996 H 2386.96 -4.90723 -0.381023 0
M  V30 24997 N 2388.61 -0.125265 -1.57101 0
M  V30 24998 C 2389.56 0.822617 -2.15642 0
M  V30 24999 C 2390.53 1.25925 -1.08315 0
M  V30 25000 O 2391.71 1.33565 -1.36254 0
M  V30 25001 C 2388.85 2.06489 -2.76508 0
M  V30 25002 C 2387.96 1.67605 -3.98161 0
M  V30 25003 C 2387.1 2.86846 -4.47094 0
M  V30 25004 C 2386.14 2.44232 -5.61264 0
M  V30 25005 N 2385.28 3.56408 -6.04911 0
M  V30 25006 H 2390.12 0.316573 -2.96314 0
M  V30 25007 H 2387.65 0.144562 -1.46388 0
M  V30 25008 H 2389.61 2.79284 -3.0993 0
M  V30 25009 H 2388.24 2.54541 -1.98516 0
M  V30 25010 H 2387.29 0.846595 -3.7086 0
M  V30 25011 H 2388.6 1.32292 -4.80937 0
M  V30 25012 H 2387.76 3.67859 -4.82457 0
M  V30 25013 H 2386.5 3.2539 -3.63281 0
M  V30 25014 H 2385.5 1.61654 -5.25498 0
M  V30 25015 H 2386.73 2.06799 -6.46847 0
M  V30 25016 H 2384.67 3.94613 -5.24038 0
M  V30 25017 H 2384.59 3.25039 -6.82558 0
M  V30 25018 H 2385.86 4.37841 -6.44915 0
M  V30 25019 N 2390.09 1.56899 0.148518 0
M  V30 25020 C 2391.32 1.87424 0.876356 0
M  V30 25021 C 2391.73 0.713287 1.74807 0
M  V30 25022 O 2391.09 -0.316994 1.79726 0
M  V30 25023 C 2391.14 3.17181 1.73432 0
M  V30 25024 O 2390.86 4.28803 0.897734 0
M  V30 25025 C 2392.36 3.6121 2.56987 0
M  V30 25026 H 2389.58 0.621281 0.253478 0
M  V30 25027 H 2392.12 2.04008 0.141762 0
M  V30 25028 H 2390.28 3.02355 2.42199 0
M  V30 25029 H 2390.69 5.02991 1.48663 0
M  V30 25030 H 2392.17 4.54843 3.12765 0
M  V30 25031 H 2392.64 2.86425 3.32952 0
M  V30 25032 H 2393.25 3.78725 1.93513 0
M  V30 25033 N 2391.57 -0.417818 1.51961 0
M  V30 25034 C 2392.51 -1.50849 1.7468 0
M  V30 25035 C 2393.48 -1.55307 0.588974 0
M  V30 25036 O 2394.67 -1.72014 0.825575 0
M  V30 25037 C 2391.81 -2.88384 1.89549 0
M  V30 25038 C 2390.92 -2.93303 3.17171 0
M  V30 25039 C 2390.06 -4.22083 3.22521 0
M  V30 25040 C 2389.09 -4.20943 4.4438 0
M  V30 25041 N 2388.23 -5.41279 4.4717 0
M  V30 25042 H 2393.07 -1.30778 2.67771 0
M  V30 25043 H 2390.61 -0.634957 1.3269 0
M  V30 25044 H 2392.57 -3.68212 1.96152 0
M  V30 25045 H 2391.2 -3.06969 0.998478 0
M  V30 25046 H 2390.25 -2.06019 3.19782 0
M  V30 25047 H 2391.56 -2.88325 4.07026 0
M  V30 25048 H 2390.71 -5.10298 3.28148 0
M  V30 25049 H 2389.45 -4.29744 2.30589 0
M  V30 25050 H 2388.46 -3.31119 4.38908 0
M  V30 25051 H 2389.68 -4.14929 5.37597 0
M  V30 25052 H 2387.63 -5.49625 3.58117 0
M  V30 25053 H 2387.55 -5.38261 5.30859 0
M  V30 25054 H 2388.81 -6.31472 4.57016 0
M  V30 25055 N 2393.04 -1.42436 -0.674508 0
M  V30 25056 C 2394.01 -1.45635 -1.76984 0
M  V30 25057 C 2395.01 -0.343898 -1.5708 0
M  V30 25058 O 2396.2 -0.604738 -1.63366 0
M  V30 25059 C 2393.33 -1.28828 -3.1562 0
M  V30 25060 H 2394.52 -2.43161 -1.75535 0
M  V30 25061 H 2392.07 -1.28888 -0.884167 0
M  V30 25062 H 2392.81 -0.322249 -3.22695 0
M  V30 25063 H 2392.59 -2.0945 -3.31471 0
M  V30 25064 H 2394.08 -1.33949 -3.95534 0
M  V30 25065 N 2394.52 0.910841 -1.28614 0
M  V30 25066 C 2395.45 2.0303 -1.15329 0
M  V30 25067 C 2396.43 1.70026 -0.0503222 0
M  V30 25068 O 2397.62 1.92859 -0.22783 0
M  V30 25069 C 2394.75 3.37544 -0.817403 0
M  V30 25070 C 2393.7 3.84721 -1.87547 0
M  V30 25071 C 2393.03 5.16232 -1.39314 0
M  V30 25072 C 2394.33 4.06261 -3.28251 0
M  V30 25073 H 2396.02 2.14402 -2.08979 0
M  V30 25074 H 2393.57 1.03019 -1.00614 0
M  V30 25075 H 2395.52 4.15355 -0.711224 0
M  V30 25076 H 2394.24 3.26233 0.154789 0
M  V30 25077 H 2392.9 3.09117 -1.97084 0
M  V30 25078 H 2392.55 5.01327 -0.409934 0
M  V30 25079 H 2392.25 5.48768 -2.10066 0
M  V30 25080 H 2393.78 5.96595 -1.30024 0
M  V30 25081 H 2395.19 4.74588 -3.21619 0
M  V30 25082 H 2393.59 4.50133 -3.96863 0
M  V30 25083 H 2394.66 3.10973 -3.72054 0
M  V30 25084 N 2396 1.10909 1.11969 0
M  V30 25085 C 2397.25 0.852852 1.83224 0
M  V30 25086 C 2397.57 -0.623309 1.8477 0
M  V30 25087 O 2396.84 -1.45267 1.31432 0
M  V30 25088 H 2395.42 0.312519 0.678484 0
M  V30 25089 H 2398.08 1.40036 1.35558 0
M  V30 25090 H 2397.18 1.2201 2.87263 0
M  V30 25091 N 2397.48 -1.29474 0.898573 0
M  V30 25092 C 2398.41 -2.30185 0.392051 0
M  V30 25093 C 2399.39 -1.61556 -0.532331 0
M  V30 25094 O 2400.57 -1.89073 -0.443298 0
M  V30 25095 C 2397.7 -3.4519 -0.382293 0
M  V30 25096 C 2396.66 -4.25611 0.451558 0
M  V30 25097 C 2395.98 -5.32801 -0.450214 0
M  V30 25098 C 2397.28 -4.93829 1.70088 0
M  V30 25099 H 2398.98 -2.72802 1.23367 0
M  V30 25100 H 2396.52 -1.31148 0.594661 0
M  V30 25101 H 2398.48 -4.14719 -0.747378 0
M  V30 25102 H 2397.2 -3.01413 -1.25769 0
M  V30 25103 H 2395.86 -3.57788 0.79896 0
M  V30 25104 H 2395.51 -4.8527 -1.32371 0
M  V30 25105 H 2395.21 -5.87508 0.104005 0
M  V30 25106 H 2396.73 -6.05183 -0.811516 0
M  V30 25107 H 2398.15 -5.55802 1.40559 0
M  V30 25108 H 2396.54 -5.58463 2.19633 0
M  V30 25109 H 2397.61 -4.19182 2.43752 0
M  V30 25110 N 2398.96 -0.660936 -1.43071 0
M  V30 25111 C 2399.87 0.026375 -2.34585 0
M  V30 25112 C 2400.88 0.80387 -1.54318 0
M  V30 25113 O 2402.06 0.749358 -1.8694 0
M  V30 25114 C 2399.12 0.975581 -3.32691 0
M  V30 25115 C 2398.18 0.194161 -4.28861 0
M  V30 25116 C 2397.42 1.09815 -5.2228 0
M  V30 25117 O 2397.64 2.33754 -5.20303 0
M  V30 25118 O 2396.57 0.566408 -5.99229 0
M  V30 25119 H 2400.4 -0.727085 -2.94868 0
M  V30 25120 H 2397.99 -0.421135 -1.43342 0
M  V30 25121 H 2399.87 1.52087 -3.92998 0
M  V30 25122 H 2398.54 1.70913 -2.74901 0
M  V30 25123 H 2397.45 -0.394901 -3.7201 0
M  V30 25124 H 2398.78 -0.499985 -4.89654 0
M  V30 25125 N 2400.43 1.52351 -0.403352 0
M  V30 25126 C 2401.34 2.30589 0.431969 0
M  V30 25127 C 2402.36 1.38077 1.05881 0
M  V30 25128 O 2403.54 1.7115 1.06158 0
M  V30 25129 C 2400.6 3.10787 1.53664 0
M  V30 25130 C 2399.66 4.19029 0.933451 0
M  V30 25131 C 2398.9 4.95393 1.98548 0
M  V30 25132 O 2399.12 4.71996 3.20274 0
M  V30 25133 O 2398.05 5.80384 1.59493 0
M  V30 25134 H 2401.88 3.03002 -0.205792 0
M  V30 25135 H 2399.46 1.48467 -0.166702 0
M  V30 25136 H 2401.35 3.60746 2.17808 0
M  V30 25137 H 2400.02 2.41173 2.15911 0
M  V30 25138 H 2398.93 3.73231 0.254888 0
M  V30 25139 H 2400.26 4.90918 0.354993 0
M  V30 25140 N 2401.91 0.133594 1.57033 0
M  V30 25141 C 2403.14 -0.531441 2.00476 0
M  V30 25142 C 2403.56 -1.58497 1.01293 0
M  V30 25143 O 2402.92 -1.81295 -0.0132961 0
M  V30 25144 C 2402.97 -1.12107 3.42731 0
M  V30 25145 O 2402.07 -2.2363 3.46502 0
M  V30 25146 H 2401.41 -0.13135 0.650879 0
M  V30 25147 H 2403.94 0.226375 2.03344 0
M  V30 25148 H 2403.95 -1.45304 3.81249 0
M  V30 25149 H 2402.63 -0.349485 4.14429 0
M  V30 25150 H 2401.21 -1.91763 3.19815 0
M  V30 25151 N 2403.39 -1.56975 -0.140195 0
M  V30 25152 C 2404.32 -2.0181 -1.17452 0
M  V30 25153 C 2405.3 -0.898819 -1.44413 0
M  V30 25154 O 2406.49 -1.1671 -1.55218 0
M  V30 25155 C 2403.62 -2.40449 -2.50603 0
M  V30 25156 C 2402.57 -3.55625 -2.38149 0
M  V30 25157 C 2401.9 -3.80098 -3.76072 0
M  V30 25158 C 2403.2 -4.88065 -1.85983 0
M  V30 25159 H 2404.89 -2.88467 -0.801692 0
M  V30 25160 H 2402.44 -1.3878 -0.384196 0
M  V30 25161 H 2404.39 -2.70416 -3.23193 0
M  V30 25162 H 2403.11 -1.50737 -2.89734 0
M  V30 25163 H 2401.77 -3.25834 -1.6801 0
M  V30 25164 H 2401.42 -2.87625 -4.12651 0
M  V30 25165 H 2401.12 -4.57613 -3.68598 0
M  V30 25166 H 2402.64 -4.12496 -4.50199 0
M  V30 25167 H 2404.06 -5.16706 -2.48371 0
M  V30 25168 H 2402.46 -5.69433 -1.89383 0
M  V30 25169 H 2403.53 -4.77986 -0.815938 0
M  V30 25170 N 2404.87 0.409753 -1.5218 0
M  V30 25171 C 2406.11 1.15848 -1.66455 0
M  V30 25172 C 2406.45 1.90182 -0.393005 0
M  V30 25173 O 2405.72 1.84735 0.608547 0
M  V30 25174 C 2406.01 2.15344 -2.88616 0
M  V30 25175 C 2405.86 1.44911 -4.25818 0
M  V30 25176 C 2407.18 3.1602 -3.06299 0
M  V30 25177 H 2404.3 0.419794 -0.605757 0
M  V30 25178 H 2406.94 0.444282 -1.84733 0
M  V30 25179 H 2405.09 2.7625 -2.73163 0
M  V30 25180 H 2406.76 0.871285 -4.52997 0
M  V30 25181 H 2405 0.751084 -4.27248 0
M  V30 25182 H 2405.67 2.17507 -5.07341 0
M  V30 25183 H 2408.15 2.6519 -3.20646 0
M  V30 25184 H 2407.03 3.82903 -3.93289 0
M  V30 25185 H 2407.29 3.83711 -2.19586 0
M  V30 25186 N 2406.35 1.42792 0.666944 0
M  V30 25187 C 2407.28 1.42839 1.79248 0
M  V30 25188 C 2408.29 0.326361 1.59495 0
M  V30 25189 O 2409.48 0.589946 1.68469 0
M  V30 25190 C 2406.58 1.21234 3.16473 0
M  V30 25191 C 2405.75 2.44019 3.63006 0
M  V30 25192 C 2404.81 2.17843 4.7899 0
M  V30 25193 O 2403.84 2.911 4.89132 0
M  V30 25194 N 2405.04 1.18645 5.68246 0
M  V30 25195 H 2407.81 2.39857 1.79691 0
M  V30 25196 H 2405.37 1.37773 0.850314 0
M  V30 25197 H 2407.36 1.01627 3.91732 0
M  V30 25198 H 2405.93 0.327115 3.10884 0
M  V30 25199 H 2405.15 2.79142 2.78341 0
M  V30 25200 H 2406.44 3.25764 3.90839 0
M  V30 25201 H 2405.83 0.580714 5.62711 0
M  V30 25202 H 2404.39 1.05024 6.43283 0
M  V30 25203 N 2407.82 -0.904008 1.29095 0
M  V30 25204 C 2408.73 -2.04068 1.15731 0
M  V30 25205 C 2409.75 -1.73809 0.0815613 0
M  V30 25206 O 2410.93 -1.9926 0.292784 0
M  V30 25207 C 2407.99 -3.36606 0.830483 0
M  V30 25208 C 2407.05 -3.80411 1.98962 0
M  V30 25209 C 2406.29 -5.06625 1.67829 0
M  V30 25210 O 2406.51 -5.67265 0.597205 0
M  V30 25211 O 2405.44 -5.46379 2.52495 0
M  V30 25212 H 2409.27 -2.18264 2.11174 0
M  V30 25213 H 2406.85 -1.02698 1.08506 0
M  V30 25214 H 2408.74 -4.16158 0.662594 0
M  V30 25215 H 2407.41 -3.23563 -0.0942109 0
M  V30 25216 H 2406.32 -3.01645 2.21272 0
M  V30 25217 H 2407.65 -3.98032 2.89536 0
M  V30 25218 N 2409.3 -1.11501 -1.11379 0
M  V30 25219 C 2410.55 -0.862556 -1.82769 0
M  V30 25220 C 2410.87 0.613501 -1.85098 0
M  V30 25221 O 2410.14 1.44568 -1.32201 0
M  V30 25222 H 2408.72 -0.316112 -0.676817 0
M  V30 25223 H 2411.38 -1.40753 -1.34813 0
M  V30 25224 H 2410.48 -1.23532 -2.86612 0
M  V30 25225 N 2410.78 1.28995 -0.905426 0
M  V30 25226 C 2412.2 1.47797 -0.602356 0
M  V30 25227 C 2412.4 1.82479 0.854613 0
M  V30 25228 O 2411.45 1.92471 1.63435 0
M  V30 25229 C 2412.77 2.58682 -1.5331 0
M  V30 25230 C 2414.31 2.72555 -1.53892 0
M  V30 25231 C 2414.79 3.86575 -2.45609 0
M  V30 25232 N 2416.28 3.93917 -2.43688 0
M  V30 25233 C 2417.02 4.81503 -3.11356 0
M  V30 25234 N 2416.51 5.7374 -3.88323 0
M  V30 25235 N 2418.3 4.75043 -3.00484 0
M  V30 25236 H 2410.46 1.04761 -1.84767 0
M  V30 25237 H 2412.72 0.520947 -0.792034 0
M  V30 25238 H 2412.42 2.39936 -2.57145 0
M  V30 25239 H 2412.3 3.55607 -1.25793 0
M  V30 25240 H 2414.69 2.90695 -0.507992 0
M  V30 25241 H 2414.77 1.76188 -1.8545 0
M  V30 25242 H 2414.41 3.69191 -3.48799 0
M  V30 25243 H 2414.34 4.82323 -2.11358 0
M  V30 25244 H 2416.83 3.27948 -1.87772 0
M  V30 25245 H 2417.14 6.37381 -4.36996 0
M  V30 25246 H 2415.49 5.73607 -3.92429 0
M  V30 25247 H 2418.68 4.01973 -2.39865 0
M  V30 25248 H 2418.85 5.43089 -3.53494 0
M  V30 25249 N 2412.26 0.668514 1.42719 0
M  V30 25250 C 2413.22 -0.00444538 2.292 0
M  V30 25251 C 2414.22 -0.735314 1.43003 0
M  V30 25252 O 2415.41 -0.574261 1.64462 0
M  V30 25253 C 2412.54 -1.017 3.25377 0
M  V30 25254 H 2413.74 0.756659 2.90198 0
M  V30 25255 H 2411.29 0.430532 1.50253 0
M  V30 25256 H 2412.03 -1.80681 2.69304 0
M  V30 25257 H 2411.81 -0.496394 3.88945 0
M  V30 25258 H 2413.3 -1.48648 3.90248 0
M  V30 25259 N 2413.74 -1.52135 0.411426 0
M  V30 25260 C 2415.15 -1.59478 0.0624145 0
M  V30 25261 C 2415.35 -1.42413 -1.42551 0
M  V30 25262 O 2414.41 -1.25224 -2.19261 0
M  V30 25263 C 2415.72 -2.95451 0.559383 0
M  V30 25264 C 2417.27 -3.08691 0.517558 0
M  V30 25265 C 2417.75 -4.47148 0.991073 0
M  V30 25266 N 2419.24 -4.53395 0.947987 0
M  V30 25267 C 2419.97 -5.58804 1.28553 0
M  V30 25268 N 2419.47 -6.71754 1.69465 0
M  V30 25269 N 2421.26 -5.49024 1.20536 0
M  V30 25270 H 2413.41 -1.61475 1.37985 0
M  V30 25271 H 2415.67 -0.759754 0.56699 0
M  V30 25272 H 2415.38 -3.13227 1.59944 0
M  V30 25273 H 2415.25 -3.77188 -0.0297351 0
M  V30 25274 H 2417.64 -2.90599 -0.513454 0
M  V30 25275 H 2417.72 -2.28855 1.14276 0
M  V30 25276 H 2417.37 -4.65984 2.02042 0
M  V30 25277 H 2417.3 -5.25484 0.342663 0
M  V30 25278 H 2419.79 -3.72316 0.647223 0
M  V30 25279 H 2420.1 -7.48176 1.93527 0
M  V30 25280 H 2418.45 -6.73029 1.73371 0
M  V30 25281 H 2421.64 -4.59666 0.884585 0
M  V30 25282 H 2421.81 -6.31066 1.47172 0
M  V30 25283 N 2415.22 -0.14192 -1.5696 0
M  V30 25284 C 2416.13 0.812866 -2.20067 0
M  V30 25285 C 2417.14 1.27554 -1.18346 0
M  V30 25286 O 2418.32 1.33379 -1.50904 0
M  V30 25287 C 2415.38 2.03647 -2.80586 0
M  V30 25288 C 2414.44 1.62352 -3.97417 0
M  V30 25289 C 2413.68 2.78879 -4.55041 0
M  V30 25290 O 2413.9 3.94952 -4.11545 0
M  V30 25291 O 2412.83 2.54644 -5.45381 0
M  V30 25292 H 2416.66 0.305693 -3.02158 0
M  V30 25293 H 2414.24 0.0848537 -1.49159 0
M  V30 25294 H 2416.13 2.75266 -3.19071 0
M  V30 25295 H 2414.8 2.53327 -2.01512 0
M  V30 25296 H 2413.71 0.877711 -3.63658 0
M  V30 25297 H 2415.04 1.17393 -4.77996 0
M  V30 25298 N 2416.69 1.57047 0.131868 0
M  V30 25299 C 2417.63 1.96022 1.18776 0
M  V30 25300 C 2418.64 0.857899 1.38362 0
M  V30 25301 O 2419.83 1.13625 1.37664 0
M  V30 25302 C 2416.93 2.23217 2.55005 0
M  V30 25303 C 2416.1 3.54518 2.56195 0
M  V30 25304 C 2415.16 3.70075 3.74073 0
M  V30 25305 O 2414.19 4.42318 3.5825 0
M  V30 25306 N 2415.39 3.07874 4.92132 0
M  V30 25307 H 2418.15 2.87205 0.85634 0
M  V30 25308 H 2415.71 1.5868 0.321282 0
M  V30 25309 H 2417.71 2.30852 3.324 0
M  V30 25310 H 2416.28 1.38225 2.80379 0
M  V30 25311 H 2415.5 3.58188 1.64607 0
M  V30 25312 H 2416.78 4.40844 2.54035 0
M  V30 25313 H 2416.18 2.49125 5.07891 0
M  V30 25314 H 2414.74 3.21049 5.67249 0
M  V30 25315 N 2418.17 -0.401677 1.52395 0
M  V30 25316 C 2419.08 -1.51441 1.79173 0
M  V30 25317 C 2420.1 -1.60259 0.67772 0
M  V30 25318 O 2421.27 -1.76834 0.96394 0
M  V30 25319 C 2418.34 -2.87103 1.94352 0
M  V30 25320 C 2417.4 -2.8811 3.18262 0
M  V30 25321 C 2416.63 -4.17302 3.32708 0
M  V30 25322 O 2416.86 -5.11593 2.52247 0
M  V30 25323 O 2415.79 -4.25316 4.25899 0
M  V30 25324 H 2419.62 -1.31747 2.73635 0
M  V30 25325 H 2417.2 -0.588272 1.37331 0
M  V30 25326 H 2419.08 -3.67552 2.06116 0
M  V30 25327 H 2417.76 -3.06849 1.03079 0
M  V30 25328 H 2416.66 -2.06489 3.11951 0
M  V30 25329 H 2418 -2.73315 4.09341 0
M  V30 25330 N 2419.65 -1.43144 -0.659362 0
M  V30 25331 C 2420.56 -1.50259 -1.80165 0
M  V30 25332 C 2421.58 -0.390136 -1.6957 0
M  V30 25333 O 2422.75 -0.643352 -1.90848 0
M  V30 25334 C 2419.82 -1.41731 -3.16407 0
M  V30 25335 C 2418.88 -2.63597 -3.38844 0
M  V30 25336 C 2418.11 -2.55466 -4.68586 0
M  V30 25337 O 2418.33 -1.59901 -5.47529 0
M  V30 25338 O 2417.27 -3.45863 -4.92608 0
M  V30 25339 H 2421.09 -2.46705 -1.77117 0
M  V30 25340 H 2418.68 -1.25077 -0.81707 0
M  V30 25341 H 2420.56 -1.39394 -3.97677 0
M  V30 25342 H 2419.24 -0.484174 -3.20058 0
M  V30 25343 H 2418.14 -2.71507 -2.57361 0
M  V30 25344 H 2419.48 -3.55862 -3.40034 0
M  V30 25345 N 2421.13 0.897149 -1.29572 0
M  V30 25346 C 2422.07 2.00156 -1.14919 0
M  V30 25347 C 2423.04 1.66047 -0.0418441 0
M  V30 25348 O 2424.23 1.89643 -0.209826 0
M  V30 25349 C 2421.37 3.34862 -0.834366 0
M  V30 25350 C 2420.48 3.81737 -2.0224 0
M  V30 25351 C 2419.62 5.05031 -1.64673 0
M  V30 25352 C 2418.66 5.44282 -2.80043 0
M  V30 25353 N 2417.79 6.58761 -2.42854 0
M  V30 25354 H 2422.63 2.12021 -2.09407 0
M  V30 25355 H 2420.17 1.03828 -1.04202 0
M  V30 25356 H 2422.13 4.12377 -0.632508 0
M  V30 25357 H 2420.76 3.22716 0.0736089 0
M  V30 25358 H 2419.81 3.00234 -2.33589 0
M  V30 25359 H 2421.12 4.06774 -2.8868 0
M  V30 25360 H 2420.28 5.90138 -1.40791 0
M  V30 25361 H 2419.02 4.81839 -0.75385 0
M  V30 25362 H 2418.02 4.57707 -3.04605 0
M  V30 25363 H 2419.25 5.69454 -3.69999 0
M  V30 25364 H 2417.19 6.37167 -1.56057 0
M  V30 25365 H 2417.11 6.83607 -3.22827 0
M  V30 25366 H 2418.38 7.4713 -2.22298 0
M  V30 25367 N 2422.61 1.1209 1.10786 0
M  V30 25368 C 2423.84 0.895384 1.86189 0
M  V30 25369 C 2424.24 -0.55867 1.80764 0
M  V30 25370 O 2423.59 -1.39783 1.1919 0
M  V30 25371 C 2423.65 1.28743 3.35657 0
M  V30 25372 C 2423.31 2.75204 3.64845 0
M  V30 25373 C 2424.31 3.73406 3.61751 0
M  V30 25374 C 2421.99 3.1202 3.93635 0
M  V30 25375 C 2423.99 5.0644 3.87036 0
M  V30 25376 C 2421.68 4.45237 4.18577 0
M  V30 25377 C 2422.67 5.42256 4.15267 0
M  V30 25378 O 2422.36 6.73073 4.39578 0
M  V30 25379 H 2422.09 0.320081 0.59542 0
M  V30 25380 H 2424.65 1.49369 1.40989 0
M  V30 25381 H 2422.88 0.632307 3.81495 0
M  V30 25382 H 2424.57 1.03663 3.9244 0
M  V30 25383 H 2425.33 3.46309 3.39551 0
M  V30 25384 H 2421.21 2.37116 3.95344 0
M  V30 25385 H 2424.76 5.82157 3.84368 0
M  V30 25386 H 2420.65 4.72065 4.40255 0
M  V30 25387 H 2421.42 6.78964 4.57111 0
M  V30 25388 N 2424.08 -1.28513 0.912254 0
M  V30 25389 C 2425.33 -1.95685 0.554885 0
M  V30 25390 C 2425.68 -1.70507 -0.89135 0
M  V30 25391 O 2424.98 -1.01467 -1.62527 0
M  V30 25392 C 2425.17 -3.48367 0.798453 0
M  V30 25393 C 2425 -3.88389 2.26681 0
M  V30 25394 C 2423.77 -4.12626 2.91664 0
M  V30 25395 C 2425.97 -3.99158 3.2431 0
M  V30 25396 N 2423.95 -4.3931 4.28813 0
M  V30 25397 C 2425.32 -4.30038 4.46617 0
M  V30 25398 C 2427.38 -3.81677 3.19729 0
M  V30 25399 C 2426.08 -4.45258 5.64923 0
M  V30 25400 C 2428.11 -3.98113 4.37332 0
M  V30 25401 C 2427.47 -4.29365 5.58413 0
M  V30 25402 H 2423.57 -0.73998 0.252889 0
M  V30 25403 H 2426.15 -1.55197 1.17567 0
M  V30 25404 H 2424.32 -3.87848 0.206948 0
M  V30 25405 H 2426.05 -4.02666 0.405264 0
M  V30 25406 H 2422.81 -4.06865 2.424 0
M  V30 25407 H 2423.23 -4.56737 4.9972 0
M  V30 25408 H 2427.87 -3.56569 2.27197 0
M  V30 25409 H 2425.59 -4.69198 6.57935 0
M  V30 25410 H 2429.18 -3.86025 4.35288 0
M  V30 25411 H 2428.06 -4.41814 6.47897 0
M  V30 25412 N 2425.56 -0.676073 -1.42362 0
M  V30 25413 C 2426.98 -0.345745 -1.5581 0
M  V30 25414 C 2427.18 1.14877 -1.65546 0
M  V30 25415 O 2426.23 1.93422 -1.62309 0
M  V30 25416 C 2427.55 -1.07718 -2.80744 0
M  V30 25417 C 2429.1 -1.05963 -2.94518 0
M  V30 25418 C 2429.57 -1.77241 -4.22315 0
M  V30 25419 N 2431.06 -1.74115 -4.2923 0
M  V30 25420 C 2431.8 -2.26122 -5.26931 0
M  V30 25421 N 2431.29 -2.86516 -6.30777 0
M  V30 25422 N 2433.09 -2.16489 -5.18738 0
M  V30 25423 H 2425.24 -1.64563 -1.34286 0
M  V30 25424 H 2427.5 -0.693361 -0.646494 0
M  V30 25425 H 2427.21 -2.13226 -2.79692 0
M  V30 25426 H 2427.08 -0.643225 -3.71675 0
M  V30 25427 H 2429.47 -0.0128774 -2.95097 0
M  V30 25428 H 2429.55 -1.53247 -2.04814 0
M  V30 25429 H 2429.19 -2.81885 -4.22497 0
M  V30 25430 H 2429.12 -1.27405 -5.10955 0
M  V30 25431 H 2431.61 -1.30065 -3.54812 0
M  V30 25432 H 2431.93 -3.23817 -7.01685 0
M  V30 25433 H 2430.27 -2.90586 -6.31335 0
M  V30 25434 H 2433.46 -1.68994 -4.3653 0
M  V30 25435 H 2433.63 -2.57326 -5.94716 0
M  V30 25436 N 2427.04 1.51915 -0.419488 0
M  V30 25437 C 2428.29 2.01523 0.152602 0
M  V30 25438 C 2428.61 1.30651 1.44759 0
M  V30 25439 O 2427.88 0.435569 1.90996 0
M  V30 25440 H 2426.46 0.744636 0.0593835 0
M  V30 25441 H 2429.12 1.86738 -0.558105 0
M  V30 25442 H 2428.22 3.10228 0.341315 0
M  V30 25443 N 2428.52 0.150242 1.56882 0
M  V30 25444 C 2429.45 -0.819249 2.14058 0
M  V30 25445 C 2430.46 -1.20849 1.09084 0
M  V30 25446 O 2431.65 -1.15201 1.36349 0
M  V30 25447 C 2428.75 -2.11122 2.65105 0
M  V30 25448 C 2427.93 -1.88884 3.94515 0
M  V30 25449 C 2426.98 -3.021 4.30839 0
M  V30 25450 O 2426.01 -2.7365 4.99104 0
M  V30 25451 N 2427.21 -4.29356 3.90683 0
M  V30 25452 H 2429.98 -0.330565 2.97871 0
M  V30 25453 H 2427.54 -0.0332254 1.61866 0
M  V30 25454 H 2429.53 -2.85916 2.86416 0
M  V30 25455 H 2428.1 -2.51243 1.85999 0
M  V30 25456 H 2427.32 -0.981085 3.81796 0
M  V30 25457 H 2428.61 -1.71367 4.79073 0
M  V30 25458 H 2428.01 -4.55338 3.35685 0
M  V30 25459 H 2426.56 -5.00921 4.17039 0
M  V30 25460 N 2430 -1.57115 -0.123538 0
M  V30 25461 C 2431.27 -1.75574 -0.862165 0
M  V30 25462 C 2431.65 -0.72451 -1.98278 0
M  V30 25463 O 2431 0.252367 -2.27102 0
M  V30 25464 C 2431.21 -3.20426 -1.38304 0
M  V30 25465 C 2432.56 -3.82796 -1.83717 0
M  V30 25466 O 2433.58 -3.24001 -1.47993 0
M  V30 25467 O 2432.44 -4.86132 -2.49677 0
M  V30 25468 H 2429.54 -0.718725 -0.409101 0
M  V30 25469 H 2432.08 -1.69358 -0.107632 0
M  V30 25470 H 2430.85 -3.86995 -0.578821 0
M  V30 25471 H 2430.48 -3.31161 -2.20041 0
M  V30 25472 N 2431.47 0.393589 -1.52606 0
M  V30 25473 C 2432.72 1.14076 -1.67674 0
M  V30 25474 C 2433.05 1.89754 -0.413155 0
M  V30 25475 O 2432.33 1.8537 0.588919 0
M  V30 25476 C 2432.61 2.12271 -2.90883 0
M  V30 25477 C 2432.46 1.40386 -4.27331 0
M  V30 25478 C 2433.78 3.12754 -3.09634 0
M  V30 25479 H 2430.9 0.413346 -0.610176 0
M  V30 25480 H 2433.54 0.424663 -1.85193 0
M  V30 25481 H 2431.69 2.73338 -2.76078 0
M  V30 25482 H 2433.37 0.82319 -4.53896 0
M  V30 25483 H 2431.61 0.705726 -4.28021 0
M  V30 25484 H 2432.28 2.12114 -5.09619 0
M  V30 25485 H 2434.76 2.61774 -3.2344 0
M  V30 25486 H 2433.63 3.7871 -3.97329 0
M  V30 25487 H 2433.89 3.81361 -2.23643 0
M  V30 25488 N 2432.95 1.43492 0.651762 0
M  V30 25489 C 2434.2 1.45401 1.41373 0
M  V30 25490 C 2434.53 0.0785164 1.94041 0
M  V30 25491 O 2433.81 -0.900848 1.7238 0
M  V30 25492 C 2434.09 2.49757 2.5941 0
M  V30 25493 C 2433.94 3.96586 2.12225 0
M  V30 25494 C 2435.26 2.50834 3.61622 0
M  V30 25495 H 2432.38 0.529431 0.51271 0
M  V30 25496 H 2435.02 1.75049 0.738765 0
M  V30 25497 H 2433.17 2.24606 3.16993 0
M  V30 25498 H 2434.84 4.328 1.59632 0
M  V30 25499 H 2433.09 4.09348 1.43584 0
M  V30 25500 H 2433.76 4.65219 2.97112 0
M  V30 25501 H 2436.23 2.73255 3.13801 0
M  V30 25502 H 2435.11 3.2579 4.4176 0
M  V30 25503 H 2435.37 1.54267 4.14312 0
M  V30 25504 N 2434.43 -0.890264 1.30046 0
M  V30 25505 C 2435.36 -2.00089 1.1179 0
M  V30 25506 C 2436.38 -1.62679 0.0626593 0
M  V30 25507 O 2437.56 -1.7582 0.308143 0
M  V30 25508 C 2434.66 -3.31975 0.681585 0
M  V30 25509 C 2433.84 -3.97855 1.81742 0
M  V30 25510 C 2432.9 -5.08038 1.37054 0
M  V30 25511 O 2431.92 -5.29957 2.07687 0
M  V30 25512 N 2433.12 -5.79976 0.246627 0
M  V30 25513 H 2435.89 -2.16302 2.07445 0
M  V30 25514 H 2433.45 -1.06303 1.22112 0
M  V30 25515 H 2435.44 -4.03044 0.365746 0
M  V30 25516 H 2434.01 -3.12065 -0.182773 0
M  V30 25517 H 2433.23 -3.20028 2.30165 0
M  V30 25518 H 2434.52 -4.3861 2.57873 0
M  V30 25519 H 2433.92 -5.64665 -0.342051 0
M  V30 25520 H 2432.48 -6.51799 -0.00978981 0
M  V30 25521 N 2435.91 -1.12676 -1.1019 0
M  V30 25522 C 2436.82 -0.810065 -2.20171 0
M  V30 25523 C 2437.83 0.202158 -1.72822 0
M  V30 25524 O 2439.01 0.0351337 -2.01369 0
M  V30 25525 C 2436.08 -0.272068 -3.45631 0
M  V30 25526 C 2435.14 -1.34454 -4.07702 0
M  V30 25527 C 2434.37 -0.832122 -5.27173 0
M  V30 25528 O 2434.59 0.333184 -5.69426 0
M  V30 25529 O 2433.53 -1.60287 -5.80165 0
M  V30 25530 H 2437.35 -1.72871 -2.49698 0
M  V30 25531 H 2434.94 -0.903618 -1.18975 0
M  V30 25532 H 2436.82 0.0229478 -4.21394 0
M  V30 25533 H 2435.49 0.619108 -3.17724 0
M  V30 25534 H 2434.4 -1.69276 -3.33611 0
M  V30 25535 H 2435.73 -2.20958 -4.39817 0
M  V30 25536 N 2437.39 1.28028 -0.919057 0
M  V30 25537 C 2438.63 1.95388 -0.565255 0
M  V30 25538 C 2438.99 1.70978 0.882295 0
M  V30 25539 O 2438.28 1.02328 1.61986 0
M  V30 25540 C 2438.47 3.47939 -0.816917 0
M  V30 25541 C 2438.3 3.87181 -2.28738 0
M  V30 25542 C 2437.07 4.11073 -2.93848 0
M  V30 25543 C 2439.27 3.97433 -3.26422 0
M  V30 25544 N 2437.25 4.37029 -4.31136 0
M  V30 25545 C 2438.62 4.27664 -4.48892 0
M  V30 25546 C 2440.68 3.79976 -3.21749 0
M  V30 25547 C 2439.38 4.42256 -5.67276 0
M  V30 25548 C 2441.41 3.95789 -4.39438 0
M  V30 25549 C 2440.77 4.26397 -5.60682 0
M  V30 25550 H 2436.87 0.738629 -0.25681 0
M  V30 25551 H 2439.45 1.54571 -1.18389 0
M  V30 25552 H 2437.62 3.87733 -0.227514 0
M  V30 25553 H 2439.36 4.02445 -0.426612 0
M  V30 25554 H 2436.11 4.05574 -2.44554 0
M  V30 25555 H 2436.54 4.54081 -5.02135 0
M  V30 25556 H 2441.18 3.55359 -2.29085 0
M  V30 25557 H 2438.9 4.65703 -6.60414 0
M  V30 25558 H 2442.48 3.83711 -4.37329 0
M  V30 25559 H 2441.36 4.38372 -6.5023 0
M  V30 25560 N 2438.86 0.683613 1.42002 0
M  V30 25561 C 2439.8 -0.0282665 2.29183 0
M  V30 25562 C 2440.81 -0.756585 1.44151 0
M  V30 25563 O 2442 -0.609277 1.6778 0
M  V30 25564 C 2439.1 -1.06392 3.21767 0
M  V30 25565 C 2438.27 -0.407646 4.35496 0
M  V30 25566 C 2437.33 -1.34428 5.08739 0
M  V30 25567 O 2436.36 -0.841219 5.6295 0
M  V30 25568 N 2437.56 -2.67719 5.15079 0
M  V30 25569 H 2440.32 0.720156 2.90919 0
M  V30 25570 H 2437.88 0.528709 1.53024 0
M  V30 25571 H 2439.88 -1.69198 3.67633 0
M  V30 25572 H 2438.45 -1.71399 2.61421 0
M  V30 25573 H 2437.67 0.400081 3.92164 0
M  V30 25574 H 2438.95 0.049185 5.08776 0
M  V30 25575 H 2438.35 -3.1112 4.72462 0
M  V30 25576 H 2436.91 -3.2575 5.64562 0
M  V30 25577 N 2440.34 -1.5169 0.427538 0
M  V30 25578 C 2441.25 -2.31247 -0.395229 0
M  V30 25579 C 2442.27 -1.39744 -1.03671 0
M  V30 25580 O 2443.45 -1.72817 -1.03422 0
M  V30 25581 C 2440.51 -3.13192 -1.487 0
M  V30 25582 C 2439.57 -4.20461 -0.866669 0
M  V30 25583 C 2438.8 -4.98489 -1.90642 0
M  V30 25584 O 2439.03 -4.77032 -3.12725 0
M  V30 25585 O 2437.96 -5.82848 -1.5024 0
M  V30 25586 H 2441.79 -3.02636 0.253971 0
M  V30 25587 H 2439.37 -1.48183 0.1903 0
M  V30 25588 H 2441.25 -3.64166 -2.12041 0
M  V30 25589 H 2439.93 -2.44577 -2.12047 0
M  V30 25590 H 2438.84 -3.73589 -0.195478 0
M  V30 25591 H 2440.17 -4.91421 -0.276848 0
M  V30 25592 N 2441.82 -0.15856 -1.568 0
M  V30 25593 C 2443.05 0.496268 -2.0086 0
M  V30 25594 C 2443.46 1.57657 -1.03873 0
M  V30 25595 O 2442.82 1.82461 -0.0375485 0
M  V30 25596 C 2442.87 1.08632 -3.44792 0
M  V30 25597 O 2442.59 0.0491552 -4.38072 0
M  V30 25598 C 2444.09 1.82063 -4.04188 0
M  V30 25599 H 2441.31 0.128187 -0.658642 0
M  V30 25600 H 2443.86 -0.256542 -2.02884 0
M  V30 25601 H 2442.01 1.78969 -3.43582 0
M  V30 25602 H 2442.43 0.48301 -5.22271 0
M  V30 25603 H 2443.9 2.18624 -5.0686 0
M  V30 25604 H 2444.38 2.71089 -3.45554 0
M  V30 25605 H 2444.98 1.16397 -4.09062 0
M  V30 25606 N 2443.3 1.57178 0.115204 0
M  V30 25607 C 2444.52 1.89614 0.840321 0
M  V30 25608 C 2444.95 0.750875 1.72463 0
M  V30 25609 O 2444.31 -0.298447 1.78827 0
M  V30 25610 C 2444.36 3.20817 1.64648 0
M  V30 25611 O 2443.46 3.0699 2.75375 0
M  V30 25612 H 2442.8 0.622096 0.232147 0
M  V30 25613 H 2445.33 2.04372 0.0964618 0
M  V30 25614 H 2445.34 3.53631 2.03493 0
M  V30 25615 H 2444.02 4.03765 0.997345 0
M  V30 25616 H 2442.59 2.8565 2.39705 0
M  V30 25617 N 2444.78 -0.38549 1.52813 0
M  V30 25618 C 2446.19 -0.963265 1.59932 0
M  V30 25619 C 2446.54 -1.90867 0.454335 0
M  V30 25620 O 2445.66 -2.12244 -0.422094 0
M  V30 25621 C 2446.26 -1.75381 2.89874 0
M  V30 25622 C 2444.82 -2.28124 2.99393 0
M  V30 25623 C 2443.97 -1.08779 2.55073 0
M  V30 25624 H 2446.92 -0.164921 1.57841 0
M  V30 25625 H 2446.94 -2.61336 2.76557 0
M  V30 25626 H 2446.45 -1.06548 3.73188 0
M  V30 25627 H 2444.55 -3.00259 2.20624 0
M  V30 25628 H 2444.66 -2.5737 4.04101 0
M  V30 25629 H 2443.03 -1.44886 2.09476 0
M  V30 25630 H 2443.81 -0.414747 3.40785 0
M  V30 25631 N 2446.26 -1.43835 -0.644143 0
M  V30 25632 C 2447.48 -1.4939 -1.43144 0
M  V30 25633 C 2447.9 -0.114616 -1.88452 0
M  V30 25634 O 2447.26 0.876961 -1.60049 0
M  V30 25635 C 2447.31 -2.44753 -2.66042 0
M  V30 25636 O 2447.03 -3.77318 -2.22627 0
M  V30 25637 C 2448.53 -2.59641 -3.59307 0
M  V30 25638 H 2445.75 -0.507085 -0.439438 0
M  V30 25639 H 2448.29 -1.8867 -0.788917 0
M  V30 25640 H 2446.45 -2.08644 -3.26415 0
M  V30 25641 H 2446.86 -4.28685 -3.02208 0
M  V30 25642 H 2448.34 -3.30424 -4.42181 0
M  V30 25643 H 2448.81 -1.64435 -4.07257 0
M  V30 25644 H 2449.42 -2.96599 -3.0481 0
M  V30 25645 N 2447.73 0.883355 -1.30517 0
M  V30 25646 C 2449.15 1.1669 -1.08883 0
M  V30 25647 C 2449.35 2.00946 0.149373 0
M  V30 25648 O 2448.41 2.38029 0.842528 0
M  V30 25649 C 2449.72 1.872 -2.35322 0
M  V30 25650 C 2451.27 1.99958 -2.40802 0
M  V30 25651 C 2451.74 2.73881 -3.67088 0
M  V30 25652 N 2453.23 2.81425 -3.67905 0
M  V30 25653 C 2453.97 3.39202 -4.62309 0
M  V30 25654 N 2453.46 3.98015 -5.67059 0
M  V30 25655 N 2455.26 3.37032 -4.49851 0
M  V30 25656 H 2447.41 0.321596 -2.09951 0
M  V30 25657 H 2449.67 0.205026 -0.925564 0
M  V30 25658 H 2449.38 1.32734 -3.25691 0
M  V30 25659 H 2449.25 2.87573 -2.44094 0
M  V30 25660 H 2451.64 2.53594 -1.50911 0
M  V30 25661 H 2451.72 0.986688 -2.36004 0
M  V30 25662 H 2451.36 2.20917 -4.57338 0
M  V30 25663 H 2451.29 3.7555 -3.69148 0
M  V30 25664 H 2453.78 2.39671 -2.92175 0
M  V30 25665 H 2454.1 4.40172 -6.35192 0
M  V30 25666 H 2452.44 3.96429 -5.70849 0
M  V30 25667 H 2455.63 2.90315 -3.67199 0
M  V30 25668 H 2455.81 3.81763 -5.23604 0
M  V30 25669 N 2449.21 1.13259 1.09591 0
M  V30 25670 C 2450.12 0.82173 2.19738 0
M  V30 25671 C 2451.14 -0.19299 1.72926 0
M  V30 25672 O 2452.31 -0.0244541 2.01385 0
M  V30 25673 C 2449.38 0.290394 3.45482 0
M  V30 25674 C 2448.44 1.36614 4.06983 0
M  V30 25675 C 2447.67 0.860067 5.26724 0
M  V30 25676 O 2447.9 -0.302981 5.69595 0
M  V30 25677 O 2446.83 1.63362 5.79307 0
M  V30 25678 H 2450.66 1.74193 2.48778 0
M  V30 25679 H 2448.24 0.909915 1.18494 0
M  V30 25680 H 2450.12 -0.00059995 4.214 0
M  V30 25681 H 2448.8 -0.60225 3.18048 0
M  V30 25682 H 2447.7 1.71043 3.32709 0
M  V30 25683 H 2449.04 2.23287 4.38639 0
M  V30 25684 N 2450.69 -1.27539 0.925834 0
M  V30 25685 C 2451.6 -2.30644 0.429034 0
M  V30 25686 C 2452.62 -1.66977 -0.489358 0
M  V30 25687 O 2453.79 -1.97923 -0.372618 0
M  V30 25688 C 2450.86 -3.45294 -0.311906 0
M  V30 25689 C 2449.92 -4.24485 0.641173 0
M  V30 25690 C 2449.15 -5.33661 -0.0645016 0
M  V30 25691 O 2449.37 -5.55756 -1.28419 0
M  V30 25692 O 2448.31 -5.98838 0.606371 0
M  V30 25693 H 2452.13 -2.75171 1.28509 0
M  V30 25694 H 2449.72 -1.32454 0.691109 0
M  V30 25695 H 2451.6 -4.15031 -0.729899 0
M  V30 25696 H 2450.28 -3.02826 -1.1436 0
M  V30 25697 H 2449.18 -3.5729 1.10881 0
M  V30 25698 H 2450.52 -4.70663 1.44003 0
M  V30 25699 N 2452.17 -0.691135 -1.41637 0
M  V30 25700 C 2453.58 -0.295549 -1.84346 0
M  V30 25701 C 2453.93 1.16544 -1.57835 0
M  V30 25702 O 2453.05 1.89412 -1.04652 0
M  V30 25703 C 2453.65 -0.529634 -3.34635 0
M  V30 25704 C 2452.21 -0.18801 -3.7593 0
M  V30 25705 C 2451.36 -0.814099 -2.65081 0
M  V30 25706 H 2454.31 -0.892115 -1.31252 0
M  V30 25707 H 2454.33 0.213082 -3.79903 0
M  V30 25708 H 2453.84 -1.59304 -3.53898 0
M  V30 25709 H 2451.94 0.871304 -3.62269 0
M  V30 25710 H 2452.05 -0.639933 -4.74807 0
M  V30 25711 H 2450.42 -0.244061 -2.53528 0
M  V30 25712 H 2451.2 -1.88128 -2.87163 0
M  V30 25713 N 2453.65 1.51461 -0.435577 0
M  V30 25714 C 2454.61 2.26273 0.365097 0
M  V30 25715 C 2455.61 1.29649 0.951204 0
M  V30 25716 O 2456.8 1.53375 0.825931 0
M  V30 25717 C 2453.93 3.05317 1.51639 0
M  V30 25718 H 2455.12 2.98489 -0.290526 0
M  V30 25719 H 2452.68 1.55157 -0.188703 0
M  V30 25720 H 2453.41 2.37514 2.20812 0
M  V30 25721 H 2453.2 3.76286 1.10232 0
M  V30 25722 H 2454.69 3.61991 2.08212 0
M  V30 25723 N 2455.12 0.166873 1.56714 0
M  V30 25724 C 2456.37 -0.478271 1.96359 0
M  V30 25725 C 2456.69 -1.64078 1.05373 0
M  V30 25726 O 2455.96 -1.95537 0.119189 0
M  V30 25727 H 2454.54 -0.17968 0.725068 0
M  V30 25728 H 2457.21 0.247018 1.93328 0
M  V30 25729 H 2456.3 -0.84124 3.00549 0
M  V30 25730 N 2456.6 -1.57237 -0.106866 0
M  V30 25731 C 2457.51 -2.04532 -1.14907 0
M  V30 25732 C 2458.53 -0.967975 -1.4459 0
M  V30 25733 O 2459.7 -1.28033 -1.55465 0
M  V30 25734 C 2456.77 -2.4504 -2.45267 0
M  V30 25735 C 2455.83 -3.66914 -2.22873 0
M  V30 25736 C 2455.06 -4.05481 -3.47017 0
M  V30 25737 O 2455.29 -3.4426 -4.54798 0
M  V30 25738 O 2454.22 -4.9851 -3.37301 0
M  V30 25739 H 2458.05 -2.93581 -0.777409 0
M  V30 25740 H 2455.63 -1.45965 -0.318538 0
M  V30 25741 H 2457.51 -2.71775 -3.2205 0
M  V30 25742 H 2456.19 -1.59134 -2.81883 0
M  V30 25743 H 2455.1 -3.45313 -1.43909 0
M  V30 25744 H 2456.43 -4.53564 -1.91155 0
M  V30 25745 N 2458.08 0.377381 -1.53015 0
M  V30 25746 C 2459.01 1.48146 -1.74887 0
M  V30 25747 C 2460.03 1.50139 -0.62946 0
M  V30 25748 O 2461.21 1.53831 -0.905443 0
M  V30 25749 C 2458.31 2.86956 -1.80304 0
M  V30 25750 C 2457.49 3.08795 -3.09781 0
M  V30 25751 C 2456.55 4.27653 -3.06593 0
M  V30 25752 O 2455.57 4.23396 -3.80426 0
M  V30 25753 N 2456.77 5.34451 -2.26588 0
M  V30 25754 H 2459.54 1.29766 -2.7015 0
M  V30 25755 H 2457.1 0.567004 -1.51647 0
M  V30 25756 H 2459.09 3.64588 -1.75663 0
M  V30 25757 H 2457.66 2.98639 -0.923772 0
M  V30 25758 H 2456.88 2.18926 -3.27819 0
M  V30 25759 H 2458.17 3.20248 -3.95372 0
M  V30 25760 H 2457.57 5.40768 -1.6609 0
M  V30 25761 H 2456.13 6.10705 -2.27776 0
M  V30 25762 N 2459.56 1.44175 0.636506 0
M  V30 25763 C 2460.51 1.50627 1.74872 0
M  V30 25764 C 2461.48 0.354448 1.62274 0
M  V30 25765 O 2462.66 0.56394 1.82275 0
M  V30 25766 C 2459.8 1.45131 3.13099 0
M  V30 25767 C 2458.91 2.70646 3.36712 0
M  V30 25768 C 2458.05 2.57021 4.6488 0
M  V30 25769 C 2457.09 3.77725 4.81654 0
M  V30 25770 N 2456.22 3.62809 6.01094 0
M  V30 25771 H 2461.06 2.45655 1.68693 0
M  V30 25772 H 2458.6 1.21924 0.822983 0
M  V30 25773 H 2460.56 1.39936 3.93031 0
M  V30 25774 H 2459.19 0.536727 3.18307 0
M  V30 25775 H 2458.24 2.8605 2.50758 0
M  V30 25776 H 2459.55 3.60258 3.44987 0
M  V30 25777 H 2458.71 2.49629 5.52965 0
M  V30 25778 H 2457.45 1.64961 4.58955 0
M  V30 25779 H 2456.45 3.85508 3.92 0
M  V30 25780 H 2457.68 4.70815 4.89397 0
M  V30 25781 H 2455.62 2.73496 5.96268 0
M  V30 25782 H 2455.54 4.46034 6.10402 0
M  V30 25783 H 2456.81 3.59299 6.91755 0
M  V30 25784 N 2461.04 -0.876421 1.30983 0
M  V30 25785 C 2461.95 -2.01567 1.20033 0
M  V30 25786 C 2462.96 -1.73597 0.11841 0
M  V30 25787 O 2464.14 -1.98595 0.334984 0
M  V30 25788 C 2461.2 -3.34769 0.901696 0
M  V30 25789 C 2460.26 -3.76105 2.06986 0
M  V30 25790 C 2459.5 -5.02951 1.78538 0
M  V30 25791 O 2459.72 -5.65871 0.717396 0
M  V30 25792 O 2458.65 -5.409 2.64028 0
M  V30 25793 H 2462.48 -2.13735 2.15757 0
M  V30 25794 H 2460.07 -1.00373 1.1066 0
M  V30 25795 H 2461.95 -4.14659 0.750718 0
M  V30 25796 H 2460.62 -3.2369 -0.0255572 0
M  V30 25797 H 2459.53 -2.96883 2.27621 0
M  V30 25798 H 2460.86 -3.91801 2.97914 0
M  V30 25799 N 2462.51 -1.13839 -1.08989 0
M  V30 25800 C 2463.44 -0.842545 -2.17769 0
M  V30 25801 C 2464.43 0.199981 -1.6892 0
M  V30 25802 O 2465.61 0.0579389 -1.94114 0
M  V30 25803 C 2462.74 -0.312705 -3.45889 0
M  V30 25804 C 2461.69 -1.28999 -4.08097 0
M  V30 25805 C 2461.02 -0.619716 -5.31097 0
M  V30 25806 C 2462.32 -2.65013 -4.50073 0
M  V30 25807 H 2464.01 -1.75217 -2.42774 0
M  V30 25808 H 2461.56 -0.843895 -1.16681 0
M  V30 25809 H 2463.51 -0.0933784 -4.21297 0
M  V30 25810 H 2462.24 0.632326 -3.2042 0
M  V30 25811 H 2460.9 -1.49539 -3.34714 0
M  V30 25812 H 2460.54 0.330931 -5.0191 0
M  V30 25813 H 2460.24 -1.27177 -5.73672 0
M  V30 25814 H 2461.77 -0.409776 -6.09223 0
M  V30 25815 H 2463.18 -2.48416 -5.16684 0
M  V30 25816 H 2461.58 -3.26436 -5.03547 0
M  V30 25817 H 2462.65 -3.22338 -3.62252 0
M  V30 25818 N 2463.99 1.27046 -0.932584 0
M  V30 25819 C 2464.96 2.24935 -0.440104 0
M  V30 25820 C 2465.96 1.54547 0.444044 0
M  V30 25821 O 2467.15 1.72477 0.244434 0
M  V30 25822 C 2464.28 3.38922 0.36672 0
M  V30 25823 H 2465.47 2.70016 -1.30505 0
M  V30 25824 H 2463.02 1.39052 -0.713732 0
M  V30 25825 H 2463.76 2.9923 1.25028 0
M  V30 25826 H 2463.54 3.91188 -0.267272 0
M  V30 25827 H 2465.03 4.11666 0.701495 0
M  V30 25828 N 2465.47 0.698636 1.41269 0
M  V30 25829 C 2466.88 0.305321 1.84187 0
M  V30 25830 C 2467.23 -1.15705 1.58451 0
M  V30 25831 O 2466.36 -1.88855 1.05655 0
M  V30 25832 C 2466.95 0.547373 3.34349 0
M  V30 25833 C 2465.51 0.207944 3.75825 0
M  V30 25834 C 2464.66 0.828145 2.64645 0
M  V30 25835 H 2467.61 0.899063 1.30777 0
M  V30 25836 H 2467.63 -0.192931 3.80011 0
M  V30 25837 H 2467.14 1.61178 3.53048 0
M  V30 25838 H 2465.24 -0.852079 3.62726 0
M  V30 25839 H 2465.36 0.665105 4.74461 0
M  V30 25840 H 2463.72 0.257503 2.53395 0
M  V30 25841 H 2464.5 1.89648 2.86161 0
M  V30 25842 N 2466.95 -1.51228 0.443603 0
M  V30 25843 C 2467.91 -2.26464 -0.353092 0
M  V30 25844 C 2468.91 -1.30151 -0.944315 0
M  V30 25845 O 2470.1 -1.53811 -0.817786 0
M  V30 25846 C 2467.23 -3.06117 -1.50018 0
M  V30 25847 H 2468.43 -2.98331 0.306352 0
M  V30 25848 H 2465.98 -1.55054 0.196929 0
M  V30 25849 H 2466.71 -2.38681 -2.19549 0
M  V30 25850 H 2466.5 -3.76866 -1.08235 0
M  V30 25851 H 2467.99 -3.6309 -2.06289 0
M  V30 25852 N 2468.43 -0.175182 -1.56623 0
M  V30 25853 C 2469.67 0.462941 -1.98062 0
M  V30 25854 C 2470.03 1.60599 -1.05951 0
M  V30 25855 O 2469.32 1.91339 -0.0999364 0
M  V30 25856 C 2469.51 0.989803 -3.43421 0
M  V30 25857 C 2469.34 -0.100662 -4.49587 0
M  V30 25858 C 2468.11 -0.551627 -5.0228 0
M  V30 25859 C 2470.31 -0.902458 -5.0632 0
M  V30 25860 N 2468.29 -1.62199 -5.92085 0
M  V30 25861 C 2469.66 -1.82266 -5.92604 0
M  V30 25862 C 2471.72 -0.947105 -4.88809 0
M  V30 25863 C 2470.42 -2.78376 -6.63249 0
M  V30 25864 C 2472.45 -1.89616 -5.60178 0
M  V30 25865 C 2471.81 -2.80384 -6.46192 0
M  V30 25866 H 2467.91 0.137395 -0.769835 0
M  V30 25867 H 2470.49 -0.27629 -1.9273 0
M  V30 25868 H 2468.66 1.69854 -3.49291 0
M  V30 25869 H 2470.4 1.59688 -3.71863 0
M  V30 25870 H 2467.15 -0.148621 -4.73367 0
M  V30 25871 H 2467.58 -2.15778 -6.41692 0
M  V30 25872 H 2472.22 -0.259378 -4.22004 0
M  V30 25873 H 2469.94 -3.48135 -7.29265 0
M  V30 25874 H 2473.52 -1.93686 -5.48614 0
M  V30 25875 H 2472.4 -3.52624 -7.00447 0
M  V30 25876 N 2469.91 1.57292 0.0985263 0
M  V30 25877 C 2470.82 2.05139 1.13821 0
M  V30 25878 C 2471.83 0.975629 1.44075 0
M  V30 25879 O 2473.01 1.28856 1.54784 0
M  V30 25880 C 2470.07 2.46338 2.43964 0
M  V30 25881 C 2469.13 3.68091 2.20924 0
M  V30 25882 C 2468.37 4.07316 3.44862 0
M  V30 25883 O 2468.59 3.46667 4.52966 0
M  V30 25884 O 2467.52 5.00291 3.34652 0
M  V30 25885 H 2471.35 2.9399 0.761829 0
M  V30 25886 H 2468.93 1.46132 0.310792 0
M  V30 25887 H 2470.82 2.73479 3.20605 0
M  V30 25888 H 2469.49 1.60626 2.81035 0
M  V30 25889 H 2468.4 3.46071 1.42075 0
M  V30 25890 H 2469.73 4.54572 1.88747 0
M  V30 25891 N 2471.38 -0.369261 1.53213 0
M  V30 25892 C 2472.66 -1.12773 1.59817 0
M  V30 25893 C 2473.04 -2.07209 0.403438 0
M  V30 25894 O 2472.39 -2.203 -0.606629 0
M  V30 25895 C 2472.6 -1.87008 2.94668 0
M  V30 25896 C 2473.95 -2.41671 3.49113 0
M  V30 25897 O 2474.97 -1.97139 2.96673 0
M  V30 25898 O 2473.83 -3.23071 4.4078 0
M  V30 25899 H 2470.92 -0.517114 0.645386 0
M  V30 25900 H 2473.47 -0.372821 1.65554 0
M  V30 25901 H 2472.24 -1.18065 3.73064 0
M  V30 25902 H 2471.86 -2.69416 2.92405 0
M  V30 25903 N 2472.86 -1.4451 -0.628851 0
M  V30 25904 C 2474.09 -1.509 -1.41552 0
M  V30 25905 C 2474.5 -0.134597 -1.8832 0
M  V30 25906 O 2473.86 0.859936 -1.6097 0
M  V30 25907 C 2473.91 -2.47561 -2.63431 0
M  V30 25908 O 2473.63 -3.79658 -2.18612 0
M  V30 25909 C 2475.13 -2.63438 -3.56533 0
M  V30 25910 H 2472.35 -0.511717 -0.434035 0
M  V30 25911 H 2474.9 -1.89496 -0.768861 0
M  V30 25912 H 2473.05 -2.12094 -3.24183 0
M  V30 25913 H 2473.47 -4.31866 -2.97644 0
M  V30 25914 H 2474.94 -3.35095 -4.38651 0
M  V30 25915 H 2475.42 -1.68745 -4.0549 0
M  V30 25916 H 2476.02 -2.99815 -3.01647 0
M  V30 25917 N 2474.34 0.869463 -1.31446 0
M  V30 25918 C 2475.56 1.66056 -1.24259 0
M  V30 25919 C 2475.99 1.87149 0.188895 0
M  V30 25920 O 2475.35 1.41362 1.13519 0
M  V30 25921 C 2475.4 3.00555 -1.99246 0
M  V30 25922 O 2474.5 3.9036 -1.33014 0
M  V30 25923 H 2473.84 0.506824 -0.428982 0
M  V30 25924 H 2476.37 1.08401 -1.73523 0
M  V30 25925 H 2476.38 3.50488 -2.0886 0
M  V30 25926 H 2475.06 2.84523 -3.03347 0
M  V30 25927 H 2473.63 3.48811 -1.31854 0
M  V30 25928 N 2475.82 1.14415 1.08383 0
M  V30 25929 C 2477.23 0.923564 1.62257 0
M  V30 25930 C 2477.58 -0.537562 1.88692 0
M  V30 25931 O 2476.7 -1.40652 1.64457 0
M  V30 25932 C 2477.3 1.67008 2.94778 0
M  V30 25933 C 2475.86 1.49506 3.45434 0
M  V30 25934 C 2475.01 1.69242 2.19665 0
M  V30 25935 H 2477.96 1.29592 0.916064 0
M  V30 25936 H 2477.98 1.13341 3.63227 0
M  V30 25937 H 2477.49 2.73346 2.75506 0
M  V30 25938 H 2475.59 0.455162 3.69809 0
M  V30 25939 H 2475.7 2.26518 4.22169 0
M  V30 25940 H 2474.07 1.11808 2.28847 0
M  V30 25941 H 2474.85 2.76923 2.029 0
M  V30 25942 N 2477.3 -1.26549 0.939309 0
M  V30 25943 C 2478.21 -2.30176 0.453473 0
M  V30 25944 C 2479.22 -1.67487 -0.47162 0
M  V30 25945 O 2480.4 -1.98307 -0.351605 0
M  V30 25946 C 2477.46 -3.45606 -0.275265 0
M  V30 25947 C 2476.52 -4.23781 0.686159 0
M  V30 25948 C 2475.76 -5.33699 -0.00789613 0
M  V30 25949 O 2475.98 -5.57087 -1.22518 0
M  V30 25950 O 2474.91 -5.98161 0.669851 0
M  V30 25951 H 2478.74 -2.73792 1.31421 0
M  V30 25952 H 2476.32 -1.31713 0.705119 0
M  V30 25953 H 2478.21 -4.15781 -0.685838 0
M  V30 25954 H 2476.88 -3.04022 -1.11142 0
M  V30 25955 H 2475.79 -3.56094 1.14664 0
M  V30 25956 H 2477.12 -4.69109 1.48987 0
M  V30 25957 N 2478.77 -0.706118 -1.40896 0
M  V30 25958 C 2479.71 -0.00819805 -2.29199 0
M  V30 25959 C 2480.72 0.733556 -1.45337 0
M  V30 25960 O 2481.91 0.582507 -1.68728 0
M  V30 25961 C 2479.01 1.0126 -3.23419 0
M  V30 25962 C 2478.18 0.338311 -4.3609 0
M  V30 25963 C 2477.24 1.26317 -5.10813 0
M  V30 25964 O 2476.27 0.751552 -5.64217 0
M  V30 25965 N 2477.47 2.59491 -5.19273 0
M  V30 25966 H 2480.23 -0.766348 -2.89736 0
M  V30 25967 H 2477.79 -0.552987 -1.52163 0
M  V30 25968 H 2479.79 1.63328 -3.70278 0
M  V30 25969 H 2478.36 1.67219 -2.64115 0
M  V30 25970 H 2477.58 -0.462421 -3.91478 0
M  V30 25971 H 2478.86 -0.130121 -5.08634 0
M  V30 25972 H 2478.26 3.03564 -4.77352 0
M  V30 25973 H 2476.82 3.16727 -5.69673 0
M  V30 25974 N 2480.25 1.50991 -0.451617 0
M  V30 25975 C 2481.53 1.94854 0.170672 0
M  V30 25976 C 2481.91 1.39106 1.58786 0
M  V30 25977 O 2481.26 0.58396 2.20912 0
M  V30 25978 C 2481.47 3.48743 0.133867 0
M  V30 25979 C 2482.81 4.23297 0.332405 0
M  V30 25980 O 2483.84 3.55572 0.211341 0
M  V30 25981 O 2482.7 5.43469 0.574765 0
M  V30 25982 H 2479.79 0.817914 0.12225 0
M  V30 25983 H 2482.34 1.61836 -0.510622 0
M  V30 25984 H 2481.11 3.81815 -0.85635 0
M  V30 25985 H 2480.73 3.88244 0.857461 0
M  V30 25986 N 2481.73 0.183486 1.56528 0
M  V30 25987 C 2482.68 -0.758806 2.19875 0
M  V30 25988 C 2483.67 -1.22847 1.1664 0
M  V30 25989 O 2484.88 -1.19271 1.34812 0
M  V30 25990 H 2481.25 -0.263016 0.704504 0
M  V30 25991 H 2483.22 -0.200703 2.97724 0
M  V30 25992 C 2481.97 -1.97275 2.86318 0
M  V30 25993 H 2481.3 -1.6204 3.6549 0
M  V30 25994 H 2482.74 -2.61069 3.34094 0
M  V30 25995 C 2481.19 -2.80414 1.86734 0
M  V30 25996 O 2481.72 -3.77964 1.36037 0
M  V30 25997 N 2479.93 -2.45673 1.5522 0
M  V30 25998 H 2479.48 -1.66405 1.96639 0
M  V30 25999 H 2479.44 -3.01586 0.888441 0
M  V30 26000 N 2483.21 -1.57342 -0.0901833 0
M  V30 26001 C 2484.62 -1.53285 -0.44452 0
M  V30 26002 C 2484.82 -0.900945 -1.80237 0
M  V30 26003 O 2483.88 -0.495556 -2.47589 0
M  V30 26004 C 2485.19 -2.97994 -0.402491 0
M  V30 26005 C 2486.74 -3.09235 -0.483996 0
M  V30 26006 C 2487.22 -4.55561 -0.472064 0
M  V30 26007 N 2488.71 -4.60127 -0.532676 0
M  V30 26008 C 2489.44 -5.70801 -0.545362 0
M  V30 26009 N 2488.94 -6.90891 -0.51396 0
M  V30 26010 N 2490.73 -5.58989 -0.590542 0
M  V30 26011 H 2482.88 -1.96792 0.799156 0
M  V30 26012 H 2485.14 -0.899951 0.29798 0
M  V30 26013 H 2484.85 -3.47711 0.528167 0
M  V30 26014 H 2484.72 -3.56938 -1.21963 0
M  V30 26015 H 2487.11 -2.59503 -1.40507 0
M  V30 26016 H 2487.19 -2.53235 0.361373 0
M  V30 26017 H 2486.84 -5.05946 0.445089 0
M  V30 26018 H 2486.77 -5.09404 -1.33471 0
M  V30 26019 H 2489.26 -3.73699 -0.56194 0
M  V30 26020 H 2489.57 -7.71001 -0.527059 0
M  V30 26021 H 2487.92 -6.93334 -0.480932 0
M  V30 26022 H 2491.11 -4.64074 -0.612638 0
M  V30 26023 H 2491.28 -6.45244 -0.59696 0
M  V30 26024 N 2484.69 0.36113 -1.53407 0
M  V30 26025 C 2485.92 1.12217 -1.73467 0
M  V30 26026 C 2486.32 1.83384 -0.465519 0
M  V30 26027 O 2485.67 1.74581 0.57158 0
M  V30 26028 C 2485.73 2.19334 -2.84838 0
M  V30 26029 C 2485.39 1.67896 -4.25041 0
M  V30 26030 C 2486.39 1.14065 -5.07233 0
M  V30 26031 C 2484.08 1.73274 -4.71467 0
M  V30 26032 C 2486.07 0.662956 -6.33943 0
M  V30 26033 C 2483.76 1.25116 -5.98155 0
M  V30 26034 C 2484.75 0.717177 -6.79224 0
M  V30 26035 O 2484.44 0.242724 -8.03533 0
M  V30 26036 H 2484.17 0.341273 -0.583532 0
M  V30 26037 H 2486.73 0.424556 -2.00964 0
M  V30 26038 H 2484.96 2.92603 -2.52825 0
M  V30 26039 H 2486.65 2.80866 -2.93034 0
M  V30 26040 H 2487.41 1.09245 -4.72536 0
M  V30 26041 H 2483.29 2.13778 -4.08436 0
M  V30 26042 H 2486.84 0.24549 -6.97168 0
M  V30 26043 H 2482.73 1.29631 -6.3235 0
M  V30 26044 H 2483.5 0.361642 -8.17701 0
M  V30 26045 N 2486.16 1.44842 0.621179 0
M  V30 26046 C 2487.41 1.49359 1.3807 0
M  V30 26047 C 2487.77 0.128149 1.91973 0
M  V30 26048 O 2487.06 -0.858057 1.71312 0
M  V30 26049 C 2487.25 2.49735 2.5567 0
M  V30 26050 C 2487.08 3.95905 2.13282 0
M  V30 26051 C 2485.85 4.63995 2.00092 0
M  V30 26052 C 2488.05 4.84834 1.71581 0
M  V30 26053 N 2486.03 5.94945 1.51371 0
M  V30 26054 C 2487.4 6.05307 1.34178 0
M  V30 26055 C 2489.46 4.71813 1.59051 0
M  V30 26056 C 2488.16 7.14201 0.854959 0
M  V30 26057 C 2490.19 5.80741 1.11773 0
M  V30 26058 C 2489.55 7.00361 0.753262 0
M  V30 26059 H 2485.65 0.601548 0.499664 0
M  V30 26060 H 2488.23 1.81231 0.711577 0
M  V30 26061 H 2486.4 2.19837 3.20197 0
M  V30 26062 H 2488.13 2.44485 3.22504 0
M  V30 26063 H 2484.89 4.18951 2.20856 0
M  V30 26064 H 2485.31 6.64542 1.29281 0
M  V30 26065 H 2489.96 3.79758 1.85858 0
M  V30 26066 H 2487.67 8.06056 0.57441 0
M  V30 26067 H 2491.26 5.72696 1.02523 0
M  V30 26068 H 2490.14 7.83214 0.393045 0
M  V30 26069 N 2487.64 -0.862479 1.31905 0
M  V30 26070 C 2489.06 -1.14943 1.10726 0
M  V30 26071 C 2489.26 -2.01158 -0.117386 0
M  V30 26072 O 2488.31 -2.39339 -0.804553 0
M  V30 26073 C 2489.63 -1.83433 2.38271 0
M  V30 26074 C 2491.18 -1.96102 2.43953 0
M  V30 26075 C 2491.65 -2.68006 3.71398 0
M  V30 26076 N 2493.14 -2.75537 3.72335 0
M  V30 26077 C 2493.88 -3.31804 4.67647 0
M  V30 26078 N 2493.37 -3.88943 5.7332 0
M  V30 26079 N 2495.17 -3.29833 4.55156 0
M  V30 26080 H 2487.32 -0.288154 2.10436 0
M  V30 26081 H 2489.58 -0.190275 0.928708 0
M  V30 26082 H 2489.29 -1.27536 3.27761 0
M  V30 26083 H 2489.16 -2.83653 2.48638 0
M  V30 26084 H 2491.55 -2.51161 1.54926 0
M  V30 26085 H 2491.63 -0.949017 2.37544 0
M  V30 26086 H 2491.27 -2.13613 4.60795 0
M  V30 26087 H 2491.2 -3.69629 3.75076 0
M  V30 26088 H 2493.69 -2.34992 2.95951 0
M  V30 26089 H 2494.01 -4.30011 6.42114 0
M  V30 26090 H 2492.35 -3.87297 5.77084 0
M  V30 26091 H 2495.54 -2.84436 3.71771 0
M  V30 26092 H 2495.71 -3.73385 5.29611 0
M  V30 26093 N 2489.12 -1.14988 -1.07775 0
M  V30 26094 C 2490.37 -0.920266 -1.79932 0
M  V30 26095 C 2490.69 0.554303 -1.86956 0
M  V30 26096 O 2489.96 1.40289 -1.36733 0
M  V30 26097 H 2488.54 -0.337485 -0.666418 0
M  V30 26098 H 2491.2 -1.4497 -1.30267 0
M  V30 26099 H 2490.3 -1.32588 -2.82537 0
M  V30 26100 N 2490.6 1.26049 -0.946007 0
M  V30 26101 C 2492.01 1.45805 -0.649071 0
M  V30 26102 C 2492.21 1.85106 0.796126 0
M  V30 26103 O 2491.27 1.97573 1.57229 0
M  V30 26104 C 2492.58 2.53674 -1.61462 0
M  V30 26105 C 2494.13 2.67521 -1.62485 0
M  V30 26106 C 2494.61 3.78566 -2.57783 0
M  V30 26107 N 2496.1 3.85965 -2.56097 0
M  V30 26108 C 2496.83 4.71354 -3.26517 0
M  V30 26109 N 2496.33 5.61095 -4.06379 0
M  V30 26110 N 2498.12 4.65243 -3.15445 0
M  V30 26111 H 2490.27 0.988295 -1.88007 0
M  V30 26112 H 2492.54 0.495485 -0.808207 0
M  V30 26113 H 2492.24 2.31634 -2.64648 0
M  V30 26114 H 2492.12 3.51425 -1.37042 0
M  V30 26115 H 2494.5 2.88931 -0.600217 0
M  V30 26116 H 2494.58 1.70198 -1.90961 0
M  V30 26117 H 2494.23 3.57907 -3.60368 0
M  V30 26118 H 2494.16 4.75355 -2.26595 0
M  V30 26119 H 2496.65 3.21808 -1.98111 0
M  V30 26120 H 2496.96 6.23156 -4.57053 0
M  V30 26121 H 2495.31 5.60831 -4.10479 0
M  V30 26122 H 2498.5 3.94138 -2.52532 0
M  V30 26123 H 2498.67 5.31568 -3.70593 0
M  V30 26124 N 2492.08 0.71358 1.4052 0
M  V30 26125 C 2492.99 0.0607079 2.34521 0
M  V30 26126 C 2494 -0.746043 1.57195 0
M  V30 26127 O 2495.18 -0.67946 1.89592 0
M  V30 26128 C 2492.24 -0.851432 3.36083 0
M  V30 26129 C 2491.3 -0.0348584 4.29286 0
M  V30 26130 C 2490.54 -0.903557 5.25996 0
M  V30 26131 O 2490.76 -2.14282 5.2862 0
M  V30 26132 O 2489.69 -0.343618 6.00918 0
M  V30 26133 H 2493.52 0.836023 2.91966 0
M  V30 26134 H 2491.11 0.474045 1.4168 0
M  V30 26135 H 2492.99 -1.37397 3.98372 0
M  V30 26136 H 2491.66 -1.60593 2.81055 0
M  V30 26137 H 2490.57 0.532698 3.70288 0
M  V30 26138 H 2491.9 0.681372 4.87461 0
M  V30 26139 N 2493.55 -1.50749 0.459618 0
M  V30 26140 C 2494.83 -1.94942 -0.160336 0
M  V30 26141 C 2495.21 -1.39946 -1.58046 0
M  V30 26142 O 2494.56 -0.595668 -2.20599 0
M  V30 26143 C 2494.77 -3.48809 -0.115371 0
M  V30 26144 C 2496.12 -4.23467 -0.309952 0
M  V30 26145 O 2497.14 -3.5568 -0.192481 0
M  V30 26146 O 2496 -5.43766 -0.545935 0
M  V30 26147 H 2493.09 -0.818551 -0.11791 0
M  V30 26148 H 2495.64 -1.61562 0.519198 0
M  V30 26149 H 2494.41 -3.81355 0.876587 0
M  V30 26150 H 2494.04 -3.88693 -0.836859 0
M  V30 26151 N 2495.03 -0.191784 -1.56429 0
M  V30 26152 C 2496.28 0.448519 -1.97778 0
M  V30 26153 C 2496.61 1.61499 -1.0785 0
M  V30 26154 O 2495.89 1.94066 -0.129808 0
M  V30 26155 C 2496.17 0.911845 -3.48364 0
M  V30 26156 C 2496.02 -0.256215 -4.4907 0
M  V30 26157 C 2497.34 1.77849 -4.02564 0
M  V30 26158 H 2494.46 0.16156 -0.719074 0
M  V30 26159 H 2497.1 -0.28204 -1.87895 0
M  V30 26160 H 2495.25 1.53436 -3.56917 0
M  V30 26161 H 2496.92 -0.893812 -4.52558 0
M  V30 26162 H 2495.17 -0.90851 -4.2418 0
M  V30 26163 H 2495.84 0.110433 -5.5189 0
M  V30 26164 H 2498.31 1.25352 -3.9677 0
M  V30 26165 H 2497.19 2.07165 -5.08305 0
M  V30 26166 H 2497.45 2.73152 -3.47621 0
M  V30 26167 N 2496.51 1.57387 0.0818378 0
M  V30 26168 C 2497.47 2.0202 1.08262 0
M  V30 26169 C 2498.47 0.915687 1.32181 0
M  V30 26170 O 2499.66 1.18083 1.28071 0
M  V30 26171 C 2496.8 2.39225 2.42866 0
M  V30 26172 H 2497.99 2.9166 0.698153 0
M  V30 26173 H 2495.54 1.52835 0.327276 0
M  V30 26174 H 2496.28 1.5258 2.86164 0
M  V30 26175 H 2496.06 3.19815 2.2685 0
M  V30 26176 H 2497.55 2.74367 3.14821 0
M  V30 26177 N 2497.99 -0.35299 1.53596 0
M  V30 26178 C 2498.92 -1.4388 1.83904 0
M  V30 26179 C 2499.9 -1.55323 0.693448 0
M  V30 26180 O 2501.08 -1.69686 0.944482 0
M  V30 26181 C 2498.21 -2.81057 2.04021 0
M  V30 26182 C 2497.17 -2.84428 3.19819 0
M  V30 26183 C 2496.49 -4.244 3.25252 0
M  V30 26184 C 2497.79 -2.50814 4.58137 0
M  V30 26185 H 2499.49 -1.18765 2.74837 0
M  V30 26186 H 2497.03 -0.569894 1.32243 0
M  V30 26187 H 2498.99 -3.57055 2.23807 0
M  V30 26188 H 2497.71 -3.07586 1.0981 0
M  V30 26189 H 2496.37 -2.10882 2.99874 0
M  V30 26190 H 2496.02 -4.48025 2.28654 0
M  V30 26191 H 2495.72 -4.27569 4.03061 0
M  V30 26192 H 2497.24 -5.02254 3.47237 0
M  V30 26193 H 2498.66 -3.16526 4.78001 0
M  V30 26194 H 2497.05 -2.65281 5.38281 0
M  V30 26195 H 2498.12 -1.46026 4.6239 0
M  V30 26196 N 2499.47 -1.45169 -0.613489 0
M  V30 26197 C 2500.38 -1.55915 -1.75293 0
M  V30 26198 C 2501.39 -0.443886 -1.68243 0
M  V30 26199 O 2502.57 -0.703743 -1.88705 0
M  V30 26200 C 2499.63 -1.51725 -3.11738 0
M  V30 26201 C 2498.7 -2.74244 -3.30286 0
M  V30 26202 C 2497.93 -2.70244 -4.60221 0
M  V30 26203 O 2498.15 -1.77239 -5.42165 0
M  V30 26204 O 2497.09 -3.6136 -4.81355 0
M  V30 26205 H 2500.91 -2.52215 -1.69178 0
M  V30 26206 H 2498.5 -1.27613 -0.776864 0
M  V30 26207 H 2500.38 -1.51975 -3.93041 0
M  V30 26208 H 2499.05 -0.585753 -3.18356 0
M  V30 26209 H 2497.96 -2.79557 -2.48593 0
M  V30 26210 H 2499.29 -3.665 -3.28541 0
M  V30 26211 N 2500.95 0.855472 -1.32361 0
M  V30 26212 C 2501.88 1.97055 -1.17056 0
M  V30 26213 C 2502.89 1.62456 -0.105769 0
M  V30 26214 O 2504.08 1.74941 -0.35465 0
M  V30 26215 C 2501.18 3.30052 -0.769363 0
M  V30 26216 C 2500.35 3.92897 -1.92226 0
M  V30 26217 C 2499.41 5.04226 -1.50475 0
M  V30 26218 O 2498.44 5.24265 -2.21664 0
M  V30 26219 N 2499.64 5.79118 -0.40031 0
M  V30 26220 H 2502.4 2.10726 -2.13107 0
M  V30 26221 H 2499.97 1.03028 -1.24887 0
M  V30 26222 H 2501.96 4.01933 -0.472477 0
M  V30 26223 H 2500.53 3.1244 0.09997 0
M  V30 26224 H 2499.75 3.13813 -2.38569 0
M  V30 26225 H 2501.04 4.31619 -2.69411 0
M  V30 26226 H 2500.43 5.65373 0.19222 0
M  V30 26227 H 2498.99 6.51596 -0.163027 0
M  V30 26228 N 2502.42 1.15558 1.07164 0
M  V30 26229 C 2503.7 0.8421 1.76545 0
M  V30 26230 C 2504.08 -0.661904 2.00455 0
M  V30 26231 O 2503.43 -1.60688 1.62455 0
M  V30 26232 C 2503.64 1.65501 3.07263 0
M  V30 26233 C 2504.99 1.86241 3.81575 0
M  V30 26234 O 2506.01 1.62293 3.1708 0
M  V30 26235 O 2504.87 2.26364 4.97415 0
M  V30 26236 H 2501.96 0.309875 0.766751 0
M  V30 26237 H 2504.51 1.26147 1.13512 0
M  V30 26238 H 2503.28 2.67603 2.85489 0
M  V30 26239 H 2502.9 1.2321 3.78028 0
M  V30 26240 N 2503.9 -1.25546 0.952678 0
M  V30 26241 C 2505.13 -1.97281 0.62353 0
M  V30 26242 C 2505.54 -1.70827 -0.803957 0
M  V30 26243 O 2504.9 -0.983174 -1.53753 0
M  V30 26244 C 2504.95 -3.50868 0.870271 0
M  V30 26245 O 2504.67 -3.76408 2.24162 0
M  V30 26246 C 2506.17 -4.39834 0.553242 0
M  V30 26247 H 2503.39 -0.628898 0.233942 0
M  V30 26248 H 2505.94 -1.59766 1.27652 0
M  V30 26249 H 2504.09 -3.86501 0.26372 0
M  V30 26250 H 2504.51 -4.70878 2.31029 0
M  V30 26251 H 2505.98 -5.46512 0.776438 0
M  V30 26252 H 2506.46 -4.36204 -0.512138 0
M  V30 26253 H 2507.06 -4.09764 1.13903 0
M  V30 26254 N 2505.38 -0.721022 -1.40139 0
M  V30 26255 C 2506.61 -0.272296 -2.04798 0
M  V30 26256 C 2507.02 1.09287 -1.54444 0
M  V30 26257 O 2506.36 1.69907 -0.698372 0
M  V30 26258 C 2506.42 -0.180333 -3.59047 0
M  V30 26259 C 2506.09 -1.48167 -4.32314 0
M  V30 26260 C 2507.08 -2.42466 -4.59898 0
M  V30 26261 C 2504.77 -1.7421 -4.71122 0
M  V30 26262 C 2506.76 -3.61051 -5.25282 0
M  V30 26263 C 2504.45 -2.93075 -5.36237 0
M  V30 26264 C 2505.45 -3.86318 -5.63247 0
M  V30 26265 O 2505.14 -5.03097 -6.27015 0
M  V30 26266 H 2504.87 -0.11915 -0.665417 0
M  V30 26267 H 2507.42 -0.981464 -1.80434 0
M  V30 26268 H 2505.65 0.584822 -3.82252 0
M  V30 26269 H 2507.34 0.234547 -4.05222 0
M  V30 26270 H 2508.11 -2.23612 -4.30375 0
M  V30 26271 H 2503.99 -1.02485 -4.49464 0
M  V30 26272 H 2507.53 -4.33847 -5.46281 0
M  V30 26273 H 2503.43 -3.11836 -5.6518 0
M  V30 26274 H 2504.19 -5.03247 -6.45511 0
M  V30 26275 N 2506.86 1.50503 -0.467606 0
M  V30 26276 C 2508.1 2.03239 0.0808512 0
M  V30 26277 C 2508.46 1.34355 1.37719 0
M  V30 26278 O 2507.75 0.459226 1.86015 0
M  V30 26279 C 2507.95 3.55929 0.323932 0
M  V30 26280 C 2507.77 4.39609 -0.947292 0
M  V30 26281 C 2506.54 4.82845 -1.48959 0
M  V30 26282 C 2508.74 4.80192 -1.84174 0
M  V30 26283 N 2506.72 5.50837 -2.7102 0
M  V30 26284 C 2508.1 5.47559 -2.90825 0
M  V30 26285 C 2510.15 4.62153 -1.85254 0
M  V30 26286 C 2508.85 5.98798 -3.98539 0
M  V30 26287 C 2510.88 5.1433 -2.91923 0
M  V30 26288 C 2510.24 5.81669 -3.97292 0
M  V30 26289 H 2506.34 0.781931 -0.0103531 0
M  V30 26290 H 2508.92 1.84053 -0.635036 0
M  V30 26291 H 2507.1 3.75069 1.00886 0
M  V30 26292 H 2508.83 3.95317 0.866423 0
M  V30 26293 H 2505.58 4.62057 -1.03926 0
M  V30 26294 H 2506.01 5.89442 -3.32998 0
M  V30 26295 H 2510.65 4.09526 -1.0511 0
M  V30 26296 H 2508.37 6.50464 -4.79503 0
M  V30 26297 H 2511.95 5.02205 -2.93738 0
M  V30 26298 H 2510.83 6.21316 -4.78473 0
M  V30 26299 N 2508.34 0.200077 1.56325 0
M  V30 26300 C 2509.75 -0.155688 1.58839 0
M  V30 26301 C 2509.95 -1.60643 1.21639 0
M  V30 26302 O 2509.01 -2.34291 0.941478 0
M  V30 26303 C 2510.32 0.151176 3.0032 0
M  V30 26304 C 2511.87 0.0916834 3.12866 0
M  V30 26305 C 2512.34 0.371926 4.56487 0
M  V30 26306 N 2513.83 0.320722 4.62088 0
M  V30 26307 C 2514.57 0.511343 5.71115 0
M  V30 26308 N 2514.07 0.762582 6.8859 0
M  V30 26309 N 2515.86 0.445256 5.60334 0
M  V30 26310 H 2508.01 1.14671 1.78786 0
M  V30 26311 H 2510.27 0.458065 0.829988 0
M  V30 26312 H 2509.98 1.15726 3.32115 0
M  V30 26313 H 2509.85 -0.543921 3.73258 0
M  V30 26314 H 2512.24 -0.905016 2.8088 0
M  V30 26315 H 2512.32 0.819933 2.42303 0
M  V30 26316 H 2511.96 1.36596 4.89187 0
M  V30 26317 H 2511.89 -0.37727 5.25247 0
M  V30 26318 H 2514.39 0.133356 3.77665 0
M  V30 26319 H 2514.7 0.896711 7.6758 0
M  V30 26320 H 2513.04 0.799533 6.90386 0
M  V30 26321 H 2516.23 0.249361 4.67435 0
M  V30 26322 H 2516.41 0.597229 6.45242 0
M  V30 26323 N 2509.81 -1.57429 -0.0734901 0
M  V30 26324 C 2510.72 -2.06924 -1.10543 0
M  V30 26325 C 2511.74 -0.998427 -1.42504 0
M  V30 26326 O 2512.92 -1.31302 -1.52715 0
M  V30 26327 C 2509.98 -2.50188 -2.40014 0
M  V30 26328 C 2509.04 -3.71559 -2.1504 0
M  V30 26329 C 2508.27 -4.12751 -3.38338 0
M  V30 26330 O 2508.5 -3.5383 -4.47393 0
M  V30 26331 O 2507.43 -5.05552 -3.26651 0
M  V30 26332 H 2511.26 -2.95164 -0.714962 0
M  V30 26333 H 2508.84 -1.46608 -0.287505 0
M  V30 26334 H 2510.72 -2.78545 -3.16213 0
M  V30 26335 H 2509.4 -1.65077 -2.78444 0
M  V30 26336 H 2508.31 -3.48288 -1.36552 0
M  V30 26337 H 2509.64 -4.57517 -1.81491 0
M  V30 26338 N 2511.29 0.344839 -1.53781 0
M  V30 26339 C 2512.22 1.42903 -1.84665 0
M  V30 26340 C 2513.2 1.54953 -0.701675 0
M  V30 26341 O 2514.39 1.69182 -0.953467 0
M  V30 26342 C 2511.52 2.79971 -2.05508 0
M  V30 26343 C 2510.47 2.82728 -3.21323 0
M  V30 26344 C 2509.8 4.22669 -3.27498 0
M  V30 26345 C 2511.1 2.48381 -4.59461 0
M  V30 26346 H 2512.79 1.17306 -2.75463 0
M  V30 26347 H 2510.34 0.562872 -1.32543 0
M  V30 26348 H 2512.29 3.55863 -2.25697 0
M  V30 26349 H 2511.01 3.07 -1.1144 0
M  V30 26350 H 2509.67 2.09289 -3.00988 0
M  V30 26351 H 2509.32 4.46806 -2.31027 0
M  V30 26352 H 2509.02 4.25426 -4.05323 0
M  V30 26353 H 2510.55 5.00405 -3.49895 0
M  V30 26354 H 2511.96 3.13986 -4.79672 0
M  V30 26355 H 2510.36 2.62422 -5.3968 0
M  V30 26356 H 2511.43 1.43572 -4.63158 0
M  V30 26357 N 2512.77 1.45492 0.605781 0
M  V30 26358 C 2513.99 1.53363 1.39623 0
M  V30 26359 C 2514.42 0.167678 1.87351 0
M  V30 26360 O 2513.78 -0.848023 1.60244 0
M  V30 26361 C 2513.83 2.52385 2.57554 0
M  V30 26362 O 2512.93 2.04291 3.58244 0
M  V30 26363 H 2512.27 0.516919 0.416762 0
M  V30 26364 H 2514.8 1.90862 0.73707 0
M  V30 26365 H 2514.81 2.71249 3.04775 0
M  V30 26366 H 2513.49 3.5159 2.22165 0
M  V30 26367 H 2512.06 1.95311 3.1766 0
M  V30 26368 N 2514.25 -0.848441 1.32813 0
M  V30 26369 C 2515.49 -1.61685 1.25049 0
M  V30 26370 C 2515.85 -1.91122 -0.18343 0
M  V30 26371 O 2517.05 -2.6603 -0.384891 0
M  V30 26372 C 2515.32 -2.89772 2.09206 0
M  V30 26373 S 2516.88 -3.80511 2.18533 0
M  V30 26374 H 2513.7 -0.554497 0.445033 0
M  V30 26375 H 2516.3 -1.00426 1.67734 0
M  V30 26376 H 2515.01 -2.66103 3.12438 0
M  V30 26377 H 2514.54 -3.56044 1.67322 0
M  V30 26378 H 2516.55 -4.77781 1.33938 0
M  V30 26379 N 2515.73 -1.16125 -1.06549 0
M  V30 26380 C 2516.64 -0.8797 -2.17482 0
M  V30 26381 C 2517.65 0.147074 -1.73377 0
M  V30 26382 O 2518.83 -0.0289482 -2.01379 0
M  V30 26383 C 2515.89 -0.38189 -3.4459 0
M  V30 26384 C 2514.95 -1.47357 -4.03218 0
M  V30 26385 C 2514.19 -0.999417 -5.24259 0
M  V30 26386 O 2514.41 0.151857 -5.70198 0
M  V30 26387 O 2513.34 -1.78663 -5.74772 0
M  V30 26388 H 2517.17 -1.80728 -2.44072 0
M  V30 26389 H 2514.76 -0.941012 -1.1604 0
M  V30 26390 H 2516.64 -0.111127 -4.21253 0
M  V30 26391 H 2515.31 0.517714 -3.19533 0
M  V30 26392 H 2514.22 -1.79804 -3.28057 0
M  V30 26393 H 2515.55 -2.34838 -4.32564 0
M  V30 26394 N 2517.2 1.25039 -0.959323 0
M  V30 26395 C 2518.62 1.45109 -0.664499 0
M  V30 26396 C 2518.82 1.8594 0.776448 0
M  V30 26397 O 2517.88 1.9923 1.55125 0
M  V30 26398 C 2519.19 2.51947 -1.64144 0
M  V30 26399 C 2520.74 2.65783 -1.65314 0
M  V30 26400 C 2521.21 3.7581 -2.61784 0
M  V30 26401 N 2522.7 3.83227 -2.60176 0
M  V30 26402 C 2523.44 4.67864 -3.31498 0
M  V30 26403 N 2522.93 5.56753 -4.12308 0
M  V30 26404 N 2524.73 4.61871 -3.20362 0
M  V30 26405 H 2516.88 0.968299 -1.89044 0
M  V30 26406 H 2519.14 0.486885 -0.813417 0
M  V30 26407 H 2518.85 2.28814 -2.6709 0
M  V30 26408 H 2518.72 3.49951 -1.40762 0
M  V30 26409 H 2521.11 2.88279 -0.630829 0
M  V30 26410 H 2521.19 1.68163 -1.92756 0
M  V30 26411 H 2520.83 3.54065 -3.64144 0
M  V30 26412 H 2520.76 4.72925 -2.31624 0
M  V30 26413 H 2523.25 3.19689 -2.01513 0
M  V30 26414 H 2523.57 6.18273 -4.63636 0
M  V30 26415 H 2521.91 5.56446 -4.16404 0
M  V30 26416 H 2525.1 3.91438 -2.56698 0
M  V30 26417 H 2525.28 5.27608 -3.7621 0
M  V30 26418 N 2518.68 0.728444 1.39755 0
M  V30 26419 C 2519.63 0.0841924 2.30646 0
M  V30 26420 C 2520.6 -0.736673 1.4887 0
M  V30 26421 O 2521.78 -0.697984 1.77575 0
M  V30 26422 C 2518.92 -0.822033 3.35167 0
M  V30 26423 C 2518.04 0.0107422 4.31999 0
M  V30 26424 C 2517.17 -0.896149 5.23586 0
M  V30 26425 C 2516.21 -0.0582305 6.12072 0
M  V30 26426 N 2515.35 -0.920696 6.96037 0
M  V30 26427 H 2520.19 0.864941 2.85171 0
M  V30 26428 H 2517.73 0.438203 1.40421 0
M  V30 26429 H 2519.68 -1.36182 3.94348 0
M  V30 26430 H 2518.31 -1.56883 2.82113 0
M  V30 26431 H 2517.37 0.667875 3.74491 0
M  V30 26432 H 2518.68 0.658912 4.94429 0
M  V30 26433 H 2517.83 -1.50402 5.87762 0
M  V30 26434 H 2516.57 -1.57811 4.61462 0
M  V30 26435 H 2515.58 0.562486 5.46915 0
M  V30 26436 H 2516.8 0.620419 6.7626 0
M  V30 26437 H 2514.75 -1.58807 6.36487 0
M  V30 26438 H 2514.66 -0.328857 7.55284 0
M  V30 26439 H 2515.93 -1.51434 7.64649 0
M  V30 26440 N 2520.16 -1.50253 0.475581 0
M  V30 26441 C 2521.41 -2.0265 -0.0779717 0
M  V30 26442 C 2521.74 -1.35654 -1.38966 0
M  V30 26443 O 2521.01 -0.483724 -1.88389 0
M  V30 26444 C 2521.3 -3.59181 -0.257098 0
M  V30 26445 C 2521.15 -4.36742 1.07593 0
M  V30 26446 C 2522.47 -4.28364 -1.00957 0
M  V30 26447 H 2519.59 -0.73651 -0.0268629 0
M  V30 26448 H 2522.23 -1.79529 0.622046 0
M  V30 26449 H 2520.38 -3.79012 -0.853345 0
M  V30 26450 H 2522.05 -4.28471 1.7091 0
M  V30 26451 H 2520.3 -4.00305 1.67147 0
M  V30 26452 H 2520.97 -5.44544 0.904184 0
M  V30 26453 H 2523.44 -4.13035 -0.504141 0
M  V30 26454 H 2522.32 -5.37689 -1.10371 0
M  V30 26455 H 2522.58 -3.91843 -2.04724 0
M  V30 26456 N 2521.64 -0.208365 -1.56217 0
M  V30 26457 C 2522.88 0.420825 -1.98999 0
M  V30 26458 C 2523.24 1.58316 -1.09334 0
M  V30 26459 O 2522.53 1.91084 -0.1405 0
M  V30 26460 C 2522.73 0.916736 -3.45443 0
M  V30 26461 C 2522.56 -0.196004 -4.49273 0
M  V30 26462 C 2521.33 -0.658044 -5.00997 0
M  V30 26463 C 2523.52 -1.00965 -5.04292 0
M  V30 26464 N 2521.51 -1.74722 -5.88511 0
M  V30 26465 C 2522.88 -1.94795 -5.88604 0
M  V30 26466 C 2524.93 -1.05058 -4.8669 0
M  V30 26467 C 2523.63 -2.92382 -6.57195 0
M  V30 26468 C 2525.66 -2.01455 -5.5603 0
M  V30 26469 C 2525.02 -2.94027 -6.40099 0
M  V30 26470 H 2521.12 0.121035 -0.772577 0
M  V30 26471 H 2523.71 -0.317109 -1.921 0
M  V30 26472 H 2521.88 1.62407 -3.52815 0
M  V30 26473 H 2523.61 1.51764 -3.75166 0
M  V30 26474 H 2520.36 -0.248995 -4.72945 0
M  V30 26475 H 2520.79 -2.29341 -6.36971 0
M  V30 26476 H 2525.43 -0.348833 -4.21359 0
M  V30 26477 H 2523.15 -3.63525 -7.21717 0
M  V30 26478 H 2526.73 -2.05279 -5.44382 0
M  V30 26479 H 2525.61 -3.67403 -6.92809 0
M  V30 26480 N 2523.12 1.57465 0.0651402 0
M  V30 26481 C 2524.36 1.87574 0.76303 0
M  V30 26482 C 2524.69 0.800993 1.77241 0
M  V30 26483 O 2523.95 -0.202282 1.94652 0
M  V30 26484 C 2524.25 3.24364 1.50075 0
M  V30 26485 C 2523.91 4.46467 0.630738 0
M  V30 26486 C 2522.57 4.79609 0.390998 0
M  V30 26487 C 2524.93 5.21193 0.0278549 0
M  V30 26488 C 2522.25 5.84886 -0.460997 0
M  V30 26489 C 2524.61 6.27372 -0.811632 0
M  V30 26490 C 2523.27 6.59011 -1.06118 0
M  V30 26491 H 2522.54 0.686383 0.279212 0
M  V30 26492 H 2525.19 1.91485 0.0236389 0
M  V30 26493 H 2523.49 3.16275 2.31252 0
M  V30 26494 H 2525.19 3.44897 2.04565 0
M  V30 26495 H 2521.78 4.20531 0.827727 0
M  V30 26496 H 2525.96 4.95896 0.200175 0
M  V30 26497 H 2521.22 6.07794 -0.663014 0
M  V30 26498 H 2525.39 6.84433 -1.28549 0
M  V30 26499 H 2523.02 7.40414 -1.72313 0
M  V30 26500 N 2524.59 -0.336679 1.53962 0
M  V30 26501 C 2526.01 -0.911896 1.62915 0
M  V30 26502 C 2526.36 -1.89325 0.514828 0
M  V30 26503 O 2525.48 -2.13479 -0.354357 0
M  V30 26504 C 2526.08 -1.66071 2.95307 0
M  V30 26505 C 2524.64 -2.18483 3.06499 0
M  V30 26506 C 2523.78 -1.00609 2.58405 0
M  V30 26507 H 2526.73 -0.114621 1.58286 0
M  V30 26508 H 2526.75 -2.52405 2.84731 0
M  V30 26509 H 2526.27 -0.94621 3.76389 0
M  V30 26510 H 2524.37 -2.93088 2.30065 0
M  V30 26511 H 2524.48 -2.44384 4.12084 0
M  V30 26512 H 2522.84 -1.38149 2.13979 0
M  V30 26513 H 2523.63 -0.306119 3.41932 0
M  V30 26514 N 2526.07 -1.45812 -0.598057 0
M  V30 26515 C 2527.02 -1.51632 -1.7027 0
M  V30 26516 C 2528.01 -0.378656 -1.56381 0
M  V30 26517 O 2529.2 -0.626116 -1.65556 0
M  V30 26518 C 2526.33 -1.49498 -3.09039 0
M  V30 26519 C 2525.41 -2.68502 -3.2828 0
M  V30 26520 N 2525.8 -3.93541 -3.17741 0
M  V30 26521 C 2524.1 -2.64401 -3.59177 0
M  V30 26522 C 2524.8 -4.73016 -3.38571 0
M  V30 26523 N 2523.78 -4.0463 -3.63009 0
M  V30 26524 H 2527.58 -2.46121 -1.60629 0
M  V30 26525 H 2525.1 -1.41237 -0.801617 0
M  V30 26526 H 2527.09 -1.51754 -3.88299 0
M  V30 26527 H 2525.75 -0.560739 -3.19822 0
M  V30 26528 H 2526.76 -4.2502 -2.95937 0
M  V30 26529 H 2523.44 -1.79929 -3.76738 0
M  V30 26530 H 2524.83 -5.82006 -3.35736 0
M  V30 26531 N 2527.55 0.841385 -1.33261 0
M  V30 26532 C 2528.46 1.98314 -1.25335 0
M  V30 26533 C 2529.48 1.73222 -0.164395 0
M  V30 26534 O 2530.65 1.97637 -0.387521 0
M  V30 26535 C 2527.72 3.32261 -0.990137 0
M  V30 26536 C 2526.78 3.70485 -2.16885 0
M  V30 26537 C 2526.01 4.98041 -1.9181 0
M  V30 26538 O 2526.23 5.6377 -0.867174 0
M  V30 26539 O 2525.17 5.3371 -2.78276 0
M  V30 26540 H 2528.99 2.0794 -2.21348 0
M  V30 26541 H 2526.58 0.974038 -1.13282 0
M  V30 26542 H 2528.46 4.12523 -0.860394 0
M  V30 26543 H 2527.14 3.23644 -0.0602724 0
M  V30 26544 H 2526.04 2.90744 -2.35412 0
M  V30 26545 H 2527.38 3.83765 -3.08197 0
M  V30 26546 N 2529.03 1.16688 1.05932 0
M  V30 26547 C 2529.96 0.899986 2.15459 0
M  V30 26548 C 2530.94 -0.155124 1.69391 0
M  V30 26549 O 2532.13 -0.00645279 1.94199 0
M  V30 26550 C 2529.26 0.404301 3.44939 0
M  V30 26551 C 2528.21 1.39774 4.04533 0
M  V30 26552 C 2527.54 0.760309 5.29267 0
M  V30 26553 C 2528.84 2.76853 4.42888 0
M  V30 26554 H 2530.53 1.81592 2.38043 0
M  V30 26555 H 2528.08 0.874534 1.14402 0
M  V30 26556 H 2530.03 0.205045 4.20901 0
M  V30 26557 H 2528.75 -0.54715 3.21984 0
M  V30 26558 H 2527.41 1.58361 3.30632 0
M  V30 26559 H 2527.06 -0.197743 5.02611 0
M  V30 26560 H 2526.76 1.42342 5.70099 0
M  V30 26561 H 2528.28 0.571157 6.07923 0
M  V30 26562 H 2529.7 2.62028 5.09916 0
M  V30 26563 H 2528.09 3.39672 4.94715 0
M  V30 26564 H 2529.16 3.31829 3.53578 0
M  V30 26565 N 2530.51 -1.24529 0.96594 0
M  V30 26566 C 2531.78 -1.87888 0.54381 0
M  V30 26567 C 2532.16 -1.87023 -0.979057 0
M  V30 26568 O 2531.51 -1.34163 -1.84966 0
M  V30 26569 C 2531.72 -3.30086 1.13333 0
M  V30 26570 C 2533.07 -4.06781 1.21714 0
M  V30 26571 O 2534.09 -3.3925 1.08572 0
M  V30 26572 O 2532.95 -5.27604 1.42465 0
M  V30 26573 H 2530.05 -0.806935 0.181068 0
M  V30 26574 H 2532.59 -1.32514 1.0601 0
M  V30 26575 H 2531.37 -3.25205 2.17617 0
M  V30 26576 H 2530.99 -3.93032 0.60098 0
M  V30 26577 N 2531.99 -0.735845 -1.39367 0
M  V30 26578 C 2533.23 -0.283597 -2.001 0
M  V30 26579 C 2533.55 1.13335 -1.58682 0
M  V30 26580 O 2532.82 1.77192 -0.835454 0
M  V30 26581 H 2531.4 -0.101864 -0.740022 0
M  V30 26582 H 2534.07 -0.945992 -1.70402 0
M  V30 26583 H 2533.16 -0.332658 -3.10322 0
M  V30 26584 N 2533.46 1.49999 -0.483543 0
M  V30 26585 C 2534.4 2.26655 0.340594 0
M  V30 26586 C 2535.41 1.32485 0.946129 0
M  V30 26587 O 2536.6 1.57902 0.832425 0
M  V30 26588 C 2533.7 3.04249 1.49285 0
M  V30 26589 C 2532.87 4.25866 0.997829 0
M  V30 26590 C 2531.93 4.8565 2.02561 0
M  V30 26591 O 2530.96 5.46215 1.60119 0
M  V30 26592 N 2532.16 4.7375 3.35471 0
M  V30 26593 H 2534.92 2.98023 -0.316629 0
M  V30 26594 H 2532.48 1.58805 -0.315052 0
M  V30 26595 H 2534.48 3.4112 2.1776 0
M  V30 26596 H 2533.05 2.356 2.05454 0
M  V30 26597 H 2532.27 3.93956 0.138548 0
M  V30 26598 H 2533.55 5.04692 0.645217 0
M  V30 26599 H 2532.95 4.25612 3.72654 0
M  V30 26600 H 2531.51 5.14855 3.99709 0
M  V30 26601 N 2534.94 0.216646 1.56104 0
M  V30 26602 C 2536.19 -0.415559 1.97781 0
M  V30 26603 C 2536.51 -1.60643 1.10539 0
M  V30 26604 O 2535.78 -1.95059 0.181337 0
M  V30 26605 H 2534.36 -0.156521 0.730418 0
M  V30 26606 H 2537.02 0.308399 1.92445 0
M  V30 26607 H 2536.12 -0.745196 3.03073 0
M  V30 26608 N 2536.42 -1.57498 -0.0567885 0
M  V30 26609 C 2537.38 -2.03717 -1.05034 0
M  V30 26610 C 2538.38 -0.9366 -1.30707 0
M  V30 26611 O 2539.57 -1.20105 -1.26176 0
M  V30 26612 C 2536.7 -2.43059 -2.3903 0
M  V30 26613 H 2537.9 -2.92734 -0.651664 0
M  V30 26614 H 2535.45 -1.53337 -0.30292 0
M  V30 26615 H 2536.19 -1.57113 -2.83701 0
M  V30 26616 H 2535.97 -3.23383 -2.21733 0
M  V30 26617 H 2537.46 -2.79341 -3.10416 0
M  V30 26618 N 2537.9 0.328509 -1.54138 0
M  V30 26619 C 2539.31 0.672549 -1.44737 0
M  V30 26620 C 2539.51 1.91845 -0.61625 0
M  V30 26621 O 2538.57 2.52247 -0.113111 0
M  V30 26622 C 2539.88 0.851166 -2.88402 0
M  V30 26623 C 2541.43 0.948825 -2.98272 0
M  V30 26624 C 2541.91 1.15965 -4.43076 0
M  V30 26625 N 2543.4 1.2265 -4.46667 0
M  V30 26626 C 2544.13 1.40742 -5.55859 0
M  V30 26627 N 2543.63 1.55908 -6.75029 0
M  V30 26628 N 2545.42 1.4341 -5.43498 0
M  V30 26629 H 2537.57 -0.490458 -2.0666 0
M  V30 26630 H 2539.83 -0.157595 -0.934809 0
M  V30 26631 H 2539.54 0.00698054 -3.51699 0
M  V30 26632 H 2539.41 1.74847 -3.34228 0
M  V30 26633 H 2541.8 1.78352 -2.35106 0
M  V30 26634 H 2541.88 0.0280986 -2.55785 0
M  V30 26635 H 2541.53 0.329826 -5.06828 0
M  V30 26636 H 2541.46 2.09417 -4.83169 0
M  V30 26637 H 2543.95 1.12393 -3.60799 0
M  V30 26638 H 2544.26 1.6939 -7.54007 0
M  V30 26639 H 2542.61 1.53015 -6.77946 0
M  V30 26640 H 2545.8 1.31154 -4.49351 0
M  V30 26641 H 2545.97 1.57167 -6.28651 0
M  V30 26642 N 2539.38 1.46127 0.590316 0
M  V30 26643 C 2540.79 1.45299 1.1724 0
M  V30 26644 C 2541.14 0.189758 1.9528 0
M  V30 26645 O 2540.26 -0.707638 2.04503 0
M  V30 26646 C 2540.86 2.63244 2.1328 0
M  V30 26647 C 2539.42 2.65481 2.66828 0
M  V30 26648 C 2538.56 2.37853 1.42553 0
M  V30 26649 H 2541.51 1.54116 0.378665 0
M  V30 26650 H 2541.54 2.38328 2.96614 0
M  V30 26651 H 2541.05 3.55168 1.56453 0
M  V30 26652 H 2539.15 1.77609 3.27545 0
M  V30 26653 H 2539.26 3.65221 3.10082 0
M  V30 26654 H 2537.63 1.87756 1.72104 0
M  V30 26655 H 2538.41 3.31944 0.875683 0
M  V30 26656 N 2540.85 -0.834306 1.33705 0
M  V30 26657 C 2541.8 -1.93304 1.20903 0
M  V30 26658 C 2542.79 -1.60518 0.110811 0
M  V30 26659 O 2543.98 -1.73716 0.339361 0
M  V30 26660 C 2541.11 -3.29747 0.955076 0
M  V30 26661 C 2540.19 -3.68689 2.09594 0
M  V30 26662 N 2540.59 -3.79286 3.34627 0
M  V30 26663 C 2538.88 -3.98459 2.00365 0
M  V30 26664 C 2539.58 -4.1316 4.0948 0
M  V30 26665 N 2538.56 -4.25773 3.37962 0
M  V30 26666 H 2542.36 -1.9966 2.15669 0
M  V30 26667 H 2539.88 -1.0273 1.25779 0
M  V30 26668 H 2541.87 -4.08262 0.84428 0
M  V30 26669 H 2540.53 -3.24696 0.0159887 0
M  V30 26670 H 2541.54 -3.63075 3.6932 0
M  V30 26671 H 2538.22 -4.01594 1.14144 0
M  V30 26672 H 2539.61 -4.28659 5.17399 0
M  V30 26673 N 2542.33 -1.17248 -1.05312 0
M  V30 26674 C 2543.56 -0.983197 -1.81705 0
M  V30 26675 C 2543.97 0.471789 -1.83223 0
M  V30 26676 O 2543.31 1.33937 -1.25724 0
M  V30 26677 C 2543.37 -1.44611 -3.29132 0
M  V30 26678 C 2543.04 -2.92298 -3.51299 0
M  V30 26679 C 2544.04 -3.90241 -3.43523 0
M  V30 26680 C 2541.72 -3.30446 -3.783 0
M  V30 26681 C 2543.71 -5.2433 -3.62432 0
M  V30 26682 C 2541.4 -4.64701 -3.96858 0
M  V30 26683 C 2542.4 -5.61452 -3.88923 0
M  V30 26684 O 2542.09 -6.93279 -4.06964 0
M  V30 26685 H 2541.82 -0.348124 -0.57947 0
M  V30 26686 H 2544.37 -1.55926 -1.33702 0
M  V30 26687 H 2542.6 -0.813603 -3.78044 0
M  V30 26688 H 2544.29 -1.22269 -3.87047 0
M  V30 26689 H 2545.06 -3.62115 -3.22642 0
M  V30 26690 H 2540.94 -2.55708 -3.83581 0
M  V30 26691 H 2544.48 -5.99833 -3.56155 0
M  V30 26692 H 2540.38 -4.92533 -4.17231 0
M  V30 26693 H 2541.15 -7 -4.24196 0
M  V30 26694 N 2543.81 1.24015 -0.972531 0
M  V30 26695 C 2545.04 1.96264 -0.654837 0
M  V30 26696 C 2545.45 1.72085 0.776678 0
M  V30 26697 O 2544.81 1.00751 1.52169 0
M  V30 26698 C 2544.86 3.49439 -0.925981 0
M  V30 26699 O 2544.58 3.72794 -2.30122 0
M  V30 26700 C 2546.08 4.38898 -0.623146 0
M  V30 26701 H 2543.3 0.625096 -0.243918 0
M  V30 26702 H 2545.85 1.57715 -1.30178 0
M  V30 26703 H 2544 3.86033 -0.325176 0
M  V30 26704 H 2544.42 4.67143 -2.38491 0
M  V30 26705 H 2545.89 5.45208 -0.863285 0
M  V30 26706 H 2546.37 4.36963 0.442677 0
M  V30 26707 H 2546.97 4.079 -1.20407 0
M  V30 26708 N 2545.29 0.743226 1.38974 0
M  V30 26709 C 2546.2 0.11044 2.3434 0
M  V30 26710 C 2547.21 -0.712531 1.58742 0
M  V30 26711 O 2548.39 -0.639092 1.90991 0
M  V30 26712 C 2545.46 -0.779953 3.37813 0
M  V30 26713 C 2544.52 0.0562073 4.29263 0
M  V30 26714 C 2543.75 -0.791782 5.27794 0
M  V30 26715 O 2543.97 -2.03021 5.33046 0
M  V30 26716 O 2542.91 -0.216077 6.01512 0
M  V30 26717 H 2546.73 0.897765 2.90127 0
M  V30 26718 H 2544.32 0.503991 1.40642 0
M  V30 26719 H 2546.2 -1.28916 4.01197 0
M  V30 26720 H 2544.87 -1.54595 2.84398 0
M  V30 26721 H 2543.78 0.611121 3.69075 0
M  V30 26722 H 2545.11 0.784617 4.85906 0
M  V30 26723 N 2546.77 -1.4974 0.491491 0
M  V30 26724 C 2547.68 -2.32715 -0.296794 0
M  V30 26725 C 2548.69 -1.44015 -0.97651 0
M  V30 26726 O 2549.87 -1.77048 -0.959992 0
M  V30 26727 C 2546.93 -3.19217 -1.35283 0
M  V30 26728 C 2545.99 -4.23758 -0.687557 0
M  V30 26729 C 2545.23 -5.06126 -1.69328 0
M  V30 26730 O 2545.45 -4.89866 -2.92211 0
M  V30 26731 O 2544.38 -5.88696 -1.25384 0
M  V30 26732 H 2548.21 -3.01287 0.382101 0
M  V30 26733 H 2545.8 -1.47243 0.252979 0
M  V30 26734 H 2547.68 -3.72831 -1.96404 0
M  V30 26735 H 2546.35 -2.53351 -2.01482 0
M  V30 26736 H 2545.26 -3.74082 -0.0368502 0
M  V30 26737 H 2546.59 -4.92153 -0.0681701 0
M  V30 26738 N 2548.24 -0.224922 -1.55987 0
M  V30 26739 C 2549.66 0.130398 -1.59066 0
M  V30 26740 C 2549.86 1.58688 -1.24179 0
M  V30 26741 O 2548.92 2.32764 -0.978633 0
M  V30 26742 C 2550.23 -0.198935 -3.00041 0
M  V30 26743 C 2551.78 -0.141446 -3.1268 0
M  V30 26744 C 2552.25 -0.444502 -4.55838 0
M  V30 26745 N 2553.74 -0.394196 -4.6152 0
M  V30 26746 C 2554.48 -0.602138 -5.7023 0
M  V30 26747 N 2553.97 -0.872035 -6.8729 0
M  V30 26748 N 2555.77 -0.534344 -5.59554 0
M  V30 26749 H 2547.92 -1.17501 -1.76939 0
M  V30 26750 H 2550.18 -0.471212 -0.822596 0
M  V30 26751 H 2549.89 -1.20995 -3.30232 0
M  V30 26752 H 2549.76 0.48447 -3.74076 0
M  V30 26753 H 2552.15 0.860215 -2.82284 0
M  V30 26754 H 2552.23 -0.858377 -2.40968 0
M  V30 26755 H 2551.87 -1.44362 -4.86952 0
M  V30 26756 H 2551.8 0.29366 -5.25781 0
M  V30 26757 H 2554.29 -0.193422 -3.77405 0
M  V30 26758 H 2554.61 -1.01871 -7.66056 0
M  V30 26759 H 2552.95 -0.909266 -6.89026 0
M  V30 26760 H 2556.14 -0.323694 -4.66979 0
M  V30 26761 H 2556.32 -0.699806 -6.4421 0
M  V30 26762 N 2549.72 1.57526 0.0484352 0
M  V30 26763 C 2550.63 2.08656 1.07237 0
M  V30 26764 C 2551.65 1.02097 1.40898 0
M  V30 26765 O 2552.82 1.33715 1.50606 0
M  V30 26766 C 2549.89 2.53975 2.36004 0
M  V30 26767 C 2548.95 3.74933 2.09101 0
M  V30 26768 C 2548.18 4.18081 3.31729 0
M  V30 26769 O 2548.41 3.60903 4.41708 0
M  V30 26770 O 2547.34 5.10685 3.18567 0
M  V30 26771 H 2551.17 2.96264 0.667913 0
M  V30 26772 H 2548.75 1.47046 0.264144 0
M  V30 26773 H 2550.63 2.8354 3.11742 0
M  V30 26774 H 2549.31 1.69486 2.75783 0
M  V30 26775 H 2548.22 3.50416 1.30993 0
M  V30 26776 H 2549.55 4.60346 1.7419 0
M  V30 26777 N 2551.2 -0.32033 1.5431 0
M  V30 26778 C 2552.43 -1.08172 1.76956 0
M  V30 26779 C 2552.85 -1.8082 0.518225 0
M  V30 26780 O 2552.21 -1.73369 -0.530381 0
M  V30 26781 C 2552.26 -2.05298 2.96454 0
M  V30 26782 O 2551.36 -3.13255 2.68226 0
M  V30 26783 H 2550.7 -0.311723 0.586281 0
M  V30 26784 H 2553.23 -0.36364 2.01343 0
M  V30 26785 H 2553.24 -2.4811 3.23891 0
M  V30 26786 H 2551.92 -1.51822 3.87199 0
M  V30 26787 H 2550.49 -2.75094 2.51749 0
M  V30 26788 N 2552.68 -1.46438 -0.582558 0
M  V30 26789 C 2553.91 -1.55327 -1.36679 0
M  V30 26790 C 2554.32 -0.194442 -1.87796 0
M  V30 26791 O 2553.68 0.80829 -1.63624 0
M  V30 26792 C 2553.73 -2.55817 -2.55421 0
M  V30 26793 O 2553.45 -3.86421 -2.06423 0
M  V30 26794 C 2554.95 -2.74647 -3.47971 0
M  V30 26795 H 2552.17 -0.525266 -0.417536 0
M  V30 26796 H 2554.72 -1.91846 -0.708185 0
M  V30 26797 H 2552.87 -2.22301 -3.17272 0
M  V30 26798 H 2553.28 -4.41116 -2.83754 0
M  V30 26799 H 2554.76 -3.48881 -4.27769 0
M  V30 26800 H 2555.24 -1.8156 -3.99916 0
M  V30 26801 H 2555.84 -3.0926 -2.91956 0
M  V30 26802 N 2554.16 0.827204 -1.34146 0
M  V30 26803 C 2555.4 1.58317 -1.26261 0
M  V30 26804 C 2555.73 1.93768 0.168561 0
M  V30 26805 O 2554.99 1.59868 1.12874 0
M  V30 26806 C 2555.29 2.89581 -2.09469 0
M  V30 26807 C 2554.95 2.73441 -3.58526 0
M  V30 26808 C 2553.61 2.68747 -3.9916 0
M  V30 26809 C 2555.97 2.5742 -4.53193 0
M  V30 26810 C 2553.29 2.45947 -5.3266 0
M  V30 26811 C 2555.65 2.36153 -5.86869 0
M  V30 26812 C 2554.31 2.29868 -6.26671 0
M  V30 26813 H 2553.58 0.579324 -0.462023 0
M  V30 26814 H 2556.23 0.95745 -1.65847 0
M  V30 26815 H 2554.53 3.56422 -1.62698 0
M  V30 26816 H 2556.23 3.4715 -2.00718 0
M  V30 26817 H 2552.82 2.77933 -3.26269 0
M  V30 26818 H 2557 2.60073 -4.227 0
M  V30 26819 H 2552.26 2.39536 -5.62523 0
M  V30 26820 H 2556.43 2.22742 -6.59817 0
M  V30 26821 H 2554.06 2.11962 -7.30052 0
M  V30 26822 N 2555.63 1.17805 1.04688 0
M  V30 26823 C 2556.56 0.922788 2.14492 0
M  V30 26824 C 2557.55 -0.137149 1.69546 0
M  V30 26825 O 2558.73 0.014145 1.94195 0
M  V30 26826 C 2555.86 0.440864 3.4449 0
M  V30 26827 C 2554.81 1.44057 4.03028 0
M  V30 26828 C 2554.14 0.816403 5.28431 0
M  V30 26829 C 2555.44 2.81535 4.39927 0
M  V30 26830 H 2557.13 1.84107 2.36104 0
M  V30 26831 H 2554.68 0.886619 1.13468 0
M  V30 26832 H 2556.63 0.249676 4.2066 0
M  V30 26833 H 2555.36 -0.512968 3.22546 0
M  V30 26834 H 2554.02 1.61859 3.28934 0
M  V30 26835 H 2553.66 -0.144423 5.02793 0
M  V30 26836 H 2553.36 1.48381 5.68557 0
M  V30 26837 H 2554.89 0.635603 6.07283 0
M  V30 26838 H 2556.3 2.67421 5.07108 0
M  V30 26839 H 2554.7 3.449 4.91084 0
M  V30 26840 H 2555.77 3.35561 3.50039 0
M  V30 26841 N 2557.11 -1.23497 0.979094 0
M  V30 26842 C 2558.39 -1.87301 0.563707 0
M  V30 26843 C 2558.77 -1.88051 -0.959166 0
M  V30 26844 O 2558.12 -1.36117 -1.83533 0
M  V30 26845 C 2558.33 -3.28865 1.16828 0
M  V30 26846 C 2559.68 -4.05467 1.26021 0
M  V30 26847 O 2560.7 -3.3808 1.12164 0
M  V30 26848 O 2559.56 -5.26063 1.48053 0
M  V30 26849 H 2556.65 -0.804969 0.189616 0
M  V30 26850 H 2559.2 -1.31382 1.07409 0
M  V30 26851 H 2557.97 -3.22879 2.21054 0
M  V30 26852 H 2557.59 -3.92372 0.642633 0
M  V30 26853 N 2558.59 -0.750586 -1.38578 0
M  V30 26854 C 2559.5 -0.122866 -2.34278 0
M  V30 26855 C 2560.52 0.704103 -1.59118 0
M  V30 26856 O 2561.69 0.628954 -1.91327 0
M  V30 26857 C 2558.76 0.762027 -3.38222 0
M  V30 26858 C 2557.82 -0.0789714 -4.29227 0
M  V30 26859 C 2557.05 0.763781 -5.28206 0
M  V30 26860 O 2557.28 2.00192 -5.34116 0
M  V30 26861 O 2556.21 0.184174 -6.01618 0
M  V30 26862 H 2560.04 -0.913139 -2.89647 0
M  V30 26863 H 2557.62 -0.511442 -1.40373 0
M  V30 26864 H 2559.5 1.26786 -4.01875 0
M  V30 26865 H 2558.18 1.53085 -2.85214 0
M  V30 26866 H 2557.08 -0.630686 -3.68745 0
M  V30 26867 H 2558.42 -0.810375 -4.85483 0
M  V30 26868 N 2560.07 1.49477 -0.499425 0
M  V30 26869 C 2561.32 2.02049 0.0455641 0
M  V30 26870 C 2561.64 1.38141 1.3763 0
M  V30 26871 O 2560.91 0.536199 1.88419 0
M  V30 26872 H 2559.49 0.746737 0.0198285 0
M  V30 26873 H 2562.15 1.83517 -0.656307 0
M  V30 26874 H 2561.25 3.11601 0.17639 0
M  V30 26875 N 2561.55 0.233191 1.55865 0
M  V30 26876 C 2562.96 -0.272521 1.847 0
M  V30 26877 C 2563.31 -1.58615 1.1548 0
M  V30 26878 O 2562.43 -2.12116 0.428447 0
M  V30 26879 C 2563.03 -0.50124 3.35072 0
M  V30 26880 C 2561.59 -0.95124 3.64182 0
M  V30 26881 C 2560.74 -0.0207721 2.77292 0
M  V30 26882 H 2563.69 0.456101 1.52005 0
M  V30 26883 H 2563.71 -1.34571 3.55909 0
M  V30 26884 H 2563.22 0.455004 3.85424 0
M  V30 26885 H 2561.32 -1.92043 3.19296 0
M  V30 26886 H 2561.43 -0.817592 4.72072 0
M  V30 26887 H 2559.8 -0.529679 2.49131 0
M  V30 26888 H 2560.58 0.930599 3.30446 0
M  V30 26889 N 2563.03 -1.57549 -0.0400806 0
M  V30 26890 C 2564.3 -1.79897 -0.767886 0
M  V30 26891 C 2564.68 -0.828594 -1.94159 0
M  V30 26892 O 2564.03 0.131631 -2.28121 0
M  V30 26893 C 2564.24 -3.27307 -1.21124 0
M  V30 26894 C 2565.59 -3.91997 -1.63168 0
M  V30 26895 O 2566.61 -3.3139 -1.3061 0
M  V30 26896 O 2565.47 -4.98683 -2.23557 0
M  V30 26897 H 2562.57 -0.7394 -0.370428 0
M  V30 26898 H 2565.11 -1.69691 -0.0177072 0
M  V30 26899 H 2563.88 -3.89519 -0.372869 0
M  V30 26900 H 2563.51 -3.4236 -2.02177 0
M  V30 26901 N 2564.5 0.312142 -1.54478 0
M  V30 26902 C 2565.78 1.06764 -1.63893 0
M  V30 26903 C 2566.16 2.05569 -0.480064 0
M  V30 26904 O 2565.51 2.224 0.524448 0
M  V30 26905 C 2565.72 1.75943 -3.01405 0
M  V30 26906 C 2567.07 2.28548 -3.57842 0
M  V30 26907 O 2568.09 1.85992 -3.03785 0
M  V30 26908 O 2566.95 3.06489 -4.52467 0
M  V30 26909 H 2564.04 0.492804 -0.664133 0
M  V30 26910 H 2566.59 0.31112 -1.66824 0
M  V30 26911 H 2565.36 1.04138 -3.77188 0
M  V30 26912 H 2564.98 2.58378 -3.02203 0
M  V30 26913 N 2565.98 1.46745 0.574784 0
M  V30 26914 C 2566.89 1.60508 1.71098 0
M  V30 26915 C 2567.91 0.488336 1.67007 0
M  V30 26916 O 2569.08 0.753528 1.86772 0
M  V30 26917 C 2566.15 1.59937 3.07605 0
M  V30 26918 C 2565.21 2.82904 3.22899 0
M  V30 26919 C 2564.44 2.82351 4.52895 0
M  V30 26920 O 2564.67 1.91551 5.37275 0
M  V30 26921 O 2563.6 3.73995 4.71605 0
M  V30 26922 H 2567.43 2.56612 1.62432 0
M  V30 26923 H 2565.01 1.29628 0.742756 0
M  V30 26924 H 2566.89 1.62343 3.88874 0
M  V30 26925 H 2565.57 0.669954 3.16691 0
M  V30 26926 H 2564.47 2.8605 2.41094 0
M  V30 26927 H 2565.81 3.75081 3.18708 0
M  V30 26928 N 2567.46 -0.820078 1.34583 0
M  V30 26929 C 2568.39 -1.93882 1.22239 0
M  V30 26930 C 2569.4 -1.62119 0.148804 0
M  V30 26931 O 2570.59 -1.7394 0.400908 0
M  V30 26932 C 2567.69 -3.27896 0.8566 0
M  V30 26933 C 2566.87 -3.87662 2.02576 0
M  V30 26934 C 2565.93 -5.00059 1.63791 0
M  V30 26935 O 2564.95 -5.18203 2.35486 0
M  V30 26936 N 2566.15 -5.77853 0.553713 0
M  V30 26937 H 2568.92 -2.05002 2.18619 0
M  V30 26938 H 2566.48 -0.996808 1.27575 0
M  V30 26939 H 2568.47 -4.00539 0.578876 0
M  V30 26940 H 2567.04 -3.12595 -0.0170969 0
M  V30 26941 H 2566.26 -3.07377 2.46805 0
M  V30 26942 H 2567.55 -4.24325 2.8076 0
M  V30 26943 H 2566.95 -5.65684 -0.0422534 0
M  V30 26944 H 2565.5 -6.50935 0.335729 0
M  V30 26945 N 2568.94 -1.18359 -1.04062 0
M  V30 26946 C 2569.85 -0.925634 -2.15567 0
M  V30 26947 C 2570.86 0.110265 -1.7365 0
M  V30 26948 O 2572.04 -0.0716572 -2.01272 0
M  V30 26949 C 2569.1 -0.454897 -3.43703 0
M  V30 26950 C 2568.17 -1.55877 -4.00001 0
M  V30 26951 C 2567.4 -1.11039 -5.22021 0
M  V30 26952 O 2567.62 0.0308754 -5.70392 0
M  V30 26953 O 2566.56 -1.90815 -5.70853 0
M  V30 26954 H 2570.38 -1.85864 -2.40183 0
M  V30 26955 H 2567.97 -0.965414 -1.14018 0
M  V30 26956 H 2569.85 -0.200456 -4.20923 0
M  V30 26957 H 2568.52 0.449819 -3.20559 0
M  V30 26958 H 2567.43 -1.86722 -3.24169 0
M  V30 26959 H 2568.76 -2.43961 -4.27486 0
M  V30 26960 N 2570.42 1.22976 -0.98563 0
M  V30 26961 C 2571.66 1.91815 -0.658393 0
M  V30 26962 C 2571.99 1.76654 0.806661 0
M  V30 26963 O 2571.27 1.13081 1.5825 0
M  V30 26964 C 2571.55 3.44266 -1.05606 0
M  V30 26965 C 2571.41 3.68512 -2.57913 0
M  V30 26966 C 2572.72 4.35938 -0.603857 0
M  V30 26967 H 2569.84 0.696599 -0.240662 0
M  V30 26968 H 2572.49 1.44996 -1.22785 0
M  V30 26969 H 2570.64 3.84273 -0.571513 0
M  V30 26970 H 2572.31 3.37954 -3.13982 0
M  V30 26971 H 2570.55 3.13043 -3.00311 0
M  V30 26972 H 2571.22 4.7525 -2.80788 0
M  V30 26973 H 2573.7 4.03406 -1.01994 0
M  V30 26974 H 2572.57 5.41296 -0.910478 0
M  V30 26975 H 2572.83 4.39312 0.495684 0
M  V30 26976 N 2571.89 0.757924 1.38178 0
M  V30 26977 C 2573.3 0.383166 1.82726 0
M  V30 26978 C 2573.66 -1.08881 1.63216 0
M  V30 26979 O 2572.78 -1.84203 1.1357 0
M  V30 26980 C 2573.38 0.688689 3.31727 0
M  V30 26981 C 2571.93 0.367157 3.74605 0
M  V30 26982 C 2571.08 0.939645 2.60895 0
M  V30 26983 H 2574.03 0.953721 1.26846 0
M  V30 26984 H 2574.05 -0.0315823 3.80487 0
M  V30 26985 H 2573.57 1.76007 3.45895 0
M  V30 26986 H 2571.67 -0.697468 3.66014 0
M  V30 26987 H 2571.78 0.865741 4.71213 0
M  V30 26988 H 2570.14 0.364745 2.52075 0
M  V30 26989 H 2570.93 2.01615 2.7786 0
M  V30 26990 N 2573.37 -1.4921 0.507345 0
M  V30 26991 C 2574.3 -2.32082 -0.256899 0
M  V30 26992 C 2575.28 -1.40654 -0.956584 0
M  V30 26993 O 2576.47 -1.69559 -0.946759 0
M  V30 26994 C 2573.6 -3.21321 -1.31797 0
M  V30 26995 C 2572.55 -4.21593 -0.737781 0
M  V30 26996 C 2571.88 -4.9981 -1.89983 0
M  V30 26997 C 2573.18 -5.21573 0.275417 0
M  V30 26998 H 2574.87 -2.96225 0.43485 0
M  V30 26999 H 2572.42 -1.42452 0.210571 0
M  V30 27000 H 2574.37 -3.78111 -1.86038 0
M  V30 27001 H 2573.1 -2.55133 -2.03899 0
M  V30 27002 H 2571.75 -3.65957 -0.217061 0
M  V30 27003 H 2571.4 -4.30065 -2.60869 0
M  V30 27004 H 2571.1 -5.67662 -1.51767 0
M  V30 27005 H 2572.63 -5.59446 -2.44647 0
M  V30 27006 H 2574.04 -5.7302 -0.179093 0
M  V30 27007 H 2572.44 -5.97351 0.573754 0
M  V30 27008 H 2573.51 -4.70094 1.18912 0
M  V30 27009 N 2574.85 -0.241454 -1.55739 0
M  V30 27010 C 2576.27 0.11352 -1.59196 0
M  V30 27011 C 2576.47 1.57362 -1.25855 0
M  V30 27012 O 2575.52 2.31713 -1.00327 0
M  V30 27013 C 2576.84 -0.230748 -2.99813 0
M  V30 27014 C 2578.38 -0.174602 -3.12513 0
M  V30 27015 C 2578.86 -0.492825 -4.55341 0
M  V30 27016 N 2580.35 -0.443124 -4.61076 0
M  V30 27017 C 2581.08 -0.662585 -5.69559 0
M  V30 27018 N 2580.58 -0.944882 -6.86326 0
M  V30 27019 N 2582.37 -0.593662 -5.58956 0
M  V30 27020 H 2574.52 -1.19371 -1.75683 0
M  V30 27021 H 2576.79 -0.47991 -0.817552 0
M  V30 27022 H 2576.49 -1.24491 -3.2893 0
M  V30 27023 H 2576.37 0.444767 -3.74569 0
M  V30 27024 H 2578.75 0.830227 -2.83181 0
M  V30 27025 H 2578.84 -0.883887 -2.40044 0
M  V30 27026 H 2578.48 -1.49518 -4.85393 0
M  V30 27027 H 2578.41 0.237877 -5.26062 0
M  V30 27028 H 2580.9 -0.23344 -3.77178 0
M  V30 27029 H 2581.21 -1.09991 -7.64933 0
M  V30 27030 H 2579.56 -0.982296 -6.88023 0
M  V30 27031 H 2582.75 -0.373205 -4.6661 0
M  V30 27032 H 2582.92 -0.768094 -6.43432 0
M  V30 27033 N 2576.33 1.57568 0.0317248 0
M  V30 27034 C 2577.24 2.09782 1.05018 0
M  V30 27035 C 2578.25 1.03586 1.39807 0
M  V30 27036 O 2579.43 1.35305 1.4918 0
M  V30 27037 C 2576.5 2.56463 2.33297 0
M  V30 27038 C 2575.56 3.7713 2.05113 0
M  V30 27039 C 2574.79 4.21576 3.27276 0
M  V30 27040 O 2575.01 3.65567 4.37855 0
M  V30 27041 O 2573.95 5.14035 3.13132 0
M  V30 27042 H 2577.77 2.96956 0.636453 0
M  V30 27043 H 2575.36 1.47318 0.248533 0
M  V30 27044 H 2577.24 2.86831 3.08717 0
M  V30 27045 H 2575.91 1.72401 2.7397 0
M  V30 27046 H 2574.82 3.51786 1.27269 0
M  V30 27047 H 2576.15 4.62168 1.69297 0
M  V30 27048 N 2577.81 -0.303946 1.54641 0
M  V30 27049 C 2578.76 -1.37633 1.81772 0
M  V30 27050 C 2579.74 -1.4607 0.674723 0
M  V30 27051 O 2580.93 -1.50272 0.935278 0
M  V30 27052 C 2578.06 -2.74182 2.06589 0
M  V30 27053 C 2577.15 -2.6998 3.27065 0
M  V30 27054 N 2577.54 -2.35394 4.47687 0
M  V30 27055 C 2575.84 -3.01086 3.29034 0
M  V30 27056 C 2576.54 -2.40417 5.29693 0
M  V30 27057 N 2575.51 -2.77652 4.67344 0
M  V30 27058 H 2579.32 -1.09852 2.72598 0
M  V30 27059 H 2576.83 -0.512513 1.54101 0
M  V30 27060 H 2578.83 -3.515 2.24172 0
M  V30 27061 H 2577.49 -3.02877 1.17029 0
M  V30 27062 H 2578.5 -2.07899 4.7434 0
M  V30 27063 H 2575.17 -3.34695 2.49571 0
M  V30 27064 H 2576.56 -2.165 6.36064 0
M  V30 27065 N 2579.28 -1.47047 -0.566994 0
M  V30 27066 C 2580.25 -1.58362 -1.65693 0
M  V30 27067 C 2581.25 -0.459469 -1.54096 0
M  V30 27068 O 2582.44 -0.724253 -1.5843 0
M  V30 27069 C 2579.57 -1.51885 -3.05195 0
M  V30 27070 H 2580.76 -2.55512 -1.57014 0
M  V30 27071 H 2578.32 -1.35092 -0.786125 0
M  V30 27072 H 2579.05 -0.560729 -3.19416 0
M  V30 27073 H 2578.84 -2.33461 -3.15021 0
M  V30 27074 H 2580.33 -1.6292 -3.84508 0
M  V30 27075 N 2580.76 0.812929 -1.35016 0
M  V30 27076 C 2581.99 1.60118 -1.31034 0
M  V30 27077 C 2582.41 1.88458 0.113525 0
M  V30 27078 O 2581.76 1.48303 1.0636 0
M  V30 27079 C 2581.81 2.93621 -2.10877 0
M  V30 27080 O 2581.53 2.66512 -3.47711 0
M  V30 27081 C 2583.04 3.88 -2.14407 0
M  V30 27082 H 2580.26 0.497393 -0.450379 0
M  V30 27083 H 2582.8 1.01072 -1.77777 0
M  V30 27084 H 2580.95 3.49197 -1.6775 0
M  V30 27085 H 2581.37 3.51708 -3.89103 0
M  V30 27086 H 2582.84 4.78807 -2.74677 0
M  V30 27087 H 2583.32 4.24117 -1.14112 0
M  V30 27088 H 2583.93 3.3836 -2.57668 0
M  V30 27089 N 2582.24 1.18909 1.03433 0
M  V30 27090 C 2583.66 0.940134 1.28972 0
M  V30 27091 C 2583.86 -0.390656 1.97677 0
M  V30 27092 O 2582.91 -1.12348 2.26129 0
M  V30 27093 C 2584.23 2.11025 2.14217 0
M  V30 27094 C 2585.77 2.14926 2.27543 0
M  V30 27095 C 2586.25 3.31373 3.16158 0
M  V30 27096 N 2587.74 3.31274 3.23746 0
M  V30 27097 C 2588.47 4.18021 3.92487 0
M  V30 27098 N 2587.97 5.14912 4.63506 0
M  V30 27099 N 2589.76 4.05915 3.88831 0
M  V30 27100 H 2581.91 2.04539 0.572484 0
M  V30 27101 H 2584.18 0.894077 0.315168 0
M  V30 27102 H 2583.88 3.07303 1.71049 0
M  V30 27103 H 2583.76 2.07626 3.14915 0
M  V30 27104 H 2586.14 1.19222 2.69945 0
M  V30 27105 H 2586.23 2.2238 1.26415 0
M  V30 27106 H 2585.87 4.27353 2.74466 0
M  V30 27107 H 2585.8 3.21155 4.17333 0
M  V30 27108 H 2588.29 2.61134 2.73162 0
M  V30 27109 H 2588.6 5.77463 5.13573 0
M  V30 27110 H 2586.95 5.18866 4.62389 0
M  V30 27111 H 2590.14 3.29501 3.32485 0
M  V30 27112 H 2590.31 4.73734 4.42131 0
M  V30 27113 N 2583.72 -1.22452 0.992137 0
M  V30 27114 C 2584.94 -1.95738 0.685679 0
M  V30 27115 C 2585.37 -1.72805 -0.74297 0
M  V30 27116 O 2584.73 -1.00679 -1.50776 0
M  V30 27117 C 2584.77 -3.46562 0.996354 0
M  V30 27118 O 2583.88 -4.12291 0.0946236 0
M  V30 27119 H 2583.22 -0.612371 0.256705 0
M  V30 27120 H 2585.75 -1.55567 1.32891 0
M  V30 27121 H 2585.76 -3.97074 0.93788 0
M  V30 27122 H 2584.43 -3.62579 2.03739 0
M  V30 27123 H 2583.01 -3.72317 0.208516 0
M  V30 27124 N 2585.2 -0.765242 -1.37774 0
M  V30 27125 C 2586.61 -0.392851 -1.8252 0
M  V30 27126 C 2586.96 1.08014 -1.63791 0
M  V30 27127 O 2586.08 1.83599 -1.14545 0
M  V30 27128 C 2586.68 -0.706272 -3.31357 0
M  V30 27129 C 2585.24 -0.387018 -3.74405 0
M  V30 27130 C 2584.38 -0.953468 -2.60393 0
M  V30 27131 H 2587.34 -0.960435 -1.26338 0
M  V30 27132 H 2587.36 0.0114037 -3.80498 0
M  V30 27133 H 2586.87 -1.77839 -3.44956 0
M  V30 27134 H 2584.97 0.678048 -3.66379 0
M  V30 27135 H 2585.08 -0.890719 -4.70747 0
M  V30 27136 H 2583.45 -0.378108 -2.51878 0
M  V30 27137 H 2584.23 -2.03085 -2.76787 0
M  V30 27138 N 2586.67 1.48939 -0.515251 0
M  V30 27139 C 2587.92 2.03394 0.0161512 0
M  V30 27140 C 2588.28 1.38669 1.33375 0
M  V30 27141 O 2587.57 0.518173 1.8446 0
M  V30 27142 C 2587.76 3.56779 0.210532 0
M  V30 27143 C 2587.59 4.36373 -1.08667 0
M  V30 27144 C 2586.36 4.77861 -1.64245 0
M  V30 27145 C 2588.56 4.74089 -1.99358 0
M  V30 27146 N 2586.54 5.41936 -2.88408 0
M  V30 27147 C 2587.91 5.3803 -3.08098 0
M  V30 27148 C 2589.97 4.56025 -1.99864 0
M  V30 27149 C 2588.67 5.85816 -4.17388 0
M  V30 27150 C 2590.7 5.04782 -3.08138 0
M  V30 27151 C 2590.06 5.68735 -4.15596 0
M  V30 27152 H 2586.16 0.781206 -0.0352244 0
M  V30 27153 H 2588.74 1.81939 -0.693269 0
M  V30 27154 H 2586.91 3.78089 0.889022 0
M  V30 27155 H 2588.64 3.97873 0.740217 0
M  V30 27156 H 2585.4 4.58516 -1.18574 0
M  V30 27157 H 2585.82 5.78549 -3.51582 0
M  V30 27158 H 2590.47 4.05975 -1.18086 0
M  V30 27159 H 2588.18 6.34879 -4.99954 0
M  V30 27160 H 2591.77 4.92605 -3.09566 0
M  V30 27161 H 2590.65 6.05779 -4.97998 0
M  V30 27162 N 2588.15 0.249709 1.55609 0
M  V30 27163 C 2589.12 -0.635355 2.20218 0
M  V30 27164 C 2590.12 -1.10064 1.17229 0
M  V30 27165 O 2591.31 -1.0049 1.42294 0
M  V30 27166 C 2588.44 -1.87358 2.84798 0
M  V30 27167 H 2589.63 -0.0716225 2.99814 0
M  V30 27168 H 2587.18 0.000180708 1.563 0
M  V30 27169 H 2587.92 -2.47848 2.09146 0
M  V30 27170 H 2587.7 -1.54813 3.60243 0
M  V30 27171 H 2589.19 -2.50354 3.34234 0
M  V30 27172 N 2589.63 -1.57583 -0.0233682 0
M  V30 27173 C 2590.86 -1.9419 -0.728341 0
M  V30 27174 C 2591.28 -0.850148 -1.67792 0
M  V30 27175 O 2590.64 0.193678 -1.80263 0
M  V30 27176 C 2590.69 -3.2987 -1.45663 0
M  V30 27177 O 2589.79 -3.22523 -2.57008 0
M  V30 27178 H 2589.13 -0.634573 -0.195482 0
M  V30 27179 H 2591.66 -2.04587 0.0228573 0
M  V30 27180 H 2591.67 -3.64893 -1.82529 0
M  V30 27181 H 2590.35 -4.08893 -0.760242 0
M  V30 27182 H 2588.92 -2.9914 -2.22643 0
M  V30 27183 N 2591.11 0.29574 -1.548 0
M  V30 27184 C 2592.39 1.0502 -1.65016 0
M  V30 27185 C 2592.77 2.05048 -0.501841 0
M  V30 27186 O 2592.11 2.22944 0.50083 0
M  V30 27187 C 2592.32 1.72736 -3.03255 0
M  V30 27188 C 2593.67 2.24739 -3.60246 0
M  V30 27189 O 2594.7 1.8276 -3.05741 0
M  V30 27190 O 2593.56 3.01673 -4.55693 0
M  V30 27191 H 2590.65 0.485732 -0.669323 0
M  V30 27192 H 2593.2 0.293409 -1.67144 0
M  V30 27193 H 2591.97 1.00131 -3.78272 0
M  V30 27194 H 2591.59 2.55158 -3.04927 0
M  V30 27195 N 2592.59 1.47346 0.559187 0
M  V30 27196 C 2593.83 1.53869 1.31645 0
M  V30 27197 C 2594.16 0.200138 1.93468 0
M  V30 27198 O 2593.42 -0.806767 1.78297 0
M  V30 27199 C 2593.72 2.60354 2.44848 0
M  V30 27200 C 2593.38 4.03686 2.00869 0
M  V30 27201 C 2592.04 4.42704 1.88591 0
M  V30 27202 C 2594.4 4.93629 1.67271 0
M  V30 27203 C 2591.72 5.69503 1.41007 0
M  V30 27204 C 2594.08 6.20889 1.21159 0
M  V30 27205 C 2592.74 6.58791 1.07475 0
M  V30 27206 H 2592.01 0.563048 0.481724 0
M  V30 27207 H 2594.66 1.80935 0.627269 0
M  V30 27208 H 2592.96 2.27037 3.19314 0
M  V30 27209 H 2594.66 2.62624 3.03034 0
M  V30 27210 H 2591.25 3.72856 2.11367 0
M  V30 27211 H 2595.43 4.64185 1.7563 0
M  V30 27212 H 2590.69 5.9762 1.29076 0
M  V30 27213 H 2594.86 6.89996 0.942223 0
M  V30 27214 H 2592.49 7.56935 0.703813 0
M  V30 27215 N 2594.07 -0.805758 1.35445 0
M  V30 27216 C 2595.01 -1.91763 1.28434 0
M  V30 27217 C 2595.98 -1.65365 0.156131 0
M  V30 27218 O 2597.17 -1.87747 0.339969 0
M  V30 27219 C 2594.31 -3.28318 1.06306 0
M  V30 27220 C 2593.42 -3.66898 2.28057 0
M  V30 27221 C 2592.56 -4.92487 1.99072 0
M  V30 27222 C 2591.59 -5.23697 3.16872 0
M  V30 27223 N 2590.73 -6.40466 2.87658 0
M  V30 27224 H 2595.57 -1.97092 2.23515 0
M  V30 27225 H 2593.11 -0.964034 1.11107 0
M  V30 27226 H 2595.07 -4.07041 0.915084 0
M  V30 27227 H 2593.7 -3.22456 0.148878 0
M  V30 27228 H 2592.75 -2.8343 2.53716 0
M  V30 27229 H 2594.06 -3.85921 3.16016 0
M  V30 27230 H 2593.21 -5.79037 1.8111 0
M  V30 27231 H 2591.95 -4.75501 1.08399 0
M  V30 27232 H 2590.96 -4.35637 3.35411 0
M  V30 27233 H 2592.18 -5.42613 4.08348 0
M  V30 27234 H 2590.13 -6.24903 1.99579 0
M  V30 27235 H 2590.05 -6.59744 3.69153 0
M  V30 27236 H 2591.31 -7.30042 2.73238 0
M  V30 27237 N 2595.54 -1.19456 -1.02801 0
M  V30 27238 C 2596.82 -0.907044 -1.73298 0
M  V30 27239 C 2597.2 0.587051 -2.02773 0
M  V30 27240 O 2596.55 1.54548 -1.68307 0
M  V30 27241 C 2596.76 -1.7679 -3.00909 0
M  V30 27242 C 2598.11 -2.00275 -3.744 0
M  V30 27243 O 2599.13 -1.73949 -3.10838 0
M  V30 27244 O 2597.99 -2.44669 -4.88671 0
M  V30 27245 H 2595.08 -0.338119 -0.754722 0
M  V30 27246 H 2597.63 -1.30273 -1.08752 0
M  V30 27247 H 2596.4 -2.78015 -2.75361 0
M  V30 27248 H 2596.02 -1.37155 -3.73195 0
M  V30 27249 N 2597.02 1.21924 -0.998617 0
M  V30 27250 C 2598.27 1.90823 -0.677697 0
M  V30 27251 C 2598.6 1.77695 0.790874 0
M  V30 27252 O 2597.85 1.14352 1.58815 0
M  V30 27253 C 2598.15 3.42039 -1.03654 0
M  V30 27254 C 2597.82 3.7536 -2.49832 0
M  V30 27255 C 2596.48 3.84165 -2.89777 0
M  V30 27256 C 2598.83 3.91067 -3.44552 0
M  V30 27257 C 2596.16 4.06119 -4.23419 0
M  V30 27258 C 2598.51 4.14527 -4.7786 0
M  V30 27259 C 2597.17 4.21557 -5.17538 0
M  V30 27260 H 2596.44 0.698272 -0.247987 0
M  V30 27261 H 2599.09 1.44569 -1.25587 0
M  V30 27262 H 2597.4 3.89987 -0.376525 0
M  V30 27263 H 2599.09 3.93612 -0.766182 0
M  V30 27264 H 2595.68 3.69093 -2.17872 0
M  V30 27265 H 2599.87 3.83637 -3.1486 0
M  V30 27266 H 2595.12 4.09791 -4.53741 0
M  V30 27267 H 2599.3 4.25623 -5.51197 0
M  V30 27268 H 2596.92 4.38322 -6.2111 0
M  V30 27269 N 2598.5 0.772537 1.37367 0
M  V30 27270 C 2599.43 0.117542 2.28898 0
M  V30 27271 C 2600.44 -0.663379 1.48671 0
M  V30 27272 O 2601.63 -0.501341 1.71315 0
M  V30 27273 C 2598.73 -0.857135 3.27882 0
M  V30 27274 C 2597.91 -0.129861 4.37207 0
M  V30 27275 C 2596.97 -1.01802 5.16258 0
M  V30 27276 O 2595.99 -0.481501 5.6716 0
M  V30 27277 N 2597.19 -2.3442 5.31063 0
M  V30 27278 H 2599.96 0.903712 2.8575 0
M  V30 27279 H 2597.52 0.624956 1.49352 0
M  V30 27280 H 2599.51 -1.45475 3.77649 0
M  V30 27281 H 2598.08 -1.54427 2.71792 0
M  V30 27282 H 2597.3 0.648673 3.88826 0
M  V30 27283 H 2598.59 0.372648 5.07434 0
M  V30 27284 H 2597.99 -2.80444 4.91292 0
M  V30 27285 H 2596.54 -2.89187 5.84136 0
M  V30 27286 N 2599.98 -1.48664 0.523142 0
M  V30 27287 C 2600.89 -2.33292 -0.247365 0
M  V30 27288 C 2601.9 -1.46054 -0.945743 0
M  V30 27289 O 2603.08 -1.79045 -0.922221 0
M  V30 27290 C 2600.14 -3.22015 -1.28481 0
M  V30 27291 C 2599.21 -4.25121 -0.597517 0
M  V30 27292 C 2598.44 -5.09604 -1.58554 0
M  V30 27293 O 2598.66 -4.95954 -2.81754 0
M  V30 27294 O 2597.6 -5.91223 -1.12869 0
M  V30 27295 H 2601.42 -3.00408 0.445922 0
M  V30 27296 H 2599.01 -1.46673 0.284154 0
M  V30 27297 H 2600.89 -3.76914 -1.88452 0
M  V30 27298 H 2599.56 -2.57567 -1.96063 0
M  V30 27299 H 2598.47 -3.74076 0.0425064 0
M  V30 27300 H 2599.8 -4.92187 0.0362382 0
M  V30 27301 N 2601.46 -0.257958 -1.55475 0
M  V30 27302 C 2602.68 0.370453 -2.04065 0
M  V30 27303 C 2603.11 1.49946 -1.13568 0
M  V30 27304 O 2602.46 1.80827 -0.130812 0
M  V30 27305 C 2602.51 0.845176 -3.50555 0
M  V30 27306 O 2601.62 1.95388 -3.63177 0
M  V30 27307 H 2600.96 0.0792128 -0.659258 0
M  V30 27308 H 2603.49 -0.387247 -2.00902 0
M  V30 27309 H 2603.5 1.14548 -3.9159 0
M  V30 27310 H 2602.17 0.0190528 -4.15896 0
M  V30 27311 H 2600.75 1.65742 -3.34042 0
M  V30 27312 N 2602.93 1.57593 0.0150108 0
M  V30 27313 C 2604.16 1.94574 0.718033 0
M  V30 27314 C 2604.58 0.859035 1.67339 0
M  V30 27315 O 2603.94 -0.184116 1.80363 0
M  V30 27316 C 2603.99 3.30638 1.43912 0
M  V30 27317 O 2603.09 3.23881 2.55294 0
M  V30 27318 H 2602.44 0.635601 0.192114 0
M  V30 27319 H 2604.97 2.04572 -0.0337068 0
M  V30 27320 H 2604.98 3.65856 1.80591 0
M  V30 27321 H 2603.65 4.0929 0.738547 0
M  V30 27322 H 2602.23 3.00316 2.21053 0
M  V30 27323 N 2604.41 -0.287527 1.54955 0
M  V30 27324 C 2605.82 -0.859604 1.65734 0
M  V30 27325 C 2606.17 -1.87591 0.5748 0
M  V30 27326 O 2605.3 -2.14498 -0.286261 0
M  V30 27327 C 2605.89 -1.56592 3.00441 0
M  V30 27328 C 2604.45 -2.08622 3.13295 0
M  V30 27329 C 2603.6 -0.92337 2.61475 0
M  V30 27330 H 2606.55 -0.0642059 1.5857 0
M  V30 27331 H 2606.57 -2.43219 2.92617 0
M  V30 27332 H 2606.08 -0.825986 3.79208 0
M  V30 27333 H 2604.19 -2.85621 2.39273 0
M  V30 27334 H 2604.3 -2.3115 4.19651 0
M  V30 27335 H 2602.66 -1.31271 2.18266 0
M  V30 27336 H 2603.45 -0.197181 3.42733 0
M  V30 27337 N 2605.89 -1.47641 -0.551365 0
M  V30 27338 C 2606.82 -1.56631 -1.6733 0
M  V30 27339 C 2607.84 -0.452072 -1.56397 0
M  V30 27340 O 2609.02 -0.721954 -1.63248 0
M  V30 27341 C 2606.12 -1.46 -3.05839 0
M  V30 27342 C 2605.3 -2.72094 -3.42467 0
M  V30 27343 C 2604.36 -2.55217 -4.60164 0
M  V30 27344 O 2603.38 -3.29048 -4.64452 0
M  V30 27345 N 2604.58 -1.63426 -5.57021 0
M  V30 27346 H 2607.35 -2.53378 -1.60062 0
M  V30 27347 H 2604.91 -1.44094 -0.738144 0
M  V30 27348 H 2606.9 -1.32435 -3.82417 0
M  V30 27349 H 2605.47 -0.573125 -3.07301 0
M  V30 27350 H 2604.69 -3.00377 -2.55278 0
M  V30 27351 H 2605.98 -3.55792 -3.63717 0
M  V30 27352 H 2605.38 -1.02604 -5.56317 0
M  V30 27353 H 2603.94 -1.55811 -6.32903 0
M  V30 27354 N 2607.37 0.798563 -1.3587 0
M  V30 27355 C 2608.32 1.9108 -1.2945 0
M  V30 27356 C 2609.29 1.65279 -0.164899 0
M  V30 27357 O 2610.47 1.87564 -0.349921 0
M  V30 27358 C 2607.61 3.2775 -1.08046 0
M  V30 27359 C 2606.72 3.65683 -2.29999 0
M  V30 27360 C 2605.86 4.91425 -2.01681 0
M  V30 27361 C 2604.9 5.22009 -3.19645 0
M  V30 27362 N 2604.03 6.38932 -2.91051 0
M  V30 27363 H 2608.87 1.95904 -2.24557 0
M  V30 27364 H 2606.41 0.958129 -1.11617 0
M  V30 27365 H 2608.37 4.0655 -0.936657 0
M  V30 27366 H 2607 3.22373 -0.165977 0
M  V30 27367 H 2606.05 2.8208 -2.55216 0
M  V30 27368 H 2607.36 3.8424 -3.18059 0
M  V30 27369 H 2606.52 5.78069 -1.84178 0
M  V30 27370 H 2605.26 4.74919 -1.10919 0
M  V30 27371 H 2604.26 4.33852 -3.37717 0
M  V30 27372 H 2605.49 5.40439 -4.1122 0
M  V30 27373 H 2603.43 6.23836 -2.02891 0
M  V30 27374 H 2603.35 6.57777 -3.72646 0
M  V30 27375 H 2604.62 7.28582 -2.77106 0
M  V30 27376 N 2608.85 1.19999 1.02166 0
M  V30 27377 C 2610.09 1.00507 1.75336 0
M  V30 27378 C 2610.42 -0.464473 1.89388 0
M  V30 27379 O 2609.69 -1.33605 1.43271 0
M  V30 27380 H 2608.27 0.368896 0.649557 0
M  V30 27381 H 2610.93 1.51021 1.23202 0
M  V30 27382 H 2610.02 1.45917 2.75889 0
M  V30 27383 N 2610.32 -1.21392 1.00507 0
M  V30 27384 C 2611.25 -2.26034 0.585723 0
M  V30 27385 C 2612.24 -1.65486 -0.393496 0
M  V30 27386 O 2613.42 -1.92149 -0.281463 0
M  V30 27387 C 2610.55 -3.47188 -0.0883673 0
M  V30 27388 C 2609.5 -4.20253 0.810641 0
M  V30 27389 C 2608.83 -5.347 0.00295781 0
M  V30 27390 C 2610.13 -4.77638 2.11328 0
M  V30 27391 H 2611.82 -2.61365 1.46043 0
M  V30 27392 H 2609.37 -1.25636 0.70367 0
M  V30 27393 H 2611.32 -4.19561 -0.393212 0
M  V30 27394 H 2610.05 -3.10988 -0.997711 0
M  V30 27395 H 2608.71 -3.49729 1.09931 0
M  V30 27396 H 2608.35 -4.94743 -0.907678 0
M  V30 27397 H 2608.05 -5.84513 0.601547 0
M  V30 27398 H 2609.58 -6.09884 -0.295701 0
M  V30 27399 H 2610.99 -5.4189 1.87158 0
M  V30 27400 H 2609.39 -5.3784 2.66173 0
M  V30 27401 H 2610.46 -3.97015 2.784 0
M  V30 27402 N 2611.8 -0.779811 -1.36955 0
M  V30 27403 C 2612.71 -0.172532 -2.33965 0
M  V30 27404 C 2613.73 0.670193 -1.60575 0
M  V30 27405 O 2614.9 0.588229 -1.92618 0
M  V30 27406 C 2611.97 0.690113 -3.39762 0
M  V30 27407 C 2611.03 -0.169999 -4.28963 0
M  V30 27408 C 2610.26 0.651569 -5.29708 0
M  V30 27409 O 2610.49 1.88817 -5.38242 0
M  V30 27410 O 2609.42 0.0565206 -6.01873 0
M  V30 27411 H 2613.25 -0.974372 -2.87645 0
M  V30 27412 H 2610.83 -0.541102 -1.39257 0
M  V30 27413 H 2612.71 1.18233 -4.04474 0
M  V30 27414 H 2611.39 1.47 -2.88397 0
M  V30 27415 H 2610.3 -0.70876 -3.67325 0
M  V30 27416 H 2611.63 -0.91317 -4.83655 0
M  V30 27417 N 2613.28 1.48384 -0.531019 0
M  V30 27418 C 2614.53 2.028 0.00270571 0
M  V30 27419 C 2614.86 1.40718 1.33836 0
M  V30 27420 O 2614.13 0.55331 1.86464 0
M  V30 27421 C 2614.42 3.59888 0.123613 0
M  V30 27422 C 2614.27 4.32448 -1.23728 0
M  V30 27423 C 2615.59 4.31816 0.849892 0
M  V30 27424 H 2612.71 0.737 -0.000490713 0
M  V30 27425 H 2615.35 1.77096 -0.688249 0
M  V30 27426 H 2613.5 3.81918 0.71209 0
M  V30 27427 H 2615.17 4.21833 -1.86694 0
M  V30 27428 H 2613.42 3.93826 -1.81889 0
M  V30 27429 H 2614.09 5.40813 -1.10567 0
M  V30 27430 H 2616.56 4.14621 0.350499 0
M  V30 27431 H 2615.44 5.41415 0.90339 0
M  V30 27432 H 2615.7 3.99171 1.9004 0
M  V30 27433 N 2614.76 0.2662 1.55336 0
M  V30 27434 C 2615.67 -0.635418 2.25831 0
M  V30 27435 C 2616.68 -1.17747 1.28108 0
M  V30 27436 O 2617.86 -1.20965 1.61026 0
M  V30 27437 C 2614.93 -1.80706 2.95882 0
M  V30 27438 C 2613.99 -1.30257 4.09062 0
M  V30 27439 C 2613.22 -2.41838 4.75763 0
M  V30 27440 O 2613.44 -3.60999 4.41628 0
M  V30 27441 O 2612.38 -2.105 5.63891 0
M  V30 27442 H 2616.2 -0.0646159 3.03631 0
M  V30 27443 H 2613.79 0.033944 1.49361 0
M  V30 27444 H 2615.67 -2.49041 3.39936 0
M  V30 27445 H 2614.34 -2.36512 2.21006 0
M  V30 27446 H 2613.25 -0.585954 3.69483 0
M  V30 27447 H 2614.58 -0.790373 4.85813 0
M  V30 27448 N 2616.24 -1.57599 -0.0066531 0
M  V30 27449 C 2617.65 -1.55425 -0.362642 0
M  V30 27450 C 2617.85 -0.995218 -1.75207 0
M  V30 27451 O 2616.91 -0.626101 -2.44614 0
M  V30 27452 C 2618.22 -2.99709 -0.243965 0
M  V30 27453 C 2619.77 -3.11366 -0.319396 0
M  V30 27454 C 2620.24 -4.57423 -0.229918 0
M  V30 27455 N 2621.74 -4.62304 -0.288024 0
M  V30 27456 C 2622.47 -5.72889 -0.242026 0
M  V30 27457 N 2621.97 -6.92644 -0.147012 0
M  V30 27458 N 2623.76 -5.61334 -0.293404 0
M  V30 27459 H 2615.91 -1.9228 0.902347 0
M  V30 27460 H 2618.17 -0.88289 0.345266 0
M  V30 27461 H 2617.88 -3.44423 0.711739 0
M  V30 27462 H 2617.75 -3.62901 -1.02871 0
M  V30 27463 H 2620.14 -2.66586 -1.26554 0
M  V30 27464 H 2620.22 -2.50963 0.495099 0
M  V30 27465 H 2619.87 -5.02875 0.712654 0
M  V30 27466 H 2619.8 -5.15763 -1.06281 0
M  V30 27467 H 2622.29 -3.76152 -0.36306 0
M  V30 27468 H 2622.6 -7.7271 -0.117627 0
M  V30 27469 H 2620.94 -6.94909 -0.112735 0
M  V30 27470 H 2624.14 -4.66669 -0.365782 0
M  V30 27471 H 2624.31 -6.47502 -0.25409 0
M  V30 27472 N 2617.72 0.279305 -1.55105 0
M  V30 27473 C 2618.96 1.00918 -1.76599 0
M  V30 27474 C 2619.32 1.84165 -0.556863 0
M  V30 27475 O 2618.61 1.86228 0.45054 0
M  V30 27476 C 2618.8 1.92914 -3.00864 0
M  V30 27477 C 2618.63 1.1872 -4.33746 0
M  V30 27478 C 2617.4 0.905458 -4.97121 0
M  V30 27479 C 2619.6 0.580767 -5.1101 0
M  V30 27480 N 2617.58 0.136061 -6.13749 0
M  V30 27481 C 2618.95 -0.0547751 -6.19976 0
M  V30 27482 C 2621.01 0.48798 -4.95503 0
M  V30 27483 C 2619.71 -0.774153 -7.15122 0
M  V30 27484 C 2621.74 -0.217792 -5.90999 0
M  V30 27485 C 2621.1 -0.842098 -6.99348 0
M  V30 27486 H 2617.2 0.351481 -0.698559 0
M  V30 27487 H 2619.78 0.285497 -1.92595 0
M  V30 27488 H 2617.95 2.62514 -2.86253 0
M  V30 27489 H 2619.69 2.59215 -3.10789 0
M  V30 27490 H 2616.44 1.20913 -4.57905 0
M  V30 27491 H 2616.86 -0.235784 -6.76589 0
M  V30 27492 H 2621.51 0.956334 -4.11842 0
M  V30 27493 H 2619.22 -1.25421 -7.98308 0
M  V30 27494 H 2622.81 -0.289819 -5.81078 0
M  V30 27495 H 2621.69 -1.37952 -7.71971 0
M  V30 27496 N 2619.19 1.47931 0.543528 0
M  V30 27497 C 2620.12 1.6433 1.65885 0
M  V30 27498 C 2621.1 0.492412 1.62817 0
M  V30 27499 O 2622.29 0.72337 1.80225 0
M  V30 27500 C 2619.42 1.67019 3.04503 0
M  V30 27501 C 2618.37 2.81472 3.22425 0
M  V30 27502 C 2617.7 2.69241 4.61967 0
M  V30 27503 C 2619 4.22921 3.06489 0
M  V30 27504 H 2620.69 2.577 1.52417 0
M  V30 27505 H 2618.24 1.24017 0.731827 0
M  V30 27506 H 2620.19 1.77081 3.82388 0
M  V30 27507 H 2618.92 0.702176 3.18962 0
M  V30 27508 H 2617.58 2.70943 2.46953 0
M  V30 27509 H 2617.22 1.70438 4.73244 0
M  V30 27510 H 2616.92 3.46033 4.74905 0
M  V30 27511 H 2618.45 2.81251 5.41969 0
M  V30 27512 H 2619.86 4.34354 3.74178 0
M  V30 27513 H 2618.26 5.00606 3.30929 0
M  V30 27514 H 2619.33 4.4033 2.0307 0
M  V30 27515 N 2620.67 -0.791347 1.36292 0
M  V30 27516 C 2621.63 -1.88551 1.30312 0
M  V30 27517 C 2622.63 -1.59407 0.211232 0
M  V30 27518 O 2623.82 -1.67854 0.465895 0
M  V30 27519 C 2620.96 -3.25295 1.01961 0
M  V30 27520 H 2622.15 -1.95269 2.27618 0
M  V30 27521 H 2619.7 -0.988932 1.21037 0
M  V30 27522 H 2620.44 -3.2426 0.051055 0
M  V30 27523 H 2620.22 -3.47837 1.80974 0
M  V30 27524 H 2621.71 -4.05357 1.00377 0
M  V30 27525 N 2622.15 -1.2054 -1.01528 0
M  V30 27526 C 2623.06 -0.97115 -2.13555 0
M  V30 27527 C 2624.08 0.073406 -1.73845 0
M  V30 27528 O 2625.25 -0.114334 -2.01075 0
M  V30 27529 C 2622.32 -0.527699 -3.42661 0
M  V30 27530 C 2621.38 -1.64326 -3.96605 0
M  V30 27531 C 2620.61 -1.22087 -5.19548 0
M  V30 27532 O 2620.83 -0.0901201 -5.70329 0
M  V30 27533 O 2619.77 -2.02881 -5.66677 0
M  V30 27534 H 2623.59 -1.90917 -2.36187 0
M  V30 27535 H 2621.18 -0.989382 -1.11945 0
M  V30 27536 H 2623.06 -0.289695 -4.20403 0
M  V30 27537 H 2621.74 0.381723 -3.21441 0
M  V30 27538 H 2620.64 -1.93556 -3.20136 0
M  V30 27539 H 2621.98 -2.52973 -4.22215 0
M  V30 27540 N 2623.63 1.20858 -1.01149 0
M  V30 27541 C 2624.85 1.94622 -0.716732 0
M  V30 27542 C 2625.28 1.73965 0.715384 0
M  V30 27543 O 2624.64 1.03065 1.49155 0
M  V30 27544 C 2624.68 3.44933 -1.05136 0
M  V30 27545 O 2623.79 4.12089 -0.160204 0
M  V30 27546 H 2623.13 0.60821 -0.266415 0
M  V30 27547 H 2625.66 1.53433 -1.35349 0
M  V30 27548 H 2625.67 3.95532 -1.00093 0
M  V30 27549 H 2624.34 3.59291 -2.09482 0
M  V30 27550 H 2622.92 3.71938 -0.267722 0
M  V30 27551 N 2625.11 0.787064 1.3654 0
M  V30 27552 C 2626.52 0.421839 1.81872 0
M  V30 27553 C 2626.87 -1.05394 1.65489 0
M  V30 27554 O 2625.99 -1.81753 1.17451 0
M  V30 27555 C 2626.59 0.758899 3.30191 0
M  V30 27556 C 2625.15 0.446534 3.73742 0
M  V30 27557 C 2624.29 0.994773 2.58843 0
M  V30 27558 H 2627.24 0.980412 1.24794 0
M  V30 27559 H 2627.27 0.0491317 3.80468 0
M  V30 27560 H 2626.78 1.83305 3.42083 0
M  V30 27561 H 2624.88 -0.619674 3.67411 0
M  V30 27562 H 2624.99 0.965498 4.69271 0
M  V30 27563 H 2623.36 0.418132 2.51244 0
M  V30 27564 H 2624.14 2.07463 2.73521 0
M  V30 27565 N 2626.58 -1.48101 0.53888 0
M  V30 27566 C 2627.83 -2.02798 0.0080493 0
M  V30 27567 C 2628.16 -1.41426 -1.33087 0
M  V30 27568 O 2627.44 -0.563191 -1.86168 0
M  V30 27569 C 2627.72 -3.59948 -0.104526 0
M  V30 27570 C 2627.57 -4.31786 1.2602 0
M  V30 27571 C 2628.89 -4.3226 -0.826979 0
M  V30 27572 H 2626.01 -0.736987 0.0043992 0
M  V30 27573 H 2628.65 -1.76729 0.697631 0
M  V30 27574 H 2626.8 -3.8229 -0.691825 0
M  V30 27575 H 2628.48 -4.20837 1.88929 0
M  V30 27576 H 2626.72 -3.92856 1.83975 0
M  V30 27577 H 2627.39 -5.40219 1.13433 0
M  V30 27578 H 2629.87 -4.14801 -0.328505 0
M  V30 27579 H 2628.74 -5.41886 -0.874665 0
M  V30 27580 H 2629 -4.00173 -1.8792 0
M  V30 27581 N 2628.06 -0.274434 -1.55192 0
M  V30 27582 C 2629.31 0.341867 -1.99188 0
M  V30 27583 C 2629.63 1.56429 -1.16425 0
M  V30 27584 O 2628.9 1.94251 -0.253607 0
M  V30 27585 H 2627.48 0.129304 -0.735724 0
M  V30 27586 H 2630.14 -0.379611 -1.91167 0
M  V30 27587 H 2629.24 0.632199 -3.0563 0
M  V30 27588 N 2629.54 1.576 -0.00170483 0
M  V30 27589 C 2630.47 2.11565 0.988053 0
M  V30 27590 C 2631.45 1.02519 1.35735 0
M  V30 27591 O 2632.64 1.3021 1.44079 0
M  V30 27592 C 2629.77 2.62035 2.27937 0
M  V30 27593 C 2628.72 3.75622 2.05163 0
M  V30 27594 C 2628.05 4.12413 3.40323 0
M  V30 27595 C 2629.35 5.02828 1.41285 0
M  V30 27596 H 2631.04 2.94513 0.538719 0
M  V30 27597 H 2628.59 1.41676 0.257687 0
M  V30 27598 H 2630.54 2.98415 2.97533 0
M  V30 27599 H 2629.26 1.7621 2.74986 0
M  V30 27600 H 2627.92 3.39638 1.37992 0
M  V30 27601 H 2627.57 3.2361 3.85079 0
M  V30 27602 H 2627.27 4.8894 3.25901 0
M  V30 27603 H 2628.79 4.51354 4.11232 0
M  V30 27604 H 2630.21 5.36969 2.00841 0
M  V30 27605 H 2628.6 5.84171 1.37346 0
M  V30 27606 H 2629.67 4.83391 0.382278 0
M  V30 27607 N 2631.02 -0.271076 1.55251 0
M  V30 27608 C 2632.43 -0.841978 1.66636 0
M  V30 27609 C 2632.78 -1.86971 0.594664 0
M  V30 27610 O 2631.9 -2.1479 -0.263494 0
M  V30 27611 C 2632.5 -1.53396 3.02085 0
M  V30 27612 C 2631.06 -2.05287 3.1549 0
M  V30 27613 C 2630.21 -0.895585 2.6244 0
M  V30 27614 H 2633.16 -0.0473838 1.58629 0
M  V30 27615 H 2633.18 -2.40102 2.9518 0
M  V30 27616 H 2632.69 -0.785719 3.80063 0
M  V30 27617 H 2630.79 -2.83067 2.42289 0
M  V30 27618 H 2630.9 -2.26686 4.22079 0
M  V30 27619 H 2629.27 -1.28949 2.19646 0
M  V30 27620 H 2630.05 -0.160818 3.42923 0
M  V30 27621 N 2632.5 -1.48217 -0.535675 0
M  V30 27622 C 2633.91 -1.4955 -1.11767 0
M  V30 27623 C 2634.26 -0.262104 -1.94441 0
M  V30 27624 O 2633.38 0.63125 -2.06988 0
M  V30 27625 C 2633.98 -2.70978 -2.03363 0
M  V30 27626 C 2632.54 -2.75201 -2.56791 0
M  V30 27627 C 2631.68 -2.4298 -1.33627 0
M  V30 27628 H 2634.64 -1.55415 -0.321205 0
M  V30 27629 H 2634.66 -2.49172 -2.87565 0
M  V30 27630 H 2634.17 -3.6073 -1.43163 0
M  V30 27631 H 2632.27 -1.89643 -3.20728 0
M  V30 27632 H 2632.38 -3.76477 -2.96313 0
M  V30 27633 H 2630.75 -1.94015 -1.65017 0
M  V30 27634 H 2631.53 -3.34965 -0.751881 0
M  V30 27635 N 2633.97 0.784108 -1.3671 0
M  V30 27636 C 2634.88 1.92819 -1.33634 0
M  V30 27637 C 2635.9 1.72369 -0.237716 0
M  V30 27638 O 2637.08 1.95815 -0.470996 0
M  V30 27639 C 2634.14 3.27762 -1.13017 0
M  V30 27640 C 2633.2 3.60953 -2.32403 0
M  V30 27641 C 2632.44 4.89457 -2.12761 0
M  V30 27642 O 2632.66 5.59584 -1.10551 0
M  V30 27643 O 2631.59 5.21427 -3.00662 0
M  V30 27644 H 2635.42 1.98364 -2.29968 0
M  V30 27645 H 2633 0.925115 -1.17311 0
M  V30 27646 H 2634.89 4.08503 -1.03458 0
M  V30 27647 H 2633.56 3.23097 -0.197487 0
M  V30 27648 H 2632.47 2.80498 -2.47532 0
M  V30 27649 H 2633.8 3.70348 -3.24196 0
M  V30 27650 N 2635.45 1.21076 1.00888 0
M  V30 27651 C 2636.36 0.982462 2.13037 0
M  V30 27652 C 2637.38 -0.0641856 1.73882 0
M  V30 27653 O 2638.55 0.124996 2.01012 0
M  V30 27654 C 2635.62 0.545864 3.42376 0
M  V30 27655 C 2634.68 1.66427 3.95728 0
M  V30 27656 C 2633.91 1.24841 5.18893 0
M  V30 27657 O 2634.14 0.120365 5.70273 0
M  V30 27658 O 2633.07 2.05883 5.65593 0
M  V30 27659 H 2636.9 1.92167 2.35171 0
M  V30 27660 H 2634.48 0.995305 1.11418 0
M  V30 27661 H 2636.36 0.311986 4.20244 0
M  V30 27662 H 2635.04 -0.364671 3.21639 0
M  V30 27663 H 2633.95 1.95251 3.19105 0
M  V30 27664 H 2635.28 2.55209 4.20867 0
M  V30 27665 N 2636.93 -1.2032 1.01789 0
M  V30 27666 C 2637.84 -2.26826 0.598938 0
M  V30 27667 C 2638.86 -1.70147 -0.36415 0
M  V30 27668 O 2640.03 -2.00142 -0.224777 0
M  V30 27669 C 2637.1 -3.46657 -0.054916 0
M  V30 27670 C 2636.16 -4.18559 0.954279 0
M  V30 27671 C 2635.39 -5.32669 0.331533 0
M  V30 27672 O 2635.61 -5.63751 -0.868411 0
M  V30 27673 O 2634.55 -5.9269 1.0489 0
M  V30 27674 H 2638.37 -2.6488 1.48567 0
M  V30 27675 H 2635.96 -1.26963 0.787456 0
M  V30 27676 H 2637.84 -4.19301 -0.420028 0
M  V30 27677 H 2636.52 -3.10474 -0.915822 0
M  V30 27678 H 2635.42 -3.48081 1.37078 0
M  V30 27679 H 2636.76 -4.58685 1.78519 0
M  V30 27680 N 2638.41 -0.794293 -1.3612 0
M  V30 27681 C 2639.69 -0.292719 -1.93397 0
M  V30 27682 C 2640.07 1.21586 -1.72569 0
M  V30 27683 O 2639.41 2.00963 -1.08748 0
M  V30 27684 C 2639.62 -0.690674 -3.42097 0
M  V30 27685 C 2640.97 -0.673179 -4.1923 0
M  V30 27686 O 2642 -0.631451 -3.50558 0
M  V30 27687 O 2640.85 -0.720457 -5.4173 0
M  V30 27688 H 2637.95 -0.0736838 -0.823711 0
M  V30 27689 H 2640.49 -0.877165 -1.45272 0
M  V30 27690 H 2639.27 -1.73091 -3.50935 0
M  V30 27691 H 2638.89 -0.0803735 -3.97519 0
M  V30 27692 N 2639.89 1.47813 -0.546727 0
M  V30 27693 C 2640.83 2.29872 0.206814 0
M  V30 27694 C 2641.8 1.38413 0.918211 0
M  V30 27695 O 2642.99 1.67376 0.915962 0
M  V30 27696 C 2640.13 3.22153 1.2374 0
M  V30 27697 C 2639.24 4.28698 0.533141 0
M  V30 27698 C 2638.38 5.08141 1.54811 0
M  V30 27699 C 2637.42 6.06471 0.82824 0
M  V30 27700 N 2636.55 6.78911 1.78954 0
M  V30 27701 H 2641.39 2.93791 -0.499089 0
M  V30 27702 H 2638.93 1.44821 -0.257956 0
M  V30 27703 H 2640.89 3.74068 1.84739 0
M  V30 27704 H 2639.52 2.60121 1.91147 0
M  V30 27705 H 2638.57 3.79919 -0.191156 0
M  V30 27706 H 2639.88 4.9879 -0.0312863 0
M  V30 27707 H 2639.04 5.64154 2.23193 0
M  V30 27708 H 2637.77 4.37926 2.14644 0
M  V30 27709 H 2636.78 5.49645 0.130442 0
M  V30 27710 H 2638 6.78691 0.235788 0
M  V30 27711 H 2635.95 6.11434 2.37665 0
M  V30 27712 H 2635.87 7.45137 1.27699 0
M  V30 27713 H 2637.14 7.39504 2.46483 0
M  V30 27714 N 2641.36 0.28266 1.55044 0
M  V30 27715 C 2642.29 -0.595027 2.25791 0
M  V30 27716 C 2643.28 -1.15282 1.25076 0
M  V30 27717 O 2644.46 -1.18556 1.53812 0
M  V30 27718 C 2641.59 -1.77567 2.98475 0
M  V30 27719 C 2640.54 -1.34907 4.06182 0
M  V30 27720 C 2639.87 -2.61342 4.66481 0
M  V30 27721 C 2641.17 -0.49373 5.19961 0
M  V30 27722 H 2642.86 -0.00500391 2.994 0
M  V30 27723 H 2640.41 -0.00096669 1.44 0
M  V30 27724 H 2642.36 -2.39562 3.46681 0
M  V30 27725 H 2641.09 -2.39164 2.22414 0
M  V30 27726 H 2639.75 -0.752275 3.58799 0
M  V30 27727 H 2639.39 -3.21213 3.8708 0
M  V30 27728 H 2639.09 -2.33507 5.39211 0
M  V30 27729 H 2640.62 -3.24172 5.17441 0
M  V30 27730 H 2642.03 -1.01888 5.64173 0
M  V30 27731 H 2640.43 -0.309942 5.99299 0
M  V30 27732 H 2641.5 0.485678 4.82462 0
M  V30 27733 N 2642.84 -1.57597 0.0100627 0
M  V30 27734 C 2644.07 -1.95288 -0.683378 0
M  V30 27735 C 2644.49 -0.885511 -1.66746 0
M  V30 27736 O 2643.84 0.134597 -1.82003 0
M  V30 27737 C 2643.89 -3.33018 -1.40647 0
M  V30 27738 O 2643.61 -4.35659 -0.46184 0
M  V30 27739 C 2645.12 -3.85228 -2.19349 0
M  V30 27740 H 2642.34 -0.643627 -0.189696 0
M  V30 27741 H 2644.88 -2.04399 0.0641718 0
M  V30 27742 H 2643.03 -3.25184 -2.10556 0
M  V30 27743 H 2643.45 -5.15394 -0.973124 0
M  V30 27744 H 2644.92 -4.83998 -2.65425 0
M  V30 27745 H 2645.4 -3.18464 -3.02452 0
M  V30 27746 H 2646.01 -3.9627 -1.54435 0
M  V30 27747 N 2644.32 0.262839 -1.55393 0
M  V30 27748 C 2645.74 0.610556 -1.4746 0
M  V30 27749 C 2645.94 1.89059 -0.697064 0
M  V30 27750 O 2644.99 2.5154 -0.219996 0
M  V30 27751 C 2646.31 0.728079 -2.91752 0
M  V30 27752 C 2647.85 0.821463 -3.02028 0
M  V30 27753 C 2648.33 0.970681 -4.47596 0
M  V30 27754 N 2649.82 1.03595 -4.51467 0
M  V30 27755 C 2650.55 1.17039 -5.61328 0
M  V30 27756 N 2650.05 1.27138 -6.81034 0
M  V30 27757 N 2651.84 1.20229 -5.49091 0
M  V30 27758 H 2643.99 -0.577668 -2.04394 0
M  V30 27759 H 2646.26 -0.197102 -0.927284 0
M  V30 27760 H 2645.96 -0.142193 -3.51412 0
M  V30 27761 H 2645.84 1.60514 -3.41343 0
M  V30 27762 H 2648.22 1.6822 -2.42458 0
M  V30 27763 H 2648.31 -0.0804137 -2.55674 0
M  V30 27764 H 2647.95 0.114566 -5.07771 0
M  V30 27765 H 2647.88 1.88736 -4.91616 0
M  V30 27766 H 2650.37 0.969896 -3.65242 0
M  V30 27767 H 2650.68 1.37258 -7.60513 0
M  V30 27768 H 2649.03 1.24124 -6.83826 0
M  V30 27769 H 2652.22 1.11977 -4.54509 0
M  V30 27770 H 2652.39 1.30362 -6.34752 0
M  V30 27771 N 2645.8 1.48499 0.527807 0
M  V30 27772 C 2647.02 1.60549 1.31297 0
M  V30 27773 C 2647.45 0.266753 1.86199 0
M  V30 27774 O 2646.81 -0.761889 1.64514 0
M  V30 27775 C 2646.85 2.65682 2.43814 0
M  V30 27776 O 2645.96 2.22993 3.46912 0
M  V30 27777 H 2645.3 0.538284 0.388775 0
M  V30 27778 H 2647.83 1.94501 0.634862 0
M  V30 27779 H 2647.84 2.87023 2.89968 0
M  V30 27780 H 2646.51 3.62872 2.03215 0
M  V30 27781 H 2645.09 2.11875 3.06861 0
M  V30 27782 N 2647.28 -0.776847 1.37123 0
M  V30 27783 C 2648.69 -1.35282 1.28669 0
M  V30 27784 C 2649.04 -1.96082 -0.0679691 0
M  V30 27785 O 2648.16 -1.93457 -0.969709 0
M  V30 27786 C 2648.76 -2.45959 2.33001 0
M  V30 27787 C 2647.32 -2.99338 2.28197 0
M  V30 27788 C 2646.47 -1.72514 2.17105 0
M  V30 27789 H 2649.42 -0.577501 1.4782 0
M  V30 27790 H 2649.44 -3.25307 1.97372 0
M  V30 27791 H 2648.95 -2.01678 3.31584 0
M  V30 27792 H 2647.05 -3.48008 1.33121 0
M  V30 27793 H 2647.16 -3.55299 3.21403 0
M  V30 27794 H 2645.53 -1.95239 1.63565 0
M  V30 27795 H 2646.31 -1.30343 3.17594 0
M  V30 27796 N 2648.76 -1.2161 -1.00244 0
M  V30 27797 C 2650 -1.03488 -1.74059 0
M  V30 27798 C 2650.33 0.431274 -1.89658 0
M  V30 27799 O 2649.59 1.33625 -1.42979 0
M  V30 27800 C 2649.88 -1.68015 -3.15446 0
M  V30 27801 C 2649.55 -3.17879 -3.19787 0
M  V30 27802 C 2648.21 -3.58774 -3.20679 0
M  V30 27803 C 2650.56 -4.13847 -3.16828 0
M  V30 27804 C 2647.89 -4.94136 -3.16301 0
M  V30 27805 C 2650.24 -5.49174 -3.13991 0
M  V30 27806 C 2648.91 -5.89462 -3.13194 0
M  V30 27807 H 2648.18 -0.378689 -0.636927 0
M  V30 27808 H 2650.83 -1.51238 -1.17471 0
M  V30 27809 H 2649.13 -1.12564 -3.75282 0
M  V30 27810 H 2650.83 -1.51493 -3.71283 0
M  V30 27811 H 2647.42 -2.85311 -3.19837 0
M  V30 27812 H 2651.6 -3.83278 -3.15297 0
M  V30 27813 H 2646.86 -5.24595 -3.14023 0
M  V30 27814 H 2651.03 -6.2327 -3.10656 0
M  V30 27815 H 2648.66 -6.94319 -3.09556 0
M  V30 27816 N 2650.23 1.19778 -1.02425 0
M  V30 27817 C 2651.14 2.26505 -0.610958 0
M  V30 27818 C 2652.16 1.70338 0.355122 0
M  V30 27819 O 2653.34 2.00258 0.21416 0
M  V30 27820 C 2650.4 3.46681 0.0365312 0
M  V30 27821 C 2649.46 4.18047 -0.976463 0
M  V30 27822 C 2648.69 5.32486 -0.359777 0
M  V30 27823 O 2648.92 5.64203 0.838501 0
M  V30 27824 O 2647.85 5.92126 -1.08032 0
M  V30 27825 H 2651.68 2.64089 -1.49969 0
M  V30 27826 H 2649.26 1.26543 -0.794178 0
M  V30 27827 H 2651.14 4.19518 0.397786 0
M  V30 27828 H 2649.82 3.10956 0.899344 0
M  V30 27829 H 2648.73 3.47349 -1.38922 0
M  V30 27830 H 2650.06 4.57732 -1.80949 0
M  V30 27831 N 2651.71 0.801501 1.35697 0
M  V30 27832 C 2652.96 0.376014 1.98164 0
M  V30 27833 C 2653.27 -1.06125 1.64307 0
M  V30 27834 O 2654.48 -1.5896 2.201 0
M  V30 27835 C 2652.94 0.621367 3.54495 0
M  V30 27836 C 2652.54 2.07083 3.97266 0
M  V30 27837 C 2654.29 0.260985 4.23697 0
M  V30 27838 C 2652.19 2.26221 5.46423 0
M  V30 27839 H 2651.12 0.136857 0.741476 0
M  V30 27840 H 2653.78 0.984842 1.54833 0
M  V30 27841 H 2652.16 -0.0573416 3.95958 0
M  V30 27842 H 2653.33 2.78694 3.66969 0
M  V30 27843 H 2651.65 2.3906 3.40939 0
M  V30 27844 H 2654.24 0.382088 5.33333 0
M  V30 27845 H 2654.59 -0.792272 4.08691 0
M  V30 27846 H 2655.12 0.893408 3.87638 0
M  V30 27847 H 2651.86 3.29973 5.6639 0
M  V30 27848 H 2651.38 1.59129 5.78306 0
M  V30 27849 H 2653.06 2.07524 6.12815 0
M  V30 27850 N 2653.19 -1.47521 0.554558 0
M  V30 27851 C 2654.44 -2.01681 0.0273812 0
M  V30 27852 C 2654.75 -1.43461 -1.32959 0
M  V30 27853 O 2655.96 -1.89268 -1.94653 0
M  V30 27854 C 2654.41 -3.599 -0.00152731 0
M  V30 27855 C 2654.02 -4.27111 1.35204 0
M  V30 27856 C 2655.77 -4.2182 -0.476237 0
M  V30 27857 C 2653.67 -5.77329 1.28239 0
M  V30 27858 H 2652.6 -0.753972 0.00646594 0
M  V30 27859 H 2655.25 -1.69541 0.702015 0
M  V30 27860 H 2653.64 -3.88991 -0.741753 0
M  V30 27861 H 2654.81 -4.09665 2.10977 0
M  V30 27862 H 2653.12 -3.77167 1.76447 0
M  V30 27863 H 2655.72 -5.31898 -0.546706 0
M  V30 27864 H 2656.06 -3.88813 -1.48763 0
M  V30 27865 H 2656.6 -3.9725 0.20905 0
M  V30 27866 H 2653.34 -6.14951 2.2697 0
M  V30 27867 H 2652.86 -5.9712 0.566419 0
M  V30 27868 H 2654.54 -6.39484 0.983339 0
M  V30 27869 N 2654.67 -0.290879 -1.54892 0
M  V30 27870 C 2655.89 0.327084 -2.04805 0
M  V30 27871 C 2656.32 1.47504 -1.16723 0
M  V30 27872 O 2655.68 1.80509 -0.169139 0
M  V30 27873 C 2655.72 0.770627 -3.52269 0
M  V30 27874 O 2654.83 1.8764 -3.67239 0
M  V30 27875 H 2654.17 0.0652111 -0.66079 0
M  V30 27876 H 2656.7 -0.429774 -2.00035 0
M  V30 27877 H 2656.71 1.06216 -3.93932 0
M  V30 27878 H 2655.38 -0.0691691 -4.15842 0
M  V30 27879 H 2653.96 1.5862 -3.37482 0
M  V30 27880 N 2656.15 1.57589 -0.0184203 0
M  V30 27881 C 2657.56 1.79257 0.521895 0
M  V30 27882 C 2657.91 0.927666 1.72884 0
M  V30 27883 O 2657.03 0.135129 2.15978 0
M  V30 27884 C 2657.63 3.25104 0.953575 0
M  V30 27885 C 2656.19 3.47804 1.43907 0
M  V30 27886 C 2655.33 2.74418 0.398789 0
M  V30 27887 H 2658.28 1.56805 -0.244512 0
M  V30 27888 H 2658.31 3.34228 1.81857 0
M  V30 27889 H 2657.82 3.88028 0.0749441 0
M  V30 27890 H 2655.92 2.90119 2.33799 0
M  V30 27891 H 2656.03 4.56509 1.45383 0
M  V30 27892 H 2654.4 2.39579 0.86453 0
M  V30 27893 H 2655.18 3.40051 -0.471192 0
M  V30 27894 N 2657.62 -0.254594 1.5553 0
M  V30 27895 C 2659.03 -0.824256 1.6752 0
M  V30 27896 C 2659.39 -1.8633 0.614462 0
M  V30 27897 O 2658.51 -2.15057 -0.240698 0
M  V30 27898 C 2659.11 -1.50184 3.03694 0
M  V30 27899 C 2657.66 -2.01929 3.1765 0
M  V30 27900 C 2656.81 -0.8677 2.63375 0
M  V30 27901 H 2659.76 -0.0305564 1.58671 0
M  V30 27902 H 2659.78 -2.36957 2.9771 0
M  V30 27903 H 2659.3 -0.745364 3.80875 0
M  V30 27904 H 2657.4 -2.80481 2.45278 0
M  V30 27905 H 2657.51 -2.22196 4.24459 0
M  V30 27906 H 2655.87 -1.26612 2.21001 0
M  V30 27907 H 2656.66 -0.124437 3.43074 0
M  V30 27908 N 2659.1 -1.48777 -0.519925 0
M  V30 27909 C 2660.06 -1.63553 -1.60571 0
M  V30 27910 C 2661.06 -0.50826 -1.52556 0
M  V30 27911 O 2662.25 -0.77429 -1.56046 0
M  V30 27912 C 2659.39 -1.61517 -3.00208 0
M  V30 27913 H 2660.58 -2.60378 -1.48806 0
M  V30 27914 H 2658.13 -1.37524 -0.742748 0
M  V30 27915 H 2658.87 -0.662065 -3.1747 0
M  V30 27916 H 2658.65 -2.43365 -3.07435 0
M  V30 27917 H 2660.14 -1.75071 -3.79131 0
M  V30 27918 N 2660.58 0.769564 -1.37534 0
M  V30 27919 C 2661.8 1.56381 -1.36234 0
M  V30 27920 C 2662.23 1.88035 0.0495519 0
M  V30 27921 O 2661.59 1.49393 1.0272 0
M  V30 27922 C 2661.64 2.84948 -2.20991 0
M  V30 27923 O 2660.74 3.79418 -1.61604 0
M  V30 27924 H 2660.08 0.473607 -0.465395 0
M  V30 27925 H 2662.61 0.95231 -1.81086 0
M  V30 27926 H 2662.62 3.34029 -2.34283 0
M  V30 27927 H 2661.3 2.61238 -3.23617 0
M  V30 27928 H 2659.87 3.38069 -1.57365 0
M  V30 27929 N 2662.06 1.22139 0.995977 0
M  V30 27930 C 2663.47 1.04138 1.54959 0
M  V30 27931 C 2663.82 -0.396114 1.9216 0
M  V30 27932 O 2662.95 -1.28066 1.74437 0
M  V30 27933 C 2663.54 1.88413 2.81577 0
M  V30 27934 C 2662.1 1.74718 3.33393 0
M  V30 27935 C 2661.25 1.8507 2.06506 0
M  V30 27936 H 2664.2 1.3603 0.817412 0
M  V30 27937 H 2664.22 1.39972 3.53819 0
M  V30 27938 H 2663.73 2.9303 2.5447 0
M  V30 27939 H 2661.83 0.728223 3.65414 0
M  V30 27940 H 2661.94 2.57209 4.04203 0
M  V30 27941 H 2660.31 1.28476 2.19923 0
M  V30 27942 H 2661.09 2.91211 1.81799 0
M  V30 27943 N 2663.54 -1.19233 1.03059 0
M  V30 27944 C 2664.95 -1.70643 0.757479 0
M  V30 27945 C 2665.3 -1.82405 -0.722703 0
M  V30 27946 O 2664.42 -1.4964 -1.56322 0
M  V30 27947 C 2665.02 -3.09937 1.36838 0
M  V30 27948 C 2663.58 -3.586 1.14382 0
M  V30 27949 C 2662.72 -2.35419 1.46537 0
M  V30 27950 H 2665.68 -1.0405 1.1983 0
M  V30 27951 H 2665.7 -3.72705 0.76625 0
M  V30 27952 H 2665.21 -3.01344 2.44567 0
M  V30 27953 H 2663.31 -3.72503 0.0848197 0
M  V30 27954 H 2663.42 -4.42618 1.83373 0
M  V30 27955 H 2661.79 -2.38839 0.884754 0
M  V30 27956 H 2662.57 -2.29455 2.55353 0
M  V30 27957 N 2665.01 -0.808686 -1.3527 0
M  V30 27958 C 2665.92 -0.222121 -2.33546 0
M  V30 27959 C 2666.94 0.635982 -1.61961 0
M  V30 27960 O 2668.12 0.547239 -1.93823 0
M  V30 27961 C 2665.18 0.61789 -3.4115 0
M  V30 27962 C 2664.24 -0.26095 -4.28506 0
M  V30 27963 C 2663.48 0.539063 -5.30971 0
M  V30 27964 O 2663.7 1.77358 -5.42126 0
M  V30 27965 O 2662.63 -0.0711584 -6.01858 0
M  V30 27966 H 2666.46 -1.03517 -2.85514 0
M  V30 27967 H 2664.04 -0.570519 -1.38078 0
M  V30 27968 H 2665.93 1.09627 -4.0689 0
M  V30 27969 H 2664.6 1.4085 -2.9145 0
M  V30 27970 H 2663.51 -0.786516 -3.65739 0
M  V30 27971 H 2664.84 -1.01556 -4.81609 0
M  V30 27972 N 2666.49 1.47225 -0.562374 0
M  V30 27973 C 2667.43 2.27034 0.230365 0
M  V30 27974 C 2668.4 1.34372 0.915586 0
M  V30 27975 O 2669.59 1.6376 0.933544 0
M  V30 27976 C 2666.71 3.1155 1.32869 0
M  V30 27977 C 2665.76 4.19827 0.751478 0
M  V30 27978 S 2666.59 5.33959 -0.405942 0
M  V30 27979 C 2667.75 6.2204 0.694077 0
M  V30 27980 H 2667.98 2.93922 -0.446863 0
M  V30 27981 H 2665.52 1.50408 -0.348808 0
M  V30 27982 H 2667.47 3.60813 1.95766 0
M  V30 27983 H 2666.13 2.44014 1.97778 0
M  V30 27984 H 2665.33 4.78712 1.57642 0
M  V30 27985 H 2664.93 3.73472 0.19858 0
M  V30 27986 H 2667.22 6.58701 1.5849 0
M  V30 27987 H 2668.16 7.07957 0.142468 0
M  V30 27988 H 2668.57 5.55768 0.989072 0
M  V30 27989 N 2667.97 0.299089 1.54736 0
M  V30 27990 C 2669.22 -0.311209 2.00398 0
M  V30 27991 C 2669.55 -1.53686 1.18719 0
M  V30 27992 O 2668.82 -1.92711 0.263188 0
M  V30 27993 C 2669.11 -0.669698 3.53818 0
M  V30 27994 C 2668.96 0.564961 4.46238 0
M  V30 27995 C 2670.28 -1.49695 4.13859 0
M  V30 27996 H 2667.4 -0.11164 0.728495 0
M  V30 27997 H 2670.04 0.410807 1.85506 0
M  V30 27998 H 2668.19 -1.28484 3.66639 0
M  V30 27999 H 2669.86 1.20345 4.45326 0
M  V30 28000 H 2668.11 1.19856 4.16914 0
M  V30 28001 H 2668.78 0.270015 5.51339 0
M  V30 28002 H 2671.25 -0.977213 4.04462 0
M  V30 28003 H 2670.13 -1.71657 5.21368 0
M  V30 28004 H 2670.39 -2.48556 3.65612 0
M  V30 28005 N 2669.45 -1.57577 0.0267774 0
M  V30 28006 C 2670.7 -1.91325 -0.651082 0
M  V30 28007 C 2671.02 -0.90356 -1.72803 0
M  V30 28008 O 2670.29 0.0552602 -1.95822 0
M  V30 28009 H 2668.87 -0.706206 -0.243479 0
M  V30 28010 H 2671.53 -1.94759 0.0740277 0
M  V30 28011 H 2670.63 -2.91872 -1.10531 0
M  V30 28012 N 2670.93 0.246342 -1.55663 0
M  V30 28013 C 2671.86 1.32791 -1.86813 0
M  V30 28014 C 2672.87 1.44264 -0.754438 0
M  V30 28015 O 2674.06 1.45604 -1.03256 0
M  V30 28016 C 2671.16 2.70643 -2.03975 0
M  V30 28017 C 2670.33 2.8143 -3.34837 0
M  V30 28018 C 2669.39 4.0013 -3.41734 0
M  V30 28019 O 2668.42 3.89632 -4.14941 0
M  V30 28020 N 2669.62 5.13325 -2.71067 0
M  V30 28021 H 2672.39 1.06404 -2.80175 0
M  V30 28022 H 2669.95 0.436443 -1.55906 0
M  V30 28023 H 2671.94 3.48389 -2.0593 0
M  V30 28024 H 2670.51 2.89735 -1.17355 0
M  V30 28025 H 2669.73 1.90355 -3.45193 0
M  V30 28026 H 2671.02 2.85588 -4.2109 0
M  V30 28027 H 2670.41 5.24747 -2.11323 0
M  V30 28028 H 2668.97 5.89204 -2.78714 0
M  V30 28029 N 2672.4 1.4905 0.512027 0
M  V30 28030 C 2673.82 1.35569 0.842216 0
M  V30 28031 C 2674.02 0.380354 1.97878 0
M  V30 28032 O 2673.08 -0.191966 2.51769 0
M  V30 28033 C 2674.39 2.7603 1.19281 0
M  V30 28034 C 2675.94 2.8465 1.30166 0
M  V30 28035 C 2676.41 4.25854 1.6856 0
M  V30 28036 N 2677.9 4.28612 1.7563 0
M  V30 28037 C 2678.64 5.34825 2.0676 0
M  V30 28038 N 2678.13 6.51296 2.3619 0
M  V30 28039 N 2679.93 5.22232 2.07918 0
M  V30 28040 H 2672.08 2.11067 -0.237611 0
M  V30 28041 H 2674.34 0.946993 -0.0436913 0
M  V30 28042 H 2674.05 3.49047 0.431137 0
M  V30 28043 H 2673.92 3.10699 2.13884 0
M  V30 28044 H 2676.31 2.11877 2.05407 0
M  V30 28045 H 2676.39 2.53578 0.336412 0
M  V30 28046 H 2676.03 4.99149 0.938736 0
M  V30 28047 H 2675.96 4.54382 2.66167 0
M  V30 28048 H 2678.45 3.44609 1.55091 0
M  V30 28049 H 2678.77 7.28071 2.591 0
M  V30 28050 H 2677.11 6.54541 2.3367 0
M  V30 28051 H 2680.3 4.30251 1.84395 0
M  V30 28052 H 2680.48 6.05105 2.31845 0
M  V30 28053 N 2673.88 -0.762259 1.3794 0
M  V30 28054 C 2675.13 -1.52338 1.33869 0
M  V30 28055 C 2675.46 -1.94059 -0.073862 0
M  V30 28056 O 2674.74 -1.64787 -1.03323 0
M  V30 28057 C 2675.02 -2.78193 2.28649 0
M  V30 28058 C 2674.87 -2.42666 3.78726 0
M  V30 28059 C 2676.19 -3.80175 2.21709 0
M  V30 28060 H 2673.31 -0.552641 0.487603 0
M  V30 28061 H 2675.95 -0.873737 1.68718 0
M  V30 28062 H 2674.1 -3.33627 1.99061 0
M  V30 28063 H 2675.77 -1.93073 4.18951 0
M  V30 28064 H 2674.02 -1.75237 3.9683 0
M  V30 28065 H 2674.69 -3.32672 4.40492 0
M  V30 28066 H 2677.16 -3.34259 2.47811 0
M  V30 28067 H 2676.04 -4.65943 2.90152 0
M  V30 28068 H 2676.3 -4.25131 1.21308 0
M  V30 28069 N 2675.36 -1.22666 -0.989486 0
M  V30 28070 C 2676.77 -1.04958 -1.54404 0
M  V30 28071 C 2677.12 0.385917 -1.92367 0
M  V30 28072 O 2676.25 1.27139 -1.75113 0
M  V30 28073 C 2676.84 -1.89904 -2.80574 0
M  V30 28074 C 2675.4 -1.76483 -3.32461 0
M  V30 28075 C 2674.55 -1.86162 -2.05521 0
M  V30 28076 H 2677.5 -1.36461 -0.810187 0
M  V30 28077 H 2677.52 -1.41846 -3.53072 0
M  V30 28078 H 2677.03 -2.94375 -2.52913 0
M  V30 28079 H 2675.13 -0.747592 -3.65023 0
M  V30 28080 H 2675.25 -2.59349 -4.02833 0
M  V30 28081 H 2673.61 -1.2964 -2.19238 0
M  V30 28082 H 2674.39 -2.92171 -1.80252 0
M  V30 28083 N 2676.84 1.18685 -1.0369 0
M  V30 28084 C 2678.06 1.93058 -0.757853 0
M  V30 28085 C 2678.49 1.75443 0.678323 0
M  V30 28086 O 2677.85 1.06205 1.46936 0
M  V30 28087 C 2677.9 3.42625 -1.12429 0
M  V30 28088 O 2677 4.11656 -0.247578 0
M  V30 28089 H 2676.34 0.602422 -0.279256 0
M  V30 28090 H 2678.87 1.50528 -1.38573 0
M  V30 28091 H 2678.88 3.9332 -1.0846 0
M  V30 28092 H 2677.56 3.54767 -2.17056 0
M  V30 28093 H 2676.13 3.71286 -0.346555 0
M  V30 28094 N 2678.32 0.815849 1.34839 0
M  V30 28095 C 2679.28 0.238225 2.27959 0
M  V30 28096 C 2680.28 -0.579789 1.49984 0
M  V30 28097 O 2681.47 -0.396923 1.69618 0
M  V30 28098 C 2678.6 -0.666817 3.34315 0
M  V30 28099 H 2679.8 1.05963 2.80556 0
M  V30 28100 H 2677.35 0.587181 1.44851 0
M  V30 28101 H 2678.08 -1.51155 2.86919 0
M  V30 28102 H 2677.87 -0.0818416 3.92015 0
M  V30 28103 H 2679.36 -1.06499 4.03792 0
M  V30 28104 N 2679.8 -1.46924 0.570174 0
M  V30 28105 C 2681.21 -1.86173 0.140233 0
M  V30 28106 C 2681.56 -1.47528 -1.29344 0
M  V30 28107 O 2680.68 -0.884327 -1.97506 0
M  V30 28108 C 2681.28 -3.37893 0.24772 0
M  V30 28109 C 2679.84 -3.76185 -0.127266 0
M  V30 28110 C 2678.98 -2.70964 0.589397 0
M  V30 28111 H 2681.93 -1.38257 0.779141 0
M  V30 28112 H 2681.96 -3.76787 -0.530275 0
M  V30 28113 H 2681.47 -3.65989 1.29127 0
M  V30 28114 H 2679.57 -3.53706 -1.17143 0
M  V30 28115 H 2679.68 -4.78497 0.240322 0
M  V30 28116 H 2678.05 -2.54681 0.0310272 0
M  V30 28117 H 2678.83 -3.019 1.63435 0
M  V30 28118 N 2681.27 -0.307291 -1.54575 0
M  V30 28119 C 2682.52 0.299539 -1.99868 0
M  V30 28120 C 2682.84 1.53925 -1.19717 0
M  V30 28121 O 2682.11 1.9367 -0.294754 0
M  V30 28122 H 2680.69 0.11367 -0.738301 0
M  V30 28123 H 2683.35 -0.420075 -1.90319 0
M  V30 28124 H 2682.45 0.567229 -3.06902 0
M  V30 28125 N 2682.75 1.57561 -0.0351337 0
M  V30 28126 C 2683.68 2.07495 0.973567 0
M  V30 28127 C 2684.7 0.999557 1.28502 0
M  V30 28128 O 2685.89 1.27561 1.24862 0
M  V30 28129 C 2682.99 2.48959 2.2994 0
M  V30 28130 C 2682.16 3.79648 2.17223 0
M  V30 28131 C 2681.22 4.07597 3.32792 0
M  V30 28132 O 2680.24 4.77759 3.0941 0
M  V30 28133 N 2681.45 3.58244 4.56773 0
M  V30 28134 H 2684.21 2.94657 0.547473 0
M  V30 28135 H 2681.77 1.6119 0.151487 0
M  V30 28136 H 2683.76 2.64745 3.06092 0
M  V30 28137 H 2682.33 1.67131 2.6417 0
M  V30 28138 H 2681.55 3.73601 1.25761 0
M  V30 28139 H 2682.84 4.65261 2.05937 0
M  V30 28140 H 2682.24 3.01494 4.78663 0
M  V30 28141 H 2680.8 3.79297 5.30072 0
M  V30 28142 N 2684.23 -0.238084 1.55791 0
M  V30 28143 C 2685.14 -1.31621 1.94198 0
M  V30 28144 C 2686.16 -1.52184 0.843572 0
M  V30 28145 O 2687.33 -1.65635 1.14573 0
M  V30 28146 C 2684.4 -2.64914 2.23654 0
M  V30 28147 C 2683.46 -2.52798 3.46975 0
M  V30 28148 C 2682.69 -3.79734 3.75017 0
M  V30 28149 O 2682.91 -4.82014 3.0499 0
M  V30 28150 O 2681.85 -3.77838 4.68532 0
M  V30 28151 H 2685.67 -1.02038 2.86045 0
M  V30 28152 H 2683.26 -0.439578 1.42787 0
M  V30 28153 H 2685.14 -3.43665 2.43869 0
M  V30 28154 H 2683.82 -2.94212 1.34984 0
M  V30 28155 H 2682.72 -1.72303 3.32058 0
M  V30 28156 H 2684.06 -2.28443 4.35975 0
M  V30 28157 N 2685.71 -1.4932 -0.504115 0
M  V30 28158 C 2686.93 -1.62617 -1.28726 0
M  V30 28159 C 2687.36 -0.296342 -1.85751 0
M  V30 28160 O 2686.72 0.73562 -1.65706 0
M  V30 28161 C 2686.76 -2.69528 -2.39556 0
M  V30 28162 O 2685.87 -2.28484 -3.4332 0
M  V30 28163 H 2685.21 -0.544401 -0.380162 0
M  V30 28164 H 2687.74 -1.95486 -0.603838 0
M  V30 28165 H 2687.75 -2.916 -2.85365 0
M  V30 28166 H 2686.42 -3.66059 -1.97417 0
M  V30 28167 H 2685 -2.1673 -3.03451 0
M  V30 28168 N 2687.19 0.754933 -1.38342 0
M  V30 28169 C 2688.6 1.33218 -1.30805 0
M  V30 28170 C 2688.95 1.96166 0.0367655 0
M  V30 28171 O 2688.07 1.94975 0.938809 0
M  V30 28172 C 2688.67 2.42221 -2.36885 0
M  V30 28173 C 2687.23 2.9567 -2.3293 0
M  V30 28174 C 2686.37 1.69038 -2.19822 0
M  V30 28175 H 2689.32 0.553911 -1.4872 0
M  V30 28176 H 2689.35 3.22126 -2.02522 0
M  V30 28177 H 2688.86 1.96377 -3.3475 0
M  V30 28178 H 2686.96 3.45846 -1.38641 0
M  V30 28179 H 2687.07 3.5014 -3.27015 0
M  V30 28180 H 2685.44 1.92612 -1.66651 0
M  V30 28181 H 2686.22 1.25274 -3.19627 0
M  V30 28182 N 2688.66 1.23189 0.982967 0
M  V30 28183 C 2689.91 1.05652 1.71815 0
M  V30 28184 C 2690.23 -0.407142 1.91316 0
M  V30 28185 O 2691.43 -0.70239 2.62257 0
M  V30 28186 C 2689.89 1.84208 3.09185 0
M  V30 28187 C 2689.5 3.34888 2.97581 0
M  V30 28188 C 2691.24 1.75153 3.86681 0
M  V30 28189 C 2689.15 4.05846 4.30166 0
M  V30 28190 H 2688.08 0.391736 0.644251 0
M  V30 28191 H 2690.73 1.47132 1.09656 0
M  V30 28192 H 2689.11 1.35533 3.72084 0
M  V30 28193 H 2690.28 3.91031 2.43786 0
M  V30 28194 H 2688.6 3.44729 2.33561 0
M  V30 28195 H 2691.2 2.25482 4.84832 0
M  V30 28196 H 2691.54 0.713809 4.10135 0
M  V30 28197 H 2692.07 2.21425 3.30478 0
M  V30 28198 H 2688.81 5.09913 4.11909 0
M  V30 28199 H 2688.33 3.54491 4.83835 0
M  V30 28200 H 2690.01 4.11997 4.98866 0
M  V30 28201 N 2690.14 -1.18133 1.04318 0
M  V30 28202 C 2691.55 -1.6983 0.775535 0
M  V30 28203 C 2691.9 -1.83161 -0.703316 0
M  V30 28204 O 2691.03 -1.5129 -1.54726 0
M  V30 28205 C 2691.62 -3.08468 1.40118 0
M  V30 28206 C 2690.18 -3.57366 1.18179 0
M  V30 28207 C 2689.33 -2.33851 1.49026 0
M  V30 28208 H 2692.28 -1.02773 1.20927 0
M  V30 28209 H 2692.3 -3.71871 0.805737 0
M  V30 28210 H 2691.81 -2.98734 2.4775 0
M  V30 28211 H 2689.91 -3.72393 0.124324 0
M  V30 28212 H 2690.03 -4.40649 1.88058 0
M  V30 28213 H 2688.39 -2.37887 0.910037 0
M  V30 28214 H 2689.17 -2.26734 2.57772 0
M  V30 28215 N 2691.62 -0.822988 -1.34405 0
M  V30 28216 C 2692.9 -0.333675 -1.92733 0
M  V30 28217 C 2693.28 1.17898 -1.75109 0
M  V30 28218 O 2692.63 1.98611 -1.12986 0
M  V30 28219 C 2692.84 -0.763083 -3.40555 0
M  V30 28220 C 2694.18 -0.761952 -4.17707 0
M  V30 28221 O 2695.21 -0.705667 -3.4914 0
M  V30 28222 O 2694.07 -0.835204 -5.4008 0
M  V30 28223 H 2691.16 -0.0911394 -0.821963 0
M  V30 28224 H 2693.71 -0.907782 -1.43379 0
M  V30 28225 H 2692.48 -1.80496 -3.47184 0
M  V30 28226 H 2692.1 -0.164675 -3.97259 0
M  V30 28227 N 2693.1 1.4662 -0.577957 0
M  V30 28228 C 2694.51 1.86096 -0.150104 0
M  V30 28229 C 2694.86 1.48212 1.2856 0
M  V30 28230 O 2693.99 0.894788 1.97034 0
M  V30 28231 C 2694.58 3.37757 -0.265636 0
M  V30 28232 C 2693.14 3.76247 0.107314 0
M  V30 28233 C 2692.29 2.70647 -0.603758 0
M  V30 28234 H 2695.24 1.37842 -0.786462 0
M  V30 28235 H 2695.26 3.77063 0.510286 0
M  V30 28236 H 2694.77 3.65299 -1.31066 0
M  V30 28237 H 2692.87 3.54323 1.15266 0
M  V30 28238 H 2692.98 4.78363 -0.265694 0
M  V30 28239 H 2691.35 2.54661 -0.0445331 0
M  V30 28240 H 2692.13 3.01029 -1.65034 0
M  V30 28241 N 2694.58 0.315484 1.5441 0
M  V30 28242 C 2695.52 -0.554127 2.24049 0
M  V30 28243 C 2696.49 -1.1181 1.22832 0
M  V30 28244 O 2697.68 -1.15994 1.51493 0
M  V30 28245 C 2694.82 -1.71311 2.99577 0
M  V30 28246 C 2693.93 -1.17914 4.15596 0
M  V30 28247 C 2693.07 -2.30316 4.78673 0
M  V30 28248 C 2692.11 -1.74127 5.8681 0
M  V30 28249 N 2691.24 -2.80159 6.43782 0
M  V30 28250 H 2696.08 0.0463126 2.97964 0
M  V30 28251 H 2693.62 0.0346267 1.47059 0
M  V30 28252 H 2695.58 -2.39499 3.41608 0
M  V30 28253 H 2694.21 -2.28496 2.28012 0
M  V30 28254 H 2693.26 -0.38907 3.78405 0
M  V30 28255 H 2694.57 -0.727925 4.9346 0
M  V30 28256 H 2693.73 -3.06423 5.23631 0
M  V30 28257 H 2692.46 -2.78771 4.00173 0
M  V30 28258 H 2691.47 -0.96514 5.41262 0
M  V30 28259 H 2692.69 -1.26559 6.67203 0
M  V30 28260 H 2690.64 -3.2792 5.68159 0
M  V30 28261 H 2690.56 -2.39576 7.17035 0
M  V30 28262 H 2691.83 -3.5612 6.93397 0
M  V30 28263 N 2696.05 -1.5754 0.0434891 0
M  V30 28264 C 2696.98 -2.1411 -0.931613 0
M  V30 28265 C 2697.97 -1.06082 -1.32969 0
M  V30 28266 O 2699.15 -1.33985 -1.40576 0
M  V30 28267 C 2696.28 -2.67986 -2.20909 0
M  V30 28268 C 2695.23 -3.8093 -1.95132 0
M  V30 28269 C 2694.56 -4.21291 -3.29269 0
M  V30 28270 C 2695.86 -5.06397 -1.27904 0
M  V30 28271 H 2697.55 -2.95838 -0.460445 0
M  V30 28272 H 2695.1 -1.42309 -0.220033 0
M  V30 28273 H 2697.05 -3.06199 -2.89517 0
M  V30 28274 H 2695.78 -1.83439 -2.70218 0
M  V30 28275 H 2694.44 -3.43177 -1.28939 0
M  V30 28276 H 2694.08 -3.33706 -3.76364 0
M  V30 28277 H 2693.78 -4.97409 -3.12823 0
M  V30 28278 H 2695.31 -4.62098 -3.99121 0
M  V30 28279 H 2696.72 -5.42105 -1.86534 0
M  V30 28280 H 2695.12 -5.87607 -1.21809 0
M  V30 28281 H 2696.19 -4.84234 -0.253981 0
M  V30 28282 N 2697.53 0.229818 -1.55915 0
M  V30 28283 C 2698.47 1.31167 -1.86737 0
M  V30 28284 C 2699.44 1.45593 -0.723973 0
M  V30 28285 O 2700.63 1.61537 -0.971491 0
M  V30 28286 C 2697.75 2.68306 -2.06712 0
M  V30 28287 C 2696.8 2.70939 -3.29385 0
M  V30 28288 S 2697.63 2.25833 -4.85551 0
M  V30 28289 C 2698.79 3.64864 -5.08552 0
M  V30 28290 H 2699.02 1.04827 -2.78206 0
M  V30 28291 H 2696.56 0.431655 -1.48243 0
M  V30 28292 H 2698.51 3.47263 -2.18904 0
M  V30 28293 H 2697.17 2.91874 -1.16054 0
M  V30 28294 H 2696.37 3.71695 -3.40381 0
M  V30 28295 H 2695.97 2.00039 -3.16007 0
M  V30 28296 H 2698.26 4.60493 -4.96943 0
M  V30 28297 H 2699.2 3.5879 -6.10471 0
M  V30 28298 H 2699.61 3.58168 -4.36321 0
M  V30 28299 N 2699.01 1.49585 0.49619 0
M  V30 28300 C 2700.42 1.5246 1.07762 0
M  V30 28301 C 2700.77 0.313564 1.93678 0
M  V30 28302 O 2699.9 -0.576149 2.08589 0
M  V30 28303 C 2700.49 2.76275 1.96107 0
M  V30 28304 C 2699.05 2.81913 2.49404 0
M  V30 28305 C 2698.2 2.46437 1.27138 0
M  V30 28306 H 2701.15 1.56212 0.279886 0
M  V30 28307 H 2701.17 2.56709 2.80857 0
M  V30 28308 H 2700.68 3.64399 1.33549 0
M  V30 28309 H 2698.78 1.9808 3.15587 0
M  V30 28310 H 2698.9 3.84201 2.86227 0
M  V30 28311 H 2697.26 1.98321 1.59815 0
M  V30 28312 H 2698.04 3.36841 0.662807 0
M  V30 28313 N 2700.49 -0.747586 1.3874 0
M  V30 28314 C 2701.44 -1.85224 1.32951 0
M  V30 28315 C 2702.42 -1.59488 0.21267 0
M  V30 28316 O 2703.61 -1.71206 0.449152 0
M  V30 28317 C 2700.74 -3.23006 1.16285 0
M  V30 28318 C 2699.83 -3.54613 2.32617 0
M  V30 28319 N 2700.22 -3.57238 3.58071 0
M  V30 28320 C 2698.52 -3.8491 2.253 0
M  V30 28321 C 2699.22 -3.86282 4.34926 0
M  V30 28322 N 2698.2 -4.03418 3.64355 0
M  V30 28323 H 2702 -1.8554 2.2793 0
M  V30 28324 H 2699.51 -0.94523 1.32057 0
M  V30 28325 H 2701.51 -4.02066 1.10221 0
M  V30 28326 H 2700.17 -3.23937 0.222451 0
M  V30 28327 H 2701.18 -3.38853 3.91662 0
M  V30 28328 H 2697.86 -3.93522 1.39453 0
M  V30 28329 H 2699.25 -3.94886 5.43612 0
M  V30 28330 N 2701.97 -1.23709 -0.97642 0
M  V30 28331 C 2702.9 -0.965009 -2.06792 0
M  V30 28332 C 2703.88 0.0981187 -1.62304 0
M  V30 28333 O 2705.06 -0.0369808 -1.88464 0
M  V30 28334 C 2702.19 -0.454581 -3.35636 0
M  V30 28335 C 2701.23 -1.50492 -3.99067 0
M  V30 28336 S 2702.07 -3.08357 -4.37808 0
M  V30 28337 C 2703.22 -2.58995 -5.698 0
M  V30 28338 H 2703.46 -1.88926 -2.29552 0
M  V30 28339 H 2700.99 -1.06997 -1.11315 0
M  V30 28340 H 2702.95 -0.166698 -4.10161 0
M  V30 28341 H 2701.61 0.448816 -3.10877 0
M  V30 28342 H 2700.8 -1.09801 -4.91894 0
M  V30 28343 H 2700.4 -1.74236 -3.30935 0
M  V30 28344 H 2702.7 -2.01263 -6.46915 0
M  V30 28345 H 2703.64 -3.50377 -6.15338 0
M  V30 28346 H 2704.05 -1.99714 -5.27991 0
M  V30 28347 N 2703.44 1.17579 -1.04943 0
M  V30 28348 C 2704.39 2.21511 -0.648194 0
M  V30 28349 C 2705.36 1.62405 0.348402 0
M  V30 28350 O 2706.55 1.8928 0.240386 0
M  V30 28351 C 2703.69 3.4509 -0.0264898 0
M  V30 28352 C 2702.8 4.18498 -1.07161 0
M  V30 28353 C 2701.93 5.29557 -0.417496 0
M  V30 28354 C 2700.97 5.94748 -1.4471 0
M  V30 28355 N 2700.11 6.97326 -0.817325 0
M  V30 28356 H 2704.95 2.55186 -1.53896 0
M  V30 28357 H 2702.49 1.25354 -0.769721 0
M  V30 28358 H 2704.45 4.15718 0.351383 0
M  V30 28359 H 2703.08 3.12007 0.827747 0
M  V30 28360 H 2702.13 3.4661 -1.56735 0
M  V30 28361 H 2703.44 4.63093 -1.85328 0
M  V30 28362 H 2702.59 6.06698 0.0140994 0
M  V30 28363 H 2701.33 4.86088 0.39618 0
M  V30 28364 H 2700.34 5.1634 -1.88874 0
M  V30 28365 H 2701.56 6.40298 -2.26264 0
M  V30 28366 H 2699.51 6.55996 -0.0241148 0
M  V30 28367 H 2699.43 7.4022 -1.53657 0
M  V30 28368 H 2700.69 7.78419 -0.41042 0
M  V30 28369 N 2704.92 0.830104 1.33967 0
M  V30 28370 C 2705.87 0.245476 2.31301 0
M  V30 28371 C 2706.86 -0.617734 1.57735 0
M  V30 28372 O 2708.07 -0.508273 1.72675 0
M  V30 28373 H 2704.45 0.0606448 0.749551 0
M  V30 28374 H 2706.42 1.0811 2.78127 0
M  V30 28375 C 2705.17 -0.572023 3.42962 0
M  V30 28376 H 2704.49 0.0828821 3.99714 0
M  V30 28377 H 2705.93 -0.947077 4.13287 0
M  V30 28378 C 2704.39 -1.74732 2.88046 0
M  V30 28379 O 2704.92 -2.84575 2.83513 0
M  V30 28380 N 2703.12 -1.56638 2.44771 0
M  V30 28381 H 2702.67 -0.672857 2.48657 0
M  V30 28382 H 2702.63 -2.35426 2.08379 0
M  V30 28383 N 2706.4 -1.46311 0.585725 0
M  V30 28384 C 2707.31 -2.34131 -0.148195 0
M  V30 28385 C 2708.33 -1.49934 -0.882946 0
M  V30 28386 O 2709.5 -1.82795 -0.845452 0
M  V30 28387 C 2706.57 -3.27174 -1.14708 0
M  V30 28388 C 2705.63 -4.27273 -0.416671 0
M  V30 28389 C 2704.86 -5.1587 -1.36797 0
M  V30 28390 O 2705.09 -5.07458 -2.60466 0
M  V30 28391 O 2704.02 -5.95478 -0.876914 0
M  V30 28392 H 2707.85 -2.98247 0.572934 0
M  V30 28393 H 2705.43 -1.45336 0.346107 0
M  V30 28394 H 2707.31 -3.84567 -1.72296 0
M  V30 28395 H 2705.99 -2.65651 -1.84962 0
M  V30 28396 H 2704.89 -3.73559 0.201127 0
M  V30 28397 H 2706.23 -4.9159 0.244959 0
M  V30 28398 N 2707.88 -0.323668 -1.54241 0
M  V30 28399 C 2709.29 0.164372 -1.85975 0
M  V30 28400 C 2709.64 1.51613 -1.24531 0
M  V30 28401 O 2708.77 2.09257 -0.551388 0
M  V30 28402 C 2709.36 0.305031 -3.37424 0
M  V30 28403 C 2707.92 0.737293 -3.69108 0
M  V30 28404 C 2707.07 -0.140933 -2.76942 0
M  V30 28405 H 2710.02 -0.543948 -1.49087 0
M  V30 28406 H 2710.04 1.13592 -3.63149 0
M  V30 28407 H 2709.55 -0.678943 -3.82115 0
M  V30 28408 H 2707.65 1.73101 -3.2995 0
M  V30 28409 H 2707.77 0.540969 -4.76036 0
M  V30 28410 H 2706.13 0.383527 -2.51796 0
M  V30 28411 H 2706.91 -1.12168 -3.24459 0
M  V30 28412 N 2709.36 1.57515 -0.0518432 0
M  V30 28413 C 2710.59 1.97032 0.631361 0
M  V30 28414 C 2711 0.929409 1.64339 0
M  V30 28415 O 2710.36 -0.0862945 1.82296 0
M  V30 28416 C 2710.41 3.3663 1.31768 0
M  V30 28417 O 2710.13 4.3673 0.34617 0
M  V30 28418 C 2711.63 3.90909 2.09058 0
M  V30 28419 H 2708.85 0.648431 0.172565 0
M  V30 28420 H 2711.39 2.04157 -0.118342 0
M  V30 28421 H 2709.55 3.30652 2.01861 0
M  V30 28422 H 2709.96 5.17792 0.836135 0
M  V30 28423 H 2711.44 4.90865 2.52499 0
M  V30 28424 H 2711.91 3.26371 2.93902 0
M  V30 28425 H 2712.52 4.00225 1.43875 0
M  V30 28426 N 2710.84 -0.221546 1.56035 0
M  V30 28427 C 2712.06 -0.962832 1.83132 0
M  V30 28428 C 2712.48 -1.77945 0.630966 0
M  V30 28429 O 2711.84 -1.78052 -0.400488 0
M  V30 28430 C 2711.89 -1.88039 3.08745 0
M  V30 28431 O 2711.61 -1.09679 4.24149 0
M  V30 28432 C 2713.11 -2.73557 3.48829 0
M  V30 28433 H 2710.33 -0.282183 0.60878 0
M  V30 28434 H 2712.87 -0.236774 2.03125 0
M  V30 28435 H 2711.03 -2.5604 2.90727 0
M  V30 28436 H 2711.44 -1.71965 4.95508 0
M  V30 28437 H 2712.92 -3.33642 4.39758 0
M  V30 28438 H 2713.39 -3.45951 2.70582 0
M  V30 28439 H 2714 -2.1097 3.69286 0
M  V30 28440 N 2712.31 -1.49846 -0.48825 0
M  V30 28441 C 2713.72 -1.5303 -1.06952 0
M  V30 28442 C 2714.08 -0.323831 -1.93509 0
M  V30 28443 O 2713.2 0.565079 -2.08892 0
M  V30 28444 C 2713.8 -2.77311 -1.94639 0
M  V30 28445 C 2712.35 -2.83231 -2.47905 0
M  V30 28446 C 2711.5 -2.47108 -1.25829 0
M  V30 28447 H 2714.45 -1.56359 -0.271598 0
M  V30 28448 H 2714.47 -2.58195 -2.79492 0
M  V30 28449 H 2713.99 -3.65102 -1.31614 0
M  V30 28450 H 2712.09 -1.99751 -3.14532 0
M  V30 28451 H 2712.2 -3.85714 -2.84186 0
M  V30 28452 H 2710.56 -1.99166 -1.58761 0
M  V30 28453 H 2711.35 -3.37188 -0.644934 0
M  V30 28454 N 2713.79 0.740218 -1.39135 0
M  V30 28455 C 2715.02 1.53456 -1.3952 0
M  V30 28456 C 2715.44 1.88098 0.00965577 0
M  V30 28457 O 2714.8 1.51538 0.995285 0
M  V30 28458 C 2714.85 2.80196 -2.26986 0
M  V30 28459 O 2713.95 3.75905 -1.69615 0
M  V30 28460 H 2713.29 0.463628 -0.475336 0
M  V30 28461 H 2715.82 0.913685 -1.83065 0
M  V30 28462 H 2715.83 3.28985 -2.41315 0
M  V30 28463 H 2714.51 2.54315 -3.29085 0
M  V30 28464 H 2713.08 3.34655 -1.645 0
M  V30 28465 N 2715.27 1.24225 0.969846 0
M  V30 28466 C 2716.52 1.09234 1.7158 0
M  V30 28467 C 2716.87 -0.365399 1.88898 0
M  V30 28468 O 2716.16 -1.26637 1.43783 0
M  V30 28469 C 2716.36 1.76319 3.1088 0
M  V30 28470 C 2716.19 3.28466 3.07149 0
M  V30 28471 C 2714.96 3.97669 3.1175 0
M  V30 28472 C 2717.15 4.25087 2.89492 0
M  V30 28473 N 2715.14 5.36712 2.98015 0
M  V30 28474 C 2716.51 5.51114 2.84031 0
M  V30 28475 C 2718.56 4.15689 2.74057 0
M  V30 28476 C 2717.27 6.68819 2.64713 0
M  V30 28477 C 2719.29 5.3307 2.56106 0
M  V30 28478 C 2718.65 6.58029 2.51352 0
M  V30 28479 H 2714.75 0.45432 0.636488 0
M  V30 28480 H 2717.34 1.57108 1.15001 0
M  V30 28481 H 2715.51 1.30962 3.65655 0
M  V30 28482 H 2717.24 1.54208 3.74169 0
M  V30 28483 H 2713.99 3.4882 3.20346 0
M  V30 28484 H 2714.42 6.0964 2.94394 0
M  V30 28485 H 2719.06 3.19842 2.76515 0
M  V30 28486 H 2716.78 7.64791 2.60998 0
M  V30 28487 H 2720.36 5.27648 2.4511 0
M  V30 28488 H 2719.24 7.47327 2.37638 0
M  V30 28489 N 2716.75 -1.1702 1.05565 0
M  V30 28490 C 2717.68 -2.23347 0.681065 0
M  V30 28491 C 2718.66 -1.67006 -0.322954 0
M  V30 28492 O 2719.84 -1.9317 -0.199712 0
M  V30 28493 C 2716.97 -3.4725 0.0589663 0
M  V30 28494 C 2715.93 -4.16437 0.988155 0
M  V30 28495 C 2715.25 -5.34206 0.22974 0
M  V30 28496 C 2716.55 -4.68245 2.31396 0
M  V30 28497 H 2718.25 -2.54936 1.56997 0
M  V30 28498 H 2715.79 -1.22539 0.756324 0
M  V30 28499 H 2717.75 -4.20852 -0.214908 0
M  V30 28500 H 2716.47 -3.14939 -0.864913 0
M  V30 28501 H 2715.13 -3.44752 1.24666 0
M  V30 28502 H 2714.78 -4.98147 -0.697024 0
M  V30 28503 H 2714.48 -5.81435 0.848917 0
M  V30 28504 H 2716 -6.10589 -0.0367621 0
M  V30 28505 H 2717.42 -5.33464 2.09973 0
M  V30 28506 H 2715.81 -5.26067 2.88745 0
M  V30 28507 H 2716.88 -3.8485 2.94989 0
M  V30 28508 N 2718.23 -0.837197 -1.33524 0
M  V30 28509 C 2719.19 -0.274461 -2.27551 0
M  V30 28510 C 2720.19 0.555855 -1.50887 0
M  V30 28511 O 2721.38 0.369888 -1.70228 0
M  V30 28512 C 2718.51 0.613546 -3.35333 0
M  V30 28513 H 2719.7 -1.10413 -2.78835 0
M  V30 28514 H 2717.26 -0.610151 -1.43899 0
M  V30 28515 H 2717.99 1.46572 -2.89288 0
M  V30 28516 H 2717.78 0.0194652 -3.92095 0
M  V30 28517 H 2719.27 1.00061 -4.05435 0
M  V30 28518 N 2719.7 1.45999 -0.593476 0
M  V30 28519 C 2720.98 1.95594 -0.0158277 0
M  V30 28520 C 2721.36 1.53607 1.44804 0
M  V30 28521 O 2720.71 0.791862 2.1434 0
M  V30 28522 C 2720.92 3.48431 -0.199143 0
M  V30 28523 C 2722.27 4.24538 -0.072569 0
M  V30 28524 O 2723.29 3.55968 -0.128532 0
M  V30 28525 O 2722.15 5.46473 0.0541465 0
M  V30 28526 H 2719.24 0.825843 0.0437345 0
M  V30 28527 H 2721.79 1.56232 -0.662549 0
M  V30 28528 H 2720.56 3.71914 -1.21637 0
M  V30 28529 H 2720.18 3.94649 0.483507 0
M  V30 28530 N 2721.18 0.331843 1.54067 0
M  V30 28531 C 2722.43 -0.269173 1.99896 0
M  V30 28532 C 2722.74 -1.52591 1.22374 0
M  V30 28533 O 2723.95 -2.20344 1.58621 0
M  V30 28534 C 2722.41 -0.530182 3.55973 0
M  V30 28535 C 2722.01 0.709978 4.42338 0
M  V30 28536 C 2723.76 -1.0907 4.10249 0
M  V30 28537 C 2721.67 0.420416 5.89904 0
M  V30 28538 H 2720.6 -0.104358 0.746743 0
M  V30 28539 H 2723.25 0.445355 1.78014 0
M  V30 28540 H 2721.63 -1.30511 3.73875 0
M  V30 28541 H 2722.8 1.48512 4.36212 0
M  V30 28542 H 2721.12 1.1913 3.98995 0
M  V30 28543 H 2723.71 -1.3221 5.18097 0
M  V30 28544 H 2724.06 -2.04263 3.62743 0
M  V30 28545 H 2724.59 -0.376755 3.96012 0
M  V30 28546 H 2721.33 1.34175 6.41621 0
M  V30 28547 H 2720.85 -0.316857 5.98962 0
M  V30 28548 H 2722.53 0.0333093 6.46991 0
M  V30 28549 N 2722.66 -1.57485 0.0601958 0
M  V30 28550 C 2724.07 -1.80578 -0.474185 0
M  V30 28551 C 2724.42 -0.973177 -1.70363 0
M  V30 28552 O 2723.55 -0.192344 -2.15543 0
M  V30 28553 C 2724.14 -3.27518 -0.867044 0
M  V30 28554 C 2722.7 -3.51497 -1.34635 0
M  V30 28555 C 2721.85 -2.75378 -0.325892 0
M  V30 28556 H 2724.8 -1.56102 0.286001 0
M  V30 28557 H 2724.82 -3.38932 -1.72932 0
M  V30 28558 H 2724.33 -3.8809 0.0279609 0
M  V30 28559 H 2722.43 -2.96216 -2.26025 0
M  V30 28560 H 2722.55 -4.60203 -1.33228 0
M  V30 28561 H 2720.91 -2.41787 -0.800706 0
M  V30 28562 H 2721.69 -3.38682 0.561185 0
M  V30 28563 N 2724.14 0.213268 -1.5615 0
M  V30 28564 C 2725.55 0.779552 -1.69646 0
M  V30 28565 C 2725.9 1.84635 -0.663648 0
M  V30 28566 O 2725.03 2.1562 0.183595 0
M  V30 28567 C 2725.62 1.42079 -3.0757 0
M  V30 28568 C 2724.18 1.93437 -3.22892 0
M  V30 28569 C 2723.33 0.797565 -2.65583 0
M  V30 28570 H 2726.28 -0.011523 -1.58696 0
M  V30 28571 H 2726.3 2.28981 -3.03888 0
M  V30 28572 H 2725.81 0.64412 -3.82718 0
M  V30 28573 H 2723.91 2.73879 -2.52628 0
M  V30 28574 H 2724.02 2.10864 -4.30201 0
M  V30 28575 H 2722.39 1.20708 -2.2428 0
M  V30 28576 H 2723.17 0.0334336 -3.43284 0
M  V30 28577 N 2725.62 1.50103 0.480296 0
M  V30 28578 C 2726.86 1.61839 1.23205 0
M  V30 28579 C 2727.22 0.310542 1.89877 0
M  V30 28580 O 2726.51 -0.690865 1.78711 0
M  V30 28581 C 2726.7 2.72967 2.30703 0
M  V30 28582 C 2726.53 4.14431 1.74576 0
M  V30 28583 C 2725.3 4.80954 1.54956 0
M  V30 28584 C 2727.5 4.98981 1.24588 0
M  V30 28585 N 2725.48 6.06665 0.939749 0
M  V30 28586 C 2726.85 6.1534 0.758726 0
M  V30 28587 C 2728.91 4.84824 1.13356 0
M  V30 28588 C 2727.61 7.19098 0.170334 0
M  V30 28589 C 2729.64 5.88751 0.559117 0
M  V30 28590 C 2729 7.04352 0.0822912 0
M  V30 28591 H 2725.1 0.646434 0.440054 0
M  V30 28592 H 2727.68 1.87188 0.535599 0
M  V30 28593 H 2725.85 2.49356 2.97786 0
M  V30 28594 H 2727.59 2.74111 2.97733 0
M  V30 28595 H 2724.34 4.38094 1.79918 0
M  V30 28596 H 2724.77 6.73838 0.653523 0
M  V30 28597 H 2729.41 3.95744 1.48816 0
M  V30 28598 H 2727.13 8.07861 -0.196489 0
M  V30 28599 H 2730.71 5.7986 0.474702 0
M  V30 28600 H 2729.59 7.83395 -0.355256 0
M  V30 28601 N 2727.09 -0.732829 1.39526 0
M  V30 28602 C 2728.34 -1.49464 1.3707 0
M  V30 28603 C 2728.67 -1.94172 -0.0326825 0
M  V30 28604 O 2727.95 -1.66941 -0.998042 0
M  V30 28605 C 2728.23 -2.73281 2.34499 0
M  V30 28606 C 2728.08 -2.34578 3.83788 0
M  V30 28607 C 2729.4 -3.75387 2.29723 0
M  V30 28608 H 2726.52 -0.542174 0.499215 0
M  V30 28609 H 2729.16 -0.837753 1.70534 0
M  V30 28610 H 2727.31 -3.2933 2.06093 0
M  V30 28611 H 2728.99 -1.84143 4.22953 0
M  V30 28612 H 2727.23 -1.6678 4.00458 0
M  V30 28613 H 2727.9 -3.23254 4.47449 0
M  V30 28614 H 2730.38 -3.28927 2.54845 0
M  V30 28615 H 2729.25 -4.59684 2.9997 0
M  V30 28616 H 2729.51 -4.22463 1.30299 0
M  V30 28617 N 2728.57 -1.24737 -0.963244 0
M  V30 28618 C 2729.98 -1.0821 -1.52143 0
M  V30 28619 C 2730.33 0.345027 -1.93142 0
M  V30 28620 O 2729.46 1.23396 -1.77771 0
M  V30 28621 C 2730.05 -1.95813 -2.76483 0
M  V30 28622 C 2728.61 -1.83496 -3.28643 0
M  V30 28623 C 2727.76 -1.9048 -2.01526 0
M  V30 28624 H 2730.71 -1.38149 -0.781059 0
M  V30 28625 H 2730.73 -1.49304 -3.49984 0
M  V30 28626 H 2730.24 -2.99674 -2.46612 0
M  V30 28627 H 2728.35 -0.824851 -3.63355 0
M  V30 28628 H 2728.46 -2.67836 -3.97242 0
M  V30 28629 H 2726.82 -1.34261 -2.16439 0
M  V30 28630 H 2727.61 -2.95929 -1.74014 0
M  V30 28631 N 2730.05 1.16459 -1.06184 0
M  V30 28632 C 2731 2.20811 -0.671652 0
M  V30 28633 C 2731.97 1.62765 0.331158 0
M  V30 28634 O 2733.15 1.89524 0.220296 0
M  V30 28635 C 2730.29 3.45042 -0.0630897 0
M  V30 28636 C 2729.41 4.17338 -1.11594 0
M  V30 28637 C 2728.54 5.29084 -0.473639 0
M  V30 28638 C 2727.58 5.9318 -1.5101 0
M  V30 28639 N 2726.72 6.9642 -0.89124 0
M  V30 28640 H 2731.56 2.5354 -1.56594 0
M  V30 28641 H 2729.09 1.24531 -0.782973 0
M  V30 28642 H 2731.05 4.16067 0.307271 0
M  V30 28643 H 2729.68 3.12867 0.794608 0
M  V30 28644 H 2728.73 3.44928 -1.60402 0
M  V30 28645 H 2730.05 4.61101 -1.9023 0
M  V30 28646 H 2729.2 6.06679 -0.0502499 0
M  V30 28647 H 2727.94 4.86481 0.344601 0
M  V30 28648 H 2726.94 5.14307 -1.9434 0
M  V30 28649 H 2728.17 6.37862 -2.33042 0
M  V30 28650 H 2726.11 6.55933 -0.0936906 0
M  V30 28651 H 2726.03 7.38549 -1.61499 0
M  V30 28652 H 2727.3 7.7794 -0.492959 0
M  V30 28653 N 2731.53 0.844266 1.33079 0
M  V30 28654 C 2732.81 0.364295 1.92178 0
M  V30 28655 C 2733.19 -1.15098 1.76963 0
M  V30 28656 O 2732.53 -1.96788 1.16132 0
M  V30 28657 C 2732.74 0.817166 3.39298 0
M  V30 28658 C 2734.09 0.828309 4.16442 0
M  V30 28659 O 2735.12 0.761123 3.47973 0
M  V30 28660 O 2733.97 0.921021 5.38683 0
M  V30 28661 H 2731.07 0.104205 0.820409 0
M  V30 28662 H 2733.61 0.930478 1.41916 0
M  V30 28663 H 2732.39 1.85997 3.44269 0
M  V30 28664 H 2732.01 0.227855 3.96947 0
M  V30 28665 N 2733.01 -1.45682 0.60121 0
M  V30 28666 C 2734.42 -1.57396 0.264343 0
M  V30 28667 C 2734.62 -1.59356 -1.23321 0
M  V30 28668 O 2733.68 -1.52043 -2.01592 0
M  V30 28669 C 2734.99 -2.85961 0.929889 0
M  V30 28670 C 2736.54 -2.99625 0.905209 0
M  V30 28671 C 2737.01 -4.30951 1.55064 0
M  V30 28672 N 2738.51 -4.37695 1.51584 0
M  V30 28673 C 2739.24 -5.37966 1.98445 0
M  V30 28674 N 2738.74 -6.44809 2.53364 0
M  V30 28675 N 2740.53 -5.29283 1.89251 0
M  V30 28676 H 2732.68 -1.42653 1.57365 0
M  V30 28677 H 2734.94 -0.681637 0.658843 0
M  V30 28678 H 2734.65 -2.90391 1.98409 0
M  V30 28679 H 2734.52 -3.74515 0.44929 0
M  V30 28680 H 2736.91 -2.94766 -0.140429 0
M  V30 28681 H 2736.99 -2.12498 1.42401 0
M  V30 28682 H 2736.64 -4.36569 2.59558 0
M  V30 28683 H 2736.57 -5.16884 1.00691 0
M  V30 28684 H 2739.06 -3.61089 1.11459 0
M  V30 28685 H 2739.37 -7.17559 2.86931 0
M  V30 28686 H 2737.71 -6.45578 2.57399 0
M  V30 28687 H 2740.91 -4.44719 1.46091 0
M  V30 28688 H 2741.08 -6.0728 2.26086 0
M  V30 28689 N 2734.48 -0.340009 -1.53889 0
M  V30 28690 C 2735.9 0.144638 -1.86139 0
M  V30 28691 C 2736.25 1.50283 -1.26132 0
M  V30 28692 O 2735.37 2.08661 -0.573552 0
M  V30 28693 C 2735.97 0.269226 -3.37729 0
M  V30 28694 C 2734.53 0.698103 -3.6987 0
M  V30 28695 C 2733.67 -0.170298 -2.76777 0
M  V30 28696 H 2736.62 -0.55973 -1.48502 0
M  V30 28697 H 2736.64 1.09734 -3.64333 0
M  V30 28698 H 2736.16 -0.719433 -3.81374 0
M  V30 28699 H 2734.26 1.69591 -3.31767 0
M  V30 28700 H 2734.37 0.490449 -4.76583 0
M  V30 28701 H 2732.73 0.356799 -2.52188 0
M  V30 28702 H 2733.52 -1.15603 -3.23251 0
M  V30 28703 N 2735.96 1.57451 -0.0685468 0
M  V30 28704 C 2736.89 2.15565 0.897432 0
M  V30 28705 C 2737.87 1.08184 1.31264 0
M  V30 28706 O 2739.06 1.36204 1.38427 0
M  V30 28707 C 2736.19 2.71466 2.16618 0
M  V30 28708 C 2735.14 3.83986 1.89047 0
M  V30 28709 C 2734.47 4.26476 3.22525 0
M  V30 28710 C 2735.77 5.08368 1.19831 0
M  V30 28711 H 2737.46 2.96533 0.413321 0
M  V30 28712 H 2735.01 1.42641 0.197365 0
M  V30 28713 H 2736.96 3.10766 2.84609 0
M  V30 28714 H 2735.69 1.87715 2.67265 0
M  V30 28715 H 2734.35 3.45185 1.23463 0
M  V30 28716 H 2733.99 3.39651 3.71007 0
M  V30 28717 H 2733.69 5.02323 3.0487 0
M  V30 28718 H 2735.22 4.6839 3.91719 0
M  V30 28719 H 2736.63 5.45004 1.77886 0
M  V30 28720 H 2735.03 5.89471 1.12445 0
M  V30 28721 H 2736.1 4.84577 0.176911 0
M  V30 28722 N 2737.44 -0.204984 1.56261 0
M  V30 28723 C 2738.85 -0.770544 1.70057 0
M  V30 28724 C 2739.2 -1.84281 0.67343 0
M  V30 28725 O 2738.33 -2.15714 -0.172158 0
M  V30 28726 C 2738.92 -1.40446 3.08319 0
M  V30 28727 C 2737.48 -1.91721 3.23913 0
M  V30 28728 C 2736.63 -0.78347 2.66002 0
M  V30 28729 H 2739.58 0.0199389 1.58687 0
M  V30 28730 H 2739.6 -2.27366 3.05098 0
M  V30 28731 H 2739.11 -0.623814 3.83054 0
M  V30 28732 H 2737.21 -2.72536 2.54077 0
M  V30 28733 H 2737.33 -2.0858 4.31313 0
M  V30 28734 H 2735.69 -1.19517 2.24917 0
M  V30 28735 H 2736.47 -0.015228 3.43297 0
M  V30 28736 N 2738.92 -1.50356 -0.472329 0
M  V30 28737 C 2740.33 -1.54156 -1.05323 0
M  V30 28738 C 2740.68 -0.344337 -1.93155 0
M  V30 28739 O 2739.81 0.542892 -2.09479 0
M  V30 28740 C 2740.4 -2.7936 -1.91686 0
M  V30 28741 C 2738.96 -2.85845 -2.44887 0
M  V30 28742 C 2738.11 -2.48429 -1.23201 0
M  V30 28743 H 2741.06 -1.56638 -0.254999 0
M  V30 28744 H 2741.08 -2.61145 -2.76738 0
M  V30 28745 H 2740.59 -3.66477 -1.27734 0
M  V30 28746 H 2738.69 -2.03076 -3.12396 0
M  V30 28747 H 2738.81 -3.88706 -2.80079 0
M  V30 28748 H 2737.17 -2.00839 -1.56639 0
M  V30 28749 H 2737.95 -3.37853 -0.609134 0
M  V30 28750 N 2740.4 0.725419 -1.39912 0
M  V30 28751 C 2741.36 1.82119 -1.3916 0
M  V30 28752 C 2742.36 1.58217 -0.287046 0
M  V30 28753 O 2743.55 1.6544 -0.54545 0
M  V30 28754 C 2740.68 3.2006 -1.17366 0
M  V30 28755 H 2741.88 1.84187 -2.36675 0
M  V30 28756 H 2739.43 0.930057 -1.25617 0
M  V30 28757 H 2740.16 3.23647 -0.205705 0
M  V30 28758 H 2739.95 3.38806 -1.97364 0
M  V30 28759 H 2741.44 4.00106 -1.19603 0
M  V30 28760 N 2741.88 1.25246 0.956615 0
M  V30 28761 C 2743.29 1.09015 1.51567 0
M  V30 28762 C 2743.64 -0.334779 1.93323 0
M  V30 28763 O 2742.76 -1.22451 1.78423 0
M  V30 28764 C 2743.36 1.97276 2.75441 0
M  V30 28765 C 2741.92 1.85236 3.27665 0
M  V30 28766 C 2741.06 1.91546 2.00513 0
M  V30 28767 H 2744.01 1.38561 0.773722 0
M  V30 28768 H 2744.04 1.51158 3.49187 0
M  V30 28769 H 2743.55 3.00977 2.45019 0
M  V30 28770 H 2741.65 0.844109 3.62913 0
M  V30 28771 H 2741.76 2.69938 3.95816 0
M  V30 28772 H 2740.13 1.35407 2.15724 0
M  V30 28773 H 2740.91 2.96847 1.72443 0
M  V30 28774 N 2743.35 -1.15894 1.068 0
M  V30 28775 C 2744.28 -2.22612 0.704716 0
M  V30 28776 C 2745.26 -1.67339 -0.305222 0
M  V30 28777 O 2746.45 -1.93371 -0.179213 0
M  V30 28778 C 2743.58 -3.47168 0.0957935 0
M  V30 28779 C 2742.53 -4.15365 1.03227 0
M  V30 28780 C 2741.86 -5.33933 0.286386 0
M  V30 28781 C 2743.16 -4.65764 2.3635 0
M  V30 28782 H 2744.85 -2.53256 1.59693 0
M  V30 28783 H 2742.4 -1.2173 0.769278 0
M  V30 28784 H 2744.35 -4.21056 -0.170259 0
M  V30 28785 H 2743.08 -3.15839 -0.831461 0
M  V30 28786 H 2741.74 -3.43411 1.28315 0
M  V30 28787 H 2741.38 -4.98858 -0.644149 0
M  V30 28788 H 2741.08 -5.80502 0.910538 0
M  V30 28789 H 2742.61 -6.10594 0.0280011 0
M  V30 28790 H 2744.02 -5.31207 2.15619 0
M  V30 28791 H 2742.42 -5.22975 2.94308 0
M  V30 28792 H 2743.49 -3.817 2.99054 0
M  V30 28793 N 2744.83 -0.851312 -1.32629 0
M  V30 28794 C 2746.06 -0.466042 -2.02096 0
M  V30 28795 C 2746.48 0.92868 -1.63576 0
M  V30 28796 O 2745.84 1.60943 -0.834694 0
M  V30 28797 C 2745.89 -0.6088 -3.55424 0
M  V30 28798 O 2744.99 0.359806 -4.10827 0
M  V30 28799 H 2744.33 -0.187735 -0.636908 0
M  V30 28800 H 2746.86 -1.14958 -1.69251 0
M  V30 28801 H 2746.87 -0.495077 -4.04985 0
M  V30 28802 H 2745.55 -1.62588 -3.82803 0
M  V30 28803 H 2744.12 0.202601 -3.72349 0
M  V30 28804 N 2746.31 1.45361 -0.608928 0
M  V30 28805 C 2747.72 1.85735 -0.189544 0
M  V30 28806 C 2748.07 1.50905 1.25387 0
M  V30 28807 O 2747.2 0.936381 1.95092 0
M  V30 28808 C 2747.79 3.37118 -0.337219 0
M  V30 28809 C 2746.35 3.7639 0.0274826 0
M  V30 28810 C 2745.5 2.69306 -0.661031 0
M  V30 28811 H 2748.45 1.36143 -0.815523 0
M  V30 28812 H 2748.47 3.7806 0.43019 0
M  V30 28813 H 2747.98 3.62437 -1.38785 0
M  V30 28814 H 2746.08 3.56688 1.07724 0
M  V30 28815 H 2746.2 4.77691 -0.367102 0
M  V30 28816 H 2744.56 2.54509 -0.0985405 0
M  V30 28817 H 2745.34 2.97461 -1.71382 0
M  V30 28818 N 2747.79 0.348166 1.53706 0
M  V30 28819 C 2748.75 -0.494019 2.23813 0
M  V30 28820 C 2749.75 -1.02386 1.23991 0
M  V30 28821 O 2750.94 -0.91237 1.48396 0
M  V30 28822 C 2748.07 -1.68867 2.96136 0
M  V30 28823 H 2749.27 0.119193 2.99663 0
M  V30 28824 H 2746.82 0.0995813 1.55982 0
M  V30 28825 H 2747.55 -2.34045 2.24485 0
M  V30 28826 H 2747.34 -1.3159 3.6936 0
M  V30 28827 H 2748.83 -2.28591 3.49479 0
M  V30 28828 N 2749.27 -1.57412 0.0768958 0
M  V30 28829 C 2750.68 -1.81071 -0.455006 0
M  V30 28830 C 2751.03 -0.991192 -1.69322 0
M  V30 28831 O 2750.15 -0.215194 -2.15327 0
M  V30 28832 C 2750.75 -3.28419 -0.832258 0
M  V30 28833 C 2749.31 -3.52905 -1.309 0
M  V30 28834 C 2748.45 -2.75709 -0.296666 0
M  V30 28835 H 2751.4 -1.5579 0.302541 0
M  V30 28836 H 2751.43 -3.40747 -1.69327 0
M  V30 28837 H 2750.94 -3.88038 0.0691214 0
M  V30 28838 H 2749.04 -2.98596 -2.2287 0
M  V30 28839 H 2749.15 -4.6159 -1.2834 0
M  V30 28840 H 2747.52 -2.42622 -0.775017 0
M  V30 28841 H 2748.3 -3.38068 0.597075 0
M  V30 28842 N 2750.74 0.196695 -1.56368 0
M  V30 28843 C 2751.99 0.915522 -1.80174 0
M  V30 28844 C 2752.31 1.83859 -0.649682 0
M  V30 28845 O 2751.58 1.93065 0.332077 0
M  V30 28846 H 2750.16 0.341055 -0.664598 0
M  V30 28847 H 2752.83 0.202588 -1.93844 0
M  V30 28848 H 2751.92 1.50759 -2.73273 0
M  V30 28849 N 2752.22 1.50604 0.464349 0
M  V30 28850 C 2753.63 1.54712 1.04504 0
M  V30 28851 C 2753.98 0.354576 1.92969 0
M  V30 28852 O 2753.11 -0.531775 2.09764 0
M  V30 28853 C 2753.7 2.80372 1.90202 0
M  V30 28854 C 2752.26 2.87139 2.43368 0
M  V30 28855 C 2751.41 2.49078 1.21882 0
M  V30 28856 H 2754.36 1.56771 0.246689 0
M  V30 28857 H 2754.38 2.62609 2.75349 0
M  V30 28858 H 2753.89 3.67149 1.25789 0
M  V30 28859 H 2752 2.0473 3.11314 0
M  V30 28860 H 2752.11 3.90186 2.78014 0
M  V30 28861 H 2750.47 2.01667 1.55572 0
M  V30 28862 H 2751.26 3.38171 0.591209 0
M  V30 28863 N 2753.7 -0.717989 1.40295 0
M  V30 28864 C 2755.11 -1.29703 1.34291 0
M  V30 28865 C 2755.46 -1.96194 0.0152573 0
M  V30 28866 O 2754.59 -1.97396 -0.886785 0
M  V30 28867 C 2755.18 -2.35855 2.43223 0
M  V30 28868 C 2753.74 -2.8939 2.40687 0
M  V30 28869 C 2752.89 -1.6315 2.24226 0
M  V30 28870 H 2755.84 -0.514286 1.50136 0
M  V30 28871 H 2755.86 -3.16643 2.10992 0
M  V30 28872 H 2755.37 -1.87433 3.39839 0
M  V30 28873 H 2753.47 -3.42049 1.47762 0
M  V30 28874 H 2753.59 -3.41347 3.36183 0
M  V30 28875 H 2751.95 -1.88126 1.71699 0
M  V30 28876 H 2752.73 -1.16755 3.22836 0
M  V30 28877 N 2755.18 -1.25752 -0.94996 0
M  V30 28878 C 2756.41 -1.1353 -1.7297 0
M  V30 28879 C 2756.82 0.31042 -1.86231 0
M  V30 28880 O 2756.18 1.21318 -1.36339 0
M  V30 28881 C 2756.23 -1.78942 -3.14105 0
M  V30 28882 O 2755.95 -3.17863 -3.01487 0
M  V30 28883 C 2757.45 -1.72561 -4.08335 0
M  V30 28884 H 2754.67 -0.395768 -0.541857 0
M  V30 28885 H 2757.22 -1.66205 -1.19148 0
M  V30 28886 H 2755.37 -1.30227 -3.64856 0
M  V30 28887 H 2755.78 -3.50098 -3.90553 0
M  V30 28888 H 2757.26 -2.22981 -5.04959 0
M  V30 28889 H 2757.74 -0.690327 -4.33741 0
M  V30 28890 H 2758.34 -2.20786 -3.63502 0
M  V30 28891 N 2756.66 1.15326 -1.07413 0
M  V30 28892 C 2758.07 1.67714 -0.82029 0
M  V30 28893 C 2758.42 1.84961 0.654507 0
M  V30 28894 O 2757.54 1.55339 1.50661 0
M  V30 28895 C 2758.14 3.04644 -1.48247 0
M  V30 28896 C 2756.7 3.54107 -1.27612 0
M  V30 28897 C 2755.84 2.29818 -1.55174 0
M  V30 28898 H 2758.8 0.99531 -1.23609 0
M  V30 28899 H 2758.82 3.69604 -0.904049 0
M  V30 28900 H 2758.33 2.9206 -2.55583 0
M  V30 28901 H 2756.43 3.71932 -0.223013 0
M  V30 28902 H 2756.54 4.35508 -1.99675 0
M  V30 28903 H 2754.91 2.35391 -0.972788 0
M  V30 28904 H 2755.69 2.1982 -2.63693 0
M  V30 28905 N 2758.13 0.858334 1.32176 0
M  V30 28906 C 2759.1 0.310628 2.27085 0
M  V30 28907 C 2760.1 -0.53178 1.51752 0
M  V30 28908 O 2761.29 -0.34276 1.70795 0
M  V30 28909 C 2758.42 -0.56012 3.36267 0
M  V30 28910 H 2759.61 1.14835 2.77043 0
M  V30 28911 H 2757.17 0.632967 1.4291 0
M  V30 28912 H 2757.9 -1.41951 2.91583 0
M  V30 28913 H 2757.69 0.0429162 3.92077 0
M  V30 28914 H 2759.18 -0.935984 4.06976 0
M  V30 28915 N 2759.61 -1.45036 0.616628 0
M  V30 28916 C 2761.02 -1.85632 0.199391 0
M  V30 28917 C 2761.37 -1.51568 -1.24585 0
M  V30 28918 O 2760.5 -0.946714 -1.94593 0
M  V30 28919 C 2761.09 -3.36934 0.355093 0
M  V30 28920 C 2759.65 -3.76399 -0.00752132 0
M  V30 28921 C 2758.8 -2.68952 0.675303 0
M  V30 28922 H 2761.75 -1.35709 0.822732 0
M  V30 28923 H 2761.77 -3.78283 -0.410135 0
M  V30 28924 H 2761.28 -3.61695 1.40705 0
M  V30 28925 H 2759.39 -3.57254 -1.05831 0
M  V30 28926 H 2759.5 -4.7749 0.39243 0
M  V30 28927 H 2757.86 -2.54453 0.112036 0
M  V30 28928 H 2758.65 -2.96548 1.72957 0
M  V30 28929 N 2761.09 -0.356312 -1.53519 0
M  V30 28930 C 2762 0.502672 -2.29151 0
M  V30 28931 C 2763.02 1.10077 -1.34755 0
M  V30 28932 O 2764.19 1.11371 -1.67805 0
M  V30 28933 C 2761.26 1.63148 -3.05914 0
M  V30 28934 C 2760.32 1.06186 -4.1596 0
M  V30 28935 C 2759.55 2.13688 -4.89053 0
M  V30 28936 O 2759.77 3.34637 -4.61924 0
M  V30 28937 O 2758.71 1.77265 -5.75205 0
M  V30 28938 H 2762.53 -0.11252 -3.03491 0
M  V30 28939 H 2760.12 -0.120968 -1.48909 0
M  V30 28940 H 2762 2.28798 -3.53878 0
M  V30 28941 H 2760.68 2.23225 -2.34419 0
M  V30 28942 H 2759.58 0.369538 -3.7227 0
M  V30 28943 H 2760.92 0.505786 -4.89594 0
M  V30 28944 N 2762.57 1.57369 -0.0852427 0
M  V30 28945 C 2763.79 1.98747 0.592838 0
M  V30 28946 C 2764.22 0.963717 1.61537 0
M  V30 28947 O 2763.58 -0.0690391 1.81169 0
M  V30 28948 C 2763.62 3.39121 1.22593 0
M  V30 28949 O 2762.73 3.39461 2.34179 0
M  V30 28950 H 2762.07 0.646532 0.151303 0
M  V30 28951 H 2764.6 2.03944 -0.163739 0
M  V30 28952 H 2764.61 3.76601 1.56959 0
M  V30 28953 H 2763.28 4.13158 0.476759 0
M  V30 28954 H 2761.86 3.13767 2.01507 0
M  V30 28955 N 2764.05 -0.188399 1.5647 0
M  V30 28956 C 2765 -1.2377 1.91481 0
M  V30 28957 C 2765.98 -1.40662 0.781215 0
M  V30 28958 O 2767.17 -1.4292 1.04417 0
M  V30 28959 C 2764.3 -2.58102 2.26358 0
M  V30 28960 C 2763.39 -2.44975 3.46191 0
M  V30 28961 N 2763.78 -2.01537 4.63914 0
M  V30 28962 C 2762.08 -2.7585 3.50461 0
M  V30 28963 C 2762.78 -2.00463 5.46067 0
M  V30 28964 N 2761.75 -2.42221 4.86652 0
M  V30 28965 H 2765.56 -0.89329 2.79996 0
M  V30 28966 H 2763.07 -0.396793 1.57478 0
M  V30 28967 H 2765.07 -3.33903 2.49628 0
M  V30 28968 H 2763.73 -2.93361 1.39174 0
M  V30 28969 H 2764.74 -1.72141 4.88455 0
M  V30 28970 H 2761.41 -3.1526 2.7371 0
M  V30 28971 H 2762.8 -1.68722 6.50371 0
M  V30 28972 N 2765.53 -1.50848 -0.456355 0
M  V30 28973 C 2766.75 -1.66351 -1.23024 0
M  V30 28974 C 2767.17 -0.3529 -1.85473 0
M  V30 28975 O 2766.53 0.666709 -1.69886 0
M  V30 28976 C 2766.58 -2.76543 -2.32822 0
M  V30 28977 O 2766.3 -4.02525 -1.72931 0
M  V30 28978 C 2767.8 -3.0315 -3.23443 0
M  V30 28979 H 2765.02 -0.558763 -0.371517 0
M  V30 28980 H 2767.56 -1.97158 -0.543047 0
M  V30 28981 H 2765.72 -2.4839 -2.9729 0
M  V30 28982 H 2766.13 -4.63578 -2.45349 0
M  V30 28983 H 2767.61 -3.83879 -3.96662 0
M  V30 28984 H 2768.08 -2.148 -3.8309 0
M  V30 28985 H 2768.69 -3.32891 -2.64696 0
M  V30 28986 N 2767 0.710538 -1.40674 0
M  V30 28987 C 2768.41 1.28989 -1.34977 0
M  V30 28988 C 2768.77 1.96183 -0.0256617 0
M  V30 28989 O 2767.89 1.97863 0.876304 0
M  V30 28990 C 2768.49 2.34562 -2.44471 0
M  V30 28991 C 2767.04 2.8811 -2.42219 0
M  V30 28992 C 2766.19 1.61959 -2.25088 0
M  V30 28993 H 2769.14 0.506317 -1.50407 0
M  V30 28994 H 2769.16 3.15519 -2.12668 0
M  V30 28995 H 2768.68 1.85628 -3.40828 0
M  V30 28996 H 2766.78 3.4126 -1.49574 0
M  V30 28997 H 2766.89 3.39559 -3.37989 0
M  V30 28998 H 2765.25 1.87213 -1.72694 0
M  V30 28999 H 2766.04 1.15042 -3.23451 0
M  V30 29000 N 2768.48 1.26254 0.943277 0
M  V30 29001 C 2769.44 1.07693 2.02324 0
M  V30 29002 C 2770.44 0.0259457 1.60779 0
M  V30 29003 O 2771.63 0.269164 1.72108 0
M  V30 29004 C 2768.77 0.637579 3.34885 0
M  V30 29005 H 2769.96 2.03574 2.20222 0
M  V30 29006 H 2767.51 1.08821 1.12195 0
M  V30 29007 H 2768.25 -0.323321 3.22684 0
M  V30 29008 H 2768.03 1.39643 3.66391 0
M  V30 29009 H 2769.52 0.529491 4.1423 0
M  V30 29010 N 2769.96 -1.14755 1.08024 0
M  V30 29011 C 2771.37 -1.67277 0.829173 0
M  V30 29012 C 2771.72 -1.85306 -0.644689 0
M  V30 29013 O 2770.85 -1.56136 -1.49835 0
M  V30 29014 C 2771.44 -3.03854 1.49861 0
M  V30 29015 C 2770 -3.53426 1.29488 0
M  V30 29016 C 2769.15 -2.28992 1.5639 0
M  V30 29017 H 2772.1 -0.988741 1.24135 0
M  V30 29018 H 2772.12 -3.69119 0.923637 0
M  V30 29019 H 2771.63 -2.907 2.57128 0
M  V30 29020 H 2769.73 -3.71808 0.242735 0
M  V30 29021 H 2769.85 -4.34443 2.01981 0
M  V30 29022 H 2768.21 -2.34872 0.985258 0
M  V30 29023 H 2768.99 -2.18418 2.64855 0
M  V30 29024 N 2771.44 -0.865331 -1.31719 0
M  V30 29025 C 2772.68 -0.473966 -1.96875 0
M  V30 29026 C 2773.01 0.972757 -1.68427 0
M  V30 29027 O 2772.27 1.69925 -0.970772 0
M  V30 29028 C 2772.57 -0.672345 -3.51019 0
M  V30 29029 C 2772.23 -2.09115 -3.99477 0
M  V30 29030 C 2770.89 -2.47917 -4.1242 0
M  V30 29031 C 2773.25 -3.01667 -4.25025 0
M  V30 29032 C 2770.57 -3.78523 -4.48261 0
M  V30 29033 C 2772.93 -4.31782 -4.62328 0
M  V30 29034 C 2771.59 -4.70505 -4.73478 0
M  V30 29035 H 2770.86 -0.173436 -0.720417 0
M  V30 29036 H 2773.51 -1.09743 -1.56935 0
M  V30 29037 H 2771.81 0.0342871 -3.91785 0
M  V30 29038 H 2773.51 -0.349424 -3.99475 0
M  V30 29039 H 2770.1 -1.77988 -3.89895 0
M  V30 29040 H 2774.28 -2.72917 -4.14524 0
M  V30 29041 H 2769.54 -4.08293 -4.5509 0
M  V30 29042 H 2773.71 -5.03552 -4.81049 0
M  V30 29043 H 2771.34 -5.71749 -5.01006 0
M  V30 29044 N 2772.92 1.44707 -0.624311 0
M  V30 29045 C 2774.14 2.06985 -0.131207 0
M  V30 29046 C 2774.57 1.46298 1.18231 0
M  V30 29047 O 2773.92 0.561872 1.72374 0
M  V30 29048 C 2773.97 3.60593 -0.0227358 0
M  V30 29049 O 2773.08 3.99508 1.02307 0
M  V30 29050 H 2772.42 0.658959 -0.0816672 0
M  V30 29051 H 2774.95 1.85691 -0.85906 0
M  V30 29052 H 2774.96 4.07645 0.170066 0
M  V30 29053 H 2773.63 4.04146 -0.981757 0
M  V30 29054 H 2772.21 3.64099 0.805388 0
M  V30 29055 N 2774.39 0.364449 1.53328 0
M  V30 29056 C 2775.64 -0.218514 2.02223 0
M  V30 29057 C 2775.99 -1.46514 1.24705 0
M  V30 29058 O 2775.29 -1.88702 0.332002 0
M  V30 29059 C 2775.48 -0.564599 3.52912 0
M  V30 29060 C 2775.31 0.646941 4.45022 0
M  V30 29061 C 2774.08 1.15867 4.91836 0
M  V30 29062 C 2776.28 1.51181 4.91578 0
M  V30 29063 N 2774.26 2.33035 5.67951 0
M  V30 29064 C 2775.63 2.53016 5.66024 0
M  V30 29065 C 2777.69 1.53482 4.73654 0
M  V30 29066 C 2776.39 3.57007 6.2445 0
M  V30 29067 C 2778.42 2.56366 5.32945 0
M  V30 29068 C 2777.78 3.56925 6.07276 0
M  V30 29069 H 2773.88 -0.0427062 0.780833 0
M  V30 29070 H 2776.46 0.508737 1.87936 0
M  V30 29071 H 2774.63 -1.26093 3.67362 0
M  V30 29072 H 2776.36 -1.13256 3.8853 0
M  V30 29073 H 2773.12 0.723476 4.68041 0
M  V30 29074 H 2773.54 2.92252 6.1067 0
M  V30 29075 H 2778.18 0.770915 4.15712 0
M  V30 29076 H 2775.9 4.3428 6.81488 0
M  V30 29077 H 2779.49 2.58998 5.20971 0
M  V30 29078 H 2778.37 4.3523 6.52338 0
M  V30 29079 N 2775.87 -1.57322 0.0935872 0
M  V30 29080 C 2777.12 -1.93914 -0.569348 0
M  V30 29081 C 2777.44 -0.976039 -1.68815 0
M  V30 29082 O 2776.71 -0.0278443 -1.9588 0
M  V30 29083 H 2775.29 -0.715897 -0.213307 0
M  V30 29084 H 2777.95 -1.9427 0.156565 0
M  V30 29085 H 2777.05 -2.96297 -0.980525 0
M  V30 29086 N 2777.35 0.180099 -1.56568 0
M  V30 29087 C 2778.58 0.913939 -1.8562 0
M  V30 29088 C 2778.99 1.76209 -0.677923 0
M  V30 29089 O 2778.35 1.79051 0.35314 0
M  V30 29090 C 2778.4 1.79787 -3.13622 0
M  V30 29091 O 2778.12 0.983945 -4.26908 0
M  V30 29092 C 2779.62 2.64212 -3.55959 0
M  V30 29093 H 2776.84 0.265944 -0.616048 0
M  V30 29094 H 2779.39 0.182836 -2.03681 0
M  V30 29095 H 2777.54 2.48242 -2.97413 0
M  V30 29096 H 2777.96 1.58767 -4.99893 0
M  V30 29097 H 2779.43 3.21865 -4.48449 0
M  V30 29098 H 2779.91 3.38656 -2.79659 0
M  V30 29099 H 2780.51 2.01104 -3.74749 0
M  V30 29100 N 2778.83 1.51088 0.448349 0
M  V30 29101 C 2779.79 1.71028 1.52585 0
M  V30 29102 C 2780.79 0.580468 1.49957 0
M  V30 29103 O 2781.98 0.84786 1.52174 0
M  V30 29104 C 2779.11 1.75657 2.9216 0
M  V30 29105 H 2780.31 2.67181 1.36213 0
M  V30 29106 H 2777.86 1.40911 0.676288 0
M  V30 29107 H 2778.59 0.81278 3.1395 0
M  V30 29108 H 2778.38 2.57756 2.95473 0
M  V30 29109 H 2779.87 1.9296 3.70346 0
M  V30 29110 N 2780.31 -0.703068 1.41049 0
M  V30 29111 C 2781.22 -1.847 1.44648 0
M  V30 29112 C 2782.23 -1.70689 0.337808 0
M  V30 29113 O 2783.41 -1.92736 0.584361 0
M  V30 29114 C 2780.47 -3.20615 1.31934 0
M  V30 29115 C 2779.53 -3.46789 2.53053 0
M  V30 29116 C 2778.77 -4.7622 2.40936 0
M  V30 29117 O 2778.99 -5.52187 1.42988 0
M  V30 29118 O 2777.92 -5.0301 3.30552 0
M  V30 29119 H 2781.75 -1.84619 2.41142 0
M  V30 29120 H 2779.34 -0.855145 1.22506 0
M  V30 29121 H 2781.22 -4.01776 1.27099 0
M  V30 29122 H 2779.89 -3.21396 0.385525 0
M  V30 29123 H 2778.8 -2.65589 2.63464 0
M  V30 29124 H 2780.13 -3.50816 3.45237 0
M  V30 29125 N 2781.78 -1.26752 -0.936569 0
M  V30 29126 C 2783.01 -1.15191 -1.71507 0
M  V30 29127 C 2783.42 0.295004 -1.86886 0
M  V30 29128 O 2782.77 1.21344 -1.37918 0
M  V30 29129 C 2782.83 -1.75324 -3.1385 0
M  V30 29130 C 2782.49 -3.24451 -3.21839 0
M  V30 29131 C 2783.49 -4.21207 -3.04764 0
M  V30 29132 C 2781.17 -3.64998 -3.45082 0
M  V30 29133 C 2783.17 -5.56487 -3.10806 0
M  V30 29134 C 2780.85 -5.00411 -3.50759 0
M  V30 29135 C 2781.85 -5.95965 -3.33638 0
M  V30 29136 O 2781.54 -7.28912 -3.39032 0
M  V30 29137 H 2781.27 -0.401771 -0.543651 0
M  V30 29138 H 2783.83 -1.6796 -1.18231 0
M  V30 29139 H 2782.06 -1.17023 -3.68568 0
M  V30 29140 H 2783.75 -1.58603 -3.73631 0
M  V30 29141 H 2784.51 -3.91219 -2.86658 0
M  V30 29142 H 2780.39 -2.91105 -3.57462 0
M  V30 29143 H 2783.93 -6.31049 -2.97361 0
M  V30 29144 H 2779.83 -5.30058 -3.68386 0
M  V30 29145 H 2780.6 -7.37245 -3.55545 0
M  V30 29146 N 2783.26 1.1418 -1.08631 0
M  V30 29147 C 2784.54 1.81465 -0.730051 0
M  V30 29148 C 2784.92 1.95923 0.785961 0
M  V30 29149 O 2784.27 1.52089 1.70532 0
M  V30 29150 C 2784.48 3.17011 -1.45962 0
M  V30 29151 C 2785.83 3.92475 -1.62015 0
M  V30 29152 O 2786.85 3.26608 -1.42147 0
M  V30 29153 O 2785.71 5.10597 -1.94815 0
M  V30 29154 H 2782.8 0.784628 -0.26132 0
M  V30 29155 H 2785.35 1.21178 -1.18802 0
M  V30 29156 H 2784.12 3.01665 -2.49227 0
M  V30 29157 H 2783.74 3.84993 -0.993289 0
M  V30 29158 N 2784.74 0.872304 1.31258 0
M  V30 29159 C 2785.97 0.498135 2.01329 0
M  V30 29160 C 2786.39 -0.902539 1.65033 0
M  V30 29161 O 2785.75 -1.59594 0.860193 0
M  V30 29162 C 2785.8 0.665268 3.5441 0
M  V30 29163 O 2784.9 -0.294401 4.11348 0
M  V30 29164 H 2784.24 0.197844 0.633841 0
M  V30 29165 H 2786.77 1.17636 1.674 0
M  V30 29166 H 2786.78 0.559444 4.04146 0
M  V30 29167 H 2785.46 1.68657 3.80168 0
M  V30 29168 H 2784.03 -0.143337 3.72624 0
M  V30 29169 N 2786.22 -1.44374 0.631976 0
M  V30 29170 C 2787.46 -2.02337 0.137005 0
M  V30 29171 C 2787.8 -1.49604 -1.23824 0
M  V30 29172 O 2787.07 -0.680447 -1.82209 0
M  V30 29173 C 2787.36 -3.59884 0.1246 0
M  V30 29174 C 2787.21 -4.22898 1.53224 0
M  V30 29175 C 2788.53 -4.36645 -0.550404 0
M  V30 29176 H 2785.65 -0.735215 0.0512599 0
M  V30 29177 H 2788.29 -1.71935 0.808612 0
M  V30 29178 H 2786.44 -3.85916 -0.447303 0
M  V30 29179 H 2788.11 -4.0797 2.1531 0
M  V30 29180 H 2786.35 -3.8036 2.08587 0
M  V30 29181 H 2787.02 -5.31912 1.47559 0
M  V30 29182 H 2789.5 -4.16051 -0.0640423 0
M  V30 29183 H 2788.38 -5.46352 -0.528275 0
M  V30 29184 H 2788.64 -4.11314 -1.6209 0
M  V30 29185 N 2787.7 -0.372575 -1.53133 0
M  V30 29186 C 2788.94 0.215242 -2.01655 0
M  V30 29187 C 2789.28 1.47847 -1.25916 0
M  V30 29188 O 2788.55 1.91236 -0.354833 0
M  V30 29189 C 2788.83 0.500125 -3.5661 0
M  V30 29190 C 2788.69 -0.777223 -4.43034 0
M  V30 29191 C 2790.01 1.29779 -4.2053 0
M  V30 29192 H 2787.12 0.0767557 -0.732992 0
M  V30 29193 H 2789.77 -0.498846 -1.83334 0
M  V30 29194 H 2787.92 1.10845 -3.72351 0
M  V30 29195 H 2789.59 -1.41455 -4.39077 0
M  V30 29196 H 2787.83 -1.39611 -4.1072 0
M  V30 29197 H 2788.5 -0.532758 -5.49423 0
M  V30 29198 H 2790.98 0.783126 -4.08664 0
M  V30 29199 H 2789.85 1.46586 -5.28965 0
M  V30 29200 H 2790.12 2.30829 -3.77055 0
M  V30 29201 N 2789.17 1.5727 -0.101929 0
M  V30 29202 C 2790.14 2.13249 0.840092 0
M  V30 29203 C 2791.14 1.06333 1.20623 0
M  V30 29204 O 2792.33 1.32188 1.13454 0
M  V30 29205 C 2789.46 2.6587 2.13368 0
M  V30 29206 H 2790.65 2.97805 0.353892 0
M  V30 29207 H 2788.21 1.55606 0.14714 0
M  V30 29208 H 2788.94 1.84854 2.66457 0
M  V30 29209 H 2788.73 3.44048 1.88079 0
M  V30 29210 H 2790.22 3.0915 2.80742 0
M  V30 29211 N 2790.65 -0.171793 1.56661 0
M  V30 29212 C 2791.62 -1.19648 1.95492 0
M  V30 29213 C 2792.62 -1.37206 0.838525 0
M  V30 29214 O 2793.81 -1.3462 1.10558 0
M  V30 29215 C 2790.94 -2.56162 2.24931 0
M  V30 29216 H 2792.13 -0.863956 2.87186 0
M  V30 29217 H 2789.68 -0.414223 1.50711 0
M  V30 29218 H 2790.42 -2.94429 1.35949 0
M  V30 29219 H 2790.2 -2.44784 3.06306 0
M  V30 29220 H 2791.69 -3.3001 2.55897 0
M  V30 29221 N 2792.13 -1.51324 -0.44033 0
M  V30 29222 C 2793.38 -1.64087 -1.19178 0
M  V30 29223 C 2793.71 -0.354609 -1.90935 0
M  V30 29224 O 2792.98 0.645643 -1.83471 0
M  V30 29225 C 2793.27 -2.84218 -2.21115 0
M  V30 29226 C 2793.12 -4.22812 -1.5346 0
M  V30 29227 C 2794.44 -2.9987 -3.22127 0
M  V30 29228 H 2791.56 -0.597176 -0.431914 0
M  V30 29229 H 2794.2 -1.838 -0.48141 0
M  V30 29230 H 2792.35 -2.67542 -2.81698 0
M  V30 29231 H 2794.02 -4.5115 -0.962376 0
M  V30 29232 H 2792.27 -4.25648 -0.837011 0
M  V30 29233 H 2792.94 -5.02856 -2.27685 0
M  V30 29234 H 2795.41 -3.15238 -2.71596 0
M  V30 29235 H 2794.29 -3.85495 -3.90749 0
M  V30 29236 H 2794.55 -2.1181 -3.88058 0
M  V30 29237 N 2793.61 0.695578 -1.41419 0
M  V30 29238 C 2794.54 1.82089 -1.39198 0
M  V30 29239 C 2795.55 1.6012 -0.294161 0
M  V30 29240 O 2796.74 1.69624 -0.555884 0
M  V30 29241 C 2793.84 3.18852 -1.14834 0
M  V30 29242 C 2793.02 3.67849 -2.36656 0
M  V30 29243 C 2792.07 4.83281 -2.08148 0
M  V30 29244 O 2791.1 4.94897 -2.81186 0
M  V30 29245 N 2792.3 5.70521 -1.07173 0
M  V30 29246 H 2795.07 1.84487 -2.36188 0
M  V30 29247 H 2792.63 0.877899 -1.36031 0
M  V30 29248 H 2794.62 3.937 -0.937144 0
M  V30 29249 H 2793.19 3.1148 -0.264413 0
M  V30 29250 H 2792.41 2.83908 -2.73477 0
M  V30 29251 H 2793.7 3.97323 -3.17823 0
M  V30 29252 H 2793.1 5.63767 -0.467223 0
M  V30 29253 H 2791.65 6.45268 -0.920424 0
M  V30 29254 N 2795.09 1.27247 0.929833 0
M  V30 29255 C 2796 1.11596 2.06358 0
M  V30 29256 C 2797.01 0.0465266 1.73938 0
M  V30 29257 O 2798.19 0.252579 1.9981 0
M  V30 29258 C 2795.25 0.762497 3.38211 0
M  V30 29259 C 2794.32 1.91257 3.84343 0
M  V30 29260 C 2793.55 1.57588 5.09904 0
M  V30 29261 O 2793.77 0.482793 5.68353 0
M  V30 29262 O 2792.71 2.41436 5.51355 0
M  V30 29263 H 2796.53 2.06734 2.22474 0
M  V30 29264 H 2794.12 1.06415 1.04863 0
M  V30 29265 H 2796 0.578614 4.17409 0
M  V30 29266 H 2794.67 -0.159382 3.23307 0
M  V30 29267 H 2793.58 2.1515 3.06041 0
M  V30 29268 H 2794.91 2.81458 4.03785 0
M  V30 29269 N 2796.57 -1.13603 1.09235 0
M  V30 29270 C 2797.81 -1.84469 0.825558 0
M  V30 29271 C 2798.13 -1.83824 -0.650669 0
M  V30 29272 O 2797.4 -1.29261 -1.47202 0
M  V30 29273 H 2795.98 -0.683049 0.302412 0
M  V30 29274 H 2798.65 -1.37622 1.38008 0
M  V30 29275 H 2797.74 -2.89042 1.17732 0
M  V30 29276 N 2798.04 -0.879253 -1.30793 0
M  V30 29277 C 2799.01 -0.346716 -2.26562 0
M  V30 29278 C 2800.01 0.50757 -1.52579 0
M  V30 29279 O 2801.2 0.315545 -1.71318 0
M  V30 29280 C 2798.33 0.506552 -3.37116 0
M  V30 29281 H 2799.52 -1.19228 -2.75181 0
M  V30 29282 H 2797.07 -0.655623 -1.41885 0
M  V30 29283 H 2797.81 1.37294 -2.93804 0
M  V30 29284 H 2797.59 -0.105287 -3.91959 0
M  V30 29285 H 2799.08 0.87112 -4.08413 0
M  V30 29286 N 2799.52 1.44037 -0.639624 0
M  V30 29287 C 2800.48 2.29144 0.0506226 0
M  V30 29288 C 2801.48 1.41492 0.763976 0
M  V30 29289 O 2802.67 1.63272 0.60728 0
M  V30 29290 C 2799.81 3.23262 1.08235 0
M  V30 29291 H 2801 2.91663 -0.698038 0
M  V30 29292 H 2798.55 1.5109 -0.400173 0
M  V30 29293 H 2799.29 2.65609 1.8607 0
M  V30 29294 H 2799.07 3.87866 0.574656 0
M  V30 29295 H 2800.56 3.87174 1.56481 0
M  V30 29296 N 2801 0.380691 1.52933 0
M  V30 29297 C 2801.91 -0.466152 2.29922 0
M  V30 29298 C 2802.93 -1.0792 1.36489 0
M  V30 29299 O 2804.1 -1.08687 1.69555 0
M  V30 29300 C 2801.17 -1.58261 3.08471 0
M  V30 29301 C 2800.23 -0.995553 4.17597 0
M  V30 29302 C 2799.46 -2.0588 4.92391 0
M  V30 29303 O 2799.68 -3.27246 4.6719 0
M  V30 29304 O 2798.62 -1.68092 5.77952 0
M  V30 29305 H 2802.44 0.160788 3.03274 0
M  V30 29306 H 2800.03 0.144643 1.48698 0
M  V30 29307 H 2801.91 -2.23139 3.57473 0
M  V30 29308 H 2800.59 -2.19467 2.37941 0
M  V30 29309 H 2799.49 -0.310266 3.72811 0
M  V30 29310 H 2800.83 -0.427831 4.90337 0
M  V30 29311 N 2802.48 -1.57214 0.110268 0
M  V30 29312 C 2803.41 -2.17869 -0.839964 0
M  V30 29313 C 2804.39 -1.11626 -1.2835 0
M  V30 29314 O 2805.57 -1.39826 -1.34767 0
M  V30 29315 C 2802.7 -2.77114 -2.09344 0
M  V30 29316 C 2801.66 -3.88863 -1.788 0
M  V30 29317 C 2800.98 -4.34877 -3.11104 0
M  V30 29318 C 2802.28 -5.11366 -1.06311 0
M  V30 29319 H 2803.98 -2.97525 -0.334555 0
M  V30 29320 H 2801.52 -1.43114 -0.159477 0
M  V30 29321 H 2803.48 -3.18203 -2.76269 0
M  V30 29322 H 2802.2 -1.94735 -2.62194 0
M  V30 29323 H 2800.86 -3.48337 -1.14267 0
M  V30 29324 H 2800.51 -3.49368 -3.61871 0
M  V30 29325 H 2800.21 -5.10229 -2.91444 0
M  V30 29326 H 2801.73 -4.78611 -3.79162 0
M  V30 29327 H 2803.15 -5.49529 -1.63374 0
M  V30 29328 H 2801.54 -5.92245 -0.967772 0
M  V30 29329 H 2802.61 -4.84876 -0.0483717 0
M  V30 29330 N 2803.96 0.163482 -1.5675 0
M  V30 29331 C 2804.87 1.22206 -2.00257 0
M  V30 29332 C 2805.88 1.47986 -0.91522 0
M  V30 29333 O 2807.06 1.5998 -1.22345 0
M  V30 29334 C 2804.12 2.53942 -2.36039 0
M  V30 29335 C 2803.18 2.35956 -3.58641 0
M  V30 29336 C 2802.42 3.61409 -3.92707 0
M  V30 29337 O 2802.64 4.66913 -3.27641 0
M  V30 29338 O 2801.57 3.55053 -4.86026 0
M  V30 29339 H 2805.4 0.882743 -2.90588 0
M  V30 29340 H 2802.98 0.370952 -1.44721 0
M  V30 29341 H 2804.87 3.31639 -2.59988 0
M  V30 29342 H 2803.54 2.87437 -1.48868 0
M  V30 29343 H 2802.45 1.56264 -3.39901 0
M  V30 29344 H 2803.78 2.07382 -4.46378 0
M  V30 29345 N 2805.43 1.51555 0.432299 0
M  V30 29346 C 2806.68 1.64148 1.17898 0
M  V30 29347 C 2807 0.362401 1.91603 0
M  V30 29348 O 2806.27 -0.621936 1.85765 0
M  V30 29349 H 2804.85 0.604974 0.438196 0
M  V30 29350 H 2807.51 1.88506 0.495139 0
M  V30 29351 H 2806.61 2.47156 1.90579 0
M  V30 29352 N 2806.91 -0.688069 1.41786 0
M  V30 29353 C 2808.16 -1.44527 1.41267 0
M  V30 29354 C 2808.48 -1.94984 0.0253289 0
M  V30 29355 O 2807.75 -1.72198 -0.934051 0
M  V30 29356 H 2806.33 -0.536285 0.520007 0
M  V30 29357 H 2808.99 -0.81391 1.77092 0
M  V30 29358 H 2808.09 -2.30478 2.10443 0
M  V30 29359 N 2808.39 -1.27739 -0.923072 0
M  V30 29360 C 2809.8 -1.12995 -1.48624 0
M  V30 29361 C 2810.15 0.283405 -1.94142 0
M  V30 29362 O 2809.28 1.17678 -1.81607 0
M  V30 29363 C 2809.87 -2.0451 -2.70113 0
M  V30 29364 C 2808.43 -1.93858 -3.22639 0
M  V30 29365 C 2807.58 -1.96795 -1.95364 0
M  V30 29366 H 2810.53 -1.40564 -0.736712 0
M  V30 29367 H 2810.55 -1.60362 -3.45057 0
M  V30 29368 H 2810.06 -3.07368 -2.36953 0
M  V30 29369 H 2808.16 -0.940032 -3.60547 0
M  V30 29370 H 2808.28 -2.80338 -3.8852 0
M  V30 29371 H 2806.64 -1.41079 -2.12058 0
M  V30 29372 H 2807.42 -3.01315 -1.64512 0
M  V30 29373 N 2809.87 1.13022 -1.09836 0
M  V30 29374 C 2811.1 1.87955 -0.85769 0
M  V30 29375 C 2811.51 1.79601 0.594976 0
M  V30 29376 O 2810.85 1.1635 1.42156 0
M  V30 29377 C 2810.91 3.38182 -1.21955 0
M  V30 29378 C 2810.58 3.70315 -2.67798 0
M  V30 29379 C 2811.57 3.69201 -3.66042 0
M  V30 29380 C 2809.26 3.99842 -3.04026 0
M  V30 29381 C 2811.25 3.97161 -4.9854 0
M  V30 29382 C 2808.94 4.27463 -4.36713 0
M  V30 29383 C 2809.94 4.26108 -5.3378 0
M  V30 29384 O 2809.62 4.53049 -6.64079 0
M  V30 29385 H 2809.36 0.601748 -0.308019 0
M  V30 29386 H 2811.91 1.4397 -1.46498 0
M  V30 29387 H 2810.14 3.82692 -0.555317 0
M  V30 29388 H 2811.83 3.94448 -0.957351 0
M  V30 29389 H 2812.6 3.4646 -3.39398 0
M  V30 29390 H 2808.47 4.00041 -2.29103 0
M  V30 29391 H 2812.02 3.96019 -5.74295 0
M  V30 29392 H 2807.92 4.49677 -4.63099 0
M  V30 29393 H 2808.68 4.70698 -6.69616 0
M  V30 29394 N 2811.35 0.886177 1.30325 0
M  V30 29395 C 2812.57 0.51946 2.00789 0
M  V30 29396 C 2813 -0.884984 1.65981 0
M  V30 29397 O 2812.35 -1.58673 0.877071 0
M  V30 29398 C 2812.4 0.70282 3.53685 0
M  V30 29399 O 2811.51 -0.250756 4.11637 0
M  V30 29400 H 2810.85 0.204555 0.631707 0
M  V30 29401 H 2813.38 1.19405 1.66143 0
M  V30 29402 H 2813.39 0.602278 4.0353 0
M  V30 29403 H 2812.06 1.7268 3.78357 0
M  V30 29404 H 2810.64 -0.103807 3.72755 0
M  V30 29405 N 2812.82 -1.43695 0.647253 0
M  V30 29406 C 2814.24 -1.85168 0.238722 0
M  V30 29407 C 2814.59 -1.54177 -1.21342 0
M  V30 29408 O 2813.71 -0.987777 -1.92541 0
M  V30 29409 C 2814.31 -3.36105 0.426481 0
M  V30 29410 C 2812.87 -3.76331 0.0723202 0
M  V30 29411 C 2812.01 -2.67459 0.7322 0
M  V30 29412 H 2814.96 -1.33933 0.851333 0
M  V30 29413 H 2814.98 -3.79068 -0.329803 0
M  V30 29414 H 2814.5 -3.5863 1.48346 0
M  V30 29415 H 2812.6 -3.59419 -0.982292 0
M  V30 29416 H 2812.71 -4.7655 0.493625 0
M  V30 29417 H 2811.07 -2.54159 0.165984 0
M  V30 29418 H 2811.86 -2.92812 1.79209 0
M  V30 29419 N 2814.3 -0.388796 -1.52729 0
M  V30 29420 C 2815.23 0.43807 -2.29354 0
M  V30 29421 C 2816.21 1.06392 -1.32721 0
M  V30 29422 O 2817.4 1.07679 -1.61614 0
M  V30 29423 C 2814.53 1.56584 -3.09998 0
M  V30 29424 C 2813.48 1.06606 -4.14511 0
M  V30 29425 C 2812.81 2.28586 -4.83376 0
M  V30 29426 C 2814.11 0.134367 -5.22127 0
M  V30 29427 H 2815.8 -0.201258 -2.98723 0
M  V30 29428 H 2813.35 -0.0982341 -1.43665 0
M  V30 29429 H 2815.3 2.15111 -3.62361 0
M  V30 29430 H 2814.03 2.23274 -2.38361 0
M  V30 29431 H 2812.68 0.503319 -3.63128 0
M  V30 29432 H 2812.33 2.93785 -4.08288 0
M  V30 29433 H 2812.03 1.95807 -5.54016 0
M  V30 29434 H 2813.56 2.87757 -5.38543 0
M  V30 29435 H 2814.97 0.627814 -5.69852 0
M  V30 29436 H 2813.37 -0.103639 -6.0001 0
M  V30 29437 H 2814.44 -0.816882 -4.7797 0
M  V30 29438 N 2815.78 1.57153 -0.118604 0
M  V30 29439 C 2817.03 1.94796 0.538426 0
M  V30 29440 C 2817.35 1.00277 1.67241 0
M  V30 29441 O 2816.62 0.0590036 1.95811 0
M  V30 29442 H 2815.2 0.7192 0.201891 0
M  V30 29443 H 2817.86 1.93996 -0.187452 0
M  V30 29444 H 2816.96 2.9782 0.933262 0
M  V30 29445 N 2817.26 -0.155167 1.56834 0
M  V30 29446 C 2818.21 -1.1918 1.97648 0
M  V30 29447 C 2819.18 -1.43129 0.842813 0
M  V30 29448 O 2820.36 -1.556 1.10423 0
M  V30 29449 C 2817.5 -2.52228 2.35531 0
M  V30 29450 C 2816.61 -2.35522 3.62151 0
M  V30 29451 C 2815.75 -3.61548 3.89174 0
M  V30 29452 C 2814.79 -3.39844 5.0909 0
M  V30 29453 N 2813.92 -4.5798 5.32164 0
M  V30 29454 H 2818.76 -0.836751 2.86011 0
M  V30 29455 H 2816.3 -0.401733 1.41508 0
M  V30 29456 H 2818.26 -3.29794 2.55522 0
M  V30 29457 H 2816.89 -2.85696 1.50258 0
M  V30 29458 H 2815.94 -1.49051 3.49983 0
M  V30 29459 H 2817.25 -2.1544 4.49875 0
M  V30 29460 H 2816.41 -4.47546 4.09619 0
M  V30 29461 H 2815.15 -3.84626 2.99856 0
M  V30 29462 H 2814.15 -2.52235 4.88526 0
M  V30 29463 H 2815.38 -3.18173 5.99952 0
M  V30 29464 H 2813.32 -4.81247 4.458 0
M  V30 29465 H 2813.24 -4.40871 6.14141 0
M  V30 29466 H 2814.51 -5.45215 5.57101 0
M  V30 29467 N 2818.74 -1.51782 -0.424256 0
M  V30 29468 C 2820.01 -1.55648 -1.18462 0
M  V30 29469 C 2820.39 -0.328475 -2.08529 0
M  V30 29470 O 2819.74 0.685654 -2.1797 0
M  V30 29471 C 2819.95 -2.87734 -1.97509 0
M  V30 29472 C 2821.3 -3.40174 -2.541 0
M  V30 29473 O 2822.32 -2.89373 -2.07706 0
M  V30 29474 O 2821.18 -4.28847 -3.38752 0
M  V30 29475 H 2818.28 -0.626324 -0.540044 0
M  V30 29476 H 2820.82 -1.64102 -0.432263 0
M  V30 29477 H 2819.59 -3.68565 -1.31437 0
M  V30 29478 H 2819.22 -2.82503 -2.79782 0
M  V30 29479 N 2820.21 0.68054 -1.42149 0
M  V30 29480 C 2821.44 1.46687 -1.45487 0
M  V30 29481 C 2821.85 1.89095 -0.0629784 0
M  V30 29482 O 2821.2 1.58339 0.931369 0
M  V30 29483 C 2821.26 2.75124 -2.31402 0
M  V30 29484 C 2820.92 2.54828 -3.79357 0
M  V30 29485 C 2821.92 2.198 -4.71152 0
M  V30 29486 C 2819.6 2.70001 -4.23562 0
M  V30 29487 C 2821.6 2.00204 -6.05142 0
M  V30 29488 C 2819.28 2.50021 -5.57613 0
M  V30 29489 C 2820.28 2.15175 -6.4822 0
M  V30 29490 O 2819.97 1.95384 -7.79795 0
M  V30 29491 H 2819.7 0.458062 -0.497147 0
M  V30 29492 H 2822.26 0.844106 -1.87254 0
M  V30 29493 H 2820.49 3.39862 -1.84474 0
M  V30 29494 H 2822.18 3.36987 -2.26263 0
M  V30 29495 H 2822.94 2.07679 -4.38286 0
M  V30 29496 H 2818.82 2.96103 -3.53333 0
M  V30 29497 H 2822.36 1.72929 -6.75826 0
M  V30 29498 H 2818.26 2.61737 -5.90054 0
M  V30 29499 H 2819.03 2.10028 -7.91095 0
M  V30 29500 N 2821.69 1.28226 0.916285 0
M  V30 29501 C 2823.11 1.05878 1.19424 0
M  V30 29502 C 2823.31 -0.200464 2.005 0
M  V30 29503 O 2822.36 -0.902832 2.35808 0
M  V30 29504 C 2823.68 2.30482 1.93129 0
M  V30 29505 C 2825.23 2.35635 2.06022 0
M  V30 29506 C 2825.7 3.59999 2.83134 0
M  V30 29507 N 2827.19 3.60624 2.90697 0
M  V30 29508 C 2827.93 4.53527 3.50857 0
M  V30 29509 N 2827.42 5.56746 4.12317 0
M  V30 29510 N 2829.22 4.41128 3.48372 0
M  V30 29511 H 2821.37 2.09065 0.374923 0
M  V30 29512 H 2823.63 0.920046 0.228515 0
M  V30 29513 H 2823.34 3.22207 1.4098 0
M  V30 29514 H 2823.21 2.36696 2.93692 0
M  V30 29515 H 2825.6 1.44408 2.57352 0
M  V30 29516 H 2825.68 2.33417 1.04643 0
M  V30 29517 H 2825.32 4.51568 2.32484 0
M  V30 29518 H 2825.25 3.5947 3.84823 0
M  V30 29519 H 2827.74 2.85981 2.47029 0
M  V30 29520 H 2828.06 6.23784 4.56194 0
M  V30 29521 H 2826.4 5.60575 4.10829 0
M  V30 29522 H 2829.59 3.59692 2.99566 0
M  V30 29523 H 2829.76 5.13718 3.94965 0
M  V30 29524 N 2823.17 -1.12438 1.10433 0
M  V30 29525 C 2824.12 -2.18166 0.753141 0
M  V30 29526 C 2825.09 -1.63882 -0.27052 0
M  V30 29527 O 2826.27 -1.90211 -0.149804 0
M  V30 29528 C 2823.41 -3.4457 0.191106 0
M  V30 29529 C 2822.53 -4.12908 1.27006 0
M  V30 29530 C 2821.66 -5.26962 0.669679 0
M  V30 29531 C 2820.7 -5.87166 1.72922 0
M  V30 29532 N 2819.84 -6.92633 1.1491 0
M  V30 29533 H 2824.68 -2.47553 1.65896 0
M  V30 29534 H 2822.21 -1.21539 0.828652 0
M  V30 29535 H 2824.17 -4.16921 -0.152638 0
M  V30 29536 H 2822.8 -3.15601 -0.677942 0
M  V30 29537 H 2821.85 -3.38737 1.73093 0
M  V30 29538 H 2823.17 -4.53723 2.07212 0
M  V30 29539 H 2822.32 -6.06075 0.27538 0
M  V30 29540 H 2821.06 -4.87425 -0.16381 0
M  V30 29541 H 2820.06 -5.0674 2.13294 0
M  V30 29542 H 2821.29 -6.28774 2.56555 0
M  V30 29543 H 2819.23 -6.55133 0.337071 0
M  V30 29544 H 2819.15 -7.32046 1.88799 0
M  V30 29545 H 2820.42 -7.75574 0.781346 0
M  V30 29546 N 2824.65 -0.893076 -1.29853 0
M  V30 29547 C 2825.61 -0.370727 -2.26182 0
M  V30 29548 C 2826.61 0.491358 -1.53109 0
M  V30 29549 O 2827.8 0.297356 -1.71643 0
M  V30 29550 C 2824.93 0.470768 -3.37634 0
M  V30 29551 H 2826.13 -1.2214 -2.73901 0
M  V30 29552 H 2823.68 -0.670635 -1.41181 0
M  V30 29553 H 2824.42 1.3417 -2.95244 0
M  V30 29554 H 2824.2 -0.146853 -3.91825 0
M  V30 29555 H 2825.69 0.827753 -4.09314 0
M  V30 29556 N 2826.13 1.4335 -0.654865 0
M  V30 29557 C 2827.04 2.34572 0.0363191 0
M  V30 29558 C 2828.05 1.53975 0.810405 0
M  V30 29559 O 2829.23 1.86621 0.757275 0
M  V30 29560 C 2826.29 3.32274 0.989675 0
M  V30 29561 C 2825.36 4.28775 0.212339 0
M  V30 29562 C 2824.59 5.2181 1.12028 0
M  V30 29563 O 2824.81 5.19307 2.35958 0
M  V30 29564 O 2823.75 5.98984 0.591805 0
M  V30 29565 H 2827.57 2.95174 -0.714579 0
M  V30 29566 H 2825.16 1.43519 -0.415055 0
M  V30 29567 H 2827.04 3.9235 1.53752 0
M  V30 29568 H 2825.71 2.74174 1.72077 0
M  V30 29569 H 2824.62 3.72174 -0.379127 0
M  V30 29570 H 2825.95 4.89861 -0.479224 0
M  V30 29571 N 2827.61 0.39689 1.52521 0
M  V30 29572 C 2828.85 -0.182501 2.01274 0
M  V30 29573 C 2829.17 -1.46683 1.28488 0
M  V30 29574 O 2828.44 -1.91622 0.407167 0
M  V30 29575 H 2827.02 -0.0704311 0.743672 0
M  V30 29576 H 2829.69 0.530322 1.87546 0
M  V30 29577 H 2828.78 -0.387331 3.09687 0
M  V30 29578 N 2829.08 -1.57088 0.126936 0
M  V30 29579 C 2829.99 -2.19282 -0.833828 0
M  V30 29580 C 2831.01 -1.17124 -1.28678 0
M  V30 29581 O 2832.19 -1.49625 -1.34812 0
M  V30 29582 C 2829.25 -2.7863 -2.06315 0
M  V30 29583 C 2828.31 -3.9585 -1.66136 0
M  V30 29584 C 2827.54 -4.52359 -2.83209 0
M  V30 29585 O 2827.77 -4.07757 -3.98861 0
M  V30 29586 O 2826.7 -5.42926 -2.59836 0
M  V30 29587 H 2830.53 -3.01852 -0.334511 0
M  V30 29588 H 2828.11 -1.49071 -0.0990829 0
M  V30 29589 H 2829.99 -3.1643 -2.78298 0
M  V30 29590 H 2828.67 -1.99086 -2.55238 0
M  V30 29591 H 2827.58 -3.62804 -0.912372 0
M  V30 29592 H 2828.91 -4.76854 -1.21948 0
M  V30 29593 N 2830.56 0.146848 -1.56914 0
M  V30 29594 C 2831.98 0.499492 -1.51582 0
M  V30 29595 C 2832.18 1.83367 -0.835383 0
M  V30 29596 O 2831.23 2.49215 -0.405976 0
M  V30 29597 C 2832.55 0.509659 -2.96349 0
M  V30 29598 C 2834.09 0.595163 -3.07289 0
M  V30 29599 C 2834.57 0.635991 -4.53563 0
M  V30 29600 N 2836.06 0.69821 -4.57907 0
M  V30 29601 C 2836.8 0.750786 -5.68464 0
M  V30 29602 N 2836.29 0.762699 -6.88589 0
M  V30 29603 N 2838.08 0.791679 -5.56497 0
M  V30 29604 H 2830.24 -0.727691 -1.99546 0
M  V30 29605 H 2832.5 -0.265343 -0.910108 0
M  V30 29606 H 2832.2 -0.402471 -3.4939 0
M  V30 29607 H 2832.08 1.34752 -3.52309 0
M  V30 29608 H 2834.47 1.49771 -2.54269 0
M  V30 29609 H 2834.55 -0.269845 -2.54373 0
M  V30 29610 H 2834.19 -0.262402 -5.07222 0
M  V30 29611 H 2834.12 1.51749 -5.04262 0
M  V30 29612 H 2836.61 0.696296 -3.7143 0
M  V30 29613 H 2836.92 0.804669 -7.68599 0
M  V30 29614 H 2835.27 0.730573 -6.9115 0
M  V30 29615 H 2838.46 0.779543 -4.61563 0
M  V30 29616 H 2838.63 0.829188 -6.42673 0
M  V30 29617 N 2832.04 1.52005 0.4162 0
M  V30 29618 C 2832.95 1.77719 1.53144 0
M  V30 29619 C 2833.97 0.662396 1.60898 0
M  V30 29620 O 2835.14 0.947023 1.77745 0
M  V30 29621 C 2832.21 1.91604 2.88945 0
M  V30 29622 C 2831.27 3.15499 2.91134 0
M  V30 29623 C 2830.5 3.28711 4.20458 0
M  V30 29624 O 2830.72 2.47354 5.13977 0
M  V30 29625 O 2829.66 4.21821 4.29361 0
M  V30 29626 H 2833.48 2.72366 1.34352 0
M  V30 29627 H 2831.07 1.36763 0.601349 0
M  V30 29628 H 2832.95 2.02599 3.69502 0
M  V30 29629 H 2831.63 1.00146 3.07819 0
M  V30 29630 H 2830.53 3.09966 2.09456 0
M  V30 29631 H 2831.87 4.06714 2.77208 0
M  V30 29632 N 2833.52 -0.672992 1.42508 0
M  V30 29633 C 2834.43 -1.8159 1.48533 0
M  V30 29634 C 2835.44 -1.69934 0.373937 0
M  V30 29635 O 2836.62 -1.91453 0.625112 0
M  V30 29636 C 2833.68 -3.17745 1.38705 0
M  V30 29637 C 2832.75 -3.41344 2.60352 0
M  V30 29638 C 2831.98 -4.71002 2.50983 0
M  V30 29639 O 2832.2 -5.4903 1.54669 0
M  V30 29640 O 2831.14 -4.95886 3.41147 0
M  V30 29641 H 2834.96 -1.79463 2.45004 0
M  V30 29642 H 2832.55 -0.828968 1.24292 0
M  V30 29643 H 2834.43 -3.98989 1.35593 0
M  V30 29644 H 2833.1 -3.20506 0.453612 0
M  V30 29645 H 2832.01 -2.5994 2.69039 0
M  V30 29646 H 2833.34 -3.43414 3.52601 0
M  V30 29647 N 2835 -1.2871 -0.909472 0
M  V30 29648 C 2835.91 -1.14865 -2.04556 0
M  V30 29649 C 2836.92 -0.0741927 -1.73842 0
M  V30 29650 O 2838.1 -0.284335 -1.99383 0
M  V30 29651 C 2835.16 -0.816207 -3.36955 0
M  V30 29652 C 2834.22 -1.97347 -3.81251 0
M  V30 29653 C 2833.46 -1.6568 -5.07332 0
M  V30 29654 O 2833.68 -0.573152 -5.67513 0
M  V30 29655 O 2832.61 -2.50177 -5.47444 0
M  V30 29656 H 2836.44 -2.10247 -2.19157 0
M  V30 29657 H 2834.02 -1.0807 -1.03157 0
M  V30 29658 H 2835.91 -0.644946 -4.16435 0
M  V30 29659 H 2834.58 0.107926 -3.2352 0
M  V30 29660 H 2833.49 -2.19991 -3.0258 0
M  V30 29661 H 2834.82 -2.87846 -3.99256 0
M  V30 29662 N 2836.47 1.1185 -1.11028 0
M  V30 29663 C 2837.72 1.83133 -0.854801 0
M  V30 29664 C 2838.04 1.84836 0.621342 0
M  V30 29665 O 2837.31 1.31587 1.45127 0
M  V30 29666 H 2835.89 0.678151 -0.313241 0
M  V30 29667 H 2838.55 1.35409 -1.4018 0
M  V30 29668 H 2837.65 2.87133 -1.22316 0
M  V30 29669 N 2837.95 0.89995 1.29378 0
M  V30 29670 C 2839.37 0.596085 1.48051 0
M  V30 29671 C 2839.57 -0.86234 1.82115 0
M  V30 29672 O 2838.62 -1.6425 1.91777 0
M  V30 29673 C 2839.94 1.52212 2.5933 0
M  V30 29674 C 2841.48 1.52735 2.73205 0
M  V30 29675 C 2841.96 2.43968 3.87613 0
M  V30 29676 N 2843.45 2.42016 3.94946 0
M  V30 29677 C 2844.19 3.09312 4.82819 0
M  V30 29678 N 2843.68 3.85887 5.75381 0
M  V30 29679 N 2845.47 2.98468 4.76312 0
M  V30 29680 H 2837.63 1.84321 1.05543 0
M  V30 29681 H 2839.89 0.789819 0.5243 0
M  V30 29682 H 2839.59 2.56126 2.41024 0
M  V30 29683 H 2839.47 1.24284 3.56137 0
M  V30 29684 H 2841.86 0.495665 2.90907 0
M  V30 29685 H 2841.94 1.84701 1.76972 0
M  V30 29686 H 2841.58 3.47231 3.70666 0
M  V30 29687 H 2841.51 2.09311 4.83215 0
M  V30 29688 H 2844 1.8638 3.28741 0
M  V30 29689 H 2844.31 4.3429 6.39228 0
M  V30 29690 H 2842.66 3.89994 5.75265 0
M  V30 29691 H 2845.85 2.38159 4.02986 0
M  V30 29692 H 2846.02 3.51189 5.44583 0
M  V30 29693 N 2839.43 -1.43001 0.662458 0
M  V30 29694 C 2840.39 -2.29196 -0.0141613 0
M  V30 29695 C 2841.39 -1.4269 -0.741369 0
M  V30 29696 O 2842.58 -1.64217 -0.581228 0
M  V30 29697 C 2839.72 -3.24943 -1.03078 0
M  V30 29698 H 2840.91 -2.90516 0.744351 0
M  V30 29699 H 2838.46 -1.50435 0.424159 0
M  V30 29700 H 2839.2 -2.68536 -1.81821 0
M  V30 29701 H 2838.98 -3.88731 -0.512877 0
M  V30 29702 H 2840.47 -3.89614 -1.50301 0
M  V30 29703 N 2840.91 -0.404973 -1.52308 0
M  V30 29704 C 2841.82 0.429514 -2.30635 0
M  V30 29705 C 2842.83 1.05734 -1.38189 0
M  V30 29706 O 2844.01 1.05976 -1.71263 0
M  V30 29707 C 2841.08 1.53333 -3.1095 0
M  V30 29708 C 2840.14 0.928991 -4.19128 0
M  V30 29709 C 2839.37 1.98021 -4.95604 0
M  V30 29710 O 2839.59 3.19772 -4.72337 0
M  V30 29711 O 2838.53 1.58876 -5.80553 0
M  V30 29712 H 2842.35 -0.209016 -3.0298 0
M  V30 29713 H 2839.94 -0.168281 -1.48449 0
M  V30 29714 H 2841.82 2.17423 -3.60978 0
M  V30 29715 H 2840.49 2.15654 -2.41402 0
M  V30 29716 H 2839.4 0.250916 -3.73258 0
M  V30 29717 H 2840.73 0.349769 -4.90956 0
M  V30 29718 N 2842.39 1.57018 -0.135265 0
M  V30 29719 C 2843.35 2.14983 0.794669 0
M  V30 29720 C 2844.35 1.08868 1.1834 0
M  V30 29721 O 2845.54 1.34565 1.10625 0
M  V30 29722 C 2842.67 2.70336 2.0768 0
M  V30 29723 H 2843.86 2.98488 0.290644 0
M  V30 29724 H 2841.42 1.55883 0.114101 0
M  V30 29725 H 2842.15 1.90464 2.62476 0
M  V30 29726 H 2841.94 3.4796 1.80739 0
M  V30 29727 H 2843.43 3.15035 2.74122 0
M  V30 29728 N 2843.86 -0.138524 1.5699 0
M  V30 29729 C 2845.28 -0.697724 1.73172 0
M  V30 29730 C 2845.63 -1.81259 0.750984 0
M  V30 29731 O 2844.75 -2.1625 -0.080511 0
M  V30 29732 C 2845.35 -1.27242 3.13998 0
M  V30 29733 C 2843.91 -1.77811 3.31753 0
M  V30 29734 C 2843.05 -0.669944 2.69086 0
M  V30 29735 H 2846 0.0872257 1.5846 0
M  V30 29736 H 2846.02 -2.14221 3.14467 0
M  V30 29737 H 2845.54 -0.460787 3.85355 0
M  V30 29738 H 2843.64 -2.61514 2.65407 0
M  V30 29739 H 2843.75 -1.90099 4.39772 0
M  V30 29740 H 2842.11 -1.0987 2.29784 0
M  V30 29741 H 2842.9 0.13039 3.43052 0
M  V30 29742 N 2845.34 -1.52224 -0.408133 0
M  V30 29743 C 2846.62 -1.56895 -1.16804 0
M  V30 29744 C 2847 -0.350574 -2.08169 0
M  V30 29745 O 2846.35 0.662497 -2.18685 0
M  V30 29746 C 2846.56 -2.89813 -1.94446 0
M  V30 29747 C 2847.91 -3.4285 -2.50478 0
M  V30 29748 O 2848.93 -2.91559 -2.04625 0
M  V30 29749 O 2847.79 -4.32416 -3.34184 0
M  V30 29750 H 2844.88 -0.632016 -0.533371 0
M  V30 29751 H 2847.43 -1.64552 -0.414833 0
M  V30 29752 H 2846.2 -3.69938 -1.27521 0
M  V30 29753 H 2845.82 -2.85454 -2.7677 0
M  V30 29754 N 2846.82 0.665425 -1.42863 0
M  V30 29755 C 2847.77 1.77871 -1.47073 0
M  V30 29756 C 2848.74 1.62955 -0.321682 0
M  V30 29757 O 2849.92 1.83375 -0.527102 0
M  V30 29758 C 2847.06 3.1596 -1.38793 0
M  V30 29759 C 2846.18 3.42096 -2.63807 0
M  V30 29760 C 2845.31 4.69964 -2.47603 0
M  V30 29761 C 2844.35 4.89166 -3.67944 0
M  V30 29762 N 2843.49 6.08282 -3.50625 0
M  V30 29763 H 2848.33 1.73608 -2.42207 0
M  V30 29764 H 2845.86 0.84738 -1.20241 0
M  V30 29765 H 2847.82 3.95771 -1.31989 0
M  V30 29766 H 2846.45 3.19323 -0.472487 0
M  V30 29767 H 2845.5 2.5647 -2.8094 0
M  V30 29768 H 2846.82 3.52175 -3.53234 0
M  V30 29769 H 2845.97 5.57882 -2.38437 0
M  V30 29770 H 2844.71 4.62185 -1.5568 0
M  V30 29771 H 2843.71 3.99687 -3.77532 0
M  V30 29772 H 2844.94 4.98784 -4.60859 0
M  V30 29773 H 2842.88 6.01658 -2.61427 0
M  V30 29774 H 2842.8 6.19264 -4.33645 0
M  V30 29775 H 2844.07 6.98853 -3.45289 0
M  V30 29776 N 2848.3 1.29191 0.902633 0
M  V30 29777 C 2849.52 1.19992 1.69164 0
M  V30 29778 C 2849.95 -0.236462 1.86608 0
M  V30 29779 O 2849.31 -1.1708 1.38427 0
M  V30 29780 C 2849.35 1.91532 3.05529 0
M  V30 29781 O 2848.46 1.23036 3.93619 0
M  V30 29782 H 2847.8 0.415945 0.517577 0
M  V30 29783 H 2850.33 1.70708 1.12782 0
M  V30 29784 H 2850.34 1.99872 3.5569 0
M  V30 29785 H 2849.01 2.96008 2.92151 0
M  V30 29786 H 2847.59 1.22935 3.52053 0
M  V30 29787 N 2849.78 -1.1126 1.1162 0
M  V30 29788 C 2851 -1.87379 0.889046 0
M  V30 29789 C 2851.43 -1.79699 -0.555852 0
M  V30 29790 O 2850.78 -1.16075 -1.3927 0
M  V30 29791 C 2850.83 -3.34066 1.35765 0
M  V30 29792 O 2849.94 -4.08973 0.530571 0
M  V30 29793 H 2849.28 -0.581753 0.320092 0
M  V30 29794 H 2851.81 -1.40624 1.48613 0
M  V30 29795 H 2851.82 -3.84914 1.35298 0
M  V30 29796 H 2850.49 -3.38972 2.40979 0
M  V30 29797 H 2849.07 -3.68017 0.601503 0
M  V30 29798 N 2851.25 -0.906798 -1.28899 0
M  V30 29799 C 2852.2 -0.361148 -2.25122 0
M  V30 29800 C 2853.19 0.522803 -1.5217 0
M  V30 29801 O 2854.38 0.363661 -1.73224 0
M  V30 29802 C 2851.51 0.403922 -3.40915 0
M  V30 29803 C 2850.6 -0.495353 -4.21197 0
M  V30 29804 N 2850.99 -1.6058 -4.79633 0
M  V30 29805 C 2849.28 -0.29445 -4.45027 0
M  V30 29806 C 2849.99 -2.16341 -5.39973 0
M  V30 29807 N 2848.96 -1.45555 -5.23751 0
M  V30 29808 H 2852.76 -1.20932 -2.67867 0
M  V30 29809 H 2850.28 -0.758657 -1.4359 0
M  V30 29810 H 2852.27 0.811623 -4.08923 0
M  V30 29811 H 2850.93 1.24927 -2.99706 0
M  V30 29812 H 2851.95 -1.98847 -4.78205 0
M  V30 29813 H 2848.62 0.511948 -4.14349 0
M  V30 29814 H 2850.01 -3.09714 -5.96261 0
M  V30 29815 N 2852.73 1.42648 -0.670032 0
M  V30 29816 C 2853.96 2.06462 -0.196991 0
M  V30 29817 C 2854.38 1.49985 1.13517 0
M  V30 29818 O 2853.74 0.616427 1.70499 0
M  V30 29819 C 2853.79 3.60338 -0.137444 0
M  V30 29820 O 2852.89 4.02561 0.895452 0
M  V30 29821 H 2852.23 0.656027 -0.10259 0
M  V30 29822 H 2854.76 1.82864 -0.917701 0
M  V30 29823 H 2854.77 4.0798 0.0402908 0
M  V30 29824 H 2853.45 4.00818 -1.10984 0
M  V30 29825 H 2852.03 3.66477 0.689145 0
M  V30 29826 N 2854.21 0.413044 1.52091 0
M  V30 29827 C 2855.44 -0.163301 2.06756 0
M  V30 29828 C 2855.86 -1.37762 1.28075 0
M  V30 29829 O 2855.22 -1.78594 0.312046 0
M  V30 29830 C 2855.27 -0.488259 3.57279 0
M  V30 29831 O 2854.37 -1.57864 3.80989 0
M  V30 29832 H 2853.71 -0.0124951 0.663882 0
M  V30 29833 H 2856.24 0.587373 1.95987 0
M  V30 29834 H 2856.25 -0.745765 4.01126 0
M  V30 29835 H 2854.93 0.3994 4.13978 0
M  V30 29836 H 2853.5 -1.313 3.4902 0
M  V30 29837 N 2855.69 -1.56945 0.143591 0
M  V30 29838 C 2856.64 -2.16588 -0.797395 0
M  V30 29839 C 2857.61 -1.09778 -1.24652 0
M  V30 29840 O 2858.79 -1.37803 -1.31966 0
M  V30 29841 C 2855.93 -2.78899 -2.03248 0
M  V30 29842 C 2855.04 -4.0009 -1.62947 0
M  V30 29843 C 2854.18 -4.50411 -2.81609 0
M  V30 29844 C 2853.22 -5.64076 -2.37665 0
M  V30 29845 N 2852.36 -6.0903 -3.49324 0
M  V30 29846 H 2857.2 -2.96663 -0.28197 0
M  V30 29847 H 2854.73 -1.46547 -0.127468 0
M  V30 29848 H 2856.69 -3.13168 -2.75648 0
M  V30 29849 H 2855.32 -2.01473 -2.52207 0
M  V30 29850 H 2854.37 -3.71822 -0.803257 0
M  V30 29851 H 2855.68 -4.82448 -1.26671 0
M  V30 29852 H 2854.84 -4.86717 -3.62203 0
M  V30 29853 H 2853.58 -3.67053 -3.21128 0
M  V30 29854 H 2852.58 -5.27349 -1.5551 0
M  V30 29855 H 2853.81 -6.49216 -1.99236 0
M  V30 29856 H 2851.75 -5.28608 -3.88471 0
M  V30 29857 H 2851.67 -6.86305 -3.17052 0
M  V30 29858 H 2852.94 -6.49981 -4.30285 0
M  V30 29859 N 2857.17 0.130197 -1.57061 0
M  V30 29860 C 2858.41 0.841184 -1.84532 0
M  V30 29861 C 2858.75 1.80051 -0.727698 0
M  V30 29862 O 2858.02 1.92653 0.267386 0
M  V30 29863 C 2858.3 1.60094 -3.22555 0
M  V30 29864 C 2858.16 0.66197 -4.44902 0
M  V30 29865 C 2859.48 2.55967 -3.58007 0
M  V30 29866 H 2856.6 0.304355 -0.671221 0
M  V30 29867 H 2859.24 0.105787 -1.89705 0
M  V30 29868 H 2857.39 2.22784 -3.18276 0
M  V30 29869 H 2859.06 0.0447748 -4.61278 0
M  V30 29870 H 2857.3 -0.0273016 -4.33791 0
M  V30 29871 H 2857.97 1.22997 -5.38122 0
M  V30 29872 H 2860.45 2.03387 -3.63005 0
M  V30 29873 H 2859.33 3.06164 -4.55582 0
M  V30 29874 H 2859.59 3.38111 -2.84839 0
M  V30 29875 N 2858.65 1.52438 0.400055 0
M  V30 29876 C 2860.06 1.59005 0.978482 0
M  V30 29877 C 2860.41 0.436102 1.91292 0
M  V30 29878 O 2859.53 -0.442328 2.11831 0
M  V30 29879 C 2860.13 2.88187 1.7814 0
M  V30 29880 C 2858.69 2.97203 2.3097 0
M  V30 29881 C 2857.83 2.54024 1.11208 0
M  V30 29882 H 2860.78 1.57676 0.179975 0
M  V30 29883 H 2860.81 2.74051 2.63963 0
M  V30 29884 H 2860.32 3.72154 1.10104 0
M  V30 29885 H 2858.42 2.17749 3.02351 0
M  V30 29886 H 2858.53 4.01627 2.61214 0
M  V30 29887 H 2856.9 2.08084 1.46879 0
M  V30 29888 H 2857.68 3.40374 0.447247 0
M  V30 29889 N 2860.12 -0.657839 1.43214 0
M  V30 29890 C 2861.03 -1.80005 1.50451 0
M  V30 29891 C 2862.05 -1.69528 0.39194 0
M  V30 29892 O 2863.23 -1.90779 0.645383 0
M  V30 29893 C 2860.29 -3.16256 1.42067 0
M  V30 29894 C 2859.35 -3.38563 2.63957 0
M  V30 29895 C 2858.58 -4.68314 2.55964 0
M  V30 29896 O 2858.81 -5.47359 1.60483 0
M  V30 29897 O 2857.74 -4.92239 3.46387 0
M  V30 29898 H 2861.57 -1.76854 2.46893 0
M  V30 29899 H 2859.15 -0.815738 1.25164 0
M  V30 29900 H 2861.03 -3.97529 1.39817 0
M  V30 29901 H 2859.71 -3.20007 0.48758 0
M  V30 29902 H 2858.62 -2.57072 2.71781 0
M  V30 29903 H 2859.95 -3.39655 3.56223 0
M  V30 29904 N 2861.6 -1.29668 -0.895769 0
M  V30 29905 C 2862.56 -1.15128 -1.98187 0
M  V30 29906 C 2863.56 -0.0855999 -1.60572 0
M  V30 29907 O 2864.75 -0.332856 -1.7099 0
M  V30 29908 C 2861.89 -0.76143 -3.32288 0
M  V30 29909 H 2863.08 -2.11607 -2.12514 0
M  V30 29910 H 2860.63 -1.1291 -1.08079 0
M  V30 29911 H 2861.37 0.203336 -3.23662 0
M  V30 29912 H 2861.15 -1.53145 -3.60956 0
M  V30 29913 H 2862.64 -0.682865 -4.11979 0
M  V30 29914 N 2863.08 1.10667 -1.12208 0
M  V30 29915 C 2864.3 1.86904 -0.898971 0
M  V30 29916 C 2864.73 1.79992 0.546314 0
M  V30 29917 O 2864.09 1.16812 1.38653 0
M  V30 29918 C 2864.14 3.33342 -1.37534 0
M  V30 29919 O 2863.24 4.08686 -0.552252 0
M  V30 29920 H 2862.58 0.580048 -0.323173 0
M  V30 29921 H 2865.11 1.39834 -1.49357 0
M  V30 29922 H 2865.12 3.84191 -1.37337 0
M  V30 29923 H 2863.8 3.37689 -2.42773 0
M  V30 29924 H 2862.37 3.67693 -0.621012 0
M  V30 29925 N 2864.56 0.913621 1.28416 0
M  V30 29926 C 2865.5 0.400413 2.273 0
M  V30 29927 C 2866.47 -0.525062 1.57583 0
M  V30 29928 O 2867.66 -0.447285 1.85483 0
M  V30 29929 C 2864.8 -0.353549 3.43284 0
M  V30 29930 C 2863.91 0.604416 4.27751 0
M  V30 29931 C 2863.05 -0.167982 5.30934 0
M  V30 29932 C 2862.09 0.783606 6.07063 0
M  V30 29933 N 2861.22 0.0447346 7.02086 0
M  V30 29934 H 2866.06 1.2487 2.70576 0
M  V30 29935 H 2863.6 0.627051 1.33066 0
M  V30 29936 H 2865.56 -0.806873 4.09323 0
M  V30 29937 H 2864.19 -1.16618 3.00999 0
M  V30 29938 H 2863.24 1.17627 3.61757 0
M  V30 29939 H 2864.55 1.33224 4.80679 0
M  V30 29940 H 2863.71 -0.681873 6.02856 0
M  V30 29941 H 2862.45 -0.928862 4.78773 0
M  V30 29942 H 2861.45 1.30887 5.33993 0
M  V30 29943 H 2862.68 1.54404 6.61314 0
M  V30 29944 H 2860.62 -0.698158 6.52274 0
M  V30 29945 H 2860.54 0.712391 7.52636 0
M  V30 29946 H 2861.81 -0.448965 7.78206 0
M  V30 29947 N 2866.04 -1.4229 0.677588 0
M  V30 29948 C 2867.26 -2.06355 0.207938 0
M  V30 29949 C 2867.69 -1.50585 -1.1272 0
M  V30 29950 O 2867.04 -0.62546 -1.7017 0
M  V30 29951 C 2867.09 -3.6026 0.156552 0
M  V30 29952 O 2866.2 -4.0303 -0.874091 0
M  V30 29953 H 2865.54 -0.655474 0.106068 0
M  V30 29954 H 2868.07 -1.82375 0.927386 0
M  V30 29955 H 2868.08 -4.07996 -0.018654 0
M  V30 29956 H 2866.75 -4.00224 1.13108 0
M  V30 29957 H 2865.33 -3.66837 -0.6697 0
M  V30 29958 N 2867.51 -0.421104 -1.5187 0
M  V30 29959 C 2868.46 0.416071 -2.24171 0
M  V30 29960 C 2869.45 1.00359 -1.25765 0
M  V30 29961 O 2870.64 0.924426 -1.50942 0
M  V30 29962 C 2867.77 1.52566 -3.07536 0
M  V30 29963 C 2866.85 0.948326 -4.13361 0
M  V30 29964 N 2867.25 0.0987044 -5.05704 0
M  V30 29965 C 2865.54 1.2176 -4.29058 0
M  V30 29966 C 2866.24 -0.223808 -5.81269 0
M  V30 29967 N 2865.22 0.388428 -5.4221 0
M  V30 29968 H 2869.02 -0.239217 -2.92925 0
M  V30 29969 H 2866.54 -0.23222 -1.60731 0
M  V30 29970 H 2868.53 2.13812 -3.57896 0
M  V30 29971 H 2867.19 2.18345 -2.40324 0
M  V30 29972 H 2868.2 -0.266519 -5.17214 0
M  V30 29973 H 2864.88 1.87409 -3.73074 0
M  V30 29974 H 2866.27 -0.914193 -6.65652 0
M  V30 29975 N 2868.99 1.56866 -0.151912 0
M  V30 29976 C 2869.96 2.15814 0.771823 0
M  V30 29977 C 2870.96 1.10117 1.17179 0
M  V30 29978 O 2872.15 1.35731 1.09191 0
M  V30 29979 C 2869.28 2.72524 2.04801 0
M  V30 29980 H 2870.47 2.9878 0.258969 0
M  V30 29981 H 2868.02 1.55995 0.0975606 0
M  V30 29982 H 2868.76 1.93238 2.60441 0
M  V30 29983 H 2868.54 3.49857 1.77038 0
M  V30 29984 H 2870.03 3.17925 2.70765 0
M  V30 29985 N 2870.47 -0.121866 1.57128 0
M  V30 29986 C 2871.7 -0.844418 1.88884 0
M  V30 29987 C 2872.11 -1.73572 0.742854 0
M  V30 29988 O 2871.47 -1.80238 -0.286443 0
M  V30 29989 C 2871.52 -1.68023 3.20079 0
M  V30 29990 O 2871.24 -0.824823 4.30265 0
M  V30 29991 C 2872.74 -2.50819 3.6552 0
M  V30 29992 H 2869.96 -0.242896 0.625494 0
M  V30 29993 H 2872.51 -0.107115 2.04219 0
M  V30 29994 H 2870.66 -2.37032 3.06422 0
M  V30 29995 H 2871.08 -1.40104 5.05441 0
M  V30 29996 H 2872.55 -3.05 4.60086 0
M  V30 29997 H 2873.03 -3.28043 2.92035 0
M  V30 29998 H 2873.63 -1.87057 3.81955 0
M  V30 29999 N 2871.95 -1.52648 -0.391965 0
M  V30 30000 C 2873.18 -1.7142 -1.15857 0
M  V30 30001 C 2873.59 -0.431248 -1.83809 0
M  V30 30002 O 2872.95 0.594055 -1.72561 0
M  V30 30003 C 2873 -2.86169 -2.20883 0
M  V30 30004 O 2872.72 -4.09498 -1.55703 0
M  V30 30005 C 2874.22 -3.16595 -3.10294 0
M  V30 30006 H 2871.44 -0.574018 -0.347484 0
M  V30 30007 H 2873.99 -1.99284 -0.458937 0
M  V30 30008 H 2872.14 -2.60775 -2.86487 0
M  V30 30009 H 2872.55 -4.73567 -2.25466 0
M  V30 30010 H 2874.03 -4.00358 -3.80023 0
M  V30 30011 H 2874.51 -2.30854 -3.73635 0
M  V30 30012 H 2875.11 -3.43818 -2.50339 0
M  V30 30013 N 2873.43 0.650235 -1.43561 0
M  V30 30014 C 2874.34 1.79204 -1.51404 0
M  V30 30015 C 2875.35 1.69318 -0.400925 0
M  V30 30016 O 2876.53 1.90434 -0.655491 0
M  V30 30017 C 2873.59 3.15498 -1.43743 0
M  V30 30018 C 2872.65 3.37159 -2.65749 0
M  V30 30019 C 2871.89 4.6695 -2.58444 0
M  V30 30020 O 2872.11 5.465 -1.63384 0
M  V30 30021 O 2871.04 4.90395 -3.48993 0
M  V30 30022 H 2874.87 1.75542 -2.47828 0
M  V30 30023 H 2872.46 0.809089 -1.25595 0
M  V30 30024 H 2874.34 3.96782 -1.41923 0
M  V30 30025 H 2873.01 3.19744 -0.504544 0
M  V30 30026 H 2871.92 2.55627 -2.7314 0
M  V30 30027 H 2873.25 3.37761 -3.5802 0
M  V30 30028 N 2874.9 1.30141 0.88888 0
M  V30 30029 C 2876.32 1.16896 1.45576 0
M  V30 30030 C 2876.67 -0.231832 1.94826 0
M  V30 30031 O 2875.79 -1.12821 1.84663 0
M  V30 30032 C 2876.39 2.11599 2.64596 0
M  V30 30033 C 2874.95 2.02344 3.17386 0
M  V30 30034 C 2874.09 2.01905 1.90078 0
M  V30 30035 H 2877.04 1.42468 0.699185 0
M  V30 30036 H 2877.06 1.69455 3.40684 0
M  V30 30037 H 2876.58 3.13542 2.2872 0
M  V30 30038 H 2874.68 1.03529 3.57928 0
M  V30 30039 H 2874.79 2.9054 3.8095 0
M  V30 30040 H 2873.15 1.46652 2.08243 0
M  V30 30041 H 2873.94 3.05571 1.56465 0
M  V30 30042 N 2876.38 -1.1007 1.12794 0
M  V30 30043 C 2877.29 -2.20084 0.812407 0
M  V30 30044 C 2878.31 -1.72843 -0.200319 0
M  V30 30045 O 2879.48 -2.01373 -0.0329908 0
M  V30 30046 C 2876.55 -3.45602 0.275746 0
M  V30 30047 C 2875.61 -4.07558 1.34888 0
M  V30 30048 C 2874.84 -5.27084 0.837731 0
M  V30 30049 O 2875.07 -5.69461 -0.327124 0
M  V30 30050 O 2874 -5.79994 1.60904 0
M  V30 30051 H 2877.83 -2.49514 1.73137 0
M  V30 30052 H 2875.41 -1.18879 0.904884 0
M  V30 30053 H 2877.29 -4.21396 -0.0184635 0
M  V30 30054 H 2875.97 -3.1779 -0.615727 0
M  V30 30055 H 2874.88 -3.33431 1.69631 0
M  V30 30056 H 2876.21 -4.39581 2.21425 0
M  V30 30057 N 2877.86 -0.920419 -1.2793 0
M  V30 30058 C 2878.79 -0.371208 -2.26174 0
M  V30 30059 C 2879.81 0.494038 -1.55123 0
M  V30 30060 O 2880.99 0.307839 -1.75825 0
M  V30 30061 C 2878.09 0.487422 -3.35377 0
M  V30 30062 C 2877.27 -0.356849 -4.35942 0
M  V30 30063 C 2876.33 0.43795 -5.24374 0
M  V30 30064 O 2875.35 -0.151815 -5.68998 0
M  V30 30065 N 2876.55 1.73946 -5.53826 0
M  V30 30066 H 2879.32 -1.21569 -2.73936 0
M  V30 30067 H 2876.88 -0.787071 -1.41481 0
M  V30 30068 H 2878.87 1.02603 -3.91478 0
M  V30 30069 H 2877.44 1.23264 -2.87271 0
M  V30 30070 H 2876.66 -1.07679 -3.79208 0
M  V30 30071 H 2877.95 -0.934294 -5.00148 0
M  V30 30072 H 2877.35 2.24105 -5.19417 0
M  V30 30073 H 2875.91 2.22475 -6.12657 0
M  V30 30074 N 2879.34 1.41929 -0.685124 0
M  V30 30075 C 2880.57 2.05723 -0.220408 0
M  V30 30076 C 2880.98 1.51518 1.1264 0
M  V30 30077 O 2880.34 0.659144 1.70181 0
M  V30 30078 C 2880.39 3.61154 -0.158038 0
M  V30 30079 O 2880.11 4.13351 -1.45163 0
M  V30 30080 C 2881.61 4.42078 0.328931 0
M  V30 30081 H 2878.83 0.662775 -0.104737 0
M  V30 30082 H 2881.38 1.81885 -0.934768 0
M  V30 30083 H 2879.53 3.84067 0.507076 0
M  V30 30084 H 2879.94 5.0731 -1.33181 0
M  V30 30085 H 2881.42 5.51063 0.321462 0
M  V30 30086 H 2881.9 4.17417 1.36601 0
M  V30 30087 H 2882.5 4.24206 -0.304811 0
M  V30 30088 N 2880.82 0.429152 1.51644 0
M  V30 30089 C 2881.73 -0.392768 2.31289 0
M  V30 30090 C 2882.74 -1.03523 1.39854 0
M  V30 30091 O 2883.92 -1.03238 1.72927 0
M  V30 30092 C 2880.98 -1.48367 3.1335 0
M  V30 30093 C 2880.04 -0.862194 4.20553 0
M  V30 30094 C 2879.28 -1.90111 4.98692 0
M  V30 30095 O 2879.5 -3.12217 4.77364 0
M  V30 30096 O 2878.43 -1.49619 5.83007 0
M  V30 30097 H 2882.26 0.257191 3.02609 0
M  V30 30098 H 2879.85 0.191877 1.48163 0
M  V30 30099 H 2881.73 -2.11653 3.64391 0
M  V30 30100 H 2880.4 -2.11786 2.44803 0
M  V30 30101 H 2879.31 -0.191502 3.7361 0
M  V30 30102 H 2880.64 -0.271618 4.9145 0
M  V30 30103 N 2882.29 -1.56783 0.160229 0
M  V30 30104 C 2883.71 -1.83228 -0.358384 0
M  V30 30105 C 2884.06 -1.07955 -1.6383 0
M  V30 30106 O 2883.18 -0.329032 -2.13884 0
M  V30 30107 C 2883.78 -3.32369 -0.657 0
M  V30 30108 C 2882.34 -3.59348 -1.12009 0
M  V30 30109 C 2881.48 -2.76893 -0.150102 0
M  V30 30110 H 2884.43 -1.53967 0.384696 0
M  V30 30111 H 2884.45 -3.49244 -1.51027 0
M  V30 30112 H 2883.97 -3.87126 0.274715 0
M  V30 30113 H 2882.07 -3.0999 -2.06729 0
M  V30 30114 H 2882.18 -4.67744 -1.03692 0
M  V30 30115 H 2880.54 -2.46389 -0.645318 0
M  V30 30116 H 2881.33 -3.34428 0.775438 0
M  V30 30117 N 2883.77 0.113531 -1.57191 0
M  V30 30118 C 2884.68 1.15773 -2.04043 0
M  V30 30119 C 2885.7 1.44999 -0.961837 0
M  V30 30120 O 2886.88 1.56007 -1.27373 0
M  V30 30121 C 2883.94 2.46304 -2.43999 0
M  V30 30122 C 2883 2.24426 -3.65966 0
M  V30 30123 C 2882.23 3.48733 -4.04006 0
M  V30 30124 O 2882.46 4.56253 -3.42329 0
M  V30 30125 O 2881.39 3.39411 -4.97075 0
M  V30 30126 H 2885.22 0.789848 -2.93249 0
M  V30 30127 H 2882.8 0.324722 -1.45828 0
M  V30 30128 H 2884.68 3.232 -2.70407 0
M  V30 30129 H 2883.36 2.82555 -1.57937 0
M  V30 30130 H 2882.27 1.45371 -3.447 0
M  V30 30131 H 2883.6 1.93076 -4.5275 0
M  V30 30132 N 2885.25 1.52854 0.383864 0
M  V30 30133 C 2886.18 1.74257 1.48886 0
M  V30 30134 C 2887.2 0.623089 1.50404 0
M  V30 30135 O 2888.39 0.898914 1.54213 0
M  V30 30136 C 2885.49 1.79086 2.87718 0
M  V30 30137 C 2884.66 3.08469 3.10106 0
M  V30 30138 C 2883.72 3.04778 4.28949 0
M  V30 30139 O 2882.74 3.78628 4.25005 0
M  V30 30140 N 2883.95 2.2432 5.35407 0
M  V30 30141 H 2886.71 2.69597 1.3091 0
M  V30 30142 H 2884.27 1.51405 0.573427 0
M  V30 30143 H 2886.26 1.74116 3.6533 0
M  V30 30144 H 2884.83 0.911104 2.99028 0
M  V30 30145 H 2884.05 3.26888 2.20313 0
M  V30 30146 H 2885.34 3.9401 3.21921 0
M  V30 30147 H 2884.74 1.63796 5.41468 0
M  V30 30148 H 2883.3 2.25185 6.11666 0
M  V30 30149 N 2886.73 -0.642612 1.43904 0
M  V30 30150 C 2888.15 -0.959496 1.27538 0
M  V30 30151 C 2888.35 -2.00477 0.202787 0
M  V30 30152 O 2887.4 -2.49063 -0.415212 0
M  V30 30153 C 2888.71 -1.43368 2.64322 0
M  V30 30154 C 2890.26 -1.54976 2.7194 0
M  V30 30155 C 2890.74 -2.05782 4.09167 0
M  V30 30156 N 2892.23 -2.13069 4.11286 0
M  V30 30157 C 2892.96 -2.53525 5.14308 0
M  V30 30158 N 2892.46 -2.93201 6.27698 0
M  V30 30159 N 2894.25 -2.53558 5.01662 0
M  V30 30160 H 2886.4 0.0488749 2.12344 0
M  V30 30161 H 2888.67 -0.0407393 0.947124 0
M  V30 30162 H 2888.37 -0.739987 3.43827 0
M  V30 30163 H 2888.25 -2.40679 2.90436 0
M  V30 30164 H 2890.63 -2.23444 1.92761 0
M  V30 30165 H 2890.71 -0.560695 2.49579 0
M  V30 30166 H 2890.36 -1.37912 4.88818 0
M  V30 30167 H 2890.29 -3.05539 4.28898 0
M  V30 30168 H 2892.78 -1.85137 3.29443 0
M  V30 30169 H 2893.09 -3.22851 7.0213 0
M  V30 30170 H 2891.44 -2.9098 6.31154 0
M  V30 30171 H 2894.63 -2.21945 4.12138 0
M  V30 30172 H 2894.8 -2.84764 5.82077 0
M  V30 30173 N 2888.21 -1.30611 -0.881966 0
M  V30 30174 C 2889.12 -1.19178 -2.02074 0
M  V30 30175 C 2890.13 -0.11105 -1.73645 0
M  V30 30176 O 2891.31 -0.326563 -1.98735 0
M  V30 30177 C 2888.37 -0.887496 -3.35148 0
M  V30 30178 C 2887.44 -2.0539 -3.76979 0
M  V30 30179 C 2886.67 -1.76404 -5.03704 0
M  V30 30180 O 2886.89 -0.693401 -5.6617 0
M  V30 30181 O 2885.83 -2.61733 -5.42014 0
M  V30 30182 H 2889.65 -2.14849 -2.14648 0
M  V30 30183 H 2887.24 -1.10233 -1.00841 0
M  V30 30184 H 2889.12 -0.733133 -4.14974 0
M  V30 30185 H 2887.79 0.0392785 -3.23676 0
M  V30 30186 H 2886.7 -2.2636 -2.97845 0
M  V30 30187 H 2888.03 -2.9625 -3.93061 0
M  V30 30188 N 2889.69 1.0947 -1.13376 0
M  V30 30189 C 2891.1 1.6313 -0.908039 0
M  V30 30190 C 2891.45 1.88171 0.555543 0
M  V30 30191 O 2890.57 1.63107 1.42215 0
M  V30 30192 C 2891.17 2.96358 -1.64187 0
M  V30 30193 C 2889.73 3.46845 -1.46203 0
M  V30 30194 C 2888.87 2.2127 -1.67138 0
M  V30 30195 H 2891.82 0.928388 -1.28711 0
M  V30 30196 H 2891.85 3.64292 -1.0987 0
M  V30 30197 H 2891.36 2.78101 -2.70705 0
M  V30 30198 H 2889.46 3.70227 -0.419853 0
M  V30 30199 H 2889.57 4.24311 -2.22479 0
M  V30 30200 H 2887.94 2.29904 -1.0962 0
M  V30 30201 H 2888.72 2.05533 -2.74975 0
M  V30 30202 N 2891.16 0.92719 1.2744 0
M  V30 30203 C 2892.39 0.583657 1.98497 0
M  V30 30204 C 2892.81 -0.838211 1.69173 0
M  V30 30205 O 2892.16 -1.55703 0.951997 0
M  V30 30206 C 2892.21 0.799403 3.5255 0
M  V30 30207 O 2891.94 2.16533 3.80848 0
M  V30 30208 C 2893.44 0.464514 4.4086 0
M  V30 30209 H 2890.66 0.221224 0.633483 0
M  V30 30210 H 2893.2 1.24407 1.62306 0
M  V30 30211 H 2891.36 0.185796 3.86954 0
M  V30 30212 H 2891.77 2.21495 4.75437 0
M  V30 30213 H 2893.24 0.666171 5.47965 0
M  V30 30214 H 2893.72 -0.599919 4.35083 0
M  V30 30215 H 2894.33 1.05624 4.11975 0
M  V30 30216 N 2892.64 -1.41564 0.692641 0
M  V30 30217 C 2894.05 -1.84314 0.297511 0
M  V30 30218 C 2894.4 -1.57959 -1.16376 0
M  V30 30219 O 2893.53 -1.04853 -1.89301 0
M  V30 30220 C 2894.12 -3.34578 0.533195 0
M  V30 30221 C 2892.68 -3.7591 0.19201 0
M  V30 30222 C 2891.83 -2.64994 0.816919 0
M  V30 30223 H 2894.78 -1.31157 0.893511 0
M  V30 30224 H 2894.8 -3.79925 -0.209039 0
M  V30 30225 H 2894.31 -3.53728 1.5968 0
M  V30 30226 H 2892.41 -3.62362 -0.867448 0
M  V30 30227 H 2892.53 -4.74739 0.644986 0
M  V30 30228 H 2890.89 -2.53502 0.246759 0
M  V30 30229 H 2891.67 -2.86963 1.88434 0
M  V30 30230 N 2894.12 -0.437188 -1.51415 0
M  V30 30231 C 2895.35 0.127823 -2.06204 0
M  V30 30232 C 2895.76 1.37023 -1.30466 0
M  V30 30233 O 2895.1 1.80187 -0.357548 0
M  V30 30234 C 2895.16 0.51557 -3.55784 0
M  V30 30235 C 2894.83 -0.620017 -4.52775 0
M  V30 30236 C 2895.82 -1.4921 -4.98029 0
M  V30 30237 C 2893.51 -0.800706 -4.95877 0
M  V30 30238 C 2895.5 -2.52957 -5.85057 0
M  V30 30239 C 2893.19 -1.84145 -5.82695 0
M  V30 30240 C 2894.19 -2.70427 -6.27183 0
M  V30 30241 O 2893.88 -3.72714 -7.12278 0
M  V30 30242 H 2893.61 0.0114301 -0.675903 0
M  V30 30243 H 2896.16 -0.615021 -1.95976 0
M  V30 30244 H 2894.39 1.31111 -3.63795 0
M  V30 30245 H 2896.08 1.01172 -3.93089 0
M  V30 30246 H 2896.85 -1.36404 -4.65424 0
M  V30 30247 H 2892.73 -0.138698 -4.60791 0
M  V30 30248 H 2896.27 -3.20336 -6.19702 0
M  V30 30249 H 2892.17 -1.96971 -6.14713 0
M  V30 30250 H 2892.93 -3.69293 -7.30455 0
M  V30 30251 N 2895.6 1.56696 -0.168541 0
M  V30 30252 C 2897.01 1.83415 0.348662 0
M  V30 30253 C 2897.36 1.08823 1.63255 0
M  V30 30254 O 2896.48 0.34037 2.13706 0
M  V30 30255 C 2897.08 3.32712 0.639365 0
M  V30 30256 C 2895.64 3.59937 1.10102 0
M  V30 30257 C 2894.79 2.76969 0.135415 0
M  V30 30258 H 2897.74 1.53761 -0.392856 0
M  V30 30259 H 2897.76 3.5004 1.49173 0
M  V30 30260 H 2897.27 3.86975 -0.295241 0
M  V30 30261 H 2895.37 3.11082 2.05082 0
M  V30 30262 H 2895.48 4.68288 1.0121 0
M  V30 30263 H 2893.85 2.46728 0.632242 0
M  V30 30264 H 2894.63 3.34012 -0.793162 0
M  V30 30265 N 2897.08 -0.105193 1.57249 0
M  V30 30266 C 2898.35 -0.841616 1.76568 0
M  V30 30267 C 2898.73 -1.97419 0.7476 0
M  V30 30268 O 2898.08 -2.27381 -0.225846 0
M  V30 30269 C 2898.29 -1.34555 3.22019 0
M  V30 30270 C 2899.64 -1.79238 3.84914 0
M  V30 30271 O 2900.66 -1.44202 3.25706 0
M  V30 30272 O 2899.52 -2.43986 4.89012 0
M  V30 30273 H 2896.62 -0.400685 0.72345 0
M  V30 30274 H 2899.16 -0.0878595 1.69472 0
M  V30 30275 H 2897.93 -0.533617 3.87644 0
M  V30 30276 H 2897.56 -2.16161 3.33707 0
M  V30 30277 N 2898.55 -1.53055 -0.375752 0
M  V30 30278 C 2899.46 -1.81717 -1.48378 0
M  V30 30279 C 2900.48 -0.704823 -1.59086 0
M  V30 30280 O 2901.66 -0.993816 -1.75172 0
M  V30 30281 C 2898.72 -1.99197 -2.83763 0
M  V30 30282 C 2897.78 -3.23107 -2.82667 0
M  V30 30283 C 2897.02 -3.39743 -4.11595 0
M  V30 30284 O 2897.24 -2.60894 -5.07238 0
M  V30 30285 O 2896.17 -4.33056 -4.18026 0
M  V30 30286 H 2900 -2.75832 -1.27084 0
M  V30 30287 H 2897.58 -1.38309 -0.564877 0
M  V30 30288 H 2899.47 -2.12325 -3.64 0
M  V30 30289 H 2898.14 -1.08272 -3.05056 0
M  V30 30290 H 2897.05 -3.15411 -2.01164 0
M  V30 30291 H 2898.38 -4.13921 -2.66328 0
M  V30 30292 N 2900.03 0.634971 -1.44242 0
M  V30 30293 C 2901.45 0.952719 -1.28045 0
M  V30 30294 C 2901.65 2.00367 -0.213415 0
M  V30 30295 O 2900.7 2.49279 0.401998 0
M  V30 30296 C 2902.02 1.41964 -2.65079 0
M  V30 30297 C 2903.57 1.53532 -2.72758 0
M  V30 30298 C 2904.04 2.03609 -4.10253 0
M  V30 30299 N 2905.53 2.10885 -4.1241 0
M  V30 30300 C 2906.27 2.50794 -5.15645 0
M  V30 30301 N 2905.76 2.89868 -6.29244 0
M  V30 30302 N 2907.56 2.50894 -5.03 0
M  V30 30303 H 2899.71 -0.0601353 -2.12315 0
M  V30 30304 H 2901.97 0.0357159 -0.947327 0
M  V30 30305 H 2901.68 0.721743 -3.44215 0
M  V30 30306 H 2901.55 2.39136 -2.91709 0
M  V30 30307 H 2903.94 2.22419 -1.93943 0
M  V30 30308 H 2904.02 0.547452 -2.49873 0
M  V30 30309 H 2903.66 1.35318 -4.89542 0
M  V30 30310 H 2903.59 3.0326 -4.30512 0
M  V30 30311 H 2906.08 1.83387 -3.3042 0
M  V30 30312 H 2906.4 3.19123 -7.03833 0
M  V30 30313 H 2904.74 2.87629 -6.32688 0
M  V30 30314 H 2907.93 2.19756 -4.1331 0
M  V30 30315 H 2908.1 2.81673 -5.83579 0
M  V30 30316 N 2901.51 1.31076 0.875027 0
M  V30 30317 C 2902.74 1.23553 1.66581 0
M  V30 30318 C 2903.16 -0.196827 1.87067 0
M  V30 30319 O 2902.52 -1.14117 1.40879 0
M  V30 30320 C 2902.57 1.9797 3.01397 0
M  V30 30321 O 2901.67 1.31358 3.9092 0
M  V30 30322 H 2901.01 0.42683 0.508638 0
M  V30 30323 H 2903.54 1.73062 1.09136 0
M  V30 30324 H 2903.55 2.07372 3.5137 0
M  V30 30325 H 2902.23 3.02138 2.85806 0
M  V30 30326 H 2900.8 1.30374 3.49366 0
M  V30 30327 N 2902.99 -1.08867 1.13955 0
M  V30 30328 C 2904.24 -1.8116 0.904842 0
M  V30 30329 C 2904.56 -1.85997 -0.568791 0
M  V30 30330 O 2903.82 -1.32826 -1.43721 0
M  V30 30331 C 2904.12 -3.26886 1.44501 0
M  V30 30332 C 2903.78 -3.42173 2.93647 0
M  V30 30333 C 2902.45 -3.46053 3.34367 0
M  V30 30334 C 2904.8 -3.46239 3.89574 0
M  V30 30335 C 2902.13 -3.51583 4.69687 0
M  V30 30336 C 2904.48 -3.53304 5.24746 0
M  V30 30337 C 2903.14 -3.55455 5.64985 0
M  V30 30338 H 2902.41 -0.662911 0.331105 0
M  V30 30339 H 2905.06 -1.28214 1.42244 0
M  V30 30340 H 2903.36 -3.82508 0.848236 0
M  V30 30341 H 2905.06 -3.81366 1.23941 0
M  V30 30342 H 2901.65 -3.39842 2.61162 0
M  V30 30343 H 2905.83 -3.42477 3.59198 0
M  V30 30344 H 2901.09 -3.51539 5.00231 0
M  V30 30345 H 2905.26 -3.55395 5.98888 0
M  V30 30346 H 2902.89 -3.59493 6.69827 0
M  V30 30347 N 2904.47 -0.933936 -1.26946 0
M  V30 30348 C 2905.4 -0.395176 -2.25768 0
M  V30 30349 C 2906.41 0.477557 -1.55638 0
M  V30 30350 O 2907.6 0.289173 -1.76142 0
M  V30 30351 C 2904.7 0.451823 -3.35875 0
M  V30 30352 C 2903.87 -0.403066 -4.35539 0
M  V30 30353 C 2902.93 0.382308 -5.24809 0
M  V30 30354 O 2901.96 -0.212157 -5.68804 0
M  V30 30355 N 2903.16 1.68063 -5.55639 0
M  V30 30356 H 2905.93 -1.24468 -2.72631 0
M  V30 30357 H 2903.49 -0.802033 -1.40638 0
M  V30 30358 H 2905.48 0.984447 -3.92544 0
M  V30 30359 H 2904.05 1.2021 -2.88563 0
M  V30 30360 H 2903.27 -1.11695 -3.78045 0
M  V30 30361 H 2904.56 -0.987289 -4.99129 0
M  V30 30362 H 2903.95 2.18583 -5.21764 0
M  V30 30363 H 2902.51 2.15964 -6.14982 0
M  V30 30364 N 2905.94 1.41194 -0.700139 0
M  V30 30365 C 2907.17 2.05179 -0.241864 0
M  V30 30366 C 2907.58 1.52805 1.11567 0
M  V30 30367 O 2906.93 0.673072 1.70925 0
M  V30 30368 C 2906.99 3.59276 -0.127013 0
M  V30 30369 C 2906.65 4.34466 -1.41733 0
M  V30 30370 C 2907.65 4.63447 -2.35612 0
M  V30 30371 C 2905.33 4.73657 -1.67197 0
M  V30 30372 C 2907.33 5.30584 -3.53213 0
M  V30 30373 C 2905.01 5.40529 -2.85082 0
M  V30 30374 C 2906.01 5.6892 -3.77914 0
M  V30 30375 O 2905.7 6.34415 -4.93734 0
M  V30 30376 H 2905.43 0.667112 -0.109259 0
M  V30 30377 H 2907.99 1.81871 -0.95457 0
M  V30 30378 H 2906.22 3.81342 0.641504 0
M  V30 30379 H 2907.91 4.04829 0.294677 0
M  V30 30380 H 2908.67 4.33647 -2.17198 0
M  V30 30381 H 2904.55 4.50936 -0.958014 0
M  V30 30382 H 2908.09 5.52661 -4.25689 0
M  V30 30383 H 2903.99 5.69747 -3.03412 0
M  V30 30384 H 2904.76 6.52911 -4.93609 0
M  V30 30385 N 2907.42 0.445212 1.51181 0
M  V30 30386 C 2908.39 -0.350682 2.26501 0
M  V30 30387 C 2909.39 -0.942929 1.30252 0
M  V30 30388 O 2910.58 -0.816148 1.53898 0
M  V30 30389 C 2907.71 -1.49692 3.06276 0
M  V30 30390 H 2908.9 0.309527 2.98298 0
M  V30 30391 H 2906.45 0.198579 1.55033 0
M  V30 30392 H 2907.19 -2.19295 2.38915 0
M  V30 30393 H 2906.97 -1.07834 3.76981 0
M  V30 30394 H 2908.46 -2.05903 3.6331 0
M  V30 30395 N 2908.9 -1.56605 0.176849 0
M  V30 30396 C 2910.18 -1.88744 -0.513332 0
M  V30 30397 C 2910.56 -1.0876 -1.80927 0
M  V30 30398 O 2909.91 -0.183167 -2.27765 0
M  V30 30399 C 2910.12 -3.40849 -0.749865 0
M  V30 30400 C 2911.46 -4.10703 -1.0774 0
M  V30 30401 O 2912.49 -3.46197 -0.838216 0
M  V30 30402 O 2911.35 -5.24677 -1.52892 0
M  V30 30403 H 2908.44 -0.783297 -0.265283 0
M  V30 30404 H 2910.99 -1.68324 0.215698 0
M  V30 30405 H 2909.76 -3.90947 0.166058 0
M  V30 30406 H 2909.38 -3.66899 -1.53201 0
M  V30 30407 N 2910.38 0.0968524 -1.57302 0
M  V30 30408 C 2911.63 0.799356 -1.85184 0
M  V30 30409 C 2911.94 1.79984 -0.765849 0
M  V30 30410 O 2913.15 2.55011 -0.93174 0
M  V30 30411 C 2911.6 1.47244 -3.28401 0
M  V30 30412 C 2911.21 0.51181 -4.45067 0
M  V30 30413 C 2912.95 2.15877 -3.6551 0
M  V30 30414 C 2910.86 1.18938 -5.79317 0
M  V30 30415 H 2909.79 0.302275 -0.690758 0
M  V30 30416 H 2912.44 0.0522781 -1.83426 0
M  V30 30417 H 2910.82 2.26691 -3.24696 0
M  V30 30418 H 2912 -0.251043 -4.60116 0
M  V30 30419 H 2910.31 -0.0687308 -4.16343 0
M  V30 30420 H 2912.91 2.67301 -4.63092 0
M  V30 30421 H 2913.25 2.94691 -2.94046 0
M  V30 30422 H 2913.79 1.43292 -3.71096 0
M  V30 30423 H 2910.53 0.442083 -6.54008 0
M  V30 30424 H 2910.05 1.9237 -5.68114 0
M  V30 30425 H 2911.72 1.71636 -6.23819 0
M  V30 30426 N 2911.86 1.53252 0.36763 0
M  V30 30427 C 2913.09 1.7299 1.12951 0
M  V30 30428 C 2913.49 0.457741 1.83579 0
M  V30 30429 O 2912.84 -0.578976 1.74337 0
M  V30 30430 C 2912.9 2.83906 2.2054 0
M  V30 30431 C 2912.56 4.24326 1.69696 0
M  V30 30432 C 2913.56 5.06745 1.16214 0
M  V30 30433 C 2911.25 4.70728 1.75271 0
M  V30 30434 C 2913.24 6.33656 0.689824 0
M  V30 30435 C 2910.93 5.97619 1.27651 0
M  V30 30436 C 2911.92 6.78914 0.745963 0
M  V30 30437 O 2911.61 8.03423 0.276784 0
M  V30 30438 H 2911.34 0.58208 0.343743 0
M  V30 30439 H 2913.9 2.00783 0.433071 0
M  V30 30440 H 2912.13 2.51583 2.93672 0
M  V30 30441 H 2913.82 2.91841 2.82105 0
M  V30 30442 H 2914.58 4.72069 1.11248 0
M  V30 30443 H 2910.46 4.07526 2.15508 0
M  V30 30444 H 2914.01 6.97058 0.275041 0
M  V30 30445 H 2909.9 6.31794 1.32311 0
M  V30 30446 H 2910.67 8.1754 0.396302 0
M  V30 30447 N 2913.34 -0.627313 1.44577 0
M  V30 30448 C 2914.25 -1.76773 1.54235 0
M  V30 30449 C 2915.26 -1.68659 0.427811 0
M  V30 30450 O 2916.44 -1.89368 0.685705 0
M  V30 30451 C 2913.5 -3.13171 1.48744 0
M  V30 30452 C 2912.56 -3.32888 2.71079 0
M  V30 30453 C 2911.8 -4.62779 2.6584 0
M  V30 30454 O 2912.02 -5.43831 1.72057 0
M  V30 30455 O 2910.95 -4.84781 3.5675 0
M  V30 30456 H 2914.78 -1.71577 2.50589 0
M  V30 30457 H 2912.36 -0.789006 1.26866 0
M  V30 30458 H 2914.25 -3.94474 1.48218 0
M  V30 30459 H 2912.92 -3.18901 0.555348 0
M  V30 30460 H 2911.83 -2.5125 2.77172 0
M  V30 30461 H 2913.16 -3.32023 3.63348 0
M  V30 30462 N 2914.81 -1.31539 -0.868063 0
M  V30 30463 C 2915.75 -1.1517 -1.98163 0
M  V30 30464 C 2916.76 -0.0902621 -1.6255 0
M  V30 30465 O 2917.95 -0.33794 -1.75272 0
M  V30 30466 C 2915.05 -0.737834 -3.30771 0
M  V30 30467 C 2914.22 -1.88469 -3.94713 0
M  V30 30468 C 2913.28 -1.45657 -5.05639 0
M  V30 30469 O 2912.31 -2.16652 -5.26356 0
M  V30 30470 N 2913.51 -0.345032 -5.79474 0
M  V30 30471 H 2916.27 -2.11086 -2.1275 0
M  V30 30472 H 2913.83 -1.23898 -1.04215 0
M  V30 30473 H 2915.83 -0.434102 -4.02365 0
M  V30 30474 H 2914.4 0.129779 -3.1233 0
M  V30 30475 H 2913.62 -2.35564 -3.16075 0
M  V30 30476 H 2914.9 -2.6528 -4.3417 0
M  V30 30477 H 2914.3 0.24616 -5.65164 0
M  V30 30478 H 2912.86 -0.100843 -6.51722 0
M  V30 30479 N 2916.29 1.08262 -1.1453 0
M  V30 30480 C 2917.22 2.14558 -0.777192 0
M  V30 30481 C 2918.2 1.60787 0.242137 0
M  V30 30482 O 2919.39 1.88045 0.130849 0
M  V30 30483 C 2916.51 3.38349 -0.154151 0
M  V30 30484 C 2915.56 4.10874 -1.14389 0
M  V30 30485 S 2916.39 4.63508 -2.68181 0
M  V30 30486 C 2917.55 5.90584 -2.0727 0
M  V30 30487 H 2917.78 2.45451 -1.67752 0
M  V30 30488 H 2915.31 1.20394 -0.966683 0
M  V30 30489 H 2917.27 4.10018 0.198898 0
M  V30 30490 H 2915.93 3.05651 0.723634 0
M  V30 30491 H 2915.13 4.99713 -0.655996 0
M  V30 30492 H 2914.73 3.45125 -1.44101 0
M  V30 30493 H 2917.02 6.62257 -1.42906 0
M  V30 30494 H 2917.96 6.44072 -2.94239 0
M  V30 30495 H 2918.37 5.43666 -1.51945 0
M  V30 30496 N 2917.77 0.940655 1.26449 0
M  V30 30497 C 2918.7 0.394134 2.24771 0
M  V30 30498 C 2919.68 -0.516754 1.5417 0
M  V30 30499 O 2920.86 -0.45432 1.82943 0
M  V30 30500 C 2917.99 -0.433748 3.35911 0
M  V30 30501 C 2917.04 0.415538 4.24471 0
M  V30 30502 S 2917.87 1.83916 5.02927 0
M  V30 30503 C 2919.03 1.01932 6.17544 0
M  V30 30504 H 2919.26 1.22741 2.7078 0
M  V30 30505 H 2916.79 0.743733 1.35307 0
M  V30 30506 H 2918.75 -0.905506 4.00388 0
M  V30 30507 H 2917.41 -1.2417 2.88515 0
M  V30 30508 H 2916.6 -0.218745 5.03525 0
M  V30 30509 H 2916.21 0.821962 3.64856 0
M  V30 30510 H 2918.5 0.261346 6.76996 0
M  V30 30511 H 2919.44 1.7833 6.85277 0
M  V30 30512 H 2919.85 0.555609 5.61759 0
M  V30 30513 N 2919.25 -1.40821 0.707617 0
M  V30 30514 C 2920.18 -2.33411 0.0645335 0
M  V30 30515 C 2921.16 -1.52467 -0.754179 0
M  V30 30516 O 2922.34 -1.80962 -0.704717 0
M  V30 30517 C 2919.47 -3.36386 -0.863806 0
M  V30 30518 C 2918.43 -4.27732 -0.151305 0
M  V30 30519 C 2917.75 -5.2118 -1.19482 0
M  V30 30520 C 2919.05 -5.12837 0.989697 0
M  V30 30521 H 2920.75 -2.87437 0.83788 0
M  V30 30522 H 2918.29 -1.38206 0.404371 0
M  V30 30523 H 2920.25 -4.00093 -1.32302 0
M  V30 30524 H 2918.97 -2.80737 -1.66896 0
M  V30 30525 H 2917.63 -3.65467 0.288001 0
M  V30 30526 H 2917.28 -4.6184 -1.99281 0
M  V30 30527 H 2916.98 -5.83135 -0.723021 0
M  V30 30528 H 2918.5 -5.87763 -1.6543 0
M  V30 30529 H 2919.92 -5.70043 0.610215 0
M  V30 30530 H 2918.31 -5.83795 1.38936 0
M  V30 30531 H 2919.38 -4.49288 1.82397 0
M  V30 30532 N 2920.73 -0.453223 -1.50943 0
M  V30 30533 C 2921.95 0.106099 -2.06628 0
M  V30 30534 C 2922.37 1.35082 -1.31903 0
M  V30 30535 O 2921.73 1.78434 -0.383105 0
M  V30 30536 C 2921.78 0.412305 -3.59141 0
M  V30 30537 O 2921.5 -0.783024 -4.31046 0
M  V30 30538 C 2923 1.02056 -4.31392 0
M  V30 30539 H 2920.22 0.000874102 -0.670999 0
M  V30 30540 H 2922.76 -0.636874 -1.9433 0
M  V30 30541 H 2920.92 1.10519 -3.71301 0
M  V30 30542 H 2921.33 -0.516827 -5.21947 0
M  V30 30543 H 2922.81 1.1847 -5.39137 0
M  V30 30544 H 2923.28 2.00591 -3.90717 0
M  V30 30545 H 2923.89 0.36659 -4.23717 0
M  V30 30546 N 2922.2 1.56509 -0.185151 0
M  V30 30547 C 2923.45 1.96904 0.455322 0
M  V30 30548 C 2923.77 1.0728 1.62837 0
M  V30 30549 O 2923.04 0.142001 1.95385 0
M  V30 30550 H 2921.62 0.727116 0.171206 0
M  V30 30551 H 2924.28 1.93027 -0.269564 0
M  V30 30552 H 2923.38 3.0151 0.806107 0
M  V30 30553 N 2923.68 -0.0885089 1.57351 0
M  V30 30554 C 2924.61 -1.10753 2.05562 0
M  V30 30555 C 2925.59 -1.4138 0.945814 0
M  V30 30556 O 2926.78 -1.51296 1.2175 0
M  V30 30557 C 2923.91 -2.42562 2.48558 0
M  V30 30558 C 2922.86 -2.26328 3.63263 0
M  V30 30559 C 2922.19 -3.63371 3.92257 0
M  V30 30560 C 2923.49 -1.69836 4.93916 0
M  V30 30561 H 2925.18 -0.706417 2.90947 0
M  V30 30562 H 2922.73 -0.33836 1.39968 0
M  V30 30563 H 2924.68 -3.14127 2.80895 0
M  V30 30564 H 2923.4 -2.84622 1.60181 0
M  V30 30565 H 2922.06 -1.57207 3.31182 0
M  V30 30566 H 2921.71 -4.02971 3.01037 0
M  V30 30567 H 2921.41 -3.53353 4.69484 0
M  V30 30568 H 2922.94 -4.36394 4.27075 0
M  V30 30569 H 2924.35 -2.31248 5.24592 0
M  V30 30570 H 2922.75 -1.70559 5.75352 0
M  V30 30571 H 2923.82 -0.658346 4.8041 0
M  V30 30572 N 2925.16 -1.53445 -0.359498 0
M  V30 30573 C 2926.41 -1.69586 -1.09932 0
M  V30 30574 C 2926.73 -0.453404 -1.89656 0
M  V30 30575 O 2926 0.532597 -1.88521 0
M  V30 30576 H 2924.58 -0.625192 -0.408832 0
M  V30 30577 H 2927.24 -1.90653 -0.404637 0
M  V30 30578 H 2926.34 -2.55967 -1.7857 0
M  V30 30579 N 2926.64 0.619637 -1.44908 0
M  V30 30580 C 2928.05 1.20144 -1.42907 0
M  V30 30581 C 2928.4 1.95623 -0.150375 0
M  V30 30582 O 2927.52 2.03036 0.748697 0
M  V30 30583 C 2928.12 2.1854 -2.58893 0
M  V30 30584 C 2926.68 2.72122 -2.60051 0
M  V30 30585 C 2925.83 1.47316 -2.34932 0
M  V30 30586 H 2928.78 0.409639 -1.53322 0
M  V30 30587 H 2928.8 3.01356 -2.32303 0
M  V30 30588 H 2928.31 1.63577 -3.51944 0
M  V30 30589 H 2926.41 3.31057 -1.70974 0
M  V30 30590 H 2926.52 3.17377 -3.58899 0
M  V30 30591 H 2924.89 1.75851 -1.84251 0
M  V30 30592 H 2925.67 0.942384 -3.30112 0
M  V30 30593 N 2928.12 1.31997 0.861075 0
M  V30 30594 C 2929.08 1.20342 1.95065 0
M  V30 30595 C 2930.08 0.128143 1.60289 0
M  V30 30596 O 2931.27 0.378074 1.70048 0
M  V30 30597 C 2928.4 0.849263 3.30152 0
M  V30 30598 H 2929.59 2.17167 2.06829 0
M  V30 30599 H 2927.15 1.15736 1.05047 0
M  V30 30600 H 2927.88 -0.117451 3.24087 0
M  V30 30601 H 2927.67 1.62662 3.56768 0
M  V30 30602 H 2929.16 0.791854 4.10024 0
M  V30 30603 N 2929.59 -1.07653 1.15103 0
M  V30 30604 C 2930.83 -1.81787 0.934494 0
M  V30 30605 C 2931.2 -1.84567 -0.529068 0
M  V30 30606 O 2932.4 -2.54542 -0.863824 0
M  V30 30607 C 2930.67 -3.23079 1.52823 0
M  V30 30608 S 2932.23 -4.13997 1.45437 0
M  V30 30609 H 2929.05 -0.626389 0.33639 0
M  V30 30610 H 2931.65 -1.29345 1.46595 0
M  V30 30611 H 2930.35 -3.18643 2.58641 0
M  V30 30612 H 2929.88 -3.80596 0.995499 0
M  V30 30613 H 2931.9 -4.94199 0.445145 0
M  V30 30614 N 2931.07 -0.947348 -1.25949 0
M  V30 30615 C 2932.48 -0.639994 -1.75388 0
M  V30 30616 C 2932.83 0.844757 -1.77083 0
M  V30 30617 O 2931.96 1.66112 -1.38693 0
M  V30 30618 C 2932.55 -1.15501 -3.18504 0
M  V30 30619 C 2931.11 -0.897959 -3.65532 0
M  V30 30620 C 2930.26 -1.30232 -2.44816 0
M  V30 30621 H 2933.21 -1.12497 -1.11938 0
M  V30 30622 H 2933.23 -0.511694 -3.77044 0
M  V30 30623 H 2932.74 -2.23565 -3.17239 0
M  V30 30624 H 2930.85 0.168031 -3.72221 0
M  V30 30625 H 2930.96 -1.5293 -4.54037 0
M  V30 30626 H 2929.32 -0.720721 -2.4429 0
M  V30 30627 H 2930.11 -2.39202 -2.46246 0
M  V30 30628 N 2932.55 1.40444 -0.715075 0
M  V30 30629 C 2933.78 2.05209 -0.263995 0
M  V30 30630 C 2934.19 1.53873 1.094 0
M  V30 30631 O 2933.55 0.695094 1.68744 0
M  V30 30632 C 2933.6 3.60738 -0.234608 0
M  V30 30633 O 2933.32 4.10179 -1.53898 0
M  V30 30634 C 2934.82 4.42676 0.235086 0
M  V30 30635 H 2932.04 0.660405 -0.118771 0
M  V30 30636 H 2934.59 1.79862 -0.973139 0
M  V30 30637 H 2932.74 3.85056 0.425496 0
M  V30 30638 H 2933.16 5.0437 -1.43912 0
M  V30 30639 H 2934.63 5.51621 0.204501 0
M  V30 30640 H 2935.11 4.2022 1.27716 0
M  V30 30641 H 2935.71 4.23464 -0.394723 0
M  V30 30642 N 2934.03 0.461222 1.507 0
M  V30 30643 C 2935.44 0.114814 1.59186 0
M  V30 30644 C 2935.64 -1.37792 1.47023 0
M  V30 30645 O 2934.7 -2.15025 1.32365 0
M  V30 30646 C 2936.01 0.656218 2.93452 0
M  V30 30647 C 2937.56 0.618769 3.06823 0
M  V30 30648 C 2938.04 1.13755 4.43648 0
M  V30 30649 N 2939.53 1.09654 4.50034 0
M  V30 30650 C 2940.26 1.46856 5.54275 0
M  V30 30651 N 2939.76 1.9146 6.65819 0
M  V30 30652 N 2941.55 1.38521 5.44764 0
M  V30 30653 H 2933.7 1.43219 1.56851 0
M  V30 30654 H 2935.97 0.591663 0.740702 0
M  V30 30655 H 2935.67 1.70155 3.07799 0
M  V30 30656 H 2935.55 0.0942924 3.77082 0
M  V30 30657 H 2937.93 -0.417633 2.9213 0
M  V30 30658 H 2938.01 1.21738 2.24974 0
M  V30 30659 H 2937.66 2.17254 4.5909 0
M  V30 30660 H 2937.59 0.515245 5.24073 0
M  V30 30661 H 2940.08 0.769282 3.69987 0
M  V30 30662 H 2940.39 2.1802 7.41409 0
M  V30 30663 H 2938.74 1.95405 6.66965 0
M  V30 30664 H 2941.93 1.03524 4.56509 0
M  V30 30665 H 2942.1 1.67841 6.25886 0
M  V30 30666 N 2935.51 -1.56408 0.193449 0
M  V30 30667 C 2936.42 -2.22621 -0.740073 0
M  V30 30668 C 2937.43 -1.22476 -1.23594 0
M  V30 30669 O 2938.61 -1.55208 -1.28345 0
M  V30 30670 C 2935.67 -2.8713 -1.94312 0
M  V30 30671 C 2934.73 -4.0254 -1.49198 0
M  V30 30672 C 2933.97 -4.63964 -2.63768 0
M  V30 30673 O 2934.19 -4.24308 -3.81208 0
M  V30 30674 O 2933.12 -5.53458 -2.36575 0
M  V30 30675 H 2936.95 -3.02999 -0.206184 0
M  V30 30676 H 2934.54 -1.49357 -0.0357676 0
M  V30 30677 H 2936.42 -3.27949 -2.64627 0
M  V30 30678 H 2935.09 -2.09732 -2.46564 0
M  V30 30679 H 2934 -3.66347 -0.757673 0
M  V30 30680 H 2935.33 -4.81597 -1.01614 0
M  V30 30681 N 2936.98 0.0801629 -1.57396 0
M  V30 30682 C 2938.4 0.632971 -1.75643 0
M  V30 30683 C 2938.75 1.78346 -0.817739 0
M  V30 30684 O 2937.87 2.164 0.000195706 0
M  V30 30685 C 2938.47 1.15501 -3.18504 0
M  V30 30686 C 2937.03 1.65375 -3.38124 0
M  V30 30687 C 2936.17 0.569613 -2.71387 0
M  V30 30688 H 2939.12 -0.145977 -1.58027 0
M  V30 30689 H 2939.14 2.02402 -3.22201 0
M  V30 30690 H 2938.66 0.317447 -3.868 0
M  V30 30691 H 2936.76 2.51484 -2.7493 0
M  V30 30692 H 2936.87 1.73646 -4.46524 0
M  V30 30693 H 2935.23 1.01266 -2.33704 0
M  V30 30694 H 2936.02 -0.257621 -3.42332 0
M  V30 30695 N 2938.46 1.53634 0.351355 0
M  V30 30696 C 2939.87 1.62038 0.9274 0
M  V30 30697 C 2940.22 0.496739 1.89808 0
M  V30 30698 O 2939.35 -0.374712 2.13131 0
M  V30 30699 C 2939.94 2.93709 1.68881 0
M  V30 30700 C 2938.5 3.04401 2.21398 0
M  V30 30701 C 2937.65 2.57433 1.0307 0
M  V30 30702 H 2940.6 1.58169 0.12972 0
M  V30 30703 H 2940.62 2.8231 2.55111 0
M  V30 30704 H 2940.13 3.75469 0.982083 0
M  V30 30705 H 2938.24 2.27258 2.9527 0
M  V30 30706 H 2938.35 4.09734 2.48305 0
M  V30 30707 H 2936.71 2.12651 1.40184 0
M  V30 30708 H 2937.5 3.41625 0.338733 0
M  V30 30709 N 2939.94 -0.611943 1.45234 0
M  V30 30710 C 2940.87 -1.73371 1.56413 0
M  V30 30711 C 2941.85 -1.64937 0.415925 0
M  V30 30712 O 2943.04 -1.83403 0.63851 0
M  V30 30713 C 2940.17 -3.11963 1.52632 0
M  V30 30714 C 2939.12 -3.35204 2.66125 0
M  V30 30715 C 2938.45 -4.74024 2.47398 0
M  V30 30716 C 2939.75 -3.25884 4.08163 0
M  V30 30717 H 2941.44 -1.64272 2.5031 0
M  V30 30718 H 2938.99 -0.788882 1.20468 0
M  V30 30719 H 2940.94 -3.90232 1.5905 0
M  V30 30720 H 2939.66 -3.21891 0.552621 0
M  V30 30721 H 2938.32 -2.59323 2.59128 0
M  V30 30722 H 2937.97 -4.80679 1.48177 0
M  V30 30723 H 2937.67 -4.9053 3.23503 0
M  V30 30724 H 2939.19 -5.54499 2.55663 0
M  V30 30725 H 2940.61 -3.94033 4.16427 0
M  V30 30726 H 2939.01 -3.53921 4.84623 0
M  V30 30727 H 2940.08 -2.23389 4.30378 0
M  V30 30728 N 2941.42 -1.32452 -0.854063 0
M  V30 30729 C 2942.67 -1.22803 -1.60511 0
M  V30 30730 C 2942.99 0.210039 -1.93866 0
M  V30 30731 O 2942.26 1.13493 -1.59675 0
M  V30 30732 H 2940.84 -0.451526 -0.595091 0
M  V30 30733 H 2943.5 -1.65982 -1.02157 0
M  V30 30734 H 2942.6 -1.81107 -2.54178 0
M  V30 30735 N 2942.9 1.07041 -1.15672 0
M  V30 30736 C 2943.86 2.12497 -0.858943 0
M  V30 30737 C 2944.86 1.60165 0.142707 0
M  V30 30738 O 2946.05 1.73981 -0.0872984 0
M  V30 30739 C 2943.18 3.39723 -0.28308 0
M  V30 30740 H 2944.38 2.40345 -1.79372 0
M  V30 30741 H 2941.93 1.22982 -0.964629 0
M  V30 30742 H 2942.66 3.17518 0.65974 0
M  V30 30743 H 2942.45 3.79009 -1.00473 0
M  V30 30744 H 2943.94 4.17498 -0.0924277 0
M  V30 30745 N 2944.38 0.954014 1.25445 0
M  V30 30746 C 2945.34 0.478219 2.24156 0
M  V30 30747 C 2946.34 -0.417749 1.55279 0
M  V30 30748 O 2947.53 -0.215124 1.72867 0
M  V30 30749 C 2944.66 -0.309142 3.39495 0
M  V30 30750 H 2945.85 1.35069 2.67762 0
M  V30 30751 H 2943.41 0.737231 1.37821 0
M  V30 30752 H 2944.14 -1.19931 3.01309 0
M  V30 30753 H 2943.93 0.333631 3.90678 0
M  V30 30754 H 2945.42 -0.631521 4.12797 0
M  V30 30755 N 2945.85 -1.40063 0.722513 0
M  V30 30756 C 2947.1 -2.00362 0.26449 0
M  V30 30757 C 2947.42 -1.57594 -1.14844 0
M  V30 30758 O 2946.69 -0.818508 -1.77981 0
M  V30 30759 H 2945.27 -0.74096 0.0947976 0
M  V30 30760 H 2947.93 -1.71297 0.929689 0
M  V30 30761 H 2947.03 -3.10625 0.303031 0
M  V30 30762 N 2947.33 -0.469207 -1.50453 0
M  V30 30763 C 2948.61 0.14792 -1.9504 0
M  V30 30764 C 2948.99 1.57151 -1.40949 0
M  V30 30765 O 2948.34 2.20216 -0.609702 0
M  V30 30766 C 2948.55 0.0931585 -3.48876 0
M  V30 30767 C 2949.89 0.282982 -4.23656 0
M  V30 30768 O 2950.92 0.169829 -3.55795 0
M  V30 30769 O 2949.78 0.511301 -5.44103 0
M  V30 30770 H 2946.87 0.112696 -0.819285 0
M  V30 30771 H 2949.42 -0.529474 -1.61229 0
M  V30 30772 H 2948.19 -0.900851 -3.80789 0
M  V30 30773 H 2947.81 0.812093 -3.89218 0
M  V30 30774 N 2948.81 1.56303 -0.201741 0
M  V30 30775 C 2950.06 1.98819 0.429257 0
M  V30 30776 C 2950.41 1.08662 1.58778 0
M  V30 30777 O 2949.7 0.132398 1.91142 0
M  V30 30778 C 2949.9 3.45051 0.931371 0
M  V30 30779 C 2949.73 4.49352 -0.176957 0
M  V30 30780 C 2948.5 5.01271 -0.6368 0
M  V30 30781 C 2950.69 5.04716 -0.988266 0
M  V30 30782 N 2948.68 5.89247 -1.72226 0
M  V30 30783 C 2950.05 5.89425 -1.92299 0
M  V30 30784 C 2952.1 4.87131 -1.02994 0
M  V30 30785 C 2950.81 6.58429 -2.89593 0
M  V30 30786 C 2952.83 5.56879 -1.99097 0
M  V30 30787 C 2952.19 6.4134 -2.91311 0
M  V30 30788 H 2948.29 0.772057 0.124309 0
M  V30 30789 H 2950.88 1.92233 -0.308963 0
M  V30 30790 H 2949.05 3.52124 1.63901 0
M  V30 30791 H 2950.78 3.7452 1.53353 0
M  V30 30792 H 2947.53 4.73046 -0.228945 0
M  V30 30793 H 2947.96 6.37937 -2.26639 0
M  V30 30794 H 2952.6 4.21503 -0.330968 0
M  V30 30795 H 2950.32 7.23251 -3.60462 0
M  V30 30796 H 2953.9 5.45247 -2.0297 0
M  V30 30797 H 2952.78 6.94361 -3.64462 0
M  V30 30798 N 2950.29 -0.0718147 1.57436 0
M  V30 30799 C 2951.7 -0.623647 1.75976 0
M  V30 30800 C 2952.05 -1.7791 0.827186 0
M  V30 30801 O 2951.17 -2.16397 0.0112805 0
M  V30 30802 C 2951.77 -1.1381 3.19112 0
M  V30 30803 C 2950.33 -1.6358 3.38996 0
M  V30 30804 C 2949.48 -0.555213 2.71685 0
M  V30 30805 H 2952.43 0.154356 1.57948 0
M  V30 30806 H 2952.45 -2.00691 3.2327 0
M  V30 30807 H 2951.96 -0.29693 3.86962 0
M  V30 30808 H 2950.06 -2.50022 2.7626 0
M  V30 30809 H 2950.17 -1.71276 4.47439 0
M  V30 30810 H 2948.54 -1.00025 2.34237 0
M  V30 30811 H 2949.32 0.275772 3.42191 0
M  V30 30812 N 2951.77 -1.53818 -0.343203 0
M  V30 30813 C 2953.18 -1.62527 -0.918794 0
M  V30 30814 C 2953.53 -0.506798 -1.89542 0
M  V30 30815 O 2952.65 0.363403 -2.13327 0
M  V30 30816 C 2953.25 -2.946 -1.67321 0
M  V30 30817 C 2951.81 -3.05571 -2.19781 0
M  V30 30818 C 2950.95 -2.57976 -1.01703 0
M  V30 30819 H 2953.9 -1.58236 -0.12133 0
M  V30 30820 H 2953.93 -2.83659 -2.5361 0
M  V30 30821 H 2953.44 -3.75984 -0.962157 0
M  V30 30822 H 2951.54 -2.28821 -2.94061 0
M  V30 30823 H 2951.65 -4.11045 -2.46128 0
M  V30 30824 H 2950.02 -2.13392 -1.39054 0
M  V30 30825 H 2950.8 -3.418 -0.320611 0
M  V30 30826 N 2953.24 0.604233 -1.45557 0
M  V30 30827 C 2954.48 1.37442 -1.51291 0
M  V30 30828 C 2954.85 1.91396 -0.152145 0
M  V30 30829 O 2956.05 2.68668 -0.0841891 0
M  V30 30830 C 2954.32 2.4892 -2.56464 0
M  V30 30831 S 2955.88 3.36649 -2.81448 0
M  V30 30832 H 2952.7 0.46854 -0.534782 0
M  V30 30833 H 2955.3 0.696869 -1.82658 0
M  V30 30834 H 2954 2.07638 -3.53998 0
M  V30 30835 H 2953.53 3.21472 -2.26759 0
M  V30 30836 H 2955.55 4.47163 -2.15081 0
M  V30 30837 N 2954.72 1.32903 0.847027 0
M  V30 30838 C 2955.65 1.25095 1.97164 0
M  V30 30839 C 2956.63 0.133191 1.69578 0
M  V30 30840 O 2957.82 0.321625 1.91518 0
M  V30 30841 C 2954.95 0.981064 3.33155 0
M  V30 30842 C 2953.9 2.06088 3.75116 0
M  V30 30843 C 2953.23 1.64327 5.08823 0
M  V30 30844 C 2954.53 3.47676 3.89768 0
M  V30 30845 H 2956.22 2.19187 2.03954 0
M  V30 30846 H 2953.77 1.05519 0.979888 0
M  V30 30847 H 2955.72 0.912964 4.11391 0
M  V30 30848 H 2954.44 0.00451299 3.266 0
M  V30 30849 H 2953.1 2.11927 2.99137 0
M  V30 30850 H 2952.75 0.653964 4.98731 0
M  V30 30851 H 2952.45 2.36582 5.37869 0
M  V30 30852 H 2953.98 1.58968 5.89543 0
M  V30 30853 H 2955.39 3.44384 4.58337 0
M  V30 30854 H 2953.79 4.18346 4.30241 0
M  V30 30855 H 2954.86 3.86778 2.92456 0
M  V30 30856 N 2956.2 -1.06426 1.16238 0
M  V30 30857 C 2957.42 -1.83439 0.96772 0
M  V30 30858 C 2957.85 -1.81895 -0.479135 0
M  V30 30859 O 2957.21 -1.21878 -1.34222 0
M  V30 30860 C 2957.26 -3.28007 1.49811 0
M  V30 30861 O 2956.36 -4.06354 0.703553 0
M  V30 30862 H 2955.7 -0.567654 0.344478 0
M  V30 30863 H 2958.23 -1.34195 1.54444 0
M  V30 30864 H 2958.24 -3.78829 1.51502 0
M  V30 30865 H 2956.92 -3.28446 2.55139 0
M  V30 30866 H 2955.49 -3.65134 0.757051 0
M  V30 30867 N 2957.68 -0.960653 -1.24937 0
M  V30 30868 C 2958.91 -0.636079 -1.9688 0
M  V30 30869 C 2959.32 0.793063 -1.71336 0
M  V30 30870 O 2958.68 1.53124 -0.992944 0
M  V30 30871 C 2958.73 -0.892595 -3.50307 0
M  V30 30872 O 2958.45 -2.26555 -3.74973 0
M  V30 30873 C 2959.95 -0.581237 -4.39473 0
M  V30 30874 H 2957.17 -0.237942 -0.627395 0
M  V30 30875 H 2959.72 -1.28667 -1.5895 0
M  V30 30876 H 2957.87 -0.288325 -3.86326 0
M  V30 30877 H 2958.28 -2.34022 -4.69397 0
M  V30 30878 H 2959.76 -0.811221 -5.46007 0
M  V30 30879 H 2960.24 0.484353 -4.36521 0
M  V30 30880 H 2960.84 -1.1651 -4.0903 0
M  V30 30881 N 2959.16 1.39677 -0.729931 0
M  V30 30882 C 2960.1 2.30637 -0.0866469 0
M  V30 30883 C 2961.07 1.48948 0.735089 0
M  V30 30884 O 2962.26 1.77649 0.696094 0
M  V30 30885 C 2959.4 3.35254 0.818465 0
M  V30 30886 C 2958.51 4.31997 -0.0153394 0
M  V30 30887 C 2957.65 5.23681 0.890577 0
M  V30 30888 C 2956.69 6.12078 0.051717 0
M  V30 30889 N 2955.82 6.96135 0.913289 0
M  V30 30890 H 2960.66 2.85079 -0.867975 0
M  V30 30891 H 2958.2 1.40375 -0.439697 0
M  V30 30892 H 2960.16 3.94493 1.35763 0
M  V30 30893 H 2958.79 2.8228 1.56582 0
M  V30 30894 H 2957.84 3.7442 -0.67186 0
M  V30 30895 H 2959.15 4.94358 -0.664173 0
M  V30 30896 H 2958.31 5.87922 1.49776 0
M  V30 30897 H 2957.04 4.61629 1.5732 0
M  V30 30898 H 2956.05 5.46855 -0.568305 0
M  V30 30899 H 2957.27 6.76194 -0.627616 0
M  V30 30900 H 2955.22 6.36656 1.5813 0
M  V30 30901 H 2955.14 7.55319 0.32082 0
M  V30 30902 H 2956.41 7.6481 1.5062 0
M  V30 30903 N 2960.63 0.47718 1.50202 0
M  V30 30904 C 2961.54 -0.318987 2.32421 0
M  V30 30905 C 2962.56 -0.990208 1.43076 0
M  V30 30906 O 2963.74 -0.976842 1.76124 0
M  V30 30907 C 2960.8 -1.38323 3.17911 0
M  V30 30908 C 2959.86 -0.727962 4.23083 0
M  V30 30909 C 2959.1 -1.74149 5.04488 0
M  V30 30910 O 2959.32 -2.96872 4.87056 0
M  V30 30911 O 2958.25 -1.30996 5.87472 0
M  V30 30912 H 2962.08 0.353334 3.01638 0
M  V30 30913 H 2959.66 0.238917 1.47477 0
M  V30 30914 H 2961.55 -1.99953 3.7094 0
M  V30 30915 H 2960.22 -2.03891 2.51417 0
M  V30 30916 H 2959.13 -0.0725442 3.7403 0
M  V30 30917 H 2960.46 -0.115129 4.92065 0
M  V30 30918 N 2962.11 -1.56194 0.210027 0
M  V30 30919 C 2963.08 -2.1853 -0.691193 0
M  V30 30920 C 2964.08 -1.1439 -1.13011 0
M  V30 30921 O 2965.27 -1.3969 -1.04078 0
M  V30 30922 C 2962.4 -2.79937 -1.94546 0
M  V30 30923 H 2963.59 -2.99535 -0.1479 0
M  V30 30924 H 2961.14 -1.5625 -0.0395968 0
M  V30 30925 H 2961.88 -2.02771 -2.5309 0
M  V30 30926 H 2961.66 -3.56187 -1.63931 0
M  V30 30927 H 2963.15 -3.27755 -2.58779 0
M  V30 30928 N 2963.59 0.0634645 -1.57472 0
M  V30 30929 C 2964.55 1.05897 -2.0327 0
M  V30 30930 C 2965.55 1.31103 -0.931051 0
M  V30 30931 O 2966.74 1.26684 -1.19569 0
M  V30 30932 C 2963.88 2.40058 -2.42043 0
M  V30 30933 H 2965.07 0.664067 -2.92455 0
M  V30 30934 H 2962.62 0.309418 -1.53207 0
M  V30 30935 H 2963.36 2.84364 -1.55909 0
M  V30 30936 H 2963.14 2.23102 -3.22441 0
M  V30 30937 H 2964.63 3.11598 -2.78023 0
M  V30 30938 N 2965.07 1.53998 0.33504 0
M  V30 30939 C 2966.03 1.81875 1.39478 0
M  V30 30940 C 2967.03 0.690104 1.45238 0
M  V30 30941 O 2968.22 0.958403 1.45466 0
M  V30 30942 C 2965.35 1.96845 2.78325 0
M  V30 30943 H 2966.55 2.76549 1.16019 0
M  V30 30944 H 2964.1 1.4554 0.5699 0
M  V30 30945 H 2964.83 1.04342 3.07056 0
M  V30 30946 H 2964.62 2.78963 2.75539 0
M  V30 30947 H 2966.11 2.199 3.55012 0
M  V30 30948 N 2966.55 -0.596505 1.45875 0
M  V30 30949 C 2967.79 -1.35251 1.50172 0
M  V30 30950 C 2968.12 -1.94428 0.14928 0
M  V30 30951 O 2967.39 -1.7779 -0.822648 0
M  V30 30952 H 2965.97 -0.502129 0.55306 0
M  V30 30953 H 2968.63 -0.699639 1.81909 0
M  V30 30954 H 2967.72 -2.16628 2.24674 0
M  V30 30955 N 2968.02 -1.3335 -0.839967 0
M  V30 30956 C 2969.44 -1.12661 -1.13047 0
M  V30 30957 C 2969.64 0.0832259 -2.01328 0
M  V30 30958 O 2968.7 0.763814 -2.4067 0
M  V30 30959 C 2970.01 -2.4135 -1.79362 0
M  V30 30960 C 2971.56 -2.47246 -1.91933 0
M  V30 30961 C 2972.03 -3.75894 -2.61664 0
M  V30 30962 N 2973.52 -3.76959 -2.69177 0
M  V30 30963 C 2974.26 -4.73211 -3.23819 0
M  V30 30964 N 2973.75 -5.79839 -3.79156 0
M  V30 30965 N 2975.55 -4.60688 -3.2206 0
M  V30 30966 H 2967.7 -2.10895 -0.252394 0
M  V30 30967 H 2969.96 -0.931804 -0.174485 0
M  V30 30968 H 2969.67 -3.29879 -1.21954 0
M  V30 30969 H 2969.54 -2.53417 -2.79392 0
M  V30 30970 H 2971.93 -1.59167 -2.48495 0
M  V30 30971 H 2972.01 -2.39121 -0.908562 0
M  V30 30972 H 2971.65 -4.64354 -2.05761 0
M  V30 30973 H 2971.58 -3.81295 -3.6321 0
M  V30 30974 H 2974.07 -2.99897 -2.29935 0
M  V30 30975 H 2974.39 -6.4932 -4.1905 0
M  V30 30976 H 2972.73 -5.83574 -3.77447 0
M  V30 30977 H 2975.92 -3.76545 -2.78085 0
M  V30 30978 H 2976.1 -5.35872 -3.64342 0
M  V30 30979 N 2969.5 1.05808 -1.16801 0
M  V30 30980 C 2970.45 2.15508 -0.875149 0
M  V30 30981 C 2971.44 1.68664 0.157751 0
M  V30 30982 O 2972.65 1.79996 0.0112654 0
M  V30 30983 H 2969.03 0.703598 -0.265432 0
M  V30 30984 H 2971 2.37417 -1.80764 0
M  V30 30985 C 2969.75 3.45414 -0.398081 0
M  V30 30986 H 2969.07 3.81856 -1.18432 0
M  V30 30987 H 2970.51 4.23365 -0.231988 0
M  V30 30988 C 2968.97 3.25117 0.883213 0
M  V30 30989 O 2969.5 3.51118 1.95139 0
M  V30 30990 N 2967.7 2.78527 0.828912 0
M  V30 30991 H 2967.25 2.57568 -0.0405482 0
M  V30 30992 H 2967.21 2.65327 1.68669 0
M  V30 30993 N 2970.98 0.967265 1.24426 0
M  V30 30994 C 2972.21 0.646511 1.9654 0
M  V30 30995 C 2972.62 -0.783966 1.71754 0
M  V30 30996 O 2971.98 -1.52595 1.00105 0
M  V30 30997 C 2972.03 0.91116 3.49829 0
M  V30 30998 O 2971.75 2.2854 3.73766 0
M  V30 30999 C 2973.25 0.604535 4.39159 0
M  V30 31000 H 2970.47 0.241266 0.626124 0
M  V30 31001 H 2973.02 1.29508 1.58265 0
M  V30 31002 H 2971.17 0.308808 3.86167 0
M  V30 31003 H 2971.59 2.36508 4.6815 0
M  V30 31004 H 2973.06 0.840165 5.45569 0
M  V30 31005 H 2973.54 -0.461197 4.36772 0
M  V30 31006 H 2974.14 1.18677 4.08406 0
M  V30 31007 N 2972.46 -1.39288 0.737328 0
M  V30 31008 C 2973.68 -2.05287 0.295273 0
M  V30 31009 C 2974.11 -1.5523 -1.06232 0
M  V30 31010 O 2973.47 -0.697072 -1.67364 0
M  V30 31011 C 2973.52 -3.59272 0.30921 0
M  V30 31012 O 2972.62 -4.06375 -0.702365 0
M  V30 31013 H 2971.96 -0.650385 0.133773 0
M  V30 31014 H 2974.49 -1.78278 1.0039 0
M  V30 31015 H 2974.5 -4.07708 0.154408 0
M  V30 31016 H 2973.18 -3.95067 1.29981 0
M  V30 31017 H 2971.75 -3.69347 -0.513509 0
M  V30 31018 N 2973.94 -0.485139 -1.49947 0
M  V30 31019 C 2974.9 0.290506 -2.27351 0
M  V30 31020 C 2975.9 0.908064 -1.32706 0
M  V30 31021 O 2977.09 0.775058 -1.56008 0
M  V30 31022 C 2974.22 1.41519 -3.10137 0
M  V30 31023 H 2975.42 -0.388506 -2.97373 0
M  V30 31024 H 2972.97 -0.239613 -1.54452 0
M  V30 31025 H 2973.7 2.12883 -2.44645 0
M  V30 31026 H 2973.49 0.978007 -3.79707 0
M  V30 31027 H 2974.98 1.96198 -3.68641 0
M  V30 31028 N 2975.42 1.56081 -0.218307 0
M  V30 31029 C 2976.33 2.2377 0.704562 0
M  V30 31030 C 2977.34 1.24427 1.2163 0
M  V30 31031 O 2978.52 1.5723 1.2586 0
M  V30 31032 C 2975.58 2.90185 1.89719 0
M  V30 31033 C 2974.64 4.04863 1.42775 0
M  V30 31034 C 2973.88 4.68101 2.56353 0
M  V30 31035 O 2974.1 4.30319 3.74409 0
M  V30 31036 O 2973.03 5.57152 2.2774 0
M  V30 31037 H 2976.86 3.03289 0.157954 0
M  V30 31038 H 2974.44 1.49395 0.0120016 0
M  V30 31039 H 2976.33 3.32117 2.59376 0
M  V30 31040 H 2975 2.13628 2.43197 0
M  V30 31041 H 2973.91 3.67506 0.699295 0
M  V30 31042 H 2975.24 4.83152 0.939389 0
M  V30 31043 N 2976.89 -0.0551124 1.57504 0
M  V30 31044 C 2977.84 -1.06369 2.04827 0
M  V30 31045 C 2978.81 -1.37479 0.932132 0
M  V30 31046 O 2980 -1.48263 1.20095 0
M  V30 31047 C 2977.14 -2.36739 2.51095 0
M  V30 31048 C 2976.25 -2.12014 3.76396 0
M  V30 31049 C 2975.38 -3.36066 4.11379 0
M  V30 31050 C 2974.42 -3.0678 5.29672 0
M  V30 31051 N 2973.56 -4.2321 5.60212 0
M  V30 31052 H 2978.4 -0.653165 2.90754 0
M  V30 31053 H 2975.94 -0.310926 1.43776 0
M  V30 31054 H 2977.89 -3.12877 2.75978 0
M  V30 31055 H 2976.52 -2.75562 1.68123 0
M  V30 31056 H 2975.58 -1.26492 3.58753 0
M  V30 31057 H 2976.89 -1.86393 4.62665 0
M  V30 31058 H 2976.04 -4.2059 4.37252 0
M  V30 31059 H 2974.78 -3.64778 3.2371 0
M  V30 31060 H 2973.79 -2.20656 5.03578 0
M  V30 31061 H 2975.01 -2.79374 6.18973 0
M  V30 31062 H 2972.96 -4.51922 4.75503 0
M  V30 31063 H 2972.87 -4.00921 6.40935 0
M  V30 31064 H 2974.14 -5.08682 5.90646 0
M  V30 31065 N 2978.37 -1.54173 -0.326869 0
M  V30 31066 C 2979.28 -1.86346 -1.42522 0
M  V30 31067 C 2980.3 -0.755078 -1.56763 0
M  V30 31068 O 2981.47 -1.04904 -1.71922 0
M  V30 31069 C 2978.54 -2.08124 -2.77282 0
M  V30 31070 C 2977.6 -3.31936 -2.72245 0
M  V30 31071 C 2976.83 -3.52666 -4.00578 0
M  V30 31072 O 2977.06 -2.769 -4.98681 0
M  V30 31073 O 2975.99 -4.46136 -4.04037 0
M  V30 31074 H 2979.82 -2.79736 -1.18244 0
M  V30 31075 H 2977.4 -1.40037 -0.520589 0
M  V30 31076 H 2979.28 -2.23797 -3.57061 0
M  V30 31077 H 2977.96 -1.17922 -3.01457 0
M  V30 31078 H 2976.86 -3.21651 -1.91028 0
M  V30 31079 H 2978.2 -4.22184 -2.53024 0
M  V30 31080 N 2979.85 0.58876 -1.4619 0
M  V30 31081 C 2980.78 1.7086 -1.59151 0
M  V30 31082 C 2981.76 1.64254 -0.442112 0
M  V30 31083 O 2982.95 1.82364 -0.667608 0
M  V30 31084 C 2980.08 3.09495 -1.57576 0
M  V30 31085 C 2979.03 3.30928 -2.71424 0
M  V30 31086 C 2978.36 4.70028 -2.54908 0
M  V30 31087 C 2979.66 3.19349 -4.13296 0
M  V30 31088 H 2981.35 1.60269 -2.52892 0
M  V30 31089 H 2978.9 0.769617 -1.21708 0
M  V30 31090 H 2980.85 3.87652 -1.65238 0
M  V30 31091 H 2979.57 3.20971 -0.603761 0
M  V30 31092 H 2978.23 2.55167 -2.63221 0
M  V30 31093 H 2977.88 4.78261 -1.55805 0
M  V30 31094 H 2977.58 4.85321 -3.31266 0
M  V30 31095 H 2979.1 5.50361 -2.64452 0
M  V30 31096 H 2980.52 3.87358 -4.22643 0
M  V30 31097 H 2978.91 3.46166 -4.90193 0
M  V30 31098 H 2979.98 2.16514 -4.33877 0
M  V30 31099 N 2981.33 1.33794 0.832883 0
M  V30 31100 C 2982.55 1.28791 1.62566 0
M  V30 31101 C 2982.98 -0.137213 1.87599 0
M  V30 31102 O 2982.34 -1.09578 1.44438 0
M  V30 31103 C 2982.38 2.07458 2.94946 0
M  V30 31104 O 2981.49 1.43728 3.86544 0
M  V30 31105 H 2980.83 0.442796 0.494801 0
M  V30 31106 H 2983.36 1.76447 1.03575 0
M  V30 31107 H 2983.37 2.18446 3.44595 0
M  V30 31108 H 2982.04 3.11078 2.76049 0
M  V30 31109 H 2980.62 1.41423 3.45042 0
M  V30 31110 N 2982.81 -1.05187 1.1736 0
M  V30 31111 C 2984.03 -1.82402 0.987122 0
M  V30 31112 C 2984.46 -1.82393 -0.459816 0
M  V30 31113 O 2983.81 -1.23294 -1.32922 0
M  V30 31114 C 2983.86 -3.264 1.53282 0
M  V30 31115 O 2982.97 -4.05585 0.746612 0
M  V30 31116 H 2982.31 -0.563968 0.35048 0
M  V30 31117 H 2984.84 -1.32549 1.55859 0
M  V30 31118 H 2984.85 -3.77201 1.55511 0
M  V30 31119 H 2983.52 -3.25721 2.58608 0
M  V30 31120 H 2982.1 -3.64311 0.795735 0
M  V30 31121 N 2984.28 -0.97385 -1.23911 0
M  V30 31122 C 2985.69 -0.677052 -1.73991 0
M  V30 31123 C 2986.05 0.807005 -1.78835 0
M  V30 31124 O 2985.17 1.63133 -1.42185 0
M  V30 31125 C 2985.77 -1.22231 -3.15983 0
M  V30 31126 C 2984.32 -0.975291 -3.63545 0
M  V30 31127 C 2983.47 -1.35396 -2.41998 0
M  V30 31128 H 2986.42 -1.14846 -1.09527 0
M  V30 31129 H 2986.44 -0.591555 -3.75873 0
M  V30 31130 H 2985.96 -2.30244 -3.12425 0
M  V30 31131 H 2984.06 0.0890392 -3.72494 0
M  V30 31132 H 2984.17 -1.62526 -4.50691 0
M  V30 31133 H 2982.53 -0.772377 -2.42706 0
M  V30 31134 H 2983.32 -2.44371 -2.41117 0
M  V30 31135 N 2985.76 1.38895 -0.744705 0
M  V30 31136 C 2987.01 1.99549 -0.293751 0
M  V30 31137 C 2987.32 1.59779 1.12828 0
M  V30 31138 O 2988.53 2.13339 1.67925 0
M  V30 31139 C 2986.99 3.56762 -0.474251 0
M  V30 31140 C 2986.59 4.05489 -1.90479 0
M  V30 31141 C 2988.34 4.24414 -0.0855621 0
M  V30 31142 C 2986.24 5.5531 -2.03433 0
M  V30 31143 H 2985.17 0.746501 -0.10608 0
M  V30 31144 H 2987.83 1.58772 -0.919976 0
M  V30 31145 H 2986.21 3.95383 0.221022 0
M  V30 31146 H 2987.38 3.7818 -2.63281 0
M  V30 31147 H 2985.7 3.50532 -2.24758 0
M  V30 31148 H 2988.29 5.34457 -0.161227 0
M  V30 31149 H 2988.64 4.05066 0.960589 0
M  V30 31150 H 2989.17 3.91001 -0.732354 0
M  V30 31151 H 2985.91 5.7955 -3.06271 0
M  V30 31152 H 2985.43 5.84391 -1.3508 0
M  V30 31153 H 2987.11 6.20872 -1.82007 0
M  V30 31154 N 2987.24 0.493084 1.49688 0
M  V30 31155 C 2988.47 -0.053475 2.07331 0
M  V30 31156 C 2988.89 -1.30779 1.35198 0
M  V30 31157 O 2988.25 -1.76689 0.406277 0
M  V30 31158 C 2988.3 -0.298187 3.59365 0
M  V30 31159 O 2987.4 -1.37447 3.88821 0
M  V30 31160 H 2986.74 0.0227134 0.663611 0
M  V30 31161 H 2989.27 0.690436 1.92598 0
M  V30 31162 H 2989.28 -0.532088 4.04516 0
M  V30 31163 H 2987.96 0.618279 4.11279 0
M  V30 31164 H 2986.53 -1.12615 3.55489 0
M  V30 31165 N 2988.72 -1.55963 0.226582 0
M  V30 31166 C 2990.13 -1.84583 -0.280349 0
M  V30 31167 C 2990.48 -1.14807 -1.59103 0
M  V30 31168 O 2989.61 -0.419452 -2.12296 0
M  V30 31169 C 2990.2 -3.34856 -0.51544 0
M  V30 31170 C 2988.76 -3.63775 -0.966669 0
M  V30 31171 C 2987.91 -2.77281 -0.0325266 0
M  V30 31172 H 2990.86 -1.52197 0.449653 0
M  V30 31173 H 2990.88 -3.55335 -1.36079 0
M  V30 31174 H 2990.39 -3.85613 0.438661 0
M  V30 31175 H 2988.49 -3.18479 -1.93395 0
M  V30 31176 H 2988.6 -4.71721 -0.837596 0
M  V30 31177 H 2986.97 -2.48905 -0.540235 0
M  V30 31178 H 2987.75 -3.30838 0.916582 0
M  V30 31179 N 2990.2 0.0467589 -1.57531 0
M  V30 31180 C 2991.14 1.05281 -2.05389 0
M  V30 31181 C 2992.11 1.36983 -0.93941 0
M  V30 31182 O 2993.3 1.47624 -1.2088 0
M  V30 31183 C 2990.44 2.35404 -2.52347 0
M  V30 31184 C 2989.55 2.10015 -3.77515 0
M  V30 31185 C 2988.69 3.3388 -4.13156 0
M  V30 31186 C 2987.73 3.03967 -5.31291 0
M  V30 31187 N 2986.86 4.20233 -5.62449 0
M  V30 31188 H 2991.7 0.637737 -2.91096 0
M  V30 31189 H 2989.24 0.303297 -1.43939 0
M  V30 31190 H 2991.2 3.11409 -2.77634 0
M  V30 31191 H 2989.83 2.74667 -1.69582 0
M  V30 31192 H 2988.88 1.24587 -3.59419 0
M  V30 31193 H 2990.19 1.83937 -4.63647 0
M  V30 31194 H 2989.35 4.18265 -4.39476 0
M  V30 31195 H 2988.08 3.63056 -3.2564 0
M  V30 31196 H 2987.09 2.17982 -5.04741 0
M  V30 31197 H 2988.31 2.76087 -6.20445 0
M  V30 31198 H 2986.26 4.49393 -4.77893 0
M  V30 31199 H 2986.18 3.97517 -6.43053 0
M  V30 31200 H 2987.45 5.05542 -5.93336 0
M  V30 31201 N 2991.67 1.54344 0.318688 0
M  V30 31202 C 2992.9 1.77071 1.07984 0
M  V30 31203 C 2993.32 0.520148 1.80765 0
M  V30 31204 O 2992.68 -0.528535 1.73425 0
M  V30 31205 C 2992.73 2.96673 2.04982 0
M  V30 31206 O 2991.83 2.68559 3.12969 0
M  V30 31207 H 2991.18 0.586612 0.311099 0
M  V30 31208 H 2993.71 2.01381 0.361497 0
M  V30 31209 H 2993.72 3.24155 2.47765 0
M  V30 31210 H 2992.39 3.8736 1.5141 0
M  V30 31211 H 2990.97 2.52041 2.74826 0
M  V30 31212 N 2993.15 -0.580999 1.465 0
M  V30 31213 C 2994.08 -1.70014 1.60055 0
M  V30 31214 C 2995.06 -1.64017 0.450816 0
M  V30 31215 O 2996.25 -1.82007 0.677269 0
M  V30 31216 C 2993.38 -3.08655 1.59215 0
M  V30 31217 C 2992.33 -3.29483 2.73175 0
M  V30 31218 C 2991.66 -4.68669 2.57397 0
M  V30 31219 C 2992.96 -3.17153 4.14984 0
M  V30 31220 H 2994.65 -1.58926 2.53738 0
M  V30 31221 H 2992.2 -0.763152 1.22115 0
M  V30 31222 H 2994.15 -3.86771 1.67292 0
M  V30 31223 H 2992.88 -3.20646 0.620775 0
M  V30 31224 H 2991.53 -2.53768 2.6457 0
M  V30 31225 H 2991.18 -4.77428 1.58339 0
M  V30 31226 H 2990.88 -4.83558 3.33835 0
M  V30 31227 H 2992.41 -5.48951 2.67367 0
M  V30 31228 H 2993.82 -3.85111 4.24691 0
M  V30 31229 H 2992.22 -3.43562 4.92022 0
M  V30 31230 H 2993.29 -2.1421 4.3502 0
M  V30 31231 N 2994.63 -1.34234 -0.825776 0
M  V30 31232 C 2995.56 -1.21416 -1.94399 0
M  V30 31233 C 2996.58 -0.14193 -1.6218 0
M  V30 31234 O 2997.76 -0.393531 -1.74108 0
M  V30 31235 C 2994.86 -0.842693 -3.28256 0
M  V30 31236 C 2994.04 -2.00931 -3.88517 0
M  V30 31237 C 2993.1 -1.6167 -5.00749 0
M  V30 31238 O 2992.12 -2.33288 -5.19197 0
M  V30 31239 N 2993.32 -0.529212 -5.78083 0
M  V30 31240 H 2996.09 -2.17748 -2.05927 0
M  V30 31241 H 2993.65 -1.27151 -1.00221 0
M  V30 31242 H 2995.64 -0.561892 -4.0078 0
M  V30 31243 H 2994.21 0.0303479 -3.12585 0
M  V30 31244 H 2993.43 -2.455 -3.08421 0
M  V30 31245 H 2994.72 -2.78959 -4.25511 0
M  V30 31246 H 2994.12 0.0662328 -5.65661 0
M  V30 31247 H 2992.68 -0.308132 -6.51071 0
M  V30 31248 N 2996.11 1.04563 -1.17917 0
M  V30 31249 C 2997.33 1.81876 -0.996781 0
M  V30 31250 C 2997.76 1.82635 0.450136 0
M  V30 31251 O 2997.12 1.23998 1.32266 0
M  V30 31252 C 2997.16 3.25583 -1.55011 0
M  V30 31253 O 2996.27 4.05184 -0.768111 0
M  V30 31254 H 2995.61 0.562101 -0.353466 0
M  V30 31255 H 2998.14 1.31721 -1.56559 0
M  V30 31256 H 2998.15 3.76371 -1.57509 0
M  V30 31257 H 2996.82 3.24345 -2.60332 0
M  V30 31258 H 2995.4 3.63884 -0.815044 0
M  V30 31259 N 2997.59 0.980408 1.23393 0
M  V30 31260 C 2998.86 0.5657 1.87241 0
M  V30 31261 C 2999.24 -0.957164 1.88153 0
M  V30 31262 O 2998.59 -1.83388 1.36313 0
M  V30 31263 C 2998.8 1.17178 3.28741 0
M  V30 31264 C 3000.15 1.26453 4.05333 0
M  V30 31265 O 3001.17 1.12523 3.3796 0
M  V30 31266 O 3000.03 1.48613 5.25905 0
M  V30 31267 H 2997.13 0.190473 0.804766 0
M  V30 31268 H 2999.67 1.07549 1.31268 0
M  V30 31269 H 2998.44 2.21398 3.22643 0
M  V30 31270 H 2998.07 0.646808 3.92304 0
M  V30 31271 N 2999.06 -1.38498 0.75206 0
M  V30 31272 C 3000.29 -2.04437 0.31831 0
M  V30 31273 C 3000.71 -1.5672 -1.05282 0
M  V30 31274 O 3000.06 -0.739589 -1.66842 0
M  V30 31275 C 3000.12 -3.59989 0.330169 0
M  V30 31276 O 2999.84 -4.05955 1.64719 0
M  V30 31277 C 3001.34 -4.43144 -0.117635 0
M  V30 31278 H 2998.56 -0.657024 0.136239 0
M  V30 31279 H 3001.1 -1.77218 1.02048 0
M  V30 31280 H 2999.26 -3.86049 -0.323255 0
M  V30 31281 H 2999.67 -5.00378 1.57234 0
M  V30 31282 H 3001.14 -5.51969 -0.0581764 0
M  V30 31283 H 3001.62 -4.23459 -1.1653 0
M  V30 31284 H 3002.23 -4.22269 0.506858 0
M  V30 31285 N 3000.54 -0.501015 -1.49424 0
M  V30 31286 C 3001.95 -0.0532339 -1.86624 0
M  V30 31287 C 3002.3 1.36086 -1.41334 0
M  V30 31288 O 3001.43 2.01416 -0.791231 0
M  V30 31289 C 3002.02 -0.0898288 -3.38681 0
M  V30 31290 C 3000.58 0.302611 -3.75182 0
M  V30 31291 C 2999.73 -0.462355 -2.73418 0
M  V30 31292 H 3002.68 -0.713798 -1.41741 0
M  V30 31293 H 3002.7 0.705463 -3.73903 0
M  V30 31294 H 3002.21 -1.11914 -3.71614 0
M  V30 31295 H 3000.32 1.33515 -3.47857 0
M  V30 31296 H 3000.43 -0.0168495 -4.79097 0
M  V30 31297 H 2998.79 0.087811 -2.54549 0
M  V30 31298 H 2999.58 -1.49174 -3.09196 0
M  V30 31299 N 3002.02 1.5584 -0.234849 0
M  V30 31300 C 3003.25 2.03042 0.397709 0
M  V30 31301 C 3003.66 1.11439 1.52403 0
M  V30 31302 O 3003.02 0.126498 1.82061 0
M  V30 31303 C 3003.07 3.4968 0.916857 0
M  V30 31304 O 3002.79 4.37791 -0.16457 0
M  V30 31305 C 3004.29 4.12587 1.62132 0
M  V30 31306 H 3001.51 0.66411 0.0959097 0
M  V30 31307 H 3004.06 2.01392 -0.355192 0
M  V30 31308 H 3002.21 3.51903 1.61998 0
M  V30 31309 H 3002.63 5.24006 0.227702 0
M  V30 31310 H 3004.1 5.1692 1.93642 0
M  V30 31311 H 3004.58 3.58365 2.53912 0
M  V30 31312 H 3005.18 4.14252 0.963072 0
M  V30 31313 N 3003.5 -0.038404 1.57553 0
M  V30 31314 C 3004.75 -0.731082 1.88842 0
M  V30 31315 C 3005.07 -1.75856 0.830961 0
M  V30 31316 O 3004.33 -1.94967 -0.169214 0
M  V30 31317 C 3004.63 -1.44548 3.26865 0
M  V30 31318 C 3004.29 -0.554867 4.47473 0
M  V30 31319 C 3002.96 -0.309537 4.80203 0
M  V30 31320 C 3005.31 0.060612 5.21165 0
M  V30 31321 C 3002.64 0.560204 5.84019 0
M  V30 31322 C 3004.99 0.918 6.25904 0
M  V30 31323 C 3003.65 1.17288 6.57115 0
M  V30 31324 H 3002.92 -0.267522 0.691023 0
M  V30 31325 H 3005.57 0.00886561 1.91498 0
M  V30 31326 H 3003.87 -2.25851 3.20154 0
M  V30 31327 H 3005.57 -1.98682 3.4832 0
M  V30 31328 H 3002.16 -0.75623 4.21876 0
M  V30 31329 H 3006.35 -0.115977 4.96164 0
M  V30 31330 H 3001.6 0.76608 6.06582 0
M  V30 31331 H 3005.78 1.40148 6.82152 0
M  V30 31332 H 3003.4 1.84856 7.37382 0
M  V30 31333 N 3004.98 -1.54511 -0.310498 0
M  V30 31334 C 3006.2 -1.77642 -1.07043 0
M  V30 31335 C 3006.63 -0.529728 -1.80487 0
M  V30 31336 O 3005.99 0.519331 -1.73703 0
M  V30 31337 C 3006.03 -2.97756 -2.03406 0
M  V30 31338 O 3005.14 -2.70215 -3.1154 0
M  V30 31339 H 3004.48 -0.588254 -0.307983 0
M  V30 31340 H 3007.01 -2.0157 -0.350813 0
M  V30 31341 H 3007.02 -3.25464 -2.46043 0
M  V30 31342 H 3005.69 -3.88157 -1.49354 0
M  V30 31343 H 3004.27 -2.53495 -2.73486 0
M  V30 31344 N 3006.46 0.573222 -1.46806 0
M  V30 31345 C 3007.69 1.35491 -1.55967 0
M  V30 31346 C 3008.09 1.88107 -0.203071 0
M  V30 31347 O 3007.44 1.64811 0.811351 0
M  V30 31348 C 3007.5 2.57202 -2.51172 0
M  V30 31349 C 3007.16 2.25986 -3.97215 0
M  V30 31350 C 3008.16 1.84245 -4.86158 0
M  V30 31351 C 3005.84 2.37838 -4.42423 0
M  V30 31352 C 3007.84 1.54765 -6.18326 0
M  V30 31353 C 3005.53 2.0797 -5.74623 0
M  V30 31354 C 3006.52 1.66499 -6.62395 0
M  V30 31355 O 3006.21 1.37002 -7.9214 0
M  V30 31356 H 3005.94 0.419923 -0.529755 0
M  V30 31357 H 3008.5 0.70288 -1.92999 0
M  V30 31358 H 3006.73 3.25242 -2.09176 0
M  V30 31359 H 3008.42 3.19275 -2.50636 0
M  V30 31360 H 3009.18 1.74595 -4.52484 0
M  V30 31361 H 3005.06 2.69078 -3.74323 0
M  V30 31362 H 3008.61 1.22322 -6.86792 0
M  V30 31363 H 3004.5 2.17247 -6.07844 0
M  V30 31364 H 3005.27 1.50768 -8.04494 0
M  V30 31365 N 3007.93 1.3467 0.818645 0
M  V30 31366 C 3008.9 1.26487 1.91138 0
M  V30 31367 C 3009.9 0.179072 1.598 0
M  V30 31368 O 3011.09 0.431982 1.68759 0
M  V30 31369 C 3008.22 0.953868 3.27283 0
M  V30 31370 H 3009.41 2.23637 1.99816 0
M  V30 31371 H 3006.96 1.19019 1.01312 0
M  V30 31372 H 3007.7 -0.0142857 3.24297 0
M  V30 31373 H 3007.48 1.7393 3.51413 0
M  V30 31374 H 3008.97 0.921899 4.07297 0
M  V30 31375 N 3009.41 -1.03936 1.1847 0
M  V30 31376 C 3010.37 -2.10145 0.914981 0
M  V30 31377 C 3011.37 -1.60488 -0.100192 0
M  V30 31378 O 3012.56 -1.73689 0.133396 0
M  V30 31379 C 3009.7 -3.38853 0.373052 0
M  V30 31380 H 3010.89 -2.35505 1.85681 0
M  V30 31381 H 3008.44 -1.20381 0.996897 0
M  V30 31382 H 3009.18 -3.19156 -0.575324 0
M  V30 31383 H 3008.96 -3.76211 1.10487 0
M  V30 31384 H 3010.45 -4.17106 0.203087 0
M  V30 31385 N 3010.89 -0.986938 -1.22871 0
M  V30 31386 C 3011.82 -0.552104 -2.26879 0
M  V30 31387 C 3012.8 0.418019 -1.64884 0
M  V30 31388 O 3013.99 0.309957 -1.9171 0
M  V30 31389 C 3011.12 0.139898 -3.47018 0
M  V30 31390 C 3010.07 -0.748165 -4.2141 0
M  V30 31391 C 3009.4 0.0764192 -5.34645 0
M  V30 31392 C 3010.7 -2.04214 -4.80722 0
M  V30 31393 H 3012.39 -1.42147 -2.63504 0
M  V30 31394 H 3009.94 -0.684942 -1.26667 0
M  V30 31395 H 3011.89 0.455453 -4.18931 0
M  V30 31396 H 3010.61 1.04377 -3.09472 0
M  V30 31397 H 3009.27 -1.04727 -3.51323 0
M  V30 31398 H 3008.92 0.981023 -4.93341 0
M  V30 31399 H 3008.62 -0.514709 -5.85341 0
M  V30 31400 H 3010.14 0.386206 -6.09377 0
M  V30 31401 H 3011.56 -1.79093 -5.44609 0
M  V30 31402 H 3009.95 -2.58159 -5.41732 0
M  V30 31403 H 3011.02 -2.72476 -4.01105 0
M  V30 31404 N 3012.37 1.38098 -0.759394 0
M  V30 31405 C 3013.33 2.28749 -0.14376 0
M  V30 31406 C 3014.33 1.47458 0.641312 0
M  V30 31407 O 3015.52 1.67831 0.466721 0
M  V30 31408 C 3012.65 3.31272 0.804486 0
M  V30 31409 H 3013.85 2.84698 -0.942713 0
M  V30 31410 H 3011.4 1.47155 -0.526783 0
M  V30 31411 H 3012.13 2.80423 1.6289 0
M  V30 31412 H 3011.92 3.91341 0.24387 0
M  V30 31413 H 3013.41 3.99043 1.23104 0
M  V30 31414 N 3013.85 0.508932 1.49156 0
M  V30 31415 C 3015.09 -0.032698 2.02074 0
M  V30 31416 C 3015.41 -1.36748 1.39014 0
M  V30 31417 O 3014.68 -1.88074 0.548186 0
M  V30 31418 H 3013.26 -0.0150733 0.746848 0
M  V30 31419 H 3015.93 0.667979 1.83096 0
M  V30 31420 H 3015.02 -0.156545 3.11707 0
M  V30 31421 N 3015.32 -1.55714 0.243111 0
M  V30 31422 C 3016.73 -1.8487 -0.260755 0
M  V30 31423 C 3017.09 -1.16488 -1.57877 0
M  V30 31424 O 3016.21 -0.441945 -2.11839 0
M  V30 31425 C 3016.81 -3.35384 -0.479895 0
M  V30 31426 C 3015.36 -3.6478 -0.928031 0
M  V30 31427 C 3014.51 -2.773 -0.00311542 0
M  V30 31428 H 3017.46 -1.51711 0.46577 0
M  V30 31429 H 3017.48 -3.56758 -1.32302 0
M  V30 31430 H 3017 -3.85126 0.479536 0
M  V30 31431 H 3015.1 -3.20513 -1.90006 0
M  V30 31432 H 3015.21 -4.72583 -0.787516 0
M  V30 31433 H 3013.57 -2.49464 -0.513805 0
M  V30 31434 H 3014.36 -3.29847 0.95162 0
M  V30 31435 N 3016.8 0.030048 -1.57571 0
M  V30 31436 C 3018.03 0.732857 -1.93486 0
M  V30 31437 C 3018.45 1.68945 -0.842788 0
M  V30 31438 O 3017.8 1.81601 0.180872 0
M  V30 31439 C 3017.85 1.49076 -3.2933 0
M  V30 31440 O 3017.57 0.572563 -4.34342 0
M  V30 31441 C 3019.08 2.29082 -3.79521 0
M  V30 31442 H 3016.3 0.206015 -0.638591 0
M  V30 31443 H 3018.84 -0.0121326 -2.04496 0
M  V30 31444 H 3016.99 2.18764 -3.1972 0
M  V30 31445 H 3017.41 1.10397 -5.1275 0
M  V30 31446 H 3018.88 2.77656 -4.77086 0
M  V30 31447 H 3019.36 3.10458 -3.10664 0
M  V30 31448 H 3019.97 1.6447 -3.92211 0
M  V30 31449 N 3018.28 1.54674 0.3023 0
M  V30 31450 C 3019.53 1.7415 1.03921 0
M  V30 31451 C 3019.86 0.525074 1.86967 0
M  V30 31452 O 3019.13 -0.477835 1.88539 0
M  V30 31453 C 3019.42 3.02972 1.94628 0
M  V30 31454 C 3019.27 4.34911 1.1477 0
M  V30 31455 C 3020.59 3.27654 2.93821 0
M  V30 31456 H 3017.71 0.633638 0.376394 0
M  V30 31457 H 3020.35 1.87388 0.313974 0
M  V30 31458 H 3018.5 2.91817 2.56466 0
M  V30 31459 H 3020.17 4.57982 0.552282 0
M  V30 31460 H 3018.42 4.31456 0.450386 0
M  V30 31461 H 3019.09 5.21313 1.81486 0
M  V30 31462 H 3021.56 3.3841 2.42111 0
M  V30 31463 H 3020.44 4.1911 3.54455 0
M  V30 31464 H 3020.7 2.45888 3.67412 0
M  V30 31465 N 3019.76 -0.565428 1.47108 0
M  V30 31466 C 3021.17 -1.14757 1.47268 0
M  V30 31467 C 3021.52 -1.9493 0.222876 0
M  V30 31468 O 3020.65 -2.05675 -0.672825 0
M  V30 31469 C 3021.24 -2.08781 2.66826 0
M  V30 31470 C 3019.8 -2.62283 2.69971 0
M  V30 31471 C 3018.95 -1.38495 2.40238 0
M  V30 31472 H 3021.9 -0.352452 1.54737 0
M  V30 31473 H 3021.92 -2.92526 2.43328 0
M  V30 31474 H 3021.43 -1.50402 3.57772 0
M  V30 31475 H 3019.53 -3.24483 1.83143 0
M  V30 31476 H 3019.64 -3.03838 3.70431 0
M  V30 31477 H 3018.01 -1.68892 1.9065 0
M  V30 31478 H 3018.79 -0.819216 3.33382 0
M  V30 31479 N 3021.24 -1.35102 -0.811492 0
M  V30 31480 C 3022.65 -1.25185 -1.38513 0
M  V30 31481 C 3023 0.117849 -1.95846 0
M  V30 31482 O 3022.12 1.01863 -1.90926 0
M  V30 31483 C 3022.72 -2.26666 -2.51809 0
M  V30 31484 C 3021.28 -2.20505 -3.05049 0
M  V30 31485 C 3020.42 -2.12644 -1.77983 0
M  V30 31486 H 3023.38 -1.46302 -0.614933 0
M  V30 31487 H 3023.4 -1.89029 -3.30224 0
M  V30 31488 H 3022.91 -3.26344 -2.10051 0
M  V30 31489 H 3021.01 -1.24222 -3.51283 0
M  V30 31490 H 3021.12 -3.12257 -3.63363 0
M  V30 31491 H 3019.49 -1.58544 -1.99339 0
M  V30 31492 H 3020.27 -3.14174 -1.38383 0
M  V30 31493 N 3022.71 1.03306 -1.19019 0
M  V30 31494 C 3024.13 1.28871 -0.941506 0
M  V30 31495 C 3024.33 1.97718 0.388553 0
M  V30 31496 O 3023.39 2.26248 1.12107 0
M  V30 31497 C 3024.7 2.13993 -2.11253 0
M  V30 31498 C 3026.25 2.27314 -2.15168 0
M  V30 31499 C 3026.72 3.15805 -3.31709 0
M  V30 31500 N 3028.21 3.23394 -3.31619 0
M  V30 31501 C 3028.95 3.92042 -4.18438 0
M  V30 31502 N 3028.44 4.62957 -5.15405 0
M  V30 31503 N 3030.24 3.88399 -4.06328 0
M  V30 31504 H 3022.39 0.570307 -2.046 0
M  V30 31505 H 3024.65 0.314216 -0.894412 0
M  V30 31506 H 3024.36 1.70722 -3.07485 0
M  V30 31507 H 3024.23 3.14694 -2.07961 0
M  V30 31508 H 3026.62 2.69818 -1.19509 0
M  V30 31509 H 3026.7 1.26178 -2.22515 0
M  V30 31510 H 3026.34 2.74011 -4.27645 0
M  V30 31511 H 3026.27 4.16991 -3.21599 0
M  V30 31512 H 3028.76 2.72884 -2.61425 0
M  V30 31513 H 3029.08 5.12958 -5.78009 0
M  V30 31514 H 3027.42 4.61836 -5.19357 0
M  V30 31515 H 3030.61 3.32135 -3.29855 0
M  V30 31516 H 3030.79 4.41627 -4.74204 0
M  V30 31517 N 3024.19 0.99344 1.22346 0
M  V30 31518 C 3025.6 0.704647 1.72892 0
M  V30 31519 C 3025.95 -0.778452 1.80096 0
M  V30 31520 O 3025.08 -1.6085 1.44763 0
M  V30 31521 C 3025.67 1.27243 3.13998 0
M  V30 31522 C 3024.23 1.033 3.61947 0
M  V30 31523 C 3023.38 1.39229 2.39814 0
M  V30 31524 H 3026.33 1.16574 1.07686 0
M  V30 31525 H 3026.35 0.651278 3.74885 0
M  V30 31526 H 3025.86 2.35185 3.08723 0
M  V30 31527 H 3023.97 -0.0297674 3.72588 0
M  V30 31528 H 3024.08 1.69676 4.48048 0
M  V30 31529 H 3022.44 0.810891 2.41447 0
M  V30 31530 H 3023.23 2.48176 2.37199 0
M  V30 31531 N 3025.67 -1.37693 0.766707 0
M  V30 31532 C 3026.58 -2.34119 0.150199 0
M  V30 31533 C 3027.6 -1.59928 -0.685485 0
M  V30 31534 O 3028.77 -1.92048 -0.606582 0
M  V30 31535 C 3025.84 -3.39088 -0.722503 0
M  V30 31536 C 3024.9 -4.29106 0.129059 0
M  V30 31537 C 3024.13 -5.29062 -0.702085 0
M  V30 31538 O 3024.35 -5.36416 -1.93945 0
M  V30 31539 O 3023.29 -6.01792 -0.11395 0
M  V30 31540 H 3027.11 -2.88562 0.94688 0
M  V30 31541 H 3024.7 -1.39767 0.527789 0
M  V30 31542 H 3026.58 -4.03327 -1.22087 0
M  V30 31543 H 3025.26 -2.86981 -1.49746 0
M  V30 31544 H 3024.16 -3.67984 0.673677 0
M  V30 31545 H 3025.5 -4.84504 0.866977 0
M  V30 31546 N 3027.15 -0.516835 -1.48884 0
M  V30 31547 C 3028.56 -0.0730249 -1.86557 0
M  V30 31548 C 3028.91 1.34579 -1.42769 0
M  V30 31549 O 3028.04 2.00566 -0.812549 0
M  V30 31550 C 3028.63 -0.125745 -3.38567 0
M  V30 31551 C 3027.19 0.262801 -3.75481 0
M  V30 31552 C 3026.34 -0.491329 -2.72913 0
M  V30 31553 H 3029.29 -0.728791 -1.40976 0
M  V30 31554 H 3029.31 0.665766 -3.7463 0
M  V30 31555 H 3028.82 -1.15849 -3.70406 0
M  V30 31556 H 3026.92 1.29818 -3.49253 0
M  V30 31557 H 3027.03 -0.0676632 -4.79052 0
M  V30 31558 H 3025.4 0.0608078 -2.54627 0
M  V30 31559 H 3026.18 -1.52445 -3.07596 0
M  V30 31560 N 3028.63 1.55583 -0.251365 0
M  V30 31561 C 3029.87 1.98658 0.371399 0
M  V30 31562 C 3030.2 1.1409 1.58141 0
M  V30 31563 O 3029.47 0.224742 1.94607 0
M  V30 31564 H 3028.05 0.733723 0.140212 0
M  V30 31565 H 3030.71 1.9171 -0.351191 0
M  V30 31566 H 3029.8 3.04658 0.677501 0
M  V30 31567 N 3030.1 -0.0216912 1.57585 0
M  V30 31568 C 3031.52 -0.567346 1.77871 0
M  V30 31569 C 3031.87 -1.75189 0.883368 0
M  V30 31570 O 3030.99 -2.16252 0.0801199 0
M  V30 31571 C 3031.59 -1.036 3.22572 0
M  V30 31572 C 3030.15 -1.52712 3.44029 0
M  V30 31573 C 3029.29 -0.468497 2.73314 0
M  V30 31574 H 3032.24 0.204527 1.57377 0
M  V30 31575 H 3032.26 -1.90304 3.29491 0
M  V30 31576 H 3031.78 -0.173671 3.87711 0
M  V30 31577 H 3029.88 -2.41106 2.84075 0
M  V30 31578 H 3029.99 -1.56954 4.52661 0
M  V30 31579 H 3028.35 -0.925222 2.37301 0
M  V30 31580 H 3029.14 0.384498 3.4114 0
M  V30 31581 N 3031.58 -1.54832 -0.294093 0
M  V30 31582 C 3032.81 -1.78767 -1.05153 0
M  V30 31583 C 3033.23 -0.548841 -1.79915 0
M  V30 31584 O 3032.59 0.500878 -1.74244 0
M  V30 31585 C 3032.64 -2.99896 -2.00236 0
M  V30 31586 O 3031.74 -2.73504 -3.08657 0
M  V30 31587 H 3031.08 -0.591487 -0.301727 0
M  V30 31588 H 3033.61 -2.01931 -0.329414 0
M  V30 31589 H 3033.62 -3.28056 -2.42577 0
M  V30 31590 H 3032.3 -3.8972 -1.45229 0
M  V30 31591 H 3030.88 -2.56382 -2.70782 0
M  V30 31592 N 3033.06 0.557619 -1.47405 0
M  V30 31593 C 3033.99 1.68034 -1.54402 0
M  V30 31594 C 3034.97 1.57699 -0.396203 0
M  V30 31595 O 3036.16 1.78563 -0.603942 0
M  V30 31596 C 3033.28 3.06274 -1.44617 0
M  V30 31597 C 3032.33 3.35055 -2.63895 0
M  V30 31598 S 3033.16 3.24355 -4.26092 0
M  V30 31599 C 3034.32 4.6509 -4.18859 0
M  V30 31600 H 3034.55 1.61845 -2.49387 0
M  V30 31601 H 3032.08 0.738405 -1.35598 0
M  V30 31602 H 3034.04 3.86013 -1.39658 0
M  V30 31603 H 3032.7 3.09929 -0.510169 0
M  V30 31604 H 3031.9 4.35834 -2.53111 0
M  V30 31605 H 3031.5 2.62934 -2.65973 0
M  V30 31606 H 3033.79 5.5603 -3.87087 0
M  V30 31607 H 3034.73 4.80931 -5.19722 0
M  V30 31608 H 3035.14 4.43117 -3.49725 0
M  V30 31609 N 3034.54 1.35531 0.804316 0
M  V30 31610 C 3035.45 1.30756 1.94782 0
M  V30 31611 C 3036.47 0.212102 1.72702 0
M  V30 31612 O 3037.64 0.441875 1.96493 0
M  V30 31613 C 3034.71 1.08139 3.29404 0
M  V30 31614 C 3033.77 2.27019 3.64363 0
M  V30 31615 C 3033 2.05471 4.92562 0
M  V30 31616 O 3033.22 1.02231 5.61164 0
M  V30 31617 O 3032.16 2.92889 5.25833 0
M  V30 31618 H 3035.98 2.26998 2.01757 0
M  V30 31619 H 3033.57 1.15925 0.942428 0
M  V30 31620 H 3035.45 0.973828 4.09993 0
M  V30 31621 H 3034.13 0.149501 3.23355 0
M  V30 31622 H 3033.03 2.4334 2.84141 0
M  V30 31623 H 3034.37 3.18663 3.7512 0
M  V30 31624 N 3036.02 -1.02674 1.19565 0
M  V30 31625 C 3037.43 -1.57559 1.0016 0
M  V30 31626 C 3037.78 -1.91089 -0.444889 0
M  V30 31627 O 3036.9 -1.71121 -1.32463 0
M  V30 31628 C 3037.5 -2.86281 1.81186 0
M  V30 31629 C 3036.06 -3.37731 1.66177 0
M  V30 31630 C 3035.21 -2.11149 1.79754 0
M  V30 31631 H 3038.16 -0.851766 1.33905 0
M  V30 31632 H 3038.18 -3.57267 1.30922 0
M  V30 31633 H 3037.69 -2.61845 2.86459 0
M  V30 31634 H 3035.79 -3.67149 0.634992 0
M  V30 31635 H 3035.9 -4.10618 2.46839 0
M  V30 31636 H 3034.27 -2.23121 1.22837 0
M  V30 31637 H 3035.05 -1.89152 2.8649 0
M  V30 31638 N 3037.5 -0.999914 -1.21817 0
M  V30 31639 C 3038.72 -0.698128 -1.95297 0
M  V30 31640 C 3039.15 0.731952 -1.73275 0
M  V30 31641 O 3038.5 1.50132 -1.01637 0
M  V30 31642 C 3038.55 -1.0184 -3.4592 0
M  V30 31643 O 3037.66 -0.120874 -4.12223 0
M  V30 31644 H 3037 -0.260599 -0.610724 0
M  V30 31645 H 3039.53 -1.33879 -1.54718 0
M  V30 31646 H 3039.54 -0.963144 -3.96469 0
M  V30 31647 H 3038.21 -2.06044 -3.61274 0
M  V30 31648 H 3036.79 -0.232219 -3.72176 0
M  V30 31649 N 3038.97 1.37284 -0.773999 0
M  V30 31650 C 3039.9 2.32837 -0.175823 0
M  V30 31651 C 3040.88 1.55892 0.680576 0
M  V30 31652 O 3042.07 1.84119 0.617575 0
M  V30 31653 C 3039.2 3.40124 0.702328 0
M  V30 31654 C 3038.15 4.27967 -0.052944 0
M  V30 31655 C 3037.48 5.26287 0.944799 0
M  V30 31656 C 3038.78 5.07531 -1.23325 0
M  V30 31657 H 3040.47 2.83112 -0.974066 0
M  V30 31658 H 3038.02 1.36119 -0.46985 0
M  V30 31659 H 3039.97 4.05949 1.13062 0
M  V30 31660 H 3038.7 2.8838 1.53311 0
M  V30 31661 H 3037.36 3.63677 -0.462042 0
M  V30 31662 H 3037 4.70822 1.7702 0
M  V30 31663 H 3036.7 5.8592 0.443976 0
M  V30 31664 H 3038.23 5.94986 1.37199 0
M  V30 31665 H 3039.64 5.66483 -0.881495 0
M  V30 31666 H 3038.04 5.76502 -1.66631 0
M  V30 31667 H 3039.11 4.40074 -2.03625 0
M  V30 31668 N 3040.45 0.524724 1.48608 0
M  V30 31669 C 3041.68 -0.00739309 2.06899 0
M  V30 31670 C 3042.09 -1.28634 1.38198 0
M  V30 31671 O 3041.45 -1.76403 0.467802 0
M  V30 31672 C 3041.5 -0.240485 3.60699 0
M  V30 31673 O 3041.22 0.98779 4.26819 0
M  V30 31674 C 3042.72 -0.813576 4.3577 0
M  V30 31675 H 3039.94 0.0311411 0.670277 0
M  V30 31676 H 3042.49 0.728866 1.9107 0
M  V30 31677 H 3040.64 -0.926779 3.76151 0
M  V30 31678 H 3041.06 0.765267 5.18887 0
M  V30 31679 H 3042.53 -0.926124 5.44175 0
M  V30 31680 H 3043.01 -1.81721 3.99843 0
M  V30 31681 H 3043.61 -0.164011 4.24984 0
M  V30 31682 N 3041.93 -1.55447 0.259613 0
M  V30 31683 C 3043.34 -1.85136 -0.241133 0
M  V30 31684 C 3043.69 -1.18156 -1.56632 0
M  V30 31685 O 3042.82 -0.464388 -2.11358 0
M  V30 31686 C 3043.41 -3.35874 -0.444296 0
M  V30 31687 C 3041.97 -3.65744 -0.889289 0
M  V30 31688 C 3041.12 -2.77288 0.0262961 0
M  V30 31689 H 3044.07 -1.51209 0.481835 0
M  V30 31690 H 3044.09 -3.58141 -1.28511 0
M  V30 31691 H 3043.6 -3.84596 0.520357 0
M  V30 31692 H 3041.7 -3.2251 -1.86596 0
M  V30 31693 H 3041.82 -4.73392 -0.737348 0
M  V30 31694 H 3040.18 -2.49995 -0.487317 0
M  V30 31695 H 3040.96 -3.28819 0.986552 0
M  V30 31696 N 3043.41 0.0133338 -1.57594 0
M  V30 31697 C 3044.82 0.557905 -1.78169 0
M  V30 31698 C 3045.17 1.74718 -0.892646 0
M  V30 31699 O 3044.29 2.16206 -0.0915871 0
M  V30 31700 C 3044.89 1.01888 -3.23116 0
M  V30 31701 C 3043.45 1.50886 -3.44834 0
M  V30 31702 C 3042.6 0.453996 -2.73558 0
M  V30 31703 H 3045.55 -0.21287 -1.57266 0
M  V30 31704 H 3045.57 1.88554 -3.30496 0
M  V30 31705 H 3045.08 0.153107 -3.87798 0
M  V30 31706 H 3043.18 2.39597 -2.85349 0
M  V30 31707 H 3043.29 1.54551 -4.53487 0
M  V30 31708 H 3041.66 0.912624 -2.37788 0
M  V30 31709 H 3042.44 -0.402584 -3.40931 0
M  V30 31710 N 3044.89 1.54985 0.285878 0
M  V30 31711 C 3045.85 1.8622 1.33621 0
M  V30 31712 C 3046.85 0.735961 1.42969 0
M  V30 31713 O 3048.04 1.0042 1.42343 0
M  V30 31714 C 3045.17 2.056 2.71922 0
M  V30 31715 H 3046.36 2.801 1.07162 0
M  V30 31716 H 3043.92 1.47279 0.523309 0
M  V30 31717 H 3044.65 1.14058 3.03581 0
M  V30 31718 H 3044.44 2.87588 2.66525 0
M  V30 31719 H 3045.93 2.31083 3.47837 0
M  V30 31720 N 3046.36 -0.549794 1.47699 0
M  V30 31721 C 3047.61 -1.30856 1.54934 0
M  V30 31722 C 3047.94 -1.93017 0.214055 0
M  V30 31723 O 3047.22 -1.78259 -0.778062 0
M  V30 31724 C 3047.5 -2.41304 2.67291 0
M  V30 31725 C 3047.35 -1.83964 4.1046 0
M  V30 31726 C 3048.67 -3.4319 2.75515 0
M  V30 31727 H 3045.79 -0.474421 0.563998 0
M  V30 31728 H 3048.43 -0.61451 1.79788 0
M  V30 31729 H 3046.58 -3.00505 2.46229 0
M  V30 31730 H 3048.26 -1.28966 4.42906 0
M  V30 31731 H 3046.5 -1.14599 4.18389 0
M  V30 31732 H 3047.17 -2.63842 4.84862 0
M  V30 31733 H 3049.65 -2.93918 2.94536 0
M  V30 31734 H 3048.52 -4.17889 3.55893 0
M  V30 31735 H 3048.78 -4.02506 1.8287 0
M  V30 31736 N 3047.84 -1.35955 -0.797117 0
M  V30 31737 C 3049.25 -1.26647 -1.37177 0
M  V30 31738 C 3049.6 0.0970702 -1.9596 0
M  V30 31739 O 3048.73 0.998321 -1.91996 0
M  V30 31740 C 3049.32 -2.29324 -2.49391 0
M  V30 31741 C 3047.88 -2.23728 -3.02693 0
M  V30 31742 C 3047.03 -2.1452 -1.75717 0
M  V30 31743 H 3049.98 -1.46946 -0.599381 0
M  V30 31744 H 3050 -1.92521 -3.28201 0
M  V30 31745 H 3049.51 -3.28553 -2.06578 0
M  V30 31746 H 3047.62 -1.2794 -3.49946 0
M  V30 31747 H 3047.73 -3.16093 -3.60031 0
M  V30 31748 H 3046.09 -1.60649 -1.97646 0
M  V30 31749 H 3046.88 -3.15624 -1.35043 0
M  V30 31750 N 3049.32 1.02038 -1.20108 0
M  V30 31751 C 3050.73 1.57025 -1.00995 0
M  V30 31752 C 3051.08 1.91323 0.434749 0
M  V30 31753 O 3050.21 1.71821 1.31554 0
M  V30 31754 C 3050.8 2.85316 -1.82702 0
M  V30 31755 C 3049.36 3.36845 -1.67965 0
M  V30 31756 C 3048.51 2.10192 -1.80871 0
M  V30 31757 H 3051.46 0.844653 -1.34355 0
M  V30 31758 H 3051.48 3.56568 -1.32815 0
M  V30 31759 H 3050.99 2.60323 -2.87843 0
M  V30 31760 H 3049.09 3.66807 -0.654454 0
M  V30 31761 H 3049.21 4.09303 -2.49013 0
M  V30 31762 H 3047.57 2.22467 -1.24019 0
M  V30 31763 H 3048.35 1.8763 -2.87489 0
M  V30 31764 N 3050.8 1.00636 1.21285 0
M  V30 31765 C 3052.21 0.719414 1.42466 0
M  V30 31766 C 3052.41 -0.704894 1.88768 0
M  V30 31767 O 3051.47 -1.47406 2.05007 0
M  V30 31768 C 3052.78 1.73643 2.45497 0
M  V30 31769 C 3054.33 1.7534 2.59278 0
M  V30 31770 C 3054.81 2.7594 3.65542 0
M  V30 31771 N 3056.3 2.74617 3.73014 0
M  V30 31772 C 3057.03 3.49118 4.54867 0
M  V30 31773 N 3056.53 4.33263 5.40606 0
M  V30 31774 N 3058.32 3.37762 4.49303 0
M  V30 31775 H 3050.47 1.92603 0.89542 0
M  V30 31776 H 3052.74 0.831412 0.455476 0
M  V30 31777 H 3052.44 2.75631 2.1845 0
M  V30 31778 H 3052.32 1.5402 3.44322 0
M  V30 31779 H 3054.7 0.740427 2.8566 0
M  V30 31780 H 3054.78 1.99035 1.60682 0
M  V30 31781 H 3054.43 3.77395 3.39905 0
M  V30 31782 H 3054.36 2.49511 4.63737 0
M  V30 31783 H 3056.85 2.13571 3.11763 0
M  V30 31784 H 3057.16 4.86902 6.00121 0
M  V30 31785 H 3055.51 4.37345 5.40143 0
M  V30 31786 H 3058.7 2.71456 3.81352 0
M  V30 31787 H 3058.87 3.96079 5.1286 0
M  V30 31788 N 3052.28 -1.36872 0.781268 0
M  V30 31789 C 3053.24 -2.28491 0.180134 0
M  V30 31790 C 3054.24 -1.48459 -0.617772 0
M  V30 31791 O 3055.43 -1.68553 -0.439962 0
M  V30 31792 C 3052.56 -3.32509 -0.751682 0
M  V30 31793 H 3053.75 -2.83162 0.987887 0
M  V30 31794 H 3051.31 -1.46299 0.550127 0
M  V30 31795 H 3052.04 -2.82979 -1.58408 0
M  V30 31796 H 3051.83 -3.91679 -0.181581 0
M  V30 31797 H 3053.32 -4.00951 -1.1674 0
M  V30 31798 N 3053.75 -0.532597 -1.48328 0
M  V30 31799 C 3055.17 -0.0928076 -1.86469 0
M  V30 31800 C 3055.52 1.33057 -1.44188 0
M  V30 31801 O 3054.64 1.99693 -0.833776 0
M  V30 31802 C 3055.24 -0.161648 -3.38414 0
M  V30 31803 C 3053.8 0.222962 -3.75739 0
M  V30 31804 C 3052.94 -0.520247 -2.72376 0
M  V30 31805 H 3055.89 -0.743703 -1.40195 0
M  V30 31806 H 3055.91 0.625994 -3.75315 0
M  V30 31807 H 3055.43 -1.19771 -3.69156 0
M  V30 31808 H 3053.53 1.26107 -3.50611 0
M  V30 31809 H 3053.64 -0.118469 -4.78954 0
M  V30 31810 H 3052 0.0337977 -2.54678 0
M  V30 31811 H 3052.79 -1.55699 -3.05962 0
M  V30 31812 N 3055.23 1.55307 -0.267853 0
M  V30 31813 C 3056.48 1.98612 0.351601 0
M  V30 31814 C 3056.79 1.1596 1.5752 0
M  V30 31815 O 3058 1.49375 2.26715 0
M  V30 31816 C 3056.46 3.53477 0.676924 0
M  V30 31817 C 3056.06 4.44896 -0.526463 0
M  V30 31818 C 3057.81 4.05388 1.2594 0
M  V30 31819 C 3055.72 5.91138 -0.17613 0
M  V30 31820 H 3054.65 0.741789 0.135147 0
M  V30 31821 H 3057.3 1.79703 -0.371365 0
M  V30 31822 H 3055.68 3.68159 1.45859 0
M  V30 31823 H 3056.85 4.4198 -1.30347 0
M  V30 31824 H 3055.17 4.0358 -1.02529 0
M  V30 31825 H 3057.76 5.12187 1.5352 0
M  V30 31826 H 3058.11 3.53986 2.19088 0
M  V30 31827 H 3058.64 3.94115 0.540184 0
M  V30 31828 H 3055.38 6.4662 -1.07529 0
M  V30 31829 H 3054.9 5.9714 0.564258 0
M  V30 31830 H 3056.58 6.46576 0.234251 0
M  V30 31831 N 3056.71 -0.00497598 1.57599 0
M  V30 31832 C 3057.64 -0.997013 2.11144 0
M  V30 31833 C 3058.62 -1.36168 1.01943 0
M  V30 31834 O 3059.81 -1.4463 1.29599 0
M  V30 31835 C 3056.94 -2.29045 2.61066 0
M  V30 31836 C 3055.89 -2.06754 3.74749 0
M  V30 31837 C 3055.22 -3.42068 4.10967 0
M  V30 31838 C 3056.52 -1.43415 5.02224 0
M  V30 31839 H 3058.21 -0.551199 2.94282 0
M  V30 31840 H 3055.76 -0.26369 1.41565 0
M  V30 31841 H 3057.71 -2.98796 2.97151 0
M  V30 31842 H 3056.43 -2.75731 1.75043 0
M  V30 31843 H 3055.09 -1.3943 3.3905 0
M  V30 31844 H 3054.74 -3.86447 3.21974 0
M  V30 31845 H 3054.44 -3.2797 4.87554 0
M  V30 31846 H 3055.96 -4.13142 4.49607 0
M  V30 31847 H 3057.38 -2.03116 5.36113 0
M  V30 31848 H 3055.78 -1.39821 5.83584 0
M  V30 31849 H 3056.85 -0.402765 4.83224 0
M  V30 31850 N 3058.19 -1.55135 -0.277654 0
M  V30 31851 C 3059.41 -1.79872 -1.03251 0
M  V30 31852 C 3059.84 -0.567892 -1.79323 0
M  V30 31853 O 3059.2 0.482369 -1.74765 0
M  V30 31854 C 3059.24 -3.02003 -1.97044 0
M  V30 31855 O 3058.35 -2.76763 -3.05739 0
M  V30 31856 H 3057.69 -0.594654 -0.295436 0
M  V30 31857 H 3060.22 -2.02269 -0.307978 0
M  V30 31858 H 3060.23 -3.3061 -2.39084 0
M  V30 31859 H 3058.9 -3.91238 -1.41087 0
M  V30 31860 H 3057.48 -2.59239 -2.68047 0
M  V30 31861 N 3059.67 0.541953 -1.47989 0
M  V30 31862 C 3060.61 1.64767 -1.61618 0
M  V30 31863 C 3061.58 1.59643 -0.45863 0
M  V30 31864 O 3062.77 1.78248 -0.680617 0
M  V30 31865 C 3059.91 3.0306 -1.65072 0
M  V30 31866 C 3059.02 3.18508 -2.91851 0
M  V30 31867 C 3058.16 4.47289 -2.86541 0
M  V30 31868 C 3057.2 4.56223 -4.08078 0
M  V30 31869 N 3056.33 5.76378 -4.00915 0
M  V30 31870 H 3061.17 1.52456 -2.56049 0
M  V30 31871 H 3058.71 0.742427 -1.2699 0
M  V30 31872 H 3060.67 3.83161 -1.65056 0
M  V30 31873 H 3059.3 3.1417 -0.741416 0
M  V30 31874 H 3058.35 2.31738 -3.01665 0
M  V30 31875 H 3059.66 3.20971 -3.8181 0
M  V30 31876 H 3058.82 5.35667 -2.8486 0
M  V30 31877 H 3057.55 4.47328 -1.94291 0
M  V30 31878 H 3056.56 3.66253 -4.10047 0
M  V30 31879 H 3057.78 4.57931 -5.01474 0
M  V30 31880 H 3055.73 5.77337 -3.11477 0
M  V30 31881 H 3055.65 5.80285 -4.84568 0
M  V30 31882 H 3056.92 6.67076 -4.03274 0
M  V30 31883 N 3061.15 1.36376 0.789896 0
M  V30 31884 C 3062.39 1.30321 1.54469 0
M  V30 31885 C 3062.71 -0.117304 1.94647 0
M  V30 31886 O 3061.98 -1.05746 1.64908 0
M  V30 31887 H 3060.56 0.479404 0.57287 0
M  V30 31888 H 3063.23 1.70667 0.941215 0
M  V30 31889 H 3062.32 1.93028 2.45248 0
M  V30 31890 N 3062.62 -1.014 1.20647 0
M  V30 31891 C 3064.03 -1.56488 1.01826 0
M  V30 31892 C 3064.39 -1.91551 -0.424596 0
M  V30 31893 O 3063.51 -1.72516 -1.30641 0
M  V30 31894 C 3064.11 -2.84343 1.84213 0
M  V30 31895 C 3062.66 -3.3595 1.69749 0
M  V30 31896 C 3061.81 -2.0923 1.81984 0
M  V30 31897 H 3064.76 -0.837516 1.34801 0
M  V30 31898 H 3064.78 -3.55858 1.34704 0
M  V30 31899 H 3064.3 -2.58792 2.8922 0
M  V30 31900 H 3062.4 -3.66455 0.673897 0
M  V30 31901 H 3062.51 -4.07977 2.5118 0
M  V30 31902 H 3060.87 -2.21806 1.25197 0
M  V30 31903 H 3061.66 -1.86102 2.8848 0
M  V30 31904 N 3064.1 -1.01278 -1.2075 0
M  V30 31905 C 3065.33 -0.718803 -1.94546 0
M  V30 31906 C 3065.75 0.713532 -1.74041 0
M  V30 31907 O 3065.11 1.49046 -1.03223 0
M  V30 31908 C 3065.16 -1.05503 -3.44821 0
M  V30 31909 O 3064.26 -0.164589 -4.12071 0
M  V30 31910 H 3063.6 -0.267062 -0.607926 0
M  V30 31911 H 3066.13 -1.35512 -1.53289 0
M  V30 31912 H 3066.14 -1.00514 -3.95425 0
M  V30 31913 H 3064.82 -2.09864 -3.59068 0
M  V30 31914 H 3063.39 -0.27168 -3.71909 0
M  V30 31915 N 3065.58 1.36456 -0.788516 0
M  V30 31916 C 3066.99 1.81827 -0.423774 0
M  V30 31917 C 3067.34 1.65601 1.05218 0
M  V30 31918 O 3066.47 1.17645 1.81628 0
M  V30 31919 C 3067.06 3.3011 -0.762412 0
M  V30 31920 C 3065.62 3.73694 -0.450511 0
M  V30 31921 C 3064.77 2.58737 -0.997527 0
M  V30 31922 H 3067.72 1.2469 -0.98174 0
M  V30 31923 H 3067.74 3.80463 -0.0531805 0
M  V30 31924 H 3067.25 3.41888 -1.83668 0
M  V30 31925 H 3065.35 3.67477 0.615764 0
M  V30 31926 H 3065.47 4.69168 -0.970491 0
M  V30 31927 H 3063.83 2.512 -0.420805 0
M  V30 31928 H 3064.61 2.733 -2.07754 0
M  V30 31929 N 3067.06 0.540456 1.48043 0
M  V30 31930 C 3068.47 0.102695 1.86417 0
M  V30 31931 C 3068.82 -1.3229 1.44892 0
M  V30 31932 O 3067.94 -1.99248 0.844355 0
M  V30 31933 C 3068.54 0.179592 3.38324 0
M  V30 31934 C 3067.1 -0.203032 3.75852 0
M  V30 31935 C 3066.25 0.534684 2.72096 0
M  V30 31936 H 3069.2 0.751127 1.39799 0
M  V30 31937 H 3069.22 -0.606081 3.75642 0
M  V30 31938 H 3068.73 1.21727 3.68516 0
M  V30 31939 H 3066.83 -1.24246 3.51275 0
M  V30 31940 H 3066.94 0.143868 4.78884 0
M  V30 31941 H 3065.31 -0.0202911 2.54692 0
M  V30 31942 H 3066.09 1.5732 3.05132 0
M  V30 31943 N 3068.54 -1.55163 0.276085 0
M  V30 31944 C 3069.47 -2.25537 -0.604593 0
M  V30 31945 C 3070.45 -1.24587 -1.15811 0
M  V30 31946 O 3071.63 -1.53308 -1.19207 0
M  V30 31947 C 3068.76 -2.9772 -1.78831 0
M  V30 31948 C 3067.72 -4.05607 -1.36628 0
M  V30 31949 C 3067.04 -4.65369 -2.63317 0
M  V30 31950 C 3068.34 -5.19747 -0.515767 0
M  V30 31951 H 3070.04 -2.99395 -0.0176957 0
M  V30 31952 H 3067.58 -1.43998 -0.00707096 0
M  V30 31953 H 3069.53 -3.45663 -2.4103 0
M  V30 31954 H 3068.26 -2.21398 -2.40105 0
M  V30 31955 H 3066.92 -3.58476 -0.767478 0
M  V30 31956 H 3066.57 -3.85715 -3.22851 0
M  V30 31957 H 3066.27 -5.38216 -2.3579 0
M  V30 31958 H 3067.79 -5.16062 -3.26363 0
M  V30 31959 H 3069.2 -5.63736 -1.04279 0
M  V30 31960 H 3067.6 -5.99162 -0.335344 0
M  V30 31961 H 3068.67 -4.82663 0.465222 0
M  V30 31962 N 3070.01 -0.00338196 -1.576 0
M  V30 31963 C 3070.96 1.00514 -2.09761 0
M  V30 31964 C 3071.96 1.35373 -1.01835 0
M  V30 31965 O 3073.16 1.33898 -1.20297 0
M  V30 31966 H 3069.54 0.341813 -0.669827 0
M  V30 31967 H 3071.51 0.539667 -2.93479 0
M  V30 31968 C 3070.26 2.28707 -2.61894 0
M  V30 31969 H 3069.58 2.02751 -3.44575 0
M  V30 31970 H 3071.02 2.97543 -3.02067 0
M  V30 31971 C 3069.48 2.99919 -1.5346 0
M  V30 31972 O 3070.01 3.91035 -0.919471 0
M  V30 31973 N 3068.21 2.61803 -1.26124 0
M  V30 31974 H 3067.76 1.87789 -1.76332 0
M  V30 31975 H 3067.72 3.09764 -0.537927 0
M  V30 31976 N 3071.49 1.5528 0.269423 0
M  V30 31977 C 3072.74 1.75707 0.998573 0
M  V30 31978 C 3073.06 0.563207 1.8669 0
M  V30 31979 O 3072.33 -0.421777 1.91306 0
M  V30 31980 H 3070.91 0.647965 0.371686 0
M  V30 31981 H 3073.57 1.92688 0.292792 0
M  V30 31982 H 3072.67 2.65943 1.63343 0
M  V30 31983 N 3072.97 -0.534097 1.48274 0
M  V30 31984 C 3073.92 -1.66003 1.62929 0
M  V30 31985 C 3074.91 -1.61981 0.495843 0
M  V30 31986 O 3076.12 -1.66888 0.674429 0
M  V30 31987 H 3072.49 -0.549689 0.513172 0
M  V30 31988 H 3074.46 -1.50785 2.57501 0
M  V30 31989 C 3073.21 -3.04289 1.68237 0
M  V30 31990 H 3072.54 -3.08076 2.54813 0
M  V30 31991 H 3073.98 -3.82697 1.82535 0
M  V30 31992 C 3072.43 -3.34269 0.420213 0
M  V30 31993 O 3072.96 -3.98956 -0.468698 0
M  V30 31994 N 3071.17 -2.89117 0.293166 0
M  V30 31995 H 3070.72 -2.36654 1.01749 0
M  V30 31996 H 3070.68 -3.09546 -0.550322 0
M  V30 31997 N 3074.45 -1.36793 -0.782652 0
M  V30 31998 C 3075.7 -1.30726 -1.53603 0
M  V30 31999 C 3076.01 0.109262 -1.95295 0
M  V30 32000 O 3077.22 0.29235 -2.69921 0
M  V30 32001 C 3075.67 -2.29398 -2.77317 0
M  V30 32002 C 3075.28 -3.76521 -2.42767 0
M  V30 32003 C 3077.02 -2.3232 -3.55285 0
M  V30 32004 C 3074.93 -4.66953 -3.62917 0
M  V30 32005 H 3073.86 -0.485804 -0.576637 0
M  V30 32006 H 3076.51 -1.62193 -0.858227 0
M  V30 32007 H 3074.89 -1.90933 -3.4693 0
M  V30 32008 H 3076.07 -4.23761 -1.81007 0
M  V30 32009 H 3074.38 -3.76439 -1.77996 0
M  V30 32010 H 3076.98 -2.97091 -4.44568 0
M  V30 32011 H 3077.32 -1.33367 -3.94359 0
M  V30 32012 H 3077.86 -2.69437 -2.92658 0
M  V30 32013 H 3074.59 -5.66995 -3.28934 0
M  V30 32014 H 3074.11 -4.24425 -4.2382 0
M  V30 32015 H 3075.79 -4.83555 -4.29864 0
M  V30 32016 N 3075.93 1.00759 -1.21184 0
M  V30 32017 C 3076.86 2.11342 -0.99281 0
M  V30 32018 C 3077.84 1.69905 0.081332 0
M  V30 32019 O 3079.02 1.94043 -0.0779844 0
M  V30 32020 C 3076.15 3.42855 -0.553887 0
M  V30 32021 C 3075.11 3.98074 -1.5723 0
M  V30 32022 C 3074.43 5.25461 -0.989698 0
M  V30 32023 C 3075.73 4.30433 -2.95846 0
M  V30 32024 H 3077.43 2.29923 -1.9177 0
M  V30 32025 H 3074.97 1.10492 -0.923446 0
M  V30 32026 H 3076.93 4.19611 -0.387844 0
M  V30 32027 H 3075.65 3.24059 0.406645 0
M  V30 32028 H 3074.31 3.23434 -1.72586 0
M  V30 32029 H 3073.96 5.02996 -0.0209627 0
M  V30 32030 H 3073.66 5.63371 -1.66993 0
M  V30 32031 H 3075.18 6.04865 -0.834921 0
M  V30 32032 H 3076.59 4.98042 -2.83949 0
M  V30 32033 H 3074.99 4.79479 -3.6086 0
M  V30 32034 H 3076.06 3.38817 -3.46888 0
M  V30 32035 N 3077.4 1.01917 1.20211 0
M  V30 32036 C 3078.63 0.72911 1.94162 0
M  V30 32037 C 3079.05 -0.704293 1.74417 0
M  V30 32038 O 3078.41 -1.48496 1.04012 0
M  V30 32039 C 3078.46 1.0733 3.44256 0
M  V30 32040 O 3077.56 0.18644 4.11978 0
M  V30 32041 H 3076.91 0.270282 0.606501 0
M  V30 32042 H 3079.44 1.36323 1.52569 0
M  V30 32043 H 3079.45 1.0261 3.94886 0
M  V30 32044 H 3078.12 2.11765 3.5795 0
M  V30 32045 H 3076.7 0.291399 3.7176 0
M  V30 32046 N 3078.88 -1.36036 0.795742 0
M  V30 32047 C 3080.12 -2.00902 0.37655 0
M  V30 32048 C 3080.49 -1.61777 -1.03402 0
M  V30 32049 O 3081.69 -2.19282 -1.55464 0
M  V30 32050 C 3079.96 -3.53264 0.542148 0
M  V30 32051 S 3081.52 -4.38289 0.211771 0
M  V30 32052 H 3078.34 -0.69636 0.143539 0
M  V30 32053 H 3080.94 -1.65817 1.03562 0
M  V30 32054 H 3079.64 -3.79226 1.56894 0
M  V30 32055 H 3079.17 -3.93176 -0.132629 0
M  V30 32056 H 3081.19 -4.86337 -0.984435 0
M  V30 32057 N 3080.36 -0.5483 -1.47755 0
M  V30 32058 C 3081.59 -0.0235115 -2.07387 0
M  V30 32059 C 3082.01 1.25671 -1.39958 0
M  V30 32060 O 3081.37 1.7506 -0.471574 0
M  V30 32061 C 3081.42 0.164605 -3.60224 0
M  V30 32062 O 3080.52 1.22921 -3.93655 0
M  V30 32063 H 3079.86 -0.0473273 -0.662311 0
M  V30 32064 H 3082.39 -0.761442 -1.89903 0
M  V30 32065 H 3082.4 0.381588 -4.06212 0
M  V30 32066 H 3081.08 -0.770497 -4.08701 0
M  V30 32067 H 3079.65 0.993432 -3.59424 0
M  V30 32068 N 3081.84 1.55014 -0.28431 0
M  V30 32069 C 3083.25 1.85496 0.211649 0
M  V30 32070 C 3083.6 1.20633 1.54733 0
M  V30 32071 O 3082.73 0.497955 2.10593 0
M  V30 32072 C 3083.32 3.36538 0.390805 0
M  V30 32073 C 3081.88 3.67112 0.83099 0
M  V30 32074 C 3081.03 2.77211 -0.0704068 0
M  V30 32075 H 3083.98 1.50423 -0.50583 0
M  V30 32076 H 3084 3.6014 1.22797 0
M  V30 32077 H 3083.51 3.83719 -0.581477 0
M  V30 32078 H 3081.61 3.25438 1.81442 0
M  V30 32079 H 3081.72 4.74505 0.661943 0
M  V30 32080 H 3080.09 2.50738 0.447484 0
M  V30 32081 H 3080.87 3.27208 -1.03874 0
M  V30 32082 N 3083.32 0.0117398 1.57596 0
M  V30 32083 C 3084.59 -0.708324 1.82324 0
M  V30 32084 C 3084.97 -1.91329 0.891981 0
M  V30 32085 O 3084.32 -2.2843 -0.0565582 0
M  V30 32086 C 3084.53 -1.10297 3.31113 0
M  V30 32087 C 3085.88 -1.50192 3.97149 0
M  V30 32088 O 3086.9 -1.19644 3.35505 0
M  V30 32089 O 3085.76 -2.0704 5.05763 0
M  V30 32090 H 3082.86 -0.345918 0.751179 0
M  V30 32091 H 3085.4 0.0380931 1.69657 0
M  V30 32092 H 3084.17 -0.244602 3.90535 0
M  V30 32093 H 3083.8 -1.90812 3.48822 0
M  V30 32094 N 3084.79 -1.55421 -0.261185 0
M  V30 32095 C 3086.21 -1.47525 -0.608986 0
M  V30 32096 C 3086.41 -0.699075 -1.88985 0
M  V30 32097 O 3085.47 -0.222673 -2.51516 0
M  V30 32098 C 3086.78 -2.9183 -0.724974 0
M  V30 32099 C 3088.33 -3.02115 -0.818249 0
M  V30 32100 C 3088.8 -4.47699 -0.965917 0
M  V30 32101 N 3090.29 -4.51577 -1.03115 0
M  V30 32102 C 3091.03 -5.61453 -1.16442 0
M  V30 32103 N 3090.52 -6.81169 -1.26413 0
M  V30 32104 N 3092.32 -5.49219 -1.19645 0
M  V30 32105 H 3084.47 -2.04332 0.579843 0
M  V30 32106 H 3086.73 -0.927073 0.198089 0
M  V30 32107 H 3086.44 -3.51397 0.145933 0
M  V30 32108 H 3086.31 -3.41514 -1.6015 0
M  V30 32109 H 3088.7 -2.42637 -1.67962 0
M  V30 32110 H 3088.78 -2.55665 0.0831345 0
M  V30 32111 H 3088.42 -5.07783 -0.109162 0
M  V30 32112 H 3088.35 -4.91817 -1.88213 0
M  V30 32113 H 3090.84 -3.65345 -0.966008 0
M  V30 32114 H 3091.16 -7.60659 -1.36449 0
M  V30 32115 H 3089.5 -6.83958 -1.23396 0
M  V30 32116 H 3092.69 -4.54628 -1.11493 0
M  V30 32117 H 3092.87 -6.3489 -1.29687 0
M  V30 32118 N 3086.27 0.526227 -1.48555 0
M  V30 32119 C 3087.69 0.855114 -1.34759 0
M  V30 32120 C 3087.89 1.98232 -0.361455 0
M  V30 32121 O 3086.94 2.51575 0.215981 0
M  V30 32122 C 3088.26 1.2191 -2.74879 0
M  V30 32123 C 3089.81 1.32877 -2.83395 0
M  V30 32124 C 3090.28 1.72616 -4.24226 0
M  V30 32125 N 3091.77 1.79712 -4.26917 0
M  V30 32126 C 3092.51 2.11854 -5.32828 0
M  V30 32127 N 3092 2.42394 -6.49012 0
M  V30 32128 N 3093.8 2.12892 -5.20225 0
M  V30 32129 H 3085.95 -0.21746 -2.11284 0
M  V30 32130 H 3088.21 -0.0346529 -0.947366 0
M  V30 32131 H 3087.92 0.464425 -3.4862 0
M  V30 32132 H 3087.79 2.16839 -3.08643 0
M  V30 32133 H 3090.18 2.0742 -2.09907 0
M  V30 32134 H 3090.26 0.360594 -2.53246 0
M  V30 32135 H 3089.9 0.986323 -4.98231 0
M  V30 32136 H 3089.83 2.7049 -4.51821 0
M  V30 32137 H 3092.32 1.58373 -3.43113 0
M  V30 32138 H 3092.64 2.66035 -7.25565 0
M  V30 32139 H 3090.98 2.39905 -6.52281 0
M  V30 32140 H 3094.17 1.88493 -4.28472 0
M  V30 32141 H 3094.34 2.37609 -6.02865 0
M  V30 32142 N 3087.75 1.37206 0.775387 0
M  V30 32143 C 3088.98 1.3557 1.56957 0
M  V30 32144 C 3089.4 -0.0575224 1.88012 0
M  V30 32145 O 3088.76 -1.03353 1.48956 0
M  V30 32146 C 3088.81 2.19781 2.85882 0
M  V30 32147 O 3087.91 1.59994 3.801 0
M  V30 32148 H 3087.25 0.463383 0.475575 0
M  V30 32149 H 3089.78 1.80681 0.959978 0
M  V30 32150 H 3089.79 2.32865 3.3502 0
M  V30 32151 H 3088.47 3.22506 2.62607 0
M  V30 32152 H 3087.04 1.5593 3.38733 0
M  V30 32153 N 3089.23 -1.00115 1.21716 0
M  V30 32154 C 3090.64 -1.55399 1.0348 0
M  V30 32155 C 3090.99 -1.9199 -0.404256 0
M  V30 32156 O 3090.12 -1.73892 -1.28804 0
M  V30 32157 C 3090.71 -2.82374 1.87218 0
M  V30 32158 C 3089.27 -3.3413 1.73303 0
M  V30 32159 C 3088.42 -2.07288 1.84193 0
M  V30 32160 H 3091.37 -0.823171 1.35682 0
M  V30 32161 H 3091.39 -3.5441 1.38471 0
M  V30 32162 H 3090.9 -2.5571 2.91948 0
M  V30 32163 H 3089 -3.6572 0.712727 0
M  V30 32164 H 3089.11 -4.0529 2.55493 0
M  V30 32165 H 3087.48 -2.20466 1.27542 0
M  V30 32166 H 3088.26 -1.83032 2.90438 0
M  V30 32167 N 3090.71 -1.02553 -1.19669 0
M  V30 32168 C 3091.93 -0.739397 -1.93772 0
M  V30 32169 C 3092.36 0.695033 -1.74788 0
M  V30 32170 O 3091.72 1.47942 -1.04798 0
M  V30 32171 C 3091.76 -1.09155 -3.43682 0
M  V30 32172 O 3090.87 -0.208285 -4.11874 0
M  V30 32173 H 3090.21 -0.273495 -0.605059 0
M  V30 32174 H 3092.74 -1.3713 -1.51843 0
M  V30 32175 H 3092.75 -1.04702 -3.94337 0
M  V30 32176 H 3091.42 -2.1366 -3.56822 0
M  V30 32177 H 3090 -0.311111 -3.716 0
M  V30 32178 N 3092.19 1.35612 -0.802945 0
M  V30 32179 C 3093.6 1.81367 -0.443035 0
M  V30 32180 C 3093.95 1.66707 1.03456 0
M  V30 32181 O 3093.07 1.19564 1.8037 0
M  V30 32182 C 3093.67 3.29283 -0.797382 0
M  V30 32183 C 3092.23 3.73195 -0.49012 0
M  V30 32184 C 3091.37 2.57664 -1.02491 0
M  V30 32185 H 3094.32 1.23642 -0.99491 0
M  V30 32186 H 3094.35 3.80385 -0.0935307 0
M  V30 32187 H 3093.86 3.39921 -1.87284 0
M  V30 32188 H 3091.96 3.68109 0.576754 0
M  V30 32189 H 3092.07 4.68112 -1.0202 0
M  V30 32190 H 3090.44 2.50739 -0.447424 0
M  V30 32191 H 3091.22 2.71081 -2.10641 0
M  V30 32192 N 3093.66 0.556128 1.47462 0
M  V30 32193 C 3094.61 -0.192173 2.29999 0
M  V30 32194 C 3095.58 -0.909379 1.38995 0
M  V30 32195 O 3096.77 -0.905286 1.67956 0
M  V30 32196 C 3093.91 -1.21686 3.22934 0
M  V30 32197 C 3093.02 -0.505833 4.29028 0
M  V30 32198 C 3092.15 -1.51572 5.09116 0
M  V30 32199 C 3091.19 -0.789607 6.06986 0
M  V30 32200 N 3090.33 -1.74627 6.80037 0
M  V30 32201 H 3095.17 0.517785 2.93467 0
M  V30 32202 H 3092.71 0.267172 1.44653 0
M  V30 32203 H 3094.66 -1.82354 3.75237 0
M  V30 32204 H 3093.29 -1.89487 2.61332 0
M  V30 32205 H 3092.35 0.215343 3.7979 0
M  V30 32206 H 3093.66 0.0630456 4.9876 0
M  V30 32207 H 3092.81 -2.19596 5.65564 0
M  V30 32208 H 3091.55 -2.11852 4.39284 0
M  V30 32209 H 3090.56 -0.0954416 5.49717 0
M  V30 32210 H 3091.78 -0.192568 6.78827 0
M  V30 32211 H 3089.73 -2.33767 6.12935 0
M  V30 32212 H 3089.64 -1.22952 7.45935 0
M  V30 32213 H 3090.91 -2.41769 7.41059 0
M  V30 32214 N 3095.14 -1.54861 0.292527 0
M  V30 32215 C 3096.05 -2.26877 -0.596996 0
M  V30 32216 C 3097.07 -1.30088 -1.15555 0
M  V30 32217 O 3098.24 -1.63056 -1.18215 0
M  V30 32218 C 3095.31 -2.98906 -1.75658 0
M  V30 32219 C 3094.37 -4.11214 -1.23296 0
M  V30 32220 C 3093.6 -4.79799 -2.33728 0
M  V30 32221 O 3093.83 -4.47692 -3.53452 0
M  V30 32222 O 3092.76 -5.67383 -2.00898 0
M  V30 32223 H 3096.59 -3.03697 -0.0130708 0
M  V30 32224 H 3094.17 -1.49282 0.0592904 0
M  V30 32225 H 3096.05 -3.44114 -2.43235 0
M  V30 32226 H 3094.73 -2.24988 -2.32727 0
M  V30 32227 H 3093.63 -3.70424 -0.523156 0
M  V30 32228 H 3094.97 -4.87084 -0.707801 0
M  V30 32229 N 3096.62 -0.0200973 -1.57587 0
M  V30 32230 C 3097.84 0.674513 -1.96125 0
M  V30 32231 C 3098.27 1.65384 -0.896097 0
M  V30 32232 O 3097.63 1.80728 0.143894 0
M  V30 32233 C 3097.68 1.36511 -3.33762 0
M  V30 32234 O 3096.78 2.48016 -3.29487 0
M  V30 32235 H 3096.12 0.177908 -0.639722 0
M  V30 32236 H 3098.65 -0.0792677 -2.04446 0
M  V30 32237 H 3098.66 1.72397 -3.69788 0
M  V30 32238 H 3097.34 0.647193 -4.10834 0
M  V30 32239 H 3095.91 2.14309 -3.05166 0
M  V30 32240 N 3098.1 1.55557 0.252939 0
M  V30 32241 C 3099.35 1.76756 0.979881 0
M  V30 32242 C 3099.67 0.582977 1.86082 0
M  V30 32243 O 3098.94 -0.401463 1.91742 0
M  V30 32244 H 3097.52 0.65187 0.364793 0
M  V30 32245 H 3100.18 1.92988 0.272339 0
M  V30 32246 H 3099.27 2.6766 1.60513 0
M  V30 32247 N 3099.58 -0.518341 1.48832 0
M  V30 32248 C 3100.99 -0.847956 1.3521 0
M  V30 32249 C 3101.19 -1.98037 0.371962 0
M  V30 32250 O 3100.25 -2.51686 -0.202637 0
M  V30 32251 C 3101.56 -1.2045 2.75522 0
M  V30 32252 C 3103.11 -1.31372 2.84096 0
M  V30 32253 C 3103.58 -1.70364 4.25135 0
M  V30 32254 N 3105.07 -1.77445 4.27864 0
M  V30 32255 C 3105.81 -2.09025 5.33944 0
M  V30 32256 N 3105.31 -2.38948 6.50289 0
M  V30 32257 N 3107.1 -2.1013 5.21346 0
M  V30 32258 H 3099.25 0.228661 2.11166 0
M  V30 32259 H 3101.51 0.0396765 0.947169 0
M  V30 32260 H 3101.22 -0.44593 3.48862 0
M  V30 32261 H 3101.09 -2.15199 3.09789 0
M  V30 32262 H 3103.48 -2.06304 2.11004 0
M  V30 32263 H 3103.56 -0.347158 2.53433 0
M  V30 32264 H 3103.2 -0.959887 4.98747 0
M  V30 32265 H 3103.13 -2.6809 4.5325 0
M  V30 32266 H 3105.63 -1.56551 3.43948 0
M  V30 32267 H 3105.94 -2.62184 7.26966 0
M  V30 32268 H 3104.28 -2.36442 6.53544 0
M  V30 32269 H 3107.47 -1.86218 4.29466 0
M  V30 32270 H 3107.65 -2.34408 6.04117 0
M  V30 32271 N 3101.05 -1.37615 -0.7681 0
M  V30 32272 C 3102.28 -1.364 -1.56236 0
M  V30 32273 C 3102.7 0.0475508 -1.8804 0
M  V30 32274 O 3102.06 1.02561 -1.49502 0
M  V30 32275 C 3102.11 -2.21294 -2.84712 0
M  V30 32276 O 3101.21 -1.62007 -3.79246 0
M  V30 32277 H 3100.55 -0.465899 -0.473111 0
M  V30 32278 H 3103.08 -1.81187 -0.950383 0
M  V30 32279 H 3103.09 -2.34638 -3.3378 0
M  V30 32280 H 3101.77 -3.23894 -2.60893 0
M  V30 32281 H 3100.35 -1.57725 -3.37901 0
M  V30 32282 N 3102.53 0.994677 -1.22245 0
M  V30 32283 C 3103.48 2.06884 -0.95828 0
M  V30 32284 C 3104.47 1.60646 0.0904198 0
M  V30 32285 O 3105.66 1.76594 -0.119868 0
M  V30 32286 C 3102.79 3.3909 -0.536003 0
M  V30 32287 C 3101.87 3.91967 -1.61934 0
M  V30 32288 N 3102.26 4.18089 -2.84666 0
M  V30 32289 C 3100.56 4.20353 -1.49061 0
M  V30 32290 C 3101.26 4.61042 -3.54705 0
M  V30 32291 N 3100.24 4.64629 -2.82172 0
M  V30 32292 H 3104.04 2.25019 -1.8906 0
M  V30 32293 H 3101.55 1.17627 -1.11972 0
M  V30 32294 H 3103.55 4.15607 -0.32807 0
M  V30 32295 H 3102.21 3.22356 0.389434 0
M  V30 32296 H 3103.22 4.06335 -3.21111 0
M  V30 32297 H 3099.9 4.12701 -0.631227 0
M  V30 32298 H 3101.29 4.8989 -4.59845 0
M  V30 32299 N 3104.01 1.03186 1.19123 0
M  V30 32300 C 3105.26 0.74089 1.89426 0
M  V30 32301 C 3105.61 -0.722878 1.78304 0
M  V30 32302 O 3104.9 -1.51992 1.16658 0
M  V30 32303 C 3105.1 1.13047 3.3905 0
M  V30 32304 C 3104.93 2.63056 3.64735 0
M  V30 32305 C 3103.7 3.30072 3.82597 0
M  V30 32306 C 3105.89 3.61269 3.66046 0
M  V30 32307 N 3103.88 4.69154 3.95939 0
M  V30 32308 C 3105.25 4.85983 3.84995 0
M  V30 32309 C 3107.3 3.55025 3.49087 0
M  V30 32310 C 3106.01 6.05204 3.88742 0
M  V30 32311 C 3108.03 4.73664 3.54113 0
M  V30 32312 C 3107.39 5.97193 3.7355 0
M  V30 32313 H 3103.49 0.323026 0.712164 0
M  V30 32314 H 3106.08 1.31977 1.43144 0
M  V30 32315 H 3104.25 0.579766 3.84049 0
M  V30 32316 H 3105.98 0.791439 3.96886 0
M  V30 32317 H 3102.73 2.80483 3.8161 0
M  V30 32318 H 3103.16 5.41411 4.06452 0
M  V30 32319 H 3107.8 2.60503 3.33013 0
M  V30 32320 H 3105.52 7.00091 4.03607 0
M  V30 32321 H 3109.1 4.70465 3.42278 0
M  V30 32322 H 3107.98 6.8746 3.77318 0
M  V30 32323 N 3105.49 -1.35184 0.810125 0
M  V30 32324 C 3106.77 -1.93043 0.315269 0
M  V30 32325 C 3107.15 -1.73976 -1.19564 0
M  V30 32326 O 3106.49 -1.11086 -1.9968 0
M  V30 32327 C 3106.7 -3.41268 0.730551 0
M  V30 32328 C 3108.05 -4.18415 0.722059 0
M  V30 32329 O 3109.08 -3.49798 0.672319 0
M  V30 32330 O 3107.93 -5.40853 0.783631 0
M  V30 32331 H 3105.03 -0.822795 0.0832919 0
M  V30 32332 H 3107.57 -1.44238 0.894059 0
M  V30 32333 H 3106.35 -3.48891 1.77175 0
M  V30 32334 H 3105.97 -3.97398 0.12676 0
M  V30 32335 N 3106.97 -0.56394 -1.47165 0
M  V30 32336 C 3108.24 0.0235828 -1.95586 0
M  V30 32337 C 3108.62 1.47869 -1.50658 0
M  V30 32338 O 3107.97 2.15892 -0.748517 0
M  V30 32339 C 3108.18 -0.128902 -3.48762 0
M  V30 32340 C 3109.53 0.0129797 -4.24598 0
M  V30 32341 O 3110.55 -0.0567868 -3.56155 0
M  V30 32342 O 3109.41 0.164236 -5.46253 0
M  V30 32343 H 3106.51 0.0603644 -0.824794 0
M  V30 32344 H 3109.05 -0.630938 -1.57535 0
M  V30 32345 H 3107.82 -1.1412 -3.74289 0
M  V30 32346 H 3107.45 0.562921 -3.93595 0
M  V30 32347 N 3108.44 1.54704 -0.300735 0
M  V30 32348 C 3109.67 2.05009 0.314037 0
M  V30 32349 C 3110.09 1.1766 1.46757 0
M  V30 32350 O 3109.45 0.180629 1.80398 0
M  V30 32351 C 3109.5 3.52753 0.748181 0
M  V30 32352 O 3108.6 3.68427 1.85298 0
M  V30 32353 H 3107.95 0.661192 0.0610023 0
M  V30 32354 H 3110.48 1.99758 -0.442502 0
M  V30 32355 H 3110.49 3.946 1.03706 0
M  V30 32356 H 3109.16 4.1579 -0.095646 0
M  V30 32357 H 3107.74 3.38485 1.56467 0
M  V30 32358 N 3109.92 0.0284543 1.57574 0
M  V30 32359 C 3111.15 -0.660541 1.96073 0
M  V30 32360 C 3111.57 -1.65701 0.90491 0
M  V30 32361 O 3110.92 -1.82148 -0.113347 0
M  V30 32362 C 3110.97 -1.3675 3.34636 0
M  V30 32363 O 3110.69 -0.410965 4.36168 0
M  V30 32364 C 3112.2 -2.14838 3.87762 0
M  V30 32365 H 3109.42 -0.182172 0.645797 0
M  V30 32366 H 3111.96 0.0880217 2.0431 0
M  V30 32367 H 3110.11 -2.06747 3.27619 0
M  V30 32368 H 3110.53 -0.912909 5.16494 0
M  V30 32369 H 3112 -2.59758 4.87062 0
M  V30 32370 H 3112.48 -2.98714 3.21973 0
M  V30 32371 H 3113.09 -1.498 3.98045 0
M  V30 32372 N 3111.4 -1.55689 -0.244686 0
M  V30 32373 C 3112.63 -1.82022 -0.994125 0
M  V30 32374 C 3113.05 -0.605802 -1.78078 0
M  V30 32375 O 3112.41 0.44519 -1.75749 0
M  V30 32376 C 3112.46 -3.06115 -1.90594 0
M  V30 32377 O 3111.56 -2.83186 -2.99799 0
M  V30 32378 H 3110.9 -0.600787 -0.282756 0
M  V30 32379 H 3113.43 -2.02877 -0.265004 0
M  V30 32380 H 3113.44 -3.35607 -2.32017 0
M  V30 32381 H 3112.12 -3.94143 -1.32756 0
M  V30 32382 H 3110.69 -2.64867 -2.62488 0
M  V30 32383 N 3112.88 0.510441 -1.49105 0
M  V30 32384 C 3114.16 1.27177 -1.48612 0
M  V30 32385 C 3114.54 2.10067 -0.208574 0
M  V30 32386 O 3113.88 2.13688 0.809297 0
M  V30 32387 C 3114.09 2.13656 -2.75957 0
M  V30 32388 C 3115.44 2.73155 -3.25071 0
M  V30 32389 O 3116.47 2.23929 -2.77009 0
M  V30 32390 O 3115.32 3.62744 -4.08753 0
M  V30 32391 H 3112.42 0.57501 -0.594384 0
M  V30 32392 H 3114.96 0.525487 -1.61359 0
M  V30 32393 H 3113.74 1.52319 -3.60437 0
M  V30 32394 H 3113.36 2.95494 -2.66025 0
M  V30 32395 N 3114.36 1.38021 0.760791 0
M  V30 32396 C 3115.58 1.37227 1.55511 0
M  V30 32397 C 3116.01 -0.0375779 1.88062 0
M  V30 32398 O 3115.36 -1.01767 1.50044 0
M  V30 32399 C 3115.41 2.22801 2.83535 0
M  V30 32400 O 3114.52 1.64016 3.78381 0
M  V30 32401 H 3113.86 0.468401 0.470634 0
M  V30 32402 H 3116.39 1.81689 0.94076 0
M  V30 32403 H 3116.4 2.36405 3.32531 0
M  V30 32404 H 3115.07 3.25273 2.59172 0
M  V30 32405 H 3113.65 1.59514 3.3706 0
M  V30 32406 N 3115.83 -0.98818 1.22771 0
M  V30 32407 C 3116.74 -2.11339 1.01848 0
M  V30 32408 C 3117.76 -1.73965 -0.0346631 0
M  V30 32409 O 3118.94 -2.00771 0.159096 0
M  V30 32410 C 3116 -3.414 0.603897 0
M  V30 32411 C 3115.06 -3.92846 1.7312 0
M  V30 32412 C 3114.3 -5.167 1.3363 0
M  V30 32413 O 3114.52 -5.69987 0.217141 0
M  V30 32414 O 3113.45 -5.62017 2.15453 0
M  V30 32415 H 3117.28 -2.31876 1.96131 0
M  V30 32416 H 3114.86 -1.09713 1.01407 0
M  V30 32417 H 3116.75 -4.19653 0.38327 0
M  V30 32418 H 3115.42 -3.22212 -0.310026 0
M  V30 32419 H 3114.33 -3.15745 2.00639 0
M  V30 32420 H 3115.66 -4.16475 2.62316 0
M  V30 32421 N 3117.31 -1.03816 -1.18575 0
M  V30 32422 C 3118.24 -0.647834 -2.24333 0
M  V30 32423 C 3119.22 0.34771 -1.66508 0
M  V30 32424 O 3120.41 0.228367 -1.92853 0
M  V30 32425 C 3117.54 -0.00741027 -3.47299 0
M  V30 32426 C 3116.49 -0.926226 -4.17858 0
M  V30 32427 C 3115.82 -0.150411 -5.34488 0
M  V30 32428 C 3117.12 -2.2442 -4.71628 0
M  V30 32429 H 3118.81 -1.53196 -2.57238 0
M  V30 32430 H 3116.36 -0.738049 -1.23648 0
M  V30 32431 H 3118.31 0.27736 -4.20486 0
M  V30 32432 H 3117.04 0.911571 -3.13621 0
M  V30 32433 H 3115.69 -1.19534 -3.46565 0
M  V30 32434 H 3115.34 0.770897 -4.97058 0
M  V30 32435 H 3115.04 -0.762509 -5.82632 0
M  V30 32436 H 3116.57 0.127401 -6.10467 0
M  V30 32437 H 3117.98 -2.02031 -5.36523 0
M  V30 32438 H 3116.38 -2.80904 -5.30295 0
M  V30 32439 H 3117.45 -2.89243 -3.89187 0
M  V30 32440 N 3118.79 1.34753 -0.817283 0
M  V30 32441 C 3119.7 2.334 -0.236987 0
M  V30 32442 C 3120.72 1.62362 0.625657 0
M  V30 32443 O 3121.89 1.94167 0.534887 0
M  V30 32444 C 3118.96 3.41536 0.596155 0
M  V30 32445 C 3118.02 4.28331 -0.28823 0
M  V30 32446 C 3117.25 5.31303 0.505243 0
M  V30 32447 O 3117.47 5.43244 1.73902 0
M  V30 32448 O 3116.41 6.018 -0.10948 0
M  V30 32449 H 3120.23 2.84849 -1.05333 0
M  V30 32450 H 3117.82 1.37712 -0.579299 0
M  V30 32451 H 3119.7 4.0758 1.07034 0
M  V30 32452 H 3118.38 2.92341 1.38991 0
M  V30 32453 H 3117.28 3.6523 -0.809788 0
M  V30 32454 H 3118.62 4.80953 -1.0462 0
M  V30 32455 N 3120.27 0.571737 1.46864 0
M  V30 32456 C 3121.22 -0.167767 2.30189 0
M  V30 32457 C 3122.19 -0.894585 1.39951 0
M  V30 32458 O 3123.37 -0.887421 1.68907 0
M  V30 32459 C 3120.51 -1.18254 3.24207 0
M  V30 32460 C 3119.62 -0.4603 4.29541 0
M  V30 32461 C 3118.76 -1.46164 5.10695 0
M  V30 32462 C 3117.8 -0.725184 6.07789 0
M  V30 32463 N 3116.94 -1.67405 6.8185 0
M  V30 32464 H 3121.78 0.548882 2.92901 0
M  V30 32465 H 3119.31 0.282499 1.44362 0
M  V30 32466 H 3121.27 -1.78364 3.7715 0
M  V30 32467 H 3119.9 -1.86704 2.63327 0
M  V30 32468 H 3118.95 0.255612 3.7954 0
M  V30 32469 H 3120.26 0.115942 4.98665 0
M  V30 32470 H 3119.42 -2.13585 5.67861 0
M  V30 32471 H 3118.16 -2.07181 4.41506 0
M  V30 32472 H 3117.16 -0.0371314 5.49787 0
M  V30 32473 H 3118.39 -0.120559 6.78993 0
M  V30 32474 H 3116.33 -2.27252 6.1538 0
M  V30 32475 H 3116.25 -1.15033 7.47197 0
M  V30 32476 H 3117.52 -2.33895 7.43581 0
M  V30 32477 N 3121.75 -1.54542 0.308935 0
M  V30 32478 C 3123 -1.999 -0.297412 0
M  V30 32479 C 3123.32 -1.19881 -1.53797 0
M  V30 32480 O 3122.59 -0.296814 -1.93638 0
M  V30 32481 H 3121.17 -0.738421 -0.112884 0
M  V30 32482 H 3123.83 -1.90274 0.422101 0
M  V30 32483 H 3122.92 -3.06962 -0.563962 0
M  V30 32484 N 3123.23 -0.0368104 -1.57557 0
M  V30 32485 C 3124.19 0.927552 -2.09593 0
M  V30 32486 C 3125.19 1.24917 -1.01254 0
M  V30 32487 O 3126.38 1.18823 -1.27384 0
M  V30 32488 C 3123.51 2.24179 -2.5682 0
M  V30 32489 H 3124.7 0.476732 -2.96087 0
M  V30 32490 H 3122.26 0.211357 -1.54864 0
M  V30 32491 H 3122.99 2.73873 -1.73678 0
M  V30 32492 H 3122.78 2.02144 -3.35976 0
M  V30 32493 H 3124.27 2.93286 -2.97276 0
M  V30 32494 N 3124.7 1.55817 0.236426 0
M  V30 32495 C 3126.12 1.48475 0.585439 0
M  V30 32496 C 3126.32 0.729053 1.87849 0
M  V30 32497 O 3125.38 0.262658 2.5113 0
M  V30 32498 C 3126.69 2.92946 0.678455 0
M  V30 32499 C 3128.24 3.03379 0.770081 0
M  V30 32500 C 3128.71 4.49179 0.89457 0
M  V30 32501 N 3130.2 4.5316 0.959174 0
M  V30 32502 C 3130.94 5.63234 1.07495 0
M  V30 32503 N 3130.43 6.83094 1.1556 0
M  V30 32504 N 3132.23 5.51053 1.10892 0
M  V30 32505 H 3124.38 2.03384 -0.612277 0
M  V30 32506 H 3126.64 0.923805 -0.212813 0
M  V30 32507 H 3126.35 3.5112 -0.201819 0
M  V30 32508 H 3126.22 3.44018 1.54697 0
M  V30 32509 H 3128.61 2.45279 1.6408 0
M  V30 32510 H 3128.69 2.555 -0.123798 0
M  V30 32511 H 3128.33 5.07892 0.0283645 0
M  V30 32512 H 3128.26 4.94749 1.80365 0
M  V30 32513 H 3130.75 3.66835 0.907763 0
M  V30 32514 H 3131.07 7.62733 1.2433 0
M  V30 32515 H 3129.41 6.85834 1.12499 0
M  V30 32516 H 3132.6 4.56344 1.04247 0
M  V30 32517 H 3132.78 6.36873 1.1957 0
M  V30 32518 N 3126.18 -0.502526 1.49373 0
M  V30 32519 C 3127.09 -1.63065 1.68662 0
M  V30 32520 C 3128.11 -1.64426 0.569211 0
M  V30 32521 O 3129.28 -1.82875 0.843728 0
M  V30 32522 C 3126.35 -2.99438 1.7475 0
M  V30 32523 C 3125.41 -3.08716 2.98317 0
M  V30 32524 C 3124.64 -4.38584 3.04105 0
M  V30 32525 O 3124.87 -5.27293 2.17528 0
M  V30 32526 O 3123.8 -4.52802 3.96552 0
M  V30 32527 H 3127.63 -1.49722 2.64229 0
M  V30 32528 H 3125.21 -0.678647 1.33097 0
M  V30 32529 H 3127.09 -3.80493 1.81116 0
M  V30 32530 H 3125.77 -3.13047 0.82362 0
M  V30 32531 H 3124.67 -2.26855 2.97469 0
M  V30 32532 H 3126.01 -3.00034 3.9018 0
M  V30 32533 N 3127.66 -1.38422 -0.75346 0
M  V30 32534 C 3128.59 -1.3155 -1.87689 0
M  V30 32535 C 3129.6 -0.227699 -1.612 0
M  V30 32536 O 3130.79 -0.485268 -1.71777 0
M  V30 32537 C 3127.89 -1.01551 -3.23327 0
M  V30 32538 C 3127.07 -2.21243 -3.7732 0
M  V30 32539 C 3126.13 -1.87986 -4.91475 0
M  V30 32540 O 3125.15 -2.60481 -5.06101 0
M  V30 32541 N 3126.35 -0.834897 -5.74465 0
M  V30 32542 H 3129.12 -2.28357 -1.94095 0
M  V30 32543 H 3126.68 -1.32285 -0.933398 0
M  V30 32544 H 3128.67 -0.773547 -3.97238 0
M  V30 32545 H 3127.24 -0.135389 -3.12307 0
M  V30 32546 H 3126.46 -2.61504 -2.94974 0
M  V30 32547 H 3127.75 -3.01122 -4.10126 0
M  V30 32548 H 3127.15 -0.233705 -5.65217 0
M  V30 32549 H 3125.7 -0.652817 -6.48523 0
M  V30 32550 N 3129.14 0.981655 -1.23294 0
M  V30 32551 C 3130.55 1.53733 -1.05939 0
M  V30 32552 C 3130.9 1.92609 0.373661 0
M  V30 32553 O 3130.02 1.75919 1.26021 0
M  V30 32554 C 3130.62 2.79359 -1.91687 0
M  V30 32555 C 3129.18 3.31331 -1.78597 0
M  V30 32556 C 3128.33 2.04332 -1.87467 0
M  V30 32557 H 3131.28 0.801481 -1.36974 0
M  V30 32558 H 3131.3 3.52162 -1.44092 0
M  V30 32559 H 3130.81 2.51033 -2.9598 0
M  V30 32560 H 3128.91 3.6454 -0.770819 0
M  V30 32561 H 3129.02 4.01174 -2.61909 0
M  V30 32562 H 3127.39 2.18409 -1.31034 0
M  V30 32563 H 3128.17 1.78388 -2.93313 0
M  V30 32564 N 3130.62 1.04444 1.18022 0
M  V30 32565 C 3131.53 0.649315 2.25435 0
M  V30 32566 C 3132.54 -0.326159 1.70916 0
M  V30 32567 O 3133.72 -0.180139 2.00593 0
M  V30 32568 C 3130.78 0.0223167 3.46693 0
M  V30 32569 C 3129.84 1.04728 4.1633 0
M  V30 32570 C 3129.08 0.450105 5.31799 0
M  V30 32571 O 3129.3 -0.742618 5.65545 0
M  V30 32572 O 3128.23 1.18067 5.90207 0
M  V30 32573 H 3132.06 1.5443 2.61505 0
M  V30 32574 H 3129.64 0.815542 1.25177 0
M  V30 32575 H 3131.53 -0.326523 4.20133 0
M  V30 32576 H 3130.2 -0.846435 3.12437 0
M  V30 32577 H 3129.11 1.44798 3.44941 0
M  V30 32578 H 3130.44 1.88692 4.54594 0
M  V30 32579 N 3132.09 -1.34317 0.824418 0
M  V30 32580 C 3133.04 -2.29493 0.245322 0
M  V30 32581 C 3134.01 -1.53659 -0.630735 0
M  V30 32582 O 3135.2 -1.82022 -0.572062 0
M  V30 32583 C 3132.34 -3.40096 -0.585572 0
M  V30 32584 C 3131.45 -4.30865 0.312897 0
M  V30 32585 C 3130.58 -5.28572 -0.527708 0
M  V30 32586 C 3129.62 -6.1098 0.370054 0
M  V30 32587 N 3128.76 -7.00772 -0.431566 0
M  V30 32588 H 3133.6 -2.78423 1.0623 0
M  V30 32589 H 3131.14 -1.37012 0.535354 0
M  V30 32590 H 3133.09 -4.02908 -1.08264 0
M  V30 32591 H 3131.72 -2.92396 -1.36765 0
M  V30 32592 H 3130.78 -3.68902 0.928194 0
M  V30 32593 H 3132.09 -4.88609 1.00315 0
M  V30 32594 H 3131.24 -5.96843 -1.0892 0
M  V30 32595 H 3129.98 -4.7137 -1.25146 0
M  V30 32596 H 3128.99 -5.41641 0.943672 0
M  V30 32597 H 3130.21 -6.70264 1.09194 0
M  V30 32598 H 3128.16 -6.46037 -1.13896 0
M  V30 32599 H 3128.07 -7.55735 0.200266 0
M  V30 32600 H 3129.34 -7.73369 -0.975759 0
M  V30 32601 N 3133.57 -0.579517 -1.46558 0
M  V30 32602 C 3134.48 0.158119 -2.34067 0
M  V30 32603 C 3135.5 0.889294 -1.49558 0
M  V30 32604 O 3136.67 0.853193 -1.82435 0
M  V30 32605 C 3133.74 1.16094 -3.26685 0
M  V30 32606 C 3132.8 0.43478 -4.27093 0
M  V30 32607 C 3132.03 1.38983 -5.15286 0
M  V30 32608 O 3132.26 2.62615 -5.06349 0
M  V30 32609 O 3131.19 0.902149 -5.95101 0
M  V30 32610 H 3135.02 -0.560286 -2.98487 0
M  V30 32611 H 3132.6 -0.339943 -1.45481 0
M  V30 32612 H 3134.48 1.73925 -3.83833 0
M  V30 32613 H 3133.16 1.86087 -2.64865 0
M  V30 32614 H 3132.06 -0.185289 -3.73641 0
M  V30 32615 H 3133.4 -0.224118 -4.91689 0
M  V30 32616 N 3135.05 1.54376 -0.317127 0
M  V30 32617 C 3136.01 2.22772 0.539011 0
M  V30 32618 C 3137.01 1.21903 1.04863 0
M  V30 32619 O 3138.2 1.46528 0.942083 0
M  V30 32620 C 3135.34 2.92674 1.74799 0
M  V30 32621 H 3136.53 2.99842 -0.0587944 0
M  V30 32622 H 3134.08 1.56151 -0.0681345 0
M  V30 32623 H 3134.82 2.19724 2.3852 0
M  V30 32624 H 3134.6 3.66633 1.39005 0
M  V30 32625 H 3136.09 3.44803 2.35586 0
M  V30 32626 N 3136.53 0.0451655 1.57535 0
M  V30 32627 C 3137.46 -0.960336 2.08111 0
M  V30 32628 C 3138.47 -1.27863 1.00772 0
M  V30 32629 O 3139.66 -1.24047 1.28353 0
M  V30 32630 C 3136.76 -2.2835 2.50418 0
M  V30 32631 C 3135.94 -2.14802 3.81024 0
M  V30 32632 C 3134.99 -3.3019 4.09708 0
M  V30 32633 O 3134.02 -3.06362 4.7972 0
M  V30 32634 N 3135.22 -4.54482 3.61146 0
M  V30 32635 H 3137.99 -0.5287 2.95 0
M  V30 32636 H 3135.55 -0.14122 1.61283 0
M  V30 32637 H 3137.54 -3.044 2.66688 0
M  V30 32638 H 3136.11 -2.63101 1.6881 0
M  V30 32639 H 3135.33 -1.2338 3.74394 0
M  V30 32640 H 3136.62 -2.0297 4.66563 0
M  V30 32641 H 3136.02 -4.76733 3.04535 0
M  V30 32642 H 3134.57 -5.27647 3.82665 0
M  V30 32643 N 3138.01 -1.5594 -0.228159 0
M  V30 32644 C 3139.23 -1.83066 -0.974763 0
M  V30 32645 C 3139.66 -0.624655 -1.77425 0
M  V30 32646 O 3139.01 0.426525 -1.76211 0
M  V30 32647 C 3139.06 -3.08119 -1.87337 0
M  V30 32648 O 3138.17 -2.8635 -2.96779 0
M  V30 32649 H 3137.51 -0.603752 -0.276368 0
M  V30 32650 H 3140.04 -2.03146 -0.243471 0
M  V30 32651 H 3140.05 -3.38049 -2.28445 0
M  V30 32652 H 3138.72 -3.95529 -1.28568 0
M  V30 32653 H 3137.3 -2.67636 -2.59664 0
M  V30 32654 N 3139.48 0.494597 -1.49638 0
M  V30 32655 C 3140.9 1.076 -1.52575 0
M  V30 32656 C 3141.25 1.93645 -0.315625 0
M  V30 32657 O 3140.37 2.0865 0.573929 0
M  V30 32658 C 3140.97 1.95812 -2.76483 0
M  V30 32659 C 3139.53 2.49104 -2.82178 0
M  V30 32660 C 3138.67 1.26875 -2.46572 0
M  V30 32661 H 3141.62 0.278224 -1.56242 0
M  V30 32662 H 3141.64 2.80584 -2.57008 0
M  V30 32663 H 3141.16 1.33161 -3.64541 0
M  V30 32664 H 3139.26 3.15376 -1.98416 0
M  V30 32665 H 3139.37 2.85818 -3.84506 0
M  V30 32666 H 3137.73 1.59603 -1.98491 0
M  V30 32667 H 3138.52 0.659222 -3.36911 0
M  V30 32668 N 3140.96 1.3882 0.746109 0
M  V30 32669 C 3142.19 1.38868 1.54046 0
M  V30 32670 C 3142.61 -0.0176293 1.88092 0
M  V30 32671 O 3141.97 -1.0017 1.51115 0
M  V30 32672 C 3142.02 2.25796 2.81156 0
M  V30 32673 O 3141.12 1.6802 3.7662 0
M  V30 32674 H 3140.46 0.473367 0.465639 0
M  V30 32675 H 3142.99 1.82676 0.921437 0
M  V30 32676 H 3143 2.39918 3.30005 0
M  V30 32677 H 3141.68 3.28004 2.55707 0
M  V30 32678 H 3140.26 1.6308 3.35349 0
M  V30 32679 N 3142.44 -0.975103 1.23812 0
M  V30 32680 C 3143.85 -1.53169 1.06753 0
M  V30 32681 C 3144.2 -1.92804 -0.363441 0
M  V30 32682 O 3143.33 -1.76585 -1.25086 0
M  V30 32683 C 3143.92 -2.78339 1.93166 0
M  V30 32684 C 3142.48 -3.30379 1.80351 0
M  V30 32685 C 3141.63 -2.03335 1.88548 0
M  V30 32686 H 3144.58 -0.794206 1.37397 0
M  V30 32687 H 3144.6 -3.51393 1.45957 0
M  V30 32688 H 3144.11 -2.4946 2.97307 0
M  V30 32689 H 3142.21 -3.64126 0.790141 0
M  V30 32690 H 3142.33 -3.99779 2.64033 0
M  V30 32691 H 3140.69 -2.17711 1.3219 0
M  V30 32692 H 3141.47 -1.7683 2.94255 0
M  V30 32693 N 3143.92 -1.05068 -1.17467 0
M  V30 32694 C 3145.33 -0.786333 -1.69333 0
M  V30 32695 C 3145.68 0.691639 -1.83605 0
M  V30 32696 O 3144.81 1.5376 -1.52272 0
M  V30 32697 C 3145.4 -1.42079 -3.07569 0
M  V30 32698 C 3143.96 -1.20452 -3.56607 0
M  V30 32699 C 3143.11 -1.50512 -2.32898 0
M  V30 32700 H 3146.06 -1.21579 -1.02001 0
M  V30 32701 H 3146.08 -0.829399 -3.71351 0
M  V30 32702 H 3145.59 -2.49647 -2.9715 0
M  V30 32703 H 3143.69 -0.148033 -3.72306 0
M  V30 32704 H 3143.8 -1.9086 -4.39442 0
M  V30 32705 H 3142.17 -0.925165 -2.37303 0
M  V30 32706 H 3142.95 -2.59211 -2.25088 0
M  V30 32707 N 3145.4 1.33878 -0.831529 0
M  V30 32708 C 3146.35 2.2682 -0.231695 0
M  V30 32709 C 3147.33 1.48928 0.609049 0
M  V30 32710 O 3148.52 1.70858 0.462219 0
M  V30 32711 C 3145.65 3.38044 0.598401 0
M  V30 32712 C 3144.74 4.23342 -0.253446 0
M  V30 32713 N 3145.13 4.88038 -1.32862 0
M  V30 32714 C 3143.43 4.45983 -0.0392321 0
M  V30 32715 C 3144.13 5.51472 -1.85078 0
M  V30 32716 N 3143.1 5.31224 -1.15336 0
M  V30 32717 H 3146.91 2.7435 -1.054 0
M  V30 32718 H 3144.42 1.47697 -0.675221 0
M  V30 32719 H 3146.42 4.03607 1.04436 0
M  V30 32720 H 3145.08 2.92063 1.41877 0
M  V30 32721 H 3146.09 4.88803 -1.71148 0
M  V30 32722 H 3142.76 4.1074 0.748284 0
M  V30 32723 H 3144.15 6.13011 -2.75076 0
M  V30 32724 N 3146.87 0.587281 1.46249 0
M  V30 32725 C 3148.29 0.161951 1.85996 0
M  V30 32726 C 3148.64 -1.27614 1.49027 0
M  V30 32727 O 3147.76 -1.96461 0.907316 0
M  V30 32728 C 3148.36 0.287137 3.37581 0
M  V30 32729 C 3146.92 -0.083355 3.76308 0
M  V30 32730 C 3146.06 0.620979 2.70258 0
M  V30 32731 H 3149.01 0.795223 1.37339 0
M  V30 32732 H 3149.03 -0.486266 3.7738 0
M  V30 32733 H 3148.55 1.3339 3.64457 0
M  V30 32734 H 3146.65 -1.13007 3.55049 0
M  V30 32735 H 3146.76 0.296148 4.78184 0
M  V30 32736 H 3145.12 0.0607475 2.54628 0
M  V30 32737 H 3145.91 1.66948 2.99972 0
M  V30 32738 N 3148.35 -1.54206 0.325309 0
M  V30 32739 C 3149.6 -1.9978 -0.277645 0
M  V30 32740 C 3149.91 -1.21726 -1.53108 0
M  V30 32741 O 3151.12 -1.57686 -2.21014 0
M  V30 32742 C 3149.58 -3.55745 -0.545267 0
M  V30 32743 C 3149.18 -4.42635 0.691221 0
M  V30 32744 C 3150.93 -4.09783 -1.10808 0
M  V30 32745 C 3148.84 -5.90077 0.395406 0
M  V30 32746 H 3147.77 -0.746294 -0.107523 0
M  V30 32747 H 3150.42 -1.78201 0.437805 0
M  V30 32748 H 3148.8 -3.73319 -1.32095 0
M  V30 32749 H 3149.97 -4.36838 1.46661 0
M  V30 32750 H 3148.29 -3.99497 1.17437 0
M  V30 32751 H 3150.88 -5.17532 -1.34405 0
M  V30 32752 H 3151.23 -3.61873 -2.05799 0
M  V30 32753 H 3151.76 -3.95849 -0.393538 0
M  V30 32754 H 3148.5 -6.42184 1.31454 0
M  V30 32755 H 3148.02 -5.98823 -0.342245 0
M  V30 32756 H 3149.7 -6.47 0.0058825 0
M  V30 32757 N 3149.83 -0.0535194 -1.57509 0
M  V30 32758 C 3151.24 0.481836 -1.80375 0
M  V30 32759 C 3151.59 1.70774 -0.965947 0
M  V30 32760 O 3150.72 2.15623 -0.183205 0
M  V30 32761 C 3151.31 0.88092 -3.27147 0
M  V30 32762 C 3149.87 1.36124 -3.50923 0
M  V30 32763 C 3149.02 0.337562 -2.75238 0
M  V30 32764 H 3151.97 -0.279381 -1.56221 0
M  V30 32765 H 3151.99 1.74367 -3.38196 0
M  V30 32766 H 3151.5 -0.0115092 -3.88098 0
M  V30 32767 H 3149.6 2.27278 -2.95255 0
M  V30 32768 H 3149.72 1.35178 -4.59634 0
M  V30 32769 H 3148.08 0.810949 -2.41445 0
M  V30 32770 H 3148.86 -0.546823 -3.38917 0
M  V30 32771 N 3151.31 1.56059 0.219886 0
M  V30 32772 C 3152.24 1.87568 1.29975 0
M  V30 32773 C 3153.22 0.733228 1.45129 0
M  V30 32774 O 3154.4 0.981757 1.60915 0
M  V30 32775 C 3151.53 2.08416 2.66984 0
M  V30 32776 C 3150.58 3.31104 2.68836 0
M  V30 32777 S 3151.41 4.86979 2.22737 0
M  V30 32778 C 3152.57 5.10865 3.61618 0
M  V30 32779 H 3152.8 2.78868 1.03054 0
M  V30 32780 H 3150.33 1.48515 0.422207 0
M  V30 32781 H 3152.29 2.2111 3.45862 0
M  V30 32782 H 3150.95 1.1791 2.91129 0
M  V30 32783 H 3150.14 3.42741 3.6952 0
M  V30 32784 H 3149.75 3.17274 1.98023 0
M  V30 32785 H 3152.04 4.99865 4.57319 0
M  V30 32786 H 3152.98 6.12744 3.54896 0
M  V30 32787 H 3153.39 4.38592 3.55383 0
M  V30 32788 N 3152.79 -0.486655 1.49898 0
M  V30 32789 C 3154.04 -1.23739 1.59791 0
M  V30 32790 C 3154.36 -1.92785 0.29309 0
M  V30 32791 O 3153.63 -1.83402 -0.688502 0
M  V30 32792 H 3152.21 -0.459721 0.588783 0
M  V30 32793 H 3154.87 -0.562775 1.86598 0
M  V30 32794 H 3153.96 -1.99366 2.40124 0
M  V30 32795 N 3154.27 -1.39214 -0.738737 0
M  V30 32796 C 3155.49 -1.39683 -1.53308 0
M  V30 32797 C 3155.92 0.00765409 -1.88098 0
M  V30 32798 O 3155.27 0.993672 -1.51644 0
M  V30 32799 C 3155.32 -2.27284 -2.79954 0
M  V30 32800 O 3154.43 -1.70015 -3.75724 0
M  V30 32801 H 3153.77 -0.47583 -0.463122 0
M  V30 32802 H 3156.3 -1.83163 -0.911736 0
M  V30 32803 H 3156.31 -2.41665 -3.28728 0
M  V30 32804 H 3154.98 -3.29355 -2.53964 0
M  V30 32805 H 3153.56 -1.64857 -3.3448 0
M  V30 32806 N 3155.74 0.968523 -1.24328 0
M  V30 32807 C 3157.15 1.52601 -1.07564 0
M  V30 32808 C 3157.51 1.92994 0.353211 0
M  V30 32809 O 3156.63 1.77246 1.24148 0
M  V30 32810 C 3157.23 2.77311 -1.94639 0
M  V30 32811 C 3155.78 3.29418 -1.82101 0
M  V30 32812 C 3154.93 2.02332 -1.89624 0
M  V30 32813 H 3157.88 0.786908 -1.37817 0
M  V30 32814 H 3157.9 3.50614 -1.47819 0
M  V30 32815 H 3157.42 2.4788 -2.98625 0
M  V30 32816 H 3155.52 3.63702 -0.80944 0
M  V30 32817 H 3155.63 3.98373 -2.66149 0
M  V30 32818 H 3153.99 2.17006 -1.33343 0
M  V30 32819 H 3154.78 1.75267 -2.95188 0
M  V30 32820 N 3157.22 1.0569 1.16908 0
M  V30 32821 C 3158.45 0.790519 1.91203 0
M  V30 32822 C 3158.86 -0.654403 1.77096 0
M  V30 32823 O 3158.22 -1.44749 1.11148 0
M  V30 32824 C 3158.27 1.16814 3.42106 0
M  V30 32825 O 3157.99 2.55636 3.55784 0
M  V30 32826 C 3159.49 0.928626 4.33464 0
M  V30 32827 H 3156.71 0.287045 0.606503 0
M  V30 32828 H 3159.26 1.40891 1.48223 0
M  V30 32829 H 3157.41 0.594407 3.82813 0
M  V30 32830 H 3157.83 2.70583 4.49316 0
M  V30 32831 H 3159.3 1.24254 5.37834 0
M  V30 32832 H 3159.78 -0.135939 4.3899 0
M  V30 32833 H 3160.38 1.48645 3.98478 0
M  V30 32834 N 3158.7 -1.33435 0.838617 0
M  V30 32835 C 3159.63 -2.31733 0.286713 0
M  V30 32836 C 3160.61 -1.58961 -0.605423 0
M  V30 32837 O 3161.8 -1.86855 -0.529026 0
M  V30 32838 C 3158.93 -3.43088 -0.539251 0
M  V30 32839 C 3157.88 -4.27227 0.257072 0
M  V30 32840 C 3157.21 -5.30195 -0.692625 0
M  V30 32841 C 3158.51 -5.01069 1.474 0
M  V30 32842 H 3160.2 -2.78142 1.10803 0
M  V30 32843 H 3157.75 -1.33722 0.534259 0
M  V30 32844 H 3159.7 -4.10881 -0.935652 0
M  V30 32845 H 3158.42 -2.95367 -1.39378 0
M  V30 32846 H 3157.08 -3.61058 0.63503 0
M  V30 32847 H 3156.73 -4.78731 -1.54354 0
M  V30 32848 H 3156.43 -5.87371 -0.16392 0
M  V30 32849 H 3157.95 -6.00855 -1.08655 0
M  V30 32850 H 3159.37 -5.61632 1.15077 0
M  V30 32851 H 3157.76 -5.67895 1.93947 0
M  V30 32852 H 3158.83 -4.29857 2.2439 0
M  V30 32853 N 3160.18 -0.595029 -1.45935 0
M  V30 32854 C 3161.42 -0.0938483 -2.03183 0
M  V30 32855 C 3161.78 1.25682 -1.45677 0
M  V30 32856 O 3161.07 1.81388 -0.617154 0
M  V30 32857 C 3161.27 0.0173119 -3.57396 0
M  V30 32858 C 3161.09 -1.32103 -4.29859 0
M  V30 32859 C 3159.86 -1.89843 -4.68282 0
M  V30 32860 C 3162.06 -2.24701 -4.62617 0
M  V30 32861 N 3160.04 -3.17288 -5.25549 0
M  V30 32862 C 3161.42 -3.36738 -5.20584 0
M  V30 32863 C 3163.47 -2.24229 -4.44551 0
M  V30 32864 C 3162.17 -4.48452 -5.6239 0
M  V30 32865 C 3164.2 -3.34981 -4.87382 0
M  V30 32866 C 3163.56 -4.4574 -5.45431 0
M  V30 32867 H 3159.66 -0.0774131 -0.778159 0
M  V30 32868 H 3162.24 -0.79063 -1.77925 0
M  V30 32869 H 3160.42 0.683287 -3.82342 0
M  V30 32870 H 3162.15 0.524003 -4.01293 0
M  V30 32871 H 3158.9 -1.43193 -4.51434 0
M  V30 32872 H 3159.33 -3.8235 -5.58693 0
M  V30 32873 H 3163.97 -1.39864 -3.98996 0
M  V30 32874 H 3161.69 -5.33551 -6.06918 0
M  V30 32875 H 3165.27 -3.35749 -4.75146 0
M  V30 32876 H 3164.15 -5.30024 -5.77966 0
M  V30 32877 N 3161.66 1.54031 -0.333483 0
M  V30 32878 C 3163.07 1.86076 0.152527 0
M  V30 32879 C 3163.42 1.25494 1.50817 0
M  V30 32880 O 3162.54 0.564701 2.08902 0
M  V30 32881 C 3163.14 3.37611 0.28354 0
M  V30 32882 C 3161.7 3.6957 0.713776 0
M  V30 32883 C 3160.84 2.76846 -0.158564 0
M  V30 32884 H 3163.79 1.48738 -0.55343 0
M  V30 32885 H 3163.82 3.63865 1.11277 0
M  V30 32886 H 3163.33 3.81675 -0.70326 0
M  V30 32887 H 3161.43 3.31045 1.70996 0
M  V30 32888 H 3161.54 4.76371 0.510647 0
M  V30 32889 H 3159.91 2.52035 0.367487 0
M  V30 32890 H 3160.69 3.23738 -1.14231 0
M  V30 32891 N 3163.13 0.0618717 1.57479 0
M  V30 32892 C 3164.04 -0.923788 2.15646 0
M  V30 32893 C 3165.06 -1.33411 1.11703 0
M  V30 32894 O 3166.24 -1.40884 1.43922 0
M  V30 32895 C 3163.3 -2.1766 2.69861 0
M  V30 32896 C 3162.36 -1.82363 3.88642 0
M  V30 32897 C 3161.59 -3.01672 4.40261 0
M  V30 32898 O 3161.82 -4.15381 3.90916 0
M  V30 32899 O 3160.75 -2.82064 5.31717 0
M  V30 32900 H 3164.58 -0.459042 3.00211 0
M  V30 32901 H 3162.16 -0.160639 1.48534 0
M  V30 32902 H 3164.04 -2.91145 3.04652 0
M  V30 32903 H 3162.72 -2.63252 1.88362 0
M  V30 32904 H 3161.63 -1.06161 3.58721 0
M  V30 32905 H 3162.96 -1.41562 4.71403 0
M  V30 32906 N 3164.61 -1.56173 -0.211607 0
M  V30 32907 C 3165.84 -1.83741 -0.951151 0
M  V30 32908 C 3166.26 -0.642283 -1.77539 0
M  V30 32909 O 3165.61 0.389143 -1.78303 0
M  V30 32910 C 3165.66 -3.09936 -1.86069 0
M  V30 32911 O 3165.38 -4.24839 -1.06976 0
M  V30 32912 C 3166.89 -3.50563 -2.7133 0
M  V30 32913 H 3164.11 -0.610565 -0.278301 0
M  V30 32914 H 3166.65 -2.03271 -0.223836 0
M  V30 32915 H 3164.8 -2.92352 -2.54184 0
M  V30 32916 H 3165.22 -4.96593 -1.68806 0
M  V30 32917 H 3166.69 -4.41873 -3.30835 0
M  V30 32918 H 3167.17 -2.72779 -3.44221 0
M  V30 32919 H 3167.78 -3.70622 -2.08614 0
M  V30 32920 N 3166.09 0.478699 -1.50154 0
M  V30 32921 C 3167 1.60361 -1.71235 0
M  V30 32922 C 3168.02 1.635 -0.595298 0
M  V30 32923 O 3169.19 1.81509 -0.872715 0
M  V30 32924 C 3166.26 2.9662 -1.79492 0
M  V30 32925 C 3165.32 3.03931 -3.0319 0
M  V30 32926 C 3164.55 4.33691 -3.11044 0
M  V30 32927 O 3164.77 5.23765 -2.25889 0
M  V30 32928 O 3163.71 4.46436 -4.03706 0
M  V30 32929 H 3167.53 1.455 -2.66577 0
M  V30 32930 H 3165.12 0.657387 -1.3416 0
M  V30 32931 H 3167 3.77563 -1.87147 0
M  V30 32932 H 3165.68 3.11697 -0.873319 0
M  V30 32933 H 3164.58 2.22094 -3.0104 0
M  V30 32934 H 3165.92 2.93789 -3.94904 0
M  V30 32935 N 3167.57 1.39603 0.731343 0
M  V30 32936 C 3168.53 1.38386 1.82707 0
M  V30 32937 C 3169.53 0.280337 1.58337 0
M  V30 32938 O 3170.72 0.538432 1.6567 0
M  V30 32939 C 3167.85 1.16008 3.20554 0
M  V30 32940 H 3169.05 2.35892 1.85189 0
M  V30 32941 H 3166.6 1.25222 0.935374 0
M  V30 32942 H 3167.33 0.191984 3.23731 0
M  V30 32943 H 3167.12 1.95926 3.3964 0
M  V30 32944 H 3168.61 1.17906 4.0061 0
M  V30 32945 N 3169.05 -0.961916 1.2484 0
M  V30 32946 C 3170 -2.04271 1.01279 0
M  V30 32947 C 3170.98 -1.60829 -0.0477957 0
M  V30 32948 O 3172.17 -1.76214 0.166647 0
M  V30 32949 C 3169.3 -3.37549 0.625719 0
M  V30 32950 C 3168.39 -3.87536 1.72269 0
M  V30 32951 N 3168.78 -4.10395 2.95651 0
M  V30 32952 C 3167.08 -4.16253 1.60153 0
M  V30 32953 C 3167.78 -4.51475 3.66804 0
M  V30 32954 N 3166.75 -4.56984 2.94391 0
M  V30 32955 H 3170.56 -2.19927 1.94959 0
M  V30 32956 H 3168.07 -1.14617 1.15051 0
M  V30 32957 H 3170.07 -4.14591 0.438145 0
M  V30 32958 H 3168.73 -3.23275 -0.30383 0
M  V30 32959 H 3169.74 -3.97679 3.31771 0
M  V30 32960 H 3166.41 -4.10882 0.740425 0
M  V30 32961 H 3167.8 -4.77526 4.72672 0
M  V30 32962 N 3170.52 -1.06308 -1.16346 0
M  V30 32963 C 3171.77 -0.78104 -1.87157 0
M  V30 32964 C 3172.1 0.690752 -1.815 0
M  V30 32965 O 3171.38 1.50607 -1.23076 0
M  V30 32966 C 3171.66 -1.27644 -3.36718 0
M  V30 32967 C 3171.51 -2.81201 -3.51065 0
M  V30 32968 C 3172.83 -0.884463 -4.31121 0
M  V30 32969 H 3169.95 -0.285199 -0.679581 0
M  V30 32970 H 3172.59 -1.31903 -1.36753 0
M  V30 32971 H 3170.74 -0.818781 -3.79774 0
M  V30 32972 H 3172.42 -3.35176 -3.16946 0
M  V30 32973 H 3170.66 -3.19923 -2.9297 0
M  V30 32974 H 3171.33 -3.10929 -4.561 0
M  V30 32975 H 3173.81 -1.27864 -3.95967 0
M  V30 32976 H 3172.68 -1.25857 -5.34276 0
M  V30 32977 H 3172.94 0.210595 -4.41598 0
M  V30 32978 N 3172 1.32989 -0.845682 0
M  V30 32979 C 3173.23 2.02292 -0.457471 0
M  V30 32980 C 3173.65 1.63181 0.935606 0
M  V30 32981 O 3173.01 0.827864 1.61295 0
M  V30 32982 C 3173.06 3.55679 -0.593728 0
M  V30 32983 O 3172.16 4.10671 0.377218 0
M  V30 32984 H 3171.5 0.637698 -0.185033 0
M  V30 32985 H 3174.03 1.69736 -1.1424 0
M  V30 32986 H 3174.04 4.05191 -0.477905 0
M  V30 32987 H 3172.72 3.83489 -1.60964 0
M  V30 32988 H 3171.3 3.7226 0.218383 0
M  V30 32989 N 3173.48 0.60276 1.45618 0
M  V30 32990 C 3174.89 0.181669 1.85814 0
M  V30 32991 C 3175.24 -1.26026 1.50372 0
M  V30 32992 O 3174.37 -1.95487 0.928102 0
M  V30 32993 C 3174.96 0.322926 3.37258 0
M  V30 32994 C 3173.52 -0.0434378 3.76375 0
M  V30 32995 C 3172.67 0.649609 2.69584 0
M  V30 32996 H 3175.62 0.809745 1.36487 0
M  V30 32997 H 3175.64 -0.446213 3.77875 0
M  V30 32998 H 3175.15 1.37248 3.63022 0
M  V30 32999 H 3173.25 -1.09235 3.56228 0
M  V30 33000 H 3173.37 0.346849 4.77843 0
M  V30 33001 H 3171.73 0.0877507 2.54549 0
M  V30 33002 H 3172.51 1.7012 2.98185 0
M  V30 33003 N 3174.96 -1.53852 0.341647 0
M  V30 33004 C 3176.37 -1.86154 -0.142657 0
M  V30 33005 C 3176.72 -1.26292 -1.50149 0
M  V30 33006 O 3175.85 -0.575772 -2.086 0
M  V30 33007 C 3176.44 -3.37757 -0.265632 0
M  V30 33008 C 3175 -3.69944 -0.694166 0
M  V30 33009 C 3174.15 -2.76758 0.173243 0
M  V30 33010 H 3177.1 -1.48442 0.56131 0
M  V30 33011 H 3177.12 -3.6445 -1.09346 0
M  V30 33012 H 3176.63 -3.81297 0.723491 0
M  V30 33013 H 3174.73 -3.31948 -1.69238 0
M  V30 33014 H 3174.84 -4.76635 -0.485377 0
M  V30 33015 H 3173.21 -2.52226 -0.354116 0
M  V30 33016 H 3173.99 -3.23127 1.15946 0
M  V30 33017 N 3176.44 -0.0702223 -1.57443 0
M  V30 33018 C 3177.37 0.895138 -2.15661 0
M  V30 33019 C 3178.35 1.31149 -1.08323 0
M  V30 33020 O 3179.53 1.38282 -1.36351 0
M  V30 33021 C 3176.66 2.16329 -2.71697 0
M  V30 33022 C 3175.62 1.88639 -3.84187 0
M  V30 33023 C 3174.94 3.22071 -4.26819 0
M  V30 33024 C 3176.24 1.1929 -5.08495 0
M  V30 33025 H 3177.94 0.410165 -2.96577 0
M  V30 33026 H 3175.48 0.195847 -1.42662 0
M  V30 33027 H 3177.44 2.84278 -3.11069 0
M  V30 33028 H 3176.16 2.67065 -1.87999 0
M  V30 33029 H 3174.82 1.23095 -3.45316 0
M  V30 33030 H 3174.47 3.70645 -3.40046 0
M  V30 33031 H 3174.17 3.04335 -5.02647 0
M  V30 33032 H 3175.69 3.9122 -4.68806 0
M  V30 33033 H 3177.1 1.77306 -5.45193 0
M  V30 33034 H 3175.5 1.11818 -5.8959 0
M  V30 33035 H 3176.57 0.171754 -4.84596 0
M  V30 33036 N 3177.91 1.56283 0.203321 0
M  V30 33037 C 3179.19 1.70959 0.950385 0
M  V30 33038 C 3179.57 0.622683 2.01707 0
M  V30 33039 O 3178.92 -0.367595 2.25524 0
M  V30 33040 C 3179.13 3.12974 1.54428 0
M  V30 33041 C 3180.48 3.72953 2.02957 0
M  V30 33042 O 3181.5 3.16051 1.64287 0
M  V30 33043 O 3180.36 4.72798 2.74089 0
M  V30 33044 H 3177.45 0.696978 0.445141 0
M  V30 33045 H 3180 1.68591 0.193666 0
M  V30 33046 H 3178.77 3.83549 0.774983 0
M  V30 33047 H 3178.4 3.19536 2.36606 0
M  V30 33048 N 3179.39 -0.470729 1.50406 0
M  V30 33049 C 3180.62 -1.25072 1.65444 0
M  V30 33050 C 3181.04 -1.85045 0.337645 0
M  V30 33051 O 3180.4 -1.67303 -0.698526 0
M  V30 33052 C 3180.45 -2.33493 2.74797 0
M  V30 33053 O 3179.55 -3.38145 2.36075 0
M  V30 33054 H 3178.89 -0.367941 0.552734 0
M  V30 33055 H 3181.42 -0.560143 1.96783 0
M  V30 33056 H 3181.43 -2.78799 2.97884 0
M  V30 33057 H 3180.11 -1.89213 3.70366 0
M  V30 33058 H 3178.69 -2.98548 2.23436 0
M  V30 33059 N 3180.87 -1.39989 -0.72393 0
M  V30 33060 C 3181.82 -1.36076 -1.82941 0
M  V30 33061 C 3182.81 -0.23971 -1.59104 0
M  V30 33062 O 3184 -0.478146 -1.70419 0
M  V30 33063 C 3181.13 -1.21751 -3.20985 0
M  V30 33064 C 3180.21 -2.38602 -3.50613 0
M  V30 33065 N 3180.6 -3.64083 -3.51109 0
M  V30 33066 C 3178.9 -2.31801 -3.81031 0
M  V30 33067 C 3179.6 -4.4142 -3.78845 0
M  V30 33068 N 3178.58 -3.7115 -3.97176 0
M  V30 33069 H 3182.38 -2.31046 -1.81645 0
M  V30 33070 H 3179.89 -1.33643 -0.92268 0
M  V30 33071 H 3181.89 -1.17029 -4.00137 0
M  V30 33072 H 3180.55 -0.277401 -3.23513 0
M  V30 33073 H 3181.56 -3.97357 -3.32156 0
M  V30 33074 H 3178.24 -1.46112 -3.91098 0
M  V30 33075 H 3179.63 -5.50236 -3.85603 0
M  V30 33076 N 3182.35 0.955282 -1.25348 0
M  V30 33077 C 3183.28 2.06941 -1.08155 0
M  V30 33078 C 3184.26 1.70098 0.00919608 0
M  V30 33079 O 3185.45 1.93538 -0.160215 0
M  V30 33080 C 3182.58 3.40197 -0.698805 0
M  V30 33081 C 3181.53 3.91047 -1.73972 0
M  V30 33082 C 3180.86 5.2079 -1.21167 0
M  V30 33083 C 3182.16 4.17497 -3.13836 0
M  V30 33084 H 3183.85 2.21583 -2.01349 0
M  V30 33085 H 3181.4 1.06476 -0.969478 0
M  V30 33086 H 3183.35 4.17589 -0.565467 0
M  V30 33087 H 3182.07 3.25492 0.268834 0
M  V30 33088 H 3180.73 3.15823 -1.86148 0
M  V30 33089 H 3180.38 5.02454 -0.234281 0
M  V30 33090 H 3180.08 5.55781 -1.90738 0
M  V30 33091 H 3181.6 6.00779 -1.09071 0
M  V30 33092 H 3183.02 4.8555 -3.04817 0
M  V30 33093 H 3181.41 4.63743 -3.80871 0
M  V30 33094 H 3182.48 3.23799 -3.60946 0
M  V30 33095 N 3183.83 1.06924 1.1578 0
M  V30 33096 C 3185.08 0.788224 1.86095 0
M  V30 33097 C 3185.4 -0.687573 1.82476 0
M  V30 33098 O 3184.67 -1.49776 1.26269 0
M  V30 33099 H 3183.25 0.288589 0.689003 0
M  V30 33100 H 3185.91 1.35207 1.40375 0
M  V30 33101 H 3185 1.11885 2.91356 0
M  V30 33102 N 3185.31 -1.32538 0.852723 0
M  V30 33103 C 3186.72 -1.79598 0.510043 0
M  V30 33104 C 3187.07 -1.70432 -0.971972 0
M  V30 33105 O 3186.19 -1.26176 -1.75808 0
M  V30 33106 C 3186.79 -3.26097 0.919043 0
M  V30 33107 C 3185.35 -3.71119 0.628292 0
M  V30 33108 C 3184.49 -2.53683 1.11984 0
M  V30 33109 H 3187.44 -1.19864 1.04011 0
M  V30 33110 H 3187.47 -3.79776 0.234644 0
M  V30 33111 H 3186.98 -3.32736 1.99771 0
M  V30 33112 H 3185.08 -3.69996 -0.439735 0
M  V30 33113 H 3185.19 -4.64003 1.19323 0
M  V30 33114 H 3183.56 -2.48906 0.540176 0
M  V30 33115 H 3184.34 -2.63077 2.20557 0
M  V30 33116 N 3186.78 -0.610474 -1.45296 0
M  V30 33117 C 3187.75 0.0967792 -2.28996 0
M  V30 33118 C 3188.75 0.792328 -1.39924 0
M  V30 33119 O 3189.94 0.640052 -1.62015 0
M  V30 33120 C 3187.07 1.14726 -3.21015 0
M  V30 33121 H 3188.26 -0.639134 -2.9301 0
M  V30 33122 H 3185.81 -0.36965 -1.51866 0
M  V30 33123 H 3186.55 1.91384 -2.61807 0
M  V30 33124 H 3186.33 0.652685 -3.8663 0
M  V30 33125 H 3187.82 1.64249 -3.83943 0
M  V30 33126 N 3188.26 1.53669 -0.349801 0
M  V30 33127 C 3189.68 1.596 0.00188487 0
M  V30 33128 C 3189.88 1.36554 1.48173 0
M  V30 33129 O 3188.93 1.16289 2.24127 0
M  V30 33130 C 3190.25 2.97465 -0.4399 0
M  V30 33131 C 3191.79 3.10526 -0.392775 0
M  V30 33132 C 3192.27 4.50778 -0.810126 0
M  V30 33133 N 3193.76 4.56847 -0.764559 0
M  V30 33134 C 3194.5 5.63529 -1.05937 0
M  V30 33135 N 3193.99 6.78036 -1.42265 0
M  V30 33136 N 3195.78 5.53434 -0.983195 0
M  V30 33137 H 3187.94 1.66902 -1.31367 0
M  V30 33138 H 3190.2 0.78198 -0.535922 0
M  V30 33139 H 3189.9 3.19416 -1.47195 0
M  V30 33140 H 3189.78 3.76762 0.181668 0
M  V30 33141 H 3192.17 2.88294 0.63011 0
M  V30 33142 H 3192.25 2.33273 -1.04963 0
M  V30 33143 H 3191.89 4.73746 -1.83105 0
M  V30 33144 H 3191.82 5.26438 -0.130683 0
M  V30 33145 H 3194.31 3.74622 -0.496703 0
M  V30 33146 H 3194.62 7.55365 -1.63228 0
M  V30 33147 H 3192.97 6.79467 -1.46116 0
M  V30 33148 H 3196.16 4.62856 -0.698682 0
M  V30 33149 H 3196.33 6.36483 -1.21629 0
M  V30 33150 N 3189.74 0.0785709 1.57404 0
M  V30 33151 C 3191.15 -0.453078 1.81119 0
M  V30 33152 C 3191.5 -1.69216 0.992993 0
M  V30 33153 O 3190.63 -2.15304 0.217486 0
M  V30 33154 C 3191.22 -0.828762 3.28507 0
M  V30 33155 C 3189.78 -1.30524 3.53045 0
M  V30 33156 C 3188.93 -0.293732 2.7574 0
M  V30 33157 H 3191.88 0.304199 1.55757 0
M  V30 33158 H 3191.9 -1.68965 3.40927 0
M  V30 33159 H 3191.41 0.0732508 3.88031 0
M  V30 33160 H 3189.51 -2.22552 2.98833 0
M  V30 33161 H 3189.63 -1.27849 4.61727 0
M  V30 33162 H 3187.99 -0.772434 2.42705 0
M  V30 33163 H 3188.77 0.600672 3.38004 0
M  V30 33164 N 3191.22 -1.56389 -0.19503 0
M  V30 33165 C 3192.44 -1.85092 -0.935713 0
M  V30 33166 C 3192.87 -0.662149 -1.7606 0
M  V30 33167 O 3192.23 0.389052 -1.77076 0
M  V30 33168 C 3192.27 -3.12023 -1.80759 0
M  V30 33169 O 3191.38 -2.9258 -2.90638 0
M  V30 33170 H 3190.72 -0.609478 -0.2635 0
M  V30 33171 H 3193.25 -2.03617 -0.200326 0
M  V30 33172 H 3193.26 -3.42818 -2.21223 0
M  V30 33173 H 3191.93 -3.98167 -1.2015 0
M  V30 33174 H 3190.51 -2.73083 -2.53929 0
M  V30 33175 N 3192.7 0.462746 -1.50653 0
M  V30 33176 C 3193.63 1.56757 -1.73059 0
M  V30 33177 C 3194.61 1.59916 -0.579727 0
M  V30 33178 O 3195.79 1.7605 -0.81976 0
M  V30 33179 C 3192.92 2.95027 -1.83239 0
M  V30 33180 C 3191.88 3.06734 -2.98494 0
M  V30 33181 C 3191.2 4.46733 -2.93826 0
M  V30 33182 C 3192.5 2.83173 -4.38874 0
M  V30 33183 H 3194.2 1.3826 -2.65565 0
M  V30 33184 H 3191.74 0.6637 -1.27793 0
M  V30 33185 H 3193.69 3.72254 -1.97497 0
M  V30 33186 H 3192.42 3.14699 -0.873613 0
M  V30 33187 H 3191.08 2.31941 -2.83899 0
M  V30 33188 H 3190.73 4.63336 -1.95777 0
M  V30 33189 H 3190.43 4.555 -3.71205 0
M  V30 33190 H 3191.95 5.25968 -3.10144 0
M  V30 33191 H 3193.36 3.50145 -4.53951 0
M  V30 33192 H 3191.76 3.03377 -5.17767 0
M  V30 33193 H 3192.83 1.78964 -4.50666 0
M  V30 33194 N 3194.17 1.40371 0.716495 0
M  V30 33195 C 3195.45 1.29099 1.46945 0
M  V30 33196 C 3195.83 -0.0910811 2.10903 0
M  V30 33197 O 3195.18 -1.10382 2.0007 0
M  V30 33198 C 3195.39 2.42911 2.5059 0
M  V30 33199 C 3196.74 2.83102 3.16446 0
M  V30 33200 O 3197.76 2.42497 2.60909 0
M  V30 33201 O 3196.62 3.53251 4.16984 0
M  V30 33202 H 3193.71 0.506944 0.653404 0
M  V30 33203 H 3196.26 1.52289 0.748747 0
M  V30 33204 H 3195.03 3.35227 2.01837 0
M  V30 33205 H 3194.66 2.21487 3.30196 0
M  V30 33206 N 3195.65 -0.948621 1.25853 0
M  V30 33207 C 3196.9 -1.69395 1.10957 0
M  V30 33208 C 3197.23 -1.91354 -0.34841 0
M  V30 33209 O 3196.48 -1.48653 -1.27282 0
M  V30 33210 C 3196.78 -3.07843 1.8157 0
M  V30 33211 C 3196.45 -3.05664 3.31482 0
M  V30 33212 C 3195.11 -3.04777 3.72376 0
M  V30 33213 C 3197.46 -2.98536 4.27231 0
M  V30 33214 C 3194.79 -2.94518 5.07421 0
M  V30 33215 C 3197.14 -2.89818 5.62306 0
M  V30 33216 C 3195.81 -2.8727 6.02522 0
M  V30 33217 H 3195.08 -0.619861 0.406022 0
M  V30 33218 H 3197.72 -1.10784 1.56202 0
M  V30 33219 H 3196.03 -3.70033 1.28774 0
M  V30 33220 H 3197.72 -3.64345 1.67492 0
M  V30 33221 H 3194.31 -3.0713 2.98947 0
M  V30 33222 H 3198.5 -2.98335 3.96623 0
M  V30 33223 H 3193.75 -2.90918 5.37751 0
M  V30 33224 H 3197.93 -2.83264 6.36187 0
M  V30 33225 H 3195.56 -2.79076 7.07121 0
M  V30 33226 N 3197.13 -1.07536 -1.15212 0
M  V30 33227 C 3198.54 -0.822074 -1.67627 0
M  V30 33228 C 3198.89 0.652538 -1.85031 0
M  V30 33229 O 3198.02 1.50495 -1.55499 0
M  V30 33230 C 3198.61 -1.48571 -3.04487 0
M  V30 33231 C 3197.17 -1.27989 -3.53971 0
M  V30 33232 C 3196.32 -1.55418 -2.29653 0
M  V30 33233 H 3199.27 -1.23715 -0.993994 0
M  V30 33234 H 3199.29 -0.907981 -3.69508 0
M  V30 33235 H 3198.8 -2.55894 -2.91788 0
M  V30 33236 H 3196.9 -0.226971 -3.71908 0
M  V30 33237 H 3197.02 -2.00138 -4.35295 0
M  V30 33238 H 3195.38 -0.975293 -2.35287 0
M  V30 33239 H 3196.16 -2.63927 -2.19539 0
M  V30 33240 N 3198.61 1.32084 -0.85974 0
M  V30 33241 C 3199.57 2.27052 -0.313044 0
M  V30 33242 C 3200.57 1.51809 0.530165 0
M  V30 33243 O 3201.76 1.70831 0.340942 0
M  V30 33244 C 3198.89 3.36326 0.556541 0
M  V30 33245 H 3200.09 2.76921 -1.1513 0
M  V30 33246 H 3197.64 1.42842 -0.634488 0
M  V30 33247 H 3198.37 2.91734 1.4164 0
M  V30 33248 H 3198.16 3.92072 -0.0470886 0
M  V30 33249 H 3199.65 4.07075 0.931653 0
M  V30 33250 N 3200.09 0.618171 1.4497 0
M  V30 33251 C 3201.31 0.122432 2.07038 0
M  V30 33252 C 3201.74 -1.1885 1.45795 0
M  V30 33253 O 3201.09 -1.7261 0.55456 0
M  V30 33254 C 3201.14 0.00744978 3.60599 0
M  V30 33255 O 3200.25 -1.04 3.99071 0
M  V30 33256 H 3199.59 0.0788731 0.659299 0
M  V30 33257 H 3202.12 0.85118 1.86054 0
M  V30 33258 H 3202.13 -0.187345 4.0757 0
M  V30 33259 H 3200.8 0.964616 4.04559 0
M  V30 33260 H 3199.38 -0.820815 3.63754 0
M  V30 33261 N 3201.56 -1.53481 0.357946 0
M  V30 33262 C 3202.53 -2.24123 -0.479757 0
M  V30 33263 C 3203.53 -1.24641 -1.01594 0
M  V30 33264 O 3204.72 -1.48974 -0.902902 0
M  V30 33265 C 3201.85 -2.97206 -1.66978 0
M  V30 33266 H 3203.04 -2.99581 0.138272 0
M  V30 33267 H 3200.6 -1.55916 0.109511 0
M  V30 33268 H 3201.33 -2.2597 -2.32611 0
M  V30 33269 H 3201.12 -3.7019 -1.29235 0
M  V30 33270 H 3202.61 -3.50928 -2.26361 0
M  V30 33271 N 3203.04 -0.0869173 -1.5736 0
M  V30 33272 C 3204.29 0.578707 -1.94055 0
M  V30 33273 C 3204.62 1.68697 -0.968077 0
M  V30 33274 O 3203.87 1.95695 0.013748 0
M  V30 33275 C 3204.17 1.18117 -3.37318 0
M  V30 33276 C 3203.84 0.197527 -4.50467 0
M  V30 33277 C 3202.5 -0.0730366 -4.81145 0
M  V30 33278 C 3204.85 -0.474565 -5.19035 0
M  V30 33279 C 3202.18 -1.02252 -5.77721 0
M  V30 33280 C 3204.53 -1.41247 -6.1663 0
M  V30 33281 C 3203.2 -1.69135 -6.45716 0
M  V30 33282 H 3202.47 0.211764 -0.710097 0
M  V30 33283 H 3205.11 -0.161012 -1.90822 0
M  V30 33284 H 3203.42 1.99696 -3.37089 0
M  V30 33285 H 3205.11 1.70374 -3.63006 0
M  V30 33286 H 3201.7 0.418594 -4.26551 0
M  V30 33287 H 3205.89 -0.278668 -4.95517 0
M  V30 33288 H 3201.14 -1.24568 -5.98576 0
M  V30 33289 H 3205.32 -1.93912 -6.68858 0
M  V30 33290 H 3202.95 -2.42867 -7.20361 0
M  V30 33291 N 3204.52 1.5649 0.186734 0
M  V30 33292 C 3205.77 1.80753 0.904031 0
M  V30 33293 C 3206.09 0.661376 1.83442 0
M  V30 33294 O 3205.36 -0.319777 1.93272 0
M  V30 33295 H 3203.94 0.666756 0.336817 0
M  V30 33296 H 3206.6 1.93969 0.190241 0
M  V30 33297 H 3205.7 2.74227 1.49016 0
M  V30 33298 N 3206 -0.45475 1.50897 0
M  V30 33299 C 3207.25 -1.2056 1.62701 0
M  V30 33300 C 3207.57 -1.91594 0.334977 0
M  V30 33301 O 3206.83 -1.83503 -0.680074 0
M  V30 33302 C 3207.13 -2.26037 2.76843 0
M  V30 33303 C 3206.79 -1.72139 4.16748 0
M  V30 33304 C 3205.46 -1.57162 4.54812 0
M  V30 33305 C 3207.81 -1.32332 5.04121 0
M  V30 33306 C 3205.14 -1.00825 5.77972 0
M  V30 33307 C 3207.49 -0.774309 6.27843 0
M  V30 33308 C 3206.15 -0.611298 6.64695 0
M  V30 33309 H 3205.42 -0.441159 0.595365 0
M  V30 33310 H 3208.07 -0.499169 1.8488 0
M  V30 33311 H 3206.37 -3.02651 2.48817 0
M  V30 33312 H 3208.07 -2.83921 2.83178 0
M  V30 33313 H 3204.66 -1.84768 3.86728 0
M  V30 33314 H 3208.84 -1.42731 4.75333 0
M  V30 33315 H 3204.1 -0.869563 6.05185 0
M  V30 33316 H 3208.27 -0.457267 6.94897 0
M  V30 33317 H 3205.9 -0.172617 7.60004 0
M  V30 33318 N 3207.48 -1.40749 -0.709041 0
M  V30 33319 C 3208.7 -1.42904 -1.5031 0
M  V30 33320 C 3209.13 -0.0322461 -1.88072 0
M  V30 33321 O 3208.48 0.961283 -1.53717 0
M  V30 33322 C 3208.53 -2.33171 -2.7507 0
M  V30 33323 O 3207.64 -1.77947 -3.72033 0
M  V30 33324 H 3206.98 -0.485546 -0.452925 0
M  V30 33325 H 3209.51 -1.85055 -0.87268 0
M  V30 33326 H 3209.52 -2.48584 -3.23528 0
M  V30 33327 H 3208.19 -3.34668 -2.46921 0
M  V30 33328 H 3206.77 -1.71914 -3.30908 0
M  V30 33329 N 3208.96 0.941933 -1.26354 0
M  V30 33330 C 3210.18 1.72774 -1.14734 0
M  V30 33331 C 3210.61 1.85792 0.293733 0
M  V30 33332 O 3209.96 1.34761 1.21281 0
M  V30 33333 C 3210.01 3.11274 -1.82046 0
M  V30 33334 O 3209.12 3.97216 -1.10874 0
M  V30 33335 H 3208.46 0.530123 -0.399832 0
M  V30 33336 H 3210.99 1.17978 -1.6716 0
M  V30 33337 H 3211 3.61668 -1.8884 0
M  V30 33338 H 3209.67 3.01115 -2.86884 0
M  V30 33339 H 3208.25 3.55667 -1.12051 0
M  V30 33340 N 3210.43 1.08146 1.1464 0
M  V30 33341 C 3211.36 0.730648 2.21774 0
M  V30 33342 C 3212.34 -0.285672 1.67684 0
M  V30 33343 O 3213.53 -0.156633 1.93567 0
M  V30 33344 C 3210.66 0.136303 3.47032 0
M  V30 33345 C 3209.61 1.08067 4.14132 0
M  V30 33346 C 3208.94 0.348679 5.33562 0
M  V30 33347 C 3210.24 2.41769 4.62974 0
M  V30 33348 H 3211.93 1.62637 2.51375 0
M  V30 33349 H 3209.48 0.783432 1.20824 0
M  V30 33350 H 3211.43 -0.121108 4.21226 0
M  V30 33351 H 3210.16 -0.794544 3.16788 0
M  V30 33352 H 3208.82 1.32314 3.4189 0
M  V30 33353 H 3208.46 -0.585887 4.99576 0
M  V30 33354 H 3208.16 0.978224 5.794 0
M  V30 33355 H 3209.69 0.0992582 6.10519 0
M  V30 33356 H 3211.1 2.21804 5.28655 0
M  V30 33357 H 3209.5 3.00392 5.19504 0
M  V30 33358 H 3210.57 3.03488 3.78184 0
M  V30 33359 N 3211.91 -1.31626 0.866732 0
M  V30 33360 C 3212.84 -2.27516 0.277368 0
M  V30 33361 C 3213.86 -1.52947 -0.557759 0
M  V30 33362 O 3215.05 -1.74402 -0.38028 0
M  V30 33363 C 3212.15 -3.33074 -0.625684 0
M  V30 33364 C 3211.32 -4.37045 0.176281 0
M  V30 33365 C 3210.38 -5.22115 -0.654405 0
M  V30 33366 O 3209.4 -5.69139 -0.0835961 0
M  V30 33367 N 3210.61 -5.46159 -1.96698 0
M  V30 33368 H 3213.37 -2.78729 1.10138 0
M  V30 33369 H 3210.93 -1.44614 0.727896 0
M  V30 33370 H 3212.92 -3.869 -1.18702 0
M  V30 33371 H 3211.49 -2.81929 -1.35037 0
M  V30 33372 H 3210.71 -3.83336 0.919066 0
M  V30 33373 H 3212 -5.03584 0.726682 0
M  V30 33374 H 3211.4 -5.09706 -2.45391 0
M  V30 33375 H 3209.96 -6.02933 -2.47618 0
M  V30 33376 N 3213.39 -0.62585 -1.4464 0
M  V30 33377 C 3214.8 -0.211207 -1.85501 0
M  V30 33378 C 3215.15 1.23618 -1.52358 0
M  V30 33379 O 3214.28 1.93986 -0.959085 0
M  V30 33380 C 3214.87 -0.376539 -3.36701 0
M  V30 33381 C 3213.43 -0.0164457 -3.76396 0
M  V30 33382 C 3212.58 -0.692415 -2.68516 0
M  V30 33383 H 3215.53 -0.831356 -1.35182 0
M  V30 33384 H 3215.55 0.38604 -3.78537 0
M  V30 33385 H 3215.06 -1.43006 -3.60792 0
M  V30 33386 H 3213.16 1.03554 -3.57921 0
M  V30 33387 H 3213.28 -0.422826 -4.77231 0
M  V30 33388 H 3211.64 -0.128236 -2.54377 0
M  V30 33389 H 3212.42 -1.74842 -2.95441 0
M  V30 33390 N 3214.87 1.53289 -0.36608 0
M  V30 33391 C 3215.83 2.24374 0.467865 0
M  V30 33392 C 3216.83 1.25178 1.00932 0
M  V30 33393 O 3218.02 1.49451 0.894989 0
M  V30 33394 C 3215.15 2.98087 1.65399 0
M  V30 33395 H 3216.35 2.99504 -0.154157 0
M  V30 33396 H 3213.9 1.55856 -0.117778 0
M  V30 33397 H 3214.63 2.27201 2.31409 0
M  V30 33398 H 3214.42 3.7087 1.2727 0
M  V30 33399 H 3215.91 3.52123 2.24497 0
M  V30 33400 N 3216.35 0.0952613 1.57312 0
M  V30 33401 C 3217.76 -0.433843 1.81589 0
M  V30 33402 C 3218.11 -1.68153 1.01088 0
M  V30 33403 O 3217.23 -2.15062 0.240309 0
M  V30 33404 C 3217.83 -0.793873 3.29368 0
M  V30 33405 C 3216.39 -1.26772 3.54409 0
M  V30 33406 C 3215.53 -0.264469 2.76036 0
M  V30 33407 H 3218.48 0.320702 1.55426 0
M  V30 33408 H 3218.51 -1.65339 3.427 0
M  V30 33409 H 3218.02 0.114403 3.87931 0
M  V30 33410 H 3216.12 -2.1937 3.01177 0
M  V30 33411 H 3216.23 -1.22944 4.63057 0
M  V30 33412 H 3214.6 -0.746649 2.4351 0
M  V30 33413 H 3215.38 0.636488 3.37348 0
M  V30 33414 N 3217.82 -1.56587 -0.178432 0
M  V30 33415 C 3219.23 -1.71341 -0.741569 0
M  V30 33416 C 3219.59 -0.704611 -1.83111 0
M  V30 33417 O 3218.71 0.135519 -2.15975 0
M  V30 33418 C 3219.31 -3.10658 -1.35192 0
M  V30 33419 C 3217.86 -3.27121 -1.86196 0
M  V30 33420 C 3217.01 -2.67293 -0.738208 0
M  V30 33421 H 3219.96 -1.58631 0.0468703 0
M  V30 33422 H 3219.98 -3.08914 -2.22155 0
M  V30 33423 H 3219.5 -3.84057 -0.558708 0
M  V30 33424 H 3217.6 -2.58666 -2.68184 0
M  V30 33425 H 3217.71 -4.34791 -2.01229 0
M  V30 33426 H 3216.07 -2.26914 -1.15682 0
M  V30 33427 H 3216.86 -3.43273 0.0430425 0
M  V30 33428 N 3219.3 0.446741 -1.51136 0
M  V30 33429 C 3220.23 1.55964 -1.67952 0
M  V30 33430 C 3221.25 1.52852 -0.560364 0
M  V30 33431 O 3222.44 1.57799 -0.834377 0
M  V30 33432 C 3219.54 2.94877 -1.67035 0
M  V30 33433 C 3218.71 3.22596 -2.95382 0
M  V30 33434 C 3217.77 4.41185 -2.8678 0
M  V30 33435 O 3216.79 4.40298 -3.6073 0
M  V30 33436 N 3218 5.44225 -2.01989 0
M  V30 33437 H 3220.76 1.41946 -2.63953 0
M  V30 33438 H 3218.32 0.635543 -1.48904 0
M  V30 33439 H 3220.31 3.72217 -1.58861 0
M  V30 33440 H 3218.88 3.0254 -0.786676 0
M  V30 33441 H 3218.1 2.33642 -3.17498 0
M  V30 33442 H 3219.39 3.37938 -3.80362 0
M  V30 33443 H 3218.79 5.47778 -1.41266 0
M  V30 33444 H 3217.35 6.20454 -1.997 0
M  V30 33445 N 3220.78 1.41123 0.701567 0
M  V30 33446 C 3221.71 1.45265 1.82812 0
M  V30 33447 C 3222.69 0.311969 1.67215 0
M  V30 33448 O 3223.88 0.522571 1.87037 0
M  V30 33449 C 3221.01 1.32825 3.20897 0
M  V30 33450 C 3219.96 2.44642 3.5119 0
M  V30 33451 C 3219.29 2.17271 4.88567 0
M  V30 33452 C 3220.59 3.86985 3.5077 0
M  V30 33453 H 3222.28 2.39547 1.79604 0
M  V30 33454 H 3219.83 1.15299 0.862672 0
M  V30 33455 H 3221.78 1.34336 3.99414 0
M  V30 33456 H 3220.5 0.350248 3.24717 0
M  V30 33457 H 3219.16 2.42404 2.7502 0
M  V30 33458 H 3218.81 1.17828 4.89005 0
M  V30 33459 H 3218.51 2.92195 5.098 0
M  V30 33460 H 3220.03 2.20488 5.69401 0
M  V30 33461 H 3221.45 3.90971 4.19302 0
M  V30 33462 H 3219.84 4.61543 3.83534 0
M  V30 33463 H 3220.91 4.15566 2.49865 0
M  V30 33464 N 3222.26 -0.935219 1.26852 0
M  V30 33465 C 3223.67 -1.49695 1.11572 0
M  V30 33466 C 3224.02 -1.93863 -0.301918 0
M  V30 33467 O 3223.14 -1.80475 -1.19405 0
M  V30 33468 C 3223.74 -2.72053 2.01923 0
M  V30 33469 C 3222.3 -3.24474 1.90771 0
M  V30 33470 C 3221.45 -1.97233 1.94921 0
M  V30 33471 H 3224.4 -0.750092 1.39855 0
M  V30 33472 H 3224.42 -3.46571 1.57063 0
M  V30 33473 H 3223.93 -2.39875 3.05093 0
M  V30 33474 H 3222.03 -3.61428 0.905585 0
M  V30 33475 H 3222.14 -3.91177 2.76618 0
M  V30 33476 H 3220.51 -2.13395 1.39049 0
M  V30 33477 H 3221.29 -1.67379 2.99732 0
M  V30 33478 N 3223.74 -1.08752 -1.14065 0
M  V30 33479 C 3224.96 -0.841072 -1.8958 0
M  V30 33480 C 3225.39 0.601404 -1.78227 0
M  V30 33481 O 3224.74 1.42179 -1.12493 0
M  V30 33482 C 3224.79 -1.27219 -3.37413 0
M  V30 33483 O 3223.9 -0.426318 -4.10191 0
M  V30 33484 H 3223.24 -0.305183 -0.589711 0
M  V30 33485 H 3225.77 -1.44986 -1.44361 0
M  V30 33486 H 3225.78 -1.25458 -3.88232 0
M  V30 33487 H 3224.45 -2.32274 -3.44995 0
M  V30 33488 H 3223.03 -0.50765 -3.69428 0
M  V30 33489 N 3225.21 1.31165 -0.873701 0
M  V30 33490 C 3226.63 1.78764 -0.538551 0
M  V30 33491 C 3226.98 1.71957 0.944735 0
M  V30 33492 O 3226.1 1.28957 1.73778 0
M  V30 33493 C 3226.7 3.24593 -0.970806 0
M  V30 33494 C 3225.26 3.70073 -0.687254 0
M  V30 33495 C 3224.4 2.51869 -1.16005 0
M  V30 33496 H 3227.35 1.18194 -1.05905 0
M  V30 33497 H 3227.37 3.79354 -0.295033 0
M  V30 33498 H 3226.89 3.29515 -2.0504 0
M  V30 33499 H 3224.99 3.70649 0.380816 0
M  V30 33500 H 3225.1 4.62046 -1.2669 0
M  V30 33501 H 3223.46 2.48015 -0.579707 0
M  V30 33502 H 3224.25 2.59535 -2.24715 0
M  V30 33503 N 3226.69 0.633512 1.44307 0
M  V30 33504 C 3227.66 -0.0603357 2.29121 0
M  V30 33505 C 3228.66 -0.769967 1.41167 0
M  V30 33506 O 3229.85 -0.614196 1.63013 0
M  V30 33507 C 3226.98 -1.09604 3.228 0
M  V30 33508 H 3228.17 0.685668 2.91957 0
M  V30 33509 H 3225.72 0.393764 1.51259 0
M  V30 33510 H 3226.46 -1.87194 2.64818 0
M  V30 33511 H 3226.24 -0.591093 3.87619 0
M  V30 33512 H 3227.73 -1.5812 3.86507 0
M  V30 33513 N 3228.17 -1.53093 0.374204 0
M  V30 33514 C 3229.08 -2.29722 -0.475894 0
M  V30 33515 C 3230.1 -1.36031 -1.08497 0
M  V30 33516 O 3231.27 -1.69093 -1.09405 0
M  V30 33517 C 3228.34 -3.07797 -1.59567 0
M  V30 33518 C 3227.4 -4.17171 -1.01325 0
M  V30 33519 C 3226.63 -4.91514 -2.07966 0
M  V30 33520 O 3226.85 -4.65798 -3.29223 0
M  V30 33521 O 3225.79 -5.77235 -1.7054 0
M  V30 33522 H 3229.61 -3.0334 0.147931 0
M  V30 33523 H 3227.2 -1.48758 0.138338 0
M  V30 33524 H 3229.08 -3.56524 -2.24652 0
M  V30 33525 H 3227.76 -2.37008 -2.20474 0
M  V30 33526 H 3226.66 -3.72676 -0.326067 0
M  V30 33527 H 3228 -4.90151 -0.448613 0
M  V30 33528 N 3229.65 -0.103603 -1.57259 0
M  V30 33529 C 3231.06 0.424207 -1.81817 0
M  V30 33530 C 3231.41 1.67615 -1.01979 0
M  V30 33531 O 3230.54 2.14931 -0.251711 0
M  V30 33532 C 3231.13 0.776395 -3.29784 0
M  V30 33533 C 3229.69 1.24891 -3.55076 0
M  V30 33534 C 3228.84 0.249827 -2.76172 0
M  V30 33535 H 3231.79 -0.32894 -1.55254 0
M  V30 33536 H 3231.81 1.6352 -3.43572 0
M  V30 33537 H 3231.32 -0.134974 -3.87865 0
M  V30 33538 H 3229.42 2.1777 -3.02336 0
M  V30 33539 H 3229.53 1.20487 -4.63702 0
M  V30 33540 H 3227.9 0.733724 -2.43903 0
M  V30 33541 H 3228.68 -0.65437 -3.37006 0
M  V30 33542 N 3231.13 1.56679 0.170126 0
M  V30 33543 C 3232.54 1.50824 0.521939 0
M  V30 33544 C 3232.74 0.80807 1.84587 0
M  V30 33545 O 3231.8 0.368935 2.4979 0
M  V30 33546 C 3233.11 2.9556 0.553596 0
M  V30 33547 C 3234.66 3.06372 0.640715 0
M  V30 33548 C 3235.13 4.52569 0.703253 0
M  V30 33549 N 3236.63 4.56821 0.76611 0
M  V30 33550 C 3237.36 5.67286 0.835092 0
M  V30 33551 N 3236.86 6.87381 0.864836 0
M  V30 33552 N 3238.65 5.5526 0.874204 0
M  V30 33553 H 3230.8 2.00604 -0.697988 0
M  V30 33554 H 3233.06 0.913947 -0.251803 0
M  V30 33555 H 3232.77 3.49949 -0.350559 0
M  V30 33556 H 3232.64 3.5027 1.39967 0
M  V30 33557 H 3235.03 2.52017 1.5353 0
M  V30 33558 H 3235.11 2.54745 -0.232053 0
M  V30 33559 H 3234.76 5.07555 -0.187075 0
M  V30 33560 H 3234.69 5.01953 1.59218 0
M  V30 33561 H 3237.18 3.70355 0.751359 0
M  V30 33562 H 3237.49 7.6732 0.91868 0
M  V30 33563 H 3235.83 6.89989 0.833094 0
M  V30 33564 H 3239.03 4.60355 0.847976 0
M  V30 33565 H 3239.2 6.41371 0.924502 0
M  V30 33566 N 3232.6 -0.43872 1.5137 0
M  V30 33567 C 3233.83 -1.21534 1.6806 0
M  V30 33568 C 3234.25 -1.84287 0.37682 0
M  V30 33569 O 3233.61 -1.68747 -0.662881 0
M  V30 33570 C 3233.66 -2.27612 2.79688 0
M  V30 33571 O 3232.76 -3.33062 2.43195 0
M  V30 33572 H 3232.11 -0.356134 0.560415 0
M  V30 33573 H 3234.64 -0.518276 1.97927 0
M  V30 33574 H 3234.65 -2.72418 3.03731 0
M  V30 33575 H 3233.32 -1.81315 3.74296 0
M  V30 33576 H 3231.9 -2.93742 2.29718 0
M  V30 33577 N 3234.08 -1.41493 -0.694073 0
M  V30 33578 C 3235.05 -1.43182 -1.78974 0
M  V30 33579 C 3236.05 -0.322218 -1.57539 0
M  V30 33580 O 3237.24 -0.582167 -1.64184 0
M  V30 33581 C 3234.37 -1.24466 -3.17366 0
M  V30 33582 H 3235.56 -2.40719 -1.78869 0
M  V30 33583 H 3233.11 -1.27658 -0.901845 0
M  V30 33584 H 3233.85 -0.277748 -3.23108 0
M  V30 33585 H 3233.63 -2.04862 -3.34326 0
M  V30 33586 H 3235.12 -1.28486 -3.97343 0
M  V30 33587 N 3235.56 0.928479 -1.27346 0
M  V30 33588 C 3236.97 1.49101 -1.12364 0
M  V30 33589 C 3237.32 1.9402 0.291632 0
M  V30 33590 O 3236.45 1.81106 1.18446 0
M  V30 33591 C 3237.04 2.70978 -2.03363 0
M  V30 33592 C 3235.6 3.23458 -1.92489 0
M  V30 33593 C 3234.75 1.96197 -1.95965 0
M  V30 33594 H 3237.7 0.742665 -1.4025 0
M  V30 33595 H 3237.72 3.45733 -1.58898 0
M  V30 33596 H 3237.23 2.38254 -3.0636 0
M  V30 33597 H 3235.33 3.60942 -0.924739 0
M  V30 33598 H 3235.45 3.89704 -2.78688 0
M  V30 33599 H 3233.81 2.12654 -1.40179 0
M  V30 33600 H 3234.59 1.65787 -3.00615 0
M  V30 33601 N 3237.04 1.09355 1.13486 0
M  V30 33602 C 3238.28 0.838802 1.86396 0
M  V30 33603 C 3238.64 -0.624227 1.81569 0
M  V30 33604 O 3239.84 -0.994879 2.49711 0
M  V30 33605 C 3238.11 1.35834 3.30581 0
M  V30 33606 S 3239.67 1.23735 4.20993 0
M  V30 33607 H 3236.49 0.303398 0.643017 0
M  V30 33608 H 3239.09 1.39678 1.36785 0
M  V30 33609 H 3237.8 2.4174 3.31648 0
M  V30 33610 H 3237.33 0.796454 3.85253 0
M  V30 33611 H 3239.34 0.187832 4.95844 0
M  V30 33612 N 3238.52 -1.307 0.880644 0
M  V30 33613 C 3239.77 -1.95921 0.495928 0
M  V30 33614 C 3240.09 -1.69891 -0.957184 0
M  V30 33615 O 3239.36 -1.02013 -1.67243 0
M  V30 33616 H 3237.94 -0.724888 0.180406 0
M  V30 33617 H 3240.6 -1.59311 1.12277 0
M  V30 33618 H 3239.69 -3.04986 0.662562 0
M  V30 33619 N 3240 -0.641156 -1.43969 0
M  V30 33620 C 3241.22 -0.155354 -2.06817 0
M  V30 33621 C 3241.65 1.16516 -1.47667 0
M  V30 33622 O 3241 1.71706 -0.58195 0
M  V30 33623 C 3241.05 -0.064817 -3.60542 0
M  V30 33624 O 3240.16 0.976377 -4.00675 0
M  V30 33625 H 3239.5 -0.089352 -0.657961 0
M  V30 33626 H 3242.03 -0.880672 -1.84676 0
M  V30 33627 H 3242.04 0.122481 -4.07816 0
M  V30 33628 H 3240.71 -1.02886 -4.02973 0
M  V30 33629 H 3239.29 0.762841 -3.65014 0
M  V30 33630 N 3241.47 1.52892 -0.382318 0
M  V30 33631 C 3242.4 2.29166 0.447789 0
M  V30 33632 C 3243.38 1.32269 1.06953 0
M  V30 33633 O 3244.57 1.61156 1.08363 0
M  V30 33634 C 3241.7 3.09332 1.57896 0
M  V30 33635 C 3240.65 4.14055 1.08362 0
M  V30 33636 C 3239.98 4.82403 2.30633 0
M  V30 33637 C 3241.28 5.22065 0.156499 0
M  V30 33638 H 3242.97 2.98805 -0.188593 0
M  V30 33639 H 3240.52 1.43705 -0.0921432 0
M  V30 33640 H 3242.47 3.61445 2.16645 0
M  V30 33641 H 3241.2 2.37413 2.24283 0
M  V30 33642 H 3239.86 3.62912 0.518708 0
M  V30 33643 H 3239.5 4.07039 2.95513 0
M  V30 33644 H 3239.2 5.53181 1.98154 0
M  V30 33645 H 3240.73 5.37318 2.90037 0
M  V30 33646 H 3242.14 5.69581 0.651965 0
M  V30 33647 H 3240.54 6.00049 -0.0782033 0
M  V30 33648 H 3241.61 4.78312 -0.796613 0
M  V30 33649 N 3242.95 0.111941 1.57202 0
M  V30 33650 C 3243.91 -0.826496 2.1378 0
M  V30 33651 C 3244.91 -1.19944 1.07099 0
M  V30 33652 O 3246.1 -1.1261 1.32908 0
M  V30 33653 C 3243.24 -2.11671 2.67224 0
M  V30 33654 H 3244.43 -0.334923 2.98024 0
M  V30 33655 H 3241.98 -0.137229 1.55696 0
M  V30 33656 H 3242.72 -2.65275 1.86547 0
M  V30 33657 H 3242.5 -1.85884 3.45238 0
M  V30 33658 H 3243.99 -2.78768 3.10931 0
M  V30 33659 N 3244.43 -1.56767 -0.161814 0
M  V30 33660 C 3245.68 -1.82529 -0.876892 0
M  V30 33661 C 3246 -0.690524 -1.8183 0
M  V30 33662 O 3245.26 0.321556 -1.9304 0
M  V30 33663 C 3245.56 -3.14525 -1.69731 0
M  V30 33664 C 3245.22 -4.41745 -0.903997 0
M  V30 33665 C 3243.89 -4.76298 -0.685084 0
M  V30 33666 C 3246.24 -5.20036 -0.34819 0
M  V30 33667 C 3243.57 -5.86614 0.100583 0
M  V30 33668 C 3245.92 -6.31175 0.424438 0
M  V30 33669 C 3244.58 -6.64288 0.654065 0
M  V30 33670 H 3243.85 -0.667921 -0.320878 0
M  V30 33671 H 3246.5 -1.90978 -0.141304 0
M  V30 33672 H 3244.8 -3.01461 -2.50257 0
M  V30 33673 H 3246.5 -3.3167 -2.2538 0
M  V30 33674 H 3243.09 -4.14648 -1.08467 0
M  V30 33675 H 3247.28 -4.93728 -0.504634 0
M  V30 33676 H 3242.53 -6.10721 0.288136 0
M  V30 33677 H 3246.71 -6.9104 0.862325 0
M  V30 33678 H 3244.33 -7.49606 1.26473 0
M  V30 33679 N 3245.91 0.430686 -1.51601 0
M  V30 33680 C 3247.13 1.20642 -1.68702 0
M  V30 33681 C 3247.56 1.84085 -0.386587 0
M  V30 33682 O 3246.92 1.69096 0.653923 0
M  V30 33683 C 3246.96 2.26125 -2.80891 0
M  V30 33684 O 3246.07 3.31767 -2.44957 0
M  V30 33685 H 3245.41 0.353157 -0.562295 0
M  V30 33686 H 3247.94 0.507772 -1.98199 0
M  V30 33687 H 3247.95 2.70803 -3.05172 0
M  V30 33688 H 3246.62 1.79327 -3.75253 0
M  V30 33689 H 3245.2 2.92519 -2.31273 0
M  V30 33690 N 3247.39 1.4186 0.686559 0
M  V30 33691 C 3248.63 1.4142 1.44377 0
M  V30 33692 C 3248.95 0.0274038 1.94981 0
M  V30 33693 O 3248.22 -0.932218 1.72298 0
M  V30 33694 H 3246.8 0.520578 0.535731 0
M  V30 33695 H 3249.47 1.77178 0.812025 0
M  V30 33696 H 3248.56 2.10688 2.30254 0
M  V30 33697 N 3248.86 -0.921712 1.27837 0
M  V30 33698 C 3250.14 -1.64875 1.05241 0
M  V30 33699 C 3250.52 -2.07063 -0.410884 0
M  V30 33700 O 3249.87 -1.80948 -1.39535 0
M  V30 33701 C 3250.08 -2.84628 2.0196 0
M  V30 33702 C 3251.43 -3.55833 2.31664 0
M  V30 33703 O 3252.45 -2.94765 1.99981 0
M  V30 33704 O 3251.31 -4.65873 2.857 0
M  V30 33705 H 3248.4 -0.722923 0.401635 0
M  V30 33706 H 3250.95 -0.97172 1.39125 0
M  V30 33707 H 3249.72 -2.50489 3.00618 0
M  V30 33708 H 3249.34 -3.60049 1.68673 0
M  V30 33709 N 3250.34 -1.09956 -1.12905 0
M  V30 33710 C 3251.76 -0.83035 -1.36299 0
M  V30 33711 C 3251.96 0.55266 -1.93773 0
M  V30 33712 O 3251.01 1.30649 -2.16072 0
M  V30 33713 C 3252.33 -1.92602 -2.30922 0
M  V30 33714 C 3253.87 -1.95389 -2.44524 0
M  V30 33715 C 3254.35 -3.04116 -3.42458 0
M  V30 33716 N 3255.84 -3.0339 -3.50012 0
M  V30 33717 C 3256.58 -3.8416 -4.25686 0
M  V30 33718 N 3256.07 -4.74852 -5.04468 0
M  V30 33719 N 3257.86 -3.72398 -4.21042 0
M  V30 33720 H 3250.02 -1.9911 -0.739536 0
M  V30 33721 H 3252.28 -0.864977 -0.387967 0
M  V30 33722 H 3251.98 -2.92119 -1.95856 0
M  V30 33723 H 3251.86 -1.80894 -3.30994 0
M  V30 33724 H 3254.25 -0.965086 -2.78873 0
M  V30 33725 H 3254.33 -2.11174 -1.44357 0
M  V30 33726 H 3253.97 -4.03213 -3.0884 0
M  V30 33727 H 3253.9 -2.85573 -4.42443 0
M  V30 33728 H 3256.39 -2.3767 -2.93805 0
M  V30 33729 H 3256.7 -5.33051 -5.59532 0
M  V30 33730 H 3255.05 -4.78884 -5.03681 0
M  V30 33731 H 3258.24 -3.00901 -3.58575 0
M  V30 33732 H 3258.41 -4.35581 -4.79764 0
M  V30 33733 N 3251.82 1.30231 -0.887563 0
M  V30 33734 C 3252.78 2.26337 -0.361135 0
M  V30 33735 C 3253.78 1.52899 0.497844 0
M  V30 33736 O 3254.97 1.71516 0.30463 0
M  V30 33737 C 3252.1 3.37431 0.485076 0
M  V30 33738 H 3253.3 2.74416 -1.20978 0
M  V30 33739 H 3250.85 1.41464 -0.664644 0
M  V30 33740 H 3251.59 2.94672 1.3542 0
M  V30 33741 H 3251.37 3.91884 -0.130242 0
M  V30 33742 H 3252.86 4.0896 0.845097 0
M  V30 33743 N 3253.3 0.648782 1.43627 0
M  V30 33744 C 3254.23 -0.0320375 2.33478 0
M  V30 33745 C 3255.21 -0.816579 1.49218 0
M  V30 33746 O 3256.39 -0.778943 1.77894 0
M  V30 33747 C 3253.52 -1.00216 3.32527 0
M  V30 33748 C 3252.48 -0.328044 4.26741 0
M  V30 33749 C 3251.8 -1.40931 5.15793 0
M  V30 33750 C 3253.1 0.776792 5.16491 0
M  V30 33751 H 3254.8 0.718308 2.90656 0
M  V30 33752 H 3252.34 0.346876 1.3976 0
M  V30 33753 H 3254.3 -1.48733 3.9428 0
M  V30 33754 H 3253.02 -1.78362 2.73596 0
M  V30 33755 H 3251.68 0.136633 3.66345 0
M  V30 33756 H 3251.33 -2.18208 4.53204 0
M  V30 33757 H 3251.03 -0.963529 5.79646 0
M  V30 33758 H 3252.55 -1.89592 5.8042 0
M  V30 33759 H 3253.97 0.373979 5.72079 0
M  V30 33760 H 3252.36 1.14677 5.89041 0
M  V30 33761 H 3253.43 1.63663 4.56446 0
M  V30 33762 N 3254.78 -1.52688 0.390421 0
M  V30 33763 C 3255.74 -2.2509 -0.43211 0
M  V30 33764 C 3256.74 -1.26768 -0.989273 0
M  V30 33765 O 3257.93 -1.50856 -0.871099 0
M  V30 33766 C 3255.06 -3.00681 -1.60636 0
M  V30 33767 H 3256.25 -2.9922 0.201786 0
M  V30 33768 H 3253.81 -1.55649 0.142559 0
M  V30 33769 H 3254.54 -2.30854 -2.27765 0
M  V30 33770 H 3254.33 -3.72848 -1.21354 0
M  V30 33771 H 3255.82 -3.5565 -2.18867 0
M  V30 33772 N 3256.25 -0.120276 -1.5714 0
M  V30 33773 C 3257.18 0.826074 -2.18399 0
M  V30 33774 C 3258.17 1.27636 -1.12441 0
M  V30 33775 O 3259.35 1.33874 -1.40682 0
M  V30 33776 C 3256.48 2.07575 -2.78442 0
M  V30 33777 C 3255.43 1.76321 -3.89994 0
M  V30 33778 C 3254.76 3.08329 -4.3685 0
M  V30 33779 C 3256.06 1.03053 -5.12033 0
M  V30 33780 H 3257.75 0.315604 -2.97732 0
M  V30 33781 H 3255.3 0.150361 -1.43213 0
M  V30 33782 H 3257.25 2.74238 -3.19956 0
M  V30 33783 H 3255.98 2.60949 -1.964 0
M  V30 33784 H 3254.64 1.12047 -3.49057 0
M  V30 33785 H 3254.28 3.59639 -3.51665 0
M  V30 33786 H 3253.98 2.8819 -5.12075 0
M  V30 33787 H 3255.51 3.76107 -4.81015 0
M  V30 33788 H 3256.92 1.59871 -5.50558 0
M  V30 33789 H 3255.32 0.930042 -5.92849 0
M  V30 33790 H 3256.39 0.0174968 -4.84897 0
M  V30 33791 N 3257.73 1.56851 0.153498 0
M  V30 33792 C 3258.7 1.96875 1.17358 0
M  V30 33793 C 3259.7 0.85448 1.36218 0
M  V30 33794 O 3260.89 1.12122 1.3332 0
M  V30 33795 C 3258.02 2.27905 2.53519 0
M  V30 33796 H 3259.21 2.88175 0.830381 0
M  V30 33797 H 3256.76 1.51184 0.396606 0
M  V30 33798 H 3257.5 1.39376 2.92822 0
M  V30 33799 H 3257.28 3.09141 2.41193 0
M  V30 33800 H 3258.77 2.59731 3.27001 0
M  V30 33801 N 3259.21 -0.42264 1.51827 0
M  V30 33802 C 3260.62 -1.00198 1.57535 0
M  V30 33803 C 3260.97 -1.91918 0.407656 0
M  V30 33804 O 3260.1 -2.11151 -0.473726 0
M  V30 33805 C 3260.69 -1.82398 2.85511 0
M  V30 33806 C 3259.25 -2.35357 2.93741 0
M  V30 33807 C 3258.4 -1.14967 2.52345 0
M  V30 33808 H 3261.35 -0.203362 1.57392 0
M  V30 33809 H 3261.37 -2.68002 2.70102 0
M  V30 33810 H 3260.88 -1.15616 3.70479 0
M  V30 33811 H 3258.98 -3.0555 2.13237 0
M  V30 33812 H 3259.1 -2.67148 3.97705 0
M  V30 33813 H 3257.46 -1.49951 2.0588 0
M  V30 33814 H 3258.24 -0.497726 3.39673 0
M  V30 33815 N 3260.69 -1.42222 -0.679027 0
M  V30 33816 C 3261.94 -1.42184 -1.43625 0
M  V30 33817 C 3262.26 -0.0377437 -1.94963 0
M  V30 33818 O 3261.53 0.923067 -1.7279 0
M  V30 33819 H 3260.11 -0.523412 -0.532963 0
M  V30 33820 H 3262.77 -1.77606 -0.802618 0
M  V30 33821 H 3261.87 -2.11906 -2.29134 0
M  V30 33822 N 3262.17 0.91492 -1.28324 0
M  V30 33823 C 3263.58 1.47901 -1.13939 0
M  V30 33824 C 3263.93 1.94319 0.271038 0
M  V30 33825 O 3263.05 1.82352 1.16519 0
M  V30 33826 C 3263.65 2.68806 -2.06225 0
M  V30 33827 C 3262.21 3.21398 -1.95909 0
M  V30 33828 C 3261.35 1.94107 -1.98035 0
M  V30 33829 H 3264.31 0.727747 -1.4103 0
M  V30 33830 H 3264.33 3.44029 -1.62556 0
M  V30 33831 H 3263.84 2.34991 -3.0887 0
M  V30 33832 H 3261.94 3.59941 -0.96297 0
M  V30 33833 H 3262.05 3.86727 -2.82806 0
M  V30 33834 H 3260.42 2.11156 -1.42427 0
M  V30 33835 H 3261.2 1.6259 -3.02357 0
M  V30 33836 N 3263.64 1.10553 1.1232 0
M  V30 33837 C 3265.06 0.866229 1.65389 0
M  V30 33838 C 3265.41 -0.603251 1.86696 0
M  V30 33839 O 3264.53 -1.4632 1.59435 0
M  V30 33840 C 3265.13 1.56592 3.0044 0
M  V30 33841 C 3263.69 1.37329 3.50454 0
M  V30 33842 C 3262.83 1.61453 2.25451 0
M  V30 33843 H 3265.78 1.26307 0.960844 0
M  V30 33844 H 3265.8 1.00563 3.6697 0
M  V30 33845 H 3265.32 2.6354 2.84901 0
M  V30 33846 H 3263.42 0.325496 3.71176 0
M  V30 33847 H 3263.53 2.11609 4.29836 0
M  V30 33848 H 3261.89 1.03733 2.32619 0
M  V30 33849 H 3262.68 2.69655 2.12464 0
M  V30 33850 N 3265.12 -1.29758 0.894457 0
M  V30 33851 C 3266.35 -1.99918 0.532951 0
M  V30 33852 C 3266.77 -1.66985 -0.880993 0
M  V30 33853 O 3266.12 -0.912063 -1.58075 0
M  V30 33854 C 3266.17 -3.54471 0.709422 0
M  V30 33855 O 3265.89 -3.86235 2.06771 0
M  V30 33856 C 3267.4 -4.41899 0.352167 0
M  V30 33857 H 3264.62 -0.638908 0.20503 0
M  V30 33858 H 3267.16 -1.65419 1.20236 0
M  V30 33859 H 3265.31 -3.87302 0.0872582 0
M  V30 33860 H 3265.73 -4.8092 2.09324 0
M  V30 33861 H 3267.2 -5.49483 0.526502 0
M  V30 33862 H 3267.68 -4.33416 -0.710451 0
M  V30 33863 H 3268.29 -4.1453 0.951052 0
M  V30 33864 N 3266.6 -0.65639 -1.4328 0
M  V30 33865 C 3268.02 -0.32424 -1.56272 0
M  V30 33866 C 3268.22 1.17147 -1.63948 0
M  V30 33867 O 3267.27 1.9564 -1.59628 0
M  V30 33868 C 3268.59 -1.03838 -2.82202 0
M  V30 33869 C 3270.13 -1.01894 -2.9595 0
M  V30 33870 C 3270.61 -1.71404 -4.24717 0
M  V30 33871 N 3272.1 -1.68183 -4.31588 0
M  V30 33872 C 3272.83 -2.18839 -5.29997 0
M  V30 33873 N 3272.33 -2.77796 -6.34666 0
M  V30 33874 N 3274.12 -2.0932 -5.21672 0
M  V30 33875 H 3266.27 -1.62697 -1.36541 0
M  V30 33876 H 3268.54 -0.684386 -0.655987 0
M  V30 33877 H 3268.24 -2.09351 -2.82604 0
M  V30 33878 H 3268.12 -0.591943 -3.72526 0
M  V30 33879 H 3270.5 0.0277913 -2.95087 0
M  V30 33880 H 3270.59 -1.5041 -2.06907 0
M  V30 33881 H 3270.23 -2.76036 -4.26341 0
M  V30 33882 H 3270.16 -1.20351 -5.12663 0
M  V30 33883 H 3272.65 -1.25163 -3.56571 0
M  V30 33884 H 3272.96 -3.14117 -7.06081 0
M  V30 33885 H 3271.31 -2.81858 -6.3528 0
M  V30 33886 H 3274.5 -1.62963 -4.38818 0
M  V30 33887 H 3274.67 -2.49106 -5.98206 0
M  V30 33888 N 3268.08 1.52478 -0.398513 0
M  V30 33889 C 3269.31 2.06111 0.180521 0
M  V30 33890 C 3269.72 1.26948 1.39749 0
M  V30 33891 O 3269.08 0.318529 1.79699 0
M  V30 33892 C 3269.13 3.57421 0.541511 0
M  V30 33893 O 3268.85 4.33588 -0.627119 0
M  V30 33894 C 3270.35 4.27433 1.17542 0
M  V30 33895 H 3267.57 0.670532 0.0250637 0
M  V30 33896 H 3270.12 1.965 -0.566402 0
M  V30 33897 H 3268.27 3.67075 1.23833 0
M  V30 33898 H 3268.69 5.23471 -0.328325 0
M  V30 33899 H 3270.16 5.34516 1.3783 0
M  V30 33900 H 3270.64 3.83232 2.14546 0
M  V30 33901 H 3271.24 4.2212 0.519105 0
M  V30 33902 N 3269.56 0.128608 1.57074 0
M  V30 33903 C 3270.97 -0.227933 1.57964 0
M  V30 33904 C 3271.17 -1.66021 1.14189 0
M  V30 33905 O 3270.23 -2.3834 0.833697 0
M  V30 33906 C 3271.54 0.0141176 3.00697 0
M  V30 33907 C 3273.09 -0.0510326 3.12958 0
M  V30 33908 C 3273.57 0.163448 4.57708 0
M  V30 33909 N 3275.06 0.109745 4.6307 0
M  V30 33910 C 3275.79 0.250467 5.72853 0
M  V30 33911 N 3275.29 0.447894 6.91351 0
M  V30 33912 N 3277.08 0.189363 5.61781 0
M  V30 33913 H 3269.23 1.06402 1.83827 0
M  V30 33914 H 3271.49 0.419754 0.850006 0
M  V30 33915 H 3271.2 1.00467 3.37045 0
M  V30 33916 H 3271.07 -0.713506 3.7039 0
M  V30 33917 H 3273.46 -1.03211 2.76462 0
M  V30 33918 H 3273.54 0.708626 2.45789 0
M  V30 33919 H 3273.19 1.14155 4.94905 0
M  V30 33920 H 3273.12 -0.616313 5.22981 0
M  V30 33921 H 3275.61 -0.0389422 3.7788 0
M  V30 33922 H 3275.92 0.545875 7.7087 0
M  V30 33923 H 3274.27 0.483988 6.93313 0
M  V30 33924 H 3277.46 0.0360196 4.68086 0
M  V30 33925 H 3277.63 0.302473 6.47294 0
M  V30 33926 N 3271.04 -1.5693 -0.145178 0
M  V30 33927 C 3271.99 -1.94821 -1.18443 0
M  V30 33928 C 3272.97 -0.819708 -1.38454 0
M  V30 33929 O 3274.16 -1.08318 -1.39986 0
M  V30 33930 C 3271.29 -2.3339 -2.51762 0
M  V30 33931 C 3270.38 -3.52815 -2.35335 0
M  V30 33932 N 3270.77 -4.69295 -1.88667 0
M  V30 33933 C 3269.07 -3.57935 -2.6608 0
M  V30 33934 C 3269.77 -5.51388 -1.85328 0
M  V30 33935 N 3268.74 -4.93147 -2.28708 0
M  V30 33936 H 3272.54 -2.82353 -0.815736 0
M  V30 33937 H 3270.06 -1.58512 -0.353214 0
M  V30 33938 H 3272.06 -2.58741 -3.26892 0
M  V30 33939 H 3270.72 -1.47211 -2.89412 0
M  V30 33940 H 3271.73 -4.93016 -1.58606 0
M  V30 33941 H 3268.4 -2.823 -3.07592 0
M  V30 33942 H 3269.79 -6.54776 -1.50723 0
M  V30 33943 N 3272.51 0.414582 -1.52049 0
M  V30 33944 C 3273.79 1.17468 -1.56399 0
M  V30 33945 C 3274.17 2.08315 -0.341746 0
M  V30 33946 O 3273.52 2.18402 0.671762 0
M  V30 33947 C 3273.73 1.95673 -2.88986 0
M  V30 33948 C 3275.08 2.51929 -3.41785 0
M  V30 33949 O 3276.1 2.05859 -2.90689 0
M  V30 33950 O 3274.96 3.36014 -4.30995 0
M  V30 33951 H 3272.05 0.536045 -0.62975 0
M  V30 33952 H 3274.6 0.421805 -1.64374 0
M  V30 33953 H 3273.37 1.29088 -3.69394 0
M  V30 33954 H 3272.99 2.77978 -2.84278 0
M  V30 33955 N 3273.99 1.4258 0.671475 0
M  V30 33956 C 3274.9 1.48727 1.81432 0
M  V30 33957 C 3275.92 0.375745 1.69895 0
M  V30 33958 O 3277.09 0.627149 1.91387 0
M  V30 33959 C 3274.16 1.39043 3.17597 0
M  V30 33960 C 3273.22 2.60715 3.41066 0
M  V30 33961 C 3272.45 2.51484 4.70735 0
M  V30 33962 O 3272.68 1.55253 5.48865 0
M  V30 33963 O 3271.61 3.41674 4.95522 0
M  V30 33964 H 3275.44 2.45195 1.79202 0
M  V30 33965 H 3273.02 1.2438 0.827645 0
M  V30 33966 H 3274.9 1.36017 3.98845 0
M  V30 33967 H 3273.58 0.457022 3.20457 0
M  V30 33968 H 3272.48 2.69315 2.59654 0
M  V30 33969 H 3273.82 3.52966 3.43039 0
M  V30 33970 N 3275.47 -0.908102 1.28807 0
M  V30 33971 C 3276.7 -1.68898 1.18983 0
M  V30 33972 C 3277.11 -1.87497 -0.253301 0
M  V30 33973 O 3276.45 -1.40586 -1.18242 0
M  V30 33974 C 3276.51 -3.09867 1.82271 0
M  V30 33975 C 3276.18 -3.14532 3.3154 0
M  V30 33976 C 3277.17 -2.95306 4.27891 0
M  V30 33977 C 3274.86 -3.36866 3.72595 0
M  V30 33978 C 3276.85 -2.98333 5.63273 0
M  V30 33979 C 3274.54 -3.39525 5.08101 0
M  V30 33980 C 3275.54 -3.2028 6.03249 0
M  V30 33981 O 3275.23 -3.22711 7.36283 0
M  V30 33982 H 3274.96 -0.534566 0.413781 0
M  V30 33983 H 3277.51 -1.14461 1.70552 0
M  V30 33984 H 3275.74 -3.6587 1.25204 0
M  V30 33985 H 3277.43 -3.70005 1.66886 0
M  V30 33986 H 3278.2 -2.77872 3.97507 0
M  V30 33987 H 3274.08 -3.50889 2.98995 0
M  V30 33988 H 3277.62 -2.8323 6.37516 0
M  V30 33989 H 3273.52 -3.56488 5.38133 0
M  V30 33990 H 3274.28 -3.39035 7.44982 0
M  V30 33991 N 3276.95 -1.11147 -1.11732 0
M  V30 33992 C 3277.88 -0.78919 -2.19759 0
M  V30 33993 C 3278.86 0.241113 -1.68382 0
M  V30 33994 O 3280.04 0.105257 -1.93915 0
M  V30 33995 C 3277.17 -0.228265 -3.46549 0
M  V30 33996 C 3276.13 -1.19009 -4.11121 0
M  V30 33997 C 3275.45 -0.490021 -5.3245 0
M  V30 33998 C 3276.75 -2.53959 -4.56401 0
M  V30 33999 H 3278.45 -1.69245 -2.46975 0
M  V30 34000 H 3275.99 -0.815191 -1.18704 0
M  V30 34001 H 3277.95 0.00938501 -4.21399 0
M  V30 34002 H 3276.67 0.710274 -3.18783 0
M  V30 34003 H 3275.33 -1.41332 -3.38261 0
M  V30 34004 H 3274.98 0.453227 -5.00954 0
M  V30 34005 H 3274.68 -1.1315 -5.76603 0
M  V30 34006 H 3276.2 -0.261092 -6.10042 0
M  V30 34007 H 3277.62 -2.35742 -5.22588 0
M  V30 34008 H 3276.01 -3.1406 -5.11357 0
M  V30 34009 H 3277.08 -3.13408 -3.70004 0
M  V30 34010 N 3278.43 1.29282 -0.901326 0
M  V30 34011 C 3279.34 2.3142 -0.384941 0
M  V30 34012 C 3280.35 1.66013 0.521134 0
M  V30 34013 O 3281.53 1.97176 0.410321 0
M  V30 34014 C 3278.59 3.44636 0.377744 0
M  V30 34015 C 3277.65 4.25631 -0.560049 0
M  V30 34016 C 3276.89 5.33441 0.166332 0
M  V30 34017 O 3277.11 5.53204 1.39002 0
M  V30 34018 O 3276.04 5.99886 -0.491981 0
M  V30 34019 H 3279.87 2.77573 -1.23235 0
M  V30 34020 H 3277.45 1.33749 -0.665706 0
M  V30 34021 H 3279.34 4.13562 0.808969 0
M  V30 34022 H 3278.01 3.00588 1.20118 0
M  V30 34023 H 3276.92 3.59341 -1.04042 0
M  V30 34024 H 3278.25 4.73326 -1.34995 0
M  V30 34025 N 3279.9 0.663979 1.4293 0
M  V30 34026 C 3281.15 0.182043 2.01981 0
M  V30 34027 C 3281.48 -1.20461 1.52325 0
M  V30 34028 O 3280.76 -1.80648 0.720866 0
M  V30 34029 C 3281.04 0.204734 3.59518 0
M  V30 34030 C 3280.89 1.62607 4.19379 0
M  V30 34031 C 3282.21 -0.453003 4.37762 0
M  V30 34032 H 3279.33 0.0676244 0.733891 0
M  V30 34033 H 3281.97 0.84671 1.70091 0
M  V30 34034 H 3280.12 -0.361227 3.86817 0
M  V30 34035 H 3281.8 2.24344 4.03072 0
M  V30 34036 H 3280.04 2.17008 3.7562 0
M  V30 34037 H 3280.71 1.59371 5.28493 0
M  V30 34038 H 3283.19 0.0286505 4.1609 0
M  V30 34039 H 3282.06 -0.406442 5.47393 0
M  V30 34040 H 3282.32 -1.52888 4.14823 0
M  V30 34041 N 3281.38 -1.52265 0.406593 0
M  V30 34042 C 3282.61 -2.06204 -0.169588 0
M  V30 34043 C 3283.02 -1.27687 -1.39074 0
M  V30 34044 O 3282.38 -0.328054 -1.79527 0
M  V30 34045 C 3282.43 -3.57703 -0.522548 0
M  V30 34046 O 3282.15 -4.3325 0.650105 0
M  V30 34047 C 3283.65 -4.2805 -1.15273 0
M  V30 34048 H 3280.87 -0.670655 -0.0215073 0
M  V30 34049 H 3283.42 -1.96197 0.576815 0
M  V30 34050 H 3281.57 -3.67727 -1.21884 0
M  V30 34051 H 3281.99 -5.2329 0.356081 0
M  V30 34052 H 3283.46 -5.35239 -1.34993 0
M  V30 34053 H 3283.94 -3.84364 -2.12511 0
M  V30 34054 H 3284.54 -4.22389 -0.496712 0
M  V30 34055 N 3282.86 -0.136936 -1.57004 0
M  V30 34056 C 3283.81 0.806569 -2.16248 0
M  V30 34057 C 3284.78 1.25116 -1.09248 0
M  V30 34058 O 3285.96 1.32549 -1.37242 0
M  V30 34059 C 3283.1 2.04428 -2.78034 0
M  V30 34060 C 3282.22 1.64642 -3.99396 0
M  V30 34061 C 3281.35 2.83516 -4.49213 0
M  V30 34062 C 3280.39 2.40054 -5.63063 0
M  V30 34063 N 3279.53 3.51903 -6.07543 0
M  V30 34064 H 3284.37 0.294544 -2.96541 0
M  V30 34065 H 3281.9 0.133679 -1.46491 0
M  V30 34066 H 3283.86 2.76973 -3.11997 0
M  V30 34067 H 3282.49 2.53059 -2.00402 0
M  V30 34068 H 3281.54 0.819012 -3.71479 0
M  V30 34069 H 3282.86 1.28715 -4.81907 0
M  V30 34070 H 3282.01 3.64263 -4.85178 0
M  V30 34071 H 3280.75 3.22681 -3.65689 0
M  V30 34072 H 3279.75 1.57744 -5.26685 0
M  V30 34073 H 3280.98 2.01986 -6.48366 0
M  V30 34074 H 3278.92 3.90708 -5.26957 0
M  V30 34075 H 3278.84 3.19958 -6.84955 0
M  V30 34076 H 3280.11 4.33037 -6.48151 0
M  V30 34077 N 3284.34 1.57005 0.136853 0
M  V30 34078 C 3285.3 1.98108 1.15264 0
M  V30 34079 C 3286.3 0.86888 1.35304 0
M  V30 34080 O 3287.49 1.1353 1.32124 0
M  V30 34081 C 3284.62 2.30581 2.51088 0
M  V30 34082 H 3285.82 2.89039 0.79977 0
M  V30 34083 H 3283.37 1.51597 0.380549 0
M  V30 34084 H 3284.1 1.42474 2.91327 0
M  V30 34085 H 3283.89 3.11682 2.379 0
M  V30 34086 H 3285.38 2.63185 3.24228 0
M  V30 34087 N 3285.82 -0.406513 1.52267 0
M  V30 34088 C 3287.23 -0.985214 1.58589 0
M  V30 34089 C 3287.58 -1.91475 0.427989 0
M  V30 34090 O 3286.7 -2.11642 -0.451304 0
M  V30 34091 C 3287.3 -1.7936 2.87429 0
M  V30 34092 C 3285.86 -2.32228 2.96221 0
M  V30 34093 C 3285 -1.12284 2.5355 0
M  V30 34094 H 3287.96 -0.186657 1.57598 0
M  V30 34095 H 3287.98 -2.65122 2.72929 0
M  V30 34096 H 3287.49 -1.1168 3.71684 0
M  V30 34097 H 3285.59 -3.03271 2.16466 0
M  V30 34098 H 3285.7 -2.62914 4.00516 0
M  V30 34099 H 3284.07 -1.47759 2.07459 0
M  V30 34100 H 3284.85 -0.461671 3.40182 0
M  V30 34101 N 3287.29 -1.42934 -0.663904 0
M  V30 34102 C 3288.52 -1.47614 -1.45688 0
M  V30 34103 C 3288.94 -0.0920636 -1.87875 0
M  V30 34104 O 3288.3 0.911892 -1.56698 0
M  V30 34105 C 3288.35 -2.41804 -2.67513 0
M  V30 34106 O 3287.45 -1.89692 -3.66184 0
M  V30 34107 H 3286.8 -0.49971 -0.437248 0
M  V30 34108 H 3289.33 -1.87738 -0.813364 0
M  V30 34109 H 3289.34 -2.5875 -3.15456 0
M  V30 34110 H 3288.01 -3.42354 -2.36149 0
M  V30 34111 H 3286.59 -1.82355 -3.25271 0
M  V30 34112 N 3288.77 0.901258 -1.29287 0
M  V30 34113 C 3289.7 2.02168 -1.16835 0
M  V30 34114 C 3290.68 1.69983 -0.0629564 0
M  V30 34115 O 3291.87 1.92684 -0.242157 0
M  V30 34116 C 3289 3.36927 -0.842465 0
M  V30 34117 C 3287.95 3.83316 -1.90401 0
M  V30 34118 C 3287.28 5.15183 -1.43147 0
M  V30 34119 C 3288.58 4.03811 -3.31261 0
M  V30 34120 H 3290.27 2.12843 -2.10566 0
M  V30 34121 H 3287.82 1.02268 -1.01377 0
M  V30 34122 H 3289.77 4.14815 -0.742072 0
M  V30 34123 H 3288.5 3.26339 0.13054 0
M  V30 34124 H 3287.15 3.07644 -1.99376 0
M  V30 34125 H 3286.8 5.01008 -0.447179 0
M  V30 34126 H 3286.5 5.47191 -2.14139 0
M  V30 34127 H 3288.03 5.95613 -1.34454 0
M  V30 34128 H 3289.44 4.72185 -3.25137 0
M  V30 34129 H 3287.84 4.47171 -4.00197 0
M  V30 34130 H 3288.91 3.08199 -3.74355 0
M  V30 34131 N 3290.25 1.11738 1.11141 0
M  V30 34132 C 3291.53 0.779816 1.79383 0
M  V30 34133 C 3291.91 -0.731633 1.98016 0
M  V30 34134 O 3291.26 -1.66273 1.56734 0
M  V30 34135 C 3291.47 1.54649 3.12865 0
M  V30 34136 C 3292.81 1.72777 3.87857 0
M  V30 34137 O 3293.84 1.51099 3.22564 0
M  V30 34138 O 3292.7 2.08822 5.0503 0
M  V30 34139 H 3289.79 0.282859 0.777123 0
M  V30 34140 H 3292.34 1.22098 1.17856 0
M  V30 34141 H 3291.11 2.57451 2.94677 0
M  V30 34142 H 3290.73 1.09908 3.82107 0
M  V30 34143 N 3291.73 -1.28802 0.90817 0
M  V30 34144 C 3292.95 -1.99879 0.553466 0
M  V30 34145 C 3293.38 -1.67459 -0.856685 0
M  V30 34146 O 3292.74 -0.903877 -1.57162 0
M  V30 34147 C 3292.78 -3.52441 0.76275 0
M  V30 34148 O 3291.89 -4.12003 -0.180852 0
M  V30 34149 H 3291.23 -0.628144 0.215248 0
M  V30 34150 H 3293.76 -1.64093 1.22208 0
M  V30 34151 H 3293.77 -4.0245 0.670683 0
M  V30 34152 H 3292.44 -3.75372 1.79077 0
M  V30 34153 H 3291.02 -3.72878 -0.0405241 0
M  V30 34154 N 3293.21 -0.67155 -1.42576 0
M  V30 34155 C 3294.43 -0.199188 -2.06441 0
M  V30 34156 C 3294.86 1.13357 -1.50106 0
M  V30 34157 O 3294.21 1.70433 -0.618241 0
M  V30 34158 C 3294.26 -0.141279 -3.60323 0
M  V30 34159 O 3293.37 0.891168 -4.02656 0
M  V30 34160 H 3292.71 -0.103288 -0.655917 0
M  V30 34161 H 3295.24 -0.919646 -1.82767 0
M  V30 34162 H 3295.25 0.0359492 -4.07984 0
M  V30 34163 H 3293.92 -1.1141 -4.007 0
M  V30 34164 H 3292.5 0.685245 -3.6655 0
M  V30 34165 N 3294.68 1.52047 -0.414663 0
M  V30 34166 C 3295.61 2.30064 0.399079 0
M  V30 34167 C 3296.6 1.34507 1.04124 0
M  V30 34168 O 3297.78 1.63418 1.0492 0
M  V30 34169 C 3294.91 3.12611 1.513 0
M  V30 34170 C 3293.86 4.16261 0.995548 0
M  V30 34171 C 3293.19 4.87186 2.20348 0
M  V30 34172 C 3294.49 5.2228 0.045726 0
M  V30 34173 H 3296.18 2.98338 -0.251932 0
M  V30 34174 H 3293.73 1.43477 -0.122604 0
M  V30 34175 H 3295.68 3.65959 2.0893 0
M  V30 34176 H 3294.41 2.42117 2.19197 0
M  V30 34177 H 3293.07 3.6393 0.441612 0
M  V30 34178 H 3292.71 4.13216 2.86813 0
M  V30 34179 H 3292.41 5.57259 1.86375 0
M  V30 34180 H 3293.94 5.43349 2.78575 0
M  V30 34181 H 3295.35 5.70836 0.531001 0
M  V30 34182 H 3293.75 5.99748 -0.205465 0
M  V30 34183 H 3294.82 4.76514 -0.897891 0
M  V30 34184 N 3296.16 0.145261 1.56929 0
M  V30 34185 C 3297.57 -0.375852 1.82878 0
M  V30 34186 C 3297.92 -1.64852 1.06387 0
M  V30 34187 O 3297.05 -2.14188 0.308608 0
M  V30 34188 C 3297.64 -0.688686 3.31727 0
M  V30 34189 C 3296.2 -1.15433 3.58263 0
M  V30 34190 C 3295.35 -0.176517 2.76738 0
M  V30 34191 H 3298.3 0.369987 1.54327 0
M  V30 34192 H 3298.32 -1.54353 3.47787 0
M  V30 34193 H 3297.83 0.237762 3.87371 0
M  V30 34194 H 3295.94 -2.09677 3.08003 0
M  V30 34195 H 3296.05 -1.0815 4.66734 0
M  V30 34196 H 3294.41 -0.6688 2.45762 0
M  V30 34197 H 3295.2 0.743491 3.35152 0
M  V30 34198 N 3297.64 -1.57075 -0.128525 0
M  V30 34199 C 3298.57 -1.96275 -1.18359 0
M  V30 34200 C 3299.59 -0.860842 -1.38179 0
M  V30 34201 O 3300.78 -1.13918 -1.37422 0
M  V30 34202 C 3297.88 -2.23759 -2.54529 0
M  V30 34203 C 3297.05 -3.55062 -2.5544 0
M  V30 34204 C 3296.11 -3.70871 -3.73285 0
M  V30 34205 O 3295.13 -4.4308 -3.57308 0
M  V30 34206 N 3296.34 -3.08921 -4.91475 0
M  V30 34207 H 3299.1 -2.87387 -0.850225 0
M  V30 34208 H 3296.66 -1.58748 -0.317904 0
M  V30 34209 H 3298.65 -2.31559 -3.31908 0
M  V30 34210 H 3297.22 -1.38821 -2.80085 0
M  V30 34211 H 3296.44 -3.58537 -1.63844 0
M  V30 34212 H 3297.73 -4.41384 -2.53096 0
M  V30 34213 H 3297.13 -2.50205 -5.0736 0
M  V30 34214 H 3295.69 -3.22255 -5.66564 0
M  V30 34215 N 3299.12 0.398432 -1.5248 0
M  V30 34216 C 3300.05 1.49276 -1.79552 0
M  V30 34217 C 3301.03 1.57313 -0.647032 0
M  V30 34218 O 3302.22 1.72415 -0.893691 0
M  V30 34219 C 3299.35 2.8699 -1.95587 0
M  V30 34220 C 3298.3 2.93797 -3.11235 0
M  V30 34221 C 3297.63 4.33869 -3.12509 0
M  V30 34222 C 3298.93 2.64304 -4.50489 0
M  V30 34223 H 3300.62 1.26872 -2.7119 0
M  V30 34224 H 3298.17 0.608901 -1.30493 0
M  V30 34225 H 3300.12 3.63542 -2.13108 0
M  V30 34226 H 3298.84 3.10711 -1.0063 0
M  V30 34227 H 3297.5 2.19691 -2.93481 0
M  V30 34228 H 3297.15 4.54615 -2.15253 0
M  V30 34229 H 3296.85 4.39346 -3.9019 0
M  V30 34230 H 3298.37 5.12341 -3.32173 0
M  V30 34231 H 3299.79 3.30576 -4.68393 0
M  V30 34232 H 3298.18 2.81144 -5.30168 0
M  V30 34233 H 3299.25 1.59688 -4.57851 0
M  V30 34234 N 3300.6 1.43284 0.656314 0
M  V30 34235 C 3302.01 1.39803 1.23742 0
M  V30 34236 C 3302.36 0.100541 1.95942 0
M  V30 34237 O 3301.48 -0.800125 2.01065 0
M  V30 34238 C 3302.08 2.53248 2.25058 0
M  V30 34239 C 3300.64 2.53041 2.78652 0
M  V30 34240 C 3299.79 2.31107 1.53247 0
M  V30 34241 H 3302.74 1.5223 0.448526 0
M  V30 34242 H 3302.76 2.24559 3.0717 0
M  V30 34243 H 3302.27 3.47667 1.7248 0
M  V30 34244 H 3300.37 1.62493 3.35301 0
M  V30 34245 H 3300.48 3.50706 3.26408 0
M  V30 34246 H 3298.85 1.79716 1.80484 0
M  V30 34247 H 3299.63 3.27607 1.02609 0
M  V30 34248 N 3302.08 -0.894389 1.29763 0
M  V30 34249 C 3303.3 -1.68397 1.21067 0
M  V30 34250 C 3303.73 -1.86755 -0.224575 0
M  V30 34251 O 3303.08 -1.3917 -1.16196 0
M  V30 34252 C 3303.13 -3.04303 1.93474 0
M  V30 34253 O 3302.24 -3.92827 1.2554 0
M  V30 34254 H 3301.58 -0.514918 0.419232 0
M  V30 34255 H 3304.11 -1.11693 1.71423 0
M  V30 34256 H 3304.12 -3.5441 2.02133 0
M  V30 34257 H 3302.79 -2.9026 2.97862 0
M  V30 34258 H 3301.37 -3.51263 1.25174 0
M  V30 34259 N 3303.55 -1.12326 -1.10547 0
M  V30 34260 C 3304.96 -0.892431 -1.6399 0
M  V30 34261 C 3305.32 0.573473 -1.87632 0
M  V30 34262 O 3304.44 1.43765 -1.61743 0
M  V30 34263 C 3305.04 -1.61352 -2.97911 0
M  V30 34264 C 3303.59 -1.42887 -3.48225 0
M  V30 34265 C 3302.74 -1.65019 -2.22854 0
M  V30 34266 H 3305.69 -1.2782 -0.940628 0
M  V30 34267 H 3305.71 -1.06389 -3.65324 0
M  V30 34268 H 3305.23 -2.68039 -2.80672 0
M  V30 34269 H 3303.33 -0.384506 -3.70611 0
M  V30 34270 H 3303.44 -2.1842 -4.26415 0
M  V30 34271 H 3301.8 -1.07421 -2.30939 0
M  V30 34272 H 3302.59 -2.73001 -2.08148 0
M  V30 34273 N 3305.03 1.28319 -0.914988 0
M  V30 34274 C 3306.26 1.99582 -0.564058 0
M  V30 34275 C 3306.68 1.67911 0.847792 0
M  V30 34276 O 3306.04 0.912199 1.5668 0
M  V30 34277 C 3306.09 3.52031 -0.78143 0
M  V30 34278 O 3305.19 4.12093 0.159 0
M  V30 34279 H 3304.53 0.626993 -0.218576 0
M  V30 34280 H 3307.06 1.63442 -1.23076 0
M  V30 34281 H 3307.07 4.02088 -0.692016 0
M  V30 34282 H 3305.75 3.74417 -1.81065 0
M  V30 34283 H 3304.32 3.72894 0.0207489 0
M  V30 34284 N 3306.51 0.679102 1.42218 0
M  V30 34285 C 3307.73 0.210133 2.06333 0
M  V30 34286 C 3308.16 -1.1256 1.50705 0
M  V30 34287 O 3307.52 -1.70103 0.627271 0
M  V30 34288 C 3307.57 0.160386 3.60243 0
M  V30 34289 O 3306.67 -0.869801 4.03123 0
M  V30 34290 H 3306.01 0.106765 0.65536 0
M  V30 34291 H 3308.54 0.929326 1.82276 0
M  V30 34292 H 3308.55 -0.0143123 4.07997 0
M  V30 34293 H 3307.23 1.13533 4.00104 0
M  V30 34294 H 3305.8 -0.665796 3.66908 0
M  V30 34295 N 3307.99 -1.51825 0.42272 0
M  V30 34296 C 3309.4 -1.86649 -0.0437801 0
M  V30 34297 C 3309.75 -1.34074 -1.43243 0
M  V30 34298 O 3308.87 -0.685537 -2.05254 0
M  V30 34299 C 3309.47 -3.3869 -0.0862207 0
M  V30 34300 C 3308.03 -3.73103 -0.497091 0
M  V30 34301 C 3307.18 -2.75451 0.319703 0
M  V30 34302 H 3310.13 -1.45258 0.639207 0
M  V30 34303 H 3310.15 -3.69734 -0.898735 0
M  V30 34304 H 3309.66 -3.76926 0.924591 0
M  V30 34305 H 3307.76 -3.40452 -1.51405 0
M  V30 34306 H 3307.87 -4.78538 -0.232041 0
M  V30 34307 H 3306.24 -2.53749 -0.219918 0
M  V30 34308 H 3307.02 -3.16527 1.32912 0
M  V30 34309 N 3309.47 -0.153581 -1.5685 0
M  V30 34310 C 3310.71 0.494901 -1.95947 0
M  V30 34311 C 3311.03 1.64966 -1.03978 0
M  V30 34312 O 3310.3 1.95631 -0.102607 0
M  V30 34313 H 3308.88 0.18582 -0.723519 0
M  V30 34314 H 3311.55 -0.230619 -1.93531 0
M  V30 34315 H 3310.64 0.86669 -2.99825 0
M  V30 34316 N 3310.94 1.57141 0.120193 0
M  V30 34317 C 3311.91 1.9932 1.13156 0
M  V30 34318 C 3312.91 0.883182 1.34375 0
M  V30 34319 O 3314.1 1.14925 1.30912 0
M  V30 34320 C 3311.23 2.33232 2.48628 0
M  V30 34321 H 3312.42 2.89871 0.769069 0
M  V30 34322 H 3309.97 1.51992 0.364449 0
M  V30 34323 H 3310.71 1.45556 2.898 0
M  V30 34324 H 3310.49 3.14188 2.34581 0
M  V30 34325 H 3311.98 2.66609 3.21418 0
M  V30 34326 N 3312.42 -0.39034 1.5269 0
M  V30 34327 C 3313.83 -0.968338 1.59625 0
M  V30 34328 C 3314.18 -1.9101 0.448273 0
M  V30 34329 O 3313.31 -2.12108 -0.428831 0
M  V30 34330 C 3313.9 -1.76301 2.89315 0
M  V30 34331 C 3312.46 -2.29073 2.98668 0
M  V30 34332 C 3311.61 -1.09588 2.54727 0
M  V30 34333 H 3314.56 -0.169931 1.57788 0
M  V30 34334 H 3314.58 -2.62213 2.75726 0
M  V30 34335 H 3314.09 -1.07732 3.72848 0
M  V30 34336 H 3312.2 -3.00958 2.1967 0
M  V30 34337 H 3312.31 -2.58652 4.03282 0
M  V30 34338 H 3310.67 -1.45551 2.09015 0
M  V30 34339 H 3311.46 -0.425565 3.40652 0
M  V30 34340 N 3313.9 -1.4363 -0.648706 0
M  V30 34341 C 3314.83 -1.5195 -1.77295 0
M  V30 34342 C 3315.81 -0.373814 -1.65942 0
M  V30 34343 O 3317 -0.591629 -1.84969 0
M  V30 34344 C 3314.13 -1.44643 -3.15746 0
M  V30 34345 C 3313.08 -2.57508 -3.41868 0
M  V30 34346 C 3312.41 -2.35254 -4.80166 0
M  V30 34347 C 3313.71 -3.99737 -3.36166 0
M  V30 34348 H 3315.4 -2.46048 -1.70589 0
M  V30 34349 H 3312.95 -1.18422 -0.819285 0
M  V30 34350 H 3314.9 -1.49067 -3.94153 0
M  V30 34351 H 3313.62 -0.470523 -3.23193 0
M  V30 34352 H 3312.28 -2.52444 -2.65833 0
M  V30 34353 H 3311.93 -1.35896 -4.84295 0
M  V30 34354 H 3311.63 -3.10914 -4.98604 0
M  V30 34355 H 3313.15 -2.41469 -5.60825 0
M  V30 34356 H 3314.57 -4.06264 -4.04503 0
M  V30 34357 H 3312.97 -4.75459 -3.6614 0
M  V30 34358 H 3314.04 -4.24553 -2.3427 0
M  V30 34359 N 3315.38 0.887495 -1.30236 0
M  V30 34360 C 3316.31 2.00917 -1.18973 0
M  V30 34361 C 3317.29 1.69907 -0.0809818 0
M  V30 34362 O 3318.47 1.92417 -0.26258 0
M  V30 34363 C 3315.6 3.36015 -0.878153 0
M  V30 34364 C 3314.56 3.81275 -1.94456 0
M  V30 34365 C 3313.88 5.13635 -1.48603 0
M  V30 34366 C 3315.18 4.00275 -3.35526 0
M  V30 34367 H 3316.88 2.10598 -2.12812 0
M  V30 34368 H 3314.42 1.01187 -1.02456 0
M  V30 34369 H 3316.38 4.14004 -0.786027 0
M  V30 34370 H 3315.1 3.26459 0.0959205 0
M  V30 34371 H 3313.76 3.05512 -2.02628 0
M  V30 34372 H 3313.41 5.00506 -0.500292 0
M  V30 34373 H 3313.11 5.44889 -2.1993 0
M  V30 34374 H 3314.63 5.94153 -1.40764 0
M  V30 34375 H 3316.05 4.6871 -3.30127 0
M  V30 34376 H 3314.44 4.42901 -4.04918 0
M  V30 34377 H 3315.51 3.04211 -3.77602 0
M  V30 34378 N 3316.86 1.12911 1.0995 0
M  V30 34379 C 3318.08 0.910854 1.86328 0
M  V30 34380 C 3318.51 -0.534842 1.80336 0
M  V30 34381 O 3317.86 -1.37906 1.17693 0
M  V30 34382 C 3317.91 1.39654 3.32459 0
M  V30 34383 O 3317.02 0.578264 4.08326 0
M  V30 34384 H 3316.36 0.32686 0.577978 0
M  V30 34385 H 3318.89 1.50244 1.3888 0
M  V30 34386 H 3318.9 1.39781 3.83308 0
M  V30 34387 H 3317.57 2.44919 3.36136 0
M  V30 34388 H 3316.15 0.644411 3.6729 0
M  V30 34389 N 3318.33 -1.27832 0.92178 0
M  V30 34390 C 3319.28 -2.29017 0.406668 0
M  V30 34391 C 3320.28 -1.6167 -0.505886 0
M  V30 34392 O 3321.48 -1.75807 -0.386243 0
M  V30 34393 H 3317.86 -0.743473 0.112927 0
M  V30 34394 H 3319.83 -2.69884 1.273 0
M  V30 34395 C 3318.58 -3.46124 -0.330722 0
M  V30 34396 H 3317.9 -3.98155 0.362277 0
M  V30 34397 H 3319.34 -4.189 -0.655665 0
M  V30 34398 C 3317.8 -2.99562 -1.54156 0
M  V30 34399 O 3318.33 -3.02725 -2.64047 0
M  V30 34400 N 3316.54 -2.55128 -1.39133 0
M  V30 34401 H 3316.08 -2.52755 -0.497275 0
M  V30 34402 H 3316.04 -2.24336 -2.20274 0
M  V30 34403 N 3319.81 -0.686634 -1.41856 0
M  V30 34404 C 3320.74 -0.0298763 -2.33481 0
M  V30 34405 C 3321.72 0.776729 -1.51331 0
M  V30 34406 O 3322.91 0.731503 -1.79896 0
M  V30 34407 C 3320.04 0.913648 -3.35067 0
M  V30 34408 C 3318.99 0.214786 -4.27461 0
M  V30 34409 C 3318.32 1.27206 -5.19348 0
M  V30 34410 C 3319.62 -0.913457 -5.1425 0
M  V30 34411 H 3321.31 -0.795117 -2.88649 0
M  V30 34412 H 3318.86 -0.383809 -1.38791 0
M  V30 34413 H 3320.81 1.38227 -3.98085 0
M  V30 34414 H 3319.54 1.71045 -2.78229 0
M  V30 34415 H 3318.19 -0.233715 -3.65854 0
M  V30 34416 H 3317.84 2.06116 -4.5883 0
M  V30 34417 H 3317.54 0.809508 -5.81997 0
M  V30 34418 H 3319.07 1.74137 -5.85242 0
M  V30 34419 H 3320.48 -0.525524 -5.70886 0
M  V30 34420 H 3318.88 -1.30254 -5.85793 0
M  V30 34421 H 3319.95 -1.75707 -4.51946 0
M  V30 34422 N 3321.29 1.51599 -0.430766 0
M  V30 34423 C 3322.7 1.86669 0.0338811 0
M  V30 34424 C 3323.05 1.34832 1.4253 0
M  V30 34425 O 3322.18 0.696412 2.04888 0
M  V30 34426 C 3322.77 3.38731 0.0682579 0
M  V30 34427 C 3321.33 3.73362 0.477298 0
M  V30 34428 C 3320.48 2.75277 -0.334307 0
M  V30 34429 H 3323.43 1.44917 -0.646901 0
M  V30 34430 H 3323.45 3.70205 0.879114 0
M  V30 34431 H 3322.96 3.7643 -0.944567 0
M  V30 34432 H 3321.06 3.4125 1.49597 0
M  V30 34433 H 3321.18 4.78654 0.206659 0
M  V30 34434 H 3319.54 2.53862 0.206458 0
M  V30 34435 H 3320.32 3.15818 -1.34588 0
M  V30 34436 N 3322.77 0.161897 1.56766 0
M  V30 34437 C 3324.18 -0.194375 1.58412 0
M  V30 34438 C 3324.38 -1.63562 1.17685 0
M  V30 34439 O 3323.44 -2.36518 0.884065 0
M  V30 34440 C 3324.75 0.0778967 3.00599 0
M  V30 34441 C 3326.3 0.015362 3.12996 0
M  V30 34442 C 3326.78 0.260498 4.57259 0
M  V30 34443 N 3328.27 0.207944 4.62733 0
M  V30 34444 C 3329 0.371921 5.72193 0
M  V30 34445 N 3328.5 0.594439 6.90245 0
M  V30 34446 N 3330.29 0.308483 5.61253 0
M  V30 34447 H 3322.44 1.10277 1.81529 0
M  V30 34448 H 3324.71 0.437689 0.840911 0
M  V30 34449 H 3324.41 1.07593 3.34838 0
M  V30 34450 H 3324.29 -0.63478 3.7182 0
M  V30 34451 H 3326.67 -0.973241 2.78589 0
M  V30 34452 H 3326.75 0.760602 2.4423 0
M  V30 34453 H 3326.4 1.24627 4.92372 0
M  V30 34454 H 3326.33 -0.505242 5.24171 0
M  V30 34455 H 3328.82 0.0412205 3.77878 0
M  V30 34456 H 3329.13 0.709266 7.69538 0
M  V30 34457 H 3327.48 0.630941 6.9213 0
M  V30 34458 H 3330.67 0.1353 4.67904 0
M  V30 34459 H 3330.84 0.439706 6.46506 0
M  V30 34460 N 3324.25 -1.57203 -0.111858 0
M  V30 34461 C 3325.66 -1.74332 -0.66823 0
M  V30 34462 C 3326.01 -0.781641 -1.79958 0
M  V30 34463 O 3325.13 0.0437949 -2.16356 0
M  V30 34464 C 3325.73 -3.16113 -1.21895 0
M  V30 34465 C 3324.29 -3.34724 -1.72154 0
M  V30 34466 C 3323.43 -2.70184 -0.624175 0
M  V30 34467 H 3326.39 -1.58289 0.114109 0
M  V30 34468 H 3326.41 -3.18058 -2.08853 0
M  V30 34469 H 3325.92 -3.86081 -0.395314 0
M  V30 34470 H 3324.02 -2.69808 -2.56972 0
M  V30 34471 H 3324.13 -4.42935 -1.82607 0
M  V30 34472 H 3322.5 -2.31616 -1.05954 0
M  V30 34473 H 3323.28 -3.42782 0.188598 0
M  V30 34474 N 3325.72 0.382237 -1.52894 0
M  V30 34475 C 3326.69 1.45005 -1.775 0
M  V30 34476 C 3327.69 1.47292 -0.645116 0
M  V30 34477 O 3328.88 1.48344 -0.913218 0
M  V30 34478 C 3326.01 2.84247 -1.88193 0
M  V30 34479 H 3327.2 1.24468 -2.72851 0
M  V30 34480 H 3324.76 0.614385 -1.43718 0
M  V30 34481 H 3325.49 3.10119 -0.948506 0
M  V30 34482 H 3325.28 2.83987 -2.70358 0
M  V30 34483 H 3326.77 3.61607 -2.08879 0
M  V30 34484 N 3327.2 1.43972 0.64108 0
M  V30 34485 C 3328.43 1.49913 1.43321 0
M  V30 34486 C 3328.85 0.121941 1.87704 0
M  V30 34487 O 3328.21 -0.886848 1.58129 0
M  V30 34488 C 3328.26 2.46029 2.63632 0
M  V30 34489 O 3327.36 1.95494 3.6312 0
M  V30 34490 H 3326.7 0.506603 0.429243 0
M  V30 34491 H 3329.23 1.89008 0.783394 0
M  V30 34492 H 3329.24 2.63736 3.11299 0
M  V30 34493 H 3327.92 3.46068 2.30672 0
M  V30 34494 H 3326.5 1.87506 3.22329 0
M  V30 34495 N 3328.68 -0.880575 1.30704 0
M  V30 34496 C 3330.09 -1.44828 1.1782 0
M  V30 34497 C 3330.44 -1.94969 -0.219422 0
M  V30 34498 O 3329.57 -1.85377 -1.11643 0
M  V30 34499 C 3330.16 -2.63243 2.1328 0
M  V30 34500 C 3328.72 -3.16091 2.04361 0
M  V30 34501 C 3327.87 -1.88788 2.03111 0
M  V30 34502 H 3330.82 -0.6901 1.4291 0
M  V30 34503 H 3330.84 -3.39598 1.71621 0
M  V30 34504 H 3330.35 -2.26719 3.14992 0
M  V30 34505 H 3328.45 -3.57261 1.05806 0
M  V30 34506 H 3328.57 -3.79093 2.9296 0
M  V30 34507 H 3326.93 -2.07305 1.47975 0
M  V30 34508 H 3327.71 -1.54516 3.06561 0
M  V30 34509 N 3330.16 -1.13492 -1.09349 0
M  V30 34510 C 3331.12 -0.815956 -2.14184 0
M  V30 34511 C 3332.12 0.174948 -1.59845 0
M  V30 34512 O 3333.31 -0.0522277 -1.74122 0
M  V30 34513 C 3330.44 -0.214577 -3.40224 0
M  V30 34514 H 3331.64 -1.74493 -2.4391 0
M  V30 34515 H 3329.19 -0.939656 -1.24901 0
M  V30 34516 H 3329.93 0.723578 -3.16125 0
M  V30 34517 H 3329.71 -0.928169 -3.80956 0
M  V30 34518 H 3331.2 -0.00829339 -4.17599 0
M  V30 34519 N 3331.64 1.27341 -0.928546 0
M  V30 34520 C 3332.57 2.29207 -0.445668 0
M  V30 34521 C 3333.55 1.62754 0.49448 0
M  V30 34522 O 3334.73 1.90056 0.399049 0
M  V30 34523 C 3331.86 3.45988 0.301624 0
M  V30 34524 C 3330.82 4.24441 -0.550769 0
M  V30 34525 C 3330.14 5.33707 0.325739 0
M  V30 34526 C 3331.44 4.89725 -1.81567 0
M  V30 34527 H 3333.14 2.69848 -1.29701 0
M  V30 34528 H 3330.68 1.29724 -0.625108 0
M  V30 34529 H 3332.64 4.16351 0.650382 0
M  V30 34530 H 3331.36 3.04266 1.18699 0
M  V30 34531 H 3330.02 3.55826 -0.882247 0
M  V30 34532 H 3329.67 4.88227 1.21009 0
M  V30 34533 H 3329.37 5.87105 -0.241097 0
M  V30 34534 H 3330.89 6.06912 0.67005 0
M  V30 34535 H 3332.31 5.5237 -1.53493 0
M  V30 34536 H 3330.7 5.53185 -2.32607 0
M  V30 34537 H 3331.77 4.13378 -2.53469 0
M  V30 34538 N 3333.12 0.694147 1.4149 0
M  V30 34539 C 3334.34 0.232006 2.06098 0
M  V30 34540 C 3334.77 -1.10955 1.5189 0
M  V30 34541 O 3334.12 -1.69428 0.645277 0
M  V30 34542 C 3334.17 0.198585 3.60053 0
M  V30 34543 O 3333.28 -0.826996 4.04023 0
M  V30 34544 H 3332.62 0.11371 0.654191 0
M  V30 34545 H 3335.15 0.948607 1.8128 0
M  V30 34546 H 3335.16 0.0289621 4.0799 0
M  V30 34547 H 3333.83 1.17771 3.98877 0
M  V30 34548 H 3332.41 -0.626843 3.67594 0
M  V30 34549 N 3334.59 -1.51368 0.438799 0
M  V30 34550 C 3335.5 -2.31534 -0.378033 0
M  V30 34551 C 3336.52 -1.4051 -1.0263 0
M  V30 34552 O 3337.7 -1.73581 -1.02135 0
M  V30 34553 C 3334.76 -3.14288 -1.46369 0
M  V30 34554 C 3333.82 -4.21093 -0.835398 0
M  V30 34555 C 3333.05 -4.99892 -1.86932 0
M  V30 34556 O 3333.28 -4.79343 -3.09171 0
M  V30 34557 O 3332.21 -5.83948 -1.45904 0
M  V30 34558 H 3336.04 -3.02439 0.276454 0
M  V30 34559 H 3333.62 -1.48038 0.201307 0
M  V30 34560 H 3335.5 -3.65731 -2.09329 0
M  V30 34561 H 3334.18 -2.46146 -2.10223 0
M  V30 34562 H 3333.09 -3.73724 -0.167709 0
M  V30 34563 H 3334.42 -4.91613 -0.24032 0
M  V30 34564 N 3336.07 -0.170208 -1.56678 0
M  V30 34565 C 3337.32 0.474091 -1.96461 0
M  V30 34566 C 3337.64 1.63853 -1.05722 0
M  V30 34567 O 3336.91 1.95511 -0.12335 0
M  V30 34568 H 3335.49 0.178136 -0.725449 0
M  V30 34569 H 3338.15 -0.251133 -1.93275 0
M  V30 34570 H 3337.25 0.834841 -3.00727 0
M  V30 34571 N 3337.55 1.5726 0.10352 0
M  V30 34572 C 3338.77 1.90233 0.826207 0
M  V30 34573 C 3339.2 0.763671 1.719 0
M  V30 34574 O 3338.56 -0.285149 1.79044 0
M  V30 34575 C 3338.61 3.22031 1.62259 0
M  V30 34576 O 3337.71 3.09028 2.73086 0
M  V30 34577 H 3337.05 0.623804 0.227517 0
M  V30 34578 H 3339.58 2.04439 0.0812711 0
M  V30 34579 H 3339.59 3.55133 2.00859 0
M  V30 34580 H 3338.27 4.04495 0.967312 0
M  V30 34581 H 3336.84 2.87424 2.37575 0
M  V30 34582 N 3339.03 -0.374123 1.53095 0
M  V30 34583 C 3340.25 -1.14297 1.73063 0
M  V30 34584 C 3340.68 -1.82523 0.454643 0
M  V30 34585 O 3340.04 -1.71407 -0.590713 0
M  V30 34586 C 3340.08 -2.15544 2.8909 0
M  V30 34587 O 3339.19 -3.22447 2.57102 0
M  V30 34588 H 3338.53 -0.332044 0.575015 0
M  V30 34589 H 3341.06 -0.433862 1.99947 0
M  V30 34590 H 3341.07 -2.5929 3.15012 0
M  V30 34591 H 3339.74 -1.65276 3.8165 0
M  V30 34592 H 3338.32 -2.83734 2.4197 0
M  V30 34593 N 3340.51 -1.4431 -0.633436 0
M  V30 34594 C 3341.73 -1.50671 -1.42524 0
M  V30 34595 C 3342.16 -0.131894 -1.87637 0
M  V30 34596 O 3341.51 0.878449 -1.58597 0
M  V30 34597 C 3341.56 -2.47424 -2.62324 0
M  V30 34598 O 3340.67 -1.97417 -3.62078 0
M  V30 34599 H 3340.01 -0.508872 -0.426551 0
M  V30 34600 H 3342.54 -1.89421 -0.773359 0
M  V30 34601 H 3342.55 -2.65384 -3.09896 0
M  V30 34602 H 3341.22 -3.47287 -2.28834 0
M  V30 34603 H 3339.8 -1.89213 -3.2133 0
M  V30 34604 N 3341.98 0.873632 -1.3117 0
M  V30 34605 C 3342.89 2.01311 -1.20462 0
M  V30 34606 C 3343.91 1.73571 -0.122105 0
M  V30 34607 O 3345.09 1.98523 -0.33921 0
M  V30 34608 C 3342.15 3.34576 -0.908819 0
M  V30 34609 C 3341.21 3.75664 -2.07786 0
M  V30 34610 C 3340.45 5.0257 -1.79608 0
M  V30 34611 O 3340.67 5.65717 -0.729438 0
M  V30 34612 O 3339.6 5.40337 -2.65179 0
M  V30 34613 H 3343.43 2.13276 -2.16211 0
M  V30 34614 H 3341.01 1.00137 -1.10873 0
M  V30 34615 H 3342.9 4.14498 -0.759542 0
M  V30 34616 H 3341.57 3.23695 0.018668 0
M  V30 34617 H 3340.48 2.96398 -2.28252 0
M  V30 34618 H 3341.81 3.91166 -2.98747 0
M  V30 34619 N 3343.46 1.1407 1.08746 0
M  V30 34620 C 3344.43 0.827304 2.13748 0
M  V30 34621 C 3345.43 -0.166468 1.59936 0
M  V30 34622 O 3346.62 0.0614611 1.74092 0
M  V30 34623 C 3343.75 0.232617 3.40105 0
M  V30 34624 H 3344.94 1.75784 2.42981 0
M  V30 34625 H 3342.49 0.946266 1.24401 0
M  V30 34626 H 3343.23 -0.706803 3.16504 0
M  V30 34627 H 3343.01 0.948359 3.80458 0
M  V30 34628 H 3344.5 0.0304396 4.17589 0
M  V30 34629 N 3344.94 -1.26847 0.935286 0
M  V30 34630 C 3346.17 -1.98121 0.596284 0
M  V30 34631 C 3346.58 -1.69703 -0.827422 0
M  V30 34632 O 3345.94 -0.961892 -1.55093 0
M  V30 34633 C 3345.99 -3.52034 0.821835 0
M  V30 34634 O 3345.71 -3.79461 2.18954 0
M  V30 34635 C 3347.21 -4.40555 0.492576 0
M  V30 34636 H 3344.43 -0.632062 0.225253 0
M  V30 34637 H 3346.98 -1.6151 1.25438 0
M  V30 34638 H 3345.13 -3.86828 0.210431 0
M  V30 34639 H 3345.55 -4.74017 2.24518 0
M  V30 34640 H 3347.02 -5.4753 0.701049 0
M  V30 34641 H 3347.5 -4.35457 -0.572203 0
M  V30 34642 H 3348.1 -4.11294 1.08245 0
M  V30 34643 N 3346.42 -0.701641 -1.4112 0
M  V30 34644 C 3347.65 -0.244402 -2.05451 0
M  V30 34645 C 3348.06 1.10864 -1.52822 0
M  V30 34646 O 3347.42 1.694 -0.67896 0
M  V30 34647 C 3347.47 -0.200175 -3.60945 0
M  V30 34648 O 3347.19 -1.49977 -4.11629 0
M  V30 34649 C 3348.69 0.277316 -4.42432 0
M  V30 34650 H 3345.91 -0.112464 -0.661508 0
M  V30 34651 H 3348.46 -0.955931 -1.80782 0
M  V30 34652 H 3346.61 0.462219 -3.84633 0
M  V30 34653 H 3347.02 -1.39093 -5.05721 0
M  V30 34654 H 3348.5 0.257128 -5.51401 0
M  V30 34655 H 3348.98 1.3172 -4.18983 0
M  V30 34656 H 3349.58 -0.354297 -4.23822 0
M  V30 34657 N 3347.9 1.51133 -0.446821 0
M  V30 34658 C 3349.31 1.86695 0.0140804 0
M  V30 34659 C 3349.66 1.36336 1.41092 0
M  V30 34660 O 3348.78 0.718104 2.04138 0
M  V30 34661 C 3349.38 3.38785 0.0323271 0
M  V30 34662 C 3347.94 3.73847 0.437671 0
M  V30 34663 C 3347.08 2.74907 -0.363485 0
M  V30 34664 H 3350.04 1.44223 -0.662235 0
M  V30 34665 H 3350.06 3.71117 0.839799 0
M  V30 34666 H 3349.57 3.75407 -0.98444 0
M  V30 34667 H 3347.67 3.42817 1.45969 0
M  V30 34668 H 3347.78 4.78846 0.15588 0
M  V30 34669 H 3346.15 2.54067 0.179521 0
M  V30 34670 H 3346.93 3.14372 -1.37931 0
M  V30 34671 N 3349.37 0.178515 1.56586 0
M  V30 34672 C 3350.62 -0.465271 1.97391 0
M  V30 34673 C 3350.95 -1.62408 1.06477 0
M  V30 34674 O 3350.23 -1.94169 0.11335 0
M  V30 34675 C 3350.51 -0.941347 3.47578 0
M  V30 34676 C 3350.36 0.218133 4.49271 0
M  V30 34677 C 3351.68 -1.81256 4.01041 0
M  V30 34678 H 3348.8 -0.16765 0.717678 0
M  V30 34679 H 3351.44 0.2661 1.88127 0
M  V30 34680 H 3349.59 -1.56456 3.55603 0
M  V30 34681 H 3351.27 0.855412 4.53299 0
M  V30 34682 H 3349.51 0.872515 4.24935 0
M  V30 34683 H 3350.18 -0.157218 5.51776 0
M  V30 34684 H 3352.66 -1.28711 3.95693 0
M  V30 34685 H 3351.53 -2.11467 5.0653 0
M  V30 34686 H 3351.79 -2.76089 3.45293 0
M  V30 34687 N 3350.85 -1.57312 -0.0951784 0
M  V30 34688 C 3352.1 -1.85269 -0.797384 0
M  V30 34689 C 3352.41 -0.767764 -1.79902 0
M  V30 34690 O 3353.62 -0.934454 -2.54912 0
M  V30 34691 C 3352.08 -3.28558 -1.46894 0
M  V30 34692 C 3351.68 -4.45121 -0.507074 0
M  V30 34693 C 3353.43 -3.65739 -2.15488 0
M  V30 34694 C 3351.34 -5.79443 -1.18321 0
M  V30 34695 H 3350.27 -0.691079 -0.301539 0
M  V30 34696 H 3352.92 -1.83431 -0.0503261 0
M  V30 34697 H 3351.3 -3.24937 -2.26345 0
M  V30 34698 H 3352.47 -4.60089 0.255939 0
M  V30 34699 H 3350.79 -4.16336 0.0731613 0
M  V30 34700 H 3353.38 -4.63376 -2.66808 0
M  V30 34701 H 3353.73 -2.94359 -2.94378 0
M  V30 34702 H 3354.26 -3.71248 -1.42897 0
M  V30 34703 H 3351 -6.54054 -0.435123 0
M  V30 34704 H 3350.52 -5.68319 -1.91765 0
M  V30 34705 H 3352.2 -6.24001 -1.70972 0
M  V30 34706 N 3352.33 0.365999 -1.53291 0
M  V30 34707 C 3353.56 1.13378 -1.73667 0
M  V30 34708 C 3353.98 1.82279 -0.464316 0
M  V30 34709 O 3353.34 1.71718 0.581615 0
M  V30 34710 C 3353.39 2.14008 -2.90229 0
M  V30 34711 O 3352.49 3.21079 -2.58808 0
M  V30 34712 H 3351.83 0.32899 -0.576768 0
M  V30 34713 H 3354.36 0.423252 -2.00174 0
M  V30 34714 H 3354.37 2.57616 -3.16383 0
M  V30 34715 H 3353.05 1.6325 -3.82521 0
M  V30 34716 H 3351.62 2.82447 -2.43471 0
M  V30 34717 N 3353.81 1.44644 0.625774 0
M  V30 34718 C 3355.03 1.51424 1.41723 0
M  V30 34719 C 3355.46 0.141843 1.87564 0
M  V30 34720 O 3354.82 -0.870026 1.5906 0
M  V30 34721 C 3354.86 2.48812 2.61008 0
M  V30 34722 O 3353.97 1.99334 3.61026 0
M  V30 34723 H 3353.31 0.511127 0.423846 0
M  V30 34724 H 3355.84 1.89828 0.763303 0
M  V30 34725 H 3355.85 2.67023 3.08484 0
M  V30 34726 H 3354.52 3.48495 2.26989 0
M  V30 34727 H 3353.1 1.90915 3.20322 0
M  V30 34728 N 3355.29 -0.866663 1.31631 0
M  V30 34729 C 3356.53 -1.62236 1.21686 0
M  V30 34730 C 3356.87 -1.92907 -0.223733 0
M  V30 34731 O 3356.14 -1.56302 -1.15758 0
M  V30 34732 C 3356.42 -2.95045 2.06448 0
M  V30 34733 C 3356.28 -2.71231 3.58823 0
M  V30 34734 C 3357.6 -3.96184 1.91641 0
M  V30 34735 H 3354.71 -0.588699 0.443399 0
M  V30 34736 H 3357.36 -1.00161 1.61455 0
M  V30 34737 H 3355.51 -3.48024 1.7266 0
M  V30 34738 H 3357.18 -2.24898 4.02764 0
M  V30 34739 H 3355.42 -2.05404 3.82088 0
M  V30 34740 H 3356.09 -3.65745 4.13442 0
M  V30 34741 H 3358.57 -3.52424 2.21216 0
M  V30 34742 H 3357.44 -4.86989 2.53245 0
M  V30 34743 H 3357.71 -4.3324 0.88064 0
M  V30 34744 N 3356.77 -1.14645 -1.0814 0
M  V30 34745 C 3357.73 -0.838627 -2.13307 0
M  V30 34746 C 3358.73 0.157984 -1.60022 0
M  V30 34747 O 3359.92 -0.0706927 -1.74057 0
M  V30 34748 C 3357.05 -0.25065 -3.39977 0
M  V30 34749 H 3358.24 -1.7707 -2.42046 0
M  V30 34750 H 3355.8 -0.95285 -1.23897 0
M  V30 34751 H 3356.53 0.690008 -3.16874 0
M  V30 34752 H 3356.32 -0.968523 -3.7995 0
M  V30 34753 H 3357.81 -0.0525849 -4.17567 0
M  V30 34754 N 3358.24 1.26349 -0.942 0
M  V30 34755 C 3359.15 2.30079 -0.458371 0
M  V30 34756 C 3360.17 1.67587 0.468054 0
M  V30 34757 O 3361.35 1.98381 0.347383 0
M  V30 34758 C 3358.41 3.45663 0.267909 0
M  V30 34759 C 3357.47 4.23634 -0.695177 0
M  V30 34760 C 3356.7 5.337 -0.00346281 0
M  V30 34761 O 3356.93 5.57346 1.21332 0
M  V30 34762 O 3355.86 5.98017 -0.682581 0
M  V30 34763 H 3359.69 2.73512 -1.32003 0
M  V30 34764 H 3357.27 1.31563 -0.70792 0
M  V30 34765 H 3359.15 4.15926 0.676987 0
M  V30 34766 H 3357.83 3.04258 1.10495 0
M  V30 34767 H 3356.74 3.55849 -1.15422 0
M  V30 34768 H 3358.07 4.68791 -1.49985 0
M  V30 34769 N 3359.72 0.709115 1.40746 0
M  V30 34770 C 3361.14 0.382016 1.54961 0
M  V30 34771 C 3361.34 -1.10982 1.68182 0
M  V30 34772 O 3360.39 -1.89581 1.66779 0
M  V30 34773 C 3361.71 1.14241 2.78154 0
M  V30 34774 C 3363.25 1.12808 2.91965 0
M  V30 34775 C 3363.73 1.87049 4.18063 0
M  V30 34776 N 3365.22 1.84086 4.25049 0
M  V30 34777 C 3365.96 2.38359 5.2151 0
M  V30 34778 N 3365.45 3.0116 6.23919 0
M  V30 34779 N 3367.24 2.28537 5.13544 0
M  V30 34780 H 3359.4 1.67652 1.30409 0
M  V30 34781 H 3361.66 0.708261 0.630135 0
M  V30 34782 H 3361.36 2.19695 2.74639 0
M  V30 34783 H 3361.24 0.729796 3.70073 0
M  V30 34784 H 3363.63 0.0817475 2.94987 0
M  V30 34785 H 3363.71 1.57986 2.01182 0
M  V30 34786 H 3363.35 2.91669 4.15802 0
M  V30 34787 H 3363.28 1.39296 5.07843 0
M  V30 34788 H 3365.77 1.38311 3.5168 0
M  V30 34789 H 3366.08 3.40106 6.93936 0
M  V30 34790 H 3364.43 3.05242 6.24381 0
M  V30 34791 H 3367.62 1.79137 4.32467 0
M  V30 34792 H 3367.79 2.71136 5.88548 0
M  V30 34793 N 3361.2 -1.50894 0.454829 0
M  V30 34794 C 3362.45 -2.02224 -0.105735 0
M  V30 34795 C 3362.77 -1.33792 -1.41174 0
M  V30 34796 O 3362.03 -0.447215 -1.90522 0
M  V30 34797 C 3362.33 -3.55642 -0.354097 0
M  V30 34798 C 3361.99 -4.42462 0.868214 0
M  V30 34799 C 3360.66 -4.6591 1.20338 0
M  V30 34800 C 3363.01 -4.93286 1.6828 0
M  V30 34801 C 3360.34 -5.37427 2.35349 0
M  V30 34802 C 3362.69 -5.66065 2.82406 0
M  V30 34803 C 3361.35 -5.87771 3.16356 0
M  V30 34804 H 3360.62 -0.739989 -0.0386911 0
M  V30 34805 H 3363.27 -1.81672 0.605596 0
M  V30 34806 H 3361.57 -3.74619 -1.14751 0
M  V30 34807 H 3363.27 -3.92908 -0.801531 0
M  V30 34808 H 3359.86 -4.24421 0.597069 0
M  V30 34809 H 3364.05 -4.75039 1.43706 0
M  V30 34810 H 3359.3 -5.52444 2.61946 0
M  V30 34811 H 3363.48 -6.04432 3.45883 0
M  V30 34812 H 3361.1 -6.42966 4.05585 0
M  V30 34813 N 3362.68 -0.186817 -1.56489 0
M  V30 34814 C 3363.9 0.463091 -2.02164 0
M  V30 34815 C 3364.33 1.54967 -1.06615 0
M  V30 34816 O 3363.69 1.81236 -0.0482457 0
M  V30 34817 C 3363.73 1.0041 -3.46338 0
M  V30 34818 O 3362.84 2.1174 -3.53892 0
M  V30 34819 H 3362.18 0.109183 -0.654962 0
M  V30 34820 H 3364.71 -0.295263 -2.02458 0
M  V30 34821 H 3364.72 1.3228 -3.85961 0
M  V30 34822 H 3363.39 0.20862 -4.15376 0
M  V30 34823 H 3361.97 1.80797 -3.26139 0
M  V30 34824 N 3364.16 1.57361 0.0868344 0
M  V30 34825 C 3365.57 1.75373 0.640411 0
M  V30 34826 C 3365.92 0.810172 1.78692 0
M  V30 34827 O 3365.04 -0.00936909 2.16398 0
M  V30 34828 C 3365.64 3.18012 1.1685 0
M  V30 34829 C 3364.2 3.3742 1.66807 0
M  V30 34830 C 3363.34 2.71143 0.581112 0
M  V30 34831 H 3366.29 1.58088 -0.139277 0
M  V30 34832 H 3366.32 3.2134 2.03766 0
M  V30 34833 H 3365.83 3.86661 0.333841 0
M  V30 34834 H 3363.93 2.73862 2.52647 0
M  V30 34835 H 3364.04 4.45784 1.75537 0
M  V30 34836 H 3362.41 2.33272 1.02255 0
M  V30 34837 H 3363.19 3.42438 -0.243107 0
M  V30 34838 N 3365.63 -0.357865 1.53483 0
M  V30 34839 C 3366.86 -1.12455 1.74266 0
M  V30 34840 C 3367.28 -1.8203 0.473976 0
M  V30 34841 O 3366.64 -1.72024 -0.5725 0
M  V30 34842 C 3366.69 -2.12466 2.9136 0
M  V30 34843 O 3365.79 -3.19702 2.60508 0
M  V30 34844 H 3365.13 -0.325927 0.578505 0
M  V30 34845 H 3367.66 -0.412631 2.00396 0
M  V30 34846 H 3367.67 -2.55935 3.17744 0
M  V30 34847 H 3366.35 -1.61219 3.83381 0
M  V30 34848 H 3364.93 -2.81152 2.44966 0
M  V30 34849 N 3367.11 -1.44974 -0.618094 0
M  V30 34850 C 3368.04 -1.55676 -1.74032 0
M  V30 34851 C 3369.02 -0.408929 -1.65111 0
M  V30 34852 O 3370.21 -0.63073 -1.83672 0
M  V30 34853 C 3367.34 -1.51308 -3.12607 0
M  V30 34854 C 3366.29 -2.64701 -3.36329 0
M  V30 34855 C 3365.62 -2.45386 -4.75068 0
M  V30 34856 C 3366.92 -4.06778 -3.27611 0
M  V30 34857 H 3368.61 -2.49611 -1.65332 0
M  V30 34858 H 3366.16 -1.20133 -0.793982 0
M  V30 34859 H 3368.11 -1.57394 -3.90903 0
M  V30 34860 H 3366.83 -0.538971 -3.22122 0
M  V30 34861 H 3365.49 -2.58026 -2.60419 0
M  V30 34862 H 3365.14 -1.46138 -4.81303 0
M  V30 34863 H 3364.84 -3.21421 -4.91897 0
M  V30 34864 H 3366.37 -2.5331 -5.55577 0
M  V30 34865 H 3367.78 -4.14753 -3.95794 0
M  V30 34866 H 3366.18 -4.83119 -3.55972 0
M  V30 34867 H 3367.25 -4.29427 -2.25212 0
M  V30 34868 N 3368.59 0.85967 -1.32089 0
M  V30 34869 C 3369.5 2.00022 -1.2259 0
M  V30 34870 C 3370.52 1.73432 -0.140507 0
M  V30 34871 O 3371.69 1.98152 -0.360247 0
M  V30 34872 C 3368.76 3.33594 -0.944254 0
M  V30 34873 C 3367.82 3.73439 -2.11759 0
M  V30 34874 C 3367.05 5.00637 -1.84928 0
M  V30 34875 O 3367.27 5.64911 -0.789398 0
M  V30 34876 O 3366.21 5.37494 -2.70895 0
M  V30 34877 H 3370.03 2.1097 -2.18461 0
M  V30 34878 H 3367.62 0.989557 -1.11929 0
M  V30 34879 H 3369.5 4.13669 -0.803462 0
M  V30 34880 H 3368.18 3.23696 -0.0156652 0
M  V30 34881 H 3367.08 2.9396 -2.31383 0
M  V30 34882 H 3368.42 3.87976 -3.02879 0
M  V30 34883 N 3370.07 1.15217 1.0753 0
M  V30 34884 C 3371.03 0.849928 2.12859 0
M  V30 34885 C 3372.03 -0.149495 1.60104 0
M  V30 34886 O 3373.22 0.0799224 1.74017 0
M  V30 34887 C 3370.35 0.268677 3.3984 0
M  V30 34888 H 3371.55 1.78351 2.41103 0
M  V30 34889 H 3369.1 0.959407 1.2339 0
M  V30 34890 H 3369.83 -0.673194 3.17236 0
M  V30 34891 H 3369.62 0.988659 3.79431 0
M  V30 34892 H 3371.11 0.0747288 4.17533 0
M  V30 34893 N 3371.55 -1.25848 0.948687 0
M  V30 34894 C 3372.51 -2.24356 0.468712 0
M  V30 34895 C 3373.51 -1.551 -0.424327 0
M  V30 34896 O 3374.7 -1.72774 -0.22245 0
M  V30 34897 C 3371.83 -3.39361 -0.323531 0
M  V30 34898 H 3373.02 -2.68332 1.33933 0
M  V30 34899 H 3370.58 -1.38132 0.731382 0
M  V30 34900 H 3371.31 -3.00798 -1.21207 0
M  V30 34901 H 3371.1 -3.90816 0.317067 0
M  V30 34902 H 3372.59 -4.12526 -0.649015 0
M  V30 34903 N 3373.02 -0.716569 -1.40368 0
M  V30 34904 C 3373.93 -0.0656992 -2.34508 0
M  V30 34905 C 3374.95 0.742695 -1.57353 0
M  V30 34906 O 3376.13 0.675423 -1.89737 0
M  V30 34907 C 3373.19 0.844277 -3.36263 0
M  V30 34908 C 3372.25 0.0257217 -4.29292 0
M  V30 34909 C 3371.49 0.89236 -5.26187 0
M  V30 34910 O 3371.71 2.13157 -5.29075 0
M  V30 34911 O 3370.64 0.330827 -6.0099 0
M  V30 34912 H 3374.47 -0.842235 -2.91788 0
M  V30 34913 H 3372.05 -0.477059 -1.41579 0
M  V30 34914 H 3373.94 1.36548 -3.98663 0
M  V30 34915 H 3372.61 1.59994 -2.81396 0
M  V30 34916 H 3371.52 -0.540577 -3.70174 0
M  V30 34917 H 3372.85 -0.691746 -4.87315 0
M  V30 34918 N 3374.5 1.50651 -0.462825 0
M  V30 34919 C 3375.43 2.26164 0.371797 0
M  V30 34920 C 3376.45 1.31168 0.964297 0
M  V30 34921 O 3377.64 1.5674 0.854106 0
M  V30 34922 C 3374.74 3.02162 1.53464 0
M  V30 34923 C 3373.91 4.24451 1.05642 0
M  V30 34924 C 3372.97 4.82812 2.09234 0
M  V30 34925 O 3371.99 5.43956 1.67631 0
M  V30 34926 N 3373.2 4.69082 3.41968 0
M  V30 34927 H 3375.96 2.98431 -0.275528 0
M  V30 34928 H 3373.52 1.59224 -0.293137 0
M  V30 34929 H 3375.51 3.38087 2.2244 0
M  V30 34930 H 3374.08 2.32746 2.08681 0
M  V30 34931 H 3373.3 3.93728 0.192826 0
M  V30 34932 H 3374.59 5.03755 0.714707 0
M  V30 34933 H 3373.99 4.20436 3.78484 0
M  V30 34934 H 3372.55 5.09298 4.06766 0
M  V30 34935 N 3375.98 0.195113 1.56388 0
M  V30 34936 C 3376.89 -0.737704 2.227 0
M  V30 34937 C 3377.91 -1.23464 1.22608 0
M  V30 34938 O 3379.08 -1.2818 1.55344 0
M  V30 34939 C 3376.15 -1.94006 2.87337 0
M  V30 34940 C 3375.21 -1.48769 4.02699 0
M  V30 34941 C 3374.44 -2.63274 4.64244 0
M  V30 34942 O 3374.66 -3.80756 4.24713 0
M  V30 34943 O 3373.6 -2.35986 5.5371 0
M  V30 34944 H 3377.42 -0.20296 3.03021 0
M  V30 34945 H 3375.01 -0.0341781 1.49361 0
M  V30 34946 H 3376.89 -2.64278 3.2823 0
M  V30 34947 H 3375.57 -2.46341 2.09995 0
M  V30 34948 H 3374.47 -0.753774 3.66427 0
M  V30 34949 H 3375.81 -1.01101 4.81705 0
M  V30 34950 N 3377.46 -1.57404 -0.0784879 0
M  V30 34951 C 3378.68 -1.91523 -0.795838 0
M  V30 34952 C 3379.11 -0.790922 -1.70664 0
M  V30 34953 O 3378.47 0.256629 -1.79475 0
M  V30 34954 C 3378.51 -3.24572 -1.57116 0
M  V30 34955 O 3377.62 -3.13333 -2.68135 0
M  V30 34956 H 3376.96 -0.627345 -0.217564 0
M  V30 34957 H 3379.49 -2.04542 -0.0487364 0
M  V30 34958 H 3379.5 -3.58284 -1.95184 0
M  V30 34959 H 3378.17 -4.05982 -0.902838 0
M  V30 34960 H 3376.75 -2.91167 -2.32973 0
M  V30 34961 N 3378.94 0.34972 -1.53671 0
M  V30 34962 C 3380.18 1.0885 -1.70283 0
M  V30 34963 C 3380.51 1.89363 -0.465471 0
M  V30 34964 O 3379.78 1.88856 0.520582 0
M  V30 34965 H 3378.36 0.404843 -0.627783 0
M  V30 34966 H 3381.02 0.392489 -1.90907 0
M  V30 34967 H 3380.11 1.76937 -2.57099 0
M  V30 34968 N 3380.41 1.45299 0.610397 0
M  V30 34969 C 3381.32 1.56288 1.74961 0
M  V30 34970 C 3382.34 0.447465 1.68148 0
M  V30 34971 O 3383.52 0.707758 1.88554 0
M  V30 34972 C 3380.58 1.52388 3.11414 0
M  V30 34973 C 3379.64 2.74946 3.29702 0
M  V30 34974 C 3378.88 2.71223 4.59645 0
M  V30 34975 O 3379.1 1.78392 5.41786 0
M  V30 34976 O 3378.03 3.62384 4.80585 0
M  V30 34977 H 3381.86 2.52574 1.68641 0
M  V30 34978 H 3379.44 1.27778 0.774146 0
M  V30 34979 H 3381.33 1.52811 3.92717 0
M  V30 34980 H 3380 0.592528 3.18231 0
M  V30 34981 H 3378.91 2.80086 2.47998 0
M  V30 34982 H 3380.24 3.67198 3.2776 0
M  V30 34983 N 3381.89 -0.852653 1.32543 0
M  V30 34984 C 3382.82 -1.97692 1.24258 0
M  V30 34985 C 3383.8 -1.69633 0.126001 0
M  V30 34986 O 3384.99 -1.91653 0.313503 0
M  V30 34987 C 3382.12 -3.33568 0.966933 0
M  V30 34988 C 3381.07 -3.75986 2.04496 0
M  V30 34989 C 3380.4 -5.09515 1.62169 0
M  V30 34990 C 3381.7 -3.91238 3.4602 0
M  V30 34991 H 3383.39 -2.04882 2.18321 0
M  V30 34992 H 3380.94 -0.984352 1.05102 0
M  V30 34993 H 3382.89 -4.11775 0.895516 0
M  V30 34994 H 3381.62 -3.26599 -0.00933189 0
M  V30 34995 H 3380.27 -3.00032 2.10657 0
M  V30 34996 H 3379.92 -4.99003 0.632816 0
M  V30 34997 H 3379.62 -5.38867 2.343 0
M  V30 34998 H 3381.15 -5.90212 1.56467 0
M  V30 34999 H 3382.56 -4.59793 3.42438 0
M  V30 35000 H 3380.96 -4.3201 4.16518 0
M  V30 35001 H 3382.03 -2.94093 3.85535 0
M  V30 35002 N 3383.37 -1.15786 -1.06918 0
M  V30 35003 C 3384.65 -0.845856 -1.76365 0
M  V30 35004 C 3385.03 0.657636 -2.00595 0
M  V30 35005 O 3384.38 1.60342 -1.62797 0
M  V30 35006 C 3384.59 -1.66154 -3.0691 0
M  V30 35007 C 3385.93 -1.87053 -3.81178 0
M  V30 35008 O 3386.96 -1.62967 -3.16734 0
M  V30 35009 O 3385.82 -2.27422 -4.96932 0
M  V30 35010 H 3382.91 -0.311506 -0.766089 0
M  V30 35011 H 3385.46 -1.26388 -1.13243 0
M  V30 35012 H 3384.23 -2.6821 -2.84919 0
M  V30 35013 H 3383.85 -1.24014 -3.77765 0
M  V30 35014 N 3384.85 1.25343 -0.955348 0
M  V30 35015 C 3386.26 1.74977 -0.651148 0
M  V30 35016 C 3386.61 1.77617 0.833464 0
M  V30 35017 O 3385.74 1.39748 1.65225 0
M  V30 35018 C 3386.33 3.17762 -1.17527 0
M  V30 35019 C 3384.89 3.64953 -0.921215 0
M  V30 35020 C 3384.04 2.43982 -1.31789 0
M  V30 35021 H 3386.99 1.1122 -1.13207 0
M  V30 35022 H 3387.01 3.7671 -0.535691 0
M  V30 35023 H 3386.52 3.15809 -2.2558 0
M  V30 35024 H 3384.62 3.7232 0.144326 0
M  V30 35025 H 3384.73 4.53054 -1.55818 0
M  V30 35026 H 3383.1 2.43826 -0.736262 0
M  V30 35027 H 3383.88 2.44718 -2.40765 0
M  V30 35028 N 3386.33 0.724003 1.39986 0
M  V30 35029 C 3387.58 0.266622 2.00334 0
M  V30 35030 C 3387.9 -1.14676 1.57716 0
M  V30 35031 O 3387.17 -1.77894 0.820402 0
M  V30 35032 H 3385.75 0.095586 0.740859 0
M  V30 35033 H 3388.41 0.931511 1.71198 0
M  V30 35034 H 3387.5 0.306337 3.10593 0
M  V30 35035 N 3387.81 -1.50403 0.470808 0
M  V30 35036 C 3388.74 -2.25189 -0.369492 0
M  V30 35037 C 3389.72 -1.28489 -0.996455 0
M  V30 35038 O 3390.9 -1.57711 -1.03244 0
M  V30 35039 C 3388.03 -3.02793 -1.51769 0
M  V30 35040 C 3387.07 -4.14414 -1.00813 0
M  V30 35041 S 3387.91 -5.35445 0.0769381 0
M  V30 35042 C 3389.06 -6.16597 -1.07514 0
M  V30 35043 H 3389.3 -2.96114 0.265338 0
M  V30 35044 H 3386.83 -1.52268 0.255689 0
M  V30 35045 H 3388.79 -3.48096 -2.17576 0
M  V30 35046 H 3387.45 -2.31395 -2.12404 0
M  V30 35047 H 3386.64 -4.68116 -1.86772 0
M  V30 35048 H 3386.24 -3.71545 -0.427785 0
M  V30 35049 H 3388.53 -6.47713 -1.98682 0
M  V30 35050 H 3389.48 -7.05742 -0.577394 0
M  V30 35051 H 3389.89 -5.48636 -1.32884 0
M  V30 35052 N 3389.28 -0.203404 -1.56282 0
M  V30 35053 C 3390.19 0.725883 -2.23088 0
M  V30 35054 C 3391.21 1.22812 -1.23261 0
M  V30 35055 O 3392.39 1.27354 -1.56022 0
M  V30 35056 C 3389.45 1.9248 -2.88362 0
M  V30 35057 C 3388.51 1.46631 -4.03482 0
M  V30 35058 C 3387.74 2.60808 -4.65634 0
M  V30 35059 O 3387.97 3.78498 -4.26726 0
M  V30 35060 O 3386.9 2.33046 -5.54953 0
M  V30 35061 H 3390.73 0.186887 -3.03124 0
M  V30 35062 H 3388.31 0.0262567 -1.49377 0
M  V30 35063 H 3390.19 2.62533 -3.29627 0
M  V30 35064 H 3388.87 2.45224 -2.11298 0
M  V30 35065 H 3387.78 0.734331 -3.66822 0
M  V30 35066 H 3389.11 0.98545 -4.82234 0
M  V30 35067 N 3390.76 1.57444 0.0701393 0
M  V30 35068 C 3392.17 1.76042 0.621774 0
M  V30 35069 C 3392.52 0.829079 1.77822 0
M  V30 35070 O 3391.65 0.0135833 2.16396 0
M  V30 35071 C 3392.24 3.19233 1.13471 0
M  V30 35072 C 3390.8 3.3917 1.63219 0
M  V30 35073 C 3389.95 2.71744 0.552321 0
M  V30 35074 H 3392.9 1.57931 -0.156036 0
M  V30 35075 H 3392.92 3.23483 2.00346 0
M  V30 35076 H 3392.43 3.86994 0.292812 0
M  V30 35077 H 3390.53 2.76526 2.49728 0
M  V30 35078 H 3390.65 4.47621 1.70799 0
M  V30 35079 H 3389.01 2.34344 0.997756 0
M  V30 35080 H 3389.79 3.42161 -0.279414 0
M  V30 35081 N 3392.24 -0.341566 1.53854 0
M  V30 35082 C 3393.2 -1.40248 1.81282 0
M  V30 35083 C 3394.2 -1.4553 0.683941 0
M  V30 35084 O 3395.39 -1.45871 0.952228 0
M  V30 35085 C 3392.52 -2.79157 1.95663 0
M  V30 35086 H 3393.72 -1.17191 2.76055 0
M  V30 35087 H 3391.27 -0.576064 1.45297 0
M  V30 35088 H 3392.01 -3.07495 1.03039 0
M  V30 35089 H 3391.79 -2.7672 2.77793 0
M  V30 35090 H 3393.28 -3.55941 2.18393 0
M  V30 35091 N 3393.72 -1.45621 -0.602683 0
M  V30 35092 C 3394.68 -1.54274 -1.69506 0
M  V30 35093 C 3395.68 -0.421755 -1.5517 0
M  V30 35094 O 3396.87 -0.685403 -1.6015 0
M  V30 35095 C 3394 -1.44397 -3.08808 0
M  V30 35096 H 3395.2 -2.51607 -1.63198 0
M  V30 35097 H 3392.75 -1.33135 -0.818834 0
M  V30 35098 H 3393.48 -0.482671 -3.20688 0
M  V30 35099 H 3393.27 -2.25709 -3.20621 0
M  V30 35100 H 3394.76 -1.53495 -3.88367 0
M  V30 35101 N 3395.2 0.845612 -1.32993 0
M  V30 35102 C 3396.15 1.94322 -1.19259 0
M  V30 35103 C 3397.13 1.60606 -0.0971984 0
M  V30 35104 O 3398.32 1.73998 -0.324621 0
M  V30 35105 C 3395.45 3.30545 -0.927085 0
M  V30 35106 C 3394.54 3.70452 -2.06461 0
M  V30 35107 N 3394.93 3.8211 -3.314 0
M  V30 35108 C 3393.23 4.00144 -1.9698 0
M  V30 35109 C 3393.93 4.16617 -4.05962 0
M  V30 35110 N 3392.9 4.28623 -3.3434 0
M  V30 35111 H 3396.7 2.01481 -2.13968 0
M  V30 35112 H 3394.22 1.03793 -1.24903 0
M  V30 35113 H 3396.22 4.08963 -0.809637 0
M  V30 35114 H 3394.88 3.24698 0.0115399 0
M  V30 35115 H 3395.89 3.66193 -3.66228 0
M  V30 35116 H 3392.56 4.02547 -1.10735 0
M  V30 35117 H 3393.95 4.3303 -5.13746 0
M  V30 35118 N 3396.67 1.16351 1.06302 0
M  V30 35119 C 3397.9 0.969672 1.83336 0
M  V30 35120 C 3398.32 -0.477199 1.81946 0
M  V30 35121 O 3397.68 -1.34092 1.2202 0
M  V30 35122 C 3397.73 1.5016 3.27848 0
M  V30 35123 O 3396.83 0.707877 4.06279 0
M  V30 35124 H 3396.17 0.345082 0.567287 0
M  V30 35125 H 3398.7 1.54587 1.3403 0
M  V30 35126 H 3398.71 1.51905 3.78667 0
M  V30 35127 H 3397.39 2.55489 3.28174 0
M  V30 35128 H 3395.97 0.760936 3.65054 0
M  V30 35129 N 3398.15 -1.24835 0.961982 0
M  V30 35130 C 3399.08 -2.27945 0.506281 0
M  V30 35131 C 3400.06 -1.64008 -0.451154 0
M  V30 35132 O 3401.25 -1.91047 -0.348519 0
M  V30 35133 C 3398.38 -3.46666 -0.209785 0
M  V30 35134 C 3397.33 -4.22832 0.663109 0
M  V30 35135 C 3396.66 -5.34383 -0.184122 0
M  V30 35136 C 3397.96 -4.84739 1.94488 0
M  V30 35137 H 3399.65 -2.66315 1.3681 0
M  V30 35138 H 3397.2 -1.28021 0.659283 0
M  V30 35139 H 3399.15 -4.17929 -0.539765 0
M  V30 35140 H 3397.87 -3.07306 -1.10591 0
M  V30 35141 H 3396.53 -3.53362 0.976278 0
M  V30 35142 H 3396.18 -4.91264 -1.08022 0
M  V30 35143 H 3395.88 -5.8626 0.396673 0
M  V30 35144 H 3397.41 -6.08476 -0.508902 0
M  V30 35145 H 3398.82 -5.48106 1.68084 0
M  V30 35146 H 3397.22 -5.46823 2.47192 0
M  V30 35147 H 3398.29 -4.06513 2.64339 0
M  V30 35148 N 3399.63 -0.731417 -1.396 0
M  V30 35149 C 3400.88 -0.287083 -2.01364 0
M  V30 35150 C 3401.23 1.11224 -1.56993 0
M  V30 35151 O 3400.52 1.7468 -0.787232 0
M  V30 35152 C 3400.72 -0.323415 -3.55934 0
M  V30 35153 C 3400.55 -1.72473 -4.15311 0
M  V30 35154 C 3399.32 -2.33613 -4.48055 0
M  V30 35155 C 3401.51 -2.67772 -4.39093 0
M  V30 35156 N 3399.5 -3.65936 -4.92914 0
M  V30 35157 C 3400.87 -3.84824 -4.86118 0
M  V30 35158 C 3402.92 -2.6558 -4.21155 0
M  V30 35159 C 3401.63 -5.00014 -5.17086 0
M  V30 35160 C 3403.65 -3.7991 -4.53235 0
M  V30 35161 C 3403.01 -4.95698 -5.00463 0
M  V30 35162 H 3399.11 -0.15123 -0.767238 0
M  V30 35163 H 3401.7 -0.956618 -1.69579 0
M  V30 35164 H 3399.87 0.315751 -3.87114 0
M  V30 35165 H 3401.6 0.139129 -4.04461 0
M  V30 35166 H 3398.35 -1.85569 -4.35731 0
M  V30 35167 H 3398.78 -4.33861 -5.19706 0
M  V30 35168 H 3403.42 -1.77257 -3.83849 0
M  V30 35169 H 3401.14 -5.88969 -5.533 0
M  V30 35170 H 3404.72 -3.79508 -4.40982 0
M  V30 35171 H 3403.6 -5.82699 -5.24816 0
M  V30 35172 N 3401.11 1.50152 -0.478778 0
M  V30 35173 C 3402.39 1.9513 0.135498 0
M  V30 35174 C 3402.77 1.41947 1.56251 0
M  V30 35175 O 3402.11 0.623712 2.19823 0
M  V30 35176 C 3402.32 3.48928 0.0709423 0
M  V30 35177 C 3403.67 4.23828 0.256 0
M  V30 35178 O 3404.7 3.55896 0.147171 0
M  V30 35179 O 3403.55 5.44417 0.476645 0
M  V30 35180 H 3400.65 0.819986 0.107477 0
M  V30 35181 H 3403.19 1.60888 -0.53973 0
M  V30 35182 H 3401.97 3.80208 -0.925079 0
M  V30 35183 H 3401.59 3.89727 0.787293 0
M  V30 35184 N 3402.59 0.211689 1.56172 0
M  V30 35185 C 3403.52 -0.697336 2.22844 0
M  V30 35186 C 3404.5 -1.20864 1.19691 0
M  V30 35187 O 3405.68 -1.25444 1.48248 0
M  V30 35188 C 3402.81 -1.90988 2.9007 0
M  V30 35189 C 3401.77 -1.53283 3.9961 0
M  V30 35190 C 3401.09 -2.82335 4.54083 0
M  V30 35191 C 3402.39 -0.730242 5.1717 0
M  V30 35192 H 3404.09 -0.141481 2.99066 0
M  V30 35193 H 3401.63 -0.0666085 1.43846 0
M  V30 35194 H 3403.59 -2.55117 3.354 0
M  V30 35195 H 3402.31 -2.49054 2.1128 0
M  V30 35196 H 3400.97 -0.915052 3.54996 0
M  V30 35197 H 3400.62 -3.38525 3.72035 0
M  V30 35198 H 3400.32 -2.57844 5.28006 0
M  V30 35199 H 3401.84 -3.47423 5.02125 0
M  V30 35200 H 3403.25 -1.275 5.58942 0
M  V30 35201 H 3401.65 -0.582811 5.97263 0
M  V30 35202 H 3402.72 0.265242 4.84174 0
M  V30 35203 N 3404.06 -1.57479 -0.0617887 0
M  V30 35204 C 3405.29 -1.9197 -0.771691 0
M  V30 35205 C 3405.71 -0.808579 -1.70609 0
M  V30 35206 O 3405.06 0.217423 -1.812 0
M  V30 35207 C 3405.12 -3.2626 -1.55681 0
M  V30 35208 O 3404.84 -4.33101 -0.659956 0
M  V30 35209 C 3406.34 -3.74829 -2.36682 0
M  V30 35210 H 3403.56 -0.634311 -0.218839 0
M  V30 35211 H 3406.1 -2.04479 -0.0290709 0
M  V30 35212 H 3404.26 -3.15248 -2.25161 0
M  V30 35213 H 3404.67 -5.10422 -1.20706 0
M  V30 35214 H 3406.14 -4.71395 -2.87212 0
M  V30 35215 H 3406.62 -3.04346 -3.16655 0
M  V30 35216 H 3407.23 -3.88818 -1.72339 0
M  V30 35217 N 3405.54 0.333401 -1.54033 0
M  V30 35218 C 3406.95 0.908427 -1.63109 0
M  V30 35219 C 3407.3 1.89215 -0.518857 0
M  V30 35220 O 3406.43 2.13554 0.349813 0
M  V30 35221 C 3407.02 1.65442 -2.95659 0
M  V30 35222 C 3405.58 2.17831 -3.06964 0
M  V30 35223 C 3404.73 1.00059 -2.58619 0
M  V30 35224 H 3407.68 0.111252 -1.5831 0
M  V30 35225 H 3407.7 2.51798 -2.85268 0
M  V30 35226 H 3407.21 0.938197 -3.76589 0
M  V30 35227 H 3405.32 2.92598 -2.30688 0
M  V30 35228 H 3405.43 2.43506 -4.12604 0
M  V30 35229 H 3403.79 1.37693 -2.14273 0
M  V30 35230 H 3404.58 0.298841 -3.41997 0
M  V30 35231 N 3407.02 1.45939 0.594952 0
M  V30 35232 C 3407.95 1.58425 1.71533 0
M  V30 35233 C 3408.93 0.435145 1.6444 0
M  V30 35234 O 3410.12 0.659871 1.82645 0
M  V30 35235 C 3407.25 1.56263 3.1016 0
M  V30 35236 C 3406.2 2.70019 3.32075 0
M  V30 35237 C 3405.53 2.52913 4.71104 0
M  V30 35238 C 3406.83 4.11938 3.21098 0
M  V30 35239 H 3408.52 2.5221 1.6134 0
M  V30 35240 H 3406.07 1.21381 0.774769 0
M  V30 35241 H 3408.02 1.63593 3.88349 0
M  V30 35242 H 3406.74 0.590149 3.21224 0
M  V30 35243 H 3405.4 2.62137 2.56281 0
M  V30 35244 H 3405.05 1.53776 4.78917 0
M  V30 35245 H 3404.75 3.29205 4.86721 0
M  V30 35246 H 3406.27 2.62117 5.51477 0
M  V30 35247 H 3407.69 4.20997 3.89146 0
M  V30 35248 H 3406.09 4.88721 3.48241 0
M  V30 35249 H 3407.16 4.32956 2.18351 0
M  V30 35250 N 3408.5 -0.838547 1.3344 0
M  V30 35251 C 3409.72 -1.63111 1.281 0
M  V30 35252 C 3410.15 -1.87539 -0.145164 0
M  V30 35253 O 3409.51 -1.43973 -1.10189 0
M  V30 35254 C 3409.55 -2.95823 2.06206 0
M  V30 35255 O 3408.66 -3.87149 1.42088 0
M  V30 35256 H 3408 -0.496674 0.440694 0
M  V30 35257 H 3410.53 -1.04322 1.76006 0
M  V30 35258 H 3410.54 -3.45518 2.16983 0
M  V30 35259 H 3409.21 -2.77366 3.09905 0
M  V30 35260 H 3407.79 -3.45638 1.39959 0
M  V30 35261 N 3409.98 -1.16914 -1.05683 0
M  V30 35262 C 3411.39 -0.961182 -1.60057 0
M  V30 35263 C 3411.74 0.493376 -1.89895 0
M  V30 35264 O 3410.86 1.36775 -1.67695 0
M  V30 35265 C 3411.46 -1.73842 -2.908 0
M  V30 35266 C 3410.02 -1.57528 -3.41851 0
M  V30 35267 C 3409.16 -1.74322 -2.15655 0
M  V30 35268 H 3412.12 -1.31694 -0.885568 0
M  V30 35269 H 3412.14 -1.21787 -3.60483 0
M  V30 35270 H 3411.65 -2.79702 -2.69051 0
M  V30 35271 H 3409.75 -0.541349 -3.68646 0
M  V30 35272 H 3409.86 -2.36309 -4.16767 0
M  V30 35273 H 3408.23 -1.17119 -2.26175 0
M  V30 35274 H 3409.01 -2.81584 -1.96381 0
M  V30 35275 N 3411.45 1.24323 -0.968589 0
M  V30 35276 C 3412.42 2.23582 -0.504346 0
M  V30 35277 C 3413.42 1.55756 0.399598 0
M  V30 35278 O 3414.61 1.73106 0.194935 0
M  V30 35279 C 3411.74 3.39833 0.2695 0
M  V30 35280 H 3412.93 2.66167 -1.38185 0
M  V30 35281 H 3410.49 1.36951 -0.753265 0
M  V30 35282 H 3411.22 3.02688 1.16406 0
M  V30 35283 H 3411.01 3.90262 -0.379202 0
M  V30 35284 H 3412.5 4.13506 0.583303 0
M  V30 35285 N 3412.93 0.73881 1.3921 0
M  V30 35286 C 3414.34 0.357948 1.83237 0
M  V30 35287 C 3414.69 -1.1112 1.617 0
M  V30 35288 O 3413.82 -1.85751 1.1102 0
M  V30 35289 C 3414.41 0.642909 3.32644 0
M  V30 35290 C 3412.97 0.315498 3.75075 0
M  V30 35291 C 3412.12 0.903602 2.62165 0
M  V30 35292 H 3415.07 0.93615 1.28148 0
M  V30 35293 H 3415.09 -0.0840143 3.80407 0
M  V30 35294 H 3414.6 1.71224 3.48287 0
M  V30 35295 H 3412.71 -0.747842 3.65018 0
M  V30 35296 H 3412.82 0.800721 4.72361 0
M  V30 35297 H 3411.18 0.329972 2.52554 0
M  V30 35298 H 3411.97 1.97766 2.80612 0
M  V30 35299 N 3414.41 -1.49895 0.486734 0
M  V30 35300 C 3415.82 -1.86666 0.0354234 0
M  V30 35301 C 3416.17 -1.40029 -1.37428 0
M  V30 35302 O 3415.3 -0.771975 -2.02162 0
M  V30 35303 C 3415.89 -3.38751 0.057507 0
M  V30 35304 C 3414.45 -3.74876 -0.338398 0
M  V30 35305 C 3413.6 -2.73847 0.436244 0
M  V30 35306 H 3416.55 -1.42416 0.70024 0
M  V30 35307 H 3416.57 -3.73213 -0.741109 0
M  V30 35308 H 3416.08 -3.72665 1.08363 0
M  V30 35309 H 3414.18 -3.46567 -1.36829 0
M  V30 35310 H 3414.3 -4.79091 -0.0288677 0
M  V30 35311 H 3412.66 -2.54453 -0.112097 0
M  V30 35312 H 3413.44 -3.10605 1.46217 0
M  V30 35313 N 3415.89 -0.219968 -1.56057 0
M  V30 35314 C 3416.85 0.677265 -2.18965 0
M  V30 35315 C 3417.85 1.12281 -1.15107 0
M  V30 35316 O 3419.04 1.03187 -1.4035 0
M  V30 35317 C 3416.17 1.92759 -2.8117 0
M  V30 35318 H 3417.37 0.128825 -2.99623 0
M  V30 35319 H 3414.92 0.029647 -1.56272 0
M  V30 35320 H 3415.66 2.51794 -2.04378 0
M  V30 35321 H 3415.44 1.6166 -3.57223 0
M  V30 35322 H 3416.93 2.56687 -3.29396 0
M  V30 35323 N 3417.37 1.57509 0.0534363 0
M  V30 35324 C 3418.59 1.92765 0.765267 0
M  V30 35325 C 3419.02 0.817973 1.69384 0
M  V30 35326 O 3418.38 -0.228044 1.7986 0
M  V30 35327 C 3418.42 3.27031 1.51932 0
M  V30 35328 O 3417.53 3.17559 2.63116 0
M  V30 35329 H 3416.87 0.630727 0.207556 0
M  V30 35330 H 3419.4 2.04594 0.0161894 0
M  V30 35331 H 3419.41 3.61344 1.89459 0
M  V30 35332 H 3418.08 4.07367 0.838135 0
M  V30 35333 H 3416.66 2.94836 2.28311 0
M  V30 35334 N 3418.85 -0.325228 1.54208 0
M  V30 35335 C 3419.78 -1.4054 1.86469 0
M  V30 35336 C 3420.76 -1.54047 0.721351 0
M  V30 35337 O 3421.94 -1.67954 0.974935 0
M  V30 35338 C 3419.07 -2.77331 2.09057 0
M  V30 35339 C 3418.03 -2.78614 3.24898 0
M  V30 35340 C 3417.35 -4.18465 3.32854 0
M  V30 35341 C 3418.65 -2.4251 4.62587 0
M  V30 35342 H 3420.35 -1.13789 2.76934 0
M  V30 35343 H 3417.89 -0.545948 1.33249 0
M  V30 35344 H 3419.84 -3.5296 2.30211 0
M  V30 35345 H 3418.57 -3.05556 1.1534 0
M  V30 35346 H 3417.23 -2.05439 3.03629 0
M  V30 35347 H 3416.88 -4.43828 2.36698 0
M  V30 35348 H 3416.58 -4.20229 4.10708 0
M  V30 35349 H 3418.1 -4.95909 3.5624 0
M  V30 35350 H 3419.51 -3.07852 4.83632 0
M  V30 35351 H 3417.91 -2.55528 5.42978 0
M  V30 35352 H 3418.98 -1.37662 4.64949 0
M  V30 35353 N 3420.32 -1.46252 -0.587204 0
M  V30 35354 C 3421.6 -1.41805 -1.34725 0
M  V30 35355 C 3421.98 -0.0991724 -2.10867 0
M  V30 35356 O 3421.33 0.919205 -2.09196 0
M  V30 35357 C 3421.54 -2.64486 -2.27702 0
M  V30 35358 C 3422.89 -3.10443 -2.89672 0
M  V30 35359 O 3423.91 -2.65003 -2.38016 0
M  V30 35360 O 3422.77 -3.89359 -3.83487 0
M  V30 35361 H 3419.86 -0.563713 -0.605109 0
M  V30 35362 H 3422.41 -1.58412 -0.608596 0
M  V30 35363 H 3421.18 -3.52038 -1.70836 0
M  V30 35364 H 3420.8 -2.50316 -3.08914 0
M  V30 35365 N 3421.8 0.831459 -1.33883 0
M  V30 35366 C 3422.73 1.9569 -1.27387 0
M  V30 35367 C 3423.71 1.69411 -0.152972 0
M  V30 35368 O 3424.9 1.9113 -0.343954 0
M  V30 35369 C 3422.03 3.31988 -1.01988 0
M  V30 35370 C 3420.98 3.72685 -2.10452 0
M  V30 35371 C 3420.31 5.0687 -1.70254 0
M  V30 35372 C 3421.61 3.85684 -3.52201 0
M  V30 35373 H 3423.3 2.01382 -2.21552 0
M  V30 35374 H 3420.85 0.967507 -1.06655 0
M  V30 35375 H 3422.8 4.10298 -0.960913 0
M  V30 35376 H 3421.52 3.26572 -0.0426283 0
M  V30 35377 H 3420.18 2.96643 -2.15403 0
M  V30 35378 H 3419.83 4.97934 -0.712124 0
M  V30 35379 H 3419.53 5.35071 -2.42843 0
M  V30 35380 H 3421.06 5.87648 -1.65837 0
M  V30 35381 H 3422.47 4.54287 -3.49709 0
M  V30 35382 H 3420.87 4.25329 -4.23338 0
M  V30 35383 H 3421.94 2.87922 -3.90165 0
M  V30 35384 N 3423.28 1.17472 1.05062 0
M  V30 35385 C 3424.24 0.894887 2.11008 0
M  V30 35386 C 3425.24 -0.115501 1.60385 0
M  V30 35387 O 3426.43 0.116816 1.73808 0
M  V30 35388 C 3423.56 0.340701 3.39193 0
M  V30 35389 H 3424.76 1.83425 2.37266 0
M  V30 35390 H 3422.31 0.985364 1.21327 0
M  V30 35391 H 3423.05 -0.605752 3.18592 0
M  V30 35392 H 3422.83 1.06892 3.77249 0
M  V30 35393 H 3424.32 0.163277 4.17281 0
M  V30 35394 N 3424.76 -1.23807 0.975168 0
M  V30 35395 C 3425.69 -2.27395 0.530429 0
M  V30 35396 C 3426.67 -1.64477 -0.433734 0
M  V30 35397 O 3427.85 -1.91406 -0.328236 0
M  V30 35398 C 3424.98 -3.46869 -0.173005 0
M  V30 35399 C 3423.94 -4.22105 0.707919 0
M  V30 35400 C 3423.26 -5.34548 -0.127433 0
M  V30 35401 C 3424.56 -4.82649 1.99618 0
M  V30 35402 H 3426.26 -2.64849 1.39627 0
M  V30 35403 H 3423.8 -1.27315 0.672824 0
M  V30 35404 H 3425.76 -4.18478 -0.495408 0
M  V30 35405 H 3424.48 -3.08462 -1.07325 0
M  V30 35406 H 3423.14 -3.52306 1.0137 0
M  V30 35407 H 3422.79 -4.92382 -1.02805 0
M  V30 35408 H 3422.49 -5.85806 0.458831 0
M  V30 35409 H 3424.01 -6.08981 -0.444336 0
M  V30 35410 H 3425.43 -5.46293 1.73888 0
M  V30 35411 H 3423.82 -5.44171 2.52978 0
M  V30 35412 H 3424.89 -4.03686 2.68636 0
M  V30 35413 N 3426.24 -0.746182 -1.38816 0
M  V30 35414 C 3427.2 -0.121926 -2.28875 0
M  V30 35415 C 3428.2 0.655354 -1.46839 0
M  V30 35416 O 3429.39 0.482715 -1.67378 0
M  V30 35417 C 3426.52 0.83606 -3.30489 0
M  V30 35418 H 3427.71 -0.915503 -2.85585 0
M  V30 35419 H 3425.27 -0.512717 -1.47651 0
M  V30 35420 H 3426 1.65559 -2.78856 0
M  V30 35421 H 3425.79 0.281202 -3.9109 0
M  V30 35422 H 3427.28 1.26907 -3.9785 0
M  V30 35423 N 3427.71 1.49635 -0.494676 0
M  V30 35424 C 3429.12 1.86645 -0.0453222 0
M  V30 35425 C 3429.48 1.40755 1.36683 0
M  V30 35426 O 3428.6 0.782685 2.0175 0
M  V30 35427 C 3429.2 3.38716 -0.075471 0
M  V30 35428 C 3427.75 3.7505 0.318513 0
M  V30 35429 C 3426.9 2.73612 -0.45076 0
M  V30 35430 H 3429.85 1.42043 -0.707783 0
M  V30 35431 H 3429.87 3.73601 0.721306 0
M  V30 35432 H 3429.39 3.72085 -1.10337 0
M  V30 35433 H 3427.49 3.47288 1.34989 0
M  V30 35434 H 3427.6 4.791 0.00345995 0
M  V30 35435 H 3425.96 2.54509 0.0986007 0
M  V30 35436 H 3426.75 3.09825 -1.47862 0
M  V30 35437 N 3429.19 0.228241 1.55939 0
M  V30 35438 C 3430.15 -0.665643 2.19321 0
M  V30 35439 C 3431.15 -1.11669 1.15701 0
M  V30 35440 O 3432.34 -1.02441 1.40895 0
M  V30 35441 C 3429.48 -1.91265 2.82189 0
M  V30 35442 H 3430.67 -0.112933 2.99687 0
M  V30 35443 H 3428.22 -0.0213591 1.56285 0
M  V30 35444 H 3428.96 -2.50706 2.0571 0
M  V30 35445 H 3428.74 -1.59763 3.58076 0
M  V30 35446 H 3430.23 -2.54936 3.30753 0
M  V30 35447 N 3430.67 -1.57536 -0.0450825 0
M  V30 35448 C 3432.08 -1.77009 -0.593689 0
M  V30 35449 C 3432.43 -0.857264 -1.76481 0
M  V30 35450 O 3431.56 -0.0480083 -2.16347 0
M  V30 35451 C 3432.15 -3.20998 -1.08377 0
M  V30 35452 C 3430.71 -3.41724 -1.57802 0
M  V30 35453 C 3429.86 -2.72588 -0.509019 0
M  V30 35454 H 3432.81 -1.57663 0.181142 0
M  V30 35455 H 3432.83 -3.2663 -1.95175 0
M  V30 35456 H 3432.34 -3.87411 -0.231208 0
M  V30 35457 H 3430.44 -2.80464 -2.45297 0
M  V30 35458 H 3430.56 -4.50281 -1.63656 0
M  V30 35459 H 3428.92 -2.35901 -0.960347 0
M  V30 35460 H 3429.7 -3.41673 0.333813 0
M  V30 35461 N 3432.15 0.317045 -1.54378 0
M  V30 35462 C 3433.37 1.07795 -1.77186 0
M  V30 35463 C 3433.8 1.8071 -0.522072 0
M  V30 35464 O 3433.16 1.73481 0.52669 0
M  V30 35465 C 3433.2 2.04666 -2.96891 0
M  V30 35466 O 3432.31 3.12683 -2.68892 0
M  V30 35467 H 3431.65 0.310474 -0.586943 0
M  V30 35468 H 3434.18 0.359354 -2.01419 0
M  V30 35469 H 3434.19 2.4742 -3.24418 0
M  V30 35470 H 3432.86 1.50998 -3.87521 0
M  V30 35471 H 3431.44 2.74558 -2.52334 0
M  V30 35472 N 3433.63 1.46561 0.57944 0
M  V30 35473 C 3434.56 1.60236 1.69843 0
M  V30 35474 C 3435.54 0.452562 1.63969 0
M  V30 35475 O 3436.72 0.679206 1.81935 0
M  V30 35476 C 3433.85 1.59543 3.08485 0
M  V30 35477 C 3432.81 2.73526 3.29193 0
M  V30 35478 C 3432.13 2.57896 4.68395 0
M  V30 35479 C 3433.43 4.15321 3.16711 0
M  V30 35480 H 3435.13 2.53907 1.58656 0
M  V30 35481 H 3432.67 1.22196 0.761852 0
M  V30 35482 H 3434.63 1.67703 3.86592 0
M  V30 35483 H 3433.35 0.624186 3.2058 0
M  V30 35484 H 3432.01 2.6484 2.53486 0
M  V30 35485 H 3431.66 1.58847 4.77259 0
M  V30 35486 H 3431.36 3.34349 4.83202 0
M  V30 35487 H 3432.88 2.67951 5.48666 0
M  V30 35488 H 3434.29 4.251 3.84659 0
M  V30 35489 H 3432.69 4.92387 3.43038 0
M  V30 35490 H 3433.76 4.35247 2.13747 0
M  V30 35491 N 3435.1 -0.824347 1.34322 0
M  V30 35492 C 3436.52 -1.39701 1.23857 0
M  V30 35493 C 3436.87 -1.95724 -0.136532 0
M  V30 35494 O 3435.99 -1.89946 -1.0368 0
M  V30 35495 C 3436.59 -2.53961 2.24253 0
M  V30 35496 C 3435.15 -3.07139 2.17584 0
M  V30 35497 C 3434.29 -1.80004 2.10936 0
M  V30 35498 H 3437.24 -0.628866 1.45709 0
M  V30 35499 H 3437.26 -3.32013 1.8587 0
M  V30 35500 H 3436.78 -2.13156 3.24324 0
M  V30 35501 H 3434.88 -3.52452 1.20864 0
M  V30 35502 H 3434.99 -3.66326 3.08775 0
M  V30 35503 H 3433.35 -2.00843 1.56634 0
M  V30 35504 H 3434.14 -1.41375 3.12839 0
M  V30 35505 N 3436.58 -1.18028 -1.04437 0
M  V30 35506 C 3437.83 -0.971423 -1.77222 0
M  V30 35507 C 3438.15 0.50053 -1.88467 0
M  V30 35508 O 3437.42 1.36315 -1.40695 0
M  V30 35509 H 3436 -0.356433 -0.656479 0
M  V30 35510 H 3438.66 -1.48642 -1.26062 0
M  V30 35511 H 3437.76 -1.40625 -2.78623 0
M  V30 35512 N 3438.06 1.23288 -0.98172 0
M  V30 35513 C 3439.34 1.87181 -0.567692 0
M  V30 35514 C 3439.72 1.88255 0.955161 0
M  V30 35515 O 3439.07 1.36508 1.83243 0
M  V30 35516 C 3439.28 3.28616 -1.17527 0
M  V30 35517 C 3440.62 4.05198 -1.26884 0
M  V30 35518 O 3441.65 3.3784 -1.12883 0
M  V30 35519 O 3440.51 5.25747 -1.49173 0
M  V30 35520 H 3437.6 0.804563 -0.191329 0
M  V30 35521 H 3440.15 1.31153 -1.07689 0
M  V30 35522 H 3438.92 3.22407 -2.21741 0
M  V30 35523 H 3438.54 3.92235 -0.650982 0
M  V30 35524 N 3439.54 0.753533 1.38418 0
M  V30 35525 C 3440.47 0.0742084 2.28079 0
M  V30 35526 C 3441.45 -0.728373 1.45374 0
M  V30 35527 O 3442.63 -0.707012 1.74739 0
M  V30 35528 C 3439.76 -0.901706 3.26477 0
M  V30 35529 C 3438.81 -0.185363 4.26097 0
M  V30 35530 S 3439.64 1.11381 5.23789 0
M  V30 35531 C 3440.8 0.140971 6.25741 0
M  V30 35532 H 3441.03 0.834525 2.85347 0
M  V30 35533 H 3438.56 0.546114 1.44419 0
M  V30 35534 H 3440.52 -1.45943 3.83681 0
M  V30 35535 H 3439.18 -1.63499 2.68192 0
M  V30 35536 H 3438.37 -0.924491 4.95448 0
M  V30 35537 H 3437.98 0.300837 3.72788 0
M  V30 35538 H 3440.27 -0.693055 6.73946 0
M  V30 35539 H 3441.21 0.802143 7.03542 0
M  V30 35540 H 3441.62 -0.239701 5.63991 0
M  V30 35541 N 3441.02 -1.49371 0.502605 0
M  V30 35542 C 3442.26 -2.02058 -0.0412637 0
M  V30 35543 C 3442.59 -1.38433 -1.37336 0
M  V30 35544 O 3441.86 -0.540208 -1.88304 0
M  V30 35545 H 3440.44 -0.746777 -0.0182391 0
M  V30 35546 H 3443.1 -1.83377 0.660211 0
M  V30 35547 H 3442.19 -3.11638 -0.169758 0
M  V30 35548 N 3442.49 -0.236508 -1.55815 0
M  V30 35549 C 3443.77 0.4409 -1.90566 0
M  V30 35550 C 3444.15 1.76643 -1.15588 0
M  V30 35551 O 3443.5 2.26899 -0.269989 0
M  V30 35552 C 3443.71 0.61919 -3.43463 0
M  V30 35553 C 3445.06 0.919817 -4.14517 0
M  V30 35554 O 3446.08 0.705435 -3.49145 0
M  V30 35555 O 3444.94 1.32749 -5.30132 0
M  V30 35556 H 3442.03 0.235185 -0.792854 0
M  V30 35557 H 3444.58 -0.279803 -1.67377 0
M  V30 35558 H 3443.35 -0.315192 -3.90028 0
M  V30 35559 H 3442.98 1.39082 -3.72481 0
M  V30 35560 N 3443.97 1.57557 0.0367273 0
M  V30 35561 C 3445.22 1.88547 0.727632 0
M  V30 35562 C 3445.54 0.83321 1.76303 0
M  V30 35563 O 3444.81 -0.134106 1.9544 0
M  V30 35564 H 3443.39 0.695824 0.271732 0
M  V30 35565 H 3446.05 1.94899 0.00449489 0
M  V30 35566 H 3445.15 2.87182 1.222 0
M  V30 35567 N 3445.45 -0.308854 1.54544 0
M  V30 35568 C 3446.7 -1.04263 1.72662 0
M  V30 35569 C 3447.01 -1.88693 0.515213 0
M  V30 35570 O 3448.22 -2.65275 0.578035 0
M  V30 35571 C 3446.68 -1.90335 3.05452 0
M  V30 35572 C 3446.28 -1.10945 4.34045 0
M  V30 35573 C 3448.03 -2.63359 3.3293 0
M  V30 35574 C 3445.93 -1.96248 5.57889 0
M  V30 35575 H 3444.86 -0.392981 0.643492 0
M  V30 35576 H 3447.52 -0.300045 1.8103 0
M  V30 35577 H 3445.9 -2.6855 2.91028 0
M  V30 35578 H 3447.07 -0.373988 4.5928 0
M  V30 35579 H 3445.39 -0.495381 4.13443 0
M  V30 35580 H 3447.98 -3.27517 4.22655 0
M  V30 35581 H 3448.33 -3.31776 2.51457 0
M  V30 35582 H 3448.86 -1.92197 3.48289 0
M  V30 35583 H 3445.6 -1.32315 6.42007 0
M  V30 35584 H 3445.12 -2.67489 5.36852 0
M  V30 35585 H 3446.8 -2.54484 5.9485 0
M  V30 35586 N 3446.93 -1.46867 -0.571659 0
M  V30 35587 C 3447.86 -1.61134 -1.68991 0
M  V30 35588 C 3448.84 -0.461251 -1.63727 0
M  V30 35589 O 3450.03 -0.688845 -1.81572 0
M  V30 35590 C 3447.16 -1.61177 -3.07635 0
M  V30 35591 C 3446.11 -2.75267 -3.27737 0
M  V30 35592 C 3445.44 -2.60376 -4.67021 0
M  V30 35593 C 3446.74 -4.16995 -3.14504 0
M  V30 35594 H 3448.43 -2.54745 -1.57307 0
M  V30 35595 H 3445.98 -1.22598 -0.755361 0
M  V30 35596 H 3447.93 -1.69751 -3.85697 0
M  V30 35597 H 3446.65 -0.641179 -3.20244 0
M  V30 35598 H 3445.31 -2.66181 -2.52078 0
M  V30 35599 H 3444.96 -1.61376 -4.7641 0
M  V30 35600 H 3444.66 -3.36907 -4.81422 0
M  V30 35601 H 3446.18 -2.70857 -5.47237 0
M  V30 35602 H 3447.6 -4.27134 -3.82399 0
M  V30 35603 H 3445.99 -4.94199 -3.40422 0
M  V30 35604 H 3447.06 -4.36375 -2.11436 0
M  V30 35605 N 3448.41 0.817212 -1.34757 0
M  V30 35606 C 3449.82 1.39042 -1.24596 0
M  V30 35607 C 3450.17 1.95794 0.12615 0
M  V30 35608 O 3449.29 1.90493 1.02671 0
M  V30 35609 C 3449.89 2.52768 -2.25597 0
M  V30 35610 C 3448.45 3.05981 -2.1921 0
M  V30 35611 C 3447.6 1.78883 -2.11887 0
M  V30 35612 H 3450.55 0.62113 -1.4604 0
M  V30 35613 H 3450.57 3.31023 -1.87628 0
M  V30 35614 H 3450.08 2.11433 -3.2545 0
M  V30 35615 H 3448.18 3.51806 -1.22731 0
M  V30 35616 H 3448.29 3.64683 -3.10713 0
M  V30 35617 H 3446.66 2.00009 -1.57697 0
M  V30 35618 H 3447.44 1.39714 -3.13584 0
M  V30 35619 N 3449.89 1.1858 1.0381 0
M  V30 35620 C 3451.13 0.993756 1.78616 0
M  V30 35621 C 3451.49 -0.468101 1.86206 0
M  V30 35622 O 3452.69 -0.779669 2.57244 0
M  V30 35623 C 3450.96 1.63362 3.1788 0
M  V30 35624 S 3452.52 1.58969 4.08992 0
M  V30 35625 H 3449.34 0.356802 0.61499 0
M  V30 35626 H 3451.94 1.50769 1.24455 0
M  V30 35627 H 3450.64 2.68977 3.09967 0
M  V30 35628 H 3450.18 1.12009 3.77117 0
M  V30 35629 H 3452.19 0.607387 4.92469 0
M  V30 35630 N 3451.36 -1.22766 0.988245 0
M  V30 35631 C 3452.31 -2.22315 0.505952 0
M  V30 35632 C 3453.3 -1.55232 -0.423319 0
M  V30 35633 O 3454.49 -1.75213 -0.250896 0
M  V30 35634 C 3451.62 -3.42814 -0.182646 0
M  V30 35635 C 3450.7 -4.17113 0.766656 0
M  V30 35636 N 3451.1 -4.68246 1.91256 0
M  V30 35637 C 3449.39 -4.42192 0.581581 0
M  V30 35638 C 3450.09 -5.24855 2.50802 0
M  V30 35639 N 3449.07 -5.13243 1.79115 0
M  V30 35640 H 3452.87 -2.59487 1.37998 0
M  V30 35641 H 3450.39 -1.38384 0.849912 0
M  V30 35642 H 3452.38 -4.13315 -0.545522 0
M  V30 35643 H 3451.04 -3.07156 -1.05287 0
M  V30 35644 H 3452.05 -4.64348 2.29351 0
M  V30 35645 H 3448.73 -4.16792 -0.242966 0
M  V30 35646 H 3450.12 -5.74987 3.47619 0
M  V30 35647 N 3452.84 -0.760864 -1.38017 0
M  V30 35648 C 3453.77 -0.153597 -2.32994 0
M  V30 35649 C 3454.75 0.69542 -1.55235 0
M  V30 35650 O 3455.94 0.635116 -1.83521 0
M  V30 35651 C 3453.07 0.734752 -3.39439 0
M  V30 35652 C 3452.02 -0.012104 -4.27998 0
M  V30 35653 C 3451.35 0.994975 -5.25361 0
M  V30 35654 C 3452.65 -1.18477 -5.08685 0
M  V30 35655 H 3454.34 -0.947006 -2.84028 0
M  V30 35656 H 3451.89 -0.45684 -1.36561 0
M  V30 35657 H 3453.84 1.16931 -4.04852 0
M  V30 35658 H 3452.56 1.56056 -2.86904 0
M  V30 35659 H 3451.22 -0.427318 -3.64101 0
M  V30 35660 H 3450.87 1.81504 -4.69111 0
M  V30 35661 H 3450.57 0.499866 -5.8547 0
M  V30 35662 H 3452.1 1.4287 -5.9365 0
M  V30 35663 H 3453.51 -0.8274 -5.67298 0
M  V30 35664 H 3451.91 -1.61123 -5.78065 0
M  V30 35665 H 3452.98 -1.99416 -4.41997 0
M  V30 35666 N 3454.32 1.49102 -0.510519 0
M  V30 35667 C 3455.23 2.33074 0.267135 0
M  V30 35668 C 3456.25 1.45247 0.958092 0
M  V30 35669 O 3457.42 1.78257 0.937368 0
M  V30 35670 C 3454.49 3.20914 1.31207 0
M  V30 35671 C 3453.55 4.246 0.633538 0
M  V30 35672 C 3452.78 5.08242 1.62869 0
M  V30 35673 O 3453 4.93548 2.85949 0
M  V30 35674 O 3451.94 5.90245 1.17877 0
M  V30 35675 H 3455.76 3.00776 -0.420437 0
M  V30 35676 H 3453.35 1.46908 -0.271709 0
M  V30 35677 H 3455.23 3.75302 1.91641 0
M  V30 35678 H 3453.91 2.55896 1.9824 0
M  V30 35679 H 3452.81 3.74098 -0.0107904 0
M  V30 35680 H 3454.15 4.922 0.00549118 0
M  V30 35681 N 3455.8 0.244768 1.55688 0
M  V30 35682 C 3457.04 -0.382131 2.00796 0
M  V30 35683 C 3457.4 -1.55284 1.1292 0
M  V30 35684 O 3458.6 -2.24733 1.47475 0
M  V30 35685 C 3456.87 -0.783647 3.48703 0
M  V30 35686 S 3458.43 -1.40137 4.15821 0
M  V30 35687 H 3455.25 -0.12033 0.700744 0
M  V30 35688 H 3457.85 0.359501 1.92166 0
M  V30 35689 H 3456.56 0.0777279 4.10326 0
M  V30 35690 H 3456.09 -1.55751 3.61255 0
M  V30 35691 H 3458.1 -2.69042 4.1693 0
M  V30 35692 N 3457.28 -1.57574 -0.0283712 0
M  V30 35693 C 3458.5 -1.93958 -0.734503 0
M  V30 35694 C 3458.93 -0.844817 -1.68061 0
M  V30 35695 O 3458.28 0.1994 -1.802 0
M  V30 35696 C 3458.33 -3.29406 -1.4671 0
M  V30 35697 O 3457.44 -3.21705 -2.5803 0
M  V30 35698 H 3456.78 -0.633949 -0.197496 0
M  V30 35699 H 3459.31 -2.04593 0.0163617 0
M  V30 35700 H 3459.32 -3.64312 -1.83687 0
M  V30 35701 H 3457.99 -4.08649 -0.77322 0
M  V30 35702 H 3456.57 -2.98431 -2.23591 0
M  V30 35703 N 3458.75 0.300654 -1.54706 0
M  V30 35704 C 3459.66 1.39338 -1.88738 0
M  V30 35705 C 3460.68 1.55459 -0.781577 0
M  V30 35706 O 3461.86 1.70116 -1.07807 0
M  V30 35707 C 3458.92 2.7371 -2.128 0
M  V30 35708 C 3457.98 2.66571 -3.36509 0
M  V30 35709 C 3457.21 3.94534 -3.59414 0
M  V30 35710 O 3457.44 4.93909 -2.85324 0
M  V30 35711 O 3456.37 3.96407 -4.5293 0
M  V30 35712 H 3460.2 1.13479 -2.81702 0
M  V30 35713 H 3457.78 0.496746 -1.409 0
M  V30 35714 H 3459.66 3.53211 -2.29826 0
M  V30 35715 H 3458.34 2.99412 -1.23022 0
M  V30 35716 H 3457.25 1.85541 -3.24847 0
M  V30 35717 H 3458.58 2.45822 -4.26418 0
M  V30 35718 N 3460.23 1.47168 0.563863 0
M  V30 35719 C 3461.2 1.58714 1.65356 0
M  V30 35720 C 3462.2 0.462747 1.53998 0
M  V30 35721 O 3463.39 0.727623 1.58276 0
M  V30 35722 C 3460.52 1.52534 3.04871 0
M  V30 35723 H 3461.71 2.55846 1.5647 0
M  V30 35724 H 3459.26 1.35259 0.783248 0
M  V30 35725 H 3460 0.567526 3.19296 0
M  V30 35726 H 3459.78 2.34131 3.14524 0
M  V30 35727 H 3461.27 1.63738 3.84161 0
M  V30 35728 N 3461.71 -0.810054 1.35188 0
M  V30 35729 C 3462.67 -1.90329 1.27701 0
M  V30 35730 C 3463.67 -1.59683 0.189244 0
M  V30 35731 O 3464.86 -1.6848 0.442718 0
M  V30 35732 C 3462 -3.26669 0.974688 0
M  V30 35733 H 3463.19 -1.98388 2.24905 0
M  V30 35734 H 3460.74 -1.00552 1.19662 0
M  V30 35735 H 3461.48 -3.24299 0.0063638 0
M  V30 35736 H 3461.26 -3.50298 1.76164 0
M  V30 35737 H 3462.75 -4.06702 0.947814 0
M  V30 35738 N 3463.19 -1.19129 -1.0318 0
M  V30 35739 C 3464.42 -1.01729 -1.80163 0
M  V30 35740 C 3464.83 0.434063 -1.83743 0
M  V30 35741 O 3464.19 1.3015 -1.27935 0
M  V30 35742 C 3464.24 -1.57572 -3.25351 0
M  V30 35743 O 3463.96 -2.97025 -3.22036 0
M  V30 35744 C 3465.46 -1.44914 -4.18945 0
M  V30 35745 H 3462.68 -0.358708 -0.567071 0
M  V30 35746 H 3465.23 -1.57879 -1.29979 0
M  V30 35747 H 3463.38 -1.05577 -3.72736 0
M  V30 35748 H 3463.79 -3.23242 -4.13055 0
M  V30 35749 H 3465.27 -1.88771 -5.18719 0
M  V30 35750 H 3465.75 -0.399202 -4.37382 0
M  V30 35751 H 3466.35 -1.96024 -3.77431 0
M  V30 35752 N 3464.67 1.2224 -0.994741 0
M  V30 35753 C 3465.58 2.27927 -0.555542 0
M  V30 35754 C 3466.59 1.69421 0.396554 0
M  V30 35755 O 3467.77 1.99676 0.26293 0
M  V30 35756 C 3464.83 3.46489 0.12106 0
M  V30 35757 C 3463.89 4.20304 -0.874229 0
M  V30 35758 C 3463.13 5.33205 -0.22982 0
M  V30 35759 O 3463.35 5.61991 0.975836 0
M  V30 35760 O 3462.28 5.94584 -0.935606 0
M  V30 35761 H 3466.11 2.67667 -1.43485 0
M  V30 35762 H 3463.7 1.28442 -0.763084 0
M  V30 35763 H 3465.58 4.18424 0.49997 0
M  V30 35764 H 3464.25 3.0867 0.974905 0
M  V30 35765 H 3463.16 3.50634 -1.30411 0
M  V30 35766 H 3464.49 4.62008 -1.69733 0
M  V30 35767 N 3466.14 0.768172 1.37611 0
M  V30 35768 C 3467.09 0.150217 2.30311 0
M  V30 35769 C 3468.06 -0.693734 1.50919 0
M  V30 35770 O 3469.25 -0.646839 1.79501 0
M  V30 35771 C 3466.39 -0.725701 3.37383 0
M  V30 35772 C 3465.5 0.134465 4.31791 0
M  V30 35773 C 3464.63 -0.745822 5.25938 0
M  V30 35774 C 3463.67 0.117096 6.11988 0
M  V30 35775 N 3462.81 -0.720968 6.98388 0
M  V30 35776 H 3467.65 0.946261 2.82577 0
M  V30 35777 H 3465.19 0.478241 1.39109 0
M  V30 35778 H 3467.15 -1.24832 3.98086 0
M  V30 35779 H 3465.78 -1.48738 2.8649 0
M  V30 35780 H 3464.83 0.774858 3.72425 0
M  V30 35781 H 3466.14 0.80025 4.92339 0
M  V30 35782 H 3465.29 -1.33506 5.91829 0
M  V30 35783 H 3464.03 -1.4453 4.65792 0
M  V30 35784 H 3463.04 0.718895 5.4508 0
M  V30 35785 H 3464.26 0.813851 6.74206 0
M  V30 35786 H 3462.21 -1.40513 6.40775 0
M  V30 35787 H 3462.13 -0.112403 7.55916 0
M  V30 35788 H 3463.39 -1.29471 7.68673 0
M  V30 35789 N 3467.62 -1.48829 0.518419 0
M  V30 35790 C 3469.03 -1.86549 0.0750101 0
M  V30 35791 C 3469.38 -1.42912 -1.34427 0
M  V30 35792 O 3468.51 -0.814683 -2.00479 0
M  V30 35793 C 3469.1 -3.38553 0.129348 0
M  V30 35794 C 3467.66 -3.75509 -0.258805 0
M  V30 35795 C 3466.81 -2.7286 0.494233 0
M  V30 35796 H 3469.76 -1.40899 0.730291 0
M  V30 35797 H 3469.78 -3.74701 -0.661778 0
M  V30 35798 H 3469.29 -3.70283 1.16243 0
M  V30 35799 H 3467.4 -3.49391 -1.29447 0
M  V30 35800 H 3467.51 -4.79045 0.0727611 0
M  V30 35801 H 3465.87 -2.54634 -0.0580981 0
M  V30 35802 H 3466.66 -3.07434 1.52773 0
M  V30 35803 N 3469.1 -0.253021 -1.55556 0
M  V30 35804 C 3470.33 0.37693 -2.03946 0
M  V30 35805 C 3470.75 1.50306 -1.13091 0
M  V30 35806 O 3470.11 1.80868 -0.125071 0
M  V30 35807 C 3470.16 0.856301 -3.50285 0
M  V30 35808 O 3469.26 1.9654 -3.62555 0
M  V30 35809 H 3468.6 0.0813055 -0.659003 0
M  V30 35810 H 3471.13 -0.380866 -2.01024 0
M  V30 35811 H 3471.14 1.15791 -3.91224 0
M  V30 35812 H 3469.82 0.0322571 -4.15887 0
M  V30 35813 H 3468.39 1.66802 -3.33514 0
M  V30 35814 N 3470.58 1.57587 0.0200142 0
M  V30 35815 C 3471.99 1.77931 0.565453 0
M  V30 35816 C 3472.34 0.885232 1.75095 0
M  V30 35817 O 3471.47 0.0824211 2.16243 0
M  V30 35818 C 3472.06 3.22682 1.03257 0
M  V30 35819 C 3470.62 3.44191 1.52346 0
M  V30 35820 C 3469.77 2.73363 0.465589 0
M  V30 35821 H 3472.72 1.57355 -0.206202 0
M  V30 35822 H 3472.74 3.29694 1.89954 0
M  V30 35823 H 3472.25 3.87729 0.169545 0
M  V30 35824 H 3470.35 2.84331 2.40804 0
M  V30 35825 H 3470.46 4.52828 1.56472 0
M  V30 35826 H 3468.83 2.37399 0.922696 0
M  V30 35827 H 3469.61 3.41099 -0.388128 0
M  V30 35828 N 3472.06 -0.292445 1.54863 0
M  V30 35829 C 3473.3 -1.02657 1.7455 0
M  V30 35830 C 3473.63 -1.86971 0.535928 0
M  V30 35831 O 3472.89 -1.89672 -0.481983 0
M  V30 35832 C 3473.19 -1.95458 2.99217 0
M  V30 35833 C 3472.85 -1.27052 4.3263 0
M  V30 35834 C 3471.51 -1.0813 4.68894 0
M  V30 35835 C 3473.87 -0.782187 5.15297 0
M  V30 35836 C 3471.19 -0.390707 5.85398 0
M  V30 35837 C 3473.55 -0.105281 6.32512 0
M  V30 35838 C 3472.21 0.0958271 6.67431 0
M  V30 35839 H 3471.48 -0.37565 0.638724 0
M  V30 35840 H 3474.13 -0.300638 1.89125 0
M  V30 35841 H 3472.43 -2.74608 2.79459 0
M  V30 35842 H 3474.13 -2.52347 3.11644 0
M  V30 35843 H 3470.72 -1.42788 4.04116 0
M  V30 35844 H 3474.9 -0.916065 4.87772 0
M  V30 35845 H 3470.16 -0.223988 6.1099 0
M  V30 35846 H 3474.33 0.280967 6.95833 0
M  V30 35847 H 3471.96 0.632943 7.5756 0
M  V30 35848 N 3473.53 -1.47465 -0.55605 0
M  V30 35849 C 3474.47 -1.56099 -1.67827 0
M  V30 35850 C 3475.48 -0.447104 -1.5654 0
M  V30 35851 O 3476.67 -0.716768 -1.63477 0
M  V30 35852 C 3473.77 -1.45028 -3.06301 0
M  V30 35853 C 3472.94 -2.71005 -3.43329 0
M  V30 35854 C 3472 -2.53754 -4.60972 0
M  V30 35855 O 3471.03 -3.27572 -4.65495 0
M  V30 35856 N 3472.23 -1.61657 -5.57537 0
M  V30 35857 H 3474.99 -2.52868 -1.60866 0
M  V30 35858 H 3472.55 -1.43859 -0.742715 0
M  V30 35859 H 3474.55 -1.3122 -3.82836 0
M  V30 35860 H 3473.12 -0.563365 -3.07482 0
M  V30 35861 H 3472.34 -2.99565 -2.56231 0
M  V30 35862 H 3473.62 -3.54635 -3.64844 0
M  V30 35863 H 3473.02 -1.00837 -5.5664 0
M  V30 35864 H 3471.58 -1.53801 -6.33395 0
M  V30 35865 N 3475.01 0.802873 -1.35616 0
M  V30 35866 C 3476.26 1.56245 -1.29288 0
M  V30 35867 C 3476.59 1.93755 0.13144 0
M  V30 35868 O 3475.87 1.61647 1.08169 0
M  V30 35869 C 3476.15 2.84859 -2.2029 0
M  V30 35870 C 3476 2.53802 -3.71355 0
M  V30 35871 C 3477.32 3.86589 -2.10325 0
M  V30 35872 H 3474.44 0.566873 -0.470982 0
M  V30 35873 H 3477.08 0.923439 -1.6605 0
M  V30 35874 H 3475.23 3.3939 -1.89069 0
M  V30 35875 H 3476.91 2.05426 -4.13035 0
M  V30 35876 H 3475.15 1.8694 -3.91453 0
M  V30 35877 H 3475.82 3.45603 -4.30422 0
M  V30 35878 H 3478.3 3.41468 -2.37778 0
M  V30 35879 H 3477.17 4.74352 -2.76191 0
M  V30 35880 H 3477.43 4.28545 -1.08634 0
M  V30 35881 N 3476.49 1.19674 1.02547 0
M  V30 35882 C 3477.9 1.00328 1.57452 0
M  V30 35883 C 3478.25 -0.442855 1.91137 0
M  V30 35884 O 3477.38 -1.32281 1.71262 0
M  V30 35885 C 3477.97 1.81491 2.86088 0
M  V30 35886 C 3476.53 1.66536 3.37554 0
M  V30 35887 C 3475.68 1.79979 2.10957 0
M  V30 35888 H 3478.63 1.33996 0.850341 0
M  V30 35889 H 3478.65 1.31302 3.57127 0
M  V30 35890 H 3478.16 2.86737 2.6154 0
M  V30 35891 H 3476.26 0.638898 3.67082 0
M  V30 35892 H 3476.38 2.47276 4.10355 0
M  V30 35893 H 3474.74 1.23075 2.2299 0
M  V30 35894 H 3475.52 2.86691 1.88847 0
M  V30 35895 N 3477.97 -1.21711 1.00121 0
M  V30 35896 C 3479.19 -1.95223 0.700206 0
M  V30 35897 C 3479.62 -1.73352 -0.730107 0
M  V30 35898 O 3478.98 -1.01797 -1.50024 0
M  V30 35899 C 3479.03 -3.45812 1.02208 0
M  V30 35900 O 3478.13 -4.1221 0.125261 0
M  V30 35901 H 3477.47 -0.610447 0.261249 0
M  V30 35902 H 3480 -1.54575 1.34043 0
M  V30 35903 H 3480.01 -3.96366 0.967362 0
M  V30 35904 H 3478.69 -3.61054 2.06428 0
M  V30 35905 H 3477.26 -3.72151 0.236179 0
M  V30 35906 N 3479.45 -0.775459 -1.37202 0
M  V30 35907 C 3480.36 -0.165103 -2.34018 0
M  V30 35908 C 3481.37 0.675288 -1.60362 0
M  V30 35909 O 3482.55 0.594342 -1.92431 0
M  V30 35910 C 3479.61 0.700897 -3.39541 0
M  V30 35911 C 3478.68 -0.156379 -4.29015 0
M  V30 35912 C 3477.91 0.668383 -5.29498 0
M  V30 35913 O 3478.13 1.90525 -5.3764 0
M  V30 35914 O 3477.07 0.0756293 -6.01852 0
M  V30 35915 H 3480.89 -0.965234 -2.87953 0
M  V30 35916 H 3478.48 -0.536678 -1.39428 0
M  V30 35917 H 3480.36 1.19517 -4.04096 0
M  V30 35918 H 3479.03 1.47915 -2.87928 0
M  V30 35919 H 3477.94 -0.697094 -3.67548 0
M  V30 35920 H 3479.27 -0.89781 -4.83942 0
M  V30 35921 N 3480.93 1.48552 -0.526305 0
M  V30 35922 C 3482.2 1.95462 0.0733506 0
M  V30 35923 C 3482.58 1.46846 1.51656 0
M  V30 35924 O 3481.93 0.693331 2.17727 0
M  V30 35925 C 3482.14 3.48977 -0.0401023 0
M  V30 35926 C 3483.49 4.24427 0.121033 0
M  V30 35927 O 3484.51 3.56184 0.0338709 0
M  V30 35928 O 3483.37 5.45658 0.303201 0
M  V30 35929 H 3480.47 0.822991 0.0813353 0
M  V30 35930 H 3483.01 1.5909 -0.590642 0
M  V30 35931 H 3481.78 3.77072 -1.04557 0
M  V30 35932 H 3481.41 3.92035 0.662906 0
M  V30 35933 N 3482.4 0.261267 1.55419 0
M  V30 35934 C 3483.64 -0.360813 2.0119 0
M  V30 35935 C 3484.01 -1.54078 1.1456 0
M  V30 35936 O 3485.21 -2.23156 1.4985 0
M  V30 35937 C 3483.48 -0.746618 3.49514 0
M  V30 35938 S 3485.04 -1.35719 4.17284 0
M  V30 35939 H 3481.86 -0.112891 0.70198 0
M  V30 35940 H 3484.46 0.379863 1.91774 0
M  V30 35941 H 3483.16 0.121244 4.10221 0
M  V30 35942 H 3482.69 -1.51911 3.62887 0
M  V30 35943 H 3484.71 -2.64605 4.1976 0
M  V30 35944 N 3483.88 -1.57596 -0.0116567 0
M  V30 35945 C 3484.84 -2.06641 -0.991564 0
M  V30 35946 C 3485.84 -0.973652 -1.27971 0
M  V30 35947 O 3487.03 -1.2367 -1.22684 0
M  V30 35948 C 3484.17 -2.49805 -2.3197 0
M  V30 35949 H 3485.36 -2.94481 -0.567555 0
M  V30 35950 H 3482.91 -1.54141 -0.258879 0
M  V30 35951 H 3483.65 -1.65174 -2.79084 0
M  V30 35952 H 3483.43 -3.29601 -2.1238 0
M  V30 35953 H 3484.92 -2.88117 -3.02288 0
M  V30 35954 N 3485.36 0.284228 -1.55016 0
M  V30 35955 C 3486.32 1.33423 -1.86362 0
M  V30 35956 C 3487.32 1.42891 -0.737482 0
M  V30 35957 O 3488.51 1.42236 -1.00571 0
M  V30 35958 C 3485.64 2.71703 -2.05889 0
M  V30 35959 H 3486.84 1.06864 -2.80214 0
M  V30 35960 H 3484.39 0.521741 -1.47335 0
M  V30 35961 H 3485.13 3.03459 -1.14381 0
M  V30 35962 H 3484.91 2.66219 -2.87871 0
M  V30 35963 H 3486.4 3.47591 -2.31453 0
M  V30 35964 N 3486.84 1.47758 0.548222 0
M  V30 35965 C 3487.79 1.61338 1.6755 0
M  V30 35966 C 3488.78 0.480364 1.62447 0
M  V30 35967 O 3489.99 0.658474 1.67523 0
M  V30 35968 H 3486.36 0.507904 0.554561 0
M  V30 35969 H 3488.33 2.5605 1.53235 0
M  V30 35970 C 3487.08 1.65325 3.0588 0
M  V30 35971 H 3486.4 2.51861 3.10493 0
M  V30 35972 H 3487.84 1.78875 3.84421 0
M  V30 35973 C 3486.3 0.388297 3.34655 0
M  V30 35974 O 3486.83 -0.506746 3.98491 0
M  V30 35975 N 3485.04 0.265564 2.89384 0
M  V30 35976 H 3484.59 0.994861 2.37614 0
M  V30 35977 H 3484.54 -0.579834 3.09007 0
M  V30 35978 N 3488.32 -0.79567 1.3604 0
M  V30 35979 C 3489.56 -1.5502 1.29665 0
M  V30 35980 C 3489.88 -1.94595 -0.125554 0
M  V30 35981 O 3489.15 -1.64458 -1.06444 0
M  V30 35982 H 3487.73 -0.574897 0.476972 0
M  V30 35983 H 3490.4 -0.948441 1.70266 0
M  V30 35984 H 3489.49 -2.46064 1.91987 0
M  V30 35985 N 3489.79 -1.20217 -1.0191 0
M  V30 35986 C 3491.21 -1.01162 -1.56918 0
M  V30 35987 C 3491.56 0.432712 -1.91369 0
M  V30 35988 O 3490.68 1.31371 -1.71961 0
M  V30 35989 C 3491.28 -1.83006 -2.85122 0
M  V30 35990 C 3489.84 -1.68324 -3.36666 0
M  V30 35991 C 3488.98 -1.81095 -2.1 0
M  V30 35992 H 3491.93 -1.34445 -0.843223 0
M  V30 35993 H 3491.95 -1.33194 -3.56426 0
M  V30 35994 H 3491.47 -2.8812 -2.60016 0
M  V30 35995 H 3489.57 -0.658357 -3.66738 0
M  V30 35996 H 3489.68 -2.49449 -4.09038 0
M  V30 35997 H 3488.04 -1.24255 -2.22335 0
M  V30 35998 H 3488.83 -2.87689 -1.87324 0
M  V30 35999 N 3491.27 1.21178 -1.00765 0
M  V30 36000 C 3492.5 1.94308 -0.71078 0
M  V30 36001 C 3492.92 1.74239 0.727073 0
M  V30 36002 O 3492.27 1.05068 1.49221 0
M  V30 36003 C 3492.32 3.46644 -1.02568 0
M  V30 36004 O 3492.04 3.6605 -2.40705 0
M  V30 36005 C 3493.55 4.36934 -0.748594 0
M  V30 36006 H 3490.77 0.617854 -0.261721 0
M  V30 36007 H 3493.31 1.53922 -1.34641 0
M  V30 36008 H 3491.46 3.84943 -0.435605 0
M  V30 36009 H 3491.88 4.60121 -2.51772 0
M  V30 36010 H 3493.35 5.42511 -1.01908 0
M  V30 36011 H 3493.83 4.38052 0.317346 0
M  V30 36012 H 3494.44 4.04284 -1.3204 0
M  V30 36013 N 3492.75 0.782725 1.36789 0
M  V30 36014 C 3493.66 0.177511 2.33927 0
M  V30 36015 C 3494.68 -0.666774 1.60718 0
M  V30 36016 O 3495.85 -0.584128 1.92743 0
M  V30 36017 C 3492.92 -0.682881 3.39908 0
M  V30 36018 C 3491.98 0.179129 4.28926 0
M  V30 36019 C 3491.21 -0.640293 5.29845 0
M  V30 36020 O 3491.43 -1.87671 5.38642 0
M  V30 36021 O 3490.37 -0.0437106 6.01884 0
M  V30 36022 H 3494.19 0.980492 2.87437 0
M  V30 36023 H 3491.78 0.544065 1.39141 0
M  V30 36024 H 3493.66 -1.17372 4.04724 0
M  V30 36025 H 3492.34 -1.46386 2.88709 0
M  V30 36026 H 3491.24 0.716576 3.67173 0
M  V30 36027 H 3492.58 0.923462 4.83459 0
M  V30 36028 N 3494.23 -1.48271 0.534176 0
M  V30 36029 C 3495.46 -2.06899 0.00578112 0
M  V30 36030 C 3495.87 -1.39014 -1.27752 0
M  V30 36031 O 3495.23 -0.479024 -1.76101 0
M  V30 36032 C 3495.28 -3.60845 -0.217513 0
M  V30 36033 O 3495 -4.26181 1.01495 0
M  V30 36034 C 3496.5 -4.3628 -0.785812 0
M  V30 36035 H 3493.72 -0.670065 0.0354084 0
M  V30 36036 H 3496.27 -1.90602 0.741017 0
M  V30 36037 H 3494.42 -3.76733 -0.902809 0
M  V30 36038 H 3494.83 -5.18389 0.798291 0
M  V30 36039 H 3496.31 -5.44754 -0.891455 0
M  V30 36040 H 3496.79 -4.00992 -1.79171 0
M  V30 36041 H 3497.39 -4.25079 -0.136948 0
M  V30 36042 N 3495.71 -0.269505 -1.55279 0
M  V30 36043 C 3496.93 0.355277 -2.04334 0
M  V30 36044 C 3497.36 1.49098 -1.14679 0
M  V30 36045 O 3496.71 1.80725 -0.144247 0
M  V30 36046 C 3496.76 0.819101 -3.51174 0
M  V30 36047 O 3495.87 1.92684 -3.64619 0
M  V30 36048 H 3495.21 0.0743113 -0.659829 0
M  V30 36049 H 3497.74 -0.402166 -2.00609 0
M  V30 36050 H 3497.75 1.11635 -3.9243 0
M  V30 36051 H 3496.42 -0.0118552 -4.15898 0
M  V30 36052 H 3495 1.63255 -3.35264 0
M  V30 36053 N 3497.18 1.576 0.00329885 0
M  V30 36054 C 3498.6 1.78521 0.546549 0
M  V30 36055 C 3498.95 0.903753 1.74146 0
M  V30 36056 O 3498.07 0.105352 2.16143 0
M  V30 36057 C 3498.67 3.23759 0.998287 0
M  V30 36058 C 3497.23 3.45788 1.48687 0
M  V30 36059 C 3496.37 2.73842 0.436569 0
M  V30 36060 H 3499.32 1.57127 -0.22288 0
M  V30 36061 H 3499.34 3.3169 1.86446 0
M  V30 36062 H 3498.86 3.87888 0.128411 0
M  V30 36063 H 3496.96 2.86869 2.37775 0
M  V30 36064 H 3497.07 4.54462 1.5166 0
M  V30 36065 H 3495.43 2.38365 0.897465 0
M  V30 36066 H 3496.22 3.40668 -0.424284 0
M  V30 36067 N 3498.66 -0.276003 1.55164 0
M  V30 36068 C 3499.61 -1.36101 1.88625 0
M  V30 36069 C 3500.6 -1.51279 0.762291 0
M  V30 36070 O 3501.81 -1.531 0.946599 0
M  V30 36071 H 3498.19 -0.455122 0.598638 0
M  V30 36072 H 3500.16 -1.05129 2.79268 0
M  V30 36073 C 3498.91 -2.71504 2.17211 0
M  V30 36074 H 3498.23 -2.60614 3.03183 0
M  V30 36075 H 3499.67 -3.46371 2.44547 0
M  V30 36076 C 3498.13 -3.2237 0.978727 0
M  V30 36077 O 3498.66 -4.01141 0.211836 0
M  V30 36078 N 3496.86 -2.80013 0.777248 0
M  V30 36079 H 3496.41 -2.16069 1.40256 0
M  V30 36080 H 3496.37 -3.14394 -0.0196201 0
M  V30 36081 N 3500.14 -1.48046 -0.540378 0
M  V30 36082 C 3501.55 -1.49194 -1.12241 0
M  V30 36083 C 3501.9 -0.255929 -1.94524 0
M  V30 36084 O 3501.03 0.637819 -2.06787 0
M  V30 36085 C 3501.62 -2.70331 -2.04222 0
M  V30 36086 C 3500.18 -2.74384 -2.57663 0
M  V30 36087 C 3499.33 -2.42554 -1.34398 0
M  V30 36088 H 3502.28 -1.55313 -0.326138 0
M  V30 36089 H 3502.3 -2.48258 -2.88354 0
M  V30 36090 H 3501.81 -3.60273 -1.44308 0
M  V30 36091 H 3499.91 -1.88624 -3.21328 0
M  V30 36092 H 3500.03 -3.75535 -2.97507 0
M  V30 36093 H 3498.39 -1.9349 -1.65632 0
M  V30 36094 H 3499.17 -3.34725 -0.762512 0
M  V30 36095 N 3501.62 0.788444 -1.3646 0
M  V30 36096 C 3503.03 1.36368 -1.27517 0
M  V30 36097 C 3503.38 1.96018 0.0845907 0
M  V30 36098 O 3502.51 1.92628 0.986076 0
M  V30 36099 C 3503.1 2.47926 -2.30908 0
M  V30 36100 C 3501.66 3.01262 -2.25651 0
M  V30 36101 C 3500.81 1.74348 -2.15634 0
M  V30 36102 H 3503.76 0.590013 -1.47325 0
M  V30 36103 H 3503.78 3.26968 -1.94607 0
M  V30 36104 H 3503.29 2.04482 -3.29862 0
M  V30 36105 H 3501.39 3.49124 -1.30166 0
M  V30 36106 H 3501.5 3.58011 -3.18379 0
M  V30 36107 H 3499.87 1.96619 -1.61904 0
M  V30 36108 H 3500.65 1.33031 -3.16477 0
M  V30 36109 N 3503.1 1.20755 1.01271 0
M  V30 36110 C 3504.34 1.01807 1.74585 0
M  V30 36111 C 3504.67 -0.450386 1.89728 0
M  V30 36112 O 3503.94 -1.32537 1.4426 0
M  V30 36113 H 3502.52 0.373713 0.646798 0
M  V30 36114 H 3505.18 1.51932 1.22076 0
M  V30 36115 H 3504.27 1.47963 2.74797 0
M  V30 36116 N 3504.58 -1.20642 1.01406 0
M  V30 36117 C 3505.99 -1.71671 0.733891 0
M  V30 36118 C 3506.34 -1.81391 -0.747772 0
M  V30 36119 O 3505.46 -1.47472 -1.5837 0
M  V30 36120 C 3506.06 -3.11793 1.32554 0
M  V30 36121 C 3504.62 -3.60142 1.09429 0
M  V30 36122 C 3503.76 -2.37416 1.43279 0
M  V30 36123 H 3506.71 -1.05692 1.18385 0
M  V30 36124 H 3506.74 -3.73725 0.714814 0
M  V30 36125 H 3506.25 -3.04686 2.40391 0
M  V30 36126 H 3504.35 -3.72585 0.0334768 0
M  V30 36127 H 3504.46 -4.45103 1.77256 0
M  V30 36128 H 3502.83 -2.40036 0.851756 0
M  V30 36129 H 3503.61 -2.32952 2.52167 0
M  V30 36130 N 3506.05 -0.789968 -1.36372 0
M  V30 36131 C 3507.02 -0.194679 -2.28372 0
M  V30 36132 C 3508.02 0.608306 -1.4885 0
M  V30 36133 O 3509.21 0.42922 -1.68829 0
M  V30 36134 C 3506.34 0.730495 -3.32981 0
M  V30 36135 H 3507.53 -1.0059 -2.82527 0
M  V30 36136 H 3505.08 -0.559431 -1.45945 0
M  V30 36137 H 3505.82 1.56603 -2.83982 0
M  V30 36138 H 3505.6 0.156637 -3.91787 0
M  V30 36139 H 3507.09 1.14185 -4.01686 0
M  V30 36140 N 3507.53 1.47986 -0.542031 0
M  V30 36141 C 3508.94 1.86406 -0.104679 0
M  V30 36142 C 3509.29 1.45033 1.32136 0
M  V30 36143 O 3508.42 0.846474 1.99158 0
M  V30 36144 C 3509.01 3.38304 -0.183193 0
M  V30 36145 C 3507.57 3.75873 0.199032 0
M  V30 36146 C 3506.72 2.72039 -0.53758 0
M  V30 36147 H 3509.67 1.39719 -0.752614 0
M  V30 36148 H 3509.69 3.75706 0.602083 0
M  V30 36149 H 3509.2 3.68386 -1.22119 0
M  V30 36150 H 3507.3 3.51407 1.23872 0
M  V30 36151 H 3507.42 4.78868 -0.148964 0
M  V30 36152 H 3505.78 2.54694 0.0175807 0
M  V30 36153 H 3506.56 3.04964 -1.57644 0
M  V30 36154 N 3509.01 0.277736 1.55133 0
M  V30 36155 C 3509.97 -0.595531 2.21328 0
M  V30 36156 C 3510.97 -1.07931 1.19195 0
M  V30 36157 O 3512.16 -0.979068 1.44083 0
M  V30 36158 C 3509.29 -1.82191 2.88131 0
M  V30 36159 H 3510.49 -0.0175328 2.99895 0
M  V30 36160 H 3508.04 0.0283728 1.56274 0
M  V30 36161 H 3508.78 -2.44035 2.13582 0
M  V30 36162 H 3508.56 -1.4829 3.62977 0
M  V30 36163 H 3510.05 -2.44285 3.38696 0
M  V30 36164 N 3510.49 -1.57599 0.00505908 0
M  V30 36165 C 3511.43 -2.08739 -0.984717 0
M  V30 36166 C 3512.4 -0.983939 -1.3382 0
M  V30 36167 O 3513.59 -1.25668 -1.43569 0
M  V30 36168 C 3510.73 -2.5995 -2.2698 0
M  V30 36169 C 3509.84 -3.84216 -1.97489 0
M  V30 36170 C 3508.98 -4.23909 -3.20116 0
M  V30 36171 C 3508.02 -5.40998 -2.86335 0
M  V30 36172 N 3507.15 -5.75961 -4.01514 0
M  V30 36173 H 3511.99 -2.93035 -0.541686 0
M  V30 36174 H 3509.53 -1.44859 -0.255809 0
M  V30 36175 H 3511.49 -2.87722 -3.02112 0
M  V30 36176 H 3510.12 -1.78521 -2.68943 0
M  V30 36177 H 3509.17 -3.63321 -1.12703 0
M  V30 36178 H 3510.48 -4.69444 -1.68594 0
M  V30 36179 H 3509.64 -4.5299 -4.0359 0
M  V30 36180 H 3508.38 -3.37401 -3.52154 0
M  V30 36181 H 3507.38 -5.11635 -2.01269 0
M  V30 36182 H 3508.61 -6.29187 -2.55539 0
M  V30 36183 H 3506.55 -4.9241 -4.33438 0
M  V30 36184 H 3506.47 -6.55774 -3.7616 0
M  V30 36185 H 3507.74 -6.09636 -4.85761 0
M  V30 36186 N 3511.97 0.267771 -1.55309 0
M  V30 36187 C 3512.93 1.31439 -1.87767 0
M  V30 36188 C 3513.93 1.42101 -0.752596 0
M  V30 36189 O 3515.12 1.41161 -1.02074 0
M  V30 36190 C 3512.25 2.69504 -2.08759 0
M  V30 36191 H 3513.44 1.03886 -2.81332 0
M  V30 36192 H 3511 0.506085 -1.4788 0
M  V30 36193 H 3511.73 3.02229 -1.17593 0
M  V30 36194 H 3511.52 2.63151 -2.90679 0
M  V30 36195 H 3513.01 3.45116 -2.35127 0
M  V30 36196 N 3513.44 1.48331 0.532519 0
M  V30 36197 C 3514.35 1.65342 1.6643 0
M  V30 36198 C 3515.37 0.535968 1.6554 0
M  V30 36199 O 3516.55 0.806711 1.84538 0
M  V30 36200 C 3513.61 1.68682 3.02898 0
M  V30 36201 C 3512.67 2.92036 3.14664 0
M  V30 36202 C 3511.9 2.95207 4.44622 0
M  V30 36203 O 3512.13 2.0686 5.31568 0
M  V30 36204 O 3511.06 3.87349 4.607 0
M  V30 36205 H 3514.89 2.61159 1.55016 0
M  V30 36206 H 3512.47 1.31702 0.705325 0
M  V30 36207 H 3514.35 1.73414 3.84065 0
M  V30 36208 H 3513.03 0.760382 3.14642 0
M  V30 36209 H 3511.94 2.92838 2.32802 0
M  V30 36210 H 3513.27 3.84056 3.07835 0
M  V30 36211 N 3514.92 -0.781196 1.36876 0
M  V30 36212 C 3515.87 -1.91555 1.31945 0
M  V30 36213 C 3516.86 -1.68096 0.209813 0
M  V30 36214 O 3518.07 -1.76001 0.377297 0
M  V30 36215 H 3514.44 -0.629771 0.410966 0
M  V30 36216 H 3516.42 -1.92832 2.27724 0
M  V30 36217 C 3515.16 -3.28693 1.13385 0
M  V30 36218 H 3514.49 -3.47316 1.98019 0
M  V30 36219 H 3515.93 -4.08392 1.13983 0
M  V30 36220 C 3514.39 -3.36515 -0.16106 0
M  V30 36221 O 3514.92 -3.84947 -1.14799 0
M  V30 36222 N 3513.12 -2.89851 -0.208543 0
M  V30 36223 H 3512.67 -2.50629 0.595232 0
M  V30 36224 H 3512.63 -2.95465 -1.0746 0
M  V30 36225 N 3516.4 -1.21291 -1.0063 0
M  V30 36226 C 3517.31 -0.986994 -2.12828 0
M  V30 36227 C 3518.33 0.0604846 -1.73895 0
M  V30 36228 O 3519.5 -0.129274 -2.00985 0
M  V30 36229 C 3516.57 -0.553149 -3.42259 0
M  V30 36230 C 3515.63 -1.67269 -3.95373 0
M  V30 36231 C 3514.86 -1.25945 -5.18627 0
M  V30 36232 O 3515.08 -0.132502 -5.70246 0
M  V30 36233 O 3514.02 -2.07086 -5.65154 0
M  V30 36234 H 3517.84 -1.92667 -2.34762 0
M  V30 36235 H 3515.43 -0.997674 -1.11206 0
M  V30 36236 H 3517.31 -0.320929 -4.20176 0
M  V30 36237 H 3515.99 0.357824 -3.21716 0
M  V30 36238 H 3514.89 -1.9593 -3.18688 0
M  V30 36239 H 3516.23 -2.56104 -4.20323 0
M  V30 36240 N 3517.88 1.20103 -1.02045 0
M  V30 36241 C 3518.79 2.26698 -0.603764 0
M  V30 36242 C 3519.8 1.70224 0.360528 0
M  V30 36243 O 3520.98 2.00189 0.220517 0
M  V30 36244 C 3518.04 3.46667 0.0475379 0
M  V30 36245 C 3517.11 4.18355 -0.963185 0
M  V30 36246 C 3516.34 5.32598 -0.342869 0
M  V30 36247 O 3516.56 5.63934 0.85641 0
M  V30 36248 O 3515.5 5.92466 -1.06152 0
M  V30 36249 H 3519.32 2.64564 -1.4913 0
M  V30 36250 H 3516.91 1.26795 -0.790156 0
M  V30 36251 H 3518.79 4.1939 0.411103 0
M  V30 36252 H 3517.46 3.10669 0.909212 0
M  V30 36253 H 3516.37 3.47788 -1.37819 0
M  V30 36254 H 3517.7 4.58304 -1.79495 0
M  V30 36255 N 3519.36 0.797189 1.35951 0
M  V30 36256 C 3520.32 0.206788 2.28265 0
M  V30 36257 C 3521.32 -0.600404 1.4917 0
M  V30 36258 O 3522.51 -0.420261 1.69055 0
M  V30 36259 C 3519.64 -0.712826 3.33364 0
M  V30 36260 H 3520.83 1.02087 2.8199 0
M  V30 36261 H 3518.39 0.567163 1.45647 0
M  V30 36262 H 3519.12 -1.55095 2.84809 0
M  V30 36263 H 3518.91 -0.135858 3.91865 0
M  V30 36264 H 3520.4 -1.12053 4.02286 0
M  V30 36265 N 3520.83 -1.47696 0.549872 0
M  V30 36266 C 3521.8 -2.284 -0.191386 0
M  V30 36267 C 3522.8 -1.36528 -0.849509 0
M  V30 36268 O 3523.99 -1.5923 -0.706498 0
M  V30 36269 C 3521.12 -3.15997 -1.27902 0
M  V30 36270 H 3522.31 -2.95403 0.517427 0
M  V30 36271 H 3519.87 -1.53265 0.306537 0
M  V30 36272 H 3520.6 -2.53669 -2.02046 0
M  V30 36273 H 3520.39 -3.836 -0.811999 0
M  V30 36274 H 3521.88 -3.76822 -1.79985 0
M  V30 36275 N 3522.31 -0.285959 -1.54984 0
M  V30 36276 C 3523.28 0.583785 -2.21641 0
M  V30 36277 C 3524.28 1.07298 -1.19766 0
M  V30 36278 O 3525.47 0.971413 -1.446 0
M  V30 36279 C 3522.6 1.8066 -2.89093 0
M  V30 36280 H 3523.79 0.00162838 -2.999 0
M  V30 36281 H 3521.34 -0.03666 -1.56257 0
M  V30 36282 H 3522.08 2.42899 -2.14874 0
M  V30 36283 H 3521.86 1.46363 -3.63758 0
M  V30 36284 H 3523.35 2.42485 -3.39987 0
M  V30 36285 N 3523.79 1.57594 -0.0134169 0
M  V30 36286 C 3525.03 1.93005 0.672944 0
M  V30 36287 C 3525.39 0.888846 1.70187 0
M  V30 36288 O 3526.6 1.12863 2.43958 0
M  V30 36289 C 3524.87 3.33409 1.28737 0
M  V30 36290 S 3526.43 3.90725 1.99699 0
M  V30 36291 H 3523.24 0.675466 0.22196 0
M  V30 36292 H 3525.85 1.95362 -0.0733214 0
M  V30 36293 H 3524.55 4.07017 0.52586 0
M  V30 36294 H 3524.08 3.34457 2.07128 0
M  V30 36295 H 3526.1 3.72887 3.27368 0
M  V30 36296 N 3525.27 -0.259531 1.55448 0
M  V30 36297 C 3526.68 -0.829571 1.67257 0
M  V30 36298 C 3527.03 -1.86524 0.608543 0
M  V30 36299 O 3526.16 -2.1498 -0.247525 0
M  V30 36300 C 3526.75 -1.51147 3.03216 0
M  V30 36301 C 3525.31 -2.02937 3.17007 0
M  V30 36302 C 3524.46 -0.876057 2.63098 0
M  V30 36303 H 3527.41 -0.0355939 1.5866 0
M  V30 36304 H 3527.43 -2.37901 2.96957 0
M  V30 36305 H 3526.94 -0.757453 3.80637 0
M  V30 36306 H 3525.04 -2.81258 2.44386 0
M  V30 36307 H 3525.15 -2.23543 4.23752 0
M  V30 36308 H 3523.52 -1.27313 2.20598 0
M  V30 36309 H 3524.3 -0.135329 3.43033 0
M  V30 36310 N 3526.75 -1.48611 -0.524645 0
M  V30 36311 C 3527.71 -1.63042 -1.6109 0
M  V30 36312 C 3528.71 -0.503414 -1.52717 0
M  V30 36313 O 3529.9 -0.769331 -1.56291 0
M  V30 36314 C 3527.03 -1.60563 -3.00719 0
M  V30 36315 H 3528.22 -2.59904 -1.49632 0
M  V30 36316 H 3525.78 -1.37288 -0.747111 0
M  V30 36317 H 3526.51 -0.651982 -3.17679 0
M  V30 36318 H 3526.3 -2.42388 -3.08206 0
M  V30 36319 H 3527.79 -1.73866 -3.79685 0
M  V30 36320 N 3528.22 0.773926 -1.37289 0
M  V30 36321 C 3529.47 1.53389 -1.3358 0
M  V30 36322 C 3529.83 1.92234 0.0798641 0
M  V30 36323 O 3529.12 1.61047 1.038 0
M  V30 36324 C 3529.31 2.81138 -2.20672 0
M  V30 36325 C 3529.14 2.54779 -3.70564 0
M  V30 36326 C 3527.91 2.49018 -4.3968 0
M  V30 36327 C 3530.11 2.22923 -4.63476 0
M  V30 36328 N 3528.09 2.14719 -5.75125 0
M  V30 36329 C 3529.46 1.98745 -5.87282 0
M  V30 36330 C 3531.52 2.0906 -4.51883 0
M  V30 36331 C 3530.22 1.62105 -7.00796 0
M  V30 36332 C 3532.25 1.7382 -5.65279 0
M  V30 36333 C 3531.61 1.50501 -6.88134 0
M  V30 36334 H 3527.71 0.56169 -0.544085 0
M  V30 36335 H 3530.29 0.903084 -1.72489 0
M  V30 36336 H 3528.46 3.4206 -1.83982 0
M  V30 36337 H 3530.19 3.47015 -2.08237 0
M  V30 36338 H 3526.95 2.64797 -3.92657 0
M  V30 36339 H 3527.37 2.00273 -6.46699 0
M  V30 36340 H 3532.02 2.25773 -3.57472 0
M  V30 36341 H 3529.73 1.44131 -7.95143 0
M  V30 36342 H 3533.32 1.63755 -5.58279 0
M  V30 36343 H 3532.2 1.23635 -7.74393 0
M  V30 36344 N 3529.7 1.21823 0.99985 0
M  V30 36345 C 3530.61 0.998267 2.12301 0
M  V30 36346 C 3531.63 -0.0512617 1.73924 0
M  V30 36347 O 3532.8 0.139931 2.00913 0
M  V30 36348 C 3529.87 0.571292 3.41961 0
M  V30 36349 C 3528.93 1.69363 3.9448 0
M  V30 36350 C 3528.16 1.28694 5.17951 0
M  V30 36351 O 3528.39 0.162741 5.70168 0
M  V30 36352 O 3527.32 2.10081 5.64048 0
M  V30 36353 H 3531.15 1.93909 2.33737 0
M  V30 36354 H 3528.73 1.00356 1.10676 0
M  V30 36355 H 3530.61 0.343208 4.2 0
M  V30 36356 H 3529.29 -0.340758 3.21901 0
M  V30 36357 H 3528.2 1.97617 3.17645 0
M  V30 36358 H 3529.53 2.5833 4.18959 0
M  V30 36359 N 3531.18 -1.1956 1.0268 0
M  V30 36360 C 3532.6 -1.41225 0.743491 0
M  V30 36361 C 3532.8 -1.89938 -0.672753 0
M  V30 36362 O 3531.85 -2.07479 -1.43905 0
M  V30 36363 C 3533.17 -2.42514 1.77785 0
M  V30 36364 C 3534.71 -2.56264 1.79716 0
M  V30 36365 C 3535.19 -3.60806 2.82105 0
M  V30 36366 N 3536.68 -3.68299 2.80909 0
M  V30 36367 C 3537.41 -4.48876 3.56788 0
M  V30 36368 N 3536.91 -5.33175 4.42376 0
M  V30 36369 N 3538.7 -4.43506 3.45339 0
M  V30 36370 H 3530.85 -0.862601 1.94095 0
M  V30 36371 H 3533.12 -0.441299 0.839023 0
M  V30 36372 H 3532.82 -2.1374 2.79299 0
M  V30 36373 H 3532.7 -3.41658 1.59842 0
M  V30 36374 H 3535.08 -2.84362 0.788806 0
M  V30 36375 H 3535.17 -1.5728 2.01734 0
M  V30 36376 H 3534.81 -3.3345 3.8311 0
M  V30 36377 H 3534.74 -4.59435 2.57346 0
M  V30 36378 H 3537.23 -3.08093 2.18832 0
M  V30 36379 H 3537.54 -5.91771 4.97018 0
M  V30 36380 H 3535.89 -5.32642 4.4645 0
M  V30 36381 H 3539.08 -3.7669 2.77889 0
M  V30 36382 H 3539.25 -5.06064 4.04727 0
M  V30 36383 N 3532.66 -0.804387 -1.35526 0
M  V30 36384 C 3533.91 -0.382969 -1.98438 0
M  V30 36385 C 3534.23 1.05286 -1.64134 0
M  V30 36386 O 3533.5 1.72808 -0.922723 0
M  V30 36387 H 3532.08 -0.138618 -0.734026 0
M  V30 36388 H 3534.74 -1.02974 -1.65476 0
M  V30 36389 H 3533.84 -0.4869 -3.08279 0
M  V30 36390 N 3534.14 1.47403 -0.557697 0
M  V30 36391 C 3535.1 2.28498 0.179271 0
M  V30 36392 C 3536.1 1.36977 0.842257 0
M  V30 36393 O 3537.29 1.59603 0.698044 0
M  V30 36394 C 3534.42 3.16671 1.26224 0
M  V30 36395 H 3535.62 2.95124 -0.533085 0
M  V30 36396 H 3533.17 1.531 -0.314661 0
M  V30 36397 H 3533.9 2.54737 2.00698 0
M  V30 36398 H 3533.69 3.84025 0.791644 0
M  V30 36399 H 3535.18 3.77772 1.77984 0
M  V30 36400 N 3535.62 0.294175 1.5483 0
M  V30 36401 C 3536.86 -0.310471 2.01017 0
M  V30 36402 C 3537.22 -1.52047 1.17896 0
M  V30 36403 O 3536.51 -1.90019 0.245637 0
M  V30 36404 C 3536.7 -0.724888 3.49972 0
M  V30 36405 C 3536.53 0.443403 4.47509 0
M  V30 36406 C 3535.3 0.933258 4.96607 0
M  V30 36407 C 3537.5 1.28615 4.97959 0
M  V30 36408 N 3535.48 2.06903 5.77983 0
M  V30 36409 C 3536.85 2.26951 5.76969 0
M  V30 36410 C 3538.91 1.31731 4.80158 0
M  V30 36411 C 3537.61 3.2817 6.40076 0
M  V30 36412 C 3539.64 2.31805 5.44078 0
M  V30 36413 C 3539 3.28871 6.22915 0
M  V30 36414 H 3535.1 -0.0782562 0.778075 0
M  V30 36415 H 3537.68 0.422537 1.9006 0
M  V30 36416 H 3535.85 -1.42708 3.61233 0
M  V30 36417 H 3537.59 -1.30849 3.82963 0
M  V30 36418 H 3534.34 0.509366 4.70853 0
M  V30 36419 H 3534.76 2.6411 6.23358 0
M  V30 36420 H 3539.41 0.58061 4.18794 0
M  V30 36421 H 3537.12 4.02763 7.00577 0
M  V30 36422 H 3540.71 2.34981 5.32236 0
M  V30 36423 H 3539.59 4.05041 6.715 0
M  V30 36424 N 3537.09 -1.57585 0.0217743 0
M  V30 36425 C 3538.5 -1.79368 -0.518079 0
M  V30 36426 C 3538.86 -0.931344 -1.72686 0
M  V30 36427 O 3537.98 -0.139725 -2.15948 0
M  V30 36428 C 3538.58 -3.25306 -0.946653 0
M  V30 36429 C 3537.13 -3.4811 -1.43167 0
M  V30 36430 C 3536.28 -2.74502 -0.392947 0
M  V30 36431 H 3539.23 -1.56753 0.247849 0
M  V30 36432 H 3539.25 -3.34614 -1.81146 0
M  V30 36433 H 3538.77 -3.88043 -0.0666854 0
M  V30 36434 H 3536.87 -2.90616 -2.33181 0
M  V30 36435 H 3536.98 -4.56818 -1.44411 0
M  V30 36436 H 3535.34 -2.39762 -0.859429 0
M  V30 36437 H 3536.13 -3.3995 0.478428 0
M  V30 36438 N 3538.57 0.251283 -1.55584 0
M  V30 36439 C 3539.48 1.33263 -1.93075 0
M  V30 36440 C 3540.5 1.52893 -0.830639 0
M  V30 36441 O 3541.67 1.666 -1.13165 0
M  V30 36442 C 3538.74 2.66801 -2.214 0
M  V30 36443 C 3537.8 2.55731 -3.44819 0
M  V30 36444 C 3537.03 3.829 -3.71784 0
M  V30 36445 O 3537.26 4.84582 -3.00893 0
M  V30 36446 O 3536.19 3.81796 -4.65312 0
M  V30 36447 H 3540.02 1.0446 -2.8517 0
M  V30 36448 H 3537.6 0.451668 -1.42409 0
M  V30 36449 H 3539.48 3.45721 -2.40947 0
M  V30 36450 H 3538.16 2.95346 -1.32485 0
M  V30 36451 H 3537.06 1.75112 -3.30585 0
M  V30 36452 H 3538.4 2.32131 -4.34023 0
M  V30 36453 N 3540.05 1.48887 0.516757 0
M  V30 36454 C 3541.3 1.57265 1.26933 0
M  V30 36455 C 3541.62 0.254189 1.93336 0
M  V30 36456 O 3540.89 -0.725313 1.81978 0
M  V30 36457 H 3539.47 0.579402 0.47149 0
M  V30 36458 H 3542.13 1.85426 0.600256 0
M  V30 36459 H 3541.23 2.36059 2.04163 0
M  V30 36460 N 3541.53 -0.766635 1.37697 0
M  V30 36461 C 3542.49 -1.8617 1.33692 0
M  V30 36462 C 3543.49 -1.59 0.23995 0
M  V30 36463 O 3544.68 -1.66987 0.496095 0
M  V30 36464 C 3541.81 -3.23403 1.07812 0
M  V30 36465 H 3543.01 -1.91132 2.31103 0
M  V30 36466 H 3540.56 -0.966939 1.22801 0
M  V30 36467 H 3541.29 -3.24115 0.109534 0
M  V30 36468 H 3541.08 -3.44516 1.87219 0
M  V30 36469 H 3542.57 -4.0348 1.07672 0
M  V30 36470 N 3543.01 -1.22351 -0.993375 0
M  V30 36471 C 3543.92 -1.00951 -2.11769 0
M  V30 36472 C 3544.93 0.0420373 -1.73949 0
M  V30 36473 O 3546.11 -0.150584 -2.00836 0
M  V30 36474 C 3543.17 -0.589419 -3.41653 0
M  V30 36475 C 3542.23 -1.71453 -3.93576 0
M  V30 36476 C 3541.47 -1.31439 -5.17262 0
M  V30 36477 O 3541.69 -0.192977 -5.70073 0
M  V30 36478 O 3540.62 -2.13069 -5.62926 0
M  V30 36479 H 3544.45 -1.95146 -2.32705 0
M  V30 36480 H 3542.03 -1.00941 -1.10142 0
M  V30 36481 H 3543.92 -0.365477 -4.19812 0
M  V30 36482 H 3542.59 0.323682 -3.22078 0
M  V30 36483 H 3541.5 -1.99299 -3.16592 0
M  V30 36484 H 3542.83 -2.60548 -4.17583 0
M  V30 36485 N 3544.48 1.19014 -1.03313 0
M  V30 36486 C 3545.9 1.40828 -0.75097 0
M  V30 36487 C 3546.1 1.90292 0.66267 0
M  V30 36488 O 3545.16 2.0824 1.42803 0
M  V30 36489 C 3546.47 2.41568 -1.79068 0
M  V30 36490 C 3548.02 2.55307 -1.81072 0
M  V30 36491 C 3548.49 3.59304 -2.84015 0
M  V30 36492 N 3549.98 3.66805 -2.82858 0
M  V30 36493 C 3550.72 4.46978 -3.59164 0
M  V30 36494 N 3550.21 5.30821 -4.45197 0
M  V30 36495 N 3552.01 4.41668 -3.47686 0
M  V30 36496 H 3544.16 0.852295 -1.9455 0
M  V30 36497 H 3546.42 0.436843 -0.841351 0
M  V30 36498 H 3546.13 2.12256 -2.80429 0
M  V30 36499 H 3546 3.40806 -1.61652 0
M  V30 36500 H 3548.39 2.8394 -0.803875 0
M  V30 36501 H 3548.47 1.56208 -2.02565 0
M  V30 36502 H 3548.11 3.31414 -3.84873 0
M  V30 36503 H 3548.04 4.58064 -2.59779 0
M  V30 36504 H 3550.53 3.06928 -2.20463 0
M  V30 36505 H 3550.85 5.89127 -5.0015 0
M  V30 36506 H 3549.19 5.30267 -4.49268 0
M  V30 36507 H 3552.38 3.75211 -2.79883 0
M  V30 36508 H 3552.56 5.0391 -4.07405 0
M  V30 36509 N 3545.96 0.811563 1.35098 0
M  V30 36510 C 3547.19 0.405841 2.0339 0
M  V30 36511 C 3547.61 -0.976831 1.60747 0
M  V30 36512 O 3546.97 -1.6335 0.786547 0
M  V30 36513 C 3547.02 0.503017 3.57074 0
M  V30 36514 O 3546.12 -0.481609 4.09578 0
M  V30 36515 H 3545.46 0.168744 0.6422 0
M  V30 36516 H 3547.99 1.09883 1.72589 0
M  V30 36517 H 3548 0.374631 4.06276 0
M  V30 36518 H 3546.68 1.51152 3.87461 0
M  V30 36519 H 3545.25 -0.31305 3.71584 0
M  V30 36520 N 3547.44 -1.47105 0.565506 0
M  V30 36521 C 3548.66 -2.07345 0.0477128 0
M  V30 36522 C 3549.09 -1.41416 -1.24029 0
M  V30 36523 O 3548.45 -0.491972 -1.74497 0
M  V30 36524 C 3548.5 -3.60392 -0.122554 0
M  V30 36525 O 3547.6 -3.95063 -1.18319 0
M  V30 36526 H 3546.94 -0.661714 0.0550535 0
M  V30 36527 H 3549.47 -1.89002 0.783553 0
M  V30 36528 H 3549.48 -4.06629 -0.334156 0
M  V30 36529 H 3548.16 -4.07774 0.818141 0
M  V30 36530 H 3546.73 -3.60559 -0.951418 0
M  V30 36531 N 3548.92 -0.302382 -1.54672 0
M  V30 36532 C 3550.33 0.0509619 -1.59519 0
M  V30 36533 C 3550.53 1.52302 -1.31933 0
M  V30 36534 O 3549.59 2.27597 -1.09342 0
M  V30 36535 C 3550.9 -0.34822 -2.98677 0
M  V30 36536 C 3552.45 -0.297101 -3.11587 0
M  V30 36537 C 3552.93 -0.671126 -4.53056 0
M  V30 36538 N 3554.42 -0.623714 -4.58982 0
M  V30 36539 C 3555.15 -0.885576 -5.6652 0
M  V30 36540 N 3554.65 -1.21348 -6.8209 0
M  V30 36541 N 3556.44 -0.812545 -5.56196 0
M  V30 36542 H 3548.59 -1.26173 -1.70863 0
M  V30 36543 H 3550.86 -0.511622 -0.79809 0
M  V30 36544 H 3550.56 -1.37303 -3.23791 0
M  V30 36545 H 3550.44 0.297439 -3.76025 0
M  V30 36546 H 3552.82 0.718464 -2.8622 0
M  V30 36547 H 3552.9 -0.977402 -2.36391 0
M  V30 36548 H 3552.55 -1.68451 -4.79152 0
M  V30 36549 H 3552.48 0.0312611 -5.26591 0
M  V30 36550 H 3554.97 -0.381269 -3.75972 0
M  V30 36551 H 3555.28 -1.39923 -7.60027 0
M  V30 36552 H 3553.63 -1.25153 -6.83639 0
M  V30 36553 H 3556.82 -0.556021 -4.64786 0
M  V30 36554 H 3556.99 -1.01999 -6.39922 0
M  V30 36555 N 3550.4 1.57571 -0.0301311 0
M  V30 36556 C 3551.81 1.7964 0.508559 0
M  V30 36557 C 3552.16 0.940489 1.7219 0
M  V30 36558 O 3551.28 0.151175 2.15871 0
M  V30 36559 C 3551.88 3.25803 0.929388 0
M  V30 36560 C 3550.44 3.48864 1.41319 0
M  V30 36561 C 3549.58 2.74706 0.378384 0
M  V30 36562 H 3552.54 1.56619 -0.256159 0
M  V30 36563 H 3552.56 3.3557 1.79369 0
M  V30 36564 H 3552.07 3.88073 0.0461056 0
M  V30 36565 H 3550.17 2.91848 2.31636 0
M  V30 36566 H 3550.28 4.57577 1.41987 0
M  V30 36567 H 3548.65 2.40215 0.846702 0
M  V30 36568 H 3549.43 3.39691 -0.49645 0
M  V30 36569 N 3551.87 -0.243029 1.55715 0
M  V30 36570 C 3553.15 -0.993585 1.68485 0
M  V30 36571 C 3553.53 -2.03227 0.571148 0
M  V30 36572 O 3552.88 -2.24515 -0.424871 0
M  V30 36573 C 3553.09 -1.62343 3.08943 0
M  V30 36574 C 3554.44 -2.12383 3.67667 0
M  V30 36575 O 3555.46 -1.72277 3.11768 0
M  V30 36576 O 3554.32 -2.86032 4.65669 0
M  V30 36577 H 3551.41 -0.462735 0.685424 0
M  V30 36578 H 3553.96 -0.236509 1.68044 0
M  V30 36579 H 3552.73 -0.872343 3.81452 0
M  V30 36580 H 3552.36 -2.44661 3.13411 0
M  V30 36581 N 3553.35 -1.49159 -0.508854 0
M  V30 36582 C 3554.58 -1.61945 -1.28768 0
M  V30 36583 C 3555 -0.287792 -1.86594 0
M  V30 36584 O 3554.35 0.72574 -1.67449 0
M  V30 36585 C 3554.4 -2.68228 -2.42355 0
M  V30 36586 O 3554.12 -3.96228 -1.86908 0
M  V30 36587 C 3555.63 -2.91648 -3.33851 0
M  V30 36588 H 3552.85 -0.545423 -0.390839 0
M  V30 36589 H 3555.39 -1.95137 -0.611695 0
M  V30 36590 H 3553.54 -2.37836 -3.05798 0
M  V30 36591 H 3553.96 -4.5471 -2.61418 0
M  V30 36592 H 3555.43 -3.69766 -4.0985 0
M  V30 36593 H 3555.91 -2.01265 -3.9037 0
M  V30 36594 H 3556.52 -3.23426 -2.76181 0
M  V30 36595 N 3554.83 0.759322 -1.38102 0
M  V30 36596 C 3555.76 1.88663 -1.37581 0
M  V30 36597 C 3556.74 1.68362 -0.242558 0
M  V30 36598 O 3557.93 1.89038 -0.444784 0
M  V30 36599 C 3555.06 3.26115 -1.19442 0
M  V30 36600 C 3554.01 3.61005 -2.29911 0
M  V30 36601 C 3553.34 4.97133 -1.96883 0
M  V30 36602 C 3554.64 3.66472 -3.7215 0
M  V30 36603 H 3556.33 1.89355 -2.31916 0
M  V30 36604 H 3553.88 0.909611 -1.11634 0
M  V30 36605 H 3555.83 4.04628 -1.17705 0
M  V30 36606 H 3554.55 3.25887 -0.215677 0
M  V30 36607 H 3553.21 2.84808 -2.30825 0
M  V30 36608 H 3552.86 4.93459 -0.975066 0
M  V30 36609 H 3552.56 5.21446 -2.70865 0
M  V30 36610 H 3554.08 5.78031 -1.96754 0
M  V30 36611 H 3555.5 4.35111 -3.73298 0
M  V30 36612 H 3553.9 4.02291 -4.45289 0
M  V30 36613 H 3554.97 2.66835 -4.04879 0
M  V30 36614 N 3556.31 1.22876 0.986873 0
M  V30 36615 C 3557.24 1.02854 2.09627 0
M  V30 36616 C 3558.22 -0.0524819 1.70019 0
M  V30 36617 O 3559.4 0.110908 1.93883 0
M  V30 36618 C 3556.53 0.612 3.41865 0
M  V30 36619 C 3555.49 1.63963 3.95348 0
M  V30 36620 C 3554.81 1.07874 5.23705 0
M  V30 36621 C 3556.11 3.0311 4.25349 0
M  V30 36622 H 3557.81 1.95645 2.26635 0
M  V30 36623 H 3555.35 0.942067 1.08909 0
M  V30 36624 H 3557.31 0.45901 4.18893 0
M  V30 36625 H 3556.03 -0.351583 3.24702 0
M  V30 36626 H 3554.69 1.7805 3.20458 0
M  V30 36627 H 3554.34 0.106334 5.02888 0
M  V30 36628 H 3554.04 1.76532 5.60455 0
M  V30 36629 H 3555.56 0.937466 6.03361 0
M  V30 36630 H 3556.98 2.92362 4.93151 0
M  V30 36631 H 3555.37 3.68946 4.73285 0
M  V30 36632 H 3556.44 3.52589 3.3288 0
M  V30 36633 N 3557.79 -1.18464 1.03942 0
M  V30 36634 C 3559.01 -1.92896 0.76196 0
M  V30 36635 C 3559.44 -1.75587 -0.674587 0
M  V30 36636 O 3558.79 -1.06518 -1.46709 0
M  V30 36637 C 3558.84 -3.42385 1.13158 0
M  V30 36638 O 3557.95 -4.11603 0.256339 0
M  V30 36639 H 3557.29 -0.601826 0.280538 0
M  V30 36640 H 3559.82 -1.50233 1.38893 0
M  V30 36641 H 3559.83 -3.93088 1.09297 0
M  V30 36642 H 3558.5 -3.54304 2.1781 0
M  V30 36643 H 3557.08 -3.71212 0.354457 0
M  V30 36644 N 3559.26 -0.818716 -1.34665 0
M  V30 36645 C 3560.68 -0.464172 -1.80838 0
M  V30 36646 C 3561.03 1.01503 -1.67903 0
M  V30 36647 O 3560.15 1.78962 -1.21661 0
M  V30 36648 C 3560.75 -0.835756 -3.2833 0
M  V30 36649 C 3559.31 -0.533641 -3.72598 0
M  V30 36650 C 3558.45 -1.05491 -2.5645 0
M  V30 36651 H 3561.4 -1.00927 -1.22472 0
M  V30 36652 H 3561.42 -0.137917 -3.8025 0
M  V30 36653 H 3560.94 -1.91239 -3.37712 0
M  V30 36654 H 3559.04 0.533754 -3.68757 0
M  V30 36655 H 3559.15 -1.07476 -4.66889 0
M  V30 36656 H 3557.51 -0.476656 -2.502 0
M  V30 36657 H 3558.3 -2.13791 -2.68605 0
M  V30 36658 N 3560.74 1.46803 -0.573299 0
M  V30 36659 C 3561.65 2.33997 0.16804 0
M  V30 36660 C 3562.67 1.4918 0.895625 0
M  V30 36661 O 3563.84 1.82072 0.860919 0
M  V30 36662 C 3560.91 3.2619 1.17478 0
M  V30 36663 C 3559.97 4.26905 0.452881 0
M  V30 36664 C 3559.2 5.14692 1.41166 0
M  V30 36665 O 3559.43 5.05232 2.64759 0
M  V30 36666 O 3558.36 5.94713 0.927367 0
M  V30 36667 H 3562.19 2.98722 -0.547628 0
M  V30 36668 H 3559.77 1.45624 -0.333773 0
M  V30 36669 H 3561.65 3.83093 1.7555 0
M  V30 36670 H 3560.33 2.64074 1.87208 0
M  V30 36671 H 3559.24 3.73716 -0.169449 0
M  V30 36672 H 3560.57 4.9178 -0.203272 0
M  V30 36673 N 3562.22 0.31058 1.54509 0
M  V30 36674 C 3563.15 -0.595059 2.21341 0
M  V30 36675 C 3564.17 -1.09006 1.20919 0
M  V30 36676 O 3565.35 -1.00587 1.4746 0
M  V30 36677 C 3562.45 -1.82777 2.85387 0
M  V30 36678 C 3561.63 -1.47364 4.11828 0
M  V30 36679 C 3560.69 -2.56251 4.59589 0
M  V30 36680 O 3559.71 -2.2094 5.2457 0
M  V30 36681 N 3560.91 -3.86959 4.32716 0
M  V30 36682 H 3563.68 -0.0228764 2.99691 0
M  V30 36683 H 3561.24 0.133201 1.61351 0
M  V30 36684 H 3563.23 -2.54986 3.14268 0
M  V30 36685 H 3561.8 -2.30811 2.1082 0
M  V30 36686 H 3561.02 -0.583757 3.89854 0
M  V30 36687 H 3562.31 -1.21256 4.9414 0
M  V30 36688 H 3561.71 -4.18452 3.80677 0
M  V30 36689 H 3560.27 -4.55438 4.66283 0
M  V30 36690 N 3563.7 -1.57553 0.0384871 0
M  V30 36691 C 3565.11 -1.79907 -0.499025 0
M  V30 36692 C 3565.46 -0.949607 -1.71688 0
M  V30 36693 O 3564.59 -0.162622 -2.15788 0
M  V30 36694 C 3565.18 -3.26292 -0.912097 0
M  V30 36695 C 3563.74 -3.49608 -1.39467 0
M  V30 36696 C 3562.89 -2.74903 -0.363811 0
M  V30 36697 H 3565.84 -1.56481 0.264461 0
M  V30 36698 H 3565.86 -3.36516 -1.77586 0
M  V30 36699 H 3565.37 -3.88092 -0.0255245 0
M  V30 36700 H 3563.47 -2.93073 -2.30085 0
M  V30 36701 H 3563.59 -4.58323 -1.39558 0
M  V30 36702 H 3561.95 -2.4066 -0.833951 0
M  V30 36703 H 3562.73 -3.39423 0.514457 0
M  V30 36704 N 3565.18 0.234767 -1.55842 0
M  V30 36705 C 3566.42 0.962508 -1.78504 0
M  V30 36706 C 3566.76 1.84507 -0.605864 0
M  V30 36707 O 3566.03 1.90438 0.395413 0
M  V30 36708 C 3566.31 1.81272 -3.11147 0
M  V30 36709 C 3566.17 0.95753 -4.3949 0
M  V30 36710 C 3567.49 2.79298 -3.40119 0
M  V30 36711 H 3564.61 0.348489 -0.649403 0
M  V30 36712 H 3567.25 0.232207 -1.88576 0
M  V30 36713 H 3565.4 2.43536 -3.02692 0
M  V30 36714 H 3567.07 0.352645 -4.5995 0
M  V30 36715 H 3565.31 0.262378 -4.33006 0
M  V30 36716 H 3565.98 1.5865 -5.2871 0
M  V30 36717 H 3568.46 2.27169 -3.48616 0
M  V30 36718 H 3567.34 3.35898 -4.34124 0
M  V30 36719 H 3567.6 3.56374 -2.6163 0
M  V30 36720 N 3566.66 1.49427 0.500936 0
M  V30 36721 C 3567.9 1.60535 1.26523 0
M  V30 36722 C 3568.26 0.285653 1.89863 0
M  V30 36723 O 3569.46 0.271915 2.67421 0
M  V30 36724 C 3567.73 2.73248 2.3037 0
M  V30 36725 S 3569.29 3.04307 3.16137 0
M  V30 36726 H 3566.11 0.566246 0.429984 0
M  V30 36727 H 3568.71 1.87085 0.567394 0
M  V30 36728 H 3567.41 3.67655 1.82367 0
M  V30 36729 H 3566.95 2.4869 3.04823 0
M  V30 36730 H 3568.96 2.45833 4.31022 0
M  V30 36731 N 3568.13 -0.751987 1.38502 0
M  V30 36732 C 3569.54 -1.32939 1.31088 0
M  V30 36733 C 3569.9 -1.96173 -0.0325903 0
M  V30 36734 O 3569.02 -1.95175 -0.934657 0
M  V30 36735 C 3569.62 -2.41716 2.374 0
M  V30 36736 C 3568.17 -2.95173 2.33559 0
M  V30 36737 C 3567.32 -1.6857 2.20181 0
M  V30 36738 H 3570.27 -0.550745 1.48837 0
M  V30 36739 H 3570.29 -3.21694 2.03208 0
M  V30 36740 H 3569.81 -1.95664 3.35167 0
M  V30 36741 H 3567.91 -3.4555 1.39377 0
M  V30 36742 H 3568.02 -3.49444 3.27759 0
M  V30 36743 H 3566.38 -1.92257 1.6706 0
M  V30 36744 H 3567.17 -1.24593 3.19893 0
M  V30 36745 N 3569.61 -1.23398 -0.980343 0
M  V30 36746 C 3570.57 -1.01639 -2.05432 0
M  V30 36747 C 3571.57 0.0217961 -1.60785 0
M  V30 36748 O 3572.76 -0.217952 -1.72831 0
M  V30 36749 C 3569.9 -0.537881 -3.3663 0
M  V30 36750 H 3571.09 -1.96947 -2.26168 0
M  V30 36751 H 3568.64 -1.05443 -1.15376 0
M  V30 36752 H 3569.38 0.418973 -3.21582 0
M  V30 36753 H 3569.16 -1.28705 -3.70375 0
M  V30 36754 H 3570.65 -0.406286 -4.15619 0
M  V30 36755 N 3571.09 1.17911 -1.04569 0
M  V30 36756 C 3572.34 1.87646 -0.750571 0
M  V30 36757 C 3572.66 1.81053 0.724198 0
M  V30 36758 O 3571.93 1.23226 1.5229 0
M  V30 36759 H 3570.51 0.694678 -0.274649 0
M  V30 36760 H 3573.17 1.4307 -1.32352 0
M  V30 36761 H 3572.27 2.93551 -1.05992 0
M  V30 36762 N 3572.57 0.825847 1.34229 0
M  V30 36763 C 3573.82 0.41449 1.97804 0
M  V30 36764 C 3574.14 -1.02662 1.65788 0
M  V30 36765 O 3573.41 -1.71318 0.950099 0
M  V30 36766 H 3571.99 0.150278 0.731728 0
M  V30 36767 H 3574.65 1.05594 1.63817 0
M  V30 36768 H 3573.74 0.535883 3.07465 0
M  V30 36769 N 3574.05 -1.46497 0.581077 0
M  V30 36770 C 3575.27 -2.07283 0.0697018 0
M  V30 36771 C 3575.7 -1.42723 -1.22522 0
M  V30 36772 O 3575.05 -0.510452 -1.73966 0
M  V30 36773 C 3575.1 -3.60501 -0.0843231 0
M  V30 36774 O 3574.21 -3.96295 -1.14122 0
M  V30 36775 H 3573.55 -0.661093 0.0620688 0
M  V30 36776 H 3576.08 -1.8816 0.803555 0
M  V30 36777 H 3576.09 -4.06961 -0.291009 0
M  V30 36778 H 3574.76 -4.06883 0.861345 0
M  V30 36779 H 3573.34 -3.61547 -0.913122 0
M  V30 36780 N 3575.52 -0.31877 -1.54343 0
M  V30 36781 C 3576.77 0.284678 -2.00085 0
M  V30 36782 C 3577.09 1.53031 -1.20858 0
M  V30 36783 O 3576.36 1.93445 -0.309138 0
M  V30 36784 H 3574.94 0.10818 -0.739125 0
M  V30 36785 H 3577.6 -0.434208 -1.90002 0
M  V30 36786 H 3576.7 0.544405 -3.07315 0
M  V30 36787 N 3577 1.5753 -0.0468419 0
M  V30 36788 C 3578.25 1.92139 0.626665 0
M  V30 36789 C 3578.57 0.925493 1.71638 0
M  V30 36790 O 3577.84 -0.0303187 1.95877 0
M  V30 36791 H 3576.42 0.709249 0.234466 0
M  V30 36792 H 3579.08 1.94649 -0.0988234 0
M  V30 36793 H 3578.18 2.93256 1.06805 0
M  V30 36794 N 3578.48 -0.226499 1.55964 0
M  V30 36795 C 3579.89 -0.793907 1.68979 0
M  V30 36796 C 3580.24 -1.85191 0.64797 0
M  V30 36797 O 3579.37 -2.15456 -0.201869 0
M  V30 36798 C 3579.96 -1.44681 3.06354 0
M  V30 36799 C 3578.52 -1.96167 3.2124 0
M  V30 36800 C 3577.67 -0.820053 2.64897 0
M  V30 36801 H 3580.62 -0.00193177 1.587 0
M  V30 36802 H 3580.64 -2.31549 3.01936 0
M  V30 36803 H 3580.15 -0.676544 3.82158 0
M  V30 36804 H 3578.25 -2.76011 2.50297 0
M  V30 36805 H 3578.37 -2.14504 4.28398 0
M  V30 36806 H 3576.73 -1.22605 2.23249 0
M  V30 36807 H 3577.51 -0.0625364 3.43243 0
M  V30 36808 N 3579.96 -1.4969 -0.493005 0
M  V30 36809 C 3581.37 -1.52689 -1.07438 0
M  V30 36810 C 3581.72 -0.317686 -1.93611 0
M  V30 36811 O 3580.85 0.571708 -2.08711 0
M  V30 36812 C 3581.44 -2.76691 -1.95518 0
M  V30 36813 C 3580 -2.82443 -2.48803 0
M  V30 36814 C 3579.15 -2.46707 -1.26613 0
M  V30 36815 H 3582.1 -1.56272 -0.276561 0
M  V30 36816 H 3582.12 -2.57306 -2.8031 0
M  V30 36817 H 3581.63 -3.64682 -1.32773 0
M  V30 36818 H 3579.73 -1.98751 -3.15165 0
M  V30 36819 H 3579.84 -3.8481 -2.85409 0
M  V30 36820 H 3578.21 -1.98661 -1.59392 0
M  V30 36821 H 3578.99 -3.36981 -0.655636 0
M  V30 36822 N 3581.44 0.744631 -1.38899 0
M  V30 36823 C 3582.66 1.53899 -1.39032 0
M  V30 36824 C 3583.09 1.88094 0.0156277 0
M  V30 36825 O 3582.44 1.51221 1.00009 0
M  V30 36826 C 3582.49 2.80915 -2.26095 0
M  V30 36827 O 3581.6 3.76441 -1.68421 0
M  V30 36828 H 3580.94 0.465135 -0.473862 0
M  V30 36829 H 3583.47 0.919493 -1.82774 0
M  V30 36830 H 3583.48 3.29749 -2.40269 0
M  V30 36831 H 3582.15 2.55358 -3.28276 0
M  V30 36832 H 3580.73 3.35176 -1.63437 0
M  V30 36833 N 3582.91 1.23916 0.973785 0
M  V30 36834 C 3584.14 1.10299 1.75638 0
M  V30 36835 C 3584.56 -0.340921 1.84985 0
M  V30 36836 O 3583.92 -1.24672 1.31631 0
M  V30 36837 C 3583.97 1.74066 3.15806 0
M  V30 36838 O 3583.07 1.00729 3.99909 0
M  V30 36839 H 3582.42 0.386212 0.540127 0
M  V30 36840 H 3584.95 1.64103 1.22194 0
M  V30 36841 H 3584.96 1.79575 3.66356 0
M  V30 36842 H 3583.63 2.79128 3.08319 0
M  V30 36843 H 3582.21 1.02963 3.58404 0
M  V30 36844 N 3584.39 -1.17355 1.05193 0
M  V30 36845 C 3585.36 -2.19577 0.657169 0
M  V30 36846 C 3586.36 -1.58138 -0.291352 0
M  V30 36847 O 3587.55 -1.74038 -0.0752234 0
M  V30 36848 C 3584.68 -3.40882 -0.0347562 0
M  V30 36849 H 3585.87 -2.56016 1.56192 0
M  V30 36850 H 3583.42 -1.31437 0.845818 0
M  V30 36851 H 3584.16 -3.09988 -0.95278 0
M  V30 36852 H 3583.94 -3.86723 0.647144 0
M  V30 36853 H 3585.43 -4.16542 -0.297062 0
M  V30 36854 N 3585.87 -0.832954 -1.3379 0
M  V30 36855 C 3587.1 -0.438147 -2.02719 0
M  V30 36856 C 3587.52 0.951134 -1.62281 0
M  V30 36857 O 3586.88 1.62078 -0.812435 0
M  V30 36858 C 3586.93 -0.559761 -3.56229 0
M  V30 36859 O 3586.03 0.416388 -4.10293 0
M  V30 36860 H 3585.37 -0.17894 -0.639435 0
M  V30 36861 H 3587.9 -1.12615 -1.70819 0
M  V30 36862 H 3587.91 -0.439219 -4.05629 0
M  V30 36863 H 3586.59 -1.57297 -3.85007 0
M  V30 36864 H 3585.16 0.253895 -3.72035 0
M  V30 36865 N 3587.35 1.46186 -0.588837 0
M  V30 36866 C 3588.76 1.85979 -0.16393 0
M  V30 36867 C 3589.11 1.49163 1.27455 0
M  V30 36868 O 3588.24 0.909406 1.96364 0
M  V30 36869 C 3588.83 3.3755 -0.290729 0
M  V30 36870 C 3587.39 3.76316 0.0793504 0
M  V30 36871 C 3586.54 2.70191 -0.623855 0
M  V30 36872 H 3589.49 1.37254 -0.796684 0
M  V30 36873 H 3589.51 3.77432 0.48225 0
M  V30 36874 H 3589.02 3.64315 -1.33777 0
M  V30 36875 H 3587.12 3.5517 1.12629 0
M  V30 36876 H 3587.23 4.78152 -0.301237 0
M  V30 36877 H 3585.6 2.54621 -0.0634571 0
M  V30 36878 H 3586.38 2.99795 -1.67267 0
M  V30 36879 N 3588.83 0.32695 1.54171 0
M  V30 36880 C 3589.74 -0.54631 2.2815 0
M  V30 36881 C 3590.75 -1.12629 1.3263 0
M  V30 36882 O 3591.93 -1.14553 1.65649 0
M  V30 36883 C 3588.99 -1.68956 3.02745 0
M  V30 36884 C 3588.05 -1.14105 4.13858 0
M  V30 36885 C 3587.29 -2.22982 4.84886 0
M  V30 36886 O 3587.51 -3.43391 4.55454 0
M  V30 36887 O 3586.44 -1.8821 5.71717 0
M  V30 36888 H 3590.27 0.0545822 3.03651 0
M  V30 36889 H 3587.86 0.092529 1.49113 0
M  V30 36890 H 3589.74 -2.35509 3.49447 0
M  V30 36891 H 3588.41 -2.27658 2.30117 0
M  V30 36892 H 3587.32 -0.440513 3.71497 0
M  V30 36893 H 3588.65 -0.599126 4.8854 0
M  V30 36894 N 3590.3 -1.57503 0.0551955 0
M  V30 36895 C 3591.55 -1.93135 -0.618602 0
M  V30 36896 C 3591.88 -0.934155 -1.70256 0
M  V30 36897 O 3591.16 0.0392357 -1.9446 0
M  V30 36898 C 3591.44 -3.39128 -1.21097 0
M  V30 36899 C 3591.29 -4.49598 -0.134786 0
M  V30 36900 C 3592.61 -3.85596 -2.12141 0
M  V30 36901 H 3589.73 -0.702325 -0.223403 0
M  V30 36902 H 3592.37 -1.89635 0.117781 0
M  V30 36903 H 3590.52 -3.42242 -1.83856 0
M  V30 36904 H 3592.2 -4.58611 0.497372 0
M  V30 36905 H 3590.44 -4.30468 0.536662 0
M  V30 36906 H 3591.11 -5.48845 -0.589351 0
M  V30 36907 H 3593.59 -3.84383 -1.59339 0
M  V30 36908 H 3592.46 -4.88391 -2.5053 0
M  V30 36909 H 3592.72 -3.22583 -3.02312 0
M  V30 36910 N 3591.78 0.218225 -1.56082 0
M  V30 36911 C 3592.69 1.29138 -1.95859 0
M  V30 36912 C 3593.71 1.51097 -0.862883 0
M  V30 36913 O 3594.88 1.64163 -1.16673 0
M  V30 36914 C 3591.95 2.62045 -2.2701 0
M  V30 36915 C 3591.01 2.48359 -3.50166 0
M  V30 36916 C 3590.24 3.74928 -3.79822 0
M  V30 36917 O 3590.47 4.78091 -3.11104 0
M  V30 36918 O 3589.4 3.71841 -4.73306 0
M  V30 36919 H 3593.23 0.983872 -2.87322 0
M  V30 36920 H 3590.81 0.421359 -1.43335 0
M  V30 36921 H 3592.69 3.40532 -2.48226 0
M  V30 36922 H 3591.37 2.92469 -1.3872 0
M  V30 36923 H 3590.28 1.68061 -3.34225 0
M  V30 36924 H 3591.61 2.22873 -4.38849 0
M  V30 36925 N 3593.26 1.4995 0.485059 0
M  V30 36926 C 3594.22 1.67256 1.5671 0
M  V30 36927 C 3595.22 0.543727 1.51328 0
M  V30 36928 O 3596.41 0.810499 1.54196 0
M  V30 36929 C 3593.55 1.6848 2.96357 0
M  V30 36930 H 3594.74 2.6378 1.42688 0
M  V30 36931 H 3592.29 1.3922 0.710449 0
M  V30 36932 H 3593.03 0.735979 3.15838 0
M  V30 36933 H 3592.81 2.50474 3.01671 0
M  V30 36934 H 3594.3 1.83871 3.74941 0
M  V30 36935 N 3594.74 -0.737255 1.39292 0
M  V30 36936 C 3595.99 -1.49381 1.36124 0
M  V30 36937 C 3596.31 -1.94953 -0.0429063 0
M  V30 36938 O 3595.58 -1.68825 -0.993727 0
M  V30 36939 H 3594.16 -0.55415 0.500926 0
M  V30 36940 H 3596.82 -0.875372 1.74136 0
M  V30 36941 H 3595.92 -2.377 2.0225 0
M  V30 36942 N 3596.22 -1.24431 -0.967199 0
M  V30 36943 C 3597.63 -1.07726 -1.52486 0
M  V30 36944 C 3597.98 0.351157 -1.93032 0
M  V30 36945 O 3597.1 1.23959 -1.77378 0
M  V30 36946 C 3597.7 -1.94934 -2.77103 0
M  V30 36947 C 3596.26 -1.82451 -3.29224 0
M  V30 36948 C 3595.41 -1.89839 -2.0213 0
M  V30 36949 H 3598.36 -1.379 -0.785441 0
M  V30 36950 H 3598.38 -1.48192 -3.50456 0
M  V30 36951 H 3597.89 -2.98889 -2.47562 0
M  V30 36952 H 3595.99 -0.81331 -3.63615 0
M  V30 36953 H 3596.1 -2.66573 -3.9809 0
M  V30 36954 H 3594.47 -1.33574 -2.16864 0
M  V30 36955 H 3595.25 -2.95375 -1.74953 0
M  V30 36956 N 3597.7 1.16795 -1.05814 0
M  V30 36957 C 3598.63 2.20581 -0.622623 0
M  V30 36958 C 3599.64 1.59686 0.316877 0
M  V30 36959 O 3600.83 1.78169 0.108626 0
M  V30 36960 C 3597.93 3.38728 0.108065 0
M  V30 36961 C 3597.1 4.29186 -0.843705 0
M  V30 36962 C 3596.16 5.25977 -0.153143 0
M  V30 36963 O 3595.19 5.63702 -0.78925 0
M  V30 36964 N 3596.39 5.69845 1.10711 0
M  V30 36965 H 3599.15 2.58567 -1.51536 0
M  V30 36966 H 3596.72 1.31757 -0.940838 0
M  V30 36967 H 3598.71 4.00518 0.580325 0
M  V30 36968 H 3597.28 2.99287 0.902547 0
M  V30 36969 H 3596.5 3.64733 -1.49545 0
M  V30 36970 H 3597.79 4.86508 -1.48954 0
M  V30 36971 H 3597.18 5.41281 1.64413 0
M  V30 36972 H 3595.74 6.33749 1.52333 0
M  V30 36973 N 3599.17 0.840037 1.33346 0
M  V30 36974 C 3600.42 0.435447 1.97353 0
M  V30 36975 C 3600.74 -1.00897 1.66867 0
M  V30 36976 O 3600.01 -1.70301 0.968216 0
M  V30 36977 H 3598.59 0.15803 0.730093 0
M  V30 36978 H 3601.25 1.07325 1.62688 0
M  V30 36979 H 3600.35 0.568464 3.06879 0
M  V30 36980 N 3600.65 -1.45872 0.596582 0
M  V30 36981 C 3601.89 -2.042 0.0903569 0
M  V30 36982 C 3602.26 -1.45633 -1.2512 0
M  V30 36983 O 3603.46 -1.95247 -1.84749 0
M  V30 36984 C 3601.73 -3.57378 0.0401005 0
M  V30 36985 S 3603.29 -4.36913 -0.406533 0
M  V30 36986 H 3600.1 -0.709624 0.0442101 0
M  V30 36987 H 3602.71 -1.7873 0.792207 0
M  V30 36988 H 3601.41 -3.97517 1.0202 0
M  V30 36989 H 3600.94 -3.87407 -0.684088 0
M  V30 36990 H 3602.96 -4.67666 -1.65841 0
M  V30 36991 N 3602.13 -0.335122 -1.53996 0
M  V30 36992 C 3603.09 0.512976 -2.23386 0
M  V30 36993 C 3604.09 1.03433 -1.23119 0
M  V30 36994 O 3605.28 0.924918 -1.47617 0
M  V30 36995 C 3602.41 1.71372 -2.94694 0
M  V30 36996 H 3603.61 -0.0937833 -2.99753 0
M  V30 36997 H 3601.16 -0.0863534 -1.56061 0
M  V30 36998 H 3601.9 2.3594 -2.22492 0
M  V30 36999 H 3601.68 1.34717 -3.68231 0
M  V30 37000 H 3603.17 2.31546 -3.47529 0
M  V30 37001 N 3603.61 1.57472 -0.0635475 0
M  V30 37002 C 3604.84 1.97495 0.616701 0
M  V30 37003 C 3605.25 0.941596 1.63644 0
M  V30 37004 O 3604.61 -0.0727448 1.82355 0
M  V30 37005 C 3604.66 3.376 1.29262 0
M  V30 37006 O 3604.38 4.36975 0.313705 0
M  V30 37007 C 3605.88 3.92452 2.06147 0
M  V30 37008 H 3603.1 0.649695 0.167741 0
M  V30 37009 H 3605.64 2.04064 -0.133511 0
M  V30 37010 H 3603.8 3.32143 1.99398 0
M  V30 37011 H 3604.21 5.184 0.797632 0
M  V30 37012 H 3605.69 4.92728 2.48844 0
M  V30 37013 H 3606.16 3.28547 2.91468 0
M  V30 37014 H 3606.77 4.01283 1.40896 0
M  V30 37015 N 3605.09 -0.209945 1.56195 0
M  V30 37016 C 3606 -1.28097 1.96541 0
M  V30 37017 C 3607.01 -1.50637 0.870884 0
M  V30 37018 O 3608.19 -1.63542 1.17542 0
M  V30 37019 C 3605.25 -2.60837 2.28396 0
M  V30 37020 C 3604.31 -2.46498 3.51478 0
M  V30 37021 C 3603.55 -3.72908 3.81805 0
M  V30 37022 O 3603.77 -4.76434 3.13635 0
M  V30 37023 O 3602.7 -3.69325 4.75271 0
M  V30 37024 H 3606.53 -0.96862 2.87839 0
M  V30 37025 H 3604.11 -0.413752 1.43556 0
M  V30 37026 H 3606 -3.39211 2.50028 0
M  V30 37027 H 3604.67 -2.9173 1.40269 0
M  V30 37028 H 3603.58 -1.66286 3.35112 0
M  V30 37029 H 3604.91 -2.20542 4.40025 0
M  V30 37030 N 3606.56 -1.50205 -0.4771 0
M  V30 37031 C 3607.97 -1.5382 -1.05812 0
M  V30 37032 C 3608.33 -0.338203 -1.93263 0
M  V30 37033 O 3607.45 0.54954 -2.09306 0
M  V30 37034 C 3608.05 -2.7875 -1.92572 0
M  V30 37035 C 3606.6 -2.85066 -2.45794 0
M  V30 37036 C 3605.75 -2.48036 -1.23989 0
M  V30 37037 H 3608.7 -1.56556 -0.259971 0
M  V30 37038 H 3608.72 -2.60265 -2.77565 0
M  V30 37039 H 3608.24 -3.6607 -1.28897 0
M  V30 37040 H 3606.34 -2.02083 -3.13039 0
M  V30 37041 H 3606.45 -3.87815 -2.81312 0
M  V30 37042 H 3604.81 -2.00341 -1.57276 0
M  V30 37043 H 3605.6 -3.37658 -0.619858 0
M  V30 37044 N 3608.04 0.729857 -1.39681 0
M  V30 37045 C 3609.46 1.03608 -1.21398 0
M  V30 37046 C 3609.66 2.01344 -0.0791656 0
M  V30 37047 O 3608.71 2.46039 0.567531 0
M  V30 37048 C 3610.03 1.59345 -2.55009 0
M  V30 37049 C 3611.58 1.714 -2.61899 0
M  V30 37050 C 3612.05 2.30545 -3.95744 0
M  V30 37051 N 3613.54 2.37948 -3.9741 0
M  V30 37052 C 3614.28 2.84661 -4.9775 0
M  V30 37053 N 3613.77 3.31232 -6.08487 0
M  V30 37054 N 3615.57 2.83917 -4.85126 0
M  V30 37055 H 3607.72 0.0817497 -2.12243 0
M  V30 37056 H 3609.98 0.098884 -0.942829 0
M  V30 37057 H 3609.69 0.949946 -3.38628 0
M  V30 37058 H 3609.56 2.58078 -2.75092 0
M  V30 37059 H 3611.95 2.34871 -1.78661 0
M  V30 37060 H 3612.03 0.713057 -2.45661 0
M  V30 37061 H 3611.67 1.677 -4.79415 0
M  V30 37062 H 3611.6 3.31326 -4.09305 0
M  V30 37063 H 3614.09 2.05039 -3.17439 0
M  V30 37064 H 3614.41 3.65402 -6.80956 0
M  V30 37065 H 3612.75 3.29228 -6.12073 0
M  V30 37066 H 3615.94 2.4686 -3.97715 0
M  V30 37067 H 3616.11 3.20007 -5.63471 0
M  V30 37068 N 3609.52 1.24942 0.960587 0
M  V30 37069 C 3610.93 1.08533 1.51913 0
M  V30 37070 C 3611.28 -0.340915 1.93215 0
M  V30 37071 O 3610.41 -1.23017 1.78033 0
M  V30 37072 C 3611 1.96401 2.76066 0
M  V30 37073 C 3609.56 1.84195 3.28252 0
M  V30 37074 C 3608.71 1.90908 2.0112 0
M  V30 37075 H 3611.66 1.38315 0.778117 0
M  V30 37076 H 3611.68 1.50048 3.49665 0
M  V30 37077 H 3611.19 3.00198 2.45973 0
M  V30 37078 H 3609.29 0.832582 3.63179 0
M  V30 37079 H 3609.41 2.6868 3.96671 0
M  V30 37080 H 3607.77 1.34722 2.16153 0
M  V30 37081 H 3608.55 2.96299 1.73384 0
M  V30 37082 N 3611 -1.16233 1.06432 0
M  V30 37083 C 3611.95 -2.18648 0.646312 0
M  V30 37084 C 3612.93 -1.57609 -0.323741 0
M  V30 37085 O 3614.12 -1.76454 -0.13896 0
M  V30 37086 C 3611.25 -3.43281 0.03574 0
M  V30 37087 C 3610.34 -4.11393 1.03037 0
M  V30 37088 N 3610.73 -4.55135 2.20648 0
M  V30 37089 C 3609.03 -4.37598 0.861621 0
M  V30 37090 C 3609.73 -5.07843 2.83674 0
M  V30 37091 N 3608.71 -5.00813 2.11393 0
M  V30 37092 H 3612.51 -2.50186 1.54221 0
M  V30 37093 H 3610.02 -1.32699 0.936199 0
M  V30 37094 H 3612.02 -4.15948 -0.281564 0
M  V30 37095 H 3610.68 -3.1323 -0.855398 0
M  V30 37096 H 3611.69 -4.48822 2.58417 0
M  V30 37097 H 3608.37 -4.17494 0.0225905 0
M  V30 37098 H 3609.76 -5.51716 3.83482 0
M  V30 37099 N 3612.48 -0.847097 -1.32899 0
M  V30 37100 C 3613.89 -0.535956 -1.50332 0
M  V30 37101 C 3614.09 0.935009 -1.78493 0
M  V30 37102 O 3613.15 1.71843 -1.85004 0
M  V30 37103 C 3614.46 -1.41641 -2.65251 0
M  V30 37104 C 3616.01 -1.41605 -2.79136 0
M  V30 37105 C 3616.48 -2.28154 -3.97127 0
M  V30 37106 N 3617.98 -2.25908 -4.04376 0
M  V30 37107 C 3618.71 -2.89609 -4.94888 0
M  V30 37108 N 3618.21 -3.62394 -5.9046 0
M  V30 37109 N 3620 -2.79036 -4.8795 0
M  V30 37110 H 3612.15 -1.7992 -1.12883 0
M  V30 37111 H 3614.41 -0.768055 -0.555694 0
M  V30 37112 H 3614.12 -2.46208 -2.51147 0
M  V30 37113 H 3613.99 -1.09836 -3.60854 0
M  V30 37114 H 3616.38 -0.378065 -2.92668 0
M  V30 37115 H 3616.46 -1.77422 -1.84269 0
M  V30 37116 H 3616.11 -3.32016 -3.84354 0
M  V30 37117 H 3616.04 -1.89674 -4.91255 0
M  V30 37118 H 3618.53 -1.72985 -3.35983 0
M  V30 37119 H 3618.84 -4.08185 -6.56205 0
M  V30 37120 H 3617.18 -3.66502 -5.9051 0
M  V30 37121 H 3620.38 -2.21731 -4.12254 0
M  V30 37122 H 3620.55 -3.28964 -5.58289 0
M  V30 37123 N 3613.95 1.45554 -0.604309 0
M  V30 37124 C 3615.2 2.01862 -0.0980277 0
M  V30 37125 C 3615.52 1.47565 1.27473 0
M  V30 37126 O 3614.79 0.668644 1.84136 0
M  V30 37127 H 3613.37 0.74626 -0.0332481 0
M  V30 37128 H 3616.04 1.78394 -0.784967 0
M  V30 37129 H 3615.13 3.12067 -0.0453265 0
M  V30 37130 N 3615.43 0.343284 1.53816 0
M  V30 37131 C 3616.34 -0.522081 2.28717 0
M  V30 37132 C 3617.36 -1.11216 1.33817 0
M  V30 37133 O 3618.53 -1.1279 1.66855 0
M  V30 37134 C 3615.6 -1.65736 3.0452 0
M  V30 37135 C 3614.66 -1.09709 4.15045 0
M  V30 37136 C 3613.89 -2.17826 4.87224 0
M  V30 37137 O 3614.12 -3.38541 4.59071 0
M  V30 37138 O 3613.05 -1.82135 5.73681 0
M  V30 37139 H 3616.88 0.0867853 3.03576 0
M  V30 37140 H 3614.46 0.108339 1.49007 0
M  V30 37141 H 3616.34 -2.3179 3.51925 0
M  V30 37142 H 3615.02 -2.25204 2.32518 0
M  V30 37143 H 3613.93 -0.401086 3.71944 0
M  V30 37144 H 3615.26 -0.547276 4.89148 0
M  V30 37145 N 3616.91 -1.57436 0.0718977 0
M  V30 37146 C 3617.84 -2.15756 -0.892842 0
M  V30 37147 C 3618.82 -1.08463 -1.31034 0
M  V30 37148 O 3620.01 -1.36499 -1.38137 0
M  V30 37149 C 3617.14 -2.71927 -2.16039 0
M  V30 37150 C 3616.09 -3.84387 -1.8823 0
M  V30 37151 C 3615.42 -4.27162 -3.21616 0
M  V30 37152 C 3616.72 -5.08622 -1.18749 0
M  V30 37153 H 3618.41 -2.96621 -0.407009 0
M  V30 37154 H 3615.96 -1.42683 -0.194329 0
M  V30 37155 H 3617.91 -3.11371 -2.83947 0
M  V30 37156 H 3616.63 -1.88283 -2.66865 0
M  V30 37157 H 3615.29 -3.45447 -1.22728 0
M  V30 37158 H 3614.94 -3.4044 -3.70283 0
M  V30 37159 H 3614.64 -5.02971 -3.038 0
M  V30 37160 H 3616.16 -4.69222 -3.90721 0
M  V30 37161 H 3617.58 -5.45381 -1.76726 0
M  V30 37162 H 3615.98 -5.89709 -1.11191 0
M  V30 37163 H 3617.05 -4.84614 -0.166597 0
M  V30 37164 N 3618.39 0.201658 -1.56305 0
M  V30 37165 C 3619.61 0.94355 -1.84694 0
M  V30 37166 C 3620.04 1.76339 -0.65468 0
M  V30 37167 O 3619.4 1.7691 0.396555 0
M  V30 37168 C 3619.44 1.8208 -3.11254 0
M  V30 37169 O 3618.55 2.91876 -2.91346 0
M  V30 37170 H 3617.89 0.266081 -0.608356 0
M  V30 37171 H 3620.42 0.208956 -2.0353 0
M  V30 37172 H 3620.43 2.22674 -3.41878 0
M  V30 37173 H 3619.1 1.21837 -3.97654 0
M  V30 37174 H 3617.68 2.55084 -2.72005 0
M  V30 37175 N 3619.87 1.50456 0.469128 0
M  V30 37176 C 3621.28 1.54379 1.04995 0
M  V30 37177 C 3621.63 0.348447 1.93081 0
M  V30 37178 O 3620.75 -0.538432 2.09595 0
M  V30 37179 C 3621.35 2.79767 1.91091 0
M  V30 37180 C 3619.91 2.86365 2.44278 0
M  V30 37181 C 3619.05 2.4869 1.22672 0
M  V30 37182 H 3622.01 1.56692 0.251665 0
M  V30 37183 H 3622.03 2.61733 2.76181 0
M  V30 37184 H 3621.54 3.66748 1.26954 0
M  V30 37185 H 3619.64 2.0374 3.11963 0
M  V30 37186 H 3619.75 3.89302 2.79251 0
M  V30 37187 H 3618.12 2.01172 1.56211 0
M  V30 37188 H 3618.9 3.37982 0.601942 0
M  V30 37189 N 3621.34 -0.722439 1.40066 0
M  V30 37190 C 3622.57 -1.51667 1.41463 0
M  V30 37191 C 3622.99 -1.88095 0.0142984 0
M  V30 37192 O 3622.35 -1.52793 -0.975907 0
M  V30 37193 C 3622.4 -2.77283 2.30535 0
M  V30 37194 O 3621.5 -3.73714 1.74388 0
M  V30 37195 H 3620.85 -0.457538 0.481202 0
M  V30 37196 H 3623.38 -0.890298 1.84214 0
M  V30 37197 H 3623.39 -3.25885 2.45485 0
M  V30 37198 H 3622.06 -2.50103 3.32297 0
M  V30 37199 H 3620.64 -3.32533 1.68749 0
M  V30 37200 N 3622.82 -1.2545 -0.953947 0
M  V30 37201 C 3624.07 -1.10238 -1.69864 0
M  V30 37202 C 3624.4 0.356518 -1.91205 0
M  V30 37203 O 3623.65 1.27911 -1.48112 0
M  V30 37204 C 3623.95 -1.80264 -3.08609 0
M  V30 37205 C 3623.62 -3.30183 -3.07067 0
M  V30 37206 C 3622.28 -3.71081 -3.06353 0
M  V30 37207 C 3624.63 -4.25961 -3.00344 0
M  V30 37208 C 3621.96 -5.06168 -2.96667 0
M  V30 37209 C 3624.31 -5.61073 -2.92199 0
M  V30 37210 C 3622.98 -6.01298 -2.89822 0
M  V30 37211 H 3622.25 -0.403391 -0.621576 0
M  V30 37212 H 3624.89 -1.55731 -1.11446 0
M  V30 37213 H 3623.2 -1.27204 -3.70576 0
M  V30 37214 H 3624.9 -1.65946 -3.65052 0
M  V30 37215 H 3621.49 -2.97642 -3.08394 0
M  V30 37216 H 3625.67 -3.95355 -3.00014 0
M  V30 37217 H 3620.93 -5.36513 -2.93195 0
M  V30 37218 H 3625.1 -6.34981 -2.85959 0
M  V30 37219 H 3622.73 -7.05932 -2.82071 0
M  V30 37220 N 3624.3 1.15667 -1.07047 0
M  V30 37221 C 3625.23 2.22461 -0.709452 0
M  V30 37222 C 3626.21 1.67404 0.30166 0
M  V30 37223 O 3627.4 1.93409 0.175097 0
M  V30 37224 C 3624.53 3.47147 -0.103182 0
M  V30 37225 C 3623.48 4.15145 -1.04111 0
M  V30 37226 C 3622.81 5.3387 -0.29775 0
M  V30 37227 C 3624.11 4.6526 -2.3734 0
M  V30 37228 H 3625.8 2.52916 -1.60231 0
M  V30 37229 H 3623.35 1.21566 -0.771867 0
M  V30 37230 H 3625.3 4.21091 0.161297 0
M  V30 37231 H 3624.02 3.16015 0.824737 0
M  V30 37232 H 3622.68 3.43137 -1.29046 0
M  V30 37233 H 3622.33 4.98994 0.633531 0
M  V30 37234 H 3622.03 5.80307 -0.922891 0
M  V30 37235 H 3623.56 6.10586 -0.0409965 0
M  V30 37236 H 3624.97 5.30747 -2.16749 0
M  V30 37237 H 3623.37 5.22347 -2.95421 0
M  V30 37238 H 3624.44 3.81062 -2.99866 0
M  V30 37239 N 3625.78 0.854133 1.32447 0
M  V30 37240 C 3626.73 0.287156 2.30821 0
M  V30 37241 C 3627.72 -0.589183 1.58824 0
M  V30 37242 O 3628.93 -0.477044 1.73563 0
M  V30 37243 H 3625.3 0.0741547 0.748335 0
M  V30 37244 H 3627.27 1.13109 2.76132 0
M  V30 37245 C 3626.02 -0.510069 3.43938 0
M  V30 37246 H 3625.35 0.154966 3.995 0
M  V30 37247 H 3626.79 -0.872378 4.14928 0
M  V30 37248 C 3625.24 -1.69508 2.9115 0
M  V30 37249 O 3625.77 -2.79415 2.886 0
M  V30 37250 N 3623.98 -1.52197 2.47557 0
M  V30 37251 H 3623.53 -0.627897 2.4983 0
M  V30 37252 H 3623.49 -2.3163 2.12591 0
M  V30 37253 N 3627.26 -1.45231 0.61202 0
M  V30 37254 C 3628.67 -1.85695 0.193497 0
M  V30 37255 C 3629.02 -1.51172 -1.25066 0
M  V30 37256 O 3628.14 -0.940531 -1.94892 0
M  V30 37257 C 3628.74 -3.37045 0.344393 0
M  V30 37258 C 3627.3 -3.76395 -0.0194717 0
M  V30 37259 C 3626.45 -2.69165 0.666761 0
M  V30 37260 H 3629.4 -1.35969 0.818419 0
M  V30 37261 H 3629.42 -3.78151 -0.422143 0
M  V30 37262 H 3628.93 -3.6214 1.39556 0
M  V30 37263 H 3627.03 -3.56916 -1.06965 0
M  V30 37264 H 3627.14 -4.77612 0.377268 0
M  V30 37265 H 3625.51 -2.54488 0.103957 0
M  V30 37266 H 3626.29 -2.97095 1.72015 0
M  V30 37267 N 3628.74 -0.351436 -1.53632 0
M  V30 37268 C 3630.15 0.130801 -1.86241 0
M  V30 37269 C 3630.5 1.49342 -1.27246 0
M  V30 37270 O 3629.62 2.08229 -0.589043 0
M  V30 37271 C 3630.22 0.24412 -3.37919 0
M  V30 37272 C 3628.78 0.670597 -3.70378 0
M  V30 37273 C 3627.92 -0.190862 -2.76642 0
M  V30 37274 H 3630.87 -0.57075 -1.48081 0
M  V30 37275 H 3630.9 1.07023 -3.65139 0
M  V30 37276 H 3630.41 -0.747755 -3.80828 0
M  V30 37277 H 3628.51 1.67121 -3.33018 0
M  V30 37278 H 3628.62 0.455018 -4.76934 0
M  V30 37279 H 3626.99 0.338048 -2.52447 0
M  V30 37280 H 3627.77 -1.18002 -3.22383 0
M  V30 37281 N 3630.21 1.57396 -0.0802459 0
M  V30 37282 C 3631.14 2.16226 0.881388 0
M  V30 37283 C 3632.12 1.09156 1.30457 0
M  V30 37284 O 3633.31 1.37229 1.37411 0
M  V30 37285 C 3630.44 2.73069 2.14594 0
M  V30 37286 C 3629.39 3.8538 1.86189 0
M  V30 37287 C 3628.72 4.28861 3.19346 0
M  V30 37288 C 3630.02 5.09244 1.1605 0
M  V30 37289 H 3631.71 2.96832 0.391273 0
M  V30 37290 H 3629.26 1.42784 0.18676 0
M  V30 37291 H 3631.21 3.12873 2.82292 0
M  V30 37292 H 3629.94 1.89696 2.65863 0
M  V30 37293 H 3628.6 3.46093 1.20894 0
M  V30 37294 H 3628.24 3.42399 3.68473 0
M  V30 37295 H 3627.94 5.04575 3.01128 0
M  V30 37296 H 3629.47 4.71288 3.88227 0
M  V30 37297 H 3630.88 5.46311 1.73831 0
M  V30 37298 H 3629.28 5.9029 1.08062 0
M  V30 37299 H 3630.35 4.84695 0.140895 0
M  V30 37300 N 3631.69 -0.193366 1.56409 0
M  V30 37301 C 3633.1 -0.757885 1.70625 0
M  V30 37302 C 3633.45 -1.83775 0.687106 0
M  V30 37303 O 3632.58 -2.15836 -0.156122 0
M  V30 37304 C 3633.17 -1.38151 3.09354 0
M  V30 37305 C 3631.73 -1.89309 3.25329 0
M  V30 37306 C 3630.88 -0.76368 2.66577 0
M  V30 37307 H 3633.83 0.0317313 1.58668 0
M  V30 37308 H 3633.85 -2.25092 3.0678 0
M  V30 37309 H 3633.36 -0.59533 3.83507 0
M  V30 37310 H 3631.46 -2.7064 2.56095 0
M  V30 37311 H 3631.58 -2.05369 4.32852 0
M  V30 37312 H 3629.94 -1.17842 2.25799 0
M  V30 37313 H 3630.72 0.0102846 3.43298 0
M  V30 37314 N 3633.17 -1.50702 -0.461142 0
M  V30 37315 C 3634.58 -1.54934 -1.04175 0
M  V30 37316 C 3634.93 -0.358682 -1.92894 0
M  V30 37317 O 3634.06 0.527309 -2.09877 0
M  V30 37318 C 3634.65 -2.80776 -1.89605 0
M  V30 37319 C 3633.21 -2.87657 -2.42756 0
M  V30 37320 C 3632.36 -2.49337 -1.21351 0
M  V30 37321 H 3635.31 -1.56823 -0.243351 0
M  V30 37322 H 3635.33 -2.63194 -2.74789 0
M  V30 37323 H 3634.84 -3.67416 -1.25007 0
M  V30 37324 H 3632.94 -2.05392 -3.10878 0
M  V30 37325 H 3633.06 -3.90777 -2.77183 0
M  V30 37326 H 3631.42 -2.01997 -1.55142 0
M  V30 37327 H 3632.2 -3.38296 -0.58401 0
M  V30 37328 N 3634.65 0.715001 -1.40447 0
M  V30 37329 C 3635.87 1.50915 -1.42265 0
M  V30 37330 C 3636.3 1.88084 -0.0242733 0
M  V30 37331 O 3635.66 1.53309 0.96779 0
M  V30 37332 C 3635.7 2.76056 -2.32003 0
M  V30 37333 O 3634.81 3.72784 -1.76368 0
M  V30 37334 H 3634.15 0.454979 -0.483622 0
M  V30 37335 H 3636.68 0.880516 -1.84684 0
M  V30 37336 H 3636.69 3.24579 -2.4721 0
M  V30 37337 H 3635.36 2.48337 -3.33619 0
M  V30 37338 H 3633.94 3.31633 -1.7051 0
M  V30 37339 N 3636.13 1.25954 0.947281 0
M  V30 37340 C 3637.37 1.1053 1.68719 0
M  V30 37341 C 3637.69 -0.352181 1.92403 0
M  V30 37342 O 3638.89 -0.626989 2.64161 0
M  V30 37343 C 3637.35 1.92988 3.03782 0
M  V30 37344 C 3636.96 3.43273 2.87867 0
M  V30 37345 C 3638.7 1.86156 3.81505 0
M  V30 37346 C 3636.61 4.18 4.18366 0
M  V30 37347 H 3635.54 0.410027 0.632767 0
M  V30 37348 H 3638.19 1.50212 1.05397 0
M  V30 37349 H 3636.57 1.46134 3.6805 0
M  V30 37350 H 3637.75 3.97853 2.32487 0
M  V30 37351 H 3636.06 3.51277 2.23592 0
M  V30 37352 H 3638.66 2.39275 4.78175 0
M  V30 37353 H 3639 0.830981 4.07922 0
M  V30 37354 H 3639.53 2.30799 3.24001 0
M  V30 37355 H 3636.27 5.21501 3.97135 0
M  V30 37356 H 3635.79 3.68203 4.73484 0
M  V30 37357 H 3637.47 4.26116 4.86861 0
M  V30 37358 N 3637.6 -1.15097 1.07659 0
M  V30 37359 C 3638.88 -1.82078 0.71464 0
M  V30 37360 C 3639.26 -1.9525 -0.802544 0
M  V30 37361 O 3638.61 -1.50637 -1.71816 0
M  V30 37362 C 3638.82 -3.18237 1.43269 0
M  V30 37363 C 3640.17 -3.93834 1.58682 0
M  V30 37364 O 3641.19 -3.27801 1.39372 0
M  V30 37365 O 3640.05 -5.1223 1.90479 0
M  V30 37366 H 3637.14 -0.786815 0.254659 0
M  V30 37367 H 3639.69 -1.22181 1.1777 0
M  V30 37368 H 3638.46 -3.03767 2.4666 0
M  V30 37369 H 3638.09 -3.85821 0.960614 0
M  V30 37370 N 3639.08 -0.861145 -1.31993 0
M  V30 37371 C 3640.36 -0.388739 -1.91698 0
M  V30 37372 C 3640.74 1.12835 -1.78414 0
M  V30 37373 O 3640.09 1.95293 -1.18629 0
M  V30 37374 C 3640.3 -0.860307 -3.3823 0
M  V30 37375 C 3641.65 -0.881274 -4.15354 0
M  V30 37376 O 3642.67 -0.805374 -3.46976 0
M  V30 37377 O 3641.53 -0.989545 -5.37467 0
M  V30 37378 H 3638.62 -0.114644 -0.819015 0
M  V30 37379 H 3641.17 -0.948475 -1.4072 0
M  V30 37380 H 3639.94 -1.90366 -3.41872 0
M  V30 37381 H 3639.56 -0.278385 -3.96624 0
M  V30 37382 N 3640.56 1.44905 -0.619713 0
M  V30 37383 C 3641.98 1.57046 -0.284365 0
M  V30 37384 C 3642.18 1.60913 1.21282 0
M  V30 37385 O 3641.23 1.54598 1.99639 0
M  V30 37386 C 3642.55 2.84753 -0.966229 0
M  V30 37387 C 3644.09 2.98448 -0.943291 0
M  V30 37388 C 3644.57 4.28942 -1.6054 0
M  V30 37389 N 3646.06 4.35729 -1.57145 0
M  V30 37390 C 3646.79 5.35395 -2.0528 0
M  V30 37391 N 3646.29 6.4153 -2.61554 0
M  V30 37392 N 3648.08 5.2683 -1.95976 0
M  V30 37393 H 3640.23 1.40638 -1.59169 0
M  V30 37394 H 3642.5 0.673192 -0.66747 0
M  V30 37395 H 3642.2 2.8784 -2.02091 0
M  V30 37396 H 3642.08 3.73912 -0.496946 0
M  V30 37397 H 3644.46 2.94921 0.10288 0
M  V30 37398 H 3644.55 2.10668 -1.45096 0
M  V30 37399 H 3644.19 4.33228 -2.65096 0
M  V30 37400 H 3644.12 5.1556 -1.07266 0
M  V30 37401 H 3646.61 3.5964 -1.16048 0
M  V30 37402 H 3646.92 7.13847 -2.96045 0
M  V30 37403 H 3645.27 6.42247 -2.656 0
M  V30 37404 H 3648.46 4.42823 -1.51742 0
M  V30 37405 H 3648.63 6.04352 -2.33801 0
M  V30 37406 N 3642.04 0.359579 1.53443 0
M  V30 37407 C 3643.32 -0.288072 1.93467 0
M  V30 37408 C 3643.7 -1.66899 1.29259 0
M  V30 37409 O 3643.04 -2.24036 0.449441 0
M  V30 37410 C 3643.25 -0.344298 3.47298 0
M  V30 37411 C 3644.6 -0.587511 4.20516 0
M  V30 37412 O 3645.63 -0.425756 3.53646 0
M  V30 37413 O 3644.48 -0.902024 5.39004 0
M  V30 37414 H 3641.58 -0.171437 0.809036 0
M  V30 37415 H 3644.12 0.411925 1.64625 0
M  V30 37416 H 3642.9 0.624132 3.8629 0
M  V30 37417 H 3642.52 -1.09043 3.82355 0
M  V30 37418 N 3643.52 -1.57351 0.0885919 0
M  V30 37419 C 3644.45 -2.16691 -0.869908 0
M  V30 37420 C 3645.43 -1.09846 -1.29876 0
M  V30 37421 O 3646.61 -1.37956 -1.36681 0
M  V30 37422 C 3643.74 -2.74203 -2.13143 0
M  V30 37423 C 3642.7 -3.86362 -1.84142 0
M  V30 37424 C 3642.02 -4.30549 -3.17068 0
M  V30 37425 C 3643.32 -5.09852 -1.13348 0
M  V30 37426 H 3645.02 -2.97036 -0.375526 0
M  V30 37427 H 3642.56 -1.42881 -0.179185 0
M  V30 37428 H 3644.52 -3.14365 -2.80628 0
M  V30 37429 H 3643.24 -1.91103 -2.64853 0
M  V30 37430 H 3641.9 -3.46729 -1.19057 0
M  V30 37431 H 3641.55 -3.44348 -3.66652 0
M  V30 37432 H 3641.25 -5.06164 -2.98448 0
M  V30 37433 H 3642.77 -4.7334 -3.85722 0
M  V30 37434 H 3644.18 -5.47225 -1.70931 0
M  V30 37435 H 3642.58 -5.90855 -1.0493 0
M  V30 37436 H 3643.65 -4.84763 -0.115188 0
M  V30 37437 N 3644.99 0.185069 -1.5651 0
M  V30 37438 C 3646.22 0.923908 -1.85684 0
M  V30 37439 C 3646.64 1.75635 -0.673346 0
M  V30 37440 O 3646 1.77321 0.377769 0
M  V30 37441 C 3646.05 1.78768 -3.13168 0
M  V30 37442 O 3645.15 2.88769 -2.94425 0
M  V30 37443 H 3644.5 0.259614 -0.611144 0
M  V30 37444 H 3647.03 0.187357 -2.0374 0
M  V30 37445 H 3647.04 2.19035 -3.4422 0
M  V30 37446 H 3645.71 1.17612 -3.98924 0
M  V30 37447 H 3644.29 2.52185 -2.74695 0
M  V30 37448 N 3646.47 1.50945 0.453144 0
M  V30 37449 C 3647.7 1.66613 1.22669 0
M  V30 37450 C 3648.12 0.356847 1.85397 0
M  V30 37451 O 3647.47 -0.663092 1.70027 0
M  V30 37452 C 3647.52 2.77038 2.32233 0
M  V30 37453 O 3647.24 4.02892 1.72074 0
M  V30 37454 C 3648.75 3.03837 3.22797 0
M  V30 37455 H 3645.97 0.559552 0.370327 0
M  V30 37456 H 3648.51 1.97273 0.538849 0
M  V30 37457 H 3646.66 2.49022 2.96761 0
M  V30 37458 H 3647.08 4.64099 2.44361 0
M  V30 37459 H 3648.55 3.84723 3.95844 0
M  V30 37460 H 3649.03 2.15614 3.82632 0
M  V30 37461 H 3649.64 3.33453 2.63987 0
M  V30 37462 N 3647.95 -0.707543 1.40825 0
M  V30 37463 C 3648.86 -1.85158 1.44061 0
M  V30 37464 C 3649.88 -1.70796 0.332387 0
M  V30 37465 O 3651.05 -1.92921 0.578239 0
M  V30 37466 C 3648.12 -3.21033 1.30916 0
M  V30 37467 C 3647.18 -3.47591 2.5195 0
M  V30 37468 C 3646.41 -4.76983 2.39423 0
M  V30 37469 O 3646.63 -5.52638 1.41234 0
M  V30 37470 O 3645.57 -5.04057 3.28953 0
M  V30 37471 H 3649.39 -1.85384 2.40555 0
M  V30 37472 H 3646.98 -0.859031 1.22233 0
M  V30 37473 H 3648.86 -4.02177 1.25823 0
M  V30 37474 H 3647.54 -3.21517 0.375319 0
M  V30 37475 H 3646.44 -2.66424 2.6262 0
M  V30 37476 H 3647.78 -3.51911 3.44122 0
M  V30 37477 N 3649.43 -1.26454 -0.940588 0
M  V30 37478 C 3650.34 -1.09842 -2.07297 0
M  V30 37479 C 3651.35 -0.0317783 -1.73971 0
M  V30 37480 O 3652.53 -0.23563 -2.00017 0
M  V30 37481 C 3649.6 -0.733796 -3.38846 0
M  V30 37482 C 3648.66 -1.87992 -3.8595 0
M  V30 37483 C 3647.89 -1.53259 -5.11221 0
M  V30 37484 O 3648.11 -0.434591 -5.68742 0
M  V30 37485 O 3647.05 -2.36753 -5.53382 0
M  V30 37486 H 3650.87 -2.04841 -2.24219 0
M  V30 37487 H 3648.46 -1.05522 -1.05761 0
M  V30 37488 H 3650.34 -0.543204 -4.17884 0
M  V30 37489 H 3649.01 0.186786 -3.23161 0
M  V30 37490 H 3647.92 -2.12547 -3.07854 0
M  V30 37491 H 3649.25 -2.78024 -4.06157 0
M  V30 37492 N 3650.91 1.14525 -1.08268 0
M  V30 37493 C 3652.15 1.85804 -0.812694 0
M  V30 37494 C 3652.49 1.82646 0.659846 0
M  V30 37495 O 3651.76 1.25615 1.48496 0
M  V30 37496 C 3652.04 3.34503 -1.33341 0
M  V30 37497 C 3651.9 3.46241 -2.87119 0
M  V30 37498 C 3653.22 4.29558 -0.957511 0
M  V30 37499 H 3650.33 0.674642 -0.296693 0
M  V30 37500 H 3652.98 1.34495 -1.34205 0
M  V30 37501 H 3651.13 3.78329 -0.883123 0
M  V30 37502 H 3652.8 3.11211 -3.40508 0
M  V30 37503 H 3651.04 2.87498 -3.2485 0
M  V30 37504 H 3651.71 4.50757 -3.18626 0
M  V30 37505 H 3654.19 3.9374 -1.34567 0
M  V30 37506 H 3653.06 5.32063 -1.34907 0
M  V30 37507 H 3653.33 4.41892 0.135612 0
M  V30 37508 N 3652.39 0.868133 1.31534 0
M  V30 37509 C 3653.8 0.559805 1.4946 0
M  V30 37510 C 3654 -0.906494 1.79958 0
M  V30 37511 O 3653.06 -1.68878 1.87714 0
M  V30 37512 C 3654.37 1.45843 2.62964 0
M  V30 37513 C 3655.92 1.46028 2.76848 0
M  V30 37514 C 3656.39 2.34443 3.93447 0
M  V30 37515 N 3657.88 2.32313 4.0073 0
M  V30 37516 C 3658.62 2.97446 4.90218 0
M  V30 37517 N 3658.12 3.71741 5.8462 0
M  V30 37518 N 3659.91 2.86764 4.83449 0
M  V30 37519 H 3652.06 1.81693 1.10007 0
M  V30 37520 H 3654.32 0.776799 0.543404 0
M  V30 37521 H 3654.03 2.50172 2.47198 0
M  V30 37522 H 3653.9 1.15563 3.59061 0
M  V30 37523 H 3656.29 0.424578 2.9203 0
M  V30 37524 H 3656.37 1.80331 1.81424 0
M  V30 37525 H 3656.01 3.38088 3.79023 0
M  V30 37526 H 3655.94 1.97465 4.88175 0
M  V30 37527 H 3658.44 1.78309 3.33188 0
M  V30 37528 H 3658.75 4.18573 6.49628 0
M  V30 37529 H 3657.09 3.7585 5.84604 0
M  V30 37530 H 3660.28 2.28261 4.08674 0
M  V30 37531 H 3660.46 3.37804 5.52985 0
M  V30 37532 N 3653.86 -1.44574 0.627389 0
M  V30 37533 C 3654.79 -2.33405 -0.066694 0
M  V30 37534 C 3655.77 -1.47989 -0.83864 0
M  V30 37535 O 3656.96 -1.76718 -0.805265 0
M  V30 37536 C 3654.09 -3.31002 -1.05142 0
M  V30 37537 C 3653.04 -4.26207 -0.391358 0
M  V30 37538 C 3652.37 -5.13644 -1.48572 0
M  V30 37539 C 3653.67 -5.17588 0.700033 0
M  V30 37540 H 3655.36 -2.9169 0.67508 0
M  V30 37541 H 3652.91 -1.40259 0.326091 0
M  V30 37542 H 3654.86 -3.92028 -1.54569 0
M  V30 37543 H 3653.59 -2.70918 -1.82403 0
M  V30 37544 H 3652.25 -3.66508 0.0822339 0
M  V30 37545 H 3651.89 -4.49915 -2.24912 0
M  V30 37546 H 3651.59 -5.78152 -1.04947 0
M  V30 37547 H 3653.12 -5.77541 -1.98188 0
M  V30 37548 H 3654.53 -5.72571 0.289012 0
M  V30 37549 H 3652.93 -5.90678 1.0592 0
M  V30 37550 H 3654 -4.58825 1.56869 0
M  V30 37551 N 3655.34 -0.367711 -1.5325 0
M  V30 37552 C 3656.59 0.221643 -2.01585 0
M  V30 37553 C 3656.92 1.48246 -1.25446 0
M  V30 37554 O 3656.2 1.91348 -0.34876 0
M  V30 37555 C 3656.48 0.511444 -3.5645 0
M  V30 37556 C 3656.33 -0.763153 -4.43279 0
M  V30 37557 C 3657.65 1.31113 -4.20116 0
M  V30 37558 H 3654.77 0.0790825 -0.732745 0
M  V30 37559 H 3657.41 -0.493023 -1.83492 0
M  V30 37560 H 3655.56 1.12027 -3.71998 0
M  V30 37561 H 3657.23 -1.4006 -4.39524 0
M  V30 37562 H 3655.48 -1.38306 -4.11162 0
M  V30 37563 H 3656.15 -0.515312 -5.49589 0
M  V30 37564 H 3658.62 0.796097 -4.08413 0
M  V30 37565 H 3657.5 1.48265 -5.28497 0
M  V30 37566 H 3657.76 2.32025 -3.7632 0
M  V30 37567 N 3656.82 1.57302 -0.0969353 0
M  V30 37568 C 3658.07 1.94035 0.56522 0
M  V30 37569 C 3658.39 0.97963 1.68607 0
M  V30 37570 O 3657.66 0.0320133 1.95874 0
M  V30 37571 H 3656.24 0.71635 0.211783 0
M  V30 37572 H 3658.9 1.94236 -0.1607 0
M  V30 37573 H 3658 2.96505 0.974216 0
M  V30 37574 N 3658.3 -0.176766 1.56606 0
M  V30 37575 C 3659.71 -0.528328 1.50602 0
M  V30 37576 C 3659.91 -1.84928 0.800238 0
M  V30 37577 O 3658.97 -2.49944 0.358343 0
M  V30 37578 C 3660.28 -0.56612 2.95323 0
M  V30 37579 C 3661.83 -0.653697 3.06098 0
M  V30 37580 C 3662.31 -0.722431 4.52266 0
M  V30 37581 N 3663.8 -0.785468 4.56492 0
M  V30 37582 C 3664.53 -0.859133 5.66927 0
M  V30 37583 N 3664.03 -0.893967 6.87008 0
M  V30 37584 N 3665.82 -0.897734 5.54885 0
M  V30 37585 H 3657.97 0.689478 2.00898 0
M  V30 37586 H 3660.23 0.247926 0.915006 0
M  V30 37587 H 3659.94 0.335722 3.50094 0
M  V30 37588 H 3659.81 -1.4145 3.49674 0
M  V30 37589 H 3662.2 -1.54596 2.51364 0
M  V30 37590 H 3662.28 0.221252 2.54841 0
M  V30 37591 H 3661.93 0.165558 5.0763 0
M  V30 37592 H 3661.86 -1.61345 5.01274 0
M  V30 37593 H 3664.35 -0.767052 3.70033 0
M  V30 37594 H 3664.66 -0.951199 7.66924 0
M  V30 37595 H 3663.01 -0.862336 6.89629 0
M  V30 37596 H 3666.2 -0.867484 4.59992 0
M  V30 37597 H 3666.37 -0.951682 6.40973 0
M  V30 37598 N 3659.78 -1.51183 -0.445132 0
M  V30 37599 C 3661.02 -1.63143 -1.19285 0
M  V30 37600 C 3661.34 -0.346143 -1.91903 0
M  V30 37601 O 3660.61 0.637663 -1.85231 0
M  V30 37602 H 3659.19 -0.601237 -0.443309 0
M  V30 37603 H 3661.86 -1.88079 -0.511103 0
M  V30 37604 H 3660.95 -2.45531 -1.92668 0
M  V30 37605 N 3661.25 0.700065 -1.41198 0
M  V30 37606 C 3662.5 1.4572 -1.40036 0
M  V30 37607 C 3662.82 1.94998 -0.00879708 0
M  V30 37608 O 3662.09 1.714 0.948616 0
M  V30 37609 H 3660.67 0.540674 -0.515442 0
M  V30 37610 H 3663.33 0.828895 -1.76395 0
M  V30 37611 H 3662.43 2.32254 -2.08481 0
M  V30 37612 N 3662.73 1.26951 0.933869 0
M  V30 37613 C 3664.15 1.04222 1.20871 0
M  V30 37614 C 3664.35 -0.228076 2.00205 0
M  V30 37615 O 3663.4 -0.935243 2.34541 0
M  V30 37616 C 3664.72 2.27798 1.96286 0
M  V30 37617 C 3666.26 2.32774 2.09249 0
M  V30 37618 C 3666.74 3.56062 2.88069 0
M  V30 37619 N 3668.23 3.56583 2.95639 0
M  V30 37620 C 3668.97 4.48649 3.57074 0
M  V30 37621 N 3668.46 5.51011 4.1995 0
M  V30 37622 N 3670.25 4.36285 3.54418 0
M  V30 37623 H 3662.41 2.08528 0.403699 0
M  V30 37624 H 3664.67 0.91681 0.241173 0
M  V30 37625 H 3664.37 3.20234 1.45407 0
M  V30 37626 H 3664.25 2.32626 2.96926 0
M  V30 37627 H 3666.64 1.40848 2.59318 0
M  V30 37628 H 3666.72 2.31953 1.0785 0
M  V30 37629 H 3666.36 4.48321 2.38685 0
M  V30 37630 H 3666.29 3.54133 3.8974 0
M  V30 37631 H 3668.78 2.8255 2.50946 0
M  V30 37632 H 3669.09 6.17438 4.64747 0
M  V30 37633 H 3667.44 5.54861 4.18515 0
M  V30 37634 H 3670.63 3.55529 3.04494 0
M  V30 37635 H 3670.8 5.08227 4.02007 0
M  V30 37636 N 3664.21 -1.13949 1.08873 0
M  V30 37637 C 3665.63 -1.37085 0.817306 0
M  V30 37638 C 3665.83 -1.93237 -0.571125 0
M  V30 37639 O 3664.88 -2.14816 -1.32704 0
M  V30 37640 C 3666.19 -2.32749 1.9039 0
M  V30 37641 C 3667.74 -2.46378 1.93047 0
M  V30 37642 C 3668.22 -3.45345 3.00834 0
M  V30 37643 N 3669.71 -3.52891 3.00037 0
M  V30 37644 C 3670.44 -4.29333 3.8008 0
M  V30 37645 N 3669.94 -5.08976 4.70017 0
M  V30 37646 N 3671.73 -4.24576 3.68363 0
M  V30 37647 H 3663.88 -0.758502 1.98395 0
M  V30 37648 H 3666.15 -0.396203 0.861236 0
M  V30 37649 H 3665.85 -1.98635 2.90236 0
M  V30 37650 H 3665.73 -3.32705 1.77728 0
M  V30 37651 H 3668.11 -2.79781 0.938431 0
M  V30 37652 H 3668.19 -1.46366 2.09787 0
M  V30 37653 H 3667.84 -3.12673 4.00247 0
M  V30 37654 H 3667.77 -4.45148 2.81338 0
M  V30 37655 H 3670.26 -2.9606 2.34855 0
M  V30 37656 H 3670.57 -5.64593 5.27688 0
M  V30 37657 H 3668.92 -5.08228 4.74056 0
M  V30 37658 H 3672.11 -3.6143 2.97466 0
M  V30 37659 H 3672.28 -4.83898 4.30983 0
M  V30 37660 N 3665.69 -0.875096 -1.31072 0
M  V30 37661 C 3667.1 -0.567723 -1.49161 0
M  V30 37662 C 3667.3 0.896937 -1.80436 0
M  V30 37663 O 3666.36 1.6788 -1.88607 0
M  V30 37664 C 3667.67 -1.47236 -2.62187 0
M  V30 37665 C 3669.22 -1.47494 -2.7607 0
M  V30 37666 C 3669.7 -2.36526 -3.92198 0
M  V30 37667 N 3671.19 -2.34435 -3.99493 0
M  V30 37668 C 3671.92 -3.00041 -4.88634 0
M  V30 37669 N 3671.42 -3.74837 -5.8264 0
M  V30 37670 N 3673.21 -2.89324 -4.81921 0
M  V30 37671 H 3665.36 -1.82274 -1.09041 0
M  V30 37672 H 3667.62 -0.779669 -0.539277 0
M  V30 37673 H 3667.33 -2.51479 -2.45868 0
M  V30 37674 H 3667.2 -1.17465 -3.58444 0
M  V30 37675 H 3669.59 -0.440059 -2.918 0
M  V30 37676 H 3669.67 -1.8129 -1.80465 0
M  V30 37677 H 3669.32 -3.40094 -3.77225 0
M  V30 37678 H 3669.25 -2.00052 -4.87121 0
M  V30 37679 H 3671.74 -1.80073 -3.32238 0
M  V30 37680 H 3672.05 -4.22012 -6.47399 0
M  V30 37681 H 3670.4 -3.78945 -5.82603 0
M  V30 37682 H 3673.59 -2.30425 -4.07458 0
M  V30 37683 H 3673.76 -3.40732 -5.51186 0
M  V30 37684 N 3667.17 1.44239 -0.635047 0
M  V30 37685 C 3668.41 2.02307 -0.141311 0
M  V30 37686 C 3668.75 1.49867 1.23505 0
M  V30 37687 O 3668.02 0.684323 1.82064 0
M  V30 37688 C 3668.3 3.59857 -0.132259 0
M  V30 37689 C 3668.16 4.2257 -1.54124 0
M  V30 37690 C 3669.48 4.36761 0.541109 0
M  V30 37691 H 3666.59 0.735104 -0.0528246 0
M  V30 37692 H 3669.24 1.71762 -0.812269 0
M  V30 37693 H 3667.39 3.86011 0.439088 0
M  V30 37694 H 3669.06 4.0751 -2.16178 0
M  V30 37695 H 3667.3 3.79916 -2.09396 0
M  V30 37696 H 3667.97 5.31597 -1.48691 0
M  V30 37697 H 3670.45 4.16063 0.0551872 0
M  V30 37698 H 3669.32 5.46463 0.516646 0
M  V30 37699 H 3669.59 4.11658 1.61214 0
M  V30 37700 N 3668.64 0.375833 1.53053 0
M  V30 37701 C 3669.89 -0.210221 2.01004 0
M  V30 37702 C 3670.21 -1.4844 1.26454 0
M  V30 37703 O 3669.48 -1.92165 0.380721 0
M  V30 37704 H 3668.06 -0.080673 0.742631 0
M  V30 37705 H 3670.73 0.504426 1.88259 0
M  V30 37706 H 3669.82 -0.429972 3.09124 0
M  V30 37707 N 3670.12 -1.57248 0.105276 0
M  V30 37708 C 3671.37 -1.94332 -0.554922 0
M  V30 37709 C 3671.69 -0.988557 -1.68085 0
M  V30 37710 O 3670.96 -0.0424005 -1.95854 0
M  V30 37711 H 3669.54 -0.717463 -0.207981 0
M  V30 37712 H 3672.2 -1.94148 0.170998 0
M  V30 37713 H 3671.3 -2.97018 -0.958478 0
M  V30 37714 N 3671.6 0.168458 -1.56697 0
M  V30 37715 C 3673.01 0.730644 -1.71809 0
M  V30 37716 C 3673.36 1.82659 -0.716256 0
M  V30 37717 O 3672.49 2.16057 0.121765 0
M  V30 37718 C 3673.08 1.33211 -3.11513 0
M  V30 37719 C 3671.64 1.84109 -3.283 0
M  V30 37720 C 3670.79 0.721173 -2.67758 0
M  V30 37721 H 3673.74 -0.05697 -1.58598 0
M  V30 37722 H 3673.76 2.20183 -3.10322 0
M  V30 37723 H 3673.27 0.534242 -3.84405 0
M  V30 37724 H 3671.37 2.66531 -2.60368 0
M  V30 37725 H 3671.49 1.98457 -4.36064 0
M  V30 37726 H 3669.85 1.14235 -2.27646 0
M  V30 37727 H 3670.63 -0.0648992 -3.43239 0
M  V30 37728 N 3673.08 1.51417 0.437109 0
M  V30 37729 C 3674.33 1.63773 1.18418 0
M  V30 37730 C 3674.65 0.356315 1.91717 0
M  V30 37731 O 3673.92 -0.627831 1.85567 0
M  V30 37732 H 3672.5 0.60358 0.440114 0
M  V30 37733 H 3675.16 1.88348 0.501122 0
M  V30 37734 H 3674.26 2.46549 1.91363 0
M  V30 37735 N 3674.56 -0.692567 1.41567 0
M  V30 37736 C 3675.78 -1.4813 1.44448 0
M  V30 37737 C 3676.2 -1.88732 0.0506199 0
M  V30 37738 O 3675.56 -1.56982 -0.930751 0
M  V30 37739 C 3675.61 -2.74191 2.35587 0
M  V30 37740 O 3675.33 -2.35298 3.69549 0
M  V30 37741 C 3676.83 -3.67908 2.47303 0
M  V30 37742 H 3674.05 -0.456388 0.491885 0
M  V30 37743 H 3676.59 -0.852467 1.85885 0
M  V30 37744 H 3674.75 -3.33305 1.97451 0
M  V30 37745 H 3675.16 -3.16577 4.18186 0
M  V30 37746 H 3676.64 -4.53136 3.15233 0
M  V30 37747 H 3677.11 -4.126 1.50524 0
M  V30 37748 H 3677.72 -3.14697 2.86088 0
M  V30 37749 N 3676.03 -1.27445 -0.927123 0
M  V30 37750 C 3677.26 -1.16632 -1.70894 0
M  V30 37751 C 3677.68 0.276779 -1.8676 0
M  V30 37752 O 3677.03 1.18839 -1.38505 0
M  V30 37753 C 3677.09 -1.84578 -3.10826 0
M  V30 37754 O 3676.81 -3.2325 -2.95705 0
M  V30 37755 C 3678.31 -1.79898 -4.05156 0
M  V30 37756 H 3675.53 -0.405477 -0.53463 0
M  V30 37757 H 3678.07 -1.68327 -1.16131 0
M  V30 37758 H 3676.23 -1.36787 -3.62447 0
M  V30 37759 H 3676.64 -3.57086 -3.84174 0
M  V30 37760 H 3678.11 -2.32053 -5.00855 0
M  V30 37761 H 3678.59 -0.768449 -4.32425 0
M  V30 37762 H 3679.2 -2.27307 -3.5946 0
M  V30 37763 N 3677.51 1.1337 -1.09476 0
M  V30 37764 C 3678.76 1.84293 -0.829482 0
M  V30 37765 C 3679.08 1.83962 0.646756 0
M  V30 37766 O 3678.35 1.29574 1.46926 0
M  V30 37767 H 3676.93 0.682404 -0.303865 0
M  V30 37768 H 3679.59 1.37328 -1.38301 0
M  V30 37769 H 3678.69 2.88791 -1.18347 0
M  V30 37770 N 3678.99 0.882035 1.30606 0
M  V30 37771 C 3680.24 0.498013 1.95868 0
M  V30 37772 C 3680.56 -0.955375 1.69993 0
M  V30 37773 O 3679.83 -1.67134 1.02191 0
M  V30 37774 H 3678.41 0.181178 0.724696 0
M  V30 37775 H 3681.07 1.12447 1.59191 0
M  V30 37776 H 3680.17 0.665807 3.04915 0
M  V30 37777 N 3680.47 -1.439 0.642688 0
M  V30 37778 C 3681.88 -1.85242 0.232842 0
M  V30 37779 C 3682.23 -1.53791 -1.21831 0
M  V30 37780 O 3681.36 -0.981659 -1.92853 0
M  V30 37781 C 3681.95 -3.36239 0.415808 0
M  V30 37782 C 3680.51 -3.76352 0.0603716 0
M  V30 37783 C 3679.66 -2.6769 0.723705 0
M  V30 37784 H 3682.61 -1.34203 0.847076 0
M  V30 37785 H 3682.63 -3.78961 -0.341837 0
M  V30 37786 H 3682.14 -3.59099 1.47206 0
M  V30 37787 H 3680.24 -3.59105 -0.993698 0
M  V30 37788 H 3680.35 -4.76705 0.478492 0
M  V30 37789 H 3678.72 -2.5421 0.157914 0
M  V30 37790 H 3679.5 -2.9338 1.78278 0
M  V30 37791 N 3681.95 -0.383945 -1.52852 0
M  V30 37792 C 3683.19 0.199796 -2.03421 0
M  V30 37793 C 3683.55 1.44487 -1.26442 0
M  V30 37794 O 3684.75 2.10542 -1.67109 0
M  V30 37795 C 3683.02 0.466515 -3.54342 0
M  V30 37796 S 3684.58 1.0213 -4.26749 0
M  V30 37797 H 3681.4 0.0567511 -0.708731 0
M  V30 37798 H 3684 -0.531055 -1.88149 0
M  V30 37799 H 3682.71 -0.446843 -4.0796 0
M  V30 37800 H 3682.24 1.22594 -3.73811 0
M  V30 37801 H 3684.25 2.30412 -4.3946 0
M  V30 37802 N 3683.43 1.5719 -0.113614 0
M  V30 37803 C 3684.84 1.82083 0.412621 0
M  V30 37804 C 3685.19 1.03044 1.66962 0
M  V30 37805 O 3684.31 0.265392 2.14766 0
M  V30 37806 C 3684.91 3.30272 0.75538 0
M  V30 37807 C 3683.47 3.55864 1.22627 0
M  V30 37808 C 3682.61 2.76326 0.232237 0
M  V30 37809 H 3685.56 1.55041 -0.338819 0
M  V30 37810 H 3685.59 3.44606 1.61329 0
M  V30 37811 H 3685.1 3.87771 -0.159668 0
M  V30 37812 H 3683.2 3.03716 2.1584 0
M  V30 37813 H 3683.31 4.6446 1.17532 0
M  V30 37814 H 3681.68 2.44365 0.718179 0
M  V30 37815 H 3682.46 3.36582 -0.675815 0
M  V30 37816 N 3684.9 -0.160146 1.56784 0
M  V30 37817 C 3686.15 -0.876246 1.82893 0
M  V30 37818 C 3686.48 -1.81406 0.693205 0
M  V30 37819 O 3685.76 -1.92108 -0.304102 0
M  V30 37820 C 3686.04 -1.6622 3.19442 0
M  V30 37821 C 3685.89 -0.746753 4.43558 0
M  V30 37822 C 3687.21 -2.62752 3.53057 0
M  V30 37823 H 3684.33 -0.317108 0.66529 0
M  V30 37824 H 3686.97 -0.141971 1.89469 0
M  V30 37825 H 3685.12 -2.28817 3.13966 0
M  V30 37826 H 3686.8 -0.132795 4.61109 0
M  V30 37827 H 3685.04 -0.0554863 4.33765 0
M  V30 37828 H 3685.71 -1.33244 5.35677 0
M  V30 37829 H 3688.19 -2.10277 3.59058 0
M  V30 37830 H 3687.06 -3.14803 4.49656 0
M  V30 37831 H 3687.32 -3.43485 2.78335 0
M  V30 37832 N 3686.38 -1.51647 -0.429072 0
M  V30 37833 C 3687.61 -1.68543 -1.20003 0
M  V30 37834 C 3688.02 -0.386297 -1.84806 0
M  V30 37835 O 3687.38 0.635958 -1.71061 0
M  V30 37836 C 3687.43 -2.80698 -2.27796 0
M  V30 37837 O 3687.15 -4.05579 -1.65642 0
M  V30 37838 C 3688.65 -3.08934 -3.17922 0
M  V30 37839 H 3685.87 -0.565373 -0.361378 0
M  V30 37840 H 3688.42 -1.98105 -0.507397 0
M  V30 37841 H 3686.57 -2.53712 -2.92761 0
M  V30 37842 H 3686.99 -4.67928 -2.36947 0
M  V30 37843 H 3688.46 -3.90972 -3.89673 0
M  V30 37844 H 3688.94 -2.21675 -3.79153 0
M  V30 37845 H 3689.54 -3.37611 -2.58648 0
M  V30 37846 N 3687.86 0.685049 -1.41932 0
M  V30 37847 C 3689.14 1.44033 -1.3234 0
M  V30 37848 C 3689.52 2.11054 0.044079 0
M  V30 37849 O 3688.86 2.02479 1.05898 0
M  V30 37850 C 3689.07 2.45116 -2.48433 0
M  V30 37851 C 3690.42 3.10061 -2.90081 0
M  V30 37852 O 3691.45 2.55442 -2.48249 0
M  V30 37853 O 3690.31 4.09012 -3.62452 0
M  V30 37854 H 3687.4 0.64195 -0.521373 0
M  V30 37855 H 3689.95 0.714639 -1.53919 0
M  V30 37856 H 3688.72 1.9432 -3.3964 0
M  V30 37857 H 3688.34 3.2518 -2.28787 0
M  V30 37858 N 3689.34 1.27935 0.920351 0
M  V30 37859 C 3690.25 1.13126 2.05523 0
M  V30 37860 C 3691.26 0.0594515 1.73898 0
M  V30 37861 O 3692.44 0.267421 1.99617 0
M  V30 37862 C 3689.5 0.78761 3.37635 0
M  V30 37863 C 3688.57 1.94108 3.82911 0
M  V30 37864 C 3687.8 1.61373 5.08718 0
M  V30 37865 O 3688.02 0.525017 5.67979 0
M  V30 37866 O 3686.96 2.45527 5.49545 0
M  V30 37867 H 3690.78 2.08382 2.20932 0
M  V30 37868 H 3688.37 1.07191 1.04069 0
M  V30 37869 H 3690.25 0.609617 4.16967 0
M  V30 37870 H 3688.92 -0.135351 3.23417 0
M  V30 37871 H 3687.83 2.17418 3.04434 0
M  V30 37872 H 3689.16 2.84451 4.01682 0
M  V30 37873 N 3690.82 -1.12788 1.10076 0
M  V30 37874 C 3692.04 -1.88045 0.862939 0
M  V30 37875 C 3692.46 -1.79465 -0.586315 0
M  V30 37876 O 3691.82 -1.16594 -1.404 0
M  V30 37877 C 3691.87 -3.37397 1.2979 0
M  V30 37878 O 3691.59 -3.45765 2.69032 0
M  V30 37879 C 3693.09 -4.29603 1.09344 0
M  V30 37880 H 3690.31 -0.595102 0.309991 0
M  V30 37881 H 3692.85 -1.42736 1.46447 0
M  V30 37882 H 3691.01 -3.80264 0.740123 0
M  V30 37883 H 3691.42 -4.38658 2.8754 0
M  V30 37884 H 3692.9 -5.32698 1.44697 0
M  V30 37885 H 3693.37 -4.39189 0.0317562 0
M  V30 37886 H 3693.98 -3.92513 1.63749 0
M  V30 37887 N 3692.29 -0.888949 -1.30136 0
M  V30 37888 C 3693.7 -0.559377 -1.78123 0
M  V30 37889 C 3694.06 0.924602 -1.73048 0
M  V30 37890 O 3693.18 1.72262 -1.30977 0
M  V30 37891 C 3693.78 -1.00862 -3.23438 0
M  V30 37892 C 3692.33 -0.730396 -3.69245 0
M  V30 37893 C 3691.48 -1.18937 -2.50498 0
M  V30 37894 H 3694.43 -1.07277 -1.1695 0
M  V30 37895 H 3694.45 -0.339285 -3.78984 0
M  V30 37896 H 3693.97 -2.08871 -3.271 0
M  V30 37897 H 3692.07 0.337534 -3.71068 0
M  V30 37898 H 3692.18 -1.32074 -4.60536 0
M  V30 37899 H 3690.54 -0.608612 -2.47322 0
M  V30 37900 H 3691.33 -2.27728 -2.56895 0
M  V30 37901 N 3693.77 1.43557 -0.65031 0
M  V30 37902 C 3695.18 1.85116 -0.242662 0
M  V30 37903 C 3695.53 1.54435 1.21014 0
M  V30 37904 O 3694.66 0.991873 1.9233 0
M  V30 37905 C 3695.25 3.36013 -0.433634 0
M  V30 37906 C 3693.81 3.76314 -0.0803296 0
M  V30 37907 C 3692.96 2.67302 -0.737891 0
M  V30 37908 H 3695.91 1.33751 -0.854181 0
M  V30 37909 H 3695.93 3.79137 0.321735 0
M  V30 37910 H 3695.44 3.58313 -1.49109 0
M  V30 37911 H 3693.54 3.59627 0.97464 0
M  V30 37912 H 3693.66 4.76444 -0.503766 0
M  V30 37913 H 3692.02 2.54123 -0.171393 0
M  V30 37914 H 3692.8 2.9243 -1.79831 0
M  V30 37915 N 3695.25 0.392045 1.52646 0
M  V30 37916 C 3696.48 -0.189256 2.06033 0
M  V30 37917 C 3696.89 -1.40286 1.26354 0
M  V30 37918 O 3696.25 -1.79832 0.310909 0
M  V30 37919 C 3696.3 -0.556657 3.57188 0
M  V30 37920 O 3696.02 0.608733 4.3385 0
M  V30 37921 C 3697.52 -1.19353 4.26931 0
M  V30 37922 H 3694.74 -0.0279059 0.670419 0
M  V30 37923 H 3697.29 0.558067 1.96738 0
M  V30 37924 H 3695.44 -1.25388 3.66547 0
M  V30 37925 H 3695.86 0.306131 5.23606 0
M  V30 37926 H 3697.33 -1.40094 5.33927 0
M  V30 37927 H 3697.81 -2.16169 3.82319 0
M  V30 37928 H 3698.41 -0.536995 4.21896 0
M  V30 37929 N 3696.73 -1.57127 0.121948 0
M  V30 37930 C 3697.95 -2.00076 -0.54629 0
M  V30 37931 C 3698.38 -1.00116 -1.59243 0
M  V30 37932 O 3697.74 0.0267369 -1.8128 0
M  V30 37933 C 3697.78 -3.4189 -1.14645 0
M  V30 37934 O 3696.89 -3.44834 -2.26193 0
M  V30 37935 H 3696.23 -0.649887 -0.136172 0
M  V30 37936 H 3698.76 -2.03506 0.211293 0
M  V30 37937 H 3698.77 -3.80161 -1.48126 0
M  V30 37938 H 3697.44 -4.14159 -0.380201 0
M  V30 37939 H 3696.02 -3.18384 -1.94129 0
M  V30 37940 N 3698.21 0.151829 -1.56867 0
M  V30 37941 C 3699.17 1.17149 -1.96999 0
M  V30 37942 C 3700.17 1.36127 -0.855929 0
M  V30 37943 O 3701.36 1.33201 -1.12264 0
M  V30 37944 C 3698.49 2.53276 -2.28175 0
M  V30 37945 H 3699.68 0.827314 -2.88263 0
M  V30 37946 H 3697.24 0.394997 -1.51227 0
M  V30 37947 H 3697.97 2.92674 -1.39688 0
M  V30 37948 H 3697.76 2.40864 -3.09398 0
M  V30 37949 H 3699.25 3.26724 -2.60079 0
M  V30 37950 N 3699.68 1.51872 0.421024 0
M  V30 37951 C 3700.91 1.69467 1.19565 0
M  V30 37952 C 3701.33 0.398301 1.83835 0
M  V30 37953 O 3700.69 -0.643142 1.69509 0
M  V30 37954 C 3700.74 2.82325 2.24332 0
M  V30 37955 O 3699.84 2.47065 3.30201 0
M  V30 37956 H 3699.19 0.564533 0.349569 0
M  V30 37957 H 3701.72 1.98518 0.495142 0
M  V30 37958 H 3701.73 3.0689 2.68855 0
M  V30 37959 H 3700.4 3.76387 1.76934 0
M  V30 37960 H 3698.98 2.3313 2.91041 0
M  V30 37961 N 3701.16 -0.677513 1.42294 0
M  V30 37962 C 3702.44 -1.43329 1.33102 0
M  V30 37963 C 3702.82 -2.11074 -0.0328856 0
M  V30 37964 O 3702.17 -2.03038 -1.04823 0
M  V30 37965 C 3702.38 -2.43795 2.49729 0
M  V30 37966 C 3703.73 -3.08519 2.91721 0
M  V30 37967 O 3704.75 -2.54122 2.496 0
M  V30 37968 O 3703.61 -4.07084 3.64616 0
M  V30 37969 H 3700.7 -0.639176 0.52477 0
M  V30 37970 H 3703.25 -0.706466 1.54296 0
M  V30 37971 H 3702.02 -1.92516 3.40666 0
M  V30 37972 H 3701.64 -3.23962 2.30508 0
M  V30 37973 N 3702.64 -1.28421 -0.913554 0
M  V30 37974 C 3703.87 -1.18554 -1.70176 0
M  V30 37975 C 3704.29 0.252274 -1.86401 0
M  V30 37976 O 3703.65 1.18249 -1.37429 0
M  V30 37977 C 3703.7 -1.88935 -3.07142 0
M  V30 37978 O 3702.8 -1.19695 -3.94648 0
M  V30 37979 H 3702.14 -0.411542 -0.521085 0
M  V30 37980 H 3704.67 -1.69746 -1.14225 0
M  V30 37981 H 3704.68 -1.9685 -3.57371 0
M  V30 37982 H 3703.36 -2.9352 -2.9465 0
M  V30 37983 H 3701.93 -1.19945 -3.53083 0
M  V30 37984 N 3704.12 1.12202 -1.10672 0
M  V30 37985 C 3705.37 1.83403 -0.848982 0
M  V30 37986 C 3705.69 1.84638 0.627208 0
M  V30 37987 O 3704.96 1.31125 1.45544 0
M  V30 37988 H 3703.54 0.679143 -0.311086 0
M  V30 37989 H 3706.2 1.35853 -1.39749 0
M  V30 37990 H 3705.3 2.8752 -1.21403 0
M  V30 37991 N 3705.6 0.895838 1.29663 0
M  V30 37992 C 3706.82 0.534368 2.00398 0
M  V30 37993 C 3707.25 -0.872625 1.66634 0
M  V30 37994 O 3706.6 -1.58017 0.888839 0
M  V30 37995 C 3706.65 0.729085 3.53153 0
M  V30 37996 O 3705.76 -0.220158 4.11812 0
M  V30 37997 H 3705.1 0.209244 0.630169 0
M  V30 37998 H 3707.63 1.20637 1.65251 0
M  V30 37999 H 3707.64 0.63225 4.03071 0
M  V30 38000 H 3706.31 1.75487 3.77064 0
M  V30 38001 H 3704.89 -0.0761031 3.72822 0
M  V30 38002 N 3707.07 -1.43211 0.657914 0
M  V30 38003 C 3708.3 -2.06622 0.17948 0
M  V30 38004 C 3708.72 -1.49017 -1.14785 0
M  V30 38005 O 3708.08 -0.60195 -1.71015 0
M  V30 38006 C 3708.13 -3.60442 0.106889 0
M  V30 38007 O 3707.23 -4.01787 -0.929549 0
M  V30 38008 H 3706.58 -0.656873 0.0970246 0
M  V30 38009 H 3709.11 -1.83636 0.902165 0
M  V30 38010 H 3709.12 -4.07931 -0.0748783 0
M  V30 38011 H 3707.79 -4.01745 1.07581 0
M  V30 38012 H 3706.37 -3.65879 -0.72019 0
M  V30 38013 N 3708.55 -0.400135 -1.52436 0
M  V30 38014 C 3709.48 0.464999 -2.24434 0
M  V30 38015 C 3710.5 1.01771 -1.27069 0
M  V30 38016 O 3711.69 0.918188 -1.53074 0
M  V30 38017 C 3708.79 1.65827 -2.95558 0
M  V30 38018 C 3707.96 1.23103 -4.19719 0
M  V30 38019 C 3707.02 2.2902 -4.73747 0
M  V30 38020 O 3706.04 1.8998 -5.3656 0
M  V30 38021 N 3707.25 3.61072 -4.5454 0
M  V30 38022 H 3710.01 -0.151891 -2.99315 0
M  V30 38023 H 3707.57 -0.227047 -1.603 0
M  V30 38024 H 3709.56 2.3623 -3.28599 0
M  V30 38025 H 3708.13 2.18127 -2.23918 0
M  V30 38026 H 3707.35 0.355468 -3.92594 0
M  V30 38027 H 3708.64 0.922399 -5.00369 0
M  V30 38028 H 3708.04 3.95545 -4.04426 0
M  V30 38029 H 3706.6 4.27478 -4.92043 0
M  V30 38030 N 3710.03 1.57061 -0.13028 0
M  V30 38031 C 3711.26 2.00363 0.535672 0
M  V30 38032 C 3711.68 1.00959 1.5871 0
M  V30 38033 O 3711.04 -0.0171227 1.81292 0
M  V30 38034 C 3711.09 3.42493 1.1283 0
M  V30 38035 O 3710.19 3.46029 2.24361 0
M  V30 38036 H 3709.53 0.6506 0.132724 0
M  V30 38037 H 3712.06 2.03391 -0.222083 0
M  V30 38038 H 3712.07 3.80941 1.46108 0
M  V30 38039 H 3710.75 4.14354 0.358231 0
M  V30 38040 H 3709.32 3.19409 1.92438 0
M  V30 38041 N 3711.51 -0.143508 1.56945 0
M  V30 38042 C 3712.79 -0.884423 1.74463 0
M  V30 38043 C 3713.17 -1.99183 0.699236 0
M  V30 38044 O 3712.51 -2.26763 -0.281227 0
M  V30 38045 C 3712.72 -1.42367 3.18642 0
M  V30 38046 C 3714.07 -1.88571 3.80429 0
M  V30 38047 O 3715.1 -1.52101 3.22093 0
M  V30 38048 O 3713.96 -2.55838 4.82917 0
M  V30 38049 H 3711.05 -0.418208 0.713464 0
M  V30 38050 H 3713.6 -0.12916 1.69208 0
M  V30 38051 H 3712.37 -0.627988 3.86228 0
M  V30 38052 H 3711.99 -2.24234 3.28336 0
M  V30 38053 N 3712.99 -1.52093 -0.412964 0
M  V30 38054 C 3714.21 -1.70099 -1.18664 0
M  V30 38055 C 3714.64 -0.408045 -1.83621 0
M  V30 38056 O 3714 0.634144 -1.69848 0
M  V30 38057 C 3714.04 -2.83511 -2.22832 0
M  V30 38058 O 3713.15 -2.48813 -3.28886 0
M  V30 38059 H 3712.49 -0.566379 -0.346571 0
M  V30 38060 H 3715.02 -1.98778 -0.484607 0
M  V30 38061 H 3715.03 -3.08311 -2.67223 0
M  V30 38062 H 3713.7 -3.7732 -1.74936 0
M  V30 38063 H 3712.28 -2.34671 -2.898 0
M  V30 38064 N 3714.47 0.669957 -1.42651 0
M  V30 38065 C 3715.74 1.42621 -1.33861 0
M  V30 38066 C 3716.12 2.11089 0.0216914 0
M  V30 38067 O 3715.47 2.03591 1.03744 0
M  V30 38068 C 3715.68 2.42468 -2.51019 0
M  V30 38069 C 3717.03 3.06967 -2.93353 0
M  V30 38070 O 3718.05 2.52795 -2.50944 0
M  V30 38071 O 3716.91 4.05145 -3.66769 0
M  V30 38072 H 3714.01 0.636384 -0.528152 0
M  V30 38073 H 3716.55 0.698273 -1.54668 0
M  V30 38074 H 3715.32 1.90707 -3.41682 0
M  V30 38075 H 3714.95 3.22735 -2.32223 0
M  V30 38076 N 3715.94 1.28904 0.90673 0
M  V30 38077 C 3717.19 1.16639 1.65901 0
M  V30 38078 C 3717.52 -0.282947 1.92128 0
M  V30 38079 O 3716.8 -1.2051 1.52668 0
M  V30 38080 C 3717.08 1.97277 3.01253 0
M  V30 38081 C 3716.93 3.50313 2.82136 0
M  V30 38082 C 3718.25 1.79367 4.0189 0
M  V30 38083 H 3715.37 0.425086 0.602055 0
M  V30 38084 H 3718.01 1.58299 1.05079 0
M  V30 38085 H 3716.16 1.61877 3.53169 0
M  V30 38086 H 3717.84 3.95657 2.37177 0
M  V30 38087 H 3716.08 3.75591 2.17057 0
M  V30 38088 H 3716.75 4.02 3.78286 0
M  V30 38089 H 3719.23 2.10274 3.5906 0
M  V30 38090 H 3718.1 2.3815 4.94546 0
M  V30 38091 H 3718.36 0.747 4.35743 0
M  V30 38092 N 3717.42 -1.11614 1.11266 0
M  V30 38093 C 3718.83 -1.64834 0.876742 0
M  V30 38094 C 3719.18 -1.87076 -0.591351 0
M  V30 38095 O 3718.31 -1.60363 -1.45302 0
M  V30 38096 C 3718.9 -2.99437 1.58502 0
M  V30 38097 C 3717.46 -3.49572 1.39558 0
M  V30 38098 C 3716.61 -2.24419 1.62885 0
M  V30 38099 H 3719.56 -0.952782 1.26916 0
M  V30 38100 H 3719.58 -3.66323 1.02898 0
M  V30 38101 H 3719.09 -2.83217 2.65349 0
M  V30 38102 H 3717.19 -3.70961 0.349124 0
M  V30 38103 H 3717.31 -4.28479 2.14341 0
M  V30 38104 H 3715.67 -2.31954 1.05212 0
M  V30 38105 H 3716.45 -2.10743 2.71002 0
M  V30 38106 N 3718.9 -0.902701 -1.29186 0
M  V30 38107 C 3720.31 -0.578238 -1.7752 0
M  V30 38108 C 3720.66 0.906196 -1.74019 0
M  V30 38109 O 3719.79 1.70863 -1.32796 0
M  V30 38110 C 3720.38 -1.04287 -3.2235 0
M  V30 38111 C 3718.94 -0.769519 -3.6845 0
M  V30 38112 C 3718.09 -1.21587 -2.49222 0
M  V30 38113 H 3721.04 -1.08512 -1.15806 0
M  V30 38114 H 3721.06 -0.379463 -3.78603 0
M  V30 38115 H 3720.57 -2.12329 -3.24866 0
M  V30 38116 H 3718.67 0.298158 -3.71405 0
M  V30 38117 H 3718.79 -1.36951 -4.59109 0
M  V30 38118 H 3717.15 -0.634809 -2.46662 0
M  V30 38119 H 3717.93 -2.3044 -2.54465 0
M  V30 38120 N 3720.38 1.4286 -0.6655 0
M  V30 38121 C 3721.29 2.34592 0.0188858 0
M  V30 38122 C 3722.3 1.54573 0.79894 0
M  V30 38123 O 3723.48 1.87178 0.743386 0
M  V30 38124 C 3720.54 3.33001 0.964955 0
M  V30 38125 C 3719.61 4.28921 0.180469 0
M  V30 38126 C 3718.84 5.22628 1.08147 0
M  V30 38127 O 3719.06 5.21047 2.32092 0
M  V30 38128 O 3718 5.99407 0.547275 0
M  V30 38129 H 3721.82 2.94634 -0.736495 0
M  V30 38130 H 3719.41 1.43206 -0.425709 0
M  V30 38131 H 3721.29 3.93482 1.50832 0
M  V30 38132 H 3719.96 2.75445 1.70035 0
M  V30 38133 H 3718.87 3.71882 -0.406775 0
M  V30 38134 H 3720.2 4.89492 -0.515615 0
M  V30 38135 N 3721.86 0.408213 1.52221 0
M  V30 38136 C 3723.08 -0.167393 2.06222 0
M  V30 38137 C 3723.5 -1.38938 1.27835 0
M  V30 38138 O 3722.86 -1.79492 0.329965 0
M  V30 38139 C 3722.91 -0.518741 3.57759 0
M  V30 38140 O 3722.63 0.654715 4.3318 0
M  V30 38141 C 3724.13 -1.14818 4.28173 0
M  V30 38142 H 3721.35 -0.0207936 0.670678 0
M  V30 38143 H 3723.89 0.578903 1.96135 0
M  V30 38144 H 3722.05 -1.21493 3.67856 0
M  V30 38145 H 3722.46 0.36165 5.23252 0
M  V30 38146 H 3723.94 -1.34423 5.35382 0
M  V30 38147 H 3724.41 -2.12101 3.8459 0
M  V30 38148 H 3725.02 -0.492217 4.22442 0
M  V30 38149 N 3723.33 -1.56989 0.138607 0
M  V30 38150 C 3724.24 -2.19895 -0.817509 0
M  V30 38151 C 3725.26 -1.18077 -1.27804 0
M  V30 38152 O 3726.44 -1.50622 -1.33697 0
M  V30 38153 C 3723.5 -2.80156 -2.04239 0
M  V30 38154 C 3722.56 -3.97074 -1.6319 0
M  V30 38155 C 3721.79 -4.54451 -2.79839 0
M  V30 38156 O 3722.02 -4.1071 -3.9582 0
M  V30 38157 O 3720.95 -5.44842 -2.55794 0
M  V30 38158 H 3724.78 -3.02092 -0.31207 0
M  V30 38159 H 3722.36 -1.49141 -0.0880018 0
M  V30 38160 H 3724.24 -3.1849 -2.75939 0
M  V30 38161 H 3722.92 -2.00977 -2.53751 0
M  V30 38162 H 3721.83 -3.63472 -0.885385 0
M  V30 38163 H 3723.16 -4.77747 -1.18401 0
M  V30 38164 N 3724.81 0.135183 -1.57019 0
M  V30 38165 C 3725.72 1.18574 -2.02429 0
M  V30 38166 C 3726.74 1.46311 -0.941763 0
M  V30 38167 O 3727.91 1.57747 -1.25211 0
M  V30 38168 C 3724.98 2.49643 -2.40581 0
M  V30 38169 C 3724.04 2.29448 -3.62839 0
M  V30 38170 C 3723.27 3.54267 -3.99162 0
M  V30 38171 O 3723.5 4.60927 -3.36009 0
M  V30 38172 O 3722.43 3.46229 -4.92351 0
M  V30 38173 H 3726.26 0.830185 -2.92133 0
M  V30 38174 H 3723.84 0.344788 -1.45367 0
M  V30 38175 H 3725.72 3.26895 -2.65927 0
M  V30 38176 H 3724.4 2.84705 -1.54028 0
M  V30 38177 H 3723.3 1.50108 -3.42664 0
M  V30 38178 H 3724.64 1.99297 -4.50046 0
M  V30 38179 N 3726.29 1.5231 0.404892 0
M  V30 38180 C 3727.53 1.68256 1.16057 0
M  V30 38181 C 3727.89 0.405821 1.87662 0
M  V30 38182 O 3729.1 0.441434 2.65151 0
M  V30 38183 C 3727.37 2.87345 2.12526 0
M  V30 38184 S 3728.93 3.23796 2.96145 0
M  V30 38185 H 3725.74 0.592445 0.393103 0
M  V30 38186 H 3728.35 1.90315 0.447266 0
M  V30 38187 H 3727.05 3.78509 1.58616 0
M  V30 38188 H 3726.58 2.67572 2.8839 0
M  V30 38189 H 3728.6 2.72747 4.14516 0
M  V30 38190 N 3727.77 -0.662382 1.43004 0
M  V30 38191 C 3729.18 -1.24333 1.39277 0
M  V30 38192 C 3729.53 -1.95983 0.0922343 0
M  V30 38193 O 3728.66 -2.00724 -0.808642 0
M  V30 38194 C 3729.25 -2.26129 2.52291 0
M  V30 38195 C 3727.81 -2.79722 2.51858 0
M  V30 38196 C 3726.96 -1.54226 2.30456 0
M  V30 38197 H 3729.91 -0.454975 1.52038 0
M  V30 38198 H 3729.93 -3.08119 2.23255 0
M  V30 38199 H 3729.44 -1.73953 3.46932 0
M  V30 38200 H 3727.54 -3.35987 1.6107 0
M  V30 38201 H 3727.65 -3.27892 3.49319 0
M  V30 38202 H 3726.02 -1.81244 1.78949 0
M  V30 38203 H 3726.8 -1.03997 3.27169 0
M  V30 38204 N 3729.25 -1.29383 -0.899882 0
M  V30 38205 C 3730.47 -1.20352 -1.68909 0
M  V30 38206 C 3730.9 0.23249 -1.86658 0
M  V30 38207 O 3730.25 1.16785 -1.38676 0
M  V30 38208 C 3730.3 -1.92182 -3.0512 0
M  V30 38209 O 3729.41 -1.23874 -3.93356 0
M  V30 38210 H 3728.75 -0.417045 -0.516691 0
M  V30 38211 H 3731.28 -1.70948 -1.12419 0
M  V30 38212 H 3731.29 -2.00629 -3.55263 0
M  V30 38213 H 3729.96 -2.96629 -2.9152 0
M  V30 38214 H 3728.54 -1.23684 -3.51791 0
M  V30 38215 N 3730.72 1.11022 -1.11856 0
M  V30 38216 C 3731.97 1.82218 -0.864846 0
M  V30 38217 C 3732.29 1.85802 0.611317 0
M  V30 38218 O 3733.49 2.53141 0.981431 0
M  V30 38219 C 3731.95 3.27266 -1.49751 0
M  V30 38220 C 3731.56 3.31997 -3.00802 0
M  V30 38221 C 3733.3 4.03331 -1.32381 0
M  V30 38222 C 3731.21 4.71469 -3.57031 0
M  V30 38223 H 3730.14 0.682779 -0.319889 0
M  V30 38224 H 3732.79 1.249 -1.34433 0
M  V30 38225 H 3731.17 3.84542 -0.945688 0
M  V30 38226 H 3732.34 2.84579 -3.62425 0
M  V30 38227 H 3730.66 2.69415 -3.17497 0
M  V30 38228 H 3733.26 5.06342 -1.71819 0
M  V30 38229 H 3733.6 4.15444 -0.266833 0
M  V30 38230 H 3734.13 3.52453 -1.84451 0
M  V30 38231 H 3730.87 4.64554 -4.62461 0
M  V30 38232 H 3730.39 5.1928 -3.00181 0
M  V30 38233 H 3732.07 5.40431 -3.55729 0
M  V30 38234 N 3732.2 0.90954 1.28706 0
M  V30 38235 C 3733.43 0.556246 1.99282 0
M  V30 38236 C 3733.85 -0.861445 1.68002 0
M  V30 38237 O 3733.2 -1.57 0.930449 0
M  V30 38238 C 3733.25 0.750742 3.53619 0
M  V30 38239 O 3732.97 2.11264 3.83796 0
M  V30 38240 C 3734.48 0.403715 4.41458 0
M  V30 38241 H 3731.7 0.212473 0.636472 0
M  V30 38242 H 3734.24 1.22159 1.64005 0
M  V30 38243 H 3732.39 0.132452 3.87174 0
M  V30 38244 H 3732.81 2.14922 4.78444 0
M  V30 38245 H 3734.28 0.590593 5.48831 0
M  V30 38246 H 3734.76 -0.659821 4.34215 0
M  V30 38247 H 3735.37 0.999364 4.13392 0
M  V30 38248 N 3733.68 -1.42505 0.673067 0
M  V30 38249 C 3734.64 -2.292 0.00287184 0
M  V30 38250 C 3735.64 -1.43237 -0.730745 0
M  V30 38251 O 3736.83 -1.64645 -0.569008 0
M  V30 38252 C 3733.97 -3.257 -1.0066 0
M  V30 38253 H 3735.16 -2.89955 0.76592 0
M  V30 38254 H 3732.71 -1.50115 0.435327 0
M  V30 38255 H 3733.45 -2.6988 -1.7982 0
M  V30 38256 H 3733.23 -3.89102 -0.483975 0
M  V30 38257 H 3734.72 -3.90721 -1.47402 0
M  V30 38258 N 3735.16 -0.41628 -1.52003 0
M  V30 38259 C 3736.07 0.412363 -2.30947 0
M  V30 38260 C 3737.08 1.04705 -1.38971 0
M  V30 38261 O 3738.26 1.047 -1.72046 0
M  V30 38262 C 3735.33 1.51018 -3.12081 0
M  V30 38263 C 3734.39 0.897818 -4.19807 0
M  V30 38264 C 3733.62 1.94332 -4.97062 0
M  V30 38265 O 3733.84 3.16253 -4.747 0
M  V30 38266 O 3732.78 1.54557 -5.81718 0
M  V30 38267 H 3736.6 -0.231527 -3.02816 0
M  V30 38268 H 3734.19 -0.179309 -1.4832 0
M  V30 38269 H 3736.07 2.14735 -3.62584 0
M  V30 38270 H 3734.74 2.13854 -2.42998 0
M  V30 38271 H 3733.65 0.22317 -3.73434 0
M  V30 38272 H 3734.98 0.313274 -4.91202 0
M  V30 38273 N 3736.64 1.56914 -0.146931 0
M  V30 38274 C 3737.6 2.15568 0.778671 0
M  V30 38275 C 3738.6 1.09744 1.17528 0
M  V30 38276 O 3739.79 1.35384 1.09622 0
M  V30 38277 C 3736.92 2.71872 2.05665 0
M  V30 38278 H 3738.11 2.98696 0.268454 0
M  V30 38279 H 3735.67 1.55963 0.102513 0
M  V30 38280 H 3736.4 1.9241 2.61054 0
M  V30 38281 H 3736.19 3.49293 1.78148 0
M  V30 38282 H 3737.68 3.17063 2.71773 0
M  V30 38283 N 3738.11 -0.126854 1.57089 0
M  V30 38284 C 3739.08 -1.14 1.98838 0
M  V30 38285 C 3740.08 -1.34748 0.877478 0
M  V30 38286 O 3741.27 -1.31398 1.14369 0
M  V30 38287 C 3738.4 -2.49614 2.32176 0
M  V30 38288 H 3739.59 -0.781349 2.89543 0
M  V30 38289 H 3737.15 -0.370889 1.51836 0
M  V30 38290 H 3737.88 -2.90414 1.44326 0
M  V30 38291 H 3737.67 -2.35911 3.13191 0
M  V30 38292 H 3739.16 -3.22545 2.65244 0
M  V30 38293 N 3739.59 -1.52523 -0.396809 0
M  V30 38294 C 3740.52 -1.79711 -1.49085 0
M  V30 38295 C 3741.5 -0.648705 -1.57244 0
M  V30 38296 O 3742.69 -0.895525 -1.72319 0
M  V30 38297 C 3739.82 -1.95892 -2.86781 0
M  V30 38298 C 3738.77 -3.11547 -2.93466 0
M  V30 38299 C 3738.1 -3.12971 -4.33536 0
M  V30 38300 C 3739.4 -4.5077 -2.63824 0
M  V30 38301 H 3741.09 -2.71325 -1.26583 0
M  V30 38302 H 3738.64 -1.30558 -0.607512 0
M  V30 38303 H 3740.59 -2.13495 -3.63315 0
M  V30 38304 H 3739.32 -1.00961 -3.10603 0
M  V30 38305 H 3737.97 -2.93715 -2.19379 0
M  V30 38306 H 3737.62 -2.15737 -4.54386 0
M  V30 38307 H 3737.32 -3.90658 -4.38931 0
M  V30 38308 H 3738.85 -3.32718 -5.11987 0
M  V30 38309 H 3740.26 -4.68745 -3.30078 0
M  V30 38310 H 3738.66 -5.30467 -2.80579 0
M  V30 38311 H 3739.73 -4.58021 -1.59201 0
M  V30 38312 N 3741.07 0.654789 -1.43354 0
M  V30 38313 C 3742.35 1.41193 -1.35366 0
M  V30 38314 C 3742.73 2.111 -0.000698629 0
M  V30 38315 O 3742.08 2.0468 1.01579 0
M  V30 38316 C 3742.29 2.39792 -2.53576 0
M  V30 38317 C 3743.63 3.03839 -2.96593 0
M  V30 38318 O 3744.66 2.50119 -2.53612 0
M  V30 38319 O 3743.52 4.01232 -3.71046 0
M  V30 38320 H 3740.61 0.630746 -0.534872 0
M  V30 38321 H 3743.16 0.681829 -1.554 0
M  V30 38322 H 3741.93 1.87072 -3.43686 0
M  V30 38323 H 3741.55 3.20254 -2.35633 0
M  V30 38324 N 3742.55 1.29858 0.893007 0
M  V30 38325 C 3743.77 1.21246 1.68268 0
M  V30 38326 C 3744.2 -0.222588 1.86778 0
M  V30 38327 O 3743.56 -1.16048 1.39293 0
M  V30 38328 C 3743.61 1.93797 3.04097 0
M  V30 38329 O 3742.71 1.25958 3.92694 0
M  V30 38330 H 3742.05 0.41978 0.514472 0
M  V30 38331 H 3744.58 1.71542 1.1151 0
M  V30 38332 H 3744.59 2.0251 3.54194 0
M  V30 38333 H 3743.27 2.98171 2.89943 0
M  V30 38334 H 3741.84 1.25547 3.5113 0
M  V30 38335 N 3744.03 -1.10427 1.12443 0
M  V30 38336 C 3745.3 -1.78883 0.791223 0
M  V30 38337 C 3745.68 -1.98478 -0.719009 0
M  V30 38338 O 3745.03 -1.57789 -1.65272 0
M  V30 38339 C 3745.24 -3.11874 1.56638 0
M  V30 38340 C 3746.59 -3.86749 1.75243 0
M  V30 38341 O 3747.61 -3.21595 1.5315 0
M  V30 38342 O 3746.47 -5.0369 2.12033 0
M  V30 38343 H 3743.57 -0.775306 0.287801 0
M  V30 38344 H 3746.11 -1.17076 1.22846 0
M  V30 38345 H 3744.89 -2.93032 2.59322 0
M  V30 38346 H 3744.51 -3.814 1.12339 0
M  V30 38347 N 3745.51 -0.916353 -1.28221 0
M  V30 38348 C 3746.42 -0.411922 -2.30955 0
M  V30 38349 C 3747.43 0.501724 -1.6661 0
M  V30 38350 O 3748.61 0.387282 -1.97641 0
M  V30 38351 C 3745.67 0.337497 -3.45053 0
M  V30 38352 C 3744.73 -0.609684 -4.24949 0
M  V30 38353 C 3743.97 0.104065 -5.33599 0
M  V30 38354 O 3744.19 1.32536 -5.54789 0
M  V30 38355 O 3743.12 -0.561956 -5.99271 0
M  V30 38356 H 3746.95 -1.26466 -2.76116 0
M  V30 38357 H 3744.53 -0.68127 -1.32963 0
M  V30 38358 H 3746.42 0.760649 -4.14478 0
M  V30 38359 H 3745.09 1.16602 -3.0197 0
M  V30 38360 H 3744 -1.08229 -3.58102 0
M  V30 38361 H 3745.33 -1.4051 -4.71718 0
M  V30 38362 N 3746.98 1.42146 -0.680615 0
M  V30 38363 C 3748.26 1.95141 -0.133991 0
M  V30 38364 C 3748.64 1.62076 1.35257 0
M  V30 38365 O 3747.99 0.919935 2.09164 0
M  V30 38366 C 3748.2 3.46591 -0.409327 0
M  V30 38367 C 3749.55 4.23324 -0.328974 0
M  V30 38368 O 3750.57 3.54541 -0.343399 0
M  V30 38369 O 3749.43 5.45802 -0.276172 0
M  V30 38370 H 3746.52 0.826976 -0.00624896 0
M  V30 38371 H 3749.07 1.51943 -0.755745 0
M  V30 38372 H 3747.84 3.63884 -1.43889 0
M  V30 38373 H 3747.46 3.9685 0.244147 0
M  V30 38374 N 3748.46 0.424336 1.5178 0
M  V30 38375 C 3749.71 -0.146167 2.01571 0
M  V30 38376 C 3750.03 -1.44342 1.31113 0
M  V30 38377 O 3749.3 -1.90856 0.441664 0
M  V30 38378 H 3747.88 -0.0570059 0.744822 0
M  V30 38379 H 3750.54 0.564064 1.86559 0
M  V30 38380 H 3749.64 -0.331409 3.10335 0
M  V30 38381 N 3749.94 -1.56833 0.15525 0
M  V30 38382 C 3751.22 -1.88019 -0.539294 0
M  V30 38383 C 3751.6 -1.06256 -1.82408 0
M  V30 38384 O 3750.94 -0.151761 -2.27995 0
M  V30 38385 C 3751.15 -3.39783 -0.796767 0
M  V30 38386 C 3752.5 -4.0918 -1.1339 0
M  V30 38387 O 3753.53 -3.45009 -0.885846 0
M  V30 38388 O 3752.39 -5.22521 -1.60108 0
M  V30 38389 H 3749.48 -0.779567 -0.276052 0
M  V30 38390 H 3752.03 -1.68605 0.192481 0
M  V30 38391 H 3750.8 -3.91139 0.112166 0
M  V30 38392 H 3750.42 -3.64753 -1.58243 0
M  V30 38393 N 3751.42 0.118521 -1.57154 0
M  V30 38394 C 3752.66 0.826223 -1.84878 0
M  V30 38395 C 3752.99 1.79856 -0.740405 0
M  V30 38396 O 3752.25 1.93854 0.268199 0
M  V30 38397 C 3752.55 1.60993 -3.19086 0
M  V30 38398 C 3752.21 0.781833 -4.4407 0
M  V30 38399 C 3750.87 0.553474 -4.78006 0
M  V30 38400 C 3753.23 0.204647 -5.20798 0
M  V30 38401 C 3750.55 -0.262315 -5.86113 0
M  V30 38402 C 3752.91 -0.598336 -6.29764 0
M  V30 38403 C 3751.57 -0.837007 -6.62231 0
M  V30 38404 H 3750.84 0.302336 -0.676516 0
M  V30 38405 H 3753.49 0.0885846 -1.91295 0
M  V30 38406 H 3751.79 2.41848 -3.08248 0
M  V30 38407 H 3753.49 2.16148 -3.37759 0
M  V30 38408 H 3750.08 0.969911 -4.17481 0
M  V30 38409 H 3754.26 0.368287 -4.94932 0
M  V30 38410 H 3749.52 -0.456445 -6.09694 0
M  V30 38411 H 3753.69 -1.05257 -6.884 0
M  V30 38412 H 3751.32 -1.47096 -7.45833 0
M  V30 38413 N 3752.9 1.52731 0.388715 0
M  V30 38414 C 3753.83 1.80499 1.4813 0
M  V30 38415 C 3754.81 0.657035 1.56898 0
M  V30 38416 O 3755.99 0.904651 1.71842 0
M  V30 38417 C 3753.12 1.9741 2.85738 0
M  V30 38418 C 3752.08 3.13099 2.9181 0
M  V30 38419 C 3751.4 3.15265 4.3187 0
M  V30 38420 C 3752.7 4.52163 2.6143 0
M  V30 38421 H 3754.4 2.71992 1.25143 0
M  V30 38422 H 3751.94 1.30878 0.60058 0
M  V30 38423 H 3753.89 2.15419 3.62178 0
M  V30 38424 H 3752.62 1.02607 3.10064 0
M  V30 38425 H 3751.28 2.94874 2.17818 0
M  V30 38426 H 3750.93 2.18143 4.53236 0
M  V30 38427 H 3750.63 3.9298 4.36853 0
M  V30 38428 H 3752.15 3.35429 5.10215 0
M  V30 38429 H 3753.56 4.70489 3.27587 0
M  V30 38430 H 3751.96 5.31948 2.77762 0
M  V30 38431 H 3753.03 4.58859 1.5677 0
M  V30 38432 N 3754.37 -0.647178 1.43699 0
M  V30 38433 C 3755.78 -1.22849 1.40588 0
M  V30 38434 C 3756.14 -1.95874 0.113016 0
M  V30 38435 O 3755.26 -2.0157 -0.787307 0
M  V30 38436 C 3755.86 -2.23441 2.54676 0
M  V30 38437 C 3754.41 -2.77035 2.5481 0
M  V30 38438 C 3753.56 -1.51773 2.32078 0
M  V30 38439 H 3756.51 -0.438824 1.52512 0
M  V30 38440 H 3756.53 -3.05734 2.2651 0
M  V30 38441 H 3756.05 -1.70263 3.48758 0
M  V30 38442 H 3754.15 -3.3426 1.64625 0
M  V30 38443 H 3754.26 -3.24168 3.52777 0
M  V30 38444 H 3752.62 -1.79336 1.80861 0
M  V30 38445 H 3753.41 -1.00521 3.28254 0
M  V30 38446 N 3755.85 -1.3033 -0.886108 0
M  V30 38447 C 3757.1 -1.19264 -1.64024 0
M  V30 38448 C 3757.43 0.252345 -1.92554 0
M  V30 38449 O 3756.71 1.18066 -1.54566 0
M  V30 38450 C 3756.99 -2.02045 -2.98077 0
M  V30 38451 C 3756.84 -3.54757 -2.76528 0
M  V30 38452 C 3758.16 -1.85738 -3.98985 0
M  V30 38453 H 3755.28 -0.434611 -0.595216 0
M  V30 38454 H 3757.92 -1.5995 -1.02547 0
M  V30 38455 H 3756.07 -1.67475 -3.50549 0
M  V30 38456 H 3757.74 -3.99381 -2.30853 0
M  V30 38457 H 3755.99 -3.78997 -2.11054 0
M  V30 38458 H 3756.66 -4.07967 -3.71842 0
M  V30 38459 H 3759.13 -2.15959 -3.55669 0
M  V30 38460 H 3758.01 -2.45987 -4.90695 0
M  V30 38461 H 3758.27 -0.816228 -4.345 0
M  V30 38462 N 3757.33 1.0983 -1.13028 0
M  V30 38463 C 3758.61 1.78461 -0.800698 0
M  V30 38464 C 3758.99 1.98856 0.708474 0
M  V30 38465 O 3758.34 1.58663 1.64433 0
M  V30 38466 C 3758.55 3.11039 -1.5829 0
M  V30 38467 C 3759.89 3.85815 -1.77292 0
M  V30 38468 O 3760.92 3.20778 -1.54854 0
M  V30 38469 O 3759.78 5.02559 -2.14702 0
M  V30 38470 H 3756.87 0.773769 -0.291909 0
M  V30 38471 H 3759.42 1.16423 -1.23466 0
M  V30 38472 H 3758.19 2.91653 -2.60872 0
M  V30 38473 H 3757.81 3.80799 -1.1436 0
M  V30 38474 N 3758.81 0.92314 1.27734 0
M  V30 38475 C 3759.76 0.417294 2.26996 0
M  V30 38476 C 3760.73 -0.513337 1.57969 0
M  V30 38477 O 3761.91 -0.433489 1.8581 0
M  V30 38478 C 3759.05 -0.328028 3.43537 0
M  V30 38479 C 3758.16 0.636188 4.2729 0
M  V30 38480 C 3757.3 -0.128521 5.31045 0
M  V30 38481 C 3756.34 0.828699 6.06464 0
M  V30 38482 N 3755.47 0.0969092 7.02033 0
M  V30 38483 H 3760.31 1.26877 2.69641 0
M  V30 38484 H 3757.85 0.636923 1.32596 0
M  V30 38485 H 3759.81 -0.776432 4.09911 0
M  V30 38486 H 3758.44 -1.14378 3.01857 0
M  V30 38487 H 3757.49 1.20312 3.60873 0
M  V30 38488 H 3758.8 1.36793 4.79676 0
M  V30 38489 H 3757.96 -0.637053 6.03346 0
M  V30 38490 H 3756.7 -0.893257 4.7945 0
M  V30 38491 H 3755.7 1.34852 5.33006 0
M  V30 38492 H 3756.93 1.59314 6.60148 0
M  V30 38493 H 3754.87 -0.649664 6.52775 0
M  V30 38494 H 3754.79 0.768303 7.52086 0
M  V30 38495 H 3756.06 -0.39112 7.78518 0
M  V30 38496 N 3760.29 -1.41783 0.688143 0
M  V30 38497 C 3761.25 -2.29184 0.0271814 0
M  V30 38498 C 3762.25 -1.44004 -0.715511 0
M  V30 38499 O 3763.44 -1.65239 -0.551513 0
M  V30 38500 C 3760.57 -3.26749 -0.972003 0
M  V30 38501 H 3761.76 -2.89126 0.796631 0
M  V30 38502 H 3759.32 -1.49645 0.451224 0
M  V30 38503 H 3760.05 -2.71772 -1.76948 0
M  V30 38504 H 3759.84 -3.89593 -0.442678 0
M  V30 38505 H 3761.33 -3.92262 -1.43249 0
M  V30 38506 N 3761.76 -0.432379 -1.51553 0
M  V30 38507 C 3763.01 0.135475 -2.01645 0
M  V30 38508 C 3763.33 1.43644 -1.31876 0
M  V30 38509 O 3762.6 1.90619 -0.45178 0
M  V30 38510 H 3761.18 0.0530552 -0.745114 0
M  V30 38511 H 3763.85 -0.57395 -1.86257 0
M  V30 38512 H 3762.94 0.314947 -3.10507 0
M  V30 38513 N 3763.24 1.56749 -0.163565 0
M  V30 38514 C 3764.49 1.96258 0.482414 0
M  V30 38515 C 3764.81 1.05026 1.643 0
M  V30 38516 O 3764.08 0.115061 1.95562 0
M  V30 38517 H 3762.66 0.724688 0.18121 0
M  V30 38518 H 3765.32 1.9338 -0.242937 0
M  V30 38519 H 3764.42 3.00371 0.847582 0
M  V30 38520 N 3764.72 -0.110185 1.57214 0
M  V30 38521 C 3765.97 -0.817616 1.85588 0
M  V30 38522 C 3766.3 -1.79109 0.750567 0
M  V30 38523 O 3765.57 -1.92978 -0.24283 0
M  V30 38524 C 3765.86 -1.55973 3.24568 0
M  V30 38525 C 3765.71 -0.60526 4.45709 0
M  V30 38526 C 3767.03 -2.51387 3.61238 0
M  V30 38527 H 3764.15 -0.295782 0.675042 0
M  V30 38528 H 3766.79 -0.0816207 1.89825 0
M  V30 38529 H 3764.94 -2.18713 3.21087 0
M  V30 38530 H 3766.61 0.0139705 4.61298 0
M  V30 38531 H 3764.86 0.0825407 4.33721 0
M  V30 38532 H 3765.53 -1.16134 5.39645 0
M  V30 38533 H 3768 -1.98748 3.65566 0
M  V30 38534 H 3766.88 -3.00338 4.59443 0
M  V30 38535 H 3767.14 -3.34456 2.89122 0
M  V30 38536 N 3766.2 -1.52935 -0.38061 0
M  V30 38537 C 3767.42 -1.72577 -1.1503 0
M  V30 38538 C 3767.85 -0.446901 -1.82714 0
M  V30 38539 O 3767.21 0.597974 -1.71155 0
M  V30 38540 C 3767.25 -2.88174 -2.16768 0
M  V30 38541 O 3766.36 -2.55733 -3.23534 0
M  V30 38542 H 3765.7 -0.573602 -0.334479 0
M  V30 38543 H 3768.23 -1.99761 -0.442334 0
M  V30 38544 H 3768.24 -3.1391 -2.60623 0
M  V30 38545 H 3766.91 -3.80946 -1.66893 0
M  V30 38546 H 3765.49 -2.40765 -2.84757 0
M  V30 38547 N 3767.68 0.639548 -1.4404 0
M  V30 38548 C 3768.92 1.39649 -1.46091 0
M  V30 38549 C 3769.25 1.94785 -0.0914945 0
M  V30 38550 O 3768.52 1.7527 0.875066 0
M  V30 38551 H 3767.1 0.518326 -0.53791 0
M  V30 38552 H 3769.76 0.753334 -1.79752 0
M  V30 38553 H 3768.85 2.23203 -2.18144 0
M  V30 38554 N 3769.15 1.30798 0.879184 0
M  V30 38555 C 3770.38 1.22894 1.66447 0
M  V30 38556 C 3770.8 -0.207273 1.87659 0
M  V30 38557 O 3770.15 -1.13617 1.4282 0
M  V30 38558 C 3770.21 1.95987 3.03762 0
M  V30 38559 O 3769.93 3.34002 2.83504 0
M  V30 38560 C 3771.43 1.94811 3.982 0
M  V30 38561 H 3768.65 0.42504 0.519213 0
M  V30 38562 H 3771.19 1.72521 1.09804 0
M  V30 38563 H 3769.35 1.50145 3.57121 0
M  V30 38564 H 3769.76 3.71098 3.70657 0
M  V30 38565 H 3771.23 2.50482 4.91897 0
M  V30 38566 H 3771.71 0.928412 4.29275 0
M  V30 38567 H 3772.32 2.40491 3.50776 0
M  V30 38568 N 3770.63 -1.09229 1.13608 0
M  V30 38569 C 3771.58 -2.14095 0.784056 0
M  V30 38570 C 3772.57 -1.59349 -0.222852 0
M  V30 38571 O 3773.76 -1.7698 -0.0264603 0
M  V30 38572 C 3770.89 -3.42359 0.253982 0
M  V30 38573 C 3769.97 -4.04007 1.28992 0
M  V30 38574 N 3770.37 -4.40182 2.49146 0
M  V30 38575 C 3768.66 -4.31233 1.13817 0
M  V30 38576 C 3769.36 -4.88774 3.15396 0
M  V30 38577 N 3768.34 -4.86356 2.42815 0
M  V30 38578 H 3772.14 -2.39872 1.6982 0
M  V30 38579 H 3769.66 -1.26477 1.0187 0
M  V30 38580 H 3771.65 -4.16897 -0.0164669 0
M  V30 38581 H 3770.31 -3.18036 -0.654464 0
M  V30 38582 H 3771.32 -4.31479 2.86437 0
M  V30 38583 H 3768 -4.16505 0.288055 0
M  V30 38584 H 3769.39 -5.26211 4.17793 0
M  V30 38585 N 3772.11 -0.929901 -1.27242 0
M  V30 38586 C 3773.06 -0.401695 -2.24434 0
M  V30 38587 C 3774.05 0.495271 -1.53088 0
M  V30 38588 O 3775.24 0.332357 -1.73852 0
M  V30 38589 C 3772.37 0.342364 -3.41589 0
M  V30 38590 C 3771.45 -0.571245 -4.20235 0
M  V30 38591 N 3771.84 -1.69205 -4.76658 0
M  V30 38592 C 3770.14 -0.374673 -4.44423 0
M  V30 38593 C 3770.84 -2.26046 -5.35983 0
M  V30 38594 N 3769.82 -1.54978 -5.2104 0
M  V30 38595 H 3773.62 -1.25743 -2.65642 0
M  V30 38596 H 3771.13 -0.784433 -1.42198 0
M  V30 38597 H 3773.13 0.737733 -4.10321 0
M  V30 38598 H 3771.79 1.19501 -3.0191 0
M  V30 38599 H 3772.8 -2.0744 -4.74541 0
M  V30 38600 H 3769.48 0.437128 -4.15205 0
M  V30 38601 H 3770.87 -3.20419 -5.90577 0
M  V30 38602 N 3773.59 1.41416 -0.695653 0
M  V30 38603 C 3775 1.84251 -0.301433 0
M  V30 38604 C 3775.35 1.58206 1.1604 0
M  V30 38605 O 3774.48 1.05256 1.89077 0
M  V30 38606 C 3775.07 3.34464 -0.540315 0
M  V30 38607 C 3773.63 3.75868 -0.20001 0
M  V30 38608 C 3772.78 2.64819 -0.822557 0
M  V30 38609 H 3775.73 1.30966 -0.896301 0
M  V30 38610 H 3775.75 3.79969 0.200952 0
M  V30 38611 H 3775.26 3.53388 -1.60433 0
M  V30 38612 H 3773.36 3.62546 0.859734 0
M  V30 38613 H 3773.48 4.746 -0.655088 0
M  V30 38614 H 3771.84 2.53449 -0.252154 0
M  V30 38615 H 3772.62 2.86561 -1.89044 0
M  V30 38616 N 3775.07 0.44041 1.51321 0
M  V30 38617 C 3776.48 0.0928652 1.5933 0
M  V30 38618 C 3776.68 -1.39805 1.4511 0
M  V30 38619 O 3775.74 -2.16829 1.29389 0
M  V30 38620 C 3777.05 0.615715 2.94329 0
M  V30 38621 C 3778.6 0.576427 3.07646 0
M  V30 38622 C 3779.08 1.0763 4.45174 0
M  V30 38623 N 3780.57 1.03442 4.51502 0
M  V30 38624 C 3781.3 1.39204 5.56246 0
M  V30 38625 N 3780.8 1.82266 6.68394 0
M  V30 38626 N 3782.59 1.31001 5.46622 0
M  V30 38627 H 3774.74 1.41044 1.58809 0
M  V30 38628 H 3777 0.581399 0.748785 0
M  V30 38629 H 3776.71 1.65897 3.10114 0
M  V30 38630 H 3776.58 0.0423176 3.77176 0
M  V30 38631 H 3778.97 -0.457852 2.91527 0
M  V30 38632 H 3779.05 1.18626 2.26631 0
M  V30 38633 H 3778.7 2.10906 4.6204 0
M  V30 38634 H 3778.63 0.442974 5.24734 0
M  V30 38635 H 3781.12 0.718221 3.71012 0
M  V30 38636 H 3781.43 2.07782 7.44343 0
M  V30 38637 H 3779.78 1.86195 6.69594 0
M  V30 38638 H 3782.97 0.972225 4.57892 0
M  V30 38639 H 3783.14 1.59199 6.2814 0
M  V30 38640 N 3776.55 -1.5666 0.171876 0
M  V30 38641 C 3777.96 -1.83489 -0.344758 0
M  V30 38642 C 3778.31 -1.0917 -1.63023 0
M  V30 38643 O 3777.43 -0.344918 -2.13634 0
M  V30 38644 C 3778.03 -3.32848 -0.632282 0
M  V30 38645 C 3776.59 -3.6017 -1.09335 0
M  V30 38646 C 3775.73 -2.76997 -0.12952 0
M  V30 38647 H 3778.68 -1.53677 0.396128 0
M  V30 38648 H 3778.71 -3.50356 -1.48428 0
M  V30 38649 H 3778.22 -3.86912 0.303477 0
M  V30 38650 H 3776.32 -3.11518 -2.04419 0
M  V30 38651 H 3776.43 -4.68502 -1.00213 0
M  V30 38652 H 3774.8 -2.46862 -0.62699 0
M  V30 38653 H 3775.58 -3.33842 0.80027 0
M  V30 38654 N 3778.02 0.101846 -1.57271 0
M  V30 38655 C 3779.27 0.804974 -1.85377 0
M  V30 38656 C 3779.59 1.79597 -0.759596 0
M  V30 38657 O 3778.86 1.94719 0.214806 0
M  V30 38658 H 3777.44 0.300272 -0.683992 0
M  V30 38659 H 3780.1 0.0850823 -1.94714 0
M  V30 38660 H 3779.2 1.33971 -2.81883 0
M  V30 38661 N 3779.5 1.53135 0.372494 0
M  V30 38662 C 3780.45 1.75464 1.45589 0
M  V30 38663 C 3781.44 0.60902 1.48929 0
M  V30 38664 O 3782.63 0.867446 1.54287 0
M  V30 38665 C 3779.76 1.94177 2.83108 0
M  V30 38666 C 3778.84 3.14721 2.84274 0
M  V30 38667 N 3779.23 4.36762 2.55093 0
M  V30 38668 C 3777.53 3.15302 3.15437 0
M  V30 38669 C 3778.23 5.18464 2.63761 0
M  V30 38670 N 3777.21 4.54519 2.98184 0
M  V30 38671 H 3781.01 2.67437 1.2188 0
M  V30 38672 H 3778.52 1.51666 0.580614 0
M  V30 38673 H 3780.52 2.083 3.61132 0
M  V30 38674 H 3779.18 1.03429 3.07787 0
M  V30 38675 H 3780.19 4.64613 2.28812 0
M  V30 38676 H 3776.87 2.34422 3.45475 0
M  V30 38677 H 3778.26 6.25794 2.44605 0
M  V30 38678 N 3780.98 -0.6319 1.44377 0
M  V30 38679 C 3782.26 -1.39022 1.37595 0
M  V30 38680 C 3782.64 -2.11072 0.0342827 0
M  V30 38681 O 3781.98 -2.0627 -0.9831 0
M  V30 38682 C 3782.19 -2.35727 2.57359 0
M  V30 38683 C 3783.54 -2.99082 3.01389 0
M  V30 38684 O 3784.57 -2.46053 2.57559 0
M  V30 38685 O 3783.43 -3.95278 3.77382 0
M  V30 38686 H 3780.52 -0.622157 0.544839 0
M  V30 38687 H 3783.07 -0.65702 1.56465 0
M  V30 38688 H 3781.84 -1.81581 3.46618 0
M  V30 38689 H 3781.46 -3.16465 2.40698 0
M  V30 38690 N 3782.46 -1.31262 -0.872235 0
M  V30 38691 C 3783.87 -1.1874 -1.44075 0
M  V30 38692 C 3784.22 0.207003 -1.95105 0
M  V30 38693 O 3783.34 1.1046 -1.86085 0
M  V30 38694 C 3783.94 -2.14952 -2.6188 0
M  V30 38695 C 3782.5 -2.0637 -3.14783 0
M  V30 38696 C 3781.65 -2.04309 -1.87491 0
M  V30 38697 H 3784.6 -1.43347 -0.680986 0
M  V30 38698 H 3784.62 -1.73779 -3.38498 0
M  V30 38699 H 3784.13 -3.16429 -2.24709 0
M  V30 38700 H 3782.23 -1.08079 -3.56581 0
M  V30 38701 H 3782.34 -2.95368 -3.7722 0
M  V30 38702 H 3780.71 -1.49292 -2.06359 0
M  V30 38703 H 3781.49 -3.07539 -1.52561 0
M  V30 38704 N 3783.94 1.08625 -1.14186 0
M  V30 38705 C 3785.35 1.62451 -0.920137 0
M  V30 38706 C 3785.7 1.88578 0.541543 0
M  V30 38707 O 3784.82 1.64159 1.40999 0
M  V30 38708 C 3785.42 2.9513 -1.66385 0
M  V30 38709 C 3783.98 3.45749 -1.48777 0
M  V30 38710 C 3783.12 2.20021 -1.68778 0
M  V30 38711 H 3786.07 0.918797 -1.29398 0
M  V30 38712 H 3786.1 3.63466 -1.12574 0
M  V30 38713 H 3785.61 2.76082 -2.72764 0
M  V30 38714 H 3783.71 3.69905 -0.447355 0
M  V30 38715 H 3783.82 4.22646 -2.25626 0
M  V30 38716 H 3782.19 2.29083 -1.11325 0
M  V30 38717 H 3782.97 2.03484 -2.76495 0
M  V30 38718 N 3785.41 0.936635 1.26747 0
M  V30 38719 C 3786.83 0.625101 1.75924 0
M  V30 38720 C 3787.18 -0.85974 1.7636 0
M  V30 38721 O 3786.3 -1.67282 1.3728 0
M  V30 38722 C 3786.9 1.12797 3.19472 0
M  V30 38723 C 3785.46 0.866936 3.6628 0
M  V30 38724 C 3784.6 1.28152 2.45911 0
M  V30 38725 H 3787.55 1.11544 1.12888 0
M  V30 38726 H 3787.57 0.479709 3.77464 0
M  V30 38727 H 3787.09 2.20867 3.19123 0
M  V30 38728 H 3785.19 -0.199582 3.72065 0
M  V30 38729 H 3785.3 1.49075 4.55317 0
M  V30 38730 H 3783.66 0.699984 2.44892 0
M  V30 38731 H 3784.45 2.37106 2.48266 0
M  V30 38732 N 3786.89 -1.41045 0.703143 0
M  V30 38733 C 3787.82 -2.3343 0.0571225 0
M  V30 38734 C 3788.8 -1.52227 -0.759015 0
M  V30 38735 O 3789.99 -1.80738 -0.710459 0
M  V30 38736 C 3787.12 -3.3611 -0.874482 0
M  V30 38737 C 3786.07 -4.27682 -0.164884 0
M  V30 38738 C 3785.4 -5.20798 -1.21136 0
M  V30 38739 C 3786.7 -5.13149 0.97341 0
M  V30 38740 H 3788.39 -2.87701 0.82875 0
M  V30 38741 H 3785.94 -1.38333 0.399981 0
M  V30 38742 H 3787.89 -3.99671 -1.33572 0
M  V30 38743 H 3786.62 -2.80206 -1.67786 0
M  V30 38744 H 3785.27 -3.65557 0.276396 0
M  V30 38745 H 3784.92 -4.61205 -2.00747 0
M  V30 38746 H 3784.62 -5.82902 -0.741531 0
M  V30 38747 H 3786.15 -5.87235 -1.67295 0
M  V30 38748 H 3787.56 -5.70234 0.592113 0
M  V30 38749 H 3785.96 -5.84233 1.37082 0
M  V30 38750 H 3787.03 -4.49865 1.80969 0
M  V30 38751 N 3788.37 -0.448429 -1.51086 0
M  V30 38752 C 3789.78 0.0120936 -1.86696 0
M  V30 38753 C 3790.13 1.40947 -1.36486 0
M  V30 38754 O 3789.26 2.04061 -0.720276 0
M  V30 38755 C 3789.85 0.0287218 -3.38788 0
M  V30 38756 C 3788.41 0.433692 -3.73893 0
M  V30 38757 C 3787.56 -0.36641 -2.74869 0
M  V30 38758 H 3790.51 -0.663769 -1.44152 0
M  V30 38759 H 3790.53 0.83585 -3.71206 0
M  V30 38760 H 3790.04 -0.988434 -3.75302 0
M  V30 38761 H 3788.14 1.45604 -3.42973 0
M  V30 38762 H 3788.26 0.150784 -4.78863 0
M  V30 38763 H 3786.62 0.176817 -2.54086 0
M  V30 38764 H 3787.4 -1.38265 -3.14226 0
M  V30 38765 N 3789.85 1.56567 -0.180181 0
M  V30 38766 C 3790.78 2.15584 0.778212 0
M  V30 38767 C 3791.79 1.11372 1.18744 0
M  V30 38768 O 3792.98 1.38525 1.12575 0
M  V30 38769 C 3790.08 2.6909 2.0602 0
M  V30 38770 C 3789.26 3.9805 1.81313 0
M  V30 38771 C 3788.31 4.36531 2.93815 0
M  V30 38772 O 3787.34 5.0424 2.64066 0
M  V30 38773 N 3788.54 3.98813 4.21816 0
M  V30 38774 H 3791.31 2.98448 0.273608 0
M  V30 38775 H 3788.87 1.619 0.00230106 0
M  V30 38776 H 3790.86 2.91825 2.80393 0
M  V30 38777 H 3789.43 1.90764 2.47645 0
M  V30 38778 H 3788.65 3.83601 0.907978 0
M  V30 38779 H 3789.94 4.82259 1.62185 0
M  V30 38780 H 3789.34 3.44321 4.48842 0
M  V30 38781 H 3787.89 4.26531 4.92864 0
M  V30 38782 N 3791.33 -0.0935042 1.57322 0
M  V30 38783 C 3792.74 -0.647839 1.751 0
M  V30 38784 C 3793.09 -1.79033 0.802589 0
M  V30 38785 O 3792.21 -2.16392 -0.0185423 0
M  V30 38786 C 3792.81 -1.18197 3.17514 0
M  V30 38787 C 3791.37 -1.68236 3.3671 0
M  V30 38788 C 3790.51 -0.592601 2.70894 0
M  V30 38789 H 3793.47 0.132574 1.58145 0
M  V30 38790 H 3793.49 -2.05127 3.20474 0
M  V30 38791 H 3793 -0.350229 3.86516 0
M  V30 38792 H 3791.1 -2.53805 2.72789 0
M  V30 38793 H 3791.21 -1.77425 4.45036 0
M  V30 38794 H 3789.58 -1.03243 2.32837 0
M  V30 38795 H 3790.36 0.228589 3.42538 0
M  V30 38796 N 3792.8 -1.5333 -0.364368 0
M  V30 38797 C 3794.08 -1.60176 -1.12263 0
M  V30 38798 C 3794.46 -0.410051 -2.07079 0
M  V30 38799 O 3793.81 0.599592 -2.20493 0
M  V30 38800 C 3794.02 -2.95263 -1.86066 0
M  V30 38801 C 3795.37 -3.49883 -2.40556 0
M  V30 38802 O 3796.39 -2.97301 -1.96191 0
M  V30 38803 O 3795.25 -4.4181 -3.21662 0
M  V30 38804 H 3792.34 -0.647033 -0.515051 0
M  V30 38805 H 3794.89 -1.65672 -0.367534 0
M  V30 38806 H 3793.66 -3.73439 -1.16873 0
M  V30 38807 H 3793.29 -2.93264 -2.68481 0
M  V30 38808 N 3794.28 0.624234 -1.4471 0
M  V30 38809 C 3795.69 1.20597 -1.42525 0
M  V30 38810 C 3796.04 1.9567 -0.144163 0
M  V30 38811 O 3795.17 2.02797 0.755139 0
M  V30 38812 C 3795.76 2.19361 -2.58198 0
M  V30 38813 C 3794.32 2.72946 -2.59186 0
M  V30 38814 C 3793.47 1.48061 -2.34464 0
M  V30 38815 H 3796.42 0.414505 -1.53191 0
M  V30 38816 H 3796.44 3.02092 -2.31345 0
M  V30 38817 H 3795.95 1.64693 -3.51422 0
M  V30 38818 H 3794.06 3.31598 -1.69922 0
M  V30 38819 H 3794.17 3.18515 -3.5789 0
M  V30 38820 H 3792.53 1.76436 -1.83692 0
M  V30 38821 H 3793.32 0.95286 -3.29811 0
M  V30 38822 N 3795.76 1.31723 0.865262 0
M  V30 38823 C 3797.18 1.10483 1.15177 0
M  V30 38824 C 3797.38 -0.121631 2.01133 0
M  V30 38825 O 3796.43 -0.809603 2.39169 0
M  V30 38826 C 3797.75 2.37883 1.83935 0
M  V30 38827 C 3799.29 2.43538 1.96616 0
M  V30 38828 C 3799.77 3.70832 2.6879 0
M  V30 38829 N 3801.26 3.71753 2.76322 0
M  V30 38830 C 3801.99 4.66946 3.3279 0
M  V30 38831 N 3801.49 5.72497 3.90152 0
M  V30 38832 N 3803.28 4.54458 3.30793 0
M  V30 38833 H 3795.43 2.10375 0.292595 0
M  V30 38834 H 3797.7 0.928305 0.192235 0
M  V30 38835 H 3797.4 3.27491 1.28227 0
M  V30 38836 H 3797.28 2.48039 2.84177 0
M  V30 38837 H 3799.66 1.54396 2.51487 0
M  V30 38838 H 3799.75 2.37343 0.954029 0
M  V30 38839 H 3799.39 4.60343 2.14585 0
M  V30 38840 H 3799.32 3.74294 3.7042 0
M  V30 38841 H 3801.81 2.95455 2.35616 0
M  V30 38842 H 3802.12 6.41205 4.31365 0
M  V30 38843 H 3800.47 5.76265 3.88515 0
M  V30 38844 H 3803.66 3.7117 2.8522 0
M  V30 38845 H 3803.83 5.28822 3.74502 0
M  V30 38846 N 3797.24 -1.08018 1.14761 0
M  V30 38847 C 3798.65 -1.61961 0.928739 0
M  V30 38848 C 3799 -1.88863 -0.531535 0
M  V30 38849 O 3798.13 -1.64905 -1.40126 0
M  V30 38850 C 3798.72 -2.94243 1.67948 0
M  V30 38851 C 3797.28 -3.44955 1.50608 0
M  V30 38852 C 3796.43 -2.19123 1.69942 0
M  V30 38853 H 3799.38 -0.911922 1.29883 0
M  V30 38854 H 3799.4 -3.62864 1.145 0
M  V30 38855 H 3798.91 -2.74632 2.74225 0
M  V30 38856 H 3797.01 -3.69662 0.466966 0
M  V30 38857 H 3797.12 -4.21443 2.27864 0
M  V30 38858 H 3795.49 -2.28489 1.12538 0
M  V30 38859 H 3796.27 -2.02015 2.7757 0
M  V30 38860 N 3798.72 -0.943344 -1.26249 0
M  V30 38861 C 3799.94 -0.608376 -1.98276 0
M  V30 38862 C 3800.37 0.810179 -1.69758 0
M  V30 38863 O 3799.72 1.54609 -0.946873 0
M  V30 38864 C 3799.77 -0.859653 -3.50203 0
M  V30 38865 O 3798.88 0.0671646 -4.12345 0
M  V30 38866 H 3798.22 -0.232488 -0.621969 0
M  V30 38867 H 3800.75 -1.26687 -1.6066 0
M  V30 38868 H 3800.76 -0.781411 -4.00447 0
M  V30 38869 H 3799.43 -1.89361 -3.70291 0
M  V30 38870 H 3798.01 -0.0623199 -3.72848 0
M  V30 38871 N 3800.2 1.4067 -0.710613 0
M  V30 38872 C 3801.61 1.8392 -0.320958 0
M  V30 38873 C 3801.96 1.59428 1.14355 0
M  V30 38874 O 3801.08 1.07255 1.8795 0
M  V30 38875 C 3801.68 3.33872 -0.575759 0
M  V30 38876 C 3800.24 3.75635 -0.239865 0
M  V30 38877 C 3799.38 2.63932 -0.850599 0
M  V30 38878 H 3802.33 1.30008 -0.910141 0
M  V30 38879 H 3802.36 3.80161 0.16064 0
M  V30 38880 H 3801.87 3.51666 -1.64172 0
M  V30 38881 H 3799.97 3.63437 0.821233 0
M  V30 38882 H 3800.08 4.73879 -0.705389 0
M  V30 38883 H 3798.45 2.53167 -0.279021 0
M  V30 38884 H 3799.23 2.8454 -1.92073 0
M  V30 38885 N 3801.67 0.456435 1.50846 0
M  V30 38886 C 3803.08 -0.00219251 1.867 0
M  V30 38887 C 3803.44 -1.40221 1.37231 0
M  V30 38888 O 3802.56 -2.03676 0.731088 0
M  V30 38889 C 3803.16 -0.0107547 3.38798 0
M  V30 38890 C 3801.71 -0.413858 3.74118 0
M  V30 38891 C 3800.86 0.380982 2.7467 0
M  V30 38892 H 3803.81 0.671405 1.43798 0
M  V30 38893 H 3803.83 -0.816152 3.71644 0
M  V30 38894 H 3803.35 1.00832 3.74773 0
M  V30 38895 H 3801.45 -1.43783 3.4374 0
M  V30 38896 H 3801.56 -0.125387 4.78936 0
M  V30 38897 H 3799.92 -0.16334 2.54176 0
M  V30 38898 H 3800.71 1.3993 3.13488 0
M  V30 38899 N 3803.15 -1.56469 0.188482 0
M  V30 38900 C 3804.57 -1.58719 -0.16746 0
M  V30 38901 C 3804.77 -1.20444 -1.61541 0
M  V30 38902 O 3803.82 -0.924082 -2.34983 0
M  V30 38903 C 3805.14 -3.00424 0.128907 0
M  V30 38904 C 3806.68 -3.12925 0.0684851 0
M  V30 38905 C 3807.16 -4.56751 0.338072 0
M  V30 38906 N 3808.65 -4.62313 0.286454 0
M  V30 38907 C 3809.39 -5.71479 0.468987 0
M  V30 38908 N 3808.88 -6.89137 0.71151 0
M  V30 38909 N 3810.67 -5.60648 0.403701 0
M  V30 38910 H 3802.83 -1.79631 1.13342 0
M  V30 38911 H 3805.09 -0.833361 0.451899 0
M  V30 38912 H 3804.79 -3.32964 1.13261 0
M  V30 38913 H 3804.67 -3.72844 -0.571579 0
M  V30 38914 H 3807.06 -2.80201 -0.925815 0
M  V30 38915 H 3807.14 -2.42904 0.801946 0
M  V30 38916 H 3806.78 -4.90186 1.32966 0
M  V30 38917 H 3806.71 -5.24953 -0.416201 0
M  V30 38918 H 3809.2 -3.77753 0.105352 0
M  V30 38919 H 3809.51 -7.68224 0.839778 0
M  V30 38920 H 3807.86 -6.9096 0.748326 0
M  V30 38921 H 3811.05 -4.67607 0.214698 0
M  V30 38922 H 3811.22 -6.45667 0.549375 0
M  V30 38923 N 3804.63 0.0851597 -1.5737 0
M  V30 38924 C 3806.04 0.638544 -1.75441 0
M  V30 38925 C 3806.39 1.78605 -0.812073 0
M  V30 38926 O 3805.52 2.16399 0.00706624 0
M  V30 38927 C 3806.11 1.16512 -3.18136 0
M  V30 38928 C 3804.67 1.66448 -3.37597 0
M  V30 38929 C 3803.82 0.578227 -2.71204 0
M  V30 38930 H 3806.77 -0.140959 -1.58073 0
M  V30 38931 H 3806.79 2.03424 -3.21557 0
M  V30 38932 H 3806.3 0.329726 -3.86697 0
M  V30 38933 H 3804.4 2.52355 -2.74131 0
M  V30 38934 H 3804.52 1.75063 -4.45971 0
M  V30 38935 H 3802.88 1.02007 -2.33381 0
M  V30 38936 H 3803.66 -0.246751 -3.42412 0
M  V30 38937 N 3806.11 1.53521 0.356231 0
M  V30 38938 C 3807.38 1.60769 1.11412 0
M  V30 38939 C 3807.76 0.421027 2.06859 0
M  V30 38940 O 3807.11 -0.587891 2.20808 0
M  V30 38941 C 3807.32 2.96246 1.84498 0
M  V30 38942 C 3808.67 3.51154 2.38697 0
M  V30 38943 O 3809.69 2.98337 1.94611 0
M  V30 38944 O 3808.55 4.43509 3.19315 0
M  V30 38945 H 3805.65 0.649756 0.511612 0
M  V30 38946 H 3808.19 1.65865 0.358743 0
M  V30 38947 H 3806.97 3.74053 1.14891 0
M  V30 38948 H 3806.59 2.94684 2.66922 0
M  V30 38949 N 3807.59 -0.616551 1.45039 0
M  V30 38950 C 3808.83 -1.37783 1.48808 0
M  V30 38951 C 3809.16 -1.93792 0.125845 0
M  V30 38952 O 3808.44 -1.74527 -0.858513 0
M  V30 38953 C 3808.72 -2.53238 2.56013 0
M  V30 38954 C 3808.58 -2.02484 4.01647 0
M  V30 38955 C 3809.89 -3.55393 2.59584 0
M  V30 38956 H 3807.01 -0.499638 0.541785 0
M  V30 38957 H 3809.66 -0.695828 1.768 0
M  V30 38958 H 3807.81 -3.11418 2.32274 0
M  V30 38959 H 3809.48 -1.49022 4.36566 0
M  V30 38960 H 3807.72 -1.33552 4.1273 0
M  V30 38961 H 3808.39 -2.85671 4.72331 0
M  V30 38962 H 3810.87 -3.07039 2.80831 0
M  V30 38963 H 3809.74 -4.33678 3.36474 0
M  V30 38964 H 3810 -4.10424 1.64332 0
M  V30 38965 N 3809.06 -1.3218 -0.858264 0
M  V30 38966 C 3810.3 -1.23847 -1.62608 0
M  V30 38967 C 3810.67 0.197595 -1.90981 0
M  V30 38968 O 3811.87 0.404603 -2.65737 0
M  V30 38969 C 3810.14 -2.07052 -2.91315 0
M  V30 38970 S 3811.7 -2.15705 -3.82121 0
M  V30 38971 H 3808.52 -0.44091 -0.557781 0
M  V30 38972 H 3811.12 -1.66985 -1.01667 0
M  V30 38973 H 3809.82 -3.10457 -2.68412 0
M  V30 38974 H 3809.35 -1.64677 -3.57274 0
M  V30 38975 H 3811.37 -1.30392 -4.78761 0
M  V30 38976 N 3810.54 1.07407 -1.15332 0
M  V30 38977 C 3811.47 2.13974 -0.793115 0
M  V30 38978 C 3812.45 1.60962 0.230181 0
M  V30 38979 O 3813.64 1.88137 0.116871 0
M  V30 38980 C 3810.76 3.38225 -0.179291 0
M  V30 38981 C 3809.81 4.10013 -1.17439 0
M  V30 38982 S 3810.64 4.61502 -2.71618 0
M  V30 38983 C 3811.8 5.89028 -2.11654 0
M  V30 38984 H 3812.03 2.44198 -1.69572 0
M  V30 38985 H 3809.56 1.19672 -0.975603 0
M  V30 38986 H 3811.52 4.10154 0.168422 0
M  V30 38987 H 3810.18 3.0618 0.7009 0
M  V30 38988 H 3809.38 4.99211 -0.693115 0
M  V30 38989 H 3808.98 3.44044 -1.46661 0
M  V30 38990 H 3811.27 6.61176 -1.47824 0
M  V30 38991 H 3812.21 6.41868 -2.99017 0
M  V30 38992 H 3812.62 5.42522 -1.55981 0
M  V30 38993 N 3812.02 0.950026 1.25747 0
M  V30 38994 C 3812.98 0.471099 2.24306 0
M  V30 38995 C 3813.98 -0.422677 1.55145 0
M  V30 38996 O 3815.17 -0.220612 1.72797 0
M  V30 38997 C 3812.3 -0.319919 3.39396 0
M  V30 38998 H 3813.5 1.34218 2.68189 0
M  V30 38999 H 3811.05 0.732851 1.38054 0
M  V30 39000 H 3811.79 -1.20887 3.00927 0
M  V30 39001 H 3811.57 0.321225 3.90782 0
M  V30 39002 H 3813.06 -0.644624 4.12595 0
M  V30 39003 N 3813.5 -1.40291 0.718063 0
M  V30 39004 C 3814.77 -1.94717 0.185682 0
M  V30 39005 C 3815.15 -1.65605 -1.30913 0
M  V30 39006 O 3814.5 -0.975068 -2.06651 0
M  V30 39007 C 3814.71 -3.45384 0.501076 0
M  V30 39008 C 3816.06 -4.22303 0.441095 0
M  V30 39009 O 3817.08 -3.53506 0.437279 0
M  V30 39010 O 3815.94 -5.44878 0.420785 0
M  V30 39011 H 3813.04 -0.82652 0.0281726 0
M  V30 39012 H 3815.58 -1.49886 0.795765 0
M  V30 39013 H 3814.36 -3.59941 1.53486 0
M  V30 39014 H 3813.98 -3.97358 -0.138843 0
M  V30 39015 N 3814.98 -0.464428 -1.50602 0
M  V30 39016 C 3816.39 -0.00770867 -1.86698 0
M  V30 39017 C 3816.74 1.39492 -1.37973 0
M  V30 39018 O 3815.86 2.03286 -0.741879 0
M  V30 39019 C 3816.46 -0.00721278 -3.38799 0
M  V30 39020 C 3815.02 0.394012 -3.74332 0
M  V30 39021 C 3814.16 -0.395543 -2.74464 0
M  V30 39022 H 3817.12 -0.679021 -1.4344 0
M  V30 39023 H 3817.14 0.796431 -3.72072 0
M  V30 39024 H 3816.65 -1.02818 -3.74233 0
M  V30 39025 H 3814.75 1.41958 -3.44498 0
M  V30 39026 H 3814.86 0.0999861 -4.78996 0
M  V30 39027 H 3813.23 0.149858 -2.54259 0
M  V30 39028 H 3814.01 -1.4159 -3.12741 0
M  V30 39029 N 3816.45 1.56367 -0.196777 0
M  V30 39030 C 3817.36 2.22778 0.735333 0
M  V30 39031 C 3818.38 1.22739 1.23334 0
M  V30 39032 O 3819.56 1.55481 1.28014 0
M  V30 39033 C 3816.62 2.87543 1.937 0
M  V30 39034 C 3815.68 4.02857 1.48341 0
M  V30 39035 C 3814.92 4.64524 2.6278 0
M  V30 39036 O 3815.14 4.25118 3.80304 0
M  V30 39037 O 3814.07 5.5396 2.35397 0
M  V30 39038 H 3817.9 3.03042 0.199735 0
M  V30 39039 H 3815.48 1.49364 0.0325887 0
M  V30 39040 H 3817.37 3.28511 2.63928 0
M  V30 39041 H 3816.04 2.10257 2.46118 0
M  V30 39042 H 3814.95 3.66507 0.749874 0
M  V30 39043 H 3816.28 4.81812 1.00588 0
M  V30 39044 N 3817.93 -0.0768128 1.57413 0
M  V30 39045 C 3819.18 -0.775381 1.86634 0
M  V30 39046 C 3819.5 -1.78366 0.788072 0
M  V30 39047 O 3818.77 -1.95036 -0.183801 0
M  V30 39048 H 3817.35 -0.289352 0.688683 0
M  V30 39049 H 3820.01 -0.0540942 1.94825 0
M  V30 39050 H 3819.11 -1.29469 2.83979 0
M  V30 39051 N 3819.41 -1.53708 -0.348084 0
M  V30 39052 C 3820.34 -1.84363 -1.43292 0
M  V30 39053 C 3821.32 -0.698403 -1.55101 0
M  V30 39054 O 3822.51 -0.949894 -1.69383 0
M  V30 39055 C 3819.64 -2.04917 -2.80404 0
M  V30 39056 C 3818.59 -3.20726 -2.83406 0
M  V30 39057 C 3817.92 -3.26605 -4.2336 0
M  V30 39058 C 3819.22 -4.58936 -2.4935 0
M  V30 39059 H 3820.91 -2.75214 -1.17887 0
M  V30 39060 H 3818.46 -1.32424 -0.565669 0
M  V30 39061 H 3820.41 -2.24946 -3.56339 0
M  V30 39062 H 3819.13 -1.10791 -3.07234 0
M  V30 39063 H 3817.79 -3.00546 -2.09924 0
M  V30 39064 H 3817.44 -2.30083 -4.47293 0
M  V30 39065 H 3817.14 -4.04424 -4.2628 0
M  V30 39066 H 3818.66 -3.48838 -5.01143 0
M  V30 39067 H 3820.08 -4.79009 -3.14998 0
M  V30 39068 H 3818.48 -5.39125 -2.63561 0
M  V30 39069 H 3819.55 -4.62854 -1.44549 0
M  V30 39070 N 3820.89 0.608851 -1.45364 0
M  V30 39071 C 3822.11 1.39946 -1.53068 0
M  V30 39072 C 3822.54 1.87386 -0.163723 0
M  V30 39073 O 3821.9 1.60065 0.851404 0
M  V30 39074 C 3821.94 2.58086 -2.51841 0
M  V30 39075 O 3821.05 3.58675 -2.03534 0
M  V30 39076 H 3820.39 0.417852 -0.516039 0
M  V30 39077 H 3822.92 0.741097 -1.90706 0
M  V30 39078 H 3822.93 3.05347 -2.70605 0
M  V30 39079 H 3821.6 2.22906 -3.51121 0
M  V30 39080 H 3820.18 3.18072 -1.9464 0
M  V30 39081 N 3822.37 1.32633 0.851242 0
M  V30 39082 C 3823.59 1.26538 1.64326 0
M  V30 39083 C 3824.02 -0.163053 1.87392 0
M  V30 39084 O 3823.37 -1.11558 1.42915 0
M  V30 39085 C 3823.42 2.03374 2.97777 0
M  V30 39086 O 3822.53 1.38388 3.88488 0
M  V30 39087 H 3821.87 0.435935 0.500856 0
M  V30 39088 H 3824.4 1.75003 1.05997 0
M  V30 39089 H 3824.41 2.13676 3.47572 0
M  V30 39090 H 3823.08 3.07244 2.8031 0
M  V30 39091 H 3821.66 1.36655 3.46958 0
M  V30 39092 N 3823.84 -1.06794 1.159 0
M  V30 39093 C 3824.75 -2.17667 0.875108 0
M  V30 39094 C 3825.77 -1.73346 -0.150733 0
M  V30 39095 O 3826.95 -2.01385 0.0246975 0
M  V30 39096 C 3824.01 -3.4467 0.374616 0
M  V30 39097 C 3823.07 -4.03528 1.46505 0
M  V30 39098 C 3822.31 -5.24469 0.988349 0
M  V30 39099 O 3822.53 -5.70164 -0.163892 0
M  V30 39100 O 3821.46 -5.75148 1.7745 0
M  V30 39101 H 3825.29 -2.44453 1.80212 0
M  V30 39102 H 3822.87 -1.16239 0.938561 0
M  V30 39103 H 3824.76 -4.21276 0.102235 0
M  V30 39104 H 3823.43 -3.19423 -0.524457 0
M  V30 39105 H 3822.34 -3.28436 1.79111 0
M  V30 39106 H 3823.67 -4.33059 2.33925 0
M  V30 39107 N 3825.32 -0.956681 -1.25241 0
M  V30 39108 C 3826.55 -0.629372 -1.9762 0
M  V30 39109 C 3826.97 0.792128 -1.70608 0
M  V30 39110 O 3826.33 1.53596 -0.963219 0
M  V30 39111 C 3826.38 -0.896748 -3.49272 0
M  V30 39112 O 3825.48 0.0234261 -4.12393 0
M  V30 39113 H 3824.82 -0.239072 -0.619468 0
M  V30 39114 H 3827.35 -1.28384 -1.59307 0
M  V30 39115 H 3827.36 -0.82384 -3.99596 0
M  V30 39116 H 3826.04 -1.93277 -3.68262 0
M  V30 39117 H 3824.62 -0.101862 -3.72761 0
M  V30 39118 N 3826.8 1.39908 -0.725493 0
M  V30 39119 C 3828.05 2.00305 -0.268754 0
M  V30 39120 C 3828.37 1.57838 1.14509 0
M  V30 39121 O 3827.64 0.822294 1.77806 0
M  V30 39122 H 3826.22 0.740757 -0.0963744 0
M  V30 39123 H 3828.88 1.71099 -0.933333 0
M  V30 39124 H 3827.98 3.1056 -0.309642 0
M  V30 39125 N 3828.28 0.472408 1.50353 0
M  V30 39126 C 3829.69 0.126641 1.59097 0
M  V30 39127 C 3829.89 -1.36695 1.48043 0
M  V30 39128 O 3828.95 -2.14035 1.33959 0
M  V30 39129 C 3830.26 0.678008 2.92957 0
M  V30 39130 C 3831.81 0.641553 3.06355 0
M  V30 39131 C 3832.29 1.17049 4.42791 0
M  V30 39132 N 3833.78 1.12996 4.49206 0
M  V30 39133 C 3834.51 1.50971 5.53168 0
M  V30 39134 N 3834.01 1.96402 6.64378 0
M  V30 39135 N 3835.8 1.42566 5.4372 0
M  V30 39136 H 3827.95 1.44381 1.55782 0
M  V30 39137 H 3830.22 0.597151 0.736284 0
M  V30 39138 H 3829.92 1.72438 3.06526 0
M  V30 39139 H 3829.8 0.122313 3.77002 0
M  V30 39140 H 3832.18 -0.395912 2.92432 0
M  V30 39141 H 3832.26 1.23407 2.24063 0
M  V30 39142 H 3831.91 2.20659 4.57462 0
M  V30 39143 H 3831.84 0.554178 5.23676 0
M  V30 39144 H 3834.33 0.796757 3.69405 0
M  V30 39145 H 3834.64 2.23524 7.39768 0
M  V30 39146 H 3832.99 2.00356 6.65494 0
M  V30 39147 H 3836.18 1.06913 4.55727 0
M  V30 39148 H 3836.35 1.72487 6.24622 0
M  V30 39149 N 3829.76 -1.5626 0.205067 0
M  V30 39150 C 3831 -1.98152 -0.431701 0
M  V30 39151 C 3831.34 -1.09218 -1.60577 0
M  V30 39152 O 3830.61 -0.146291 -1.93949 0
M  V30 39153 C 3830.89 -3.49126 -0.882216 0
M  V30 39154 C 3830.75 -4.48836 0.294357 0
M  V30 39155 C 3832.07 -4.0406 -1.74423 0
M  V30 39156 H 3829.19 -0.720421 -0.155445 0
M  V30 39157 H 3831.83 -1.87649 0.297993 0
M  V30 39158 H 3829.98 -3.58208 -1.50398 0
M  V30 39159 H 3831.65 -4.51782 0.932228 0
M  V30 39160 H 3829.89 -4.23393 0.944515 0
M  V30 39161 H 3830.56 -5.51963 -0.063542 0
M  V30 39162 H 3833.04 -3.9782 -1.21976 0
M  V30 39163 H 3831.92 -5.10047 -2.02839 0
M  V30 39164 H 3832.18 -3.49929 -2.70189 0
M  V30 39165 N 3831.24 0.0684638 -1.57451 0
M  V30 39166 C 3832.15 1.09882 -2.07276 0
M  V30 39167 C 3833.16 1.42185 -1.00297 0
M  V30 39168 O 3834.34 1.52295 -1.31789 0
M  V30 39169 C 3831.4 2.39214 -2.50953 0
M  V30 39170 C 3830.46 2.13853 -3.72244 0
M  V30 39171 C 3829.7 3.37019 -4.13829 0
M  V30 39172 O 3829.92 4.46261 -3.55256 0
M  V30 39173 O 3828.85 3.25035 -5.06592 0
M  V30 39174 H 3832.68 0.705535 -2.95391 0
M  V30 39175 H 3830.26 0.282823 -1.46699 0
M  V30 39176 H 3832.15 3.15322 -2.79553 0
M  V30 39177 H 3830.82 2.77916 -1.65965 0
M  V30 39178 H 3829.73 1.35439 -3.48722 0
M  V30 39179 H 3831.06 1.8003 -4.58094 0
M  V30 39180 N 3832.71 1.5389 0.339928 0
M  V30 39181 C 3834.13 1.44235 0.683261 0
M  V30 39182 C 3834.33 0.60201 1.92297 0
M  V30 39183 O 3833.39 0.0944067 2.52323 0
M  V30 39184 C 3834.7 2.87763 0.872525 0
M  V30 39185 C 3836.25 2.97561 0.970912 0
M  V30 39186 C 3836.72 4.42204 1.19247 0
M  V30 39187 N 3838.21 4.45745 1.25958 0
M  V30 39188 C 3838.95 5.548 1.44859 0
M  V30 39189 N 3838.44 6.73855 1.60909 0
M  V30 39190 N 3840.24 5.4242 1.47436 0
M  V30 39191 H 3832.39 2.07018 -0.475123 0
M  V30 39192 H 3834.65 0.935952 -0.15066 0
M  V30 39193 H 3834.36 3.51684 0.0330552 0
M  V30 39194 H 3834.23 3.32923 1.7732 0
M  V30 39195 H 3836.62 2.33777 1.8009 0
M  V30 39196 H 3836.7 2.55757 0.0470616 0
M  V30 39197 H 3836.34 5.06569 0.367393 0
M  V30 39198 H 3836.27 4.81603 2.12994 0
M  V30 39199 H 3838.76 3.59956 1.15065 0
M  V30 39200 H 3839.08 7.52731 1.74976 0
M  V30 39201 H 3837.42 6.76793 1.58038 0
M  V30 39202 H 3840.61 4.48366 1.34482 0
M  V30 39203 H 3840.79 6.27469 1.61823 0
M  V30 39204 N 3834.19 -0.601133 1.45685 0
M  V30 39205 C 3835.12 -1.72203 1.57697 0
M  V30 39206 C 3836.1 -1.64623 0.42817 0
M  V30 39207 O 3837.29 -1.82923 0.652123 0
M  V30 39208 C 3834.42 -3.1082 1.54946 0
M  V30 39209 C 3833.37 -3.33217 2.68609 0
M  V30 39210 C 3832.7 -4.72172 2.50914 0
M  V30 39211 C 3834 -3.22841 4.10574 0
M  V30 39212 H 3835.69 -1.62407 2.51524 0
M  V30 39213 H 3833.24 -0.779908 1.21051 0
M  V30 39214 H 3835.19 -3.89039 1.61946 0
M  V30 39215 H 3833.91 -3.21471 0.576527 0
M  V30 39216 H 3832.57 -2.5739 2.61048 0
M  V30 39217 H 3832.22 -4.79565 1.51745 0
M  V30 39218 H 3831.92 -4.88112 3.27139 0
M  V30 39219 H 3833.45 -5.52583 2.59777 0
M  V30 39220 H 3834.86 -3.90927 4.19343 0
M  V30 39221 H 3833.26 -3.5031 4.8724 0
M  V30 39222 H 3834.33 -2.20185 4.32026 0
M  V30 39223 N 3835.67 -1.33083 -0.844196 0
M  V30 39224 C 3837.09 -1.12301 -1.13405 0
M  V30 39225 C 3837.29 0.0896175 -2.01301 0
M  V30 39226 O 3836.34 0.771451 -2.40426 0
M  V30 39227 C 3837.65 -2.40779 -1.80128 0
M  V30 39228 C 3839.2 -2.46636 -1.92717 0
M  V30 39229 C 3839.68 -3.75061 -2.62856 0
M  V30 39230 N 3841.17 -3.76102 -2.70373 0
M  V30 39231 C 3841.9 -4.72181 -3.25319 0
M  V30 39232 N 3841.4 -5.78632 -3.80995 0
M  V30 39233 N 3843.19 -4.59663 -3.23521 0
M  V30 39234 H 3835.34 -2.10814 -0.259089 0
M  V30 39235 H 3837.61 -0.931245 -0.177443 0
M  V30 39236 H 3837.31 -3.2949 -1.23001 0
M  V30 39237 H 3837.19 -2.52528 -2.80195 0
M  V30 39238 H 3839.57 -1.58377 -2.48999 0
M  V30 39239 H 3839.65 -2.38831 -0.916149 0
M  V30 39240 H 3839.3 -4.63699 -2.07234 0
M  V30 39241 H 3839.23 -3.8014 -3.64419 0
M  V30 39242 H 3841.72 -2.99166 -2.30886 0
M  V30 39243 H 3842.03 -6.47987 -4.21109 0
M  V30 39244 H 3840.38 -5.82373 -3.79298 0
M  V30 39245 H 3843.57 -3.7566 -2.79279 0
M  V30 39246 H 3843.74 -5.34713 -3.66041 0
M  V30 39247 N 3837.15 1.06178 -1.16464 0
M  V30 39248 C 3838.06 2.172 -0.886639 0
M  V30 39249 C 3839.07 1.73423 0.141538 0
M  V30 39250 O 3840.25 2.01369 -0.0353771 0
M  V30 39251 C 3837.31 3.44467 -0.392889 0
M  V30 39252 C 3836.38 4.02745 -1.48643 0
M  V30 39253 C 3835.61 5.23937 -1.01615 0
M  V30 39254 O 3835.83 5.70243 0.133653 0
M  V30 39255 O 3834.77 5.74199 -1.80498 0
M  V30 39256 H 3838.59 2.43494 -1.81506 0
M  V30 39257 H 3836.18 1.15739 -0.944712 0
M  V30 39258 H 3838.06 4.21216 -0.124575 0
M  V30 39259 H 3836.73 3.19697 0.50751 0
M  V30 39260 H 3835.64 3.27481 -1.8085 0
M  V30 39261 H 3836.97 4.31812 -2.36218 0
M  V30 39262 N 3838.63 0.96331 1.24732 0
M  V30 39263 C 3839.57 0.4893 2.25554 0
M  V30 39264 C 3840.54 -0.46282 1.59522 0
M  V30 39265 O 3841.73 -0.374155 1.87095 0
M  V30 39266 C 3838.87 -0.218568 3.44407 0
M  V30 39267 C 3837.98 0.771805 4.2505 0
M  V30 39268 C 3837.12 0.0404919 5.31185 0
M  V30 39269 C 3836.15 1.02122 6.03521 0
M  V30 39270 N 3835.29 0.320207 7.01369 0
M  V30 39271 H 3840.13 1.35391 2.65468 0
M  V30 39272 H 3837.67 0.678785 1.30503 0
M  V30 39273 H 3839.63 -0.645629 4.12174 0
M  V30 39274 H 3838.26 -1.04716 3.05343 0
M  V30 39275 H 3837.31 1.31732 3.56862 0
M  V30 39276 H 3838.62 1.51984 4.75081 0
M  V30 39277 H 3837.77 -0.44478 6.05067 0
M  V30 39278 H 3836.51 -0.740271 4.82049 0
M  V30 39279 H 3835.52 1.51741 5.28446 0
M  V30 39280 H 3836.74 1.80236 6.54746 0
M  V30 39281 H 3834.69 -0.44166 6.54512 0
M  V30 39282 H 3834.61 1.00718 7.49261 0
M  V30 39283 H 3835.87 -0.143242 7.79368 0
M  V30 39284 N 3840.1 -1.39522 0.732902 0
M  V30 39285 C 3841.01 -2.34415 0.0930628 0
M  V30 39286 C 3842.03 -1.58209 -0.724281 0
M  V30 39287 O 3843.21 -1.90512 -0.653234 0
M  V30 39288 C 3840.27 -3.37225 -0.804977 0
M  V30 39289 C 3839.33 -4.29293 0.0243804 0
M  V30 39290 C 3838.56 -5.27192 -0.830891 0
M  V30 39291 O 3838.79 -5.31527 -2.06968 0
M  V30 39292 O 3837.72 -6.01335 -0.260667 0
M  V30 39293 H 3841.55 -2.90785 0.876231 0
M  V30 39294 H 3839.13 -1.41012 0.49355 0
M  V30 39295 H 3841.01 -4.0023 -1.31886 0
M  V30 39296 H 3839.69 -2.83244 -1.56699 0
M  V30 39297 H 3838.6 -3.69518 0.583741 0
M  V30 39298 H 3839.93 -4.86474 0.74857 0
M  V30 39299 N 3841.58 -0.480375 -1.501 0
M  V30 39300 C 3842.53 0.308952 -2.28723 0
M  V30 39301 C 3843.5 0.978924 -1.34187 0
M  V30 39302 O 3844.68 0.989573 -1.63132 0
M  V30 39303 C 3841.82 1.3796 -3.16324 0
M  V30 39304 C 3840.94 0.723478 -4.25899 0
M  V30 39305 C 3840.07 1.77281 -5.00744 0
M  V30 39306 C 3839.11 1.09743 -6.02182 0
M  V30 39307 N 3838.25 2.09003 -6.7027 0
M  V30 39308 H 3843.09 -0.367791 -2.95722 0
M  V30 39309 H 3840.62 -0.193223 -1.45825 0
M  V30 39310 H 3842.58 2.01211 -3.65473 0
M  V30 39311 H 3841.21 2.02538 -2.51352 0
M  V30 39312 H 3840.26 -0.0218176 -3.80394 0
M  V30 39313 H 3841.58 0.190817 -4.98435 0
M  V30 39314 H 3840.73 2.48089 -5.53658 0
M  V30 39315 H 3839.47 2.33929 -4.27935 0
M  V30 39316 H 3838.47 0.375027 -5.48519 0
M  V30 39317 H 3839.7 0.537722 -6.76968 0
M  V30 39318 H 3837.65 2.64651 -6.00246 0
M  V30 39319 H 3837.56 1.60747 -7.38713 0
M  V30 39320 H 3838.83 2.79163 -7.27797 0
M  V30 39321 N 3843.06 1.56149 -0.213351 0
M  V30 39322 C 3844.31 1.98378 0.421186 0
M  V30 39323 C 3844.64 1.10068 1.59996 0
M  V30 39324 O 3843.91 0.156574 1.93869 0
M  V30 39325 C 3844.2 3.49589 0.863689 0
M  V30 39326 C 3844.05 4.48673 -0.318156 0
M  V30 39327 C 3845.37 4.0498 1.72278 0
M  V30 39328 H 3842.49 0.721235 0.151622 0
M  V30 39329 H 3845.13 1.87488 -0.30794 0
M  V30 39330 H 3843.28 3.59 1.48496 0
M  V30 39331 H 3844.95 4.51282 -0.956174 0
M  V30 39332 H 3843.19 4.22886 -0.966955 0
M  V30 39333 H 3843.87 5.51989 0.0342691 0
M  V30 39334 H 3846.34 3.98462 1.19865 0
M  V30 39335 H 3845.22 5.11115 2.00132 0
M  V30 39336 H 3845.48 3.51357 2.68329 0
M  V30 39337 N 3844.54 -0.0601128 1.57485 0
M  V30 39338 C 3845.47 -1.09714 2.01235 0
M  V30 39339 C 3846.48 -1.34305 0.920104 0
M  V30 39340 O 3847.67 -1.3234 1.19785 0
M  V30 39341 C 3844.77 -2.4456 2.34614 0
M  V30 39342 C 3843.95 -2.39761 3.65832 0
M  V30 39343 C 3843 -3.56808 3.86749 0
M  V30 39344 O 3842.03 -3.37706 4.58196 0
M  V30 39345 N 3843.23 -4.7758 3.29997 0
M  V30 39346 H 3846 -0.724475 2.90812 0
M  V30 39347 H 3843.56 -0.248585 1.5998 0
M  V30 39348 H 3845.55 -3.21526 2.4577 0
M  V30 39349 H 3844.12 -2.73784 1.50867 0
M  V30 39350 H 3843.34 -1.48101 3.65321 0
M  V30 39351 H 3844.63 -2.33667 4.5197 0
M  V30 39352 H 3844.03 -4.96002 2.72027 0
M  V30 39353 H 3842.58 -5.52018 3.46583 0
M  V30 39354 N 3846.02 -1.54068 -0.331762 0
M  V30 39355 C 3847.26 -1.71541 -1.06855 0
M  V30 39356 C 3847.59 -0.487539 -1.88807 0
M  V30 39357 O 3846.86 0.498506 -1.89451 0
M  V30 39358 H 3845.44 -0.632464 -0.397489 0
M  V30 39359 H 3848.1 -1.91352 -0.370183 0
M  V30 39360 H 3847.19 -2.59146 -1.73924 0
M  V30 39361 N 3847.49 0.593399 -1.46002 0
M  V30 39362 C 3848.91 0.915655 -1.30721 0
M  V30 39363 C 3849.11 1.99673 -0.270714 0
M  V30 39364 O 3848.17 2.50329 0.330438 0
M  V30 39365 C 3849.48 1.34313 -2.69036 0
M  V30 39366 C 3851.03 1.45657 -2.77043 0
M  V30 39367 C 3851.5 1.91775 -4.15916 0
M  V30 39368 N 3852.99 1.98986 -4.18281 0
M  V30 39369 C 3853.73 2.35923 -5.22617 0
M  V30 39370 N 3853.22 2.71727 -6.37288 0
M  V30 39371 N 3855.02 2.36385 -5.09979 0
M  V30 39372 H 3847.17 -0.120919 -2.12056 0
M  V30 39373 H 3849.43 0.00856908 -0.947961 0
M  V30 39374 H 3849.14 0.622861 -3.46141 0
M  V30 39375 H 3849.01 2.30683 -2.98438 0
M  V30 39376 H 3851.4 2.16773 -2.00234 0
M  V30 39377 H 3851.48 0.475662 -2.51339 0
M  V30 39378 H 3851.12 1.21242 -4.93217 0
M  V30 39379 H 3851.05 2.90805 -4.39021 0
M  V30 39380 H 3853.54 1.73849 -3.35537 0
M  V30 39381 H 3853.86 2.98834 -7.12684 0
M  V30 39382 H 3852.2 2.6939 -6.40667 0
M  V30 39383 H 3855.39 2.07829 -4.19434 0
M  V30 39384 H 3855.57 2.64844 -5.91407 0
M  V30 39385 N 3848.97 1.33529 0.837127 0
M  V30 39386 C 3850.22 1.25269 1.59485 0
M  V30 39387 C 3850.55 -0.180707 1.93357 0
M  V30 39388 O 3849.83 -1.12248 1.58841 0
M  V30 39389 C 3850.11 2.12969 2.90373 0
M  V30 39390 C 3849.96 3.64776 2.63171 0
M  V30 39391 C 3851.28 2.00418 3.91817 0
M  V30 39392 H 3848.4 0.456402 0.578676 0
M  V30 39393 H 3851.04 1.63646 0.965399 0
M  V30 39394 H 3849.19 1.8037 3.44091 0
M  V30 39395 H 3850.86 4.07673 2.15871 0
M  V30 39396 H 3849.11 3.86569 1.96842 0
M  V30 39397 H 3849.78 4.21487 3.56445 0
M  V30 39398 H 3852.25 2.29011 3.47409 0
M  V30 39399 H 3851.13 2.6403 4.81227 0
M  V30 39400 H 3851.39 0.976928 4.31171 0
M  V30 39401 N 3850.45 -1.05559 1.17026 0
M  V30 39402 C 3851.7 -1.78141 0.954467 0
M  V30 39403 C 3852.02 -1.8798 -0.518492 0
M  V30 39404 O 3851.29 -1.39388 -1.37651 0
M  V30 39405 H 3849.87 -0.65985 0.350153 0
M  V30 39406 H 3852.53 -1.27474 1.47432 0
M  V30 39407 H 3851.63 -2.79953 1.3796 0
M  V30 39408 N 3851.93 -0.969911 -1.2422 0
M  V30 39409 C 3853.34 -0.676803 -1.44539 0
M  V30 39410 C 3853.54 0.760623 -1.86593 0
M  V30 39411 O 3852.6 1.53427 -2.0054 0
M  V30 39412 C 3853.91 -1.66278 -2.50543 0
M  V30 39413 C 3855.46 -1.67566 -2.64369 0
M  V30 39414 C 3855.94 -2.64967 -3.73573 0
M  V30 39415 N 3857.43 -2.63422 -3.81002 0
M  V30 39416 C 3858.16 -3.3546 -4.65031 0
M  V30 39417 N 3857.66 -4.17023 -5.5323 0
M  V30 39418 N 3859.45 -3.24274 -4.59132 0
M  V30 39419 H 3851.6 -1.8986 -0.952204 0
M  V30 39420 H 3853.87 -0.817524 -0.479957 0
M  V30 39421 H 3853.57 -2.69024 -2.26536 0
M  V30 39422 H 3853.45 -1.4373 -3.48743 0
M  V30 39423 H 3855.83 -0.655297 -2.87732 0
M  V30 39424 H 3855.91 -1.94177 -1.6652 0
M  V30 39425 H 3855.56 -3.67138 -3.50958 0
M  V30 39426 H 3855.49 -2.35634 -4.7094 0
M  V30 39427 H 3857.98 -2.04221 -3.17965 0
M  V30 39428 H 3858.29 -4.68872 -6.14312 0
M  V30 39429 H 3856.64 -4.21117 -5.52888 0
M  V30 39430 H 3859.83 -2.60015 -3.89243 0
M  V30 39431 H 3860 -3.80679 -5.24392 0
M  V30 39432 N 3853.41 1.39131 -0.740291 0
M  V30 39433 C 3854.82 1.54071 -0.41644 0
M  V30 39434 C 3855.02 1.70613 1.07208 0
M  V30 39435 O 3854.08 1.70961 1.85819 0
M  V30 39436 C 3855.39 2.7554 -1.20408 0
M  V30 39437 C 3856.94 2.89379 -1.19283 0
M  V30 39438 C 3857.41 4.13793 -1.96315 0
M  V30 39439 N 3858.91 4.20843 -1.93508 0
M  V30 39440 C 3859.64 5.16071 -2.49916 0
M  V30 39441 N 3859.14 6.17055 -3.14983 0
M  V30 39442 N 3860.93 5.08325 -2.3992 0
M  V30 39443 H 3853.08 1.26642 -1.70515 0
M  V30 39444 H 3855.34 0.614202 -0.722122 0
M  V30 39445 H 3855.05 2.69677 -2.25759 0
M  V30 39446 H 3854.92 3.68355 -0.81205 0
M  V30 39447 H 3857.31 2.94731 -0.147437 0
M  V30 39448 H 3857.39 1.97613 -1.62428 0
M  V30 39449 H 3857.04 4.09202 -3.00859 0
M  V30 39450 H 3856.97 5.04614 -1.50574 0
M  V30 39451 H 3859.46 3.48511 -1.4611 0
M  V30 39452 H 3859.77 6.86188 -3.55479 0
M  V30 39453 H 3858.11 6.17427 -3.19075 0
M  V30 39454 H 3861.31 4.28369 -1.88726 0
M  V30 39455 H 3861.48 5.82363 -2.84179 0
M  V30 39456 N 3854.88 0.488329 1.49844 0
M  V30 39457 C 3855.85 -0.285666 2.27413 0
M  V30 39458 C 3856.85 -0.905238 1.32899 0
M  V30 39459 O 3858.04 -0.771736 1.56173 0
M  V30 39460 C 3855.17 -1.40859 3.10438 0
M  V30 39461 H 3856.36 0.394835 2.9729 0
M  V30 39462 H 3853.92 0.2429 1.54401 0
M  V30 39463 H 3854.65 -2.12362 2.45097 0
M  V30 39464 H 3854.44 -0.969924 3.79914 0
M  V30 39465 H 3855.93 -1.95413 3.69058 0
M  V30 39466 N 3856.36 -1.56034 0.221629 0
M  V30 39467 C 3857.77 -1.84493 -0.286208 0
M  V30 39468 C 3858.12 -1.14301 -1.59467 0
M  V30 39469 O 3857.25 -0.412709 -2.12428 0
M  V30 39470 C 3857.84 -3.34691 -0.526069 0
M  V30 39471 C 3856.4 -3.63467 -0.978214 0
M  V30 39472 C 3855.55 -2.77269 -0.0413299 0
M  V30 39473 H 3858.5 -1.52339 0.444818 0
M  V30 39474 H 3858.52 -3.54901 -1.37206 0
M  V30 39475 H 3858.03 -3.8575 0.426416 0
M  V30 39476 H 3856.14 -3.17864 -1.94405 0
M  V30 39477 H 3856.25 -4.71453 -0.852569 0
M  V30 39478 H 3854.61 -2.48732 -0.548135 0
M  V30 39479 H 3855.4 -3.31127 0.906074 0
M  V30 39480 N 3857.84 0.0517601 -1.57515 0
M  V30 39481 C 3859.09 0.745591 -1.87844 0
M  V30 39482 C 3859.41 1.7709 -0.816349 0
M  V30 39483 O 3858.68 1.95304 0.152749 0
M  V30 39484 H 3857.26 0.27836 -0.693199 0
M  V30 39485 H 3859.92 0.0230924 -1.94886 0
M  V30 39486 H 3859.02 1.24935 -2.86003 0
M  V30 39487 N 3859.32 1.54242 0.323587 0
M  V30 39488 C 3860.27 1.83625 1.39823 0
M  V30 39489 C 3861.24 0.683357 1.51392 0
M  V30 39490 O 3862.42 0.929783 1.66612 0
M  V30 39491 C 3859.56 2.06923 2.76183 0
M  V30 39492 C 3858.67 3.34606 2.73245 0
M  V30 39493 C 3857.81 3.47864 4.01452 0
M  V30 39494 C 3856.85 4.69422 3.92822 0
M  V30 39495 N 3855.99 4.79607 5.12759 0
M  V30 39496 H 3860.83 2.75305 1.14065 0
M  V30 39497 H 3858.36 1.36344 0.552164 0
M  V30 39498 H 3860.32 2.18422 3.55454 0
M  V30 39499 H 3858.95 1.18534 3.00249 0
M  V30 39500 H 3858 3.31845 1.85966 0
M  V30 39501 H 3859.31 4.23985 2.62751 0
M  V30 39502 H 3858.47 3.58905 4.89154 0
M  V30 39503 H 3857.21 2.56577 4.14752 0
M  V30 39504 H 3856.21 4.58438 3.03504 0
M  V30 39505 H 3857.44 5.62094 3.81087 0
M  V30 39506 H 3855.38 3.91236 5.26565 0
M  V30 39507 H 3855.3 5.62952 5.046 0
M  V30 39508 H 3856.57 4.9498 6.02175 0
M  V30 39509 N 3860.8 -0.585648 1.46314 0
M  V30 39510 C 3861.76 -1.67694 1.56242 0
M  V30 39511 C 3862.76 -1.54668 0.439835 0
M  V30 39512 O 3863.95 -1.59339 0.704047 0
M  V30 39513 C 3861.08 -3.07102 1.47991 0
M  V30 39514 H 3862.28 -1.60251 2.53495 0
M  V30 39515 H 3859.83 -0.803241 1.34081 0
M  V30 39516 H 3860.56 -3.20103 0.520063 0
M  V30 39517 H 3860.35 -3.17965 2.29436 0
M  V30 39518 H 3861.84 -3.86549 1.58017 0
M  V30 39519 N 3862.28 -1.33971 -0.830033 0
M  V30 39520 C 3863.22 -1.24958 -1.94047 0
M  V30 39521 C 3864.19 -0.126308 -1.65619 0
M  V30 39522 O 3865.38 -0.306082 -1.88329 0
M  V30 39523 C 3862.52 -1.00373 -3.30181 0
M  V30 39524 C 3861.63 -2.21409 -3.70948 0
M  V30 39525 C 3860.77 -1.90165 -4.95994 0
M  V30 39526 C 3859.8 -3.07384 -5.29322 0
M  V30 39527 N 3858.94 -2.7607 -6.45546 0
M  V30 39528 H 3863.78 -2.19927 -2.01087 0
M  V30 39529 H 3861.32 -1.09352 -0.983899 0
M  V30 39530 H 3863.28 -0.841588 -4.08623 0
M  V30 39531 H 3861.91 -0.0907487 -3.22672 0
M  V30 39532 H 3860.96 -2.48568 -2.87955 0
M  V30 39533 H 3862.27 -3.09011 -3.91553 0
M  V30 39534 H 3861.42 -1.70646 -5.82207 0
M  V30 39535 H 3860.16 -0.998128 -4.77377 0
M  V30 39536 H 3859.17 -3.27507 -4.4161 0
M  V30 39537 H 3860.39 -3.98504 -5.49883 0
M  V30 39538 H 3858.34 -1.88286 -6.28398 0
M  V30 39539 H 3858.26 -3.57204 -6.66289 0
M  V30 39540 H 3859.52 -2.60039 -7.34847 0
M  V30 39541 N 3863.75 1.04937 -1.17584 0
M  V30 39542 C 3865.16 1.59442 -0.971354 0
M  V30 39543 C 3865.52 1.90206 0.481275 0
M  V30 39544 O 3864.64 1.68562 1.35705 0
M  V30 39545 C 3865.24 2.89687 -1.7569 0
M  V30 39546 C 3863.79 3.40841 -1.59701 0
M  V30 39547 C 3862.94 2.1454 -1.75692 0
M  V30 39548 H 3865.89 0.877165 -1.32255 0
M  V30 39549 H 3865.91 3.597 -1.2408 0
M  V30 39550 H 3865.43 2.67264 -2.8141 0
M  V30 39551 H 3863.53 3.68294 -0.564811 0
M  V30 39552 H 3863.64 4.15254 -2.38958 0
M  V30 39553 H 3862 2.25425 -1.18557 0
M  V30 39554 H 3862.79 1.94584 -2.82828 0
M  V30 39555 N 3865.23 0.976485 1.23703 0
M  V30 39556 C 3866.19 0.518572 2.23257 0
M  V30 39557 C 3867.19 -0.389673 1.56007 0
M  V30 39558 O 3868.38 -0.183909 1.73226 0
M  V30 39559 C 3865.52 -0.247856 3.39998 0
M  V30 39560 H 3866.71 1.39877 2.65282 0
M  V30 39561 H 3864.26 0.76197 1.36469 0
M  V30 39562 H 3865 -1.14476 3.03423 0
M  V30 39563 H 3864.78 0.404044 3.90013 0
M  V30 39564 H 3866.27 -0.556962 4.13869 0
M  V30 39565 N 3866.71 -1.38737 0.747659 0
M  V30 39566 C 3867.93 -2.05062 0.31052 0
M  V30 39567 C 3868.36 -1.56015 -1.05075 0
M  V30 39568 O 3867.72 -0.709491 -1.66841 0
M  V30 39569 C 3867.77 -3.59032 0.3359 0
M  V30 39570 O 3866.87 -4.06886 -0.672146 0
M  V30 39571 H 3866.21 -0.649373 0.138603 0
M  V30 39572 H 3868.74 -1.77527 1.01712 0
M  V30 39573 H 3868.75 -4.07582 0.184702 0
M  V30 39574 H 3867.43 -3.9409 1.32913 0
M  V30 39575 H 3866 -3.69719 -0.486047 0
M  V30 39576 N 3868.19 -0.496268 -1.49583 0
M  V30 39577 C 3869.6 -0.0473084 -1.8664 0
M  V30 39578 C 3869.95 1.36534 -1.40901 0
M  V30 39579 O 3869.07 2.01666 -0.784832 0
M  V30 39580 C 3869.67 -0.0790755 -3.38708 0
M  V30 39581 C 3868.23 0.314522 -3.75084 0
M  V30 39582 C 3867.38 -0.453672 -2.73564 0
M  V30 39583 H 3870.33 -0.709294 -1.41967 0
M  V30 39584 H 3870.35 0.71733 -3.73677 0
M  V30 39585 H 3869.86 -1.10733 -3.71967 0
M  V30 39586 H 3867.96 1.34619 -3.47431 0
M  V30 39587 H 3868.07 -0.00163849 -4.791 0
M  V30 39588 H 3866.44 0.0958923 -2.54519 0
M  V30 39589 H 3867.22 -1.48192 -3.09668 0
M  V30 39590 N 3869.67 1.55914 -0.2299 0
M  V30 39591 C 3870.63 2.19392 0.663309 0
M  V30 39592 C 3871.63 1.1582 1.11546 0
M  V30 39593 O 3872.82 1.41004 1.02291 0
M  V30 39594 C 3869.95 2.82392 1.90965 0
M  V30 39595 H 3871.14 2.99699 0.109744 0
M  V30 39596 H 3868.7 1.56288 0.0196959 0
M  V30 39597 H 3869.43 2.05977 2.50487 0
M  V30 39598 H 3869.22 3.58245 1.59382 0
M  V30 39599 H 3870.71 3.31024 2.54584 0
M  V30 39600 N 3871.14 -0.043406 1.5754 0
M  V30 39601 C 3872.56 -0.398792 1.54537 0
M  V30 39602 C 3872.76 -1.77481 0.954086 0
M  V30 39603 O 3871.82 -2.46008 0.568883 0
M  V30 39604 C 3873.13 -0.313796 2.99058 0
M  V30 39605 C 3874.68 -0.391925 3.10537 0
M  V30 39606 C 3875.15 -0.336534 4.56762 0
M  V30 39607 N 3876.64 -0.395763 4.61506 0
M  V30 39608 C 3877.38 -0.375568 5.72169 0
M  V30 39609 N 3876.87 -0.308508 6.92113 0
M  V30 39610 N 3878.67 -0.424237 5.60497 0
M  V30 39611 H 3870.82 0.857259 1.94332 0
M  V30 39612 H 3873.08 0.324581 0.890702 0
M  V30 39613 H 3872.79 0.63122 3.45989 0
M  V30 39614 H 3872.66 -1.11306 3.60404 0
M  V30 39615 H 3875.05 -1.32737 2.63562 0
M  V30 39616 H 3875.13 0.436435 2.52049 0
M  V30 39617 H 3874.77 0.595181 5.04401 0
M  V30 39618 H 3874.7 -1.18281 5.13144 0
M  V30 39619 H 3877.19 -0.450687 3.75203 0
M  V30 39620 H 3877.51 -0.297805 7.72226 0
M  V30 39621 H 3875.85 -0.274769 6.94457 0
M  V30 39622 H 3879.04 -0.474517 4.65689 0
M  V30 39623 H 3879.22 -0.40503 6.46733 0
M  V30 39624 N 3872.62 -1.54412 -0.315402 0
M  V30 39625 C 3874.04 -1.45304 -0.660228 0
M  V30 39626 C 3874.24 -0.632527 -1.91315 0
M  V30 39627 O 3873.29 -0.134537 -2.52141 0
M  V30 39628 C 3874.61 -2.89115 -0.826634 0
M  V30 39629 C 3876.15 -2.99068 -0.92345 0
M  V30 39630 C 3876.63 -4.44045 -1.12196 0
M  V30 39631 N 3878.12 -4.47693 -1.18851 0
M  V30 39632 C 3878.86 -5.57035 -1.36014 0
M  V30 39633 N 3878.35 -6.76329 -1.50168 0
M  V30 39634 N 3880.14 -5.44697 -1.38787 0
M  V30 39635 H 3872.3 -2.06236 0.507997 0
M  V30 39636 H 3874.56 -0.933436 0.165531 0
M  V30 39637 H 3874.26 -3.51693 0.0228989 0
M  V30 39638 H 3874.14 -3.35701 -1.72001 0
M  V30 39639 H 3876.53 -2.36612 -1.76348 0
M  V30 39640 H 3876.61 -2.55799 -0.00636692 0
M  V30 39641 H 3876.25 -5.0709 -0.286755 0
M  V30 39642 H 3876.18 -4.8493 -2.05305 0
M  V30 39643 H 3878.67 -3.61741 -1.09324 0
M  V30 39644 H 3878.98 -7.55419 -1.62979 0
M  V30 39645 H 3877.33 -6.79222 -1.4725 0
M  V30 39646 H 3880.52 -4.50449 -1.27331 0
M  V30 39647 H 3880.69 -6.29964 -1.5182 0
M  V30 39648 N 3874.1 0.57788 -1.46623 0
M  V30 39649 C 3875.03 1.69673 -1.60416 0
M  V30 39650 C 3876.01 1.63921 -0.454306 0
M  V30 39651 O 3877.2 1.81863 -0.681142 0
M  V30 39652 C 3874.33 3.08315 -1.59872 0
M  V30 39653 C 3873.28 3.28901 -2.73876 0
M  V30 39654 C 3872.61 4.6812 -2.58394 0
M  V30 39655 C 3873.91 3.16269 -4.15658 0
M  V30 39656 H 3875.6 1.58385 -2.54076 0
M  V30 39657 H 3873.15 0.760551 -1.22277 0
M  V30 39658 H 3875.1 3.86414 -1.68114 0
M  V30 39659 H 3873.82 3.20513 -0.627598 0
M  V30 39660 H 3872.48 2.53204 -2.6511 0
M  V30 39661 H 3872.13 4.7709 -1.59355 0
M  V30 39662 H 3871.83 4.82846 -3.34863 0
M  V30 39663 H 3873.35 5.48381 -2.68535 0
M  V30 39664 H 3874.77 3.84206 -4.2551 0
M  V30 39665 H 3873.17 3.42514 -4.92752 0
M  V30 39666 H 3874.24 2.13284 -4.35475 0
M  V30 39667 N 3875.58 1.34409 0.822917 0
M  V30 39668 C 3876.86 1.17347 1.5649 0
M  V30 39669 C 3877.24 -0.253928 2.09567 0
M  V30 39670 O 3876.58 -1.25525 1.90934 0
M  V30 39671 C 3876.79 2.22802 2.68626 0
M  V30 39672 C 3878.14 2.57779 3.37394 0
M  V30 39673 O 3879.17 2.21591 2.78883 0
M  V30 39674 O 3878.02 3.19942 4.43057 0
M  V30 39675 H 3875.12 0.454888 0.690656 0
M  V30 39676 H 3877.66 1.46042 0.86429 0
M  V30 39677 H 3876.44 3.18612 2.2716 0
M  V30 39678 H 3876.06 1.95285 3.46337 0
M  V30 39679 N 3877.06 -1.04312 1.18139 0
M  V30 39680 C 3877.99 -2.14196 0.929631 0
M  V30 39681 C 3878.97 -1.69589 -0.131736 0
M  V30 39682 O 3880.15 -1.94189 0.0203446 0
M  V30 39683 C 3877.28 -3.44348 0.451859 0
M  V30 39684 C 3876.24 -4.02566 1.45343 0
M  V30 39685 C 3875.56 -5.28167 0.833269 0
M  V30 39686 C 3876.86 -4.39026 2.82938 0
M  V30 39687 H 3878.56 -2.35515 1.8486 0
M  V30 39688 H 3876.1 -1.13185 0.890237 0
M  V30 39689 H 3878.06 -4.20578 0.263104 0
M  V30 39690 H 3876.78 -3.22709 -0.502668 0
M  V30 39691 H 3875.44 -3.28415 1.62908 0
M  V30 39692 H 3875.09 -5.02836 -0.12837 0
M  V30 39693 H 3874.79 -5.6808 1.50195 0
M  V30 39694 H 3876.31 -6.07077 0.654987 0
M  V30 39695 H 3877.72 -5.06252 2.69039 0
M  V30 39696 H 3876.12 -4.89981 3.46466 0
M  V30 39697 H 3877.19 -3.48966 3.36676 0
M  V30 39698 N 3878.53 -0.983032 -1.23184 0
M  V30 39699 C 3879.95 -0.692095 -1.43813 0
M  V30 39700 C 3880.15 0.74079 -1.87389 0
M  V30 39701 O 3879.21 1.51291 -2.02156 0
M  V30 39702 C 3880.52 -1.68926 -2.48766 0
M  V30 39703 C 3882.07 -1.7036 -2.62576 0
M  V30 39704 C 3882.54 -2.68914 -3.70741 0
M  V30 39705 N 3884.03 -2.67449 -3.78187 0
M  V30 39706 C 3884.77 -3.40374 -4.61447 0
M  V30 39707 N 3884.26 -4.22867 -5.48776 0
M  V30 39708 N 3886.06 -3.29126 -4.55667 0
M  V30 39709 H 3878.21 -1.90859 -0.932013 0
M  V30 39710 H 3880.47 -0.822568 -0.471259 0
M  V30 39711 H 3880.18 -2.71412 -2.2367 0
M  V30 39712 H 3880.05 -1.47421 -3.47199 0
M  V30 39713 H 3882.44 -0.685778 -2.87021 0
M  V30 39714 H 3882.52 -1.95932 -1.64451 0
M  V30 39715 H 3882.16 -3.7084 -3.47045 0
M  V30 39716 H 3882.09 -2.40616 -4.68414 0
M  V30 39717 H 3884.58 -2.07582 -3.15781 0
M  V30 39718 H 3884.9 -4.75361 -6.09304 0
M  V30 39719 H 3883.24 -4.26957 -5.48391 0
M  V30 39720 H 3886.43 -2.64129 -3.86463 0
M  V30 39721 H 3886.61 -3.8622 -5.20325 0
M  V30 39722 N 3880.01 1.38338 -0.755006 0
M  V30 39723 C 3881.26 1.9969 -0.311181 0
M  V30 39724 C 3881.58 1.60231 1.11135 0
M  V30 39725 O 3880.85 0.859825 1.76022 0
M  V30 39726 H 3879.43 0.738546 -0.112065 0
M  V30 39727 H 3882.09 1.69081 -0.969415 0
M  V30 39728 H 3881.19 3.09834 -0.375447 0
M  V30 39729 N 3881.49 0.504194 1.49317 0
M  V30 39730 C 3882.44 -0.272525 2.29185 0
M  V30 39731 C 3883.41 -0.957453 1.35728 0
M  V30 39732 O 3884.59 -0.963495 1.64686 0
M  V30 39733 C 3881.73 -1.3291 3.18479 0
M  V30 39734 C 3880.85 -0.655629 4.26996 0
M  V30 39735 C 3879.98 -1.69292 5.03501 0
M  V30 39736 C 3879.02 -1.00149 6.03851 0
M  V30 39737 N 3878.16 -1.98313 6.7351 0
M  V30 39738 H 3883 0.414792 2.95099 0
M  V30 39739 H 3880.53 0.216398 1.455 0
M  V30 39740 H 3882.49 -1.95371 3.68627 0
M  V30 39741 H 3881.12 -1.98514 2.54543 0
M  V30 39742 H 3880.17 0.0823321 3.80311 0
M  V30 39743 H 3881.49 -0.111496 4.98675 0
M  V30 39744 H 3880.64 -2.39249 5.57535 0
M  V30 39745 H 3879.38 -2.27091 4.31603 0
M  V30 39746 H 3878.38 -0.287715 5.49047 0
M  V30 39747 H 3879.61 -0.429954 6.77738 0
M  V30 39748 H 3877.55 -2.55069 6.04381 0
M  V30 39749 H 3877.47 -1.48975 7.41176 0
M  V30 39750 H 3878.74 -2.67549 7.32146 0
M  V30 39751 N 3882.97 -1.5579 0.238166 0
M  V30 39752 C 3884.38 -1.59171 -0.11688 0
M  V30 39753 C 3884.58 -1.25523 -1.57627 0
M  V30 39754 O 3883.64 -0.998373 -2.31924 0
M  V30 39755 C 3884.95 -2.99861 0.224419 0
M  V30 39756 C 3886.5 -3.12549 0.168005 0
M  V30 39757 C 3886.98 -4.55444 0.483212 0
M  V30 39758 N 3888.47 -4.61168 0.433391 0
M  V30 39759 C 3889.2 -5.69698 0.650561 0
M  V30 39760 N 3888.7 -6.86524 0.930393 0
M  V30 39761 N 3890.49 -5.5908 0.581862 0
M  V30 39762 H 3882.64 -1.75934 1.19 0
M  V30 39763 H 3884.91 -0.818563 0.478183 0
M  V30 39764 H 3884.61 -3.29192 1.23797 0
M  V30 39765 H 3884.49 -3.74474 -0.452672 0
M  V30 39766 H 3886.87 -2.83005 -0.836202 0
M  V30 39767 H 3886.95 -2.4023 0.878818 0
M  V30 39768 H 3886.6 -4.85708 1.48493 0
M  V30 39769 H 3886.53 -5.26011 -0.248981 0
M  V30 39770 H 3889.02 -3.77227 0.225478 0
M  V30 39771 H 3889.33 -7.65163 1.08376 0
M  V30 39772 H 3887.68 -6.88229 0.967771 0
M  V30 39773 H 3890.87 -4.66688 0.363355 0
M  V30 39774 H 3891.04 -6.43592 0.754511 0
M  V30 39775 N 3884.45 0.0350506 -1.57561 0
M  V30 39776 C 3885.67 0.742719 -1.93645 0
M  V30 39777 C 3886.1 1.68417 -0.837685 0
M  V30 39778 O 3885.45 1.80114 0.207038 0
M  V30 39779 C 3885.5 1.48105 -3.28781 0
M  V30 39780 O 3884.61 2.59392 -3.20608 0
M  V30 39781 H 3883.95 0.200181 -0.633106 0
M  V30 39782 H 3886.48 -0.00768867 -2.04599 0
M  V30 39783 H 3886.49 1.85229 -3.6353 0
M  V30 39784 H 3885.16 0.790536 -4.08318 0
M  V30 39785 H 3883.74 2.24854 -2.97481 0
M  V30 39786 N 3885.92 1.54577 0.307209 0
M  V30 39787 C 3887.34 1.64627 0.880611 0
M  V30 39788 C 3887.69 0.550898 1.88307 0
M  V30 39789 O 3886.81 -0.313515 2.14117 0
M  V30 39790 C 3887.41 2.98425 1.604 0
M  V30 39791 C 3885.97 3.10617 2.12589 0
M  V30 39792 C 3885.11 2.6028 0.956547 0
M  V30 39793 H 3888.06 1.58476 0.084366 0
M  V30 39794 H 3888.08 2.89501 2.4692 0
M  V30 39795 H 3887.6 3.78127 0.874143 0
M  V30 39796 H 3885.7 2.35622 2.8864 0
M  V30 39797 H 3885.81 4.16677 2.36468 0
M  V30 39798 H 3884.17 2.16579 1.34036 0
M  V30 39799 H 3884.96 3.42455 0.24075 0
M  V30 39800 N 3887.4 -0.570096 1.46927 0
M  V30 39801 C 3888.63 -1.35355 1.56482 0
M  V30 39802 C 3889.05 -1.87624 0.210389 0
M  V30 39803 O 3888.4 -1.64305 -0.794359 0
M  V30 39804 C 3888.45 -2.53239 2.57977 0
M  V30 39805 O 3888.17 -2.03132 3.88161 0
M  V30 39806 C 3889.68 -3.45625 2.77593 0
M  V30 39807 H 3886.9 -0.413058 0.528795 0
M  V30 39808 H 3889.44 -0.691861 1.92441 0
M  V30 39809 H 3887.59 -3.15371 2.24988 0
M  V30 39810 H 3888.01 -2.79996 4.43511 0
M  V30 39811 H 3889.48 -4.24789 3.52503 0
M  V30 39812 H 3889.96 -3.98359 1.84951 0
M  V30 39813 H 3890.57 -2.89318 3.11729 0
M  V30 39814 N 3888.88 -1.34844 -0.815777 0
M  V30 39815 C 3890.29 -1.24744 -1.38909 0
M  V30 39816 C 3890.64 0.124066 -1.95807 0
M  V30 39817 O 3889.77 1.02469 -1.90602 0
M  V30 39818 C 3890.36 -2.25866 -2.52528 0
M  V30 39819 C 3888.92 -2.19535 -3.05747 0
M  V30 39820 C 3888.07 -2.12078 -1.78657 0
M  V30 39821 H 3891.02 -1.46106 -0.619575 0
M  V30 39822 H 3891.04 -1.8798 -3.30823 0
M  V30 39823 H 3890.55 -3.25675 -2.11086 0
M  V30 39824 H 3888.65 -1.23106 -3.51676 0
M  V30 39825 H 3888.77 -3.11101 -3.64353 0
M  V30 39826 H 3887.13 -1.5791 -1.99841 0
M  V30 39827 H 3887.91 -3.13733 -1.3938 0
M  V30 39828 N 3890.36 1.03684 -1.1869 0
M  V30 39829 C 3891.61 1.766 -0.982687 0
M  V30 39830 C 3891.93 1.88782 0.48852 0
M  V30 39831 O 3891.2 1.4156 1.35416 0
M  V30 39832 H 3889.78 0.654196 -0.360606 0
M  V30 39833 H 3892.44 1.25113 -1.49442 0
M  V30 39834 H 3891.54 2.77722 -1.42396 0
M  V30 39835 N 3891.84 0.989551 1.22661 0
M  V30 39836 C 3892.78 0.537033 2.24465 0
M  V30 39837 C 3893.75 -0.428879 1.60468 0
M  V30 39838 O 3894.94 -0.334385 1.87847 0
M  V30 39839 C 3892.08 -0.145465 3.44793 0
M  V30 39840 C 3891.19 0.86179 4.23317 0
M  V30 39841 C 3890.33 0.153155 5.30979 0
M  V30 39842 C 3889.37 1.14901 6.01219 0
M  V30 39843 N 3888.5 0.468905 7.00532 0
M  V30 39844 H 3893.34 1.40992 2.62536 0
M  V30 39845 H 3890.88 0.706314 1.29033 0
M  V30 39846 H 3892.84 -0.558055 4.13451 0
M  V30 39847 H 3891.47 -0.982159 3.07495 0
M  V30 39848 H 3890.52 1.39272 3.53988 0
M  V30 39849 H 3891.83 1.62027 4.71751 0
M  V30 39850 H 3890.99 -0.316336 6.05875 0
M  V30 39851 H 3889.73 -0.637855 4.83511 0
M  V30 39852 H 3888.73 1.62916 5.25108 0
M  V30 39853 H 3889.96 1.94083 6.50775 0
M  V30 39854 H 3887.9 -0.302729 6.55301 0
M  V30 39855 H 3887.82 1.16589 7.46956 0
M  V30 39856 H 3889.09 0.0221056 7.79497 0
M  V30 39857 N 3893.32 -1.37936 0.762332 0
M  V30 39858 C 3894.56 -1.99522 0.321767 0
M  V30 39859 C 3894.88 -1.60818 -1.10284 0
M  V30 39860 O 3894.15 -0.869148 -1.75564 0
M  V30 39861 H 3892.73 -0.737941 0.11598 0
M  V30 39862 H 3895.4 -1.68564 0.978368 0
M  V30 39863 H 3894.49 -3.0963 0.391873 0
M  V30 39864 N 3894.79 -0.512106 -1.49048 0
M  V30 39865 C 3896.2 -0.0671014 -1.86579 0
M  V30 39866 C 3896.56 1.35031 -1.42341 0
M  V30 39867 O 3895.68 2.00823 -0.806177 0
M  V30 39868 C 3896.28 -0.114996 -3.38605 0
M  V30 39869 C 3894.83 0.274721 -3.75396 0
M  V30 39870 C 3893.98 -0.482661 -2.73067 0
M  V30 39871 H 3896.93 -0.724312 -1.41207 0
M  V30 39872 H 3896.95 0.677656 -3.74417 0
M  V30 39873 H 3896.47 -1.14672 -3.70772 0
M  V30 39874 H 3894.57 1.30927 -3.4884 0
M  V30 39875 H 3894.68 -0.0524534 -4.79071 0
M  V30 39876 H 3893.04 0.0688917 -2.54607 0
M  V30 39877 H 3893.83 -1.51468 -3.08078 0
M  V30 39878 N 3896.27 1.55662 -0.246424 0
M  V30 39879 C 3897.23 2.20083 0.640002 0
M  V30 39880 C 3898.23 1.16996 1.10311 0
M  V30 39881 O 3899.42 1.42081 1.0079 0
M  V30 39882 C 3896.56 2.84401 1.87959 0
M  V30 39883 H 3897.75 2.99799 0.0779507 0
M  V30 39884 H 3895.3 1.563 0.00311841 0
M  V30 39885 H 3896.04 2.08622 2.48289 0
M  V30 39886 H 3895.82 3.59916 1.55573 0
M  V30 39887 H 3897.31 3.33705 2.51059 0
M  V30 39888 N 3897.75 -0.0266943 1.57577 0
M  V30 39889 C 3899.03 -0.752574 1.80543 0
M  V30 39890 C 3899.41 -1.93448 0.845059 0
M  V30 39891 O 3898.75 -2.28224 -0.112245 0
M  V30 39892 C 3898.96 -1.18339 3.28324 0
M  V30 39893 C 3900.31 -1.59832 3.93369 0
M  V30 39894 O 3901.34 -1.2779 3.32488 0
M  V30 39895 O 3900.2 -2.19312 5.00564 0
M  V30 39896 H 3897.29 -0.364133 0.74252 0
M  V30 39897 H 3899.84 -0.00329017 1.697 0
M  V30 39898 H 3898.61 -0.339763 3.89822 0
M  V30 39899 H 3898.23 -1.99261 3.44065 0
M  V30 39900 N 3899.23 -1.54738 -0.299007 0
M  V30 39901 C 3900.64 -1.45996 -0.64478 0
M  V30 39902 C 3900.84 -0.652782 -1.90633 0
M  V30 39903 O 3899.9 -0.161273 -2.51984 0
M  V30 39904 C 3901.21 -2.89975 -0.795923 0
M  V30 39905 C 3902.76 -3.0003 -0.891678 0
M  V30 39906 C 3903.24 -4.4521 -1.0748 0
M  V30 39907 N 3904.73 -4.48928 -1.14096 0
M  V30 39908 C 3905.46 -5.58446 -1.30098 0
M  V30 39909 N 3904.96 -6.77884 -1.42986 0
M  V30 39910 N 3906.75 -5.46138 -1.33002 0
M  V30 39911 H 3898.9 -2.05685 0.529843 0
M  V30 39912 H 3901.16 -0.931628 0.175423 0
M  V30 39913 H 3900.87 -3.51648 0.0601993 0
M  V30 39914 H 3900.74 -3.37507 -1.68431 0
M  V30 39915 H 3903.13 -2.38469 -1.73829 0
M  V30 39916 H 3903.21 -2.55792 0.0207644 0
M  V30 39917 H 3902.86 -5.07365 -0.232955 0
M  V30 39918 H 3902.79 -4.87081 -2.0015 0
M  V30 39919 H 3905.28 -3.6288 -1.05481 0
M  V30 39920 H 3905.59 -7.57105 -1.54957 0
M  V30 39921 H 3903.94 -6.80745 -1.40038 0
M  V30 39922 H 3907.13 -4.51774 -1.22547 0
M  V30 39923 H 3907.3 -6.31539 -1.4513 0
M  V30 39924 N 3900.71 0.562296 -1.47228 0
M  V30 39925 C 3901.67 1.65187 -1.5889 0
M  V30 39926 C 3902.67 1.53948 -0.464386 0
M  V30 39927 O 3903.86 1.58198 -0.729307 0
M  V30 39928 C 3900.99 3.04708 -1.52858 0
M  V30 39929 H 3902.18 1.56198 -2.56012 0
M  V30 39930 H 3899.74 0.781808 -1.35342 0
M  V30 39931 H 3900.47 3.19235 -0.570923 0
M  V30 39932 H 3900.26 3.14274 -2.34465 0
M  V30 39933 H 3901.75 3.83986 -1.64147 0
M  V30 39934 N 3902.18 1.35274 0.808615 0
M  V30 39935 C 3903.41 1.31702 1.60217 0
M  V30 39936 C 3903.83 -0.103353 1.87816 0
M  V30 39937 O 3903.19 -1.06955 1.46391 0
M  V30 39938 C 3903.24 2.12745 2.91156 0
M  V30 39939 O 3902.34 1.50677 3.83888 0
M  V30 39940 H 3901.68 0.451648 0.486734 0
M  V30 39941 H 3904.21 1.78286 1.00375 0
M  V30 39942 H 3904.22 2.24626 3.40598 0
M  V30 39943 H 3902.9 3.16007 2.70394 0
M  V30 39944 H 3901.48 1.47624 3.42435 0
M  V30 39945 N 3903.66 -1.03053 1.19239 0
M  V30 39946 C 3905.08 -1.28671 0.944246 0
M  V30 39947 C 3905.28 -1.97801 -0.384344 0
M  V30 39948 O 3904.33 -2.26486 -1.11625 0
M  V30 39949 C 3905.65 -2.13543 2.11707 0
M  V30 39950 C 3907.2 -2.26856 2.15651 0
M  V30 39951 C 3907.67 -3.15099 3.32381 0
M  V30 39952 N 3909.16 -3.22687 3.32306 0
M  V30 39953 C 3909.9 -3.91151 4.19271 0
M  V30 39954 N 3909.39 -4.61859 5.16389 0
M  V30 39955 N 3911.19 -3.87533 4.07154 0
M  V30 39956 H 3903.34 -0.565951 2.04721 0
M  V30 39957 H 3905.6 -0.312312 0.895078 0
M  V30 39958 H 3905.31 -1.70067 3.07848 0
M  V30 39959 H 3905.18 -3.1425 2.0863 0
M  V30 39960 H 3907.57 -2.69563 1.20083 0
M  V30 39961 H 3907.65 -1.25704 2.22783 0
M  V30 39962 H 3907.29 -2.73101 4.28227 0
M  V30 39963 H 3907.22 -4.16306 3.22486 0
M  V30 39964 H 3909.71 -2.72327 2.62005 0
M  V30 39965 H 3910.03 -5.11726 5.79099 0
M  V30 39966 H 3908.37 -4.6073 5.20339 0
M  V30 39967 H 3911.56 -3.31432 3.30561 0
M  V30 39968 H 3911.73 -4.40617 4.75143 0
M  V30 39969 N 3905.14 -0.996042 -1.22134 0
M  V30 39970 C 3906.1 -0.554025 -2.22403 0
M  V30 39971 C 3907.1 0.364804 -1.56607 0
M  V30 39972 O 3908.29 0.156327 -1.73497 0
M  V30 39973 C 3905.43 0.193734 -3.40349 0
M  V30 39974 H 3906.62 -1.44079 -2.63023 0
M  V30 39975 H 3904.17 -0.783584 -1.35239 0
M  V30 39976 H 3904.91 1.09635 -3.05206 0
M  V30 39977 H 3904.69 -0.46604 -3.89321 0
M  V30 39978 H 3906.18 0.491048 -4.14703 0
M  V30 39979 N 3906.62 1.37529 -0.769636 0
M  V30 39980 C 3908.03 1.82394 -0.398676 0
M  V30 39981 C 3908.38 1.64135 1.0749 0
M  V30 39982 O 3907.51 1.1513 1.83232 0
M  V30 39983 C 3908.1 3.31129 -0.716847 0
M  V30 39984 C 3906.66 3.7428 -0.398969 0
M  V30 39985 C 3905.81 2.60087 -0.961776 0
M  V30 39986 H 3908.76 1.26031 -0.964463 0
M  V30 39987 H 3908.78 3.805 -0.000743762 0
M  V30 39988 H 3908.29 3.44387 -1.78939 0
M  V30 39989 H 3906.39 3.66593 0.666348 0
M  V30 39990 H 3906.5 4.70461 -0.905743 0
M  V30 39991 H 3904.87 2.51756 -0.386147 0
M  V30 39992 H 3905.65 2.76137 -2.03968 0
M  V30 39993 N 3908.1 0.520003 1.48774 0
M  V30 39994 C 3909.51 0.0769953 1.86541 0
M  V30 39995 C 3909.86 -1.34275 1.43055 0
M  V30 39996 O 3908.98 -2.00392 0.816816 0
M  V30 39997 C 3909.58 0.132951 3.38539 0
M  V30 39998 C 3908.14 -0.254809 3.75537 0
M  V30 39999 C 3907.28 0.497136 2.72807 0
M  V30 40000 H 3910.24 0.73179 1.40821 0
M  V30 40001 H 3910.26 -0.657791 3.74771 0
M  V30 40002 H 3909.77 1.16637 3.70159 0
M  V30 40003 H 3907.87 -1.29075 3.49529 0
M  V30 40004 H 3907.98 0.0778589 4.79037 0
M  V30 40005 H 3906.35 -0.0553883 2.5464 0
M  V30 40006 H 3907.13 1.531 3.07271 0
M  V30 40007 N 3909.57 -1.55529 0.254676 0
M  V30 40008 C 3910.99 -1.59286 -0.0999907 0
M  V30 40009 C 3911.19 -1.27188 -1.56287 0
M  V30 40010 O 3910.25 -1.02292 -2.30852 0
M  V30 40011 C 3911.56 -2.99606 0.256211 0
M  V30 40012 C 3913.11 -3.12353 0.201146 0
M  V30 40013 C 3913.58 -4.54906 0.531491 0
M  V30 40014 N 3915.07 -4.60682 0.48228 0
M  V30 40015 C 3915.81 -5.68975 0.710948 0
M  V30 40016 N 3915.3 -6.85499 1.00316 0
M  V30 40017 N 3917.1 -5.58432 0.641128 0
M  V30 40018 H 3909.25 -1.74662 1.20859 0
M  V30 40019 H 3911.51 -0.813445 0.486838 0
M  V30 40020 H 3911.22 -3.2786 1.27281 0
M  V30 40021 H 3911.09 -3.74933 -0.412929 0
M  V30 40022 H 3913.48 -2.83876 -0.806139 0
M  V30 40023 H 3913.56 -2.39284 0.904248 0
M  V30 40024 H 3913.2 -4.84106 1.53637 0
M  V30 40025 H 3913.13 -5.26246 -0.193176 0
M  V30 40026 H 3915.62 -3.76966 0.265476 0
M  V30 40027 H 3915.94 -7.63971 1.16485 0
M  V30 40028 H 3914.28 -6.87164 1.04071 0
M  V30 40029 H 3917.47 -4.66276 0.412833 0
M  V30 40030 H 3917.65 -6.42756 0.82273 0
M  V30 40031 N 3911.05 0.0183372 -1.57589 0
M  V30 40032 C 3912.46 0.563559 -1.77991 0
M  V30 40033 C 3912.81 1.75 -0.887095 0
M  V30 40034 O 3911.94 2.16234 -0.0847223 0
M  V30 40035 C 3912.53 1.02914 -3.22791 0
M  V30 40036 C 3911.09 1.5198 -3.44353 0
M  V30 40037 C 3910.24 0.462679 -2.73413 0
M  V30 40038 H 3913.19 -0.207876 -1.57333 0
M  V30 40039 H 3913.21 1.89603 -3.29896 0
M  V30 40040 H 3912.72 0.165418 -3.87747 0
M  V30 40041 H 3910.83 2.40501 -2.84587 0
M  V30 40042 H 3910.94 1.5599 -4.52994 0
M  V30 40043 H 3909.3 0.920169 -2.37497 0
M  V30 40044 H 3910.09 -0.391758 -3.41057 0
M  V30 40045 N 3912.53 1.54894 0.290797 0
M  V30 40046 C 3913.95 1.46336 0.637028 0
M  V30 40047 C 3914.15 0.662883 1.90284 0
M  V30 40048 O 3913.2 0.174634 2.51895 0
M  V30 40049 C 3914.52 2.90393 0.780534 0
M  V30 40050 C 3916.06 3.00499 0.875754 0
M  V30 40051 C 3916.54 4.45774 1.05118 0
M  V30 40052 N 3918.03 4.49527 1.11714 0
M  V30 40053 C 3918.76 5.59128 1.27135 0
M  V30 40054 N 3918.26 6.78633 1.39389 0
M  V30 40055 N 3920.05 5.46836 1.30104 0
M  V30 40056 H 3912.2 2.05401 -0.540743 0
M  V30 40057 H 3914.47 0.930685 -0.180361 0
M  V30 40058 H 3914.17 3.51612 -0.0788473 0
M  V30 40059 H 3914.05 3.38395 1.66639 0
M  V30 40060 H 3916.43 2.39388 1.72561 0
M  V30 40061 H 3916.52 2.55777 -0.0343293 0
M  V30 40062 H 3916.16 5.07482 0.206045 0
M  V30 40063 H 3916.09 4.88135 1.97564 0
M  V30 40064 H 3918.58 3.63435 1.03555 0
M  V30 40065 H 3918.89 7.57916 1.5094 0
M  V30 40066 H 3917.24 6.81479 1.36426 0
M  V30 40067 H 3920.43 4.52418 1.20149 0
M  V30 40068 H 3920.6 6.323 1.41779 0
M  V30 40069 N 3914.01 -0.55448 1.47524 0
M  V30 40070 C 3915.23 -1.34169 1.58157 0
M  V30 40071 C 3915.66 -1.86649 0.233157 0
M  V30 40072 O 3915.02 -1.63115 -0.79141 0
M  V30 40073 C 3915.06 -2.48562 2.61246 0
M  V30 40074 O 3914.17 -3.50874 2.16706 0
M  V30 40075 H 3913.51 -0.398412 0.531191 0
M  V30 40076 H 3916.04 -0.669807 1.93325 0
M  V30 40077 H 3916.05 -2.95093 2.81752 0
M  V30 40078 H 3914.72 -2.09721 3.59152 0
M  V30 40079 H 3913.3 -3.10629 2.06311 0
M  V30 40080 N 3915.49 -1.35701 -0.80143 0
M  V30 40081 C 3916.71 -1.32389 -1.58999 0
M  V30 40082 C 3917.13 0.09751 -1.88548 0
M  V30 40083 O 3916.49 1.05097 -1.49201 0
M  V30 40084 C 3916.54 -2.13364 -2.91818 0
M  V30 40085 O 3916.26 -3.49963 -2.63548 0
M  V30 40086 C 3917.76 -2.17696 -3.86165 0
M  V30 40087 H 3914.98 -0.454588 -0.493549 0
M  V30 40088 H 3917.52 -1.78629 -0.995584 0
M  V30 40089 H 3915.68 -1.7071 -3.4776 0
M  V30 40090 H 3916.09 -3.92077 -3.4839 0
M  V30 40091 H 3917.57 -2.78735 -4.76456 0
M  V30 40092 H 3918.04 -1.17711 -4.23132 0
M  V30 40093 H 3918.65 -2.60533 -3.36158 0
M  V30 40094 N 3916.96 1.02419 -1.19783 0
M  V30 40095 C 3918.19 1.79512 -1.02874 0
M  V30 40096 C 3918.61 1.84015 0.422355 0
M  V30 40097 O 3917.96 1.28761 1.29333 0
M  V30 40098 C 3918.02 3.24341 -1.5964 0
M  V30 40099 O 3917.74 3.20139 -2.9907 0
M  V30 40100 C 3919.24 4.18014 -1.47578 0
M  V30 40101 H 3916.46 0.564776 -0.362311 0
M  V30 40102 H 3919 1.28971 -1.58703 0
M  V30 40103 H 3917.16 3.72056 -1.07948 0
M  V30 40104 H 3917.57 4.10989 -3.25866 0
M  V30 40105 H 3919.04 5.17507 -1.9207 0
M  V30 40106 H 3919.52 4.37119 -0.427044 0
M  V30 40107 H 3920.13 3.76176 -1.98424 0
M  V30 40108 N 3918.44 1.0025 1.21604 0
M  V30 40109 C 3919.67 0.702283 1.95148 0
M  V30 40110 C 3920.09 -0.728262 1.7343 0
M  V30 40111 O 3919.45 -1.49915 1.01956 0
M  V30 40112 C 3919.5 1.02576 3.45703 0
M  V30 40113 O 3918.6 0.129647 4.12196 0
M  V30 40114 H 3917.94 0.261898 0.610168 0
M  V30 40115 H 3920.47 1.34208 1.54433 0
M  V30 40116 H 3920.48 0.97158 3.96263 0
M  V30 40117 H 3919.16 2.06812 3.60835 0
M  V30 40118 H 3917.74 0.240139 3.72126 0
M  V30 40119 N 3919.92 -1.37119 0.776919 0
M  V30 40120 C 3920.85 -2.2886 0.124849 0
M  V30 40121 C 3921.87 -1.48882 -0.658629 0
M  V30 40122 O 3923.06 -1.71474 -0.49587 0
M  V30 40123 C 3920.16 -3.28154 -0.846663 0
M  V30 40124 C 3919.33 -4.37246 -0.115903 0
M  V30 40125 C 3918.39 -5.16581 -1.00153 0
M  V30 40126 O 3917.41 -5.67311 -0.463392 0
M  V30 40127 N 3918.62 -5.31808 -2.32724 0
M  V30 40128 H 3921.38 -2.8546 0.91283 0
M  V30 40129 H 3918.94 -1.49151 0.629721 0
M  V30 40130 H 3920.93 -3.78112 -1.44269 0
M  V30 40131 H 3919.5 -2.72284 -1.53558 0
M  V30 40132 H 3918.72 -3.88617 0.661083 0
M  V30 40133 H 3920.01 -5.07312 0.388846 0
M  V30 40134 H 3919.41 -4.92185 -2.78874 0
M  V30 40135 H 3917.97 -5.85056 -2.8732 0
M  V30 40136 N 3921.4 -0.527886 -1.48496 0
M  V30 40137 C 3922.65 0.00698632 -2.02799 0
M  V30 40138 C 3922.98 1.34132 -1.40436 0
M  V30 40139 O 3922.25 1.8658 -0.549373 0
M  V30 40140 C 3922.54 0.131209 -3.59861 0
M  V30 40141 C 3922.39 -1.22815 -4.32708 0
M  V30 40142 C 3923.71 0.859004 -4.31635 0
M  V30 40143 H 3920.83 0.00106492 -0.736999 0
M  V30 40144 H 3923.47 -0.684509 -1.77241 0
M  V30 40145 H 3921.62 0.720149 -3.81767 0
M  V30 40146 H 3923.29 -1.85804 -4.22226 0
M  V30 40147 H 3921.53 -1.81057 -3.94209 0
M  V30 40148 H 3922.21 -1.09425 -5.41045 0
M  V30 40149 H 3924.68 0.35925 -4.14546 0
M  V30 40150 H 3923.56 0.914816 -5.41223 0
M  V30 40151 H 3923.82 1.90882 -3.98769 0
M  V30 40152 N 3922.88 1.55391 -0.26292 0
M  V30 40153 C 3924.11 2.03726 0.361021 0
M  V30 40154 C 3924.52 1.1417 1.50368 0
M  V30 40155 O 3923.88 0.159316 1.81803 0
M  V30 40156 C 3923.93 3.51277 0.853636 0
M  V30 40157 O 3923.65 4.37423 -0.243508 0
M  V30 40158 C 3925.15 4.15444 1.54664 0
M  V30 40159 H 3922.37 0.665732 0.0839155 0
M  V30 40160 H 3924.91 2.00718 -0.391459 0
M  V30 40161 H 3923.07 3.54767 1.55624 0
M  V30 40162 H 3923.48 5.24331 0.133149 0
M  V30 40163 H 3924.96 5.20329 1.84287 0
M  V30 40164 H 3925.43 3.62887 2.47407 0
M  V30 40165 H 3926.04 4.15922 0.888196 0
M  V30 40166 N 3924.36 -0.00997961 1.57597 0
M  V30 40167 C 3925.77 -0.554112 1.78288 0
M  V30 40168 C 3926.12 -1.74527 0.896363 0
M  V30 40169 O 3925.24 -2.16186 0.0961885 0
M  V30 40170 C 3925.84 -1.012 3.23333 0
M  V30 40171 C 3924.4 -1.50151 3.45154 0
M  V30 40172 C 3923.54 -0.448173 2.73654 0
M  V30 40173 H 3926.49 0.216217 1.5722 0
M  V30 40174 H 3926.52 -1.87851 3.30896 0
M  V30 40175 H 3926.03 -0.144853 3.8783 0
M  V30 40176 H 3924.13 -2.38989 2.85859 0
M  V30 40177 H 3924.24 -1.53586 4.53815 0
M  V30 40178 H 3922.61 -0.907561 2.37982 0
M  V30 40179 H 3923.39 0.409839 3.40845 0
M  V30 40180 N 3925.83 -1.55046 -0.282578 0
M  V30 40181 C 3926.8 -1.86504 -1.33225 0
M  V30 40182 C 3927.8 -0.739002 -1.42812 0
M  V30 40183 O 3928.99 -1.00722 -1.42129 0
M  V30 40184 C 3926.12 -2.06178 -2.71484 0
M  V30 40185 H 3927.31 -2.80328 -1.06566 0
M  V30 40186 H 3924.86 -1.4739 -0.520173 0
M  V30 40187 H 3925.6 -1.14704 -3.03337 0
M  V30 40188 H 3925.38 -2.88155 -2.65912 0
M  V30 40189 H 3926.87 -2.31823 -3.47344 0
M  V30 40190 N 3927.31 0.546649 -1.47816 0
M  V30 40191 C 3928.22 1.68 -1.63747 0
M  V30 40192 C 3929.24 1.66044 -0.520147 0
M  V30 40193 O 3930.41 1.85299 -0.789066 0
M  V30 40194 C 3927.48 3.04494 -1.65784 0
M  V30 40195 C 3926.54 3.17436 -2.8902 0
M  V30 40196 C 3925.77 4.47419 -2.9095 0
M  V30 40197 O 3926 5.33518 -2.01779 0
M  V30 40198 O 3924.93 4.64375 -3.82935 0
M  V30 40199 H 3928.76 1.57501 -2.59668 0
M  V30 40200 H 3926.34 0.71786 -1.31023 0
M  V30 40201 H 3928.22 3.85702 -1.69741 0
M  V30 40202 H 3926.9 3.15354 -0.730323 0
M  V30 40203 H 3925.8 2.35586 -2.90603 0
M  V30 40204 H 3927.14 3.11485 -3.81101 0
M  V30 40205 N 3928.79 1.36124 0.794222 0
M  V30 40206 C 3929.7 1.322 1.93805 0
M  V30 40207 C 3930.72 0.22493 1.7254 0
M  V30 40208 O 3931.89 0.456466 1.96159 0
M  V30 40209 C 3928.96 1.10584 3.28591 0
M  V30 40210 C 3928.02 2.29721 3.62666 0
M  V30 40211 C 3927.25 2.09126 4.91021 0
M  V30 40212 O 3927.47 1.06399 5.60389 0
M  V30 40213 O 3926.41 2.96788 5.23641 0
M  V30 40214 H 3930.23 2.28491 2.00064 0
M  V30 40215 H 3927.82 1.16622 0.933787 0
M  V30 40216 H 3929.7 1.00427 4.09258 0
M  V30 40217 H 3928.38 0.173527 3.23235 0
M  V30 40218 H 3927.28 2.45445 2.82325 0
M  V30 40219 H 3928.62 3.21442 3.72741 0
M  V30 40220 N 3930.27 -1.01782 1.20325 0
M  V30 40221 C 3931.21 -2.10297 0.950983 0
M  V30 40222 C 3932.18 -1.65678 -0.118347 0
M  V30 40223 O 3933.37 -1.90782 0.0261185 0
M  V30 40224 C 3930.51 -3.41343 0.507825 0
M  V30 40225 C 3929.62 -3.99447 1.64517 0
M  V30 40226 C 3928.76 -5.18548 1.15244 0
M  V30 40227 C 3927.8 -5.68733 2.26295 0
M  V30 40228 N 3926.93 -6.79096 1.78249 0
M  V30 40229 H 3931.77 -2.31212 1.88003 0
M  V30 40230 H 3929.31 -1.13386 0.937128 0
M  V30 40231 H 3931.27 -4.16553 0.232216 0
M  V30 40232 H 3929.9 -3.20505 -0.384222 0
M  V30 40233 H 3928.95 -3.21345 2.03572 0
M  V30 40234 H 3930.26 -4.32697 2.48142 0
M  V30 40235 H 3929.42 -6.00958 0.832724 0
M  V30 40236 H 3928.16 -4.8686 0.286064 0
M  V30 40237 H 3927.16 -4.84928 2.59084 0
M  V30 40238 H 3928.39 -6.02456 3.13407 0
M  V30 40239 H 3926.33 -6.4924 0.939362 0
M  V30 40240 H 3926.25 -7.11532 2.55456 0
M  V30 40241 H 3927.52 -7.65074 1.49274 0
M  V30 40242 N 3931.75 -1.00894 -1.21071 0
M  V30 40243 C 3933.02 -0.609247 -1.8587 0
M  V30 40244 C 3933.4 0.91299 -1.90336 0
M  V30 40245 O 3932.75 1.80157 -1.40556 0
M  V30 40246 C 3932.96 -1.24818 -3.25916 0
M  V30 40247 C 3934.31 -1.35879 -4.02271 0
M  V30 40248 O 3935.33 -1.2038 -3.35242 0
M  V30 40249 O 3934.19 -1.60847 -5.22294 0
M  V30 40250 H 3931.29 -0.209204 -0.800102 0
M  V30 40251 H 3933.83 -1.10583 -1.28722 0
M  V30 40252 H 3932.6 -2.28868 -3.17388 0
M  V30 40253 H 3932.23 -0.738193 -3.90687 0
M  V30 40254 N 3933.22 1.36705 -0.78418 0
M  V30 40255 C 3934.47 1.98985 -0.353469 0
M  V30 40256 C 3934.79 1.62553 1.07711 0
M  V30 40257 O 3934.06 0.896968 1.74159 0
M  V30 40258 H 3932.64 0.736003 -0.127706 0
M  V30 40259 H 3935.31 1.66987 -1.00506 0
M  V30 40260 H 3934.4 3.08967 -0.441082 0
M  V30 40261 N 3934.7 0.535753 1.48214 0
M  V30 40262 C 3935.65 -0.243816 2.26693 0
M  V30 40263 C 3936.64 -0.90471 1.33056 0
M  V30 40264 O 3937.83 -0.806563 1.57555 0
M  V30 40265 C 3934.96 -1.28656 3.1828 0
M  V30 40266 C 3934.04 -0.630168 4.19392 0
M  V30 40267 N 3934.43 0.287435 5.04983 0
M  V30 40268 C 3932.73 -0.886684 4.37097 0
M  V30 40269 C 3933.43 0.666663 5.77867 0
M  V30 40270 N 3932.41 0.0264098 5.43594 0
M  V30 40271 H 3936.21 0.462021 2.90246 0
M  V30 40272 H 3933.73 0.35418 1.58491 0
M  V30 40273 H 3935.72 -1.85882 3.73167 0
M  V30 40274 H 3934.38 -1.99372 2.56283 0
M  V30 40275 H 3935.39 0.660376 5.13673 0
M  V30 40276 H 3932.07 -1.58397 3.86286 0
M  V30 40277 H 3933.46 1.41942 6.56736 0
M  V30 40278 N 3936.18 -1.5525 0.271158 0
M  V30 40279 C 3937.41 -2.04372 -0.353103 0
M  V30 40280 C 3937.83 -1.14838 -1.48976 0
M  V30 40281 O 3937.19 -0.14617 -1.8071 0
M  V30 40282 C 3937.24 -3.51261 -0.815363 0
M  V30 40283 O 3936.34 -3.64824 -1.92295 0
M  V30 40284 H 3935.68 -0.659907 -0.0736091 0
M  V30 40285 H 3938.21 -2.00566 0.404301 0
M  V30 40286 H 3938.22 -3.92549 -1.11217 0
M  V30 40287 H 3936.9 -4.15897 0.016281 0
M  V30 40288 H 3935.47 -3.35438 -1.62899 0
M  V30 40289 N 3937.66 0.00162173 -1.576 0
M  V30 40290 C 3939.07 0.544649 -1.78579 0
M  V30 40291 C 3939.42 1.74049 -0.905606 0
M  V30 40292 O 3938.55 2.16132 -0.107652 0
M  V30 40293 C 3939.14 0.994841 -3.23865 0
M  V30 40294 C 3937.7 1.48319 -3.45946 0
M  V30 40295 C 3936.85 0.433654 -2.73888 0
M  V30 40296 H 3939.8 -0.224552 -1.57103 0
M  V30 40297 H 3939.82 1.86093 -3.31888 0
M  V30 40298 H 3939.33 0.124283 -3.87901 0
M  V30 40299 H 3937.43 2.37469 -2.87122 0
M  V30 40300 H 3937.54 1.51177 -4.54623 0
M  V30 40301 H 3935.91 0.894927 -2.3846 0
M  V30 40302 H 3936.69 -0.42791 -3.40623 0
M  V30 40303 N 3939.14 1.55194 0.274352 0
M  V30 40304 C 3940.07 1.82906 1.36458 0
M  V30 40305 C 3941.05 0.682002 1.47606 0
M  V30 40306 O 3942.23 0.924856 1.64252 0
M  V30 40307 C 3939.36 1.98947 2.74113 0
M  V30 40308 C 3938.4 3.21495 2.80256 0
M  V30 40309 S 3939.24 4.78888 2.39639 0
M  V30 40310 C 3940.39 4.979 3.79271 0
M  V30 40311 H 3940.63 2.75091 1.12747 0
M  V30 40312 H 3938.16 1.46947 0.47391 0
M  V30 40313 H 3940.12 2.08874 3.53386 0
M  V30 40314 H 3938.78 1.07652 2.95076 0
M  V30 40315 H 3937.97 3.29602 3.81285 0
M  V30 40316 H 3937.57 3.10152 2.09002 0
M  V30 40317 H 3939.87 4.83559 4.74528 0
M  V30 40318 H 3940.81 5.99952 3.76117 0
M  V30 40319 H 3941.22 4.2589 3.7051 0
M  V30 40320 N 3940.61 -0.538802 1.48104 0
M  V30 40321 C 3941.84 -1.32484 1.59571 0
M  V30 40322 C 3942.26 -1.86392 0.252941 0
M  V30 40323 O 3941.62 -1.63945 -0.774065 0
M  V30 40324 C 3941.67 -2.45777 2.63868 0
M  V30 40325 O 3940.77 -3.48555 2.20415 0
M  V30 40326 H 3940.12 -0.392755 0.535387 0
M  V30 40327 H 3942.65 -0.649264 1.94025 0
M  V30 40328 H 3942.66 -2.92088 2.84866 0
M  V30 40329 H 3941.33 -2.059 3.61356 0
M  V30 40330 H 3939.91 -3.08423 2.09594 0
M  V30 40331 N 3942.09 -1.36544 -0.786992 0
M  V30 40332 C 3943.04 -1.31068 -1.89973 0
M  V30 40333 C 3944.01 -0.178934 -1.65133 0
M  V30 40334 O 3945.19 -0.365843 -1.8726 0
M  V30 40335 C 3942.33 -1.10826 -3.2682 0
M  V30 40336 C 3941.45 -2.33098 -3.63716 0
M  V30 40337 C 3940.58 -2.05849 -4.89693 0
M  V30 40338 C 3939.62 -3.24068 -5.19275 0
M  V30 40339 N 3938.76 -2.96468 -6.36436 0
M  V30 40340 H 3943.6 -2.26213 -1.93989 0
M  V30 40341 H 3941.14 -1.12427 -0.948611 0
M  V30 40342 H 3943.09 -0.971162 -4.05739 0
M  V30 40343 H 3941.72 -0.193359 -3.2222 0
M  V30 40344 H 3940.78 -2.57603 -2.79902 0
M  V30 40345 H 3942.09 -3.21311 -3.81524 0
M  V30 40346 H 3941.24 -1.89082 -5.76483 0
M  V30 40347 H 3939.98 -1.1495 -4.7396 0
M  V30 40348 H 3938.99 -3.41391 -4.30967 0
M  V30 40349 H 3940.21 -4.15797 -5.36926 0
M  V30 40350 H 3938.16 -2.08183 -6.2209 0
M  V30 40351 H 3938.07 -3.78221 -6.54588 0
M  V30 40352 H 3939.34 -2.83286 -7.26202 0
M  V30 40353 N 3943.57 1.01143 -1.20863 0
M  V30 40354 C 3944.82 1.74476 -1.01993 0
M  V30 40355 C 3945.14 1.89775 0.448367 0
M  V30 40356 O 3944.41 1.44401 1.32383 0
M  V30 40357 H 3942.99 0.6464 -0.374401 0
M  V30 40358 H 3945.65 1.21915 -1.52062 0
M  V30 40359 H 3944.75 2.74639 -1.48255 0
M  V30 40360 N 3945.05 1.01535 1.20534 0
M  V30 40361 C 3945.98 0.604905 2.25529 0
M  V30 40362 C 3946.96 -0.379423 1.65814 0
M  V30 40363 O 3948.14 -0.265128 1.92382 0
M  V30 40364 C 3945.27 -0.0588682 3.4725 0
M  V30 40365 C 3944.23 0.846315 4.19549 0
M  V30 40366 C 3943.55 0.0483841 5.34678 0
M  V30 40367 C 3944.85 2.15378 4.75825 0
M  V30 40368 H 3946.55 1.48259 2.60115 0
M  V30 40369 H 3944.09 0.714319 1.25034 0
M  V30 40370 H 3946.05 -0.357553 4.1988 0
M  V30 40371 H 3944.77 -0.971255 3.11824 0
M  V30 40372 H 3943.43 1.12898 3.48783 0
M  V30 40373 H 3943.08 -0.865613 4.95496 0
M  V30 40374 H 3942.78 0.651183 5.83981 0
M  V30 40375 H 3944.3 -0.243876 6.10113 0
M  V30 40376 H 3945.72 1.91755 5.4028 0
M  V30 40377 H 3944.11 2.70733 5.35559 0
M  V30 40378 H 3945.18 2.81763 3.94636 0
M  V30 40379 N 3946.53 -1.36288 0.791419 0
M  V30 40380 C 3947.77 -1.99483 0.365277 0
M  V30 40381 C 3948.11 -1.62665 -1.06084 0
M  V30 40382 O 3947.38 -0.882427 -1.73331 0
M  V30 40383 C 3947.66 -3.56158 0.531379 0
M  V30 40384 C 3947.52 -4.02823 2.00133 0
M  V30 40385 C 3948.84 -4.40069 -0.0523475 0
M  V30 40386 H 3945.95 -0.72468 0.134196 0
M  V30 40387 H 3948.6 -1.6167 0.998131 0
M  V30 40388 H 3946.75 -3.88499 -0.00736101 0
M  V30 40389 H 3948.42 -3.8096 2.60129 0
M  V30 40390 H 3946.66 -3.5429 2.50322 0
M  V30 40391 H 3947.33 -5.11778 2.06851 0
M  V30 40392 H 3949.81 -4.14099 0.407562 0
M  V30 40393 H 3948.68 -5.4882 0.0938863 0
M  V30 40394 H 3948.95 -4.27025 -1.14465 0
M  V30 40395 N 3948.01 -0.543606 -1.47928 0
M  V30 40396 C 3948.95 0.224894 -2.3151 0
M  V30 40397 C 3949.95 0.922448 -1.42082 0
M  V30 40398 O 3951.15 0.845281 -1.58918 0
M  V30 40399 H 3947.53 0.091396 -0.746425 0
M  V30 40400 H 3949.5 -0.499433 -2.94191 0
M  V30 40401 C 3948.25 1.25033 -3.24441 0
M  V30 40402 H 3947.57 0.72299 -3.93208 0
M  V30 40403 H 3949.01 1.7592 -3.85783 0
M  V30 40404 C 3947.47 2.29111 -2.47002 0
M  V30 40405 O 3948 3.35796 -2.20463 0
M  V30 40406 N 3946.21 2.0268 -2.08253 0
M  V30 40407 H 3945.75 1.15937 -2.30036 0
M  V30 40408 H 3945.71 2.72536 -1.56753 0
M  V30 40409 N 3949.48 1.55104 -0.279387 0
M  V30 40410 C 3950.73 1.99296 0.335506 0
M  V30 40411 C 3951.05 1.16924 1.56057 0
M  V30 40412 O 3950.32 0.259807 1.9417 0
M  V30 40413 H 3948.9 0.736133 0.126955 0
M  V30 40414 H 3951.56 1.91045 -0.385713 0
M  V30 40415 H 3950.66 3.0583 0.622439 0
M  V30 40416 N 3950.96 0.0067362 1.57599 0
M  V30 40417 C 3951.89 -0.981294 2.11879 0
M  V30 40418 C 3952.87 -1.35407 1.02952 0
M  V30 40419 O 3954.06 -1.43663 1.3067 0
M  V30 40420 C 3951.19 -2.27099 2.62761 0
M  V30 40421 C 3950.14 -2.03963 3.76275 0
M  V30 40422 C 3949.47 -3.39004 4.13497 0
M  V30 40423 C 3950.77 -1.39679 5.03276 0
M  V30 40424 H 3952.46 -0.529314 2.94684 0
M  V30 40425 H 3950.01 -0.253162 1.41757 0
M  V30 40426 H 3951.96 -2.96579 2.99364 0
M  V30 40427 H 3950.68 -2.74422 1.77087 0
M  V30 40428 H 3949.34 -1.36907 3.40077 0
M  V30 40429 H 3948.99 -3.84044 3.24837 0
M  V30 40430 H 3948.69 -3.24338 4.89978 0
M  V30 40431 H 3950.22 -4.09789 4.52665 0
M  V30 40432 H 3951.63 -1.99126 5.37607 0
M  V30 40433 H 3950.03 -1.3548 5.84607 0
M  V30 40434 H 3951.1 -0.366843 4.8351 0
M  V30 40435 N 3952.44 -1.55337 -0.266118 0
M  V30 40436 C 3953.39 -1.88688 -1.32911 0
M  V30 40437 C 3954.36 -0.739075 -1.48751 0
M  V30 40438 O 3955.54 -0.99098 -1.63047 0
M  V30 40439 C 3952.68 -2.17031 -2.68313 0
M  V30 40440 C 3951.79 -3.44517 -2.60638 0
M  V30 40441 C 3950.93 -3.62524 -3.88265 0
M  V30 40442 C 3949.97 -4.83678 -3.75129 0
M  V30 40443 N 3949.11 -4.98307 -4.94605 0
M  V30 40444 H 3953.95 -2.79349 -1.03769 0
M  V30 40445 H 3951.48 -1.38299 -0.501181 0
M  V30 40446 H 3953.44 -2.31464 -3.47103 0
M  V30 40447 H 3952.07 -1.29596 -2.95643 0
M  V30 40448 H 3951.12 -3.38518 -1.73521 0
M  V30 40449 H 3952.43 -4.33445 -2.46834 0
M  V30 40450 H 3951.59 -3.76813 -4.75497 0
M  V30 40451 H 3950.33 -2.71794 -4.04944 0
M  V30 40452 H 3949.33 -4.69386 -2.8628 0
M  V30 40453 H 3950.56 -5.7585 -3.59963 0
M  V30 40454 H 3948.5 -4.1051 -5.11681 0
M  V30 40455 H 3948.42 -5.81292 -4.83358 0
M  V30 40456 H 3949.69 -5.16988 -5.8339 0
M  V30 40457 N 3953.92 0.53094 -1.48387 0
M  V30 40458 C 3954.88 1.61779 -1.62358 0
M  V30 40459 C 3955.88 1.52929 -0.496936 0
M  V30 40460 O 3957.07 1.56616 -0.762699 0
M  V30 40461 C 3954.2 3.01397 -1.59287 0
M  V30 40462 H 3955.4 1.50732 -2.59268 0
M  V30 40463 H 3952.95 0.752924 -1.3697 0
M  V30 40464 H 3953.68 3.17952 -0.638509 0
M  V30 40465 H 3953.47 3.0923 -2.41079 0
M  V30 40466 H 3954.96 3.80418 -1.72255 0
M  V30 40467 N 3955.4 1.36959 0.779739 0
M  V30 40468 C 3956.64 1.31466 1.53497 0
M  V30 40469 C 3956.96 -0.102835 1.94729 0
M  V30 40470 O 3956.23 -1.04517 1.65689 0
M  V30 40471 H 3954.81 0.483648 0.569292 0
M  V30 40472 H 3957.48 1.71362 0.928506 0
M  V30 40473 H 3956.57 1.94845 2.43807 0
M  V30 40474 N 3956.87 -1.00501 1.21398 0
M  V30 40475 C 3958.28 -1.55727 1.02986 0
M  V30 40476 C 3958.64 -1.91861 -0.410349 0
M  V30 40477 O 3957.76 -1.73482 -1.29355 0
M  V30 40478 C 3958.36 -2.82967 1.86321 0
M  V30 40479 C 3956.91 -3.34679 1.72241 0
M  V30 40480 C 3956.06 -2.07872 1.83533 0
M  V30 40481 H 3959.01 -0.827475 1.3542 0
M  V30 40482 H 3959.03 -3.54847 1.37345 0
M  V30 40483 H 3958.55 -2.56636 2.91135 0
M  V30 40484 H 3956.65 -3.65944 0.701112 0
M  V30 40485 H 3956.76 -4.06099 2.54205 0
M  V30 40486 H 3955.12 -2.20869 1.26842 0
M  V30 40487 H 3955.91 -1.83953 2.89855 0
M  V30 40488 N 3958.35 -1.02172 -1.19994 0
M  V30 40489 C 3959.28 -0.541001 -2.21694 0
M  V30 40490 C 3960.26 0.414316 -1.57233 0
M  V30 40491 O 3961.45 0.333108 -1.85533 0
M  V30 40492 C 3958.57 0.212049 -3.38036 0
M  V30 40493 C 3957.62 -0.693603 -4.20822 0
M  V30 40494 S 3958.45 -2.16571 -4.89752 0
M  V30 40495 C 3959.61 -1.42296 -6.0951 0
M  V30 40496 H 3959.84 -1.40272 -2.62128 0
M  V30 40497 H 3957.37 -0.831049 -1.30127 0
M  V30 40498 H 3959.33 0.640413 -4.05474 0
M  V30 40499 H 3957.99 1.0494 -2.96051 0
M  V30 40500 H 3957.19 -0.112646 -5.03874 0
M  V30 40501 H 3956.79 -1.05997 -3.58665 0
M  V30 40502 H 3959.08 -0.705704 -6.73815 0
M  V30 40503 H 3960.02 -2.22981 -6.72075 0
M  V30 40504 H 3960.43 -0.923597 -5.56893 0
M  V30 40505 N 3959.83 1.35866 -0.798635 0
M  V30 40506 C 3960.79 2.28243 -0.209217 0
M  V30 40507 C 3961.79 1.49234 0.598816 0
M  V30 40508 O 3962.98 1.69099 0.418462 0
M  V30 40509 C 3960.11 3.3344 0.709278 0
M  V30 40510 H 3961.31 2.81881 -1.02387 0
M  V30 40511 H 3958.86 1.45586 -0.568713 0
M  V30 40512 H 3959.6 2.84974 1.54792 0
M  V30 40513 H 3959.38 3.91879 0.131687 0
M  V30 40514 H 3960.87 4.02405 1.11625 0
M  V30 40515 N 3961.31 0.551443 1.47638 0
M  V30 40516 C 3962.24 -0.187846 2.32743 0
M  V30 40517 C 3963.22 -0.914381 1.43433 0
M  V30 40518 O 3964.4 -0.895974 1.72296 0
M  V30 40519 C 3961.53 -1.22194 3.25094 0
M  V30 40520 C 3960.49 -0.612223 4.23599 0
M  V30 40521 C 3959.81 -1.75053 5.05233 0
M  V30 40522 C 3961.11 0.430226 5.20525 0
M  V30 40523 H 3962.81 0.52265 2.94803 0
M  V30 40524 H 3960.35 0.252793 1.41764 0
M  V30 40525 H 3962.31 -1.74725 3.8347 0
M  V30 40526 H 3961.03 -1.9623 2.61077 0
M  V30 40527 H 3959.69 -0.10826 3.6644 0
M  V30 40528 H 3959.34 -2.47979 4.37625 0
M  V30 40529 H 3959.04 -1.34838 5.7192 0
M  V30 40530 H 3960.56 -2.27921 5.66467 0
M  V30 40531 H 3961.98 -0.00880091 5.73299 0
M  V30 40532 H 3960.37 0.750941 5.95383 0
M  V30 40533 H 3961.44 1.32823 4.66354 0
M  V30 40534 N 3962.79 -1.54953 0.287609 0
M  V30 40535 C 3964.01 -2.04735 -0.331406 0
M  V30 40536 C 3964.44 -1.16412 -1.4775 0
M  V30 40537 O 3963.79 -0.165329 -1.80545 0
M  V30 40538 C 3963.84 -3.52106 -0.778061 0
M  V30 40539 O 3962.95 -3.66843 -1.88415 0
M  V30 40540 H 3962.29 -0.660651 -0.0666057 0
M  V30 40541 H 3964.82 -2.00126 0.425551 0
M  V30 40542 H 3964.83 -3.93707 -1.07048 0
M  V30 40543 H 3963.5 -4.15856 0.0603915 0
M  V30 40544 H 3962.08 -3.37147 -1.59332 0
M  V30 40545 N 3964.26 -0.0150939 -1.57593 0
M  V30 40546 C 3965.49 0.680736 -1.9591 0
M  V30 40547 C 3965.91 1.65667 -0.890842 0
M  V30 40548 O 3965.27 1.80681 0.149631 0
M  V30 40549 C 3965.32 1.3757 -3.33327 0
M  V30 40550 O 3964.42 2.49061 -3.28698 0
M  V30 40551 H 3963.77 0.179938 -0.639154 0
M  V30 40552 H 3966.3 -0.0727763 -2.04471 0
M  V30 40553 H 3966.31 1.7357 -3.69239 0
M  V30 40554 H 3964.98 0.660233 -4.10626 0
M  V30 40555 H 3963.56 2.15276 -3.04484 0
M  V30 40556 N 3965.74 1.55476 0.257876 0
M  V30 40557 C 3966.69 1.89391 1.31909 0
M  V30 40558 C 3967.66 0.746953 1.48357 0
M  V30 40559 O 3968.84 0.999613 1.62519 0
M  V30 40560 C 3965.98 2.1845 2.67158 0
M  V30 40561 C 3965.1 3.45894 2.58808 0
M  V30 40562 C 3964.23 3.64578 3.86337 0
M  V30 40563 C 3963.27 4.85661 3.72559 0
M  V30 40564 N 3962.41 5.00923 4.91955 0
M  V30 40565 H 3967.25 2.79896 1.02286 0
M  V30 40566 H 3964.79 1.38563 0.493839 0
M  V30 40567 H 3966.74 2.33302 3.4587 0
M  V30 40568 H 3965.37 1.31162 2.94951 0
M  V30 40569 H 3964.43 3.39434 1.71724 0
M  V30 40570 H 3965.74 4.34748 2.44532 0
M  V30 40571 H 3964.89 3.79329 4.73492 0
M  V30 40572 H 3963.63 2.73937 4.03497 0
M  V30 40573 H 3962.64 4.70898 2.83787 0
M  V30 40574 H 3963.86 5.77751 3.56904 0
M  V30 40575 H 3961.81 4.13217 5.09497 0
M  V30 40576 H 3961.72 5.83847 4.80269 0
M  V30 40577 H 3962.99 5.20075 5.8064 0
M  V30 40578 N 3967.22 -0.523064 1.48667 0
M  V30 40579 C 3968.47 -1.27599 1.56726 0
M  V30 40580 C 3968.79 -1.93442 0.245992 0
M  V30 40581 O 3968.06 -1.81669 -0.733021 0
M  V30 40582 H 3966.64 -0.473942 0.577398 0
M  V30 40583 H 3969.3 -0.608111 1.8517 0
M  V30 40584 H 3968.4 -2.05162 2.35191 0
M  V30 40585 N 3968.7 -1.37371 -0.772465 0
M  V30 40586 C 3969.92 -1.35903 -1.56668 0
M  V30 40587 C 3970.35 0.0535207 -1.88024 0
M  V30 40588 O 3969.71 1.03036 -1.49176 0
M  V30 40589 C 3969.75 -2.20389 -2.85414 0
M  V30 40590 O 3968.86 -1.60802 -3.79758 0
M  V30 40591 H 3968.2 -0.464395 -0.474588 0
M  V30 40592 H 3970.73 -1.80885 -0.95613 0
M  V30 40593 H 3970.74 -2.33577 -3.34523 0
M  V30 40594 H 3969.41 -3.23064 -2.6192 0
M  V30 40595 H 3967.99 -1.56651 -3.384 0
M  V30 40596 N 3970.18 0.998553 -1.21929 0
M  V30 40597 C 3971.4 1.77825 -1.06738 0
M  V30 40598 C 3971.83 1.8426 0.378122 0
M  V30 40599 O 3971.18 1.29092 1.27298 0
M  V30 40600 C 3971.23 3.19249 -1.67668 0
M  V30 40601 O 3970.34 4.01857 -0.926518 0
M  V30 40602 H 3969.68 0.547798 -0.375251 0
M  V30 40603 H 3972.21 1.25476 -1.61608 0
M  V30 40604 H 3972.22 3.699 -1.72157 0
M  V30 40605 H 3970.89 3.1388 -2.72859 0
M  V30 40606 H 3969.47 3.60405 -0.957209 0
M  V30 40607 N 3971.65 1.02807 1.1945 0
M  V30 40608 C 3972.9 0.722632 1.88739 0
M  V30 40609 C 3973.22 -0.750996 1.79958 0
M  V30 40610 O 3972.49 -1.54102 1.20952 0
M  V30 40611 H 3971.07 0.264306 0.698678 0
M  V30 40612 H 3973.74 1.30213 1.45019 0
M  V30 40613 H 3972.83 1.01622 2.95092 0
M  V30 40614 N 3973.13 -1.35441 0.805829 0
M  V30 40615 C 3974.1 -2.28129 0.221318 0
M  V30 40616 C 3975.1 -1.4955 -0.590893 0
M  V30 40617 O 3976.29 -1.69319 -0.409488 0
M  V30 40618 C 3973.42 -3.33811 -0.691585 0
M  V30 40619 H 3974.61 -2.81334 1.0388 0
M  V30 40620 H 3972.16 -1.45283 0.576426 0
M  V30 40621 H 3972.9 -2.85791 -1.53278 0
M  V30 40622 H 3972.68 -3.91943 -0.110903 0
M  V30 40623 H 3974.17 -4.02991 -1.09489 0
M  V30 40624 N 3974.61 -0.559265 -1.47343 0
M  V30 40625 C 3976.02 -0.126426 -1.86271 0
M  V30 40626 C 3976.37 1.30435 -1.46565 0
M  V30 40627 O 3975.5 1.98156 -0.869659 0
M  V30 40628 C 3976.09 -0.222662 -3.38068 0
M  V30 40629 C 3974.65 0.155153 -3.7608 0
M  V30 40630 C 3973.8 -0.569291 -2.71393 0
M  V30 40631 H 3976.75 -0.768869 -1.38831 0
M  V30 40632 H 3976.77 0.558195 -3.76383 0
M  V30 40633 H 3976.28 -1.2641 -3.66936 0
M  V30 40634 H 3974.38 1.19762 -3.52828 0
M  V30 40635 H 3974.5 -0.20484 -4.78662 0
M  V30 40636 H 3972.86 -0.0121444 -2.54697 0
M  V30 40637 H 3973.64 -1.61193 -3.03104 0
M  V30 40638 N 3976.09 1.54799 -0.295822 0
M  V30 40639 C 3977.33 2.00332 0.315438 0
M  V30 40640 C 3977.67 1.18394 1.53936 0
M  V30 40641 O 3976.94 0.25912 1.92766 0
M  V30 40642 C 3977.23 3.53676 0.677165 0
M  V30 40643 C 3977.08 4.46356 -0.55554 0
M  V30 40644 C 3978.4 4.13542 1.50568 0
M  V30 40645 H 3975.52 0.728258 0.113178 0
M  V30 40646 H 3978.16 1.85592 -0.40689 0
M  V30 40647 H 3976.31 3.66367 1.29258 0
M  V30 40648 H 3977.98 4.45579 -1.19404 0
M  V30 40649 H 3976.22 4.17166 -1.18976 0
M  V30 40650 H 3976.89 5.51395 -0.258377 0
M  V30 40651 H 3979.37 4.04255 0.985748 0
M  V30 40652 H 3978.25 5.21005 1.72757 0
M  V30 40653 H 3978.51 3.65087 2.49328 0
M  V30 40654 N 3977.57 0.0234513 1.57583 0
M  V30 40655 C 3978.8 -0.665796 1.95578 0
M  V30 40656 C 3979.21 -1.66519 0.898222 0
M  V30 40657 O 3978.55 -1.83246 -0.129077 0
M  V30 40658 C 3978.61 -1.43339 3.29688 0
M  V30 40659 C 3978.27 -0.592968 4.53137 0
M  V30 40660 C 3979.27 0.129342 5.19739 0
M  V30 40661 C 3976.96 -0.532037 4.99474 0
M  V30 40662 C 3978.95 0.901317 6.30995 0
M  V30 40663 C 3976.64 0.243647 6.10614 0
M  V30 40664 C 3977.64 0.959036 6.76233 0
M  V30 40665 O 3977.32 1.72202 7.8524 0
M  V30 40666 H 3977.06 -0.188842 0.649088 0
M  V30 40667 H 3979.61 0.0777885 2.05253 0
M  V30 40668 H 3977.84 -2.22199 3.16488 0
M  V30 40669 H 3979.53 -2.01021 3.52627 0
M  V30 40670 H 3980.29 0.0915664 4.84914 0
M  V30 40671 H 3976.17 -1.07842 4.48209 0
M  V30 40672 H 3979.72 1.46023 6.82146 0
M  V30 40673 H 3975.61 0.28316 6.44879 0
M  V30 40674 H 3976.38 1.64119 8.01877 0
M  V30 40675 N 3979.05 -1.5561 -0.249627 0
M  V30 40676 C 3980.29 -1.77577 -0.979498 0
M  V30 40677 C 3980.62 -0.588231 -1.85077 0
M  V30 40678 O 3979.9 0.413567 -1.90052 0
M  V30 40679 C 3980.18 -3.09403 -1.84232 0
M  V30 40680 C 3980.04 -4.38556 -0.999423 0
M  V30 40681 C 3981.35 -3.37438 -2.8253 0
M  V30 40682 H 3978.47 -0.646048 -0.35467 0
M  V30 40683 H 3981.12 -1.88346 -0.250191 0
M  V30 40684 H 3979.27 -3.00354 -2.46414 0
M  V30 40685 H 3980.94 -4.59593 -0.396518 0
M  V30 40686 H 3979.18 -4.32736 -0.303684 0
M  V30 40687 H 3979.85 -5.27172 -1.63688 0
M  V30 40688 H 3982.33 -3.46433 -2.30485 0
M  V30 40689 H 3981.2 -4.30899 -3.40025 0
M  V30 40690 H 3981.46 -2.58217 -3.58854 0
M  V30 40691 N 3980.52 0.515172 -1.48942 0
M  V30 40692 C 3981.8 1.27648 -1.48207 0
M  V30 40693 C 3982.18 2.10132 -0.201903 0
M  V30 40694 O 3981.53 2.1343 0.816078 0
M  V30 40695 C 3981.74 2.14531 -2.75277 0
M  V30 40696 C 3983.09 2.74186 -3.24202 0
M  V30 40697 O 3984.11 2.24808 -2.76297 0
M  V30 40698 O 3982.97 3.6404 -4.076 0
M  V30 40699 H 3980.06 0.576894 -0.592556 0
M  V30 40700 H 3982.61 0.530607 -1.61191 0
M  V30 40701 H 3981.38 1.53462 -3.59951 0
M  V30 40702 H 3981 2.96337 -2.65085 0
M  V30 40703 N 3982 1.37779 0.765169 0
M  V30 40704 C 3982.93 1.3678 1.89244 0
M  V30 40705 C 3983.91 0.235419 1.68463 0
M  V30 40706 O 3985.1 0.436767 1.89225 0
M  V30 40707 C 3982.23 1.18059 3.26618 0
M  V30 40708 C 3981.18 2.28379 3.61977 0
M  V30 40709 C 3980.51 1.94774 4.97963 0
M  V30 40710 C 3981.81 3.70593 3.68046 0
M  V30 40711 H 3983.5 2.31111 1.90337 0
M  V30 40712 H 3981.05 1.11247 0.914335 0
M  V30 40713 H 3983 1.15989 4.05123 0
M  V30 40714 H 3981.72 0.201861 3.25976 0
M  V30 40715 H 3980.38 2.29615 2.85784 0
M  V30 40716 H 3980.03 0.954139 4.93868 0
M  V30 40717 H 3979.73 2.68652 5.2259 0
M  V30 40718 H 3981.26 1.94302 5.7886 0
M  V30 40719 H 3982.67 3.71451 4.36689 0
M  V30 40720 H 3981.07 4.4358 4.04175 0
M  V30 40721 H 3982.14 4.03744 2.68549 0
M  V30 40722 N 3983.48 -0.992073 1.22457 0
M  V30 40723 C 3984.44 -2.06392 0.99674 0
M  V30 40724 C 3985.44 -1.60757 -0.0371376 0
M  V30 40725 O 3986.63 -1.73031 0.20145 0
M  V30 40726 C 3983.76 -3.37128 0.505735 0
M  V30 40727 H 3984.96 -2.28037 1.9478 0
M  V30 40728 H 3982.51 -1.16377 1.04337 0
M  V30 40729 H 3983.25 -3.21168 -0.44964 0
M  V30 40730 H 3983.03 -3.71586 1.25165 0
M  V30 40731 H 3984.52 -4.15988 0.366608 0
M  V30 40732 N 3984.96 -1.03439 -1.18904 0
M  V30 40733 C 3986.19 -0.752793 -1.92397 0
M  V30 40734 C 3986.6 0.69306 -1.76049 0
M  V30 40735 O 3985.94 1.48353 -1.08338 0
M  V30 40736 C 3986 -1.0313 -3.4439 0
M  V30 40737 C 3985.66 -2.46981 -3.84512 0
M  V30 40738 C 3986.66 -3.45137 -3.88814 0
M  V30 40739 C 3984.35 -2.81526 -4.15991 0
M  V30 40740 C 3986.34 -4.75892 -4.24035 0
M  V30 40741 C 3984.03 -4.1249 -4.50883 0
M  V30 40742 C 3985.03 -5.09483 -4.5488 0
M  V30 40743 O 3984.71 -6.381 -4.88962 0
M  V30 40744 H 3984.45 -0.274386 -0.617809 0
M  V30 40745 H 3987 -1.38341 -1.51826 0
M  V30 40746 H 3985.23 -0.34355 -3.85171 0
M  V30 40747 H 3986.92 -0.738493 -3.99125 0
M  V30 40748 H 3987.68 -3.19787 -3.64639 0
M  V30 40749 H 3983.56 -2.06706 -4.1206 0
M  V30 40750 H 3987.11 -5.51595 -4.27069 0
M  V30 40751 H 3983 -4.37611 -4.74517 0
M  V30 40752 H 3983.77 -6.42656 -5.06889 0
M  V30 40753 N 3986.44 1.35011 -0.813001 0
M  V30 40754 C 3987.68 1.97838 -0.392836 0
M  V30 40755 C 3988 1.65203 1.04725 0
M  V30 40756 O 3989.2 2.21443 1.57084 0
M  V30 40757 C 3987.66 3.53955 -0.651461 0
M  V30 40758 C 3987.27 3.95493 -2.10451 0
M  V30 40759 C 3989.01 4.2346 -0.296971 0
M  V30 40760 C 3986.92 5.44481 -2.30855 0
M  V30 40761 H 3985.85 0.740286 -0.143151 0
M  V30 40762 H 3988.5 1.5399 -0.99796 0
M  V30 40763 H 3986.88 3.95993 0.0237002 0
M  V30 40764 H 3988.06 3.64588 -2.81801 0
M  V30 40765 H 3986.37 3.38895 -2.41948 0
M  V30 40766 H 3988.97 5.32989 -0.427384 0
M  V30 40767 H 3989.31 4.0935 0.757522 0
M  V30 40768 H 3989.84 3.86865 -0.926308 0
M  V30 40769 H 3986.58 5.63567 -3.34773 0
M  V30 40770 H 3986.1 5.76933 -1.64037 0
M  V30 40771 H 3987.78 6.1103 -2.12723 0
M  V30 40772 N 3987.91 0.567071 1.47044 0
M  V30 40773 C 3989.32 0.136303 1.86202 0
M  V30 40774 C 3989.68 -1.29656 1.47255 0
M  V30 40775 O 3988.8 -1.97692 0.880156 0
M  V30 40776 C 3989.4 0.240587 3.37945 0
M  V30 40777 C 3987.95 -0.135206 3.76157 0
M  V30 40778 C 3987.1 0.583676 2.71088 0
M  V30 40779 H 3990.05 0.776221 1.38421 0
M  V30 40780 H 3990.07 -0.538227 3.76674 0
M  V30 40781 H 3989.59 1.28354 3.66261 0
M  V30 40782 H 3987.69 -1.17889 3.53458 0
M  V30 40783 H 3987.8 0.230221 4.78547 0
M  V30 40784 H 3986.16 0.0256514 2.54687 0
M  V30 40785 H 3986.95 1.62798 3.02245 0
M  V30 40786 N 3989.39 -1.5464 0.304027 0
M  V30 40787 C 3990.34 -2.25086 -0.586435 0
M  V30 40788 C 3991.33 -1.25794 -1.13456 0
M  V30 40789 O 3992.54 -1.43635 -1.08485 0
M  V30 40790 H 3988.91 -0.72274 -0.207727 0
M  V30 40791 H 3990.89 -2.98385 0.0302206 0
M  V30 40792 C 3989.63 -3.00721 -1.74534 0
M  V30 40793 H 3988.96 -3.7693 -1.3328 0
M  V30 40794 H 3990.4 -3.5329 -2.34441 0
M  V30 40795 C 3988.86 -2.07867 -2.65128 0
M  V30 40796 O 3989.39 -1.64869 -3.66307 0
M  V30 40797 N 3987.59 -1.7376 -2.32929 0
M  V30 40798 H 3987.14 -2.08923 -1.50694 0
M  V30 40799 H 3987.1 -1.11909 -2.93809 0
M  V30 40800 N 3990.87 -0.0318079 -1.57568 0
M  V30 40801 C 3991.82 0.958367 -2.0688 0
M  V30 40802 C 3992.8 1.28383 -0.969873 0
M  V30 40803 O 3994 1.26949 -1.2334 0
M  V30 40804 C 3991.12 2.23987 -2.60163 0
M  V30 40805 C 3990.21 1.94265 -3.76991 0
M  V30 40806 N 3990.6 1.34823 -4.875 0
M  V30 40807 C 3988.9 2.24241 -3.85528 0
M  V30 40808 C 3989.6 1.22294 -5.68699 0
M  V30 40809 N 3988.58 1.71935 -5.15693 0
M  V30 40810 H 3992.38 0.493797 -2.89722 0
M  V30 40811 H 3989.89 0.173139 -1.61474 0
M  V30 40812 H 3991.89 2.95799 -2.93784 0
M  V30 40813 H 3990.55 2.71068 -1.78752 0
M  V30 40814 H 3991.56 1.0229 -5.07698 0
M  V30 40815 H 3988.24 2.73977 -3.15028 0
M  V30 40816 H 3989.63 0.763079 -6.67553 0
M  V30 40817 N 3992.35 1.55741 0.241371 0
M  V30 40818 C 3993.59 1.79597 0.975925 0
M  V30 40819 C 3993.95 0.602212 1.82311 0
M  V30 40820 O 3995.15 0.719659 2.58987 0
M  V30 40821 C 3993.42 3.0823 1.80912 0
M  V30 40822 S 3994.98 3.53328 2.60201 0
M  V30 40823 H 3991.8 0.630732 0.328173 0
M  V30 40824 H 3994.4 1.9398 0.243273 0
M  V30 40825 H 3993.11 3.93174 1.17653 0
M  V30 40826 H 3992.64 2.96599 2.58442 0
M  V30 40827 H 3994.65 3.15098 3.83312 0
M  V30 40828 N 3993.83 -0.507266 1.49213 0
M  V30 40829 C 3995.05 -1.29069 1.62345 0
M  V30 40830 C 3995.48 -1.85813 0.29242 0
M  V30 40831 O 3994.83 -1.6555 -0.739116 0
M  V30 40832 C 3994.88 -2.40125 2.69021 0
M  V30 40833 O 3993.99 -3.43802 2.27759 0
M  V30 40834 H 3993.33 -0.38131 0.543598 0
M  V30 40835 H 3995.86 -0.607963 1.95359 0
M  V30 40836 H 3995.87 -2.8598 2.90997 0
M  V30 40837 H 3994.54 -1.98189 3.65642 0
M  V30 40838 H 3993.12 -3.03908 2.16089 0
M  V30 40839 N 3995.3 -1.38182 -0.757851 0
M  V30 40840 C 3996.55 -1.33891 -1.51386 0
M  V30 40841 C 3996.87 0.0718425 -1.94868 0
M  V30 40842 O 3996.14 1.01868 -1.67331 0
M  V30 40843 H 3994.72 -0.492644 -0.561525 0
M  V30 40844 H 3997.39 -1.72817 -0.901126 0
M  V30 40845 H 3996.48 -1.98699 -2.40676 0
M  V30 40846 N 3996.78 0.985565 -1.22981 0
M  V30 40847 C 3997.73 2.07702 -1.00641 0
M  V30 40848 C 3998.7 1.65933 0.0743785 0
M  V30 40849 O 3999.88 1.90646 -0.0766918 0
M  V30 40850 C 3997.02 3.39877 -0.598148 0
M  V30 40851 C 3996.14 3.94945 -1.7505 0
M  V30 40852 C 3995.27 5.1531 -1.28952 0
M  V30 40853 C 3994.31 5.62533 -2.41295 0
M  V30 40854 N 3993.45 6.74132 -1.96191 0
M  V30 40855 H 3998.29 2.26146 -1.94067 0
M  V30 40856 H 3995.83 1.10861 -0.966861 0
M  V30 40857 H 3997.78 4.15791 -0.342576 0
M  V30 40858 H 3996.41 3.21411 0.29911 0
M  V30 40859 H 3995.47 3.15834 -2.12021 0
M  V30 40860 H 3996.78 4.25966 -2.59527 0
M  V30 40861 H 3995.93 5.98539 -0.991765 0
M  V30 40862 H 3994.67 4.85931 -0.415046 0
M  V30 40863 H 3993.68 4.77888 -2.7185 0
M  V30 40864 H 3994.9 5.93934 -3.2927 0
M  V30 40865 H 3992.85 6.46521 -1.11117 0
M  V30 40866 H 3992.76 7.04509 -2.74231 0
M  V30 40867 H 3994.03 7.60847 -1.69506 0
M  V30 40868 N 3998.26 1.04068 1.18353 0
M  V30 40869 C 3999.49 0.764094 1.92274 0
M  V30 40870 C 3999.9 -0.678747 1.76177 0
M  V30 40871 O 3999.26 -1.46267 1.09143 0
M  V30 40872 C 3999.31 1.12089 3.43684 0
M  V30 40873 O 3999.03 2.50708 3.59273 0
M  V30 40874 C 4000.53 0.868802 4.34703 0
M  V30 40875 H 3997.75 0.27866 0.610401 0
M  V30 40876 H 4000.3 1.38835 1.5015 0
M  V30 40877 H 3998.45 0.541595 3.83595 0
M  V30 40878 H 3998.87 2.64365 4.53002 0
M  V30 40879 H 4000.34 1.1683 5.39495 0
M  V30 40880 H 4000.82 -0.196424 4.38761 0
M  V30 40881 H 4001.42 1.43139 4.00489 0
M  V30 40882 N 3999.74 -1.34578 0.820149 0
M  V30 40883 C 4000.7 -2.27881 0.245502 0
M  V30 40884 C 4001.7 -1.50168 -0.574998 0
M  V30 40885 O 4002.89 -1.69744 -0.391506 0
M  V30 40886 C 4000.02 -3.34526 -0.65614 0
M  V30 40887 H 4001.22 -2.80217 1.06858 0
M  V30 40888 H 3998.77 -1.44663 0.591803 0
M  V30 40889 H 3999.5 -2.874 -1.50239 0
M  V30 40890 H 3999.29 -3.92039 -0.0693262 0
M  V30 40891 H 4000.78 -4.0413 -1.05209 0
M  V30 40892 N 4001.22 -0.574861 -1.46742 0
M  V30 40893 C 4002.49 0.00904711 -1.95598 0
M  V30 40894 C 4002.87 1.46746 -1.51753 0
M  V30 40895 O 4002.22 2.1533 -0.76454 0
M  V30 40896 C 4002.43 -0.154817 -3.48656 0
M  V30 40897 C 4003.78 -0.0185748 -4.24596 0
M  V30 40898 O 4004.8 -0.083253 -3.56103 0
M  V30 40899 O 4003.66 0.123637 -5.4636 0
M  V30 40900 H 4000.76 0.0542332 -0.82522 0
M  V30 40901 H 4003.3 -0.642628 -1.57062 0
M  V30 40902 H 4002.07 -1.16898 -3.73431 0
M  V30 40903 H 4001.7 0.533655 -3.94002 0
M  V30 40904 N 4002.69 1.54476 -0.312224 0
M  V30 40905 C 4003.62 2.26887 0.551789 0
M  V30 40906 C 4004.61 1.27256 1.12872 0
M  V30 40907 O 4005.79 1.56048 1.15596 0
M  V30 40908 C 4002.92 3.01812 1.71833 0
M  V30 40909 C 4001.87 4.08685 1.27124 0
M  V30 40910 C 4001.2 4.71388 2.52384 0
M  V30 40911 C 4002.5 5.20809 0.394321 0
M  V30 40912 H 4004.19 2.99355 -0.0521858 0
M  V30 40913 H 4001.74 1.43976 -0.0265391 0
M  V30 40914 H 4003.69 3.51194 2.32897 0
M  V30 40915 H 4002.42 2.26942 2.34872 0
M  V30 40916 H 4001.08 3.6017 0.683603 0
M  V30 40917 H 4000.72 3.93145 3.13761 0
M  V30 40918 H 4000.42 5.43573 2.23164 0
M  V30 40919 H 4001.95 5.23538 3.14229 0
M  V30 40920 H 4003.36 5.66017 0.910932 0
M  V30 40921 H 4001.76 5.99782 0.195412 0
M  V30 40922 H 4002.83 4.81446 -0.577745 0
M  V30 40923 N 4004.17 0.0401637 1.57549 0
M  V30 40924 C 4005.45 -0.675323 1.83572 0
M  V30 40925 C 4005.83 -1.89689 0.926346 0
M  V30 40926 O 4005.18 -2.28495 -0.0153467 0
M  V30 40927 C 4005.39 -1.04307 3.33048 0
M  V30 40928 C 4006.74 -1.43004 3.99794 0
M  V30 40929 O 4007.76 -1.13573 3.37609 0
M  V30 40930 O 4006.62 -1.97884 5.09416 0
M  V30 40931 H 4003.71 -0.332312 0.757296 0
M  V30 40932 H 4006.26 0.0686882 1.69561 0
M  V30 40933 H 4005.03 -0.174121 3.90912 0
M  V30 40934 H 4004.65 -1.84489 3.52207 0
M  V30 40935 N 4005.65 -1.55866 -0.233109 0
M  V30 40936 C 4006.9 -1.78342 -0.959187 0
M  V30 40937 C 4007.23 -0.606919 -1.84788 0
M  V30 40938 O 4006.48 0.409219 -1.91374 0
M  V30 40939 C 4006.78 -3.06461 -1.83892 0
M  V30 40940 C 4006.45 -4.37165 -1.10443 0
M  V30 40941 C 4005.11 -4.7268 -0.901494 0
M  V30 40942 C 4007.46 -5.17908 -0.584888 0
M  V30 40943 C 4004.79 -5.86462 -0.166931 0
M  V30 40944 C 4007.14 -6.32453 0.136275 0
M  V30 40945 C 4005.8 -6.66579 0.350568 0
M  V30 40946 H 4005.07 -0.652599 -0.350991 0
M  V30 40947 H 4007.72 -1.90135 -0.228215 0
M  V30 40948 H 4006.03 -2.89739 -2.63739 0
M  V30 40949 H 4007.72 -3.21051 -2.40265 0
M  V30 40950 H 4004.31 -4.09272 -1.27256 0
M  V30 40951 H 4008.5 -4.90914 -0.729177 0
M  V30 40952 H 4003.75 -6.11399 0.00943789 0
M  V30 40953 H 4007.93 -6.94253 0.546416 0
M  V30 40954 H 4005.55 -7.54592 0.921702 0
M  V30 40955 N 4007.13 0.499346 -1.4948 0
M  V30 40956 C 4008.38 1.25337 -1.5905 0
M  V30 40957 C 4008.7 1.92504 -0.277951 0
M  V30 40958 O 4007.96 1.81404 0.73425 0
M  V30 40959 C 4008.26 2.34156 -2.70011 0
M  V30 40960 C 4007.92 1.84435 -4.11454 0
M  V30 40961 C 4006.59 1.70595 -4.49945 0
M  V30 40962 C 4008.94 1.47239 -4.9997 0
M  V30 40963 C 4006.27 1.17939 -5.74724 0
M  V30 40964 C 4008.62 0.960355 -6.25268 0
M  V30 40965 C 4007.28 0.808356 -6.62587 0
M  V30 40966 H 4006.55 0.458639 -0.582006 0
M  V30 40967 H 4009.2 0.553834 -1.83316 0
M  V30 40968 H 4007.5 3.09904 -2.39723 0
M  V30 40969 H 4009.2 2.92203 -2.74624 0
M  V30 40970 H 4005.79 1.96168 -3.81072 0
M  V30 40971 H 4009.98 1.56779 -4.70887 0
M  V30 40972 H 4005.23 1.04884 -6.02337 0
M  V30 40973 H 4009.41 0.663358 -6.93233 0
M  V30 40974 H 4007.03 0.398163 -7.59157 0
M  V30 40975 N 4008.61 1.38582 0.750513 0
M  V30 40976 C 4010.02 1.19847 1.05399 0
M  V30 40977 C 4010.22 0.0492671 2.0144 0
M  V30 40978 O 4009.28 -0.603994 2.4517 0
M  V30 40979 C 4010.59 2.52616 1.63113 0
M  V30 40980 C 4012.14 2.59326 1.75269 0
M  V30 40981 C 4012.62 3.92278 2.36394 0
M  V30 40982 N 4014.11 3.93834 2.43822 0
M  V30 40983 C 4014.84 4.9347 2.92019 0
M  V30 40984 N 4014.34 6.03503 3.40229 0
M  V30 40985 N 4016.13 4.80858 2.91087 0
M  V30 40986 H 4008.28 2.12098 0.113248 0
M  V30 40987 H 4010.54 0.941257 0.112869 0
M  V30 40988 H 4010.25 3.3718 1.00011 0
M  V30 40989 H 4010.12 2.7123 2.62133 0
M  V30 40990 H 4012.51 1.75154 2.37497 0
M  V30 40991 H 4012.59 2.44575 0.749447 0
M  V30 40992 H 4012.24 4.76873 1.74799 0
M  V30 40993 H 4012.17 4.04341 3.37366 0
M  V30 40994 H 4014.66 3.1436 2.09728 0
M  V30 40995 H 4014.97 6.75457 3.7547 0
M  V30 40996 H 4013.32 6.07119 3.38278 0
M  V30 40997 H 4016.51 3.94007 2.52737 0
M  V30 40998 H 4016.68 5.58658 3.28337 0
M  V30 40999 N 4010.09 -0.979029 1.23502 0
M  V30 41000 C 4011.5 -1.2455 0.99797 0
M  V30 41001 C 4011.7 -1.99253 -0.300104 0
M  V30 41002 O 4010.76 -2.31017 -1.01919 0
M  V30 41003 C 4012.07 -2.04371 2.20574 0
M  V30 41004 C 4013.62 -2.17505 2.25079 0
M  V30 41005 C 4014.09 -3.00718 3.45446 0
M  V30 41006 N 4015.58 -3.08302 3.45693 0
M  V30 41007 C 4016.32 -3.73016 4.35484 0
M  V30 41008 N 4015.82 -4.39542 5.35514 0
M  V30 41009 N 4017.61 -3.69916 4.23224 0
M  V30 41010 H 4009.76 -0.478613 2.06937 0
M  V30 41011 H 4012.02 -0.274068 0.907519 0
M  V30 41012 H 4011.73 -1.56857 3.14784 0
M  V30 41013 H 4011.6 -3.05119 2.21771 0
M  V30 41014 H 4013.99 -2.64227 1.31408 0
M  V30 41015 H 4014.07 -1.16142 2.27914 0
M  V30 41016 H 4013.71 -2.54692 4.39425 0
M  V30 41017 H 4013.64 -4.02254 3.39852 0
M  V30 41018 H 4016.14 -2.60969 2.73319 0
M  V30 41019 H 4016.45 -4.86704 6.00282 0
M  V30 41020 H 4014.79 -4.38246 5.39412 0
M  V30 41021 H 4017.98 -3.17113 3.44321 0
M  V30 41022 H 4018.16 -4.20068 4.93404 0
M  V30 41023 N 4011.56 -1.04695 -1.178 0
M  V30 41024 C 4012.81 -0.755174 -1.88215 0
M  V30 41025 C 4013.14 0.715699 -1.80531 0
M  V30 41026 O 4012.42 1.52289 -1.20989 0
M  V30 41027 C 4012.7 -1.22992 -3.38445 0
M  V30 41028 C 4012.55 -2.76336 -3.54906 0
M  V30 41029 C 4013.87 -0.824967 -4.32299 0
M  V30 41030 H 4010.99 -0.275807 -0.683447 0
M  V30 41031 H 4013.63 -1.30006 -1.38558 0
M  V30 41032 H 4011.78 -0.766367 -3.80866 0
M  V30 41033 H 4013.46 -3.30777 -3.21535 0
M  V30 41034 H 4011.7 -3.15856 -2.97351 0
M  V30 41035 H 4012.37 -3.04614 -4.60342 0
M  V30 41036 H 4014.85 -1.22396 -3.97692 0
M  V30 41037 H 4013.72 -1.18482 -5.3596 0
M  V30 41038 H 4013.98 0.271432 -4.41266 0
M  V30 41039 N 4013.04 1.34141 -0.827275 0
M  V30 41040 C 4014.46 1.51111 -0.51358 0
M  V30 41041 C 4014.66 1.77086 0.961403 0
M  V30 41042 O 4013.71 1.82432 1.7457 0
M  V30 41043 C 4015.03 2.67325 -1.37688 0
M  V30 41044 C 4016.57 2.81208 -1.37445 0
M  V30 41045 C 4017.05 4.0047 -2.22234 0
M  V30 41046 N 4018.54 4.07685 -2.1988 0
M  V30 41047 C 4019.28 4.99133 -2.82231 0
M  V30 41048 N 4018.77 5.95774 -3.53588 0
M  V30 41049 N 4020.56 4.92038 -2.71762 0
M  V30 41050 H 4012.72 1.15542 -1.78224 0
M  V30 41051 H 4014.98 0.567034 -0.759721 0
M  V30 41052 H 4014.68 2.54774 -2.42452 0
M  V30 41053 H 4014.56 3.62445 -1.04467 0
M  V30 41054 H 4016.95 2.93197 -0.334576 0
M  V30 41055 H 4017.03 1.86883 -1.74666 0
M  V30 41056 H 4016.67 3.8924 -3.26273 0
M  V30 41057 H 4016.6 4.94016 -1.8236 0
M  V30 41058 H 4019.09 3.38514 -1.67978 0
M  V30 41059 H 4019.4 6.62192 -3.98399 0
M  V30 41060 H 4017.75 5.95885 -3.57695 0
M  V30 41061 H 4020.94 4.155 -2.15586 0
M  V30 41062 H 4021.11 5.63111 -3.2064 0
M  V30 41063 N 4014.52 0.582635 1.46435 0
M  V30 41064 C 4015.48 -0.140462 2.28769 0
M  V30 41065 C 4016.48 -0.818886 1.38387 0
M  V30 41066 O 4017.67 -0.670854 1.60764 0
M  V30 41067 C 4014.8 -1.20831 3.18768 0
M  V30 41068 H 4016 0.5831 2.94177 0
M  V30 41069 H 4013.55 0.340602 1.52544 0
M  V30 41070 H 4014.29 -1.96345 2.58107 0
M  V30 41071 H 4014.07 -0.726349 3.85314 0
M  V30 41072 H 4015.56 -1.71547 3.80738 0
M  V30 41073 N 4016 -1.54309 0.320412 0
M  V30 41074 C 4017.22 -2.05392 -0.287904 0
M  V30 41075 C 4017.65 -1.19519 -1.45247 0
M  V30 41076 O 4017.01 -0.203588 -1.80153 0
M  V30 41077 C 4017.05 -3.53677 -0.703199 0
M  V30 41078 O 4016.16 -3.70757 -1.80592 0
M  V30 41079 H 4015.5 -0.661915 -0.0525773 0
M  V30 41080 H 4018.03 -1.99178 0.467905 0
M  V30 41081 H 4018.04 -3.95889 -0.986723 0
M  V30 41082 H 4016.71 -4.15634 0.148587 0
M  V30 41083 H 4015.29 -3.4045 -1.52144 0
M  V30 41084 N 4017.48 -0.0485183 -1.57525 0
M  V30 41085 C 4018.71 0.634597 -1.96612 0
M  V30 41086 C 4019.11 1.65069 -0.9246 0
M  V30 41087 O 4018.46 1.83428 0.0999075 0
M  V30 41088 C 4018.52 1.38076 -3.31927 0
M  V30 41089 C 4018.18 0.520803 -4.54023 0
M  V30 41090 C 4019.18 -0.212011 -5.19468 0
M  V30 41091 C 4016.86 0.452508 -5.00258 0
M  V30 41092 C 4018.86 -1.00159 -6.29481 0
M  V30 41093 C 4016.55 -0.340759 -6.10149 0
M  V30 41094 C 4017.54 -1.0665 -6.74622 0
M  V30 41095 O 4017.23 -1.84672 -7.82401 0
M  V30 41096 H 4016.96 0.178492 -0.65201 0
M  V30 41097 H 4019.52 -0.110433 -2.05103 0
M  V30 41098 H 4017.75 2.17136 -3.19983 0
M  V30 41099 H 4019.44 1.95385 -3.5578 0
M  V30 41100 H 4020.2 -0.1687 -4.84707 0
M  V30 41101 H 4016.08 1.00698 -4.49868 0
M  V30 41102 H 4019.63 -1.56856 -6.79737 0
M  V30 41103 H 4015.52 -0.385718 -6.44347 0
M  V30 41104 H 4016.29 -1.76856 -7.99165 0
M  V30 41105 N 4018.95 1.55988 0.224839 0
M  V30 41106 C 4020.18 1.82663 0.965293 0
M  V30 41107 C 4020.59 0.624967 1.7858 0
M  V30 41108 O 4019.93 -0.415855 1.78931 0
M  V30 41109 C 4020 3.03021 1.93438 0
M  V30 41110 C 4019.66 4.38158 1.29871 0
M  V30 41111 C 4020.66 5.15298 0.690219 0
M  V30 41112 C 4018.34 4.84877 1.31146 0
M  V30 41113 C 4020.34 6.37317 0.102955 0
M  V30 41114 C 4018.02 6.06839 0.720355 0
M  V30 41115 C 4019.02 6.829 0.11715 0
M  V30 41116 O 4018.71 8.02555 -0.464772 0
M  V30 41117 H 4018.44 0.61128 0.28864 0
M  V30 41118 H 4021 2.03919 0.246201 0
M  V30 41119 H 4019.23 2.77575 2.69238 0
M  V30 41120 H 4020.91 3.16596 2.54011 0
M  V30 41121 H 4021.68 4.80312 0.672716 0
M  V30 41122 H 4017.56 4.25652 1.77036 0
M  V30 41123 H 4021.1 6.96626 -0.368489 0
M  V30 41124 H 4017 6.41299 0.735259 0
M  V30 41125 H 4017.77 8.17713 -0.358772 0
M  V30 41126 N 4020.43 -0.491412 1.49743 0
M  V30 41127 C 4021.68 -1.24676 1.59949 0
M  V30 41128 C 4022.01 -1.92028 0.289632 0
M  V30 41129 O 4021.29 -1.81175 -0.707512 0
M  V30 41130 C 4021.57 -2.3063 2.76554 0
M  V30 41131 C 4021.42 -1.67716 4.17363 0
M  V30 41132 C 4022.74 -3.32115 2.8877 0
M  V30 41133 H 4019.86 -0.451923 0.582181 0
M  V30 41134 H 4022.5 -0.543485 1.82061 0
M  V30 41135 H 4020.65 -2.90612 2.57831 0
M  V30 41136 H 4022.32 -1.11487 4.47625 0
M  V30 41137 H 4020.57 -0.980926 4.22564 0
M  V30 41138 H 4021.24 -2.44612 4.94842 0
M  V30 41139 H 4023.71 -2.82134 3.05843 0
M  V30 41140 H 4022.59 -4.03602 3.72017 0
M  V30 41141 H 4022.85 -3.9502 1.98524 0
M  V30 41142 N 4021.91 -1.38978 -0.743153 0
M  V30 41143 C 4023.16 -1.35958 -1.50476 0
M  V30 41144 C 4023.49 0.0470774 -1.94143 0
M  V30 41145 O 4022.76 1.01039 -1.66197 0
M  V30 41146 C 4023.05 -2.32466 -2.75012 0
M  V30 41147 C 4022.9 -3.82038 -2.37417 0
M  V30 41148 C 4024.22 -2.26934 -3.7708 0
M  V30 41149 H 4021.34 -0.495182 -0.545861 0
M  V30 41150 H 4023.98 -1.69908 -0.850373 0
M  V30 41151 H 4022.13 -2.03645 -3.30849 0
M  V30 41152 H 4023.8 -4.21576 -1.87274 0
M  V30 41153 H 4022.05 -3.99211 -1.69745 0
M  V30 41154 H 4022.72 -4.4504 -3.26563 0
M  V30 41155 H 4025.19 -2.52399 -3.30808 0
M  V30 41156 H 4024.07 -2.96553 -4.61895 0
M  V30 41157 H 4024.33 -1.27163 -4.23417 0
M  V30 41158 N 4023.39 0.972465 -1.2402 0
M  V30 41159 C 4024.61 1.75521 -1.10486 0
M  V30 41160 C 4025.04 1.85021 0.338952 0
M  V30 41161 O 4024.4 1.31763 1.24531 0
M  V30 41162 C 4024.44 3.15621 -1.74402 0
M  V30 41163 O 4023.55 3.99802 -1.01155 0
M  V30 41164 H 4022.89 0.539715 -0.386786 0
M  V30 41165 H 4025.42 1.22019 -1.64233 0
M  V30 41166 H 4025.43 3.66165 -1.79964 0
M  V30 41167 H 4024.1 3.08021 -2.79456 0
M  V30 41168 H 4022.68 3.58294 -1.03344 0
M  V30 41169 N 4024.87 1.05318 1.17243 0
M  V30 41170 C 4026.11 0.762504 1.87164 0
M  V30 41171 C 4026.44 -0.712655 1.81511 0
M  V30 41172 O 4025.71 -1.51502 1.24193 0
M  V30 41173 H 4024.29 0.279066 0.692915 0
M  V30 41174 H 4026.95 1.3326 1.42224 0
M  V30 41175 H 4026.04 1.07859 2.9287 0
M  V30 41176 N 4026.34 -1.33701 0.834377 0
M  V30 41177 C 4027.29 -2.31222 0.252859 0
M  V30 41178 C 4028.29 -1.57932 -0.612695 0
M  V30 41179 O 4029.49 -1.72836 -0.502757 0
M  V30 41180 H 4025.87 -0.749353 0.0630375 0
M  V30 41181 H 4027.84 -2.77781 1.08997 0
M  V30 41182 C 4026.59 -3.43143 -0.561071 0
M  V30 41183 H 4025.91 -3.99686 0.0956426 0
M  V30 41184 H 4027.35 -4.13588 -0.933878 0
M  V30 41185 C 4025.81 -2.88602 -1.73812 0
M  V30 41186 O 4026.34 -2.8442 -2.83669 0
M  V30 41187 N 4024.55 -2.4527 -1.55856 0
M  V30 41188 H 4024.09 -2.48871 -0.664916 0
M  V30 41189 H 4024.05 -2.09129 -2.3476 0
M  V30 41190 N 4027.82 -0.590393 -1.46124 0
M  V30 41191 C 4029.1 -0.0116992 -1.95597 0
M  V30 41192 C 4029.48 1.45128 -1.53301 0
M  V30 41193 O 4028.83 2.14507 -0.787336 0
M  V30 41194 C 4029.04 -0.191788 -3.48473 0
M  V30 41195 C 4030.39 -0.0636078 -4.24552 0
M  V30 41196 O 4031.41 -0.121018 -3.55994 0
M  V30 41197 O 4030.27 0.0656811 -5.46461 0
M  V30 41198 H 4027.36 0.0454776 -0.825749 0
M  V30 41199 H 4029.91 -0.65925 -1.56371 0
M  V30 41200 H 4028.68 -1.20852 -3.7217 0
M  V30 41201 H 4028.3 0.491836 -3.94546 0
M  V30 41202 N 4029.3 1.54136 -0.328591 0
M  V30 41203 C 4030.71 1.86027 0.158434 0
M  V30 41204 C 4031.06 1.25015 1.51214 0
M  V30 41205 O 4030.19 0.558066 2.0908 0
M  V30 41206 C 4030.78 3.3752 0.294258 0
M  V30 41207 C 4029.34 3.69342 0.725506 0
M  V30 41208 C 4028.49 2.76895 -0.149773 0
M  V30 41209 H 4031.44 1.48912 -0.548705 0
M  V30 41210 H 4031.46 3.6351 1.12432 0
M  V30 41211 H 4030.97 3.81896 -0.691138 0
M  V30 41212 H 4029.07 3.30501 1.72047 0
M  V30 41213 H 4029.19 4.76206 0.525769 0
M  V30 41214 H 4027.55 2.51917 0.375487 0
M  V30 41215 H 4028.33 3.24099 -1.13203 0
M  V30 41216 N 4030.78 0.0568716 1.57497 0
M  V30 41217 C 4031.74 -0.900786 2.10757 0
M  V30 41218 C 4032.74 -1.23617 1.02837 0
M  V30 41219 O 4033.93 -1.17191 1.28887 0
M  V30 41220 C 4031.06 -2.2089 2.59654 0
M  V30 41221 H 4032.26 -0.438989 2.9667 0
M  V30 41222 H 4029.81 -0.191619 1.55121 0
M  V30 41223 H 4030.54 -2.71639 1.77151 0
M  V30 41224 H 4030.33 -1.97849 3.38523 0
M  V30 41225 H 4031.82 -2.89476 3.00987 0
M  V30 41226 N 4032.26 -1.56105 -0.216564 0
M  V30 41227 C 4033.2 -1.93684 -1.288 0
M  V30 41228 C 4034.2 -0.819491 -1.48259 0
M  V30 41229 O 4035.4 -1.00436 -1.49374 0
M  V30 41230 H 4031.78 -0.615577 -0.431936 0
M  V30 41231 H 4033.75 -2.83078 -0.943905 0
M  V30 41232 C 4032.5 -2.27419 -2.63013 0
M  V30 41233 H 4031.82 -3.12912 -2.48849 0
M  V30 41234 H 4033.26 -2.57592 -3.36782 0
M  V30 41235 C 4031.72 -1.10109 -3.18399 0
M  V30 41236 O 4032.25 -0.364829 -4.0004 0
M  V30 41237 N 4030.46 -0.883584 -2.76841 0
M  V30 41238 H 4030 -1.48403 -2.10557 0
M  V30 41239 H 4029.96 -0.100423 -3.1424 0
M  V30 41240 N 4033.73 0.483463 -1.50001 0
M  V30 41241 C 4034.98 1.23398 -1.60054 0
M  V30 41242 C 4035.3 1.92722 -0.297193 0
M  V30 41243 O 4034.57 1.83549 0.684597 0
M  V30 41244 H 4033.15 0.458466 -0.589761 0
M  V30 41245 H 4035.82 0.558803 -1.86717 0
M  V30 41246 H 4034.91 1.98854 -2.40548 0
M  V30 41247 N 4035.21 1.39371 0.735772 0
M  V30 41248 C 4036.12 1.40301 1.88023 0
M  V30 41249 C 4037.14 0.297908 1.71431 0
M  V30 41250 O 4038.31 0.539253 1.94046 0
M  V30 41251 C 4035.38 1.24421 3.23605 0
M  V30 41252 C 4034.44 2.44896 3.52597 0
M  V30 41253 C 4033.67 2.29764 4.8171 0
M  V30 41254 O 4033.9 1.30071 5.55372 0
M  V30 41255 O 4032.83 3.18731 5.10582 0
M  V30 41256 H 4036.66 2.36771 1.90193 0
M  V30 41257 H 4034.24 1.20478 0.883483 0
M  V30 41258 H 4036.12 1.17695 4.04631 0
M  V30 41259 H 4034.8 0.310466 3.22208 0
M  V30 41260 H 4033.71 2.57199 2.71661 0
M  V30 41261 H 4035.04 3.36962 3.58772 0
M  V30 41262 N 4036.69 -0.965875 1.24534 0
M  V30 41263 C 4038.1 -1.52371 1.07888 0
M  V30 41264 C 4038.45 -1.93069 -0.349103 0
M  V30 41265 O 4037.58 -1.7751 -1.23771 0
M  V30 41266 C 4038.17 -2.76896 1.95229 0
M  V30 41267 C 4036.73 -3.2903 1.82802 0
M  V30 41268 C 4035.88 -2.01928 1.90054 0
M  V30 41269 H 4038.83 -0.783973 1.37984 0
M  V30 41270 H 4038.85 -3.50298 1.48565 0
M  V30 41271 H 4038.36 -2.47244 2.99152 0
M  V30 41272 H 4036.46 -3.63528 0.817179 0
M  V30 41273 H 4036.58 -3.97806 2.66996 0
M  V30 41274 H 4034.94 -2.16722 1.33804 0
M  V30 41275 H 4035.72 -1.74639 2.95561 0
M  V30 41276 N 4038.17 -1.05938 -1.16683 0
M  V30 41277 C 4039.39 -0.794591 -1.91575 0
M  V30 41278 C 4039.82 0.644687 -1.76707 0
M  V30 41279 O 4039.18 1.4488 -1.08993 0
M  V30 41280 C 4039.23 -1.18953 -3.40415 0
M  V30 41281 O 4038.33 -0.326164 -4.11108 0
M  V30 41282 H 4037.67 -0.290712 -0.596978 0
M  V30 41283 H 4040.2 -1.41423 -1.47854 0
M  V30 41284 H 4040.21 -1.15954 -3.91176 0
M  V30 41285 H 4038.89 -2.23792 -3.50556 0
M  V30 41286 H 4037.46 -0.417412 -3.70556 0
M  V30 41287 N 4039.65 1.33256 -0.841456 0
M  V30 41288 C 4041.06 1.50558 -0.529579 0
M  V30 41289 C 4041.26 1.78095 0.942567 0
M  V30 41290 O 4040.32 1.84274 1.72625 0
M  V30 41291 C 4041.63 2.65849 -1.40515 0
M  V30 41292 C 4043.18 2.79734 -1.4042 0
M  V30 41293 C 4043.66 3.9809 -2.26469 0
M  V30 41294 N 4045.15 4.0533 -2.24192 0
M  V30 41295 C 4045.88 4.96111 -2.87509 0
M  V30 41296 N 4045.38 5.91991 -3.59887 0
M  V30 41297 N 4047.17 4.89128 -2.76965 0
M  V30 41298 H 4039.32 1.13645 -1.7944 0
M  V30 41299 H 4041.58 0.558944 -0.765693 0
M  V30 41300 H 4041.29 2.52188 -2.45141 0
M  V30 41301 H 4041.16 3.61317 -1.08305 0
M  V30 41302 H 4043.55 2.92826 -0.365655 0
M  V30 41303 H 4043.63 1.8502 -1.76639 0
M  V30 41304 H 4043.28 3.85758 -3.30383 0
M  V30 41305 H 4043.21 4.92055 -1.8759 0
M  V30 41306 H 4045.7 3.36713 -1.71559 0
M  V30 41307 H 4046.01 6.57929 -4.054 0
M  V30 41308 H 4044.36 5.92058 -3.63995 0
M  V30 41309 H 4047.55 4.1319 -2.19981 0
M  V30 41310 H 4047.72 5.59679 -3.26594 0
M  V30 41311 N 4041.13 0.598134 1.45809 0
M  V30 41312 C 4042.09 -0.11619 2.28905 0
M  V30 41313 C 4043.09 -0.804163 1.39247 0
M  V30 41314 O 4044.28 -0.653765 1.61467 0
M  V30 41315 C 4041.41 -1.17443 3.20031 0
M  V30 41316 H 4042.6 0.614269 2.93542 0
M  V30 41317 H 4040.16 0.356762 1.52174 0
M  V30 41318 H 4040.89 -1.93596 2.60175 0
M  V30 41319 H 4040.68 -0.685441 3.86062 0
M  V30 41320 H 4042.17 -1.67499 3.82536 0
M  V30 41321 N 4042.6 -1.5396 0.33676 0
M  V30 41322 C 4043.85 -2.01098 -0.262213 0
M  V30 41323 C 4044.18 -1.22434 -1.50743 0
M  V30 41324 O 4043.46 -0.310137 -1.92011 0
M  V30 41325 C 4043.74 -3.55347 -0.583156 0
M  V30 41326 C 4043.59 -4.44726 0.673688 0
M  V30 41327 C 4044.91 -4.17389 -1.39551 0
M  V30 41328 H 4042.03 -0.731003 -0.0938295 0
M  V30 41329 H 4044.67 -1.84448 0.455954 0
M  V30 41330 H 4042.82 -3.69665 -1.19499 0
M  V30 41331 H 4044.5 -4.42256 1.31176 0
M  V30 41332 H 4042.74 -4.13865 1.29994 0
M  V30 41333 H 4043.41 -5.50516 0.404478 0
M  V30 41334 H 4045.89 -4.06727 -0.87822 0
M  V30 41335 H 4044.76 -5.25402 -1.58883 0
M  V30 41336 H 4045.02 -3.71569 -2.3956 0
M  V30 41337 N 4044.08 -0.0652232 -1.57465 0
M  V30 41338 C 4045.01 0.90198 -2.15375 0
M  V30 41339 C 4045.99 1.31492 -1.07906 0
M  V30 41340 O 4047.18 1.38714 -1.35912 0
M  V30 41341 C 4044.31 2.1719 -2.71009 0
M  V30 41342 C 4043.26 1.89857 -3.83586 0
M  V30 41343 C 4042.59 3.23424 -4.25794 0
M  V30 41344 C 4043.89 1.20904 -5.08114 0
M  V30 41345 H 4045.58 0.419579 -2.96445 0
M  V30 41346 H 4043.13 0.200376 -1.42599 0
M  V30 41347 H 4045.08 2.85264 -3.10165 0
M  V30 41348 H 4043.8 2.67661 -1.8715 0
M  V30 41349 H 4042.46 1.24191 -3.44923 0
M  V30 41350 H 4042.11 3.71723 -3.38867 0
M  V30 41351 H 4041.81 3.05929 -5.01678 0
M  V30 41352 H 4043.34 3.92706 -4.67562 0
M  V30 41353 H 4044.75 1.79036 -5.44627 0
M  V30 41354 H 4043.15 1.13689 -5.89232 0
M  V30 41355 H 4044.22 0.187139 -4.84539 0
M  V30 41356 N 4045.56 1.56218 0.208282 0
M  V30 41357 C 4046.84 1.70657 0.955808 0
M  V30 41358 C 4047.22 0.616276 2.01904 0
M  V30 41359 O 4046.56 -0.374754 2.25406 0
M  V30 41360 C 4046.77 3.12482 1.55421 0
M  V30 41361 C 4048.12 3.72306 2.0414 0
M  V30 41362 O 4049.15 3.15528 1.6529 0
M  V30 41363 O 4048.01 4.71925 2.75588 0
M  V30 41364 H 4045.1 0.695561 0.447352 0
M  V30 41365 H 4047.65 1.68529 0.199017 0
M  V30 41366 H 4046.42 3.83301 0.787157 0
M  V30 41367 H 4046.04 3.18783 2.37619 0
M  V30 41368 N 4047.04 -0.475502 1.50256 0
M  V30 41369 C 4048 -1.55642 1.6825 0
M  V30 41370 C 4049 -1.50979 0.553352 0
M  V30 41371 O 4050.19 -1.53677 0.820301 0
M  V30 41372 C 4047.32 -2.95278 1.70364 0
M  V30 41373 H 4048.52 -1.41006 2.64684 0
M  V30 41374 H 4046.07 -0.70157 1.3967 0
M  V30 41375 H 4046.8 -3.15363 0.756075 0
M  V30 41376 H 4046.59 -3.0007 2.5239 0
M  V30 41377 H 4048.08 -3.73763 1.86255 0
M  V30 41378 N 4048.52 -1.39759 -0.72837 0
M  V30 41379 C 4049.45 -1.4175 -1.85551 0
M  V30 41380 C 4050.43 -0.280001 -1.6778 0
M  V30 41381 O 4051.61 -0.486783 -1.88 0
M  V30 41382 C 4048.74 -1.26677 -3.23373 0
M  V30 41383 C 4047.7 -2.37896 -3.55794 0
M  V30 41384 C 4047.02 -2.07908 -4.92624 0
M  V30 41385 C 4048.32 -3.80221 -3.58091 0
M  V30 41386 H 4050.02 -2.36076 -1.84142 0
M  V30 41387 H 4047.56 -1.13632 -0.884519 0
M  V30 41388 H 4049.51 -1.26689 -4.01905 0
M  V30 41389 H 4048.24 -0.288216 -3.25326 0
M  V30 41390 H 4046.9 -2.37112 -2.79595 0
M  V30 41391 H 4046.55 -1.08474 -4.91164 0
M  V30 41392 H 4046.25 -2.82413 -5.15283 0
M  V30 41393 H 4047.77 -2.09581 -5.73505 0
M  V30 41394 H 4049.18 -3.82898 -4.26687 0
M  V30 41395 H 4047.58 -4.5414 -3.92272 0
M  V30 41396 H 4048.65 -4.10722 -2.5775 0
M  V30 41397 N 4049.99 0.959257 -1.25044 0
M  V30 41398 C 4050.92 2.07284 -1.07498 0
M  V30 41399 C 4051.9 1.70094 0.0145965 0
M  V30 41400 O 4053.09 1.93588 -0.154069 0
M  V30 41401 C 4050.22 3.40417 -0.688 0
M  V30 41402 C 4049.17 3.91597 -1.72729 0
M  V30 41403 C 4048.5 5.21172 -1.19513 0
M  V30 41404 C 4049.8 4.18492 -3.12509 0
M  V30 41405 H 4051.49 2.22221 -2.00645 0
M  V30 41406 H 4049.04 1.06783 -0.966093 0
M  V30 41407 H 4050.99 4.17766 -0.552206 0
M  V30 41408 H 4049.72 3.25405 0.279167 0
M  V30 41409 H 4048.38 3.16413 -1.85145 0
M  V30 41410 H 4048.02 5.02526 -0.218328 0
M  V30 41411 H 4047.72 5.56384 -1.88972 0
M  V30 41412 H 4049.25 6.01123 -1.07163 0
M  V30 41413 H 4050.66 4.86516 -3.03274 0
M  V30 41414 H 4049.06 4.64949 -3.79397 0
M  V30 41415 H 4050.13 3.24944 -3.59916 0
M  V30 41416 N 4051.47 1.06556 1.16119 0
M  V30 41417 C 4052.38 0.689872 2.24227 0
M  V30 41418 C 4053.4 -0.295277 1.71476 0
M  V30 41419 O 4054.57 -0.143928 2.00885 0
M  V30 41420 C 4051.64 0.0848467 3.46596 0
M  V30 41421 C 4050.7 1.1222 4.14373 0
M  V30 41422 C 4049.93 0.545953 5.309 0
M  V30 41423 O 4050.16 -0.640488 5.66793 0
M  V30 41424 O 4049.09 1.28693 5.87981 0
M  V30 41425 H 4052.92 1.59122 2.58677 0
M  V30 41426 H 4050.5 0.837988 1.23686 0
M  V30 41427 H 4052.38 -0.25069 4.20654 0
M  V30 41428 H 4051.06 -0.789943 3.13913 0
M  V30 41429 H 4049.97 1.50996 3.42273 0
M  V30 41430 H 4051.3 1.96861 4.51117 0
M  V30 41431 N 4052.95 -1.32808 0.848511 0
M  V30 41432 C 4054.2 -1.97072 0.448004 0
M  V30 41433 C 4054.52 -1.67506 -0.998328 0
M  V30 41434 O 4053.79 -0.97904 -1.69681 0
M  V30 41435 H 4052.37 -0.729072 0.162676 0
M  V30 41436 H 4055.03 -1.62001 1.08359 0
M  V30 41437 H 4054.13 -3.06511 0.587992 0
M  V30 41438 N 4054.43 -0.605858 -1.45489 0
M  V30 41439 C 4055.38 0.113997 -2.30518 0
M  V30 41440 C 4056.35 0.861678 -1.42001 0
M  V30 41441 O 4057.53 0.847758 -1.70932 0
M  V30 41442 C 4054.67 1.10655 -3.26878 0
M  V30 41443 C 4053.78 0.359923 -4.30498 0
M  V30 41444 C 4052.92 1.34205 -5.13967 0
M  V30 41445 C 4051.96 0.583133 -6.09316 0
M  V30 41446 N 4051.09 1.51445 -6.85572 0
M  V30 41447 H 4055.93 -0.617094 -2.91541 0
M  V30 41448 H 4053.47 -0.316115 -1.43663 0
M  V30 41449 H 4055.43 1.69513 -3.8121 0
M  V30 41450 H 4054.06 1.80508 -2.67613 0
M  V30 41451 H 4053.11 -0.344125 -3.7884 0
M  V30 41452 H 4054.42 -0.232296 -4.98259 0
M  V30 41453 H 4053.58 2.00273 -5.72691 0
M  V30 41454 H 4052.32 1.9682 -4.46221 0
M  V30 41455 H 4051.32 -0.0911952 -5.49724 0
M  V30 41456 H 4052.55 -0.0379462 -6.79089 0
M  V30 41457 H 4050.49 2.12828 -6.20516 0
M  V30 41458 H 4050.41 0.975628 -7.49678 0
M  V30 41459 H 4051.68 2.16477 -7.48838 0
M  V30 41460 N 4055.91 1.53779 -0.34492 0
M  V30 41461 C 4056.87 2.23708 0.498742 0
M  V30 41462 C 4057.87 1.23775 1.02647 0
M  V30 41463 O 4059.06 1.48203 0.9155 0
M  V30 41464 C 4056.19 2.95779 1.69492 0
M  V30 41465 H 4057.38 2.99688 -0.112868 0
M  V30 41466 H 4054.94 1.56003 -0.0962887 0
M  V30 41467 H 4055.67 2.2399 2.34518 0
M  V30 41468 H 4055.46 3.69081 1.32369 0
M  V30 41469 H 4056.95 3.48996 2.29328 0
M  V30 41470 N 4057.38 0.0735731 1.57428 0
M  V30 41471 C 4058.32 -0.922642 2.09809 0
M  V30 41472 C 4059.33 -1.26024 1.03062 0
M  V30 41473 O 4060.52 -1.21712 1.3057 0
M  V30 41474 C 4057.62 -2.23796 2.54496 0
M  V30 41475 C 4056.79 -2.07894 3.84836 0
M  V30 41476 C 4055.85 -3.22747 4.15597 0
M  V30 41477 O 4054.88 -2.97659 4.85168 0
M  V30 41478 N 4056.08 -4.47894 3.69284 0
M  V30 41479 H 4058.84 -0.475404 2.95905 0
M  V30 41480 H 4056.4 -0.112106 1.61511 0
M  V30 41481 H 4058.4 -2.9954 2.72135 0
M  V30 41482 H 4056.97 -2.60013 1.73528 0
M  V30 41483 H 4056.19 -1.16607 3.76559 0
M  V30 41484 H 4057.47 -1.94522 4.70148 0
M  V30 41485 H 4056.87 -4.71163 3.13085 0
M  V30 41486 H 4055.43 -5.20659 3.9212 0
M  V30 41487 N 4058.86 -1.56326 -0.199995 0
M  V30 41488 C 4060.11 -1.81507 -0.917984 0
M  V30 41489 C 4060.46 -0.649881 -1.81092 0
M  V30 41490 O 4059.76 0.355166 -1.88279 0
M  V30 41491 C 4059.95 -3.10293 -1.7735 0
M  V30 41492 C 4059.78 -4.39227 -0.964885 0
M  V30 41493 C 4058.55 -5.01086 -0.65125 0
M  V30 41494 C 4060.75 -5.13304 -0.319911 0
M  V30 41495 N 4058.73 -6.13646 0.176513 0
M  V30 41496 C 4060.1 -6.18893 0.370271 0
M  V30 41497 C 4062.16 -4.97344 -0.235137 0
M  V30 41498 C 4060.86 -7.10255 1.13715 0
M  V30 41499 C 4062.88 -5.89124 0.518327 0
M  V30 41500 C 4062.25 -6.94156 1.19697 0
M  V30 41501 H 4058.35 -0.715544 -0.315469 0
M  V30 41502 H 4060.93 -1.93799 -0.187097 0
M  V30 41503 H 4059.1 -2.99244 -2.47603 0
M  V30 41504 H 4060.83 -3.2358 -2.4306 0
M  V30 41505 H 4057.59 -4.63466 -0.974493 0
M  V30 41506 H 4058.01 -6.74512 0.579862 0
M  V30 41507 H 4062.65 -4.16176 -0.745467 0
M  V30 41508 H 4060.37 -7.90889 1.65892 0
M  V30 41509 H 4063.96 -5.78849 0.585211 0
M  V30 41510 H 4062.84 -7.63948 1.77067 0
M  V30 41511 N 4060.34 0.467527 -1.50506 0
M  V30 41512 C 4061.59 1.21694 -1.61354 0
M  V30 41513 C 4061.91 1.92396 -0.317617 0
M  V30 41514 O 4061.18 1.84264 0.66509 0
M  V30 41515 H 4059.76 0.452185 -0.59459 0
M  V30 41516 H 4062.42 0.538967 -1.873 0
M  V30 41517 H 4061.52 1.96292 -2.42644 0
M  V30 41518 N 4061.82 1.40143 0.720948 0
M  V30 41519 C 4062.73 1.42288 1.86525 0
M  V30 41520 C 4063.74 0.316074 1.71105 0
M  V30 41521 O 4064.92 0.559804 1.93464 0
M  V30 41522 C 4061.99 1.27846 3.22267 0
M  V30 41523 C 4061.05 2.48622 3.49979 0
M  V30 41524 C 4060.28 2.3486 4.79246 0
M  V30 41525 O 4060.5 1.35954 5.53961 0
M  V30 41526 O 4059.44 3.24128 5.07173 0
M  V30 41527 H 4063.26 2.38775 1.87671 0
M  V30 41528 H 4060.85 1.21408 0.870655 0
M  V30 41529 H 4062.73 1.2198 4.0336 0
M  V30 41530 H 4061.4 0.344623 3.2186 0
M  V30 41531 H 4060.31 2.60066 2.68918 0
M  V30 41532 H 4061.64 3.40748 3.55178 0
M  V30 41533 N 4063.3 -0.952612 1.25551 0
M  V30 41534 C 4064.24 -2.07091 1.05905 0
M  V30 41535 C 4065.24 -1.69397 -0.0106348 0
M  V30 41536 O 4066.44 -1.79414 0.145142 0
M  V30 41537 H 4062.82 -0.67788 0.325551 0
M  V30 41538 H 4064.79 -2.20817 2.00705 0
M  V30 41539 C 4063.54 -3.4065 0.69664 0
M  V30 41540 H 4062.86 -3.70124 1.51157 0
M  V30 41541 H 4064.3 -4.19749 0.598892 0
M  V30 41542 C 4062.76 -3.3156 -0.597442 0
M  V30 41543 O 4063.29 -3.66742 -1.63899 0
M  V30 41544 N 4061.5 -2.84675 -0.583819 0
M  V30 41545 H 4061.04 -2.56242 0.264147 0
M  V30 41546 H 4061 -2.78976 -1.44982 0
M  V30 41547 N 4064.77 -1.0717 -1.15553 0
M  V30 41548 C 4065.7 -0.711819 -2.22386 0
M  V30 41549 C 4066.69 0.299879 -1.67436 0
M  V30 41550 O 4067.87 0.173039 -1.93428 0
M  V30 41551 C 4065 -0.106876 -3.47136 0
M  V30 41552 C 4063.95 -1.04552 -4.15033 0
M  V30 41553 C 4063.28 -0.303431 -5.33838 0
M  V30 41554 C 4064.58 -2.37835 -4.65007 0
M  V30 41555 H 4066.27 -1.605 -2.52745 0
M  V30 41556 H 4063.82 -0.77316 -1.21483 0
M  V30 41557 H 4065.77 0.156816 -4.21108 0
M  V30 41558 H 4064.5 0.821373 -3.16103 0
M  V30 41559 H 4063.16 -1.29411 -3.42999 0
M  V30 41560 H 4062.8 0.62822 -4.99062 0
M  V30 41561 H 4062.5 -0.929066 -5.80209 0
M  V30 41562 H 4064.03 -0.0474942 -6.10582 0
M  V30 41563 H 4065.44 -2.17314 -5.30516 0
M  V30 41564 H 4063.84 -2.95977 -5.22032 0
M  V30 41565 H 4064.91 -3.00271 -3.80743 0
M  V30 41566 N 4066.25 1.32356 -0.855542 0
M  V30 41567 C 4067.19 2.27742 -0.258069 0
M  V30 41568 C 4068.2 1.52469 0.570706 0
M  V30 41569 O 4069.39 1.74074 0.395052 0
M  V30 41570 C 4066.49 3.32532 0.653899 0
M  V30 41571 C 4065.66 4.37178 -0.139221 0
M  V30 41572 C 4064.72 5.21541 0.698647 0
M  V30 41573 O 4063.75 5.69047 0.131845 0
M  V30 41574 N 4064.95 5.44472 2.01322 0
M  V30 41575 H 4067.71 2.79653 -1.07771 0
M  V30 41576 H 4065.27 1.45226 -0.715609 0
M  V30 41577 H 4067.27 3.8588 1.21978 0
M  V30 41578 H 4065.84 2.80774 1.37422 0
M  V30 41579 H 4065.06 3.84102 -0.886534 0
M  V30 41580 H 4066.34 5.04182 -0.683962 0
M  V30 41581 H 4065.74 5.07607 2.49704 0
M  V30 41582 H 4064.3 6.00812 2.52721 0
M  V30 41583 N 4067.73 0.613565 1.45166 0
M  V30 41584 C 4068.98 0.111263 2.02495 0
M  V30 41585 C 4069.31 -1.25716 1.48017 0
M  V30 41586 O 4068.59 -1.8306 0.65722 0
M  V30 41587 C 4068.87 0.0788232 3.60014 0
M  V30 41588 C 4068.72 1.47834 4.24812 0
M  V30 41589 C 4070.04 -0.605887 4.35909 0
M  V30 41590 H 4067.16 0.0419061 0.735808 0
M  V30 41591 H 4069.8 0.786681 1.72949 0
M  V30 41592 H 4067.95 -0.496343 3.85316 0
M  V30 41593 H 4069.62 2.10105 4.10675 0
M  V30 41594 H 4067.87 2.03733 3.82982 0
M  V30 41595 H 4068.54 1.40783 5.33745 0
M  V30 41596 H 4071.01 -0.116946 4.15936 0
M  V30 41597 H 4069.89 -0.597712 5.45636 0
M  V30 41598 H 4070.15 -1.67308 4.09219 0
M  V30 41599 N 4069.21 -1.53594 0.353071 0
M  V30 41600 C 4070.44 -2.05484 -0.241629 0
M  V30 41601 C 4070.85 -1.22743 -1.43456 0
M  V30 41602 O 4070.21 -0.265042 -1.80565 0
M  V30 41603 C 4070.26 -3.55656 -0.647379 0
M  V30 41604 O 4069.98 -4.35259 0.498124 0
M  V30 41605 C 4071.48 -4.23755 -1.30179 0
M  V30 41606 H 4068.7 -0.669492 -0.0449586 0
M  V30 41607 H 4071.25 -1.98095 0.507818 0
M  V30 41608 H 4069.4 -3.63237 -1.34676 0
M  V30 41609 H 4069.82 -5.24215 0.172778 0
M  V30 41610 H 4071.29 -5.30188 -1.53637 0
M  V30 41611 H 4071.77 -3.76694 -2.25828 0
M  V30 41612 H 4072.37 -4.20393 -0.644191 0
M  V30 41613 N 4070.69 -0.0819208 -1.57387 0
M  V30 41614 C 4071.62 0.879086 -2.1632 0
M  V30 41615 C 4072.6 1.3034 -1.09295 0
M  V30 41616 O 4073.78 1.37265 -1.37375 0
M  V30 41617 C 4070.91 2.14304 -2.73297 0
M  V30 41618 C 4069.87 1.85778 -3.85578 0
M  V30 41619 C 4069.19 3.1889 -4.29201 0
M  V30 41620 C 4070.49 1.15508 -5.09367 0
M  V30 41621 H 4072.19 0.388114 -2.96874 0
M  V30 41622 H 4069.73 0.18524 -1.42804 0
M  V30 41623 H 4071.69 2.81958 -3.13173 0
M  V30 41624 H 4070.41 2.65661 -1.89979 0
M  V30 41625 H 4069.07 1.20526 -3.46221 0
M  V30 41626 H 4068.72 3.68108 -3.42791 0
M  V30 41627 H 4068.42 3.00591 -5.04895 0
M  V30 41628 H 4069.94 3.87725 -4.71701 0
M  V30 41629 H 4071.36 1.73249 -5.46496 0
M  V30 41630 H 4069.75 1.07433 -5.90405 0
M  V30 41631 H 4070.82 0.135736 -4.8471 0
M  V30 41632 N 4072.17 1.5643 0.191702 0
M  V30 41633 C 4073.41 1.80017 0.909765 0
M  V30 41634 C 4073.73 0.655723 1.84281 0
M  V30 41635 O 4074.93 0.775986 2.60174 0
M  V30 41636 C 4073.39 3.18906 1.66813 0
M  V30 41637 C 4073 4.41162 0.77974 0
M  V30 41638 C 4074.74 3.51801 2.37563 0
M  V30 41639 C 4072.65 5.71074 1.53717 0
M  V30 41640 H 4071.58 0.671236 0.343451 0
M  V30 41641 H 4074.23 1.82775 0.16299 0
M  V30 41642 H 4072.61 3.10408 2.45892 0
M  V30 41643 H 4073.79 4.60792 0.0273714 0
M  V30 41644 H 4072.1 4.15998 0.182907 0
M  V30 41645 H 4074.7 4.46099 2.94788 0
M  V30 41646 H 4075.04 2.75707 3.11916 0
M  V30 41647 H 4075.57 3.61762 1.65448 0
M  V30 41648 H 4072.31 6.50142 0.836361 0
M  V30 41649 H 4071.83 5.55456 2.26338 0
M  V30 41650 H 4073.51 6.12311 2.09007 0
M  V30 41651 N 4073.64 -0.459538 1.50751 0
M  V30 41652 C 4075.05 -1.0401 1.55045 0
M  V30 41653 C 4075.41 -1.92855 0.360735 0
M  V30 41654 O 4074.53 -2.09933 -0.525075 0
M  V30 41655 C 4075.13 -1.89306 2.80978 0
M  V30 41656 C 4073.68 -2.4245 2.87915 0
M  V30 41657 C 4072.83 -1.21086 2.49466 0
M  V30 41658 H 4075.78 -0.241682 1.56849 0
M  V30 41659 H 4075.8 -2.74509 2.63486 0
M  V30 41660 H 4075.32 -1.24616 3.67549 0
M  V30 41661 H 4073.42 -3.10659 2.05722 0
M  V30 41662 H 4073.53 -2.76767 3.91072 0
M  V30 41663 H 4071.89 -1.54927 2.02162 0
M  V30 41664 H 4072.68 -0.580409 3.38358 0
M  V30 41665 N 4075.12 -1.40523 -0.713506 0
M  V30 41666 C 4076.35 -1.42233 -1.50258 0
M  V30 41667 C 4076.76 -0.0225969 -1.88786 0
M  V30 41668 O 4076.12 0.953952 -1.55583 0
M  V30 41669 C 4076.17 -2.31491 -2.77659 0
M  V30 41670 O 4075.89 -3.66015 -2.40759 0
M  V30 41671 C 4077.39 -2.41814 -3.71539 0
M  V30 41672 H 4074.61 -0.485056 -0.46364 0
M  V30 41673 H 4077.16 -1.84599 -0.879968 0
M  V30 41674 H 4075.31 -1.92481 -3.36199 0
M  V30 41675 H 4075.73 -4.1344 -3.2275 0
M  V30 41676 H 4077.2 -3.08472 -4.57765 0
M  V30 41677 H 4077.68 -1.44383 -4.14789 0
M  V30 41678 H 4078.28 -2.81384 -3.18909 0
M  V30 41679 N 4076.6 0.94594 -1.26054 0
M  V30 41680 C 4077.55 2.02964 -1.03873 0
M  V30 41681 C 4078.53 1.60877 0.027311 0
M  V30 41682 O 4079.73 1.75987 -0.189073 0
M  V30 41683 C 4076.85 3.36725 -0.668653 0
M  V30 41684 C 4075.94 3.85311 -1.7719 0
M  V30 41685 N 4076.33 4.06597 -3.00853 0
M  V30 41686 C 4074.63 4.1418 -1.65441 0
M  V30 41687 C 4075.33 4.46767 -3.72524 0
M  V30 41688 N 4074.31 4.53198 -3.00187 0
M  V30 41689 H 4078.11 2.17427 -1.97744 0
M  V30 41690 H 4075.62 1.13142 -1.16501 0
M  V30 41691 H 4077.62 4.14 -0.490906 0
M  V30 41692 H 4076.28 3.23636 0.262638 0
M  V30 41693 H 4077.29 3.93421 -3.36808 0
M  V30 41694 H 4073.97 4.09906 -0.792689 0
M  V30 41695 H 4075.36 4.71468 -4.78715 0
M  V30 41696 N 4078.08 1.07781 1.14983 0
M  V30 41697 C 4079.35 0.716578 1.82001 0
M  V30 41698 C 4079.73 -0.800465 1.95335 0
M  V30 41699 O 4079.08 -1.71655 1.5082 0
M  V30 41700 C 4079.29 1.43608 3.18085 0
M  V30 41701 C 4080.64 1.59101 3.93665 0
M  V30 41702 O 4081.66 1.39721 3.27653 0
M  V30 41703 O 4080.52 1.91024 5.12027 0
M  V30 41704 H 4077.62 0.255496 0.786544 0
M  V30 41705 H 4080.16 1.179 1.22056 0
M  V30 41706 H 4078.94 2.46983 3.03505 0
M  V30 41707 H 4078.56 0.964719 3.85719 0
M  V30 41708 N 4079.56 -1.31901 0.862549 0
M  V30 41709 C 4080.78 -2.01158 0.484042 0
M  V30 41710 C 4081.2 -1.64787 -0.921451 0
M  V30 41711 O 4080.56 -0.873244 -1.60252 0
M  V30 41712 C 4080.61 -3.56095 0.622771 0
M  V30 41713 O 4080.33 -3.91162 1.97291 0
M  V30 41714 C 4081.83 -4.42626 0.244303 0
M  V30 41715 H 4079.05 -0.643718 0.189389 0
M  V30 41716 H 4081.59 -1.68302 1.16167 0
M  V30 41717 H 4079.75 -3.87399 -0.00721357 0
M  V30 41718 H 4080.16 -4.85881 1.97534 0
M  V30 41719 H 4081.64 -5.50604 0.39235 0
M  V30 41720 H 4082.11 -4.31554 -0.81593 0
M  V30 41721 H 4082.72 -4.16726 0.849683 0
M  V30 41722 N 4081.03 -0.621255 -1.44838 0
M  V30 41723 C 4081.94 0.0910154 -2.34423 0
M  V30 41724 C 4082.96 0.846094 -1.52044 0
M  V30 41725 O 4084.14 0.800593 -1.84804 0
M  V30 41726 C 4081.2 1.0669 -3.29876 0
M  V30 41727 C 4080.26 0.312279 -4.28163 0
M  V30 41728 C 4079.5 1.24167 -5.19055 0
M  V30 41729 O 4079.72 2.48005 -5.13663 0
M  V30 41730 O 4078.65 0.731337 -5.9744 0
M  V30 41731 H 4082.48 -0.645545 -2.9676 0
M  V30 41732 H 4080.06 -0.381471 -1.44448 0
M  V30 41733 H 4081.95 1.6286 -3.88657 0
M  V30 41734 H 4080.62 1.78425 -2.70086 0
M  V30 41735 H 4079.53 -0.292227 -3.72957 0
M  V30 41736 H 4080.86 -0.364849 -4.90846 0
M  V30 41737 N 4082.51 1.53405 -0.361211 0
M  V30 41738 C 4083.76 2.01489 0.230187 0
M  V30 41739 C 4084.09 1.24817 1.48776 0
M  V30 41740 O 4083.37 0.340645 1.91494 0
M  V30 41741 C 4083.65 3.5623 0.52655 0
M  V30 41742 C 4083.5 4.43598 -0.744355 0
M  V30 41743 C 4084.82 4.19556 1.32893 0
M  V30 41744 H 4081.94 0.732403 0.082188 0
M  V30 41745 H 4084.58 1.83699 -0.48524 0
M  V30 41746 H 4082.73 3.71519 1.13603 0
M  V30 41747 H 4084.4 4.40113 -1.38195 0
M  V30 41748 H 4082.65 4.11744 -1.36562 0
M  V30 41749 H 4083.32 5.49803 -0.49201 0
M  V30 41750 H 4085.79 4.08072 0.813403 0
M  V30 41751 H 4084.67 5.27863 1.50504 0
M  V30 41752 H 4084.93 3.75333 2.33619 0
M  V30 41753 N 4083.99 0.0902663 1.57341 0
M  V30 41754 C 4085.22 -0.583091 1.98514 0
M  V30 41755 C 4085.63 -1.62022 0.969236 0
M  V30 41756 O 4084.99 -1.82452 -0.0417829 0
M  V30 41757 C 4085.04 -1.23514 3.39745 0
M  V30 41758 O 4084.76 -0.239491 4.37445 0
M  V30 41759 C 4086.26 -1.99456 3.95894 0
M  V30 41760 H 4083.48 -0.15669 0.652449 0
M  V30 41761 H 4086.03 0.168128 2.03808 0
M  V30 41762 H 4084.18 -1.93732 3.3548 0
M  V30 41763 H 4084.6 -0.709528 5.19679 0
M  V30 41764 H 4086.07 -2.40445 4.9688 0
M  V30 41765 H 4086.55 -2.8585 3.33446 0
M  V30 41766 H 4087.15 -1.34065 4.03617 0
M  V30 41767 N 4085.47 -1.56529 -0.183403 0
M  V30 41768 C 4086.88 -1.50376 -0.534707 0
M  V30 41769 C 4087.08 -0.792391 -1.85266 0
M  V30 41770 O 4086.14 -0.347744 -2.50094 0
M  V30 41771 C 4087.45 -2.9508 -0.578634 0
M  V30 41772 C 4089 -3.05818 -0.666667 0
M  V30 41773 C 4089.48 -4.51956 -0.741597 0
M  V30 41774 N 4090.97 -4.56155 -0.804812 0
M  V30 41775 C 4091.7 -5.66558 -0.883157 0
M  V30 41776 N 4091.2 -6.86623 -0.923082 0
M  V30 41777 N 4092.99 -5.54499 -0.921248 0
M  V30 41778 H 4085.14 -2.01188 0.680955 0
M  V30 41779 H 4087.41 -0.916049 0.244045 0
M  V30 41780 H 4087.11 -3.50233 0.320878 0
M  V30 41781 H 4086.99 -3.49071 -1.42931 0
M  V30 41782 H 4089.37 -2.50707 -1.55661 0
M  V30 41783 H 4089.45 -2.54933 0.210447 0
M  V30 41784 H 4089.1 -5.07696 0.144038 0
M  V30 41785 H 4089.03 -5.00585 -1.63468 0
M  V30 41786 H 4091.52 -3.69705 -0.782731 0
M  V30 41787 H 4091.83 -7.66514 -0.983701 0
M  V30 41788 H 4090.18 -6.89258 -0.891562 0
M  V30 41789 H 4093.37 -4.5962 -0.886975 0
M  V30 41790 H 4093.54 -6.40564 -0.978845 0
M  V30 41791 N 4086.95 0.451537 -1.50993 0
M  V30 41792 C 4087.86 1.57247 -1.74099 0
M  V30 41793 C 4088.87 1.624 -0.624692 0
M  V30 41794 O 4090.05 1.79906 -0.905312 0
M  V30 41795 C 4087.11 2.93335 -1.84813 0
M  V30 41796 C 4086.17 2.98413 -3.08623 0
M  V30 41797 C 4085.41 4.2801 -3.18816 0
M  V30 41798 O 4085.63 5.19606 -2.353 0
M  V30 41799 O 4084.56 4.39082 -4.11693 0
M  V30 41800 H 4088.39 1.40668 -2.69158 0
M  V30 41801 H 4085.98 0.633081 -1.35323 0
M  V30 41802 H 4087.86 3.74126 -1.93927 0
M  V30 41803 H 4086.53 3.10071 -0.929398 0
M  V30 41804 H 4085.44 2.16628 -3.04997 0
M  V30 41805 H 4086.77 2.86618 -4.00139 0
M  V30 41806 N 4088.42 1.409 0.706044 0
M  V30 41807 C 4089.67 1.40902 1.46691 0
M  V30 41808 C 4090.03 0.0139917 1.92395 0
M  V30 41809 O 4089.32 -0.958214 1.65918 0
M  V30 41810 C 4089.51 2.34121 2.70041 0
M  V30 41811 C 4089.34 3.8255 2.36402 0
M  V30 41812 C 4088.11 4.51302 2.27276 0
M  V30 41813 C 4090.31 4.73797 2.00052 0
M  V30 41814 N 4088.29 5.84913 1.86412 0
M  V30 41815 C 4089.66 5.96277 1.69865 0
M  V30 41816 C 4091.72 4.61542 1.86771 0
M  V30 41817 C 4090.42 7.07868 1.27731 0
M  V30 41818 C 4092.45 5.73084 1.46042 0
M  V30 41819 C 4091.81 6.94656 1.16758 0
M  V30 41820 H 4087.91 0.570833 0.534484 0
M  V30 41821 H 4090.49 1.76689 0.817879 0
M  V30 41822 H 4088.66 2.00447 3.32679 0
M  V30 41823 H 4090.39 2.24915 3.36445 0
M  V30 41824 H 4087.15 4.05105 2.4533 0
M  V30 41825 H 4087.57 6.55698 1.68492 0
M  V30 41826 H 4092.22 3.68059 2.08069 0
M  V30 41827 H 4089.93 8.01226 1.05177 0
M  V30 41828 H 4093.52 5.65602 1.3633 0
M  V30 41829 H 4092.4 7.79501 0.857172 0
M  V30 41830 N 4089.9 -0.939242 1.26554 0
M  V30 41831 C 4091.13 -1.71749 1.14829 0
M  V30 41832 C 4091.54 -1.86823 -0.298948 0
M  V30 41833 O 4090.88 -1.37661 -1.21635 0
M  V30 41834 C 4090.95 -3.14219 1.74661 0
M  V30 41835 C 4090.61 -3.22523 3.23771 0
M  V30 41836 C 4091.61 -3.05652 4.20562 0
M  V30 41837 C 4089.29 -3.45851 3.64269 0
M  V30 41838 C 4091.29 -3.1198 5.5583 0
M  V30 41839 C 4088.97 -3.51814 4.9967 0
M  V30 41840 C 4089.97 -3.34895 5.9526 0
M  V30 41841 O 4089.66 -3.4057 7.28195 0
M  V30 41842 H 4089.39 -0.544498 0.400622 0
M  V30 41843 H 4091.94 -1.18586 1.6771 0
M  V30 41844 H 4090.17 -3.68814 1.16245 0
M  V30 41845 H 4091.86 -3.73965 1.57814 0
M  V30 41846 H 4092.63 -2.87483 3.90613 0
M  V30 41847 H 4088.51 -3.58076 2.9035 0
M  V30 41848 H 4092.05 -2.98692 6.3042 0
M  V30 41849 H 4087.95 -3.69504 5.2928 0
M  V30 41850 H 4088.72 -3.57101 7.36493 0
M  V30 41851 N 4091.38 -1.08389 -1.14409 0
M  V30 41852 C 4092.31 -0.671604 -2.1914 0
M  V30 41853 C 4093.33 0.281228 -1.60353 0
M  V30 41854 O 4094.51 0.0689108 -1.78367 0
M  V30 41855 C 4091.61 0.0325851 -3.38884 0
M  V30 41856 C 4090.79 -0.939099 -4.272 0
M  V30 41857 C 4089.85 -0.270268 -5.25505 0
M  V30 41858 O 4088.87 -0.91462 -5.61804 0
M  V30 41859 N 4090.07 0.979901 -5.7217 0
M  V30 41860 H 4092.84 -1.57258 -2.55127 0
M  V30 41861 H 4090.4 -0.969954 -1.29628 0
M  V30 41862 H 4092.39 0.490964 -4.01711 0
M  V30 41863 H 4090.96 0.835655 -3.01223 0
M  V30 41864 H 4090.18 -1.57632 -3.61311 0
M  V30 41865 H 4091.47 -1.59754 -4.83069 0
M  V30 41866 H 4090.87 1.52315 -5.44809 0
M  V30 41867 H 4089.43 1.38178 -6.36985 0
M  V30 41868 N 4092.86 1.31442 -0.869532 0
M  V30 41869 C 4093.79 2.27456 -0.282209 0
M  V30 41870 C 4094.8 1.53066 0.554503 0
M  V30 41871 O 4095.99 1.74483 0.376567 0
M  V30 41872 C 4093.09 3.33207 0.618593 0
M  V30 41873 C 4092.27 4.37006 -0.185582 0
M  V30 41874 C 4091.32 5.22253 0.643291 0
M  V30 41875 O 4090.35 5.69155 0.0714827 0
M  V30 41876 N 4091.55 5.46577 1.95536 0
M  V30 41877 H 4094.32 2.78494 -1.10731 0
M  V30 41878 H 4091.88 1.44459 -0.730972 0
M  V30 41879 H 4093.87 3.87152 1.17879 0
M  V30 41880 H 4092.44 2.82215 1.34437 0
M  V30 41881 H 4091.66 3.8314 -0.927223 0
M  V30 41882 H 4092.95 5.03428 -0.737399 0
M  V30 41883 H 4092.35 5.10227 2.44306 0
M  V30 41884 H 4090.9 6.03459 2.46334 0
M  V30 41885 N 4094.34 0.628927 1.44507 0
M  V30 41886 C 4095.56 0.139546 2.06429 0
M  V30 41887 C 4095.98 -1.18496 1.46983 0
M  V30 41888 O 4095.34 -1.72635 0.591886 0
M  V30 41889 C 4095.39 0.0162586 3.61496 0
M  V30 41890 O 4095.11 1.28838 4.18727 0
M  V30 41891 C 4096.61 -0.502077 4.40448 0
M  V30 41892 H 4093.83 0.0786596 0.666374 0
M  V30 41893 H 4096.37 0.862707 1.85412 0
M  V30 41894 H 4094.53 -0.657331 3.81783 0
M  V30 41895 H 4094.94 1.1318 5.12143 0
M  V30 41896 H 4096.42 -0.537361 5.49378 0
M  V30 41897 H 4096.89 -1.52869 4.11738 0
M  V30 41898 H 4097.5 0.138188 4.25075 0
M  V30 41899 N 4095.82 -1.53211 0.369342 0
M  V30 41900 C 4096.77 -2.22631 -0.491879 0
M  V30 41901 C 4097.75 -1.22288 -1.04568 0
M  V30 41902 O 4098.94 -1.47719 -0.975099 0
M  V30 41903 C 4096.07 -3.02184 -1.62911 0
M  V30 41904 C 4095.16 -4.09906 -1.08801 0
M  V30 41905 N 4095.55 -5.05078 -0.270202 0
M  V30 41906 C 4093.85 -4.2468 -1.36246 0
M  V30 41907 C 4094.55 -5.81694 0.0264898 0
M  V30 41908 N 4093.52 -5.40581 -0.572143 0
M  V30 41909 H 4097.32 -2.93568 0.139708 0
M  V30 41910 H 4094.84 -1.61426 0.17756 0
M  V30 41911 H 4096.84 -3.50437 -2.2583 0
M  V30 41912 H 4095.5 -2.32778 -2.26372 0
M  V30 41913 H 4096.51 -5.1782 0.0909068 0
M  V30 41914 H 4093.18 -3.66502 -1.99957 0
M  V30 41915 H 4094.57 -6.6837 0.687852 0
M  V30 41916 N 4097.29 -0.0986092 -1.57291 0
M  V30 41917 C 4098.2 0.873206 -2.17744 0
M  V30 41918 C 4099.22 1.30768 -1.14786 0
M  V30 41919 O 4100.4 1.37487 -1.47171 0
M  V30 41920 C 4097.46 2.11303 -2.74867 0
M  V30 41921 C 4096.52 1.73243 -3.92792 0
M  V30 41922 C 4095.75 2.91314 -4.47182 0
M  V30 41923 O 4095.98 4.06144 -4.00504 0
M  V30 41924 O 4094.91 2.69577 -5.38156 0
M  V30 41925 H 4098.74 0.388849 -3.012 0
M  V30 41926 H 4096.32 0.125929 -1.48868 0
M  V30 41927 H 4098.2 2.83955 -3.11364 0
M  V30 41928 H 4096.88 2.58784 -1.94454 0
M  V30 41929 H 4095.79 0.977599 -3.61101 0
M  V30 41930 H 4097.12 1.30521 -4.74579 0
M  V30 41931 N 4098.77 1.56624 0.175099 0
M  V30 41932 C 4099.7 1.92675 1.24134 0
M  V30 41933 C 4100.72 0.819442 1.40673 0
M  V30 41934 O 4101.91 1.09788 1.40744 0
M  V30 41935 C 4099.01 2.16105 2.61059 0
M  V30 41936 C 4098.18 3.47323 2.65868 0
M  V30 41937 C 4097.24 3.59625 3.8413 0
M  V30 41938 O 4096.26 4.32277 3.70304 0
M  V30 41939 N 4097.47 2.94194 5.0043 0
M  V30 41940 H 4100.23 2.84736 0.935167 0
M  V30 41941 H 4097.79 1.57734 0.364891 0
M  V30 41942 H 4099.78 2.21603 3.38636 0
M  V30 41943 H 4098.35 1.30445 2.84082 0
M  V30 41944 H 4097.57 3.53515 1.74415 0
M  V30 41945 H 4098.86 4.33676 2.66088 0
M  V30 41946 H 4098.26 2.35033 5.14564 0
M  V30 41947 H 4096.82 3.05294 5.75881 0
M  V30 41948 N 4100.25 -0.443523 1.5123 0
M  V30 41949 C 4101.18 -1.55606 1.68284 0
M  V30 41950 C 4102.19 -1.52732 0.563616 0
M  V30 41951 O 4103.38 -1.57621 0.837734 0
M  V30 41952 C 4100.48 -2.94521 1.67663 0
M  V30 41953 C 4099.66 -3.21966 2.96068 0
M  V30 41954 C 4098.72 -4.40573 2.87718 0
M  V30 41955 O 4097.74 -4.39529 3.61666 0
M  V30 41956 N 4098.94 -5.43794 2.03147 0
M  V30 41957 H 4101.71 -1.41384 2.64255 0
M  V30 41958 H 4099.27 -0.632372 1.49039 0
M  V30 41959 H 4101.26 -3.71878 1.59652 0
M  V30 41960 H 4099.83 -3.02371 0.793114 0
M  V30 41961 H 4099.05 -2.32966 3.17995 0
M  V30 41962 H 4100.34 -3.37128 3.8108 0
M  V30 41963 H 4099.74 -5.47476 1.42432 0
M  V30 41964 H 4098.29 -6.20027 2.0102 0
M  V30 41965 N 4101.73 -1.41272 -0.698562 0
M  V30 41966 C 4102.66 -1.38814 -1.82383 0
M  V30 41967 C 4103.67 -0.29078 -1.60182 0
M  V30 41968 O 4104.86 -0.552302 -1.69741 0
M  V30 41969 C 4101.96 -1.1416 -3.19093 0
M  V30 41970 C 4101.13 -2.35879 -3.68348 0
M  V30 41971 C 4100.19 -2.07127 -4.8372 0
M  V30 41972 O 4099.22 -2.80141 -4.9549 0
M  V30 41973 N 4100.42 -1.05968 -5.70746 0
M  V30 41974 H 4103.19 -2.35798 -1.84985 0
M  V30 41975 H 4100.75 -1.35846 -0.880769 0
M  V30 41976 H 4102.74 -0.928832 -3.93897 0
M  V30 41977 H 4101.31 -0.257838 -3.11535 0
M  V30 41978 H 4100.53 -2.72877 -2.84485 0
M  V30 41979 H 4101.82 -3.16984 -3.97993 0
M  V30 41980 H 4101.22 -0.455323 -5.63865 0
M  V30 41981 H 4099.77 -0.906802 -6.45461 0
M  V30 41982 N 4103.21 0.932517 -1.27051 0
M  V30 41983 C 4104.14 2.03655 -1.05154 0
M  V30 41984 C 4105.15 1.62797 -0.00916858 0
M  V30 41985 O 4106.34 1.76738 -0.250201 0
M  V30 41986 C 4103.44 3.34036 -0.572129 0
M  V30 41987 C 4102.61 4.03612 -1.6857 0
M  V30 41988 C 4101.67 5.12267 -1.20285 0
M  V30 41989 O 4100.7 5.36496 -1.9016 0
M  V30 41990 N 4101.9 5.80473 -0.0559119 0
M  V30 41991 H 4104.66 2.23002 -2.00225 0
M  V30 41992 H 4102.23 1.10258 -1.18553 0
M  V30 41993 H 4104.22 4.04028 -0.233107 0
M  V30 41994 H 4102.79 3.11296 0.28522 0
M  V30 41995 H 4102.01 3.27418 -2.19524 0
M  V30 41996 H 4103.3 4.46847 -2.43321 0
M  V30 41997 H 4102.69 5.63236 0.527417 0
M  V30 41998 H 4101.25 6.51415 0.223968 0
M  V30 41999 N 4104.68 1.08995 1.13833 0
M  V30 42000 C 4105.61 0.747109 2.21225 0
M  V30 42001 C 4106.59 -0.273203 1.67892 0
M  V30 42002 O 4107.78 -0.142244 1.93678 0
M  V30 42003 C 4104.91 0.162089 3.46922 0
M  V30 42004 C 4103.86 1.11142 4.13318 0
M  V30 42005 C 4103.19 0.388321 5.33288 0
M  V30 42006 C 4104.49 2.45203 4.61165 0
M  V30 42007 H 4106.18 1.64501 2.5016 0
M  V30 42008 H 4103.73 0.79239 1.20238 0
M  V30 42009 H 4105.68 -0.0898013 4.21304 0
M  V30 42010 H 4104.41 -0.77098 3.1737 0
M  V30 42011 H 4103.07 1.34851 3.40897 0
M  V30 42012 H 4102.71 -0.548744 4.99998 0
M  V30 42013 H 4102.41 1.02125 5.78657 0
M  V30 42014 H 4103.94 0.144626 6.10429 0
M  V30 42015 H 4105.35 2.25727 5.26992 0
M  V30 42016 H 4103.75 3.04244 5.17258 0
M  V30 42017 H 4104.82 3.0629 3.75918 0
M  V30 42018 N 4106.16 -1.30979 0.87649 0
M  V30 42019 C 4107.11 -2.303 0.326292 0
M  V30 42020 C 4108.1 -1.59801 -0.56214 0
M  V30 42021 O 4109.31 -1.74348 -0.447516 0
M  V30 42022 H 4105.68 -0.746968 0.0868456 0
M  V30 42023 H 4107.66 -2.74173 1.17779 0
M  V30 42024 C 4106.4 -3.44755 -0.451619 0
M  V30 42025 H 4105.73 -3.99179 0.222751 0
M  V30 42026 H 4107.17 -4.16349 -0.801826 0
M  V30 42027 C 4105.63 -2.93986 -1.64542 0
M  V30 42028 O 4106.16 -2.93301 -2.74477 0
M  V30 42029 N 4104.36 -2.50104 -1.47974 0
M  V30 42030 H 4103.91 -2.5086 -0.585403 0
M  V30 42031 H 4103.87 -2.16492 -2.27988 0
M  V30 42032 N 4107.64 -0.636582 -1.44171 0
M  V30 42033 C 4108.89 -0.143464 -2.02292 0
M  V30 42034 C 4109.22 1.23346 -1.49998 0
M  V30 42035 O 4108.49 1.81991 -0.68626 0
M  V30 42036 C 4108.78 -0.136088 -3.59843 0
M  V30 42037 C 4108.63 -1.54574 -4.22406 0
M  V30 42038 C 4109.95 0.536461 -4.36818 0
M  V30 42039 H 4107.07 -0.0536068 -0.735048 0
M  V30 42040 H 4109.71 -0.814096 -1.71675 0
M  V30 42041 H 4107.86 0.43498 -3.86057 0
M  V30 42042 H 4109.53 -2.16611 -4.0728 0
M  V30 42043 H 4107.77 -2.098 -3.79692 0
M  V30 42044 H 4108.45 -1.49257 -5.31438 0
M  V30 42045 H 4110.92 0.0507595 -4.16069 0
M  V30 42046 H 4109.8 0.51083 -5.46518 0
M  V30 42047 H 4110.06 1.60776 -4.11829 0
M  V30 42048 N 4109.12 1.53013 -0.377462 0
M  V30 42049 C 4110.05 2.29023 0.455063 0
M  V30 42050 C 4111.03 1.31928 1.07373 0
M  V30 42051 O 4112.21 1.60811 1.08874 0
M  V30 42052 C 4109.34 3.08829 1.58878 0
M  V30 42053 C 4108.3 4.13709 1.09676 0
M  V30 42054 C 4107.62 4.81668 2.32163 0
M  V30 42055 C 4108.92 5.22013 0.173073 0
M  V30 42056 H 4110.62 2.98864 -0.179105 0
M  V30 42057 H 4108.16 1.43733 -0.0875802 0
M  V30 42058 H 4110.12 3.60756 2.17792 0
M  V30 42059 H 4108.84 2.36699 2.25036 0
M  V30 42060 H 4107.5 3.62745 0.530227 0
M  V30 42061 H 4107.15 4.06099 2.96804 0
M  V30 42062 H 4106.85 5.52549 1.99909 0
M  V30 42063 H 4108.37 5.36395 2.91742 0
M  V30 42064 H 4109.79 5.69371 0.670045 0
M  V30 42065 H 4108.18 6.00071 -0.0591518 0
M  V30 42066 H 4109.25 4.78562 -0.781423 0
M  V30 42067 N 4110.6 0.106949 1.57237 0
M  V30 42068 C 4111.84 -0.554768 1.95065 0
M  V30 42069 C 4112.18 -1.67093 0.989626 0
M  V30 42070 O 4111.45 -1.94484 0.0247199 0
M  V30 42071 C 4111.73 -1.09881 3.42926 0
M  V30 42072 C 4111.59 0.0131048 4.49798 0
M  V30 42073 C 4112.91 -1.99349 3.92362 0
M  V30 42074 H 4110.02 -0.200191 0.70929 0
M  V30 42075 H 4112.67 0.180065 1.89145 0
M  V30 42076 H 4110.82 -1.72504 3.48101 0
M  V30 42077 H 4112.49 0.647885 4.56728 0
M  V30 42078 H 4110.73 0.677901 4.2847 0
M  V30 42079 H 4111.4 -0.408584 5.50486 0
M  V30 42080 H 4113.88 -1.46615 3.89414 0
M  V30 42081 H 4112.75 -2.34338 4.96364 0
M  V30 42082 H 4113.02 -2.91543 3.32348 0
M  V30 42083 N 4112.07 -1.56715 -0.166791 0
M  V30 42084 C 4113 -1.9979 -1.20857 0
M  V30 42085 C 4113.99 -0.874204 -1.45917 0
M  V30 42086 O 4115.17 -1.14061 -1.57174 0
M  V30 42087 C 4112.3 -2.36165 -2.54644 0
M  V30 42088 C 4111.25 -3.51536 -2.44144 0
M  V30 42089 C 4110.58 -3.73667 -3.82462 0
M  V30 42090 C 4111.88 -4.84842 -1.94231 0
M  V30 42091 H 4113.57 -2.87066 -0.850488 0
M  V30 42092 H 4111.12 -1.38109 -0.407671 0
M  V30 42093 H 4113.07 -2.64897 -3.27731 0
M  V30 42094 H 4111.8 -1.45802 -2.92249 0
M  V30 42095 H 4110.46 -3.22939 -1.73511 0
M  V30 42096 H 4110.1 -2.80587 -4.17468 0
M  V30 42097 H 4109.8 -4.51297 -3.76304 0
M  V30 42098 H 4111.33 -4.04804 -4.57128 0
M  V30 42099 H 4112.74 -5.1242 -2.57096 0
M  V30 42100 H 4111.14 -5.6614 -1.99011 0
M  V30 42101 H 4112.21 -4.76534 -0.896866 0
M  V30 42102 N 4113.55 0.435497 -1.51463 0
M  V30 42103 C 4114.52 1.51126 -1.72318 0
M  V30 42104 C 4115.52 1.49459 -0.593187 0
M  V30 42105 O 4116.71 1.51448 -0.860757 0
M  V30 42106 C 4113.84 2.90657 -1.78132 0
M  V30 42107 H 4115.03 1.33939 -2.68329 0
M  V30 42108 H 4112.58 0.664292 -1.41481 0
M  V30 42109 H 4113.32 3.13248 -0.839422 0
M  V30 42110 H 4113.1 2.93273 -2.60257 0
M  V30 42111 H 4114.59 3.68693 -1.96099 0
M  V30 42112 N 4115.03 1.41641 0.69106 0
M  V30 42113 C 4116.26 1.44806 1.48478 0
M  V30 42114 C 4116.68 0.0561936 1.88016 0
M  V30 42115 O 4116.04 -0.94163 1.54929 0
M  V30 42116 C 4116.09 2.36655 2.72079 0
M  V30 42117 O 4115.19 1.8267 3.69737 0
M  V30 42118 H 4114.53 0.491274 0.446705 0
M  V30 42119 H 4117.06 1.86152 0.849043 0
M  V30 42120 H 4117.07 2.52683 3.20336 0
M  V30 42121 H 4115.75 3.37786 2.42639 0
M  V30 42122 H 4114.32 1.76114 3.28692 0
M  V30 42123 N 4116.51 -0.925766 1.27543 0
M  V30 42124 C 4117.73 -1.71299 1.16924 0
M  V30 42125 C 4118.16 -1.86151 -0.27005 0
M  V30 42126 O 4117.52 -1.36295 -1.19555 0
M  V30 42127 C 4117.56 -3.0893 1.85996 0
M  V30 42128 O 4116.67 -3.95772 1.15924 0
M  V30 42129 H 4116.01 -0.524988 0.406551 0
M  V30 42130 H 4118.54 -1.1584 1.68648 0
M  V30 42131 H 4118.55 -3.59233 1.9343 0
M  V30 42132 H 4117.22 -2.97437 2.90695 0
M  V30 42133 H 4115.8 -3.54211 1.16571 0
M  V30 42134 N 4117.99 -1.09597 -1.13253 0
M  V30 42135 C 4119.21 -0.855137 -1.8895 0
M  V30 42136 C 4119.64 0.588143 -1.78669 0
M  V30 42137 O 4118.99 1.41339 -1.13547 0
M  V30 42138 C 4119.04 -1.29723 -3.36458 0
M  V30 42139 O 4118.15 -0.456789 -4.09862 0
M  V30 42140 H 4117.49 -0.309557 -0.587427 0
M  V30 42141 H 4120.02 -1.46055 -1.4328 0
M  V30 42142 H 4120.03 -1.2834 -3.87289 0
M  V30 42143 H 4118.7 -2.34832 -3.43259 0
M  V30 42144 H 4117.28 -0.535091 -3.69041 0
M  V30 42145 N 4119.46 1.30512 -0.883424 0
M  V30 42146 C 4120.69 2.00363 -0.515983 0
M  V30 42147 C 4121.11 1.66232 0.895119 0
M  V30 42148 O 4120.46 0.898628 1.58842 0
M  V30 42149 C 4120.52 3.55059 -0.679344 0
M  V30 42150 O 4120.24 3.87974 -2.03489 0
M  V30 42151 C 4121.74 4.42182 -0.31469 0
M  V30 42152 H 4118.96 0.640623 -0.199606 0
M  V30 42153 H 4121.5 1.66432 -1.1883 0
M  V30 42154 H 4119.66 3.87362 -0.0544192 0
M  V30 42155 H 4120.07 4.82677 -2.05239 0
M  V30 42156 H 4121.54 5.4991 -0.479897 0
M  V30 42157 H 4122.02 4.32798 0.747171 0
M  V30 42158 H 4122.63 4.15321 -0.915873 0
M  V30 42159 N 4120.94 0.644219 1.43832 0
M  V30 42160 C 4122.19 0.15419 2.02213 0
M  V30 42161 C 4122.52 -1.22548 1.5065 0
M  V30 42162 O 4121.8 -1.81624 0.695902 0
M  V30 42163 C 4122.08 0.15517 3.59766 0
M  V30 42164 C 4121.93 1.56812 4.21581 0
M  V30 42165 C 4123.25 -0.513288 4.37097 0
M  V30 42166 H 4120.37 0.0575042 0.734753 0
M  V30 42167 H 4123.01 0.823189 1.71241 0
M  V30 42168 H 4121.16 -0.4145 3.86282 0
M  V30 42169 H 4122.83 2.18768 4.06126 0
M  V30 42170 H 4121.08 2.11811 3.78575 0
M  V30 42171 H 4121.75 1.52073 5.30639 0
M  V30 42172 H 4124.22 -0.0286937 4.1609 0
M  V30 42173 H 4123.1 -0.48184 5.46781 0
M  V30 42174 H 4123.36 -1.5859 4.12676 0
M  V30 42175 N 4122.42 -1.52811 0.385571 0
M  V30 42176 C 4123.67 -2.0183 -0.198102 0
M  V30 42177 C 4124 -1.27168 -1.46772 0
M  V30 42178 O 4123.27 -0.371067 -1.90928 0
M  V30 42179 C 4123.56 -3.57022 -0.46981 0
M  V30 42180 C 4123.41 -4.42358 0.814834 0
M  V30 42181 C 4124.73 -4.21617 -1.26202 0
M  V30 42182 H 4121.85 -0.733618 -0.0705257 0
M  V30 42183 H 4124.49 -1.82904 0.514404 0
M  V30 42184 H 4122.64 -3.7328 -1.07678 0
M  V30 42185 H 4124.31 -4.37859 1.4518 0
M  V30 42186 H 4122.56 -4.09519 1.43095 0
M  V30 42187 H 4123.23 -5.48951 0.579416 0
M  V30 42188 H 4125.7 -4.09315 -0.748379 0
M  V30 42189 H 4124.58 -5.30191 -1.42087 0
M  V30 42190 H 4124.84 -3.79002 -2.27618 0
M  V30 42191 N 4123.9 -0.115287 -1.57178 0
M  V30 42192 C 4124.83 0.873461 -2.10822 0
M  V30 42193 C 4125.81 1.2633 -1.0237 0
M  V30 42194 O 4126.99 1.365 -1.3 0
M  V30 42195 C 4124.12 2.16842 -2.60187 0
M  V30 42196 C 4123.17 1.92693 -3.80489 0
M  V30 42197 S 4124 1.14657 -5.23081 0
M  V30 42198 C 4125.16 2.45341 -5.75811 0
M  V30 42199 H 4125.39 0.417167 -2.94359 0
M  V30 42200 H 4122.92 0.0984146 -1.54086 0
M  V30 42201 H 4124.88 2.91248 -2.89283 0
M  V30 42202 H 4123.54 2.5959 -1.76839 0
M  V30 42203 H 4122.73 2.88636 -4.13165 0
M  V30 42204 H 4122.34 1.26409 -3.5199 0
M  V30 42205 H 4124.63 3.41202 -5.8531 0
M  V30 42206 H 4125.57 2.17214 -6.73961 0
M  V30 42207 H 4125.98 2.54538 -5.03856 0
M  V30 42208 N 4125.38 1.56801 0.158477 0
M  V30 42209 C 4126.31 1.9398 1.22083 0
M  V30 42210 C 4127.32 0.834316 1.39796 0
M  V30 42211 O 4128.51 1.11275 1.39571 0
M  V30 42212 C 4125.61 2.18861 2.58753 0
M  V30 42213 C 4124.78 3.50123 2.62169 0
M  V30 42214 C 4123.84 3.63679 3.80294 0
M  V30 42215 O 4122.87 4.36181 3.65698 0
M  V30 42216 N 4124.07 2.99486 4.97281 0
M  V30 42217 H 4126.84 2.85712 0.904914 0
M  V30 42218 H 4124.4 1.58113 0.348141 0
M  V30 42219 H 4126.39 2.25183 3.36266 0
M  V30 42220 H 4124.96 1.33451 2.82683 0
M  V30 42221 H 4124.18 3.55345 1.70656 0
M  V30 42222 H 4125.47 4.36474 2.61473 0
M  V30 42223 H 4124.87 2.40478 5.12042 0
M  V30 42224 H 4123.42 3.11385 5.72611 0
M  V30 42225 N 4126.86 -0.427458 1.51692 0
M  V30 42226 C 4128.13 -1.1879 1.55397 0
M  V30 42227 C 4128.51 -2.08598 0.324073 0
M  V30 42228 O 4127.86 -2.17825 -0.690254 0
M  V30 42229 C 4128.07 -1.98116 2.87317 0
M  V30 42230 C 4129.42 -2.54818 3.39637 0
M  V30 42231 O 4130.44 -2.08316 2.88934 0
M  V30 42232 O 4129.3 -3.39656 4.28131 0
M  V30 42233 H 4126.4 -0.541365 0.625182 0
M  V30 42234 H 4128.94 -0.435725 1.64011 0
M  V30 42235 H 4127.71 -1.32215 3.68286 0
M  V30 42236 H 4127.34 -2.80378 2.81911 0
M  V30 42237 N 4128.33 -1.42005 -0.683539 0
M  V30 42238 C 4129.24 -1.47183 -1.82686 0
M  V30 42239 C 4130.26 -0.361328 -1.70207 0
M  V30 42240 O 4131.44 -0.6109 -1.91911 0
M  V30 42241 C 4128.5 -1.36346 -3.18764 0
M  V30 42242 C 4127.56 -2.57814 -3.43265 0
M  V30 42243 C 4126.79 -2.47484 -4.7285 0
M  V30 42244 O 4127.02 -1.50594 -5.50161 0
M  V30 42245 O 4125.95 -3.37461 -4.98401 0
M  V30 42246 H 4129.78 -2.43666 -1.81274 0
M  V30 42247 H 4127.36 -1.23674 -0.83816 0
M  V30 42248 H 4129.24 -1.32631 -3.99984 0
M  V30 42249 H 4127.92 -0.429837 -3.20833 0
M  V30 42250 H 4126.83 -2.67104 -2.61928 0
M  V30 42251 H 4128.16 -3.50045 -3.46019 0
M  V30 42252 N 4129.81 0.918989 -1.28033 0
M  V30 42253 C 4131.04 1.70677 -1.17831 0
M  V30 42254 C 4131.46 1.86292 0.260174 0
M  V30 42255 O 4130.82 1.36927 1.18831 0
M  V30 42256 C 4130.87 3.0794 -1.87631 0
M  V30 42257 O 4129.97 3.95152 -1.18021 0
M  V30 42258 H 4129.31 0.522825 -0.409329 0
M  V30 42259 H 4131.84 1.14944 -1.6926 0
M  V30 42260 H 4131.85 3.58203 -1.95333 0
M  V30 42261 H 4130.53 2.95892 -2.92269 0
M  V30 42262 H 4129.1 3.53588 -1.18448 0
M  V30 42263 N 4131.29 1.10196 1.12671 0
M  V30 42264 C 4132.54 0.842865 1.84125 0
M  V30 42265 C 4132.86 -0.631561 1.83961 0
M  V30 42266 O 4132.12 -1.48144 1.27874 0
M  V30 42267 C 4132.42 1.33328 3.316 0
M  V30 42268 C 4132.08 2.8187 3.51938 0
M  V30 42269 C 4130.75 3.22435 3.57196 0
M  V30 42270 C 4133.1 3.77604 3.59255 0
M  V30 42271 C 4130.43 4.5749 3.67315 0
M  V30 42272 C 4132.78 5.12459 3.70902 0
M  V30 42273 C 4131.44 5.52601 3.74417 0
M  V30 42274 H 4130.71 0.308426 0.673761 0
M  V30 42275 H 4133.36 1.37813 1.32966 0
M  V30 42276 H 4131.66 0.717986 3.85165 0
M  V30 42277 H 4133.36 1.10932 3.85351 0
M  V30 42278 H 4129.95 2.49483 3.48506 0
M  V30 42279 H 4134.14 3.47374 3.54465 0
M  V30 42280 H 4129.39 4.88017 3.68306 0
M  V30 42281 H 4133.57 5.86487 3.75508 0
M  V30 42282 H 4131.19 6.57246 3.82009 0
M  V30 42283 N 4132.77 -1.30042 0.890333 0
M  V30 42284 C 4134.18 -1.78064 0.561272 0
M  V30 42285 C 4134.53 -1.73146 -0.92276 0
M  V30 42286 O 4133.65 -1.3116 -1.72122 0
M  V30 42287 C 4134.25 -3.23331 1.01206 0
M  V30 42288 C 4132.81 -3.69167 0.734325 0
M  V30 42289 C 4131.96 -2.50371 1.19204 0
M  V30 42290 H 4134.91 -1.16836 1.07402 0
M  V30 42291 H 4134.93 -3.78948 0.343318 0
M  V30 42292 H 4134.44 -3.26878 2.09219 0
M  V30 42293 H 4132.54 -3.71104 -0.333585 0
M  V30 42294 H 4132.65 -4.60395 1.32564 0
M  V30 42295 H 4131.02 -2.47257 0.611243 0
M  V30 42296 H 4131.8 -2.56652 2.28001 0
M  V30 42297 N 4134.25 -0.651838 -1.43488 0
M  V30 42298 C 4135.21 0.0311534 -2.29179 0
M  V30 42299 C 4136.21 0.751928 -1.42136 0
M  V30 42300 O 4137.4 0.593387 -1.63782 0
M  V30 42301 C 4134.53 1.05484 -3.24169 0
M  V30 42302 H 4135.72 -0.722792 -2.9106 0
M  V30 42303 H 4133.28 -0.412994 -1.50745 0
M  V30 42304 H 4134.01 1.83807 -2.67181 0
M  V30 42305 H 4133.8 0.541684 -3.8834 0
M  V30 42306 H 4135.29 1.53186 -3.88489 0
M  V30 42307 N 4135.72 1.52604 -0.39367 0
M  V30 42308 C 4136.96 2.03544 0.186839 0
M  V30 42309 C 4137.33 1.27359 1.43679 0
M  V30 42310 O 4138.53 1.68446 2.09474 0
M  V30 42311 C 4136.8 3.54632 0.443943 0
M  V30 42312 S 4138.36 4.27391 0.994111 0
M  V30 42313 H 4135.18 0.709078 0.0522372 0
M  V30 42314 H 4137.78 1.87807 -0.543025 0
M  V30 42315 H 4136.48 4.07667 -0.472811 0
M  V30 42316 H 4136.01 3.74584 1.20211 0
M  V30 42317 H 4138.03 4.40918 2.27609 0
M  V30 42318 N 4137.2 0.12362 1.57114 0
M  V30 42319 C 4138.15 -0.824874 2.15556 0
M  V30 42320 C 4139.12 -1.26038 1.08183 0
M  V30 42321 O 4140.3 -1.33707 1.36114 0
M  V30 42322 C 4137.44 -2.06778 2.76291 0
M  V30 42323 C 4136.56 -1.68022 3.97986 0
M  V30 42324 C 4135.69 -2.87314 4.46793 0
M  V30 42325 C 4134.73 -2.44819 5.61008 0
M  V30 42326 N 4133.87 -3.57041 6.04538 0
M  V30 42327 H 4138.71 -0.319674 2.9628 0
M  V30 42328 H 4136.24 -0.146094 1.46373 0
M  V30 42329 H 4138.2 -2.79608 3.09637 0
M  V30 42330 H 4136.83 -2.54749 1.9825 0
M  V30 42331 H 4135.88 -0.850476 3.70771 0
M  V30 42332 H 4137.2 -1.32796 4.80798 0
M  V30 42333 H 4136.35 -3.68363 4.82072 0
M  V30 42334 H 4135.09 -3.2577 3.6294 0
M  V30 42335 H 4134.09 -1.62204 5.25328 0
M  V30 42336 H 4135.32 -2.07476 6.4663 0
M  V30 42337 H 4133.27 -3.95162 5.23625 0
M  V30 42338 H 4133.18 -3.25754 6.82217 0
M  V30 42339 H 4134.45 -4.38516 6.44456 0
M  V30 42340 N 4138.68 -1.56883 -0.15016 0
M  V30 42341 C 4139.93 -1.82366 -0.861717 0
M  V30 42342 C 4140.24 -0.704351 -1.82478 0
M  V30 42343 O 4141.45 -0.844694 -2.58026 0
M  V30 42344 C 4139.9 -3.23217 -1.58299 0
M  V30 42345 C 4139.51 -4.43074 -0.662499 0
M  V30 42346 C 4141.26 -3.57976 -2.28152 0
M  V30 42347 C 4139.16 -5.74948 -1.38522 0
M  V30 42348 H 4138.09 -0.680106 -0.325534 0
M  V30 42349 H 4140.74 -1.83143 -0.114473 0
M  V30 42350 H 4139.13 -3.16818 -2.37575 0
M  V30 42351 H 4140.3 -4.60702 0.094809 0
M  V30 42352 H 4138.61 -4.16337 -0.0725485 0
M  V30 42353 H 4141.21 -4.53758 -2.82857 0
M  V30 42354 H 4141.55 -2.8388 -3.04496 0
M  V30 42355 H 4142.09 -3.66022 -1.55798 0
M  V30 42356 H 4138.83 -6.52131 -0.663693 0
M  V30 42357 H 4138.35 -5.61261 -2.11532 0
M  V30 42358 H 4140.03 -6.17637 -1.92699 0
M  V30 42359 N 4140.16 0.419408 -1.51917 0
M  V30 42360 C 4141.07 1.53518 -1.77396 0
M  V30 42361 C 4142.08 1.61038 -0.658999 0
M  V30 42362 O 4143.26 1.77945 -0.943269 0
M  V30 42363 C 4140.33 2.89348 -1.90993 0
M  V30 42364 C 4139.39 2.918 -3.14883 0
M  V30 42365 C 4138.62 4.21151 -3.27823 0
M  V30 42366 O 4138.84 5.14498 -2.46269 0
M  V30 42367 O 4137.78 4.3025 -4.20913 0
M  V30 42368 H 4141.6 1.34927 -2.72082 0
M  V30 42369 H 4139.19 0.604235 -1.36636 0
M  V30 42370 H 4141.07 3.69929 -2.01819 0
M  V30 42371 H 4139.74 3.0803 -0.99496 0
M  V30 42372 H 4138.65 2.1011 -3.09523 0
M  V30 42373 H 4139.98 2.78066 -4.06128 0
M  V30 42374 N 4141.64 1.42366 0.675998 0
M  V30 42375 C 4142.88 1.42771 1.43606 0
M  V30 42376 C 4143.21 0.0437302 1.94451 0
M  V30 42377 O 4142.47 -0.947693 1.71223 0
M  V30 42378 C 4142.77 2.39796 2.65014 0
M  V30 42379 C 4142.43 3.86204 2.32717 0
M  V30 42380 C 4141.09 4.26084 2.2362 0
M  V30 42381 C 4143.45 4.7856 2.06469 0
M  V30 42382 C 4140.77 5.56302 1.86399 0
M  V30 42383 C 4143.13 6.09119 1.70752 0
M  V30 42384 C 4141.79 6.48 1.60164 0
M  V30 42385 H 4141.06 0.522438 0.52549 0
M  V30 42386 H 4143.71 1.75298 0.770901 0
M  V30 42387 H 4142.01 2.00593 3.36556 0
M  V30 42388 H 4143.71 2.37375 3.23194 0
M  V30 42389 H 4140.3 3.54629 2.40699 0
M  V30 42390 H 4144.48 4.48539 2.12431 0
M  V30 42391 H 4139.74 5.85288 1.7677 0
M  V30 42392 H 4143.91 6.80171 1.49467 0
M  V30 42393 H 4141.54 7.48812 1.31092 0
M  V30 42394 O 4143.15 -0.818546 1.3922 0
M  V30 42395 H 4143.84 -1.46226 1.27034 0
M  V30 END ATOM
M  V30 BEGIN BOND
M  V30 END BOND
M  V30 END CTAB
M  END
$$$$
