drugbank_target|P78540 Arginase-2, mitochondrial (DB00125; DB00129; DB03731)
 OpenBabel12092119393D

  0  0  0     0  0            999 V3000
M  V30 BEGIN CTAB
M  V30 COUNTS 5430 5486 0 0 0
M  V30 BEGIN ATOM
M  V30 1 H -0.908 1.98254 -0.117106 0
M  V30 2 N 0 1.576 0 0
M  V30 3 C 0.933 2.03868 1.02534 0
M  V30 4 C 1.911 0.928543 1.3348 0
M  V30 5 O 3.095 1.19667 1.45644 0
M  V30 6 C 0.222 2.43627 2.35294 0
M  V30 7 C -0.732 3.65373 2.2001 0
M  V30 8 S 0.101 5.13292 1.52614 0
M  V30 9 C 1.257 5.56322 2.86805 0
M  V30 10 H 1.49 2.90518 0.631377 0
M  V30 11 H -0.977 1.52953 0.210867 0
M  V30 12 H 0.981 2.67203 3.11629 0
M  V30 13 H -0.358 1.57376 2.7183 0
M  V30 14 H -1.165 3.90944 3.18086 0
M  V30 15 H -1.563 3.418 1.51819 0
M  V30 16 H 0.729 5.58782 3.83104 0
M  V30 17 H 1.672 6.56266 2.65933 0
M  V30 18 H 2.08 4.83886 2.90714 0
M  V30 19 N 1.4781 -0.272755 1.55222 0
M  V30 20 C 2.7031 -1.02683 1.80197 0
M  V30 21 C 3.1281 -1.79142 0.573551 0
M  V30 22 O 2.4861 -1.74917 -0.476849 0
M  V30 23 C 2.5341 -1.9609 3.02624 0
M  V30 24 O 1.6381 -3.04863 2.77727 0
M  V30 25 H 0.9791 -0.293557 0.595584 0
M  V30 26 H 3.5091 -0.30159 2.02365 0
M  V30 27 H 3.5191 -2.38039 3.31363 0
M  V30 28 H 2.1941 -1.39851 3.91682 0
M  V30 29 H 0.7711 -2.67228 2.60084 0
M  V30 30 N 2.9562 -1.48159 -0.537278 0
M  V30 31 C 3.8862 -1.65029 -1.6519 0
M  V30 32 C 4.8672 -0.499281 -1.62607 0
M  V30 33 O 6.0522 -0.730972 -1.79918 0
M  V30 34 C 3.1822 -1.68303 -3.03795 0
M  V30 35 C 2.1362 -2.8283 -3.21234 0
M  V30 36 C 1.4622 -2.71189 -4.60826 0
M  V30 37 C 2.7622 -4.24211 -3.04701 0
M  V30 38 H 4.4562 -2.58341 -1.51328 0
M  V30 39 H 2.0022 -1.24325 -0.726585 0
M  V30 40 H 3.9552 -1.78693 -3.81637 0
M  V30 41 H 2.6792 -0.715635 -3.18663 0
M  V30 42 H 1.3382 -2.71983 -2.45807 0
M  V30 43 H 0.9862 -1.72435 -4.7252 0
M  V30 44 H 0.6862 -3.48035 -4.7344 0
M  V30 45 H 2.2102 -2.83537 -5.40777 0
M  V30 46 H 3.6242 -4.3593 -3.72341 0
M  V30 47 H 2.0212 -5.01998 -3.28813 0
M  V30 48 H 3.0912 -4.41184 -2.01209 0
M  V30 49 N 4.4343 0.785586 -1.36625 0
M  V30 50 C 5.8503 1.08419 -1.17122 0
M  V30 51 C 6.0503 2.015 0.00208491 0
M  V30 52 O 5.1063 2.43551 0.666278 0
M  V30 53 C 6.4193 1.69498 -2.48377 0
M  V30 54 C 7.9673 1.81821 -2.54775 0
M  V30 55 C 8.4423 2.46315 -3.86126 0
M  V30 56 N 9.9333 2.53779 -3.87492 0
M  V30 57 C 10.6683 3.045 -4.85868 0
M  V30 58 N 10.1643 3.55499 -5.94637 0
M  V30 59 N 11.9573 3.03247 -4.73284 0
M  V30 60 H 4.1083 0.167264 -2.1174 0
M  V30 61 H 6.3713 0.13682 -0.938075 0
M  V30 62 H 6.0773 1.08571 -3.34522 0
M  V30 63 H 5.9513 2.6896 -2.64462 0
M  V30 64 H 8.3383 2.41884 -1.69045 0
M  V30 65 H 8.4193 0.811532 -2.42586 0
M  V30 66 H 8.0633 1.86895 -4.72263 0
M  V30 67 H 7.9933 3.47561 -3.95612 0
M  V30 68 H 10.4843 2.17672 -3.08913 0
M  V30 69 H 10.7973 3.92562 -6.65669 0
M  V30 70 H 9.1423 3.5364 -5.98301 0
M  V30 71 H 12.3333 2.62696 -3.87438 0
M  V30 72 H 12.5063 3.42467 -5.50109 0
M  V30 73 N 5.9124 1.20967 1.01018 0
M  V30 74 C 7.1604 1.02172 1.74371 0
M  V30 75 C 7.4814 -0.446414 1.89821 0
M  V30 76 O 6.7514 -1.32234 1.44537 0
M  V30 77 H 5.3314 0.375066 0.646014 0
M  V30 78 H 7.9934 1.52187 1.21758 0
M  V30 79 H 7.0894 1.48538 2.74487 0
M  V30 80 N 7.3905 -1.2043 1.01659 0
M  V30 81 C 8.6155 -1.94318 0.724942 0
M  V30 82 C 9.0405 -1.74266 -0.708034 0
M  V30 83 O 8.3985 -1.03694 -1.48719 0
M  V30 84 C 8.4465 -3.44486 1.06591 0
M  V30 85 O 7.5505 -4.12017 0.177599 0
M  V30 86 H 6.8915 -0.60708 0.26898 0
M  V30 87 H 9.4215 -1.52861 1.35995 0
M  V30 88 H 9.4315 -3.95106 1.01762 0
M  V30 89 H 8.1065 -3.58404 2.10997 0
M  V30 90 H 6.6835 -3.71821 0.283421 0
M  V30 91 N 8.8686 -0.792821 -1.36206 0
M  V30 92 C 9.7986 -0.207853 -2.32573 0
M  V30 93 C 10.7796 0.659055 -1.56813 0
M  V30 94 O 11.9646 0.592176 -1.84951 0
M  V30 95 C 9.0946 0.655449 -3.41059 0
M  V30 96 C 8.0486 -0.111842 -4.27854 0
M  V30 97 C 7.3746 0.872274 -5.27537 0
M  V30 98 C 8.6746 -1.30299 -5.05786 0
M  V30 99 H 10.3686 -1.01294 -2.81744 0
M  V30 100 H 7.9146 -0.48854 -1.3546 0
M  V30 101 H 9.8676 1.07464 -4.07467 0
M  V30 102 H 8.5916 1.49328 -2.90463 0
M  V30 103 H 7.2506 -0.512053 -3.63006 0
M  V30 104 H 6.8986 1.70523 -4.73214 0
M  V30 105 H 6.5986 0.363291 -5.86476 0
M  V30 106 H 8.1226 1.28996 -5.96818 0
M  V30 107 H 9.5366 -0.959379 -5.65216 0
M  V30 108 H 7.9336 -1.7455 -5.74154 0
M  V30 109 H 9.0036 -2.09663 -4.37229 0
M  V30 110 N 10.3467 1.47872 -0.545128 0
M  V30 111 C 11.5717 2.07391 -0.0190611 0
M  V30 112 C 11.9967 1.39688 1.25971 0
M  V30 113 O 11.3547 0.467816 1.7516 0
M  V30 114 C 11.4027 3.60188 0.172335 0
M  V30 115 O 10.5067 3.9339 1.23766 0
M  V30 116 H 9.8477 0.662411 -0.0459059 0
M  V30 117 H 12.3777 1.90066 -0.757365 0
M  V30 118 H 12.3877 4.06129 0.390305 0
M  V30 119 H 11.0627 4.08865 -0.761725 0
M  V30 120 H 9.6397 3.5921 1.00114 0
M  V30 121 N 11.8248 0.280983 1.55075 0
M  V30 122 C 13.2408 -0.0729964 1.59433 0
M  V30 123 C 13.4408 -1.5411 1.29817 0
M  V30 124 O 12.4968 -2.29086 1.06187 0
M  V30 125 C 13.8098 0.306921 2.9913 0
M  V30 126 C 15.3578 0.254023 3.11968 0
M  V30 127 C 15.8328 0.608467 4.5394 0
M  V30 128 N 17.3238 0.560241 4.59799 0
M  V30 129 C 18.0588 0.80722 5.6769 0
M  V30 130 N 17.5548 1.11912 6.83701 0
M  V30 131 N 19.3478 0.735623 5.57266 0
M  V30 132 H 11.4988 1.238 1.7259 0
M  V30 133 H 13.7618 0.500547 0.805082 0
M  V30 134 H 13.4678 1.32816 3.25657 0
M  V30 135 H 13.3418 -0.349363 3.75579 0
M  V30 136 H 15.7288 -0.75794 2.852 0
M  V30 137 H 15.8098 0.944649 2.37718 0
M  V30 138 H 15.4538 1.61814 4.81434 0
M  V30 139 H 15.3838 -0.104013 5.26497 0
M  V30 140 H 17.8748 0.329288 3.76463 0
M  V30 141 H 18.1878 1.29409 7.61888 0
M  V30 142 H 16.5328 1.15695 6.85303 0
M  V30 143 H 19.7238 0.491752 4.6551 0
M  V30 144 H 19.8968 0.931482 6.4127 0
M  V30 145 N 13.3029 -1.57598 0.00835791 0
M  V30 146 C 14.2329 -2.1198 -0.979113 0
M  V30 147 C 15.2139 -1.03091 -1.35301 0
M  V30 148 O 16.3989 -1.30818 -1.43528 0
M  V30 149 C 13.5289 -2.62995 -2.26828 0
M  V30 150 C 12.4829 -3.76485 -2.03576 0
M  V30 151 C 11.8089 -4.13846 -3.38579 0
M  V30 152 C 13.1089 -5.0342 -1.39161 0
M  V30 153 H 14.8029 -2.94738 -0.526281 0
M  V30 154 H 12.3489 -1.41783 -0.251704 0
M  V30 155 H 14.3019 -2.99669 -2.96271 0
M  V30 156 H 13.0259 -1.7737 -2.7424 0
M  V30 157 H 11.6849 -3.40217 -1.36557 0
M  V30 158 H 11.3329 -3.25232 -3.83709 0
M  V30 159 H 11.0329 -4.90312 -3.23834 0
M  V30 160 H 12.5569 -4.53086 -4.09323 0
M  V30 161 H 13.9709 -5.37812 -1.98573 0
M  V30 162 H 12.3679 -5.84746 -1.34878 0
M  V30 163 H 13.4379 -4.83548 -0.361868 0
M  V30 164 N 14.781 0.264519 -1.55364 0
M  V30 165 C 15.711 1.33121 -1.91836 0
M  V30 166 C 16.692 1.51101 -0.781192 0
M  V30 167 O 17.877 1.64003 -1.04003 0
M  V30 168 C 15.007 2.68921 -2.19769 0
M  V30 169 C 13.961 2.65661 -3.35571 0
M  V30 170 C 13.287 4.05093 -3.49004 0
M  V30 171 C 14.587 2.24187 -4.71739 0
M  V30 172 H 16.281 1.02844 -2.81182 0
M  V30 173 H 13.827 0.493286 -1.35287 0
M  V30 174 H 15.78 3.43663 -2.43872 0
M  V30 175 H 14.504 3.00799 -1.27231 0
M  V30 176 H 13.163 1.93377 -3.1145 0
M  V30 177 H 12.811 4.34206 -2.53917 0
M  V30 178 H 12.511 4.03804 -4.26868 0
M  V30 179 H 14.035 4.81561 -3.75408 0
M  V30 180 H 15.449 2.88654 -4.9533 0
M  V30 181 H 13.846 2.34044 -5.52579 0
M  V30 182 H 14.916 1.19327 -4.69988 0
M  V30 183 N 16.2591 1.48442 0.529413 0
M  V30 184 C 17.1911 1.59095 1.64989 0
M  V30 185 C 18.2041 0.475212 1.5571 0
M  V30 186 O 19.3931 0.746081 1.6216 0
M  V30 187 C 16.4931 1.50518 3.0364 0
M  V30 188 C 15.6661 2.77142 3.38395 0
M  V30 189 C 14.7251 2.62012 4.56329 0
M  V30 190 O 13.7511 3.35898 4.59522 0
M  V30 191 N 14.9531 1.71667 5.54536 0
M  V30 192 H 17.7181 2.55723 1.56287 0
M  V30 193 H 15.2791 1.45173 0.716697 0
M  V30 194 H 17.2711 1.38091 3.80412 0
M  V30 195 H 15.8411 0.618627 3.06418 0
M  V30 196 H 15.0611 3.0413 2.50796 0
M  V30 197 H 16.3491 3.61146 3.58401 0
M  V30 198 H 15.7471 1.10841 5.54735 0
M  V30 199 H 14.3041 1.65178 6.30523 0
M  V30 200 N 17.7372 -0.778329 1.37039 0
M  V30 201 C 18.9652 -1.56734 1.35063 0
M  V30 202 C 19.3802 -1.88686 -0.0655597 0
M  V30 203 O 18.7372 -1.5096 -1.02554 0
M  V30 204 C 18.7882 -2.88163 2.18276 0
M  V30 205 O 18.5092 -2.57583 3.54376 0
M  V30 206 C 20.0102 -3.82422 2.24206 0
M  V30 207 H 17.2302 -0.485778 0.462883 0
M  V30 208 H 19.7742 -0.965185 1.8029 0
M  V30 209 H 17.9292 -3.44818 1.76576 0
M  V30 210 H 18.3432 -3.41699 3.97922 0
M  V30 211 H 19.8172 -4.71667 2.86765 0
M  V30 212 H 20.2942 -4.21078 1.24861 0
M  V30 213 H 20.9002 -3.31697 2.6619 0
M  V30 214 N 19.2153 -1.21501 -1.00376 0
M  V30 215 C 20.6313 -0.972629 -1.26539 0
M  V30 216 C 20.8313 0.340257 -1.98606 0
M  V30 217 O 19.8873 1.06561 -2.28913 0
M  V30 218 C 21.2003 -2.16404 -2.08781 0
M  V30 219 C 22.7483 -2.20643 -2.22004 0
M  V30 220 C 23.2233 -3.39306 -3.07629 0
M  V30 221 N 24.7143 -3.39401 -3.15217 0
M  V30 222 C 25.4493 -4.27867 -3.81729 0
M  V30 223 N 24.9453 -5.26533 -4.5026 0
M  V30 224 N 26.7383 -4.15672 -3.78382 0
M  V30 225 H 18.8893 -2.05929 -0.520281 0
M  V30 226 H 21.1523 -0.901803 -0.292328 0
M  V30 227 H 20.8583 -3.11554 -1.63178 0
M  V30 228 H 20.7323 -2.15567 -3.09533 0
M  V30 229 H 23.1193 -1.26048 -2.66825 0
M  V30 230 H 23.2003 -2.25523 -1.20718 0
M  V30 231 H 22.8443 -4.34195 -2.63509 0
M  V30 232 H 22.7743 -3.31665 -4.09031 0
M  V30 233 H 25.2653 -2.67997 -2.66432 0
M  V30 234 H 25.5783 -5.90337 -4.98721 0
M  V30 235 H 23.9233 -5.30457 -4.49044 0
M  V30 236 H 27.1143 -3.3785 -3.23998 0
M  V30 237 H 27.2873 -4.84825 -4.2994 0
M  V30 238 N 20.6934 1.19889 -1.02296 0
M  V30 239 C 21.9394 1.89701 -0.717033 0
M  V30 240 C 22.2724 1.7905 0.751989 0
M  V30 241 O 21.5474 1.17891 1.547 0
M  V30 242 C 21.8304 3.40858 -1.16136 0
M  V30 243 C 21.6834 3.60411 -2.69117 0
M  V30 244 C 23.0024 4.33876 -0.737549 0
M  V30 245 H 20.1214 0.688874 -0.261957 0
M  V30 246 H 22.7634 1.41154 -1.27183 0
M  V30 247 H 20.9134 3.82335 -0.689342 0
M  V30 248 H 22.5854 3.28145 -3.2422 0
M  V30 249 H 20.8284 3.03665 -3.0979 0
M  V30 250 H 21.4994 4.66396 -2.95261 0
M  V30 251 H 23.9754 4.00081 -1.14344 0
M  V30 252 H 22.8514 5.38242 -1.0764 0
M  V30 253 H 23.1124 4.40628 0.360436 0
M  V30 254 N 22.1715 0.800033 1.35784 0
M  V30 255 C 23.1215 0.178654 2.27299 0
M  V30 256 C 24.1055 -0.643667 1.47464 0
M  V30 257 O 25.2975 -0.502 1.69732 0
M  V30 258 C 22.4265 -0.677194 3.36555 0
M  V30 259 C 21.5125 0.154497 4.23818 0
M  V30 260 N 21.9035 1.21427 4.91008 0
M  V30 261 C 20.2015 -0.0649462 4.45953 0
M  V30 262 C 20.9025 1.72147 5.55644 0
M  V30 263 N 19.8785 1.02897 5.33773 0
M  V30 264 H 23.6805 0.989637 2.76737 0
M  V30 265 H 21.1945 0.64054 1.49234 0
M  V30 266 H 23.1915 -1.13835 4.01058 0
M  V30 267 H 21.8515 -1.4866 2.8867 0
M  V30 268 H 22.8625 1.59684 4.92668 0
M  V30 269 H 19.5395 -0.844016 4.0888 0
M  V30 270 H 20.9295 2.60683 6.19269 0
M  V30 271 N 23.6496 -1.47581 0.552962 0
M  V30 272 C 24.8746 -2.07378 0.0300593 0
M  V30 273 C 25.2996 -1.40355 -1.25229 0
M  V30 274 O 24.6576 -0.477099 -1.7491 0
M  V30 275 C 24.7056 -3.60274 -0.153231 0
M  V30 276 O 23.8096 -3.94041 -1.21678 0
M  V30 277 H 23.1506 -0.662158 0.0494182 0
M  V30 278 H 25.6806 -1.89662 0.767434 0
M  V30 279 H 25.6906 -4.0633 -0.368761 0
M  V30 280 H 24.3656 -4.08455 0.783397 0
M  V30 281 H 22.9426 -3.59735 -0.982079 0
M  V30 282 N 25.1277 -0.289203 -1.54924 0
M  V30 283 C 26.3767 0.324231 -1.99077 0
M  V30 284 C 26.6897 1.5591 -1.18117 0
M  V30 285 O 27.8957 2.24637 -1.52481 0
M  V30 286 C 26.3517 0.628209 -3.54375 0
M  V30 287 C 25.9597 -0.587647 -4.44129 0
M  V30 288 C 27.7037 1.20349 -4.07083 0
M  V30 289 C 25.6107 -0.257475 -5.90839 0
M  V30 290 H 24.5407 0.124924 -0.743579 0
M  V30 291 H 27.1917 -0.396063 -1.79175 0
M  V30 292 H 25.5737 1.40778 -3.70132 0
M  V30 293 H 26.7477 -1.36418 -4.40144 0
M  V30 294 H 25.0627 -1.08074 -4.0213 0
M  V30 295 H 27.6597 1.46456 -5.14252 0
M  V30 296 H 28.0027 2.14195 -3.56968 0
M  V30 297 H 28.5357 0.485889 -3.94821 0
M  V30 298 H 25.2747 -1.16419 -6.45079 0
M  V30 299 H 24.7947 0.482018 -5.9786 0
M  V30 300 H 26.4737 0.145238 -6.46837 0
M  V30 301 N 26.6058 1.57591 -0.0167156 0
M  V30 302 C 27.5358 2.12496 0.967858 0
M  V30 303 C 28.5168 1.03807 1.34752 0
M  V30 304 O 29.7018 1.31577 1.42833 0
M  V30 305 C 26.8318 2.64194 2.25431 0
M  V30 306 C 25.7858 3.77559 2.01576 0
M  V30 307 C 25.1118 4.15636 3.36379 0
M  V30 308 C 26.4118 5.04151 1.36489 0
M  V30 309 H 28.1058 2.95013 0.510643 0
M  V30 310 H 25.6518 1.41915 0.244181 0
M  V30 311 H 27.6048 3.01236 2.94678 0
M  V30 312 H 26.3288 1.78821 2.73296 0
M  V30 313 H 24.9878 3.40937 1.34751 0
M  V30 314 H 24.6358 3.27263 3.81979 0
M  V30 315 H 24.3358 4.92022 3.21229 0
M  V30 316 H 25.8598 4.5525 4.06915 0
M  V30 317 H 27.2738 5.38857 1.95718 0
M  V30 318 H 25.6708 5.85453 1.31776 0
M  V30 319 H 26.7408 4.83733 0.336219 0
M  V30 320 N 28.0839 -0.256276 1.55502 0
M  V30 321 C 29.0309 -1.31714 1.89526 0
M  V30 322 C 30.0009 -1.4828 0.748479 0
M  V30 323 O 31.1859 -1.62416 1.00128 0
M  V30 324 C 28.3259 -2.66933 2.18725 0
M  V30 325 C 27.4389 -2.58452 3.4616 0
M  V30 326 C 26.5739 -3.85961 3.64976 0
M  V30 327 C 25.6129 -3.72059 4.86044 0
M  V30 328 N 24.7499 -4.9144 5.01429 0
M  V30 329 H 29.5899 -1.01998 2.80001 0
M  V30 330 H 27.1269 -0.492413 1.38613 0
M  V30 331 H 29.0849 -3.4563 2.33657 0
M  V30 332 H 27.7149 -2.94816 1.31466 0
M  V30 333 H 26.7669 -1.71374 3.3961 0
M  V30 334 H 28.0789 -2.44085 4.34999 0
M  V30 335 H 27.2329 -4.73101 3.79816 0
M  V30 336 H 25.9719 -4.03215 2.74353 0
M  V30 337 H 24.9769 -2.83302 4.7119 0
M  V30 338 H 26.2019 -3.56309 5.78118 0
M  V30 339 H 24.1479 -5.09072 4.13741 0
M  V30 340 H 24.0649 -4.79668 5.84341 0
M  V30 341 H 25.3329 -5.80104 5.20672 0
M  V30 342 N 29.562 -1.4872 -0.521534 0
M  V30 343 C 30.509 -1.63871 -1.62527 0
M  V30 344 C 31.479 -0.480559 -1.58996 0
M  V30 345 O 32.664 -0.705085 -1.77294 0
M  V30 346 C 29.804 -1.69227 -3.00759 0
M  V30 347 C 28.917 -2.96207 -3.14461 0
M  V30 348 C 28.052 -2.92671 -4.43303 0
M  V30 349 C 27.091 -4.14318 -4.50563 0
M  V30 350 N 26.228 -4.0881 -5.70805 0
M  V30 351 H 31.068 -2.58123 -1.48918 0
M  V30 352 H 28.605 -1.28 -0.724878 0
M  V30 353 H 30.563 -1.70314 -3.80853 0
M  V30 354 H 29.193 -0.784586 -3.1312 0
M  V30 355 H 28.245 -3.04826 -2.27564 0
M  V30 356 H 29.557 -3.86192 -3.15686 0
M  V30 357 H 28.711 -2.92206 -5.31696 0
M  V30 358 H 27.45 -2.00429 -4.44612 0
M  V30 359 H 26.455 -4.15049 -3.60575 0
M  V30 360 H 27.68 -5.07729 -4.50986 0
M  V30 361 H 25.626 -3.19394 -5.72995 0
M  V30 362 H 25.543 -4.92509 -5.7356 0
M  V30 363 H 26.811 -4.12418 -6.61462 0
M  V30 364 N 31.0401 0.771051 -1.3745 0
M  V30 365 C 32.2651 1.56529 -1.36065 0
M  V30 366 C 32.6901 1.88029 0.0515859 0
M  V30 367 O 32.0481 1.49282 1.02882 0
M  V30 368 C 32.0961 2.85187 -2.20683 0
M  V30 369 O 31.2001 3.79593 -1.61193 0
M  V30 370 H 30.5411 0.47411 -0.464883 0
M  V30 371 H 33.0711 0.954269 -1.80983 0
M  V30 372 H 33.0811 3.34283 -2.33921 0
M  V30 373 H 31.7561 2.61588 -3.23334 0
M  V30 374 H 30.3331 3.38239 -1.56999 0
M  V30 375 N 32.5182 1.22032 0.997298 0
M  V30 376 C 33.7642 1.04376 1.73878 0
M  V30 377 C 34.0972 -0.420716 1.89588 0
M  V30 378 O 33.3722 -1.31202 1.43583 0
M  V30 379 C 33.6552 1.75047 3.14691 0
M  V30 380 C 33.5082 3.29062 3.06656 0
M  V30 381 C 34.8272 1.49928 4.13775 0
M  V30 382 H 31.9462 0.380578 0.631133 0
M  V30 383 H 34.5882 1.50312 1.16217 0
M  V30 384 H 32.7382 1.35996 3.63919 0
M  V30 385 H 34.4102 3.7753 2.65083 0
M  V30 386 H 32.6532 3.58967 2.43568 0
M  V30 387 H 33.3242 3.73683 4.06282 0
M  V30 388 H 35.8002 1.83842 3.73285 0
M  V30 389 H 34.6762 2.01878 5.10428 0
M  V30 390 H 34.9372 0.430929 4.39995 0
M  V30 391 N 33.9963 -1.19345 1.0293 0
M  V30 392 C 34.9463 -2.20472 0.58104 0
M  V30 393 C 35.9303 -1.56578 -0.370442 0
M  V30 394 O 37.1223 -1.75963 -0.191344 0
M  V30 395 C 34.2513 -3.43236 -0.066306 0
M  V30 396 C 33.3373 -4.14274 0.907642 0
M  V30 397 N 33.7283 -4.61492 2.07023 0
M  V30 398 C 32.0263 -4.39966 0.731177 0
M  V30 399 C 32.7273 -5.1605 2.68454 0
M  V30 400 N 31.7033 -5.06875 1.96414 0
M  V30 401 H 35.5053 -2.54659 1.46717 0
M  V30 402 H 33.0193 -1.35423 0.896345 0
M  V30 403 H 35.0163 -4.14927 -0.405068 0
M  V30 404 H 33.6763 -3.10549 -0.948118 0
M  V30 405 H 34.6873 -4.56304 2.44963 0
M  V30 406 H 31.3643 -4.17377 -0.101507 0
M  V30 407 H 32.7543 -5.6287 3.66915 0
M  V30 408 N 35.4744 -0.807222 -1.35358 0
M  V30 409 C 36.6994 -0.399309 -2.0352 0
M  V30 410 C 37.1244 0.981986 -1.60433 0
M  V30 411 O 36.4824 1.63601 -0.781299 0
M  V30 412 C 36.5304 -0.491552 -3.57234 0
M  V30 413 O 35.6344 0.494754 -4.09421 0
M  V30 414 H 34.9754 -0.166682 -0.642739 0
M  V30 415 H 37.5054 -1.09328 -1.72941 0
M  V30 416 H 37.5154 -0.361588 -4.06395 0
M  V30 417 H 36.1904 -1.49907 -3.87944 0
M  V30 418 H 34.7674 0.324977 -3.71481 0
M  V30 419 N 36.9525 1.47285 -0.560781 0
M  V30 420 C 38.1985 2.02764 -0.0381184 0
M  V30 421 C 38.5315 1.43384 1.30976 0
M  V30 422 O 37.8065 0.590733 1.85312 0
M  V30 423 C 38.0895 3.60064 0.0511427 0
M  V30 424 C 37.9425 4.2987 -1.32408 0
M  V30 425 C 39.2615 4.33439 0.762795 0
M  V30 426 H 36.3805 0.736841 -0.0153264 0
M  V30 427 H 39.0225 1.75675 -0.723759 0
M  V30 428 H 37.1725 3.83274 0.635065 0
M  V30 429 H 38.8445 4.17989 -1.95148 0
M  V30 430 H 37.0875 3.90085 -1.8978 0
M  V30 431 H 37.7585 5.38478 -1.21431 0
M  V30 432 H 40.2345 4.15243 0.266965 0
M  V30 433 H 39.1105 5.43124 0.794221 0
M  V30 434 H 39.3715 4.02915 1.81966 0
M  V30 435 N 38.4306 0.297415 1.54768 0
M  V30 436 C 39.3936 -0.567375 2.22066 0
M  V30 437 C 40.3936 -1.06409 1.20556 0
M  V30 438 O 41.5836 -0.960691 1.45315 0
M  V30 439 C 38.7156 -1.78517 2.90421 0
M  V30 440 H 39.9086 0.0205534 2.99893 0
M  V30 441 H 37.4616 0.0482163 1.56226 0
M  V30 442 H 38.1966 -2.41303 2.16664 0
M  V30 443 H 37.9816 -1.43669 3.64831 0
M  V30 444 H 39.4716 -2.39964 3.41771 0
M  V30 445 N 39.9087 -1.5758 0.0250728 0
M  V30 446 C 41.1547 -1.91917 -0.655413 0
M  V30 447 C 41.4877 -0.901433 -1.72011 0
M  V30 448 O 40.7627 0.0764069 -1.9435 0
M  V30 449 C 41.0457 -3.36751 -1.27558 0
M  V30 450 C 40.8987 -4.49258 -0.220719 0
M  V30 451 C 42.2177 -3.81469 -2.19475 0
M  V30 452 H 39.3367 -0.697925 -0.23679 0
M  V30 453 H 41.9787 -1.89825 0.0815036 0
M  V30 454 H 40.1287 -3.38664 -1.90365 0
M  V30 455 H 41.8007 -4.59478 0.409601 0
M  V30 456 H 40.0437 -4.31415 0.454264 0
M  V30 457 H 40.7147 -5.47618 -0.694175 0
M  V30 458 H 43.1907 -3.81266 -1.66659 0
M  V30 459 H 42.0667 -4.83512 -2.59822 0
M  V30 460 H 42.3277 -3.16744 -3.08424 0
M  V30 461 N 41.3868 0.248026 -1.55636 0
M  V30 462 C 42.6358 0.974134 -1.76617 0
M  V30 463 C 42.9488 1.86528 -0.588796 0
M  V30 464 O 44.1548 2.62805 -0.681594 0
M  V30 465 C 42.6108 1.78213 -3.12679 0
M  V30 466 C 42.2188 0.93843 -4.38061 0
M  V30 467 C 43.9628 2.50104 -3.42999 0
M  V30 468 C 41.8698 1.74225 -5.65155 0
M  V30 469 H 40.7998 0.36745 -0.658405 0
M  V30 470 H 43.4508 0.22884 -1.82067 0
M  V30 471 H 41.8328 2.56933 -3.01333 0
M  V30 472 H 43.0068 0.193635 -4.60393 0
M  V30 473 H 41.3218 0.332905 -4.15067 0
M  V30 474 H 43.9188 3.10694 -4.3517 0
M  V30 475 H 44.2618 3.21662 -2.64271 0
M  V30 476 H 44.7948 1.78395 -3.55556 0
M  V30 477 H 41.5338 1.07043 -6.46701 0
M  V30 478 H 41.0538 2.46235 -5.46926 0
M  V30 479 H 42.7328 2.30967 -6.0437 0
M  V30 480 N 42.8649 1.48995 0.513639 0
M  V30 481 C 44.1129 1.57531 1.26604 0
M  V30 482 C 44.4339 0.258236 1.93283 0
M  V30 483 O 43.7039 -0.721502 1.8213 0
M  V30 484 H 42.2839 0.580387 0.470276 0
M  V30 485 H 44.9459 1.85552 0.596373 0
M  V30 486 H 44.0419 2.36486 2.03669 0
M  V30 487 N 44.343 -0.763751 1.37857 0
M  V30 488 C 45.306 -1.85889 1.34081 0
M  V30 489 C 46.306 -1.58949 0.243277 0
M  V30 490 O 47.496 -1.66882 0.499589 0
M  V30 491 C 44.628 -3.23176 1.08489 0
M  V30 492 H 45.821 -1.90648 2.31502 0
M  V30 493 H 43.374 -0.964367 1.23003 0
M  V30 494 H 44.109 -3.24091 0.116318 0
M  V30 495 H 43.894 -3.44124 1.8794 0
M  V30 496 H 45.384 -4.03254 1.08517 0
M  V30 497 N 45.8211 -1.22559 -0.990812 0
M  V30 498 C 47.2321 -1.04791 -1.54518 0
M  V30 499 C 47.5831 0.387998 -1.92325 0
M  V30 500 O 46.7081 1.27328 -1.74976 0
M  V30 501 C 47.3031 -1.896 -2.80779 0
M  V30 502 C 45.8621 -1.76124 -3.32652 0
M  V30 503 C 45.0091 -1.8594 -2.05722 0
M  V30 504 H 47.9601 -1.36374 -0.811662 0
M  V30 505 H 47.9811 -1.41464 -3.53225 0
M  V30 506 H 47.4931 -2.94101 -2.53231 0
M  V30 507 H 45.5941 -0.743643 -3.65104 0
M  V30 508 H 45.7071 -2.58913 -4.03114 0
M  V30 509 H 44.0711 -1.29403 -2.19379 0
M  V30 510 H 44.8541 -2.91976 -1.80568 0
M  V30 511 N 47.2992 1.18797 -1.03562 0
M  V30 512 C 48.5462 1.8865 -0.736023 0
M  V30 513 C 48.8742 1.80041 0.735889 0
M  V30 514 O 48.1292 1.19179 1.55225 0
M  V30 515 C 48.4282 3.38692 -1.14117 0
M  V30 516 C 48.0942 3.67504 -2.6125 0
M  V30 517 C 46.7562 3.75078 -3.01447 0
M  V30 518 C 49.1082 3.80293 -3.56408 0
M  V30 519 C 46.4362 3.92915 -4.35701 0
M  V30 520 C 48.7882 3.99645 -4.90374 0
M  V30 521 C 47.4522 4.05453 -5.30249 0
M  V30 522 H 46.7222 0.690321 -0.26933 0
M  V30 523 H 49.3692 1.40641 -1.29971 0
M  V30 524 H 47.6742 3.88645 -0.496202 0
M  V30 525 H 49.3712 3.91072 -0.886789 0
M  V30 526 H 45.9612 3.62223 -2.29113 0
M  V30 527 H 50.1452 3.73779 -3.26501 0
M  V30 528 H 45.4012 3.95653 -4.66121 0
M  V30 529 H 49.5752 4.08482 -5.64017 0
M  V30 530 H 47.2022 4.19027 -6.34288 0
M  V30 531 N 48.7773 0.814389 1.34928 0
M  V30 532 C 50.0023 0.410097 2.03305 0
M  V30 533 C 50.4273 -0.973464 1.60951 0
M  V30 534 O 49.7853 -1.63185 0.789964 0
M  V30 535 C 49.8333 0.51049 3.56968 0
M  V30 536 O 48.9373 -0.473035 4.09678 0
M  V30 537 H 48.2783 0.170088 0.641846 0
M  V30 538 H 50.8083 1.10244 1.72358 0
M  V30 539 H 50.8183 0.383135 4.06197 0
M  V30 540 H 49.4933 1.51963 3.87144 0
M  V30 541 H 48.0703 -0.305272 3.71648 0
M  V30 542 N 50.2554 -1.46986 0.568584 0
M  V30 543 C 51.1874 -2.28233 -0.210337 0
M  V30 544 C 52.2004 -1.37682 -0.868767 0
M  V30 545 O 53.3894 -1.62406 -0.740705 0
M  V30 546 C 50.4894 -3.12293 -1.3163 0
M  V30 547 C 49.6624 -4.30878 -0.7525 0
M  V30 548 C 48.7214 -4.96445 -1.74439 0
M  V30 549 O 47.7474 -5.54482 -1.286 0
M  V30 550 N 48.9494 -4.92171 -3.07812 0
M  V30 551 H 51.7144 -2.95723 0.486648 0
M  V30 552 H 49.2754 -1.56742 0.405409 0
M  V30 553 H 51.2674 -3.53022 -1.97883 0
M  V30 554 H 49.8374 -2.46971 -1.91636 0
M  V30 555 H 49.0574 -3.94104 0.0871128 0
M  V30 556 H 50.3454 -5.07558 -0.35536 0
M  V30 557 H 49.7434 -4.46239 -3.47688 0
M  V30 558 H 48.3004 -5.36884 -3.69592 0
M  V30 559 N 51.7335 -0.305618 -1.54608 0
M  V30 560 C 52.9815 0.301701 -1.99835 0
M  V30 561 C 53.3025 1.54054 -1.19551 0
M  V30 562 O 52.5725 1.93702 -0.292658 0
M  V30 563 H 51.1525 0.114468 -0.738178 0
M  V30 564 H 53.8145 -0.418016 -1.90364 0
M  V30 565 H 52.9105 0.570548 -3.06841 0
M  V30 566 N 53.2116 1.57565 -0.0334293 0
M  V30 567 C 54.1436 2.0739 0.975811 0
M  V30 568 C 55.1566 0.998166 1.2861 0
M  V30 569 O 56.3456 1.27426 1.25 0
M  V30 570 C 53.4456 2.4871 2.30209 0
M  V30 571 C 52.6186 3.79413 2.17634 0
M  V30 572 C 51.6776 4.07237 3.33233 0
M  V30 573 O 50.7036 4.77425 3.09927 0
M  V30 574 N 51.9056 3.5775 4.5716 0
M  V30 575 H 54.6706 2.94598 0.55066 0
M  V30 576 H 52.2316 1.61173 0.15323 0
M  V30 577 H 54.2236 2.64413 3.06378 0
M  V30 578 H 52.7936 1.66845 2.64351 0
M  V30 579 H 52.0136 3.73465 1.26165 0
M  V30 580 H 53.3016 4.65038 2.0644 0
M  V30 581 H 52.6996 3.00976 4.78989 0
M  V30 582 H 51.2566 3.78724 5.30482 0
M  V30 583 N 54.6897 -0.239769 1.55765 0
M  V30 584 C 55.6367 -1.29696 1.90913 0
M  V30 585 C 56.6067 -1.47478 0.764164 0
M  V30 586 O 57.7917 -1.61345 1.01845 0
M  V30 587 C 54.9317 -2.64598 2.21544 0
M  V30 588 C 54.0447 -2.54765 3.48882 0
M  V30 589 C 53.1797 -3.82069 3.69049 0
M  V30 590 C 52.2187 -3.66883 4.89963 0
M  V30 591 N 51.3557 -4.86094 5.06614 0
M  V30 592 H 56.1957 -0.990224 2.81067 0
M  V30 593 H 53.7327 -0.477684 1.39128 0
M  V30 594 H 55.6907 -3.43132 2.3731 0
M  V30 595 H 54.3207 -2.93405 1.34585 0
M  V30 596 H 53.3727 -1.67763 3.41409 0
M  V30 597 H 54.6847 -2.39457 4.37563 0
M  V30 598 H 53.8387 -4.69046 3.84812 0
M  V30 599 H 52.5777 -4.00282 2.78614 0
M  V30 600 H 51.5827 -2.78289 4.74168 0
M  V30 601 H 52.8077 -3.50157 5.81865 0
M  V30 602 H 50.7537 -5.04655 4.19117 0
M  V30 603 H 50.6707 -4.73443 5.89396 0
M  V30 604 H 51.9387 -5.74549 5.26795 0
M  V30 605 N 56.1678 -1.49265 -0.50573 0
M  V30 606 C 57.5838 -1.35923 -0.836486 0
M  V30 607 C 57.7838 -0.388704 -1.97715 0
M  V30 608 O 56.8398 0.181336 -2.51848 0
M  V30 609 C 58.1528 -2.76531 -1.18115 0
M  V30 610 C 59.7008 -2.85197 -1.28964 0
M  V30 611 C 60.1758 -4.26561 -1.66761 0
M  V30 612 N 61.6668 -4.2935 -1.73819 0
M  V30 613 C 62.4018 -5.35693 -2.045 0
M  V30 614 N 61.8978 -6.52287 -2.33438 0
M  V30 615 N 63.6908 -5.23105 -2.05711 0
M  V30 616 H 55.8418 -2.10965 0.246519 0
M  V30 617 H 58.1048 -0.9468 0.0476887 0
M  V30 618 H 57.8108 -3.49226 -0.416398 0
M  V30 619 H 57.6848 -3.11599 -2.1257 0
M  V30 620 H 60.0718 -2.12742 -2.04511 0
M  V30 621 H 60.1528 -2.53718 -0.325704 0
M  V30 622 H 59.7968 -4.99541 -0.917656 0
M  V30 623 H 59.7268 -4.55502 -2.64246 0
M  V30 624 H 62.2178 -3.4526 -1.53635 0
M  V30 625 H 62.5308 -7.29158 -2.56024 0
M  V30 626 H 60.8758 -6.55521 -2.30905 0
M  V30 627 H 64.0668 -4.31026 -1.82577 0
M  V30 628 H 64.2398 -6.06078 -2.29289 0
M  V30 629 N 57.6459 0.756429 -1.3826 0
M  V30 630 C 58.5929 1.87011 -1.35261 0
M  V30 631 C 59.5629 1.64695 -0.215616 0
M  V30 632 O 60.7479 1.864 -0.407399 0
M  V30 633 C 57.8879 3.24275 -1.18068 0
M  V30 634 C 57.0009 3.58442 -2.41129 0
M  V30 635 C 56.1359 4.84994 -2.16689 0
M  V30 636 C 55.1749 5.11939 -3.35537 0
M  V30 637 N 54.3119 6.29685 -3.10549 0
M  V30 638 H 59.1519 1.8891 -2.30472 0
M  V30 639 H 56.6889 0.923373 -1.14509 0
M  V30 640 H 58.6469 4.03479 -1.06116 0
M  V30 641 H 57.2769 3.21711 -0.264973 0
M  V30 642 H 56.3289 2.74103 -2.63764 0
M  V30 643 H 57.6409 3.74283 -3.29717 0
M  V30 644 H 56.7949 5.72135 -2.01857 0
M  V30 645 H 55.5339 4.71286 -1.25462 0
M  V30 646 H 54.5389 4.23268 -3.50891 0
M  V30 647 H 55.7639 5.27546 -4.27635 0
M  V30 648 H 53.7099 6.17306 -2.21967 0
M  V30 649 H 53.6269 6.46014 -3.92686 0
M  V30 650 H 54.8949 7.19722 -2.99367 0
M  V30 651 N 59.124 1.23083 0.984299 0
M  V30 652 C 60.372 1.05848 1.72165 0
M  V30 653 C 60.693 -0.406049 1.90726 0
M  V30 654 O 59.963 -1.29139 1.47309 0
M  V30 655 H 58.543 0.388685 0.637913 0
M  V30 656 H 61.205 1.54736 1.18503 0
M  V30 657 H 60.301 1.54327 2.71274 0
M  V30 658 N 60.6021 -1.18246 1.0419 0
M  V30 659 C 61.8481 -1.88536 0.747122 0
M  V30 660 C 62.1811 -1.80223 -0.723409 0
M  V30 661 O 61.4561 -1.20337 -1.52804 0
M  V30 662 C 61.7391 -3.38968 1.21544 0
M  V30 663 C 61.5921 -3.56084 2.74816 0
M  V30 664 C 62.9111 -4.32648 0.806482 0
M  V30 665 H 60.0301 -0.684619 0.272883 0
M  V30 666 H 62.6721 -1.39113 1.29413 0
M  V30 667 H 60.8221 -3.8119 0.750081 0
M  V30 668 H 62.4941 -3.22946 3.29399 0
M  V30 669 H 60.7371 -2.98699 3.14582 0
M  V30 670 H 61.4081 -4.61639 3.02644 0
M  V30 671 H 63.8841 -3.98211 1.20695 0
M  V30 672 H 62.7601 -5.36462 1.1619 0
M  V30 673 H 63.0211 -4.41146 -0.29029 0
M  V30 674 N 62.0802 -0.821533 -1.34494 0
M  V30 675 C 62.9902 -0.244355 -2.33324 0
M  V30 676 C 64.0062 0.620527 -1.62559 0
M  V30 677 O 65.1822 0.528754 -1.94335 0
M  V30 678 C 62.2472 0.585368 -3.41723 0
M  V30 679 C 61.3082 -0.301752 -4.28238 0
M  V30 680 C 60.5412 0.488466 -5.3146 0
M  V30 681 O 60.7642 1.72186 -5.4379 0
M  V30 682 O 59.6982 -0.12848 -6.01763 0
M  V30 683 H 63.5242 -1.06231 -2.84515 0
M  V30 684 H 61.1092 -0.583645 -1.37528 0
M  V30 685 H 62.9912 1.05747 -4.07916 0
M  V30 686 H 61.6662 1.38068 -2.92778 0
M  V30 687 H 60.5732 -0.821315 -3.64973 0
M  V30 688 H 61.9062 -1.06138 -4.8062 0
M  V30 689 N 63.5583 1.46682 -0.576371 0
M  V30 690 C 64.5083 2.27278 0.181288 0
M  V30 691 C 65.4923 1.35497 0.867721 0
M  V30 692 O 66.6843 1.59717 0.762863 0
M  V30 693 C 63.8133 3.21703 1.19841 0
M  V30 694 C 62.8993 4.20969 0.51442 0
M  V30 695 N 63.2903 5.03999 -0.426407 0
M  V30 696 C 61.5883 4.39373 0.765963 0
M  V30 697 C 62.2893 5.75812 -0.825565 0
M  V30 698 N 61.2653 5.43315 -0.176116 0
M  V30 699 H 65.0673 2.88863 -0.541785 0
M  V30 700 H 62.5813 1.57455 -0.397697 0
M  V30 701 H 64.5783 3.78145 1.75533 0
M  V30 702 H 63.2383 2.61677 1.92238 0
M  V30 703 H 64.2493 5.11659 -0.8016 0
M  V30 704 H 60.9263 3.90502 1.47698 0
M  V30 705 H 62.3163 6.52577 -1.59976 0
M  V30 706 N 65.0364 0.313813 1.54444 0
M  V30 707 C 66.2844 -0.291099 1.99993 0
M  V30 708 C 66.6054 -1.53418 1.20366 0
M  V30 709 O 65.8754 -1.93544 0.302927 0
M  V30 710 H 64.4554 -0.110552 0.738774 0
M  V30 711 H 67.1174 0.428106 1.9014 0
M  V30 712 H 66.2134 -0.554268 3.07139 0
M  V30 713 N 66.5145 -1.57545 0.0417849 0
M  V30 714 C 67.9255 -1.80011 -0.495259 0
M  V30 715 C 68.2765 -0.953199 -1.71489 0
M  V30 716 O 67.4015 -0.167138 -2.15754 0
M  V30 717 C 67.9965 -3.26482 -0.905265 0
M  V30 718 C 66.5555 -3.499 -1.38734 0
M  V30 719 C 65.7025 -2.74979 -0.358056 0
M  V30 720 H 68.6535 -1.56425 0.267736 0
M  V30 721 H 68.6745 -3.36887 -1.76882 0
M  V30 722 H 68.1865 -3.88096 -0.017401 0
M  V30 723 H 66.2875 -2.93553 -2.29471 0
M  V30 724 H 66.4005 -4.58615 -1.38598 0
M  V30 725 H 64.7645 -2.40834 -0.828912 0
M  V30 726 H 65.5475 -3.39315 0.521561 0
M  V30 727 N 67.9926 0.231505 -1.5589 0
M  V30 728 C 68.9556 1.27028 -1.90779 0
M  V30 729 C 69.9556 1.40308 -0.785507 0
M  V30 730 O 71.1456 1.38744 -1.05336 0
M  V30 731 C 68.2776 2.64566 -2.14983 0
M  V30 732 H 69.4706 0.973017 -2.83677 0
M  V30 733 H 67.0236 0.471486 -1.49019 0
M  V30 734 H 67.7586 2.99406 -1.24604 0
M  V30 735 H 67.5436 2.56305 -2.96732 0
M  V30 736 H 69.0336 3.39543 -2.43105 0
M  V30 737 N 69.4707 1.49531 0.497807 0
M  V30 738 C 70.4337 1.65916 1.58128 0
M  V30 739 C 71.4337 0.530825 1.51786 0
M  V30 740 O 72.6237 0.797342 1.54881 0
M  V30 741 C 69.7557 1.65951 2.9778 0
M  V30 742 H 70.9487 2.62556 1.44929 0
M  V30 743 H 68.5017 1.38611 0.722275 0
M  V30 744 H 69.2367 0.709065 3.16453 0
M  V30 745 H 69.0217 2.47897 3.03792 0
M  V30 746 H 70.5117 1.80673 3.76493 0
M  V30 747 N 70.9488 -0.749086 1.3866 0
M  V30 748 C 72.1978 -1.50371 1.3443 0
M  V30 749 C 72.5108 -1.95503 -0.0616397 0
M  V30 750 O 73.7168 -2.70554 -0.226489 0
M  V30 751 C 72.1728 -2.71644 2.36088 0
M  V30 752 C 71.7808 -2.3352 3.82325 0
M  V30 753 C 73.5248 -3.49518 2.40909 0
M  V30 754 C 71.4318 -3.51431 4.75658 0
M  V30 755 H 70.3618 -0.564628 0.499712 0
M  V30 756 H 73.0128 -0.818449 1.64237 0
M  V30 757 H 71.3948 -3.42175 1.9933 0
M  V30 758 H 72.5688 -1.70627 4.28046 0
M  V30 759 H 70.8838 -1.6877 3.80665 0
M  V30 760 H 73.4808 -4.37197 3.07836 0
M  V30 761 H 73.8238 -3.90992 1.42937 0
M  V30 762 H 74.3568 -2.86005 2.76489 0
M  V30 763 H 71.0958 -3.15019 5.74842 0
M  V30 764 H 70.6158 -4.13352 4.34627 0
M  V30 765 H 72.2948 -4.17953 4.93887 0
M  V30 766 N 72.4269 -1.23603 -0.977757 0
M  V30 767 C 73.8429 -0.999251 -1.24447 0
M  V30 768 C 74.0429 0.298053 -1.99283 0
M  V30 769 O 73.0989 1.01681 -2.31122 0
M  V30 770 C 74.4119 -2.20784 -2.04144 0
M  V30 771 C 75.9599 -2.25303 -2.17273 0
M  V30 772 C 76.4349 -3.45755 -3.00362 0
M  V30 773 N 77.9259 -3.4601 -3.07947 0
M  V30 774 C 78.6609 -4.35868 -3.72568 0
M  V30 775 N 78.1569 -5.35966 -4.38991 0
M  V30 776 N 79.9499 -4.23605 -3.6948 0
M  V30 777 H 72.1009 -2.06986 -0.476483 0
M  V30 778 H 74.3639 -0.907801 -0.273134 0
M  V30 779 H 74.0699 -3.14945 -1.56533 0
M  V30 780 H 73.9439 -2.22085 -3.04891 0
M  V30 781 H 76.3309 -1.3168 -2.64092 0
M  V30 782 H 76.4119 -2.28033 -1.15907 0
M  V30 783 H 76.0559 -4.39687 -2.5424 0
M  V30 784 H 75.9859 -3.40266 -4.01904 0
M  V30 785 H 78.4769 -2.73588 -2.60688 0
M  V30 786 H 78.7899 -6.00783 -4.86086 0
M  V30 787 H 77.1349 -5.39863 -4.37691 0
M  V30 788 H 80.3259 -3.44647 -3.16759 0
M  V30 789 H 80.4989 -4.93836 -4.1956 0
M  V30 790 N 73.905 1.17692 -1.04816 0
M  V30 791 C 74.815 2.25229 -0.65643 0
M  V30 792 C 75.831 1.71018 0.320761 0
M  V30 793 O 77.007 2.00649 0.173805 0
M  V30 794 C 74.072 3.46684 -0.0332629 0
M  V30 795 C 73.133 4.15997 -1.06042 0
M  V30 796 C 72.366 5.31654 -0.466893 0
M  V30 797 O 72.589 5.65777 0.724758 0
M  V30 798 O 71.523 5.89831 -1.1993 0
M  V30 799 H 75.349 2.61016 -1.55255 0
M  V30 800 H 72.934 1.24919 -0.81949 0
M  V30 801 H 74.816 4.20234 0.313256 0
M  V30 802 H 73.491 3.12703 0.836566 0
M  V30 803 H 72.398 3.44482 -1.45886 0
M  V30 804 H 73.731 4.53996 -1.90127 0
M  V30 805 N 75.3831 0.828654 1.34056 0
M  V30 806 C 76.3461 0.259927 2.27721 0
M  V30 807 C 77.3461 -0.565478 1.50529 0
M  V30 808 O 78.5361 -0.38075 1.69988 0
M  V30 809 C 75.6681 -0.634944 3.34935 0
M  V30 810 H 76.8611 1.0863 2.79534 0
M  V30 811 H 74.4141 0.600951 1.44285 0
M  V30 812 H 75.1491 -1.48416 2.88346 0
M  V30 813 H 74.9341 -0.0444999 3.92075 0
M  V30 814 H 76.4241 -1.02648 4.04788 0
M  V30 815 N 76.8612 -1.46375 0.584142 0
M  V30 816 C 78.1092 -2.01978 0.0701287 0
M  V30 817 C 78.4302 -1.4579 -1.295 0
M  V30 818 O 77.7002 -0.64314 -1.85042 0
M  V30 819 H 76.2802 -0.746648 0.0229345 0
M  V30 820 H 78.9422 -1.79461 0.760245 0
M  V30 821 H 78.0382 -3.121 0.0022064 0
M  V30 822 N 78.3393 -0.321999 -1.54275 0
M  V30 823 C 79.2693 0.537411 -2.27231 0
M  V30 824 C 80.2503 1.12064 -1.27968 0
M  V30 825 O 81.4353 1.14606 -1.56777 0
M  V30 826 C 78.5653 1.69919 -3.02894 0
M  V30 827 C 77.5193 1.24534 -4.09482 0
M  V30 828 C 76.8453 2.49394 -4.72977 0
M  V30 829 C 78.1453 0.361335 -5.21049 0
M  V30 830 H 79.8393 -0.0711406 -2.99315 0
M  V30 831 H 77.3853 -0.0356555 -1.43956 0
M  V30 832 H 79.3383 2.30668 -3.52662 0
M  V30 833 H 78.0623 2.33431 -2.28424 0
M  V30 834 H 76.7213 0.660782 -3.60596 0
M  V30 835 H 76.3693 3.11265 -3.95124 0
M  V30 836 H 76.0693 2.19718 -5.44975 0
M  V30 837 H 77.5933 3.10908 -5.25517 0
M  V30 838 H 79.0073 0.875072 -5.66582 0
M  V30 839 H 77.4043 0.157428 -5.99893 0
M  V30 840 H 78.4743 -0.60822 -4.8107 0
M  V30 841 N 79.8174 1.5752 -0.0501392 0
M  V30 842 C 80.7504 2.07026 0.959962 0
M  V30 843 C 81.7284 0.970539 1.30458 0
M  V30 844 O 82.9124 1.2424 1.41763 0
M  V30 845 C 80.0394 2.5099 2.27424 0
M  V30 846 C 79.0854 3.72188 2.08275 0
M  V30 847 S 79.9184 5.17888 1.36207 0
M  V30 848 C 81.0744 5.65165 2.6896 0
M  V30 849 H 81.3074 2.9238 0.538631 0
M  V30 850 H 78.8404 1.53547 0.162099 0
M  V30 851 H 80.7984 2.76982 3.02971 0
M  V30 852 H 79.4594 1.65944 2.66686 0
M  V30 853 H 78.6524 4.00866 3.05487 0
M  V30 854 H 78.2544 3.46457 1.40868 0
M  V30 855 H 80.5464 5.70687 3.65133 0
M  V30 856 H 81.4894 6.64394 2.4492 0
M  V30 857 H 81.8974 4.9289 2.75172 0
M  V30 858 N 81.2955 -0.223234 1.56011 0
M  V30 859 C 82.2425 -1.27664 1.92277 0
M  V30 860 C 83.2125 -1.46659 0.779763 0
M  V30 861 O 84.3975 -1.60256 1.03551 0
M  V30 862 C 81.5375 -2.62234 2.24338 0
M  V30 863 C 80.6505 -2.51051 3.51564 0
M  V30 864 C 79.7855 -3.78133 3.7308 0
M  V30 865 C 78.8245 -3.61665 4.93827 0
M  V30 866 N 77.9615 -4.80693 5.11741 0
M  V30 867 H 82.8015 -0.960358 2.82101 0
M  V30 868 H 80.3385 -0.462901 1.39627 0
M  V30 869 H 82.2965 -3.40596 2.40936 0
M  V30 870 H 80.9265 -2.91961 1.3769 0
M  V30 871 H 79.9785 -1.64132 3.43169 0
M  V30 872 H 81.2905 -2.34803 4.40079 0
M  V30 873 H 80.4445 -4.64938 3.89766 0
M  V30 874 H 79.1835 -3.97304 2.82844 0
M  V30 875 H 78.1885 -2.73244 4.77093 0
M  V30 876 H 79.4135 -3.43966 5.85546 0
M  V30 877 H 77.3595 -5.00181 4.24446 0
M  V30 878 H 77.2765 -4.67165 5.94384 0
M  V30 879 H 78.5445 -5.6893 5.3286 0
M  V30 880 N 82.7736 -1.49793 -0.48987 0
M  V30 881 C 84.1896 -1.36803 -0.822022 0
M  V30 882 C 84.3896 -0.409652 -1.97292 0
M  V30 883 O 83.4456 0.154614 -2.52026 0
M  V30 884 C 84.7586 -2.77768 -1.15175 0
M  V30 885 C 86.3066 -2.86549 -1.25931 0
M  V30 886 C 86.7816 -4.28306 -1.62228 0
M  V30 887 N 88.2726 -4.31169 -1.69256 0
M  V30 888 C 89.0076 -5.37832 -1.98807 0
M  V30 889 N 88.5036 -6.54726 -2.26507 0
M  V30 890 N 90.2966 -5.25258 -2.00152 0
M  V30 891 H 82.4476 -2.10691 0.268881 0
M  V30 892 H 84.7106 -0.946241 0.057728 0
M  V30 893 H 84.4166 -3.49648 -0.379335 0
M  V30 894 H 84.2906 -3.13836 -2.09253 0
M  V30 895 H 86.6776 -2.14899 -2.02243 0
M  V30 896 H 86.7586 -2.54049 -0.298776 0
M  V30 897 H 86.4026 -5.00486 -0.864622 0
M  V30 898 H 86.3326 -4.58279 -2.594 0
M  V30 899 H 88.8236 -3.4687 -1.49965 0
M  V30 900 H 89.1366 -7.31833 -2.48276 0
M  V30 901 H 87.4816 -6.57933 -2.23939 0
M  V30 902 H 90.6726 -4.32938 -1.77996 0
M  V30 903 H 90.8456 -6.08476 -2.22848 0
M  V30 904 N 84.2517 0.741722 -1.39055 0
M  V30 905 C 85.1817 1.869 -1.39966 0
M  V30 906 C 86.1627 1.6804 -0.26392 0
M  V30 907 O 87.3477 1.88458 -0.468755 0
M  V30 908 C 84.4777 3.24572 -1.23574 0
M  V30 909 C 83.4317 3.58056 -2.34477 0
M  V30 910 C 82.7577 4.94593 -2.0318 0
M  V30 911 C 84.0577 3.61716 -3.76774 0
M  V30 912 H 85.7517 1.86395 -2.34302 0
M  V30 913 H 83.2977 0.895361 -1.1278 0
M  V30 914 H 85.2507 4.031 -1.22834 0
M  V30 915 H 83.9747 3.25587 -0.257045 0
M  V30 916 H 82.6337 2.81854 -2.34423 0
M  V30 917 H 82.2817 4.92181 -1.03765 0
M  V30 918 H 81.9817 5.17964 -2.77465 0
M  V30 919 H 83.5057 5.75486 -2.04079 0
M  V30 920 H 84.9197 4.30335 -3.78794 0
M  V30 921 H 83.3167 3.96603 -4.50362 0
M  V30 922 H 84.3867 2.61672 -4.08235 0
M  V30 923 N 85.7298 1.2412 0.971189 0
M  V30 924 C 86.9548 1.10667 1.75407 0
M  V30 925 C 87.3798 -0.337048 1.85056 0
M  V30 926 O 86.7378 -1.24396 1.31892 0
M  V30 927 C 86.7858 1.74726 3.15441 0
M  V30 928 O 85.8898 1.01566 3.99697 0
M  V30 929 H 85.2308 0.387341 0.539317 0
M  V30 930 H 87.7608 1.64358 1.2185 0
M  V30 931 H 87.7708 1.80341 3.6598 0
M  V30 932 H 86.4458 2.79773 3.07734 0
M  V30 933 H 85.0228 1.03713 3.58187 0
M  V30 934 N 87.2079 -1.17134 1.05439 0
M  V30 935 C 88.4329 -1.91913 0.786396 0
M  V30 936 C 88.8579 -1.7643 -0.652234 0
M  V30 937 O 88.2159 -1.08372 -1.45345 0
M  V30 938 C 88.2639 -3.40921 1.17497 0
M  V30 939 O 87.3679 -4.11244 0.308589 0
M  V30 940 H 86.7089 -0.598215 0.288158 0
M  V30 941 H 89.2389 -1.48457 1.4079 0
M  V30 942 H 89.2489 -3.91668 1.14281 0
M  V30 943 H 87.9239 -3.5151 2.22292 0
M  V30 944 H 86.5009 -3.70731 0.40157 0
M  V30 945 N 88.686 -0.835752 -1.33615 0
M  V30 946 C 89.616 -0.281739 -2.31794 0
M  V30 947 C 90.597 0.608833 -1.58831 0
M  V30 948 O 91.782 0.533035 -1.86741 0
M  V30 949 C 88.912 0.546612 -3.42971 0
M  V30 950 C 87.866 -0.247904 -4.27281 0
M  V30 951 C 87.192 0.704001 -5.30045 0
M  V30 952 C 88.492 -1.46324 -5.01385 0
M  V30 953 H 90.186 -1.10206 -2.78379 0
M  V30 954 H 87.732 -0.531388 -1.33837 0
M  V30 955 H 89.685 0.944467 -4.1068 0
M  V30 956 H 88.409 1.40011 -2.95067 0
M  V30 957 H 87.068 -0.627281 -3.61194 0
M  V30 958 H 86.716 1.55381 -4.78399 0
M  V30 959 H 86.416 0.176524 -5.87335 0
M  V30 960 H 87.94 1.09944 -6.0062 0
M  V30 961 H 89.354 -1.13871 -5.61877 0
M  V30 962 H 87.751 -1.92728 -5.6831 0
M  V30 963 H 88.821 -2.23467 -4.30338 0
M  V30 964 N 90.1641 1.46063 -0.591896 0
M  V30 965 C 91.4121 2.01938 -0.0808391 0
M  V30 966 C 91.7331 1.46475 1.28725 0
M  V30 967 O 91.0031 0.652944 1.84698 0
M  V30 968 H 89.5831 0.746516 -0.0268938 0
M  V30 969 H 92.2451 1.79055 -0.769752 0
M  V30 970 H 91.3411 3.12094 -0.0187578 0
M  V30 971 N 91.6422 0.330177 1.54103 0
M  V30 972 C 92.8822 -0.270916 2.02597 0
M  V30 973 C 93.2462 -1.48826 1.21304 0
M  V30 974 O 94.4472 -2.16266 1.59633 0
M  V30 975 C 92.7182 -0.590328 3.52491 0
M  V30 976 S 94.2772 -1.17014 4.2291 0
M  V30 977 H 91.0952 -0.0815379 0.706309 0
M  V30 978 H 93.6972 0.464835 1.89893 0
M  V30 979 H 92.4012 0.303691 4.09275 0
M  V30 980 H 91.9322 -1.3561 3.69288 0
M  V30 981 H 93.9472 -2.45662 4.3112 0
M  V30 982 N 93.1203 -1.57491 0.0584922 0
M  V30 983 C 94.0703 -2.08474 -0.923188 0
M  V30 984 C 95.0543 -0.991479 -1.26722 0
M  V30 985 O 96.2463 -1.25473 -1.24842 0
M  V30 986 C 93.3753 -2.6392 -2.19548 0
M  V30 987 C 92.4613 -3.80227 -1.87852 0
M  V30 988 N 92.8523 -4.89714 -1.26546 0
M  V30 989 C 91.1503 -3.89271 -2.17679 0
M  V30 990 C 91.8513 -5.70689 -1.12644 0
M  V30 991 N 90.8273 -5.18531 -1.63176 0
M  V30 992 H 94.6293 -2.90517 -0.444653 0
M  V30 993 H 92.1433 -1.61745 -0.145764 0
M  V30 994 H 94.1403 -2.98752 -2.9078 0
M  V30 995 H 92.8003 -1.83318 -2.68001 0
M  V30 996 H 93.8113 -5.09358 -0.936757 0
M  V30 997 H 90.4883 -3.19623 -2.68602 0
M  V30 998 H 91.8783 -6.6875 -0.6499 0
M  V30 999 N 94.5984 0.214957 -1.56127 0
M  V30 1000 C 95.5284 1.2695 -1.95974 0
M  V30 1001 C 96.5094 1.48539 -0.828868 0
M  V30 1002 O 97.6944 1.60611 -1.09168 0
M  V30 1003 C 94.8244 2.61794 -2.28214 0
M  V30 1004 C 93.7784 2.54851 -3.43853 0
M  V30 1005 C 93.1044 3.93785 -3.61715 0
M  V30 1006 C 94.4044 2.09065 -4.78632 0
M  V30 1007 H 96.0984 0.93846 -2.84312 0
M  V30 1008 H 93.6444 0.449996 -1.36788 0
M  V30 1009 H 95.5974 3.35731 -2.54682 0
M  V30 1010 H 94.3214 2.96599 -1.36736 0
M  V30 1011 H 92.9804 1.8337 -3.17444 0
M  V30 1012 H 92.6284 4.25908 -2.67602 0
M  V30 1013 H 92.3284 3.90019 -4.39498 0
M  V30 1014 H 93.8524 4.69374 -3.90539 0
M  V30 1015 H 95.2664 2.7275 -5.04262 0
M  V30 1016 H 93.6634 2.16346 -5.59745 0
M  V30 1017 H 94.7334 1.04315 -4.73547 0
M  V30 1018 N 96.0765 1.50051 0.48192 0
M  V30 1019 C 97.0235 1.68122 1.58125 0
M  V30 1020 C 97.9935 0.522545 1.57666 0
M  V30 1021 O 99.1785 0.751844 1.75362 0
M  V30 1022 C 96.3185 1.77142 2.96167 0
M  V30 1023 C 95.4315 3.0444 3.06497 0
M  V30 1024 C 94.5665 3.04321 4.35387 0
M  V30 1025 C 93.6055 4.26118 4.3942 0
M  V30 1026 N 92.7425 4.238 5.59766 0
M  V30 1027 H 97.5825 2.6198 1.42022 0
M  V30 1028 H 95.1195 1.29877 0.690687 0
M  V30 1029 H 97.0775 1.80352 3.76203 0
M  V30 1030 H 95.7075 0.867329 3.1093 0
M  V30 1031 H 94.7595 3.10752 2.19402 0
M  V30 1032 H 96.0715 3.94426 3.05336 0
M  V30 1033 H 95.2255 3.062 5.23762 0
M  V30 1034 H 93.9645 2.12147 4.39141 0
M  V30 1035 H 92.9695 4.24463 3.49444 0
M  V30 1036 H 94.1945 5.19507 4.37366 0
M  V30 1037 H 92.1405 3.34474 5.64326 0
M  V30 1038 H 92.0575 5.07542 5.60301 0
M  V30 1039 H 93.3255 4.2981 6.50295 0
M  V30 1040 N 97.5546 -0.734337 1.39446 0
M  V30 1041 C 98.8316 -1.48579 1.27215 0
M  V30 1042 C 99.2116 -2.1077 -0.117968 0
M  V30 1043 O 98.5596 -1.98646 -1.12924 0
M  V30 1044 C 98.7696 -2.53667 2.39696 0
M  V30 1045 C 100.118 -3.20031 2.79044 0
M  V30 1046 O 101.142 -2.6398 2.39151 0
M  V30 1047 O 100.001 -4.21455 3.47905 0
M  V30 1048 H 97.0946 -0.659816 0.49857 0
M  V30 1049 H 99.6406 -0.768106 1.51322 0
M  V30 1050 H 98.4126 -2.06096 3.32626 0
M  V30 1051 H 98.0356 -3.32994 2.17258 0
M  V30 1052 N 99.0327 -1.24633 -0.964593 0
M  V30 1053 C 100.28 -1.08788 -1.70796 0
M  V30 1054 C 100.608 0.372783 -1.90894 0
M  V30 1055 O 99.8627 1.29167 -1.47018 0
M  V30 1056 C 100.162 -1.7763 -3.10133 0
M  V30 1057 C 99.8277 -3.27557 -3.09866 0
M  V30 1058 C 98.4897 -3.6846 -3.09501 0
M  V30 1059 C 100.842 -4.23389 -3.03959 0
M  V30 1060 C 98.1697 -5.03624 -3.00965 0
M  V30 1061 C 100.522 -5.58565 -2.96965 0
M  V30 1062 C 99.1857 -5.98809 -2.9493 0
M  V30 1063 H 98.4557 -0.398084 -0.624988 0
M  V30 1064 H 101.103 -1.54777 -1.12767 0
M  V30 1065 H 99.4077 -1.24044 -3.71645 0
M  V30 1066 H 101.105 -1.62832 -3.66451 0
M  V30 1067 H 97.6947 -2.95006 -3.10917 0
M  V30 1068 H 101.879 -3.92787 -3.03368 0
M  V30 1069 H 97.1347 -5.33998 -2.97752 0
M  V30 1070 H 101.309 -6.32523 -2.91354 0
M  V30 1071 H 98.9357 -7.03505 -2.88071 0
M  V30 1072 N 100.511 1.16574 -1.06058 0
M  V30 1073 C 101.759 1.86677 -0.77434 0
M  V30 1074 C 102.08 1.81959 0.701147 0
M  V30 1075 O 101.35 1.2515 1.50713 0
M  V30 1076 H 99.9298 0.691134 -0.283449 0
M  V30 1077 H 102.592 1.41378 -1.34158 0
M  V30 1078 H 101.688 2.92181 -1.09711 0
M  V30 1079 N 101.989 0.842826 1.3317 0
M  V30 1080 C 103.266 0.362216 1.92217 0
M  V30 1081 C 103.646 -1.15289 1.76838 0
M  V30 1082 O 102.994 -1.96914 1.15919 0
M  V30 1083 C 103.204 0.813495 3.39387 0
M  V30 1084 C 104.552 0.823804 4.16532 0
M  V30 1085 O 105.576 0.757358 3.48055 0
M  V30 1086 O 104.435 0.915193 5.38782 0
M  V30 1087 H 101.529 0.103317 0.820521 0
M  V30 1088 H 104.075 0.928942 1.42017 0
M  V30 1089 H 102.847 1.85624 3.4447 0
M  V30 1090 H 102.47 0.223561 3.96971 0
M  V30 1091 N 103.467 -1.45747 0.599634 0
M  V30 1092 C 104.397 -2.33235 -0.111306 0
M  V30 1093 C 105.378 -1.46359 -0.866781 0
M  V30 1094 O 106.563 -1.75146 -0.838904 0
M  V30 1095 C 103.693 -3.28932 -1.11451 0
M  V30 1096 C 102.647 -4.25381 -0.472772 0
M  V30 1097 C 101.973 -5.1071 -1.58365 0
M  V30 1098 C 103.273 -5.18831 0.600948 0
M  V30 1099 H 104.967 -2.92927 0.61919 0
M  V30 1100 H 102.513 -1.40857 0.299215 0
M  V30 1101 H 104.466 -3.89002 -1.62036 0
M  V30 1102 H 103.19 -2.67381 -1.8755 0
M  V30 1103 H 101.849 -3.66598 0.0121472 0
M  V30 1104 H 101.497 -4.45533 -2.33473 0
M  V30 1105 H 101.197 -5.7604 -1.15982 0
M  V30 1106 H 102.721 -5.73647 -2.09194 0
M  V30 1107 H 104.135 -5.73019 0.179491 0
M  V30 1108 H 102.532 -5.92595 0.946076 0
M  V30 1109 H 103.602 -4.6174 1.48068 0
M  V30 1110 N 104.945 -0.338344 -1.53925 0
M  V30 1111 C 106.17 0.263987 -2.05713 0
M  V30 1112 C 106.595 1.43847 -1.21201 0
M  V30 1113 O 105.953 1.79904 -0.224535 0
M  V30 1114 C 106.001 0.662 -3.54471 0
M  V30 1115 O 105.105 1.76265 -3.72833 0
M  V30 1116 H 104.446 0.0448722 -0.662482 0
M  V30 1117 H 106.976 -0.491048 -1.9862 0
M  V30 1118 H 106.986 0.940594 -3.9701 0
M  V30 1119 H 105.661 -0.196937 -4.15433 0
M  V30 1120 H 104.238 1.48173 -3.42198 0
M  V30 1121 N 106.423 1.57458 -0.0668435 0
M  V30 1122 C 107.67 1.93301 0.603406 0
M  V30 1123 C 107.998 0.946486 1.69917 0
M  V30 1124 O 107.253 -0.0387021 1.95662 0
M  V30 1125 C 107.552 3.35784 1.22409 0
M  V30 1126 C 107.218 4.50179 0.254955 0
M  V30 1127 C 105.88 4.81199 -0.0116746 0
M  V30 1128 C 108.232 5.19598 -0.408338 0
M  V30 1129 C 105.56 5.78978 -0.94877 0
M  V30 1130 C 107.912 6.18381 -1.33372 0
M  V30 1131 C 106.576 6.47821 -1.60887 0
M  V30 1132 H 105.846 0.707338 0.220802 0
M  V30 1133 H 108.493 1.91012 -0.136665 0
M  V30 1134 H 106.798 3.34515 2.03978 0
M  V30 1135 H 108.495 3.60804 1.74989 0
M  V30 1136 H 105.085 4.25983 0.472954 0
M  V30 1137 H 109.269 4.95832 -0.215456 0
M  V30 1138 H 104.525 6.00115 -1.16925 0
M  V30 1139 H 108.699 6.71277 -1.85367 0
M  V30 1140 H 106.326 7.23399 -2.33661 0
M  V30 1141 N 107.901 -0.206675 1.56239 0
M  V30 1142 C 109.129 -0.945345 1.8404 0
M  V30 1143 C 109.544 -1.77336 0.647885 0
M  V30 1144 O 108.901 -1.78425 -0.383511 0
M  V30 1145 C 108.952 -1.8509 3.10522 0
M  V30 1146 O 108.673 -1.05634 4.25174 0
M  V30 1147 C 110.174 -2.70222 3.51418 0
M  V30 1148 H 107.394 -0.276372 0.61144 0
M  V30 1149 H 109.938 -0.217417 2.03341 0
M  V30 1150 H 108.093 -2.53259 2.93153 0
M  V30 1151 H 108.507 -1.67238 4.97124 0
M  V30 1152 H 109.981 -3.29438 4.42916 0
M  V30 1153 H 110.458 -3.43358 2.73864 0
M  V30 1154 H 111.064 -2.07443 3.71278 0
M  V30 1155 N 109.379 -1.50304 -0.473955 0
M  V30 1156 C 110.79 -1.54042 -1.0549 0
M  V30 1157 C 111.141 -0.342248 -1.93192 0
M  V30 1158 O 110.266 0.545157 -2.09421 0
M  V30 1159 C 110.861 -2.79152 -1.91989 0
M  V30 1160 C 109.42 -2.8558 -2.45196 0
M  V30 1161 C 108.567 -2.48295 -1.2347 0
M  V30 1162 H 111.518 -1.5661 -0.256693 0
M  V30 1163 H 111.539 -2.60845 -2.7702 0
M  V30 1164 H 111.051 -3.66339 -1.28131 0
M  V30 1165 H 109.152 -2.02738 -3.12615 0
M  V30 1166 H 109.265 -3.88403 -2.80499 0
M  V30 1167 H 107.629 -2.00669 -1.56856 0
M  V30 1168 H 108.412 -3.37787 -0.612789 0
M  V30 1169 N 110.857 0.726932 -1.39834 0
M  V30 1170 C 112.103 1.48884 -1.377 0
M  V30 1171 C 112.436 1.94185 0.0244852 0
M  V30 1172 O 111.711 1.67361 0.990986 0
M  V30 1173 C 111.994 2.72288 -2.3565 0
M  V30 1174 C 111.847 2.32956 -3.84775 0
M  V30 1175 C 113.166 3.74414 -2.31306 0
M  V30 1176 H 110.285 0.540062 -0.5015 0
M  V30 1177 H 112.927 0.830547 -1.70886 0
M  V30 1178 H 111.077 3.28457 -2.07481 0
M  V30 1179 H 112.749 1.82356 -4.23726 0
M  V30 1180 H 110.992 1.65088 -4.01159 0
M  V30 1181 H 111.663 3.21362 -4.4881 0
M  V30 1182 H 114.139 3.27849 -2.56231 0
M  V30 1183 H 113.015 4.58414 -3.01907 0
M  V30 1184 H 113.276 4.21909 -1.32081 0
M  V30 1185 N 112.336 1.25143 0.95797 0
M  V30 1186 C 113.747 1.08851 1.51685 0
M  V30 1187 C 114.098 -0.33687 1.93286 0
M  V30 1188 O 113.223 -1.22644 1.7829 0
M  V30 1189 C 113.818 1.96978 2.75654 0
M  V30 1190 C 112.377 1.84881 3.27866 0
M  V30 1191 C 111.524 1.91329 2.0072 0
M  V30 1192 H 114.475 1.38478 0.77522 0
M  V30 1193 H 114.496 1.5078 3.4935 0
M  V30 1194 H 114.008 3.00712 2.45345 0
M  V30 1195 H 112.109 0.840182 3.63004 0
M  V30 1196 H 112.222 2.6951 3.96107 0
M  V30 1197 H 110.586 1.35174 2.15871 0
M  V30 1198 H 111.369 2.96661 1.72764 0
M  V30 1199 N 113.814 -1.1601 1.06675 0
M  V30 1200 C 114.761 -2.20525 0.680967 0
M  V30 1201 C 115.731 -1.62904 -0.324283 0
M  V30 1202 O 116.916 -1.89615 -0.212294 0
M  V30 1203 C 114.056 -3.45013 0.0776551 0
M  V30 1204 C 113.169 -4.16863 1.13355 0
M  V30 1205 C 112.304 -5.2888 0.49597 0
M  V30 1206 C 111.343 -5.92537 1.53513 0
M  V30 1207 N 110.48 -6.96038 0.920631 0
M  V30 1208 H 115.32 -2.52876 1.57663 0
M  V30 1209 H 112.857 -1.24199 0.788223 0
M  V30 1210 H 114.815 -4.16193 -0.289704 0
M  V30 1211 H 113.445 -3.132 -0.781393 0
M  V30 1212 H 112.497 -3.44248 1.61857 0
M  V30 1213 H 113.809 -4.60294 1.92174 0
M  V30 1214 H 112.963 -6.06653 0.0758604 0
M  V30 1215 H 111.702 -4.86622 -0.324062 0
M  V30 1216 H 110.707 -5.13482 1.9651 0
M  V30 1217 H 111.932 -6.36873 2.35733 0
M  V30 1218 H 109.878 -6.55888 0.12138 0
M  V30 1219 H 109.795 -7.3786 1.64616 0
M  V30 1220 H 111.063 -7.77725 0.525795 0
M  V30 1221 N 115.292 -0.849877 -1.32721 0
M  V30 1222 C 116.569 -0.372405 -1.92022 0
M  V30 1223 C 116.949 1.1435 -1.77447 0
M  V30 1224 O 116.297 1.96296 -1.16962 0
M  V30 1225 C 116.507 -0.831482 -3.3895 0
M  V30 1226 C 117.855 -0.845882 -4.16089 0
M  V30 1227 O 118.879 -0.775806 -3.47649 0
M  V30 1228 O 117.738 -0.943753 -5.38289 0
M  V30 1229 H 114.832 -0.107667 -0.819961 0
M  V30 1230 H 117.378 -0.93646 -1.41522 0
M  V30 1231 H 116.15 -1.87448 -3.4348 0
M  V30 1232 H 115.773 -0.24461 -3.96847 0
M  V30 1233 N 116.77 1.45427 -0.607355 0
M  V30 1234 C 118.047 1.9557 -0.0344566 0
M  V30 1235 C 118.427 1.54979 1.43334 0
M  V30 1236 O 117.775 0.812241 2.13576 0
M  V30 1237 C 117.985 3.48226 -0.232321 0
M  V30 1238 C 119.333 4.2445 -0.113001 0
M  V30 1239 O 120.357 3.55829 -0.162431 0
M  V30 1240 O 119.216 5.465 0.00209442 0
M  V30 1241 H 116.31 0.826222 0.0358667 0
M  V30 1242 H 118.856 1.55594 -0.6774 0
M  V30 1243 H 117.628 3.70739 -1.25174 0
M  V30 1244 H 117.251 3.95092 0.445896 0
M  V30 1245 N 118.248 0.346503 1.53744 0
M  V30 1246 C 119.178 -0.501193 2.28058 0
M  V30 1247 C 120.159 -1.10014 1.29734 0
M  V30 1248 O 121.344 -1.12097 1.58581 0
M  V30 1249 C 118.474 -1.65078 3.05559 0
M  V30 1250 C 117.428 -1.18003 4.11411 0
M  V30 1251 C 116.754 -2.41837 4.76884 0
M  V30 1252 C 118.054 -0.278394 5.21558 0
M  V30 1253 H 119.748 0.11875 2.99164 0
M  V30 1254 H 117.294 0.0585531 1.43881 0
M  V30 1255 H 119.247 -2.25028 3.56287 0
M  V30 1256 H 117.971 -2.29767 2.32109 0
M  V30 1257 H 116.63 -0.603331 3.61601 0
M  V30 1258 H 116.278 -3.0494 4.00026 0
M  V30 1259 H 115.978 -2.1102 5.48402 0
M  V30 1260 H 117.502 -3.02508 5.30397 0
M  V30 1261 H 118.916 -0.784823 5.67903 0
M  V30 1262 H 117.313 -0.0619707 6.00068 0
M  V30 1263 H 118.383 0.684677 4.80042 0
M  V30 1264 N 119.726 -1.57421 0.075193 0
M  V30 1265 C 120.956 -1.97659 -0.601203 0
M  V30 1266 C 121.364 -0.952427 -1.63479 0
M  V30 1267 O 120.707 0.0688241 -1.83571 0
M  V30 1268 C 120.769 -3.34218 -1.32434 0
M  V30 1269 C 120.433 -4.5484 -0.443826 0
M  V30 1270 C 121.43 -5.19034 0.299969 0
M  V30 1271 C 119.115 -5.00952 -0.367709 0
M  V30 1272 C 121.109 -6.27695 1.10807 0
M  V30 1273 C 118.796 -6.09484 0.444058 0
M  V30 1274 C 119.794 -6.72719 1.18061 0
M  V30 1275 O 119.482 -7.79161 1.97898 0
M  V30 1276 H 119.214 -0.65494 -0.167422 0
M  V30 1277 H 121.768 -2.04886 0.145157 0
M  V30 1278 H 119.998 -3.23615 -2.11685 0
M  V30 1279 H 121.687 -3.59038 -1.89331 0
M  V30 1280 H 122.453 -4.84351 0.250776 0
M  V30 1281 H 118.332 -4.51509 -0.930638 0
M  V30 1282 H 121.876 -6.76982 1.68347 0
M  V30 1283 H 117.773 -6.43601 0.494803 0
M  V30 1284 H 118.541 -7.96055 1.90367 0
M  V30 1285 N 121.204 0.198386 -1.56346 0
M  V30 1286 C 122.152 1.26538 -1.95169 0
M  V30 1287 C 123.146 1.47295 -0.836685 0
M  V30 1288 O 124.352 1.48195 -1.02167 0
M  V30 1289 H 120.727 0.424744 -0.620561 0
M  V30 1290 H 122.698 0.910904 -2.84157 0
M  V30 1291 C 121.447 2.6035 -2.30463 0
M  V30 1292 H 120.77 2.45192 -3.15786 0
M  V30 1293 H 122.21 3.33762 -2.61494 0
M  V30 1294 C 120.669 3.17096 -1.13806 0
M  V30 1295 O 121.199 3.99588 -0.41135 0
M  V30 1296 N 119.405 2.75795 -0.915736 0
M  V30 1297 H 118.952 2.08816 -1.50843 0
M  V30 1298 H 118.91 3.14101 -0.136979 0
M  V30 1299 N 122.682 1.50554 0.465978 0
M  V30 1300 C 123.63 1.70324 1.58406 0
M  V30 1301 C 124.624 0.569139 1.59553 0
M  V30 1302 O 125.83 0.749776 1.63641 0
M  V30 1303 H 122.205 0.537688 0.525734 0
M  V30 1304 H 124.176 2.64104 1.38894 0
M  V30 1305 C 122.925 1.81928 2.96307 0
M  V30 1306 H 122.248 2.68586 2.96144 0
M  V30 1307 H 123.688 1.99784 3.73982 0
M  V30 1308 C 122.147 0.572095 3.32007 0
M  V30 1309 O 122.677 -0.286416 4.00678 0
M  V30 1310 N 120.883 0.424606 2.87481 0
M  V30 1311 H 120.43 1.12427 2.31771 0
M  V30 1312 H 120.388 -0.408697 3.11732 0
M  V30 1313 N 124.16 -0.719506 1.40217 0
M  V30 1314 C 125.09 -1.8465 1.42922 0
M  V30 1315 C 126.071 -1.67599 0.29062 0
M  V30 1316 O 127.256 -1.87688 0.498677 0
M  V30 1317 C 124.386 -3.22565 1.28722 0
M  V30 1318 C 123.34 -3.54281 2.40144 0
M  V30 1319 C 122.666 -4.91298 2.11023 0
M  V30 1320 C 123.966 -3.55676 3.82481 0
M  V30 1321 H 125.66 -1.82644 2.37237 0
M  V30 1322 H 123.206 -0.877305 1.1419 0
M  V30 1323 H 125.159 -4.01095 1.29232 0
M  V30 1324 H 123.883 -3.25137 0.308811 0
M  V30 1325 H 122.542 -2.78088 2.38877 0
M  V30 1326 H 122.19 -4.90468 1.11582 0
M  V30 1327 H 121.89 -5.13485 2.8567 0
M  V30 1328 H 123.414 -5.72166 2.13209 0
M  V30 1329 H 124.828 -4.24254 3.85592 0
M  V30 1330 H 123.225 -3.89388 4.56614 0
M  V30 1331 H 124.295 -2.55144 4.12346 0
M  V30 1332 N 125.638 -1.25649 -0.95132 0
M  V30 1333 C 126.887 -1.09988 -1.69073 0
M  V30 1334 C 127.2 0.358355 -1.92289 0
M  V30 1335 O 128.406 0.635466 -2.63958 0
M  V30 1336 C 126.862 -1.92012 -3.044 0
M  V30 1337 C 126.47 -3.42347 -2.88968 0
M  V30 1338 C 128.214 -1.8493 -3.82101 0
M  V30 1339 C 126.121 -4.16655 -4.19705 0
M  V30 1340 H 125.051 -0.407993 -0.63408 0
M  V30 1341 H 127.702 -1.49873 -1.05879 0
M  V30 1342 H 126.084 -1.44952 -3.68517 0
M  V30 1343 H 127.258 -3.97104 -2.33762 0
M  V30 1344 H 125.573 -3.50557 -2.24719 0
M  V30 1345 H 128.17 -2.37739 -4.78941 0
M  V30 1346 H 128.513 -0.817883 -4.08187 0
M  V30 1347 H 129.046 -2.29758 -3.2474 0
M  V30 1348 H 125.785 -5.20224 -3.98807 0
M  V30 1349 H 125.305 -3.66681 -4.74663 0
M  V30 1350 H 126.984 -4.24551 -4.88227 0
M  V30 1351 N 127.117 1.15442 -1.07289 0
M  V30 1352 C 128.363 1.86489 -0.796846 0
M  V30 1353 C 128.696 1.82078 0.675371 0
M  V30 1354 O 127.971 1.24346 1.4956 0
M  V30 1355 C 128.254 3.35626 -1.30489 0
M  V30 1356 C 128.107 3.48673 -2.84161 0
M  V30 1357 C 129.426 4.30357 -0.920907 0
M  V30 1358 H 126.545 0.677144 -0.290939 0
M  V30 1359 H 129.187 1.35633 -1.33056 0
M  V30 1360 H 127.337 3.79068 -0.850883 0
M  V30 1361 H 129.009 3.14099 -3.37846 0
M  V30 1362 H 127.252 2.90253 -3.22391 0
M  V30 1363 H 127.923 4.53453 -3.14777 0
M  V30 1364 H 130.399 3.94871 -1.3121 0
M  V30 1365 H 129.275 5.33193 -1.30372 0
M  V30 1366 H 129.536 4.4176 0.173226 0
M  V30 1367 N 128.595 0.856903 1.32268 0
M  V30 1368 C 129.543 0.291987 2.3076 0
M  V30 1369 C 130.537 -0.585857 1.58947 0
M  V30 1370 O 131.743 -0.47341 1.73663 0
M  V30 1371 H 128.118 0.075721 0.748178 0
M  V30 1372 H 130.089 1.13687 2.75895 0
M  V30 1373 C 128.838 -0.502869 3.44044 0
M  V30 1374 H 128.161 0.163328 3.99466 0
M  V30 1375 H 129.601 -0.863691 4.1511 0
M  V30 1376 C 128.06 -1.68898 2.91505 0
M  V30 1377 O 128.59 -2.78811 2.89184 0
M  V30 1378 N 126.796 -1.51679 2.47875 0
M  V30 1379 H 126.343 -0.622666 2.49961 0
M  V30 1380 H 126.301 -2.31184 2.13076 0
M  V30 1381 N 130.073 -1.45103 0.615059 0
M  V30 1382 C 131.484 -1.85654 0.197383 0
M  V30 1383 C 131.835 -1.51433 -1.24749 0
M  V30 1384 O 130.96 -0.944608 -1.94695 0
M  V30 1385 C 131.555 -3.36972 0.351448 0
M  V30 1386 C 130.114 -3.76398 -0.011593 0
M  V30 1387 C 129.261 -2.69024 0.672394 0
M  V30 1388 H 132.212 -1.35797 0.821263 0
M  V30 1389 H 132.233 -3.78239 -0.414227 0
M  V30 1390 H 131.745 -3.61847 1.40314 0
M  V30 1391 H 129.846 -3.5714 -1.06217 0
M  V30 1392 H 129.959 -4.77532 0.387265 0
M  V30 1393 H 128.323 -2.54465 0.109284 0
M  V30 1394 H 129.106 -2.96735 1.72636 0
M  V30 1395 N 131.551 -0.354651 -1.53558 0
M  V30 1396 C 132.967 -0.00315426 -1.596 0
M  V30 1397 C 133.167 1.47741 -1.37021 0
M  V30 1398 O 132.223 2.23759 -1.16996 0
M  V30 1399 C 133.536 -0.44929 -2.97325 0
M  V30 1400 C 135.084 -0.402578 -3.104 0
M  V30 1401 C 135.559 -0.824355 -4.5052 0
M  V30 1402 N 137.05 -0.778979 -4.56603 0
M  V30 1403 C 137.785 -1.07715 -5.63192 0
M  V30 1404 N 137.281 -1.44405 -6.77583 0
M  V30 1405 N 139.074 -1.00066 -5.53121 0
M  V30 1406 H 131.225 -1.31893 -1.66487 0
M  V30 1407 H 133.488 -0.538388 -0.780284 0
M  V30 1408 H 133.194 -1.48202 -3.1895 0
M  V30 1409 H 133.068 0.169772 -3.76818 0
M  V30 1410 H 135.455 0.621004 -2.88492 0
M  V30 1411 H 135.536 -1.05699 -2.32941 0
M  V30 1412 H 135.18 -1.846 -4.73165 0
M  V30 1413 H 135.11 -0.147304 -5.26394 0
M  V30 1414 H 137.601 -0.508528 -3.74463 0
M  V30 1415 H 137.914 -1.65612 -7.54846 0
M  V30 1416 H 136.259 -1.4826 -6.79002 0
M  V30 1417 H 139.45 -0.713293 -4.62633 0
M  V30 1418 H 139.623 -1.23638 -6.36096 0
M  V30 1419 N 133.029 1.57378 -0.0835403 0
M  V30 1420 C 134.254 1.98682 0.594987 0
M  V30 1421 C 134.679 0.961969 1.61641 0
M  V30 1422 O 134.037 -0.0709989 1.81161 0
M  V30 1423 C 134.085 3.38988 1.2296 0
M  V30 1424 O 133.189 3.39208 2.34546 0
M  V30 1425 H 132.53 0.646368 0.152002 0
M  V30 1426 H 135.06 2.03961 -0.161533 0
M  V30 1427 H 135.07 3.76431 1.57366 0
M  V30 1428 H 133.745 4.13107 0.481228 0
M  V30 1429 H 132.322 3.13548 2.01846 0
M  V30 1430 N 134.507 -0.190092 1.56449 0
M  V30 1431 C 135.753 -0.911052 1.81184 0
M  V30 1432 C 136.086 -1.82699 0.658396 0
M  V30 1433 O 135.361 -1.91491 -0.340775 0
M  V30 1434 C 135.644 -1.72297 3.16205 0
M  V30 1435 C 135.497 -0.831419 4.42049 0
M  V30 1436 C 136.816 -2.69454 3.47969 0
M  V30 1437 H 133.935 -0.32977 0.659106 0
M  V30 1438 H 136.577 -0.178169 1.89163 0
M  V30 1439 H 134.727 -2.34778 3.09534 0
M  V30 1440 H 136.399 -0.220929 4.60771 0
M  V30 1441 H 134.642 -0.138406 4.33579 0
M  V30 1442 H 135.313 -1.43461 5.33032 0
M  V30 1443 H 137.789 -2.17104 3.54972 0
M  V30 1444 H 136.665 -3.23342 4.43555 0
M  V30 1445 H 136.926 -3.48744 2.71717 0
M  V30 1446 N 135.985 -1.50799 -0.457987 0
M  V30 1447 C 137.233 -1.62121 -1.2067 0
M  V30 1448 C 137.554 -0.329793 -1.92191 0
M  V30 1449 O 136.824 0.653409 -1.84682 0
M  V30 1450 H 135.404 -0.597441 -0.448411 0
M  V30 1451 H 138.066 -1.87637 -0.527096 0
M  V30 1452 H 137.162 -2.43882 -1.94751 0
M  V30 1453 N 137.463 0.71206 -1.40597 0
M  V30 1454 C 138.393 1.83889 -1.43899 0
M  V30 1455 C 139.374 1.67442 -0.299504 0
M  V30 1456 O 140.559 1.87421 -0.508624 0
M  V30 1457 C 137.689 3.21877 -1.30431 0
M  V30 1458 C 136.643 3.53002 -2.42019 0
M  V30 1459 C 135.969 4.90172 -2.13626 0
M  V30 1460 C 137.269 3.53643 -3.84362 0
M  V30 1461 H 138.963 1.81383 -2.38203 0
M  V30 1462 H 136.509 0.871237 -1.14654 0
M  V30 1463 H 138.462 4.00404 -1.31357 0
M  V30 1464 H 137.186 3.24968 -0.326049 0
M  V30 1465 H 135.845 2.76818 -2.40349 0
M  V30 1466 H 135.493 4.89869 -1.14182 0
M  V30 1467 H 135.193 5.11962 -2.88389 0
M  V30 1468 H 136.717 5.71028 -2.1624 0
M  V30 1469 H 138.131 4.22203 -3.87837 0
M  V30 1470 H 136.528 3.86961 -4.58673 0
M  V30 1471 H 137.598 2.52954 -4.13693 0
M  V30 1472 N 138.941 1.26152 0.944643 0
M  V30 1473 C 139.904 1.07474 2.0244 0
M  V30 1474 C 140.904 0.0242064 1.60782 0
M  V30 1475 O 142.094 0.267302 1.72137 0
M  V30 1476 C 139.226 0.633956 3.34953 0
M  V30 1477 H 140.419 2.03336 2.20442 0
M  V30 1478 H 137.972 1.087 1.12312 0
M  V30 1479 H 138.707 -0.326811 3.22649 0
M  V30 1480 H 138.492 1.39247 3.66542 0
M  V30 1481 H 139.982 0.52501 4.14287 0
M  V30 1482 N 140.419 -1.14872 1.07899 0
M  V30 1483 C 141.367 -2.21857 0.698727 0
M  V30 1484 C 142.361 -1.66845 -0.293086 0
M  V30 1485 O 143.567 -1.79321 -0.156204 0
M  V30 1486 H 139.942 -0.722691 0.207899 0
M  V30 1487 H 141.913 -2.51205 1.61054 0
M  V30 1488 C 140.662 -3.47498 0.11858 0
M  V30 1489 H 139.985 -3.90154 0.872914 0
M  V30 1490 H 141.425 -4.23858 -0.109759 0
M  V30 1491 C 139.884 -3.16947 -1.1422 0
M  V30 1492 O 140.414 -3.3426 -2.22785 0
M  V30 1493 N 138.62 -2.70946 -1.05055 0
M  V30 1494 H 138.167 -2.57058 -0.167038 0
M  V30 1495 H 138.125 -2.50879 -1.89491 0
M  V30 1496 N 141.898 -0.863906 -1.31812 0
M  V30 1497 C 142.83 -0.272485 -2.27575 0
M  V30 1498 C 143.843 0.56104 -1.52827 0
M  V30 1499 O 145.032 0.384021 -1.7432 0
M  V30 1500 C 142.132 0.63283 -3.32939 0
M  V30 1501 C 141.305 -0.166902 -4.37081 0
M  V30 1502 C 140.364 0.665608 -5.21973 0
M  V30 1503 O 139.39 0.0958091 -5.69119 0
M  V30 1504 N 140.592 1.9787 -5.45736 0
M  V30 1505 H 143.357 -1.0954 -2.78964 0
M  V30 1506 H 140.918 -0.724791 -1.4477 0
M  V30 1507 H 142.91 1.19532 -3.86645 0
M  V30 1508 H 141.48 1.35642 -2.81638 0
M  V30 1509 H 140.7 -0.910838 -3.83533 0
M  V30 1510 H 141.988 -0.715874 -5.03739 0
M  V30 1511 H 141.386 2.46484 -5.09178 0
M  V30 1512 H 139.943 2.48911 -6.024 0
M  V30 1513 N 143.376 1.44774 -0.622745 0
M  V30 1514 C 144.286 2.34433 0.0886031 0
M  V30 1515 C 145.302 1.52131 0.844529 0
M  V30 1516 O 146.478 1.84886 0.798691 0
M  V30 1517 C 143.543 3.29986 1.0635 0
M  V30 1518 C 142.604 4.28195 0.307873 0
M  V30 1519 C 141.837 5.19183 1.23633 0
M  V30 1520 O 142.06 5.13918 2.47476 0
M  V30 1521 O 140.994 5.97515 0.725189 0
M  V30 1522 H 144.82 2.96693 -0.648599 0
M  V30 1523 H 142.405 1.44408 -0.382957 0
M  V30 1524 H 144.287 3.88825 1.6246 0
M  V30 1525 H 142.962 2.70269 1.78146 0
M  V30 1526 H 141.869 3.72927 -0.296064 0
M  V30 1527 H 143.202 4.90808 -0.3699 0
M  V30 1528 N 144.854 0.36279 1.53368 0
M  V30 1529 C 145.784 -0.476976 2.28576 0
M  V30 1530 C 146.765 -1.08631 1.30894 0
M  V30 1531 O 147.95 -1.10409 1.59761 0
M  V30 1532 C 145.08 -1.61828 3.07293 0
M  V30 1533 C 144.034 -1.13633 4.1264 0
M  V30 1534 C 143.36 -2.36766 4.79423 0
M  V30 1535 C 144.66 -0.223061 5.21823 0
M  V30 1536 H 146.354 0.150474 2.99022 0
M  V30 1537 H 143.9 0.0738103 1.43811 0
M  V30 1538 H 145.853 -2.21237 3.58653 0
M  V30 1539 H 144.577 -2.27292 2.34533 0
M  V30 1540 H 143.236 -0.564945 3.62221 0
M  V30 1541 H 142.884 -3.0068 4.03238 0
M  V30 1542 H 142.584 -2.05192 5.50609 0
M  V30 1543 H 144.108 -2.96865 5.33576 0
M  V30 1544 H 145.522 -0.724545 5.68703 0
M  V30 1545 H 143.919 0.001678 6.001 0
M  V30 1546 H 144.989 0.735553 4.79289 0
M  V30 1547 N 146.332 -1.57332 0.0918853 0
M  V30 1548 C 147.295 -2.12708 -0.85369 0
M  V30 1549 C 148.295 -1.05561 -1.213 0
M  V30 1550 O 149.485 -1.31461 -1.14296 0
M  V30 1551 C 146.617 -2.64503 -2.15061 0
M  V30 1552 H 147.81 -2.97573 -0.3729 0
M  V30 1553 H 145.363 -1.55509 -0.157072 0
M  V30 1554 H 146.098 -1.83149 -2.67632 0
M  V30 1555 H 145.883 -3.4284 -1.90272 0
M  V30 1556 H 147.373 -3.07351 -2.82711 0
M  V30 1557 N 147.81 0.181792 -1.56548 0
M  V30 1558 C 148.72 1.24538 -1.98815 0
M  V30 1559 C 149.736 1.49045 -0.897861 0
M  V30 1560 O 150.912 1.61399 -1.20467 0
M  V30 1561 C 147.977 2.56683 -2.33055 0
M  V30 1562 C 147.038 2.40131 -3.55859 0
M  V30 1563 C 146.271 3.65975 -3.88456 0
M  V30 1564 O 146.494 4.70711 -3.22161 0
M  V30 1565 O 145.428 3.6071 -4.81842 0
M  V30 1566 H 149.254 0.916647 -2.89536 0
M  V30 1567 H 146.839 0.387842 -1.44278 0
M  V30 1568 H 148.721 3.34655 -2.56094 0
M  V30 1569 H 147.396 2.89157 -1.45498 0
M  V30 1570 H 146.303 1.60226 -3.38051 0
M  V30 1571 H 147.636 2.12585 -4.43924 0
M  V30 1572 N 149.288 1.51039 0.449983 0
M  V30 1573 C 150.534 1.63322 1.20223 0
M  V30 1574 C 150.867 0.34241 1.91158 0
M  V30 1575 O 150.142 -0.657344 1.83055 0
M  V30 1576 C 150.425 2.82801 2.22925 0
M  V30 1577 C 150.278 4.21823 1.56157 0
M  V30 1578 C 151.597 2.97807 3.24035 0
M  V30 1579 H 148.716 0.594407 0.435718 0
M  V30 1580 H 151.358 1.83489 0.493136 0
M  V30 1581 H 149.508 2.65738 2.834 0
M  V30 1582 H 151.18 4.50526 0.991162 0
M  V30 1583 H 149.423 4.25105 0.864172 0
M  V30 1584 H 150.094 5.01391 2.30891 0
M  V30 1585 H 152.57 3.13497 2.73603 0
M  V30 1586 H 151.446 3.82992 3.93202 0
M  V30 1587 H 151.707 2.09328 3.89402 0
M  V30 1588 N 150.766 -0.704594 1.40972 0
M  V30 1589 C 152.012 -1.46675 1.40051 0
M  V30 1590 C 152.345 -1.94199 0.00641102 0
M  V30 1591 O 151.62 -1.68916 -0.964235 0
M  V30 1592 C 151.903 -2.68505 2.39952 0
M  V30 1593 C 151.756 -2.26805 3.88432 0
M  V30 1594 C 153.075 -3.70686 2.37233 0
M  V30 1595 H 150.194 -0.532015 0.510028 0
M  V30 1596 H 152.836 -0.803255 1.72185 0
M  V30 1597 H 150.986 -3.25114 2.1268 0
M  V30 1598 H 152.658 -1.75592 4.26574 0
M  V30 1599 H 150.901 -1.58685 4.03734 0
M  V30 1600 H 151.572 -3.14181 4.53866 0
M  V30 1601 H 154.048 -3.23731 2.61415 0
M  V30 1602 H 152.924 -4.53553 3.09162 0
M  V30 1603 H 153.185 -4.19754 1.38777 0
M  V30 1604 N 152.244 -1.26651 -0.937939 0
M  V30 1605 C 153.469 -1.15279 -1.72411 0
M  V30 1606 C 153.894 0.287866 -1.85884 0
M  V30 1607 O 153.252 1.20855 -1.35143 0
M  V30 1608 C 153.3 -1.83028 -3.10698 0
M  V30 1609 O 152.404 -1.12128 -3.96864 0
M  V30 1610 H 151.745 -0.401504 -0.528858 0
M  V30 1611 H 154.275 -1.67531 -1.1745 0
M  V30 1612 H 154.285 -1.89981 -3.6107 0
M  V30 1613 H 152.96 -2.87833 -3.00208 0
M  V30 1614 H 151.537 -1.13173 -3.55312 0
M  V30 1615 N 153.722 1.14298 -1.08507 0
M  V30 1616 C 155.138 1.37347 -0.812901 0
M  V30 1617 C 155.338 1.93052 0.577325 0
M  V30 1618 O 154.394 2.14389 1.33393 0
M  V30 1619 C 155.707 2.33359 -1.89642 0
M  V30 1620 C 157.255 2.46996 -1.92255 0
M  V30 1621 C 157.73 3.46309 -2.99724 0
M  V30 1622 N 159.221 3.53853 -2.98902 0
M  V30 1623 C 159.956 4.3055 -3.787 0
M  V30 1624 N 159.452 5.10482 -4.6838 0
M  V30 1625 N 161.245 4.25757 -3.66998 0
M  V30 1626 H 153.396 0.764867 -1.9815 0
M  V30 1627 H 155.659 0.398966 -0.859959 0
M  V30 1628 H 155.365 1.99565 -2.89597 0
M  V30 1629 H 155.239 3.33274 -1.76659 0
M  V30 1630 H 157.626 2.80081 -0.929445 0
M  V30 1631 H 157.707 1.47039 -2.09316 0
M  V30 1632 H 157.351 3.13957 -3.99241 0
M  V30 1633 H 157.281 4.46049 -2.79907 0
M  V30 1634 H 159.772 2.96812 -2.33904 0
M  V30 1635 H 160.085 5.66284 -5.25873 0
M  V30 1636 H 158.43 5.09747 -4.72422 0
M  V30 1637 H 161.621 3.62383 -2.96304 0
M  V30 1638 H 161.794 4.85279 -4.29427 0
M  V30 1639 N 155.201 0.870884 1.31352 0
M  V30 1640 C 156.164 0.332243 2.26779 0
M  V30 1641 C 157.164 -0.517302 1.52252 0
M  V30 1642 O 158.354 -0.326477 1.71113 0
M  V30 1643 C 155.486 -0.528066 3.36785 0
M  V30 1644 H 156.679 1.17469 2.75937 0
M  V30 1645 H 154.232 0.64655 1.423 0
M  V30 1646 H 154.967 -1.39167 2.92922 0
M  V30 1647 H 154.752 0.0802582 3.92018 0
M  V30 1648 H 156.242 -0.897179 4.07849 0
M  V30 1649 N 156.679 -1.44442 0.630414 0
M  V30 1650 C 157.925 -2.02351 0.134816 0
M  V30 1651 C 158.258 -1.4947 -1.23986 0
M  V30 1652 O 157.533 -0.678475 -1.82283 0
M  V30 1653 C 157.816 -3.59898 0.120707 0
M  V30 1654 C 157.669 -4.23063 1.52767 0
M  V30 1655 C 158.988 -4.36585 -0.555127 0
M  V30 1656 H 156.107 -0.73527 0.0504646 0
M  V30 1657 H 158.749 -1.72022 0.806751 0
M  V30 1658 H 156.899 -3.85868 -0.451477 0
M  V30 1659 H 158.571 -4.08202 2.14869 0
M  V30 1660 H 156.814 -3.80586 2.08175 0
M  V30 1661 H 157.485 -5.32071 1.46984 0
M  V30 1662 H 159.961 -4.16044 -0.0685429 0
M  V30 1663 H 158.837 -5.46294 -0.534185 0
M  V30 1664 H 159.098 -4.11138 -1.62535 0
M  V30 1665 N 158.157 -0.370918 -1.53173 0
M  V30 1666 C 159.382 0.220293 -2.06227 0
M  V30 1667 C 159.807 1.41243 -1.24225 0
M  V30 1668 O 159.165 1.79387 -0.262645 0
M  V30 1669 C 159.213 0.586663 -3.55796 0
M  V30 1670 O 158.317 1.68317 -3.76488 0
M  V30 1671 H 157.658 0.0308099 -0.663285 0
M  V30 1672 H 160.188 -0.533068 -1.97534 0
M  V30 1673 H 160.198 0.85617 -3.98916 0
M  V30 1674 H 158.873 -0.285013 -4.14922 0
M  V30 1675 H 157.45 1.40881 -3.45264 0
M  V30 1676 N 159.635 1.57281 -0.100228 0
M  V30 1677 C 160.912 1.86014 0.604812 0
M  V30 1678 C 161.292 0.998025 1.86018 0
M  V30 1679 O 160.64 0.0718184 2.28387 0
M  V30 1680 C 160.85 3.36784 0.915278 0
M  V30 1681 C 162.198 4.04957 1.27651 0
M  V30 1682 O 163.222 3.41695 1.00613 0
M  V30 1683 O 162.081 5.16593 1.7831 0
M  V30 1684 H 159.175 0.76942 0.303185 0
M  V30 1685 H 161.721 1.69176 -0.133313 0
M  V30 1686 H 160.493 3.91292 0.0248896 0
M  V30 1687 H 160.116 3.58987 1.70921 0
M  V30 1688 N 161.113 -0.173488 1.56642 0
M  V30 1689 C 162.361 -0.888706 1.81512 0
M  V30 1690 C 162.682 -1.82875 0.676872 0
M  V30 1691 O 161.952 -1.93536 -0.303414 0
M  V30 1692 H 160.532 -0.331164 0.669582 0
M  V30 1693 H 163.194 -0.173823 1.94123 0
M  V30 1694 H 162.29 -1.46691 2.75478 0
M  V30 1695 N 162.591 -1.51276 -0.441967 0
M  V30 1696 C 163.821 -1.67273 -1.21257 0
M  V30 1697 C 164.229 -0.367624 -1.85594 0
M  V30 1698 O 163.572 0.663349 -1.71305 0
M  V30 1699 C 163.634 -2.72807 -2.34129 0
M  V30 1700 C 163.298 -4.1554 -1.90198 0
M  V30 1701 C 164.295 -5.00471 -1.40801 0
M  V30 1702 C 161.98 -4.61616 -1.9803 0
M  V30 1703 C 163.974 -6.29536 -0.998174 0
M  V30 1704 C 161.661 -5.90679 -1.56658 0
M  V30 1705 C 162.659 -6.74466 -1.07633 0
M  V30 1706 O 162.347 -8.01116 -0.668459 0
M  V30 1707 H 162.079 -0.564614 -0.371734 0
M  V30 1708 H 164.633 -1.9843 -0.530521 0
M  V30 1709 H 162.863 -2.36954 -3.05597 0
M  V30 1710 H 164.552 -2.77729 -2.96009 0
M  V30 1711 H 165.318 -4.66079 -1.34148 0
M  V30 1712 H 161.197 -3.96526 -2.35135 0
M  V30 1713 H 164.741 -6.94885 -0.61482 0
M  V30 1714 H 160.638 -6.24586 -1.62979 0
M  V30 1715 H 161.406 -8.14633 -0.794722 0
M  V30 1716 N 164.069 0.697108 -1.41344 0
M  V30 1717 C 165.294 1.49096 -1.44171 0
M  V30 1718 C 165.719 1.88038 -0.0481568 0
M  V30 1719 O 165.077 1.54525 0.948243 0
M  V30 1720 C 165.125 2.73088 -2.3549 0
M  V30 1721 O 164.229 3.70514 -1.81088 0
M  V30 1722 H 163.57 0.448801 -0.489361 0
M  V30 1723 H 166.1 0.856992 -1.85787 0
M  V30 1724 H 166.11 3.21413 -2.51312 0
M  V30 1725 H 164.785 2.44081 -3.36745 0
M  V30 1726 H 163.362 3.29441 -1.74708 0
M  V30 1727 N 165.547 1.27147 0.931209 0
M  V30 1728 C 166.787 1.14511 1.69312 0
M  V30 1729 C 167.151 -0.304638 1.89568 0
M  V30 1730 O 168.352 -0.553343 2.63043 0
M  V30 1731 C 166.623 1.90349 3.02493 0
M  V30 1732 S 168.182 1.93884 3.93642 0
M  V30 1733 H 165 0.408858 0.581684 0
M  V30 1734 H 167.602 1.61006 1.10893 0
M  V30 1735 H 166.306 2.94877 2.85439 0
M  V30 1736 H 165.837 1.44333 3.65966 0
M  V30 1737 H 167.852 1.03273 4.85334 0
M  V30 1738 N 167.025 -1.13721 1.09112 0
M  V30 1739 C 168.271 -1.85198 0.826414 0
M  V30 1740 C 168.604 -1.83129 -0.646319 0
M  V30 1741 O 167.879 -1.2671 -1.47563 0
M  V30 1742 C 168.162 -3.33507 1.35812 0
M  V30 1743 C 168.015 -3.44108 2.89672 0
M  V30 1744 C 169.334 -4.28838 0.989256 0
M  V30 1745 H 166.453 -0.67243 0.301675 0
M  V30 1746 H 169.095 -1.33499 1.35197 0
M  V30 1747 H 167.245 -3.77666 0.911082 0
M  V30 1748 H 168.917 -3.08684 3.428 0
M  V30 1749 H 167.16 -2.85087 3.26967 0
M  V30 1750 H 167.831 -4.48388 3.21951 0
M  V30 1751 H 170.307 -3.92734 1.37475 0
M  V30 1752 H 169.183 -5.31051 1.38838 0
M  V30 1753 H 169.444 -4.4198 -0.102924 0
M  V30 1754 N 168.503 -0.877838 -1.30888 0
M  V30 1755 C 169.731 -0.507414 -2.00581 0
M  V30 1756 C 170.146 0.902216 -1.65848 0
M  V30 1757 O 169.503 1.59225 -0.891831 0
M  V30 1758 C 169.554 -0.664162 -3.55347 0
M  V30 1759 O 169.275 -2.01829 -3.8884 0
M  V30 1760 C 170.776 -0.295787 -4.42312 0
M  V30 1761 H 167.996 -0.196866 -0.641471 0
M  V30 1762 H 170.54 -1.18117 -1.66939 0
M  V30 1763 H 168.695 -0.0378619 -3.87381 0
M  V30 1764 H 169.109 -2.03174 -4.8355 0
M  V30 1765 H 170.583 -0.456388 -5.5011 0
M  V30 1766 H 171.06 0.765663 -4.32475 0
M  V30 1767 H 171.666 -0.898113 -4.15709 0
M  V30 1768 N 169.982 1.44106 -0.638065 0
M  V30 1769 C 170.912 2.33448 0.0494287 0
M  V30 1770 C 171.893 1.48606 0.827672 0
M  V30 1771 O 173.078 1.77308 0.792173 0
M  V30 1772 C 170.208 3.31771 1.02691 0
M  V30 1773 C 169.162 4.26485 0.359823 0
M  V30 1774 C 168.488 5.14729 1.44769 0
M  V30 1775 C 169.788 5.17056 -0.738296 0
M  V30 1776 H 171.482 2.91183 -0.696636 0
M  V30 1777 H 169.028 1.40014 -0.336456 0
M  V30 1778 H 170.981 3.93161 1.51666 0
M  V30 1779 H 169.705 2.7226 1.80395 0
M  V30 1780 H 168.364 3.66437 -0.10934 0
M  V30 1781 H 168.012 4.51566 2.21578 0
M  V30 1782 H 167.712 5.78913 1.00668 0
M  V30 1783 H 169.236 5.78991 1.93911 0
M  V30 1784 H 170.65 5.72342 -0.331354 0
M  V30 1785 H 169.047 5.89879 -1.10286 0
M  V30 1786 H 170.117 4.57652 -1.60258 0
M  V30 1787 N 171.46 0.379036 1.52974 0
M  V30 1788 C 172.708 -0.206014 2.01047 0
M  V30 1789 C 173.029 -1.48175 1.26765 0
M  V30 1790 O 172.299 -1.92085 0.384743 0
M  V30 1791 H 170.879 -0.0791184 0.742798 0
M  V30 1792 H 173.541 0.508366 1.88153 0
M  V30 1793 H 172.637 -0.423501 3.09213 0
M  V30 1794 N 172.938 -1.57226 0.108567 0
M  V30 1795 C 174.186 -1.94448 -0.550853 0
M  V30 1796 C 174.507 -0.992074 -1.67878 0
M  V30 1797 O 173.777 -0.0465 -1.95845 0
M  V30 1798 H 172.357 -0.717897 -0.206479 0
M  V30 1799 H 175.019 -1.94112 0.175062 0
M  V30 1800 H 174.115 -2.97218 -0.952259 0
M  V30 1801 N 174.416 0.165178 -1.56732 0
M  V30 1802 C 175.693 0.908443 -1.73224 0
M  V30 1803 C 176.073 2.0013 -0.67165 0
M  V30 1804 O 175.421 2.26353 0.31253 0
M  V30 1805 C 175.631 1.46756 -3.16644 0
M  V30 1806 C 176.979 1.93809 -3.77787 0
M  V30 1807 O 178.003 1.56537 -3.1996 0
M  V30 1808 O 176.862 2.62486 -4.79336 0
M  V30 1809 H 173.956 0.428025 -0.707618 0
M  V30 1810 H 176.502 0.152526 -1.69013 0
M  V30 1811 H 175.274 0.68129 -3.85323 0
M  V30 1812 H 174.897 2.28749 -3.25207 0
M  V30 1813 N 175.894 1.51508 0.433938 0
M  V30 1814 C 176.844 1.69451 1.52546 0
M  V30 1815 C 177.828 0.548474 1.51263 0
M  V30 1816 O 179.02 0.804529 1.57659 0
M  V30 1817 C 176.149 1.82604 2.90707 0
M  V30 1818 C 175.235 3.03002 2.96733 0
M  V30 1819 N 175.626 4.26121 2.72496 0
M  V30 1820 C 173.924 3.02327 3.27894 0
M  V30 1821 C 174.625 5.07407 2.84452 0
M  V30 1822 N 173.601 4.42126 3.16269 0
M  V30 1823 H 177.403 2.62305 1.32564 0
M  V30 1824 H 174.917 1.49202 0.641297 0
M  V30 1825 H 176.914 1.93569 3.69238 0
M  V30 1826 H 175.574 0.909339 3.11707 0
M  V30 1827 H 176.585 4.55009 2.4736 0
M  V30 1828 H 173.262 2.20301 3.54646 0
M  V30 1829 H 174.652 6.15422 2.69639 0
M  V30 1830 N 177.372 -0.689602 1.41712 0
M  V30 1831 C 178.597 -1.48329 1.44959 0
M  V30 1832 C 179.022 -1.8801 0.0581283 0
M  V30 1833 O 178.38 -1.55026 -0.940035 0
M  V30 1834 C 178.428 -2.71835 2.36935 0
M  V30 1835 O 177.532 -3.69549 1.8305 0
M  V30 1836 H 176.873 -0.446199 0.491734 0
M  V30 1837 H 179.403 -0.847127 1.86239 0
M  V30 1838 H 179.413 -3.20076 2.53013 0
M  V30 1839 H 178.088 -2.42291 3.38035 0
M  V30 1840 H 176.665 -3.2851 1.76452 0
M  V30 1841 N 178.85 -1.27639 -0.924453 0
M  V30 1842 C 179.78 -1.13166 -2.04244 0
M  V30 1843 C 180.761 -0.032256 -1.70069 0
M  V30 1844 O 181.946 -0.207328 -1.9309 0
M  V30 1845 C 179.076 -0.781496 -3.38393 0
M  V30 1846 C 178.03 -1.83449 -3.86692 0
M  V30 1847 C 177.356 -1.33822 -5.17683 0
M  V30 1848 C 178.656 -3.23917 -4.09726 0
M  V30 1849 H 180.35 -2.06689 -2.1661 0
M  V30 1850 H 177.896 -0.995136 -1.04082 0
M  V30 1851 H 179.849 -0.667057 -4.16087 0
M  V30 1852 H 178.573 0.189439 -3.2605 0
M  V30 1853 H 177.232 -1.93789 -3.11193 0
M  V30 1854 H 176.88 -0.35665 -5.01734 0
M  V30 1855 H 176.58 -2.04224 -5.50968 0
M  V30 1856 H 178.104 -1.23679 -5.97943 0
M  V30 1857 H 179.518 -3.16559 -4.77978 0
M  V30 1858 H 177.915 -3.92059 -4.54324 0
M  V30 1859 H 178.985 -3.68729 -3.14908 0
M  V30 1860 N 180.328 1.1314 -1.09713 0
M  V30 1861 C 181.291 2.16831 -0.742751 0
M  V30 1862 C 182.291 1.59159 0.229129 0
M  V30 1863 O 183.481 1.74199 0.00693237 0
M  V30 1864 C 180.613 3.40756 -0.0989168 0
M  V30 1865 H 181.806 2.49695 -1.66109 0
M  V30 1866 H 179.359 1.2802 -0.896699 0
M  V30 1867 H 180.094 3.13485 0.830514 0
M  V30 1868 H 179.879 3.83888 -0.798265 0
M  V30 1869 H 181.369 4.17386 0.133524 0
M  V30 1870 N 181.806 0.884767 1.30421 0
M  V30 1871 C 183.055 0.499164 1.95426 0
M  V30 1872 C 183.368 -0.95645 1.70621 0
M  V30 1873 O 184.574 -1.44889 2.29607 0
M  V30 1874 C 183.03 0.84177 3.49917 0
M  V30 1875 C 182.638 2.31514 3.83543 0
M  V30 1876 C 184.382 0.525355 4.21237 0
M  V30 1877 C 182.289 2.59939 5.31212 0
M  V30 1878 H 181.219 0.182944 0.73147 0
M  V30 1879 H 183.87 1.07971 1.48373 0
M  V30 1880 H 182.252 0.190311 3.95542 0
M  V30 1881 H 183.426 3.0109 3.48829 0
M  V30 1882 H 181.741 2.59907 3.25326 0
M  V30 1883 H 184.338 0.714762 5.29901 0
M  V30 1884 H 184.681 -0.535222 4.12845 0
M  V30 1885 H 185.214 1.134 3.81294 0
M  V30 1886 H 181.953 3.64736 5.44654 0
M  V30 1887 H 181.473 1.94972 5.67227 0
M  V30 1888 H 183.152 2.45429 5.98643 0
M  V30 1889 N 183.284 -1.43765 0.645699 0
M  V30 1890 C 184.532 -2.01499 0.155731 0
M  V30 1891 C 184.853 -1.51151 -1.232 0
M  V30 1892 O 184.123 -0.721044 -1.82148 0
M  V30 1893 H 182.703 -0.745003 0.0545817 0
M  V30 1894 H 185.365 -1.76075 0.835677 0
M  V30 1895 H 184.461 -3.1181 0.134577 0
M  V30 1896 N 184.763 -0.387143 -1.52771 0
M  V30 1897 C 185.991 0.195869 -2.05971 0
M  V30 1898 C 186.406 1.40691 -1.25903 0
M  V30 1899 O 185.763 1.79931 -0.305134 0
M  V30 1900 C 185.814 0.56812 -3.57008 0
M  V30 1901 O 185.535 -0.594803 -4.34043 0
M  V30 1902 C 187.036 1.20723 -4.26545 0
M  V30 1903 H 184.256 0.0300578 -0.670326 0
M  V30 1904 H 186.8 -0.551749 -1.96916 0
M  V30 1905 H 184.955 1.26564 -3.66143 0
M  V30 1906 H 185.369 -0.289322 -5.23701 0
M  V30 1907 H 186.843 1.41807 -5.33474 0
M  V30 1908 H 187.32 2.17395 -3.81623 0
M  V30 1909 H 187.926 0.550535 -4.21722 0
M  V30 1910 N 186.241 1.57166 -0.116904 0
M  V30 1911 C 187.49 1.94298 0.541407 0
M  V30 1912 C 187.803 1.00236 1.67964 0
M  V30 1913 O 189.009 1.26826 2.40057 0
M  V30 1914 C 187.465 3.45306 1.01449 0
M  V30 1915 C 187.073 4.47899 -0.0951738 0
M  V30 1916 C 188.817 3.91361 1.6443 0
M  V30 1917 C 186.724 5.90083 0.394491 0
M  V30 1918 H 185.654 0.725308 0.206019 0
M  V30 1919 H 188.305 1.82446 -0.196419 0
M  V30 1920 H 186.687 3.52385 1.80667 0
M  V30 1921 H 187.861 4.52486 -0.871374 0
M  V30 1922 H 186.176 4.11583 -0.631505 0
M  V30 1923 H 188.773 4.95004 2.02176 0
M  V30 1924 H 189.116 3.3122 2.52189 0
M  V30 1925 H 189.649 3.87073 0.917559 0
M  V30 1926 H 186.388 6.53974 -0.447004 0
M  V30 1927 H 185.908 5.88921 1.13722 0
M  V30 1928 H 187.587 6.41307 0.856399 0
M  V30 1929 N 187.719 -0.156864 1.56817 0
M  V30 1930 C 188.944 -0.890331 1.87318 0
M  V30 1931 C 189.369 -1.74394 0.704855 0
M  V30 1932 O 188.727 -1.77972 -0.345786 0
M  V30 1933 C 188.775 -1.73102 3.16336 0
M  V30 1934 O 187.879 -2.83422 2.99576 0
M  V30 1935 H 187.22 -0.24857 0.615718 0
M  V30 1936 H 189.75 -0.150649 2.04045 0
M  V30 1937 H 189.76 -2.12803 3.48107 0
M  V30 1938 H 188.435 -1.10412 4.00976 0
M  V30 1939 H 187.012 -2.47199 2.7919 0
M  V30 1940 N 189.197 -1.51736 -0.425897 0
M  V30 1941 C 190.445 -1.64644 -1.17204 0
M  V30 1942 C 190.766 -0.370486 -1.91448 0
M  V30 1943 O 190.036 0.614088 -1.86026 0
M  V30 1944 H 188.616 -0.606819 -0.435638 0
M  V30 1945 H 191.278 -1.88713 -0.487177 0
M  V30 1946 H 190.374 -2.47958 -1.89534 0
M  V30 1947 N 190.675 0.682077 -1.42076 0
M  V30 1948 C 191.625 1.78823 -1.41444 0
M  V30 1949 C 192.609 1.58323 -0.28681 0
M  V30 1950 O 193.801 1.68926 -0.528498 0
M  V30 1951 C 190.93 3.17232 -1.3122 0
M  V30 1952 C 190.016 3.4338 -2.489 0
M  V30 1953 N 190.407 3.40152 -3.7434 0
M  V30 1954 C 188.705 3.73986 -2.43003 0
M  V30 1955 C 189.406 3.65581 -4.52466 0
M  V30 1956 N 188.382 3.85989 -3.8277 0
M  V30 1957 H 192.184 1.7471 -2.36334 0
M  V30 1958 H 189.698 0.882622 -1.36321 0
M  V30 1959 H 191.695 3.96489 -1.2885 0
M  V30 1960 H 190.355 3.22547 -0.373263 0
M  V30 1961 H 191.366 3.20221 -4.07037 0
M  V30 1962 H 188.043 3.86591 -1.57651 0
M  V30 1963 H 189.433 3.69108 -5.61435 0
M  V30 1964 N 192.153 1.28127 0.917671 0
M  V30 1965 C 193.116 1.11744 2.00115 0
M  V30 1966 C 194.116 0.0583052 1.60694 0
M  V30 1967 O 195.306 0.303755 1.71531 0
M  V30 1968 C 192.438 0.704862 3.33533 0
M  V30 1969 H 193.631 2.07966 2.16079 0
M  V30 1970 H 191.184 1.11058 1.09981 0
M  V30 1971 H 191.919 -0.258299 3.2327 0
M  V30 1972 H 191.704 1.4699 3.63505 0
M  V30 1973 H 193.194 0.612768 4.1308 0
M  V30 1974 N 193.631 -1.12557 1.10312 0
M  V30 1975 C 195.047 -1.36036 0.834649 0
M  V30 1976 C 195.247 -1.93946 -0.546539 0
M  V30 1977 O 194.303 -2.16484 -1.29966 0
M  V30 1978 C 195.616 -2.30312 1.9333 0
M  V30 1979 C 197.164 -2.43906 1.9616 0
M  V30 1980 C 197.639 -3.41496 3.05195 0
M  V30 1981 N 199.13 -3.49053 3.04494 0
M  V30 1982 C 199.865 -4.24471 3.85502 0
M  V30 1983 N 199.361 -5.02966 4.76442 0
M  V30 1984 N 201.154 -4.19864 3.73725 0
M  V30 1985 H 193.305 -0.733246 1.99342 0
M  V30 1986 H 195.568 -0.385234 0.866198 0
M  V30 1987 H 195.274 -1.94933 2.92735 0
M  V30 1988 H 195.148 -3.30421 1.81939 0
M  V30 1989 H 197.535 -2.78567 0.973886 0
M  V30 1990 H 197.616 -1.4369 2.11629 0
M  V30 1991 H 197.26 -3.07565 4.04186 0
M  V30 1992 H 197.19 -4.41539 2.86968 0
M  V30 1993 H 199.681 -2.93053 2.38596 0
M  V30 1994 H 199.994 -5.57846 5.34815 0
M  V30 1995 H 198.339 -5.02167 4.80472 0
M  V30 1996 H 201.53 -3.57623 3.02032 0
M  V30 1997 H 201.703 -4.78386 4.37093 0
M  V30 1998 N 195.109 -0.891671 -1.2995 0
M  V30 1999 C 196.059 -0.334811 -2.25528 0
M  V30 2000 C 197.043 0.540553 -1.51548 0
M  V30 2001 O 198.235 0.383882 -1.72787 0
M  V30 2002 C 195.364 0.44374 -3.4042 0
M  V30 2003 C 194.45 -0.44609 -4.21747 0
M  V30 2004 N 194.841 -1.54963 -4.81477 0
M  V30 2005 C 193.139 -0.242415 -4.45341 0
M  V30 2006 C 193.84 -2.10015 -5.42465 0
M  V30 2007 N 192.816 -1.39423 -5.25416 0
M  V30 2008 H 196.618 -1.17792 -2.69262 0
M  V30 2009 H 194.132 -0.741822 -1.44467 0
M  V30 2010 H 196.129 0.859362 -4.07947 0
M  V30 2011 H 194.789 1.28421 -2.98225 0
M  V30 2012 H 195.8 -1.93244 -4.80497 0
M  V30 2013 H 192.477 0.560342 -4.13723 0
M  V30 2014 H 193.867 -3.02724 -5.9984 0
M  V30 2015 N 196.587 1.43421 -0.653314 0
M  V30 2016 C 197.827 2.03689 -0.170346 0
M  V30 2017 C 198.191 1.50427 1.19314 0
M  V30 2018 O 199.392 2.0234 1.76952 0
M  V30 2019 C 197.663 3.56946 -0.180183 0
M  V30 2020 S 199.222 4.38171 0.234925 0
M  V30 2021 H 196.04 0.707345 -0.0719976 0
M  V30 2022 H 198.642 1.75486 -0.86167 0
M  V30 2023 H 197.346 3.93212 -1.17526 0
M  V30 2024 H 196.877 3.89791 0.531675 0
M  V30 2025 H 198.892 4.73808 1.47378 0
M  V30 2026 N 198.065 0.39524 1.52563 0
M  V30 2027 C 199.476 -0.0774719 1.86539 0
M  V30 2028 C 199.827 -1.45641 1.31466 0
M  V30 2029 O 198.952 -2.06459 0.648367 0
M  V30 2030 C 199.547 -0.147356 3.38479 0
M  V30 2031 C 198.106 -0.564373 3.72145 0
M  V30 2032 C 197.253 0.269919 2.75983 0
M  V30 2033 H 200.204 0.612876 1.46388 0
M  V30 2034 H 200.225 -0.965343 3.68051 0
M  V30 2035 H 199.737 0.856387 3.78534 0
M  V30 2036 H 197.838 -1.57527 3.37663 0
M  V30 2037 H 197.951 -0.318402 4.78041 0
M  V30 2038 H 196.315 -0.265696 2.5331 0
M  V30 2039 H 197.098 1.27175 3.18875 0
M  V30 2040 N 199.544 -1.57102 0.125237 0
M  V30 2041 C 200.821 -1.86953 -0.575142 0
M  V30 2042 C 201.201 -1.02749 -1.84407 0
M  V30 2043 O 200.549 -0.108144 -2.28244 0
M  V30 2044 C 200.759 -3.38198 -0.861583 0
M  V30 2045 C 202.107 -4.06937 -1.21192 0
M  V30 2046 O 203.131 -3.43252 -0.951645 0
M  V30 2047 O 201.99 -5.19364 -1.70068 0
M  V30 2048 H 199.084 -0.774147 -0.290906 0
M  V30 2049 H 201.63 -1.68942 0.160211 0
M  V30 2050 H 200.402 -3.91282 0.0373647 0
M  V30 2051 H 200.025 -3.61661 -1.65188 0
M  V30 2052 N 201.022 0.148545 -1.56898 0
M  V30 2053 C 201.952 1.18524 -2.01182 0
M  V30 2054 C 202.933 1.4489 -0.891123 0
M  V30 2055 O 204.118 1.55836 -1.15882 0
M  V30 2056 C 201.248 2.51879 -2.39112 0
M  V30 2057 C 200.202 2.40038 -3.54353 0
M  V30 2058 C 199.528 3.78089 -3.78091 0
M  V30 2059 C 200.828 1.88577 -4.87069 0
M  V30 2060 H 202.522 0.817029 -2.88036 0
M  V30 2061 H 200.068 0.391575 -1.38574 0
M  V30 2062 H 202.021 3.24627 -2.68692 0
M  V30 2063 H 200.745 2.90532 -1.49193 0
M  V30 2064 H 199.404 1.69742 -3.24936 0
M  V30 2065 H 199.052 4.14175 -2.85426 0
M  V30 2066 H 198.752 3.71028 -4.55645 0
M  V30 2067 H 200.276 4.52387 -4.10095 0
M  V30 2068 H 201.69 2.51117 -5.15377 0
M  V30 2069 H 200.087 1.9241 -5.68417 0
M  V30 2070 H 201.157 0.84136 -4.77545 0
M  V30 2071 N 202.5 1.5196 0.417844 0
M  V30 2072 C 203.74 1.67262 1.17486 0
M  V30 2073 C 204.104 0.38983 1.88001 0
M  V30 2074 O 205.305 0.418845 2.65517 0
M  V30 2075 C 203.576 2.85526 2.14965 0
M  V30 2076 S 205.135 3.21263 2.98891 0
M  V30 2077 H 201.953 0.589077 0.398132 0
M  V30 2078 H 204.555 1.89927 0.463452 0
M  V30 2079 H 203.259 3.77145 1.61833 0
M  V30 2080 H 202.79 2.65107 2.90657 0
M  V30 2081 H 204.805 2.69208 4.16823 0
M  V30 2082 N 203.978 -0.674533 1.42435 0
M  V30 2083 C 205.224 -1.43671 1.43131 0
M  V30 2084 C 205.557 -1.94142 0.0476021 0
M  V30 2085 O 204.832 -1.70924 -0.928188 0
M  V30 2086 C 205.115 -2.63355 2.45594 0
M  V30 2087 C 204.968 -2.18514 3.93156 0
M  V30 2088 C 206.287 -3.65571 2.45043 0
M  V30 2089 H 203.406 -0.521077 0.521198 0
M  V30 2090 H 206.048 -0.766551 1.7385 0
M  V30 2091 H 204.198 -3.2053 2.19528 0
M  V30 2092 H 205.87 -1.66504 4.30202 0
M  V30 2093 H 204.113 -1.50086 4.07009 0
M  V30 2094 H 204.784 -3.04484 4.60428 0
M  V30 2095 H 207.26 -3.18113 2.68223 0
M  V30 2096 H 206.136 -4.46893 3.18713 0
M  V30 2097 H 206.397 -4.16716 1.47649 0
M  V30 2098 N 205.456 -1.28612 -0.910864 0
M  V30 2099 C 206.702 -1.16106 -1.66274 0
M  V30 2100 C 207.035 0.289113 -1.92036 0
M  V30 2101 O 206.31 1.21 -1.52281 0
M  V30 2102 C 206.593 -1.96309 -3.01885 0
M  V30 2103 C 206.446 -3.49405 -2.8326 0
M  V30 2104 C 207.765 -1.78076 -4.02463 0
M  V30 2105 H 204.884 -0.423152 -0.603417 0
M  V30 2106 H 207.526 -1.57961 -1.05586 0
M  V30 2107 H 205.676 -1.60742 -3.53687 0
M  V30 2108 H 207.348 -3.94894 -2.38446 0
M  V30 2109 H 205.591 -3.74893 -2.18261 0
M  V30 2110 H 206.262 -4.00784 -3.79574 0
M  V30 2111 H 208.738 -2.0912 -3.59733 0
M  V30 2112 H 207.614 -2.36561 -4.95308 0
M  V30 2113 H 207.875 -0.733008 -4.35981 0
M  V30 2114 N 206.934 1.1197 -1.10907 0
M  V30 2115 C 208.18 1.84059 -0.865674 0
M  V30 2116 C 208.535 1.82731 0.602254 0
M  V30 2117 O 207.828 1.26543 1.43866 0
M  V30 2118 C 208.022 3.30749 -1.35425 0
M  V30 2119 C 207.851 3.46363 -2.86815 0
M  V30 2120 C 206.621 3.59712 -3.54874 0
M  V30 2121 C 208.819 3.41116 -3.84895 0
M  V30 2122 N 206.801 3.63741 -4.94536 0
M  V30 2123 C 208.172 3.51698 -5.10596 0
M  V30 2124 C 210.227 3.24612 -3.77533 0
M  V30 2125 C 208.93 3.4748 -6.29802 0
M  V30 2126 C 210.956 3.21708 -4.96244 0
M  V30 2127 C 210.318 3.32856 -6.20795 0
M  V30 2128 H 206.417 0.689015 -0.369841 0
M  V30 2129 H 209.001 1.34016 -1.41237 0
M  V30 2130 H 207.172 3.79322 -0.834814 0
M  V30 2131 H 208.904 3.90718 -1.05458 0
M  V30 2132 H 205.659 3.62038 -3.05329 0
M  V30 2133 H 206.083 3.69408 -5.67333 0
M  V30 2134 H 210.725 3.14883 -2.8215 0
M  V30 2135 H 208.443 3.55978 -7.25469 0
M  V30 2136 H 212.029 3.10113 -4.92261 0
M  V30 2137 H 210.909 3.3059 -7.11112 0
M  V30 2138 N 208.412 0.89855 1.29475 0
M  V30 2139 C 209.658 0.524658 1.95896 0
M  V30 2140 C 209.991 -0.926468 1.70676 0
M  V30 2141 O 209.266 -1.65665 1.01908 0
M  V30 2142 C 209.549 0.81633 3.50725 0
M  V30 2143 C 209.402 2.31907 3.85408 0
M  V30 2144 C 210.721 0.302038 4.39062 0
M  V30 2145 H 207.84 0.19209 0.711527 0
M  V30 2146 H 210.482 1.12502 1.53112 0
M  V30 2147 H 208.632 0.305369 3.87298 0
M  V30 2148 H 210.304 2.89949 3.58786 0
M  V30 2149 H 208.547 2.78027 3.32992 0
M  V30 2150 H 209.218 2.47373 4.93468 0
M  V30 2151 H 211.694 0.739551 4.09475 0
M  V30 2152 H 210.57 0.535331 5.46283 0
M  V30 2153 H 210.831 -0.797216 4.34853 0
M  V30 2154 N 209.89 -1.43072 0.660911 0
M  V30 2155 C 211.167 -1.95307 0.107017 0
M  V30 2156 C 211.547 -1.60192 -1.37484 0
M  V30 2157 O 210.895 -0.890949 -2.10415 0
M  V30 2158 C 211.105 -3.47124 0.361402 0
M  V30 2159 C 212.453 -4.23738 0.270455 0
M  V30 2160 O 213.477 -3.54981 0.294382 0
M  V30 2161 O 212.336 -5.46131 0.200737 0
M  V30 2162 H 209.43 -0.826984 -0.00517729 0
M  V30 2163 H 211.976 -1.52972 0.734681 0
M  V30 2164 H 210.748 -3.65837 1.38848 0
M  V30 2165 H 210.371 -3.96475 -0.298953 0
M  V30 2166 N 211.368 -0.403325 -1.52352 0
M  V30 2167 C 212.331 0.413051 -2.25447 0
M  V30 2168 C 213.331 0.978513 -1.276 0
M  V30 2169 O 214.521 0.858305 -1.51587 0
M  V30 2170 C 211.653 1.58087 -3.02029 0
M  V30 2171 H 212.846 -0.227094 -2.99039 0
M  V30 2172 H 210.399 -0.155722 -1.55522 0
M  V30 2173 H 211.134 2.25804 -2.32772 0
M  V30 2174 H 210.919 1.18195 -3.73861 0
M  V30 2175 H 212.409 2.1585 -3.57489 0
M  V30 2176 N 212.846 1.57033 -0.133567 0
M  V30 2177 C 213.796 2.12641 0.822671 0
M  V30 2178 C 214.78 1.05081 1.21847 0
M  V30 2179 O 215.972 1.31287 1.18713 0
M  V30 2180 C 213.101 2.74094 2.06706 0
M  V30 2181 C 212.187 3.88757 1.69497 0
M  V30 2182 N 212.578 4.95194 1.03037 0
M  V30 2183 C 210.876 3.99213 1.98859 0
M  V30 2184 C 211.577 5.75414 0.852873 0
M  V30 2185 N 210.553 5.25726 1.3825 0
M  V30 2186 H 214.355 2.92308 0.305537 0
M  V30 2187 H 211.869 1.62256 0.0684276 0
M  V30 2188 H 213.866 3.12285 2.76195 0
M  V30 2189 H 212.526 1.95896 2.5895 0
M  V30 2190 H 213.537 5.13247 0.692669 0
M  V30 2191 H 210.214 3.32075 2.53047 0
M  V30 2192 H 211.604 6.71089 0.330091 0
M  V30 2193 N 214.325 -0.140222 1.56975 0
M  V30 2194 C 215.288 -1.15689 1.97861 0
M  V30 2195 C 216.288 -1.3549 0.865974 0
M  V30 2196 O 217.478 -1.32367 1.13246 0
M  V30 2197 C 214.61 -2.51582 2.30042 0
M  V30 2198 H 215.803 -0.805971 2.88867 0
M  V30 2199 H 213.356 -0.383801 1.51515 0
M  V30 2200 H 214.091 -2.91632 1.41849 0
M  V30 2201 H 213.876 -2.38569 3.11171 0
M  V30 2202 H 215.366 -3.24792 2.62488 0
M  V30 2203 N 215.803 -1.52179 -0.40978 0
M  V30 2204 C 217.08 -1.56769 -1.16974 0
M  V30 2205 C 217.46 -0.348322 -2.08206 0
M  V30 2206 O 216.808 0.664862 -2.18613 0
M  V30 2207 C 217.018 -2.89603 -1.9476 0
M  V30 2208 C 218.366 -3.42579 -2.50849 0
M  V30 2209 O 219.39 -2.91338 -2.04941 0
M  V30 2210 O 218.249 -4.32054 -3.34652 0
M  V30 2211 H 215.343 -0.631439 -0.534054 0
M  V30 2212 H 217.889 -1.64507 -0.416613 0
M  V30 2213 H 216.661 -3.698 -1.27921 0
M  V30 2214 H 216.284 -2.85155 -2.77079 0
M  V30 2215 N 217.281 0.66697 -1.42791 0
M  V30 2216 C 218.53 1.42278 -1.42968 0
M  V30 2217 C 218.843 1.9553 -0.0524489 0
M  V30 2218 O 220.049 2.71414 0.068363 0
M  V30 2219 C 218.505 2.57418 -2.51524 0
M  V30 2220 C 218.113 2.10832 -3.9529 0
M  V30 2221 C 219.857 3.34878 -2.60877 0
M  V30 2222 C 217.764 3.23101 -4.95338 0
M  V30 2223 H 216.694 0.534533 -0.531781 0
M  V30 2224 H 219.345 0.721302 -1.68729 0
M  V30 2225 H 217.727 3.29971 -2.18941 0
M  V30 2226 H 218.901 1.4538 -4.37266 0
M  V30 2227 H 217.216 1.46289 -3.89857 0
M  V30 2228 H 219.813 4.18505 -3.32802 0
M  V30 2229 H 220.156 3.81993 -1.6549 0
M  V30 2230 H 220.689 2.69398 -2.92693 0
M  V30 2231 H 217.428 2.80969 -5.9223 0
M  V30 2232 H 216.948 3.87309 -4.57987 0
M  V30 2233 H 218.627 3.88447 -5.17415 0
M  V30 2234 N 218.759 1.29093 0.90403 0
M  V30 2235 C 219.707 1.13727 2.02901 0
M  V30 2236 C 220.701 0.0539853 1.69314 0
M  V30 2237 O 221.907 0.213469 1.7873 0
M  V30 2238 H 218.282 0.35117 0.664969 0
M  V30 2239 H 220.253 2.08982 2.13001 0
M  V30 2240 C 219.002 0.826066 3.37745 0
M  V30 2241 H 218.325 1.65164 3.64089 0
M  V30 2242 H 219.765 0.758559 4.17159 0
M  V30 2243 C 218.224 -0.470541 3.33598 0
M  V30 2244 O 218.754 -1.49792 3.72727 0
M  V30 2245 N 216.96 -0.474812 2.86695 0
M  V30 2246 H 216.507 0.361692 2.55048 0
M  V30 2247 H 216.465 -1.34236 2.84303 0
M  V30 2248 N 220.237 -1.11381 1.11499 0
M  V30 2249 C 221.465 -1.86934 0.88675 0
M  V30 2250 C 221.88 -1.80195 -0.563476 0
M  V30 2251 O 221.237 -1.18367 -1.38908 0
M  V30 2252 C 221.288 -3.35722 1.34064 0
M  V30 2253 O 221.009 -3.4232 2.73401 0
M  V30 2254 C 222.51 -4.2818 1.14791 0
M  V30 2255 H 219.73 -0.591117 0.317523 0
M  V30 2256 H 222.274 -1.40865 1.48248 0
M  V30 2257 H 220.429 -3.79294 0.788355 0
M  V30 2258 H 220.843 -4.34971 2.93087 0
M  V30 2259 H 222.317 -5.30817 1.5145 0
M  V30 2260 H 222.794 -4.39113 0.0875279 0
M  V30 2261 H 223.4 -3.90402 1.68721 0
M  V30 2262 N 221.715 -0.905404 -1.28997 0
M  V30 2263 C 223.126 -0.581953 -1.77398 0
M  V30 2264 C 223.477 0.902552 -1.74208 0
M  V30 2265 O 222.602 1.70584 -1.33154 0
M  V30 2266 C 223.197 -1.04961 -3.22131 0
M  V30 2267 C 221.756 -0.777229 -3.68288 0
M  V30 2268 C 220.903 -1.22109 -2.48967 0
M  V30 2269 H 223.854 -1.08754 -1.15578 0
M  V30 2270 H 223.875 -0.387387 -3.78523 0
M  V30 2271 H 223.387 -2.13008 -3.24421 0
M  V30 2272 H 221.488 0.290383 -3.71467 0
M  V30 2273 H 221.601 -1.37911 -4.58822 0
M  V30 2274 H 219.965 -0.639971 -2.46529 0
M  V30 2275 H 220.748 -2.30972 -2.53982 0
M  V30 2276 N 223.193 1.4272 -0.668489 0
M  V30 2277 C 224.123 2.335 -0.000100175 0
M  V30 2278 C 225.104 1.50328 0.795964 0
M  V30 2279 O 226.289 1.78949 0.754385 0
M  V30 2280 C 223.419 3.33874 0.956302 0
M  V30 2281 C 222.373 4.27152 0.269278 0
M  V30 2282 C 221.699 5.17684 1.33818 0
M  V30 2283 C 222.999 5.15373 -0.847805 0
M  V30 2284 H 224.693 2.89639 -0.758244 0
M  V30 2285 H 222.239 1.39269 -0.366079 0
M  V30 2286 H 224.192 3.9629 1.43292 0
M  V30 2287 H 222.916 2.76025 1.74579 0
M  V30 2288 H 221.575 3.66123 -0.187042 0
M  V30 2289 H 221.223 4.56165 2.1195 0
M  V30 2290 H 220.923 5.80918 0.883659 0
M  V30 2291 H 222.447 5.82974 1.81586 0
M  V30 2292 H 223.861 5.7151 -0.452681 0
M  V30 2293 H 222.258 5.87407 -1.22773 0
M  V30 2294 H 223.328 4.5415 -1.69929 0
M  V30 2295 N 224.671 0.411399 1.52136 0
M  V30 2296 C 225.899 -0.163076 2.06256 0
M  V30 2297 C 226.314 -1.3867 1.28125 0
M  V30 2298 O 225.671 -1.79423 0.333721 0
M  V30 2299 C 225.722 -0.511252 3.57867 0
M  V30 2300 O 225.443 0.66378 4.33042 0
M  V30 2301 C 226.944 -1.13921 4.28412 0
M  V30 2302 H 224.164 -0.0193897 0.67072 0
M  V30 2303 H 226.708 0.583007 1.96013 0
M  V30 2304 H 224.863 -1.20723 3.6811 0
M  V30 2305 H 225.277 0.372601 5.23175 0
M  V30 2306 H 226.751 -1.33302 5.35663 0
M  V30 2307 H 227.228 -2.11296 3.85033 0
M  V30 2308 H 227.834 -0.483373 4.22544 0
M  V30 2309 N 226.149 -1.5696 0.141893 0
M  V30 2310 C 227.377 -2.00322 -0.517579 0
M  V30 2311 C 227.792 -1.02193 -1.58752 0
M  V30 2312 O 227.149 -0.0181619 -1.82491 0
M  V30 2313 C 227.2 -3.43618 -1.12289 0
M  V30 2314 O 226.921 -4.37995 -0.0956929 0
M  V30 2315 C 228.422 -4.02231 -1.86347 0
M  V30 2316 H 225.642 -0.657243 -0.135177 0
M  V30 2317 H 228.186 -2.03146 0.234973 0
M  V30 2318 H 226.341 -3.41662 -1.82609 0
M  V30 2319 H 226.755 -5.21729 -0.538469 0
M  V30 2320 H 228.229 -5.04509 -2.23997 0
M  V30 2321 H 228.706 -3.42655 -2.74744 0
M  V30 2322 H 229.312 -4.07802 -1.20737 0
M  V30 2323 N 227.627 0.131896 -1.57047 0
M  V30 2324 C 228.852 0.860418 -1.8871 0
M  V30 2325 C 229.277 1.73251 -0.73251 0
M  V30 2326 O 228.635 1.785 0.317429 0
M  V30 2327 C 228.683 1.68047 -3.19049 0
M  V30 2328 O 227.787 2.7862 -3.04047 0
M  V30 2329 H 227.128 0.238743 -0.619595 0
M  V30 2330 H 229.658 0.118169 -2.04258 0
M  V30 2331 H 229.668 2.07238 -3.51449 0
M  V30 2332 H 228.343 1.04018 -4.02682 0
M  V30 2333 H 226.92 2.42726 -2.83088 0
M  V30 2334 N 229.106 1.52395 0.401703 0
M  V30 2335 C 230.331 1.70972 1.17403 0
M  V30 2336 C 230.756 0.421615 1.83314 0
M  V30 2337 O 230.114 -0.621564 1.70312 0
M  V30 2338 C 230.162 2.85151 2.20728 0
M  V30 2339 O 229.266 2.51238 3.27037 0
M  V30 2340 H 228.607 0.568927 0.342372 0
M  V30 2341 H 231.137 1.99131 0.469891 0
M  V30 2342 H 231.147 3.10279 2.64936 0
M  V30 2343 H 229.822 3.78603 1.7214 0
M  V30 2344 H 228.399 2.36808 2.88057 0
M  V30 2345 N 230.584 -0.659388 1.43143 0
M  V30 2346 C 231.832 -1.41654 1.44147 0
M  V30 2347 C 232.153 -1.94893 0.0645739 0
M  V30 2348 O 231.423 -1.74044 -0.899198 0
M  V30 2349 H 230.003 -0.525708 0.530697 0
M  V30 2350 H 232.665 -0.778097 1.78694 0
M  V30 2351 H 231.761 -2.26195 2.1504 0
M  V30 2352 N 232.062 -1.29571 -0.897171 0
M  V30 2353 C 233.01 -1.14802 -2.02295 0
M  V30 2354 C 234.004 -0.0629637 -1.69283 0
M  V30 2355 O 235.21 -0.222945 -1.78614 0
M  V30 2356 H 231.585 -0.354692 -0.663097 0
M  V30 2357 H 233.556 -2.10108 -2.11889 0
M  V30 2358 C 232.305 -0.843966 -3.37302 0
M  V30 2359 H 231.628 -1.67093 -3.63208 0
M  V30 2360 H 233.068 -0.780672 -4.16751 0
M  V30 2361 C 231.527 0.452843 -3.33843 0
M  V30 2362 O 232.057 1.47813 -3.73516 0
M  V30 2363 N 230.263 0.459601 -2.86943 0
M  V30 2364 H 229.81 -0.375213 -2.54853 0
M  V30 2365 H 229.768 1.32726 -2.85011 0
M  V30 2366 N 233.54 1.10788 -1.12088 0
M  V30 2367 C 234.47 2.19083 -0.807755 0
M  V30 2368 C 235.451 1.6858 0.226859 0
M  V30 2369 O 236.636 1.93997 0.0888475 0
M  V30 2370 C 233.766 3.46344 -0.257576 0
M  V30 2371 C 232.72 4.101 -1.22483 0
M  V30 2372 C 232.046 5.32016 -0.535052 0
M  V30 2373 C 233.346 4.54236 -2.57811 0
M  V30 2374 H 235.04 2.45534 -1.71328 0
M  V30 2375 H 232.586 1.1801 -0.825205 0
M  V30 2376 H 234.539 4.21392 -0.0262679 0
M  V30 2377 H 233.263 3.19373 0.683278 0
M  V30 2378 H 231.922 3.37054 -1.44189 0
M  V30 2379 H 231.57 5.01319 0.410827 0
M  V30 2380 H 231.27 5.75625 -1.18024 0
M  V30 2381 H 232.794 6.09799 -0.312695 0
M  V30 2382 H 234.208 5.20575 -2.40155 0
M  V30 2383 H 232.605 5.08682 -3.18375 0
M  V30 2384 H 233.675 3.6734 -3.16528 0
M  V30 2385 N 235.018 0.912232 1.28515 0
M  V30 2386 C 235.968 0.370649 2.24967 0
M  V30 2387 C 236.952 -0.516375 1.52389 0
M  V30 2388 O 238.144 -0.356345 1.73376 0
M  V30 2389 C 235.273 -0.389526 3.41083 0
M  V30 2390 C 234.359 0.51313 4.20984 0
M  V30 2391 N 234.75 1.62604 4.78951 0
M  V30 2392 C 233.048 0.313235 4.44899 0
M  V30 2393 C 233.749 2.18619 5.39055 0
M  V30 2394 N 232.725 1.47765 5.23132 0
M  V30 2395 H 236.527 1.22061 2.67354 0
M  V30 2396 H 234.041 0.764712 1.43269 0
M  V30 2397 H 236.038 -0.794353 4.09262 0
M  V30 2398 H 234.698 -1.2366 3.0023 0
M  V30 2399 H 235.709 2.00864 4.77362 0
M  V30 2400 H 232.386 -0.494452 4.14562 0
M  V30 2401 H 233.776 3.12228 5.94948 0
M  V30 2402 N 236.496 -1.42363 0.676048 0
M  V30 2403 C 237.744 -2.01123 0.198437 0
M  V30 2404 C 238.065 -1.53731 -1.19966 0
M  V30 2405 O 237.335 -0.759518 -1.80577 0
M  V30 2406 H 235.915 -0.743678 0.0703721 0
M  V30 2407 H 238.577 -1.74263 0.872837 0
M  V30 2408 H 237.673 -3.11454 0.200686 0
M  V30 2409 N 237.974 -0.419461 -1.51915 0
M  V30 2410 C 238.906 0.43646 -2.25006 0
M  V30 2411 C 239.919 1.00149 -1.28351 0
M  V30 2412 O 241.108 0.898674 -1.54227 0
M  V30 2413 C 238.208 1.6206 -2.9764 0
M  V30 2414 C 237.381 1.17763 -4.21249 0
M  V30 2415 C 236.44 2.22985 -4.76617 0
M  V30 2416 O 235.466 1.83151 -5.38929 0
M  V30 2417 N 236.668 3.55271 -4.59089 0
M  V30 2418 H 239.433 -0.18989 -2.99098 0
M  V30 2419 H 236.994 -0.247386 -1.59999 0
M  V30 2420 H 238.986 2.32038 -3.31573 0
M  V30 2421 H 237.556 2.15266 -2.2667 0
M  V30 2422 H 236.776 0.305582 -3.93014 0
M  V30 2423 H 238.064 0.858781 -5.015 0
M  V30 2424 H 237.462 3.90377 -4.09417 0
M  V30 2425 H 236.019 4.21195 -4.97432 0
M  V30 2426 N 239.452 1.56882 -0.150215 0
M  V30 2427 C 240.863 1.82995 0.370076 0
M  V30 2428 C 241.214 1.06907 1.64515 0
M  V30 2429 O 240.339 0.315369 2.1409 0
M  V30 2430 C 240.934 3.31942 0.678208 0
M  V30 2431 C 239.493 3.58625 1.14301 0
M  V30 2432 C 238.64 2.76792 0.167778 0
M  V30 2433 H 241.591 1.54209 -0.374858 0
M  V30 2434 H 241.612 3.48272 1.53254 0
M  V30 2435 H 241.124 3.87294 -0.249991 0
M  V30 2436 H 239.225 3.08664 2.08704 0
M  V30 2437 H 239.338 4.67073 1.06676 0
M  V30 2438 H 237.702 2.45972 0.661037 0
M  V30 2439 H 238.485 3.34916 -0.754069 0
M  V30 2440 N 240.93 -0.123565 1.57115 0
M  V30 2441 C 242.176 -0.833386 1.84885 0
M  V30 2442 C 242.509 -1.79742 0.735292 0
M  V30 2443 O 241.784 -1.92764 -0.25925 0
M  V30 2444 C 242.067 -1.5873 3.23228 0
M  V30 2445 C 241.92 -0.643183 4.45178 0
M  V30 2446 C 243.239 -2.54453 3.59085 0
M  V30 2447 H 240.358 -0.301518 0.6725 0
M  V30 2448 H 243 -0.097778 1.89748 0
M  V30 2449 H 241.15 -2.21438 3.19214 0
M  V30 2450 H 242.822 -0.0253015 4.61293 0
M  V30 2451 H 241.065 0.0456139 4.33776 0
M  V30 2452 H 241.736 -1.20724 5.38637 0
M  V30 2453 H 244.212 -2.01853 3.63861 0
M  V30 2454 H 243.088 -3.04238 4.5687 0
M  V30 2455 H 243.349 -3.36906 2.86264 0
M  V30 2456 N 242.408 -1.52605 -0.393616 0
M  V30 2457 C 243.633 -1.71592 -1.16495 0
M  V30 2458 C 244.058 -0.43133 -1.83088 0
M  V30 2459 O 243.416 0.612523 -1.7064 0
M  V30 2460 C 243.464 -2.86318 -2.19213 0
M  V30 2461 O 242.568 -2.52969 -3.257 0
M  V30 2462 H 241.909 -0.570734 -0.33935 0
M  V30 2463 H 244.439 -1.99377 -0.459324 0
M  V30 2464 H 244.449 -3.1168 -2.63286 0
M  V30 2465 H 243.124 -3.79511 -1.7013 0
M  V30 2466 H 241.701 -2.38332 -2.86797 0
M  V30 2467 N 243.887 0.651787 -1.4349 0
M  V30 2468 C 245.134 1.41167 -1.45183 0
M  V30 2469 C 245.462 1.94349 -0.0766601 0
M  V30 2470 O 244.717 1.72804 0.918555 0
M  V30 2471 C 245.016 2.60914 -2.44251 0
M  V30 2472 C 244.682 2.26142 -3.9009 0
M  V30 2473 C 243.344 2.16371 -4.2981 0
M  V30 2474 C 245.696 1.98334 -4.81989 0
M  V30 2475 C 243.024 1.7695 -5.5938 0
M  V30 2476 C 245.376 1.6041 -6.11924 0
M  V30 2477 C 244.04 1.49166 -6.5062 0
M  V30 2478 H 243.31 0.516566 -0.531263 0
M  V30 2479 H 245.957 0.741099 -1.76579 0
M  V30 2480 H 244.262 3.3311 -2.06265 0
M  V30 2481 H 245.959 3.19127 -2.42815 0
M  V30 2482 H 242.549 2.34658 -3.58655 0
M  V30 2483 H 246.733 2.04803 -4.52072 0
M  V30 2484 H 241.989 1.66831 -5.88198 0
M  V30 2485 H 246.163 1.37925 -6.82605 0
M  V30 2486 H 243.79 1.1839 -7.50925 0
M  V30 2487 N 245.365 1.30045 0.890287 0
M  V30 2488 C 246.295 1.18541 2.01172 0
M  V30 2489 C 247.276 0.0773356 1.69924 0
M  V30 2490 O 248.461 0.25845 1.92473 0
M  V30 2491 C 245.591 0.870941 3.36202 0
M  V30 2492 C 244.545 1.93637 3.81692 0
M  V30 2493 C 243.871 1.475 5.13953 0
M  V30 2494 C 245.171 3.34666 4.00994 0
M  V30 2495 H 246.865 2.12359 2.11054 0
M  V30 2496 H 244.411 1.02238 1.01407 0
M  V30 2497 H 246.364 0.777141 4.14172 0
M  V30 2498 H 245.088 -0.102926 3.26438 0
M  V30 2499 H 243.747 2.01972 3.05946 0
M  V30 2500 H 243.395 0.489551 5.00612 0
M  V30 2501 H 243.095 2.1876 5.4536 0
M  V30 2502 H 244.619 1.39489 5.94454 0
M  V30 2503 H 246.033 3.2912 4.69417 0
M  V30 2504 H 244.43 4.03966 4.43769 0
M  V30 2505 H 245.5 3.76949 3.05021 0
M  V30 2506 N 246.843 -1.10192 1.12674 0
M  V30 2507 C 247.773 -2.18652 0.819362 0
M  V30 2508 C 248.754 -1.68698 -0.217915 0
M  V30 2509 O 249.939 -1.94041 -0.0785581 0
M  V30 2510 C 247.069 -3.46202 0.27594 0
M  V30 2511 C 246.023 -4.09444 1.24656 0
M  V30 2512 C 245.349 -5.31725 0.563258 0
M  V30 2513 C 246.649 -4.52863 2.60217 0
M  V30 2514 H 248.343 -2.44622 1.72628 0
M  V30 2515 H 245.889 -1.17571 0.831451 0
M  V30 2516 H 247.842 -4.21372 0.0486149 0
M  V30 2517 H 246.566 -3.1973 -0.666331 0
M  V30 2518 H 245.225 -3.36284 1.45974 0
M  V30 2519 H 244.873 -5.0153 -0.384235 0
M  V30 2520 H 244.573 -5.74991 1.21075 0
M  V30 2521 H 246.097 -6.09624 0.34503 0
M  V30 2522 H 247.511 -5.19294 2.42913 0
M  V30 2523 H 245.908 -5.06986 3.21068 0
M  V30 2524 H 246.978 -3.65656 3.18471 0
M  V30 2525 N 248.321 -0.919034 -1.28029 0
M  V30 2526 C 249.737 -0.617972 -1.4715 0
M  V30 2527 C 249.937 0.835242 -1.83374 0
M  V30 2528 O 248.993 1.61388 -1.94191 0
M  V30 2529 C 250.306 -1.56041 -2.57044 0
M  V30 2530 C 251.854 -1.56769 -2.7091 0
M  V30 2531 C 252.329 -2.49688 -3.83953 0
M  V30 2532 N 253.82 -2.47845 -3.91314 0
M  V30 2533 C 254.555 -3.16437 -4.78179 0
M  V30 2534 N 254.051 -3.94376 -5.69596 0
M  V30 2535 N 255.844 -3.05498 -4.71834 0
M  V30 2536 H 247.995 -1.85866 -1.02798 0
M  V30 2537 H 250.258 -0.797506 -0.512531 0
M  V30 2538 H 249.964 -2.59671 -2.372 0
M  V30 2539 H 249.838 -1.29551 -3.54255 0
M  V30 2540 H 252.225 -0.538745 -2.90141 0
M  V30 2541 H 252.306 -1.87305 -1.74214 0
M  V30 2542 H 251.95 -3.52688 -3.65477 0
M  V30 2543 H 251.88 -2.16453 -4.80058 0
M  V30 2544 H 254.371 -1.91234 -3.25941 0
M  V30 2545 H 254.684 -4.43721 -6.32718 0
M  V30 2546 H 253.029 -3.98481 -5.69419 0
M  V30 2547 H 256.22 -2.44108 -3.99411 0
M  V30 2548 H 256.393 -3.59225 -5.39316 0
M  V30 2549 N 249.799 1.42003 -0.683588 0
M  V30 2550 C 250.709 2.34597 -0.0109075 0
M  V30 2551 C 251.725 1.55576 0.779245 0
M  V30 2552 O 252.901 1.88107 0.719555 0
M  V30 2553 C 249.966 3.34199 0.922588 0
M  V30 2554 C 249.027 4.29115 0.125984 0
M  V30 2555 C 248.26 5.23959 1.01502 0
M  V30 2556 O 248.483 5.23952 2.25456 0
M  V30 2557 O 247.417 6.00053 0.47111 0
M  V30 2558 H 251.243 2.93675 -0.773853 0
M  V30 2559 H 248.828 1.42654 -0.443861 0
M  V30 2560 H 250.71 3.95365 1.45823 0
M  V30 2561 H 249.385 2.77582 1.66523 0
M  V30 2562 H 248.292 3.71335 -0.453969 0
M  V30 2563 H 249.625 4.88798 -0.577736 0
M  V30 2564 N 251.277 0.427512 1.51691 0
M  V30 2565 C 252.207 -0.3796 2.30394 0
M  V30 2566 C 253.188 -1.02982 1.35384 0
M  V30 2567 O 254.373 -1.03534 1.643 0
M  V30 2568 C 251.503 -1.48649 3.1388 0
M  V30 2569 C 250.457 -0.960294 4.17088 0
M  V30 2570 C 249.783 -2.16219 4.89033 0
M  V30 2571 C 251.083 -0.00153679 5.223 0
M  V30 2572 H 252.777 0.277164 2.98114 0
M  V30 2573 H 250.323 0.134739 1.43368 0
M  V30 2574 H 252.276 -2.05826 3.67714 0
M  V30 2575 H 251 -2.1714 2.43962 0
M  V30 2576 H 249.659 -0.410806 3.64291 0
M  V30 2577 H 249.307 -2.83307 4.15628 0
M  V30 2578 H 249.007 -1.81654 5.58816 0
M  V30 2579 H 250.531 -2.73968 5.45687 0
M  V30 2580 H 251.945 -0.482687 5.71264 0
M  V30 2581 H 250.342 0.256199 5.99553 0
M  V30 2582 H 251.412 0.938174 4.75738 0
M  V30 2583 N 252.755 -1.56801 0.158532 0
M  V30 2584 C 253.687 -2.14488 -0.807923 0
M  V30 2585 C 254.7 -1.09721 -1.20271 0
M  V30 2586 O 255.889 -1.36956 -1.14478 0
M  V30 2587 C 252.989 -2.66217 -2.09718 0
M  V30 2588 C 252.162 -3.95507 -1.86796 0
M  V30 2589 C 251.221 -4.3243 -2.99818 0
M  V30 2590 O 250.247 -5.00543 -2.71008 0
M  V30 2591 N 251.449 -3.92947 -4.27285 0
M  V30 2592 H 254.214 -2.98042 -0.314816 0
M  V30 2593 H 251.775 -1.61881 -0.0246692 0
M  V30 2594 H 253.767 -2.87924 -2.84398 0
M  V30 2595 H 252.337 -1.87324 -2.50257 0
M  V30 2596 H 251.557 -3.82309 -0.96089 0
M  V30 2597 H 252.845 -4.79972 -1.68833 0
M  V30 2598 H 252.243 -3.38087 -4.53557 0
M  V30 2599 H 250.8 -4.19681 -4.9871 0
M  V30 2600 N 254.233 0.115231 -1.57178 0
M  V30 2601 C 255.51 0.852873 -1.76027 0
M  V30 2602 C 255.89 1.97892 -0.73498 0
M  V30 2603 O 255.238 2.27232 0.24036 0
M  V30 2604 C 255.448 1.36608 -3.21153 0
M  V30 2605 C 256.796 1.81692 -3.83762 0
M  V30 2606 O 257.82 1.46278 -3.24779 0
M  V30 2607 O 256.679 2.47104 -4.87444 0
M  V30 2608 H 253.773 0.405296 -0.720877 0
M  V30 2609 H 256.319 0.0986785 -1.69413 0
M  V30 2610 H 255.091 0.558357 -3.87296 0
M  V30 2611 H 254.714 2.18287 -3.3232 0
M  V30 2612 N 255.711 1.52812 0.385517 0
M  V30 2613 C 256.658 1.77838 1.47113 0
M  V30 2614 C 257.628 0.621757 1.54024 0
M  V30 2615 O 258.813 0.861846 1.70226 0
M  V30 2616 C 255.953 1.95618 2.84302 0
M  V30 2617 C 255.066 3.23316 2.86515 0
M  V30 2618 C 254.201 3.31394 4.15152 0
M  V30 2619 C 253.24 4.53201 4.1143 0
M  V30 2620 N 252.377 4.58542 5.3168 0
M  V30 2621 H 257.217 2.70482 1.25073 0
M  V30 2622 H 254.754 1.34006 0.606692 0
M  V30 2623 H 256.712 2.03912 3.63972 0
M  V30 2624 H 255.342 1.06331 3.04784 0
M  V30 2625 H 254.394 3.24076 1.99195 0
M  V30 2626 H 255.706 4.13045 2.79634 0
M  V30 2627 H 254.86 3.3889 5.03228 0
M  V30 2628 H 253.599 2.39645 4.24761 0
M  V30 2629 H 252.604 4.45827 3.21742 0
M  V30 2630 H 253.829 5.46271 4.03442 0
M  V30 2631 H 251.775 3.69686 5.41912 0
M  V30 2632 H 251.692 5.42148 5.26889 0
M  V30 2633 H 252.96 4.70296 6.21644 0
M  V30 2634 N 257.189 -0.644168 1.43834 0
M  V30 2635 C 258.435 -1.40603 1.46146 0
M  V30 2636 C 258.768 -1.93997 0.0887717 0
M  V30 2637 O 258.043 -1.72854 -0.891724 0
M  V30 2638 C 258.326 -2.58086 2.51124 0
M  V30 2639 C 258.179 -2.10126 3.97702 0
M  V30 2640 C 259.498 -3.60291 2.52742 0
M  V30 2641 H 256.617 -0.509905 0.532134 0
M  V30 2642 H 259.259 -0.729502 1.75437 0
M  V30 2643 H 257.409 -3.15801 2.26278 0
M  V30 2644 H 259.081 -1.57342 4.33637 0
M  V30 2645 H 257.324 -1.41419 4.10101 0
M  V30 2646 H 257.995 -2.94649 4.66783 0
M  V30 2647 H 260.471 -3.12352 2.7491 0
M  V30 2648 H 259.347 -4.40032 3.28121 0
M  V30 2649 H 259.608 -4.1349 1.56455 0
M  V30 2650 N 258.668 -1.30515 -0.883378 0
M  V30 2651 C 260.079 -1.17509 -1.45081 0
M  V30 2652 C 260.43 0.223605 -1.94922 0
M  V30 2653 O 259.555 1.12041 -1.85137 0
M  V30 2654 C 260.15 -2.12715 -2.63701 0
M  V30 2655 C 258.709 -2.03682 -3.16529 0
M  V30 2656 C 257.856 -2.02706 -1.89224 0
M  V30 2657 H 260.807 -1.42762 -0.693165 0
M  V30 2658 H 260.828 -1.70891 -3.39965 0
M  V30 2659 H 260.34 -3.14505 -2.27395 0
M  V30 2660 H 258.441 -1.05039 -3.57488 0
M  V30 2661 H 258.554 -2.92146 -3.7972 0
M  V30 2662 H 256.918 -1.4753 -2.07622 0
M  V30 2663 H 257.701 -3.06229 -1.55174 0
M  V30 2664 N 260.146 1.09593 -1.13257 0
M  V30 2665 C 261.078 2.16015 -0.766167 0
M  V30 2666 C 262.091 1.61423 0.211303 0
M  V30 2667 O 263.28 1.78498 -0.00863946 0
M  V30 2668 C 260.38 3.38706 -0.114662 0
M  V30 2669 C 259.553 4.22717 -1.12379 0
M  V30 2670 C 258.612 5.23835 -0.498301 0
M  V30 2671 O 257.638 5.573 -1.15781 0
M  V30 2672 N 258.84 5.75886 0.730417 0
M  V30 2673 H 261.605 2.48055 -1.68193 0
M  V30 2674 H 259.166 1.25292 -1.02535 0
M  V30 2675 H 261.158 4.03464 0.315991 0
M  V30 2676 H 259.728 3.04569 0.704011 0
M  V30 2677 H 258.948 3.54122 -1.73179 0
M  V30 2678 H 260.236 4.75673 -1.80589 0
M  V30 2679 H 259.634 5.50911 1.28504 0
M  V30 2680 H 258.191 6.42387 1.10376 0
M  V30 2681 N 261.624 0.925811 1.2754 0
M  V30 2682 C 262.554 0.440748 2.29303 0
M  V30 2683 C 263.535 -0.497971 1.62648 0
M  V30 2684 O 264.72 -0.403126 1.8997 0
M  V30 2685 C 261.85 -0.309048 3.45922 0
M  V30 2686 C 260.804 0.54166 4.24559 0
M  V30 2687 C 260.13 -0.337191 5.33636 0
M  V30 2688 C 261.43 1.80516 4.90114 0
M  V30 2689 H 263.124 1.29121 2.70126 0
M  V30 2690 H 260.67 0.622323 1.29858 0
M  V30 2691 H 262.623 -0.659315 4.1621 0
M  V30 2692 H 261.347 -1.19352 3.04011 0
M  V30 2693 H 260.006 0.874609 3.56014 0
M  V30 2694 H 259.654 -1.22056 4.87966 0
M  V30 2695 H 259.354 0.228497 5.87156 0
M  V30 2696 H 260.878 -0.683072 6.06767 0
M  V30 2697 H 262.292 1.52307 5.52698 0
M  V30 2698 H 260.689 2.3142 5.53683 0
M  V30 2699 H 261.759 2.52581 4.13921 0
M  V30 2700 N 263.102 -1.41638 0.69111 0
M  V30 2701 C 264.513 -1.84346 0.295517 0
M  V30 2702 C 264.864 -1.57833 -1.16547 0
M  V30 2703 O 263.989 -1.04648 -1.89414 0
M  V30 2704 C 264.584 -3.34636 0.529575 0
M  V30 2705 C 263.143 -3.7593 0.187944 0
M  V30 2706 C 262.29 -2.65082 0.814052 0
M  V30 2707 H 265.241 -1.31253 0.892092 0
M  V30 2708 H 265.262 -3.79903 -0.213148 0
M  V30 2709 H 264.774 -3.53901 1.59297 0
M  V30 2710 H 262.875 -3.62268 -0.871367 0
M  V30 2711 H 262.988 -4.74808 0.63985 0
M  V30 2712 H 261.352 -2.53528 0.244017 0
M  V30 2713 H 262.135 -2.87167 1.88123 0
M  V30 2714 N 264.58 -0.43555 -1.51462 0
M  V30 2715 C 265.828 0.131254 -2.01673 0
M  V30 2716 C 266.149 1.43368 -1.32177 0
M  V30 2717 O 265.419 1.90524 -0.455769 0
M  V30 2718 H 263.999 0.0514954 -0.745223 0
M  V30 2719 H 266.661 -0.577847 -1.86137 0
M  V30 2720 H 265.757 0.308446 -3.10572 0
M  V30 2721 N 266.058 1.56714 -0.166846 0
M  V30 2722 C 267.305 1.96747 0.479252 0
M  V30 2723 C 267.633 1.05263 1.63554 0
M  V30 2724 O 266.888 0.0858098 1.95512 0
M  V30 2725 C 267.187 3.42889 1.00806 0
M  V30 2726 C 266.853 4.50889 -0.0318574 0
M  V30 2727 C 265.515 4.8015 -0.317675 0
M  V30 2728 C 267.867 5.15949 -0.737956 0
M  V30 2729 C 265.195 5.71772 -1.31506 0
M  V30 2730 C 267.547 6.08647 -1.72429 0
M  V30 2731 C 266.211 6.36277 -2.0176 0
M  V30 2732 H 265.481 0.719949 0.175371 0
M  V30 2733 H 268.128 1.89756 -0.257864 0
M  V30 2734 H 266.433 3.4681 1.82291 0
M  V30 2735 H 268.13 3.71203 1.51689 0
M  V30 2736 H 264.72 4.28128 0.201088 0
M  V30 2737 H 268.904 4.93458 -0.530351 0
M  V30 2738 H 264.16 5.91465 -1.54853 0
M  V30 2739 H 268.334 6.58129 -2.27682 0
M  V30 2740 H 265.961 7.07075 -2.79194 0
M  V30 2741 N 267.536 -0.106894 1.57237 0
M  V30 2742 C 268.761 -0.830287 1.90055 0
M  V30 2743 C 269.186 -1.72064 0.75998 0
M  V30 2744 O 268.544 -1.78982 -0.288991 0
M  V30 2745 C 268.592 -1.6295 3.21683 0
M  V30 2746 O 267.696 -2.73748 3.08441 0
M  V30 2747 H 267.037 -0.228855 0.623315 0
M  V30 2748 H 269.567 -0.085658 2.04421 0
M  V30 2749 H 269.577 -2.01621 3.54701 0
M  V30 2750 H 268.252 -0.975989 4.04286 0
M  V30 2751 H 266.829 -2.38192 2.86913 0
M  V30 2752 N 269.014 -1.53014 -0.377408 0
M  V30 2753 C 270.26 -1.69821 -1.11948 0
M  V30 2754 C 270.615 -0.438581 -1.87335 0
M  V30 2755 O 269.908 0.568094 -1.82984 0
M  V30 2756 C 270.102 -2.87982 -2.11663 0
M  V30 2757 C 269.931 -4.25315 -1.46072 0
M  V30 2758 C 268.701 -4.90354 -1.21986 0
M  V30 2759 C 270.899 -5.06281 -0.904664 0
M  V30 2760 N 268.881 -6.11641 -0.526215 0
M  V30 2761 C 270.252 -6.19069 -0.339726 0
M  V30 2762 C 272.307 -4.91395 -0.8022 0
M  V30 2763 C 271.01 -7.18598 0.317669 0
M  V30 2764 C 273.036 -5.91187 -0.158606 0
M  V30 2765 C 272.398 -7.03289 0.39551 0
M  V30 2766 H 268.497 -0.674785 -0.395207 0
M  V30 2767 H 271.081 -1.90389 -0.407437 0
M  V30 2768 H 269.252 -2.68974 -2.80192 0
M  V30 2769 H 270.984 -2.93669 -2.78461 0
M  V30 2770 H 267.739 -4.49286 -1.49798 0
M  V30 2771 H 268.163 -6.76719 -0.195098 0
M  V30 2772 H 272.805 -4.04925 -1.21639 0
M  V30 2773 H 270.523 -8.04669 0.743836 0
M  V30 2774 H 274.109 -5.81744 -0.0804138 0
M  V30 2775 H 272.989 -7.79183 0.885648 0
M  V30 2776 N 270.492 0.636531 -1.44174 0
M  V30 2777 C 271.741 1.39213 -1.45954 0
M  V30 2778 C 272.054 1.95374 -0.0939119 0
M  V30 2779 O 273.26 2.71498 0.0107767 0
M  V30 2780 C 271.716 2.52025 -2.56927 0
M  V30 2781 C 271.324 2.024 -3.99673 0
M  V30 2782 C 273.068 3.29269 -2.67922 0
M  V30 2783 C 270.975 3.12521 -5.0208 0
M  V30 2784 H 269.905 0.523132 -0.542999 0
M  V30 2785 H 272.556 0.685349 -1.70221 0
M  V30 2786 H 270.938 3.25253 -2.25891 0
M  V30 2787 H 272.112 1.36073 -4.40251 0
M  V30 2788 H 270.427 1.37987 -3.92872 0
M  V30 2789 H 273.024 4.11352 -3.41605 0
M  V30 2790 H 273.367 3.78397 -1.73555 0
M  V30 2791 H 273.9 2.63129 -2.98342 0
M  V30 2792 H 270.639 2.68343 -5.98057 0
M  V30 2793 H 270.159 3.77507 -4.66099 0
M  V30 2794 H 271.838 3.77385 -5.25538 0
M  V30 2795 N 271.97 1.30982 0.876444 0
M  V30 2796 C 272.917 1.18085 1.98304 0
M  V30 2797 C 273.887 0.0682263 1.6596 0
M  V30 2798 O 275.072 0.239937 1.89285 0
M  V30 2799 C 272.212 0.887475 3.33493 0
M  V30 2800 C 271.325 2.08281 3.78475 0
M  V30 2801 C 270.46 1.72678 5.0235 0
M  V30 2802 C 269.499 2.88657 5.39762 0
M  V30 2803 N 268.636 2.53292 6.54819 0
M  V30 2804 H 273.476 2.1275 2.08666 0
M  V30 2805 H 271.013 1.05839 1.02159 0
M  V30 2806 H 272.971 0.697961 4.1132 0
M  V30 2807 H 271.601 -0.022315 3.22792 0
M  V30 2808 H 270.653 2.3833 2.96484 0
M  V30 2809 H 271.965 2.95108 4.02135 0
M  V30 2810 H 271.119 1.50151 5.87826 0
M  V30 2811 H 269.858 0.830327 4.8058 0
M  V30 2812 H 268.863 3.1184 4.52809 0
M  V30 2813 H 270.088 3.79002 5.63502 0
M  V30 2814 H 268.034 1.66163 6.34607 0
M  V30 2815 H 267.951 3.3365 6.7839 0
M  V30 2816 H 269.219 2.34143 7.43503 0
M  V30 2817 N 273.449 -1.08991 1.13837 0
M  V30 2818 C 274.86 -1.62746 0.914917 0
M  V30 2819 C 275.211 -1.88403 -0.547594 0
M  V30 2820 O 274.336 -1.63706 -1.41525 0
M  V30 2821 C 274.931 -2.95662 1.65437 0
M  V30 2822 C 273.49 -3.46225 1.47666 0
M  V30 2823 C 272.637 -2.20562 1.6807 0
M  V30 2824 H 275.588 -0.922946 1.29102 0
M  V30 2825 H 275.609 -3.63825 1.11407 0
M  V30 2826 H 275.121 -2.76956 2.71877 0
M  V30 2827 H 273.222 -3.70046 0.435478 0
M  V30 2828 H 273.335 -4.23368 2.24268 0
M  V30 2829 H 271.699 -2.29439 1.10589 0
M  V30 2830 H 272.482 -2.0437 2.7584 0
M  V30 2831 N 274.927 -0.932562 -1.27047 0
M  V30 2832 C 276.167 -0.582919 -1.95912 0
M  V30 2833 C 276.531 0.860629 -1.71631 0
M  V30 2834 O 277.732 1.31878 -2.34225 0
M  V30 2835 C 276.003 -0.905673 -3.45734 0
M  V30 2836 S 277.562 -0.665277 -4.33727 0
M  V30 2837 H 274.38 -0.215 -0.677714 0
M  V30 2838 H 276.982 -1.20204 -1.54179 0
M  V30 2839 H 275.686 -1.95386 -3.60905 0
M  V30 2840 H 275.217 -0.275939 -3.92431 0
M  V30 2841 H 277.232 0.474635 -4.93925 0
M  V30 2842 N 276.405 1.4127 -0.698611 0
M  V30 2843 C 277.654 2.00408 -0.227949 0
M  V30 2844 C 277.967 1.55981 1.18023 0
M  V30 2845 O 279.173 2.07699 1.74852 0
M  V30 2846 C 277.629 3.58129 -0.356636 0
M  V30 2847 C 277.237 4.11536 -1.77037 0
M  V30 2848 C 278.981 4.24466 0.0540969 0
M  V30 2849 C 276.888 5.61701 -1.85055 0
M  V30 2850 H 275.818 0.749586 -0.0814657 0
M  V30 2851 H 278.469 1.61713 -0.867249 0
M  V30 2852 H 276.851 3.94442 0.350965 0
M  V30 2853 H 278.025 3.86636 -2.50698 0
M  V30 2854 H 276.34 3.57736 -2.13105 0
M  V30 2855 H 278.937 5.34698 0.0146723 0
M  V30 2856 H 279.28 4.01687 1.09332 0
M  V30 2857 H 279.813 3.93198 -0.603337 0
M  V30 2858 H 276.552 5.89312 -2.8704 0
M  V30 2859 H 276.072 5.88519 -1.15783 0
M  V30 2860 H 277.751 6.26524 -1.61484 0
M  V30 2861 N 277.883 0.443576 1.51229 0
M  V30 2862 C 279.108 -0.121648 2.07043 0
M  V30 2863 C 279.533 -1.35156 1.30823 0
M  V30 2864 O 278.891 -1.7793 0.347934 0
M  V30 2865 C 278.939 -0.41624 3.5819 0
M  V30 2866 O 278.043 -1.50163 3.8409 0
M  V30 2867 H 277.384 0.000871367 0.663999 0
M  V30 2868 H 279.914 0.626706 1.94765 0
M  V30 2869 H 279.924 -0.664867 4.02546 0
M  V30 2870 H 278.599 0.482653 4.1309 0
M  V30 2871 H 277.176 -1.24248 3.51592 0
M  V30 2872 N 279.361 -1.56624 0.175154 0
M  V30 2873 C 280.586 -2.01813 -0.478137 0
M  V30 2874 C 281.011 -1.05457 -1.55757 0
M  V30 2875 O 280.369 -0.0347439 -1.81267 0
M  V30 2876 C 280.417 -3.45581 -1.02987 0
M  V30 2877 O 279.521 -3.52305 -2.14371 0
M  V30 2878 H 278.862 -0.65413 -0.114059 0
M  V30 2879 H 281.392 -2.02673 0.280173 0
M  V30 2880 H 281.402 -3.84965 -1.35151 0
M  V30 2881 H 280.077 -4.1521 -0.239556 0
M  V30 2882 H 278.654 -3.24783 -1.83222 0
M  V30 2883 N 280.839 0.0985539 -1.57292 0
M  V30 2884 C 281.802 1.10402 -2.00858 0
M  V30 2885 C 282.802 1.33146 -0.901593 0
M  V30 2886 O 283.992 1.29318 -1.16716 0
M  V30 2887 C 281.124 2.45394 -2.36632 0
M  V30 2888 H 282.317 0.729099 -2.90902 0
M  V30 2889 H 279.87 0.343495 -1.52479 0
M  V30 2890 H 280.605 2.87769 -1.49531 0
M  V30 2891 H 280.39 2.30235 -3.17387 0
M  V30 2892 H 281.88 3.17718 -2.71007 0
M  V30 2893 N 282.317 1.53212 0.369288 0
M  V30 2894 C 283.542 1.73423 1.1375 0
M  V30 2895 C 283.967 0.460404 1.82378 0
M  V30 2896 O 283.325 -0.585298 1.71592 0
M  V30 2897 C 283.373 2.89769 2.1463 0
M  V30 2898 O 282.477 2.58119 3.21634 0
M  V30 2899 H 281.818 0.576061 0.330227 0
M  V30 2900 H 284.348 2.00083 0.427547 0
M  V30 2901 H 284.358 3.15829 2.58294 0
M  V30 2902 H 283.033 3.8217 1.64071 0
M  V30 2903 H 281.61 2.42864 2.82969 0
M  V30 2904 N 283.795 -0.628877 1.44509 0
M  V30 2905 C 285.044 -1.38437 1.4669 0
M  V30 2906 C 285.357 -1.95322 0.104272 0
M  V30 2907 O 286.563 -2.715 0.00362163 0
M  V30 2908 C 285.019 -2.50659 2.5826 0
M  V30 2909 C 284.627 -2.00277 4.0074 0
M  V30 2910 C 286.371 -3.27844 2.69664 0
M  V30 2911 C 284.278 -3.09854 5.0373 0
M  V30 2912 H 283.208 -0.520245 0.545766 0
M  V30 2913 H 285.859 -0.676313 1.70582 0
M  V30 2914 H 284.241 -3.2405 2.27612 0
M  V30 2915 H 285.415 -1.33736 4.40966 0
M  V30 2916 H 283.73 -1.35901 3.93599 0
M  V30 2917 H 286.327 -4.09534 3.43781 0
M  V30 2918 H 286.67 -3.77471 1.75559 0
M  V30 2919 H 287.203 -2.61543 2.99733 0
M  V30 2920 H 283.942 -2.65168 5.99472 0
M  V30 2921 H 283.462 -3.7503 4.68095 0
M  V30 2922 H 285.141 -3.74592 5.27532 0
M  V30 2923 N 285.273 -1.31445 -0.869486 0
M  V30 2924 C 286.519 -1.21337 -1.62496 0
M  V30 2925 C 286.852 0.227872 -1.92858 0
M  V30 2926 O 286.127 1.16094 -1.56053 0
M  V30 2927 C 286.41 -2.05814 -2.95487 0
M  V30 2928 C 286.263 -3.5824 -2.72 0
M  V30 2929 C 287.582 -1.9079 -3.96594 0
M  V30 2930 H 284.701 -0.442135 -0.589649 0
M  V30 2931 H 287.343 -1.6124 -1.00507 0
M  V30 2932 H 285.493 -1.71913 -3.48394 0
M  V30 2933 H 287.165 -4.0228 -2.25762 0
M  V30 2934 H 285.408 -3.81647 -2.06224 0
M  V30 2935 H 286.079 -4.12657 -3.66631 0
M  V30 2936 H 288.555 -2.20459 -3.52898 0
M  V30 2937 H 287.431 -2.52199 -4.87531 0
M  V30 2938 H 287.692 -0.871341 -4.33428 0
M  V30 2939 N 286.751 1.08385 -1.14413 0
M  V30 2940 C 287.981 1.8425 -0.934644 0
M  V30 2941 C 288.389 1.81907 0.520234 0
M  V30 2942 O 287.732 1.22126 1.37226 0
M  V30 2943 C 287.794 3.32853 -1.35828 0
M  V30 2944 C 287.458 3.5893 -2.82875 0
M  V30 2945 C 288.455 3.53756 -3.80989 0
M  V30 2946 C 286.14 3.86934 -3.20293 0
M  V30 2947 C 288.134 3.76216 -5.14529 0
M  V30 2948 C 285.821 4.09047 -4.54008 0
M  V30 2949 C 286.819 4.03682 -5.50936 0
M  V30 2950 O 286.507 4.25214 -6.82238 0
M  V30 2951 H 286.239 0.588502 -0.332628 0
M  V30 2952 H 288.793 1.37792 -1.52324 0
M  V30 2953 H 287.023 3.8007 -0.713019 0
M  V30 2954 H 288.712 3.90154 -1.11957 0
M  V30 2955 H 289.478 3.32135 -3.53428 0
M  V30 2956 H 285.357 3.9023 -2.45442 0
M  V30 2957 H 288.901 3.71943 -5.90173 0
M  V30 2958 H 284.798 4.30151 -4.8129 0
M  V30 2959 H 285.566 4.42619 -6.88499 0
M  V30 2960 N 288.23 0.939286 1.26551 0
M  V30 2961 C 289.479 0.581601 1.93133 0
M  V30 2962 C 289.792 -0.883224 1.74524 0
M  V30 2963 O 290.998 -1.3502 2.35546 0
M  V30 2964 C 289.454 0.989425 3.46032 0
M  V30 2965 C 289.062 2.47573 3.73379 0
M  V30 2966 C 290.806 0.703544 4.18629 0
M  V30 2967 C 288.713 2.82235 5.19709 0
M  V30 2968 H 287.643 0.213803 0.723052 0
M  V30 2969 H 290.294 1.14167 1.4366 0
M  V30 2970 H 288.676 0.357902 3.94379 0
M  V30 2971 H 289.85 3.15614 3.35744 0
M  V30 2972 H 288.165 2.73471 3.1401 0
M  V30 2973 H 290.762 0.938869 5.26393 0
M  V30 2974 H 291.105 -0.359639 4.14744 0
M  V30 2975 H 291.638 1.2947 3.76141 0
M  V30 2976 H 288.377 3.87509 5.28694 0
M  V30 2977 H 287.897 2.18854 5.58447 0
M  V30 2978 H 289.576 2.70599 5.87695 0
M  V30 2979 N 289.708 -1.40897 0.706093 0
M  V30 2980 C 290.956 -2.00657 0.241054 0
M  V30 2981 C 291.277 -1.56241 -1.16678 0
M  V30 2982 O 290.547 -0.79765 -1.78926 0
M  V30 2983 H 289.127 -0.742018 0.0861308 0
M  V30 2984 H 291.789 -1.72372 0.909604 0
M  V30 2985 H 290.885 -3.10958 0.266705 0
M  V30 2986 N 291.186 -0.45159 -1.50991 0
M  V30 2987 C 292.116 0.342898 -2.30969 0
M  V30 2988 C 293.097 1.00815 -1.37005 0
M  V30 2989 O 294.282 1.00907 -1.65926 0
M  V30 2990 C 291.412 1.43637 -3.16205 0
M  V30 2991 C 290.366 0.893818 -4.18563 0
M  V30 2992 C 289.692 2.08411 -4.92411 0
M  V30 2993 C 290.992 -0.0815568 -5.22236 0
M  V30 2994 H 292.686 -0.324556 -2.97636 0
M  V30 2995 H 290.232 -0.157531 -1.43136 0
M  V30 2996 H 292.185 1.9995 -3.70942 0
M  V30 2997 H 290.909 2.13232 -2.47386 0
M  V30 2998 H 289.568 0.352798 -3.64898 0
M  V30 2999 H 289.216 2.76658 -4.20082 0
M  V30 3000 H 288.916 1.72741 -5.61636 0
M  V30 3001 H 290.44 2.65251 -5.49976 0
M  V30 3002 H 291.854 0.391742 -5.7196 0
M  V30 3003 H 290.251 -0.351551 -5.99069 0
M  V30 3004 H 291.321 -1.01374 -4.74185 0
M  V30 3005 N 292.664 1.56529 -0.183458 0
M  V30 3006 C 294.08 1.58664 0.172554 0
M  V30 3007 C 294.28 1.19925 1.61926 0
M  V30 3008 O 293.336 0.916534 2.35278 0
M  V30 3009 C 294.649 3.00463 -0.119262 0
M  V30 3010 C 296.197 3.12945 -0.0584396 0
M  V30 3011 C 296.672 4.56857 -0.323408 0
M  V30 3012 N 298.163 4.62403 -0.271612 0
M  V30 3013 C 298.898 5.71626 -0.450639 0
M  V30 3014 N 298.394 6.89362 -0.689384 0
M  V30 3015 N 300.187 5.60775 -0.385701 0
M  V30 3016 H 292.338 1.79994 -1.12765 0
M  V30 3017 H 294.601 0.834808 -0.449222 0
M  V30 3018 H 294.307 3.33326 -1.12192 0
M  V30 3019 H 294.181 3.72659 0.583544 0
M  V30 3020 H 296.568 2.79902 0.934805 0
M  V30 3021 H 296.649 2.4316 -0.794144 0
M  V30 3022 H 296.293 4.9061 -1.31392 0
M  V30 3023 H 296.223 5.24816 0.43305 0
M  V30 3024 H 298.714 3.77785 -0.0932256 0
M  V30 3025 H 299.027 7.68489 -0.815113 0
M  V30 3026 H 297.372 6.91196 -0.726142 0
M  V30 3027 H 300.563 4.67674 -0.199687 0
M  V30 3028 H 300.736 6.4584 -0.528646 0
M  V30 3029 N 294.142 -0.090211 1.57342 0
M  V30 3030 C 295.419 -0.824761 1.77361 0
M  V30 3031 C 295.799 -1.96698 0.76637 0
M  V30 3032 O 295.147 -2.27586 -0.204179 0
M  V30 3033 C 295.357 -1.31481 3.23286 0
M  V30 3034 C 296.705 -1.75563 3.86604 0
M  V30 3035 O 297.729 -1.41093 3.27065 0
M  V30 3036 O 296.588 -2.39317 4.91314 0
M  V30 3037 H 293.682 -0.393776 0.727234 0
M  V30 3038 H 296.228 -0.0717138 1.69548 0
M  V30 3039 H 295 -0.496671 3.88135 0
M  V30 3040 H 294.623 -2.12973 3.35751 0
M  V30 3041 N 295.62 -1.53406 -0.361157 0
M  V30 3042 C 296.866 -1.70054 -1.10496 0
M  V30 3043 C 297.199 -0.453278 -1.88836 0
M  V30 3044 O 296.474 0.5495 -1.86576 0
M  V30 3045 C 296.757 -2.95317 -2.06058 0
M  V30 3046 C 296.61 -4.3021 -1.31298 0
M  V30 3047 C 297.929 -3.16193 -3.06121 0
M  V30 3048 H 295.048 -0.618799 -0.400321 0
M  V30 3049 H 297.69 -1.86052 -0.385318 0
M  V30 3050 H 295.84 -2.81809 -2.67425 0
M  V30 3051 H 297.512 -4.55538 -0.726807 0
M  V30 3052 H 295.755 -4.29421 -0.614853 0
M  V30 3053 H 296.426 -5.14 -2.01265 0
M  V30 3054 H 298.902 -3.28916 -2.5486 0
M  V30 3055 H 297.778 -4.05266 -3.70204 0
M  V30 3056 H 298.039 -2.31676 -3.76535 0
M  V30 3057 N 297.098 0.621204 -1.44841 0
M  V30 3058 C 298.375 1.38 -1.38619 0
M  V30 3059 C 298.755 2.11041 -0.0498935 0
M  V30 3060 O 298.103 2.06992 0.967816 0
M  V30 3061 C 298.313 2.33817 -2.59096 0
M  V30 3062 C 299.661 2.96844 -3.03593 0
M  V30 3063 O 300.685 2.44141 -2.59371 0
M  V30 3064 O 299.544 3.92476 -3.80296 0
M  V30 3065 H 296.638 0.61811 -0.549426 0
M  V30 3066 H 299.184 0.645429 -1.56947 0
M  V30 3067 H 297.956 1.79012 -3.47952 0
M  V30 3068 H 297.579 3.14676 -2.43032 0
M  V30 3069 N 298.576 1.31904 0.862503 0
M  V30 3070 C 299.987 1.19803 1.43193 0
M  V30 3071 C 300.338 -0.192567 1.95253 0
M  V30 3072 O 299.463 -1.09081 1.86896 0
M  V30 3073 C 300.058 2.16883 2.60283 0
M  V30 3074 C 298.617 2.08692 3.13248 0
M  V30 3075 C 297.764 2.05691 1.85975 0
M  V30 3076 H 300.715 1.43846 0.670365 0
M  V30 3077 H 300.736 1.76278 3.37204 0
M  V30 3078 H 300.248 3.18083 2.22363 0
M  V30 3079 H 298.349 1.10713 3.55771 0
M  V30 3080 H 298.462 2.9815 3.75025 0
M  V30 3081 H 296.826 1.50814 2.05249 0
M  V30 3082 H 297.609 3.08659 1.50282 0
M  V30 3083 N 300.054 -1.07777 1.14986 0
M  V30 3084 C 301.465 -1.61766 0.932127 0
M  V30 3085 C 301.816 -1.88974 -0.527581 0
M  V30 3086 O 300.941 -1.65198 -1.39781 0
M  V30 3087 C 301.536 -2.93891 1.68563 0
M  V30 3088 C 300.095 -3.44639 1.5133 0
M  V30 3089 C 299.242 -2.18767 1.704 0
M  V30 3090 H 302.193 -0.909201 1.30074 0
M  V30 3091 H 302.214 -3.62623 1.15259 0
M  V30 3092 H 301.726 -2.74057 2.74799 0
M  V30 3093 H 299.827 -3.69564 0.474702 0
M  V30 3094 H 299.94 -4.20966 2.28746 0
M  V30 3095 H 298.304 -2.28253 1.13016 0
M  V30 3096 H 299.087 -2.01433 2.77992 0
M  V30 3097 N 301.532 -0.945985 -1.26051 0
M  V30 3098 C 302.442 -0.465633 -2.29933 0
M  V30 3099 C 303.458 0.462761 -1.67733 0
M  V30 3100 O 304.634 0.341118 -1.9849 0
M  V30 3101 C 301.699 0.256994 -3.45746 0
M  V30 3102 C 300.76 -0.708549 -4.23412 0
M  V30 3103 C 299.993 -0.0203135 -5.33696 0
M  V30 3104 O 300.216 1.19571 -5.57726 0
M  V30 3105 O 299.15 -0.701459 -5.97799 0
M  V30 3106 H 302.976 -1.32866 -2.73094 0
M  V30 3107 H 300.561 -0.712071 -1.31339 0
M  V30 3108 H 302.443 0.663852 -4.16138 0
M  V30 3109 H 301.118 1.09533 -3.04605 0
M  V30 3110 H 300.025 -1.16545 -3.55483 0
M  V30 3111 H 301.358 -1.51465 -4.68315 0
M  V30 3112 N 303.011 1.40521 -0.713556 0
M  V30 3113 C 303.961 2.27971 -0.036165 0
M  V30 3114 C 304.945 1.43151 0.734623 0
M  V30 3115 O 306.137 1.66261 0.607158 0
M  V30 3116 C 303.266 3.31661 0.886331 0
M  V30 3117 C 302.352 4.23955 0.110836 0
M  V30 3118 N 302.743 4.97641 -0.904847 0
M  V30 3119 C 301.041 4.44674 0.343692 0
M  V30 3120 C 301.742 5.65322 -1.37064 0
M  V30 3121 N 300.718 5.39162 -0.693168 0
M  V30 3122 H 304.52 2.82384 -0.814645 0
M  V30 3123 H 302.034 1.52948 -0.545963 0
M  V30 3124 H 304.031 3.93154 1.38692 0
M  V30 3125 H 302.691 2.78808 1.66421 0
M  V30 3126 H 303.702 5.01689 -1.28563 0
M  V30 3127 H 300.379 4.02801 1.09805 0
M  V30 3128 H 301.769 6.34359 -2.21447 0
M  V30 3129 N 304.489 0.459591 1.5075 0
M  V30 3130 C 305.736 -0.0993495 2.02256 0
M  V30 3131 C 306.064 -1.40751 1.34237 0
M  V30 3132 O 305.319 -1.90379 0.453228 0
M  V30 3133 C 305.618 -0.342866 3.55752 0
M  V30 3134 C 305.284 0.88218 4.42186 0
M  V30 3135 C 303.946 1.21808 4.65528 0
M  V30 3136 C 306.298 1.69837 4.92752 0
M  V30 3137 C 303.626 2.37045 5.36681 0
M  V30 3138 C 305.978 2.84192 5.65171 0
M  V30 3139 C 304.642 3.1821 5.8677 0
M  V30 3140 H 303.912 -0.0363545 0.740108 0
M  V30 3141 H 306.559 0.611329 1.8148 0
M  V30 3142 H 304.864 -1.13567 3.7498 0
M  V30 3143 H 306.561 -0.789121 3.93159 0
M  V30 3144 H 303.151 0.610467 4.2423 0
M  V30 3145 H 307.335 1.45205 4.74583 0
M  V30 3146 H 302.591 2.63689 5.51614 0
M  V30 3147 H 306.765 3.4779 6.03337 0
M  V30 3148 H 304.392 4.07613 6.41682 0
M  V30 3149 N 305.967 -1.56429 0.191757 0
M  V30 3150 C 307.216 -1.9666 -0.448088 0
M  V30 3151 C 307.529 -1.08136 -1.62991 0
M  V30 3152 O 308.735 -1.38135 -2.33733 0
M  V30 3153 C 307.191 -3.49753 -0.848585 0
M  V30 3154 C 306.799 -4.46935 0.308764 0
M  V30 3155 C 308.543 -3.9876 -1.4557 0
M  V30 3156 C 306.45 -5.91293 -0.112506 0
M  V30 3157 H 305.38 -0.734312 -0.171179 0
M  V30 3158 H 308.031 -1.81301 0.283242 0
M  V30 3159 H 306.413 -3.60604 -1.63649 0
M  V30 3160 H 307.587 -4.47813 1.08627 0
M  V30 3161 H 305.902 -4.08102 0.827158 0
M  V30 3162 H 308.499 -5.04086 -1.78328 0
M  V30 3163 H 308.842 -3.42875 -2.36099 0
M  V30 3164 H 309.375 -3.9101 -0.731836 0
M  V30 3165 H 306.114 -6.51097 0.758514 0
M  V30 3166 H 305.634 -5.93676 -0.854941 0
M  V30 3167 H 307.313 -6.44663 -0.549448 0
M  V30 3168 N 307.445 0.0818655 -1.57387 0
M  V30 3169 C 308.375 1.09885 -2.06028 0
M  V30 3170 C 309.356 1.4098 -0.951774 0
M  V30 3171 O 310.541 1.50781 -1.22387 0
M  V30 3172 C 307.671 2.4151 -2.4958 0
M  V30 3173 C 306.625 2.24792 -3.64215 0
M  V30 3174 C 305.951 3.61712 -3.93787 0
M  V30 3175 C 307.251 1.67749 -4.94629 0
M  V30 3176 H 308.945 0.694128 -2.91243 0
M  V30 3177 H 306.491 0.332448 -1.4011 0
M  V30 3178 H 308.444 3.12939 -2.82219 0
M  V30 3179 H 307.168 2.83943 -1.61381 0
M  V30 3180 H 305.827 1.55807 -3.31843 0
M  V30 3181 H 305.475 4.01697 -3.02735 0
M  V30 3182 H 305.175 3.51368 -4.70971 0
M  V30 3183 H 306.699 4.34587 -4.28913 0
M  V30 3184 H 308.113 2.29032 -5.25564 0
M  V30 3185 H 306.51 1.68128 -5.76067 0
M  V30 3186 H 307.58 0.638059 -4.80684 0
M  V30 3187 N 308.923 1.53595 0.353017 0
M  V30 3188 C 309.87 1.80919 1.43308 0
M  V30 3189 C 310.84 0.654288 1.5267 0
M  V30 3190 O 312.025 0.897759 1.6836 0
M  V30 3191 C 309.165 2.01605 2.80089 0
M  V30 3192 C 308.278 3.29321 2.79593 0
M  V30 3193 C 307.413 3.40125 4.0803 0
M  V30 3194 C 306.452 4.61826 4.01725 0
M  V30 3195 N 305.589 4.69716 5.21834 0
M  V30 3196 H 310.429 2.73074 1.19308 0
M  V30 3197 H 307.966 1.35263 0.578131 0
M  V30 3198 H 309.924 2.11586 3.59565 0
M  V30 3199 H 308.554 1.12772 3.0246 0
M  V30 3200 H 307.606 3.28229 1.92276 0
M  V30 3201 H 308.918 4.18884 2.70809 0
M  V30 3202 H 308.072 3.49488 4.95927 0
M  V30 3203 H 306.811 2.48601 4.19582 0
M  V30 3204 H 305.816 4.52552 3.12213 0
M  V30 3205 H 307.041 5.54705 3.91764 0
M  V30 3206 H 304.987 3.81097 5.33948 0
M  V30 3207 H 304.904 5.53202 5.1527 0
M  V30 3208 H 306.172 4.83376 6.11529 0
M  V30 3209 N 310.401 -0.613514 1.45168 0
M  V30 3210 C 311.349 -1.74572 1.53712 0
M  V30 3211 C 312.343 -1.64426 0.407505 0
M  V30 3212 O 313.549 -1.70291 0.583176 0
M  V30 3213 H 309.924 -0.576641 0.48269 0
M  V30 3214 H 311.895 -1.64492 2.48968 0
M  V30 3215 C 310.644 -3.12943 1.51532 0
M  V30 3216 H 309.967 -3.21407 2.37776 0
M  V30 3217 H 311.407 -3.9201 1.61569 0
M  V30 3218 C 309.866 -3.36053 0.238798 0
M  V30 3219 O 310.396 -3.95837 -0.6838 0
M  V30 3220 N 308.602 -2.9028 0.136359 0
M  V30 3221 H 308.149 -2.41811 0.887999 0
M  V30 3222 H 308.107 -3.06116 -0.716944 0
M  V30 3223 N 311.879 -1.3236 -0.855495 0
M  V30 3224 C 313.109 -1.25688 -1.6397 0
M  V30 3225 C 313.517 0.177592 -1.88365 0
M  V30 3226 O 312.86 1.12485 -1.45234 0
M  V30 3227 C 312.922 -1.94602 -3.02275 0
M  V30 3228 C 312.586 -3.43937 -3.00926 0
M  V30 3229 C 313.583 -4.39435 -2.77835 0
M  V30 3230 C 311.268 -3.85858 -3.21588 0
M  V30 3231 C 313.262 -5.74829 -2.75409 0
M  V30 3232 C 310.949 -5.21361 -3.18789 0
M  V30 3233 C 311.947 -6.15658 -2.95727 0
M  V30 3234 O 311.635 -7.48681 -2.928 0
M  V30 3235 H 311.367 -0.434972 -0.51747 0
M  V30 3236 H 313.921 -1.75023 -1.075 0
M  V30 3237 H 312.151 -1.39836 -3.60531 0
M  V30 3238 H 313.84 -1.81651 -3.62985 0
M  V30 3239 H 314.606 -4.08374 -2.6164 0
M  V30 3240 H 310.485 -3.12883 -3.38564 0
M  V30 3241 H 314.029 -6.48404 -2.57328 0
M  V30 3242 H 309.926 -5.52052 -3.34528 0
M  V30 3243 H 310.694 -7.5803 -3.0876 0
M  V30 3244 N 313.357 1.07166 -1.15556 0
M  V30 3245 C 314.634 1.76546 -0.842069 0
M  V30 3246 C 315.014 2.00453 0.661939 0
M  V30 3247 O 314.362 1.62452 1.60691 0
M  V30 3248 C 314.572 3.07266 -1.65495 0
M  V30 3249 C 315.92 3.81578 -1.86234 0
M  V30 3250 O 316.944 3.17083 -1.62287 0
M  V30 3251 O 315.803 4.97419 -2.26355 0
M  V30 3252 H 312.897 0.766756 -0.309862 0
M  V30 3253 H 315.443 1.13514 -1.26145 0
M  V30 3254 H 314.215 2.85494 -2.67598 0
M  V30 3255 H 313.838 3.7803 -1.23203 0
M  V30 3256 N 314.835 0.952656 1.25548 0
M  V30 3257 C 316.084 0.602053 1.92505 0
M  V30 3258 C 316.397 -0.864663 1.75451 0
M  V30 3259 O 317.603 -1.32514 2.36965 0
M  V30 3260 C 316.059 1.02607 3.44963 0
M  V30 3261 C 315.667 2.51519 3.70732 0
M  V30 3262 C 317.411 0.747905 4.1786 0
M  V30 3263 C 315.318 2.87732 5.16686 0
M  V30 3264 H 314.248 0.22146 0.720744 0
M  V30 3265 H 316.899 1.15684 1.42441 0
M  V30 3266 H 315.281 0.399712 3.93978 0
M  V30 3267 H 316.455 3.19157 3.32378 0
M  V30 3268 H 314.77 2.76786 3.11092 0
M  V30 3269 H 317.367 0.994647 5.25367 0
M  V30 3270 H 317.71 -0.315629 4.15102 0
M  V30 3271 H 318.243 1.33452 3.74747 0
M  V30 3272 H 314.982 3.93095 5.24554 0
M  V30 3273 H 314.502 2.24765 5.56094 0
M  V30 3274 H 316.181 2.76817 5.84792 0
M  V30 3275 N 316.313 -1.40141 0.720998 0
M  V30 3276 C 317.245 -2.29177 0.0324669 0
M  V30 3277 C 318.258 -1.46105 -0.718126 0
M  V30 3278 O 319.447 -1.69335 -0.564608 0
M  V30 3279 C 316.547 -3.24473 -0.978292 0
M  V30 3280 C 315.72 -4.36423 -0.292115 0
M  V30 3281 C 314.779 -5.12122 -1.20901 0
M  V30 3282 O 313.805 -5.64981 -0.691766 0
M  V30 3283 N 315.007 -5.21992 -2.53978 0
M  V30 3284 H 317.772 -2.88909 0.796984 0
M  V30 3285 H 315.333 -1.51569 0.569068 0
M  V30 3286 H 317.325 -3.71987 -1.59398 0
M  V30 3287 H 315.895 -2.65871 -1.64413 0
M  V30 3288 H 315.115 -3.90967 0.503847 0
M  V30 3289 H 316.403 -5.08467 0.183971 0
M  V30 3290 H 315.801 -4.8054 -2.98493 0
M  V30 3291 H 314.358 -5.72995 -3.10677 0
M  V30 3292 N 317.792 -0.46758 -1.50504 0
M  V30 3293 C 319.022 0.086288 -2.0642 0
M  V30 3294 C 319.43 1.34369 -1.33197 0
M  V30 3295 O 318.773 1.79431 -0.393747 0
M  V30 3296 C 318.835 0.443846 -3.5675 0
M  V30 3297 C 318.499 -0.711035 -4.51435 0
M  V30 3298 C 319.496 -1.59205 -4.94924 0
M  V30 3299 C 317.181 -0.900363 -4.94165 0
M  V30 3300 C 319.175 -2.64683 -5.79846 0
M  V30 3301 C 316.862 -1.95837 -5.7887 0
M  V30 3302 C 317.86 -2.82997 -6.21612 0
M  V30 3303 O 317.548 -3.86977 -7.0463 0
M  V30 3304 H 317.28 -0.00217814 -0.675996 0
M  V30 3305 H 319.834 -0.654346 -1.94698 0
M  V30 3306 H 318.064 1.23762 -3.6636 0
M  V30 3307 H 319.753 0.932386 -3.95046 0
M  V30 3308 H 320.519 -1.45745 -4.62583 0
M  V30 3309 H 316.398 -0.231427 -4.60419 0
M  V30 3310 H 319.942 -3.32745 -6.13128 0
M  V30 3311 H 315.839 -2.09305 -6.10624 0
M  V30 3312 H 316.607 -3.83923 -7.22873 0
M  V30 3313 N 319.27 1.56325 -0.20005 0
M  V30 3314 C 320.517 1.97719 0.437411 0
M  V30 3315 C 320.845 1.08709 1.61284 0
M  V30 3316 O 320.1 0.127261 1.95286 0
M  V30 3317 C 320.399 3.4495 0.935103 0
M  V30 3318 C 320.065 4.5072 -0.12749 0
M  V30 3319 C 318.727 4.79368 -0.419451 0
M  V30 3320 C 321.079 5.14268 -0.847231 0
M  V30 3321 C 318.407 5.68854 -1.43604 0
M  V30 3322 C 320.759 6.04852 -1.85301 0
M  V30 3323 C 319.423 6.31855 -2.15211 0
M  V30 3324 H 318.693 0.723507 0.16006 0
M  V30 3325 H 321.34 1.89166 -0.298056 0
M  V30 3326 H 319.645 3.50599 1.74894 0
M  V30 3327 H 321.342 3.74337 1.43781 0
M  V30 3328 H 317.932 4.28458 0.11023 0
M  V30 3329 H 322.116 4.92222 -0.634901 0
M  V30 3330 H 317.372 5.88047 -1.67364 0
M  V30 3331 H 321.546 6.53152 -2.41591 0
M  V30 3332 H 319.173 7.00994 -2.94129 0
M  V30 3333 N 320.748 -0.0735177 1.57428 0
M  V30 3334 C 321.973 -0.789787 1.91774 0
M  V30 3335 C 322.398 -1.70413 0.796306 0
M  V30 3336 O 321.756 -1.79555 -0.250961 0
M  V30 3337 C 321.804 -1.5609 3.25067 0
M  V30 3338 O 320.908 -2.67144 3.14178 0
M  V30 3339 H 320.249 -0.215582 0.628029 0
M  V30 3340 H 322.779 -0.0422781 2.04556 0
M  V30 3341 H 322.789 -1.94052 3.58898 0
M  V30 3342 H 321.464 -0.890015 4.06265 0
M  V30 3343 H 320.041 -2.32052 2.91901 0
M  V30 3344 N 322.226 -1.5378 -0.344866 0
M  V30 3345 C 323.159 -1.7649 -1.4466 0
M  V30 3346 C 324.137 -0.613954 -1.50563 0
M  V30 3347 O 325.321 -0.84896 -1.683 0
M  V30 3348 C 322.448 -1.86235 -2.82903 0
M  V30 3349 C 321.494 -3.08375 -2.94631 0
M  V30 3350 S 322.327 -4.67457 -2.61236 0
M  V30 3351 C 323.483 -4.80079 -4.0159 0
M  V30 3352 H 323.716 -2.69661 -1.2518 0
M  V30 3353 H 321.249 -1.44632 -0.540455 0
M  V30 3354 H 323.207 -1.92535 -3.62547 0
M  V30 3355 H 321.868 -0.940786 -2.9968 0
M  V30 3356 H 321.061 -3.11865 -3.95925 0
M  V30 3357 H 320.663 -3.00294 -2.22934 0
M  V30 3358 H 322.955 -4.61407 -4.96094 0
M  V30 3359 H 323.898 -5.82168 -4.03095 0
M  V30 3360 H 324.306 -4.08544 -3.89554 0
M  V30 3361 N 323.704 0.605807 -1.45491 0
M  V30 3362 C 325.12 0.926751 -1.29936 0
M  V30 3363 C 325.32 1.99896 -0.253706 0
M  V30 3364 O 324.376 2.50038 0.351737 0
M  V30 3365 C 325.689 1.36599 -2.67883 0
M  V30 3366 C 327.237 1.4801 -2.75793 0
M  V30 3367 C 327.712 1.95309 -4.14268 0
M  V30 3368 N 329.203 2.0254 -4.16571 0
M  V30 3369 C 329.938 2.40363 -5.20589 0
M  V30 3370 N 329.434 2.77143 -6.34952 0
M  V30 3371 N 331.227 2.40718 -5.07948 0
M  V30 3372 H 323.378 -0.102862 -2.12151 0
M  V30 3373 H 325.641 0.016639 -0.947854 0
M  V30 3374 H 325.347 0.652306 -3.45598 0
M  V30 3375 H 325.221 2.33215 -2.96463 0
M  V30 3376 H 327.608 2.1847 -1.98381 0
M  V30 3377 H 327.689 0.497041 -2.50925 0
M  V30 3378 H 327.333 1.25436 -4.92167 0
M  V30 3379 H 327.263 2.94532 -4.3653 0
M  V30 3380 H 329.754 1.76699 -3.34045 0
M  V30 3381 H 330.067 3.0489 -7.10114 0
M  V30 3382 H 328.412 2.74834 -6.3835 0
M  V30 3383 H 331.603 2.11392 -4.1765 0
M  V30 3384 H 331.776 2.69869 -5.89131 0
M  V30 3385 N 325.182 1.32811 0.848464 0
M  V30 3386 C 326.459 1.14334 1.58704 0
M  V30 3387 C 326.839 -0.293948 2.09043 0
M  V30 3388 O 326.187 -1.29153 1.88499 0
M  V30 3389 C 326.397 2.17626 2.72837 0
M  V30 3390 C 327.745 2.51282 3.42261 0
M  V30 3391 O 328.769 2.16219 2.83068 0
M  V30 3392 O 327.628 3.11413 4.49093 0
M  V30 3393 H 324.722 0.441601 0.699226 0
M  V30 3394 H 327.268 1.44362 0.892053 0
M  V30 3395 H 326.04 3.14211 2.3321 0
M  V30 3396 H 325.663 1.88628 3.50008 0
M  V30 3397 N 326.66 -1.06551 1.16123 0
M  V30 3398 C 327.909 -1.78687 0.935622 0
M  V30 3399 C 328.222 -1.88056 -0.538001 0
M  V30 3400 O 329.428 -2.56794 -0.88143 0
M  V30 3401 C 327.884 -3.21143 1.62466 0
M  V30 3402 C 327.492 -3.19949 3.13587 0
M  V30 3403 C 329.236 -3.9783 1.48092 0
M  V30 3404 C 327.143 -4.57108 3.75241 0
M  V30 3405 H 326.073 -0.669712 0.346412 0
M  V30 3406 H 328.724 -1.19534 1.39226 0
M  V30 3407 H 327.106 -3.80539 1.09572 0
M  V30 3408 H 328.28 -2.70151 3.73303 0
M  V30 3409 H 326.595 -2.5676 3.27816 0
M  V30 3410 H 329.192 -4.99217 1.91538 0
M  V30 3411 H 329.535 -4.14078 0.429507 0
M  V30 3412 H 330.068 -3.4495 1.98127 0
M  V30 3413 H 326.807 -4.46065 4.80319 0
M  V30 3414 H 326.327 -5.07111 3.20309 0
M  V30 3415 H 328.006 -5.26069 3.76644 0
M  V30 3416 N 328.138 -0.959301 -1.25041 0
M  V30 3417 C 329.415 -0.533805 -1.88175 0
M  V30 3418 C 329.795 0.988994 -1.865 0
M  V30 3419 O 329.143 1.85677 -1.33177 0
M  V30 3420 C 329.353 -1.11575 -3.30684 0
M  V30 3421 C 330.701 -1.19548 -4.07423 0
M  V30 3422 O 331.725 -1.06765 -3.39823 0
M  V30 3423 O 330.584 -1.39656 -5.28354 0
M  V30 3424 H 327.678 -0.176772 -0.807887 0
M  V30 3425 H 330.224 -1.05303 -1.33076 0
M  V30 3426 H 328.996 -2.15884 -3.26358 0
M  V30 3427 H 328.619 -0.580059 -3.93346 0
M  V30 3428 N 329.616 1.39756 -0.72842 0
M  V30 3429 C 331.032 1.5442 -0.403308 0
M  V30 3430 C 331.232 1.69694 1.08656 0
M  V30 3431 O 330.288 1.69373 1.87267 0
M  V30 3432 C 331.601 2.76555 -1.18058 0
M  V30 3433 C 333.149 2.90384 -1.16815 0
M  V30 3434 C 333.624 4.15449 -1.92785 0
M  V30 3435 N 335.115 4.22475 -1.89918 0
M  V30 3436 C 335.85 5.1818 -2.45514 0
M  V30 3437 N 335.346 6.19714 -3.09719 0
M  V30 3438 N 337.139 5.1035 -2.35584 0
M  V30 3439 H 329.29 1.28089 -1.69431 0
M  V30 3440 H 331.553 0.620327 -0.716867 0
M  V30 3441 H 331.259 2.7159 -2.23455 0
M  V30 3442 H 331.133 3.69033 -0.780662 0
M  V30 3443 H 333.52 2.94846 -0.12234 0
M  V30 3444 H 333.601 1.98988 -1.6074 0
M  V30 3445 H 333.245 4.11749 -2.97364 0
M  V30 3446 H 333.175 5.05877 -1.46272 0
M  V30 3447 H 335.666 3.49743 -1.43138 0
M  V30 3448 H 335.979 6.8919 -3.49625 0
M  V30 3449 H 334.324 6.20121 -3.13807 0
M  V30 3450 H 337.515 4.2996 -1.85072 0
M  V30 3451 H 337.688 5.84761 -2.79211 0
M  V30 3452 N 331.094 0.475555 1.50254 0
M  V30 3453 C 332.024 -0.30611 2.31485 0
M  V30 3454 C 333.005 -0.986228 1.38591 0
M  V30 3455 O 334.19 -0.982541 1.67511 0
M  V30 3456 C 331.32 -1.38588 3.1845 0
M  V30 3457 C 330.274 -0.827115 4.19932 0
M  V30 3458 C 329.6 -2.00551 4.95665 0
M  V30 3459 C 330.9 0.16463 5.2204 0
M  V30 3460 H 332.594 0.371866 2.97082 0
M  V30 3461 H 330.14 0.180282 1.42867 0
M  V30 3462 H 332.093 -1.94023 3.74076 0
M  V30 3463 H 330.817 -2.09269 2.50747 0
M  V30 3464 H 329.476 -0.294702 3.65414 0
M  V30 3465 H 329.124 -2.6994 4.2443 0
M  V30 3466 H 328.824 -1.63784 5.64313 0
M  V30 3467 H 330.348 -2.56468 5.54127 0
M  V30 3468 H 331.762 -0.300699 5.72511 0
M  V30 3469 H 330.159 0.446813 5.98434 0
M  V30 3470 H 331.229 1.08905 4.72512 0
M  V30 3471 N 332.573 -1.56217 0.208337 0
M  V30 3472 C 333.821 -1.97558 -0.426076 0
M  V30 3473 C 334.142 -1.09683 -1.61229 0
M  V30 3474 O 333.412 -0.170956 -1.95153 0
M  V30 3475 H 331.992 -0.729575 -0.160405 0
M  V30 3476 H 334.654 -1.92606 0.298155 0
M  V30 3477 H 333.75 -3.02672 -0.761312 0
M  V30 3478 N 334.051 0.0651679 -1.57465 0
M  V30 3479 C 335.3 0.761916 -1.86756 0
M  V30 3480 C 335.613 1.78406 -0.801925 0
M  V30 3481 O 336.819 2.53084 -0.982885 0
M  V30 3482 C 335.275 1.40603 -3.31299 0
M  V30 3483 C 334.883 0.422115 -4.46007 0
M  V30 3484 C 336.627 2.08476 -3.69781 0
M  V30 3485 C 334.534 1.07252 -5.81593 0
M  V30 3486 H 333.464 0.288308 -0.696702 0
M  V30 3487 H 336.115 0.015344 -1.83494 0
M  V30 3488 H 334.497 2.20109 -3.29193 0
M  V30 3489 H 335.671 -0.343613 -4.59517 0
M  V30 3490 H 333.986 -0.152527 -4.16121 0
M  V30 3491 H 336.583 2.57925 -4.68379 0
M  V30 3492 H 336.926 2.88712 -2.99919 0
M  V30 3493 H 337.459 1.35792 -3.73905 0
M  V30 3494 H 334.198 0.310342 -6.54765 0
M  V30 3495 H 333.718 1.80895 -5.71872 0
M  V30 3496 H 335.397 1.59043 -6.27148 0
M  V30 3497 N 335.529 1.53961 0.336706 0
M  V30 3498 C 336.461 1.78751 1.4346 0
M  V30 3499 C 337.474 0.669019 1.48418 0
M  V30 3500 O 338.663 0.945884 1.51378 0
M  V30 3501 C 335.763 1.87844 2.82078 0
M  V30 3502 C 334.936 3.17854 3.00479 0
M  V30 3503 C 333.995 3.17816 4.19379 0
M  V30 3504 O 333.021 3.91511 4.13168 0
M  V30 3505 N 334.223 2.40669 5.2826 0
M  V30 3506 H 336.988 2.73493 1.22563 0
M  V30 3507 H 334.549 1.53096 0.526625 0
M  V30 3508 H 336.541 1.85261 3.59806 0
M  V30 3509 H 335.111 1.00257 2.96086 0
M  V30 3510 H 334.331 3.33504 2.10163 0
M  V30 3511 H 335.619 4.03718 3.0966 0
M  V30 3512 H 335.017 1.8036 5.36178 0
M  V30 3513 H 333.574 2.43877 6.04456 0
M  V30 3514 N 337.007 -0.598083 1.45811 0
M  V30 3515 C 337.954 -1.7082 1.55207 0
M  V30 3516 C 338.924 -1.61278 0.39732 0
M  V30 3517 O 340.109 -1.80717 0.612038 0
M  V30 3518 C 337.249 -3.09144 1.53376 0
M  V30 3519 C 336.362 -3.29423 2.79472 0
M  V30 3520 C 335.497 -4.57907 2.69248 0
M  V30 3521 C 334.536 -4.71476 3.90354 0
M  V30 3522 N 333.673 -5.9127 3.78608 0
M  V30 3523 H 338.513 -1.62125 2.50039 0
M  V30 3524 H 336.05 -0.790389 1.24062 0
M  V30 3525 H 338.008 -3.89186 1.50301 0
M  V30 3526 H 336.638 -3.16773 0.620876 0
M  V30 3527 H 335.69 -2.43091 2.92594 0
M  V30 3528 H 337.002 -3.3532 3.69272 0
M  V30 3529 H 336.156 -5.46157 2.64192 0
M  V30 3530 H 334.895 -4.54423 1.77063 0
M  V30 3531 H 333.9 -3.81648 3.95759 0
M  V30 3532 H 335.125 -4.76751 4.83617 0
M  V30 3533 H 333.071 -5.88813 2.89199 0
M  V30 3534 H 332.988 -5.98369 4.6205 0
M  V30 3535 H 334.256 -6.81992 3.77501 0
M  V30 3536 N 338.485 -1.33259 -0.841409 0
M  V30 3537 C 339.731 -1.24757 -1.59886 0
M  V30 3538 C 340.064 0.186913 -1.93298 0
M  V30 3539 O 339.339 1.12757 -1.5848 0
M  V30 3540 C 339.622 -2.12036 -2.91055 0
M  V30 3541 C 339.475 -3.63929 -2.6434 0
M  V30 3542 C 340.794 -1.9916 -3.92458 0
M  V30 3543 H 337.913 -0.454542 -0.580138 0
M  V30 3544 H 340.555 -1.63335 -0.970647 0
M  V30 3545 H 338.705 -1.79265 -3.44669 0
M  V30 3546 H 340.377 -4.06978 -2.17178 0
M  V30 3547 H 338.62 -3.85935 -1.98082 0
M  V30 3548 H 339.291 -4.20341 -3.57796 0
M  V30 3549 H 341.767 -2.27895 -3.48143 0
M  V30 3550 H 340.643 -2.62484 -4.82072 0
M  V30 3551 H 340.904 -0.963082 -4.31482 0
M  V30 3552 N 339.963 1.05934 -1.16686 0
M  V30 3553 C 340.896 2.1295 -0.820225 0
M  V30 3554 C 341.874 1.61242 0.209722 0
M  V30 3555 O 343.058 1.88271 0.0929688 0
M  V30 3556 C 340.185 3.3797 -0.22223 0
M  V30 3557 C 339.231 4.08488 -1.22637 0
M  V30 3558 S 340.064 4.58015 -2.77457 0
M  V30 3559 C 341.22 5.86292 -2.19117 0
M  V30 3560 H 341.453 2.42025 -1.72659 0
M  V30 3561 H 338.986 1.18423 -0.990722 0
M  V30 3562 H 340.944 4.10335 0.116322 0
M  V30 3563 H 339.605 3.07045 0.66196 0
M  V30 3564 H 338.798 4.98291 -0.756455 0
M  V30 3565 H 338.4 3.42154 -1.51019 0
M  V30 3566 H 340.692 6.59246 -1.56209 0
M  V30 3567 H 341.635 6.38019 -3.07144 0
M  V30 3568 H 342.043 5.40497 -1.62858 0
M  V30 3569 N 341.441 0.965919 1.2453 0
M  V30 3570 C 342.351 0.502154 2.29163 0
M  V30 3571 C 343.367 -0.436017 1.68448 0
M  V30 3572 O 344.543 -0.309497 1.99008 0
M  V30 3573 C 341.608 -0.201956 3.46111 0
M  V30 3574 C 340.669 0.775821 4.22232 0
M  V30 3575 C 339.902 0.105217 5.33596 0
M  V30 3576 O 340.125 -1.10683 5.59558 0
M  V30 3577 O 339.059 0.796475 5.96607 0
M  V30 3578 H 342.885 1.37194 2.70946 0
M  V30 3579 H 340.47 0.732875 1.30189 0
M  V30 3580 H 342.352 -0.597564 4.17142 0
M  V30 3581 H 341.027 -1.04673 3.06309 0
M  V30 3582 H 339.934 1.22185 3.53584 0
M  V30 3583 H 341.267 1.58896 4.65846 0
M  V30 3584 N 342.919 -1.39368 0.735821 0
M  V30 3585 C 344.335 -1.54204 0.411492 0
M  V30 3586 C 344.535 -1.70268 -1.07755 0
M  V30 3587 O 343.591 -1.70364 -1.86366 0
M  V30 3588 C 344.904 -2.75925 1.19523 0
M  V30 3589 C 346.452 -2.89761 1.18354 0
M  V30 3590 C 346.927 -4.14421 1.94986 0
M  V30 3591 N 348.418 -4.21462 1.92156 0
M  V30 3592 C 349.153 -5.16871 2.48258 0
M  V30 3593 N 348.649 -6.18063 3.13001 0
M  V30 3594 N 350.442 -5.09093 2.38287 0
M  V30 3595 H 342.593 -1.27189 1.70108 0
M  V30 3596 H 344.856 -0.616517 0.720147 0
M  V30 3597 H 344.562 -2.70401 2.24892 0
M  V30 3598 H 344.436 -3.68614 0.800222 0
M  V30 3599 H 346.823 -2.94777 0.137975 0
M  V30 3600 H 346.904 -1.98133 1.61793 0
M  V30 3601 H 346.548 -4.10166 2.99543 0
M  V30 3602 H 346.478 -5.05095 1.48953 0
M  V30 3603 H 348.969 -3.48979 1.44991 0
M  V30 3604 H 349.282 -6.87326 3.53275 0
M  V30 3605 H 347.627 -6.18448 3.17091 0
M  V30 3606 H 350.818 -4.28973 1.8735 0
M  V30 3607 H 350.991 -5.83272 2.82308 0
M  V30 3608 N 344.397 -0.483516 -1.5 0
M  V30 3609 C 345.625 0.0644831 -2.06799 0
M  V30 3610 C 346.04 1.32399 -1.34596 0
M  V30 3611 O 345.397 1.77626 -0.418946 0
M  V30 3612 C 345.448 0.339927 -3.59898 0
M  V30 3613 O 345.169 -0.869635 -4.29382 0
M  V30 3614 C 346.67 0.933515 -4.33359 0
M  V30 3615 H 343.89 -0.0126333 -0.670881 0
M  V30 3616 H 346.434 -0.675864 -1.93009 0
M  V30 3617 H 344.589 1.03022 -3.7345 0
M  V30 3618 H 345.003 -0.62179 -5.20801 0
M  V30 3619 H 346.477 1.07593 -5.41413 0
M  V30 3620 H 346.954 1.92685 -3.94676 0
M  V30 3621 H 347.56 0.281221 -4.24369 0
M  V30 3622 N 345.875 1.56104 -0.216619 0
M  V30 3623 C 347.122 1.98172 0.416416 0
M  V30 3624 C 347.45 1.10413 1.60122 0
M  V30 3625 O 346.705 0.147967 1.9514 0
M  V30 3626 C 347.004 3.45923 0.898464 0
M  V30 3627 C 346.67 4.50559 -0.175288 0
M  V30 3628 C 345.332 4.78897 -0.470271 0
M  V30 3629 C 347.684 5.1334 -0.901728 0
M  V30 3630 C 345.012 5.67299 -1.4963 0
M  V30 3631 C 347.364 6.02853 -1.91705 0
M  V30 3632 C 346.028 6.29537 -2.21901 0
M  V30 3633 H 345.298 0.725164 0.152377 0
M  V30 3634 H 347.945 1.88839 -0.318103 0
M  V30 3635 H 346.25 3.52434 1.71165 0
M  V30 3636 H 347.947 3.75841 1.39803 0
M  V30 3637 H 344.537 4.28551 0.0647806 0
M  V30 3638 H 348.721 4.91521 -0.687072 0
M  V30 3639 H 343.977 5.86239 -1.73592 0
M  V30 3640 H 348.151 6.50552 -2.48505 0
M  V30 3641 H 345.778 6.97835 -3.01548 0
M  V30 3642 N 347.353 -0.0568162 1.57498 0
M  V30 3643 C 348.63 -0.786954 1.79071 0
M  V30 3644 C 349.01 -1.95028 0.80792 0
M  V30 3645 O 348.358 -2.27968 -0.155858 0
M  V30 3646 C 348.568 -1.24594 3.26002 0
M  V30 3647 C 349.916 -1.67323 3.90241 0
M  V30 3648 O 350.94 -1.34124 3.29984 0
M  V30 3649 O 349.799 -2.28842 4.9628 0
M  V30 3650 H 346.893 -0.378262 0.735423 0
M  V30 3651 H 349.439 -0.035734 1.69662 0
M  V30 3652 H 348.211 -0.41423 3.89101 0
M  V30 3653 H 347.834 -2.05803 3.40192 0
M  V30 3654 N 348.832 -1.54138 -0.328536 0
M  V30 3655 C 349.762 -1.86167 -1.40939 0
M  V30 3656 C 350.743 -0.718044 -1.54202 0
M  V30 3657 O 351.928 -0.971328 -1.68163 0
M  V30 3658 C 349.058 -2.08461 -2.77779 0
M  V30 3659 C 348.012 -3.24299 -2.7931 0
M  V30 3660 C 347.338 -3.31955 -4.19178 0
M  V30 3661 C 348.638 -4.62065 -2.43502 0
M  V30 3662 H 350.332 -2.76689 -1.14383 0
M  V30 3663 H 347.878 -1.33132 -0.548806 0
M  V30 3664 H 349.831 -2.29453 -3.53454 0
M  V30 3665 H 348.555 -1.14684 -3.05802 0
M  V30 3666 H 347.214 -3.03187 -2.0609 0
M  V30 3667 H 346.862 -2.35745 -4.44335 0
M  V30 3668 H 346.562 -4.09805 -4.2111 0
M  V30 3669 H 348.086 -3.55175 -4.96672 0
M  V30 3670 H 349.5 -4.8297 -3.08889 0
M  V30 3671 H 347.897 -5.42429 -2.56693 0
M  V30 3672 H 348.967 -4.64652 -1.38659 0
M  V30 3673 N 350.31 0.590341 -1.46126 0
M  V30 3674 C 351.24 1.71032 -1.58966 0
M  V30 3675 C 352.221 1.64302 -0.440335 0
M  V30 3676 O 353.406 1.82436 -0.665634 0
M  V30 3677 C 350.536 3.09665 -1.57241 0
M  V30 3678 C 349.49 3.31221 -2.71066 0
M  V30 3679 C 348.816 4.70303 -2.54399 0
M  V30 3680 C 350.116 3.19796 -4.1295 0
M  V30 3681 H 351.81 1.60543 -2.52718 0
M  V30 3682 H 349.356 0.770933 -1.21625 0
M  V30 3683 H 351.309 3.87831 -1.64819 0
M  V30 3684 H 350.033 3.21036 -0.600289 0
M  V30 3685 H 348.692 2.55452 -2.62944 0
M  V30 3686 H 348.34 4.78429 -1.55288 0
M  V30 3687 H 348.04 4.85679 -3.30741 0
M  V30 3688 H 349.564 5.50647 -2.63857 0
M  V30 3689 H 350.978 3.87815 -4.22223 0
M  V30 3690 H 349.375 3.46696 -4.89818 0
M  V30 3691 H 350.445 2.16983 -4.33643 0
M  V30 3692 N 351.788 1.33704 0.83433 0
M  V30 3693 C 353.037 1.24763 1.58484 0
M  V30 3694 C 353.35 -0.183775 1.94735 0
M  V30 3695 O 354.556 -0.395234 2.68608 0
M  V30 3696 C 353.012 2.18638 2.85876 0
M  V30 3697 C 352.62 3.66974 2.56971 0
M  V30 3698 C 354.364 2.18581 3.63899 0
M  V30 3699 C 352.271 4.5275 3.80488 0
M  V30 3700 H 351.201 0.463425 0.594772 0
M  V30 3701 H 353.852 1.58797 0.919551 0
M  V30 3702 H 352.234 1.77542 3.5397 0
M  V30 3703 H 353.408 4.16538 1.9706 0
M  V30 3704 H 351.723 3.69366 1.92244 0
M  V30 3705 H 354.32 2.79894 4.55591 0
M  V30 3706 H 354.663 1.18207 3.99165 0
M  V30 3707 H 355.196 2.58062 3.02735 0
M  V30 3708 H 351.935 5.54017 3.5035 0
M  V30 3709 H 351.455 4.07927 4.39722 0
M  V30 3710 H 353.134 4.66784 4.4802 0
M  V30 3711 N 353.266 -1.05314 1.17247 0
M  V30 3712 C 354.514 -1.77941 0.958194 0
M  V30 3713 C 354.835 -1.88089 -0.514556 0
M  V30 3714 O 354.105 -1.39676 -1.37359 0
M  V30 3715 H 352.685 -0.659116 0.351533 0
M  V30 3716 H 355.347 -1.27166 1.47699 0
M  V30 3717 H 354.443 -2.79663 1.38546 0
M  V30 3718 N 354.744 -0.972509 -1.24016 0
M  V30 3719 C 355.691 -0.505969 -2.25186 0
M  V30 3720 C 356.661 0.451009 -1.5986 0
M  V30 3721 O 357.846 0.360307 -1.87367 0
M  V30 3722 C 354.986 0.193089 -3.44559 0
M  V30 3723 C 354.099 -0.803222 -4.24467 0
M  V30 3724 C 353.234 -0.0797793 -5.3114 0
M  V30 3725 C 352.273 -1.06583 -6.02749 0
M  V30 3726 N 351.41 -0.372074 -7.01113 0
M  V30 3727 H 356.25 -1.37351 -2.64459 0
M  V30 3728 H 353.787 -0.688419 -1.29997 0
M  V30 3729 H 355.745 0.615125 -4.1264 0
M  V30 3730 H 354.375 1.02455 -3.06109 0
M  V30 3731 H 353.427 -1.34368 -3.55878 0
M  V30 3732 H 354.739 -1.55494 -4.73944 0
M  V30 3733 H 353.893 0.400015 -6.0538 0
M  V30 3734 H 352.632 0.704597 -4.82583 0
M  V30 3735 H 351.637 -1.55645 -5.27309 0
M  V30 3736 H 352.862 -1.85074 -6.53395 0
M  V30 3737 H 350.808 0.393238 -6.5482 0
M  V30 3738 H 350.725 -1.06258 -7.48495 0
M  V30 3739 H 351.993 0.0855932 -7.79453 0
M  V30 3740 N 356.222 1.38976 -0.743202 0
M  V30 3741 C 357.638 1.53984 -0.419664 0
M  V30 3742 C 357.838 1.70837 1.0685 0
M  V30 3743 O 356.894 1.7135 1.8546 0
M  V30 3744 C 358.207 2.75287 -1.20985 0
M  V30 3745 C 359.755 2.89129 -1.19889 0
M  V30 3746 C 360.23 4.13381 -1.97181 0
M  V30 3747 N 361.721 4.20437 -1.94389 0
M  V30 3748 C 362.456 5.15547 -2.50996 0
M  V30 3749 N 361.952 6.16395 -3.16274 0
M  V30 3750 N 363.745 5.07822 -2.40984 0
M  V30 3751 H 355.896 1.26285 -1.7078 0
M  V30 3752 H 358.159 0.612689 -0.723406 0
M  V30 3753 H 357.865 2.69204 -2.26323 0
M  V30 3754 H 357.739 3.68184 -0.819759 0
M  V30 3755 H 360.126 2.947 -0.153606 0
M  V30 3756 H 360.207 1.97272 -1.62841 0
M  V30 3757 H 359.851 4.08572 -3.01714 0
M  V30 3758 H 359.781 5.04298 -1.51629 0
M  V30 3759 H 362.272 3.48205 -1.46839 0
M  V30 3760 H 362.585 6.85443 -3.56915 0
M  V30 3761 H 360.93 6.16758 -3.20367 0
M  V30 3762 H 364.121 4.27973 -1.89622 0
M  V30 3763 H 364.294 5.81767 -2.85397 0
M  V30 3764 N 357.7 0.491464 1.49741 0
M  V30 3765 C 358.632 -0.328609 2.26832 0
M  V30 3766 C 359.645 -0.939113 1.32983 0
M  V30 3767 O 360.834 -0.824067 1.58339 0
M  V30 3768 C 357.934 -1.47675 3.05033 0
M  V30 3769 C 357.107 -0.975305 4.26388 0
M  V30 3770 C 356.166 -1.99991 4.86714 0
M  V30 3771 O 355.192 -1.57229 5.47054 0
M  V30 3772 N 356.394 -3.32962 4.75517 0
M  V30 3773 H 359.159 0.332377 2.97851 0
M  V30 3774 H 356.72 0.323441 1.58636 0
M  V30 3775 H 358.712 -2.15954 3.42266 0
M  V30 3776 H 357.282 -2.04206 2.36683 0
M  V30 3777 H 356.502 -0.117723 3.94024 0
M  V30 3778 H 357.79 -0.618531 5.05026 0
M  V30 3779 H 357.188 -3.70399 4.27576 0
M  V30 3780 H 355.745 -3.96982 5.16961 0
M  V30 3781 N 359.178 -1.55987 0.224894 0
M  V30 3782 C 360.594 -1.59066 -0.130426 0
M  V30 3783 C 360.794 -1.24176 -1.5869 0
M  V30 3784 O 359.85 -0.978592 -2.32766 0
M  V30 3785 C 361.163 -3.00042 0.198883 0
M  V30 3786 C 362.711 -3.1268 0.141391 0
M  V30 3787 C 363.186 -4.55839 0.444422 0
M  V30 3788 N 364.677 -4.6152 0.394115 0
M  V30 3789 C 365.412 -5.70231 0.602038 0
M  V30 3790 N 364.908 -6.87291 0.871914 0
M  V30 3791 N 366.701 -5.59555 0.534245 0
M  V30 3792 H 358.852 -1.76941 1.17497 0
M  V30 3793 H 361.115 -0.822604 0.471197 0
M  V30 3794 H 360.821 -3.30234 1.2099 0
M  V30 3795 H 360.695 -3.74075 -0.484535 0
M  V30 3796 H 363.082 -2.82283 -0.860265 0
M  V30 3797 H 363.163 -2.40969 0.858335 0
M  V30 3798 H 362.807 -4.86954 1.44353 0
M  V30 3799 H 362.737 -5.2578 -0.293752 0
M  V30 3800 H 365.228 -3.77405 0.193356 0
M  V30 3801 H 365.541 -7.66058 1.01858 0
M  V30 3802 H 363.886 -6.89028 0.909145 0
M  V30 3803 H 367.077 -4.6698 0.323612 0
M  V30 3804 H 367.25 -6.44211 0.699693 0
M  V30 3805 N 360.656 0.0484629 -1.57525 0
M  V30 3806 C 362.067 0.597486 -1.76881 0
M  V30 3807 C 362.418 1.76664 -0.853475 0
M  V30 3808 O 361.543 2.16357 -0.0433656 0
M  V30 3809 C 362.138 1.09066 -3.20765 0
M  V30 3810 C 360.697 1.58535 -3.41385 0
M  V30 3811 C 359.844 0.514868 -2.72478 0
M  V30 3812 H 362.795 -0.177758 -1.57701 0
M  V30 3813 H 362.816 1.95875 -3.2621 0
M  V30 3814 H 362.328 0.239521 -3.8736 0
M  V30 3815 H 360.429 2.45898 -2.79937 0
M  V30 3816 H 360.542 1.64622 -4.49929 0
M  V30 3817 H 358.906 0.965407 -2.35695 0
M  V30 3818 H 359.689 -0.32648 -3.41744 0
M  V30 3819 N 362.134 1.5431 0.320358 0
M  V30 3820 C 363.383 1.7188 1.05546 0
M  V30 3821 C 363.696 0.501143 1.89071 0
M  V30 3822 O 364.902 0.558258 2.65699 0
M  V30 3823 C 363.358 3.04025 1.92605 0
M  V30 3824 C 362.966 4.33207 1.14176 0
M  V30 3825 C 364.71 3.30959 2.65832 0
M  V30 3826 C 362.617 5.56412 2.00399 0
M  V30 3827 H 361.547 0.640547 0.397763 0
M  V30 3828 H 364.198 1.80802 0.313522 0
M  V30 3829 H 362.58 2.89019 2.7071 0
M  V30 3830 H 363.754 4.58989 0.40819 0
M  V30 3831 H 362.069 4.13062 0.526165 0
M  V30 3832 H 364.666 4.20203 3.30656 0
M  V30 3833 H 365.009 2.48979 3.33639 0
M  V30 3834 H 365.542 3.46847 1.94787 0
M  V30 3835 H 362.281 6.41004 1.37094 0
M  V30 3836 H 361.801 5.34844 2.7148 0
M  V30 3837 H 363.48 5.92938 2.58908 0
M  V30 3838 N 363.613 -0.582584 1.46437 0
M  V30 3839 C 364.563 -1.68654 1.53426 0
M  V30 3840 C 365.547 -1.55971 0.395194 0
M  V30 3841 O 366.739 -1.64884 0.643612 0
M  V30 3842 C 363.868 -3.07439 1.52762 0
M  V30 3843 C 362.954 -3.25418 2.71963 0
M  V30 3844 N 363.345 -3.13556 3.96883 0
M  V30 3845 C 361.643 -3.56357 2.68189 0
M  V30 3846 C 362.344 -3.33543 4.76575 0
M  V30 3847 N 361.32 -3.58704 4.08451 0
M  V30 3848 H 365.122 -1.58014 2.47808 0
M  V30 3849 H 362.636 -0.786617 1.42078 0
M  V30 3850 H 364.633 -3.86671 1.55857 0
M  V30 3851 H 363.293 -3.1921 0.594573 0
M  V30 3852 H 364.304 -2.9142 4.28129 0
M  V30 3853 H 360.981 -3.74812 1.83908 0
M  V30 3854 H 362.371 -3.29555 5.85528 0
M  V30 3855 N 365.091 -1.34144 -0.827227 0
M  V30 3856 C 366.021 -1.28005 -1.95287 0
M  V30 3857 C 367.002 -0.158321 -1.69362 0
M  V30 3858 O 368.187 -0.349987 -1.9102 0
M  V30 3859 C 365.317 -1.03036 -3.31664 0
M  V30 3860 C 364.271 -2.11628 -3.72019 0
M  V30 3861 C 363.597 -1.71854 -5.0633 0
M  V30 3862 C 364.897 -3.53417 -3.8457 0
M  V30 3863 H 366.591 -2.22187 -2.00682 0
M  V30 3864 H 364.137 -1.0696 -0.964135 0
M  V30 3865 H 366.09 -0.973863 -4.09993 0
M  V30 3866 H 364.814 -0.0529391 -3.26557 0
M  V30 3867 H 363.473 -2.16339 -2.95961 0
M  V30 3868 H 363.121 -0.727841 -4.97706 0
M  V30 3869 H 362.821 -2.44531 -5.34302 0
M  V30 3870 H 364.345 -1.67692 -5.87122 0
M  V30 3871 H 365.759 -3.51142 -4.5318 0
M  V30 3872 H 364.156 -4.24679 -4.2399 0
M  V30 3873 H 365.226 -3.91072 -2.86689 0
M  V30 3874 N 366.569 1.04691 -1.17803 0
M  V30 3875 C 367.794 1.81984 -0.994813 0
M  V30 3876 C 368.219 1.82586 0.452112 0
M  V30 3877 O 367.577 1.23854 1.324 0
M  V30 3878 C 367.625 3.2575 -1.54659 0
M  V30 3879 O 366.729 4.05267 -0.763728 0
M  V30 3880 H 366.07 0.562483 -0.352857 0
M  V30 3881 H 368.6 1.3189 -1.56417 0
M  V30 3882 H 368.61 3.76541 -1.57102 0
M  V30 3883 H 367.285 3.24627 -2.59981 0
M  V30 3884 H 365.862 3.63972 -0.811108 0
M  V30 3885 N 368.047 0.979072 1.23499 0
M  V30 3886 C 369.294 0.647219 1.91878 0
M  V30 3887 C 369.622 -0.819074 1.76413 0
M  V30 3888 O 368.877 -1.60616 1.11808 0
M  V30 3889 C 369.176 0.981932 3.43646 0
M  V30 3890 C 368.842 2.43822 3.79291 0
M  V30 3891 C 367.504 2.83622 3.88731 0
M  V30 3892 C 369.856 3.3828 3.96505 0
M  V30 3893 C 367.184 4.16897 4.12812 0
M  V30 3894 C 369.536 4.71197 4.22085 0
M  V30 3895 C 368.2 5.10758 4.29747 0
M  V30 3896 H 367.47 0.236834 0.702133 0
M  V30 3897 H 370.117 1.23268 1.46551 0
M  V30 3898 H 368.422 0.314365 3.90537 0
M  V30 3899 H 370.119 0.703395 3.94783 0
M  V30 3900 H 366.709 2.11966 3.72516 0
M  V30 3901 H 370.893 3.0871 3.88603 0
M  V30 3902 H 366.149 4.47157 4.16966 0
M  V30 3903 H 370.323 5.44348 4.34348 0
M  V30 3904 H 367.95 6.1405 4.48159 0
M  V30 3905 N 369.525 -1.3858 0.750561 0
M  V30 3906 C 370.802 -1.94231 0.231009 0
M  V30 3907 C 371.182 -1.68611 -1.27018 0
M  V30 3908 O 370.53 -1.02296 -2.04323 0
M  V30 3909 C 370.74 -3.44123 0.581428 0
M  V30 3910 C 372.088 -4.2116 0.539389 0
M  V30 3911 O 373.112 -3.52391 0.519541 0
M  V30 3912 O 371.971 -5.43749 0.54765 0
M  V30 3913 H 369.065 -0.825639 0.0474263 0
M  V30 3914 H 371.611 -1.4799 0.830478 0
M  V30 3915 H 370.383 -3.56267 1.61833 0
M  V30 3916 H 370.006 -3.97573 -0.0462047 0
M  V30 3917 N 371.003 -0.499398 -1.49478 0
M  V30 3918 C 372.252 0.0475259 -2.01644 0
M  V30 3919 C 372.565 1.38195 -1.38425 0
M  V30 3920 O 373.771 2.01547 -1.8191 0
M  V30 3921 C 372.227 0.135164 -3.59646 0
M  V30 3922 C 371.835 -1.19252 -4.31837 0
M  V30 3923 C 373.579 0.632538 -4.19761 0
M  V30 3924 C 371.486 -1.06713 -5.81693 0
M  V30 3925 H 370.416 0.0215349 -0.753692 0
M  V30 3926 H 373.067 -0.638577 -1.7203 0
M  V30 3927 H 371.449 0.885681 -3.85969 0
M  V30 3928 H 372.623 -1.9562 -4.17216 0
M  V30 3929 H 370.938 -1.62321 -3.83459 0
M  V30 3930 H 373.535 0.743833 -5.29501 0
M  V30 3931 H 373.878 1.63098 -3.83021 0
M  V30 3932 H 374.411 -0.0613987 -3.97753 0
M  V30 3933 H 371.15 -2.03979 -6.22955 0
M  V30 3934 H 370.67 -0.344307 -5.98811 0
M  V30 3935 H 372.349 -0.745208 -6.42694 0
M  V30 3936 N 372.481 1.55866 -0.233164 0
M  V30 3937 C 373.758 1.90471 0.444988 0
M  V30 3938 C 374.138 1.15209 1.7689 0
M  V30 3939 O 373.486 0.265119 2.26957 0
M  V30 3940 C 373.696 3.4333 0.626559 0
M  V30 3941 C 375.044 4.14319 0.92871 0
M  V30 3942 O 376.068 3.48993 0.712926 0
M  V30 3943 O 374.927 5.29846 1.33887 0
M  V30 3944 H 372.021 0.792347 0.236885 0
M  V30 3945 H 374.567 1.67437 -0.276211 0
M  V30 3946 H 373.339 3.90095 -0.306822 0
M  V30 3947 H 372.962 3.72181 1.39881 0
M  V30 3948 N 373.959 -0.0401083 1.57549 0
M  V30 3949 C 374.922 -1.02871 2.04817 0
M  V30 3950 C 375.922 -1.29708 0.950388 0
M  V30 3951 O 377.112 -1.24897 1.21435 0
M  V30 3952 C 374.244 -2.36443 2.45576 0
M  V30 3953 H 375.437 -0.620631 2.93408 0
M  V30 3954 H 372.99 -0.286667 1.53649 0
M  V30 3955 H 373.725 -2.82021 1.60108 0
M  V30 3956 H 373.51 -2.18296 3.25713 0
M  V30 3957 H 375 -3.07441 2.82612 0
M  V30 3958 N 375.437 -1.54477 -0.31217 0
M  V30 3959 C 376.684 -1.73227 -1.04875 0
M  V30 3960 C 377.012 -0.512042 -1.87639 0
M  V30 3961 O 376.267 0.506131 -1.89042 0
M  V30 3962 C 376.566 -2.967 -1.99258 0
M  V30 3963 C 376.232 -4.30974 -1.32559 0
M  V30 3964 C 374.894 -4.67477 -1.141 0
M  V30 3965 C 377.246 -5.14258 -0.847835 0
M  V30 3966 C 374.574 -5.84852 -0.465326 0
M  V30 3967 C 376.926 -6.32327 -0.185931 0
M  V30 3968 C 375.59 -6.67499 0.0107077 0
M  V30 3969 H 374.86 -0.633881 -0.383765 0
M  V30 3970 H 377.507 -1.88727 -0.324731 0
M  V30 3971 H 375.812 -2.75935 -2.7815 0
M  V30 3972 H 377.509 -3.08401 -2.563 0
M  V30 3973 H 374.099 -4.02262 -1.4793 0
M  V30 3974 H 378.283 -4.86565 -0.978192 0
M  V30 3975 H 373.539 -6.10654 -0.301883 0
M  V30 3976 H 377.713 -6.96135 0.192211 0
M  V30 3977 H 375.34 -7.58306 0.536287 0
M  V30 3978 N 376.915 0.57481 -1.46744 0
M  V30 3979 C 378.192 1.3352 -1.4294 0
M  V30 3980 C 378.572 2.10775 -0.117009 0
M  V30 3981 O 377.92 2.09966 0.901474 0
M  V30 3982 C 378.13 2.25456 -2.66403 0
M  V30 3983 C 379.478 2.87035 -3.12883 0
M  V30 3984 O 380.502 2.35766 -2.67007 0
M  V30 3985 O 379.361 3.80179 -3.92589 0
M  V30 3986 H 376.455 0.600318 -0.568812 0
M  V30 3987 H 379.001 0.595171 -1.58921 0
M  V30 3988 H 377.773 1.67851 -3.53471 0
M  V30 3989 H 377.396 3.06785 -2.52921 0
M  V30 3990 N 378.394 1.34581 0.820102 0
M  V30 3991 C 379.805 1.24298 1.39309 0
M  V30 3992 C 380.156 -0.130351 1.95767 0
M  V30 3993 O 379.281 -1.0308 1.90272 0
M  V30 3994 C 379.876 2.25054 2.53251 0
M  V30 3995 C 378.435 2.18552 3.0645 0
M  V30 3996 C 377.582 2.11503 1.79337 0
M  V30 3997 H 380.533 1.45906 0.624262 0
M  V30 3998 H 380.554 1.86917 3.31425 0
M  V30 3999 H 380.066 3.24996 2.1213 0
M  V30 4000 H 378.167 1.21976 3.52069 0
M  V30 4001 H 378.28 3.0993 3.65349 0
M  V30 4002 H 376.644 1.57268 2.00347 0
M  V30 4003 H 377.427 3.13284 1.40386 0
M  V30 4004 N 379.872 -1.04064 1.18357 0
M  V30 4005 C 381.1 -1.80916 1.00384 0
M  V30 4006 C 381.515 -1.83414 -0.447738 0
M  V30 4007 O 380.872 -1.26962 -1.31099 0
M  V30 4008 C 380.923 -3.26516 1.55144 0
M  V30 4009 O 380.644 -3.2424 2.94618 0
M  V30 4010 C 382.145 -4.20013 1.41789 0
M  V30 4011 H 379.365 -0.569728 0.354474 0
M  V30 4012 H 381.909 -1.31151 1.56906 0
M  V30 4013 H 380.064 -3.73512 1.02798 0
M  V30 4014 H 380.478 -4.15452 3.20156 0
M  V30 4015 H 381.952 -5.20111 1.84901 0
M  V30 4016 H 382.429 -4.37667 0.36661 0
M  V30 4017 H 383.035 -3.78881 1.93207 0
M  V30 4018 N 381.35 -0.985608 -1.22978 0
M  V30 4019 C 382.28 -0.549649 -2.26939 0
M  V30 4020 C 383.261 0.419803 -1.64838 0
M  V30 4021 O 384.446 0.31203 -1.91677 0
M  V30 4022 C 381.576 0.143652 -3.47003 0
M  V30 4023 C 380.53 -0.743606 -4.21491 0
M  V30 4024 C 379.856 0.0822027 -5.34637 0
M  V30 4025 C 381.156 -2.03694 -4.80943 0
M  V30 4026 H 382.85 -1.41862 -2.63658 0
M  V30 4027 H 380.396 -0.683571 -1.26741 0
M  V30 4028 H 382.349 0.459985 -4.18882 0
M  V30 4029 H 381.073 1.04711 -3.09359 0
M  V30 4030 H 379.732 -1.04347 -3.51436 0
M  V30 4031 H 379.38 0.986359 -4.93234 0
M  V30 4032 H 379.08 -0.508377 -5.85397 0
M  V30 4033 H 380.604 0.392797 -6.09335 0
M  V30 4034 H 382.018 -1.78504 -5.44802 0
M  V30 4035 H 380.415 -2.57573 -5.42011 0
M  V30 4036 H 381.485 -2.72042 -4.01399 0
M  V30 4037 N 382.828 1.3818 -0.7579 0
M  V30 4038 C 383.791 2.28764 -0.141286 0
M  V30 4039 C 384.791 1.47388 0.642907 0
M  V30 4040 O 385.981 1.67781 0.468536 0
M  V30 4041 C 383.113 3.31184 0.808069 0
M  V30 4042 H 384.306 2.848 -0.939633 0
M  V30 4043 H 381.859 1.47212 -0.525191 0
M  V30 4044 H 382.594 2.80247 1.63193 0
M  V30 4045 H 382.379 3.91314 0.248104 0
M  V30 4046 H 383.869 3.98909 1.23536 0
M  V30 4047 N 384.306 0.507319 1.49211 0
M  V30 4048 C 385.717 0.0611118 1.866 0
M  V30 4049 C 386.068 -1.35488 1.41907 0
M  V30 4050 O 385.193 -2.0108 0.799726 0
M  V30 4051 C 385.788 0.104125 3.3864 0
M  V30 4052 C 384.347 -0.28677 3.75306 0
M  V30 4053 C 383.494 0.473893 2.73221 0
M  V30 4054 H 386.445 0.719775 1.41439 0
M  V30 4055 H 386.466 -0.689672 3.74198 0
M  V30 4056 H 385.978 1.13482 3.71138 0
M  V30 4057 H 384.079 -1.32046 3.48417 0
M  V30 4058 H 384.192 0.0370745 4.79086 0
M  V30 4059 H 382.556 -0.0770644 2.54583 0
M  V30 4060 H 383.339 1.50478 3.08563 0
M  V30 4061 N 385.784 -1.5574 0.241426 0
M  V30 4062 C 386.747 -2.19877 -0.647063 0
M  V30 4063 C 387.747 -1.16642 -1.10686 0
M  V30 4064 O 388.937 -1.41757 -1.01245 0
M  V30 4065 C 386.069 -2.83797 -1.88871 0
M  V30 4066 H 387.262 -2.99772 -0.087574 0
M  V30 4067 H 384.815 -1.56298 -0.00813574 0
M  V30 4068 H 385.55 -2.07824 -2.48957 0
M  V30 4069 H 385.335 -3.59414 -1.56728 0
M  V30 4070 H 386.825 -3.32898 -2.52129 0
M  V30 4071 N 387.262 0.0317525 -1.57568 0
M  V30 4072 C 388.49 0.734949 -1.93407 0
M  V30 4073 C 388.905 1.69036 -0.84096 0
M  V30 4074 O 388.262 1.81582 0.182836 0
M  V30 4075 C 388.313 1.49432 -3.29169 0
M  V30 4076 O 388.034 0.577261 -4.3428 0
M  V30 4077 C 389.535 2.29492 -3.79273 0
M  V30 4078 H 386.755 0.206706 -0.638368 0
M  V30 4079 H 389.299 -0.00992046 -2.04498 0
M  V30 4080 H 387.454 2.1911 -3.19483 0
M  V30 4081 H 387.868 1.10952 -5.1263 0
M  V30 4082 H 389.342 2.78172 -4.76785 0
M  V30 4083 H 389.819 3.10794 -3.10328 0
M  V30 4084 H 390.425 1.64894 -3.92033 0
M  V30 4085 N 388.74 1.54641 0.303973 0
M  V30 4086 C 389.988 1.73437 1.0375 0
M  V30 4087 C 390.309 0.521449 1.87899 0
M  V30 4088 O 389.579 -0.46432 1.90318 0
M  V30 4089 H 388.159 0.639518 0.386039 0
M  V30 4090 H 390.821 1.91988 0.335675 0
M  V30 4091 H 389.917 2.62235 1.69231 0
M  V30 4092 N 390.218 -0.567019 1.47046 0
M  V30 4093 C 391.446 -1.35027 1.56765 0
M  V30 4094 C 391.861 -1.8758 0.214316 0
M  V30 4095 O 391.218 -1.64471 -0.790919 0
M  V30 4096 C 391.269 -2.52698 2.58507 0
M  V30 4097 O 390.99 -2.0232 3.88585 0
M  V30 4098 C 392.491 -3.45043 2.78316 0
M  V30 4099 H 389.711 -0.41195 0.529658 0
M  V30 4100 H 392.255 -0.687832 1.92585 0
M  V30 4101 H 390.41 -3.149 2.25648 0
M  V30 4102 H 390.824 -2.79068 4.44096 0
M  V30 4103 H 392.298 -4.2405 3.53391 0
M  V30 4104 H 392.775 -3.97971 1.85784 0
M  V30 4105 H 393.381 -2.88665 3.12334 0
M  V30 4106 N 391.696 -1.35014 -0.812953 0
M  V30 4107 C 393.107 -1.25035 -1.38648 0
M  V30 4108 C 393.458 0.119967 -1.95833 0
M  V30 4109 O 392.583 1.02069 -1.90816 0
M  V30 4110 C 393.178 -2.26394 -2.52054 0
M  V30 4111 C 391.737 -2.20175 -3.05287 0
M  V30 4112 C 390.884 -2.12451 -1.78213 0
M  V30 4113 H 393.835 -1.46235 -0.616516 0
M  V30 4114 H 393.856 -1.88672 -3.30429 0
M  V30 4115 H 393.368 -3.26116 -2.10404 0
M  V30 4116 H 391.469 -1.23841 -3.51417 0
M  V30 4117 H 391.582 -3.11863 -3.63701 0
M  V30 4118 H 389.946 -1.58328 -1.9951 0
M  V30 4119 H 390.729 -3.14024 -1.38723 0
M  V30 4120 N 393.175 1.03435 -1.18907 0
M  V30 4121 C 394.421 1.77005 -0.989798 0
M  V30 4122 C 394.754 1.88205 0.478816 0
M  V30 4123 O 394.029 1.39481 1.35556 0
M  V30 4124 C 394.312 3.19925 -1.65287 0
M  V30 4125 C 394.165 3.1663 -3.19477 0
M  V30 4126 C 395.484 4.18189 -1.37134 0
M  V30 4127 H 392.603 0.642538 -0.360991 0
M  V30 4128 H 395.245 1.20784 -1.46667 0
M  V30 4129 H 393.395 3.67929 -1.24741 0
M  V30 4130 H 395.067 2.76567 -3.692 0
M  V30 4131 H 393.31 2.54491 -3.51307 0
M  V30 4132 H 393.981 4.1758 -3.61013 0
M  V30 4133 H 396.457 3.78761 -1.72276 0
M  V30 4134 H 395.333 5.16394 -1.86087 0
M  V30 4135 H 395.594 4.41112 -0.295424 0
M  V30 4136 N 394.653 0.992116 1.22453 0
M  V30 4137 C 395.899 0.668523 1.91464 0
M  V30 4138 C 396.232 -0.797313 1.77078 0
M  V30 4139 O 395.507 -1.5765 1.13916 0
M  V30 4140 C 395.79 1.07424 3.43703 0
M  V30 4141 C 395.643 2.59857 3.67143 0
M  V30 4142 C 396.962 0.626891 4.35612 0
M  V30 4143 H 394.081 0.244341 0.695318 0
M  V30 4144 H 396.723 1.2355 1.44345 0
M  V30 4145 H 394.873 0.591816 3.83966 0
M  V30 4146 H 396.545 3.15764 3.3629 0
M  V30 4147 H 394.788 3.01961 3.11451 0
M  V30 4148 H 395.459 2.83296 4.73759 0
M  V30 4149 H 397.935 1.04125 4.02861 0
M  V30 4150 H 396.811 0.939076 5.40807 0
M  V30 4151 H 397.072 -0.472457 4.39568 0
M  V30 4152 N 396.131 -1.37776 0.765217 0
M  V30 4153 C 397.379 -1.99454 0.325943 0
M  V30 4154 C 397.7 -1.61049 -1.09947 0
M  V30 4155 O 396.97 -0.872821 -1.75381 0
M  V30 4156 H 395.55 -0.737697 0.117525 0
M  V30 4157 H 398.212 -1.68359 0.981895 0
M  V30 4158 H 397.308 -3.09547 0.398353 0
M  V30 4159 N 397.609 -0.515225 -1.4894 0
M  V30 4160 C 398.857 0.0241671 -2.02086 0
M  V30 4161 C 399.178 1.3616 -1.3959 0
M  V30 4162 O 398.448 1.87841 -0.556121 0
M  V30 4163 H 397.028 0.0119203 -0.746905 0
M  V30 4164 H 399.69 -0.675702 -1.82812 0
M  V30 4165 H 398.786 0.143385 -3.1177 0
M  V30 4166 N 399.087 1.5561 -0.249682 0
M  V30 4167 C 400.017 2.24477 0.642826 0
M  V30 4168 C 400.998 1.22601 1.17911 0
M  V30 4169 O 402.183 1.5126 1.21795 0
M  V30 4170 C 399.313 2.94638 1.83863 0
M  V30 4171 C 398.267 4.03227 1.435 0
M  V30 4172 C 397.593 4.60828 2.71186 0
M  V30 4173 C 398.893 5.18796 0.604002 0
M  V30 4174 H 400.587 2.99321 0.0685625 0
M  V30 4175 H 398.133 1.43965 0.0315363 0
M  V30 4176 H 400.086 3.41517 2.46868 0
M  V30 4177 H 398.81 2.17287 2.43832 0
M  V30 4178 H 397.469 3.57121 0.828275 0
M  V30 4179 H 397.117 3.80174 3.29358 0
M  V30 4180 H 396.817 5.34132 2.44901 0
M  V30 4181 H 398.341 5.10442 3.35084 0
M  V30 4182 H 399.755 5.61883 1.13842 0
M  V30 4183 H 398.152 5.98506 0.437097 0
M  V30 4184 H 399.222 4.83384 -0.383147 0
M  V30 4185 N 400.565 -0.0233959 1.57583 0
M  V30 4186 C 401.793 -0.724682 1.93794 0
M  V30 4187 C 402.208 -1.68588 0.849912 0
M  V30 4188 O 401.565 -1.81676 -0.173204 0
M  V30 4189 C 401.616 -1.47684 3.29957 0
M  V30 4190 O 401.337 -0.554222 4.3458 0
M  V30 4191 C 402.838 -2.27477 3.80485 0
M  V30 4192 H 400.058 -0.203317 0.639455 0
M  V30 4193 H 402.602 0.0207653 2.04489 0
M  V30 4194 H 400.757 -2.17412 3.20641 0
M  V30 4195 H 401.171 -1.08232 5.13212 0
M  V30 4196 H 402.645 -2.7564 4.78254 0
M  V30 4197 H 403.122 -3.09144 3.11972 0
M  V30 4198 H 403.728 -1.62813 3.92902 0
M  V30 4199 N 402.043 -1.548 -0.295768 0
M  V30 4200 C 403.273 -1.78069 -1.04762 0
M  V30 4201 C 403.681 -0.542847 -1.81245 0
M  V30 4202 O 403.024 0.497051 -1.76848 0
M  V30 4203 C 403.086 -2.93881 -2.07061 0
M  V30 4204 C 402.75 -4.31777 -1.49725 0
M  V30 4205 C 403.747 -5.11613 -0.924581 0
M  V30 4206 C 401.432 -4.78389 -1.5313 0
M  V30 4207 C 403.426 -6.36184 -0.393594 0
M  V30 4208 C 401.113 -6.02921 -0.996447 0
M  V30 4209 C 402.111 -6.81654 -0.428569 0
M  V30 4210 O 401.799 -8.0384 0.0981593 0
M  V30 4211 H 401.531 -0.597475 -0.316226 0
M  V30 4212 H 404.085 -2.02584 -0.338973 0
M  V30 4213 H 402.315 -2.65003 -2.81621 0
M  V30 4214 H 404.004 -3.04679 -2.6819 0
M  V30 4215 H 404.77 -4.76743 -0.891136 0
M  V30 4216 H 400.649 -4.17132 -1.9627 0
M  V30 4217 H 404.193 -6.97582 0.0503014 0
M  V30 4218 H 400.09 -6.37277 -1.02706 0
M  V30 4219 H 400.858 -8.18499 -0.0146455 0
M  V30 4220 N 403.521 0.559213 -1.47345 0
M  V30 4221 C 404.937 0.884943 -1.32819 0
M  V30 4222 C 405.137 1.98988 -0.317173 0
M  V30 4223 O 404.193 2.51031 0.272011 0
M  V30 4224 C 405.506 1.28007 -2.72093 0
M  V30 4225 C 407.054 1.39161 -2.80363 0
M  V30 4226 C 407.529 1.82031 -4.20272 0
M  V30 4227 N 409.02 1.89185 -4.22804 0
M  V30 4228 C 409.755 2.2368 -5.27973 0
M  V30 4229 N 409.251 2.56802 -6.43447 0
M  V30 4230 N 411.044 2.24436 -5.15349 0
M  V30 4231 H 403.195 -0.170304 -2.11716 0
M  V30 4232 H 405.458 -0.0135247 -0.947904 0
M  V30 4233 H 405.164 0.542027 -3.47498 0
M  V30 4234 H 405.038 2.23665 -3.03733 0
M  V30 4235 H 407.425 2.12048 -2.05231 0
M  V30 4236 H 407.506 0.41696 -2.52379 0
M  V30 4237 H 407.15 1.09715 -4.95908 0
M  V30 4238 H 407.08 2.80495 -4.45679 0
M  V30 4239 H 409.571 1.65982 -3.39497 0
M  V30 4240 H 409.884 2.82144 -7.19454 0
M  V30 4241 H 408.229 2.54387 -6.46771 0
M  V30 4242 H 411.42 1.97998 -4.24163 0
M  V30 4243 H 411.593 2.50989 -5.97418 0
M  V30 4244 N 404.999 1.35443 0.805782 0
M  V30 4245 C 405.909 1.30546 1.94923 0
M  V30 4246 C 406.925 0.210233 1.72725 0
M  V30 4247 O 408.101 0.43975 1.9654 0
M  V30 4248 C 405.166 1.07782 3.29521 0
M  V30 4249 C 404.227 2.26625 3.64609 0
M  V30 4250 C 403.46 2.04938 4.92784 0
M  V30 4251 O 403.683 1.01624 5.61274 0
M  V30 4252 O 402.617 2.9232 5.26149 0
M  V30 4253 H 406.443 2.26779 2.02002 0
M  V30 4254 H 404.028 1.15823 0.943682 0
M  V30 4255 H 405.91 0.969392 4.10098 0
M  V30 4256 H 404.585 0.146003 3.23371 0
M  V30 4257 H 403.492 2.43033 2.84404 0
M  V30 4258 H 404.825 3.18257 3.75464 0
M  V30 4259 N 406.477 -1.02803 1.19454 0
M  V30 4260 C 407.725 -1.75869 0.995722 0
M  V30 4261 C 408.046 -1.89138 -0.474543 0
M  V30 4262 O 407.316 -1.42558 -1.34366 0
M  V30 4263 H 405.896 -0.651511 0.365435 0
M  V30 4264 H 408.558 -1.24004 1.50363 0
M  V30 4265 H 407.654 -2.76661 1.44447 0
M  V30 4266 N 407.956 -0.998596 -1.21925 0
M  V30 4267 C 408.889 -0.498517 -2.22688 0
M  V30 4268 C 409.867 0.444301 -1.56412 0
M  V30 4269 O 411.051 0.368518 -1.84863 0
M  V30 4270 C 408.178 0.276639 -3.37568 0
M  V30 4271 C 407.224 -0.61302 -4.22071 0
M  V30 4272 S 408.057 -2.07168 -4.93803 0
M  V30 4273 C 409.213 -1.30617 -6.12119 0
M  V30 4274 H 409.446 -1.35234 -2.64762 0
M  V30 4275 H 406.979 -0.806018 -1.31692 0
M  V30 4276 H 408.937 0.717817 -4.04175 0
M  V30 4277 H 407.598 1.10581 -2.93991 0
M  V30 4278 H 406.791 -0.0162909 -5.03997 0
M  V30 4279 H 406.393 -0.991202 -3.60626 0
M  V30 4280 H 408.685 -0.57675 -6.75041 0
M  V30 4281 H 409.628 -2.10091 -6.76215 0
M  V30 4282 H 410.036 -0.816957 -5.58557 0
M  V30 4283 N 409.434 1.37368 -0.772513 0
M  V30 4284 C 410.664 2.03647 -0.348082 0
M  V30 4285 C 411.072 1.58392 1.03482 0
M  V30 4286 O 410.415 0.760921 1.672 0
M  V30 4287 C 410.477 3.58131 -0.313404 0
M  V30 4288 C 410.141 4.2652 -1.64102 0
M  V30 4289 C 411.138 4.50587 -2.5936 0
M  V30 4290 C 408.823 4.64335 -1.91567 0
M  V30 4291 C 410.817 5.11526 -3.80289 0
M  V30 4292 C 408.504 5.24996 -3.12766 0
M  V30 4293 C 409.502 5.48529 -4.06946 0
M  V30 4294 O 409.19 6.07921 -5.26011 0
M  V30 4295 H 408.922 0.660538 -0.143753 0
M  V30 4296 H 411.476 1.76669 -1.04772 0
M  V30 4297 H 409.706 3.84159 0.442617 0
M  V30 4298 H 411.395 4.05813 0.0840613 0
M  V30 4299 H 412.161 4.21784 -2.39423 0
M  V30 4300 H 408.04 4.45353 -1.19088 0
M  V30 4301 H 411.584 5.29811 -4.53813 0
M  V30 4302 H 407.481 5.53223 -3.32588 0
M  V30 4303 H 408.249 6.26398 -5.26847 0
M  V30 4304 N 410.912 0.523116 1.48665 0
M  V30 4305 C 412.161 -0.01544 2.01694 0
M  V30 4306 C 412.474 -1.35975 1.40606 0
M  V30 4307 O 413.68 -1.98627 1.85093 0
M  V30 4308 C 412.136 -0.0779303 3.59816 0
M  V30 4309 C 411.744 1.26107 4.29885 0
M  V30 4310 C 413.488 -0.565678 4.20714 0
M  V30 4311 C 411.395 1.15954 5.79921 0
M  V30 4312 H 410.325 -0.00954163 0.75394 0
M  V30 4313 H 412.976 0.665865 1.70993 0
M  V30 4314 H 411.358 -0.824165 3.87329 0
M  V30 4315 H 412.532 2.02233 4.14051 0
M  V30 4316 H 410.847 1.68401 3.80828 0
M  V30 4317 H 413.444 -0.6595 5.30617 0
M  V30 4318 H 413.787 -1.56984 3.85567 0
M  V30 4319 H 414.32 0.12467 3.97605 0
M  V30 4320 H 411.059 2.13864 6.19631 0
M  V30 4321 H 410.579 0.439529 5.98187 0
M  V30 4322 H 412.258 0.847361 6.41427 0
M  V30 4323 N 412.39 -1.55475 0.257931 0
M  V30 4324 C 413.353 -2.20551 -0.623706 0
M  V30 4325 C 414.353 -1.17809 -1.09443 0
M  V30 4326 O 415.543 -1.42823 -0.997362 0
M  V30 4327 C 412.675 -2.85784 -1.8585 0
M  V30 4328 H 413.868 -2.99848 -0.0557743 0
M  V30 4329 H 411.421 -1.56298 0.0084422 0
M  V30 4330 H 412.156 -2.10453 -2.46739 0
M  V30 4331 H 411.941 -3.61057 -1.52907 0
M  V30 4332 H 413.431 -3.35553 -2.48584 0
M  V30 4333 N 413.868 0.0150385 -1.57593 0
M  V30 4334 C 414.778 1.02791 -2.10882 0
M  V30 4335 C 415.794 1.38702 -1.0506 0
M  V30 4336 O 416.97 1.47739 -1.36877 0
M  V30 4337 C 414.035 2.30568 -2.58919 0
M  V30 4338 C 413.096 2.01108 -3.79281 0
M  V30 4339 C 412.329 3.22794 -4.25018 0
M  V30 4340 O 412.552 4.33959 -3.70183 0
M  V30 4341 O 411.486 3.07672 -5.17322 0
M  V30 4342 H 415.312 0.604973 -2.97613 0
M  V30 4343 H 412.897 0.23292 -1.47573 0
M  V30 4344 H 414.779 3.05662 -2.90084 0
M  V30 4345 H 413.454 2.72129 -1.75293 0
M  V30 4346 H 412.361 1.23537 -3.53114 0
M  V30 4347 H 413.694 1.64394 -4.63935 0
M  V30 4348 N 415.346 1.54954 0.287554 0
M  V30 4349 C 416.256 1.8991 1.37736 0
M  V30 4350 C 417.272 0.794701 1.54792 0
M  V30 4351 O 418.448 1.09243 1.69198 0
M  V30 4352 C 415.513 2.15108 2.71899 0
M  V30 4353 C 414.574 3.38752 2.63715 0
M  V30 4354 C 413.807 3.62739 3.91479 0
M  V30 4355 O 414.03 2.89492 4.91478 0
M  V30 4356 O 412.964 4.56267 3.92561 0
M  V30 4357 H 416.79 2.82652 1.11092 0
M  V30 4358 H 414.375 1.41315 0.484807 0
M  V30 4359 H 416.257 2.32806 3.51254 0
M  V30 4360 H 414.932 1.25551 2.9836 0
M  V30 4361 H 413.839 3.26405 1.82786 0
M  V30 4362 H 415.172 4.28483 2.42205 0
M  V30 4363 N 416.824 -0.551391 1.4764 0
M  V30 4364 C 418.073 -1.30467 1.53822 0
M  V30 4365 C 418.386 -1.94495 0.207661 0
M  V30 4366 O 419.592 -2.71099 0.147533 0
M  V30 4367 C 418.048 -2.36616 2.71184 0
M  V30 4368 C 417.656 -1.78754 4.10793 0
M  V30 4369 C 419.4 -3.13088 2.86663 0
M  V30 4370 C 417.307 -2.82717 5.19447 0
M  V30 4371 H 416.237 -0.490584 0.572576 0
M  V30 4372 H 418.888 -0.58494 1.73927 0
M  V30 4373 H 417.27 -3.11529 2.4447 0
M  V30 4374 H 418.444 -1.10173 4.47435 0
M  V30 4375 H 416.759 -1.14846 4.00249 0
M  V30 4376 H 419.356 -3.90736 3.65007 0
M  V30 4377 H 419.699 -3.67635 1.95321 0
M  V30 4378 H 420.232 -2.45288 3.13175 0
M  V30 4379 H 416.971 -2.33018 6.12685 0
M  V30 4380 H 416.491 -3.4969 4.87316 0
M  V30 4381 H 418.17 -3.46102 5.46646 0
M  V30 4382 N 418.302 -1.35869 -0.798587 0
M  V30 4383 C 419.252 -1.25982 -1.90033 0
M  V30 4384 C 420.236 -0.153303 -1.60168 0
M  V30 4385 O 421.428 -0.38527 -1.72756 0
M  V30 4386 C 418.557 -1.04211 -3.27101 0
M  V30 4387 C 417.643 -2.19289 -3.63006 0
M  V30 4388 N 418.034 -3.44559 -3.70287 0
M  V30 4389 C 416.332 -2.10852 -3.93011 0
M  V30 4390 C 417.033 -4.20283 -4.02166 0
M  V30 4391 N 416.009 -3.49124 -4.16669 0
M  V30 4392 H 419.811 -2.20883 -1.93876 0
M  V30 4393 H 417.325 -1.28457 -0.993614 0
M  V30 4394 H 419.322 -0.952155 -4.05881 0
M  V30 4395 H 417.982 -0.102013 -3.2454 0
M  V30 4396 H 418.993 -3.7881 -3.53162 0
M  V30 4397 H 415.67 -1.24744 -3.98428 0
M  V30 4398 H 417.06 -5.28575 -4.14799 0
M  V30 4399 N 419.78 1.02168 -1.19998 0
M  V30 4400 C 420.728 2.12717 -0.940967 0
M  V30 4401 C 421.722 1.69069 0.105841 0
M  V30 4402 O 422.928 1.79946 -0.0440583 0
M  V30 4403 H 419.303 0.695108 -0.28693 0
M  V30 4404 H 421.274 2.3175 -1.87975 0
M  V30 4405 C 420.023 3.44027 -0.504049 0
M  V30 4406 H 419.346 3.78036 -1.30112 0
M  V30 4407 H 420.786 4.22452 -0.361991 0
M  V30 4408 C 419.245 3.27678 0.782878 0
M  V30 4409 O 419.775 3.56949 1.84256 0
M  V30 4410 N 417.981 2.80943 0.742921 0
M  V30 4411 H 417.528 2.57322 -0.119687 0
M  V30 4412 H 417.486 2.70385 1.60435 0
M  V30 4413 N 421.258 1.00505 1.21394 0
M  V30 4414 C 422.486 0.706609 1.9446 0
M  V30 4415 C 422.901 -0.73081 1.74082 0
M  V30 4416 O 422.258 -1.49446 1.04747 0
M  V30 4417 C 422.309 1.01824 3.46863 0
M  V30 4418 O 422.03 2.39919 3.66566 0
M  V30 4419 C 423.531 0.739216 4.37093 0
M  V30 4420 H 420.751 0.260394 0.618414 0
M  V30 4421 H 423.295 1.34311 1.54211 0
M  V30 4422 H 421.45 0.427343 3.85036 0
M  V30 4423 H 421.864 2.50784 4.6066 0
M  V30 4424 H 423.338 1.00744 5.42729 0
M  V30 4425 H 423.815 -0.326746 4.37983 0
M  V30 4426 H 424.421 1.31173 4.04566 0
M  V30 4427 N 422.737 -1.36956 0.779787 0
M  V30 4428 C 423.985 -1.99097 0.347079 0
M  V30 4429 C 424.306 -1.62206 -1.08232 0
M  V30 4430 O 423.576 -0.891373 -1.74446 0
M  V30 4431 H 422.156 -0.736409 0.125342 0
M  V30 4432 H 424.818 -1.67308 0.999696 0
M  V30 4433 H 423.914 -3.09107 0.431162 0
M  V30 4434 N 424.215 -0.530993 -1.48385 0
M  V30 4435 C 425.145 0.219985 -2.32461 0
M  V30 4436 C 426.126 0.934111 -1.42156 0
M  V30 4437 O 427.311 0.919694 -1.71042 0
M  V30 4438 C 424.441 1.26674 -3.23375 0
M  V30 4439 C 423.395 0.67069 -4.22712 0
M  V30 4440 C 422.721 1.82017 -5.02766 0
M  V30 4441 C 424.021 -0.358268 -5.2107 0
M  V30 4442 H 425.715 -0.48187 -2.95497 0
M  V30 4443 H 423.261 -0.233182 -1.42099 0
M  V30 4444 H 425.214 1.80006 -3.81019 0
M  V30 4445 H 423.938 1.99818 -2.58341 0
M  V30 4446 H 422.597 0.158878 -3.66256 0
M  V30 4447 H 422.245 2.54002 -4.34157 0
M  V30 4448 H 421.945 1.42727 -5.70003 0
M  V30 4449 H 423.469 2.35725 -5.63264 0
M  V30 4450 H 424.883 0.0880081 -5.73232 0
M  V30 4451 H 423.28 -0.66861 -5.96364 0
M  V30 4452 H 424.35 -1.26367 -4.68145 0
M  V30 4453 N 425.693 1.55336 -0.266172 0
M  V30 4454 C 426.623 2.25146 0.618981 0
M  V30 4455 C 427.604 1.23845 1.16604 0
M  V30 4456 O 428.789 1.52544 1.20183 0
M  V30 4457 C 425.919 2.96572 1.80728 0
M  V30 4458 C 424.873 4.04726 1.39215 0
M  V30 4459 C 424.199 4.63678 2.66283 0
M  V30 4460 C 425.499 5.19407 0.548942 0
M  V30 4461 H 427.193 2.99377 0.0368116 0
M  V30 4462 H 424.739 1.43991 0.0162651 0
M  V30 4463 H 426.692 3.44116 2.43232 0
M  V30 4464 H 425.416 2.19861 2.41514 0
M  V30 4465 H 424.075 3.57979 0.790351 0
M  V30 4466 H 423.723 3.83646 3.25308 0
M  V30 4467 H 423.423 5.367 2.39222 0
M  V30 4468 H 424.947 5.13967 3.29651 0
M  V30 4469 H 426.361 5.63059 1.07876 0
M  V30 4470 H 424.758 5.98936 0.373593 0
M  V30 4471 H 425.828 4.8295 -0.434394 0
M  V30 4472 N 427.171 -0.0066808 1.57599 0
M  V30 4473 C 428.396 -0.707738 1.94951 0
M  V30 4474 C 428.821 -1.66882 0.867868 0
M  V30 4475 O 428.179 -1.80457 -0.17458 0
M  V30 4476 C 428.227 -1.42162 3.31394 0
M  V30 4477 O 427.331 -2.53578 3.25226 0
M  V30 4478 H 426.672 -0.188752 0.636607 0
M  V30 4479 H 429.202 0.0445193 2.04552 0
M  V30 4480 H 429.212 -1.78655 3.66806 0
M  V30 4481 H 427.887 -0.716903 4.09675 0
M  V30 4482 H 426.464 -2.19463 3.01481 0
M  V30 4483 N 428.649 -1.55105 -0.279332 0
M  V30 4484 C 429.612 -1.86783 -1.32834 0
M  V30 4485 C 430.612 -0.74199 -1.42657 0
M  V30 4486 O 431.802 -1.0102 -1.41918 0
M  V30 4487 C 428.934 -2.06746 -2.71052 0
M  V30 4488 H 430.127 -2.8055 -1.05979 0
M  V30 4489 H 427.68 -1.47499 -0.517087 0
M  V30 4490 H 428.415 -1.15339 -3.03097 0
M  V30 4491 H 428.2 -2.88711 -2.65309 0
M  V30 4492 H 429.69 -2.32549 -3.46858 0
M  V30 4493 N 430.127 0.543554 -1.4793 0
M  V30 4494 C 431.057 1.65888 -1.64327 0
M  V30 4495 C 432.038 1.62818 -0.492383 0
M  V30 4496 O 433.223 1.80226 -0.723338 0
M  V30 4497 C 430.353 3.04506 -1.67013 0
M  V30 4498 C 429.307 3.2243 -2.81466 0
M  V30 4499 C 428.633 4.61972 -2.69233 0
M  V30 4500 C 429.933 3.06496 -4.22915 0
M  V30 4501 H 431.627 1.52421 -2.57698 0
M  V30 4502 H 429.173 0.731849 -1.24016 0
M  V30 4503 H 431.126 3.82391 -1.77074 0
M  V30 4504 H 429.85 3.18964 -0.70212 0
M  V30 4505 H 428.509 2.46957 -2.70938 0
M  V30 4506 H 428.157 4.73247 -1.7043 0
M  V30 4507 H 427.857 4.74911 -3.46025 0
M  V30 4508 H 429.381 5.41974 -2.81242 0
M  V30 4509 H 430.795 3.74186 -4.34348 0
M  V30 4510 H 429.192 3.30938 -5.006 0
M  V30 4511 H 430.262 2.03077 -4.40327 0
M  V30 4512 N 431.605 1.3629 0.791371 0
M  V30 4513 C 432.882 1.20962 1.53712 0
M  V30 4514 C 433.262 -0.205021 2.10102 0
M  V30 4515 O 432.61 -1.21042 1.93807 0
M  V30 4516 C 432.82 2.29002 2.63361 0
M  V30 4517 C 434.168 2.65572 3.31295 0
M  V30 4518 O 435.192 2.2803 2.73643 0
M  V30 4519 O 434.051 3.3018 4.35481 0
M  V30 4520 H 431.145 0.47086 0.679867 0
M  V30 4521 H 433.691 1.48016 0.830021 0
M  V30 4522 H 432.463 3.2382 2.19674 0
M  V30 4523 H 432.086 2.03303 3.41692 0
M  V30 4524 N 433.083 -1.0153 1.20538 0
M  V30 4525 C 434.013 -2.11972 0.979295 0
M  V30 4526 C 434.994 -1.6985 -0.0921787 0
M  V30 4527 O 436.179 -1.94089 0.0655932 0
M  V30 4528 C 433.309 -3.43201 0.531984 0
M  V30 4529 C 432.263 -3.9907 1.54685 0
M  V30 4530 C 431.589 -5.26082 0.956127 0
M  V30 4531 C 432.889 -4.32313 2.93092 0
M  V30 4532 H 434.583 -2.31143 1.90298 0
M  V30 4533 H 432.129 -1.11079 0.916372 0
M  V30 4534 H 434.082 -4.1985 0.361044 0
M  V30 4535 H 432.806 -3.23792 -0.427327 0
M  V30 4536 H 431.465 -3.2453 1.70517 0
M  V30 4537 H 431.113 -5.02999 -0.0111538 0
M  V30 4538 H 430.813 -5.64426 1.63393 0
M  V30 4539 H 432.337 -6.05386 0.796284 0
M  V30 4540 H 433.751 -4.99845 2.80763 0
M  V30 4541 H 432.148 -4.81774 3.57791 0
M  V30 4542 H 433.218 -3.41025 3.44717 0
M  V30 4543 N 434.561 -1.01147 -1.20859 0
M  V30 4544 C 435.807 -0.698899 -1.90377 0
M  V30 4545 C 436.14 0.76904 -1.78324 0
M  V30 4546 O 435.415 1.55817 -1.16409 0
M  V30 4547 C 435.698 -1.12878 -3.41951 0
M  V30 4548 C 435.551 -2.65665 -3.62963 0
M  V30 4549 C 436.87 -0.696114 -4.3456 0
M  V30 4550 H 433.989 -0.255372 -0.691342 0
M  V30 4551 H 436.631 -1.25831 -1.42361 0
M  V30 4552 H 434.781 -0.652827 -3.82976 0
M  V30 4553 H 436.453 -3.21074 -3.31224 0
M  V30 4554 H 434.696 -3.06878 -3.06608 0
M  V30 4555 H 435.367 -2.90797 -4.69192 0
M  V30 4556 H 437.843 -1.10521 -4.01154 0
M  V30 4557 H 436.719 -1.025 -5.39245 0
M  V30 4558 H 436.98 0.402465 -4.40264 0
M  V30 4559 N 436.039 1.36541 -0.78704 0
M  V30 4560 C 436.949 2.3387 -0.184896 0
M  V30 4561 C 437.965 1.60927 0.661697 0
M  V30 4562 O 439.141 1.92927 0.57804 0
M  V30 4563 C 436.206 3.40122 0.672145 0
M  V30 4564 C 435.267 4.28867 -0.19267 0
M  V30 4565 C 434.5 5.30045 0.623561 0
M  V30 4566 O 434.723 5.39232 1.8597 0
M  V30 4567 O 433.657 6.01895 0.0247068 0
M  V30 4568 H 437.483 2.87126 -0.989562 0
M  V30 4569 H 435.068 1.38969 -0.548455 0
M  V30 4570 H 436.95 4.05093 1.16094 0
M  V30 4571 H 435.625 2.89169 1.45474 0
M  V30 4572 H 434.532 3.66945 -0.728166 0
M  V30 4573 H 435.865 4.83165 -0.938722 0
M  V30 4574 N 437.518 0.538854 1.48102 0
M  V30 4575 C 438.764 0.00801365 2.02798 0
M  V30 4576 C 439.097 -1.3309 1.41424 0
M  V30 4577 O 438.372 -1.86169 0.563158 0
M  V30 4578 C 438.655 -0.104589 3.59948 0
M  V30 4579 C 438.508 1.26012 4.31788 0
M  V30 4580 C 439.827 -0.827055 4.32259 0
M  V30 4581 H 436.946 0.00438624 0.736987 0
M  V30 4582 H 439.588 0.6976 1.7673 0
M  V30 4583 H 437.738 -0.691893 3.82289 0
M  V30 4584 H 439.41 1.88922 4.2084 0
M  V30 4585 H 437.653 1.83968 3.92859 0
M  V30 4586 H 438.324 1.13424 5.40221 0
M  V30 4587 H 440.8 -0.328578 4.14801 0
M  V30 4588 H 439.676 -0.87476 5.41885 0
M  V30 4589 H 439.937 -1.87927 4.0017 0
M  V30 4590 N 438.996 -1.55193 0.274407 0
M  V30 4591 C 439.944 -2.23924 -0.629362 0
M  V30 4592 C 440.938 -1.23602 -1.1584 0
M  V30 4593 O 442.144 -1.41535 -1.11211 0
M  V30 4594 H 438.519 -0.718637 -0.221507 0
M  V30 4595 H 440.49 -2.98388 -0.0268322 0
M  V30 4596 C 439.239 -2.97329 -1.80252 0
M  V30 4597 H 438.562 -3.74313 -1.40462 0
M  V30 4598 H 440.002 -3.48743 -2.41152 0
M  V30 4599 C 438.461 -2.0276 -2.69054 0
M  V30 4600 O 438.991 -1.57836 -3.69392 0
M  V30 4601 N 437.197 -1.69275 -2.36208 0
M  V30 4602 H 436.744 -2.06004 -1.54661 0
M  V30 4603 H 436.702 -1.06271 -2.95895 0
M  V30 4604 N 440.474 -0.00167713 -1.576 0
M  V30 4605 C 441.885 0.54091 -1.78693 0
M  V30 4606 C 442.236 1.7386 -0.909247 0
M  V30 4607 O 441.361 2.16109 -0.112176 0
M  V30 4608 C 441.956 0.98806 -3.24072 0
M  V30 4609 C 440.515 1.47594 -3.46256 0
M  V30 4610 C 439.662 0.42792 -2.73978 0
M  V30 4611 H 442.613 -0.22784 -1.57056 0
M  V30 4612 H 442.634 1.85398 -3.32277 0
M  V30 4613 H 442.146 0.116164 -3.87926 0
M  V30 4614 H 440.247 2.36868 -2.87618 0
M  V30 4615 H 440.36 1.50225 -4.54939 0
M  V30 4616 H 438.724 0.889934 -2.38647 0
M  V30 4617 H 439.507 -0.435038 -3.40532 0
M  V30 4618 N 441.952 1.55251 0.271103 0
M  V30 4619 C 442.884 1.84675 1.35749 0
M  V30 4620 C 443.897 0.731366 1.45447 0
M  V30 4621 O 445.086 1.00924 1.4723 0
M  V30 4622 C 442.186 1.99638 2.73857 0
M  V30 4623 C 441.359 3.30312 2.86727 0
M  V30 4624 C 440.418 3.35318 4.05522 0
M  V30 4625 O 439.444 4.08682 3.96191 0
M  V30 4626 N 440.646 2.62857 5.17577 0
M  V30 4627 H 443.411 2.78445 1.10853 0
M  V30 4628 H 440.972 1.55191 0.461218 0
M  V30 4629 H 442.964 2.00355 3.51625 0
M  V30 4630 H 441.534 1.12725 2.91568 0
M  V30 4631 H 440.754 3.42118 1.95829 0
M  V30 4632 H 442.042 4.16488 2.92258 0
M  V30 4633 H 441.44 2.02939 5.28046 0
M  V30 4634 H 439.997 2.69295 5.93568 0
M  V30 4635 N 443.43 -0.535701 1.48216 0
M  V30 4636 C 444.36 -1.65014 1.65204 0
M  V30 4637 C 445.341 -1.62554 0.501011 0
M  V30 4638 O 446.526 -1.7984 0.732886 0
M  V30 4639 C 443.656 -3.03616 1.68626 0
M  V30 4640 C 442.61 -3.20932 2.83172 0
M  V30 4641 C 441.936 -4.60537 2.71679 0
M  V30 4642 C 443.236 -3.04249 4.24535 0
M  V30 4643 H 444.93 -1.51053 2.58502 0
M  V30 4644 H 442.476 -0.725262 1.24402 0
M  V30 4645 H 444.429 -3.81446 1.79099 0
M  V30 4646 H 443.153 -3.18587 0.719026 0
M  V30 4647 H 441.812 -2.45517 2.72244 0
M  V30 4648 H 441.46 -4.72336 1.72937 0
M  V30 4649 H 441.16 -4.73069 3.48538 0
M  V30 4650 H 442.684 -5.40475 2.84112 0
M  V30 4651 H 444.098 -3.71877 4.36326 0
M  V30 4652 H 442.495 -3.28278 5.02348 0
M  V30 4653 H 443.565 -2.00739 4.41397 0
M  V30 4654 N 444.908 -1.36708 -0.784132 0
M  V30 4655 C 445.871 -1.31307 -1.87859 0
M  V30 4656 C 446.871 -0.219654 -1.59293 0
M  V30 4657 O 448.061 -0.47476 -1.67606 0
M  V30 4658 C 445.193 -1.03679 -3.24751 0
M  V30 4659 H 446.386 -2.28647 -1.94064 0
M  V30 4660 H 443.939 -1.21558 -0.98252 0
M  V30 4661 H 444.674 -0.0681936 -3.24228 0
M  V30 4662 H 444.459 -1.82811 -3.46876 0
M  V30 4663 H 445.949 -1.02518 -4.04821 0
M  V30 4664 N 446.386 1.0089 -1.21074 0
M  V30 4665 C 447.614 1.78191 -1.05145 0
M  V30 4666 C 448.029 1.84537 0.398952 0
M  V30 4667 O 447.386 1.30393 1.27687 0
M  V30 4668 C 447.437 3.22288 -1.63746 0
M  V30 4669 O 447.158 3.16315 -3.03111 0
M  V30 4670 C 448.659 4.16106 -1.52875 0
M  V30 4671 H 445.879 0.560129 -0.369454 0
M  V30 4672 H 448.423 1.26945 -1.60328 0
M  V30 4673 H 446.578 3.70655 -1.12664 0
M  V30 4674 H 446.992 4.06817 -3.31059 0
M  V30 4675 H 448.466 5.15026 -1.98626 0
M  V30 4676 H 448.943 4.36541 -0.482521 0
M  V30 4677 H 449.549 3.73625 -2.03185 0
M  V30 4678 N 447.864 1.01787 1.20321 0
M  V30 4679 C 449.089 0.727009 1.9424 0
M  V30 4680 C 449.514 -0.706179 1.74341 0
M  V30 4681 O 448.872 -1.48609 1.03852 0
M  V30 4682 C 448.92 1.06958 3.44372 0
M  V30 4683 O 448.024 0.181983 4.11998 0
M  V30 4684 H 447.365 0.269626 0.606793 0
M  V30 4685 H 449.895 1.36158 1.52716 0
M  V30 4686 H 449.905 1.02182 3.94997 0
M  V30 4687 H 448.58 2.11378 3.58179 0
M  V30 4688 H 447.157 0.287378 3.71791 0
M  V30 4689 N 449.342 -1.36122 0.79427 0
M  V30 4690 C 450.252 -2.33769 0.197296 0
M  V30 4691 C 451.268 -1.61276 -0.653153 0
M  V30 4692 O 452.444 -1.9323 -0.5678 0
M  V30 4693 C 449.509 -3.40474 -0.654098 0
M  V30 4694 C 448.57 -4.28759 0.215411 0
M  V30 4695 C 447.803 -5.30368 -0.595443 0
M  V30 4696 O 448.026 -5.40211 -1.83107 0
M  V30 4697 O 446.96 -6.019 0.00721351 0
M  V30 4698 H 450.786 -2.86597 1.00478 0
M  V30 4699 H 448.371 -1.38676 0.555818 0
M  V30 4700 H 450.253 -4.05703 -1.13944 0
M  V30 4701 H 448.928 -2.89937 -1.43938 0
M  V30 4702 H 447.835 -3.66554 0.747615 0
M  V30 4703 H 449.168 -4.82661 0.964332 0
M  V30 4704 N 450.82 -0.546701 -1.47814 0
M  V30 4705 C 451.73 0.21026 -2.33656 0
M  V30 4706 C 452.746 0.922413 -1.47538 0
M  V30 4707 O 453.922 0.893652 -1.80488 0
M  V30 4708 C 450.987 1.23348 -3.24016 0
M  V30 4709 C 450.048 0.529883 -4.26017 0
M  V30 4710 C 449.281 1.50435 -5.12059 0
M  V30 4711 O 449.504 2.73837 -5.00369 0
M  V30 4712 O 448.438 1.03459 -5.92942 0
M  V30 4713 H 452.264 -0.493605 -2.99662 0
M  V30 4714 H 449.849 -0.307427 -1.46203 0
M  V30 4715 H 451.731 1.82438 -3.79861 0
M  V30 4716 H 450.406 1.91945 -2.60651 0
M  V30 4717 H 449.313 -0.101948 -3.73961 0
M  V30 4718 H 450.646 -0.11445 -4.92067 0
M  V30 4719 N 452.299 1.55045 -0.282633 0
M  V30 4720 C 453.209 2.26491 0.61147 0
M  V30 4721 C 454.225 1.29348 1.16384 0
M  V30 4722 O 455.401 1.62298 1.19253 0
M  V30 4723 C 452.466 2.97779 1.77563 0
M  V30 4724 C 451.527 4.10418 1.25919 0
M  V30 4725 C 450.76 4.78297 2.36786 0
M  V30 4726 O 450.983 4.45426 3.56303 0
M  V30 4727 O 449.917 5.66089 2.04517 0
M  V30 4728 H 453.743 3.03683 0.0324615 0
M  V30 4729 H 451.328 1.49317 -0.0497576 0
M  V30 4730 H 453.21 3.42554 2.45427 0
M  V30 4731 H 451.885 2.23498 2.34159 0
M  V30 4732 H 450.792 3.70082 0.546797 0
M  V30 4733 H 452.125 4.86622 0.738887 0
M  V30 4734 N 453.777 0.010035 1.57597 0
M  V30 4735 C 454.74 -0.963029 2.07986 0
M  V30 4736 C 455.74 -1.26619 0.991173 0
M  V30 4737 O 456.93 -1.2097 1.25347 0
M  V30 4738 C 454.062 -2.2851 2.52974 0
M  V30 4739 H 455.255 -0.526971 2.95234 0
M  V30 4740 H 452.808 -0.237639 1.54483 0
M  V30 4741 H 453.543 -2.76784 1.69 0
M  V30 4742 H 453.328 -2.07824 3.32493 0
M  V30 4743 H 454.818 -2.98294 2.9225 0
M  V30 4744 N 455.255 -1.55392 -0.262866 0
M  V30 4745 C 456.202 -1.88966 -1.32516 0
M  V30 4746 C 457.172 -0.742187 -1.48596 0
M  V30 4747 O 458.357 -0.99439 -1.62839 0
M  V30 4748 C 455.497 -2.17592 -2.67858 0
M  V30 4749 C 454.61 -3.45061 -2.59917 0
M  V30 4750 C 453.745 -3.63336 -3.87505 0
M  V30 4751 C 452.784 -4.84462 -3.74116 0
M  V30 4752 N 451.921 -4.99342 -4.93561 0
M  V30 4753 H 456.761 -2.79566 -1.03184 0
M  V30 4754 H 454.298 -1.38404 -0.498285 0
M  V30 4755 H 456.256 -2.3219 -3.46617 0
M  V30 4756 H 454.886 -1.30215 -2.95371 0
M  V30 4757 H 453.938 -3.38881 -1.72812 0
M  V30 4758 H 455.25 -4.3396 -2.45926 0
M  V30 4759 H 454.404 -3.77807 -4.74707 0
M  V30 4760 H 453.143 -2.72641 -4.04374 0
M  V30 4761 H 452.148 -4.69985 -2.85297 0
M  V30 4762 H 453.373 -5.76603 -3.58757 0
M  V30 4763 H 451.319 -4.1158 -5.10821 0
M  V30 4764 H 451.236 -5.82303 -4.82141 0
M  V30 4765 H 452.504 -5.18208 -5.82306 0
M  V30 4766 N 456.733 0.527833 -1.48498 0
M  V30 4767 C 457.961 1.30823 -1.6029 0
M  V30 4768 C 458.376 1.86945 -0.263974 0
M  V30 4769 O 457.733 1.6651 0.747034 0
M  V30 4770 C 457.784 2.45756 -2.65116 0
M  V30 4771 O 457.505 1.91946 -3.93813 0
M  V30 4772 C 459.006 3.37543 -2.87367 0
M  V30 4773 H 456.226 0.397763 -0.540394 0
M  V30 4774 H 458.77 0.636529 -1.94341 0
M  V30 4775 H 456.925 3.08806 -2.33917 0
M  V30 4776 H 457.339 2.67195 -4.51339 0
M  V30 4777 H 458.813 4.14532 -3.6451 0
M  V30 4778 H 459.29 3.92905 -1.9627 0
M  V30 4779 H 459.896 2.80283 -3.19878 0
M  V30 4780 N 458.211 1.37122 0.776871 0
M  V30 4781 C 459.439 1.3523 1.5659 0
M  V30 4782 C 459.854 -0.0635518 1.88693 0
M  V30 4783 O 459.211 -1.02394 1.51069 0
M  V30 4784 C 459.262 2.18583 2.8793 0
M  V30 4785 O 458.983 3.5465 2.57206 0
M  V30 4786 C 460.484 2.24612 3.82183 0
M  V30 4787 H 457.704 0.4634 0.485285 0
M  V30 4788 H 460.248 1.80392 0.963266 0
M  V30 4789 H 458.403 1.76943 3.4463 0
M  V30 4790 H 458.817 3.98286 3.41275 0
M  V30 4791 H 460.291 2.87267 4.71361 0
M  V30 4792 H 460.768 1.25309 4.20944 0
M  V30 4793 H 461.374 2.66543 3.31414 0
M  V30 4794 N 459.689 -1.00246 1.21608 0
M  V30 4795 C 460.652 -2.07233 0.979133 0
M  V30 4796 C 461.652 -1.6072 -0.0508219 0
M  V30 4797 O 462.842 -1.73196 0.186712 0
M  V30 4798 C 459.974 -3.37546 0.477016 0
M  V30 4799 H 461.167 -2.29687 1.92831 0
M  V30 4800 H 458.72 -1.17261 1.03342 0
M  V30 4801 H 459.455 -3.20773 -0.476966 0
M  V30 4802 H 459.24 -3.72638 1.21997 0
M  V30 4803 H 460.73 -4.16285 0.331181 0
M  V30 4804 N 461.167 -1.02423 -1.1978 0
M  V30 4805 C 462.115 -0.594474 -2.24875 0
M  V30 4806 C 463.109 0.370598 -1.65296 0
M  V30 4807 O 464.315 0.239684 -1.78397 0
M  V30 4808 H 460.69 -0.173961 -0.731602 0
M  V30 4809 H 462.661 -1.4916 -2.58445 0
M  V30 4810 C 461.41 0.0436512 -3.47673 0
M  V30 4811 H 460.733 -0.689963 -3.93801 0
M  V30 4812 H 462.173 0.307362 -4.22884 0
M  V30 4813 C 460.632 1.28881 -3.11274 0
M  V30 4814 O 461.162 2.38135 -3.23503 0
M  V30 4815 N 459.368 1.1758 -2.6575 0
M  V30 4816 H 458.915 0.286769 -2.55999 0
M  V30 4817 H 458.873 2.00988 -2.41767 0
M  V30 4818 N 462.645 1.35699 -0.801477 0
M  V30 4819 C 463.575 2.32436 -0.222658 0
M  V30 4820 C 464.556 1.5723 0.649057 0
M  V30 4821 O 465.741 1.85324 0.580387 0
M  V30 4822 C 462.871 3.41469 0.633719 0
M  V30 4823 C 461.825 4.27774 -0.139083 0
M  V30 4824 C 461.151 5.28082 0.838666 0
M  V30 4825 C 462.451 5.04946 -1.33517 0
M  V30 4826 H 464.145 2.81094 -1.03086 0
M  V30 4827 H 461.691 1.35146 -0.497155 0
M  V30 4828 H 463.644 4.08143 1.04868 0
M  V30 4829 H 462.368 2.91408 1.47475 0
M  V30 4830 H 461.027 3.62673 -0.535156 0
M  V30 4831 H 460.675 4.7429 1.67506 0
M  V30 4832 H 460.375 5.86695 0.32594 0
M  V30 4833 H 461.899 5.97628 1.25194 0
M  V30 4834 H 463.313 5.64593 -0.995349 0
M  V30 4835 H 461.71 5.7303 -1.78202 0
M  V30 4836 H 462.78 4.35886 -2.12442 0
M  V30 4837 N 464.123 0.554532 1.47522 0
M  V30 4838 C 465.086 -0.184174 2.28459 0
M  V30 4839 C 466.086 -0.845195 1.36796 0
M  V30 4840 O 467.276 -0.701467 1.59452 0
M  V30 4841 C 464.408 -1.26903 3.16399 0
M  V30 4842 H 465.601 0.526751 2.95238 0
M  V30 4843 H 463.154 0.311375 1.53167 0
M  V30 4844 H 463.889 -2.01244 2.54306 0
M  V30 4845 H 463.674 -0.799883 3.83854 0
M  V30 4846 H 465.164 -1.78794 3.77389 0
M  V30 4847 N 465.601 -1.54893 0.290851 0
M  V30 4848 C 466.847 -2.0023 -0.321867 0
M  V30 4849 C 467.18 -1.179 -1.54316 0
M  V30 4850 O 466.455 -0.25293 -1.92848 0
M  V30 4851 C 466.738 -3.53456 -0.688515 0
M  V30 4852 C 466.591 -4.46532 0.541209 0
M  V30 4853 C 467.91 -4.13057 -1.51895 0
M  V30 4854 H 465.029 -0.727891 -0.115515 0
M  V30 4855 H 467.671 -1.85722 0.400931 0
M  V30 4856 H 465.821 -3.6595 -1.30433 0
M  V30 4857 H 467.493 -4.4596 1.17973 0
M  V30 4858 H 465.736 -4.17545 1.17636 0
M  V30 4859 H 466.407 -5.51475 0.240675 0
M  V30 4860 H 468.883 -4.03937 -0.99872 0
M  V30 4861 H 467.759 -5.20448 -1.74429 0
M  V30 4862 H 468.02 -3.64284 -2.50498 0
M  V30 4863 N 467.08 -0.0183926 -1.57589 0
M  V30 4864 C 468.357 0.700621 -1.82622 0
M  V30 4865 C 468.737 1.90951 -0.90005 0
M  V30 4866 O 468.085 2.28452 0.0469145 0
M  V30 4867 C 468.295 1.08899 -3.31575 0
M  V30 4868 C 469.643 1.48514 -3.9778 0
M  V30 4869 O 470.667 1.18227 -3.36007 0
M  V30 4870 O 469.526 2.04903 -5.06633 0
M  V30 4871 H 466.62 0.342743 -0.752633 0
M  V30 4872 H 469.166 -0.0452548 -1.6964 0
M  V30 4873 H 467.938 0.228113 -3.90635 0
M  V30 4874 H 467.561 1.89338 -3.49624 0
M  V30 4875 N 468.558 1.5553 0.254621 0
M  V30 4876 C 469.804 1.77262 0.985193 0
M  V30 4877 C 470.137 0.582286 1.85265 0
M  V30 4878 O 469.412 -0.419666 1.89919 0
M  V30 4879 C 469.695 3.0881 1.85225 0
M  V30 4880 C 469.548 4.38233 1.0135 0
M  V30 4881 C 470.867 3.3653 2.83612 0
M  V30 4882 H 467.986 0.644906 0.356742 0
M  V30 4883 H 470.628 1.88264 0.256236 0
M  V30 4884 H 468.778 2.99562 2.47376 0
M  V30 4885 H 470.45 4.59463 0.411269 0
M  V30 4886 H 468.693 4.32636 0.317574 0
M  V30 4887 H 469.364 5.26644 1.65379 0
M  V30 4888 H 471.84 3.45691 2.31596 0
M  V30 4889 H 470.716 4.29805 3.41407 0
M  V30 4890 H 470.977 2.57064 3.59681 0
M  V30 4891 N 470.036 -0.519951 1.48776 0
M  V30 4892 C 471.285 -1.27175 1.56555 0
M  V30 4893 C 471.598 -1.9401 0.248869 0
M  V30 4894 O 472.804 -2.70725 0.205004 0
M  V30 4895 C 471.26 -2.30811 2.76142 0
M  V30 4896 C 470.868 -1.7 4.14493 0
M  V30 4897 C 472.612 -3.06937 2.9324 0
M  V30 4898 C 470.519 -2.71635 5.25327 0
M  V30 4899 H 469.449 -0.478329 0.582853 0
M  V30 4900 H 472.1 -0.547916 1.75129 0
M  V30 4901 H 470.482 -3.06274 2.51023 0
M  V30 4902 H 471.656 -1.00658 4.49672 0
M  V30 4903 H 469.971 -1.06331 4.02595 0
M  V30 4904 H 472.568 -3.82905 3.73213 0
M  V30 4905 H 472.911 -3.63409 2.03075 0
M  V30 4906 H 473.444 -2.38589 3.18308 0
M  V30 4907 H 470.183 -2.1997 6.1749 0
M  V30 4908 H 469.703 -3.39275 4.94624 0
M  V30 4909 H 471.382 -3.34429 5.53865 0
M  V30 4910 N 471.514 -1.37532 -0.769588 0
M  V30 4911 C 472.477 -1.33292 -1.86456 0
M  V30 4912 C 473.477 -0.236537 -1.59051 0
M  V30 4913 O 474.667 -0.492511 -1.67093 0
M  V30 4914 C 471.799 -1.07118 -3.23633 0
M  V30 4915 H 472.992 -2.30692 -1.91628 0
M  V30 4916 H 470.545 -1.22593 -0.969572 0
M  V30 4917 H 471.28 -0.102578 -3.24138 0
M  V30 4918 H 471.065 -1.86479 -3.44917 0
M  V30 4919 H 472.555 -1.06806 -4.03711 0
M  V30 4920 N 472.992 0.995999 -1.22138 0
M  V30 4921 C 474.217 1.77601 -1.0711 0
M  V30 4922 C 474.642 1.84339 0.374264 0
M  V30 4923 O 474 1.29359 1.27028 0
M  V30 4924 C 474.048 3.18897 -1.68336 0
M  V30 4925 O 473.152 4.01663 -0.934928 0
M  V30 4926 H 472.493 0.547011 -0.376397 0
M  V30 4927 H 475.023 1.25137 -1.6187 0
M  V30 4928 H 475.033 3.69539 -1.72931 0
M  V30 4929 H 473.708 3.13308 -2.73516 0
M  V30 4930 H 472.285 3.60204 -0.964751 0
M  V30 4931 N 474.47 1.03057 1.19235 0
M  V30 4932 C 475.695 0.74757 1.93458 0
M  V30 4933 C 476.12 -0.687648 1.7508 0
M  V30 4934 O 475.478 -1.47499 1.05422 0
M  V30 4935 C 475.526 1.10604 3.43219 0
M  V30 4936 O 474.63 0.225671 4.11782 0
M  V30 4937 H 473.971 0.276047 0.603899 0
M  V30 4938 H 476.501 1.3777 1.51263 0
M  V30 4939 H 476.511 1.06366 3.93891 0
M  V30 4940 H 475.186 2.15165 3.55917 0
M  V30 4941 H 473.763 0.326795 3.71465 0
M  V30 4942 N 475.948 -1.35272 0.808662 0
M  V30 4943 C 477.195 -1.98709 0.390003 0
M  V30 4944 C 477.523 -1.64148 -1.04335 0
M  V30 4945 O 476.778 -0.897797 -1.73891 0
M  V30 4946 C 477.077 -3.53556 0.522798 0
M  V30 4947 C 476.743 -4.0799 1.91977 0
M  V30 4948 C 475.405 -4.22568 2.30195 0
M  V30 4949 C 477.757 -4.37442 2.83361 0
M  V30 4950 C 475.085 -4.63918 3.59162 0
M  V30 4951 C 477.437 -4.80232 4.11776 0
M  V30 4952 C 476.101 -4.93016 4.49991 0
M  V30 4953 H 475.371 -0.727127 0.142712 0
M  V30 4954 H 478.018 -1.6145 1.02985 0
M  V30 4955 H 476.323 -3.91287 -0.200494 0
M  V30 4956 H 478.02 -4.00598 0.179608 0
M  V30 4957 H 474.61 -3.97096 1.61284 0
M  V30 4958 H 478.794 -4.25731 2.55083 0
M  V30 4959 H 474.05 -4.72005 3.88615 0
M  V30 4960 H 478.224 -5.01982 4.82687 0
M  V30 4961 H 475.851 -5.24814 5.49976 0
M  V30 4962 N 477.426 -0.562348 -1.47226 0
M  V30 4963 C 478.674 -0.0401371 -2.0206 0
M  V30 4964 C 478.995 1.3165 -1.43852 0
M  V30 4965 O 478.265 1.85976 -0.615599 0
M  V30 4966 H 476.845 -0.0118479 -0.746906 0
M  V30 4967 H 479.507 -0.73352 -1.8057 0
M  V30 4968 H 478.603 0.0441254 -3.12069 0
M  V30 4969 N 478.904 1.54736 -0.299062 0
M  V30 4970 C 479.836 2.20891 0.61153 0
M  V30 4971 C 480.849 1.20104 1.09904 0
M  V30 4972 O 482.038 1.46707 1.01683 0
M  V30 4973 C 479.138 2.84018 1.84897 0
M  V30 4974 C 478.311 4.10719 1.50428 0
M  V30 4975 C 477.37 4.57667 2.59667 0
M  V30 4976 O 476.396 5.2291 2.24842 0
M  V30 4977 N 477.598 4.29821 3.90172 0
M  V30 4978 H 480.363 2.99666 0.0452001 0
M  V30 4979 H 477.924 1.61446 -0.121178 0
M  V30 4980 H 479.916 3.1236 2.5732 0
M  V30 4981 H 478.486 2.09095 2.32375 0
M  V30 4982 H 477.706 3.89408 0.612781 0
M  V30 4983 H 478.994 4.93223 1.24934 0
M  V30 4984 H 478.392 3.77549 4.21276 0
M  V30 4985 H 476.949 4.62877 4.58899 0
M  V30 4986 N 480.382 0.0267497 1.57577 0
M  V30 4987 C 481.61 -0.662661 1.96001 0
M  V30 4988 C 482.025 -1.65799 0.903117 0
M  V30 4989 O 481.382 -1.82135 -0.115317 0
M  V30 4990 C 481.433 -1.37112 3.34488 0
M  V30 4991 O 481.154 -0.415683 4.36123 0
M  V30 4992 C 482.655 -2.15257 3.8753 0
M  V30 4993 H 479.875 -0.18287 0.6456 0
M  V30 4994 H 482.419 0.0858116 2.0432 0
M  V30 4995 H 480.574 -2.07101 3.27395 0
M  V30 4996 H 480.988 -0.918496 5.16395 0
M  V30 4997 H 482.462 -2.60285 4.86781 0
M  V30 4998 H 482.939 -2.99063 3.21649 0
M  V30 4999 H 483.545 -1.50231 3.97883 0
M  V30 5000 N 481.861 -1.55662 -0.24637 0
M  V30 5001 C 483.277 -1.48098 -0.594907 0
M  V30 5002 C 483.477 -0.717044 -1.8831 0
M  V30 5003 O 482.533 -0.246618 -2.51293 0
M  V30 5004 C 483.846 -2.92507 -0.697146 0
M  V30 5005 C 485.394 -3.02881 -0.789436 0
M  V30 5006 C 485.869 -4.48598 -0.923232 0
M  V30 5007 N 487.36 -4.52538 -0.988088 0
M  V30 5008 C 488.095 -5.62536 -1.11089 0
M  V30 5009 N 487.591 -6.82342 -1.19919 0
M  V30 5010 N 489.384 -5.50334 -1.14408 0
M  V30 5011 H 481.535 -2.0377 0.599278 0
M  V30 5012 H 483.798 -0.925145 0.20691 0
M  V30 5013 H 483.504 -3.51242 0.179396 0
M  V30 5014 H 483.378 -3.43024 -1.5689 0
M  V30 5015 H 485.765 -2.44226 -1.65643 0
M  V30 5016 H 485.846 -2.55574 0.107482 0
M  V30 5017 H 485.49 -5.07864 -0.0607927 0
M  V30 5018 H 485.42 -4.93587 -1.8352 0
M  V30 5019 H 487.911 -3.66248 -0.931167 0
M  V30 5020 H 488.224 -7.61924 -1.29197 0
M  V30 5021 H 486.569 -6.85102 -1.16876 0
M  V30 5022 H 489.76 -4.5567 -1.07158 0
M  V30 5023 H 489.933 -6.36096 -1.23634 0
M  V30 5024 N 483.339 0.512053 -1.4905 0
M  V30 5025 C 484.249 1.64139 -1.67617 0
M  V30 5026 C 485.265 1.64786 -0.558701 0
M  V30 5027 O 486.441 1.8341 -0.832034 0
M  V30 5028 C 483.506 3.00548 -1.72835 0
M  V30 5029 C 482.567 3.10615 -2.96339 0
M  V30 5030 C 481.8 4.40517 -3.01298 0
M  V30 5031 O 482.023 5.28671 -2.14157 0
M  V30 5032 O 480.957 4.55325 -3.93653 0
M  V30 5033 H 484.783 1.51407 -2.63267 0
M  V30 5034 H 482.368 0.687131 -1.32661 0
M  V30 5035 H 484.25 3.81641 -1.78683 0
M  V30 5036 H 482.925 3.13566 -0.803616 0
M  V30 5037 H 481.832 2.2875 -2.96014 0
M  V30 5038 H 483.165 3.0252 -3.88256 0
M  V30 5039 N 484.817 1.37938 0.762283 0
M  V30 5040 C 486.065 1.33404 1.51815 0
M  V30 5041 C 486.386 -0.0780975 1.94844 0
M  V30 5042 O 485.656 -1.02405 1.67003 0
M  V30 5043 H 484.236 0.490839 0.563104 0
M  V30 5044 H 486.898 1.72527 0.906669 0
M  V30 5045 H 485.994 1.97926 2.41313 0
M  V30 5046 N 486.295 -0.989507 1.22664 0
M  V30 5047 C 487.543 -1.72612 1.05117 0
M  V30 5048 C 487.864 -1.90552 -0.414131 0
M  V30 5049 O 487.134 -1.4676 -1.29762 0
M  V30 5050 H 485.714 -0.639555 0.385977 0
M  V30 5051 H 488.376 -1.19158 1.54232 0
M  V30 5052 H 487.472 -2.71926 1.53175 0
M  V30 5053 N 487.773 -1.03688 -1.18687 0
M  V30 5054 C 488.723 -0.595067 -2.20098 0
M  V30 5055 C 489.707 0.360465 -1.5681 0
M  V30 5056 O 490.899 0.180136 -1.76081 0
M  V30 5057 C 488.028 0.0444495 -3.43271 0
M  V30 5058 C 487.114 -0.934002 -4.13687 0
M  V30 5059 N 487.505 -2.09957 -4.60165 0
M  V30 5060 C 485.803 -0.759177 -4.39491 0
M  V30 5061 C 486.504 -2.71735 -5.1433 0
M  V30 5062 N 485.48 -1.99638 -5.05614 0
M  V30 5063 H 489.282 -1.48336 -2.5372 0
M  V30 5064 H 486.796 -0.904949 -1.3485 0
M  V30 5065 H 488.793 0.37864 -4.15177 0
M  V30 5066 H 487.453 0.928325 -3.11147 0
M  V30 5067 H 488.464 -2.47863 -4.54735 0
M  V30 5068 H 485.141 0.0749292 -4.17433 0
M  V30 5069 H 486.531 -3.70492 -5.60523 0
M  V30 5070 N 489.251 1.34841 -0.815825 0
M  V30 5071 C 490.5 1.97755 -0.396976 0
M  V30 5072 C 490.813 1.65422 1.04379 0
M  V30 5073 O 492.019 2.21771 1.5662 0
M  V30 5074 C 490.475 3.53818 -0.658869 0
M  V30 5075 C 490.083 3.95051 -2.11278 0
M  V30 5076 C 491.827 4.23397 -0.305834 0
M  V30 5077 C 489.734 5.43997 -2.31994 0
M  V30 5078 H 488.664 0.739985 -0.1447 0
M  V30 5079 H 491.315 1.53781 -1.00118 0
M  V30 5080 H 489.697 3.95997 0.0154112 0
M  V30 5081 H 490.871 3.63998 -2.82564 0
M  V30 5082 H 489.186 3.38388 -2.42657 0
M  V30 5083 H 491.783 5.32899 -0.43854 0
M  V30 5084 H 492.126 4.09508 0.748952 0
M  V30 5085 H 492.659 3.8667 -0.934403 0
M  V30 5086 H 489.398 5.62865 -3.35952 0
M  V30 5087 H 488.918 5.76589 -1.65244 0
M  V30 5088 H 490.597 6.10584 -2.14001 0
M  V30 5089 N 490.729 0.570148 1.46925 0
M  V30 5090 C 491.975 0.0510284 2.02736 0
M  V30 5091 C 492.308 -1.3006 1.44215 0
M  V30 5092 O 491.583 -1.84932 0.602521 0
M  V30 5093 C 491.866 -0.028215 3.60089 0
M  V30 5094 C 491.719 1.35142 4.29018 0
M  V30 5095 C 493.038 -0.735181 4.33916 0
M  V30 5096 H 490.157 0.0200178 0.736728 0
M  V30 5097 H 492.799 0.73493 1.75211 0
M  V30 5098 H 490.949 -0.610648 3.83671 0
M  V30 5099 H 492.621 1.97806 4.16738 0
M  V30 5100 H 490.864 1.9226 3.88868 0
M  V30 5101 H 491.535 1.24857 5.37694 0
M  V30 5102 H 494.011 -0.240519 4.15404 0
M  V30 5103 H 492.887 -0.759622 5.43618 0
M  V30 5104 H 493.148 -1.79397 4.04066 0
M  V30 5105 N 492.207 -1.54576 0.307264 0
M  V30 5106 C 493.437 -2.04378 -0.302158 0
M  V30 5107 C 493.845 -1.18381 -1.47589 0
M  V30 5108 O 493.188 -0.20352 -1.82569 0
M  V30 5109 C 493.25 -3.50133 -0.815305 0
M  V30 5110 C 492.914 -4.56401 0.233977 0
M  V30 5111 C 493.911 -5.08884 1.06456 0
M  V30 5112 C 491.596 -5.0088 0.377478 0
M  V30 5113 C 493.59 -6.04394 2.02452 0
M  V30 5114 C 491.277 -5.96208 1.34088 0
M  V30 5115 C 492.275 -6.47849 2.16288 0
M  V30 5116 O 491.963 -7.41308 3.10994 0
M  V30 5117 H 491.695 -0.672502 -0.0686839 0
M  V30 5118 H 494.249 -2.00484 0.446682 0
M  V30 5119 H 492.479 -3.51371 -1.61478 0
M  V30 5120 H 494.168 -3.83098 -1.34129 0
M  V30 5121 H 494.934 -4.75311 0.964596 0
M  V30 5122 H 490.813 -4.60309 -0.252405 0
M  V30 5123 H 494.357 -6.44626 2.66652 0
M  V30 5124 H 490.254 -6.29198 1.44154 0
M  V30 5125 H 491.022 -7.5913 3.06045 0
M  V30 5126 N 493.685 -0.035106 -1.57561 0
M  V30 5127 C 494.962 0.681212 -1.83354 0
M  V30 5128 C 495.342 1.89986 -0.920252 0
M  V30 5129 O 494.69 2.28489 0.0226815 0
M  V30 5130 C 494.9 1.05376 -3.32712 0
M  V30 5131 C 496.248 1.44286 -3.99333 0
M  V30 5132 O 497.272 1.14656 -3.37242 0
M  V30 5133 O 496.131 1.99518 -5.08778 0
M  V30 5134 H 493.225 0.334741 -0.756226 0
M  V30 5135 H 495.771 -0.0632448 -1.69582 0
M  V30 5136 H 494.543 0.186668 -3.90854 0
M  V30 5137 H 494.166 1.85619 -3.51613 0
M  V30 5138 N 495.163 1.55791 0.238111 0
M  V30 5139 C 496.095 1.87513 1.31802 0
M  V30 5140 C 497.108 0.762053 1.43863 0
M  V30 5141 O 498.297 1.04024 1.45056 0
M  V30 5142 C 495.397 2.05402 2.69561 0
M  V30 5143 C 494.57 3.3632 2.79656 0
M  V30 5144 C 493.629 3.43844 3.98319 0
M  V30 5145 O 492.655 4.16994 3.87433 0
M  V30 5146 N 493.857 2.73777 5.11885 0
M  V30 5147 H 496.622 2.80734 1.04922 0
M  V30 5148 H 494.183 1.56135 0.428196 0
M  V30 5149 H 496.175 2.07769 3.47296 0
M  V30 5150 H 494.745 1.18884 2.89111 0
M  V30 5151 H 493.965 3.46195 1.88528 0
M  V30 5152 H 495.253 4.22594 2.83358 0
M  V30 5153 H 494.651 2.14094 5.23622 0
M  V30 5154 H 493.208 2.81825 5.87723 0
M  V30 5155 N 496.642 -0.504142 1.49319 0
M  V30 5156 C 497.572 -1.61473 1.68667 0
M  V30 5157 C 498.553 -1.61455 0.535378 0
M  V30 5158 O 499.738 -1.78245 0.770868 0
M  V30 5159 C 496.868 -2.99971 1.75028 0
M  V30 5160 C 495.822 -3.14854 2.89916 0
M  V30 5161 C 495.148 -4.54671 2.81387 0
M  V30 5162 C 496.448 -2.95176 4.30893 0
M  V30 5163 H 498.142 -1.45535 2.61648 0
M  V30 5164 H 495.688 -0.698711 1.25913 0
M  V30 5165 H 497.641 -3.77562 1.8715 0
M  V30 5166 H 496.365 -3.1699 0.786441 0
M  V30 5167 H 495.024 -2.39687 2.77391 0
M  V30 5168 H 494.672 -4.68562 1.82917 0
M  V30 5169 H 494.372 -4.6557 3.58494 0
M  V30 5170 H 495.896 -5.34327 2.95512 0
M  V30 5171 H 497.31 -3.62538 4.44116 0
M  V30 5172 H 495.707 -3.17549 5.09198 0
M  V30 5173 H 496.777 -1.91332 4.45556 0
M  V30 5174 N 498.12 -1.38341 -0.754957 0
M  V30 5175 C 499.531 -1.30803 -1.3322 0
M  V30 5176 C 499.882 0.0368 -1.96165 0
M  V30 5177 O 499.007 0.938844 -1.94974 0
M  V30 5178 C 499.602 -2.3688 -2.42225 0
M  V30 5179 C 498.161 -2.32925 -2.95674 0
M  V30 5180 C 497.308 -2.19819 -1.69042 0
M  V30 5181 H 500.259 -1.48719 -0.553937 0
M  V30 5182 H 500.28 -2.02517 -3.22129 0
M  V30 5183 H 499.792 -3.34747 -1.96383 0
M  V30 5184 H 497.893 -1.38635 -3.45848 0
M  V30 5185 H 498.006 -3.27008 -3.50146 0
M  V30 5186 H 496.37 -1.66648 -1.92615 0
M  V30 5187 H 497.153 -3.19625 -1.25279 0
M  V30 5188 N 499.598 0.982988 -1.23187 0
M  V30 5189 C 500.826 1.75921 -1.08901 0
M  V30 5190 C 501.241 1.85341 0.359719 0
M  V30 5191 O 500.598 1.33072 1.24892 0
M  V30 5192 C 500.649 3.18742 -1.70545 0
M  V30 5193 O 500.37 3.09814 -3.09753 0
M  V30 5194 C 501.871 4.1277 -1.61667 0
M  V30 5195 H 499.091 0.552166 -0.381252 0
M  V30 5196 H 501.635 1.23516 -1.62985 0
M  V30 5197 H 499.79 3.68182 -1.20501 0
M  V30 5198 H 500.204 3.99703 -3.39614 0
M  V30 5199 H 501.678 5.10697 -2.09506 0
M  V30 5200 H 502.155 4.3542 -0.575009 0
M  V30 5201 H 502.761 3.69232 -2.11064 0
M  V30 5202 N 501.076 1.04316 1.18135 0
M  V30 5203 C 502.487 0.775505 1.69832 0
M  V30 5204 C 502.838 -0.703348 1.8316 0
M  V30 5205 O 501.963 -1.54729 1.51287 0
M  V30 5206 C 502.558 1.40112 3.0847 0
M  V30 5207 C 501.117 1.18172 3.57368 0
M  V30 5208 C 500.264 1.49022 2.33854 0
M  V30 5209 H 503.215 1.20925 1.02775 0
M  V30 5210 H 503.236 0.805672 3.71873 0
M  V30 5211 H 502.748 2.47744 2.98738 0
M  V30 5212 H 500.849 0.124258 3.72393 0
M  V30 5213 H 500.962 1.8805 4.40652 0
M  V30 5214 H 499.326 0.909995 2.37889 0
M  V30 5215 H 500.109 2.57768 2.26738 0
M  V30 5216 N 502.554 -1.34406 0.822964 0
M  V30 5217 C 503.779 -2.0304 0.423034 0
M  V30 5218 C 504.204 -1.61568 -0.963196 0
M  V30 5219 O 503.562 -0.800339 -1.62678 0
M  V30 5220 C 503.61 -3.56636 0.53321 0
M  V30 5221 O 502.714 -4.09971 -0.446939 0
M  V30 5222 H 502.055 -0.64075 0.174171 0
M  V30 5223 H 504.585 -1.71653 1.11339 0
M  V30 5224 H 504.595 -4.05945 0.408991 0
M  V30 5225 H 503.27 -3.86168 1.54425 0
M  V30 5226 H 501.847 -3.71835 -0.281601 0
M  V30 5227 N 504.032 -0.577932 -1.46621 0
M  V30 5228 C 505.257 -0.0652536 -2.07297 0
M  V30 5229 C 505.682 1.22828 -1.4246 0
M  V30 5230 O 505.04 1.74075 -0.506718 0
M  V30 5231 C 505.088 0.0920589 -3.60482 0
M  V30 5232 O 504.192 1.14972 -3.96049 0
M  V30 5233 H 503.533 -0.06065 -0.661224 0
M  V30 5234 H 506.063 -0.799515 -1.88332 0
M  V30 5235 H 506.073 0.299741 -4.06897 0
M  V30 5236 H 504.748 -0.852612 -4.07067 0
M  V30 5237 H 503.325 0.920879 -3.61351 0
M  V30 5238 N 505.51 1.54411 -0.315457 0
M  V30 5239 C 506.921 1.85885 0.174265 0
M  V30 5240 C 507.272 1.23723 1.52273 0
M  V30 5241 O 506.397 0.540246 2.09548 0
M  V30 5242 C 506.992 3.37257 0.322981 0
M  V30 5243 C 505.551 3.68711 0.756922 0
M  V30 5244 C 504.698 2.77013 -0.126195 0
M  V30 5245 H 507.649 1.49374 -0.536007 0
M  V30 5246 H 507.67 3.62539 1.15522 0
M  V30 5247 H 507.182 3.82471 -0.658602 0
M  V30 5248 H 505.283 3.29024 1.74854 0
M  V30 5249 H 505.396 4.75741 0.566291 0
M  V30 5250 H 503.76 2.51588 0.39692 0
M  V30 5251 H 504.543 3.25051 -1.1044 0
M  V30 5252 N 506.988 0.0434614 1.5754 0
M  V30 5253 C 508.265 -0.671479 1.83713 0
M  V30 5254 C 508.645 -1.89495 0.930315 0
M  V30 5255 O 507.993 -2.28498 -0.0105639 0
M  V30 5256 C 508.203 -1.0361 3.33266 0
M  V30 5257 C 509.551 -1.42167 4.00092 0
M  V30 5258 O 510.575 -1.12866 3.37846 0
M  V30 5259 O 509.434 -1.96817 5.09829 0
M  V30 5260 H 506.528 -0.330726 0.75799 0
M  V30 5261 H 509.074 0.0722373 1.69546 0
M  V30 5262 H 507.846 -0.165938 3.90948 0
M  V30 5263 H 507.469 -1.83751 3.52592 0
M  V30 5264 N 508.466 -1.55915 -0.229846 0
M  V30 5265 C 509.376 -1.94891 -1.30593 0
M  V30 5266 C 510.392 -0.851604 -1.51736 0
M  V30 5267 O 511.568 -1.15447 -1.65027 0
M  V30 5268 C 508.633 -2.25052 -2.63728 0
M  V30 5269 C 507.694 -3.48306 -2.5096 0
M  V30 5270 C 506.927 -3.77019 -3.77747 0
M  V30 5271 O 507.15 -3.07534 -4.80395 0
M  V30 5272 O 506.084 -4.70523 -3.75356 0
M  V30 5273 H 509.91 -2.86581 -1.00525 0
M  V30 5274 H 507.495 -1.43017 -0.432025 0
M  V30 5275 H 509.377 -2.45682 -3.42372 0
M  V30 5276 H 508.052 -1.36538 -2.93495 0
M  V30 5277 H 506.959 -3.32964 -1.70546 0
M  V30 5278 H 508.292 -4.37177 -2.26136 0
M  V30 5279 N 509.944 0.496216 -1.49584 0
M  V30 5280 C 511.169 1.27865 -1.63295 0
M  V30 5281 C 511.594 1.85592 -0.306156 0
M  V30 5282 O 510.952 1.66092 0.726851 0
M  V30 5283 C 511 2.38128 -2.7079 0
M  V30 5284 O 510.104 3.42108 -2.30296 0
M  V30 5285 H 509.445 0.377279 -0.546403 0
M  V30 5286 H 511.975 0.593497 -1.95803 0
M  V30 5287 H 511.985 2.8382 -2.93104 0
M  V30 5288 H 510.66 1.95479 -3.67098 0
M  V30 5289 H 509.237 3.02301 -2.18331 0
M  V30 5290 N 511.423 1.38739 0.74761 0
M  V30 5291 C 512.333 1.38696 1.89211 0
M  V30 5292 C 513.349 0.283303 1.71678 0
M  V30 5293 O 514.525 0.522713 1.94498 0
M  V30 5294 C 511.59 1.21662 3.24653 0
M  V30 5295 C 510.651 2.41886 3.54669 0
M  V30 5296 C 509.884 2.25655 4.83648 0
M  V30 5297 O 510.107 1.25339 5.56459 0
M  V30 5298 O 509.041 3.14372 5.13277 0
M  V30 5299 H 512.867 2.35143 1.92202 0
M  V30 5300 H 510.452 1.19721 0.893708 0
M  V30 5301 H 512.334 1.14246 4.05618 0
M  V30 5302 H 511.009 0.283024 3.2246 0
M  V30 5303 H 509.916 2.54877 2.73841 0
M  V30 5304 H 511.249 3.33895 3.61628 0
M  V30 5305 N 512.901 -0.976442 1.23707 0
M  V30 5306 C 513.849 -2.09078 1.01927 0
M  V30 5307 C 514.843 -1.69345 -0.0430193 0
M  V30 5308 O 516.049 -1.79659 0.110814 0
M  V30 5309 H 512.424 -0.68398 0.312531 0
M  V30 5310 H 514.395 -2.24614 1.96447 0
M  V30 5311 C 513.144 -3.41919 0.631385 0
M  V30 5312 H 512.467 -3.72946 1.44053 0
M  V30 5313 H 513.907 -4.20817 0.518532 0
M  V30 5314 C 512.366 -3.30357 -0.660723 0
M  V30 5315 O 512.896 -3.63542 -1.70881 0
M  V30 5316 N 511.102 -2.83507 -0.638139 0
M  V30 5317 H 510.649 -2.567 0.215108 0
M  V30 5318 H 510.607 -2.76153 -1.50289 0
M  V30 5319 N 514.379 -1.04941 -1.1758 0
M  V30 5320 C 515.311 -0.606174 -2.21039 0
M  V30 5321 C 516.324 0.328763 -1.59446 0
M  V30 5322 O 517.513 0.121895 -1.78083 0
M  V30 5323 C 514.613 0.133294 -3.38638 0
M  V30 5324 C 513.786 -0.811711 -4.29802 0
M  V30 5325 C 512.845 -0.113958 -5.26077 0
M  V30 5326 O 511.871 -0.747237 -5.64274 0
M  V30 5327 N 513.073 1.14953 -5.69004 0
M  V30 5328 H 515.838 -1.49606 -2.59689 0
M  V30 5329 H 513.399 -0.930997 -1.32454 0
M  V30 5330 H 515.391 0.610144 -4.00074 0
M  V30 5331 H 513.961 0.924816 -2.98607 0
M  V30 5332 H 513.181 -1.46824 -3.65837 0
M  V30 5333 H 514.469 -1.45326 -4.87604 0
M  V30 5334 H 513.867 1.68441 -5.40041 0
M  V30 5335 H 512.424 1.57049 -6.32597 0
M  V30 5336 N 515.857 1.33968 -0.830081 0
M  V30 5337 C 516.82 2.27694 -0.26235 0
M  V30 5338 C 517.82 1.50589 0.563876 0
M  V30 5339 O 519.01 1.70028 0.378941 0
M  V30 5340 C 516.142 3.35002 0.63138 0
M  V30 5341 H 517.335 2.79419 -1.08928 0
M  V30 5342 H 514.888 1.44221 -0.602486 0
M  V30 5343 H 515.623 2.88504 1.48109 0
M  V30 5344 H 515.408 3.92079 0.0403276 0
M  V30 5345 H 516.898 4.04897 1.02217 0
M  V30 5346 N 517.335 0.585699 1.46312 0
M  V30 5347 C 518.751 0.247607 1.57668 0
M  V30 5348 C 518.951 -1.25007 1.58037 0
M  V30 5349 O 518.007 -2.03196 1.49893 0
M  V30 5350 C 519.32 0.899456 2.86933 0
M  V30 5351 C 520.868 0.873326 3.00569 0
M  V30 5352 C 521.343 1.50477 4.32574 0
M  V30 5353 N 522.834 1.46925 4.3928 0
M  V30 5354 C 523.569 1.92719 5.40044 0
M  V30 5355 N 523.065 2.46499 6.47464 0
M  V30 5356 N 524.858 1.83617 5.31264 0
M  V30 5357 H 517.009 1.55841 1.44317 0
M  V30 5358 H 519.272 0.651564 0.688599 0
M  V30 5359 H 518.978 1.95313 2.92482 0
M  V30 5360 H 518.852 0.409476 3.74971 0
M  V30 5361 H 521.239 -0.171736 2.946 0
M  V30 5362 H 521.32 1.40136 2.13999 0
M  V30 5363 H 520.964 2.54905 4.39302 0
M  V30 5364 H 520.894 0.951944 5.17924 0
M  V30 5365 H 523.385 1.07616 3.62253 0
M  V30 5366 H 523.698 2.79291 7.20567 0
M  V30 5367 H 522.043 2.50526 6.48276 0
M  V30 5368 H 525.234 1.41358 4.46246 0
M  V30 5369 H 525.407 2.19622 6.09648 0
M  V30 5370 N 518.813 -1.54241 0.323641 0
M  V30 5371 C 520.059 -2.00867 -0.279323 0
M  V30 5372 C 520.392 -1.21146 -1.5178 0
M  V30 5373 O 519.667 -0.29378 -1.92269 0
M  V30 5374 C 519.95 -3.54837 -0.613387 0
M  V30 5375 C 519.803 -4.45284 0.635803 0
M  V30 5376 C 521.122 -4.16186 -1.43099 0
M  V30 5377 H 518.241 -0.730177 -0.100049 0
M  V30 5378 H 520.883 -1.84829 0.440235 0
M  V30 5379 H 519.033 -3.68634 -1.22641 0
M  V30 5380 H 520.705 -4.43357 1.27406 0
M  V30 5381 H 518.948 -4.14956 1.26466 0
M  V30 5382 H 519.619 -5.5084 0.357597 0
M  V30 5383 H 522.095 -4.05964 -0.912814 0
M  V30 5384 H 520.971 -5.24031 -1.6335 0
M  V30 5385 H 521.232 -3.69516 -2.42715 0
M  V30 5386 N 520.291 -0.0518155 -1.57515 0
M  V30 5387 C 521.707 0.304735 -1.56664 0
M  V30 5388 C 521.907 1.71395 -1.05953 0
M  V30 5389 O 520.963 2.42123 -0.716414 0
M  V30 5390 C 522.276 0.132614 -3.00407 0
M  V30 5391 C 523.824 0.20367 -3.12337 0
M  V30 5392 C 524.299 0.0600706 -4.57961 0
M  V30 5393 N 525.79 0.116326 -4.63054 0
M  V30 5394 C 526.525 0.0293363 -5.73392 0
M  V30 5395 N 526.021 -0.110038 -6.92713 0
M  V30 5396 N 527.814 0.0849651 -5.62036 0
M  V30 5397 H 519.965 -0.973056 -1.888 0
M  V30 5398 H 522.228 -0.377781 -0.869474 0
M  V30 5399 H 521.934 -0.839019 -3.41546 0
M  V30 5400 H 521.808 0.893376 -3.66468 0
M  V30 5401 H 524.195 1.16578 -2.71097 0
M  V30 5402 H 524.276 -0.587857 -2.48954 0
M  V30 5403 H 523.92 -0.898715 -4.99886 0
M  V30 5404 H 523.85 0.87075 -5.19351 0
M  V30 5405 H 526.341 0.22327 -3.7724 0
M  V30 5406 H 526.654 -0.169104 -7.72615 0
M  V30 5407 H 524.999 -0.145132 -6.94848 0
M  V30 5408 H 528.19 0.192411 -4.67704 0
M  V30 5409 H 528.363 0.0137131 -6.47999 0
M  V30 5410 N 521.769 1.56035 0.221574 0
M  V30 5411 C 523.018 1.78245 0.944016 0
M  V30 5412 C 523.331 0.620371 1.85501 0
M  V30 5413 O 524.537 0.726103 2.6161 0
M  V30 5414 C 522.993 3.15659 1.7288 0
M  V30 5415 C 522.601 4.39591 0.863942 0
M  V30 5416 C 524.345 3.47195 2.44246 0
M  V30 5417 C 522.252 5.6803 1.64607 0
M  V30 5418 H 521.182 0.664547 0.356222 0
M  V30 5419 H 523.833 1.8243 0.197904 0
M  V30 5420 H 522.215 3.0565 2.51781 0
M  V30 5421 H 523.389 4.60655 0.115464 0
M  V30 5422 H 521.704 4.15572 0.262407 0
M  V30 5423 H 524.301 4.40381 3.03263 0
M  V30 5424 H 524.644 2.69693 3.1713 0
M  V30 5425 H 525.177 3.58533 1.72334 0
M  V30 5426 H 521.916 6.48425 0.960507 0
M  V30 5427 H 521.436 5.51027 2.36917 0
M  V30 5428 H 523.115 6.08203 2.20675 0
M  V30 5429 O 523.286 -0.367026 1.57274 0
M  V30 5430 H 523.977 -1.01783 1.64803 0
M  V30 END ATOM
M  V30 BEGIN BOND
M  V30 END BOND
M  V30 END CTAB
M  END
$$$$
