drugbank_target|P80040 Malate dehydrogenase (DB01677)
 OpenBabel12092119513D

  0  0  0     0  0            999 V3000
M  V30 BEGIN CTAB
M  V30 COUNTS 4655 4691 0 0 0
M  V30 BEGIN ATOM
M  V30 1 H -0.908 1.98254 -0.117106 0
M  V30 2 N 0 1.576 0 0
M  V30 3 C 0.933 2.03868 1.02534 0
M  V30 4 C 1.911 0.928543 1.3348 0
M  V30 5 O 3.095 1.19667 1.45644 0
M  V30 6 C 0.222 2.43627 2.35294 0
M  V30 7 C -0.732 3.65373 2.2001 0
M  V30 8 S 0.101 5.13292 1.52614 0
M  V30 9 C 1.257 5.56322 2.86805 0
M  V30 10 H 1.49 2.90518 0.631377 0
M  V30 11 H -0.977 1.52953 0.210867 0
M  V30 12 H 0.981 2.67203 3.11629 0
M  V30 13 H -0.358 1.57376 2.7183 0
M  V30 14 H -1.165 3.90944 3.18086 0
M  V30 15 H -1.563 3.418 1.51819 0
M  V30 16 H 0.729 5.58782 3.83104 0
M  V30 17 H 1.672 6.56266 2.65933 0
M  V30 18 H 2.08 4.83886 2.90714 0
M  V30 19 N 1.4781 -0.272755 1.55222 0
M  V30 20 C 2.8941 -0.619959 1.47067 0
M  V30 21 C 3.0941 -1.895 0.684978 0
M  V30 22 O 2.1501 -2.51675 0.203931 0
M  V30 23 C 3.4631 -0.746693 2.91282 0
M  V30 24 C 5.0111 -0.840731 3.01497 0
M  V30 25 C 5.4861 -0.99924 4.46967 0
M  V30 26 N 6.9771 -1.06476 4.50796 0
M  V30 27 C 7.7121 -1.20621 5.6057 0
M  V30 28 N 7.2081 -1.31483 6.80209 0
M  V30 29 N 9.0011 -1.23733 5.48312 0
M  V30 30 H 1.1521 0.564606 2.04758 0
M  V30 31 H 3.4151 0.191177 0.928523 0
M  V30 32 H 3.1211 0.119753 3.51496 0
M  V30 33 H 2.9951 -1.6269 3.40311 0
M  V30 34 H 5.3821 -1.69764 2.41379 0
M  V30 35 H 5.4631 0.0640874 2.5572 0
M  V30 36 H 5.1071 -0.146984 5.07687 0
M  V30 37 H 5.0371 -1.91871 4.90401 0
M  V30 38 H 7.5281 -0.993196 3.64615 0
M  V30 39 H 7.8411 -1.42111 7.59621 0
M  V30 40 H 6.1861 -1.28487 6.8302 0
M  V30 41 H 9.3771 -1.14877 4.53785 0
M  V30 42 H 9.5501 -1.34412 6.33906 0
M  V30 43 N 2.9562 -1.48159 -0.537278 0
M  V30 44 C 3.9032 -1.62138 -1.64256 0
M  V30 45 C 4.8732 -0.463668 -1.59497 0
M  V30 46 O 6.0582 -0.686241 -1.78032 0
M  V30 47 C 3.1982 -1.66028 -3.02537 0
M  V30 48 C 2.3112 -2.92855 -3.17585 0
M  V30 49 C 1.4462 -2.87952 -4.46382 0
M  V30 50 C 0.4852 -4.09516 -4.54932 0
M  V30 51 N -0.3778 -4.02733 -5.75109 0
M  V30 52 H 4.4622 -2.56529 -1.51647 0
M  V30 53 H 1.9992 -1.27224 -0.738414 0
M  V30 54 H 3.9572 -1.66265 -3.82638 0
M  V30 55 H 2.5872 -0.751331 -3.13934 0
M  V30 56 H 1.6392 -3.02395 -2.30784 0
M  V30 57 H 2.9512 -3.82822 -3.19764 0
M  V30 58 H 2.1052 -2.8655 -5.34765 0
M  V30 59 H 0.8442 -1.95702 -4.46712 0
M  V30 60 H -0.1508 -4.11201 -3.64957 0
M  V30 61 H 1.0742 -5.02917 -4.56346 0
M  V30 62 H -0.9798 -3.13299 -5.76351 0
M  V30 63 H -1.0628 -4.86397 -5.78752 0
M  V30 64 H 0.2052 -4.05379 -6.65799 0
M  V30 65 N 4.4343 0.785586 -1.36625 0
M  V30 66 C 5.3813 1.89838 -1.31264 0
M  V30 67 C 6.3513 1.65115 -0.180633 0
M  V30 68 O 7.5363 1.87222 -0.36777 0
M  V30 69 C 4.6763 3.26706 -1.11163 0
M  V30 70 C 3.7893 3.63476 -2.33472 0
M  V30 71 C 2.9243 4.89481 -2.06353 0
M  V30 72 C 1.9633 5.18941 -3.24602 0
M  V30 73 N 1.1003 6.36131 -2.97123 0
M  V30 74 H 5.9403 1.93756 -2.26413 0
M  V30 75 H 3.4773 0.947454 -1.12524 0
M  V30 76 H 5.4353 4.05639 -0.975337 0
M  V30 77 H 4.0653 3.222 -0.196674 0
M  V30 78 H 3.1173 2.79636 -2.57891 0
M  V30 79 H 4.4293 3.81193 -3.21704 0
M  V30 80 H 3.5833 5.76288 -1.89675 0
M  V30 81 H 2.3223 4.73841 -1.15437 0
M  V30 82 H 1.3273 4.30615 -3.41834 0
M  V30 83 H 2.5523 5.36498 -4.16349 0
M  V30 84 H 0.4983 6.21875 -2.08823 0
M  V30 85 H 0.4153 6.54198 -3.78894 0
M  V30 86 H 1.6833 7.2591 -2.84033 0
M  V30 87 N 5.9124 1.20967 1.01018 0
M  V30 88 C 7.1614 1.01796 1.74128 0
M  V30 89 C 7.4744 -0.449691 1.90361 0
M  V30 90 O 8.6804 -0.76068 2.60626 0
M  V30 91 C 7.1364 1.7727 3.13215 0
M  V30 92 C 6.7444 3.28171 3.04972 0
M  V30 93 C 8.4884 1.66489 3.90489 0
M  V30 94 C 6.3954 3.96156 4.39107 0
M  V30 95 H 5.3254 0.377276 0.652824 0
M  V30 96 H 7.9764 1.44651 1.12909 0
M  V30 97 H 6.3584 1.27205 3.75013 0
M  V30 98 H 7.5324 3.85499 2.52443 0
M  V30 99 H 5.8474 3.39437 2.41188 0
M  V30 100 H 8.4444 2.14617 4.89738 0
M  V30 101 H 8.7874 0.6222 4.11624 0
M  V30 102 H 9.3204 2.14003 3.35332 0
M  V30 103 H 6.0594 5.00604 4.23174 0
M  V30 104 H 5.5794 3.43617 4.91617 0
M  V30 105 H 7.2584 4.00774 5.07926 0
M  V30 106 N 7.3905 -1.2043 1.01659 0
M  V30 107 C 8.6155 -1.94318 0.724942 0
M  V30 108 C 9.0405 -1.74266 -0.708034 0
M  V30 109 O 8.3985 -1.03694 -1.48719 0
M  V30 110 C 8.4465 -3.44486 1.06591 0
M  V30 111 O 7.5505 -4.12017 0.177599 0
M  V30 112 H 6.8915 -0.60708 0.26898 0
M  V30 113 H 9.4215 -1.52861 1.35995 0
M  V30 114 H 9.4315 -3.95106 1.01762 0
M  V30 115 H 8.1065 -3.58404 2.10997 0
M  V30 116 H 6.6835 -3.71821 0.283421 0
M  V30 117 N 8.8686 -0.792821 -1.36206 0
M  V30 118 C 10.1176 -0.363353 -1.984 0
M  V30 119 C 10.4306 1.07172 -1.63626 0
M  V30 120 O 11.6366 1.60362 -2.19081 0
M  V30 121 C 10.0926 -0.59872 -3.54885 0
M  V30 122 C 9.7006 -2.04543 -3.9858 0
M  V30 123 C 11.4446 -0.233926 -4.23855 0
M  V30 124 C 9.3516 -2.22727 -5.47856 0
M  V30 125 H 8.2816 -0.13212 -0.742334 0
M  V30 126 H 10.9326 -0.974935 -1.55458 0
M  V30 127 H 9.3146 0.0826222 -3.95914 0
M  V30 128 H 10.4886 -2.76345 -3.68741 0
M  V30 129 H 8.8036 -2.36879 -3.42458 0
M  V30 130 H 11.4006 -0.348027 -5.33566 0
M  V30 131 H 11.7436 0.818351 -4.08177 0
M  V30 132 H 12.2766 -0.868639 -3.882 0
M  V30 133 H 9.0156 -3.2635 -5.68486 0
M  V30 134 H 8.5356 -1.55434 -5.7931 0
M  V30 135 H 10.2146 -2.03607 -6.14128 0
M  V30 136 N 10.3467 1.47872 -0.545128 0
M  V30 137 C 11.5957 2.01695 -0.0145033 0
M  V30 138 C 11.9087 1.42609 1.33873 0
M  V30 139 O 13.1147 1.88021 1.95858 0
M  V30 140 C 11.5707 3.59892 0.0245068 0
M  V30 141 C 11.1787 4.27966 -1.32475 0
M  V30 142 C 12.9227 4.21507 0.50316 0
M  V30 143 C 10.8297 5.78136 -1.2455 0
M  V30 144 H 9.7597 0.753998 -0.00165172 0
M  V30 145 H 12.4107 1.69985 -0.691175 0
M  V30 146 H 10.7927 3.88509 0.766575 0
M  V30 147 H 11.9667 4.11003 -2.08357 0
M  V30 148 H 10.2817 3.78286 -1.74036 0
M  V30 149 H 12.8787 5.31538 0.580656 0
M  V30 150 H 13.2217 3.87855 1.51243 0
M  V30 151 H 13.7547 3.97376 -0.183681 0
M  V30 152 H 10.4937 6.16388 -2.23039 0
M  V30 153 H 10.0137 5.97469 -0.528282 0
M  V30 154 H 11.6927 6.40099 -0.942488 0
M  V30 155 N 11.8248 0.280983 1.55075 0
M  V30 156 C 13.0728 -0.333455 1.9933 0
M  V30 157 C 13.3938 -1.55937 1.17085 0
M  V30 158 O 12.6638 -1.94143 0.261805 0
M  V30 159 H 11.2438 -0.126197 0.736263 0
M  V30 160 H 13.9058 0.387678 1.91005 0
M  V30 161 H 13.0018 -0.619292 3.05894 0
M  V30 162 N 13.3029 -1.57598 0.00835791 0
M  V30 163 C 14.2659 -2.07884 -0.965242 0
M  V30 164 C 15.2659 -0.989825 -1.26725 0
M  V30 165 O 16.4559 -1.25218 -1.21104 0
M  V30 166 C 13.5879 -2.52731 -2.28779 0
M  V30 167 H 14.7809 -2.95178 -0.530112 0
M  V30 168 H 12.3339 -1.54458 -0.239283 0
M  V30 169 H 13.0689 -1.68705 -2.76964 0
M  V30 170 H 12.8539 -3.32272 -2.08177 0
M  V30 171 H 14.3439 -2.91933 -2.98605 0
M  V30 172 N 14.781 0.264519 -1.55364 0
M  V30 173 C 16.029 0.993021 -1.76021 0
M  V30 174 C 16.35 1.86511 -0.569099 0
M  V30 175 O 15.62 1.91438 0.415735 0
M  V30 176 H 14.2 0.369639 -0.649135 0
M  V30 177 H 16.862 0.286707 -1.9278 0
M  V30 178 H 15.958 1.62502 -2.66457 0
M  V30 179 N 16.2591 1.48442 0.529413 0
M  V30 180 C 17.5061 1.56488 1.28521 0
M  V30 181 C 17.8341 0.239042 1.93025 0
M  V30 182 O 17.0891 -0.770713 1.79885 0
M  V30 183 C 17.3881 2.6523 2.39558 0
M  V30 184 C 17.0541 4.07648 1.92702 0
M  V30 185 C 15.7161 4.46411 1.79641 0
M  V30 186 C 18.0681 4.96896 1.573 0
M  V30 187 C 15.3961 5.72226 1.29514 0
M  V30 188 C 17.7481 6.23202 1.08636 0
M  V30 189 C 16.4121 6.60821 0.941919 0
M  V30 190 H 15.6821 0.572631 0.470292 0
M  V30 191 H 18.3291 1.82161 0.59072 0
M  V30 192 H 16.6341 2.33419 3.14679 0
M  V30 193 H 18.3311 2.68671 2.97686 0
M  V30 194 H 14.9211 3.77036 2.03819 0
M  V30 195 H 19.1051 4.67626 1.66251 0
M  V30 196 H 14.3611 6.00097 1.17019 0
M  V30 197 H 18.5351 6.91753 0.803136 0
M  V30 198 H 16.1621 7.58198 0.5513 0
M  V30 199 N 17.7372 -0.778329 1.37039 0
M  V30 200 C 18.9832 -1.53892 1.32079 0
M  V30 201 C 19.3162 -1.9396 -0.0965386 0
M  V30 202 O 18.5912 -1.63568 -1.05242 0
M  V30 203 C 18.8742 -2.80847 2.25382 0
M  V30 204 C 18.7272 -2.47076 3.75864 0
M  V30 205 C 20.0462 -3.82741 2.1725 0
M  V30 206 H 17.1652 -0.558303 0.48111 0
M  V30 207 H 19.8072 -0.893397 1.67685 0
M  V30 208 H 17.9572 -3.35931 1.95148 0
M  V30 209 H 19.6292 -1.97957 4.16666 0
M  V30 210 H 17.8722 -1.79863 3.94755 0
M  V30 211 H 18.5432 -3.37798 4.36574 0
M  V30 212 H 21.0192 -3.37133 2.43887 0
M  V30 213 H 19.8952 -4.69303 2.84686 0
M  V30 214 H 20.1562 -4.2652 1.16331 0
M  V30 215 N 19.2153 -1.21501 -1.00376 0
M  V30 216 C 20.4633 -1.03095 -1.73827 0
M  V30 217 C 20.7843 0.436341 -1.90055 0
M  V30 218 O 20.0543 1.31466 -1.45236 0
M  V30 219 H 18.6343 -0.378487 -0.644016 0
M  V30 220 H 21.2963 -1.52831 -1.20949 0
M  V30 221 H 20.3923 -1.49991 -2.73695 0
M  V30 222 N 20.6934 1.19889 -1.02296 0
M  V30 223 C 21.9184 1.9393 -0.735237 0
M  V30 224 C 22.3434 1.74639 0.698782 0
M  V30 225 O 21.7014 1.04481 1.48167 0
M  V30 226 C 21.7494 3.43916 -1.08417 0
M  V30 227 O 20.8534 4.11917 -0.199446 0
M  V30 228 H 20.1944 0.605645 -0.272196 0
M  V30 229 H 22.7244 1.52137 -1.36804 0
M  V30 230 H 22.7344 3.9456 -1.03856 0
M  V30 231 H 21.4094 3.5728 -2.12894 0
M  V30 232 H 19.9864 3.71666 -0.303136 0
M  V30 233 N 22.1715 0.800033 1.35784 0
M  V30 234 C 23.3995 0.389606 2.03199 0
M  V30 235 C 23.8145 -0.997375 1.60306 0
M  V30 236 O 23.1715 -1.64154 0.797481 0
M  V30 237 C 23.2225 0.455855 3.58614 0
M  V30 238 O 22.9435 1.78815 3.99946 0
M  V30 239 C 24.4445 0.0374032 4.43284 0
M  V30 240 H 21.6645 0.159132 0.651857 0
M  V30 241 H 24.2085 1.08183 1.73541 0
M  V30 242 H 22.3635 -0.188057 3.86943 0
M  V30 243 H 22.7775 1.74636 4.94573 0
M  V30 244 H 24.2515 0.134882 5.51835 0
M  V30 245 H 24.7285 -1.01651 4.27275 0
M  V30 246 H 25.3345 0.654215 4.20238 0
M  V30 247 N 23.6496 -1.47581 0.552962 0
M  V30 248 C 24.8776 -2.06875 0.0320556 0
M  V30 249 C 25.2926 -1.40625 -1.25976 0
M  V30 250 O 24.6496 -0.501349 -1.75479 0
M  V30 251 C 24.7006 -3.61092 -0.17167 0
M  V30 252 O 24.4216 -4.24858 1.06899 0
M  V30 253 C 25.9226 -4.37242 -0.730344 0
M  V30 254 H 23.1426 -0.669561 0.043915 0
M  V30 255 H 25.6866 -1.89646 0.765163 0
M  V30 256 H 23.8416 -3.7785 -0.854894 0
M  V30 257 H 24.2556 -5.17334 0.864059 0
M  V30 258 H 25.7296 -5.45842 -0.822203 0
M  V30 259 H 26.2066 -4.03235 -1.74064 0
M  V30 260 H 26.8126 -4.25219 -0.0829543 0
M  V30 261 N 25.1277 -0.289203 -1.54924 0
M  V30 262 C 26.0907 0.579144 -2.21762 0
M  V30 263 C 27.0907 1.07047 -1.1999 0
M  V30 264 O 28.2807 0.968384 -1.44803 0
M  V30 265 C 25.4127 1.80055 -2.8947 0
M  V30 266 H 26.6057 -0.00464908 -2.999 0
M  V30 267 H 24.1587 -0.0399306 -1.56249 0
M  V30 268 H 24.8937 2.42449 -2.15381 0
M  V30 269 H 24.6787 1.45602 -3.64064 0
M  V30 270 H 26.1687 2.41773 -3.40493 0
M  V30 271 N 26.6058 1.57591 -0.0167156 0
M  V30 272 C 27.5558 2.05953 0.978137 0
M  V30 273 C 28.5398 0.957532 1.29306 0
M  V30 274 O 29.7318 1.22119 1.28125 0
M  V30 275 C 26.8608 2.58006 2.26468 0
M  V30 276 C 25.9468 3.75113 1.97867 0
M  V30 277 N 26.3378 4.86187 1.39486 0
M  V30 278 C 24.6358 3.83363 2.27924 0
M  V30 279 C 25.3368 5.67502 1.27735 0
M  V30 280 N 24.3128 5.14023 1.76866 0
M  V30 281 H 28.1148 2.89236 0.521522 0
M  V30 282 H 25.6288 1.61301 0.188596 0
M  V30 283 H 27.6258 2.90937 2.98599 0
M  V30 284 H 26.2858 1.76148 2.72767 0
M  V30 285 H 27.2968 5.06695 1.07147 0
M  V30 286 H 23.9738 3.1239 2.76982 0
M  V30 287 H 25.3638 6.66791 0.826978 0
M  V30 288 N 28.0839 -0.256276 1.55502 0
M  V30 289 C 29.3299 -0.982884 1.78076 0
M  V30 290 C 29.6849 -1.83319 0.584109 0
M  V30 291 O 28.9779 -1.86875 -0.422877 0
M  V30 292 C 29.1719 -1.88432 3.03691 0
M  V30 293 C 29.0009 -1.12276 4.35459 0
M  V30 294 C 27.7709 -0.831647 4.98409 0
M  V30 295 C 29.9689 -0.504933 5.11815 0
M  V30 296 N 27.9509 -0.0450423 6.13883 0
M  V30 297 C 29.3219 0.146696 6.19826 0
M  V30 298 C 31.3769 -0.414455 4.96172 0
M  V30 299 C 30.0799 0.880103 7.13895 0
M  V30 300 C 32.1059 0.305398 5.90611 0
M  V30 301 C 31.4679 0.945701 6.98023 0
M  V30 302 H 27.5669 -0.341084 0.703694 0
M  V30 303 H 30.1509 -0.256909 1.92998 0
M  V30 304 H 28.3219 -2.58241 2.90114 0
M  V30 305 H 30.0539 -2.54579 3.14598 0
M  V30 306 H 26.8089 -1.14111 4.59647 0
M  V30 307 H 27.2329 0.336079 6.76165 0
M  V30 308 H 31.8749 -0.895163 4.13215 0
M  V30 309 H 29.5929 1.37244 7.9636 0
M  V30 310 H 33.1789 0.375946 5.80584 0
M  V30 311 H 32.0589 1.49383 7.6984 0
M  V30 312 N 29.562 -1.4872 -0.521534 0
M  V30 313 C 30.492 -1.66771 -1.63431 0
M  V30 314 C 31.473 -0.516499 -1.62069 0
M  V30 315 O 32.658 -0.750013 -1.79132 0
M  V30 316 C 29.788 -1.71515 -3.01993 0
M  V30 317 C 28.742 -2.86222 -3.18216 0
M  V30 318 C 28.068 -2.76061 -4.57924 0
M  V30 319 C 29.368 -4.27419 -3.00184 0
M  V30 320 H 31.062 -2.59932 -1.48579 0
M  V30 321 H 28.608 -1.25089 -0.713358 0
M  V30 322 H 30.561 -1.82731 -3.7972 0
M  V30 323 H 29.285 -0.749393 -3.17886 0
M  V30 324 H 27.944 -2.74575 -2.42908 0
M  V30 325 H 27.592 -1.77437 -4.70665 0
M  V30 326 H 27.292 -3.53037 -4.69722 0
M  V30 327 H 28.816 -2.89256 -5.37739 0
M  V30 328 H 30.23 -4.39855 -3.67697 0
M  V30 329 H 28.627 -5.05458 -3.2347 0
M  V30 330 H 29.697 -4.43293 -1.96518 0
M  V30 331 N 31.0401 0.771051 -1.3745 0
M  V30 332 C 32.0031 1.86598 -1.33093 0
M  V30 333 C 33.0031 1.59076 -0.234845 0
M  V30 334 O 34.1931 1.67145 -0.490732 0
M  V30 335 C 31.3251 3.23747 -1.06773 0
M  V30 336 H 32.5181 1.91873 -2.30488 0
M  V30 337 H 30.0711 0.970876 -1.2249 0
M  V30 338 H 30.8061 3.24148 -0.099129 0
M  V30 339 H 30.5911 3.45115 -1.86112 0
M  V30 340 H 32.0811 4.03824 -1.06377 0
M  V30 341 N 32.5182 1.22032 0.997298 0
M  V30 342 C 33.4812 0.987909 2.06816 0
M  V30 343 C 34.4812 -0.0440084 1.6074 0
M  V30 344 O 35.6712 0.194053 1.73116 0
M  V30 345 C 32.8032 0.49132 3.37341 0
M  V30 346 H 33.9962 1.93803 2.28868 0
M  V30 347 H 31.5492 1.03838 1.16822 0
M  V30 348 H 32.2842 -0.463364 3.20973 0
M  V30 349 H 32.0692 1.23575 3.72118 0
M  V30 350 H 33.5592 0.348824 4.16141 0
M  V30 351 N 33.9963 -1.19345 1.0293 0
M  V30 352 C 34.9433 -2.2258 0.610464 0
M  V30 353 C 35.9133 -1.6179 -0.375946 0
M  V30 354 O 37.0983 -1.88844 -0.272511 0
M  V30 355 C 34.2383 -3.45085 -0.0321473 0
M  V30 356 C 33.3513 -4.20258 1.00035 0
M  V30 357 C 32.4863 -5.3019 0.32746 0
M  V30 358 C 31.5253 -5.97121 1.34584 0
M  V30 359 N 30.6623 -6.98615 0.698726 0
M  V30 360 H 35.5023 -2.57764 1.49538 0
M  V30 361 H 33.0393 -1.26644 0.748311 0
M  V30 362 H 34.9973 -4.15061 -0.421966 0
M  V30 363 H 33.6273 -3.10555 -0.88064 0
M  V30 364 H 32.6793 -3.49223 1.50823 0
M  V30 365 H 33.9913 -4.66175 1.77433 0
M  V30 366 H 33.1453 -6.06587 -0.11718 0
M  V30 367 H 31.8843 -4.85345 -0.478713 0
M  V30 368 H 30.8893 -5.19474 1.80074 0
M  V30 369 H 32.1143 -6.4405 2.15352 0
M  V30 370 H 30.0603 -6.55942 -0.0873471 0
M  V30 371 H 29.9773 -7.42724 1.41058 0
M  V30 372 H 31.2453 -7.79004 0.278102 0
M  V30 373 N 35.4744 -0.807222 -1.35358 0
M  V30 374 C 36.3844 -0.219594 -2.3357 0
M  V30 375 C 37.4004 0.637734 -1.61892 0
M  V30 376 O 38.5764 0.549336 -1.93763 0
M  V30 377 C 35.6414 0.62158 -3.41083 0
M  V30 378 C 34.7024 -0.256315 -4.28534 0
M  V30 379 C 33.9354 0.544807 -5.30912 0
M  V30 380 O 34.1584 1.77944 -5.41934 0
M  V30 381 O 33.0924 -0.0646478 -6.01865 0
M  V30 382 H 36.9184 -1.03208 -2.85625 0
M  V30 383 H 34.5034 -0.569025 -1.38139 0
M  V30 384 H 36.3854 1.10067 -4.06772 0
M  V30 385 H 35.0604 1.41165 -2.91297 0
M  V30 386 H 33.9674 -0.782559 -3.65823 0
M  V30 387 H 35.3004 -1.01034 -4.81719 0
M  V30 388 N 36.9525 1.47285 -0.560781 0
M  V30 389 C 37.8825 2.32857 0.173105 0
M  V30 390 C 38.8635 1.44009 0.905281 0
M  V30 391 O 40.0485 1.7286 0.885046 0
M  V30 392 C 37.1785 3.25861 1.20133 0
M  V30 393 C 36.1325 4.23978 0.585388 0
M  V30 394 C 35.4585 5.06332 1.7185 0
M  V30 395 C 36.7585 5.20242 -0.463178 0
M  V30 396 H 38.4525 2.94466 -0.541307 0
M  V30 397 H 35.9985 1.41601 -0.261764 0
M  V30 398 H 37.9515 3.84569 1.72293 0
M  V30 399 H 36.6755 2.62315 1.94573 0
M  V30 400 H 35.3345 3.66501 0.085054 0
M  V30 401 H 34.9825 4.39186 2.45203 0
M  V30 402 H 34.6825 5.72762 1.31213 0
M  V30 403 H 36.2065 5.67899 2.24329 0
M  V30 404 H 37.6205 5.73293 -0.027502 0
M  V30 405 H 36.0175 5.94896 -0.788627 0
M  V30 406 H 37.0875 4.65504 -1.35773 0
M  V30 407 N 38.4306 0.297415 1.54768 0
M  V30 408 C 39.6786 -0.312295 1.99673 0
M  V30 409 C 39.9996 -1.54686 1.18732 0
M  V30 410 O 39.2696 -1.93854 0.282382 0
M  V30 411 H 37.8496 -0.118381 0.73756 0
M  V30 412 H 40.5116 0.407915 1.90583 0
M  V30 413 H 39.6076 -0.586813 3.06534 0
M  V30 414 N 39.9087 -1.5758 0.0250728 0
M  V30 415 C 41.1857 -1.82917 -0.692873 0
M  V30 416 C 41.5657 -0.908137 -1.90568 0
M  V30 417 O 40.9137 0.0372298 -2.2847 0
M  V30 418 C 41.1237 -3.32034 -1.07492 0
M  V30 419 C 42.4717 -3.98406 -1.46826 0
M  V30 420 O 43.4957 -3.36505 -1.16801 0
M  V30 421 O 42.3547 -5.07497 -2.02754 0
M  V30 422 H 39.4487 -0.754079 -0.33955 0
M  V30 423 H 41.9947 -1.69619 0.0524456 0
M  V30 424 H 40.7667 -3.90728 -0.211552 0
M  V30 425 H 40.3897 -3.50424 -1.87854 0
M  V30 426 N 41.3868 0.248026 -1.55636 0
M  V30 427 C 42.6358 0.974134 -1.76617 0
M  V30 428 C 42.9488 1.86528 -0.588796 0
M  V30 429 O 44.1548 2.62805 -0.681594 0
M  V30 430 C 42.6108 1.78213 -3.12679 0
M  V30 431 C 42.2188 0.93843 -4.38061 0
M  V30 432 C 43.9628 2.50104 -3.42999 0
M  V30 433 C 41.8698 1.74225 -5.65155 0
M  V30 434 H 40.7998 0.36745 -0.658405 0
M  V30 435 H 43.4508 0.22884 -1.82067 0
M  V30 436 H 41.8328 2.56933 -3.01333 0
M  V30 437 H 43.0068 0.193635 -4.60393 0
M  V30 438 H 41.3218 0.332905 -4.15067 0
M  V30 439 H 43.9188 3.10694 -4.3517 0
M  V30 440 H 44.2618 3.21662 -2.64271 0
M  V30 441 H 44.7948 1.78395 -3.55556 0
M  V30 442 H 41.5338 1.07043 -6.46701 0
M  V30 443 H 41.0538 2.46235 -5.46926 0
M  V30 444 H 42.7328 2.30967 -6.0437 0
M  V30 445 N 42.8649 1.48995 0.513639 0
M  V30 446 C 44.1109 1.58076 1.27042 0
M  V30 447 C 44.4439 0.261026 1.92438 0
M  V30 448 O 43.7189 -0.734393 1.80103 0
M  V30 449 C 44.0019 2.73091 2.34719 0
M  V30 450 C 43.8549 4.14821 1.73907 0
M  V30 451 C 45.1739 2.83796 3.36375 0
M  V30 452 H 42.2929 0.575391 0.460536 0
M  V30 453 H 44.9349 1.81232 0.570516 0
M  V30 454 H 43.0849 2.53479 2.94416 0
M  V30 455 H 44.7569 4.45917 1.18135 0
M  V30 456 H 42.9999 4.21058 1.0437 0
M  V30 457 H 43.6709 4.91147 2.51949 0
M  V30 458 H 46.1469 3.01611 2.86653 0
M  V30 459 H 45.0229 3.65971 4.09093 0
M  V30 460 H 45.2839 1.92624 3.9793 0
M  V30 461 N 44.343 -0.763751 1.37857 0
M  V30 462 C 45.273 -1.89103 1.36975 0
M  V30 463 C 46.254 -1.68439 0.237152 0
M  V30 464 O 47.439 -1.8918 0.438713 0
M  V30 465 C 44.569 -3.26496 1.18395 0
M  V30 466 C 43.523 -3.61741 2.28751 0
M  V30 467 C 42.849 -4.97762 1.95286 0
M  V30 468 C 44.149 -3.67665 3.70972 0
M  V30 469 H 45.843 -1.90099 2.31307 0
M  V30 470 H 43.389 -0.91319 1.11341 0
M  V30 471 H 45.342 -4.05003 1.16406 0
M  V30 472 H 44.066 -3.25955 0.205215 0
M  V30 473 H 42.725 -2.85547 2.29909 0
M  V30 474 H 42.373 -4.93769 0.959221 0
M  V30 475 H 42.073 -5.22313 2.69189 0
M  V30 476 H 43.597 -5.7866 1.94898 0
M  V30 477 H 45.011 -4.36307 3.719 0
M  V30 478 H 43.408 -4.03718 4.43995 0
M  V30 479 H 44.478 -2.68134 4.0402 0
M  V30 480 N 45.8211 -1.22559 -0.990812 0
M  V30 481 C 46.7511 -1.0218 -2.09956 0
M  V30 482 C 47.7321 0.0579394 -1.70001 0
M  V30 483 O 48.9171 -0.104684 -1.93918 0
M  V30 484 C 46.0471 -0.601023 -3.4206 0
M  V30 485 C 45.0011 -1.62694 -3.95872 0
M  V30 486 C 44.3271 -1.06193 -5.24049 0
M  V30 487 C 45.6271 -3.01743 -4.2632 0
M  V30 488 H 47.3211 -1.94916 -2.27262 0
M  V30 489 H 44.8671 -0.938566 -1.09211 0
M  V30 490 H 46.8201 -0.445561 -4.19038 0
M  V30 491 H 45.5441 0.362005 -3.24588 0
M  V30 492 H 44.2031 -1.77021 -3.21028 0
M  V30 493 H 43.8511 -0.0901903 -5.02919 0
M  V30 494 H 43.5511 -1.74732 -5.61019 0
M  V30 495 H 45.0751 -0.918092 -6.03658 0
M  V30 496 H 46.4891 -2.90777 -4.94087 0
M  V30 497 H 44.8861 -3.67425 -4.74467 0
M  V30 498 H 45.9561 -3.51518 -3.34011 0
M  V30 499 N 47.2992 1.18797 -1.03562 0
M  V30 500 C 48.5762 1.84469 -0.650434 0
M  V30 501 C 48.9562 1.92319 0.870433 0
M  V30 502 O 48.3042 1.44528 1.76986 0
M  V30 503 C 48.5142 3.2306 -1.32036 0
M  V30 504 C 49.8622 3.9915 -1.44792 0
M  V30 505 O 50.8862 3.32481 -1.27806 0
M  V30 506 O 49.7452 5.18587 -1.72423 0
M  V30 507 H 46.8392 0.795251 -0.226946 0
M  V30 508 H 49.3852 1.26231 -1.13419 0
M  V30 509 H 48.1572 3.1222 -2.3587 0
M  V30 510 H 47.7802 3.88949 -0.8249 0
M  V30 511 N 48.7773 0.814389 1.34928 0
M  V30 512 C 50.0243 0.398423 1.98542 0
M  V30 513 C 50.3523 -1.03638 1.64589 0
M  V30 514 O 49.6073 -1.73509 0.90516 0
M  V30 515 C 49.9063 0.537781 3.53331 0
M  V30 516 C 49.5723 1.93704 4.07172 0
M  V30 517 C 48.2343 2.31984 4.21589 0
M  V30 518 C 50.5863 2.85213 4.36237 0
M  V30 519 C 47.9143 3.61125 4.62391 0
M  V30 520 C 50.2663 4.13809 4.78482 0
M  V30 521 C 48.9303 4.52077 4.91104 0
M  V30 522 H 48.2003 0.145793 0.726516 0
M  V30 523 H 50.8473 1.03669 1.61012 0
M  V30 524 H 49.1523 -0.183906 3.91368 0
M  V30 525 H 50.8493 0.196588 4.00518 0
M  V30 526 H 47.4393 1.62966 3.96409 0
M  V30 527 H 51.6233 2.56885 4.24645 0
M  V30 528 H 46.8793 3.90612 4.70353 0
M  V30 529 H 51.0533 4.84811 4.99932 0
M  V30 530 H 48.6803 5.52196 5.22478 0
M  V30 531 N 50.2554 -1.46986 0.568584 0
M  V30 532 C 51.5014 -2.02741 0.0488709 0
M  V30 533 C 51.8344 -1.44077 -1.30214 0
M  V30 534 O 51.1094 -0.600552 -1.84996 0
M  V30 535 C 51.3924 -3.60086 -0.032047 0
M  V30 536 C 51.2454 -4.29162 1.34686 0
M  V30 537 C 52.5644 -4.33838 -0.739798 0
M  V30 538 H 49.6834 -0.736749 0.0192338 0
M  V30 539 H 52.3254 -1.75289 0.733065 0
M  V30 540 H 50.4754 -3.83606 -0.61473 0
M  V30 541 H 52.1474 -4.16948 1.97362 0
M  V30 542 H 50.3904 -3.89073 1.91846 0
M  V30 543 H 51.0614 -5.37826 1.24285 0
M  V30 544 H 53.5374 -4.15378 -0.244939 0
M  V30 545 H 52.4134 -5.43537 -0.765406 0
M  V30 546 H 52.6744 -4.03875 -1.79827 0
M  V30 547 N 51.7335 -0.305618 -1.54608 0
M  V30 548 C 52.6435 0.57778 -2.27374 0
M  V30 549 C 53.6595 1.14451 -1.31061 0
M  V30 550 O 54.8355 1.16831 -1.6405 0
M  V30 551 C 51.9005 1.73123 -3.00382 0
M  V30 552 C 50.9615 1.19812 -4.12242 0
M  V30 553 C 50.1945 2.2966 -4.81759 0
M  V30 554 O 50.4175 3.49651 -4.50666 0
M  V30 555 O 49.3515 1.96091 -5.69062 0
M  V30 556 H 53.1775 -0.012624 -3.03697 0
M  V30 557 H 50.7625 -0.0719184 -1.49227 0
M  V30 558 H 52.6445 2.40315 -3.4616 0
M  V30 559 H 51.3195 2.30815 -2.26949 0
M  V30 560 H 50.2265 0.491798 -3.70853 0
M  V30 561 H 51.5595 0.666566 -4.87666 0
M  V30 562 N 53.2116 1.57565 -0.0334293 0
M  V30 563 C 54.4596 1.91598 0.642999 0
M  V30 564 C 54.7806 0.910847 1.7242 0
M  V30 565 O 54.0506 -0.0469931 1.95844 0
M  V30 566 H 52.6306 0.707228 0.240496 0
M  V30 567 H 55.2926 1.94726 -0.0822488 0
M  V30 568 H 54.3886 2.92336 1.09298 0
M  V30 569 N 54.6897 -0.239769 1.55765 0
M  V30 570 C 55.9357 -0.968234 1.78194 0
M  V30 571 C 56.2687 -1.84701 0.599938 0
M  V30 572 O 55.5437 -1.9031 -0.401524 0
M  V30 573 C 55.8267 -1.8227 3.10564 0
M  V30 574 C 55.6797 -0.971633 4.3918 0
M  V30 575 C 56.9987 -2.80388 3.39221 0
M  V30 576 H 54.1177 -0.350572 0.648281 0
M  V30 577 H 56.7597 -0.238259 1.885 0
M  V30 578 H 54.9097 -2.44507 3.01908 0
M  V30 579 H 56.5817 -0.367408 4.59835 0
M  V30 580 H 54.8247 -0.276276 4.32919 0
M  V30 581 H 55.4957 -1.60346 5.28198 0
M  V30 582 H 57.9717 -2.28287 3.47885 0
M  V30 583 H 56.8477 -3.3729 4.33044 0
M  V30 584 H 57.1087 -3.57212 2.60484 0
M  V30 585 N 56.1678 -1.49265 -0.50573 0
M  V30 586 C 57.5788 -1.51769 -1.08734 0
M  V30 587 C 57.9298 -0.301192 -1.93874 0
M  V30 588 O 57.0548 0.589456 -2.08217 0
M  V30 589 C 57.6498 -2.75017 -1.97867 0
M  V30 590 C 56.2088 -2.80314 -2.51199 0
M  V30 591 C 55.3558 -2.4562 -1.28709 0
M  V30 592 H 58.3068 -1.56031 -0.289855 0
M  V30 593 H 58.3278 -2.5491 -2.82491 0
M  V30 594 H 57.8398 -3.63539 -1.35873 0
M  V30 595 H 55.9408 -1.96061 -3.16845 0
M  V30 596 H 56.0538 -3.82366 -2.88675 0
M  V30 597 H 54.4178 -1.97297 -1.61078 0
M  V30 598 H 55.2008 -3.36411 -0.6843 0
M  V30 599 N 57.6459 0.756429 -1.3826 0
M  V30 600 C 58.5779 1.87971 -1.31147 0
M  V30 601 C 59.5909 1.61248 -0.224239 0
M  V30 602 O 60.7799 1.71881 -0.481581 0
M  V30 603 C 57.8799 3.23545 -1.00857 0
M  V30 604 C 57.0529 3.77794 -2.20432 0
M  V30 605 C 56.1119 4.91877 -1.86931 0
M  V30 606 O 55.1379 5.06659 -2.59395 0
M  V30 607 N 56.3399 5.74643 -0.822568 0
M  V30 608 H 59.1049 1.94585 -2.2794 0
M  V30 609 H 56.6659 0.936234 -1.32084 0
M  V30 610 H 58.6579 3.97403 -0.765021 0
M  V30 611 H 57.2279 3.12335 -0.128687 0
M  V30 612 H 56.4479 2.95534 -2.6087 0
M  V30 613 H 57.7359 4.10771 -3.00241 0
M  V30 614 H 57.1339 5.65266 -0.221575 0
M  V30 615 H 55.6909 6.48661 -0.638899 0
M  V30 616 N 59.124 1.23083 0.984299 0
M  V30 617 C 60.372 1.05848 1.72165 0
M  V30 618 C 60.693 -0.406049 1.90726 0
M  V30 619 O 59.963 -1.29139 1.47309 0
M  V30 620 H 58.543 0.388685 0.637913 0
M  V30 621 H 61.205 1.54736 1.18503 0
M  V30 622 H 60.301 1.54327 2.71274 0
M  V30 623 N 60.6021 -1.18246 1.0419 0
M  V30 624 C 61.5491 -2.2192 0.634037 0
M  V30 625 C 62.5191 -1.62179 -0.358765 0
M  V30 626 O 63.7041 -1.89122 -0.252466 0
M  V30 627 C 60.8441 -3.451 0.00445535 0
M  V30 628 C 59.9571 -4.19174 1.04487 0
M  V30 629 C 59.0921 -5.29813 0.383676 0
M  V30 630 C 58.1311 -5.9566 1.4091 0
M  V30 631 N 57.2681 -6.97834 0.772784 0
M  V30 632 H 62.1081 -2.56164 1.52263 0
M  V30 633 H 59.6451 -1.25843 0.761701 0
M  V30 634 H 61.6031 -4.15485 -0.377919 0
M  V30 635 H 60.2331 -3.11472 -0.847652 0
M  V30 636 H 59.2851 -3.47604 1.54518 0
M  V30 637 H 60.5971 -4.64267 1.82368 0
M  V30 638 H 59.7511 -6.06677 -0.0528366 0
M  V30 639 H 58.4901 -4.85825 -0.427208 0
M  V30 640 H 57.4951 -5.17535 1.85574 0
M  V30 641 H 58.7201 -6.4173 2.22171 0
M  V30 642 H 56.6661 -6.55998 -0.0177708 0
M  V30 643 H 56.5831 -7.41186 1.48928 0
M  V30 644 H 57.8511 -7.78665 0.36071 0
M  V30 645 N 62.0802 -0.821533 -1.34494 0
M  V30 646 C 63.0432 -0.247847 -2.27856 0
M  V30 647 C 64.0432 0.573453 -1.50227 0
M  V30 648 O 65.2332 0.389759 -1.69784 0
M  V30 649 C 62.3652 0.652698 -3.34593 0
M  V30 650 H 63.5582 -1.07146 -2.80107 0
M  V30 651 H 61.1112 -0.593291 -1.44602 0
M  V30 652 H 61.8462 1.49943 -2.87555 0
M  V30 653 H 61.6312 0.065292 -3.92046 0
M  V30 654 H 63.1212 1.04793 -4.04238 0
M  V30 655 N 63.5583 1.46682 -0.576371 0
M  V30 656 C 64.4883 2.33028 0.148397 0
M  V30 657 C 65.4693 1.44961 0.889956 0
M  V30 658 O 66.6543 1.73789 0.866662 0
M  V30 659 C 63.7843 3.27117 1.1667 0
M  V30 660 C 62.7383 4.24575 0.540386 0
M  V30 661 C 62.0643 5.08126 1.6647 0
M  V30 662 C 63.3643 5.19722 -0.518331 0
M  V30 663 H 65.0583 2.93875 -0.572509 0
M  V30 664 H 62.6043 1.41315 -0.276768 0
M  V30 665 H 64.5573 3.86374 1.68204 0
M  V30 666 H 63.2813 2.64364 1.9178 0
M  V30 667 H 61.9403 3.66571 0.0461769 0
M  V30 668 H 61.5883 4.41762 2.40531 0
M  V30 669 H 61.2883 5.74122 1.25131 0
M  V30 670 H 62.8123 5.70246 2.18293 0
M  V30 671 H 64.2263 5.73232 -0.0883058 0
M  V30 672 H 62.6233 5.94026 -0.851679 0
M  V30 673 H 63.6933 4.64037 -1.40703 0
M  V30 674 N 65.0364 0.313813 1.54444 0
M  V30 675 C 66.3134 -0.345447 1.92525 0
M  V30 676 C 66.6934 -1.70667 1.24242 0
M  V30 677 O 66.0414 -2.25273 0.382654 0
M  V30 678 C 66.2514 -0.44737 3.46121 0
M  V30 679 C 67.5994 -0.712238 4.18584 0
M  V30 680 O 68.6234 -0.530678 3.52225 0
M  V30 681 O 67.4824 -1.06183 5.36085 0
M  V30 682 H 64.5764 -0.195407 0.803583 0
M  V30 683 H 67.1224 0.362813 1.65776 0
M  V30 684 H 65.8944 0.509043 3.87975 0
M  V30 685 H 65.5174 -1.20359 3.78945 0
M  V30 686 N 66.5145 -1.57545 0.0417849 0
M  V30 687 C 67.4445 -2.14009 -0.933929 0
M  V30 688 C 68.4255 -1.05938 -1.33083 0
M  V30 689 O 69.6105 -1.33833 -1.40721 0
M  V30 690 C 66.7405 -2.67747 -2.21199 0
M  V30 691 C 65.6945 -3.80718 -1.95544 0
M  V30 692 C 65.0205 -4.20935 -3.29724 0
M  V30 693 C 66.3205 -5.06258 -1.28452 0
M  V30 694 H 68.0145 -2.95788 -0.463645 0
M  V30 695 H 65.5605 -1.42285 -0.221573 0
M  V30 696 H 67.5135 -3.05886 -2.89848 0
M  V30 697 H 66.2375 -1.83147 -2.70416 0
M  V30 698 H 64.8965 -3.43037 -1.2931 0
M  V30 699 H 64.5445 -3.33298 -3.76724 0
M  V30 700 H 64.2445 -4.9707 -3.13361 0
M  V30 701 H 65.7685 -4.61666 -3.9962 0
M  V30 702 H 67.1825 -5.41903 -1.8712 0
M  V30 703 H 65.5795 -5.87475 -1.22445 0
M  V30 704 H 66.6495 -4.84207 -0.259219 0
M  V30 705 N 67.9926 0.231505 -1.5589 0
M  V30 706 C 69.2226 0.973092 -1.82248 0
M  V30 707 C 69.6306 1.78845 -0.617328 0
M  V30 708 O 68.9736 1.78752 0.423499 0
M  V30 709 C 69.0356 1.94732 -3.02192 0
M  V30 710 C 68.6996 1.31743 -4.37599 0
M  V30 711 C 69.6966 0.712238 -5.14998 0
M  V30 712 C 67.3816 1.33218 -4.84312 0
M  V30 713 C 69.3756 0.130195 -6.37267 0
M  V30 714 C 67.0626 0.746286 -6.06526 0
M  V30 715 C 68.0606 0.146337 -6.82843 0
M  V30 716 O 67.7486 -0.430465 -8.02747 0
M  V30 717 H 67.4806 0.29125 -0.61004 0
M  V30 718 H 70.0346 0.254915 -2.03812 0
M  V30 719 H 68.2646 2.70422 -2.76422 0
M  V30 720 H 69.9536 2.55362 -3.15508 0
M  V30 721 H 70.7196 0.69324 -4.8002 0
M  V30 722 H 66.5986 1.78854 -4.24891 0
M  V30 723 H 70.1426 -0.33871 -6.96777 0
M  V30 724 H 66.0396 0.762663 -6.40979 0
M  V30 725 H 66.8076 -0.323818 -8.17859 0
M  V30 726 N 69.4707 1.49531 0.497807 0
M  V30 727 C 70.3807 1.69176 1.62532 0
M  V30 728 C 71.3967 0.5744 1.64246 0
M  V30 729 O 72.5727 0.849497 1.82608 0
M  V30 730 C 69.6377 1.75695 2.98885 0
M  V30 731 C 68.6987 2.9929 3.07773 0
M  V30 732 C 67.9317 3.05488 4.37622 0
M  V30 733 O 68.1547 2.19192 5.26603 0
M  V30 734 O 67.0887 3.9798 4.51548 0
M  V30 735 H 70.9147 2.647 1.48887 0
M  V30 736 H 68.4997 1.3331 0.674441 0
M  V30 737 H 70.3817 1.82317 3.79919 0
M  V30 738 H 69.0567 0.8335 3.12785 0
M  V30 739 H 67.9637 2.98183 2.25915 0
M  V30 740 H 69.2967 3.91125 2.98801 0
M  V30 741 N 70.9488 -0.749086 1.3866 0
M  V30 742 C 71.9118 -1.84457 1.36045 0
M  V30 743 C 72.9118 -1.58682 0.260122 0
M  V30 744 O 74.1018 -1.66343 0.517261 0
M  V30 745 C 71.2338 -3.22008 1.11911 0
M  V30 746 H 72.4268 -1.88182 2.33512 0
M  V30 747 H 69.9798 -0.951266 1.24019 0
M  V30 748 H 70.7148 -3.2395 0.150686 0
M  V30 749 H 70.4998 -3.42111 1.91579 0
M  V30 750 H 71.9898 -4.0208 1.12788 0
M  V30 751 N 72.4269 -1.23603 -0.977757 0
M  V30 752 C 73.6519 -1.09735 -1.75991 0
M  V30 753 C 74.0769 0.346858 -1.84874 0
M  V30 754 O 73.4349 1.25093 -1.3123 0
M  V30 755 C 73.4829 -1.73051 -3.16363 0
M  V30 756 O 72.5869 -0.994452 -4.0023 0
M  V30 757 H 71.9279 -0.384476 -0.541364 0
M  V30 758 H 74.4579 -1.6371 -1.2272 0
M  V30 759 H 74.4679 -1.78398 -3.66931 0
M  V30 760 H 73.1429 -2.78137 -3.09213 0
M  V30 761 H 71.7199 -1.01812 -3.58732 0
M  V30 762 N 73.905 1.17692 -1.04816 0
M  V30 763 C 75.316 1.69501 -0.782698 0
M  V30 764 C 75.667 1.83456 0.695577 0
M  V30 765 O 74.792 1.51942 1.54086 0
M  V30 766 C 75.387 3.07874 -1.41419 0
M  V30 767 C 73.946 3.56864 -1.19686 0
M  V30 768 C 73.093 2.3322 -1.50012 0
M  V30 769 H 76.044 1.02262 -1.2136 0
M  V30 770 H 76.065 3.71528 -0.821428 0
M  V30 771 H 75.577 2.97685 -2.49009 0
M  V30 772 H 73.678 3.72337 -0.140043 0
M  V30 773 H 73.791 4.39851 -1.89916 0
M  V30 774 H 72.155 2.37501 -0.920071 0
M  V30 775 H 72.938 2.25644 -2.58727 0
M  V30 776 N 75.3831 0.828654 1.34056 0
M  V30 777 C 76.6321 0.415828 1.97367 0
M  V30 778 C 76.9451 -1.02796 1.6641 0
M  V30 779 O 78.1511 -1.54497 2.23255 0
M  V30 780 C 76.6071 0.692601 3.53173 0
M  V30 781 C 76.2151 2.15038 3.93017 0
M  V30 782 C 77.9591 0.346222 4.23086 0
M  V30 783 C 75.8661 2.37174 5.41758 0
M  V30 784 H 74.7961 0.151755 0.738571 0
M  V30 785 H 77.4471 1.01581 1.52819 0
M  V30 786 H 75.8291 0.0223764 3.95994 0
M  V30 787 H 77.0031 2.86024 3.61285 0
M  V30 788 H 75.3181 2.45875 3.36057 0
M  V30 789 H 77.9151 0.48937 5.32456 0
M  V30 790 H 78.2581 -0.709842 4.10204 0
M  V30 791 H 78.7911 0.971258 3.85761 0
M  V30 792 H 75.5301 3.41308 5.59633 0
M  V30 793 H 75.0501 1.70738 5.74986 0
M  V30 794 H 76.7291 2.19818 6.08514 0
M  V30 795 N 76.8612 -1.46375 0.584142 0
M  V30 796 C 77.7712 -2.34115 -0.150728 0
M  V30 797 C 78.7872 -1.49838 -0.884567 0
M  V30 798 O 79.9632 -1.82704 -0.847429 0
M  V30 799 C 77.0282 -3.2705 -1.15062 0
M  V30 800 C 76.0892 -4.27228 -0.421293 0
M  V30 801 C 75.3222 -5.15722 -1.37355 0
M  V30 802 O 75.5452 -5.07176 -2.61014 0
M  V30 803 O 74.4792 -5.95383 -0.883355 0
M  V30 804 H 78.3052 -2.98309 0.569708 0
M  V30 805 H 75.8902 -1.45373 0.344535 0
M  V30 806 H 77.7722 -3.84381 -1.72712 0
M  V30 807 H 76.4472 -2.65451 -1.8525 0
M  V30 808 H 75.3542 -3.7358 0.197085 0
M  V30 809 H 76.6872 -4.91616 0.239641 0
M  V30 810 N 78.3393 -0.321999 -1.54275 0
M  V30 811 C 79.5873 0.280489 -2.00144 0
M  V30 812 C 79.9083 1.52777 -1.21178 0
M  V30 813 O 79.1783 1.9338 -0.313187 0
M  V30 814 H 77.7583 0.106632 -0.73935 0
M  V30 815 H 80.4203 -0.438184 -1.8991 0
M  V30 816 H 79.5163 0.537972 -3.07428 0
M  V30 817 N 79.8174 1.5752 -0.0501392 0
M  V30 818 C 81.0644 1.9265 0.623874 0
M  V30 819 C 81.3924 0.928411 1.70912 0
M  V30 820 O 80.6474 -0.0594525 1.9561 0
M  V30 821 C 80.9464 3.34467 1.25963 0
M  V30 822 C 80.6124 4.49883 0.302689 0
M  V30 823 C 79.2744 4.81184 0.0393636 0
M  V30 824 C 81.6264 5.20002 -0.353205 0
M  V30 825 C 78.9544 5.79951 -0.887308 0
M  V30 826 C 81.3064 6.1976 -1.26806 0
M  V30 827 C 79.9704 6.49491 -1.54007 0
M  V30 828 H 79.2404 0.704957 0.228292 0
M  V30 829 H 81.8874 1.91146 -0.116398 0
M  V30 830 H 80.1924 3.32333 2.07514 0
M  V30 831 H 81.8894 3.58928 1.78806 0
M  V30 832 H 78.4794 4.25457 0.518109 0
M  V30 833 H 82.6634 4.96033 -0.162854 0
M  V30 834 H 77.9194 6.01322 -1.10553 0
M  V30 835 H 82.0934 6.73205 -1.78236 0
M  V30 836 H 79.7204 7.25837 -2.25976 0
M  V30 837 N 81.2955 -0.223234 1.56011 0
M  V30 838 C 82.5725 -0.972108 1.69733 0
M  V30 839 C 82.9525 -2.02485 0.59691 0
M  V30 840 O 82.3005 -2.25037 -0.396324 0
M  V30 841 C 82.5105 -1.58407 3.10979 0
M  V30 842 C 83.8585 -2.07696 3.70334 0
M  V30 843 O 84.8825 -1.68304 3.1393 0
M  V30 844 O 83.7415 -2.80096 4.69264 0
M  V30 845 H 80.8355 -0.453993 0.691245 0
M  V30 846 H 83.3815 -0.215149 1.68331 0
M  V30 847 H 82.1535 -0.823831 3.82529 0
M  V30 848 H 81.7765 -2.40661 3.16493 0
M  V30 849 N 82.7736 -1.49793 -0.48987 0
M  V30 850 C 84.0196 -1.60078 -1.24511 0
M  V30 851 C 84.3526 -0.291608 -1.91998 0
M  V30 852 O 83.6276 0.705647 -1.81248 0
M  V30 853 C 83.9106 -2.76791 -2.30345 0
M  V30 854 C 83.7636 -4.17535 -1.67286 0
M  V30 855 C 85.0826 -2.89111 -3.31817 0
M  V30 856 H 82.2016 -0.582645 -0.451324 0
M  V30 857 H 84.8436 -1.82117 -0.541612 0
M  V30 858 H 82.9936 -2.5813 -2.90346 0
M  V30 859 H 84.6656 -4.4774 -1.11026 0
M  V30 860 H 82.9086 -4.22665 -0.976577 0
M  V30 861 H 83.5796 -4.95094 -2.44103 0
M  V30 862 H 86.0556 -3.06133 -2.81819 0
M  V30 863 H 84.9316 -3.72433 -4.03219 0
M  V30 864 H 85.1926 -1.9893 -3.94815 0
M  V30 865 N 84.2517 0.741722 -1.39055 0
M  V30 866 C 85.6677 1.04638 -1.20512 0
M  V30 867 C 85.8677 2.01405 -0.0620218 0
M  V30 868 O 84.9237 2.45547 0.588457 0
M  V30 869 C 86.2367 1.6151 -2.53643 0
M  V30 870 C 87.7847 1.73623 -2.6043 0
M  V30 871 C 88.2597 2.33906 -3.93767 0
M  V30 872 N 89.7507 2.41323 -3.9537 0
M  V30 873 C 90.4857 2.88888 -4.95309 0
M  V30 874 N 89.9817 3.36401 -6.05645 0
M  V30 875 N 91.7747 2.88037 -4.82692 0
M  V30 876 H 83.9257 0.0998155 -2.12165 0
M  V30 877 H 86.1887 0.106907 -0.941953 0
M  V30 878 H 85.8947 0.978739 -3.37807 0
M  V30 879 H 85.7687 2.60411 -2.72885 0
M  V30 880 H 88.1557 2.36384 -1.76655 0
M  V30 881 H 88.2367 0.733945 -2.45045 0
M  V30 882 H 87.8807 1.71776 -4.7797 0
M  V30 883 H 87.8107 3.34799 -4.06469 0
M  V30 884 H 90.3017 2.07734 -3.15682 0
M  V30 885 H 90.6147 3.71186 -6.77821 0
M  V30 886 H 88.9597 3.34427 -6.09248 0
M  V30 887 H 92.1507 2.50237 -3.95599 0
M  V30 888 H 92.3237 3.24792 -5.60726 0
M  V30 889 N 85.7298 1.2412 0.971189 0
M  V30 890 C 86.9758 1.08041 1.71625 0
M  V30 891 C 87.3088 -0.380407 1.90438 0
M  V30 892 O 86.5838 -1.28127 1.46334 0
M  V30 893 C 86.8668 1.81682 3.10908 0
M  V30 894 C 86.7198 3.35493 2.99608 0
M  V30 895 C 88.0388 1.58671 4.10501 0
M  V30 896 H 85.1578 0.39388 0.622919 0
M  V30 897 H 87.7998 1.52743 1.13003 0
M  V30 898 H 85.9498 1.43684 3.60953 0
M  V30 899 H 87.6218 3.83068 2.57015 0
M  V30 900 H 85.8648 3.64052 2.35899 0
M  V30 901 H 86.5358 3.82217 3.98264 0
M  V30 902 H 89.0118 1.91719 3.69301 0
M  V30 903 H 87.8878 2.1266 5.06031 0
M  V30 904 H 88.1488 0.524161 4.38982 0
M  V30 905 N 87.2079 -1.17134 1.05439 0
M  V30 906 C 88.4359 -1.91372 0.786414 0
M  V30 907 C 88.8509 -1.76955 -0.658202 0
M  V30 908 O 88.2079 -1.10838 -1.44987 0
M  V30 909 C 88.2589 -3.42356 1.1608 0
M  V30 910 O 87.9799 -3.56332 2.54871 0
M  V30 911 C 89.4809 -4.33663 0.919322 0
M  V30 912 H 86.7009 -0.607118 0.285743 0
M  V30 913 H 89.2449 -1.48525 1.40572 0
M  V30 914 H 87.3999 -3.82939 0.586191 0
M  V30 915 H 87.8139 -4.49896 2.69618 0
M  V30 916 H 89.2879 -5.38099 1.231 0
M  V30 917 H 89.7649 -4.38959 -0.145359 0
M  V30 918 H 90.3709 -3.98796 1.47789 0
M  V30 919 N 88.686 -0.835752 -1.33615 0
M  V30 920 C 89.934 -0.429109 -1.97492 0
M  V30 921 C 90.255 1.01433 -1.66543 0
M  V30 922 O 89.525 1.70611 -0.962744 0
M  V30 923 H 88.105 -0.155686 -0.730596 0
M  V30 924 H 90.767 -1.06802 -1.63031 0
M  V30 925 H 89.863 -0.55861 -3.0706 0
M  V30 926 N 90.1641 1.46063 -0.591896 0
M  V30 927 C 91.3921 2.06717 -0.0868936 0
M  V30 928 C 91.8071 1.43916 1.22203 0
M  V30 929 O 91.1641 0.547698 1.74088 0
M  V30 930 C 91.2151 3.6142 0.0758725 0
M  V30 931 O 90.9361 4.21874 -1.18126 0
M  V30 932 C 92.4371 4.39025 0.61416 0
M  V30 933 H 89.6571 0.668162 -0.0616518 0
M  V30 934 H 92.2011 1.8755 -0.815175 0
M  V30 935 H 90.3561 3.79983 0.754413 0
M  V30 936 H 90.7701 5.14861 -1.00092 0
M  V30 937 H 92.2441 5.4783 0.677193 0
M  V30 938 H 92.7211 4.07708 1.63312 0
M  V30 939 H 93.3271 4.2529 -0.0298142 0
M  V30 940 N 91.6422 0.330177 1.54103 0
M  V30 941 C 92.5902 -0.548226 2.26047 0
M  V30 942 C 93.5842 -1.11309 1.27698 0
M  V30 943 O 94.7902 -1.06036 1.45452 0
M  V30 944 H 91.1652 -0.195456 0.726155 0
M  V30 945 H 93.1362 0.0807567 2.98291 0
M  V30 946 C 91.8852 -1.69415 3.03634 0
M  V30 947 H 91.2082 -1.26876 3.79134 0
M  V30 948 H 92.6482 -2.28423 3.5721 0
M  V30 949 C 91.1072 -2.61569 2.12328 0
M  V30 950 O 91.6372 -3.63462 1.7105 0
M  V30 951 N 89.8432 -2.29952 1.77681 0
M  V30 952 H 89.3902 -1.47134 2.11446 0
M  V30 953 H 89.3482 -2.91871 1.16869 0
M  V30 954 N 93.1203 -1.57491 0.0584922 0
M  V30 955 C 94.0683 -2.13148 -0.931168 0
M  V30 956 C 95.0623 -1.06507 -1.31729 0
M  V30 957 O 96.2683 -1.24906 -1.29609 0
M  V30 958 H 92.6433 -0.68137 -0.31818 0
M  V30 959 H 94.6143 -2.95187 -0.436707 0
M  V30 960 C 93.3633 -2.69732 -2.19408 0
M  V30 961 H 92.6863 -3.51454 -1.90578 0
M  V30 962 H 94.1263 -3.12287 -2.86798 0
M  V30 963 C 92.5853 -1.63855 -2.94369 0
M  V30 964 O 93.1153 -1.05565 -3.87581 0
M  V30 965 N 91.3213 -1.35202 -2.57233 0
M  V30 966 H 90.8683 -1.82791 -1.81508 0
M  V30 967 H 90.8263 -0.645922 -3.07693 0
M  V30 968 N 94.5984 0.214957 -1.56127 0
M  V30 969 C 95.8284 0.953707 -1.8327 0
M  V30 970 C 96.2364 1.78181 -0.636262 0
M  V30 971 O 95.5794 1.79191 0.404516 0
M  V30 972 C 95.6414 1.91516 -3.0424 0
M  V30 973 C 95.3054 1.27094 -4.38972 0
M  V30 974 C 96.3024 0.657575 -5.15725 0
M  V30 975 C 93.9874 1.28073 -4.85698 0
M  V30 976 C 95.9814 0.0625968 -6.37369 0
M  V30 977 C 93.6684 0.681914 -6.07283 0
M  V30 978 C 94.6664 0.0739046 -6.8296 0
M  V30 979 O 94.3544 -0.515582 -8.02245 0
M  V30 980 H 94.0864 0.284764 -0.613095 0
M  V30 981 H 96.6404 0.233283 -2.04071 0
M  V30 982 H 94.8704 2.67475 -2.79274 0
M  V30 983 H 96.5594 2.52001 -3.18198 0
M  V30 984 H 97.3254 0.642288 -4.80728 0
M  V30 985 H 93.2044 1.74337 -4.26764 0
M  V30 986 H 96.7484 -0.412593 -6.96379 0
M  V30 987 H 92.6454 0.694636 -6.41752 0
M  V30 988 H 93.4134 -0.410544 -8.1747 0
M  V30 989 N 96.0765 1.50051 0.48192 0
M  V30 990 C 97.0395 1.67584 1.5636 0
M  V30 991 C 98.0395 0.546894 1.51214 0
M  V30 992 O 99.2295 0.813725 1.54026 0
M  V30 993 C 96.3615 1.691 2.96003 0
M  V30 994 H 97.5545 2.64078 1.42136 0
M  V30 995 H 95.1075 1.39369 0.707533 0
M  V30 996 H 95.8425 0.742589 3.15684 0
M  V30 997 H 95.6275 2.51105 3.01146 0
M  V30 998 H 97.1175 1.84656 3.74556 0
M  V30 999 N 97.5546 -0.734337 1.39446 0
M  V30 1000 C 98.8316 -1.48579 1.27215 0
M  V30 1001 C 99.2116 -2.1077 -0.117968 0
M  V30 1002 O 98.5596 -1.98646 -1.12924 0
M  V30 1003 C 98.7696 -2.53667 2.39696 0
M  V30 1004 C 100.118 -3.20031 2.79044 0
M  V30 1005 O 101.142 -2.6398 2.39151 0
M  V30 1006 O 100.001 -4.21455 3.47905 0
M  V30 1007 H 97.0946 -0.659816 0.49857 0
M  V30 1008 H 99.6406 -0.768106 1.51322 0
M  V30 1009 H 98.4126 -2.06096 3.32626 0
M  V30 1010 H 98.0356 -3.32994 2.17258 0
M  V30 1011 N 99.0327 -1.24633 -0.964593 0
M  V30 1012 C 100.261 -1.11501 -1.74285 0
M  V30 1013 C 100.676 0.332165 -1.85855 0
M  V30 1014 O 100.033 1.22903 -1.34911 0
M  V30 1015 C 100.084 -1.75258 -3.16175 0
M  V30 1016 O 99.8047 -3.14318 -3.05182 0
M  V30 1017 C 101.306 -1.67776 -4.10324 0
M  V30 1018 H 98.5257 -0.389407 -0.546446 0
M  V30 1019 H 101.07 -1.64801 -1.21083 0
M  V30 1020 H 99.2247 -1.25954 -3.66353 0
M  V30 1021 H 99.6387 -3.4551 -3.94618 0
M  V30 1022 H 101.113 -2.17064 -5.0753 0
M  V30 1023 H 101.59 -0.639584 -4.34518 0
M  V30 1024 H 102.196 -2.16522 -3.66058 0
M  V30 1025 N 100.511 1.16574 -1.06058 0
M  V30 1026 C 101.474 2.19085 -0.673392 0
M  V30 1027 C 102.474 1.5835 0.279648 0
M  V30 1028 O 103.664 1.74088 0.0623488 0
M  V30 1029 C 100.796 3.40899 0.00954234 0
M  V30 1030 H 101.989 2.54853 -1.58081 0
M  V30 1031 H 99.5418 1.30808 -0.855516 0
M  V30 1032 H 100.277 3.10684 0.929826 0
M  V30 1033 H 100.062 3.86233 -0.67573 0
M  V30 1034 H 101.552 4.1675 0.266245 0
M  V30 1035 N 101.989 0.842826 1.3317 0
M  V30 1036 C 102.937 0.267495 2.31057 0
M  V30 1037 C 103.931 -0.602682 1.58316 0
M  V30 1038 O 105.137 -0.491803 1.73151 0
M  V30 1039 H 101.512 0.0677813 0.748939 0
M  V30 1040 H 103.483 1.10754 2.77085 0
M  V30 1041 C 102.232 -0.539331 3.43492 0
M  V30 1042 H 101.555 0.12095 3.99617 0
M  V30 1043 H 102.995 -0.90767 4.14171 0
M  V30 1044 C 101.454 -1.71981 2.89697 0
M  V30 1045 O 101.984 -2.81862 2.86211 0
M  V30 1046 N 100.19 -1.54299 2.46252 0
M  V30 1047 H 99.7369 -0.649143 2.49287 0
M  V30 1048 H 99.6949 -2.33431 2.10612 0
M  V30 1049 N 103.467 -1.45747 0.599634 0
M  V30 1050 C 104.692 -2.07178 0.0960198 0
M  V30 1051 C 105.117 -1.44268 -1.207 0
M  V30 1052 O 104.475 -0.532503 -1.73303 0
M  V30 1053 C 104.523 -3.60579 -0.0385348 0
M  V30 1054 O 103.627 -3.97713 -1.0908 0
M  V30 1055 H 102.968 -0.660251 0.0704593 0
M  V30 1056 H 105.498 -1.87124 0.827385 0
M  V30 1057 H 105.508 -4.07298 -0.239304 0
M  V30 1058 H 104.183 -4.05756 0.912947 0
M  V30 1059 H 102.76 -3.62678 -0.867135 0
M  V30 1060 N 104.945 -0.338344 -1.53925 0
M  V30 1061 C 106.222 0.314774 -1.93051 0
M  V30 1062 C 106.602 1.68669 -1.26941 0
M  V30 1063 O 105.95 2.24636 -0.418445 0
M  V30 1064 C 106.16 0.392249 -3.46789 0
M  V30 1065 C 107.508 0.645554 -4.19664 0
M  V30 1066 O 108.532 0.474575 -3.53024 0
M  V30 1067 O 107.391 0.976408 -5.37707 0
M  V30 1068 H 104.485 0.182598 -0.80659 0
M  V30 1069 H 107.031 -0.389141 -1.65178 0
M  V30 1070 H 105.803 -0.570702 -3.87116 0
M  V30 1071 H 105.426 1.14316 -3.80812 0
M  V30 1072 N 106.423 1.57458 -0.0668435 0
M  V30 1073 C 107.669 1.93587 0.6043 0
M  V30 1074 C 108.002 0.946722 1.69561 0
M  V30 1075 O 107.277 -0.0248516 1.94484 0
M  V30 1076 C 107.56 3.40014 1.18585 0
M  V30 1077 C 107.413 4.49685 0.101529 0
M  V30 1078 C 108.732 3.87154 2.09284 0
M  V30 1079 H 105.851 0.703958 0.218202 0
M  V30 1080 H 108.493 1.89542 -0.131804 0
M  V30 1081 H 106.643 3.43592 1.81319 0
M  V30 1082 H 108.315 4.5823 -0.531279 0
M  V30 1083 H 106.558 4.30059 -0.568487 0
M  V30 1084 H 107.229 5.49266 0.54874 0
M  V30 1085 H 109.705 3.85551 1.56491 0
M  V30 1086 H 108.581 4.90231 2.46911 0
M  V30 1087 H 108.842 3.2481 2.99918 0
M  V30 1088 N 107.901 -0.206675 1.56239 0
M  V30 1089 C 109.15 -0.926964 1.79138 0
M  V30 1090 C 109.463 -1.84901 0.638043 0
M  V30 1091 O 110.669 -2.60906 0.751033 0
M  V30 1092 C 109.125 -1.6986 3.17294 0
M  V30 1093 C 108.733 -0.821956 4.40395 0
M  V30 1094 C 110.477 -2.40922 3.4951 0
M  V30 1095 C 108.384 -1.59179 5.69575 0
M  V30 1096 H 107.314 -0.349864 0.667915 0
M  V30 1097 H 109.965 -0.180487 1.8261 0
M  V30 1098 H 108.347 -2.48853 3.08039 0
M  V30 1099 H 109.521 -0.0715019 4.60745 0
M  V30 1100 H 107.836 -0.222741 4.15804 0
M  V30 1101 H 110.433 -2.99047 4.43255 0
M  V30 1102 H 110.776 -3.14542 2.72707 0
M  V30 1103 H 111.309 -1.68905 3.60161 0
M  V30 1104 H 108.048 -0.898589 6.49312 0
M  V30 1105 H 107.568 -2.31648 5.53262 0
M  V30 1106 H 109.247 -2.14862 6.10281 0
M  V30 1107 N 109.379 -1.50304 -0.473955 0
M  V30 1108 C 110.625 -1.61389 -1.22806 0
M  V30 1109 C 110.958 -0.311955 -1.91678 0
M  V30 1110 O 110.233 0.686384 -1.81986 0
M  V30 1111 C 110.516 -2.79219 -2.27396 0
M  V30 1112 C 110.369 -4.19286 -1.62848 0
M  V30 1113 C 111.688 -2.92614 -3.28732 0
M  V30 1114 H 108.807 -0.587399 -0.445119 0
M  V30 1115 H 111.449 -1.82681 -0.522265 0
M  V30 1116 H 109.599 -2.61195 -2.87592 0
M  V30 1117 H 111.271 -4.48892 -1.06271 0
M  V30 1118 H 109.514 -4.23677 -0.931693 0
M  V30 1119 H 110.185 -4.97655 -2.38838 0
M  V30 1120 H 112.661 -3.09105 -2.78556 0
M  V30 1121 H 111.537 -3.76688 -3.99246 0
M  V30 1122 H 111.798 -2.03107 -3.92683 0
M  V30 1123 N 110.857 0.726932 -1.39834 0
M  V30 1124 C 112.103 1.48884 -1.377 0
M  V30 1125 C 112.436 1.94185 0.0244852 0
M  V30 1126 O 111.711 1.67361 0.990986 0
M  V30 1127 C 111.994 2.72288 -2.3565 0
M  V30 1128 C 111.847 2.32956 -3.84775 0
M  V30 1129 C 113.166 3.74414 -2.31306 0
M  V30 1130 H 110.285 0.540062 -0.5015 0
M  V30 1131 H 112.927 0.830547 -1.70886 0
M  V30 1132 H 111.077 3.28457 -2.07481 0
M  V30 1133 H 112.749 1.82356 -4.23726 0
M  V30 1134 H 110.992 1.65088 -4.01159 0
M  V30 1135 H 111.663 3.21362 -4.4881 0
M  V30 1136 H 114.139 3.27849 -2.56231 0
M  V30 1137 H 113.015 4.58414 -3.01907 0
M  V30 1138 H 113.276 4.21909 -1.32081 0
M  V30 1139 N 112.336 1.25143 0.95797 0
M  V30 1140 C 113.564 1.12424 1.73691 0
M  V30 1141 C 113.979 -0.322304 1.86029 0
M  V30 1142 O 113.336 -1.22186 1.35561 0
M  V30 1143 C 113.387 1.76933 3.15241 0
M  V30 1144 O 113.108 3.15932 3.03511 0
M  V30 1145 C 114.609 1.6995 4.09429 0
M  V30 1146 H 111.829 0.3923 0.544373 0
M  V30 1147 H 114.373 1.6544 1.20207 0
M  V30 1148 H 112.528 1.27895 3.6568 0
M  V30 1149 H 112.942 3.47598 3.9278 0
M  V30 1150 H 114.416 2.19753 5.06372 0
M  V30 1151 H 114.893 0.662619 4.34173 0
M  V30 1152 H 115.499 2.18461 3.64904 0
M  V30 1153 N 113.814 -1.1601 1.06675 0
M  V30 1154 C 115.039 -1.91068 0.806706 0
M  V30 1155 C 115.464 -1.77112 -0.633485 0
M  V30 1156 O 114.822 -1.09908 -1.44187 0
M  V30 1157 C 114.87 -3.39655 1.21106 0
M  V30 1158 O 113.974 -4.10893 0.352189 0
M  V30 1159 H 113.315 -0.595125 0.294486 0
M  V30 1160 H 115.845 -1.46955 1.42356 0
M  V30 1161 H 115.855 -3.90434 1.18428 0
M  V30 1162 H 114.53 -3.49132 2.26008 0
M  V30 1163 H 113.107 -3.70285 0.440868 0
M  V30 1164 N 115.292 -0.849877 -1.32721 0
M  V30 1165 C 116.54 -0.450032 -1.97026 0
M  V30 1166 C 116.861 0.996604 -1.67609 0
M  V30 1167 O 116.131 1.6958 -0.980786 0
M  V30 1168 H 114.711 -0.163426 -0.728904 0
M  V30 1169 H 117.373 -1.08526 -1.6189 0
M  V30 1170 H 116.469 -0.591146 -3.0645 0
M  V30 1171 N 116.77 1.45427 -0.607355 0
M  V30 1172 C 117.733 2.28974 0.101693 0
M  V30 1173 C 118.733 1.39754 0.795329 0
M  V30 1174 O 119.923 1.61878 0.643527 0
M  V30 1175 C 117.055 3.20768 1.15414 0
M  V30 1176 H 118.248 2.93147 -0.632844 0
M  V30 1177 H 115.801 1.51945 -0.366391 0
M  V30 1178 H 116.536 2.61395 1.91945 0
M  V30 1179 H 116.321 3.86489 0.66098 0
M  V30 1180 H 117.811 3.83589 1.65073 0
M  V30 1181 N 118.248 0.346503 1.53744 0
M  V30 1182 C 119.659 -0.136779 1.86198 0
M  V30 1183 C 120.01 -1.49749 1.26766 0
M  V30 1184 O 119.135 -2.08417 0.582355 0
M  V30 1185 C 119.73 -0.254966 3.37839 0
M  V30 1186 C 118.289 -0.682482 3.70161 0
M  V30 1187 C 117.436 0.181981 2.76702 0
M  V30 1188 H 120.387 0.565994 1.48264 0
M  V30 1189 H 120.408 -1.08195 3.64793 0
M  V30 1190 H 119.92 0.735526 3.81066 0
M  V30 1191 H 118.021 -1.68189 3.3248 0
M  V30 1192 H 118.134 -0.470326 4.76786 0
M  V30 1193 H 116.498 -0.34615 2.52337 0
M  V30 1194 H 117.281 1.16966 3.2276 0
M  V30 1195 N 119.726 -1.57421 0.075193 0
M  V30 1196 C 121.142 -1.57099 -0.281444 0
M  V30 1197 C 121.342 -1.08486 -1.69803 0
M  V30 1198 O 120.398 -0.752279 -2.41033 0
M  V30 1199 C 121.711 -3.00571 -0.0880041 0
M  V30 1200 C 123.259 -3.12605 -0.157281 0
M  V30 1201 C 123.734 -4.57999 0.0079207 0
M  V30 1202 N 125.225 -4.63176 -0.0475725 0
M  V30 1203 C 125.96 -5.73373 0.0557876 0
M  V30 1204 N 125.456 -6.92473 0.21286 0
M  V30 1205 N 127.249 -5.621 -0.00152098 0
M  V30 1206 H 119.4 -1.87335 1.00098 0
M  V30 1207 H 121.663 -0.86377 0.390646 0
M  V30 1208 H 121.369 -3.40262 0.889629 0
M  V30 1209 H 121.243 -3.67754 -0.838875 0
M  V30 1210 H 123.63 -2.72798 -1.1254 0
M  V30 1211 H 123.711 -2.48053 0.62475 0
M  V30 1212 H 123.355 -4.98496 0.972824 0
M  V30 1213 H 123.285 -5.20586 -0.793556 0
M  V30 1214 H 125.776 -3.7753 -0.167244 0
M  V30 1215 H 126.089 -7.72279 0.283781 0
M  V30 1216 H 124.434 -6.94556 0.248267 0
M  V30 1217 H 127.625 -4.67938 -0.122958 0
M  V30 1218 H 127.798 -6.47948 0.0824844 0
M  V30 1219 N 121.204 0.198386 -1.56346 0
M  V30 1220 C 122.151 1.24589 -1.94284 0
M  V30 1221 C 123.121 1.454 -0.802997 0
M  V30 1222 O 124.306 1.58588 -1.06087 0
M  V30 1223 C 121.446 2.58631 -2.28482 0
M  V30 1224 C 120.559 2.45426 -3.55514 0
M  V30 1225 C 119.694 3.7215 -3.79049 0
M  V30 1226 C 118.733 3.53763 -4.99518 0
M  V30 1227 N 117.87 4.72491 -5.19323 0
M  V30 1228 H 122.71 0.915356 -2.83593 0
M  V30 1229 H 120.247 0.440629 -1.40346 0
M  V30 1230 H 122.205 3.3672 -2.46324 0
M  V30 1231 H 120.835 2.89734 -1.42317 0
M  V30 1232 H 119.887 1.58652 -3.45737 0
M  V30 1233 H 121.199 2.27772 -4.43758 0
M  V30 1234 H 120.353 4.58679 -3.97113 0
M  V30 1235 H 119.092 3.92754 -2.89129 0
M  V30 1236 H 118.097 2.65619 -4.8138 0
M  V30 1237 H 119.322 3.34607 -5.90944 0
M  V30 1238 H 117.268 4.93365 -4.3235 0
M  V30 1239 H 117.185 4.5765 -6.01741 0
M  V30 1240 H 118.453 5.6038 -5.41843 0
M  V30 1241 N 122.682 1.50554 0.465978 0
M  V30 1242 C 124.093 1.54599 1.04671 0
M  V30 1243 C 124.444 0.352488 1.93008 0
M  V30 1244 O 123.569 -0.534044 2.09707 0
M  V30 1245 C 124.164 2.80166 1.90505 0
M  V30 1246 C 122.723 2.86876 2.43678 0
M  V30 1247 C 121.87 2.48947 1.22151 0
M  V30 1248 H 124.821 1.56744 0.248384 0
M  V30 1249 H 124.842 2.62311 2.75633 0
M  V30 1250 H 124.354 3.67013 1.26186 0
M  V30 1251 H 122.455 2.04393 3.11536 0
M  V30 1252 H 122.568 3.89885 2.78436 0
M  V30 1253 H 120.932 2.01498 1.5579 0
M  V30 1254 H 121.715 3.38107 0.594866 0
M  V30 1255 N 124.16 -0.719506 1.40217 0
M  V30 1256 C 125.408 -1.47641 1.3801 0
M  V30 1257 C 125.729 -1.94992 -0.018145 0
M  V30 1258 O 124.999 -1.70073 -0.972207 0
M  V30 1259 H 123.579 -0.547744 0.507923 0
M  V30 1260 H 126.241 -0.853187 1.75233 0
M  V30 1261 H 125.337 -2.35112 2.05253 0
M  V30 1262 N 125.638 -1.25649 -0.95132 0
M  V30 1263 C 126.571 -1.00644 -2.04807 0
M  V30 1264 C 127.549 0.0654271 -1.62468 0
M  V30 1265 O 128.733 -0.074911 -1.88351 0
M  V30 1266 C 125.86 -0.522052 -3.34653 0
M  V30 1267 C 124.906 -1.58495 -3.95957 0
M  V30 1268 S 125.739 -3.17108 -4.31512 0
M  V30 1269 C 126.895 -2.70412 -5.64471 0
M  V30 1270 H 127.128 -1.93508 -2.25703 0
M  V30 1271 H 124.661 -1.09216 -1.09139 0
M  V30 1272 H 126.619 -0.24923 -4.09743 0
M  V30 1273 H 125.28 0.386146 -3.11717 0
M  V30 1274 H 124.473 -1.1968 -4.89584 0
M  V30 1275 H 124.075 -1.80862 -3.2736 0
M  V30 1276 H 126.367 -2.14245 -6.42733 0
M  V30 1277 H 127.31 -3.62693 -6.08161 0
M  V30 1278 H 127.718 -2.10302 -5.23864 0
M  V30 1279 N 127.117 1.15442 -1.07289 0
M  V30 1280 C 128.342 1.90638 -0.816828 0
M  V30 1281 C 128.767 1.77445 0.624083 0
M  V30 1282 O 128.125 1.10671 1.43602 0
M  V30 1283 C 128.173 3.39008 -1.22906 0
M  V30 1284 O 127.277 4.10701 -0.373975 0
M  V30 1285 H 126.618 0.593555 -0.297638 0
M  V30 1286 H 129.148 1.46198 -1.43134 0
M  V30 1287 H 129.158 3.89801 -1.20497 0
M  V30 1288 H 127.833 3.47929 -2.27856 0
M  V30 1289 H 126.41 3.70046 -0.460499 0
M  V30 1290 N 128.595 0.856903 1.32268 0
M  V30 1291 C 130.011 0.547061 1.49931 0
M  V30 1292 C 130.211 -0.921781 1.7918 0
M  V30 1293 O 129.267 -1.70469 1.8627 0
M  V30 1294 C 130.58 1.43599 2.64196 0
M  V30 1295 C 132.128 1.43665 2.78081 0
M  V30 1296 C 132.603 2.31085 3.95428 0
M  V30 1297 N 134.094 2.28893 4.02694 0
M  V30 1298 C 134.829 2.93262 4.92732 0
M  V30 1299 N 134.325 3.66751 5.87763 0
M  V30 1300 N 136.118 2.82638 4.85873 0
M  V30 1301 H 128.269 1.8075 1.11549 0
M  V30 1302 H 130.532 0.772144 0.549997 0
M  V30 1303 H 130.238 2.48058 2.49319 0
M  V30 1304 H 130.112 1.12502 3.60032 0
M  V30 1305 H 132.499 0.399701 2.92381 0
M  V30 1306 H 132.58 1.7878 1.82952 0
M  V30 1307 H 132.224 3.34849 3.81888 0
M  V30 1308 H 132.154 1.93302 4.89839 0
M  V30 1309 H 134.645 1.75466 3.34694 0
M  V30 1310 H 134.958 4.13027 6.53168 0
M  V30 1311 H 133.303 3.70859 5.87783 0
M  V30 1312 H 136.494 2.24774 4.10602 0
M  V30 1313 H 136.667 3.33084 5.55841 0
M  V30 1314 N 130.073 -1.45103 0.615059 0
M  V30 1315 C 130.983 -2.34382 -0.101034 0
M  V30 1316 C 131.999 -1.51681 -0.852585 0
M  V30 1317 O 133.175 -1.8446 -0.808484 0
M  V30 1318 C 130.24 -3.29417 -1.08099 0
M  V30 1319 C 129.301 -4.28025 -0.330577 0
M  V30 1320 C 128.534 -5.1852 -1.26385 0
M  V30 1321 O 128.757 -5.12598 -2.50198 0
M  V30 1322 O 127.691 -5.97122 -0.756866 0
M  V30 1323 H 131.517 -2.97033 0.632855 0
M  V30 1324 H 129.102 -1.4461 0.375293 0
M  V30 1325 H 130.984 -3.87958 -1.6452 0
M  V30 1326 H 129.659 -2.69321 -1.79577 0
M  V30 1327 H 128.566 -3.73078 0.276283 0
M  V30 1328 H 129.899 -4.90997 0.343866 0
M  V30 1329 N 131.551 -0.354651 -1.53558 0
M  V30 1330 C 132.828 0.294281 -1.93374 0
M  V30 1331 C 133.208 1.67313 -1.28723 0
M  V30 1332 O 132.556 2.24179 -0.442247 0
M  V30 1333 C 132.766 0.355445 -3.47185 0
M  V30 1334 C 134.114 0.601007 -4.20325 0
M  V30 1335 O 135.138 0.437106 -3.53508 0
M  V30 1336 O 133.997 0.919322 -5.38712 0
M  V30 1337 H 131.091 0.174033 -0.808481 0
M  V30 1338 H 133.637 -0.406638 -1.64756 0
M  V30 1339 H 132.409 -0.611729 -3.86489 0
M  V30 1340 H 132.032 1.1027 -3.82003 0
M  V30 1341 N 133.029 1.57378 -0.0835403 0
M  V30 1342 C 133.959 2.1641 0.87686 0
M  V30 1343 C 134.94 1.09429 1.30228 0
M  V30 1344 O 136.125 1.37516 1.37124 0
M  V30 1345 C 133.255 2.73517 2.14022 0
M  V30 1346 C 132.209 3.85769 1.85381 0
M  V30 1347 C 131.535 4.29529 3.18448 0
M  V30 1348 C 132.835 5.09486 1.14984 0
M  V30 1349 H 134.529 2.96914 0.385059 0
M  V30 1350 H 132.075 1.42823 0.18377 0
M  V30 1351 H 134.028 3.13463 2.81636 0
M  V30 1352 H 132.752 1.90252 2.65465 0
M  V30 1353 H 131.411 3.46345 1.20169 0
M  V30 1354 H 131.059 3.43169 3.67755 0
M  V30 1355 H 130.759 5.05204 3.00071 0
M  V30 1356 H 132.283 4.72099 3.8724 0
M  V30 1357 H 133.697 5.46674 1.72687 0
M  V30 1358 H 132.094 5.90515 1.06826 0
M  V30 1359 H 133.164 4.84724 0.130749 0
M  V30 1360 N 134.507 -0.190092 1.56449 0
M  V30 1361 C 135.756 -0.907912 1.80111 0
M  V30 1362 C 136.069 -1.84214 0.657619 0
M  V30 1363 O 137.275 -2.60094 0.778663 0
M  V30 1364 C 135.731 -1.66485 3.19078 0
M  V30 1365 C 135.339 -0.7752 4.41242 0
M  V30 1366 C 137.083 -2.37201 3.52045 0
M  V30 1367 C 134.99 -1.53129 5.71231 0
M  V30 1368 H 133.92 -0.34276 0.671589 0
M  V30 1369 H 136.571 -0.161109 1.82791 0
M  V30 1370 H 134.953 -2.45572 3.10661 0
M  V30 1371 H 136.127 -0.0226298 4.60794 0
M  V30 1372 H 134.442 -0.178627 4.16017 0
M  V30 1373 H 137.039 -2.94329 4.46402 0
M  V30 1374 H 137.382 -3.11632 2.76028 0
M  V30 1375 H 137.915 -1.65075 3.61932 0
M  V30 1376 H 134.654 -0.82967 6.50228 0
M  V30 1377 H 134.174 -2.25767 5.55688 0
M  V30 1378 H 135.853 -2.08377 6.12526 0
M  V30 1379 N 135.985 -1.50799 -0.457987 0
M  V30 1380 C 136.932 -1.70617 -1.5543 0
M  V30 1381 C 137.902 -0.547562 -1.56815 0
M  V30 1382 O 139.087 -0.779647 -1.74144 0
M  V30 1383 C 136.227 -1.81831 -2.93311 0
M  V30 1384 C 135.34 -3.09278 -3.01615 0
M  V30 1385 C 134.475 -3.11209 -4.30491 0
M  V30 1386 C 133.514 -4.33055 -4.32585 0
M  V30 1387 N 132.651 -4.32652 -5.52952 0
M  V30 1388 H 137.491 -2.64207 -1.37836 0
M  V30 1389 H 135.028 -1.30959 -0.669937 0
M  V30 1390 H 136.986 -1.86314 -3.73287 0
M  V30 1391 H 135.616 -0.916685 -3.0951 0
M  V30 1392 H 134.668 -3.14203 -2.1443 0
M  V30 1393 H 135.98 -3.99233 -2.99022 0
M  V30 1394 H 135.134 -3.14494 -5.18824 0
M  V30 1395 H 133.873 -2.19106 -4.35711 0
M  V30 1396 H 132.878 -4.29969 -3.42647 0
M  V30 1397 H 134.103 -5.264 -4.29046 0
M  V30 1398 H 132.049 -3.43409 -5.58933 0
M  V30 1399 H 131.966 -5.16392 -5.52155 0
M  V30 1400 H 133.234 -4.40101 -6.43375 0
M  V30 1401 N 137.463 0.71206 -1.40597 0
M  V30 1402 C 138.709 1.47416 -1.39271 0
M  V30 1403 C 139.042 1.942 0.00388791 0
M  V30 1404 O 138.317 1.68403 0.973179 0
M  V30 1405 C 138.6 2.69774 -2.38525 0
M  V30 1406 C 138.453 2.28861 -3.87224 0
M  V30 1407 C 139.772 3.71939 -2.35264 0
M  V30 1408 H 136.891 0.534713 -0.5072 0
M  V30 1409 H 139.533 0.812375 -1.71757 0
M  V30 1410 H 137.683 3.26238 -2.10953 0
M  V30 1411 H 139.355 1.77852 -4.25636 0
M  V30 1412 H 137.598 1.60824 -4.02887 0
M  V30 1413 H 138.269 3.16584 -4.52193 0
M  V30 1414 H 140.745 3.25113 -2.59694 0
M  V30 1415 H 139.621 4.55186 -3.06753 0
M  V30 1416 H 139.882 4.20484 -1.36549 0
M  V30 1417 N 138.941 1.26152 0.944643 0
M  V30 1418 C 139.889 1.07215 2.06417 0
M  V30 1419 C 140.883 9.2007e-05 1.694 0
M  V30 1420 O 142.089 0.1565 1.79318 0
M  V30 1421 H 138.464 0.329837 0.675805 0
M  V30 1422 H 140.435 2.02099 2.19541 0
M  V30 1423 C 139.184 0.718197 3.40202 0
M  V30 1424 H 138.507 1.53497 3.69159 0
M  V30 1425 H 139.947 0.625459 4.19361 0
M  V30 1426 C 138.406 -0.576435 3.31932 0
M  V30 1427 O 138.936 -1.61574 3.67773 0
M  V30 1428 N 137.142 -0.565781 2.85039 0
M  V30 1429 H 136.689 0.280367 2.5607 0
M  V30 1430 H 136.647 -1.43213 2.79888 0
M  V30 1431 N 140.419 -1.14872 1.07899 0
M  V30 1432 C 141.382 -2.17986 0.708161 0
M  V30 1433 C 142.382 -1.58775 -0.25442 0
M  V30 1434 O 143.572 -1.74166 -0.034645 0
M  V30 1435 C 140.704 -3.40871 0.0446929 0
M  V30 1436 H 141.897 -2.52306 1.62116 0
M  V30 1437 H 139.45 -1.2943 0.876218 0
M  V30 1438 H 140.185 -3.12124 -0.880281 0
M  V30 1439 H 139.97 -3.8511 0.737091 0
M  V30 1440 H 141.46 -4.17121 -0.19991 0
M  V30 1441 N 141.898 -0.863906 -1.31812 0
M  V30 1442 C 143.175 -0.39275 -1.91616 0
M  V30 1443 C 143.555 1.12461 -1.7865 0
M  V30 1444 O 142.903 1.95045 -1.19037 0
M  V30 1445 C 143.113 -0.867385 -3.38049 0
M  V30 1446 C 144.461 -0.889966 -4.15168 0
M  V30 1447 O 145.485 -0.812635 -3.46806 0
M  V30 1448 O 144.344 -1.00079 -5.37258 0
M  V30 1449 H 141.438 -0.116358 -0.818773 0
M  V30 1450 H 143.984 -0.951418 -1.40521 0
M  V30 1451 H 142.756 -1.91081 -3.41473 0
M  V30 1452 H 142.379 -0.286687 -3.96565 0
M  V30 1453 N 143.376 1.44774 -0.622745 0
M  V30 1454 C 144.625 2.01334 -0.121397 0
M  V30 1455 C 144.938 1.49505 1.26125 0
M  V30 1456 O 146.144 1.98139 1.85616 0
M  V30 1457 C 144.6 3.59516 -0.166298 0
M  V30 1458 C 144.208 4.20342 -1.54974 0
M  V30 1459 C 145.952 4.23582 0.279021 0
M  V30 1460 C 143.859 5.70721 -1.55021 0
M  V30 1461 H 142.789 0.752851 -0.0416172 0
M  V30 1462 H 145.44 1.66083 -0.780309 0
M  V30 1463 H 143.822 3.92027 0.559557 0
M  V30 1464 H 144.996 3.99381 -2.29851 0
M  V30 1465 H 143.311 3.68529 -1.93843 0
M  V30 1466 H 145.908 5.33868 0.298083 0
M  V30 1467 H 146.251 3.95327 1.30471 0
M  V30 1468 H 146.784 3.95843 -0.394063 0
M  V30 1469 H 143.523 6.03698 -2.55399 0
M  V30 1470 H 143.043 5.93829 -0.844245 0
M  V30 1471 H 144.722 6.34203 -1.28047 0
M  V30 1472 N 144.854 0.36279 1.53368 0
M  V30 1473 C 146.082 -0.228613 2.05633 0
M  V30 1474 C 146.497 -1.42676 1.23649 0
M  V30 1475 O 145.854 -1.80394 0.27647 0
M  V30 1476 C 145.905 -0.624845 3.56059 0
M  V30 1477 O 145.626 0.525675 4.34935 0
M  V30 1478 C 147.127 -1.27493 4.24571 0
M  V30 1479 H 144.347 -0.0407183 0.669763 0
M  V30 1480 H 146.891 0.520352 1.97769 0
M  V30 1481 H 145.046 -1.32373 3.64083 0
M  V30 1482 H 145.46 0.205969 5.24095 0
M  V30 1483 H 146.934 -1.50277 5.31151 0
M  V30 1484 H 147.411 -2.23439 3.78116 0
M  V30 1485 H 148.017 -0.617558 4.20792 0
M  V30 1486 N 146.332 -1.57332 0.0918853 0
M  V30 1487 C 147.748 -1.57389 -0.264766 0
M  V30 1488 C 147.948 -1.10281 -1.68643 0
M  V30 1489 O 147.004 -0.777801 -2.40222 0
M  V30 1490 C 148.317 -3.00648 -0.0561195 0
M  V30 1491 C 149.865 -3.12754 -0.124116 0
M  V30 1492 C 150.34 -4.57965 0.0564972 0
M  V30 1493 N 151.831 -4.632 0.00155611 0
M  V30 1494 C 152.566 -5.73281 0.116598 0
M  V30 1495 N 152.062 -6.92208 0.286294 0
M  V30 1496 N 153.855 -5.6207 0.0580973 0
M  V30 1497 H 146.006 -1.86262 1.02079 0
M  V30 1498 H 148.269 -0.859579 0.399786 0
M  V30 1499 H 147.975 -3.393 0.925669 0
M  V30 1500 H 147.849 -3.68623 -0.799823 0
M  V30 1501 H 150.236 -2.73976 -1.09641 0
M  V30 1502 H 150.317 -2.47377 0.651024 0
M  V30 1503 H 149.961 -4.97436 1.02564 0
M  V30 1504 H 149.891 -5.21399 -0.738297 0
M  V30 1505 H 152.382 -3.77686 -0.127192 0
M  V30 1506 H 152.695 -7.71934 0.365676 0
M  V30 1507 H 151.04 -6.94254 0.32192 0
M  V30 1508 H 154.231 -4.68043 -0.0733204 0
M  V30 1509 H 154.404 -6.47824 0.151203 0
M  V30 1510 N 147.81 0.181792 -1.56548 0
M  V30 1511 C 148.773 1.20894 -1.94724 0
M  V30 1512 C 149.773 1.37738 -0.829747 0
M  V30 1513 O 150.963 1.35323 -1.09697 0
M  V30 1514 C 148.095 2.57593 -2.23291 0
M  V30 1515 H 149.288 0.882275 -2.86629 0
M  V30 1516 H 146.841 0.423838 -1.50444 0
M  V30 1517 H 147.576 2.95291 -1.34067 0
M  V30 1518 H 147.361 2.46735 -3.04736 0
M  V30 1519 H 148.851 3.31637 -2.53785 0
M  V30 1520 N 149.288 1.51039 0.449983 0
M  V30 1521 C 150.528 1.64732 1.21007 0
M  V30 1522 C 150.892 0.349865 1.88785 0
M  V30 1523 O 152.093 0.362431 2.66345 0
M  V30 1524 C 150.364 2.80902 2.20973 0
M  V30 1525 S 151.923 3.14851 3.05638 0
M  V30 1526 H 148.741 0.5805 0.410538 0
M  V30 1527 H 151.343 1.88901 0.503634 0
M  V30 1528 H 150.047 3.73627 1.69796 0
M  V30 1529 H 149.578 2.58882 2.96215 0
M  V30 1530 H 151.593 2.60306 4.22439 0
M  V30 1531 N 150.766 -0.704594 1.40972 0
M  V30 1532 C 152.015 -1.46018 1.39146 0
M  V30 1533 C 152.328 -1.956 0.000589254 0
M  V30 1534 O 153.534 -2.71137 -0.1403 0
M  V30 1535 C 151.99 -2.63996 2.4461 0
M  V30 1536 C 151.598 -2.21238 3.89561 0
M  V30 1537 C 153.342 -3.41677 2.51907 0
M  V30 1538 C 151.249 -3.3612 4.86598 0
M  V30 1539 H 150.179 -0.548444 0.517422 0
M  V30 1540 H 152.83 -0.765784 1.66757 0
M  V30 1541 H 151.212 -3.3566 2.10115 0
M  V30 1542 H 152.386 -1.56923 4.33257 0
M  V30 1543 H 150.701 -1.56574 3.85841 0
M  V30 1544 H 153.298 -4.27182 3.2159 0
M  V30 1545 H 153.641 -3.86247 1.55303 0
M  V30 1546 H 154.174 -2.77064 2.85448 0
M  V30 1547 H 150.913 -2.96572 5.84573 0
M  V30 1548 H 150.433 -3.99315 4.47557 0
M  V30 1549 H 152.112 -4.02029 5.06934 0
M  V30 1550 N 152.244 -1.26651 -0.937939 0
M  V30 1551 C 153.469 -1.15279 -1.72411 0
M  V30 1552 C 153.894 0.287866 -1.85884 0
M  V30 1553 O 153.252 1.20855 -1.35143 0
M  V30 1554 C 153.3 -1.83028 -3.10698 0
M  V30 1555 O 152.404 -1.12128 -3.96864 0
M  V30 1556 H 151.745 -0.401504 -0.528858 0
M  V30 1557 H 154.275 -1.67531 -1.1745 0
M  V30 1558 H 154.285 -1.89981 -3.6107 0
M  V30 1559 H 152.96 -2.87833 -3.00208 0
M  V30 1560 H 151.537 -1.13173 -3.55312 0
M  V30 1561 N 153.722 1.14298 -1.08507 0
M  V30 1562 C 154.654 2.1907 -0.673859 0
M  V30 1563 C 155.667 1.60381 0.279577 0
M  V30 1564 O 156.856 1.78374 0.0670754 0
M  V30 1565 C 153.956 3.38888 0.0290979 0
M  V30 1566 C 153.129 4.27103 -0.943494 0
M  V30 1567 C 152.188 5.25477 -0.275676 0
M  V30 1568 O 151.214 5.61709 -0.920401 0
M  V30 1569 N 152.416 5.7227 0.974013 0
M  V30 1570 H 155.181 2.54965 -1.57521 0
M  V30 1571 H 152.742 1.29528 -0.971287 0
M  V30 1572 H 154.734 4.01761 0.48683 0
M  V30 1573 H 153.304 3.01309 0.832555 0
M  V30 1574 H 152.524 3.61149 -1.58004 0
M  V30 1575 H 153.812 4.82905 -1.60251 0
M  V30 1576 H 153.21 5.44965 1.51755 0
M  V30 1577 H 151.767 6.37127 1.37522 0
M  V30 1578 N 155.201 0.870884 1.31352 0
M  V30 1579 C 156.164 0.332243 2.26779 0
M  V30 1580 C 157.164 -0.517302 1.52252 0
M  V30 1581 O 158.354 -0.326477 1.71113 0
M  V30 1582 C 155.486 -0.528066 3.36785 0
M  V30 1583 H 156.679 1.17469 2.75937 0
M  V30 1584 H 154.232 0.64655 1.423 0
M  V30 1585 H 154.967 -1.39167 2.92922 0
M  V30 1586 H 154.752 0.0802582 3.92018 0
M  V30 1587 H 156.242 -0.897179 4.07849 0
M  V30 1588 N 156.679 -1.44442 0.630414 0
M  V30 1589 C 157.642 -2.29107 -0.0652523 0
M  V30 1590 C 158.642 -1.41002 -0.772995 0
M  V30 1591 O 159.832 -1.62881 -0.617692 0
M  V30 1592 C 156.964 -3.22564 -1.10296 0
M  V30 1593 H 158.157 -2.92103 0.679401 0
M  V30 1594 H 155.71 -1.51343 0.390517 0
M  V30 1595 H 156.445 -2.64416 -1.87762 0
M  V30 1596 H 156.23 -3.87491 -0.59941 0
M  V30 1597 H 157.72 -3.86167 -1.5895 0
M  V30 1598 N 158.157 -0.370918 -1.53173 0
M  V30 1599 C 159.568 0.107139 -1.86392 0
M  V30 1600 C 159.919 1.47714 -1.29132 0
M  V30 1601 O 159.044 2.07464 -0.615439 0
M  V30 1602 C 159.639 0.201187 -3.38202 0
M  V30 1603 C 158.198 0.623507 -3.712 0
M  V30 1604 C 157.345 -0.225978 -2.76378 0
M  V30 1605 H 160.296 -0.58951 -1.47345 0
M  V30 1606 H 160.317 1.02377 -3.66468 0
M  V30 1607 H 159.829 -0.796058 -3.79848 0
M  V30 1608 H 157.93 1.62879 -3.35114 0
M  V30 1609 H 158.043 0.394414 -4.77474 0
M  V30 1610 H 156.407 0.305962 -2.52856 0
M  V30 1611 H 157.19 -1.22086 -3.20858 0
M  V30 1612 N 159.635 1.57281 -0.100228 0
M  V30 1613 C 160.565 2.17328 0.853857 0
M  V30 1614 C 161.546 1.10804 1.2906 0
M  V30 1615 O 162.731 1.38963 1.35657 0
M  V30 1616 C 159.861 2.75772 2.11109 0
M  V30 1617 C 158.815 3.87713 1.81279 0
M  V30 1618 C 158.141 4.32882 3.13874 0
M  V30 1619 C 159.441 5.10677 1.09574 0
M  V30 1620 H 161.135 2.97305 0.353545 0
M  V30 1621 H 158.681 1.43009 0.168612 0
M  V30 1622 H 160.634 3.16433 2.78296 0
M  V30 1623 H 159.358 1.93057 2.63432 0
M  V30 1624 H 158.017 3.476 1.16489 0
M  V30 1625 H 157.665 3.47051 3.64095 0
M  V30 1626 H 157.365 5.08358 2.94696 0
M  V30 1627 H 158.889 4.7618 3.82211 0
M  V30 1628 H 160.303 5.48474 1.66879 0
M  V30 1629 H 158.7 5.91615 1.00557 0
M  V30 1630 H 159.77 4.84835 0.0793299 0
M  V30 1631 N 161.113 -0.173488 1.56642 0
M  V30 1632 C 162.338 -0.910149 1.86363 0
M  V30 1633 C 162.763 -1.75132 0.686318 0
M  V30 1634 O 162.121 -1.77595 -0.364643 0
M  V30 1635 C 162.169 -1.76447 3.14482 0
M  V30 1636 O 161.273 -2.86584 2.96553 0
M  V30 1637 H 160.614 -0.255086 0.613047 0
M  V30 1638 H 163.144 -0.172283 2.03873 0
M  V30 1639 H 163.154 -2.16483 3.45831 0
M  V30 1640 H 161.829 -1.14658 3.99783 0
M  V30 1641 H 160.406 -2.50146 2.76553 0
M  V30 1642 N 162.591 -1.51276 -0.441967 0
M  V30 1643 C 164.002 -1.56244 -1.02199 0
M  V30 1644 C 164.353 -0.383149 -1.92422 0
M  V30 1645 O 163.478 0.500613 -2.1053 0
M  V30 1646 C 164.073 -2.83162 -1.86024 0
M  V30 1647 C 162.632 -2.90716 -2.39084 0
M  V30 1648 C 161.779 -2.50858 -1.18175 0
M  V30 1649 H 164.73 -1.5712 -0.223416 0
M  V30 1650 H 164.751 -2.66663 -2.71425 0
M  V30 1651 H 164.263 -3.68974 -1.20331 0
M  V30 1652 H 162.364 -2.09323 -3.08244 0
M  V30 1653 H 162.477 -3.94266 -2.72198 0
M  V30 1654 H 160.841 -2.03951 -1.52565 0
M  V30 1655 H 161.624 -3.3901 -0.541001 0
M  V30 1656 N 164.069 0.697108 -1.41344 0
M  V30 1657 C 165.017 1.83237 -1.43272 0
M  V30 1658 C 166.011 1.66522 -0.310947 0
M  V30 1659 O 167.217 1.73402 -0.482899 0
M  V30 1660 H 163.592 0.603802 -0.448249 0
M  V30 1661 H 165.563 1.78727 -2.38954 0
M  V30 1662 C 164.312 3.21245 -1.33029 0
M  V30 1663 H 163.635 3.34723 -2.18633 0
M  V30 1664 H 165.075 4.00763 -1.38439 0
M  V30 1665 C 163.534 3.36873 -0.0424635 0
M  V30 1666 O 164.064 3.91177 0.913421 0
M  V30 1667 N 162.27 2.90581 0.0331145 0
M  V30 1668 H 161.817 2.46577 -0.745506 0
M  V30 1669 H 161.775 3.01416 0.894199 0
M  V30 1670 N 165.547 1.27147 0.931209 0
M  V30 1671 C 166.51 1.09615 2.01289 0
M  V30 1672 C 167.51 0.0412581 1.60747 0
M  V30 1673 O 168.7 0.285545 1.71844 0
M  V30 1674 C 165.832 0.669447 3.34262 0
M  V30 1675 H 167.025 2.05662 2.18273 0
M  V30 1676 H 164.578 1.09885 1.11153 0
M  V30 1677 H 165.313 -0.292572 3.22978 0
M  V30 1678 H 165.098 1.43127 3.65044 0
M  V30 1679 H 166.588 0.568921 4.13706 0
M  V30 1680 N 167.025 -1.13721 1.09112 0
M  V30 1681 C 168.271 -1.85198 0.826414 0
M  V30 1682 C 168.604 -1.83129 -0.646319 0
M  V30 1683 O 167.879 -1.2671 -1.47563 0
M  V30 1684 C 168.162 -3.33507 1.35812 0
M  V30 1685 C 168.015 -3.44108 2.89672 0
M  V30 1686 C 169.334 -4.28838 0.989256 0
M  V30 1687 H 166.453 -0.67243 0.301675 0
M  V30 1688 H 169.095 -1.33499 1.35197 0
M  V30 1689 H 167.245 -3.77666 0.911082 0
M  V30 1690 H 168.917 -3.08684 3.428 0
M  V30 1691 H 167.16 -2.85087 3.26967 0
M  V30 1692 H 167.831 -4.48388 3.21951 0
M  V30 1693 H 170.307 -3.92734 1.37475 0
M  V30 1694 H 169.183 -5.31051 1.38838 0
M  V30 1695 H 169.444 -4.4198 -0.102924 0
M  V30 1696 N 168.503 -0.877838 -1.30888 0
M  V30 1697 C 169.752 -0.488793 -1.95688 0
M  V30 1698 C 170.065 0.965485 -1.70111 0
M  V30 1699 O 171.271 1.46104 -2.28836 0
M  V30 1700 C 169.727 -0.823201 -3.50359 0
M  V30 1701 C 169.335 -2.29477 -3.84765 0
M  V30 1702 C 171.079 -0.503009 -4.21509 0
M  V30 1703 C 168.986 -2.57118 -5.32583 0
M  V30 1704 H 167.916 -0.179062 -0.732429 0
M  V30 1705 H 170.567 -1.07183 -1.48943 0
M  V30 1706 H 168.949 -0.169331 -3.95638 0
M  V30 1707 H 170.123 -2.99236 -3.5042 0
M  V30 1708 H 168.438 -2.58178 -3.267 0
M  V30 1709 H 171.035 -0.68665 -5.30273 0
M  V30 1710 H 171.378 0.557109 -4.12555 0
M  V30 1711 H 171.911 -1.11376 -3.8189 0
M  V30 1712 H 168.65 -3.61843 -5.4658 0
M  V30 1713 H 168.17 -1.91961 -5.68253 0
M  V30 1714 H 169.849 -2.42251 -5.99936 0
M  V30 1715 N 169.982 1.44106 -0.638065 0
M  V30 1716 C 171.231 2.01194 -0.142744 0
M  V30 1717 C 171.544 1.50835 1.24532 0
M  V30 1718 O 172.75 2.00096 1.83504 0
M  V30 1719 C 171.206 3.59319 -0.20442 0
M  V30 1720 C 170.814 4.18674 -1.59423 0
M  V30 1721 C 172.558 4.23854 0.234079 0
M  V30 1722 C 170.465 5.69045 -1.61065 0
M  V30 1723 H 169.395 0.752367 -0.0495998 0
M  V30 1724 H 172.046 1.65246 -0.797881 0
M  V30 1725 H 170.428 3.92598 0.517946 0
M  V30 1726 H 171.602 3.96921 -2.34074 0
M  V30 1727 H 169.917 3.66453 -1.97741 0
M  V30 1728 H 172.514 5.34155 0.241443 0
M  V30 1729 H 172.857 3.96688 1.2627 0
M  V30 1730 H 173.39 3.95403 -0.436025 0
M  V30 1731 H 170.129 6.00956 -2.61787 0
M  V30 1732 H 169.649 5.929 -0.90718 0
M  V30 1733 H 171.328 6.32809 -1.34766 0
M  V30 1734 N 171.46 0.379036 1.52974 0
M  V30 1735 C 172.393 -0.504932 2.22544 0
M  V30 1736 C 173.371 -1.0723 1.22231 0
M  V30 1737 O 174.555 -1.12589 1.51182 0
M  V30 1738 C 171.682 -1.69794 2.93066 0
M  V30 1739 C 170.728 -1.25678 4.07563 0
M  V30 1740 S 171.561 -0.246852 5.34931 0
M  V30 1741 C 172.717 -1.44588 6.08971 0
M  V30 1742 H 172.95 0.0858666 2.97176 0
M  V30 1743 H 170.483 0.163183 1.53535 0
M  V30 1744 H 172.441 -2.38219 3.34308 0
M  V30 1745 H 171.102 -2.26002 2.18133 0
M  V30 1746 H 170.295 -2.14725 4.5597 0
M  V30 1747 H 169.897 -0.651584 3.6828 0
M  V30 1748 H 172.189 -2.37469 6.34519 0
M  V30 1749 H 173.132 -1.00292 7.00962 0
M  V30 1750 H 173.54 -1.65804 5.39601 0
M  V30 1751 N 172.938 -1.57226 0.108567 0
M  V30 1752 C 174.184 -1.95121 -0.552761 0
M  V30 1753 C 174.517 -0.991345 -1.66991 0
M  V30 1754 O 173.792 -0.0267211 -1.94482 0
M  V30 1755 C 174.075 -3.43039 -1.09528 0
M  V30 1756 C 173.928 -4.49797 0.0177332 0
M  V30 1757 C 175.247 -3.92567 -1.98945 0
M  V30 1758 H 172.366 -0.709496 -0.199461 0
M  V30 1759 H 175.008 -1.89126 0.182011 0
M  V30 1760 H 173.158 -3.48279 -1.72146 0
M  V30 1761 H 174.83 -4.56661 0.652584 0
M  V30 1762 H 173.073 -4.284 0.682309 0
M  V30 1763 H 173.744 -5.50528 -0.402919 0
M  V30 1764 H 176.22 -3.89565 -1.46214 0
M  V30 1765 H 175.096 -4.96605 -2.33827 0
M  V30 1766 H 175.357 -3.32648 -2.91201 0
M  V30 1767 N 174.416 0.165178 -1.56732 0
M  V30 1768 C 175.364 1.22369 -1.97809 0
M  V30 1769 C 176.358 1.45488 -0.867741 0
M  V30 1770 O 177.564 1.45995 -1.05288 0
M  V30 1771 H 173.939 0.411486 -0.629431 0
M  V30 1772 H 175.91 0.850425 -2.86025 0
M  V30 1773 C 174.659 2.55403 -2.35934 0
M  V30 1774 H 173.982 2.38438 -3.20916 0
M  V30 1775 H 175.422 3.2814 -2.68514 0
M  V30 1776 C 173.881 3.14611 -1.20506 0
M  V30 1777 O 174.411 3.98626 -0.496016 0
M  V30 1778 N 172.617 2.7379 -0.97403 0
M  V30 1779 H 172.164 2.0557 -1.55238 0
M  V30 1780 H 172.122 3.1374 -0.203573 0
M  V30 1781 N 175.894 1.51508 0.433938 0
M  V30 1782 C 176.842 1.73646 1.54757 0
M  V30 1783 C 177.836 0.602854 1.5831 0
M  V30 1784 O 179.042 0.784318 1.62014 0
M  V30 1785 H 175.417 0.548718 0.51421 0
M  V30 1786 H 177.388 2.66991 1.33261 0
M  V30 1787 C 176.137 1.88172 2.92381 0
M  V30 1788 H 175.46 2.74808 2.90381 0
M  V30 1789 H 176.9 2.07672 3.6966 0
M  V30 1790 C 175.359 0.64239 3.30719 0
M  V30 1791 O 175.889 -0.201362 4.01195 0
M  V30 1792 N 174.095 0.485489 2.86516 0
M  V30 1793 H 173.642 1.17318 2.29334 0
M  V30 1794 H 173.6 -0.342482 3.12529 0
M  V30 1795 N 177.372 -0.689602 1.41712 0
M  V30 1796 C 178.783 -1.26973 1.36875 0
M  V30 1797 C 179.134 -1.96124 0.054748 0
M  V30 1798 O 178.259 -1.99141 -0.84687 0
M  V30 1799 C 178.854 -2.30912 2.47922 0
M  V30 1800 C 177.413 -2.84486 2.46464 0
M  V30 1801 C 176.56 -1.58603 2.27465 0
M  V30 1802 H 179.511 -0.48396 1.51141 0
M  V30 1803 H 179.532 -3.12331 2.17323 0
M  V30 1804 H 179.044 -1.80554 3.43543 0
M  V30 1805 H 177.145 -3.39005 1.54617 0
M  V30 1806 H 177.258 -3.34511 3.42986 0
M  V30 1807 H 175.622 -1.84632 1.75451 0
M  V30 1808 H 176.405 -1.10233 3.25121 0
M  V30 1809 N 178.85 -1.27639 -0.924453 0
M  V30 1810 C 179.78 -1.13166 -2.04244 0
M  V30 1811 C 180.761 -0.032256 -1.70069 0
M  V30 1812 O 181.946 -0.207328 -1.9309 0
M  V30 1813 C 179.076 -0.781496 -3.38393 0
M  V30 1814 C 178.03 -1.83449 -3.86692 0
M  V30 1815 C 177.356 -1.33822 -5.17683 0
M  V30 1816 C 178.656 -3.23917 -4.09726 0
M  V30 1817 H 180.35 -2.06689 -2.1661 0
M  V30 1818 H 177.896 -0.995136 -1.04082 0
M  V30 1819 H 179.849 -0.667057 -4.16087 0
M  V30 1820 H 178.573 0.189439 -3.2605 0
M  V30 1821 H 177.232 -1.93789 -3.11193 0
M  V30 1822 H 176.88 -0.35665 -5.01734 0
M  V30 1823 H 176.58 -2.04224 -5.50968 0
M  V30 1824 H 178.104 -1.23679 -5.97943 0
M  V30 1825 H 179.518 -3.16559 -4.77978 0
M  V30 1826 H 177.915 -3.92059 -4.54324 0
M  V30 1827 H 178.985 -3.68729 -3.14908 0
M  V30 1828 N 180.328 1.1314 -1.09713 0
M  V30 1829 C 181.605 1.80762 -0.747302 0
M  V30 1830 C 181.985 1.96663 0.767265 0
M  V30 1831 O 181.333 1.53706 1.69076 0
M  V30 1832 C 181.543 3.15606 -1.48975 0
M  V30 1833 C 182.891 3.90914 -1.65746 0
M  V30 1834 O 183.915 3.25239 -1.45251 0
M  V30 1835 O 182.774 5.08718 -1.9967 0
M  V30 1836 H 179.868 0.782103 -0.268782 0
M  V30 1837 H 182.414 1.20041 -1.19951 0
M  V30 1838 H 181.186 2.99278 -2.52088 0
M  V30 1839 H 180.809 3.84029 -1.02991 0
M  V30 1840 N 181.806 0.884767 1.30421 0
M  V30 1841 C 182.769 0.356277 2.26414 0
M  V30 1842 C 183.769 -0.501124 1.52792 0
M  V30 1843 O 184.959 -0.30831 1.7145 0
M  V30 1844 C 182.091 -0.492316 3.37326 0
M  V30 1845 H 183.284 1.20389 2.74675 0
M  V30 1846 H 180.837 0.661607 1.41607 0
M  V30 1847 H 181.572 -1.36052 2.94381 0
M  V30 1848 H 181.357 0.121832 3.91911 0
M  V30 1849 H 182.847 -0.853871 4.08777 0
M  V30 1850 N 183.284 -1.43765 0.645699 0
M  V30 1851 C 184.217 -2.2798 -0.100072 0
M  V30 1852 C 185.195 -1.39391 -0.837194 0
M  V30 1853 O 186.379 -1.68833 -0.838306 0
M  V30 1854 C 183.506 -3.18643 -1.14823 0
M  V30 1855 C 182.552 -4.2344 -0.510009 0
M  V30 1856 S 183.385 -5.30761 0.710824 0
M  V30 1857 C 184.541 -6.24992 -0.33699 0
M  V30 1858 H 184.774 -2.90884 0.614322 0
M  V30 1859 H 182.307 -1.48166 0.434304 0
M  V30 1860 H 184.265 -3.71424 -1.74799 0
M  V30 1861 H 182.926 -2.54932 -1.8349 0
M  V30 1862 H 182.119 -4.86948 -1.29991 0
M  V30 1863 H 181.721 -3.73997 0.0154577 0
M  V30 1864 H 184.013 -6.66691 -1.20537 0
M  V30 1865 H 184.956 -7.07612 0.262879 0
M  V30 1866 H 185.364 -5.60517 -0.669425 0
M  V30 1867 N 184.763 -0.387143 -1.52771 0
M  V30 1868 C 185.991 0.195869 -2.05971 0
M  V30 1869 C 186.406 1.40691 -1.25903 0
M  V30 1870 O 185.763 1.79931 -0.305134 0
M  V30 1871 C 185.814 0.56812 -3.57008 0
M  V30 1872 O 185.535 -0.594803 -4.34043 0
M  V30 1873 C 187.036 1.20723 -4.26545 0
M  V30 1874 H 184.256 0.0300578 -0.670326 0
M  V30 1875 H 186.8 -0.551749 -1.96916 0
M  V30 1876 H 184.955 1.26564 -3.66143 0
M  V30 1877 H 185.369 -0.289322 -5.23701 0
M  V30 1878 H 186.843 1.41807 -5.33474 0
M  V30 1879 H 187.32 2.17395 -3.81623 0
M  V30 1880 H 187.926 0.550535 -4.21722 0
M  V30 1881 N 186.241 1.57166 -0.116904 0
M  V30 1882 C 187.471 1.99184 0.548586 0
M  V30 1883 C 187.879 0.995436 1.60897 0
M  V30 1884 O 187.222 -0.0201293 1.83689 0
M  V30 1885 C 187.284 3.37611 1.23526 0
M  V30 1886 C 186.948 4.55857 0.323077 0
M  V30 1887 C 187.945 5.18056 -0.437476 0
M  V30 1888 C 185.63 5.01751 0.234761 0
M  V30 1889 C 187.624 6.24536 -1.2741 0
M  V30 1890 C 185.311 6.08093 -0.605496 0
M  V30 1891 C 186.309 6.69352 -1.35856 0
M  V30 1892 O 185.997 7.7364 -2.18487 0
M  V30 1893 H 185.729 0.659148 0.149999 0
M  V30 1894 H 188.283 2.0443 -0.199428 0
M  V30 1895 H 186.513 3.29113 2.0303 0
M  V30 1896 H 188.202 3.63932 1.79745 0
M  V30 1897 H 188.968 4.83516 -0.379105 0
M  V30 1898 H 184.847 4.53817 0.810601 0
M  V30 1899 H 188.391 6.72281 -1.86237 0
M  V30 1900 H 184.288 6.42063 -0.665268 0
M  V30 1901 H 185.056 7.90727 -2.11406 0
M  V30 1902 N 187.719 -0.156864 1.56817 0
M  V30 1903 C 188.649 -1.19589 2.00551 0
M  V30 1904 C 189.63 -1.4536 0.883426 0
M  V30 1905 O 190.815 -1.56449 1.15054 0
M  V30 1906 C 187.945 -2.53143 2.37773 0
M  V30 1907 C 186.899 -2.41913 3.53075 0
M  V30 1908 C 186.225 -3.80088 3.76081 0
M  V30 1909 C 187.525 -1.91157 4.86062 0
M  V30 1910 H 189.219 -0.832293 2.87599 0
M  V30 1911 H 186.765 -0.398918 1.38364 0
M  V30 1912 H 188.718 -3.26047 2.66967 0
M  V30 1913 H 187.442 -2.91319 1.4765 0
M  V30 1914 H 186.101 -1.71462 3.24031 0
M  V30 1915 H 185.749 -4.15683 2.83225 0
M  V30 1916 H 185.449 -3.73439 4.53671 0
M  V30 1917 H 186.973 -4.54556 4.0769 0
M  V30 1918 H 188.387 -2.53846 5.14038 0
M  V30 1919 H 186.784 -1.95422 5.67389 0
M  V30 1920 H 187.854 -0.866673 4.77092 0
M  V30 1921 N 189.197 -1.51736 -0.425897 0
M  V30 1922 C 190.16 -1.73271 -1.50032 0
M  V30 1923 C 191.16 -0.602639 -1.4908 0
M  V30 1924 O 192.35 -0.87033 -1.509 0
M  V30 1925 C 189.482 -1.79969 -2.89523 0
M  V30 1926 H 190.675 -2.69172 -1.32237 0
M  V30 1927 H 188.228 -1.41899 -0.65532 0
M  V30 1928 H 188.963 -0.859241 -3.1271 0
M  V30 1929 H 188.748 -2.62109 -2.91619 0
M  V30 1930 H 190.238 -1.9843 -3.67444 0
M  V30 1931 N 190.675 0.682077 -1.42076 0
M  V30 1932 C 191.638 1.77756 -1.44691 0
M  V30 1933 C 192.638 1.5726 -0.335535 0
M  V30 1934 O 193.828 1.63686 -0.596037 0
M  V30 1935 C 190.96 3.16301 -1.27146 0
M  V30 1936 H 192.153 1.76826 -2.42224 0
M  V30 1937 H 189.706 0.891012 -1.28416 0
M  V30 1938 H 190.441 3.22862 -0.305075 0
M  V30 1939 H 190.226 3.32581 -2.07683 0
M  V30 1940 H 191.716 3.96241 -1.31843 0
M  V30 1941 N 192.153 1.28127 0.917671 0
M  V30 1942 C 193.063 1.13556 2.05286 0
M  V30 1943 C 194.079 0.0630914 1.73886 0
M  V30 1944 O 195.255 0.271598 1.9956 0
M  V30 1945 C 192.32 0.794676 3.3747 0
M  V30 1946 C 191.381 1.94909 3.82504 0
M  V30 1947 C 190.614 1.62437 5.0838 0
M  V30 1948 O 190.837 0.536905 5.67867 0
M  V30 1949 O 189.771 2.46677 5.4903 0
M  V30 1950 H 193.597 2.08844 2.20495 0
M  V30 1951 H 191.182 1.07409 1.03845 0
M  V30 1952 H 193.064 0.618344 4.16839 0
M  V30 1953 H 191.739 -0.128581 3.23445 0
M  V30 1954 H 190.646 2.18055 3.03978 0
M  V30 1955 H 191.979 2.85291 4.01086 0
M  V30 1956 N 193.631 -1.12557 1.10312 0
M  V30 1957 C 194.877 -1.84311 0.846011 0
M  V30 1958 C 195.21 -1.83805 -0.626859 0
M  V30 1959 O 194.485 -1.28268 -1.46211 0
M  V30 1960 C 194.768 -3.32048 1.39341 0
M  V30 1961 C 194.621 -3.41016 2.93305 0
M  V30 1962 C 195.94 -4.27764 1.03468 0
M  V30 1963 H 193.059 -0.669192 0.30879 0
M  V30 1964 H 195.701 -1.32057 1.36605 0
M  V30 1965 H 193.851 -3.76678 0.951087 0
M  V30 1966 H 195.523 -3.05031 3.46055 0
M  V30 1967 H 193.766 -2.81603 3.29973 0
M  V30 1968 H 194.437 -4.44948 3.26689 0
M  V30 1969 H 196.913 -3.91253 1.41633 0
M  V30 1970 H 195.789 -5.29549 1.44463 0
M  V30 1971 H 196.05 -4.42064 -0.0560404 0
M  V30 1972 N 195.109 -0.891671 -1.2995 0
M  V30 1973 C 196.334 -0.527932 -2.00568 0
M  V30 1974 C 196.759 0.877969 -1.66353 0
M  V30 1975 O 196.117 1.58301 -0.883762 0
M  V30 1976 C 196.165 -0.717745 -3.53385 0
M  V30 1977 O 195.269 0.233376 -4.11739 0
M  V30 1978 H 194.61 -0.20722 -0.630837 0
M  V30 1979 H 197.14 -1.20105 -1.65638 0
M  V30 1980 H 197.15 -0.619307 -4.03272 0
M  V30 1981 H 195.825 -1.74276 -3.77625 0
M  V30 1982 H 194.402 0.0880706 -3.72796 0
M  V30 1983 N 196.587 1.43421 -0.653314 0
M  V30 1984 C 197.835 2.01414 -0.166415 0
M  V30 1985 C 198.156 1.51803 1.22397 0
M  V30 1986 O 197.426 0.730693 1.81763 0
M  V30 1987 H 196.006 0.744703 -0.0585319 0
M  V30 1988 H 198.668 1.75629 -0.845003 0
M  V30 1989 H 197.764 3.11734 -0.151111 0
M  V30 1990 N 198.065 0.39524 1.52563 0
M  V30 1991 C 199.312 -0.185044 2.01653 0
M  V30 1992 C 199.64 -1.46317 1.28146 0
M  V30 1993 O 198.895 -1.9213 0.372074 0
M  V30 1994 C 199.194 -0.493444 3.53977 0
M  V30 1995 C 198.86 0.69384 4.4553 0
M  V30 1996 C 197.522 1.01954 4.70275 0
M  V30 1997 C 199.874 1.48785 4.99512 0
M  V30 1998 C 197.202 2.14069 5.46252 0
M  V30 1999 C 199.554 2.59965 5.76716 0
M  V30 2000 C 198.218 2.93037 5.99738 0
M  V30 2001 H 197.488 -0.0677123 0.7379 0
M  V30 2002 H 200.135 0.533807 1.8391 0
M  V30 2003 H 198.44 -1.29369 3.69825 0
M  V30 2004 H 200.137 -0.955163 3.89458 0
M  V30 2005 H 196.727 0.429987 4.26438 0
M  V30 2006 H 200.911 1.24946 4.80315 0
M  V30 2007 H 196.167 2.40056 5.62302 0
M  V30 2008 H 200.341 3.21887 6.17545 0
M  V30 2009 H 197.968 3.8003 6.58393 0
M  V30 2010 N 199.544 -1.57102 0.125237 0
M  V30 2011 C 200.955 -1.82384 -0.399142 0
M  V30 2012 C 201.306 -1.04276 -1.66195 0
M  V30 2013 O 200.431 -0.281269 -2.14564 0
M  V30 2014 C 201.026 -3.30821 -0.730932 0
M  V30 2015 C 199.585 -3.56762 -1.19992 0
M  V30 2016 C 198.732 -2.7649 -0.211792 0
M  V30 2017 H 201.683 -1.54786 0.350277 0
M  V30 2018 H 201.704 -3.4579 -1.58775 0
M  V30 2019 H 201.216 -3.87643 0.188345 0
M  V30 2020 H 199.317 -3.05305 -2.13588 0
M  V30 2021 H 199.43 -4.65317 -1.14093 0
M  V30 2022 H 197.794 -2.4489 -0.700085 0
M  V30 2023 H 198.577 -3.36073 0.700691 0
M  V30 2024 N 201.022 0.148545 -1.56898 0
M  V30 2025 C 201.969 1.18345 -1.98149 0
M  V30 2026 C 202.939 1.42772 -0.848848 0
M  V30 2027 O 204.124 1.55132 -1.11079 0
M  V30 2028 C 201.264 2.51231 -2.36594 0
M  V30 2029 C 200.377 2.33991 -3.63142 0
M  V30 2030 C 199.512 3.59902 -3.90697 0
M  V30 2031 C 198.551 3.37692 -5.1052 0
M  V30 2032 N 197.688 4.5573 -5.34092 0
M  V30 2033 H 202.528 0.82467 -2.86362 0
M  V30 2034 H 200.065 0.395756 -1.41676 0
M  V30 2035 H 202.023 3.28713 -2.56912 0
M  V30 2036 H 200.653 2.85059 -1.51463 0
M  V30 2037 H 199.705 1.47572 -3.50609 0
M  V30 2038 H 201.017 2.13539 -4.5078 0
M  V30 2039 H 200.171 4.45813 -4.11505 0
M  V30 2040 H 198.91 3.83357 -3.01477 0
M  V30 2041 H 197.915 2.5017 -4.89587 0
M  V30 2042 H 199.14 3.15637 -6.0129 0
M  V30 2043 H 197.086 4.79361 -4.47827 0
M  V30 2044 H 197.003 4.38274 -6.15996 0
M  V30 2045 H 198.271 5.42858 -5.59397 0
M  V30 2046 N 202.5 1.5196 0.417844 0
M  V30 2047 C 203.41 1.77554 1.53336 0
M  V30 2048 C 204.426 0.660655 1.6097 0
M  V30 2049 O 205.602 0.945099 1.77848 0
M  V30 2050 C 202.667 1.91291 2.89152 0
M  V30 2051 C 201.728 3.15183 2.91475 0
M  V30 2052 C 200.961 3.28256 4.20813 0
M  V30 2053 O 201.184 2.46798 5.14244 0
M  V30 2054 O 200.118 4.21356 4.29817 0
M  V30 2055 H 203.944 2.7222 1.34647 0
M  V30 2056 H 201.529 1.36698 0.602828 0
M  V30 2057 H 203.411 2.02199 3.69721 0
M  V30 2058 H 202.086 0.998129 3.07927 0
M  V30 2059 H 200.993 3.09739 2.09791 0
M  V30 2060 H 202.326 4.06414 2.77648 0
M  V30 2061 N 203.978 -0.674533 1.42435 0
M  V30 2062 C 205.394 -0.98769 1.25367 0
M  V30 2063 C 205.594 -2.00879 0.158044 0
M  V30 2064 O 204.65 -2.48075 -0.470633 0
M  V30 2065 C 205.963 -1.49224 2.6106 0
M  V30 2066 C 207.511 -1.61 2.68417 0
M  V30 2067 C 207.986 -2.14852 4.04478 0
M  V30 2068 N 209.477 -2.22185 4.06434 0
M  V30 2069 C 210.212 -2.64928 5.08528 0
M  V30 2070 N 209.708 -3.07121 6.21006 0
M  V30 2071 N 211.501 -2.64679 4.95885 0
M  V30 2072 H 203.652 0.00152503 2.124 0
M  V30 2073 H 205.915 -0.0618434 0.945981 0
M  V30 2074 H 205.621 -0.816453 3.42092 0
M  V30 2075 H 205.495 -2.47094 2.84999 0
M  V30 2076 H 207.882 -2.27686 1.87732 0
M  V30 2077 H 207.963 -0.616195 2.48267 0
M  V30 2078 H 207.607 -1.48775 4.85622 0
M  V30 2079 H 207.537 -3.15024 4.2198 0
M  V30 2080 H 210.028 -1.92435 3.25234 0
M  V30 2081 H 210.341 -3.38423 6.94759 0
M  V30 2082 H 208.686 -3.04978 6.24511 0
M  V30 2083 H 211.877 -2.31078 4.07088 0
M  V30 2084 H 212.05 -2.9767 5.75584 0
M  V30 2085 N 205.456 -1.28612 -0.910864 0
M  V30 2086 C 206.702 -1.16106 -1.66274 0
M  V30 2087 C 207.035 0.289113 -1.92036 0
M  V30 2088 O 206.31 1.21 -1.52281 0
M  V30 2089 C 206.593 -1.96309 -3.01885 0
M  V30 2090 C 206.446 -3.49405 -2.8326 0
M  V30 2091 C 207.765 -1.78076 -4.02463 0
M  V30 2092 H 204.884 -0.423152 -0.603417 0
M  V30 2093 H 207.526 -1.57961 -1.05586 0
M  V30 2094 H 205.676 -1.60742 -3.53687 0
M  V30 2095 H 207.348 -3.94894 -2.38446 0
M  V30 2096 H 205.591 -3.74893 -2.18261 0
M  V30 2097 H 206.262 -4.00784 -3.79574 0
M  V30 2098 H 208.738 -2.0912 -3.59733 0
M  V30 2099 H 207.614 -2.36561 -4.95308 0
M  V30 2100 H 207.875 -0.733008 -4.35981 0
M  V30 2101 N 206.934 1.1197 -1.10907 0
M  V30 2102 C 208.183 1.82947 -0.849302 0
M  V30 2103 C 208.496 1.85275 0.627112 0
M  V30 2104 O 209.702 2.52296 1.00295 0
M  V30 2105 C 208.158 3.28529 -1.46959 0
M  V30 2106 C 207.766 3.34546 -2.97965 0
M  V30 2107 C 209.51 4.04443 -1.28942 0
M  V30 2108 C 207.417 4.74491 -3.53004 0
M  V30 2109 H 206.347 0.685477 -0.314065 0
M  V30 2110 H 208.998 1.2604 -1.33365 0
M  V30 2111 H 207.38 3.85333 -0.912917 0
M  V30 2112 H 208.554 2.87654 -3.59989 0
M  V30 2113 H 206.869 2.72108 -3.15192 0
M  V30 2114 H 209.466 5.07787 -1.67502 0
M  V30 2115 H 209.809 4.15656 -0.231456 0
M  V30 2116 H 210.342 3.5401 -1.81443 0
M  V30 2117 H 207.081 4.68474 -4.58489 0
M  V30 2118 H 206.601 5.21816 -2.9575 0
M  V30 2119 H 208.28 5.4344 -3.51115 0
M  V30 2120 N 208.412 0.89855 1.29475 0
M  V30 2121 C 209.66 0.522847 1.9522 0
M  V30 2122 C 209.981 -0.93371 1.71192 0
M  V30 2123 O 209.251 -1.65823 1.04305 0
M  V30 2124 H 207.831 0.190366 0.722336 0
M  V30 2125 H 210.493 1.14459 1.5775 0
M  V30 2126 H 209.589 0.704476 3.04045 0
M  V30 2127 N 209.89 -1.43072 0.660911 0
M  V30 2128 C 210.822 -2.29108 -0.0647641 0
M  V30 2129 C 211.835 -1.42928 -0.779448 0
M  V30 2130 O 213.024 -1.66788 -0.635921 0
M  V30 2131 C 210.124 -3.20032 -1.11503 0
M  V30 2132 C 209.297 -4.34792 -0.476955 0
M  V30 2133 C 208.356 -5.06534 -1.42513 0
M  V30 2134 O 207.382 -5.61538 -0.930771 0
M  V30 2135 N 208.584 -5.1075 -2.75889 0
M  V30 2136 H 211.349 -2.92029 0.673731 0
M  V30 2137 H 208.91 -1.53846 0.50427 0
M  V30 2138 H 210.902 -3.64892 -1.75032 0
M  V30 2139 H 209.472 -2.58658 -1.75541 0
M  V30 2140 H 208.692 -3.92752 0.337572 0
M  V30 2141 H 209.98 -5.0879 -0.0318525 0
M  V30 2142 H 209.378 -4.67447 -3.18606 0
M  V30 2143 H 207.935 -5.59302 -3.347 0
M  V30 2144 N 211.368 -0.403325 -1.52352 0
M  V30 2145 C 212.331 0.413051 -2.25447 0
M  V30 2146 C 213.331 0.978513 -1.276 0
M  V30 2147 O 214.521 0.858305 -1.51587 0
M  V30 2148 C 211.653 1.58087 -3.02029 0
M  V30 2149 H 212.846 -0.227094 -2.99039 0
M  V30 2150 H 210.399 -0.155722 -1.55522 0
M  V30 2151 H 211.134 2.25804 -2.32772 0
M  V30 2152 H 210.919 1.18195 -3.73861 0
M  V30 2153 H 212.409 2.1585 -3.57489 0
M  V30 2154 N 212.846 1.57033 -0.133567 0
M  V30 2155 C 214.094 1.953 0.519848 0
M  V30 2156 C 214.415 1.01866 1.66278 0
M  V30 2157 O 213.685 0.0776513 1.95746 0
M  V30 2158 H 212.265 0.721091 0.195032 0
M  V30 2159 H 214.927 1.93809 -0.205921 0
M  V30 2160 H 214.023 2.98695 0.904854 0
M  V30 2161 N 214.325 -0.140222 1.56975 0
M  V30 2162 C 215.571 -0.852949 1.83991 0
M  V30 2163 C 215.904 -1.80512 0.716187 0
M  V30 2164 O 215.179 -1.92479 -0.279681 0
M  V30 2165 C 215.462 -1.6215 3.21527 0
M  V30 2166 C 215.315 -0.690363 4.4447 0
M  V30 2167 C 216.634 -2.58247 3.56366 0
M  V30 2168 H 213.753 -0.308634 0.669264 0
M  V30 2169 H 216.395 -0.117898 1.89634 0
M  V30 2170 H 214.545 -2.24812 3.16847 0
M  V30 2171 H 216.217 -0.0742264 4.6124 0
M  V30 2172 H 214.46 -0.000396433 4.338 0
M  V30 2173 H 215.131 -1.2643 5.37326 0
M  V30 2174 H 217.607 -2.05701 3.61699 0
M  V30 2175 H 216.483 -3.09067 4.53617 0
M  V30 2176 H 216.744 -3.39923 2.82674 0
M  V30 2177 N 215.803 -1.52179 -0.40978 0
M  V30 2178 C 216.733 -1.78435 -1.5061 0
M  V30 2179 C 217.714 -0.635295 -1.57791 0
M  V30 2180 O 218.899 -0.880823 -1.73076 0
M  V30 2181 C 216.029 -1.93444 -2.88439 0
M  V30 2182 C 214.983 -3.09038 -2.96108 0
M  V30 2183 C 214.309 -3.09268 -4.36185 0
M  V30 2184 C 215.609 -4.48508 -2.67652 0
M  V30 2185 H 217.303 -2.70237 -1.28889 0
M  V30 2186 H 214.849 -1.30036 -0.618605 0
M  V30 2187 H 216.802 -2.10394 -3.65119 0
M  V30 2188 H 215.526 -0.983129 -3.11452 0
M  V30 2189 H 214.185 -2.91837 -2.21872 0
M  V30 2190 H 213.833 -2.11861 -4.56206 0
M  V30 2191 H 213.533 -3.86907 -4.42241 0
M  V30 2192 H 215.057 -3.28348 -5.14801 0
M  V30 2193 H 216.471 -4.65918 -3.34056 0
M  V30 2194 H 214.868 -5.28059 -2.85085 0
M  V30 2195 H 215.938 -4.56649 -1.63095 0
M  V30 2196 N 217.281 0.66697 -1.42791 0
M  V30 2197 C 218.558 1.4234 -1.34159 0
M  V30 2198 C 218.938 2.11093 0.0172729 0
M  V30 2199 O 218.286 2.03808 1.03318 0
M  V30 2200 C 218.496 2.41942 -2.51526 0
M  V30 2201 C 219.844 3.06353 -2.93995 0
M  V30 2202 O 220.868 2.52269 -2.51473 0
M  V30 2203 O 219.727 4.04376 -3.67617 0
M  V30 2204 H 216.821 0.635277 -0.529483 0
M  V30 2205 H 219.367 0.695034 -1.54814 0
M  V30 2206 H 218.139 1.89991 -3.42081 0
M  V30 2207 H 217.762 3.22249 -2.32898 0
M  V30 2208 N 218.759 1.29093 0.90403 0
M  V30 2209 C 219.722 1.1386 1.98919 0
M  V30 2210 C 220.722 0.0753457 1.60623 0
M  V30 2211 O 221.912 0.321931 1.71199 0
M  V30 2212 C 219.044 0.740198 3.32767 0
M  V30 2213 H 220.237 2.10246 2.13861 0
M  V30 2214 H 217.79 1.12218 1.08797 0
M  V30 2215 H 218.525 -0.223997 3.23525 0
M  V30 2216 H 218.31 1.50838 3.61926 0
M  V30 2217 H 219.8 0.656546 4.12407 0
M  V30 2218 N 220.237 -1.11381 1.11499 0
M  V30 2219 C 221.2 -2.15622 0.777153 0
M  V30 2220 C 222.2 -1.59504 -0.203779 0
M  V30 2221 O 223.39 -1.74188 0.020782 0
M  V30 2222 C 220.522 -3.40556 0.153116 0
M  V30 2223 H 221.715 -2.47021 1.70061 0
M  V30 2224 H 219.268 -1.26577 0.916952 0
M  V30 2225 H 220.003 -3.14767 -0.780536 0
M  V30 2226 H 219.788 -3.8257 0.859238 0
M  V30 2227 H 221.278 -4.17546 -0.0671044 0
M  V30 2228 N 221.715 -0.905404 -1.28997 0
M  V30 2229 C 223.131 -0.60233 -1.47798 0
M  V30 2230 C 223.331 0.854645 -1.82478 0
M  V30 2231 O 222.387 1.63439 -1.92468 0
M  V30 2232 C 223.7 -1.53306 -2.58685 0
M  V30 2233 C 225.248 -1.53887 -2.72558 0
M  V30 2234 C 225.723 -2.45602 -3.86579 0
M  V30 2235 N 227.214 -2.43681 -3.93921 0
M  V30 2236 C 227.949 -3.11347 -4.81509 0
M  V30 2237 N 227.445 -3.88313 -5.73746 0
M  V30 2238 N 229.238 -3.00476 -4.75048 0
M  V30 2239 H 221.389 -1.84765 -1.04764 0
M  V30 2240 H 223.652 -0.792025 -0.520961 0
M  V30 2241 H 223.358 -2.57141 -2.39941 0
M  V30 2242 H 223.232 -1.25787 -3.55609 0
M  V30 2243 H 225.619 -0.507941 -2.90696 0
M  V30 2244 H 225.7 -1.85447 -1.76191 0
M  V30 2245 H 225.344 -3.48792 -3.69197 0
M  V30 2246 H 225.274 -2.11349 -4.82327 0
M  V30 2247 H 227.765 -1.87767 -3.27951 0
M  V30 2248 H 228.078 -4.36985 -6.37389 0
M  V30 2249 H 226.423 -3.92419 -5.73614 0
M  V30 2250 H 229.614 -2.39858 -4.01977 0
M  V30 2251 H 229.787 -3.53485 -5.43095 0
M  V30 2252 N 223.193 1.4272 -0.668489 0
M  V30 2253 C 224.423 2.05668 -0.196063 0
M  V30 2254 C 224.831 1.5028 1.14946 0
M  V30 2255 O 224.174 0.6348 1.72383 0
M  V30 2256 C 224.236 3.59469 -0.0468879 0
M  V30 2257 C 223.9 4.37518 -1.32012 0
M  V30 2258 C 224.897 4.68584 -2.25222 0
M  V30 2259 C 222.582 4.77266 -1.56596 0
M  V30 2260 C 224.576 5.38326 -3.41297 0
M  V30 2261 C 222.263 5.4675 -2.72962 0
M  V30 2262 C 223.261 5.77204 -3.65137 0
M  V30 2263 O 222.949 6.45264 -4.79468 0
M  V30 2264 H 222.681 0.669382 -0.0943599 0
M  V30 2265 H 225.235 1.83954 -0.913788 0
M  V30 2266 H 223.465 3.79817 0.726357 0
M  V30 2267 H 225.154 4.04071 0.384852 0
M  V30 2268 H 225.92 4.38382 -2.07477 0
M  V30 2269 H 221.799 4.52959 -0.857249 0
M  V30 2270 H 225.343 5.62014 -4.13263 0
M  V30 2271 H 221.24 5.76369 -2.90635 0
M  V30 2272 H 222.008 6.63753 -4.78931 0
M  V30 2273 N 224.671 0.411399 1.52136 0
M  V30 2274 C 226.087 0.0623865 1.59478 0
M  V30 2275 C 226.287 -1.42554 1.4241 0
M  V30 2276 O 225.343 -2.19263 1.2522 0
M  V30 2277 C 226.656 0.559331 2.95452 0
M  V30 2278 C 228.204 0.517503 3.08692 0
M  V30 2279 C 228.679 0.990994 4.4715 0
M  V30 2280 N 230.17 0.947908 4.53397 0
M  V30 2281 C 230.905 1.28544 5.58806 0
M  V30 2282 N 230.401 1.69454 6.71757 0
M  V30 2283 N 232.194 1.20526 5.49026 0
M  V30 2284 H 224.345 1.37982 1.61477 0
M  V30 2285 H 226.608 0.566977 0.759764 0
M  V30 2286 H 226.314 1.59938 3.1323 0
M  V30 2287 H 226.188 -0.0298014 3.77188 0
M  V30 2288 H 228.575 -0.513505 2.90598 0
M  V30 2289 H 228.656 1.14272 2.28857 0
M  V30 2290 H 228.3 2.02034 4.65988 0
M  V30 2291 H 228.23 0.34257 5.25485 0
M  V30 2292 H 230.721 0.647157 3.72317 0
M  V30 2293 H 231.034 1.93513 7.48179 0
M  V30 2294 H 229.379 1.73359 6.73032 0
M  V30 2295 H 232.57 0.884505 4.59667 0
M  V30 2296 H 232.743 1.47161 6.31069 0
M  V30 2297 N 226.149 -1.5696 0.141893 0
M  V30 2298 C 227.377 -2.00322 -0.517579 0
M  V30 2299 C 227.792 -1.02193 -1.58752 0
M  V30 2300 O 227.149 -0.0181619 -1.82491 0
M  V30 2301 C 227.2 -3.43618 -1.12289 0
M  V30 2302 O 226.921 -4.37995 -0.0956929 0
M  V30 2303 C 228.422 -4.02231 -1.86347 0
M  V30 2304 H 225.642 -0.657243 -0.135177 0
M  V30 2305 H 228.186 -2.03146 0.234973 0
M  V30 2306 H 226.341 -3.41662 -1.82609 0
M  V30 2307 H 226.755 -5.21729 -0.538469 0
M  V30 2308 H 228.229 -5.04509 -2.23997 0
M  V30 2309 H 228.706 -3.42655 -2.74744 0
M  V30 2310 H 229.312 -4.07802 -1.20737 0
M  V30 2311 N 227.627 0.131896 -1.57047 0
M  V30 2312 C 228.874 0.841932 -1.84168 0
M  V30 2313 C 229.202 1.8048 -0.725066 0
M  V30 2314 O 228.457 1.93618 0.284692 0
M  V30 2315 C 228.756 1.63703 -3.17704 0
M  V30 2316 C 228.422 0.81961 -4.43388 0
M  V30 2317 C 227.084 0.594148 -4.77518 0
M  V30 2318 C 229.436 0.248977 -5.20605 0
M  V30 2319 C 226.764 -0.212409 -5.86315 0
M  V30 2320 C 229.116 -0.544701 -6.30251 0
M  V30 2321 C 227.78 -0.780599 -6.6292 0
M  V30 2322 H 227.05 0.308085 -0.673917 0
M  V30 2323 H 229.697 0.104867 -1.91213 0
M  V30 2324 H 228.002 2.44464 -3.06177 0
M  V30 2325 H 229.699 2.19015 -3.35907 0
M  V30 2326 H 226.289 1.00542 -4.16641 0
M  V30 2327 H 230.473 0.410408 -4.946 0
M  V30 2328 H 225.729 -0.404524 -6.1006 0
M  V30 2329 H 229.903 -0.993922 -6.89271 0
M  V30 2330 H 227.53 -1.40742 -7.47058 0
M  V30 2331 N 229.106 1.52395 0.401703 0
M  V30 2332 C 230.355 1.66044 1.14509 0
M  V30 2333 C 230.668 0.400216 1.91462 0
M  V30 2334 O 231.874 0.416632 2.68284 0
M  V30 2335 C 230.33 2.93388 2.0845 0
M  V30 2336 C 229.938 4.26545 1.36978 0
M  V30 2337 C 231.682 3.16402 2.83001 0
M  V30 2338 C 229.589 5.45007 2.29611 0
M  V30 2339 H 228.519 0.618562 0.431158 0
M  V30 2340 H 231.17 1.78886 0.40892 0
M  V30 2341 H 229.552 2.74263 2.8565 0
M  V30 2342 H 230.726 4.56179 0.650916 0
M  V30 2343 H 229.041 4.09692 0.74438 0
M  V30 2344 H 231.638 4.02085 3.52465 0
M  V30 2345 H 231.981 2.30943 3.46368 0
M  V30 2346 H 232.514 3.36034 2.12898 0
M  V30 2347 H 229.253 6.32835 1.70879 0
M  V30 2348 H 228.773 5.19702 2.9945 0
M  V30 2349 H 230.452 5.7838 2.89974 0
M  V30 2350 N 230.584 -0.659388 1.43143 0
M  V30 2351 C 231.547 -1.75432 1.47501 0
M  V30 2352 C 232.547 -1.56707 0.360512 0
M  V30 2353 O 233.737 -1.62717 0.622002 0
M  V30 2354 C 230.869 -3.14239 1.32162 0
M  V30 2355 H 232.062 -1.7295 2.45006 0
M  V30 2356 H 229.615 -0.870469 1.29817 0
M  V30 2357 H 230.35 -3.22336 0.356401 0
M  V30 2358 H 230.135 -3.29235 2.12948 0
M  V30 2359 H 231.625 -3.94094 1.3813 0
M  V30 2360 N 232.062 -1.29571 -0.897171 0
M  V30 2361 C 232.995 -1.0924 -2.00354 0
M  V30 2362 C 233.973 -0.00354011 -1.626 0
M  V30 2363 O 235.157 -0.15473 -1.87864 0
M  V30 2364 C 232.284 -0.66352 -3.32137 0
M  V30 2365 C 231.33 -1.75146 -3.88878 0
M  V30 2366 S 232.163 -3.35124 -4.17674 0
M  V30 2367 C 233.319 -2.9411 -5.52494 0
M  V30 2368 H 233.552 -2.02907 -2.17292 0
M  V30 2369 H 231.085 -1.13746 -1.04408 0
M  V30 2370 H 233.043 -0.422791 -4.08317 0
M  V30 2371 H 231.704 0.253588 -3.13075 0
M  V30 2372 H 230.897 -1.40337 -4.84068 0
M  V30 2373 H 230.499 -1.94584 -3.19395 0
M  V30 2374 H 232.791 -2.41312 -6.33068 0
M  V30 2375 H 233.734 -3.88161 -5.9223 0
M  V30 2376 H 234.142 -2.32332 -5.14473 0
M  V30 2377 N 233.54 1.10788 -1.12088 0
M  V30 2378 C 234.45 2.20599 -0.798338 0
M  V30 2379 C 235.466 1.72712 0.21135 0
M  V30 2380 O 236.642 2.01348 0.0458477 0
M  V30 2381 C 233.707 3.45771 -0.253674 0
M  V30 2382 C 232.768 4.08411 -1.32283 0
M  V30 2383 C 232.001 5.27608 -0.80406 0
M  V30 2384 O 232.224 5.69241 0.363478 0
M  V30 2385 O 231.158 5.8101 -1.57198 0
M  V30 2386 H 234.984 2.50614 -1.7154 0
M  V30 2387 H 232.569 1.19454 -0.897275 0
M  V30 2388 H 234.451 4.21376 0.0453691 0
M  V30 2389 H 233.126 3.1739 0.636005 0
M  V30 2390 H 232.033 3.34507 -1.67499 0
M  V30 2391 H 233.366 4.40986 -2.18614 0
M  V30 2392 N 235.018 0.912232 1.28515 0
M  V30 2393 C 235.981 0.404223 2.25607 0
M  V30 2394 C 236.981 -0.468602 1.53821 0
M  V30 2395 O 238.171 -0.271873 1.72065 0
M  V30 2396 C 235.303 -0.420653 3.38295 0
M  V30 2397 H 236.496 1.26188 2.7206 0
M  V30 2398 H 234.049 0.691495 1.40171 0
M  V30 2399 H 234.784 -1.29777 2.97201 0
M  V30 2400 H 234.569 0.204935 3.91564 0
M  V30 2401 H 236.059 -0.766971 4.10496 0
M  V30 2402 N 236.496 -1.42363 0.676048 0
M  V30 2403 C 237.744 -2.01123 0.198437 0
M  V30 2404 C 238.065 -1.53731 -1.19966 0
M  V30 2405 O 237.335 -0.759518 -1.80577 0
M  V30 2406 H 235.915 -0.743678 0.0703721 0
M  V30 2407 H 238.577 -1.74263 0.872837 0
M  V30 2408 H 237.673 -3.11454 0.200686 0
M  V30 2409 N 237.974 -0.419461 -1.51915 0
M  V30 2410 C 239.22 0.153166 -2.02221 0
M  V30 2411 C 239.553 1.43907 -1.30401 0
M  V30 2412 O 238.828 1.90055 -0.413438 0
M  V30 2413 C 239.111 0.390291 -3.57979 0
M  V30 2414 C 238.964 -0.913014 -4.40436 0
M  V30 2415 C 240.283 1.16794 -4.2432 0
M  V30 2416 H 237.402 0.0541924 -0.735005 0
M  V30 2417 H 240.044 -0.554955 -1.81715 0
M  V30 2418 H 238.194 0.993491 -3.75582 0
M  V30 2419 H 239.866 -1.54882 -4.34522 0
M  V30 2420 H 238.109 -1.52168 -4.06236 0
M  V30 2421 H 238.78 -0.701361 -5.47526 0
M  V30 2422 H 241.256 0.657161 -4.10878 0
M  V30 2423 H 240.132 1.3026 -5.3322 0
M  V30 2424 H 240.393 2.19132 -3.83971 0
M  V30 2425 N 239.452 1.56882 -0.150215 0
M  V30 2426 C 240.677 2.01027 0.510184 0
M  V30 2427 C 241.102 1.02966 1.57415 0
M  V30 2428 O 240.46 0.00590158 1.81299 0
M  V30 2429 C 240.508 3.43899 1.08472 0
M  V30 2430 O 239.612 3.4885 2.19948 0
M  V30 2431 H 238.953 0.652233 0.124451 0
M  V30 2432 H 241.483 2.03093 -0.247894 0
M  V30 2433 H 241.493 3.82766 1.41259 0
M  V30 2434 H 240.168 4.14776 0.305582 0
M  V30 2435 H 238.745 3.21827 1.88366 0
M  V30 2436 N 240.93 -0.123565 1.57115 0
M  V30 2437 C 242.176 -0.833386 1.84885 0
M  V30 2438 C 242.509 -1.79742 0.735292 0
M  V30 2439 O 241.784 -1.92764 -0.25925 0
M  V30 2440 C 242.067 -1.5873 3.23228 0
M  V30 2441 C 241.92 -0.643183 4.45178 0
M  V30 2442 C 243.239 -2.54453 3.59085 0
M  V30 2443 H 240.358 -0.301518 0.6725 0
M  V30 2444 H 243 -0.097778 1.89748 0
M  V30 2445 H 241.15 -2.21438 3.19214 0
M  V30 2446 H 242.822 -0.0253015 4.61293 0
M  V30 2447 H 241.065 0.0456139 4.33776 0
M  V30 2448 H 241.736 -1.20724 5.38637 0
M  V30 2449 H 244.212 -2.01853 3.63861 0
M  V30 2450 H 243.088 -3.04238 4.5687 0
M  V30 2451 H 243.349 -3.36906 2.86264 0
M  V30 2452 N 242.408 -1.52605 -0.393616 0
M  V30 2453 C 243.318 -1.79971 -1.50492 0
M  V30 2454 C 244.334 -0.686181 -1.59899 0
M  V30 2455 O 245.51 -0.973274 -1.76322 0
M  V30 2456 C 242.575 -1.95867 -2.86072 0
M  V30 2457 C 241.636 -3.19781 -2.86424 0
M  V30 2458 C 240.869 -3.34909 -4.15538 0
M  V30 2459 O 241.092 -2.54948 -5.10253 0
M  V30 2460 O 240.026 -4.28141 -4.23059 0
M  V30 2461 H 243.852 -2.74328 -1.30299 0
M  V30 2462 H 241.437 -1.3764 -0.581005 0
M  V30 2463 H 243.319 -2.08056 -3.66457 0
M  V30 2464 H 241.994 -1.04699 -3.063 0
M  V30 2465 H 240.901 -3.13038 -2.04837 0
M  V30 2466 H 242.234 -4.1078 -2.71147 0
M  V30 2467 N 243.887 0.651787 -1.4349 0
M  V30 2468 C 245.164 1.40909 -1.35661 0
M  V30 2469 C 245.544 2.11099 -0.00511733 0
M  V30 2470 O 244.892 2.04892 1.0115 0
M  V30 2471 C 245.102 2.3926 -2.54078 0
M  V30 2472 C 246.45 3.03217 -2.97228 0
M  V30 2473 O 247.474 2.49588 -2.54135 0
M  V30 2474 O 246.333 4.00455 -3.71885 0
M  V30 2475 H 243.427 0.629625 -0.536191 0
M  V30 2476 H 245.973 0.678575 -1.55542 0
M  V30 2477 H 244.745 1.86352 -3.44076 0
M  V30 2478 H 244.368 3.1976 -2.36303 0
M  V30 2479 N 245.365 1.30045 0.890287 0
M  V30 2480 C 246.611 1.18737 1.64406 0
M  V30 2481 C 246.944 -0.258525 1.92472 0
M  V30 2482 O 246.219 -1.18562 1.54186 0
M  V30 2483 C 246.502 2.01087 2.98724 0
M  V30 2484 C 246.355 3.53867 2.77665 0
M  V30 2485 C 247.674 1.84457 3.9958 0
M  V30 2486 H 244.793 0.432698 0.596608 0
M  V30 2487 H 247.435 1.5962 1.0306 0
M  V30 2488 H 245.585 1.66349 3.51084 0
M  V30 2489 H 247.257 3.98637 2.32133 0
M  V30 2490 H 245.5 3.78318 2.12269 0
M  V30 2491 H 246.171 4.06772 3.7315 0
M  V30 2492 H 248.647 2.14817 3.56361 0
M  V30 2493 H 247.523 2.44411 4.91482 0
M  V30 2494 H 247.784 0.802276 4.3476 0
M  V30 2495 N 246.843 -1.10192 1.12674 0
M  V30 2496 C 247.775 -2.16418 0.754701 0
M  V30 2497 C 248.788 -1.61309 -0.21986 0
M  V30 2498 O 249.977 -1.785 -0.000826841 0
M  V30 2499 C 247.077 -3.38762 0.096698 0
M  V30 2500 C 246.25 -4.23307 1.10136 0
M  V30 2501 C 245.309 -5.24092 0.470513 0
M  V30 2502 O 244.335 -5.57906 1.12824 0
M  V30 2503 N 245.537 -5.75491 -0.760948 0
M  V30 2504 H 248.302 -2.48943 1.66875 0
M  V30 2505 H 245.863 -1.25834 1.01869 0
M  V30 2506 H 247.855 -4.03291 -0.337384 0
M  V30 2507 H 246.425 -3.04192 -0.720153 0
M  V30 2508 H 245.645 -3.55036 1.71299 0
M  V30 2509 H 246.933 -4.76624 1.78064 0
M  V30 2510 H 246.331 -5.50222 -1.31424 0
M  V30 2511 H 244.888 -6.41792 -1.13781 0
M  V30 2512 N 248.321 -0.919034 -1.28029 0
M  V30 2513 C 249.284 -0.416182 -2.2539 0
M  V30 2514 C 250.284 0.460438 -1.54067 0
M  V30 2515 O 251.474 0.262744 -1.72207 0
M  V30 2516 C 248.606 0.402707 -3.38513 0
M  V30 2517 H 249.799 -1.27629 -2.71387 0
M  V30 2518 H 247.352 -0.698919 -1.39803 0
M  V30 2519 H 248.087 1.282 -2.97885 0
M  V30 2520 H 247.872 -0.225698 -3.9145 0
M  V30 2521 H 249.362 0.745191 -4.10897 0
M  V30 2522 N 249.799 1.42003 -0.683588 0
M  V30 2523 C 250.732 2.28166 0.039592 0
M  V30 2524 C 251.71 1.41562 0.799942 0
M  V30 2525 O 252.894 1.70997 0.793248 0
M  V30 2526 C 250.021 3.21575 1.06335 0
M  V30 2527 C 249.067 4.24643 0.397562 0
M  V30 2528 S 249.9 5.2869 -0.851296 0
M  V30 2529 C 251.056 6.25666 0.171166 0
M  V30 2530 H 251.289 2.89153 -0.691229 0
M  V30 2531 H 248.822 1.46962 -0.473435 0
M  V30 2532 H 250.78 3.75928 1.6489 0
M  V30 2533 H 249.441 2.59707 1.76667 0
M  V30 2534 H 248.634 4.90223 1.17035 0
M  V30 2535 H 248.236 3.73824 -0.114611 0
M  V30 2536 H 250.528 6.69653 1.02819 0
M  V30 2537 H 251.471 7.06666 -0.450397 0
M  V30 2538 H 251.879 5.62095 0.520578 0
M  V30 2539 N 251.277 0.427512 1.51691 0
M  V30 2540 C 252.207 -0.3796 2.30394 0
M  V30 2541 C 253.188 -1.02982 1.35384 0
M  V30 2542 O 254.373 -1.03534 1.643 0
M  V30 2543 C 251.503 -1.48649 3.1388 0
M  V30 2544 C 250.457 -0.960294 4.17088 0
M  V30 2545 C 249.783 -2.16219 4.89033 0
M  V30 2546 C 251.083 -0.00153679 5.223 0
M  V30 2547 H 252.777 0.277164 2.98114 0
M  V30 2548 H 250.323 0.134739 1.43368 0
M  V30 2549 H 252.276 -2.05826 3.67714 0
M  V30 2550 H 251 -2.1714 2.43962 0
M  V30 2551 H 249.659 -0.410806 3.64291 0
M  V30 2552 H 249.307 -2.83307 4.15628 0
M  V30 2553 H 249.007 -1.81654 5.58816 0
M  V30 2554 H 250.531 -2.73968 5.45687 0
M  V30 2555 H 251.945 -0.482687 5.71264 0
M  V30 2556 H 250.342 0.256199 5.99553 0
M  V30 2557 H 251.412 0.938174 4.75738 0
M  V30 2558 N 252.755 -1.56801 0.158532 0
M  V30 2559 C 253.688 -2.13148 -0.815065 0
M  V30 2560 C 254.666 -1.0581 -1.23462 0
M  V30 2561 O 255.85 -1.3371 -1.32868 0
M  V30 2562 C 252.977 -2.6606 -2.09594 0
M  V30 2563 C 252.023 -3.85651 -1.82141 0
M  V30 2564 S 252.856 -5.26041 -1.00207 0
M  V30 2565 C 254.012 -5.8235 -2.29389 0
M  V30 2566 H 254.245 -2.95396 -0.335937 0
M  V30 2567 H 251.778 -1.54299 -0.0559391 0
M  V30 2568 H 253.736 -2.97195 -2.8317 0
M  V30 2569 H 252.397 -1.83921 -2.54621 0
M  V30 2570 H 251.59 -4.20958 -2.77147 0
M  V30 2571 H 251.192 -3.55338 -1.16667 0
M  V30 2572 H 253.484 -5.94485 -3.24952 0
M  V30 2573 H 254.427 -6.79688 -1.9857 0
M  V30 2574 H 254.835 -5.10675 -2.40564 0
M  V30 2575 N 254.233 0.115231 -1.57178 0
M  V30 2576 C 255.481 0.820727 -1.84685 0
M  V30 2577 C 255.802 1.80237 -0.744279 0
M  V30 2578 O 255.072 1.94529 0.231375 0
M  V30 2579 H 253.652 0.306084 -0.681411 0
M  V30 2580 H 256.314 0.101656 -1.94635 0
M  V30 2581 H 255.41 1.36366 -2.80733 0
M  V30 2582 N 255.711 1.52812 0.385517 0
M  V30 2583 C 256.959 1.67694 1.12797 0
M  V30 2584 C 257.28 0.421115 1.90399 0
M  V30 2585 O 256.55 -0.564551 1.87589 0
M  V30 2586 H 255.13 0.618155 0.419396 0
M  V30 2587 H 257.792 1.89938 0.436972 0
M  V30 2588 H 256.888 2.52896 1.82894 0
M  V30 2589 N 257.189 -0.644168 1.43834 0
M  V30 2590 C 258.139 -1.7501 1.46135 0
M  V30 2591 C 259.123 -1.57507 0.328685 0
M  V30 2592 O 260.315 -1.67465 0.5731 0
M  V30 2593 C 257.444 -3.13641 1.39585 0
M  V30 2594 C 256.53 -3.3666 2.57916 0
M  V30 2595 N 256.921 -3.30107 3.83227 0
M  V30 2596 C 255.219 -3.67411 2.52834 0
M  V30 2597 C 255.92 -3.53456 4.61999 0
M  V30 2598 N 254.896 -3.75705 3.9287 0
M  V30 2599 H 258.698 -1.68382 2.40883 0
M  V30 2600 H 256.212 -0.846169 1.38614 0
M  V30 2601 H 258.209 -3.92933 1.39317 0
M  V30 2602 H 256.869 -3.21444 0.45865 0
M  V30 2603 H 257.88 -3.09316 4.15384 0
M  V30 2604 H 254.557 -3.82275 1.67845 0
M  V30 2605 H 255.947 -3.54093 5.71024 0
M  V30 2606 N 258.668 -1.30515 -0.883378 0
M  V30 2607 C 259.916 -1.19194 -1.63209 0
M  V30 2608 C 260.237 0.253205 -1.93349 0
M  V30 2609 O 259.507 1.17025 -1.57105 0
M  V30 2610 H 258.087 -0.438148 -0.605009 0
M  V30 2611 H 260.749 -1.63663 -1.05832 0
M  V30 2612 H 259.845 -1.75396 -2.58153 0
M  V30 2613 N 260.146 1.09593 -1.13257 0
M  V30 2614 C 261.423 1.78293 -0.804432 0
M  V30 2615 C 261.803 1.99004 0.70431 0
M  V30 2616 O 261.151 1.59007 1.641 0
M  V30 2617 C 261.361 3.10707 -1.5894 0
M  V30 2618 C 262.709 3.85443 -1.78099 0
M  V30 2619 O 263.733 3.20454 -1.55525 0
M  V30 2620 O 262.592 5.02108 -2.15753 0
M  V30 2621 H 259.686 0.773156 -0.293528 0
M  V30 2622 H 262.232 1.16164 -1.23709 0
M  V30 2623 H 261.004 2.91106 -2.61482 0
M  V30 2624 H 260.627 3.80558 -1.15157 0
M  V30 2625 N 261.624 0.925811 1.2754 0
M  V30 2626 C 262.534 0.428993 2.30644 0
M  V30 2627 C 263.55 -0.489387 1.66976 0
M  V30 2628 O 264.726 -0.372653 1.97922 0
M  V30 2629 C 261.791 -0.311967 3.45294 0
M  V30 2630 C 260.852 0.641098 4.24486 0
M  V30 2631 C 260.085 -0.0645955 5.33661 0
M  V30 2632 O 260.308 -1.28429 5.55754 0
M  V30 2633 O 259.242 0.606265 5.98839 0
M  V30 2634 H 263.068 1.28504 2.75173 0
M  V30 2635 H 260.653 0.691086 1.32455 0
M  V30 2636 H 262.535 -0.729972 4.15029 0
M  V30 2637 H 261.21 -1.14365 3.02824 0
M  V30 2638 H 260.117 1.10874 3.57292 0
M  V30 2639 H 261.45 1.43995 4.70666 0
M  V30 2640 N 263.102 -1.41638 0.69111 0
M  V30 2641 C 264.035 -2.28183 -0.0274913 0
M  V30 2642 C 265.013 -1.41984 -0.792424 0
M  V30 2643 O 266.197 -1.71415 -0.784169 0
M  V30 2644 C 263.324 -3.22135 -1.04628 0
M  V30 2645 C 262.37 -4.24848 -0.375037 0
M  V30 2646 S 263.203 -5.28231 0.879321 0
M  V30 2647 C 264.359 -6.25748 -0.137983 0
M  V30 2648 H 264.592 -2.88782 0.706553 0
M  V30 2649 H 262.125 -1.46709 0.481222 0
M  V30 2650 H 264.083 -3.76797 -1.62894 0
M  V30 2651 H 262.744 -2.6064 -1.75287 0
M  V30 2652 H 261.937 -4.90837 -1.14433 0
M  V30 2653 H 261.539 -3.73758 0.134434 0
M  V30 2654 H 263.831 -6.70188 -0.992659 0
M  V30 2655 H 264.774 -7.06417 0.487867 0
M  V30 2656 H 265.182 -5.62363 -0.490762 0
M  V30 2657 N 264.58 -0.43555 -1.51462 0
M  V30 2658 C 265.826 0.131709 -2.02372 0
M  V30 2659 C 266.159 1.42516 -1.3192 0
M  V30 2660 O 265.434 1.89606 -0.433573 0
M  V30 2661 C 265.717 0.352301 -3.58373 0
M  V30 2662 C 265.57 -0.959676 -4.39443 0
M  V30 2663 C 266.889 1.12286 -4.25535 0
M  V30 2664 H 264.008 0.0463936 -0.735538 0
M  V30 2665 H 266.65 -0.574197 -1.81116 0
M  V30 2666 H 264.8 0.9536 -3.76615 0
M  V30 2667 H 266.472 -1.59482 -4.32855 0
M  V30 2668 H 264.715 -1.56468 -4.04599 0
M  V30 2669 H 265.386 -0.759394 -5.46752 0
M  V30 2670 H 267.862 0.613545 -4.11552 0
M  V30 2671 H 266.738 1.24598 -5.34571 0
M  V30 2672 H 266.999 2.15048 -3.86273 0
M  V30 2673 N 266.058 1.56714 -0.166846 0
M  V30 2674 C 267.469 1.83378 0.350646 0
M  V30 2675 C 267.82 1.08646 1.63372 0
M  V30 2676 O 266.945 0.338058 2.13743 0
M  V30 2677 C 267.54 3.32643 0.642963 0
M  V30 2678 C 266.099 3.59818 1.10491 0
M  V30 2679 C 265.246 2.76954 0.138411 0
M  V30 2680 H 268.197 1.53803 -0.391193 0
M  V30 2681 H 268.218 3.49878 1.49551 0
M  V30 2682 H 267.73 3.87007 -0.291055 0
M  V30 2683 H 265.831 3.1086 2.05418 0
M  V30 2684 H 265.944 4.68178 1.01716 0
M  V30 2685 H 264.308 2.4666 0.634911 0
M  V30 2686 H 265.091 3.34097 -0.789549 0
M  V30 2687 N 267.536 -0.106894 1.57237 0
M  V30 2688 C 268.466 -1.13148 2.04254 0
M  V30 2689 C 269.447 -1.42476 0.929224 0
M  V30 2690 O 270.632 -1.52709 1.19973 0
M  V30 2691 C 267.762 -2.4545 2.45706 0
M  V30 2692 C 266.716 -2.30558 3.60592 0
M  V30 2693 C 266.042 -3.67931 3.87983 0
M  V30 2694 C 267.342 -1.75597 4.91897 0
M  V30 2695 H 269.036 -0.740374 2.90101 0
M  V30 2696 H 266.582 -0.354696 1.39563 0
M  V30 2697 H 268.535 -3.17389 2.77205 0
M  V30 2698 H 267.259 -2.86475 1.56843 0
M  V30 2699 H 265.918 -1.61067 3.29322 0
M  V30 2700 H 265.566 -4.06462 2.96306 0
M  V30 2701 H 265.266 -3.58817 4.65322 0
M  V30 2702 H 266.79 -4.41356 4.21945 0
M  V30 2703 H 268.204 -2.37364 5.21854 0
M  V30 2704 H 266.601 -1.77272 5.73319 0
M  V30 2705 H 267.671 -0.714451 4.79608 0
M  V30 2706 N 269.014 -1.53014 -0.377408 0
M  V30 2707 C 270.425 -1.60438 -0.954798 0
M  V30 2708 C 270.776 -0.464418 -1.90624 0
M  V30 2709 O 269.901 0.41087 -2.12464 0
M  V30 2710 C 270.496 -2.90797 -1.73847 0
M  V30 2711 C 269.055 -3.00595 -2.26538 0
M  V30 2712 C 268.202 -2.55645 -1.07429 0
M  V30 2713 H 271.153 -1.57926 -0.156575 0
M  V30 2714 H 271.174 -2.77935 -2.5987 0
M  V30 2715 H 270.686 -3.73746 -1.04574 0
M  V30 2716 H 268.787 -2.22208 -2.99089 0
M  V30 2717 H 268.9 -4.05456 -2.5523 0
M  V30 2718 H 267.264 -2.10239 -1.43777 0
M  V30 2719 H 268.047 -3.41 -0.396728 0
M  V30 2720 N 270.492 0.636531 -1.44174 0
M  V30 2721 C 271.908 0.954104 -1.27941 0
M  V30 2722 C 272.108 2.0039 -0.211248 0
M  V30 2723 O 271.164 2.49236 0.404695 0
M  V30 2724 C 272.477 1.4225 -2.64925 0
M  V30 2725 C 274.025 1.53827 -2.72592 0
M  V30 2726 C 274.5 2.04053 -4.10032 0
M  V30 2727 N 275.991 2.11331 -4.12182 0
M  V30 2728 C 276.726 2.51352 -5.15374 0
M  V30 2729 N 276.222 2.90549 -6.2893 0
M  V30 2730 N 278.015 2.51438 -5.02728 0
M  V30 2731 H 270.166 -0.0578386 -2.12321 0
M  V30 2732 H 272.429 0.0367406 -0.947288 0
M  V30 2733 H 272.135 0.725466 -3.44136 0
M  V30 2734 H 272.009 2.39451 -2.9145 0
M  V30 2735 H 274.396 2.22628 -1.93702 0
M  V30 2736 H 274.477 0.550154 -2.49814 0
M  V30 2737 H 274.121 1.35848 -4.89395 0
M  V30 2738 H 274.051 3.03726 -4.30184 0
M  V30 2739 H 276.542 1.83745 -3.30222 0
M  V30 2740 H 276.855 3.19884 -7.03487 0
M  V30 2741 H 275.2 2.88313 -6.32377 0
M  V30 2742 H 278.391 2.20203 -4.13072 0
M  V30 2743 H 278.564 2.82304 -5.83274 0
M  V30 2744 N 271.97 1.30982 0.876444 0
M  V30 2745 C 273.217 1.20296 1.62896 0
M  V30 2746 C 273.545 -0.240395 1.93009 0
M  V30 2747 O 272.8 -1.18733 1.55567 0
M  V30 2748 C 273.099 1.98572 2.9716 0
M  V30 2749 C 272.765 3.48125 2.86566 0
M  V30 2750 C 271.427 3.88905 2.83383 0
M  V30 2751 C 273.779 4.43322 2.74071 0
M  V30 2752 C 271.107 5.2316 2.65556 0
M  V30 2753 C 273.459 5.77695 2.57781 0
M  V30 2754 C 272.123 6.17704 2.52979 0
M  V30 2755 H 271.393 0.440193 0.59608 0
M  V30 2756 H 274.04 1.62177 1.01837 0
M  V30 2757 H 272.345 1.49352 3.62217 0
M  V30 2758 H 274.042 1.8769 3.54364 0
M  V30 2759 H 270.632 3.15723 2.89856 0
M  V30 2760 H 274.816 4.12752 2.75589 0
M  V30 2761 H 270.072 5.53241 2.60259 0
M  V30 2762 H 274.246 6.51091 2.47089 0
M  V30 2763 H 271.873 7.21678 2.38924 0
M  V30 2764 N 273.449 -1.08991 1.13837 0
M  V30 2765 C 274.674 -1.85551 0.926585 0
M  V30 2766 C 275.099 -1.80782 -0.519566 0
M  V30 2767 O 274.457 -1.18855 -1.36906 0
M  V30 2768 C 274.505 -3.31266 1.42462 0
M  V30 2769 O 273.609 -4.07822 0.612789 0
M  V30 2770 H 272.95 -0.575192 0.331738 0
M  V30 2771 H 275.48 -1.37604 1.51414 0
M  V30 2772 H 275.49 -3.82112 1.43019 0
M  V30 2773 H 274.165 -3.34052 2.47754 0
M  V30 2774 H 272.742 -3.66731 0.675463 0
M  V30 2775 N 274.927 -0.932562 -1.27047 0
M  V30 2776 C 276.155 -0.592031 -1.98249 0
M  V30 2777 C 276.57 0.831062 -1.69525 0
M  V30 2778 O 275.927 1.55299 -0.958561 0
M  V30 2779 C 275.978 -0.814279 -3.5221 0
M  V30 2780 O 275.699 -2.18139 -3.7993 0
M  V30 2781 C 277.2 -0.483121 -4.4066 0
M  V30 2782 H 274.42 -0.223896 -0.632544 0
M  V30 2783 H 276.964 -1.25091 -1.61779 0
M  V30 2784 H 275.119 -0.20213 -3.86872 0
M  V30 2785 H 275.533 -2.235 -4.74498 0
M  V30 2786 H 277.007 -0.689298 -5.47679 0
M  V30 2787 H 277.484 0.581546 -4.35333 0
M  V30 2788 H 278.09 -1.07362 -4.11526 0
M  V30 2789 N 276.405 1.4127 -0.698611 0
M  V30 2790 C 277.654 2.00408 -0.227949 0
M  V30 2791 C 277.967 1.55981 1.18023 0
M  V30 2792 O 279.173 2.07699 1.74852 0
M  V30 2793 C 277.629 3.58129 -0.356636 0
M  V30 2794 C 277.237 4.11536 -1.77037 0
M  V30 2795 C 278.981 4.24466 0.0540969 0
M  V30 2796 C 276.888 5.61701 -1.85055 0
M  V30 2797 H 275.818 0.749586 -0.0814657 0
M  V30 2798 H 278.469 1.61713 -0.867249 0
M  V30 2799 H 276.851 3.94442 0.350965 0
M  V30 2800 H 278.025 3.86636 -2.50698 0
M  V30 2801 H 276.34 3.57736 -2.13105 0
M  V30 2802 H 278.937 5.34698 0.0146723 0
M  V30 2803 H 279.28 4.01687 1.09332 0
M  V30 2804 H 279.813 3.93198 -0.603337 0
M  V30 2805 H 276.552 5.89312 -2.8704 0
M  V30 2806 H 276.072 5.88519 -1.15783 0
M  V30 2807 H 277.751 6.26524 -1.61484 0
M  V30 2808 N 277.883 0.443576 1.51229 0
M  V30 2809 C 279.108 -0.121648 2.07043 0
M  V30 2810 C 279.533 -1.35156 1.30823 0
M  V30 2811 O 278.891 -1.7793 0.347934 0
M  V30 2812 C 278.939 -0.41624 3.5819 0
M  V30 2813 O 278.043 -1.50163 3.8409 0
M  V30 2814 H 277.384 0.000871367 0.663999 0
M  V30 2815 H 279.914 0.626706 1.94765 0
M  V30 2816 H 279.924 -0.664867 4.02546 0
M  V30 2817 H 278.599 0.482653 4.1309 0
M  V30 2818 H 277.176 -1.24248 3.51592 0
M  V30 2819 N 279.361 -1.56624 0.175154 0
M  V30 2820 C 280.609 -1.96609 -0.467885 0
M  V30 2821 C 280.93 -1.06238 -1.63519 0
M  V30 2822 O 280.2 -0.129523 -1.95471 0
M  V30 2823 H 278.78 -0.726008 -0.175845 0
M  V30 2824 H 281.442 -1.93195 0.257234 0
M  V30 2825 H 280.538 -3.00989 -0.825342 0
M  V30 2826 N 280.839 0.0985539 -1.57292 0
M  V30 2827 C 282.088 0.801358 -1.85098 0
M  V30 2828 C 282.401 1.80066 -0.763902 0
M  V30 2829 O 283.607 2.55112 -0.928981 0
M  V30 2830 C 282.063 1.47599 -3.28242 0
M  V30 2831 C 281.671 0.516624 -4.45011 0
M  V30 2832 C 283.415 2.16272 -3.65276 0
M  V30 2833 C 281.322 1.19564 -5.79188 0
M  V30 2834 H 280.252 0.303022 -0.69043 0
M  V30 2835 H 282.903 0.0542623 -1.8342 0
M  V30 2836 H 281.285 2.27042 -3.2445 0
M  V30 2837 H 282.459 -0.246065 -4.60143 0
M  V30 2838 H 280.774 -0.064227 -4.1635 0
M  V30 2839 H 283.371 2.67802 -4.62803 0
M  V30 2840 H 283.714 2.95009 -2.93727 0
M  V30 2841 H 284.247 1.43693 -3.70941 0
M  V30 2842 H 280.986 0.449157 -6.53959 0
M  V30 2843 H 280.506 1.92984 -5.67906 0
M  V30 2844 H 282.185 1.7231 -6.23633 0
M  V30 2845 N 282.317 1.53212 0.369288 0
M  V30 2846 C 283.728 1.60943 0.946276 0
M  V30 2847 C 284.079 0.47452 1.90375 0
M  V30 2848 O 283.204 -0.399597 2.12679 0
M  V30 2849 C 283.799 2.91715 1.72302 0
M  V30 2850 C 282.358 3.01792 2.24941 0
M  V30 2851 C 281.505 2.56211 1.06072 0
M  V30 2852 H 284.456 1.58007 0.148198 0
M  V30 2853 H 284.477 2.79309 2.58393 0
M  V30 2854 H 283.989 3.74295 1.0259 0
M  V30 2855 H 282.09 2.23791 2.97906 0
M  V30 2856 H 282.203 4.06803 2.53077 0
M  V30 2857 H 280.567 2.10998 1.4266 0
M  V30 2858 H 281.35 3.41206 0.378639 0
M  V30 2859 N 283.795 -0.628877 1.44509 0
M  V30 2860 C 285.041 -1.39045 1.47629 0
M  V30 2861 C 285.374 -1.93892 0.109343 0
M  V30 2862 O 284.649 -1.7379 -0.87334 0
M  V30 2863 C 284.932 -2.55408 2.53848 0
M  V30 2864 C 284.785 -2.05896 3.99909 0
M  V30 2865 C 286.104 -3.5759 2.56549 0
M  V30 2866 H 283.223 -0.504232 0.537512 0
M  V30 2867 H 285.865 -0.710854 1.76201 0
M  V30 2868 H 284.015 -3.13384 2.29615 0
M  V30 2869 H 285.687 -1.52734 4.35282 0
M  V30 2870 H 283.93 -1.37061 4.11578 0
M  V30 2871 H 284.601 -2.89681 4.69882 0
M  V30 2872 H 287.077 -3.09419 2.78207 0
M  V30 2873 H 285.953 -4.36527 3.32769 0
M  V30 2874 H 286.214 -4.11808 1.60832 0
M  V30 2875 N 285.273 -1.31445 -0.869486 0
M  V30 2876 C 286.498 -1.24256 -1.66058 0
M  V30 2877 C 286.923 0.188928 -1.87149 0
M  V30 2878 O 286.281 1.13522 -1.4136 0
M  V30 2879 C 286.329 -1.9924 -3.00559 0
M  V30 2880 O 285.433 -1.33007 -3.90362 0
M  V30 2881 H 284.774 -0.428973 -0.506831 0
M  V30 2882 H 287.304 -1.73521 -1.08404 0
M  V30 2883 H 287.314 -2.08854 -3.50491 0
M  V30 2884 H 285.989 -3.03342 -2.84528 0
M  V30 2885 H 284.566 -1.31848 -3.48813 0
M  V30 2886 N 286.751 1.08385 -1.14413 0
M  V30 2887 C 287.661 2.18856 -0.844951 0
M  V30 2888 C 288.677 1.73121 0.174668 0
M  V30 2889 O 289.853 2.014 0.00312857 0
M  V30 2890 C 286.918 3.45155 -0.32696 0
M  V30 2891 C 285.979 4.05513 -1.40916 0
M  V30 2892 C 285.212 5.25784 -0.915793 0
M  V30 2893 O 285.435 5.69884 0.242651 0
M  V30 2894 O 284.369 5.77545 -1.69487 0
M  V30 2895 H 288.195 2.46919 -1.76818 0
M  V30 2896 H 285.78 1.17524 -0.922411 0
M  V30 2897 H 287.662 4.21377 -0.0440211 0
M  V30 2898 H 286.337 3.18668 0.568539 0
M  V30 2899 H 285.244 3.30879 -1.74556 0
M  V30 2900 H 286.577 4.3625 -2.27919 0
M  V30 2901 N 288.23 0.939286 1.26551 0
M  V30 2902 C 289.477 0.585847 1.9384 0
M  V30 2903 C 289.805 -0.874784 1.73718 0
M  V30 2904 O 289.06 -1.64092 1.06642 0
M  V30 2905 C 289.359 0.872106 3.46596 0
M  V30 2906 C 289.025 2.31632 3.86856 0
M  V30 2907 C 287.687 2.71111 3.97558 0
M  V30 2908 C 290.039 3.25494 4.07066 0
M  V30 2909 C 287.367 4.03553 4.25866 0
M  V30 2910 C 289.719 4.57531 4.36862 0
M  V30 2911 C 288.383 4.96828 4.45778 0
M  V30 2912 H 287.653 0.214377 0.709312 0
M  V30 2913 H 290.3 1.18544 1.50398 0
M  V30 2914 H 288.605 0.18996 3.91339 0
M  V30 2915 H 290.302 0.577442 3.96821 0
M  V30 2916 H 286.892 2.00008 3.79071 0
M  V30 2917 H 291.076 2.9619 3.98227 0
M  V30 2918 H 286.332 4.33665 4.30981 0
M  V30 2919 H 290.506 5.30254 4.51446 0
M  V30 2920 H 288.133 5.99482 4.67468 0
M  V30 2921 N 289.708 -1.40897 0.706093 0
M  V30 2922 C 290.957 -2.00284 0.238574 0
M  V30 2923 C 291.27 -1.56604 -1.17194 0
M  V30 2924 O 292.476 -2.08624 -1.73748 0
M  V30 2925 C 290.932 -3.57934 0.375623 0
M  V30 2926 C 290.54 -4.10591 1.79217 0
M  V30 2927 C 292.284 -4.24488 -0.0315857 0
M  V30 2928 C 290.191 -5.60712 1.88032 0
M  V30 2929 H 289.121 -0.749144 0.0854398 0
M  V30 2930 H 291.772 -1.61251 0.875813 0
M  V30 2931 H 290.154 -3.94622 -0.330042 0
M  V30 2932 H 291.328 -3.85301 2.52745 0
M  V30 2933 H 289.643 -3.56601 2.15 0
M  V30 2934 H 292.24 -5.34698 0.0136842 0
M  V30 2935 H 292.583 -4.02261 -1.072 0
M  V30 2936 H 293.116 -3.92873 0.624181 0
M  V30 2937 H 289.855 -5.87781 2.90161 0
M  V30 2938 H 289.375 -5.87896 1.18903 0
M  V30 2939 H 291.054 -6.25658 1.64805 0
M  V30 2940 N 291.186 -0.45159 -1.50991 0
M  V30 2941 C 292.149 0.341117 -2.26647 0
M  V30 2942 C 293.149 0.937422 -1.30649 0
M  V30 2943 O 294.339 0.809644 -1.54241 0
M  V30 2944 C 291.471 1.48398 -3.06905 0
M  V30 2945 H 292.664 -0.322117 -2.98165 0
M  V30 2946 H 290.217 -0.205122 -1.54948 0
M  V30 2947 H 290.952 2.18284 -2.39838 0
M  V30 2948 H 290.737 1.06241 -3.77432 0
M  V30 2949 H 292.227 2.04367 -3.64176 0
M  V30 2950 N 292.664 1.56529 -0.183458 0
M  V30 2951 C 294.075 1.83739 0.331177 0
M  V30 2952 C 294.426 1.10373 1.62211 0
M  V30 2953 O 293.551 0.36071 2.13373 0
M  V30 2954 C 294.146 3.33306 0.607646 0
M  V30 2955 C 292.705 3.60969 1.06668 0
M  V30 2956 C 291.852 2.77086 0.109029 0
M  V30 2957 H 294.803 1.53379 -0.407484 0
M  V30 2958 H 294.824 3.51444 1.45832 0
M  V30 2959 H 294.336 3.86677 -0.332086 0
M  V30 2960 H 292.437 3.13021 2.0211 0
M  V30 2961 H 292.55 4.69231 0.967447 0
M  V30 2962 H 290.914 2.47319 0.608714 0
M  V30 2963 H 291.697 3.33241 -0.82494 0
M  V30 2964 N 294.142 -0.090211 1.57342 0
M  V30 2965 C 295.419 -0.824761 1.77361 0
M  V30 2966 C 295.799 -1.96698 0.76637 0
M  V30 2967 O 295.147 -2.27586 -0.204179 0
M  V30 2968 C 295.357 -1.31481 3.23286 0
M  V30 2969 C 296.705 -1.75563 3.86604 0
M  V30 2970 O 297.729 -1.41093 3.27065 0
M  V30 2971 O 296.588 -2.39317 4.91314 0
M  V30 2972 H 293.682 -0.393776 0.727234 0
M  V30 2973 H 296.228 -0.0717138 1.69548 0
M  V30 2974 H 295 -0.496671 3.88135 0
M  V30 2975 H 294.623 -2.12973 3.35751 0
M  V30 2976 N 295.62 -1.53406 -0.361157 0
M  V30 2977 C 297.036 -1.43277 -0.703124 0
M  V30 2978 C 297.236 -0.575384 -1.9311 0
M  V30 2979 O 296.292 -0.0595362 -2.5243 0
M  V30 2980 C 297.605 -2.8653 -0.9122 0
M  V30 2981 C 299.153 -2.96191 -1.01193 0
M  V30 2982 C 299.628 -4.40514 -1.25345 0
M  V30 2983 N 301.119 -4.43962 -1.32105 0
M  V30 2984 C 301.854 -5.52746 -1.5251 0
M  V30 2985 N 301.35 -6.71567 -1.70203 0
M  V30 2986 N 303.143 -5.40331 -1.54916 0
M  V30 2987 H 295.294 -2.07654 0.446475 0
M  V30 2988 H 297.557 -0.937944 0.137715 0
M  V30 2989 H 297.263 -3.51605 -0.0816414 0
M  V30 2990 H 297.137 -3.30441 -1.81903 0
M  V30 2991 H 299.524 -2.31266 -1.83303 0
M  V30 2992 H 299.605 -2.55667 -0.0823929 0
M  V30 2993 H 299.249 -5.06014 -0.437346 0
M  V30 2994 H 299.179 -4.78614 -2.19627 0
M  V30 2995 H 301.67 -3.58332 -1.20028 0
M  V30 2996 H 301.983 -7.50241 -1.85359 0
M  V30 2997 H 300.328 -6.74545 -1.67373 0
M  V30 2998 H 303.519 -4.46465 -1.40663 0
M  V30 2999 H 303.692 -6.25173 -1.70477 0
M  V30 3000 N 297.098 0.621204 -1.44841 0
M  V30 3001 C 298.028 1.74366 -1.55303 0
M  V30 3002 C 299.009 1.65199 -0.405385 0
M  V30 3003 O 300.194 1.83807 -0.626787 0
M  V30 3004 C 297.324 3.12931 -1.50637 0
M  V30 3005 C 296.278 3.36896 -2.63979 0
M  V30 3006 C 295.604 4.75594 -2.44366 0
M  V30 3007 C 296.904 3.28483 -4.06074 0
M  V30 3008 H 298.598 1.65867 -2.49256 0
M  V30 3009 H 296.144 0.796558 -1.19962 0
M  V30 3010 H 298.097 3.9124 -1.56555 0
M  V30 3011 H 296.821 3.22237 -0.532057 0
M  V30 3012 H 295.48 2.60972 -2.57467 0
M  V30 3013 H 295.128 4.81616 -1.45105 0
M  V30 3014 H 294.828 4.92586 -3.20364 0
M  V30 3015 H 296.352 5.5612 -2.52117 0
M  V30 3016 H 297.766 3.96684 -4.13902 0
M  V30 3017 H 296.163 3.57008 -4.82354 0
M  V30 3018 H 297.233 2.26133 -4.28943 0
M  V30 3019 N 298.576 1.31904 0.862503 0
M  V30 3020 C 299.539 1.20131 1.95195 0
M  V30 3021 C 300.539 0.126409 1.60302 0
M  V30 3022 O 301.729 0.376234 1.70089 0
M  V30 3023 C 298.861 0.845691 3.30244 0
M  V30 3024 H 300.054 2.16943 2.07064 0
M  V30 3025 H 297.607 1.15622 1.05172 0
M  V30 3026 H 298.342 -0.120957 3.24074 0
M  V30 3027 H 298.127 1.62276 3.56944 0
M  V30 3028 H 299.617 0.787418 4.10109 0
M  V30 3029 N 300.054 -1.07777 1.14986 0
M  V30 3030 C 300.986 -2.14769 0.800436 0
M  V30 3031 C 301.999 -1.61739 -0.185595 0
M  V30 3032 O 303.188 -1.78462 0.0370358 0
M  V30 3033 C 300.288 -3.38481 0.168533 0
M  V30 3034 C 299.461 -4.20876 1.1909 0
M  V30 3035 C 298.52 -5.22976 0.581575 0
M  V30 3036 O 297.546 -5.55388 1.24633 0
M  V30 3037 N 298.748 -5.76976 -0.638706 0
M  V30 3038 H 301.513 -2.45348 1.72118 0
M  V30 3039 H 299.074 -1.23645 1.04515 0
M  V30 3040 H 301.066 -4.03916 -0.251764 0
M  V30 3041 H 299.636 -3.05651 -0.655467 0
M  V30 3042 H 298.856 -3.51322 1.78791 0
M  V30 3043 H 300.144 -4.7274 1.88133 0
M  V30 3044 H 299.542 -5.52886 -1.19723 0
M  V30 3045 H 298.099 -6.44061 -1.00142 0
M  V30 3046 N 301.532 -0.945985 -1.26051 0
M  V30 3047 C 302.781 -0.591836 -1.92822 0
M  V30 3048 C 303.094 0.873956 -1.7499 0
M  V30 3049 O 304.3 1.33769 -2.36259 0
M  V30 3050 C 302.756 -1.00776 -3.45503 0
M  V30 3051 C 302.364 -2.4955 -3.7206 0
M  V30 3052 C 304.108 -0.725735 -4.1825 0
M  V30 3053 C 302.015 -2.84988 -5.18205 0
M  V30 3054 H 300.945 -0.217635 -0.721908 0
M  V30 3055 H 303.596 -1.14927 -1.43052 0
M  V30 3056 H 301.978 -0.378812 -3.94184 0
M  V30 3057 H 303.152 -3.1739 -3.34066 0
M  V30 3058 H 301.467 -2.75133 -3.12555 0
M  V30 3059 H 304.064 -0.966771 -5.25887 0
M  V30 3060 H 304.407 0.337639 -4.14929 0
M  V30 3061 H 304.94 -1.31463 -3.7545 0
M  V30 3062 H 301.679 -3.90307 -5.26631 0
M  V30 3063 H 301.199 -2.21813 -5.57278 0
M  V30 3064 H 302.878 -2.73712 -5.86252 0
M  V30 3065 N 303.011 1.40521 -0.713556 0
M  V30 3066 C 304.257 2.01221 -0.252564 0
M  V30 3067 C 304.59 1.56444 1.1506 0
M  V30 3068 O 303.865 0.783597 1.78017 0
M  V30 3069 C 304.148 3.58582 -0.330332 0
M  V30 3070 C 304.001 4.13437 -1.77173 0
M  V30 3071 C 305.32 4.39079 0.299641 0
M  V30 3072 H 302.439 0.731077 -0.0932471 0
M  V30 3073 H 305.081 1.67026 -0.905673 0
M  V30 3074 H 303.231 3.87844 0.225737 0
M  V30 3075 H 304.903 3.9498 -2.38303 0
M  V30 3076 H 303.146 3.67801 -2.3001 0
M  V30 3077 H 303.817 5.22597 -1.77755 0
M  V30 3078 H 306.293 4.15735 -0.174139 0
M  V30 3079 H 305.169 5.4848 0.214771 0
M  V30 3080 H 305.43 4.19915 1.38288 0
M  V30 3081 N 304.489 0.459591 1.5075 0
M  V30 3082 C 305.399 -0.34613 2.32033 0
M  V30 3083 C 306.415 -1.00686 1.41909 0
M  V30 3084 O 307.591 -0.997361 1.7497 0
M  V30 3085 C 304.656 -1.42029 3.16273 0
M  V30 3086 C 303.717 -0.777362 4.22203 0
M  V30 3087 C 302.95 -1.80034 5.02418 0
M  V30 3088 O 303.173 -3.02544 4.83553 0
M  V30 3089 O 302.107 -1.37853 5.85901 0
M  V30 3090 H 305.933 0.318054 3.0203 0
M  V30 3091 H 303.518 0.221663 1.47746 0
M  V30 3092 H 305.4 -2.04275 3.68578 0
M  V30 3093 H 304.075 -2.06815 2.49016 0
M  V30 3094 H 302.982 -0.116256 3.73919 0
M  V30 3095 H 304.315 -0.172634 4.91897 0
M  V30 3096 N 305.967 -1.56429 0.191757 0
M  V30 3097 C 307.383 -1.58754 -0.164137 0
M  V30 3098 C 307.583 -1.20782 -1.61288 0
M  V30 3099 O 306.639 -0.928999 -2.34789 0
M  V30 3100 C 307.952 -3.00396 0.135195 0
M  V30 3101 C 309.5 -3.1291 0.0750351 0
M  V30 3102 C 309.975 -4.56679 0.347632 0
M  V30 3103 N 311.466 -4.62252 0.296131 0
M  V30 3104 C 312.201 -5.71379 0.480948 0
M  V30 3105 N 311.697 -6.88986 0.725933 0
M  V30 3106 N 313.49 -5.60563 0.415435 0
M  V30 3107 H 305.641 -1.79393 1.13718 0
M  V30 3108 H 307.904 -0.832414 0.453643 0
M  V30 3109 H 307.61 -3.32726 1.13958 0
M  V30 3110 H 307.484 -3.72963 -0.563773 0
M  V30 3111 H 309.871 -2.80394 -0.919948 0
M  V30 3112 H 309.952 -2.42736 0.807029 0
M  V30 3113 H 309.596 -4.89907 1.33992 0
M  V30 3114 H 309.526 -5.25039 -0.405212 0
M  V30 3115 H 312.017 -3.7773 0.113259 0
M  V30 3116 H 312.33 -7.68046 0.855857 0
M  V30 3117 H 310.675 -6.90801 0.762788 0
M  V30 3118 H 313.866 -4.67561 0.224486 0
M  V30 3119 H 314.039 -6.45551 0.562889 0
M  V30 3120 N 307.445 0.0818655 -1.57387 0
M  V30 3121 C 308.673 0.796108 -1.9097 0
M  V30 3122 C 309.088 1.71626 -0.786757 0
M  V30 3123 O 308.445 1.80908 0.240513 0
M  V30 3124 C 308.496 1.59829 -3.24248 0
M  V30 3125 O 308.217 0.715131 -4.32224 0
M  V30 3126 C 309.718 2.41442 -3.7178 0
M  V30 3127 H 306.938 0.22691 -0.631469 0
M  V30 3128 H 309.482 0.0551439 -2.04426 0
M  V30 3129 H 307.637 2.29163 -3.12351 0
M  V30 3130 H 308.051 1.27205 -5.08841 0
M  V30 3131 H 309.525 2.932 -4.67694 0
M  V30 3132 H 310.002 3.2051 -3.00283 0
M  V30 3133 H 310.608 1.77283 -3.86589 0
M  V30 3134 N 308.923 1.53595 0.353017 0
M  V30 3135 C 310.339 1.43648 0.695516 0
M  V30 3136 C 310.539 0.585617 1.92802 0
M  V30 3137 O 309.595 0.0729223 2.52395 0
M  V30 3138 C 310.908 2.8701 0.896991 0
M  V30 3139 C 312.456 2.96723 0.996209 0
M  V30 3140 C 312.931 4.41173 1.23007 0
M  V30 3141 N 314.422 4.44657 1.29749 0
M  V30 3142 C 315.157 5.53547 1.49577 0
M  V30 3143 N 314.653 6.72461 1.66639 0
M  V30 3144 N 316.446 5.41145 1.52048 0
M  V30 3145 H 308.597 2.07415 -0.457481 0
M  V30 3146 H 310.86 0.9372 -0.142687 0
M  V30 3147 H 310.566 3.51644 0.0629938 0
M  V30 3148 H 310.44 3.31401 1.80148 0
M  V30 3149 H 312.827 2.32235 1.82074 0
M  V30 3150 H 312.908 2.55707 0.0688331 0
M  V30 3151 H 312.552 5.06238 0.410505 0
M  V30 3152 H 312.482 4.79772 2.17086 0
M  V30 3153 H 314.973 3.58963 1.18126 0
M  V30 3154 H 315.286 7.51214 1.81378 0
M  V30 3155 H 313.631 6.75423 1.63794 0
M  V30 3156 H 316.822 4.47205 1.38294 0
M  V30 3157 H 316.995 6.26068 1.67159 0
M  V30 3158 N 310.401 -0.613514 1.45168 0
M  V30 3159 C 311.348 -1.72456 1.53387 0
M  V30 3160 C 312.318 -1.6169 0.380191 0
M  V30 3161 O 313.503 -1.81356 0.592836 0
M  V30 3162 C 310.643 -3.10753 1.50088 0
M  V30 3163 C 309.756 -3.32368 2.75963 0
M  V30 3164 C 308.891 -4.60737 2.64376 0
M  V30 3165 C 307.93 -4.7559 3.85332 0
M  V30 3166 N 307.067 -5.95253 3.72315 0
M  V30 3167 H 311.907 -1.64768 2.48305 0
M  V30 3168 H 309.444 -0.803503 1.23216 0
M  V30 3169 H 311.402 -3.90758 1.46164 0
M  V30 3170 H 310.032 -3.17413 0.587243 0
M  V30 3171 H 309.084 -2.4618 2.89999 0
M  V30 3172 H 310.396 -3.39218 3.65695 0
M  V30 3173 H 309.55 -5.48928 2.58385 0
M  V30 3174 H 308.289 -4.56275 1.72233 0
M  V30 3175 H 307.294 -3.85824 3.91688 0
M  V30 3176 H 308.519 -4.81854 4.78533 0
M  V30 3177 H 306.465 -5.91847 2.82937 0
M  V30 3178 H 306.382 -6.03236 4.55677 0
M  V30 3179 H 307.65 -6.85958 3.70246 0
M  V30 3180 N 311.879 -1.3236 -0.855495 0
M  V30 3181 C 313.127 -1.22629 -1.60644 0
M  V30 3182 C 313.448 0.212136 -1.93843 0
M  V30 3183 O 312.718 1.13666 -1.59552 0
M  V30 3184 H 311.298 -0.450882 -0.595579 0
M  V30 3185 H 313.96 -1.65871 -1.02337 0
M  V30 3186 H 313.056 -1.80832 -2.54374 0
M  V30 3187 N 313.357 1.07166 -1.15556 0
M  V30 3188 C 314.605 1.79443 -0.929764 0
M  V30 3189 C 314.926 1.87246 0.544414 0
M  V30 3190 O 314.196 1.37473 1.39564 0
M  V30 3191 H 312.776 0.664625 -0.341003 0
M  V30 3192 H 315.438 1.29499 -1.45657 0
M  V30 3193 H 314.534 2.81832 -1.34079 0
M  V30 3194 N 314.835 0.952656 1.25548 0
M  V30 3195 C 316.083 0.605176 1.92826 0
M  V30 3196 C 316.404 -0.860261 1.74999 0
M  V30 3197 O 315.674 -1.6125 1.11244 0
M  V30 3198 H 314.254 0.220832 0.713612 0
M  V30 3199 H 316.916 1.21047 1.52754 0
M  V30 3200 H 316.012 0.832798 3.00784 0
M  V30 3201 N 316.313 -1.40141 0.720998 0
M  V30 3202 C 317.223 -2.34486 0.0731031 0
M  V30 3203 C 318.239 -1.57587 -0.737723 0
M  V30 3204 O 319.415 -1.89949 -0.669429 0
M  V30 3205 C 316.48 -3.36528 -0.833656 0
M  V30 3206 C 315.541 -4.29298 -0.0121673 0
M  V30 3207 C 314.774 -5.26466 -0.875742 0
M  V30 3208 O 314.997 -5.29745 -2.11485 0
M  V30 3209 O 313.931 -6.01092 -0.31185 0
M  V30 3210 H 317.757 -2.9152 0.851444 0
M  V30 3211 H 315.342 -1.41427 0.481527 0
M  V30 3212 H 317.224 -3.99093 -1.35289 0
M  V30 3213 H 315.899 -2.81899 -1.59105 0
M  V30 3214 H 314.806 -3.70001 0.552262 0
M  V30 3215 H 316.139 -4.87094 0.707129 0
M  V30 3216 N 317.792 -0.46758 -1.50504 0
M  V30 3217 C 319.041 0.0902868 -2.01498 0
M  V30 3218 C 319.354 1.411 -1.35463 0
M  V30 3219 O 320.56 2.0536 -1.77594 0
M  V30 3220 C 319.016 0.21142 -3.59278 0
M  V30 3221 C 318.624 -1.10065 -4.34269 0
M  V30 3222 C 320.368 0.721433 -4.18325 0
M  V30 3223 C 318.275 -0.943505 -5.83825 0
M  V30 3224 H 317.205 0.037517 -0.753066 0
M  V30 3225 H 319.856 -0.601943 -1.73346 0
M  V30 3226 H 318.238 0.967352 -3.84003 0
M  V30 3227 H 319.412 -1.86726 -4.21272 0
M  V30 3228 H 317.727 -1.5415 -3.86816 0
M  V30 3229 H 320.324 0.85598 -5.27804 0
M  V30 3230 H 320.667 1.71186 -3.79475 0
M  V30 3231 H 321.2 0.0229843 -3.97793 0
M  V30 3232 H 317.939 -1.90719 -6.27141 0
M  V30 3233 H 317.459 -0.217213 -5.99407 0
M  V30 3234 H 319.138 -0.608715 -6.4413 0
M  V30 3235 N 319.27 1.56325 -0.20005 0
M  V30 3236 C 320.516 1.98012 0.438059 0
M  V30 3237 C 320.849 1.08702 1.60927 0
M  V30 3238 O 320.124 0.140064 1.93995 0
M  V30 3239 C 320.407 3.48841 0.893419 0
M  V30 3240 C 320.26 4.48928 -0.279947 0
M  V30 3241 C 321.579 4.03498 1.75719 0
M  V30 3242 H 318.698 0.719918 0.157757 0
M  V30 3243 H 321.34 1.87743 -0.291968 0
M  V30 3244 H 319.49 3.57723 1.51547 0
M  V30 3245 H 321.162 4.52079 -0.91772 0
M  V30 3246 H 319.405 4.23694 -0.930919 0
M  V30 3247 H 320.076 5.5194 0.0812601 0
M  V30 3248 H 322.552 3.97427 1.23253 0
M  V30 3249 H 321.428 5.09393 2.04476 0
M  V30 3250 H 321.689 3.4906 2.71311 0
M  V30 3251 N 320.748 -0.0735177 1.57428 0
M  V30 3252 C 321.696 -1.10628 2.04607 0
M  V30 3253 C 322.69 -1.40181 0.951088 0
M  V30 3254 O 323.896 -1.39608 1.1362 0
M  V30 3255 H 320.271 -0.374088 0.652351 0
M  V30 3256 H 322.242 -0.682218 2.90497 0
M  V30 3257 C 320.991 -2.41212 2.50423 0
M  V30 3258 H 320.314 -2.19322 3.34272 0
M  V30 3259 H 321.754 -3.11927 2.87189 0
M  V30 3260 C 320.213 -3.0705 1.38644 0
M  V30 3261 O 320.743 -3.95056 0.727582 0
M  V30 3262 N 318.949 -2.67645 1.132 0
M  V30 3263 H 318.496 -1.96169 1.66959 0
M  V30 3264 H 318.454 -3.1202 0.386147 0
M  V30 3265 N 322.226 -1.5378 -0.344866 0
M  V30 3266 C 323.156 -1.84662 -1.42906 0
M  V30 3267 C 324.137 -0.701648 -1.54955 0
M  V30 3268 O 325.322 -0.953438 -1.69184 0
M  V30 3269 C 322.452 -2.05503 -2.79974 0
M  V30 3270 C 321.406 -3.21318 -2.82734 0
M  V30 3271 C 320.732 -3.2749 -4.22675 0
M  V30 3272 C 322.032 -4.59456 -2.48389 0
M  V30 3273 H 323.726 -2.75461 -1.17311 0
M  V30 3274 H 321.272 -1.32542 -0.562896 0
M  V30 3275 H 323.225 -2.25691 -3.55867 0
M  V30 3276 H 321.949 -1.11434 -3.07002 0
M  V30 3277 H 320.608 -3.00984 -2.09294 0
M  V30 3278 H 320.256 -2.31019 -4.4681 0
M  V30 3279 H 319.956 -4.05316 -4.25433 0
M  V30 3280 H 321.48 -3.49887 -5.00412 0
M  V30 3281 H 322.894 -4.79667 -3.13995 0
M  V30 3282 H 321.291 -5.39675 -2.62432 0
M  V30 3283 H 322.361 -4.63155 -1.4358 0
M  V30 3284 N 323.704 0.605807 -1.45491 0
M  V30 3285 C 324.634 1.72709 -1.57143 0
M  V30 3286 C 325.615 1.6476 -0.422884 0
M  V30 3287 O 326.8 1.83132 -0.646247 0
M  V30 3288 C 323.93 3.11316 -1.53948 0
M  V30 3289 C 322.884 3.34077 -2.67537 0
M  V30 3290 C 322.21 4.72975 -2.49397 0
M  V30 3291 C 323.51 3.24158 -4.09535 0
M  V30 3292 H 325.204 1.63214 -2.51001 0
M  V30 3293 H 322.75 0.78379 -1.208 0
M  V30 3294 H 324.703 3.89557 -1.60696 0
M  V30 3295 H 323.427 3.21655 -0.566205 0
M  V30 3296 H 322.086 2.58227 -2.6022 0
M  V30 3297 H 321.734 4.8005 -1.50205 0
M  V30 3298 H 321.434 4.8916 -3.25571 0
M  V30 3299 H 322.958 5.53414 -2.58002 0
M  V30 3300 H 324.372 3.92271 -4.18086 0
M  V30 3301 H 322.769 3.51872 -4.86113 0
M  V30 3302 H 323.839 2.2157 -4.31317 0
M  V30 3303 N 325.182 1.32811 0.848464 0
M  V30 3304 C 326.129 1.22265 1.95755 0
M  V30 3305 C 327.099 0.103413 1.65778 0
M  V30 3306 O 328.284 0.280033 1.88734 0
M  V30 3307 C 325.424 0.958014 3.31536 0
M  V30 3308 C 324.537 2.16262 3.73971 0
M  V30 3309 C 323.672 1.83295 4.98575 0
M  V30 3310 C 322.711 3.00041 5.33518 0
M  V30 3311 N 321.848 2.67125 6.49299 0
M  V30 3312 H 326.688 2.17128 2.04107 0
M  V30 3313 H 324.225 1.07982 0.998913 0
M  V30 3314 H 326.183 0.785052 4.09747 0
M  V30 3315 H 324.813 0.046159 3.22767 0
M  V30 3316 H 323.865 2.44565 2.91362 0
M  V30 3317 H 325.177 3.03572 3.95785 0
M  V30 3318 H 324.331 1.62586 5.84509 0
M  V30 3319 H 323.07 0.932078 4.7871 0
M  V30 3320 H 322.075 3.21374 4.46093 0
M  V30 3321 H 323.3 3.90869 5.55336 0
M  V30 3322 H 321.246 1.79586 6.3094 0
M  V30 3323 H 321.163 3.47965 6.71161 0
M  V30 3324 H 322.431 2.49861 7.3837 0
M  V30 3325 N 326.66 -1.06551 1.16123 0
M  V30 3326 C 327.888 -1.83005 0.965237 0
M  V30 3327 C 328.303 -1.82423 -0.486542 0
M  V30 3328 O 327.66 -1.24152 -1.33763 0
M  V30 3329 C 327.711 -3.29733 1.48183 0
M  V30 3330 O 327.432 -3.30416 2.87674 0
M  V30 3331 C 328.933 -4.22926 1.32848 0
M  V30 3332 H 326.153 -0.577118 0.342309 0
M  V30 3333 H 328.697 -1.3445 1.54089 0
M  V30 3334 H 326.852 -3.75609 0.948517 0
M  V30 3335 H 327.266 -4.22149 3.11272 0
M  V30 3336 H 328.74 -5.23916 1.73827 0
M  V30 3337 H 329.217 -4.38346 0.273692 0
M  V30 3338 H 329.823 -3.82894 1.85127 0
M  V30 3339 N 328.138 -0.959301 -1.25041 0
M  V30 3340 C 329.386 -0.615393 -1.92503 0
M  V30 3341 C 329.707 0.850969 -1.75452 0
M  V30 3342 O 328.977 1.60658 -1.12098 0
M  V30 3343 H 327.557 -0.224613 -0.712431 0
M  V30 3344 H 330.219 -1.21855 -1.5211 0
M  V30 3345 H 329.315 -0.848738 -3.00338 0
M  V30 3346 N 329.616 1.39756 -0.72842 0
M  V30 3347 C 330.841 2.05472 -0.282159 0
M  V30 3348 C 331.266 1.54549 1.07221 0
M  V30 3349 O 330.624 0.686372 1.67805 0
M  V30 3350 C 330.672 3.59462 -0.286264 0
M  V30 3351 O 329.776 4.05918 0.728298 0
M  V30 3352 H 329.117 0.651226 -0.129618 0
M  V30 3353 H 331.647 1.78915 -0.992499 0
M  V30 3354 H 331.657 4.07798 -0.128373 0
M  V30 3355 H 330.332 3.95889 -1.27456 0
M  V30 3356 H 328.909 3.69012 0.537081 0
M  V30 3357 N 331.094 0.475555 1.50254 0
M  V30 3358 C 332.057 -0.305016 2.27161 0
M  V30 3359 C 333.057 -0.916519 1.32123 0
M  V30 3360 O 334.247 -0.785003 1.5551 0
M  V30 3361 C 331.379 -1.43496 3.09227 0
M  V30 3362 H 332.572 0.369511 2.97615 0
M  V30 3363 H 330.125 0.229747 1.54602 0
M  V30 3364 H 330.86 -2.14441 2.43281 0
M  V30 3365 H 330.645 -1.00223 3.79075 0
M  V30 3366 H 332.135 -1.98548 3.67381 0
M  V30 3367 N 332.573 -1.56217 0.208337 0
M  V30 3368 C 333.803 -2.02043 -0.431523 0
M  V30 3369 C 334.211 -1.08755 -1.54819 0
M  V30 3370 O 333.554 -0.0870009 -1.83494 0
M  V30 3371 C 333.616 -3.44239 -1.03633 0
M  V30 3372 C 333.28 -4.56965 -0.0567502 0
M  V30 3373 C 334.277 -5.14624 0.738773 0
M  V30 3374 C 331.962 -5.02266 0.0581736 0
M  V30 3375 C 333.956 -6.16045 1.63605 0
M  V30 3376 C 331.643 -6.03528 0.959001 0
M  V30 3377 C 332.641 -6.60293 1.7465 0
M  V30 3378 O 332.329 -7.59586 2.6322 0
M  V30 3379 H 332.061 -0.666772 -0.111313 0
M  V30 3380 H 334.615 -2.02919 0.318277 0
M  V30 3381 H 332.845 -3.40391 -1.83497 0
M  V30 3382 H 334.534 -3.73793 -1.58221 0
M  V30 3383 H 335.3 -4.80483 0.660364 0
M  V30 3384 H 331.179 -4.57771 -0.544633 0
M  V30 3385 H 334.723 -6.60279 2.25116 0
M  V30 3386 H 330.62 -6.37092 1.03848 0
M  V30 3387 H 331.388 -7.77057 2.57148 0
M  V30 3388 N 334.051 0.0651679 -1.57465 0
M  V30 3389 C 335.281 0.774683 -1.91526 0
M  V30 3390 C 335.689 1.71305 -0.803196 0
M  V30 3391 O 335.032 1.82231 0.231881 0
M  V30 3392 C 335.094 1.61645 -3.21109 0
M  V30 3393 C 334.758 0.846753 -4.49087 0
M  V30 3394 C 335.755 0.163024 -5.19644 0
M  V30 3395 C 333.44 0.811966 -4.95694 0
M  V30 3396 C 335.434 -0.54519 -6.35064 0
M  V30 3397 C 333.121 0.0999836 -6.11018 0
M  V30 3398 C 334.119 -0.577388 -6.80555 0
M  V30 3399 O 333.807 -1.27789 -7.93678 0
M  V30 3400 H 333.539 0.225031 -0.637446 0
M  V30 3401 H 336.093 0.0377134 -2.05365 0
M  V30 3402 H 334.323 2.39638 -3.03497 0
M  V30 3403 H 336.012 2.20525 -3.40769 0
M  V30 3404 H 336.778 0.181163 -4.84662 0
M  V30 3405 H 332.657 1.32867 -4.41438 0
M  V30 3406 H 336.201 -1.07446 -6.89276 0
M  V30 3407 H 332.098 0.0797945 -6.45451 0
M  V30 3408 H 332.866 -1.18784 -8.09835 0
M  V30 3409 N 335.529 1.53961 0.336706 0
M  V30 3410 C 336.492 1.81724 1.39675 0
M  V30 3411 C 337.492 0.688532 1.45313 0
M  V30 3412 O 338.682 0.956829 1.45569 0
M  V30 3413 C 335.814 1.96543 2.78538 0
M  V30 3414 H 337.007 2.76424 1.16318 0
M  V30 3415 H 334.56 1.45478 0.571474 0
M  V30 3416 H 335.295 1.0401 3.07168 0
M  V30 3417 H 335.08 2.78665 2.75841 0
M  V30 3418 H 336.57 2.19516 3.5525 0
M  V30 3419 N 337.007 -0.598083 1.45811 0
M  V30 3420 C 338.418 -1.18011 1.44673 0
M  V30 3421 C 338.769 -1.95378 0.179364 0
M  V30 3422 O 337.894 -2.04124 -0.718509 0
M  V30 3423 C 338.489 -2.14677 2.62105 0
M  V30 3424 C 337.048 -2.68236 2.64057 0
M  V30 3425 C 336.195 -1.43816 2.37091 0
M  V30 3426 H 339.146 -0.38686 1.53913 0
M  V30 3427 H 339.167 -2.97878 2.36746 0
M  V30 3428 H 338.679 -1.5834 3.5433 0
M  V30 3429 H 336.78 -3.28486 1.75864 0
M  V30 3430 H 336.893 -3.12021 3.63566 0
M  V30 3431 H 335.257 -1.731 1.86838 0
M  V30 3432 H 336.04 -0.893333 3.31473 0
M  V30 3433 N 338.485 -1.33259 -0.841409 0
M  V30 3434 C 339.448 -1.23221 -1.9326 0
M  V30 3435 C 340.448 -0.151895 -1.60081 0
M  V30 3436 O 341.638 -0.403246 -1.69468 0
M  V30 3437 C 338.77 -0.898123 -3.28856 0
M  V30 3438 H 339.963 -2.2021 -2.03587 0
M  V30 3439 H 337.516 -1.17281 -1.03319 0
M  V30 3440 H 338.251 0.0693841 -3.24226 0
M  V30 3441 H 338.036 -1.67934 -3.54317 0
M  V30 3442 H 339.526 -0.852563 -4.08805 0
M  V30 3443 N 339.963 1.05934 -1.16686 0
M  V30 3444 C 340.926 2.11669 -0.879144 0
M  V30 3445 C 341.926 1.60294 0.127445 0
M  V30 3446 O 343.116 1.7389 -0.103865 0
M  V30 3447 C 340.248 3.39438 -0.315425 0
M  V30 3448 H 341.441 2.38626 -1.81653 0
M  V30 3449 H 338.994 1.22058 -0.976299 0
M  V30 3450 H 339.729 3.18132 0.629468 0
M  V30 3451 H 339.514 3.78034 -1.04079 0
M  V30 3452 H 341.004 4.17391 -0.132189 0
M  V30 3453 N 341.441 0.965919 1.2453 0
M  V30 3454 C 342.404 0.499547 2.2369 0
M  V30 3455 C 343.404 -0.40294 1.5567 0
M  V30 3456 O 344.594 -0.19865 1.73064 0
M  V30 3457 C 341.726 -0.276792 3.39774 0
M  V30 3458 H 342.919 1.37613 2.66463 0
M  V30 3459 H 340.472 0.750324 1.37112 0
M  V30 3460 H 341.207 -1.17055 3.02438 0
M  V30 3461 H 340.992 0.370826 3.90343 0
M  V30 3462 H 342.482 -0.592175 4.1338 0
M  V30 3463 N 342.919 -1.39368 0.735821 0
M  V30 3464 C 344.147 -2.04795 0.294393 0
M  V30 3465 C 344.562 -1.55478 -1.07107 0
M  V30 3466 O 343.919 -0.720038 -1.67695 0
M  V30 3467 C 343.97 -3.6035 0.288071 0
M  V30 3468 O 343.691 -4.07852 1.59963 0
M  V30 3469 C 345.192 -4.42976 -0.169422 0
M  V30 3470 H 342.412 -0.658571 0.128551 0
M  V30 3471 H 344.956 -1.78399 0.999701 0
M  V30 3472 H 343.111 -3.85645 -0.368355 0
M  V30 3473 H 343.525 -5.02181 1.51375 0
M  V30 3474 H 344.999 -5.51864 -0.122687 0
M  V30 3475 H 345.476 -4.22068 -1.21472 0
M  V30 3476 H 346.082 -4.22832 0.457469 0
M  V30 3477 N 344.397 -0.483516 -1.5 0
M  V30 3478 C 345.36 0.292965 -2.2732 0
M  V30 3479 C 346.36 0.909499 -1.32608 0
M  V30 3480 O 347.55 0.776745 -1.55924 0
M  V30 3481 C 344.682 1.41854 -3.09984 0
M  V30 3482 H 345.875 -0.385289 -2.97415 0
M  V30 3483 H 343.428 -0.237942 -1.54478 0
M  V30 3484 H 344.163 2.13148 -2.44414 0
M  V30 3485 H 343.948 0.982114 -3.79601 0
M  V30 3486 H 345.438 1.96597 -3.68429 0
M  V30 3487 N 345.875 1.56104 -0.216619 0
M  V30 3488 C 346.807 2.17339 0.72776 0
M  V30 3489 C 347.82 1.14109 1.16116 0
M  V30 3490 O 349.009 1.4111 1.09317 0
M  V30 3491 C 346.109 2.73818 1.99693 0
M  V30 3492 C 345.282 4.02168 1.71988 0
M  V30 3493 C 344.341 4.43259 2.83562 0
M  V30 3494 O 343.367 5.10257 2.52244 0
M  V30 3495 N 344.569 4.08535 4.12407 0
M  V30 3496 H 347.334 2.99005 0.203983 0
M  V30 3497 H 344.895 1.61861 -0.0354289 0
M  V30 3498 H 346.887 2.9828 2.73516 0
M  V30 3499 H 345.457 1.96483 2.43132 0
M  V30 3500 H 344.677 3.85612 0.818337 0
M  V30 3501 H 345.965 4.85907 1.50903 0
M  V30 3502 H 345.363 3.54687 4.40696 0
M  V30 3503 H 343.92 4.37901 4.8279 0
M  V30 3504 N 347.353 -0.0568162 1.57498 0
M  V30 3505 C 348.286 -1.09817 2.00039 0
M  V30 3506 C 349.264 -1.3674 0.879819 0
M  V30 3507 O 350.448 -1.49863 1.14338 0
M  V30 3508 C 347.575 -2.43924 2.34986 0
M  V30 3509 C 346.621 -2.33039 3.57204 0
M  V30 3510 S 347.454 -1.7102 5.07457 0
M  V30 3511 C 348.61 -3.06674 5.45621 0
M  V30 3512 H 348.843 -0.735701 2.88053 0
M  V30 3513 H 346.376 -0.265871 1.52094 0
M  V30 3514 H 348.334 -3.2106 2.55795 0
M  V30 3515 H 346.995 -2.77327 1.47474 0
M  V30 3516 H 346.188 -3.31973 3.79223 0
M  V30 3517 H 345.79 -1.64043 3.36104 0
M  V30 3518 H 348.082 -4.03 5.44608 0
M  V30 3519 H 349.025 -2.8942 6.46252 0
M  V30 3520 H 349.433 -3.07969 4.73091 0
M  V30 3521 N 348.832 -1.54138 -0.328536 0
M  V30 3522 C 350.078 -1.7236 -1.06865 0
M  V30 3523 C 350.411 -0.493231 -1.87832 0
M  V30 3524 O 349.686 0.5098 -1.877 0
M  V30 3525 C 349.969 -2.99621 -1.99747 0
M  V30 3526 C 349.822 -4.32899 -1.22143 0
M  V30 3527 C 351.141 -3.22615 -2.99345 0
M  V30 3528 H 348.26 -0.627151 -0.387105 0
M  V30 3529 H 350.902 -1.86827 -0.345767 0
M  V30 3530 H 349.052 -2.87418 -2.61387 0
M  V30 3531 H 350.724 -4.56978 -0.630017 0
M  V30 3532 H 348.967 -4.30628 -0.523628 0
M  V30 3533 H 349.638 -5.18154 -1.90318 0
M  V30 3534 H 352.114 -3.34248 -2.47826 0
M  V30 3535 H 350.99 -4.13027 -3.61524 0
M  V30 3536 H 351.251 -2.3961 -3.71536 0
M  V30 3537 N 350.31 0.590341 -1.46126 0
M  V30 3538 C 351.22 1.72793 -1.58681 0
M  V30 3539 C 352.236 1.67516 -0.470566 0
M  V30 3540 O 353.412 1.87562 -0.733642 0
M  V30 3541 C 350.477 3.09287 -1.5666 0
M  V30 3542 C 349.538 3.25886 -2.79458 0
M  V30 3543 C 348.771 4.55869 -2.77524 0
M  V30 3544 O 348.994 5.3928 -1.85832 0
M  V30 3545 O 347.928 4.75552 -3.68964 0
M  V30 3546 H 351.754 1.65149 -2.54872 0
M  V30 3547 H 349.339 0.756486 -1.28832 0
M  V30 3548 H 351.221 3.90577 -1.58202 0
M  V30 3549 H 349.896 3.17385 -0.636271 0
M  V30 3550 H 348.803 2.44119 -2.83472 0
M  V30 3551 H 350.136 3.22675 -3.71674 0
M  V30 3552 N 351.788 1.33704 0.83433 0
M  V30 3553 C 352.751 1.24244 1.92603 0
M  V30 3554 C 353.751 0.160383 1.59998 0
M  V30 3555 O 354.941 0.412228 1.69252 0
M  V30 3556 C 352.073 0.91555 3.28376 0
M  V30 3557 H 353.266 2.21287 2.02416 0
M  V30 3558 H 350.819 1.17827 1.02696 0
M  V30 3559 H 351.554 -0.0521886 3.24258 0
M  V30 3560 H 351.339 1.69811 3.53422 0
M  V30 3561 H 352.829 0.874231 4.08347 0
M  V30 3562 N 353.266 -1.05314 1.17247 0
M  V30 3563 C 354.512 -1.78557 0.961513 0
M  V30 3564 C 354.845 -1.87419 -0.508697 0
M  V30 3565 O 354.12 -1.37307 -1.37757 0
M  V30 3566 C 354.403 -3.22514 1.60176 0
M  V30 3567 C 354.256 -3.21673 3.14399 0
M  V30 3568 C 355.575 -4.20318 1.30463 0
M  V30 3569 H 352.694 -0.6482 0.350723 0
M  V30 3570 H 355.336 -1.23102 1.44727 0
M  V30 3571 H 353.486 -3.69867 1.18871 0
M  V30 3572 H 355.158 -2.82405 3.64753 0
M  V30 3573 H 353.401 -2.60048 3.47214 0
M  V30 3574 H 354.072 -4.23271 3.54324 0
M  V30 3575 H 356.548 -3.81454 1.66229 0
M  V30 3576 H 355.424 -5.19289 1.77848 0
M  V30 3577 H 355.685 -4.41526 0.22521 0
M  V30 3578 N 354.744 -0.972509 -1.24016 0
M  V30 3579 C 355.674 -0.525548 -2.27509 0
M  V30 3580 C 356.655 0.437262 -1.64384 0
M  V30 3581 O 357.84 0.332343 -1.91335 0
M  V30 3582 C 354.97 0.180448 -3.46831 0
M  V30 3583 C 353.924 -0.698859 -4.22256 0
M  V30 3584 C 353.25 0.138903 -5.3452 0
M  V30 3585 C 354.55 -1.98582 -4.83076 0
M  V30 3586 H 356.244 -1.39058 -2.65148 0
M  V30 3587 H 353.79 -0.67009 -1.27459 0
M  V30 3588 H 355.743 0.504387 -4.18371 0
M  V30 3589 H 354.467 1.07987 -3.08231 0
M  V30 3590 H 353.126 -1.00614 -3.52523 0
M  V30 3591 H 352.774 1.03862 -4.9216 0
M  V30 3592 H 352.474 -0.446259 -5.85903 0
M  V30 3593 H 353.998 0.457404 -6.08884 0
M  V30 3594 H 355.412 -1.72715 -5.46665 0
M  V30 3595 H 353.809 -2.5181 -5.44713 0
M  V30 3596 H 354.879 -2.67769 -4.04262 0
M  V30 3597 N 356.222 1.38976 -0.743202 0
M  V30 3598 C 357.169 2.30544 -0.10861 0
M  V30 3599 C 358.139 1.49642 0.720869 0
M  V30 3600 O 359.324 1.78304 0.679142 0
M  V30 3601 C 356.464 3.36018 0.786496 0
M  V30 3602 C 355.577 4.31963 -0.0564849 0
M  V30 3603 C 354.712 5.24506 0.840657 0
M  V30 3604 C 353.751 6.121 -0.00658363 0
M  V30 3605 N 352.888 6.96973 0.846943 0
M  V30 3606 H 357.728 2.8424 -0.895088 0
M  V30 3607 H 355.265 1.3995 -0.453048 0
M  V30 3608 H 357.223 3.95768 1.31999 0
M  V30 3609 H 355.853 2.83758 1.53887 0
M  V30 3610 H 354.905 3.73763 -0.707492 0
M  V30 3611 H 356.217 4.93703 -0.711229 0
M  V30 3612 H 355.371 5.89322 1.4417 0
M  V30 3613 H 354.11 4.63107 1.52916 0
M  V30 3614 H 353.115 5.46289 -0.620366 0
M  V30 3615 H 354.34 6.75565 -0.691992 0
M  V30 3616 H 352.286 6.38133 1.52059 0
M  V30 3617 H 352.203 7.5559 0.248864 0
M  V30 3618 H 353.471 7.6621 1.43328 0
M  V30 3619 N 357.7 0.491464 1.49741 0
M  V30 3620 C 358.977 -0.118984 1.95238 0
M  V30 3621 C 359.357 -1.55044 1.43264 0
M  V30 3622 O 358.705 -2.19287 0.642287 0
M  V30 3623 C 358.915 -0.0414187 3.48975 0
M  V30 3624 C 360.263 -0.220133 4.24029 0
M  V30 3625 O 361.287 -0.117055 3.56008 0
M  V30 3626 O 360.146 -0.430567 5.44801 0
M  V30 3627 H 357.24 -0.100536 0.820866 0
M  V30 3628 H 359.786 0.553322 1.60426 0
M  V30 3629 H 358.558 0.957214 3.79412 0
M  V30 3630 H 358.181 -0.754292 3.9038 0
M  V30 3631 N 359.178 -1.55987 0.224894 0
M  V30 3632 C 360.125 -2.20436 -0.68385 0
M  V30 3633 C 361.095 -1.16102 -1.18783 0
M  V30 3634 O 362.28 -1.4447 -1.24632 0
M  V30 3635 C 359.42 -2.89076 -1.88491 0
M  V30 3636 C 358.533 -4.08012 -1.41951 0
M  V30 3637 C 357.668 -4.64426 -2.5784 0
M  V30 3638 C 356.707 -5.75656 -2.08053 0
M  V30 3639 N 355.844 -6.26347 -3.17227 0
M  V30 3640 H 360.684 -2.97727 -0.12754 0
M  V30 3641 H 358.221 -1.47011 -0.0511978 0
M  V30 3642 H 360.179 -3.27059 -2.59014 0
M  V30 3643 H 358.809 -2.14298 -2.41405 0
M  V30 3644 H 357.861 -3.75492 -0.609095 0
M  V30 3645 H 359.173 -4.88375 -1.01447 0
M  V30 3646 H 358.327 -5.04869 -3.3644 0
M  V30 3647 H 357.066 -3.83233 -3.01635 0
M  V30 3648 H 356.071 -5.34712 -1.27916 0
M  V30 3649 H 357.296 -6.58686 -1.65255 0
M  V30 3650 H 355.242 -5.48067 -3.60497 0
M  V30 3651 H 355.159 -7.01843 -2.80986 0
M  V30 3652 H 356.427 -6.71447 -3.95953 0
M  V30 3653 N 360.656 0.0484629 -1.57525 0
M  V30 3654 C 361.603 1.05504 -2.05275 0
M  V30 3655 C 362.573 1.37084 -0.937927 0
M  V30 3656 O 363.758 1.47754 -1.2072 0
M  V30 3657 C 360.898 2.35676 -2.52093 0
M  V30 3658 C 360.011 2.10423 -3.77288 0
M  V30 3659 C 359.146 3.34327 -4.12794 0
M  V30 3660 C 358.185 3.04542 -5.30962 0
M  V30 3661 N 357.322 4.20841 -5.61994 0
M  V30 3662 H 362.162 0.640885 -2.91027 0
M  V30 3663 H 359.699 0.304854 -1.43906 0
M  V30 3664 H 361.657 3.11709 -2.77297 0
M  V30 3665 H 360.287 2.7485 -1.69285 0
M  V30 3666 H 359.339 1.24976 -3.59284 0
M  V30 3667 H 360.651 1.84438 -4.63448 0
M  V30 3668 H 359.805 4.1874 -4.39024 0
M  V30 3669 H 358.544 3.63408 -3.25247 0
M  V30 3670 H 357.549 2.18528 -5.04505 0
M  V30 3671 H 358.774 2.76758 -6.20146 0
M  V30 3672 H 356.72 4.4991 -4.77406 0
M  V30 3673 H 356.637 3.98212 -6.42622 0
M  V30 3674 H 357.905 5.06184 -5.92789 0
M  V30 3675 N 362.134 1.5431 0.320358 0
M  V30 3676 C 363.55 1.45091 0.664889 0
M  V30 3677 C 363.75 0.626382 1.91517 0
M  V30 3678 O 362.806 0.126443 2.52183 0
M  V30 3679 C 364.119 2.88848 0.83591 0
M  V30 3680 C 365.667 2.9877 0.933046 0
M  V30 3681 C 366.142 4.43683 1.13621 0
M  V30 3682 N 367.633 4.47309 1.20287 0
M  V30 3683 C 368.368 5.56595 1.37801 0
M  V30 3684 N 367.864 6.75844 1.52338 0
M  V30 3685 N 369.657 5.44248 1.40535 0
M  V30 3686 H 361.808 2.06398 -0.501374 0
M  V30 3687 H 364.071 0.933963 -0.162534 0
M  V30 3688 H 363.777 3.51698 -0.0116092 0
M  V30 3689 H 363.651 3.35148 1.73078 0
M  V30 3690 H 366.038 2.36045 1.77107 0
M  V30 3691 H 366.119 2.55796 0.0145782 0
M  V30 3692 H 365.763 5.06995 0.303032 0
M  V30 3693 H 365.693 4.84269 2.0686 0
M  V30 3694 H 368.184 3.61388 1.10485 0
M  V30 3695 H 368.497 7.54892 1.65403 0
M  V30 3696 H 366.842 6.78746 1.4943 0
M  V30 3697 H 370.033 4.50038 1.28777 0
M  V30 3698 H 370.206 6.29473 1.53842 0
M  V30 3699 N 363.613 -0.582584 1.46437 0
M  V30 3700 C 364.859 -1.34278 1.51978 0
M  V30 3701 C 365.192 -1.93446 0.170973 0
M  V30 3702 O 364.467 -1.76481 -0.817608 0
M  V30 3703 C 364.75 -2.47203 2.61845 0
M  V30 3704 C 364.603 -1.93069 4.06257 0
M  V30 3705 C 365.922 -3.49247 2.67795 0
M  V30 3706 H 363.041 -0.486876 0.553282 0
M  V30 3707 H 365.683 -0.654437 1.78374 0
M  V30 3708 H 363.833 -3.0592 2.39469 0
M  V30 3709 H 365.505 -1.38808 4.3992 0
M  V30 3710 H 363.748 -1.23898 4.1573 0
M  V30 3711 H 364.419 -2.74586 4.7886 0
M  V30 3712 H 366.895 -3.00411 2.8791 0
M  V30 3713 H 365.771 -4.25719 3.46489 0
M  V30 3714 H 366.032 -4.06482 1.73852 0
M  V30 3715 N 365.091 -1.34144 -0.827227 0
M  V30 3716 C 366.024 -1.19707 -1.94282 0
M  V30 3717 C 367.002 -0.0897256 -1.62352 0
M  V30 3718 O 368.186 -0.254095 -1.8678 0
M  V30 3719 C 365.313 -0.838646 -3.28153 0
M  V30 3720 C 364.359 -1.95514 -3.79047 0
M  V30 3721 S 365.192 -3.56793 -3.99323 0
M  V30 3722 C 366.348 -3.22983 -5.36127 0
M  V30 3723 H 366.581 -2.1414 -2.06231 0
M  V30 3724 H 364.114 -1.19121 -0.982321 0
M  V30 3725 H 366.072 -0.638637 -4.05502 0
M  V30 3726 H 364.733 0.0872776 -3.13979 0
M  V30 3727 H 363.926 -1.658 -4.75948 0
M  V30 3728 H 363.528 -2.11241 -3.08631 0
M  V30 3729 H 365.82 -2.74531 -6.19386 0
M  V30 3730 H 366.763 -4.19008 -5.70822 0
M  V30 3731 H 367.171 -2.59276 -5.01434 0
M  V30 3732 N 366.569 1.04691 -1.17803 0
M  V30 3733 C 367.98 1.59238 -0.974689 0
M  V30 3734 C 368.331 1.90306 0.477292 0
M  V30 3735 O 367.456 1.68846 1.35352 0
M  V30 3736 C 368.051 2.89318 -1.76296 0
M  V30 3737 C 366.61 3.40506 -1.60414 0
M  V30 3738 C 365.757 2.14172 -1.76141 0
M  V30 3739 H 368.708 0.874395 -1.32439 0
M  V30 3740 H 368.729 3.5944 -1.24833 0
M  V30 3741 H 368.241 2.66675 -2.81968 0
M  V30 3742 H 366.342 3.68175 -0.572519 0
M  V30 3743 H 366.455 4.14753 -2.39827 0
M  V30 3744 H 364.819 2.25176 -1.19028 0
M  V30 3745 H 365.602 1.93992 -2.83235 0
M  V30 3746 N 368.047 0.979072 1.23499 0
M  V30 3747 C 369.293 0.648178 1.92163 0
M  V30 3748 C 369.626 -0.816049 1.76222 0
M  V30 3749 O 368.901 -1.58849 1.12237 0
M  V30 3750 C 369.184 1.03773 3.44824 0
M  V30 3751 C 369.037 2.55948 3.69879 0
M  V30 3752 C 370.356 0.580653 4.36253 0
M  V30 3753 H 367.475 0.236952 0.69787 0
M  V30 3754 H 370.117 1.22012 1.45647 0
M  V30 3755 H 368.267 0.551058 3.84572 0
M  V30 3756 H 369.939 3.12179 3.3962 0
M  V30 3757 H 368.182 2.98641 3.14636 0
M  V30 3758 H 368.853 2.78255 4.76737 0
M  V30 3759 H 371.329 0.998465 4.03943 0
M  V30 3760 H 370.205 0.881663 5.41773 0
M  V30 3761 H 370.466 -0.519052 4.39042 0
M  V30 3762 N 369.525 -1.3858 0.750561 0
M  V30 3763 C 370.488 -2.28836 0.129152 0
M  V30 3764 C 371.488 -1.47045 -0.650714 0
M  V30 3765 O 372.678 -1.6753 -0.477428 0
M  V30 3766 C 369.81 -3.30751 -0.825622 0
M  V30 3767 H 371.003 -2.85294 0.924516 0
M  V30 3768 H 368.556 -1.47489 0.517376 0
M  V30 3769 H 369.291 -2.79378 -1.64677 0
M  V30 3770 H 369.076 -3.91177 -0.268852 0
M  V30 3771 H 370.566 -3.98249 -1.2565 0
M  V30 3772 N 371.003 -0.499398 -1.49478 0
M  V30 3773 C 371.966 0.268838 -2.27618 0
M  V30 3774 C 372.966 0.895383 -1.33565 0
M  V30 3775 O 374.156 0.760164 -1.56739 0
M  V30 3776 C 371.288 1.38559 -3.11471 0
M  V30 3777 H 372.481 -0.416812 -2.96989 0
M  V30 3778 H 370.034 -0.254313 -1.54217 0
M  V30 3779 H 370.769 2.10544 -2.46661 0
M  V30 3780 H 370.554 0.941797 -3.80621 0
M  V30 3781 H 372.044 1.92678 -3.70493 0
M  V30 3782 N 372.481 1.55866 -0.233164 0
M  V30 3783 C 373.711 2.02704 0.399325 0
M  V30 3784 C 374.119 1.11204 1.53069 0
M  V30 3785 O 373.462 0.116182 1.83332 0
M  V30 3786 C 373.524 3.45844 0.981429 0
M  V30 3787 C 373.188 4.56997 -0.0159561 0
M  V30 3788 C 374.185 5.13384 -0.820552 0
M  V30 3789 C 371.87 5.0211 -0.138072 0
M  V30 3790 C 373.864 6.13365 -1.73386 0
M  V30 3791 C 371.551 6.01926 -1.0549 0
M  V30 3792 C 372.549 6.57431 -1.85132 0
M  V30 3793 O 372.237 7.55302 -2.75272 0
M  V30 3794 H 371.969 0.668459 0.100692 0
M  V30 3795 H 374.523 2.02387 -0.35052 0
M  V30 3796 H 372.753 3.43267 1.78058 0
M  V30 3797 H 374.442 3.76262 1.52255 0
M  V30 3798 H 375.208 4.79372 -0.736721 0
M  V30 3799 H 371.087 4.5858 0.471737 0
M  V30 3800 H 374.631 6.56614 -2.35592 0
M  V30 3801 H 370.528 6.35359 -1.1397 0
M  V30 3802 H 371.296 7.72867 -2.69477 0
M  V30 3803 N 373.959 -0.0401083 1.57549 0
M  V30 3804 C 374.889 -1.04384 2.08869 0
M  V30 3805 C 375.87 -1.38407 0.988817 0
M  V30 3806 O 377.055 -1.47483 1.26342 0
M  V30 3807 C 374.185 -2.34808 2.55895 0
M  V30 3808 C 373.139 -2.15057 3.70047 0
M  V30 3809 C 372.465 -3.51145 4.03239 0
M  V30 3810 C 373.765 -1.54576 4.98902 0
M  V30 3811 H 375.459 -0.616666 2.92981 0
M  V30 3812 H 373.005 -0.295184 1.40942 0
M  V30 3813 H 374.958 -3.05346 2.90417 0
M  V30 3814 H 373.682 -2.79565 1.68853 0
M  V30 3815 H 372.341 -1.46954 3.35857 0
M  V30 3816 H 371.989 -3.93529 3.13279 0
M  V30 3817 H 371.689 -3.38758 4.80122 0
M  V30 3818 H 373.213 -4.23062 4.40285 0
M  V30 3819 H 374.627 -2.15017 5.31451 0
M  V30 3820 H 373.024 -1.52796 5.80322 0
M  V30 3821 H 374.094 -0.51039 4.82206 0
M  V30 3822 N 375.437 -1.54477 -0.31217 0
M  V30 3823 C 376.665 -1.77205 -1.068 0
M  V30 3824 C 377.08 -0.526114 -1.81321 0
M  V30 3825 O 376.437 0.503647 -1.75413 0
M  V30 3826 C 376.488 -2.97253 -2.05725 0
M  V30 3827 O 376.209 -4.1703 -1.34228 0
M  V30 3828 C 377.71 -3.32281 -2.93435 0
M  V30 3829 H 374.93 -0.591287 -0.317208 0
M  V30 3830 H 377.474 -2.01398 -0.354834 0
M  V30 3831 H 375.629 -2.753 -2.72559 0
M  V30 3832 H 376.043 -4.84636 -2.00571 0
M  V30 3833 H 377.517 -4.19551 -3.58721 0
M  V30 3834 H 377.994 -2.49945 -3.61143 0
M  V30 3835 H 378.6 -3.56353 -2.32147 0
M  V30 3836 N 376.915 0.57481 -1.46744 0
M  V30 3837 C 378.163 1.33009 -1.52161 0
M  V30 3838 C 378.484 1.94185 -0.178092 0
M  V30 3839 O 377.754 1.7899 0.796196 0
M  V30 3840 H 376.334 0.493873 -0.560445 0
M  V30 3841 H 378.996 0.672589 -1.82927 0
M  V30 3842 H 378.092 2.13273 -2.27862 0
M  V30 3843 N 378.394 1.34581 0.820102 0
M  V30 3844 C 379.326 1.22236 1.93884 0
M  V30 3845 C 380.339 0.148776 1.62119 0
M  V30 3846 O 381.528 0.400877 1.7394 0
M  V30 3847 C 378.628 0.856542 3.27897 0
M  V30 3848 C 377.801 2.02569 3.87666 0
M  V30 3849 C 376.86 1.63782 5.00062 0
M  V30 3850 O 375.886 2.35477 5.18208 0
M  V30 3851 N 377.088 0.553611 5.77854 0
M  V30 3852 H 379.853 2.18615 2.05006 0
M  V30 3853 H 377.414 1.27573 0.99683 0
M  V30 3854 H 379.406 0.578806 4.0054 0
M  V30 3855 H 377.976 -0.0171518 3.12595 0
M  V30 3856 H 377.196 2.468 3.07382 0
M  V30 3857 H 378.484 2.80752 4.24329 0
M  V30 3858 H 377.882 -0.0423528 5.65684 0
M  V30 3859 H 376.439 0.335614 6.50935 0
M  V30 3860 N 379.872 -1.04064 1.18357 0
M  V30 3861 C 381.102 -1.80654 1.00238 0
M  V30 3862 C 381.51 -1.83713 -0.452362 0
M  V30 3863 O 380.853 -1.27135 -1.32599 0
M  V30 3864 C 380.915 -3.27582 1.48088 0
M  V30 3865 C 380.579 -3.48184 2.96002 0
M  V30 3866 C 381.576 -3.39372 3.93856 0
M  V30 3867 C 379.261 -3.7478 3.34433 0
M  V30 3868 C 381.255 -3.5686 5.28138 0
M  V30 3869 C 378.942 -3.91915 4.68877 0
M  V30 3870 C 379.94 -3.82956 5.65539 0
M  V30 3871 O 379.628 -3.996 6.97549 0
M  V30 3872 H 379.36 -0.575751 0.354241 0
M  V30 3873 H 381.914 -1.32044 1.57333 0
M  V30 3874 H 380.144 -3.77161 0.853588 0
M  V30 3875 H 381.833 -3.8573 1.2636 0
M  V30 3876 H 382.599 -3.18789 3.65511 0
M  V30 3877 H 378.478 -3.80852 2.59756 0
M  V30 3878 H 382.022 -3.49783 6.03571 0
M  V30 3879 H 377.919 -4.11992 4.96923 0
M  V30 3880 H 378.687 -4.1676 7.04452 0
M  V30 3881 N 381.35 -0.985608 -1.22978 0
M  V30 3882 C 382.598 -0.656087 -1.91154 0
M  V30 3883 C 382.919 0.813561 -1.77218 0
M  V30 3884 O 382.189 1.58244 -1.1548 0
M  V30 3885 H 380.769 -0.239674 -0.707506 0
M  V30 3886 H 383.431 -1.25054 -1.49491 0
M  V30 3887 H 382.527 -0.912253 -2.9847 0
M  V30 3888 N 382.828 1.3818 -0.7579 0
M  V30 3889 C 383.758 2.33027 -0.148597 0
M  V30 3890 C 384.739 1.55085 0.69875 0
M  V30 3891 O 385.924 1.83384 0.639053 0
M  V30 3892 C 383.054 3.3928 0.742034 0
M  V30 3893 C 382.008 4.28 -0.00291946 0
M  V30 3894 C 381.334 5.25146 1.00625 0
M  V30 3895 C 382.634 5.08938 -1.17385 0
M  V30 3896 H 384.328 2.84231 -0.940909 0
M  V30 3897 H 381.874 1.36659 -0.453908 0
M  V30 3898 H 383.827 4.046 1.17799 0
M  V30 3899 H 382.551 2.86569 1.56671 0
M  V30 3900 H 381.21 3.64192 -0.419504 0
M  V30 3901 H 380.858 4.68721 1.8251 0
M  V30 3902 H 380.558 5.85361 0.512428 0
M  V30 3903 H 382.082 5.93342 1.44143 0
M  V30 3904 H 383.496 5.67474 -0.815224 0
M  V30 3905 H 381.893 5.7841 -1.59882 0
M  V30 3906 H 382.963 4.42424 -1.98468 0
M  V30 3907 N 384.306 0.507319 1.49211 0
M  V30 3908 C 385.254 -0.281364 2.30892 0
M  V30 3909 C 386.248 -0.95687 1.39787 0
M  V30 3910 O 387.454 -0.883838 1.56807 0
M  V30 3911 H 383.829 -0.109597 0.743971 0
M  V30 3912 H 385.8 0.42744 2.95323 0
M  V30 3913 C 384.549 -1.32918 3.21291 0
M  V30 3914 H 383.872 -0.818799 3.91326 0
M  V30 3915 H 385.312 -1.85288 3.81372 0
M  V30 3916 C 383.771 -2.35074 2.41333 0
M  V30 3917 O 384.301 -3.4108 2.12197 0
M  V30 3918 N 382.507 -2.07705 2.03241 0
M  V30 3919 H 382.054 -1.2152 2.27136 0
M  V30 3920 H 382.012 -2.76283 1.50051 0
M  V30 3921 N 385.784 -1.5574 0.241426 0
M  V30 3922 C 387.061 -1.90704 -0.434881 0
M  V30 3923 C 387.441 -1.16145 -1.76277 0
M  V30 3924 O 386.789 -0.277152 -2.26813 0
M  V30 3925 C 386.999 -3.43657 -0.608343 0
M  V30 3926 C 388.347 -4.14806 -0.906725 0
M  V30 3927 O 389.371 -3.49366 -0.694408 0
M  V30 3928 O 388.23 -5.30548 -1.31075 0
M  V30 3929 H 385.324 -0.793592 -0.23268 0
M  V30 3930 H 387.87 -1.67288 0.285086 0
M  V30 3931 H 386.642 -3.89927 0.327505 0
M  V30 3932 H 386.265 -3.72918 -1.37906 0
M  V30 3933 N 387.262 0.0317525 -1.57568 0
M  V30 3934 C 388.511 0.722131 -1.8833 0
M  V30 3935 C 388.824 1.76664 -0.839587 0
M  V30 3936 O 390.03 2.50942 -1.03635 0
M  V30 3937 C 388.486 1.33544 -3.34207 0
M  V30 3938 C 388.094 0.327415 -4.46802 0
M  V30 3939 C 389.838 2.00585 -3.7412 0
M  V30 3940 C 387.745 0.948915 -5.83738 0
M  V30 3941 H 386.675 0.273466 -0.702661 0
M  V30 3942 H 389.326 -0.0235811 -1.83485 0
M  V30 3943 H 387.708 2.13077 -3.33788 0
M  V30 3944 H 388.882 -0.441006 -4.58685 0
M  V30 3945 H 387.197 -0.240758 -4.15703 0
M  V30 3946 H 389.794 2.47932 -4.73744 0
M  V30 3947 H 390.137 2.82285 -3.05975 0
M  V30 3948 H 390.67 1.27831 -3.76702 0
M  V30 3949 H 387.409 0.171387 -6.55276 0
M  V30 3950 H 386.929 1.68724 -5.7558 0
M  V30 3951 H 388.608 1.45705 -6.3038 0
M  V30 3952 N 388.74 1.54641 0.303973 0
M  V30 3953 C 389.97 1.77511 1.05705 0
M  V30 3954 C 390.378 0.533228 1.81531 0
M  V30 3955 O 389.721 -0.506423 1.76582 0
M  V30 3956 C 389.783 2.92779 2.08617 0
M  V30 3957 C 389.447 4.30977 1.52013 0
M  V30 3958 C 390.444 5.11115 0.9517 0
M  V30 3959 C 388.129 4.77571 1.55665 0
M  V30 3960 C 390.123 6.35966 0.427327 0
M  V30 3961 C 387.81 6.02384 1.02841 0
M  V30 3962 C 388.808 6.81417 0.464713 0
M  V30 3963 O 388.496 8.03881 -0.0555283 0
M  V30 3964 H 388.228 0.59579 0.319391 0
M  V30 3965 H 390.782 2.02401 0.349712 0
M  V30 3966 H 389.012 2.63506 2.83022 0
M  V30 3967 H 390.701 3.03252 2.69802 0
M  V30 3968 H 391.467 4.76264 0.916407 0
M  V30 3969 H 387.346 4.16085 1.9848 0
M  V30 3970 H 390.89 6.97599 -0.0133062 0
M  V30 3971 H 386.787 6.36723 1.06084 0
M  V30 3972 H 387.555 8.18479 0.0580522 0
M  V30 3973 N 390.218 -0.567019 1.47046 0
M  V30 3974 C 391.465 -1.32462 1.53167 0
M  V30 3975 C 391.793 -1.93571 0.189841 0
M  V30 3976 O 391.048 -1.77865 -0.816243 0
M  V30 3977 C 391.347 -2.4623 2.59047 0
M  V30 3978 C 391.013 -2.03014 4.02612 0
M  V30 3979 C 389.675 -1.90944 4.41694 0
M  V30 3980 C 392.027 -1.69895 4.92732 0
M  V30 3981 C 389.355 -1.44035 5.68745 0
M  V30 3982 C 391.707 -1.2446 6.20236 0
M  V30 3983 C 390.371 -1.10979 6.5821 0
M  V30 3984 H 389.641 -0.484713 0.560477 0
M  V30 3985 H 392.288 -0.636888 1.80599 0
M  V30 3986 H 390.593 -3.20517 2.25335 0
M  V30 3987 H 392.29 -3.04427 2.61008 0
M  V30 3988 H 388.88 -2.13348 3.71726 0
M  V30 3989 H 393.064 -1.78098 4.63244 0
M  V30 3990 H 388.32 -1.32254 5.96925 0
M  V30 3991 H 392.494 -0.978924 6.89485 0
M  V30 3992 H 390.121 -0.744078 7.5655 0
M  V30 3993 N 391.696 -1.35014 -0.812953 0
M  V30 3994 C 392.944 -1.27678 -1.56661 0
M  V30 3995 C 393.265 0.150359 -1.94419 0
M  V30 3996 O 392.535 1.08532 -1.63088 0
M  V30 3997 H 391.115 -0.469602 -0.580933 0
M  V30 3998 H 393.777 -1.69043 -0.970076 0
M  V30 3999 H 392.873 -1.88833 -2.48492 0
M  V30 4000 N 393.175 1.03435 -1.18907 0
M  V30 4001 C 394.421 1.77005 -0.989798 0
M  V30 4002 C 394.754 1.88205 0.478816 0
M  V30 4003 O 394.029 1.39481 1.35556 0
M  V30 4004 C 394.312 3.19925 -1.65287 0
M  V30 4005 C 394.165 3.1663 -3.19477 0
M  V30 4006 C 395.484 4.18189 -1.37134 0
M  V30 4007 H 392.603 0.642538 -0.360991 0
M  V30 4008 H 395.245 1.20784 -1.46667 0
M  V30 4009 H 393.395 3.67929 -1.24741 0
M  V30 4010 H 395.067 2.76567 -3.692 0
M  V30 4011 H 393.31 2.54491 -3.51307 0
M  V30 4012 H 393.981 4.1758 -3.61013 0
M  V30 4013 H 396.457 3.78761 -1.72276 0
M  V30 4014 H 395.333 5.16394 -1.86087 0
M  V30 4015 H 395.594 4.41112 -0.295424 0
M  V30 4016 N 394.653 0.992116 1.22453 0
M  V30 4017 C 396.064 0.702776 1.72968 0
M  V30 4018 C 396.415 -0.780399 1.80012 0
M  V30 4019 O 395.54 -1.61007 1.44589 0
M  V30 4020 C 396.135 1.26903 3.14135 0
M  V30 4021 C 394.694 1.02909 3.62059 0
M  V30 4022 C 393.841 1.38969 2.39964 0
M  V30 4023 H 396.792 1.16457 1.07812 0
M  V30 4024 H 396.813 0.647223 3.74955 0
M  V30 4025 H 396.325 2.34851 3.08977 0
M  V30 4026 H 394.426 -0.0337979 3.72585 0
M  V30 4027 H 394.539 1.69191 4.48231 0
M  V30 4028 H 392.903 0.808279 2.41535 0
M  V30 4029 H 393.686 2.4792 2.37467 0
M  V30 4030 N 396.131 -1.37776 0.765217 0
M  V30 4031 C 397.377 -2.00145 0.327072 0
M  V30 4032 C 397.71 -1.60607 -1.09175 0
M  V30 4033 O 396.985 -0.849127 -1.74986 0
M  V30 4034 C 397.268 -3.57109 0.46319 0
M  V30 4035 C 397.121 -4.06576 1.92395 0
M  V30 4036 C 398.44 -4.39888 -0.136473 0
M  V30 4037 H 395.559 -0.727113 0.120316 0
M  V30 4038 H 398.201 -1.63549 0.967039 0
M  V30 4039 H 396.351 -3.88414 -0.0816358 0
M  V30 4040 H 398.023 -3.85864 2.52798 0
M  V30 4041 H 396.266 -3.59011 2.43503 0
M  V30 4042 H 396.937 -5.15639 1.97028 0
M  V30 4043 H 399.413 -4.14803 0.328317 0
M  V30 4044 H 398.289 -5.48899 -0.0110582 0
M  V30 4045 H 398.55 -4.24758 -1.22608 0
M  V30 4046 N 397.609 -0.515225 -1.4894 0
M  V30 4047 C 398.858 0.0261361 -2.01683 0
M  V30 4048 C 399.171 1.36719 -1.39883 0
M  V30 4049 O 400.377 1.99606 -1.84037 0
M  V30 4050 C 398.833 0.0970111 -3.59769 0
M  V30 4051 C 398.441 -1.23825 -4.30548 0
M  V30 4052 C 400.185 0.587981 -4.20408 0
M  V30 4053 C 398.092 -1.12877 -5.80528 0
M  V30 4054 H 397.022 0.0135398 -0.753878 0
M  V30 4055 H 399.673 -0.656787 -1.71343 0
M  V30 4056 H 398.055 0.844694 -3.86886 0
M  V30 4057 H 399.229 -2.00034 -4.15118 0
M  V30 4058 H 397.544 -1.66379 -3.81716 0
M  V30 4059 H 400.141 0.68763 -5.3026 0
M  V30 4060 H 400.484 1.59026 -3.84729 0
M  V30 4061 H 401.017 -0.103582 -3.97665 0
M  V30 4062 H 397.756 -2.10575 -6.20756 0
M  V30 4063 H 397.276 -0.407799 -5.98412 0
M  V30 4064 H 398.955 -0.813332 -6.41868 0
M  V30 4065 N 399.087 1.5561 -0.249682 0
M  V30 4066 C 400.017 2.24477 0.642826 0
M  V30 4067 C 400.998 1.22601 1.17911 0
M  V30 4068 O 402.183 1.5126 1.21795 0
M  V30 4069 C 399.313 2.94638 1.83863 0
M  V30 4070 C 398.267 4.03227 1.435 0
M  V30 4071 C 397.593 4.60828 2.71186 0
M  V30 4072 C 398.893 5.18796 0.604002 0
M  V30 4073 H 400.587 2.99321 0.0685625 0
M  V30 4074 H 398.133 1.43965 0.0315363 0
M  V30 4075 H 400.086 3.41517 2.46868 0
M  V30 4076 H 398.81 2.17287 2.43832 0
M  V30 4077 H 397.469 3.57121 0.828275 0
M  V30 4078 H 397.117 3.80174 3.29358 0
M  V30 4079 H 396.817 5.34132 2.44901 0
M  V30 4080 H 398.341 5.10442 3.35084 0
M  V30 4081 H 399.755 5.61883 1.13842 0
M  V30 4082 H 398.152 5.98506 0.437097 0
M  V30 4083 H 399.222 4.83384 -0.383147 0
M  V30 4084 N 400.565 -0.0233959 1.57583 0
M  V30 4085 C 401.813 -0.711654 1.89156 0
M  V30 4086 C 402.134 -1.75591 0.848096 0
M  V30 4087 O 401.404 -1.95547 -0.117566 0
M  V30 4088 H 399.984 -0.265835 0.698098 0
M  V30 4089 H 402.646 0.0119948 1.94896 0
M  V30 4090 H 401.742 -1.19766 2.88206 0
M  V30 4091 N 402.043 -1.548 -0.295768 0
M  V30 4092 C 403.006 -1.85363 -1.34808 0
M  V30 4093 C 404.006 -0.726817 -1.43436 0
M  V30 4094 O 405.196 -0.995088 -1.42981 0
M  V30 4095 C 402.328 -2.03859 -2.73229 0
M  V30 4096 H 403.521 -2.7941 -1.08949 0
M  V30 4097 H 401.074 -1.46942 -0.532702 0
M  V30 4098 H 401.809 -1.12117 -3.04303 0
M  V30 4099 H 401.594 -2.8588 -2.68356 0
M  V30 4100 H 403.084 -2.28857 -3.49305 0
M  V30 4101 N 403.521 0.559213 -1.47345 0
M  V30 4102 C 404.769 1.31388 -1.53563 0
M  V30 4103 C 405.09 1.93985 -0.198678 0
M  V30 4104 O 404.36 1.79825 0.777167 0
M  V30 4105 H 402.94 0.487901 -0.565652 0
M  V30 4106 H 405.602 0.65315 -1.8363 0
M  V30 4107 H 404.698 2.10844 -2.30111 0
M  V30 4108 N 404.999 1.35443 0.805782 0
M  V30 4109 C 406.247 1.28507 1.55982 0
M  V30 4110 C 406.568 -0.140046 1.94496 0
M  V30 4111 O 405.838 -1.07666 1.63661 0
M  V30 4112 H 404.418 0.472676 0.578434 0
M  V30 4113 H 407.08 1.69555 0.961098 0
M  V30 4114 H 406.176 1.90148 2.47488 0
M  V30 4115 N 406.477 -1.02803 1.19454 0
M  V30 4116 C 407.723 -1.76478 0.999171 0
M  V30 4117 C 408.056 -1.88456 -0.468828 0
M  V30 4118 O 407.331 -1.40198 -1.34814 0
M  V30 4119 C 407.614 -3.19044 1.66981 0
M  V30 4120 C 407.467 -3.14932 3.21151 0
M  V30 4121 C 408.786 -4.17456 1.39349 0
M  V30 4122 H 405.905 -0.640614 0.364393 0
M  V30 4123 H 408.547 -1.20005 1.47305 0
M  V30 4124 H 406.697 -3.67263 1.2669 0
M  V30 4125 H 408.369 -2.74605 3.70661 0
M  V30 4126 H 406.612 -2.52625 3.52652 0
M  V30 4127 H 407.283 -4.1566 3.63223 0
M  V30 4128 H 409.759 -3.77842 1.74283 0
M  V30 4129 H 408.635 -5.154 1.88823 0
M  V30 4130 H 408.896 -4.40949 0.318813 0
M  V30 4131 N 407.956 -0.998596 -1.21925 0
M  V30 4132 C 408.866 -0.562736 -2.27751 0
M  V30 4133 C 409.882 0.391203 -1.69545 0
M  V30 4134 O 411.058 0.256625 -1.99758 0
M  V30 4135 C 408.123 0.11012 -3.46525 0
M  V30 4136 C 407.184 -0.887495 -4.20026 0
M  V30 4137 C 406.417 -0.246654 -5.3313 0
M  V30 4138 O 406.64 0.958088 -5.62296 0
M  V30 4139 O 405.574 -0.954374 -5.94286 0
M  V30 4140 H 409.4 -1.44329 -2.67213 0
M  V30 4141 H 406.985 -0.767135 -1.28201 0
M  V30 4142 H 408.867 0.486756 -4.18579 0
M  V30 4143 H 407.542 0.965154 -3.08976 0
M  V30 4144 H 406.449 -1.31517 -3.5022 0
M  V30 4145 H 407.782 -1.71191 -4.6147 0
M  V30 4146 N 409.434 1.37368 -0.772513 0
M  V30 4147 C 410.381 2.30262 -0.157488 0
M  V30 4148 C 411.351 1.51137 0.688965 0
M  V30 4149 O 412.536 1.79704 0.641168 0
M  V30 4150 C 409.676 3.37611 0.715045 0
M  V30 4151 C 408.789 4.31746 -0.148098 0
M  V30 4152 C 407.924 5.26171 0.729213 0
M  V30 4153 C 406.963 6.11948 -0.136418 0
M  V30 4154 N 406.1 6.98613 0.698914 0
M  V30 4155 H 410.94 2.82277 -0.955179 0
M  V30 4156 H 408.477 1.38957 -0.482631 0
M  V30 4157 H 410.435 3.98479 1.23575 0
M  V30 4158 H 409.065 2.86959 1.47833 0
M  V30 4159 H 408.117 3.72178 -0.786613 0
M  V30 4160 H 409.429 4.92084 -0.81579 0
M  V30 4161 H 408.583 5.92247 1.31637 0
M  V30 4162 H 407.322 4.66246 1.43059 0
M  V30 4163 H 406.327 5.4485 -0.736102 0
M  V30 4164 H 407.552 6.73945 -0.835134 0
M  V30 4165 H 405.498 6.41215 1.38489 0
M  V30 4166 H 405.415 7.55948 0.0885358 0
M  V30 4167 H 406.683 7.69077 1.27044 0
M  V30 4168 N 410.912 0.523116 1.48665 0
M  V30 4169 C 412.161 -0.01544 2.01694 0
M  V30 4170 C 412.474 -1.35975 1.40606 0
M  V30 4171 O 413.68 -1.98627 1.85093 0
M  V30 4172 C 412.136 -0.0779303 3.59816 0
M  V30 4173 C 411.744 1.26107 4.29885 0
M  V30 4174 C 413.488 -0.565678 4.20714 0
M  V30 4175 C 411.395 1.15954 5.79921 0
M  V30 4176 H 410.325 -0.00954163 0.75394 0
M  V30 4177 H 412.976 0.665865 1.70993 0
M  V30 4178 H 411.358 -0.824165 3.87329 0
M  V30 4179 H 412.532 2.02233 4.14051 0
M  V30 4180 H 410.847 1.68401 3.80828 0
M  V30 4181 H 413.444 -0.6595 5.30617 0
M  V30 4182 H 413.787 -1.56984 3.85567 0
M  V30 4183 H 414.32 0.12467 3.97605 0
M  V30 4184 H 411.059 2.13864 6.19631 0
M  V30 4185 H 410.579 0.439529 5.98187 0
M  V30 4186 H 412.258 0.847361 6.41427 0
M  V30 4187 N 412.39 -1.55475 0.257931 0
M  V30 4188 C 413.32 -2.24815 -0.630912 0
M  V30 4189 C 414.301 -1.23224 -1.17259 0
M  V30 4190 O 415.486 -1.51904 -1.20991 0
M  V30 4191 C 412.616 -2.95609 -1.82298 0
M  V30 4192 C 411.57 -4.03982 -1.41359 0
M  V30 4193 C 410.896 -4.6226 -2.68738 0
M  V30 4194 C 412.196 -5.19109 -0.57648 0
M  V30 4195 H 413.89 -2.99354 -0.0526878 0
M  V30 4196 H 411.436 -1.4398 -0.023901 0
M  V30 4197 H 413.389 -3.42822 -2.45054 0
M  V30 4198 H 412.113 -2.18577 -2.42676 0
M  V30 4199 H 410.772 -3.57555 -0.809324 0
M  V30 4200 H 410.42 -3.81915 -3.27338 0
M  V30 4201 H 410.12 -5.35424 -2.42065 0
M  V30 4202 H 411.644 -5.12212 -3.32372 0
M  V30 4203 H 413.058 -5.62479 -1.10861 0
M  V30 4204 H 411.455 -5.98729 -0.405351 0
M  V30 4205 H 412.525 -4.83174 0.408776 0
M  V30 4206 N 413.868 0.0150385 -1.57593 0
M  V30 4207 C 414.778 1.02791 -2.10882 0
M  V30 4208 C 415.794 1.38702 -1.0506 0
M  V30 4209 O 416.97 1.47739 -1.36877 0
M  V30 4210 C 414.035 2.30568 -2.58919 0
M  V30 4211 C 413.096 2.01108 -3.79281 0
M  V30 4212 C 412.329 3.22794 -4.25018 0
M  V30 4213 O 412.552 4.33959 -3.70183 0
M  V30 4214 O 411.486 3.07672 -5.17322 0
M  V30 4215 H 415.312 0.604973 -2.97613 0
M  V30 4216 H 412.897 0.23292 -1.47573 0
M  V30 4217 H 414.779 3.05662 -2.90084 0
M  V30 4218 H 413.454 2.72129 -1.75293 0
M  V30 4219 H 412.361 1.23537 -3.53114 0
M  V30 4220 H 413.694 1.64394 -4.63935 0
M  V30 4221 N 415.346 1.54954 0.287554 0
M  V30 4222 C 416.276 1.89839 1.35954 0
M  V30 4223 C 417.257 0.758675 1.52244 0
M  V30 4224 O 418.442 1.01557 1.65529 0
M  V30 4225 C 415.572 2.15753 2.72154 0
M  V30 4226 C 414.526 3.3159 2.70614 0
M  V30 4227 C 413.852 3.42952 4.10229 0
M  V30 4228 C 415.152 4.68359 2.31165 0
M  V30 4229 H 416.846 2.79625 1.07007 0
M  V30 4230 H 414.392 1.3454 0.513316 0
M  V30 4231 H 416.345 2.38743 3.47246 0
M  V30 4232 H 415.069 1.22752 3.02654 0
M  V30 4233 H 413.728 3.08545 1.97979 0
M  V30 4234 H 413.376 2.47443 4.37928 0
M  V30 4235 H 413.076 4.20826 4.10097 0
M  V30 4236 H 414.6 3.68218 4.87081 0
M  V30 4237 H 416.014 4.9099 2.95976 0
M  V30 4238 H 414.411 5.49044 2.42221 0
M  V30 4239 H 415.481 4.68165 1.26291 0
M  V30 4240 N 416.824 -0.551391 1.4764 0
M  V30 4241 C 418.235 -1.13349 1.48354 0
M  V30 4242 C 418.586 -1.94709 0.241432 0
M  V30 4243 O 417.711 -2.06306 -0.653205 0
M  V30 4244 C 418.306 -2.0623 2.68802 0
M  V30 4245 C 416.865 -2.597 2.72457 0
M  V30 4246 C 416.012 -1.36201 2.41546 0
M  V30 4247 H 418.963 -0.337698 1.55065 0
M  V30 4248 H 418.984 -2.90196 2.46103 0
M  V30 4249 H 418.496 -1.46987 3.59188 0
M  V30 4250 H 416.597 -3.22724 1.86225 0
M  V30 4251 H 416.71 -3.00296 3.73308 0
M  V30 4252 H 415.074 -1.67068 1.9225 0
M  V30 4253 H 415.857 -0.787425 3.34147 0
M  V30 4254 N 418.302 -1.35869 -0.798587 0
M  V30 4255 C 419.232 -1.32118 -1.92528 0
M  V30 4256 C 420.213 -0.194209 -1.68988 0
M  V30 4257 O 421.398 -0.390426 -1.90235 0
M  V30 4258 C 418.528 -1.10047 -3.29404 0
M  V30 4259 C 417.482 -2.19471 -3.67446 0
M  V30 4260 C 416.808 -1.82555 -5.02571 0
M  V30 4261 C 418.108 -3.61495 -3.76987 0
M  V30 4262 H 419.802 -2.26394 -1.95924 0
M  V30 4263 H 417.348 -1.08981 -0.94123 0
M  V30 4264 H 419.301 -1.06061 -4.07835 0
M  V30 4265 H 418.025 -0.122195 -3.26371 0
M  V30 4266 H 416.684 -2.22568 -2.91306 0
M  V30 4267 H 416.332 -0.833249 -4.9605 0
M  V30 4268 H 416.032 -2.5581 -5.28995 0
M  V30 4269 H 417.556 -1.80108 -5.83432 0
M  V30 4270 H 418.97 -3.60676 -4.4563 0
M  V30 4271 H 417.367 -4.33577 -4.14887 0
M  V30 4272 H 418.437 -3.97065 -2.78329 0
M  V30 4273 N 419.78 1.02168 -1.19998 0
M  V30 4274 C 420.728 2.12717 -0.940967 0
M  V30 4275 C 421.722 1.69069 0.105841 0
M  V30 4276 O 422.928 1.79946 -0.0440583 0
M  V30 4277 H 419.303 0.695108 -0.28693 0
M  V30 4278 H 421.274 2.3175 -1.87975 0
M  V30 4279 C 420.023 3.44027 -0.504049 0
M  V30 4280 H 419.346 3.78036 -1.30112 0
M  V30 4281 H 420.786 4.22452 -0.361991 0
M  V30 4282 C 419.245 3.27678 0.782878 0
M  V30 4283 O 419.775 3.56949 1.84256 0
M  V30 4284 N 417.981 2.80943 0.742921 0
M  V30 4285 H 417.528 2.57322 -0.119687 0
M  V30 4286 H 417.486 2.70385 1.60435 0
M  V30 4287 N 421.258 1.00505 1.21394 0
M  V30 4288 C 422.168 0.574806 2.27449 0
M  V30 4289 C 423.184 -0.382206 1.6975 0
M  V30 4290 O 424.36 -0.246027 1.99892 0
M  V30 4291 C 421.425 -0.0917414 3.46579 0
M  V30 4292 C 420.486 0.909758 4.1955 0
M  V30 4293 C 419.719 0.274924 5.32991 0
M  V30 4294 O 419.942 -0.928254 5.62796 0
M  V30 4295 O 418.876 0.985877 5.93771 0
M  V30 4296 H 422.702 1.45744 2.66444 0
M  V30 4297 H 420.287 0.773923 1.27792 0
M  V30 4298 H 422.169 -0.464551 4.18832 0
M  V30 4299 H 420.844 -0.948755 3.09484 0
M  V30 4300 H 419.751 1.33372 3.49518 0
M  V30 4301 H 421.084 1.73636 4.60555 0
M  V30 4302 N 422.737 -1.36956 0.779787 0
M  V30 4303 C 423.647 -2.33965 0.172491 0
M  V30 4304 C 424.663 -1.60574 -0.670222 0
M  V30 4305 O 425.839 -1.92617 -0.588263 0
M  V30 4306 C 422.904 -3.39761 -0.690173 0
M  V30 4307 C 421.965 -4.28964 0.169924 0
M  V30 4308 C 421.198 -5.29707 -0.651662 0
M  V30 4309 O 421.421 -5.38238 -1.88827 0
M  V30 4310 O 420.355 -6.01873 -0.0566264 0
M  V30 4311 H 424.181 -2.87647 0.974321 0
M  V30 4312 H 421.766 -1.39258 0.541078 0
M  V30 4313 H 423.648 -4.04471 -1.1824 0
M  V30 4314 H 422.323 -2.88394 -1.47006 0
M  V30 4315 H 421.23 -3.67326 0.708696 0
M  V30 4316 H 422.563 -4.83656 0.913085 0
M  V30 4317 N 424.215 -0.530993 -1.48385 0
M  V30 4318 C 425.125 0.23503 -2.3342 0
M  V30 4319 C 426.141 0.93801 -1.46552 0
M  V30 4320 O 427.317 0.912745 -1.7953 0
M  V30 4321 C 424.382 1.26778 -3.22689 0
M  V30 4322 C 423.443 0.575038 -4.25431 0
M  V30 4323 C 422.676 1.55858 -5.10435 0
M  V30 4324 O 422.899 2.79129 -4.97437 0
M  V30 4325 O 421.833 1.09742 -5.91811 0
M  V30 4326 H 425.659 -0.461794 -3.00169 0
M  V30 4327 H 423.244 -0.291903 -1.46521 0
M  V30 4328 H 425.126 1.86457 -3.77904 0
M  V30 4329 H 423.801 1.94699 -2.586 0
M  V30 4330 H 422.708 -0.0622782 -3.74048 0
M  V30 4331 H 424.041 -0.062253 -4.92161 0
M  V30 4332 N 425.693 1.55336 -0.266172 0
M  V30 4333 C 426.626 2.18256 0.666296 0
M  V30 4334 C 427.604 1.14064 1.1588 0
M  V30 4335 O 428.788 1.42546 1.23341 0
M  V30 4336 C 425.915 2.79867 1.90768 0
M  V30 4337 C 424.961 3.97283 1.55141 0
M  V30 4338 S 425.794 5.31694 0.637313 0
M  V30 4339 C 426.95 5.96769 1.88727 0
M  V30 4340 H 427.183 2.97008 0.131647 0
M  V30 4341 H 424.716 1.54317 -0.0504869 0
M  V30 4342 H 426.674 3.15996 2.62025 0
M  V30 4343 H 425.335 2.01025 2.41346 0
M  V30 4344 H 424.528 4.3905 2.4749 0
M  V30 4345 H 424.13 3.6253 0.919113 0
M  V30 4346 H 426.422 6.15458 2.83227 0
M  V30 4347 H 427.365 6.91752 1.51276 0
M  V30 4348 H 427.773 5.26034 2.04814 0
M  V30 4349 N 427.171 -0.0066808 1.57599 0
M  V30 4350 C 428.134 -0.985035 2.06953 0
M  V30 4351 C 429.134 -1.27663 0.977687 0
M  V30 4352 O 430.324 -1.22293 1.24057 0
M  V30 4353 C 427.456 -2.3118 2.50536 0
M  V30 4354 H 428.649 -0.558255 2.94658 0
M  V30 4355 H 426.202 -0.254011 1.54222 0
M  V30 4356 H 426.937 -2.78561 1.66054 0
M  V30 4357 H 426.722 -2.11338 3.3027 0
M  V30 4358 H 428.212 -3.01377 2.8907 0
M  V30 4359 N 428.649 -1.55105 -0.279332 0
M  V30 4360 C 429.579 -1.90557 -1.34945 0
M  V30 4361 C 430.56 -0.766738 -1.51839 0
M  V30 4362 O 431.745 -1.02434 -1.64988 0
M  V30 4363 C 428.875 -2.17193 -2.71006 0
M  V30 4364 C 427.829 -3.33021 -2.68851 0
M  V30 4365 C 427.155 -3.45123 -4.08405 0
M  V30 4366 C 428.455 -4.69578 -2.28678 0
M  V30 4367 H 430.149 -2.80188 -1.05522 0
M  V30 4368 H 427.695 -1.34811 -0.506173 0
M  V30 4369 H 429.648 -2.40581 -3.45975 0
M  V30 4370 H 428.372 -1.24355 -3.01999 0
M  V30 4371 H 427.031 -3.0959 -1.9634 0
M  V30 4372 H 426.679 -2.49762 -4.3661 0
M  V30 4373 H 426.379 -4.22995 -4.07859 0
M  V30 4374 H 427.903 -3.70796 -4.85121 0
M  V30 4375 H 429.317 -4.92553 -2.93368 0
M  V30 4376 H 427.714 -5.5032 -2.39306 0
M  V30 4377 H 428.784 -4.68828 -1.23807 0
M  V30 4378 N 430.127 0.543554 -1.4793 0
M  V30 4379 C 431.057 1.65888 -1.64327 0
M  V30 4380 C 432.038 1.62818 -0.492383 0
M  V30 4381 O 433.223 1.80226 -0.723338 0
M  V30 4382 C 430.353 3.04506 -1.67013 0
M  V30 4383 C 429.307 3.2243 -2.81466 0
M  V30 4384 C 428.633 4.61972 -2.69233 0
M  V30 4385 C 429.933 3.06496 -4.22915 0
M  V30 4386 H 431.627 1.52421 -2.57698 0
M  V30 4387 H 429.173 0.731849 -1.24016 0
M  V30 4388 H 431.126 3.82391 -1.77074 0
M  V30 4389 H 429.85 3.18964 -0.70212 0
M  V30 4390 H 428.509 2.46957 -2.70938 0
M  V30 4391 H 428.157 4.73247 -1.7043 0
M  V30 4392 H 427.857 4.74911 -3.46025 0
M  V30 4393 H 429.381 5.41974 -2.81242 0
M  V30 4394 H 430.795 3.74186 -4.34348 0
M  V30 4395 H 429.192 3.30938 -5.006 0
M  V30 4396 H 430.262 2.03077 -4.40327 0
M  V30 4397 N 431.605 1.3629 0.791371 0
M  V30 4398 C 432.553 1.30514 1.92533 0
M  V30 4399 C 433.547 0.197285 1.68247 0
M  V30 4400 O 434.753 0.364176 1.76278 0
M  V30 4401 H 431.128 0.406263 0.632815 0
M  V30 4402 H 433.099 2.26282 1.94523 0
M  V30 4403 C 431.848 1.10933 3.29529 0
M  V30 4404 H 431.171 1.95427 3.48781 0
M  V30 4405 H 432.611 1.10937 4.0923 0
M  V30 4406 C 431.07 -0.186123 3.36385 0
M  V30 4407 O 431.6 -1.17664 3.84081 0
M  V30 4408 N 429.806 -0.230128 2.89687 0
M  V30 4409 H 429.353 0.576545 2.51065 0
M  V30 4410 H 429.311 -1.09658 2.94657 0
M  V30 4411 N 433.083 -1.0153 1.20538 0
M  V30 4412 C 434.046 -2.0826 0.957098 0
M  V30 4413 C 435.046 -1.60657 -0.0678655 0
M  V30 4414 O 436.236 -1.73385 0.168332 0
M  V30 4415 C 433.368 -3.38033 0.441188 0
M  V30 4416 H 434.561 -2.31719 1.90384 0
M  V30 4417 H 432.114 -1.1835 1.02093 0
M  V30 4418 H 432.849 -3.20249 -0.510961 0
M  V30 4419 H 432.634 -3.73911 1.18038 0
M  V30 4420 H 434.124 -4.16613 0.287009 0
M  V30 4421 N 434.561 -1.01147 -1.20859 0
M  V30 4422 C 435.786 -0.716698 -1.94623 0
M  V30 4423 C 436.211 0.715415 -1.73964 0
M  V30 4424 O 435.569 1.49157 -1.03062 0
M  V30 4425 C 435.617 -1.0513 -3.44935 0
M  V30 4426 O 434.721 -0.160131 -4.12089 0
M  V30 4427 H 434.062 -0.266404 -0.608214 0
M  V30 4428 H 436.592 -1.35346 -1.53436 0
M  V30 4429 H 436.602 -1.00086 -3.95533 0
M  V30 4430 H 435.277 -2.09475 -3.59295 0
M  V30 4431 H 433.854 -0.267657 -3.71938 0
M  V30 4432 N 436.039 1.36541 -0.78704 0
M  V30 4433 C 437.002 2.28413 -0.189778 0
M  V30 4434 C 438.002 1.48719 0.611499 0
M  V30 4435 O 439.192 1.68737 0.432842 0
M  V30 4436 C 436.324 3.32824 0.737638 0
M  V30 4437 H 437.517 2.82743 -0.999831 0
M  V30 4438 H 435.07 1.46065 -0.556298 0
M  V30 4439 H 435.805 2.83646 1.57212 0
M  V30 4440 H 435.59 3.91752 0.165044 0
M  V30 4441 H 437.08 4.0144 1.15047 0
M  V30 4442 N 437.518 0.538854 1.48102 0
M  V30 4443 C 438.465 -0.219042 2.29758 0
M  V30 4444 C 439.435 -0.925562 1.37922 0
M  V30 4445 O 440.62 -0.924855 1.66886 0
M  V30 4446 C 437.76 -1.25452 3.2149 0
M  V30 4447 C 436.873 -0.555943 4.28408 0
M  V30 4448 C 436.008 -1.57512 5.0731 0
M  V30 4449 C 435.047 -0.860498 6.06021 0
M  V30 4450 N 434.184 -1.82564 6.77949 0
M  V30 4451 H 439.024 0.483449 2.94052 0
M  V30 4452 H 436.561 0.250247 1.44956 0
M  V30 4453 H 438.519 -1.86727 3.7308 0
M  V30 4454 H 437.149 -1.92528 2.591 0
M  V30 4455 H 436.201 0.170938 3.80016 0
M  V30 4456 H 437.513 0.00474616 4.988 0
M  V30 4457 H 436.667 -2.26191 5.62959 0
M  V30 4458 H 435.406 -2.16972 4.36778 0
M  V30 4459 H 434.411 -0.159686 5.49568 0
M  V30 4460 H 435.636 -0.271897 6.78555 0
M  V30 4461 H 433.582 -2.40915 6.10161 0
M  V30 4462 H 433.499 -1.31662 7.44447 0
M  V30 4463 H 434.767 -2.50414 7.38182 0
M  V30 4464 N 438.996 -1.55193 0.274407 0
M  V30 4465 C 439.959 -2.212 -0.600279 0
M  V30 4466 C 440.959 -1.18963 -1.08187 0
M  V30 4467 O 442.149 -1.43873 -0.982158 0
M  V30 4468 C 439.281 -2.87739 -1.82809 0
M  V30 4469 H 440.474 -2.9989 -0.0239682 0
M  V30 4470 H 438.027 -1.5628 0.0250192 0
M  V30 4471 H 438.762 -2.13058 -2.44493 0
M  V30 4472 H 438.547 -3.62658 -1.49069 0
M  V30 4473 H 440.037 -3.38171 -2.45011 0
M  V30 4474 N 440.474 -0.00167713 -1.576 0
M  V30 4475 C 441.72 0.683832 -1.90923 0
M  V30 4476 C 442.053 1.7333 -0.875799 0
M  V30 4477 O 441.328 1.94215 0.10525 0
M  V30 4478 C 441.611 1.32543 -3.3482 0
M  V30 4479 C 441.464 0.287387 -4.48881 0
M  V30 4480 C 442.783 2.25114 -3.78169 0
M  V30 4481 H 439.902 0.247125 -0.694333 0
M  V30 4482 H 442.544 -0.0533149 -1.89925 0
M  V30 4483 H 440.694 1.95372 -3.35801 0
M  V30 4484 H 442.366 -0.341346 -4.60035 0
M  V30 4485 H 440.609 -0.39017 -4.32042 0
M  V30 4486 H 441.28 0.775393 -5.46527 0
M  V30 4487 H 443.756 1.723 -3.7875 0
M  V30 4488 H 442.632 2.66971 -4.79602 0
M  V30 4489 H 442.893 3.13092 -3.12131 0
M  V30 4490 N 441.952 1.55251 0.271103 0
M  V30 4491 C 443.368 1.47133 0.618393 0
M  V30 4492 C 443.568 0.686994 1.89427 0
M  V30 4493 O 442.624 0.206609 2.51653 0
M  V30 4494 C 443.937 2.91361 0.743593 0
M  V30 4495 C 445.485 3.01587 0.837522 0
M  V30 4496 C 445.96 4.47073 0.994483 0
M  V30 4497 N 447.451 4.50909 1.05996 0
M  V30 4498 C 448.186 5.60698 1.20024 0
M  V30 4499 N 447.682 6.80348 1.30759 0
M  V30 4500 N 449.475 5.48444 1.23149 0
M  V30 4501 H 441.626 2.04698 -0.566784 0
M  V30 4502 H 443.889 0.928319 -0.192165 0
M  V30 4503 H 443.595 3.51483 -0.123493 0
M  V30 4504 H 443.469 3.40484 1.62328 0
M  V30 4505 H 445.856 2.4156 1.69507 0
M  V30 4506 H 445.937 2.55713 -0.0668086 0
M  V30 4507 H 445.581 5.07703 0.141582 0
M  V30 4508 H 445.511 4.90605 1.91349 0
M  V30 4509 H 448.002 3.6472 0.989316 0
M  V30 4510 H 448.315 7.59772 1.41303 0
M  V30 4511 H 446.66 6.83156 1.27761 0
M  V30 4512 H 449.851 4.53907 1.14394 0
M  V30 4513 H 450.024 6.34049 1.33738 0
M  V30 4514 N 443.43 -0.535701 1.48216 0
M  V30 4515 C 444.393 -1.623 1.61838 0
M  V30 4516 C 445.393 -1.53087 0.492024 0
M  V30 4517 O 446.583 -1.5686 0.757668 0
M  V30 4518 C 443.715 -3.01907 1.58319 0
M  V30 4519 H 444.908 -1.51564 2.58783 0
M  V30 4520 H 442.461 -0.757317 1.36727 0
M  V30 4521 H 443.196 -3.18155 0.628299 0
M  V30 4522 H 442.981 -3.10003 2.40085 0
M  V30 4523 H 444.471 -3.80969 1.71033 0
M  V30 4524 N 444.908 -1.36708 -0.784132 0
M  V30 4525 C 446.136 -1.34398 -1.57305 0
M  V30 4526 C 446.551 0.0735577 -1.88657 0
M  V30 4527 O 445.908 1.03193 -1.50524 0
M  V30 4528 C 445.959 -2.17053 -2.89085 0
M  V30 4529 O 445.68 -3.53281 -2.59083 0
M  V30 4530 C 447.181 -2.22583 -3.83369 0
M  V30 4531 H 444.401 -0.460819 -0.487736 0
M  V30 4532 H 446.945 -1.79879 -0.972819 0
M  V30 4533 H 445.1 -1.75113 -3.45564 0
M  V30 4534 H 445.514 -3.9647 -3.43383 0
M  V30 4535 H 446.988 -2.84763 -4.72878 0
M  V30 4536 H 447.465 -1.23075 -4.21603 0
M  V30 4537 H 448.071 -2.64781 -3.32823 0
M  V30 4538 N 446.386 1.0089 -1.21074 0
M  V30 4539 C 447.316 2.1145 -0.990523 0
M  V30 4540 C 448.297 1.69897 0.0831699 0
M  V30 4541 O 449.482 1.94052 -0.0758853 0
M  V30 4542 C 446.612 3.42914 -0.550177 0
M  V30 4543 C 445.566 3.98244 -1.56799 0
M  V30 4544 C 444.892 5.25568 -0.984013 0
M  V30 4545 C 446.192 4.30752 -2.95381 0
M  V30 4546 H 447.886 2.3013 -1.91521 0
M  V30 4547 H 445.432 1.10592 -0.92225 0
M  V30 4548 H 447.385 4.19653 -0.383305 0
M  V30 4549 H 446.109 3.24014 0.41015 0
M  V30 4550 H 444.768 3.23621 -1.72236 0
M  V30 4551 H 444.416 5.02998 -0.0155216 0
M  V30 4552 H 444.116 5.63551 -1.66384 0
M  V30 4553 H 445.64 6.04955 -0.828378 0
M  V30 4554 H 447.054 4.98349 -2.8341 0
M  V30 4555 H 445.451 4.79869 -3.60341 0
M  V30 4556 H 446.521 3.39192 -3.46521 0
M  V30 4557 N 447.864 1.01787 1.20321 0
M  V30 4558 C 449.141 0.622978 1.85414 0
M  V30 4559 C 449.521 -0.898887 1.91006 0
M  V30 4560 O 448.869 -1.79112 1.41884 0
M  V30 4561 C 449.079 1.27226 3.24984 0
M  V30 4562 C 450.427 1.3885 4.01255 0
M  V30 4563 O 451.451 1.22857 3.34342 0
M  V30 4564 O 450.31 1.64705 5.2109 0
M  V30 4565 H 447.404 0.215116 0.798533 0
M  V30 4566 H 449.95 1.11533 1.27901 0
M  V30 4567 H 448.722 2.31209 3.15687 0
M  V30 4568 H 448.345 0.767069 3.90131 0
M  V30 4569 N 449.342 -1.36122 0.79427 0
M  V30 4570 C 450.57 -2.03362 0.380989 0
M  V30 4571 C 450.985 -1.59881 -1.00416 0
M  V30 4572 O 450.342 -0.790515 -1.6449 0
M  V30 4573 C 450.393 -3.58804 0.440649 0
M  V30 4574 O 450.114 -4.007 1.77118 0
M  V30 4575 C 451.615 -4.43296 0.0186117 0
M  V30 4576 H 448.835 -0.652526 0.156367 0
M  V30 4577 H 451.379 -1.73998 1.07447 0
M  V30 4578 H 449.534 -3.8686 -0.204458 0
M  V30 4579 H 449.948 -4.95309 1.72538 0
M  V30 4580 H 451.422 -5.51887 0.111488 0
M  V30 4581 H 451.899 -4.2684 -1.03461 0
M  V30 4582 H 452.505 -4.20512 0.636395 0
M  V30 4583 N 450.82 -0.546701 -1.47814 0
M  V30 4584 C 451.75 0.195317 -2.32682 0
M  V30 4585 C 452.731 0.918981 -1.43139 0
M  V30 4586 O 453.916 0.901501 -1.72008 0
M  V30 4587 C 451.046 1.23237 -3.247 0
M  V30 4588 C 450 0.625818 -4.234 0
M  V30 4589 C 449.326 1.76674 -5.04669 0
M  V30 4590 C 450.626 -0.413515 -5.2066 0
M  V30 4591 H 452.32 -0.513184 -2.94969 0
M  V30 4592 H 449.866 -0.248241 -1.41844 0
M  V30 4593 H 451.819 1.75955 -3.82907 0
M  V30 4594 H 450.543 1.97067 -2.60446 0
M  V30 4595 H 449.202 0.120023 -3.66403 0
M  V30 4596 H 448.85 2.49383 -4.36826 0
M  V30 4597 H 448.55 1.36673 -5.71484 0
M  V30 4598 H 450.074 2.29738 -5.65732 0
M  V30 4599 H 451.488 0.0272042 -5.73294 0
M  V30 4600 H 449.885 -0.731825 -5.95621 0
M  V30 4601 H 450.955 -1.31325 -4.66778 0
M  V30 4602 N 452.299 1.55045 -0.282633 0
M  V30 4603 C 453.246 2.22822 0.601566 0
M  V30 4604 C 454.216 1.20431 1.14392 0
M  V30 4605 O 455.401 1.48996 1.19184 0
M  V30 4606 C 452.541 2.95873 1.77632 0
M  V30 4607 C 451.654 4.12999 1.26711 0
M  V30 4608 C 450.789 4.73676 2.40426 0
M  V30 4609 C 449.828 5.82981 1.86545 0
M  V30 4610 N 448.965 6.3769 2.93762 0
M  V30 4611 H 453.805 2.97995 0.0169528 0
M  V30 4612 H 451.342 1.471 -0.00339964 0
M  V30 4613 H 453.3 3.36447 2.46697 0
M  V30 4614 H 451.93 2.2311 2.33285 0
M  V30 4615 H 450.982 3.77494 0.469314 0
M  V30 4616 H 452.294 4.91803 0.832518 0
M  V30 4617 H 451.448 5.17008 3.17471 0
M  V30 4618 H 450.187 3.94164 2.87203 0
M  V30 4619 H 449.192 5.39092 1.07983 0
M  V30 4620 H 450.417 6.64366 1.40694 0
M  V30 4621 H 448.363 5.61069 3.39908 0
M  V30 4622 H 448.28 7.11788 2.54744 0
M  V30 4623 H 449.548 6.8568 3.7076 0
M  V30 4624 N 453.777 0.010035 1.57597 0
M  V30 4625 C 455.002 -0.687021 1.95691 0
M  V30 4626 C 455.427 -1.65952 0.885519 0
M  V30 4627 O 454.785 -1.80633 -0.15543 0
M  V30 4628 C 454.833 -1.3864 3.32884 0
M  V30 4629 O 453.937 -2.50115 3.27897 0
M  V30 4630 H 453.278 -0.181989 0.638573 0
M  V30 4631 H 455.808 0.0662122 2.04493 0
M  V30 4632 H 455.818 -1.74754 3.6868 0
M  V30 4633 H 454.493 -0.673411 4.10412 0
M  V30 4634 H 453.07 -2.16253 3.03791 0
M  V30 4635 N 455.255 -1.55392 -0.262866 0
M  V30 4636 C 456.185 -1.91978 -1.32917 0
M  V30 4637 C 457.166 -0.7828 -1.51017 0
M  V30 4638 O 458.351 -1.04178 -1.63892 0
M  V30 4639 C 455.481 -2.20055 -2.68687 0
M  V30 4640 C 454.435 -3.35854 -2.65304 0
M  V30 4641 C 453.761 -3.49435 -4.04721 0
M  V30 4642 C 455.061 -4.71977 -2.23685 0
M  V30 4643 H 456.755 -2.81292 -1.02544 0
M  V30 4644 H 454.301 -1.3534 -0.491846 0
M  V30 4645 H 456.254 -2.44237 -3.43404 0
M  V30 4646 H 454.978 -1.27551 -3.00663 0
M  V30 4647 H 453.637 -3.11655 -1.93045 0
M  V30 4648 H 453.285 -2.54379 -4.33936 0
M  V30 4649 H 452.985 -4.27297 -4.0335 0
M  V30 4650 H 454.509 -3.7592 -4.81161 0
M  V30 4651 H 455.923 -4.95637 -2.88127 0
M  V30 4652 H 454.32 -5.52828 -2.33456 0
M  V30 4653 H 455.39 -4.70115 -1.18827 0
M  V30 4654 O 456.772 0.408595 -1.56246 0
M  V30 4655 H 457.463 1.06117 -1.62046 0
M  V30 END ATOM
M  V30 BEGIN BOND
M  V30 END BOND
M  V30 END CTAB
M  END
$$$$
