drugbank_target|P80099 4-alpha-glucanotransferase (DB04439)
 OpenBabel12092119573D

  0  0  0     0  0            999 V3000
M  V30 BEGIN CTAB
M  V30 COUNTS 7207 7320 0 0 0
M  V30 BEGIN ATOM
M  V30 1 H -0.908 1.98254 -0.117106 0
M  V30 2 N 0 1.576 0 0
M  V30 3 C 0.933 2.03868 1.02534 0
M  V30 4 C 1.911 0.928543 1.3348 0
M  V30 5 O 3.095 1.19667 1.45644 0
M  V30 6 C 0.222 2.43627 2.35294 0
M  V30 7 C -0.732 3.65373 2.2001 0
M  V30 8 S 0.101 5.13292 1.52614 0
M  V30 9 C 1.257 5.56322 2.86805 0
M  V30 10 H 1.49 2.90518 0.631377 0
M  V30 11 H -0.977 1.52953 0.210867 0
M  V30 12 H 0.981 2.67203 3.11629 0
M  V30 13 H -0.358 1.57376 2.7183 0
M  V30 14 H -1.165 3.90944 3.18086 0
M  V30 15 H -1.563 3.418 1.51819 0
M  V30 16 H 0.729 5.58782 3.83104 0
M  V30 17 H 1.672 6.56266 2.65933 0
M  V30 18 H 2.08 4.83886 2.90714 0
M  V30 19 N 1.4781 -0.272755 1.55222 0
M  V30 20 C 2.7271 -1.00211 1.75045 0
M  V30 21 C 3.0401 -1.87441 0.559046 0
M  V30 22 O 4.2461 -2.63856 0.639698 0
M  V30 23 C 2.7021 -1.83165 3.09804 0
M  V30 24 C 2.3101 -1.008 4.36513 0
M  V30 25 C 4.0541 -2.55529 3.38977 0
M  V30 26 C 1.9611 -1.83194 5.62311 0
M  V30 27 H 0.8911 -0.377878 0.652476 0
M  V30 28 H 3.5421 -0.257776 1.8168 0
M  V30 29 H 1.9241 -2.61694 2.97207 0
M  V30 30 H 3.0981 -0.266855 4.60027 0
M  V30 31 H 1.4131 -0.398897 4.14485 0
M  V30 32 H 4.0101 -3.17578 4.30172 0
M  V30 33 H 4.3531 -3.25825 2.59121 0
M  V30 34 H 4.8861 -1.84029 3.52673 0
M  V30 35 H 1.6251 -1.17318 6.44916 0
M  V30 36 H 1.1451 -2.54905 5.4294 0
M  V30 37 H 2.8241 -2.40552 6.00619 0
M  V30 38 N 2.9562 -1.48159 -0.537278 0
M  V30 39 C 4.2042 -1.55497 -1.29094 0
M  V30 40 C 4.5252 -0.227454 -1.93669 0
M  V30 41 O 3.7952 0.750386 -1.80959 0
M  V30 42 H 2.3752 -0.572832 -0.47945 0
M  V30 43 H 5.0372 -1.84579 -0.625818 0
M  V30 44 H 4.1332 -2.33216 -2.07405 0
M  V30 45 N 4.4343 0.785586 -1.36625 0
M  V30 46 C 5.6643 1.5722 -1.34036 0
M  V30 47 C 6.0723 1.89033 0.0795062 0
M  V30 48 O 5.4153 1.50881 1.04789 0
M  V30 49 C 5.4773 2.91759 -2.10041 0
M  V30 50 C 5.1413 2.82654 -3.59104 0
M  V30 51 C 6.1383 2.54634 -4.53274 0
M  V30 52 C 3.8233 3.01111 -4.02042 0
M  V30 53 C 5.8173 2.45177 -5.88359 0
M  V30 54 C 3.5043 2.91276 -5.37216 0
M  V30 55 C 4.5023 2.63348 -6.30188 0
M  V30 56 O 4.1903 2.53514 -7.6288 0
M  V30 57 H 3.9223 0.494177 -0.461265 0
M  V30 58 H 6.4763 0.982632 -1.8037 0
M  V30 59 H 4.7063 3.52781 -1.58375 0
M  V30 60 H 6.3953 3.53059 -2.00261 0
M  V30 61 H 7.1613 2.40073 -4.21414 0
M  V30 62 H 3.0403 3.21854 -3.30047 0
M  V30 63 H 6.5843 2.23299 -6.60896 0
M  V30 64 H 2.4813 3.054 -5.68684 0
M  V30 65 H 3.2493 2.68967 -7.73045 0
M  V30 66 N 5.9124 1.20967 1.01018 0
M  V30 67 C 6.8444 0.922059 2.09835 0
M  V30 68 C 7.8574 -0.0927106 1.62536 0
M  V30 69 O 9.0464 0.139127 1.77957 0
M  V30 70 C 6.1464 0.362004 3.36961 0
M  V30 71 C 5.3194 1.42986 4.13369 0
M  V30 72 C 4.3784 0.879976 5.1879 0
M  V30 73 O 3.4044 1.56219 5.47343 0
M  V30 74 N 4.6064 -0.307396 5.79686 0
M  V30 75 H 7.3714 1.8588 2.35093 0
M  V30 76 H 4.9324 1.11422 1.1746 0
M  V30 77 H 6.9244 -0.0201474 4.04695 0
M  V30 78 H 5.4944 -0.479437 3.08902 0
M  V30 79 H 4.7144 1.98608 3.40512 0
M  V30 80 H 6.0024 2.14885 4.61196 0
M  V30 81 H 5.4004 -0.878796 5.58832 0
M  V30 82 H 3.9574 -0.631115 6.48737 0
M  V30 83 N 7.3905 -1.2043 1.01659 0
M  V30 84 C 8.6395 -1.89118 0.701237 0
M  V30 85 C 8.9525 -1.79705 -0.772358 0
M  V30 86 O 10.1585 -2.43528 -1.20026 0
M  V30 87 C 8.6145 -3.39168 1.20388 0
M  V30 88 C 8.2225 -3.57166 2.70438 0
M  V30 89 C 9.9665 -4.1341 0.963953 0
M  V30 90 C 7.8735 -5.01042 3.14183 0
M  V30 91 H 6.8035 -0.708267 0.2586 0
M  V30 92 H 9.4545 -1.36239 1.22927 0
M  V30 93 H 7.8365 -3.91369 0.603824 0
M  V30 94 H 9.0105 -3.15351 3.35992 0
M  V30 95 H 7.3255 -2.96294 2.92572 0
M  V30 96 H 9.9225 -5.19491 1.26621 0
M  V30 97 H 10.2655 -4.16181 -0.099578 0
M  V30 98 H 10.7985 -3.67309 1.52738 0
M  V30 99 H 7.5375 -5.03426 4.19812 0
M  V30 100 H 7.0575 -5.43668 2.53348 0
M  V30 101 H 8.7365 -5.69623 3.0682 0
M  V30 102 N 8.8686 -0.792821 -1.36206 0
M  V30 103 C 10.0986 -0.378275 -2.03107 0
M  V30 104 C 10.5066 1.01119 -1.59911 0
M  V30 105 O 9.8496 1.66052 -0.785658 0
M  V30 106 C 9.9116 -0.366535 -3.57627 0
M  V30 107 C 9.5756 -1.70416 -4.24037 0
M  V30 108 C 10.5726 -2.6602 -4.46687 0
M  V30 109 C 8.2576 -1.98439 -4.6144 0
M  V30 110 C 10.2516 -3.8784 -5.05825 0
M  V30 111 C 7.9386 -3.20525 -5.20295 0
M  V30 112 C 8.9366 -4.15044 -5.42427 0
M  V30 113 O 8.6246 -5.34978 -6.00045 0
M  V30 114 H 8.3566 -0.153543 -0.658332 0
M  V30 115 H 10.9106 -1.07383 -1.75094 0
M  V30 116 H 9.1406 0.385539 -3.84773 0
M  V30 117 H 10.8296 0.0238088 -4.05893 0
M  V30 118 H 11.5956 -2.45658 -4.18183 0
M  V30 119 H 7.4746 -1.25686 -4.43536 0
M  V30 120 H 11.0186 -4.61628 -5.23015 0
M  V30 121 H 6.9156 -3.40764 -5.48225 0
M  V30 122 H 7.6836 -5.36088 -6.18508 0
M  V30 123 N 10.3467 1.47872 -0.545128 0
M  V30 124 C 11.5927 2.02793 -0.0166104 0
M  V30 125 C 11.9257 1.41987 1.32489 0
M  V30 126 O 11.2007 0.571045 1.85928 0
M  V30 127 C 11.4837 3.59989 0.0893294 0
M  V30 128 C 11.3367 4.3125 -1.27841 0
M  V30 129 C 12.6557 4.32606 0.808724 0
M  V30 130 H 9.7747 0.736962 -0.00751035 0
M  V30 131 H 12.4167 1.76433 -0.705085 0
M  V30 132 H 10.5667 3.82579 0.675681 0
M  V30 133 H 12.2387 4.20035 -1.90704 0
M  V30 134 H 10.4817 3.92076 -1.85632 0
M  V30 135 H 11.1527 5.39736 -1.15713 0
M  V30 136 H 13.6287 4.14936 0.310992 0
M  V30 137 H 12.5047 5.42251 0.851782 0
M  V30 138 H 12.7657 4.00963 1.86229 0
M  V30 139 N 11.8248 0.280983 1.55075 0
M  V30 140 C 13.2408 -0.0729964 1.59433 0
M  V30 141 C 13.4408 -1.5411 1.29817 0
M  V30 142 O 12.4968 -2.29086 1.06187 0
M  V30 143 C 13.8098 0.306921 2.9913 0
M  V30 144 C 15.3578 0.254023 3.11968 0
M  V30 145 C 15.8328 0.608467 4.5394 0
M  V30 146 N 17.3238 0.560241 4.59799 0
M  V30 147 C 18.0588 0.80722 5.6769 0
M  V30 148 N 17.5548 1.11912 6.83701 0
M  V30 149 N 19.3478 0.735623 5.57266 0
M  V30 150 H 11.4988 1.238 1.7259 0
M  V30 151 H 13.7618 0.500547 0.805082 0
M  V30 152 H 13.4678 1.32816 3.25657 0
M  V30 153 H 13.3418 -0.349363 3.75579 0
M  V30 154 H 15.7288 -0.75794 2.852 0
M  V30 155 H 15.8098 0.944649 2.37718 0
M  V30 156 H 15.4538 1.61814 4.81434 0
M  V30 157 H 15.3838 -0.104013 5.26497 0
M  V30 158 H 17.8748 0.329288 3.76463 0
M  V30 159 H 18.1878 1.29409 7.61888 0
M  V30 160 H 16.5328 1.15695 6.85303 0
M  V30 161 H 19.7238 0.491752 4.6551 0
M  V30 162 H 19.8968 0.931482 6.4127 0
M  V30 163 N 13.3029 -1.57598 0.00835791 0
M  V30 164 C 14.5279 -1.95617 -0.689103 0
M  V30 165 C 14.9529 -0.883753 -1.66046 0
M  V30 166 O 14.3109 0.157352 -1.80616 0
M  V30 167 C 14.3589 -3.32736 -1.38994 0
M  V30 168 O 13.4629 -3.27631 -2.50463 0
M  V30 169 H 12.8039 -0.638379 -0.182668 0
M  V30 170 H 15.3339 -2.045 0.064036 0
M  V30 171 H 15.3439 -3.68494 -1.75147 0
M  V30 172 H 14.0189 -4.1034 -0.677778 0
M  V30 173 H 12.5959 -3.03561 -2.16576 0
M  V30 174 N 14.781 0.264519 -1.55364 0
M  V30 175 C 16.028 0.994986 -1.7637 0
M  V30 176 C 16.356 1.85976 -0.5695 0
M  V30 177 O 15.611 1.90509 0.44776 0
M  V30 178 C 15.91 1.9004 -3.02687 0
M  V30 179 C 15.576 1.19243 -4.34847 0
M  V30 180 C 14.238 0.996709 -4.70764 0
M  V30 181 C 16.59 0.689296 -5.16622 0
M  V30 182 C 13.918 0.285261 -5.86006 0
M  V30 183 C 16.27 -0.00860079 -6.32599 0
M  V30 184 C 14.934 -0.215963 -6.67151 0
M  V30 185 H 14.204 0.364091 -0.645383 0
M  V30 186 H 16.851 0.266543 -1.89636 0
M  V30 187 H 15.156 2.69533 -2.84357 0
M  V30 188 H 16.853 2.46695 -3.16137 0
M  V30 189 H 13.443 1.3549 -4.06621 0
M  V30 190 H 17.627 0.828108 -4.89342 0
M  V30 191 H 12.883 0.113961 -6.11294 0
M  V30 192 H 17.057 -0.406186 -6.95214 0
M  V30 193 H 14.684 -0.769217 -7.56298 0
M  V30 194 N 16.2591 1.48442 0.529413 0
M  V30 195 C 17.6751 1.34575 0.858004 0
M  V30 196 C 17.8751 0.3572 1.98309 0
M  V30 197 O 16.9311 -0.221379 2.51528 0
M  V30 198 C 18.2441 2.74617 1.22499 0
M  V30 199 C 19.7921 2.83109 1.33484 0
M  V30 200 C 20.2671 4.23854 1.73526 0
M  V30 201 N 21.7581 4.2653 1.80628 0
M  V30 202 C 22.4931 5.32372 2.12997 0
M  V30 203 N 21.9891 6.48491 2.43786 0
M  V30 204 N 23.7821 5.19766 2.14008 0
M  V30 205 H 15.9331 2.1133 -0.212925 0
M  V30 206 H 18.1961 0.947439 -0.0326199 0
M  V30 207 H 17.9021 3.4852 0.471905 0
M  V30 208 H 17.7761 3.08177 2.17501 0
M  V30 209 H 20.1631 2.09462 2.0787 0
M  V30 210 H 20.2441 2.53168 0.366027 0
M  V30 211 H 19.8881 4.98018 0.997013 0
M  V30 212 H 19.8181 4.5124 2.71459 0
M  V30 213 H 22.3091 3.42772 1.59108 0
M  V30 214 H 22.6221 7.24993 2.67592 0
M  V30 215 H 20.9671 6.51765 2.41304 0
M  V30 216 H 24.1581 4.28066 1.89412 0
M  V30 217 H 24.3311 6.02354 2.38902 0
M  V30 218 N 17.7372 -0.778329 1.37039 0
M  V30 219 C 19.0142 -1.52551 1.22424 0
M  V30 220 C 19.3942 -2.10288 -0.184964 0
M  V30 221 O 18.7422 -1.94953 -1.19187 0
M  V30 222 C 18.9522 -2.61164 2.31504 0
M  V30 223 C 20.3002 -3.28746 2.68721 0
M  V30 224 O 21.3242 -2.71455 2.30631 0
M  V30 225 O 20.1832 -4.3231 3.3432 0
M  V30 226 H 17.2772 -0.675343 0.477326 0
M  V30 227 H 19.8232 -0.815859 1.48801 0
M  V30 228 H 18.5952 -2.16574 3.25901 0
M  V30 229 H 18.2182 -3.39737 2.06554 0
M  V30 230 N 19.2153 -1.21501 -1.00376 0
M  V30 231 C 20.4633 -1.03095 -1.73827 0
M  V30 232 C 20.7843 0.436341 -1.90055 0
M  V30 233 O 20.0543 1.31466 -1.45236 0
M  V30 234 H 18.6343 -0.378487 -0.644016 0
M  V30 235 H 21.2963 -1.52831 -1.20949 0
M  V30 236 H 20.3923 -1.49991 -2.73695 0
M  V30 237 N 20.6934 1.19889 -1.02296 0
M  V30 238 C 21.6414 2.24938 -0.592081 0
M  V30 239 C 22.6354 1.65257 0.372357 0
M  V30 240 O 23.8414 1.78371 0.241583 0
M  V30 241 H 20.2164 0.731787 -0.173182 0
M  V30 242 H 22.1874 2.58603 -1.48885 0
M  V30 243 C 20.9364 3.47668 0.047351 0
M  V30 244 H 20.2594 3.93875 -0.685772 0
M  V30 245 H 21.6994 4.22852 0.311862 0
M  V30 246 C 20.1584 3.11136 1.29212 0
M  V30 247 O 20.6884 3.2325 2.38479 0
M  V30 248 N 18.8944 2.65625 1.17863 0
M  V30 249 H 18.4414 2.55968 0.289493 0
M  V30 250 H 18.3994 2.41553 2.01245 0
M  V30 251 N 22.1715 0.800033 1.35784 0
M  V30 252 C 23.1015 0.220184 2.3246 0
M  V30 253 C 24.0825 -0.65073 1.57161 0
M  V30 254 O 25.2675 -0.582359 1.85263 0
M  V30 255 C 22.3975 -0.637353 3.41402 0
M  V30 256 C 21.3515 0.134531 4.27789 0
M  V30 257 C 20.6775 -0.844285 5.27992 0
M  V30 258 C 21.9775 1.32979 5.05088 0
M  V30 259 H 23.6715 1.02787 2.81203 0
M  V30 260 H 21.2175 0.495717 1.35199 0
M  V30 261 H 23.1705 -1.05302 4.08031 0
M  V30 262 H 21.8945 -1.47785 2.91251 0
M  V30 263 H 20.5535 0.531296 3.6273 0
M  V30 264 H 20.2015 -1.68011 4.74111 0
M  V30 265 H 19.9015 -0.332184 5.8666 0
M  V30 266 H 21.4255 -1.2583 5.97494 0
M  V30 267 H 22.8395 0.98934 5.64699 0
M  V30 268 H 21.2365 1.77593 5.7322 0
M  V30 269 H 22.3065 2.11978 4.36111 0
M  V30 270 N 23.6496 -1.47581 0.552962 0
M  V30 271 C 24.9266 -1.95563 -0.0381515 0
M  V30 272 C 25.3066 -1.49552 -1.48988 0
M  V30 273 O 24.6546 -0.732414 -2.16444 0
M  V30 274 C 24.8646 -3.48848 0.102919 0
M  V30 275 C 26.2126 -4.24577 -0.0446082 0
M  V30 276 O 27.2366 -3.56187 0.0302548 0
M  V30 277 O 26.0956 -5.46116 -0.204923 0
M  V30 278 H 23.1896 -0.824321 -0.0665067 0
M  V30 279 H 25.7356 -1.58001 0.619186 0
M  V30 280 H 24.5076 -3.75129 1.11328 0
M  V30 281 H 24.1306 -3.93165 -0.592224 0
M  V30 282 N 25.1277 -0.289203 -1.54924 0
M  V30 283 C 26.3757 0.322879 -1.99504 0
M  V30 284 C 26.6967 1.55313 -1.1791 0
M  V30 285 O 25.9667 1.94001 -0.272097 0
M  V30 286 H 24.5467 0.122291 -0.736922 0
M  V30 287 H 27.2087 -0.397802 -1.90797 0
M  V30 288 H 26.3047 0.603061 -3.06218 0
M  V30 289 N 26.6058 1.57591 -0.0167156 0
M  V30 290 C 27.8518 1.91567 0.665582 0
M  V30 291 C 28.1848 0.892298 1.72487 0
M  V30 292 O 27.4598 -0.0867127 1.94307 0
M  V30 293 C 27.7428 3.36069 1.29342 0
M  V30 294 C 27.5958 4.49135 0.244541 0
M  V30 295 C 28.9148 3.803 2.21495 0
M  V30 296 H 26.0338 0.69666 0.240488 0
M  V30 297 H 28.6758 1.89866 -0.0714356 0
M  V30 298 H 26.8258 3.3765 1.92158 0
M  V30 299 H 28.4978 4.59689 -0.385228 0
M  V30 300 H 26.7408 4.3165 -0.431379 0
M  V30 301 H 27.4118 5.47242 0.723207 0
M  V30 302 H 29.8878 3.80377 1.68678 0
M  V30 303 H 28.7638 4.82127 2.62382 0
M  V30 304 H 29.0248 3.15104 3.101 0
M  V30 305 N 28.0839 -0.256276 1.55502 0
M  V30 306 C 29.3319 -0.983672 1.76545 0
M  V30 307 C 29.6529 -1.86206 0.578982 0
M  V30 308 O 28.9229 -1.91656 -0.405577 0
M  V30 309 H 27.5029 -0.366191 0.651086 0
M  V30 310 H 30.1649 -0.276479 1.92929 0
M  V30 311 H 29.2609 -1.61087 2.67315 0
M  V30 312 N 29.562 -1.4872 -0.521534 0
M  V30 313 C 30.839 -1.4766 -1.2828 0
M  V30 314 C 31.219 -0.19292 -2.10217 0
M  V30 315 O 30.567 0.825193 -2.13079 0
M  V30 316 C 30.777 -2.74358 -2.15705 0
M  V30 317 C 32.125 -3.23028 -2.75569 0
M  V30 318 O 33.149 -2.75333 -2.25987 0
M  V30 319 O 32.008 -4.0604 -3.65778 0
M  V30 320 H 29.102 -0.590085 -0.579421 0
M  V30 321 H 31.648 -1.60963 -0.537492 0
M  V30 322 H 30.42 -3.59292 -1.54999 0
M  V30 323 H 30.043 -2.63816 -2.97467 0
M  V30 324 N 31.0401 0.771051 -1.3745 0
M  V30 325 C 32.2871 1.52963 -1.32697 0
M  V30 326 C 32.6151 1.94299 0.0883274 0
M  V30 327 O 31.8701 1.64397 1.0617 0
M  V30 328 C 32.1691 2.80676 -2.2126 0
M  V30 329 C 31.8351 2.58389 -3.69521 0
M  V30 330 C 30.4971 2.52019 -4.09927 0
M  V30 331 C 32.8491 2.38469 -4.63446 0
M  V30 332 C 30.1771 2.23721 -5.42371 0
M  V30 333 C 32.5291 2.11694 -5.96128 0
M  V30 334 C 31.1931 2.03769 -6.35637 0
M  V30 335 H 30.4631 0.559732 -0.485573 0
M  V30 336 H 33.1101 0.888083 -1.69662 0
M  V30 337 H 31.4151 3.49392 -1.77291 0
M  V30 338 H 33.1121 3.38557 -2.14895 0
M  V30 339 H 29.7021 2.6421 -3.37478 0
M  V30 340 H 33.8861 2.4238 -4.33089 0
M  V30 341 H 29.1421 2.16081 -5.71943 0
M  V30 342 H 33.3161 1.9528 -6.6846 0
M  V30 343 H 30.9431 1.81606 -7.38189 0
M  V30 344 N 32.5182 1.22032 0.997298 0
M  V30 345 C 33.9342 0.979326 1.26021 0
M  V30 346 C 34.1342 -0.32972 1.98784 0
M  V30 347 O 33.1902 -1.05345 2.29475 0
M  V30 348 C 34.5032 2.17509 2.07631 0
M  V30 349 C 36.0512 2.21817 2.2083 0
M  V30 350 C 36.5262 3.40933 3.05825 0
M  V30 351 N 38.0172 3.41067 3.13412 0
M  V30 352 C 38.7522 4.29885 3.79455 0
M  V30 353 N 38.2482 5.28914 4.47462 0
M  V30 354 N 40.0412 4.17673 3.76173 0
M  V30 355 H 32.1922 2.06202 0.509352 0
M  V30 356 H 34.4552 0.90334 0.287541 0
M  V30 357 H 34.1612 3.12415 1.61524 0
M  V30 358 H 34.0352 2.17206 3.08385 0
M  V30 359 H 36.4222 1.27462 2.66153 0
M  V30 360 H 36.5032 2.2616 1.1952 0
M  V30 361 H 36.1472 4.35586 2.61203 0
M  V30 362 H 36.0772 3.33829 4.07266 0
M  V30 363 H 38.5682 2.69406 2.65007 0
M  V30 364 H 38.8812 5.92973 4.95583 0
M  V30 365 H 37.2262 5.32831 4.46224 0
M  V30 366 H 40.4172 3.39564 3.22202 0
M  V30 367 H 40.5902 4.87098 4.27363 0
M  V30 368 N 33.9963 -1.19345 1.0293 0
M  V30 369 C 35.2443 -1.88665 0.724574 0
M  V30 370 C 35.5653 -1.80036 -0.749144 0
M  V30 371 O 34.8353 -1.2111 -1.53978 0
M  V30 372 H 33.4153 -0.698406 0.265025 0
M  V30 373 H 36.0773 -1.44885 1.30362 0
M  V30 374 H 35.1733 -2.94987 1.01926 0
M  V30 375 N 35.4744 -0.807222 -1.35358 0
M  V30 376 C 36.4044 -0.232509 -2.3234 0
M  V30 377 C 37.3854 0.642386 -1.57504 0
M  V30 378 O 38.5704 0.572526 -1.85569 0
M  V30 379 C 35.7004 0.619238 -3.41735 0
M  V30 380 C 34.6544 -0.157215 -4.27711 0
M  V30 381 C 33.9804 0.816273 -5.28433 0
M  V30 382 C 35.2804 -1.35656 -5.04376 0
M  V30 383 H 36.9744 -1.04276 -2.80654 0
M  V30 384 H 34.5204 -0.50288 -1.34934 0
M  V30 385 H 36.4734 1.03137 -4.08584 0
M  V30 386 H 35.1974 1.46239 -2.92031 0
M  V30 387 H 33.8564 -0.550525 -3.62443 0
M  V30 388 H 33.5044 1.65494 -4.74996 0
M  V30 389 H 33.2044 0.301067 -5.86828 0
M  V30 390 H 34.7284 1.22659 -5.98153 0
M  V30 391 H 36.1424 -1.01927 -5.64166 0
M  V30 392 H 34.5394 -1.8063 -5.7227 0
M  V30 393 H 35.6094 -2.14288 -4.34981 0
M  V30 394 N 36.9525 1.47285 -0.560781 0
M  V30 395 C 37.8995 2.30058 0.18491 0
M  V30 396 C 38.8695 1.39281 0.904986 0
M  V30 397 O 40.0545 1.68241 0.899979 0
M  V30 398 C 37.1945 3.23317 1.20666 0
M  V30 399 C 36.3075 4.29186 0.492285 0
M  V30 400 C 35.4425 5.09592 1.49964 0
M  V30 401 C 34.4815 6.07232 0.770439 0
M  V30 402 N 33.6185 6.80584 1.72479 0
M  V30 403 H 38.4585 2.93302 -0.527048 0
M  V30 404 H 35.9955 1.44568 -0.271738 0
M  V30 405 H 37.9535 3.75811 1.81168 0
M  V30 406 H 36.5835 2.61929 1.88661 0
M  V30 407 H 35.6355 3.7972 -0.227333 0
M  V30 408 H 36.9475 4.98738 -0.0787929 0
M  V30 409 H 36.1015 5.66254 2.17809 0
M  V30 410 H 34.8405 4.3995 2.10464 0
M  V30 411 H 33.8455 5.49745 0.0780846 0
M  V30 412 H 35.0705 6.78884 0.171134 0
M  V30 413 H 33.0165 6.1367 2.3183 0
M  V30 414 H 32.9335 7.46319 1.20596 0
M  V30 415 H 34.2015 7.41818 2.39428 0
M  V30 416 N 38.4306 0.297415 1.54768 0
M  V30 417 C 39.3786 -0.596051 2.24833 0
M  V30 418 C 40.3726 -1.13992 1.25308 0
M  V30 419 O 41.5786 -1.09098 1.4317 0
M  V30 420 H 37.9536 -0.210814 0.721846 0
M  V30 421 H 39.9246 0.0174667 2.98395 0
M  V30 422 C 38.6736 -1.75818 2.99972 0
M  V30 423 H 37.9966 -1.3489 3.76357 0
M  V30 424 H 39.4366 -2.35949 3.52284 0
M  V30 425 C 37.8956 -2.66014 2.06732 0
M  V30 426 O 38.4256 -3.67009 1.63302 0
M  V30 427 N 36.6316 -2.33669 1.72763 0
M  V30 428 H 36.1786 -1.51586 2.08277 0
M  V30 429 H 36.1366 -2.94285 1.10652 0
M  V30 430 N 39.9087 -1.5758 0.0250728 0
M  V30 431 C 40.8717 -2.08896 -0.943139 0
M  V30 432 C 41.8717 -1.00321 -1.25668 0
M  V30 433 O 43.0617 -1.26495 -1.19769 0
M  V30 434 C 40.1937 -2.55143 -2.26086 0
M  V30 435 H 41.3867 -2.95723 -0.498775 0
M  V30 436 H 38.9397 -1.54703 -0.222888 0
M  V30 437 H 39.6747 -1.71633 -2.75159 0
M  V30 438 H 39.4597 -3.34461 -2.04641 0
M  V30 439 H 40.9497 -2.95083 -2.95492 0
M  V30 440 N 41.3868 0.248026 -1.55636 0
M  V30 441 C 42.6328 0.97767 -1.77678 0
M  V30 442 C 42.9658 1.85016 -0.590135 0
M  V30 443 O 42.2408 1.90095 0.411611 0
M  V30 444 C 42.5238 1.83914 -3.09593 0
M  V30 445 C 42.3768 0.99491 -4.38659 0
M  V30 446 C 43.6958 2.82183 -3.37729 0
M  V30 447 H 40.8148 0.354005 -0.646413 0
M  V30 448 H 43.4568 0.248253 -1.88371 0
M  V30 449 H 41.6068 2.46104 -3.00608 0
M  V30 450 H 43.2788 0.391789 -4.59633 0
M  V30 451 H 41.5218 0.299231 -4.32767 0
M  V30 452 H 42.1928 1.63145 -5.2734 0
M  V30 453 H 44.6688 2.30129 -3.4667 0
M  V30 454 H 43.5448 3.39582 -4.31249 0
M  V30 455 H 43.8058 3.58588 -2.58586 0
M  V30 456 N 42.8649 1.48995 0.513639 0
M  V30 457 C 44.0899 1.61792 1.29762 0
M  V30 458 C 44.5149 0.284475 1.85936 0
M  V30 459 O 43.8729 -0.746185 1.65232 0
M  V30 460 C 43.9209 2.67993 2.41272 0
M  V30 461 O 43.0249 2.26287 3.44772 0
M  V30 462 H 42.3659 0.541963 0.38363 0
M  V30 463 H 44.8959 1.95097 0.616307 0
M  V30 464 H 44.9059 2.89772 2.87221 0
M  V30 465 H 43.5809 3.64791 1.9975 0
M  V30 466 H 42.1579 2.14788 3.04829 0
M  V30 467 N 44.343 -0.763751 1.37857 0
M  V30 468 C 45.573 -1.55067 1.3652 0
M  V30 469 C 45.981 -1.89135 -0.0494227 0
M  V30 470 O 45.324 -1.52529 -1.02375 0
M  V30 471 C 45.386 -2.8838 2.14656 0
M  V30 472 C 45.05 -2.76905 3.63555 0
M  V30 473 C 46.047 -2.4739 4.57268 0
M  V30 474 C 43.732 -2.94676 4.06781 0
M  V30 475 C 45.726 -2.35786 5.92186 0
M  V30 476 C 43.413 -2.82692 5.41782 0
M  V30 477 C 44.411 -2.53289 6.34298 0
M  V30 478 O 44.099 -2.41345 7.66817 0
M  V30 479 H 43.831 -0.486776 0.469069 0
M  V30 480 H 46.385 -0.953812 1.81911 0
M  V30 481 H 44.615 -3.50217 1.63967 0
M  V30 482 H 46.304 -3.49828 2.05852 0
M  V30 483 H 47.07 -2.33339 4.2518 0
M  V30 484 H 42.949 -3.16563 3.35126 0
M  V30 485 H 46.493 -2.12757 6.64365 0
M  V30 486 H 42.39 -2.96314 5.7347 0
M  V30 487 H 43.158 -2.56634 7.77226 0
M  V30 488 N 45.8211 -1.22559 -0.990812 0
M  V30 489 C 46.7511 -1.0218 -2.09956 0
M  V30 490 C 47.7321 0.0579394 -1.70001 0
M  V30 491 O 48.9171 -0.104684 -1.93918 0
M  V30 492 C 46.0471 -0.601023 -3.4206 0
M  V30 493 C 45.0011 -1.62694 -3.95872 0
M  V30 494 C 44.3271 -1.06193 -5.24049 0
M  V30 495 C 45.6271 -3.01743 -4.2632 0
M  V30 496 H 47.3211 -1.94916 -2.27262 0
M  V30 497 H 44.8671 -0.938566 -1.09211 0
M  V30 498 H 46.8201 -0.445561 -4.19038 0
M  V30 499 H 45.5441 0.362005 -3.24588 0
M  V30 500 H 44.2031 -1.77021 -3.21028 0
M  V30 501 H 43.8511 -0.0901903 -5.02919 0
M  V30 502 H 43.5511 -1.74732 -5.61019 0
M  V30 503 H 45.0751 -0.918092 -6.03658 0
M  V30 504 H 46.4891 -2.90777 -4.94087 0
M  V30 505 H 44.8861 -3.67425 -4.74467 0
M  V30 506 H 45.9561 -3.51518 -3.34011 0
M  V30 507 N 47.2992 1.18797 -1.03562 0
M  V30 508 C 48.2462 2.22253 -0.622259 0
M  V30 509 C 49.2162 1.61987 0.36736 0
M  V30 510 O 50.4012 1.88986 0.262492 0
M  V30 511 C 47.5412 3.45097 0.0138462 0
M  V30 512 C 46.6542 4.19722 -1.02263 0
M  V30 513 C 45.7892 5.30009 -0.355573 0
M  V30 514 C 44.8282 5.96399 -1.37749 0
M  V30 515 N 43.9652 6.98234 -0.735766 0
M  V30 516 H 48.8052 2.56968 -1.50903 0
M  V30 517 H 46.3422 1.26245 -0.755017 0
M  V30 518 H 48.3002 4.15279 0.399948 0
M  V30 519 H 46.9302 3.11018 0.864158 0
M  V30 520 H 45.9822 3.48418 -1.52673 0
M  V30 521 H 47.2942 4.65227 -1.79903 0
M  V30 522 H 46.4482 6.0664 0.0850095 0
M  V30 523 H 45.1872 4.85592 0.452967 0
M  V30 524 H 44.1922 5.18512 -1.82826 0
M  V30 525 H 45.4172 6.42899 -2.18764 0
M  V30 526 H 43.3632 6.55979 0.0525597 0
M  V30 527 H 43.2802 7.41965 -1.44995 0
M  V30 528 H 44.5482 7.78845 -0.31941 0
M  V30 529 N 48.7773 0.814389 1.34928 0
M  V30 530 C 49.6873 0.231978 2.3345 0
M  V30 531 C 50.7033 -0.629139 1.62228 0
M  V30 532 O 51.8793 -0.539052 1.94052 0
M  V30 533 C 48.9443 -0.603482 3.41407 0
M  V30 534 C 48.0053 0.279037 4.28392 0
M  V30 535 C 47.2383 -0.516643 5.31193 0
M  V30 536 O 47.4613 -1.75068 5.4287 0
M  V30 537 O 46.3953 0.0965652 6.01823 0
M  V30 538 H 50.2213 1.04721 2.85074 0
M  V30 539 H 47.8063 0.576343 1.37836 0
M  V30 540 H 49.6883 -1.07908 4.0735 0
M  V30 541 H 48.3633 -1.39618 2.92042 0
M  V30 542 H 47.2703 0.801948 3.65403 0
M  V30 543 H 48.6033 1.03588 4.81176 0
M  V30 544 N 50.2554 -1.46986 0.568584 0
M  V30 545 C 51.1854 -2.32946 -0.160753 0
M  V30 546 C 52.1664 -1.44487 -0.897631 0
M  V30 547 O 53.3514 -1.73327 -0.875867 0
M  V30 548 C 50.4814 -3.26494 -1.18403 0
M  V30 549 C 49.4354 -4.24282 -0.562895 0
M  V30 550 C 48.7614 -5.07236 -1.69163 0
M  V30 551 C 50.0614 -5.19989 0.490761 0
M  V30 552 H 51.7554 -2.94175 0.556916 0
M  V30 553 H 49.3014 -1.4146 0.26927 0
M  V30 554 H 51.2544 -3.85477 -1.70251 0
M  V30 555 H 49.9784 -2.63343 -1.93179 0
M  V30 556 H 48.6374 -3.66541 -0.0656164 0
M  V30 557 H 48.2854 -4.4048 -2.42871 0
M  V30 558 H 47.9854 -5.7345 -1.28174 0
M  V30 559 H 49.5094 -5.6908 -2.21314 0
M  V30 560 H 50.9234 -5.73271 0.0579047 0
M  V30 561 H 49.3204 -5.94469 0.820165 0
M  V30 562 H 50.3904 -4.64777 1.3824 0
M  V30 563 N 51.7335 -0.305618 -1.54608 0
M  V30 564 C 52.9815 0.301701 -1.99835 0
M  V30 565 C 53.3025 1.54054 -1.19551 0
M  V30 566 O 52.5725 1.93702 -0.292658 0
M  V30 567 H 51.1525 0.114468 -0.738178 0
M  V30 568 H 53.8145 -0.418016 -1.90364 0
M  V30 569 H 52.9105 0.570548 -3.06841 0
M  V30 570 N 53.2116 1.57565 -0.0334293 0
M  V30 571 C 54.4606 1.91155 0.643639 0
M  V30 572 C 54.7736 0.91192 1.73042 0
M  V30 573 O 55.9796 1.13923 2.46442 0
M  V30 574 C 54.4356 3.39443 1.1961 0
M  V30 575 C 54.0436 4.47774 0.142381 0
M  V30 576 C 55.7876 3.82094 1.84944 0
M  V30 577 C 53.6946 5.87162 0.706727 0
M  V30 578 H 52.6246 0.713368 0.244176 0
M  V30 579 H 55.2756 1.8323 -0.0994323 0
M  V30 580 H 53.6576 3.42313 1.99092 0
M  V30 581 H 54.8316 4.56469 -0.630296 0
M  V30 582 H 53.1466 4.14352 -0.412446 0
M  V30 583 H 55.7436 4.83591 2.2813 0
M  V30 584 H 56.0866 3.17386 2.69392 0
M  V30 585 H 56.6196 3.81665 1.12145 0
M  V30 586 H 53.3586 6.55424 -0.0997178 0
M  V30 587 H 52.8786 5.82064 1.44779 0
M  V30 588 H 54.5576 6.35866 1.19514 0
M  V30 589 N 54.6897 -0.239769 1.55765 0
M  V30 590 C 55.9667 -0.990056 1.68693 0
M  V30 591 C 56.3467 -2.03107 0.5754 0
M  V30 592 O 55.6947 -2.24604 -0.42017 0
M  V30 593 C 55.9047 -1.61696 3.09282 0
M  V30 594 C 57.2527 -2.11613 3.6811 0
M  V30 595 O 58.2767 -1.71624 3.12127 0
M  V30 596 O 57.1357 -2.85057 4.66267 0
M  V30 597 H 54.2297 -0.461299 0.686391 0
M  V30 598 H 56.7757 -0.232991 1.68093 0
M  V30 599 H 55.5477 -0.864357 3.81634 0
M  V30 600 H 55.1707 -2.44005 3.13923 0
M  V30 601 N 56.1678 -1.49265 -0.50573 0
M  V30 602 C 57.4148 -1.58513 -1.26015 0
M  V30 603 C 57.7428 -0.26972 -1.92621 0
M  V30 604 O 56.9978 0.741997 -1.81088 0
M  V30 605 C 57.2968 -2.69008 -2.35308 0
M  V30 606 C 56.9628 -4.10662 -1.86192 0
M  V30 607 C 55.6248 -4.49212 -1.72516 0
M  V30 608 C 57.9768 -4.99336 -1.49375 0
M  V30 609 C 55.3048 -5.74214 -1.20394 0
M  V30 610 C 57.6568 -6.24852 -0.987072 0
M  V30 611 C 56.3208 -6.62236 -0.836669 0
M  V30 612 H 55.5908 -0.580041 -0.461122 0
M  V30 613 H 58.2378 -1.83078 -0.561665 0
M  V30 614 H 56.5428 -2.38396 -3.10926 0
M  V30 615 H 58.2398 -2.73373 -2.93374 0
M  V30 616 H 54.8298 -3.8023 -1.97795 0
M  V30 617 H 59.0138 -4.70212 -1.5879 0
M  V30 618 H 54.2698 -6.01883 -1.07458 0
M  V30 619 H 58.4438 -6.92944 -0.692983 0
M  V30 620 H 56.0708 -7.58979 -0.430607 0
M  V30 621 N 57.6459 0.756429 -1.3826 0
M  V30 622 C 58.8919 1.51772 -1.34511 0
M  V30 623 C 59.2249 1.94089 0.0656691 0
M  V30 624 O 58.4999 1.65221 1.02626 0
M  V30 625 C 58.7829 2.77226 -2.29821 0
M  V30 626 C 58.6359 2.41065 -3.79747 0
M  V30 627 C 59.9549 3.79236 -2.23312 0
M  V30 628 H 57.0739 0.550578 -0.489931 0
M  V30 629 H 59.7159 0.866607 -1.69086 0
M  V30 630 H 57.8659 3.32784 -2.00467 0
M  V30 631 H 59.5379 1.91303 -4.19763 0
M  V30 632 H 57.7809 1.7356 -3.97567 0
M  V30 633 H 58.4519 3.3081 -4.41892 0
M  V30 634 H 60.9279 3.3321 -2.49219 0
M  V30 635 H 59.8039 4.64714 -2.92116 0
M  V30 636 H 60.0649 4.24615 -1.23102 0
M  V30 637 N 59.124 1.23083 0.984299 0
M  V30 638 C 60.37 1.07221 1.72845 0
M  V30 639 C 60.725 -0.387453 1.88458 0
M  V30 640 O 60.018 -1.28309 1.42293 0
M  V30 641 C 60.212 1.72673 3.1292 0
M  V30 642 C 60.041 3.24853 3.10967 0
M  V30 643 C 58.811 3.93998 3.16376 0
M  V30 644 C 61.009 4.21674 2.94441 0
M  V30 645 N 58.991 5.33192 3.04268 0
M  V30 646 C 60.362 5.47756 2.90453 0
M  V30 647 C 62.417 4.12457 2.78897 0
M  V30 648 C 61.12 6.6568 2.72512 0
M  V30 649 C 63.146 5.3004 2.62319 0
M  V30 650 C 62.508 6.55046 2.59026 0
M  V30 651 H 58.607 0.44685 0.641755 0
M  V30 652 H 61.191 1.55753 1.16829 0
M  V30 653 H 59.362 1.26679 3.67161 0
M  V30 654 H 61.094 1.49824 3.75945 0
M  V30 655 H 57.849 3.45052 3.24401 0
M  V30 656 H 58.273 6.06157 3.015 0
M  V30 657 H 62.915 3.16588 2.80235 0
M  V30 658 H 60.633 7.61689 2.69919 0
M  V30 659 H 64.219 5.24747 2.5126 0
M  V30 660 H 63.099 7.44498 2.46357 0
M  V30 661 N 60.6021 -1.18246 1.0419 0
M  V30 662 C 61.5321 -2.24127 0.654914 0
M  V30 663 C 62.5131 -1.66617 -0.342451 0
M  V30 664 O 63.6981 -1.92924 -0.222277 0
M  V30 665 C 60.8281 -3.47295 0.0183757 0
M  V30 666 C 59.7821 -4.17563 0.939414 0
M  V30 667 C 59.1081 -5.34438 0.167286 0
M  V30 668 C 60.4081 -4.70917 2.25908 0
M  V30 669 H 62.1021 -2.56753 1.54007 0
M  V30 670 H 59.6481 -1.23414 0.74195 0
M  V30 671 H 61.6011 -4.20572 -0.264082 0
M  V30 672 H 60.3251 -3.13907 -0.901664 0
M  V30 673 H 58.9841 -3.46186 1.20628 0
M  V30 674 H 58.6321 -4.97298 -0.7552 0
M  V30 675 H 58.3321 -5.82388 0.780901 0
M  V30 676 H 59.8561 -6.10504 -0.108125 0
M  V30 677 H 61.2701 -5.35882 2.03724 0
M  V30 678 H 59.6671 -5.29406 2.82577 0
M  V30 679 H 60.7371 -3.88272 2.9047 0
M  V30 680 N 62.0802 -0.821533 -1.34494 0
M  V30 681 C 63.0132 -0.187704 -2.27427 0
M  V30 682 C 63.9912 0.65507 -1.48821 0
M  V30 683 O 65.1752 0.619111 -1.78043 0
M  V30 684 C 62.3022 0.737996 -3.30562 0
M  V30 685 C 61.3482 -0.0270713 -4.26491 0
M  V30 686 S 62.1812 -1.37329 -5.17592 0
M  V30 687 C 63.3372 -0.452427 -6.24263 0
M  V30 688 H 63.5702 -0.975598 -2.80837 0
M  V30 689 H 61.1032 -0.61736 -1.4152 0
M  V30 690 H 63.0612 1.26654 -3.90473 0
M  V30 691 H 61.7222 1.4994 -2.76001 0
M  V30 692 H 60.9152 0.6766 -4.99438 0
M  V30 693 H 60.5172 -0.48612 -3.70827 0
M  V30 694 H 62.8092 0.356557 -6.76561 0
M  V30 695 H 63.7522 -1.15153 -6.98674 0
M  V30 696 H 64.1602 -0.0414755 -5.64485 0
M  V30 697 N 63.5583 1.46682 -0.576371 0
M  V30 698 C 64.9693 1.86112 -0.148091 0
M  V30 699 C 65.3203 1.48073 1.2872 0
M  V30 700 O 64.4453 0.892656 1.97131 0
M  V30 701 C 65.0403 3.37786 -0.261982 0
M  V30 702 C 63.5993 3.76235 0.111384 0
M  V30 703 C 62.7463 2.70713 -0.60083 0
M  V30 704 H 65.6973 1.37927 -0.78497 0
M  V30 705 H 65.7183 3.77007 0.514364 0
M  V30 706 H 65.2303 3.6544 -1.30671 0
M  V30 707 H 63.3313 3.54198 1.15649 0
M  V30 708 H 63.4443 4.78391 -0.26052 0
M  V30 709 H 61.8083 2.54666 -0.0417783 0
M  V30 710 H 62.5913 3.01208 -1.64708 0
M  V30 711 N 65.0364 0.313813 1.54444 0
M  V30 712 C 66.2824 -0.292108 2.00685 0
M  V30 713 C 66.6154 -1.52548 1.20177 0
M  V30 714 O 65.8904 -1.92452 0.281531 0
M  V30 715 C 66.1734 -0.635968 3.5444 0
M  V30 716 C 66.0264 0.607437 4.4568 0
M  V30 717 C 67.3454 -1.45747 4.15266 0
M  V30 718 H 64.4644 -0.104697 0.729526 0
M  V30 719 H 67.1064 0.428457 1.85106 0
M  V30 720 H 65.2564 -1.24986 3.67846 0
M  V30 721 H 66.9284 1.24581 4.44159 0
M  V30 722 H 65.1714 1.23822 4.15753 0
M  V30 723 H 65.8424 0.322515 5.51057 0
M  V30 724 H 68.3184 -0.938645 4.05375 0
M  V30 725 H 67.1944 -1.66683 5.2298 0
M  V30 726 H 67.4554 -2.45063 3.67963 0
M  V30 727 N 66.5145 -1.57545 0.0417849 0
M  V30 728 C 67.7615 -1.92317 -0.634082 0
M  V30 729 C 68.0895 -0.919334 -1.71402 0
M  V30 730 O 67.3445 0.0698253 -1.95575 0
M  V30 731 C 67.6435 -3.33794 -1.27735 0
M  V30 732 C 67.3095 -4.49716 -0.326543 0
M  V30 733 C 65.9715 -4.81156 -0.0648814 0
M  V30 734 C 68.3235 -5.20182 0.325623 0
M  V30 735 C 65.6515 -5.80414 0.856539 0
M  V30 736 C 68.0035 -6.20424 1.23518 0
M  V30 737 C 66.6675 -6.50298 1.5056 0
M  V30 738 H 65.9375 -0.703736 -0.232027 0
M  V30 739 H 68.5845 -1.91205 0.106259 0
M  V30 740 H 66.8895 -3.31228 -2.09274 0
M  V30 741 H 68.5865 -3.57975 -1.80707 0
M  V30 742 H 65.1765 -4.25176 -0.540665 0
M  V30 743 H 69.3605 -4.96112 0.136546 0
M  V30 744 H 64.6165 -6.019 1.07363 0
M  V30 745 H 68.7905 -6.74141 1.74664 0
M  V30 746 H 66.4175 -7.27025 2.22123 0
M  V30 747 N 67.9926 0.231505 -1.5589 0
M  V30 748 C 69.2176 0.978689 -1.82856 0
M  V30 749 C 69.6426 1.77559 -0.620846 0
M  V30 750 O 69.0006 1.76119 0.430305 0
M  V30 751 C 69.0486 1.87997 -3.07716 0
M  V30 752 O 68.1526 2.97393 -2.85712 0
M  V30 753 H 67.4936 0.277663 -0.603158 0
M  V30 754 H 70.0236 0.24783 -2.03093 0
M  V30 755 H 70.0336 2.2917 -3.37558 0
M  V30 756 H 68.7086 1.29417 -3.95252 0
M  V30 757 H 67.2856 2.60238 -2.67078 0
M  V30 758 N 69.4707 1.49531 0.497807 0
M  V30 759 C 70.6957 1.63159 1.28039 0
M  V30 760 C 71.1207 0.30418 1.85624 0
M  V30 761 O 70.4787 -0.728618 1.66015 0
M  V30 762 C 70.5267 2.70537 2.38416 0
M  V30 763 O 69.6307 2.29931 3.42353 0
M  V30 764 H 68.9717 0.546001 0.377861 0
M  V30 765 H 71.5017 1.9574 0.59558 0
M  V30 766 H 71.5117 2.92802 2.84132 0
M  V30 767 H 70.1867 3.6689 1.95869 0
M  V30 768 H 68.7637 2.18009 3.02533 0
M  V30 769 N 70.9488 -0.749086 1.3866 0
M  V30 770 C 72.1978 -1.50371 1.3443 0
M  V30 771 C 72.5108 -1.95503 -0.0616397 0
M  V30 772 O 73.7168 -2.70554 -0.226489 0
M  V30 773 C 72.1728 -2.71644 2.36088 0
M  V30 774 C 71.7808 -2.3352 3.82325 0
M  V30 775 C 73.5248 -3.49518 2.40909 0
M  V30 776 C 71.4318 -3.51431 4.75658 0
M  V30 777 H 70.3618 -0.564628 0.499712 0
M  V30 778 H 73.0128 -0.818449 1.64237 0
M  V30 779 H 71.3948 -3.42175 1.9933 0
M  V30 780 H 72.5688 -1.70627 4.28046 0
M  V30 781 H 70.8838 -1.6877 3.80665 0
M  V30 782 H 73.4808 -4.37197 3.07836 0
M  V30 783 H 73.8238 -3.90992 1.42937 0
M  V30 784 H 74.3568 -2.86005 2.76489 0
M  V30 785 H 71.0958 -3.15019 5.74842 0
M  V30 786 H 70.6158 -4.13352 4.34627 0
M  V30 787 H 72.2948 -4.17953 4.93887 0
M  V30 788 N 72.4269 -1.23603 -0.977757 0
M  V30 789 C 73.6519 -1.09735 -1.75991 0
M  V30 790 C 74.0769 0.346858 -1.84874 0
M  V30 791 O 73.4349 1.25093 -1.3123 0
M  V30 792 C 73.4829 -1.73051 -3.16363 0
M  V30 793 O 72.5869 -0.994452 -4.0023 0
M  V30 794 H 71.9279 -0.384476 -0.541364 0
M  V30 795 H 74.4579 -1.6371 -1.2272 0
M  V30 796 H 74.4679 -1.78398 -3.66931 0
M  V30 797 H 73.1429 -2.78137 -3.09213 0
M  V30 798 H 71.7199 -1.01812 -3.58732 0
M  V30 799 N 73.905 1.17692 -1.04816 0
M  V30 800 C 75.152 1.87859 -0.75599 0
M  V30 801 C 75.48 1.80812 0.716752 0
M  V30 802 O 74.735 1.20819 1.53952 0
M  V30 803 C 75.034 3.37462 -1.17703 0
M  V30 804 C 74.7 3.64713 -2.65133 0
M  V30 805 C 73.362 3.71859 -3.05408 0
M  V30 806 C 75.714 3.76492 -3.60421 0
M  V30 807 C 73.042 3.88271 -4.39843 0
M  V30 808 C 75.394 3.94421 -4.94585 0
M  V30 809 C 74.058 3.99806 -5.3452 0
M  V30 810 H 73.328 0.687425 -0.276636 0
M  V30 811 H 75.975 1.39255 -1.31455 0
M  V30 812 H 74.28 3.88097 -0.537395 0
M  V30 813 H 75.977 3.90109 -0.928218 0
M  V30 814 H 72.567 3.59772 -2.32942 0
M  V30 815 H 76.751 3.70295 -3.30447 0
M  V30 816 H 72.007 3.90687 -4.70291 0
M  V30 817 H 76.181 4.02477 -5.68318 0
M  V30 818 H 73.808 4.12276 -6.38696 0
M  V30 819 N 75.3831 0.828654 1.34056 0
M  V30 820 C 76.3331 0.226828 2.26869 0
M  V30 821 C 77.3171 -0.612243 1.48796 0
M  V30 822 O 78.5091 -0.465884 1.70759 0
M  V30 823 C 75.6381 -0.605654 3.37915 0
M  V30 824 C 74.7241 0.244361 4.23395 0
M  V30 825 N 75.1151 1.31815 4.88322 0
M  V30 826 C 73.4131 0.0296616 4.4599 0
M  V30 827 C 74.1141 1.83895 5.51867 0
M  V30 828 N 73.0901 1.14196 5.3147 0
M  V30 829 H 76.8921 1.04811 2.74576 0
M  V30 830 H 74.4061 0.67205 1.47842 0
M  V30 831 H 76.4031 -1.05302 4.03382 0
M  V30 832 H 75.0631 -1.42504 2.91758 0
M  V30 833 H 76.0741 1.70099 4.8917 0
M  V30 834 H 72.7511 -0.757097 4.10578 0
M  V30 835 H 74.1411 2.7376 6.136 0
M  V30 836 N 76.8612 -1.46375 0.584142 0
M  V30 837 C 78.1092 -2.01978 0.0701287 0
M  V30 838 C 78.4302 -1.4579 -1.295 0
M  V30 839 O 77.7002 -0.64314 -1.85042 0
M  V30 840 H 76.2802 -0.746648 0.0229345 0
M  V30 841 H 78.9422 -1.79461 0.760245 0
M  V30 842 H 78.0382 -3.121 0.0022064 0
M  V30 843 N 78.3393 -0.321999 -1.54275 0
M  V30 844 C 79.5693 0.282642 -2.04658 0
M  V30 845 C 79.9773 1.46453 -1.19784 0
M  V30 846 O 79.3203 1.82367 -0.220932 0
M  V30 847 C 79.3823 0.781857 -3.50895 0
M  V30 848 C 79.0463 -0.277517 -4.56157 0
M  V30 849 C 80.0433 -1.11307 -5.07845 0
M  V30 850 C 77.7283 -0.425256 -5.00497 0
M  V30 851 C 79.7223 -2.08211 -6.02434 0
M  V30 852 C 77.4093 -1.39771 -5.94901 0
M  V30 853 C 78.4073 -2.2246 -6.45756 0
M  V30 854 O 78.0953 -3.18054 -7.38307 0
M  V30 855 H 77.8273 0.0622636 -0.673126 0
M  V30 856 H 80.3813 -0.465792 -2.00049 0
M  V30 857 H 78.6113 1.58118 -3.52896 0
M  V30 858 H 80.3003 1.30467 -3.84361 0
M  V30 859 H 81.0663 -1.00991 -4.74369 0
M  V30 860 H 76.9453 0.20847 -4.60528 0
M  V30 861 H 80.4893 -2.72791 -6.42052 0
M  V30 862 H 76.3863 -1.50152 -6.27794 0
M  V30 863 H 77.1543 -3.13275 -7.56175 0
M  V30 864 N 79.8174 1.5752 -0.0501392 0
M  V30 865 C 81.0944 1.83996 0.663685 0
M  V30 866 C 81.4744 0.938339 1.89099 0
M  V30 867 O 80.8224 -0.00087759 2.285 0
M  V30 868 C 81.0324 3.33702 1.02196 0
M  V30 869 C 82.3804 4.00691 1.40469 0
M  V30 870 O 83.4044 3.38321 1.11433 0
M  V30 871 O 82.2634 5.10658 1.94654 0
M  V30 872 H 79.3574 0.759385 0.32751 0
M  V30 873 H 81.9034 1.69514 -0.0794238 0
M  V30 874 H 80.6754 3.91015 0.149364 0
M  V30 875 H 80.2984 3.53368 1.82255 0
M  V30 876 N 81.2955 -0.223234 1.56011 0
M  V30 877 C 82.5415 -0.949279 1.79211 0
M  V30 878 C 82.8745 -1.84054 0.619494 0
M  V30 879 O 82.1495 -1.90726 -0.381317 0
M  V30 880 C 82.4325 -1.78965 3.12479 0
M  V30 881 C 82.2855 -0.924997 4.40186 0
M  V30 882 C 83.6045 -2.76774 3.42175 0
M  V30 883 H 80.7235 -0.343676 0.651963 0
M  V30 884 H 83.3655 -0.218253 1.88742 0
M  V30 885 H 81.5155 -2.41291 3.04485 0
M  V30 886 H 83.1875 -0.318615 4.60198 0
M  V30 887 H 81.4305 -0.230344 4.33188 0
M  V30 888 H 82.1015 -1.54735 5.29869 0
M  V30 889 H 84.5775 -2.24584 3.50287 0
M  V30 890 H 83.4535 -3.32678 4.36597 0
M  V30 891 H 83.7145 -3.54429 2.64258 0
M  V30 892 N 82.7736 -1.49793 -0.48987 0
M  V30 893 C 84.0196 -1.60078 -1.24511 0
M  V30 894 C 84.3526 -0.291608 -1.91998 0
M  V30 895 O 83.6276 0.705647 -1.81248 0
M  V30 896 C 83.9106 -2.76791 -2.30345 0
M  V30 897 C 83.7636 -4.17535 -1.67286 0
M  V30 898 C 85.0826 -2.89111 -3.31817 0
M  V30 899 H 82.2016 -0.582645 -0.451324 0
M  V30 900 H 84.8436 -1.82117 -0.541612 0
M  V30 901 H 82.9936 -2.5813 -2.90346 0
M  V30 902 H 84.6656 -4.4774 -1.11026 0
M  V30 903 H 82.9086 -4.22665 -0.976577 0
M  V30 904 H 83.5796 -4.95094 -2.44103 0
M  V30 905 H 86.0556 -3.06133 -2.81819 0
M  V30 906 H 84.9316 -3.72433 -4.03219 0
M  V30 907 H 85.1926 -1.9893 -3.94815 0
M  V30 908 N 84.2517 0.741722 -1.39055 0
M  V30 909 C 85.5287 1.49252 -1.26425 0
M  V30 910 C 85.9087 2.10705 0.129144 0
M  V30 911 O 85.2567 1.98045 1.13976 0
M  V30 912 C 85.4667 2.54934 -2.38347 0
M  V30 913 C 86.8147 3.21506 -2.77343 0
M  V30 914 O 87.8387 2.65245 -2.37747 0
M  V30 915 O 86.6977 4.23294 -3.45665 0
M  V30 916 H 83.7917 0.662451 -0.495064 0
M  V30 917 H 86.3377 0.776121 -1.50912 0
M  V30 918 H 85.1097 2.07857 -3.31529 0
M  V30 919 H 84.7327 3.34141 -2.15489 0
M  V30 920 N 85.7298 1.2412 0.971189 0
M  V30 921 C 86.9768 1.07881 1.71371 0
M  V30 922 C 87.3048 -0.382901 1.90694 0
M  V30 923 O 86.5598 -1.29945 1.46331 0
M  V30 924 C 86.8588 1.75983 3.11071 0
M  V30 925 C 86.5248 3.25909 3.11599 0
M  V30 926 C 85.1868 3.66813 3.11451 0
M  V30 927 C 87.5388 4.21771 3.062 0
M  V30 928 C 84.8668 5.02021 3.03631 0
M  V30 929 C 87.2188 5.56982 2.99923 0
M  V30 930 C 85.8828 5.97237 2.98102 0
M  V30 931 H 85.1528 0.394764 0.62709 0
M  V30 932 H 87.7998 1.54176 1.13587 0
M  V30 933 H 86.1048 1.22072 3.72298 0
M  V30 934 H 87.8018 1.60887 3.6731 0
M  V30 935 H 84.3918 2.93353 3.12477 0
M  V30 936 H 88.5758 3.91172 3.05447 0
M  V30 937 H 83.8318 5.32411 3.0058 0
M  V30 938 H 88.0058 6.30969 2.94704 0
M  V30 939 H 85.6328 7.01967 2.91798 0
M  V30 940 N 87.2079 -1.17134 1.05439 0
M  V30 941 C 88.4379 -1.91094 0.785274 0
M  V30 942 C 88.8459 -1.77198 -0.663142 0
M  V30 943 O 88.1889 -1.10835 -1.46497 0
M  V30 944 C 88.2509 -3.42594 1.08949 0
M  V30 945 C 87.9149 -3.80274 2.53458 0
M  V30 946 C 88.9119 -3.82912 3.51673 0
M  V30 947 C 86.5969 -4.11162 2.88532 0
M  V30 948 C 88.5909 -4.15913 4.83006 0
M  V30 949 C 86.2779 -4.43831 4.20068 0
M  V30 950 C 87.2759 -4.46185 5.17115 0
M  V30 951 O 86.9639 -4.78083 6.46291 0
M  V30 952 H 86.6959 -0.613073 0.284811 0
M  V30 953 H 89.2499 -1.49461 1.40893 0
M  V30 954 H 87.4799 -3.84534 0.408741 0
M  V30 955 H 89.1689 -3.97817 0.805991 0
M  V30 956 H 89.9349 -3.5917 3.25917 0
M  V30 957 H 85.8139 -4.085 2.13656 0
M  V30 958 H 89.3579 -4.17665 5.5875 0
M  V30 959 H 85.2549 -4.67037 4.45586 0
M  V30 960 H 86.0229 -4.9593 6.51149 0
M  V30 961 N 88.686 -0.835752 -1.33615 0
M  V30 962 C 89.911 -0.442389 -2.02627 0
M  V30 963 C 90.336 0.947735 -1.62479 0
M  V30 964 O 89.694 1.61907 -0.815826 0
M  V30 965 C 89.742 -0.567216 -3.56111 0
M  V30 966 O 88.846 0.407799 -4.10379 0
M  V30 967 H 88.187 -0.180278 -0.639059 0
M  V30 968 H 90.717 -1.12972 -1.70583 0
M  V30 969 H 90.727 -0.447708 -4.05536 0
M  V30 970 H 89.402 -1.58103 -3.84677 0
M  V30 971 H 87.979 0.246107 -3.72087 0
M  V30 972 N 90.1641 1.46063 -0.591896 0
M  V30 973 C 91.4111 2.02338 -0.0809991 0
M  V30 974 C 91.7391 1.46228 1.28249 0
M  V30 975 O 90.9941 0.620818 1.85592 0
M  V30 976 C 91.2931 3.57391 0.0249813 0
M  V30 977 C 90.9591 4.32583 -1.27211 0
M  V30 978 C 89.6211 4.52844 -1.62745 0
M  V30 979 C 91.9731 4.75687 -2.13005 0
M  V30 980 C 89.3011 5.13462 -2.83855 0
M  V30 981 C 91.6531 5.37644 -3.3335 0
M  V30 982 C 90.3171 5.5613 -3.69155 0
M  V30 983 H 89.5871 0.740407 -0.0296397 0
M  V30 984 H 92.2341 1.75321 -0.770374 0
M  V30 985 H 90.5391 3.83597 0.797537 0
M  V30 986 H 92.2361 3.98621 0.436184 0
M  V30 987 H 88.8261 4.17116 -0.985499 0
M  V30 988 H 93.0101 4.59782 -1.86855 0
M  V30 989 H 88.2661 5.25965 -3.11722 0
M  V30 990 H 92.4401 5.7 -4.00092 0
M  V30 991 H 90.0671 6.0287 -4.63089 0
M  V30 992 N 91.6422 0.330177 1.54103 0
M  V30 993 C 92.5892 -0.532762 2.24567 0
M  V30 994 C 93.5592 -1.10635 1.23892 0
M  V30 995 O 94.7442 -1.14546 1.5259 0
M  V30 996 C 91.8842 -1.6845 3.01195 0
M  V30 997 C 90.9972 -1.13951 4.167 0
M  V30 998 C 90.1322 -2.25746 4.80845 0
M  V30 999 C 89.1712 -1.6853 5.88442 0
M  V30 1000 N 88.3082 -2.74014 6.46421 0
M  V30 1001 H 93.1482 0.0746905 2.97906 0
M  V30 1002 H 90.6852 0.048632 1.4702 0
M  V30 1003 H 92.6432 -2.36234 3.43874 0
M  V30 1004 H 91.2732 -2.26314 2.30178 0
M  V30 1005 H 90.3252 -0.35301 3.78758 0
M  V30 1006 H 91.6372 -0.680892 4.94131 0
M  V30 1007 H 90.7912 -3.01422 5.26526 0
M  V30 1008 H 89.5302 -2.74947 4.0281 0
M  V30 1009 H 88.5352 -0.913543 5.42157 0
M  V30 1010 H 89.7602 -1.20198 6.68378 0
M  V30 1011 H 87.7062 -3.22494 5.71256 0
M  V30 1012 H 87.6232 -2.32735 7.19285 0
M  V30 1013 H 88.8912 -3.49499 6.96757 0
M  V30 1014 N 93.1203 -1.57491 0.0584922 0
M  V30 1015 C 94.0833 -2.1085 -0.898617 0
M  V30 1016 C 95.0833 -1.02964 -1.23511 0
M  V30 1017 O 96.2733 -1.29007 -1.17059 0
M  V30 1018 C 93.4053 -2.59881 -2.20623 0
M  V30 1019 H 94.5983 -2.96715 -0.435936 0
M  V30 1020 H 92.1513 -1.55141 -0.190023 0
M  V30 1021 H 92.8863 -1.77431 -2.71457 0
M  V30 1022 H 92.6713 -3.38727 -1.97501 0
M  V30 1023 H 94.1613 -3.01285 -2.89166 0
M  V30 1024 N 94.5984 0.214957 -1.56127 0
M  V30 1025 C 95.5084 1.28727 -1.96129 0
M  V30 1026 C 96.5244 1.50916 -0.866044 0
M  V30 1027 O 97.7004 1.63918 -1.17016 0
M  V30 1028 C 94.7654 2.61569 -2.27558 0
M  V30 1029 C 93.8264 2.47625 -3.50685 0
M  V30 1030 C 93.0594 3.74132 -3.80606 0
M  V30 1031 O 93.2824 4.77438 -3.12104 0
M  V30 1032 O 92.2164 3.70849 -4.74083 0
M  V30 1033 H 96.0424 0.977855 -2.87527 0
M  V30 1034 H 93.6274 0.418358 -1.43423 0
M  V30 1035 H 95.5094 3.40012 -2.48938 0
M  V30 1036 H 94.1844 2.92178 -1.39332 0
M  V30 1037 H 93.0914 1.67361 -3.34576 0
M  V30 1038 H 94.4244 2.21954 -4.39315 0
M  V30 1039 N 96.0765 1.50051 0.48192 0
M  V30 1040 C 97.3065 1.63999 1.2565 0
M  V30 1041 C 97.7145 0.318288 1.86504 0
M  V30 1042 O 97.0575 -0.708534 1.69486 0
M  V30 1043 C 97.1195 2.66504 2.4128 0
M  V30 1044 C 96.7835 4.10352 2.01148 0
M  V30 1045 C 97.7805 4.96562 1.54021 0
M  V30 1046 C 95.4655 4.56203 2.10199 0
M  V30 1047 C 97.4595 6.26668 1.16473 0
M  V30 1048 C 95.1465 5.86318 1.72264 0
M  V30 1049 C 96.1445 6.71375 1.25477 0
M  V30 1050 O 95.8325 7.99062 0.880626 0
M  V30 1051 H 95.5645 0.55456 0.386574 0
M  V30 1052 H 98.1185 1.96954 0.582944 0
M  V30 1053 H 96.3485 2.28769 3.11772 0
M  V30 1054 H 98.0375 2.69783 3.03268 0
M  V30 1055 H 98.8035 4.62358 1.46458 0
M  V30 1056 H 94.6825 3.90152 2.45566 0
M  V30 1057 H 98.2265 6.93011 0.798841 0
M  V30 1058 H 94.1235 6.20046 1.79482 0
M  V30 1059 H 94.8915 8.12239 1.01043 0
M  V30 1060 N 97.5546 -0.734337 1.39446 0
M  V30 1061 C 98.8026 -1.49096 1.36436 0
M  V30 1062 C 99.1236 -1.94961 -0.0388255 0
M  V30 1063 O 98.3936 -1.69033 -0.990191 0
M  V30 1064 H 96.9736 -0.5531 0.502085 0
M  V30 1065 H 99.6356 -0.871725 1.74319 0
M  V30 1066 H 98.7316 -2.37276 2.02747 0
M  V30 1067 N 99.0327 -1.24633 -0.964593 0
M  V30 1068 C 100.258 -1.11596 -1.74818 0
M  V30 1069 C 100.683 0.32723 -1.85232 0
M  V30 1070 O 100.041 1.23695 -1.32549 0
M  V30 1071 C 100.089 -1.76397 -3.1451 0
M  V30 1072 O 99.1927 -1.03685 -3.99153 0
M  V30 1073 H 98.5337 -0.390196 -0.537255 0
M  V30 1074 H 101.064 -1.65002 -1.20977 0
M  V30 1075 H 101.074 -1.8228 -3.65018 0
M  V30 1076 H 99.7487 -2.81401 -3.06246 0
M  V30 1077 H 98.3257 -1.05611 -3.57632 0
M  V30 1078 N 100.511 1.16574 -1.06058 0
M  V30 1079 C 101.421 2.2452 -0.680282 0
M  V30 1080 C 102.437 1.71348 0.302604 0
M  V30 1081 O 103.613 2.00822 0.152513 0
M  V30 1082 C 100.678 3.46629 -0.0700315 0
M  V30 1083 C 99.7388 4.14849 -1.10448 0
M  V30 1084 C 98.9718 5.31129 -0.523256 0
M  V30 1085 O 99.1948 5.66514 0.664709 0
M  V30 1086 O 98.1288 5.88526 -1.26179 0
M  V30 1087 H 101.955 2.59355 -1.58015 0
M  V30 1088 H 99.5398 1.24043 -0.832694 0
M  V30 1089 H 101.422 4.20543 0.268667 0
M  V30 1090 H 100.097 3.13573 0.803353 0
M  V30 1091 H 99.0038 3.42916 -1.49532 0
M  V30 1092 H 100.337 4.51954 -1.94931 0
M  V30 1093 N 101.989 0.842826 1.3317 0
M  V30 1094 C 103.405 0.531128 1.50503 0
M  V30 1095 C 103.605 -0.940734 1.78192 0
M  V30 1096 O 102.661 -1.72436 1.84451 0
M  V30 1097 C 103.974 1.40789 2.65705 0
M  V30 1098 C 105.522 1.40708 2.79589 0
M  V30 1099 C 105.997 2.26878 3.97857 0
M  V30 1100 N 107.488 2.24609 4.05099 0
M  V30 1101 C 108.223 2.88019 4.95815 0
M  V30 1102 N 107.719 3.60496 5.9162 0
M  V30 1103 N 109.512 2.77469 4.88843 0
M  V30 1104 H 101.663 1.79557 1.1346 0
M  V30 1105 H 103.926 0.766267 0.558156 0
M  V30 1106 H 103.632 2.454 2.51936 0
M  V30 1107 H 103.506 1.08677 3.61205 0
M  V30 1108 H 105.893 0.368668 2.92788 0
M  V30 1109 H 105.974 1.76829 1.84838 0
M  V30 1110 H 105.618 3.3078 3.85418 0
M  V30 1111 H 105.548 1.88096 4.91861 0
M  V30 1112 H 108.039 1.71906 3.36536 0
M  V30 1113 H 108.352 4.06076 6.57512 0
M  V30 1114 H 106.697 3.64604 5.91683 0
M  V30 1115 H 109.888 2.20406 4.12963 0
M  V30 1116 H 110.061 3.2717 5.59342 0
M  V30 1117 N 103.467 -1.45747 0.599634 0
M  V30 1118 C 104.377 -2.34262 -0.125888 0
M  V30 1119 C 105.393 -1.50768 -0.868625 0
M  V30 1120 O 106.569 -1.83592 -0.828003 0
M  V30 1121 C 103.634 -3.28252 -1.11587 0
M  V30 1122 C 102.695 -4.27651 -0.375956 0
M  V30 1123 C 101.928 -5.1715 -1.31877 0
M  V30 1124 O 102.151 -5.09916 -2.55621 0
M  V30 1125 O 101.085 -5.96286 -0.820157 0
M  V30 1126 H 104.911 -2.97688 0.601315 0
M  V30 1127 H 102.496 -1.44999 0.359934 0
M  V30 1128 H 104.378 -3.86191 -1.68626 0
M  V30 1129 H 103.053 -2.67401 -1.82424 0
M  V30 1130 H 101.96 -3.7335 0.236698 0
M  V30 1131 H 103.293 -4.91334 0.29177 0
M  V30 1132 N 104.945 -0.338344 -1.53925 0
M  V30 1133 C 106.192 0.259758 -2.00827 0
M  V30 1134 C 106.52 1.50973 -1.22628 0
M  V30 1135 O 105.775 1.93379 -0.300509 0
M  V30 1136 C 106.074 0.62448 -3.51902 0
M  V30 1137 C 105.74 -0.528006 -4.47798 0
M  V30 1138 C 104.402 -0.844298 -4.73735 0
M  V30 1139 C 106.754 -1.30143 -5.0469 0
M  V30 1140 C 104.082 -1.93648 -5.53821 0
M  V30 1141 C 106.434 -2.38382 -5.85967 0
M  V30 1142 C 105.098 -2.70576 -6.10201 0
M  V30 1143 H 104.368 0.0950523 -0.734878 0
M  V30 1144 H 107.015 -0.465182 -1.85764 0
M  V30 1145 H 105.32 1.43006 -3.64769 0
M  V30 1146 H 107.017 1.09905 -3.85645 0
M  V30 1147 H 103.607 -0.271421 -4.2774 0
M  V30 1148 H 107.791 -1.07033 -4.84621 0
M  V30 1149 H 103.047 -2.19021 -5.70824 0
M  V30 1150 H 107.221 -2.98746 -6.29066 0
M  V30 1151 H 104.848 -3.55333 -6.72044 0
M  V30 1152 N 106.423 1.57458 -0.0668435 0
M  V30 1153 C 107.37 2.12439 0.902122 0
M  V30 1154 C 108.34 1.03565 1.2986 0
M  V30 1155 O 109.525 1.312 1.38532 0
M  V30 1156 C 106.665 2.6865 2.16614 0
M  V30 1157 C 105.778 3.91663 1.82274 0
M  V30 1158 C 104.913 4.36134 3.0325 0
M  V30 1159 C 103.952 5.51808 2.64904 0
M  V30 1160 N 103.089 5.9126 3.78624 0
M  V30 1161 H 107.929 2.94934 0.426382 0
M  V30 1162 H 105.466 1.4575 0.198819 0
M  V30 1163 H 107.424 2.99346 2.90599 0
M  V30 1164 H 106.054 1.88928 2.61737 0
M  V30 1165 H 105.106 3.6746 0.983719 0
M  V30 1166 H 106.418 4.75693 1.50059 0
M  V30 1167 H 105.572 4.68465 3.85519 0
M  V30 1168 H 104.311 3.50948 3.38655 0
M  V30 1169 H 103.316 5.19133 1.81055 0
M  V30 1170 H 104.541 6.38722 2.30675 0
M  V30 1171 H 102.487 5.09024 4.138 0
M  V30 1172 H 102.404 6.70018 3.5016 0
M  V30 1173 H 103.672 6.28212 4.61486 0
M  V30 1174 N 107.901 -0.206675 1.56239 0
M  V30 1175 C 108.811 -1.27686 1.96808 0
M  V30 1176 C 109.827 -1.50455 0.874035 0
M  V30 1177 O 111.003 -1.63295 1.17884 0
M  V30 1178 C 108.068 -2.60358 2.28942 0
M  V30 1179 C 107.129 -2.45762 3.51994 0
M  V30 1180 C 106.362 -3.72108 3.82585 0
M  V30 1181 O 106.585 -4.75776 3.14631 0
M  V30 1182 O 105.519 -3.6833 4.76043 0
M  V30 1183 H 109.345 -0.962593 2.88041 0
M  V30 1184 H 106.93 -0.410746 1.43643 0
M  V30 1185 H 108.812 -3.38687 2.50737 0
M  V30 1186 H 107.487 -2.91435 1.4088 0
M  V30 1187 H 106.394 -1.65584 3.35459 0
M  V30 1188 H 107.727 -2.19621 4.40486 0
M  V30 1189 N 109.379 -1.50304 -0.473955 0
M  V30 1190 C 110.312 -1.63595 -1.59097 0
M  V30 1191 C 111.29 -0.484142 -1.55225 0
M  V30 1192 O 112.474 -0.703271 -1.7489 0
M  V30 1193 C 109.601 -1.61589 -2.97669 0
M  V30 1194 C 108.647 -2.82295 -3.19705 0
M  V30 1195 S 109.48 -4.43635 -2.99913 0
M  V30 1196 C 110.636 -4.44317 -4.40832 0
M  V30 1197 H 110.869 -2.58082 -1.47583 0
M  V30 1198 H 108.402 -1.39531 -0.661087 0
M  V30 1199 H 110.36 -1.61116 -3.7756 0
M  V30 1200 H 109.021 -0.683421 -3.06575 0
M  V30 1201 H 108.214 -2.77188 -4.20931 0
M  V30 1202 H 107.816 -2.8032 -2.47582 0
M  V30 1203 H 110.108 -4.17703 -5.33414 0
M  V30 1204 H 111.051 -5.45911 -4.50984 0
M  V30 1205 H 111.459 -3.74059 -4.22777 0
M  V30 1206 N 110.857 0.726932 -1.39834 0
M  V30 1207 C 112.106 1.48214 -1.36805 0
M  V30 1208 C 112.419 1.95576 0.0305291 0
M  V30 1209 O 113.625 2.7088 0.183417 0
M  V30 1210 C 112.081 2.67854 -2.40379 0
M  V30 1211 C 111.689 2.27408 -3.85992 0
M  V30 1212 C 113.433 3.45641 -2.46439 0
M  V30 1213 C 111.34 3.43819 -4.81189 0
M  V30 1214 H 110.27 0.556606 -0.508631 0
M  V30 1215 H 112.921 0.792216 -1.65518 0
M  V30 1216 H 111.303 3.3896 -2.04749 0
M  V30 1217 H 112.477 1.63795 -4.30706 0
M  V30 1218 H 110.792 1.62692 -3.83302 0
M  V30 1219 H 113.389 4.32244 -3.14753 0
M  V30 1220 H 113.732 3.88669 -1.49139 0
M  V30 1221 H 114.265 2.8157 -2.81004 0
M  V30 1222 H 111.004 3.05834 -5.79781 0
M  V30 1223 H 110.524 4.06385 -4.41148 0
M  V30 1224 H 112.203 4.10043 -5.00474 0
M  V30 1225 N 112.336 1.25143 0.95797 0
M  V30 1226 C 113.246 1.06968 2.08794 0
M  V30 1227 C 114.262 0.00773911 1.73998 0
M  V30 1228 O 115.438 0.207972 2.00323 0
M  V30 1229 C 112.503 0.68691 3.39827 0
M  V30 1230 C 111.564 1.82641 3.88511 0
M  V30 1231 C 110.797 1.46181 5.1329 0
M  V30 1232 O 111.02 0.355971 5.69288 0
M  V30 1233 O 109.954 2.29085 5.566 0
M  V30 1234 H 113.78 2.01723 2.27027 0
M  V30 1235 H 111.365 1.04051 1.07209 0
M  V30 1236 H 113.247 0.485417 4.18595 0
M  V30 1237 H 111.922 -0.231417 3.22872 0
M  V30 1238 H 110.829 2.08274 3.10762 0
M  V30 1239 H 112.162 2.72386 4.09959 0
M  V30 1240 N 113.814 -1.1601 1.06675 0
M  V30 1241 C 114.777 -2.18724 0.685001 0
M  V30 1242 C 115.777 -1.58496 -0.271246 0
M  V30 1243 O 116.967 -1.74119 -0.0531156 0
M  V30 1244 C 114.099 -3.40899 0.00853648 0
M  V30 1245 H 115.292 -2.54011 1.59431 0
M  V30 1246 H 112.845 -1.30352 0.862441 0
M  V30 1247 H 113.58 -3.11173 -0.913337 0
M  V30 1248 H 113.365 -3.8587 0.696204 0
M  V30 1249 H 114.855 -4.16886 -0.24414 0
M  V30 1250 N 115.292 -0.849877 -1.32721 0
M  V30 1251 C 116.539 -0.450923 -1.97416 0
M  V30 1252 C 116.867 0.992376 -1.67279 0
M  V30 1253 O 116.122 1.71048 -0.950845 0
M  V30 1254 C 116.421 -0.631272 -3.51781 0
M  V30 1255 C 116.087 -2.04432 -4.01894 0
M  V30 1256 C 114.749 -2.4308 -4.1529 0
M  V30 1257 C 117.101 -2.96679 -4.28522 0
M  V30 1258 C 114.429 -3.73257 -4.52654 0
M  V30 1259 C 116.781 -4.26349 -4.67343 0
M  V30 1260 C 115.445 -4.64939 -4.78945 0
M  V30 1261 H 114.715 -0.165004 -0.722395 0
M  V30 1262 H 117.362 -1.07901 -1.58207 0
M  V30 1263 H 115.667 0.0800767 -3.91718 0
M  V30 1264 H 117.364 -0.302709 -3.99856 0
M  V30 1265 H 113.954 -1.73419 -3.91949 0
M  V30 1266 H 118.138 -2.68054 -4.17685 0
M  V30 1267 H 113.394 -4.02946 -4.59831 0
M  V30 1268 H 117.568 -4.97895 -4.86902 0
M  V30 1269 H 115.195 -5.65855 -5.07654 0
M  V30 1270 N 116.77 1.45427 -0.607355 0
M  V30 1271 C 117.72 2.27612 0.133038 0
M  V30 1272 C 118.704 1.37307 0.838785 0
M  V30 1273 O 119.896 1.61299 0.728813 0
M  V30 1274 C 117.025 3.24173 1.12991 0
M  V30 1275 C 116.111 4.21965 0.425011 0
M  V30 1276 N 116.502 5.02982 -0.533217 0
M  V30 1277 C 114.8 4.40899 0.672593 0
M  V30 1278 C 115.501 5.73931 -0.947518 0
M  V30 1279 N 114.477 5.42819 -0.291321 0
M  V30 1280 H 118.279 2.87649 -0.602935 0
M  V30 1281 H 115.793 1.56576 -0.431006 0
M  V30 1282 H 117.79 3.81783 1.67473 0
M  V30 1283 H 116.45 2.65696 1.86644 0
M  V30 1284 H 117.461 5.09843 -0.90995 0
M  V30 1285 H 114.138 3.93547 1.39382 0
M  V30 1286 H 115.528 6.49037 -1.73782 0
M  V30 1287 N 118.248 0.346503 1.53744 0
M  V30 1288 C 119.525 -0.304532 1.93215 0
M  V30 1289 C 119.905 -1.67993 1.27834 0
M  V30 1290 O 119.253 -2.24411 0.430352 0
M  V30 1291 C 119.463 -0.373852 3.46992 0
M  V30 1292 C 120.811 -0.62329 4.2 0
M  V30 1293 O 121.835 -0.455847 3.53271 0
M  V30 1294 O 120.694 -0.947879 5.38217 0
M  V30 1295 H 117.788 -0.178318 0.807547 0
M  V30 1296 H 120.334 0.397895 1.64969 0
M  V30 1297 H 119.106 0.591224 3.86808 0
M  V30 1298 H 118.729 -1.12294 3.81413 0
M  V30 1299 N 119.726 -1.57421 0.075193 0
M  V30 1300 C 120.951 -1.98364 -0.605515 0
M  V30 1301 C 121.376 -0.953383 -1.62149 0
M  V30 1302 O 120.734 0.0806053 -1.81121 0
M  V30 1303 C 120.782 -3.38332 -1.24756 0
M  V30 1304 O 119.886 -3.37959 -2.36342 0
M  V30 1305 H 119.227 -0.645553 -0.155428 0
M  V30 1306 H 121.757 -2.04044 0.150714 0
M  V30 1307 H 121.767 -3.75591 -1.5936 0
M  V30 1308 H 120.442 -4.12846 -0.503129 0
M  V30 1309 H 119.019 -3.12474 -2.03506 0
M  V30 1310 N 121.204 0.198386 -1.56346 0
M  V30 1311 C 122.452 0.91747 -1.80075 0
M  V30 1312 C 122.773 1.83929 -0.647692 0
M  V30 1313 O 122.043 1.93029 0.334166 0
M  V30 1314 H 120.623 0.341774 -0.664228 0
M  V30 1315 H 123.285 0.204684 -1.93822 0
M  V30 1316 H 122.381 1.51055 -2.7311 0
M  V30 1317 N 122.682 1.50554 0.465978 0
M  V30 1318 C 123.931 1.61038 1.21448 0
M  V30 1319 C 124.244 0.31865 1.92987 0
M  V30 1320 O 125.45 0.302469 2.6981 0
M  V30 1321 C 123.906 2.84283 2.20706 0
M  V30 1322 C 123.514 4.20352 1.54946 0
M  V30 1323 C 125.258 3.04115 2.96166 0
M  V30 1324 C 123.165 5.34778 2.5252 0
M  V30 1325 H 122.095 0.599718 0.457005 0
M  V30 1326 H 124.746 1.7699 0.484424 0
M  V30 1327 H 123.128 2.61901 2.97025 0
M  V30 1328 H 124.302 4.53008 0.843811 0
M  V30 1329 H 122.617 4.06167 0.917475 0
M  V30 1330 H 125.214 3.86774 3.69202 0
M  V30 1331 H 125.557 2.16045 3.55852 0
M  V30 1332 H 126.09 3.26702 2.26959 0
M  V30 1333 H 122.829 6.25018 1.97566 0
M  V30 1334 H 122.349 5.06534 3.21222 0
M  V30 1335 H 124.028 5.65561 3.14245 0
M  V30 1336 N 124.16 -0.719506 1.40217 0
M  V30 1337 C 125.107 -1.83359 1.40172 0
M  V30 1338 C 126.077 -1.64065 0.259206 0
M  V30 1339 O 127.262 -1.85254 0.456677 0
M  V30 1340 C 124.402 -3.2103 1.26624 0
M  V30 1341 C 123.515 -3.51923 2.50548 0
M  V30 1342 C 122.65 -4.79079 2.29471 0
M  V30 1343 C 121.689 -5.02863 3.48992 0
M  V30 1344 N 120.826 -6.2123 3.27135 0
M  V30 1345 H 125.666 -1.82733 2.35399 0
M  V30 1346 H 123.203 -0.892688 1.16917 0
M  V30 1347 H 125.161 -4.00524 1.16776 0
M  V30 1348 H 123.791 -3.20895 0.350176 0
M  V30 1349 H 122.843 -2.67014 2.70939 0
M  V30 1350 H 124.155 -3.6541 3.39525 0
M  V30 1351 H 123.309 -5.66582 2.16955 0
M  V30 1352 H 122.048 -4.67794 1.37913 0
M  V30 1353 H 121.053 -4.13816 3.6199 0
M  V30 1354 H 122.278 -5.16023 4.41472 0
M  V30 1355 H 120.224 -6.11204 2.38256 0
M  V30 1356 H 120.141 -6.35375 4.09675 0
M  V30 1357 H 121.409 -7.11532 3.18344 0
M  V30 1358 N 125.638 -1.25649 -0.95132 0
M  V30 1359 C 126.884 -1.10757 -1.69884 0
M  V30 1360 C 127.217 0.350061 -1.91019 0
M  V30 1361 O 126.492 1.25783 -1.48354 0
M  V30 1362 C 126.775 -1.86606 -3.07978 0
M  V30 1363 C 126.628 -3.40217 -2.94232 0
M  V30 1364 C 127.947 -1.65182 -4.07925 0
M  V30 1365 H 125.066 -0.40374 -0.616574 0
M  V30 1366 H 127.708 -1.54521 -1.10558 0
M  V30 1367 H 125.858 -1.49409 -3.58621 0
M  V30 1368 H 127.53 -3.87108 -2.50889 0
M  V30 1369 H 125.773 -3.67759 -2.30078 0
M  V30 1370 H 126.444 -3.88505 -3.92133 0
M  V30 1371 H 128.92 -1.9757 -3.66204 0
M  V30 1372 H 127.796 -2.20683 -5.02583 0
M  V30 1373 H 128.057 -0.593933 -4.38092 0
M  V30 1374 N 127.117 1.15442 -1.07289 0
M  V30 1375 C 128.363 1.86489 -0.796846 0
M  V30 1376 C 128.696 1.82078 0.675371 0
M  V30 1377 O 127.971 1.24346 1.4956 0
M  V30 1378 C 128.254 3.35626 -1.30489 0
M  V30 1379 C 128.107 3.48673 -2.84161 0
M  V30 1380 C 129.426 4.30357 -0.920907 0
M  V30 1381 H 126.545 0.677144 -0.290939 0
M  V30 1382 H 129.187 1.35633 -1.33056 0
M  V30 1383 H 127.337 3.79068 -0.850883 0
M  V30 1384 H 129.009 3.14099 -3.37846 0
M  V30 1385 H 127.252 2.90253 -3.22391 0
M  V30 1386 H 127.923 4.53453 -3.14777 0
M  V30 1387 H 130.399 3.94871 -1.3121 0
M  V30 1388 H 129.275 5.33193 -1.30372 0
M  V30 1389 H 129.536 4.4176 0.173226 0
M  V30 1390 N 128.595 0.856903 1.32268 0
M  V30 1391 C 129.525 0.31858 2.31316 0
M  V30 1392 C 130.506 -0.583487 1.59779 0
M  V30 1393 O 131.691 -0.503259 1.87566 0
M  V30 1394 C 128.821 -0.491979 3.43798 0
M  V30 1395 C 127.775 0.315849 4.26833 0
M  V30 1396 C 127.101 -0.619586 5.31098 0
M  V30 1397 C 128.401 1.54282 4.98993 0
M  V30 1398 H 130.095 1.14621 2.76591 0
M  V30 1399 H 127.641 0.552613 1.32974 0
M  V30 1400 H 129.594 -0.879012 4.1213 0
M  V30 1401 H 128.318 -1.35299 2.97257 0
M  V30 1402 H 126.977 0.684664 3.6015 0
M  V30 1403 H 126.625 -1.47751 4.8081 0
M  V30 1404 H 126.325 -0.0830621 5.87541 0
M  V30 1405 H 127.849 -1.00375 6.02293 0
M  V30 1406 H 129.263 1.22796 5.59995 0
M  V30 1407 H 127.66 2.01745 5.65172 0
M  V30 1408 H 128.73 2.30285 4.26728 0
M  V30 1409 N 130.073 -1.45103 0.615059 0
M  V30 1410 C 131.35 -1.95549 0.0448276 0
M  V30 1411 C 131.73 -1.55737 -1.4251 0
M  V30 1412 O 131.078 -0.823556 -2.13143 0
M  V30 1413 C 131.288 -3.48098 0.250785 0
M  V30 1414 C 132.636 -4.24384 0.135509 0
M  V30 1415 O 133.66 -3.55738 0.181299 0
M  V30 1416 O 132.519 -5.46493 0.0268878 0
M  V30 1417 H 129.613 -0.8264 -0.0314845 0
M  V30 1418 H 132.159 -1.55232 0.685642 0
M  V30 1419 H 130.931 -3.7007 1.27139 0
M  V30 1420 H 130.554 -3.95323 -0.424937 0
M  V30 1421 N 131.551 -0.354651 -1.53558 0
M  V30 1422 C 132.481 0.489091 -2.2832 0
M  V30 1423 C 133.462 1.09324 -1.30316 0
M  V30 1424 O 134.647 1.11255 -1.59173 0
M  V30 1425 C 131.777 1.63456 -3.0643 0
M  V30 1426 C 130.731 1.1582 -4.12031 0
M  V30 1427 C 130.057 2.39305 -4.7816 0
M  V30 1428 C 131.357 0.250731 -5.21698 0
M  V30 1429 H 133.051 -0.134614 -2.99097 0
M  V30 1430 H 130.597 -0.0661826 -1.43848 0
M  V30 1431 H 132.55 2.23136 -3.57475 0
M  V30 1432 H 131.274 2.28533 -2.33325 0
M  V30 1433 H 129.933 0.584146 -3.61916 0
M  V30 1434 H 129.581 3.02814 -4.01637 0
M  V30 1435 H 129.281 2.08109 -5.49513 0
M  V30 1436 H 130.805 2.99691 -5.31994 0
M  V30 1437 H 132.219 0.754695 -5.68311 0
M  V30 1438 H 130.616 0.0301468 -6.00092 0
M  V30 1439 H 131.686 -0.710125 -4.79672 0
M  V30 1440 N 133.029 1.57378 -0.0835403 0
M  V30 1441 C 134.44 1.81261 0.447358 0
M  V30 1442 C 134.791 0.998331 1.68902 0
M  V30 1443 O 133.916 0.224282 2.15235 0
M  V30 1444 C 134.511 3.28767 0.818386 0
M  V30 1445 C 133.07 3.53455 1.29409 0
M  V30 1446 C 132.217 2.75831 0.285024 0
M  V30 1447 H 135.168 1.5566 -0.309115 0
M  V30 1448 H 135.189 3.41459 1.67887 0
M  V30 1449 H 134.701 3.88006 -0.0855019 0
M  V30 1450 H 132.802 2.99534 2.21608 0
M  V30 1451 H 132.915 4.62128 1.2639 0
M  V30 1452 H 131.279 2.42947 0.764767 0
M  V30 1453 H 132.062 3.37813 -0.611341 0
M  V30 1454 N 134.507 -0.190092 1.56449 0
M  V30 1455 C 135.756 -0.907912 1.80111 0
M  V30 1456 C 136.069 -1.84214 0.657619 0
M  V30 1457 O 137.275 -2.60094 0.778663 0
M  V30 1458 C 135.731 -1.66485 3.19078 0
M  V30 1459 C 135.339 -0.7752 4.41242 0
M  V30 1460 C 137.083 -2.37201 3.52045 0
M  V30 1461 C 134.99 -1.53129 5.71231 0
M  V30 1462 H 133.92 -0.34276 0.671589 0
M  V30 1463 H 136.571 -0.161109 1.82791 0
M  V30 1464 H 134.953 -2.45572 3.10661 0
M  V30 1465 H 136.127 -0.0226298 4.60794 0
M  V30 1466 H 134.442 -0.178627 4.16017 0
M  V30 1467 H 137.039 -2.94329 4.46402 0
M  V30 1468 H 137.382 -3.11632 2.76028 0
M  V30 1469 H 137.915 -1.65075 3.61932 0
M  V30 1470 H 134.654 -0.82967 6.50228 0
M  V30 1471 H 134.174 -2.25767 5.55688 0
M  V30 1472 H 135.853 -2.08377 6.12526 0
M  V30 1473 N 135.985 -1.50799 -0.457987 0
M  V30 1474 C 136.935 -1.67003 -1.55222 0
M  V30 1475 C 137.919 -0.52434 -1.52117 0
M  V30 1476 O 139.111 -0.779345 -1.58919 0
M  V30 1477 C 136.24 -1.77956 -2.93576 0
M  V30 1478 C 135.326 -2.98243 -3.01516 0
M  V30 1479 N 135.717 -4.21732 -2.79241 0
M  V30 1480 C 134.015 -2.97072 -3.32662 0
M  V30 1481 C 134.716 -5.02817 -2.92489 0
M  V30 1482 N 133.692 -4.37038 -3.23262 0
M  V30 1483 H 137.494 -2.60163 -1.36721 0
M  V30 1484 H 135.008 -1.48163 -0.664952 0
M  V30 1485 H 137.005 -1.87671 -3.72271 0
M  V30 1486 H 135.665 -0.859634 -3.13114 0
M  V30 1487 H 136.676 -4.51016 -2.54567 0
M  V30 1488 H 133.353 -2.14631 -3.58106 0
M  V30 1489 H 134.743 -6.11054 -2.79396 0
M  V30 1490 N 137.463 0.71206 -1.40597 0
M  V30 1491 C 138.413 1.81783 -1.37619 0
M  V30 1492 C 139.397 1.58896 -0.253162 0
M  V30 1493 O 140.589 1.70009 -0.492547 0
M  V30 1494 C 137.718 3.19944 -1.24462 0
M  V30 1495 C 136.804 3.48582 -2.4156 0
M  V30 1496 N 137.195 3.48016 -3.67041 0
M  V30 1497 C 135.493 3.79056 -2.35016 0
M  V30 1498 C 136.194 3.75096 -4.44609 0
M  V30 1499 N 135.17 3.94022 -3.74497 0
M  V30 1500 H 138.972 1.79683 -2.32575 0
M  V30 1501 H 136.486 0.91134 -1.34419 0
M  V30 1502 H 138.483 3.99133 -1.20411 0
M  V30 1503 H 137.143 3.23267 -0.304762 0
M  V30 1504 H 138.154 3.28782 -4.00153 0
M  V30 1505 H 134.831 3.89848 -1.49415 0
M  V30 1506 H 136.221 3.80934 -5.53479 0
M  V30 1507 N 138.941 1.26152 0.944643 0
M  V30 1508 C 140.169 1.14259 1.72489 0
M  V30 1509 C 140.584 -0.302555 1.8636 0
M  V30 1510 O 139.941 -1.20741 1.36849 0
M  V30 1511 C 139.992 1.80266 3.13347 0
M  V30 1512 O 139.713 3.19133 3.00143 0
M  V30 1513 C 141.214 1.74283 4.07603 0
M  V30 1514 H 138.434 0.398051 0.540181 0
M  V30 1515 H 140.978 1.66706 1.18446 0
M  V30 1516 H 139.133 1.31766 3.64303 0
M  V30 1517 H 139.547 3.51744 3.89071 0
M  V30 1518 H 141.021 2.25111 5.04013 0
M  V30 1519 H 141.498 0.708631 4.33446 0
M  V30 1520 H 142.104 2.22319 3.62567 0
M  V30 1521 N 140.419 -1.14872 1.07899 0
M  V30 1522 C 141.667 -1.85422 0.803941 0
M  V30 1523 C 141.988 -1.83051 -0.67211 0
M  V30 1524 O 141.258 -1.27532 -1.48703 0
M  V30 1525 H 139.838 -0.686537 0.294408 0
M  V30 1526 H 142.5 -1.39226 1.3639 0
M  V30 1527 H 141.596 -2.90399 1.14346 0
M  V30 1528 N 141.898 -0.863906 -1.31812 0
M  V30 1529 C 143.145 -0.471836 -1.96926 0
M  V30 1530 C 143.473 0.974578 -1.68322 0
M  V30 1531 O 142.728 1.7003 -0.968933 0
M  V30 1532 C 143.027 -0.668547 -3.51091 0
M  V30 1533 C 142.693 -2.08683 -3.99703 0
M  V30 1534 C 141.355 -2.47471 -4.12688 0
M  V30 1535 C 143.707 -3.01207 -4.25351 0
M  V30 1536 C 141.035 -3.78037 -4.4867 0
M  V30 1537 C 143.387 -4.31282 -4.62794 0
M  V30 1538 C 142.051 -4.69992 -4.73987 0
M  V30 1539 H 141.321 -0.172657 -0.720604 0
M  V30 1540 H 143.968 -1.09573 -1.57054 0
M  V30 1541 H 142.273 0.0385252 -3.91781 0
M  V30 1542 H 143.97 -0.345102 -3.99512 0
M  V30 1543 H 140.56 -1.77566 -3.90087 0
M  V30 1544 H 144.744 -2.72469 -4.14819 0
M  V30 1545 H 140 -4.078 -4.55532 0
M  V30 1546 H 144.174 -5.03031 -4.81594 0
M  V30 1547 H 141.801 -5.71207 -5.01624 0
M  V30 1548 N 143.376 1.44774 -0.622745 0
M  V30 1549 C 144.306 2.33382 0.0741861 0
M  V30 1550 C 145.287 1.47719 0.843387 0
M  V30 1551 O 146.472 1.76458 0.810934 0
M  V30 1552 C 143.602 3.30663 1.06204 0
M  V30 1553 C 142.556 4.26079 0.405037 0
M  V30 1554 C 141.882 5.13165 1.5022 0
M  V30 1555 C 143.182 5.1781 -0.683414 0
M  V30 1556 H 144.876 2.91905 -0.665713 0
M  V30 1557 H 142.422 1.40363 -0.321587 0
M  V30 1558 H 144.375 3.9153 1.55827 0
M  V30 1559 H 143.099 2.70331 1.83272 0
M  V30 1560 H 141.758 3.66532 -0.0704683 0
M  V30 1561 H 141.406 4.49191 2.26355 0
M  V30 1562 H 141.106 5.77812 1.06803 0
M  V30 1563 H 142.63 5.76902 2.00041 0
M  V30 1564 H 144.044 5.72661 -0.270631 0
M  V30 1565 H 142.441 5.91015 -1.04023 0
M  V30 1566 H 143.511 4.59326 -1.55395 0
M  V30 1567 N 144.854 0.36279 1.53368 0
M  V30 1568 C 145.804 -0.501391 2.22419 0
M  V30 1569 C 146.788 -1.0509 1.2184 0
M  V30 1570 O 147.98 -0.981404 1.47301 0
M  V30 1571 C 145.109 -1.64201 3.01484 0
M  V30 1572 C 144.195 -1.10552 4.09438 0
M  V30 1573 N 144.586 -0.291788 5.04958 0
M  V30 1574 C 142.884 -1.3806 4.24094 0
M  V30 1575 C 143.585 0.00162655 5.817 0
M  V30 1576 N 142.561 -0.595244 5.40331 0
M  V30 1577 H 146.363 0.127159 2.93625 0
M  V30 1578 H 143.877 0.170658 1.61501 0
M  V30 1579 H 145.874 -2.27326 3.49469 0
M  V30 1580 H 144.534 -2.27365 2.31809 0
M  V30 1581 H 145.545 0.0687731 5.17854 0
M  V30 1582 H 142.222 -2.01522 3.65644 0
M  V30 1583 H 143.612 0.659278 6.68658 0
M  V30 1584 N 146.332 -1.57332 0.0918853 0
M  V30 1585 C 147.56 -1.98574 -0.581048 0
M  V30 1586 C 147.975 -0.970903 -1.61923 0
M  V30 1587 O 147.332 0.0399054 -1.82456 0
M  V30 1588 C 147.383 -3.39872 -1.23164 0
M  V30 1589 O 147.104 -4.37469 -0.234989 0
M  V30 1590 C 148.605 -3.96099 -1.99049 0
M  V30 1591 H 145.825 -0.65261 -0.156018 0
M  V30 1592 H 148.369 -2.0379 0.170225 0
M  V30 1593 H 146.524 -3.35679 -1.93386 0
M  V30 1594 H 146.938 -5.19751 -0.70418 0
M  V30 1595 H 148.412 -4.97127 -2.39934 0
M  V30 1596 H 148.889 -3.3374 -2.85507 0
M  V30 1597 H 149.495 -4.03755 -1.3365 0
M  V30 1598 N 147.81 0.181792 -1.56548 0
M  V30 1599 C 149.056 0.896803 -1.82562 0
M  V30 1600 C 149.411 1.80324 -0.670908 0
M  V30 1601 O 148.704 1.8868 0.333235 0
M  V30 1602 C 148.898 1.73728 -3.12335 0
M  V30 1603 C 148.727 0.913714 -4.4032 0
M  V30 1604 C 147.497 0.592903 -5.01809 0
M  V30 1605 C 149.695 0.260164 -5.13642 0
M  V30 1606 N 147.677 -0.247901 -6.13399 0
M  V30 1607 C 149.048 -0.442256 -6.18421 0
M  V30 1608 C 151.103 0.177253 -4.97584 0
M  V30 1609 C 149.806 -1.21971 -7.08883 0
M  V30 1610 C 151.832 -0.586839 -5.88481 0
M  V30 1611 C 151.194 -1.27766 -6.92716 0
M  V30 1612 H 147.293 0.307122 -0.719166 0
M  V30 1613 H 149.877 0.164535 -1.94004 0
M  V30 1614 H 148.048 2.44105 -3.02105 0
M  V30 1615 H 149.78 2.39279 -3.26386 0
M  V30 1616 H 146.535 0.920502 -4.64568 0
M  V30 1617 H 146.959 -0.658304 -6.73792 0
M  V30 1618 H 151.601 0.696993 -4.17015 0
M  V30 1619 H 149.319 -1.75083 -7.88905 0
M  V30 1620 H 152.905 -0.652522 -5.78129 0
M  V30 1621 H 151.785 -1.85943 -7.61836 0
M  V30 1622 N 149.288 1.51039 0.449983 0
M  V30 1623 C 150.535 1.63081 1.20045 0
M  V30 1624 C 150.863 0.341024 1.91487 0
M  V30 1625 O 150.118 -0.674276 1.83717 0
M  V30 1626 C 150.417 2.77556 2.25161 0
M  V30 1627 C 150.083 4.17289 1.70823 0
M  V30 1628 C 148.745 4.55305 1.55725 0
M  V30 1629 C 151.097 5.04536 1.3074 0
M  V30 1630 C 148.425 5.78287 0.989999 0
M  V30 1631 C 150.777 6.28085 0.754482 0
M  V30 1632 C 149.441 6.64885 0.590308 0
M  V30 1633 H 148.711 0.596755 0.439277 0
M  V30 1634 H 151.358 1.85037 0.49333 0
M  V30 1635 H 149.663 2.49771 3.01863 0
M  V30 1636 H 151.36 2.84073 2.83026 0
M  V30 1637 H 147.95 3.8731 1.83546 0
M  V30 1638 H 152.134 4.75782 1.41229 0
M  V30 1639 H 147.39 6.05456 0.850451 0
M  V30 1640 H 151.564 6.95038 0.435324 0
M  V30 1641 H 149.191 7.60055 0.14862 0
M  V30 1642 N 150.766 -0.704594 1.40972 0
M  V30 1643 C 151.698 -1.82974 1.38033 0
M  V30 1644 C 152.711 -1.60305 0.283931 0
M  V30 1645 O 153.9 -1.69975 0.545042 0
M  V30 1646 C 151 -3.19578 1.12795 0
M  V30 1647 C 150.173 -3.69352 2.34302 0
M  V30 1648 C 149.232 -4.84601 2.05058 0
M  V30 1649 O 148.258 -4.96682 2.7802 0
M  V30 1650 N 149.46 -5.71194 1.03528 0
M  V30 1651 H 152.225 -1.85991 2.35005 0
M  V30 1652 H 149.786 -0.886567 1.35468 0
M  V30 1653 H 151.778 -3.9429 0.911987 0
M  V30 1654 H 150.348 -3.11642 0.24452 0
M  V30 1655 H 149.568 -2.85649 2.71659 0
M  V30 1656 H 150.856 -3.99345 3.1528 0
M  V30 1657 H 150.254 -5.64054 0.431217 0
M  V30 1658 H 148.811 -6.45843 0.879205 0
M  V30 1659 N 152.244 -1.26651 -0.937939 0
M  V30 1660 C 153.191 -1.0849 -2.03712 0
M  V30 1661 C 154.161 0.011033 -1.66096 0
M  V30 1662 O 155.346 -0.149353 -1.90215 0
M  V30 1663 C 152.486 -0.72735 -3.37348 0
M  V30 1664 C 151.599 -1.89986 -3.87981 0
M  V30 1665 C 150.734 -1.48513 -5.10017 0
M  V30 1666 C 149.773 -2.62575 -5.5292 0
M  V30 1667 N 148.91 -2.21762 -6.66158 0
M  V30 1668 H 153.75 -2.02551 -2.18579 0
M  V30 1669 H 151.287 -1.00844 -1.07093 0
M  V30 1670 H 153.245 -0.50092 -4.14182 0
M  V30 1671 H 151.875 0.176298 -3.22318 0
M  V30 1672 H 150.927 -2.23913 -3.07518 0
M  V30 1673 H 152.239 -2.75586 -4.15757 0
M  V30 1674 H 151.393 -1.21934 -5.94321 0
M  V30 1675 H 150.132 -0.60009 -4.83994 0
M  V30 1676 H 149.137 -2.8988 -4.67172 0
M  V30 1677 H 150.362 -3.51685 -5.80943 0
M  V30 1678 H 148.308 -1.35696 -6.41812 0
M  V30 1679 H 148.225 -3.00903 -6.93537 0
M  V30 1680 H 149.493 -1.98403 -7.53828 0
M  V30 1681 N 153.722 1.14298 -1.08507 0
M  V30 1682 C 154.685 2.17607 -0.719711 0
M  V30 1683 C 155.685 1.58907 0.245997 0
M  V30 1684 O 156.875 1.74181 0.0254081 0
M  V30 1685 C 154.007 3.40842 -0.0627695 0
M  V30 1686 H 155.2 2.51443 -1.63452 0
M  V30 1687 H 152.753 1.28963 -0.88307 0
M  V30 1688 H 153.488 3.12587 0.863716 0
M  V30 1689 H 153.273 3.84713 -0.757504 0
M  V30 1690 H 154.763 4.17221 0.177786 0
M  V30 1691 N 155.201 0.870884 1.31352 0
M  V30 1692 C 156.131 0.343096 2.30966 0
M  V30 1693 C 157.112 -0.566507 1.60389 0
M  V30 1694 O 158.297 -0.483336 1.88089 0
M  V30 1695 C 155.427 -0.455487 3.443 0
M  V30 1696 C 154.381 0.361103 4.26474 0
M  V30 1697 C 153.707 -0.563221 5.31725 0
M  V30 1698 C 155.007 1.59566 4.97329 0
M  V30 1699 H 156.701 1.17548 2.75359 0
M  V30 1700 H 154.247 0.566686 1.32381 0
M  V30 1701 H 156.2 -0.83525 4.13039 0
M  V30 1702 H 154.924 -1.32139 2.98675 0
M  V30 1703 H 153.583 0.722825 3.59403 0
M  V30 1704 H 153.231 -1.42643 4.82351 0
M  V30 1705 H 152.931 -0.0207409 5.87596 0
M  V30 1706 H 154.455 -0.939808 6.03324 0
M  V30 1707 H 155.869 1.28728 5.58661 0
M  V30 1708 H 154.266 2.07728 5.63 0
M  V30 1709 H 155.336 2.34798 4.24262 0
M  V30 1710 N 156.679 -1.44442 0.630414 0
M  V30 1711 C 157.626 -2.30678 -0.0749355 0
M  V30 1712 C 158.596 -1.4344 -0.837502 0
M  V30 1713 O 159.781 -1.72343 -0.818684 0
M  V30 1714 C 156.921 -3.28706 -1.05103 0
M  V30 1715 C 156.034 -4.31046 -0.286954 0
M  V30 1716 C 155.169 -5.16167 -1.2548 0
M  V30 1717 C 154.208 -6.10216 -0.479843 0
M  V30 1718 N 153.345 -6.88039 -1.39811 0
M  V30 1719 H 158.185 -2.90454 0.666386 0
M  V30 1720 H 155.722 -1.43107 0.340404 0
M  V30 1721 H 157.68 -3.84027 -1.63031 0
M  V30 1722 H 156.31 -2.70632 -1.75949 0
M  V30 1723 H 155.362 -3.78203 0.408243 0
M  V30 1724 H 156.674 -4.97794 0.316657 0
M  V30 1725 H 155.828 -5.76002 -1.90544 0
M  V30 1726 H 154.567 -4.49491 -1.89233 0
M  V30 1727 H 153.572 -5.49491 0.184295 0
M  V30 1728 H 154.797 -6.78928 0.152965 0
M  V30 1729 H 152.743 -6.24032 -2.02287 0
M  V30 1730 H 152.66 -7.51223 -0.848508 0
M  V30 1731 H 153.928 -7.52397 -2.03762 0
M  V30 1732 N 158.157 -0.370918 -1.53173 0
M  V30 1733 C 159.405 0.216673 -2.00935 0
M  V30 1734 C 159.726 1.48845 -1.25977 0
M  V30 1735 O 158.996 1.92286 -0.374551 0
M  V30 1736 H 157.576 0.0830565 -0.742368 0
M  V30 1737 H 160.238 -0.49838 -1.8842 0
M  V30 1738 H 159.334 0.439893 -3.08984 0
M  V30 1739 N 159.635 1.57281 -0.100228 0
M  V30 1740 C 160.912 1.86014 0.604812 0
M  V30 1741 C 161.292 0.998025 1.86018 0
M  V30 1742 O 160.64 0.0718184 2.28387 0
M  V30 1743 C 160.85 3.36784 0.915278 0
M  V30 1744 C 162.198 4.04957 1.27651 0
M  V30 1745 O 163.222 3.41695 1.00613 0
M  V30 1746 O 162.081 5.16593 1.7831 0
M  V30 1747 H 159.175 0.76942 0.303185 0
M  V30 1748 H 161.721 1.69176 -0.133313 0
M  V30 1749 H 160.493 3.91292 0.0248896 0
M  V30 1750 H 160.116 3.58987 1.70921 0
M  V30 1751 N 161.113 -0.173488 1.56642 0
M  V30 1752 C 162.524 -0.736155 1.71574 0
M  V30 1753 C 162.875 -1.82888 0.710389 0
M  V30 1754 O 162 -2.16017 -0.1287 0
M  V30 1755 C 162.595 -1.34211 3.11083 0
M  V30 1756 C 161.154 -1.85162 3.27707 0
M  V30 1757 C 160.301 -0.729765 2.67525 0
M  V30 1758 H 163.252 0.0518786 1.58615 0
M  V30 1759 H 163.273 -2.21178 3.09613 0
M  V30 1760 H 162.785 -0.546579 3.84232 0
M  V30 1761 H 160.886 -2.67366 2.59512 0
M  V30 1762 H 160.999 -1.99855 4.35425 0
M  V30 1763 H 159.363 -1.14965 2.27278 0
M  V30 1764 H 160.146 0.0538806 3.43258 0
M  V30 1765 N 162.591 -1.51276 -0.441967 0
M  V30 1766 C 163.541 -1.6864 -1.53442 0
M  V30 1767 C 164.525 -0.540444 -1.51552 0
M  V30 1768 O 165.717 -0.796157 -1.58083 0
M  V30 1769 C 162.846 -1.8106 -2.91672 0
M  V30 1770 C 161.932 -3.01424 -2.98336 0
M  V30 1771 N 162.323 -4.2467 -2.74752 0
M  V30 1772 C 160.621 -3.00584 -3.29493 0
M  V30 1773 C 161.322 -5.05891 -2.87139 0
M  V30 1774 N 160.298 -4.40442 -3.18609 0
M  V30 1775 H 164.1 -2.61598 -1.33954 0
M  V30 1776 H 161.614 -1.4886 -0.6492 0
M  V30 1777 H 163.611 -1.91609 -3.70259 0
M  V30 1778 H 162.271 -0.892795 -3.12185 0
M  V30 1779 H 163.282 -4.53691 -2.49769 0
M  V30 1780 H 159.959 -2.18417 -3.55809 0
M  V30 1781 H 161.349 -6.13983 -2.72899 0
M  V30 1782 N 164.069 0.697108 -1.41344 0
M  V30 1783 C 165.299 1.48377 -1.43763 0
M  V30 1784 C 165.707 1.89156 -0.0408726 0
M  V30 1785 O 165.05 1.57239 0.949812 0
M  V30 1786 C 165.112 2.7781 -2.2817 0
M  V30 1787 C 164.776 2.59244 -3.76353 0
M  V30 1788 C 165.773 2.25292 -4.68551 0
M  V30 1789 C 163.458 2.74933 -4.20378 0
M  V30 1790 C 165.452 2.07264 -6.02761 0
M  V30 1791 C 163.139 2.56521 -5.54653 0
M  V30 1792 C 164.137 2.22737 -6.4566 0
M  V30 1793 O 163.825 2.04485 -7.77458 0
M  V30 1794 H 163.557 0.463842 -0.491759 0
M  V30 1795 H 166.111 0.865934 -1.86255 0
M  V30 1796 H 164.341 3.41995 -1.8049 0
M  V30 1797 H 166.03 3.39608 -2.22309 0
M  V30 1798 H 166.796 2.12787 -4.35829 0
M  V30 1799 H 162.675 3.00213 -3.49848 0
M  V30 1800 H 166.219 1.80817 -6.73759 0
M  V30 1801 H 162.116 2.68616 -5.86955 0
M  V30 1802 H 162.884 2.1926 -7.88586 0
M  V30 1803 N 165.547 1.27147 0.931209 0
M  V30 1804 C 166.963 1.04475 1.20653 0
M  V30 1805 C 167.163 -0.223885 2.00252 0
M  V30 1806 O 166.219 -0.930332 2.34736 0
M  V30 1807 C 167.532 2.28209 1.95809 0
M  V30 1808 C 169.08 2.33211 2.08762 0
M  V30 1809 C 169.555 3.56665 2.87323 0
M  V30 1810 N 171.046 3.57201 2.94892 0
M  V30 1811 C 171.781 4.49395 3.56134 0
M  V30 1812 N 171.277 5.51889 4.18796 0
M  V30 1813 N 173.07 4.37026 3.53504 0
M  V30 1814 H 165.221 2.08612 0.399333 0
M  V30 1815 H 167.484 0.917312 0.239253 0
M  V30 1816 H 167.19 3.20538 1.44736 0
M  V30 1817 H 167.064 2.33247 2.96438 0
M  V30 1818 H 169.451 1.41391 2.59023 0
M  V30 1819 H 169.532 2.32178 1.07364 0
M  V30 1820 H 169.176 4.4882 2.37746 0
M  V30 1821 H 169.106 3.54948 3.88998 0
M  V30 1822 H 171.597 2.83074 2.50354 0
M  V30 1823 H 171.91 6.18409 4.63454 0
M  V30 1824 H 170.255 5.55735 4.17353 0
M  V30 1825 H 173.446 3.56166 3.03749 0
M  V30 1826 H 173.619 5.09067 4.00942 0
M  V30 1827 N 167.025 -1.13721 1.09112 0
M  V30 1828 C 168.302 -1.81155 0.737706 0
M  V30 1829 C 168.682 -1.96253 -0.777683 0
M  V30 1830 O 168.03 -1.52807 -1.69889 0
M  V30 1831 C 168.24 -3.16392 1.47299 0
M  V30 1832 C 169.588 -3.91787 1.63671 0
M  V30 1833 O 170.612 -3.26005 1.43524 0
M  V30 1834 O 169.471 -5.0977 1.96969 0
M  V30 1835 H 166.565 -0.783518 0.26463 0
M  V30 1836 H 169.111 -1.20676 1.19312 0
M  V30 1837 H 167.883 -3.0061 2.50498 0
M  V30 1838 H 167.506 -3.8457 1.00953 0
M  V30 1839 N 168.503 -0.877838 -1.30888 0
M  V30 1840 C 169.733 -0.506678 -2.00291 0
M  V30 1841 C 170.141 0.907449 -1.66018 0
M  V30 1842 O 169.484 1.60719 -0.88967 0
M  V30 1843 C 169.546 -0.59323 -3.54572 0
M  V30 1844 C 169.21 -1.97038 -4.12341 0
M  V30 1845 C 170.207 -2.93889 -4.28865 0
M  V30 1846 C 167.892 -2.27383 -4.47886 0
M  V30 1847 C 169.886 -4.19224 -4.80136 0
M  V30 1848 C 167.573 -3.52965 -4.98857 0
M  V30 1849 C 168.571 -4.48701 -5.14934 0
M  V30 1850 O 168.259 -5.72056 -5.64808 0
M  V30 1851 H 167.991 -0.1951 -0.647234 0
M  V30 1852 H 170.545 -1.18301 -1.6791 0
M  V30 1853 H 168.775 0.140057 -3.86446 0
M  V30 1854 H 170.464 -0.234372 -4.05223 0
M  V30 1855 H 171.23 -2.71756 -4.01714 0
M  V30 1856 H 167.109 -1.53639 -4.34645 0
M  V30 1857 H 170.653 -4.93956 -4.92599 0
M  V30 1858 H 166.55 -3.74939 -5.25443 0
M  V30 1859 H 167.318 -5.74337 -5.83163 0
M  V30 1860 N 169.982 1.44106 -0.638065 0
M  V30 1861 C 171.212 2.06037 -0.152394 0
M  V30 1862 C 171.62 1.47808 1.18108 0
M  V30 1863 O 170.963 0.598092 1.73691 0
M  V30 1864 C 171.025 3.59488 0.0293714 0
M  V30 1865 C 170.689 4.4022 -1.22702 0
M  V30 1866 C 171.686 4.73256 -2.15232 0
M  V30 1867 C 169.371 4.8048 -1.46437 0
M  V30 1868 C 171.365 5.45444 -3.29802 0
M  V30 1869 C 169.052 5.52417 -2.61303 0
M  V30 1870 C 170.05 5.84819 -3.52811 0
M  V30 1871 O 169.738 6.55289 -4.65673 0
M  V30 1872 H 169.47 0.671233 -0.0801401 0
M  V30 1873 H 172.024 1.85851 -0.874563 0
M  V30 1874 H 170.254 3.78191 0.806758 0
M  V30 1875 H 171.943 4.03164 0.470475 0
M  V30 1876 H 172.709 4.42684 -1.98131 0
M  V30 1877 H 168.588 4.54676 -0.760977 0
M  V30 1878 H 172.132 5.70653 -4.01249 0
M  V30 1879 H 168.029 5.82404 -2.78344 0
M  V30 1880 H 168.797 6.73762 -4.64744 0
M  V30 1881 N 171.46 0.379036 1.52974 0
M  V30 1882 C 172.706 -0.206727 2.01744 0
M  V30 1883 C 173.039 -1.47314 1.26539 0
M  V30 1884 O 172.314 -1.91084 0.362903 0
M  V30 1885 C 172.597 -0.485066 3.56818 0
M  V30 1886 C 172.45 0.795919 4.42702 0
M  V30 1887 C 173.769 -1.28003 4.21074 0
M  V30 1888 H 170.888 -0.0736607 0.73331 0
M  V30 1889 H 173.53 0.506581 1.83122 0
M  V30 1890 H 171.68 -1.09272 3.72816 0
M  V30 1891 H 173.352 1.43307 4.38476 0
M  V30 1892 H 171.595 1.41344 4.10127 0
M  V30 1893 H 172.266 0.555947 5.49193 0
M  V30 1894 H 174.742 -0.765867 4.08991 0
M  V30 1895 H 173.618 -1.44352 5.29579 0
M  V30 1896 H 173.879 -2.29236 3.78026 0
M  V30 1897 N 172.938 -1.57226 0.108567 0
M  V30 1898 C 174.184 -1.95919 -0.546564 0
M  V30 1899 C 174.539 -0.990417 -1.6495 0
M  V30 1900 O 173.832 -0.0186593 -1.91591 0
M  V30 1901 C 174.026 -3.38911 -1.13463 0
M  V30 1902 C 173.855 -4.4961 -0.0901926 0
M  V30 1903 C 172.625 -5.04168 0.338008 0
M  V30 1904 C 174.823 -5.09693 0.686808 0
M  V30 1905 N 172.805 -5.98434 1.36931 0
M  V30 1906 C 174.176 -5.99804 1.56958 0
M  V30 1907 C 176.231 -4.92388 0.738846 0
M  V30 1908 C 174.934 -6.74463 2.49983 0
M  V30 1909 C 176.96 -5.67719 1.65676 0
M  V30 1910 C 176.322 -6.57507 2.52713 0
M  V30 1911 H 172.421 -0.763312 -0.169936 0
M  V30 1912 H 175.005 -1.93728 0.194264 0
M  V30 1913 H 173.176 -3.41769 -1.84522 0
M  V30 1914 H 174.908 -3.64752 -1.75322 0
M  V30 1915 H 171.663 -4.73571 -0.0523673 0
M  V30 1916 H 172.087 -6.5027 1.88356 0
M  V30 1917 H 176.729 -4.22724 0.080084 0
M  V30 1918 H 174.447 -7.4338 3.16878 0
M  V30 1919 H 178.033 -5.56338 1.70233 0
M  V30 1920 H 176.913 -7.14778 3.22586 0
M  V30 1921 N 174.416 0.165178 -1.56732 0
M  V30 1922 C 175.379 1.18822 -1.95995 0
M  V30 1923 C 176.379 1.3685 -0.84431 0
M  V30 1924 O 177.569 1.34152 -1.11126 0
M  V30 1925 C 174.701 2.5521 -2.26011 0
M  V30 1926 H 175.894 0.851825 -2.87548 0
M  V30 1927 H 173.447 0.407857 -1.50885 0
M  V30 1928 H 174.182 2.93852 -1.37191 0
M  V30 1929 H 173.967 2.43489 -3.07336 0
M  V30 1930 H 175.457 3.28927 -2.57288 0
M  V30 1931 N 175.894 1.51508 0.433938 0
M  V30 1932 C 176.842 1.73646 1.54757 0
M  V30 1933 C 177.836 0.602854 1.5831 0
M  V30 1934 O 179.042 0.784318 1.62014 0
M  V30 1935 H 175.417 0.548718 0.51421 0
M  V30 1936 H 177.388 2.66991 1.33261 0
M  V30 1937 C 176.137 1.88172 2.92381 0
M  V30 1938 H 175.46 2.74808 2.90381 0
M  V30 1939 H 176.9 2.07672 3.6966 0
M  V30 1940 C 175.359 0.64239 3.30719 0
M  V30 1941 O 175.889 -0.201362 4.01195 0
M  V30 1942 N 174.095 0.485489 2.86516 0
M  V30 1943 H 173.642 1.17318 2.29334 0
M  V30 1944 H 173.6 -0.342482 3.12529 0
M  V30 1945 N 177.372 -0.689602 1.41712 0
M  V30 1946 C 178.319 -1.80345 1.44029 0
M  V30 1947 C 179.289 -1.63478 0.293948 0
M  V30 1948 O 180.474 -1.84244 0.495869 0
M  V30 1949 C 177.614 -3.18272 1.33405 0
M  V30 1950 C 176.727 -3.46529 2.57956 0
M  V30 1951 C 175.862 -4.74103 2.39582 0
M  V30 1952 C 174.901 -4.95347 3.5958 0
M  V30 1953 N 174.038 -6.14151 3.40239 0
M  V30 1954 H 178.878 -1.77698 2.39222 0
M  V30 1955 H 176.415 -0.867688 1.18784 0
M  V30 1956 H 178.373 -3.97956 1.25246 0
M  V30 1957 H 177.003 -3.2008 0.418164 0
M  V30 1958 H 176.055 -2.61207 2.76542 0
M  V30 1959 H 177.367 -3.58126 3.47199 0
M  V30 1960 H 176.521 -5.61853 2.28924 0
M  V30 1961 H 175.26 -4.64763 1.47805 0
M  V30 1962 H 174.265 -4.06044 3.70686 0
M  V30 1963 H 175.49 -5.06542 4.52318 0
M  V30 1964 H 173.436 -6.06013 2.51167 0
M  V30 1965 H 173.353 -6.26543 4.23061 0
M  V30 1966 H 174.621 -7.04619 3.33365 0
M  V30 1967 N 178.85 -1.27639 -0.924453 0
M  V30 1968 C 179.76 -1.12466 -2.05885 0
M  V30 1969 C 180.776 -0.053869 -1.73917 0
M  V30 1970 O 181.952 -0.261012 -1.99702 0
M  V30 1971 C 179.017 -0.776768 -3.37886 0
M  V30 1972 C 178.078 -1.92878 -3.83532 0
M  V30 1973 C 177.311 -1.59739 -5.09234 0
M  V30 1974 O 177.534 -0.506782 -5.68144 0
M  V30 1975 O 176.468 -2.43761 -5.50331 0
M  V30 1976 H 180.294 -2.07671 -2.21599 0
M  V30 1977 H 177.879 -1.06857 -1.04413 0
M  V30 1978 H 179.761 -0.596229 -4.17161 0
M  V30 1979 H 178.436 0.145732 -3.23372 0
M  V30 1980 H 177.343 -2.1644 -3.0513 0
M  V30 1981 H 178.676 -2.8316 -4.02593 0
M  V30 1982 N 180.328 1.1314 -1.09713 0
M  V30 1983 C 181.556 1.88321 -0.856898 0
M  V30 1984 C 181.971 1.79276 0.592073 0
M  V30 1985 O 181.328 1.16142 1.40774 0
M  V30 1986 C 181.379 3.37812 -1.28706 0
M  V30 1987 O 181.1 3.46627 -2.67921 0
M  V30 1988 C 182.601 4.29952 -1.07964 0
M  V30 1989 H 179.821 0.596094 -0.308079 0
M  V30 1990 H 182.365 1.43205 -1.45988 0
M  V30 1991 H 180.52 3.805 -0.727912 0
M  V30 1992 H 180.934 4.39579 -2.8613 0
M  V30 1993 H 182.408 5.33159 -1.42986 0
M  V30 1994 H 182.885 4.39196 -0.0176577 0
M  V30 1995 H 183.491 3.93036 -1.62489 0
M  V30 1996 N 181.806 0.884767 1.30421 0
M  V30 1997 C 183.083 0.423185 1.90967 0
M  V30 1998 C 183.463 -1.09605 1.80416 0
M  V30 1999 O 182.811 -1.93126 1.22125 0
M  V30 2000 C 183.021 0.921056 3.36627 0
M  V30 2001 C 184.369 0.955903 4.137 0
M  V30 2002 O 185.393 0.867706 3.4547 0
M  V30 2003 O 184.252 1.08614 5.35598 0
M  V30 2004 H 181.346 0.129369 0.816819 0
M  V30 2005 H 183.892 0.973653 1.3899 0
M  V30 2006 H 182.664 1.96489 3.3839 0
M  V30 2007 H 182.287 0.349741 3.96059 0
M  V30 2008 N 183.284 -1.43765 0.645699 0
M  V30 2009 C 184.214 -2.33471 -0.0370477 0
M  V30 2010 C 185.195 -1.49042 -0.819779 0
M  V30 2011 O 186.38 -1.77726 -0.782758 0
M  V30 2012 C 183.51 -3.32311 -1.0093 0
M  V30 2013 C 182.464 -4.2667 -0.337201 0
M  V30 2014 C 181.79 -5.1549 -1.42037 0
M  V30 2015 C 183.09 -5.16657 0.765706 0
M  V30 2016 H 184.784 -2.90809 0.712069 0
M  V30 2017 H 182.33 -1.39834 0.343876 0
M  V30 2018 H 184.283 -3.9396 -1.49578 0
M  V30 2019 H 183.007 -2.73213 -1.78948 0
M  V30 2020 H 181.666 -3.66374 0.128771 0
M  V30 2021 H 181.314 -4.52735 -2.1918 0
M  V30 2022 H 181.014 -5.79438 -0.975966 0
M  V30 2023 H 182.538 -5.80012 -1.90838 0
M  V30 2024 H 183.952 -5.72158 0.361702 0
M  V30 2025 H 182.349 -5.89286 1.13413 0
M  V30 2026 H 183.419 -4.56796 1.62683 0
M  V30 2027 N 184.763 -0.387143 -1.52771 0
M  V30 2028 C 186.04 0.253197 -1.93954 0
M  V30 2029 C 186.42 1.64545 -1.32243 0
M  V30 2030 O 185.768 2.23191 -0.489699 0
M  V30 2031 C 185.978 0.281722 -3.47861 0
M  V30 2032 C 187.326 0.511715 -4.21505 0
M  V30 2033 O 188.35 0.362023 -3.54356 0
M  V30 2034 O 187.209 0.804847 -5.40541 0
M  V30 2035 H 184.303 0.156845 -0.811991 0
M  V30 2036 H 186.849 -0.441494 -1.63856 0
M  V30 2037 H 185.621 -0.693571 -3.85104 0
M  V30 2038 H 185.244 1.02142 -3.84256 0
M  V30 2039 N 186.241 1.57166 -0.116904 0
M  V30 2040 C 187.151 2.18745 0.847812 0
M  V30 2041 C 188.167 1.163 1.29423 0
M  V30 2042 O 189.343 1.48761 1.35765 0
M  V30 2043 C 186.408 2.77307 2.0809 0
M  V30 2044 C 185.469 3.94781 1.68661 0
M  V30 2045 C 184.702 4.50541 2.86091 0
M  V30 2046 O 184.925 4.05202 4.01456 0
M  V30 2047 O 183.859 5.41256 2.63298 0
M  V30 2048 H 187.685 3.01632 0.353778 0
M  V30 2049 H 185.27 1.49005 0.108599 0
M  V30 2050 H 187.152 3.14647 2.80313 0
M  V30 2051 H 185.827 1.97452 2.56504 0
M  V30 2052 H 184.734 3.62214 0.935518 0
M  V30 2053 H 186.067 4.76065 1.24991 0
M  V30 2054 N 187.719 -0.156864 1.56817 0
M  V30 2055 C 189.135 -0.50916 1.5126 0
M  V30 2056 C 189.335 -1.83897 0.823658 0
M  V30 2057 O 188.391 -2.49469 0.390055 0
M  V30 2058 C 189.704 -0.52857 2.96018 0
M  V30 2059 C 191.252 -0.614771 3.06903 0
M  V30 2060 C 191.727 -0.664938 4.53147 0
M  V30 2061 N 193.218 -0.727433 4.57452 0
M  V30 2062 C 193.953 -0.787067 5.67973 0
M  V30 2063 N 193.449 -0.806649 6.88088 0
M  V30 2064 N 195.242 -0.827195 5.5598 0
M  V30 2065 H 187.393 0.714935 2.00006 0
M  V30 2066 H 189.656 0.259526 0.911784 0
M  V30 2067 H 189.362 0.380154 3.49639 0
M  V30 2068 H 189.236 -1.36998 3.51442 0
M  V30 2069 H 191.623 -1.51392 2.53307 0
M  V30 2070 H 191.704 0.253597 2.5454 0
M  V30 2071 H 191.348 0.230011 5.07379 0
M  V30 2072 H 191.278 -1.54966 5.03282 0
M  V30 2073 H 193.769 -0.719998 3.70978 0
M  V30 2074 H 194.082 -0.853727 7.6807 0
M  V30 2075 H 192.427 -0.774687 6.90669 0
M  V30 2076 H 195.618 -0.808998 4.61056 0
M  V30 2077 H 195.791 -0.870206 6.4213 0
M  V30 2078 N 189.197 -1.51736 -0.425897 0
M  V30 2079 C 190.613 -1.40166 -0.76326 0
M  V30 2080 C 190.813 -0.492962 -1.95377 0
M  V30 2081 O 189.869 0.0475815 -2.52455 0
M  V30 2082 C 191.182 -2.82403 -1.03291 0
M  V30 2083 C 192.73 -2.91632 -1.13665 0
M  V30 2084 C 193.205 -4.34801 -1.43916 0
M  V30 2085 N 194.696 -4.3796 -1.50816 0
M  V30 2086 C 195.431 -5.4578 -1.75817 0
M  V30 2087 N 194.927 -6.63744 -1.98534 0
M  V30 2088 N 196.72 -5.33274 -1.77694 0
M  V30 2089 H 188.871 -2.09361 0.358 0
M  V30 2090 H 191.134 -0.942941 0.0978094 0
M  V30 2091 H 190.84 -3.50943 -0.230696 0
M  V30 2092 H 190.714 -3.22428 -1.95754 0
M  V30 2093 H 193.101 -2.23284 -1.92947 0
M  V30 2094 H 193.182 -2.55088 -0.190756 0
M  V30 2095 H 192.826 -5.03703 -0.65157 0
M  V30 2096 H 192.756 -4.68868 -2.39729 0
M  V30 2097 H 195.247 -3.52919 -1.35118 0
M  V30 2098 H 195.56 -7.41704 -2.17013 0
M  V30 2099 H 193.905 -6.66839 -1.95832 0
M  V30 2100 H 197.096 -4.40098 -1.59473 0
M  V30 2101 H 197.269 -6.1738 -1.9684 0
M  V30 2102 N 190.675 0.682077 -1.42076 0
M  V30 2103 C 191.585 1.82535 -1.47371 0
M  V30 2104 C 192.601 1.7017 -0.363079 0
M  V30 2105 O 193.777 1.91848 -0.612875 0
M  V30 2106 C 190.842 3.18624 -1.36674 0
M  V30 2107 C 189.903 3.42999 -2.58167 0
M  V30 2108 C 189.136 4.72595 -2.4797 0
M  V30 2109 O 189.359 5.50006 -1.5116 0
M  V30 2110 O 188.293 4.98054 -3.37974 0
M  V30 2111 H 192.119 1.81023 -2.43853 0
M  V30 2112 H 189.704 0.836887 -1.2376 0
M  V30 2113 H 191.586 3.99847 -1.33043 0
M  V30 2114 H 190.261 3.20789 -0.433138 0
M  V30 2115 H 189.168 2.61653 -2.67373 0
M  V30 2116 H 190.501 3.45659 -3.50401 0
M  V30 2117 N 192.153 1.28127 0.917671 0
M  V30 2118 C 193.399 1.16232 1.66918 0
M  V30 2119 C 193.754 -0.28701 1.90247 0
M  V30 2120 O 193.047 -1.20586 1.48895 0
M  V30 2121 C 193.241 1.89018 3.03327 0
M  V30 2122 C 193.07 3.4088 2.9331 0
M  V30 2123 C 191.84 4.10214 2.95047 0
M  V30 2124 C 194.038 4.36689 2.71675 0
M  V30 2125 N 192.02 5.48571 2.75577 0
M  V30 2126 C 193.391 5.62382 2.6101 0
M  V30 2127 C 195.446 4.26661 2.56641 0
M  V30 2128 C 194.149 6.79189 2.36843 0
M  V30 2129 C 196.175 5.432 2.33853 0
M  V30 2130 C 195.537 6.67855 2.23939 0
M  V30 2131 H 191.636 0.48024 0.617166 0
M  V30 2132 H 194.22 1.61727 1.08409 0
M  V30 2133 H 192.391 1.45963 3.59929 0
M  V30 2134 H 194.123 1.69541 3.67475 0
M  V30 2135 H 190.878 3.61762 3.05655 0
M  V30 2136 H 191.302 6.21287 2.68945 0
M  V30 2137 H 195.944 3.30998 2.63059 0
M  V30 2138 H 193.662 7.74926 2.29164 0
M  V30 2139 H 197.248 5.37328 2.23091 0
M  V30 2140 H 196.128 7.56511 2.06546 0
M  V30 2141 N 193.631 -1.12557 1.10312 0
M  V30 2142 C 194.908 -1.80363 0.756878 0
M  V30 2143 C 195.288 -1.97067 -0.756824 0
M  V30 2144 O 194.636 -1.54601 -1.68259 0
M  V30 2145 C 194.846 -3.14812 1.50647 0
M  V30 2146 C 196.194 -3.90029 1.67817 0
M  V30 2147 O 197.218 -3.24464 1.46974 0
M  V30 2148 O 196.077 -5.07652 2.02365 0
M  V30 2149 H 193.171 -0.780667 0.272926 0
M  V30 2150 H 195.717 -1.19404 1.20586 0
M  V30 2151 H 194.489 -2.97936 2.53672 0
M  V30 2152 H 194.112 -3.83478 1.05026 0
M  V30 2153 N 195.109 -0.891671 -1.2995 0
M  V30 2154 C 196.357 -0.512486 -1.95494 0
M  V30 2155 C 196.678 0.942776 -1.70695 0
M  V30 2156 O 195.948 1.66374 -1.03424 0
M  V30 2157 H 194.528 -0.186533 -0.723336 0
M  V30 2158 H 197.19 -1.13621 -1.58355 0
M  V30 2159 H 196.286 -0.688342 -3.04415 0
M  V30 2160 N 196.587 1.43421 -0.653314 0
M  V30 2161 C 197.497 2.34568 0.0388565 0
M  V30 2162 C 198.513 1.53888 0.81207 0
M  V30 2163 O 199.689 1.86539 0.759294 0
M  V30 2164 C 196.754 3.32167 0.993269 0
M  V30 2165 C 195.815 4.28751 0.216977 0
M  V30 2166 C 195.048 5.21688 1.12593 0
M  V30 2167 O 195.271 5.19052 2.36519 0
M  V30 2168 O 194.205 5.98919 0.598284 0
M  V30 2169 H 198.031 2.95251 -0.711386 0
M  V30 2170 H 195.616 1.43564 -0.413502 0
M  V30 2171 H 197.498 3.92183 1.54176 0
M  V30 2172 H 196.173 2.73987 1.72374 0
M  V30 2173 H 195.08 3.72215 -0.375101 0
M  V30 2174 H 196.413 4.89913 -0.473924 0
M  V30 2175 N 198.065 0.39524 1.52563 0
M  V30 2176 C 199.012 -0.437036 2.26624 0
M  V30 2177 C 199.982 -1.05281 1.28472 0
M  V30 2178 O 201.167 -1.07971 1.57311 0
M  V30 2179 C 198.307 -1.55524 3.08069 0
M  V30 2180 C 197.42 -0.961745 4.21158 0
M  V30 2181 C 196.555 -2.05149 4.89987 0
M  V30 2182 C 195.594 -1.4342 5.95061 0
M  V30 2183 N 194.731 -2.46351 6.57462 0
M  V30 2184 H 199.571 0.200976 2.97322 0
M  V30 2185 H 197.108 0.110944 1.46681 0
M  V30 2186 H 199.066 -2.21437 3.53584 0
M  V30 2187 H 197.696 -2.16348 2.3957 0
M  V30 2188 H 196.748 -0.192048 3.79915 0
M  V30 2189 H 198.06 -0.470701 4.96574 0
M  V30 2190 H 197.214 -2.78819 5.38837 0
M  V30 2191 H 195.953 -2.57615 4.14109 0
M  V30 2192 H 194.958 -0.682774 5.45544 0
M  V30 2193 H 196.183 -0.917416 6.72875 0
M  V30 2194 H 194.129 -2.97975 5.8442 0
M  V30 2195 H 194.046 -2.02019 7.28508 0
M  V30 2196 H 195.314 -3.19633 7.10954 0
M  V30 2197 N 199.544 -1.57102 0.125237 0
M  V30 2198 C 200.793 -1.94582 -0.531095 0
M  V30 2199 C 201.106 -1.01126 -1.6743 0
M  V30 2200 O 202.312 -1.28097 -2.39381 0
M  V30 2201 C 200.768 -3.45839 -0.996164 0
M  V30 2202 C 200.376 -4.47842 0.118926 0
M  V30 2203 C 202.12 -3.92227 -1.62352 0
M  V30 2204 C 200.027 -5.90284 -0.363192 0
M  V30 2205 H 198.957 -0.726391 -0.20217 0
M  V30 2206 H 201.608 -1.82339 0.206092 0
M  V30 2207 H 199.99 -3.53338 -1.78796 0
M  V30 2208 H 201.164 -4.52018 0.895358 0
M  V30 2209 H 199.479 -4.11243 0.653324 0
M  V30 2210 H 202.076 -4.96069 -1.99548 0
M  V30 2211 H 202.419 -3.32552 -2.50429 0
M  V30 2212 H 202.952 -3.87554 -0.897019 0
M  V30 2213 H 199.691 -6.53728 0.481679 0
M  V30 2214 H 199.211 -5.89515 -1.10597 0
M  V30 2215 H 200.89 -6.41752 -0.822377 0
M  V30 2216 N 201.022 0.148545 -1.56898 0
M  V30 2217 C 202.268 0.857877 -1.84424 0
M  V30 2218 C 202.623 1.7886 -0.709006 0
M  V30 2219 O 201.916 1.89344 0.293139 0
M  V30 2220 C 202.11 1.67064 -3.1595 0
M  V30 2221 C 201.939 0.82011 -4.42159 0
M  V30 2222 C 200.709 0.486328 -5.02954 0
M  V30 2223 C 202.907 0.151155 -5.14078 0
M  V30 2224 N 200.889 -0.377956 -6.12735 0
M  V30 2225 C 202.26 -0.573333 -6.17343 0
M  V30 2226 C 204.315 0.0716685 -4.97848 0
M  V30 2227 C 203.018 -1.3698 -7.06137 0
M  V30 2228 C 205.044 -0.711532 -5.87104 0
M  V30 2229 C 204.406 -1.42431 -6.8985 0
M  V30 2230 H 200.505 0.291798 -0.725519 0
M  V30 2231 H 203.089 0.123347 -1.94309 0
M  V30 2232 H 201.26 2.37642 -3.07215 0
M  V30 2233 H 202.992 2.32302 -3.31388 0
M  V30 2234 H 199.747 0.821753 -4.66416 0
M  V30 2235 H 200.171 -0.801077 -6.72244 0
M  V30 2236 H 204.813 0.608381 -4.184 0
M  V30 2237 H 202.531 -1.91778 -7.85014 0
M  V30 2238 H 206.117 -0.775005 -5.76615 0
M  V30 2239 H 204.997 -2.02061 -7.57721 0
M  V30 2240 N 202.5 1.5196 0.417844 0
M  V30 2241 C 203.45 1.7106 1.5074 0
M  V30 2242 C 204.434 0.564487 1.50673 0
M  V30 2243 O 205.626 0.821206 1.56797 0
M  V30 2244 C 202.755 1.85677 2.88754 0
M  V30 2245 C 201.841 3.06133 2.93502 0
M  V30 2246 N 202.232 4.28987 2.67962 0
M  V30 2247 C 200.53 3.05787 3.24669 0
M  V30 2248 C 201.231 5.10395 2.79055 0
M  V30 2249 N 200.207 4.45455 3.11561 0
M  V30 2250 H 204.009 2.63696 1.29775 0
M  V30 2251 H 201.523 1.49873 0.625436 0
M  V30 2252 H 203.52 1.97475 3.67164 0
M  V30 2253 H 202.18 0.942348 3.10725 0
M  V30 2254 H 203.191 4.57607 2.4252 0
M  V30 2255 H 199.868 2.2405 3.52289 0
M  V30 2256 H 201.258 6.18247 2.63097 0
M  V30 2257 N 203.978 -0.674533 1.42435 0
M  V30 2258 C 205.389 -1.25514 1.38214 0
M  V30 2259 C 205.74 -1.96055 0.0755464 0
M  V30 2260 O 204.865 -2.00028 -0.8257 0
M  V30 2261 C 205.46 -2.28269 2.50357 0
M  V30 2262 C 204.019 -2.81856 2.49467 0
M  V30 2263 C 203.166 -1.56182 2.29134 0
M  V30 2264 H 206.117 -0.467902 1.51646 0
M  V30 2265 H 206.138 -3.10009 2.20624 0
M  V30 2266 H 205.65 -1.769 3.45439 0
M  V30 2267 H 203.751 -3.37346 1.58204 0
M  V30 2268 H 203.864 -3.30854 3.46515 0
M  V30 2269 H 202.228 -1.82761 1.774 0
M  V30 2270 H 203.011 -1.06778 3.26272 0
M  V30 2271 N 205.456 -1.28612 -0.910864 0
M  V30 2272 C 206.386 -1.15326 -2.03032 0
M  V30 2273 C 207.367 -0.0502924 -1.70026 0
M  V30 2274 O 208.552 -0.227797 -1.92859 0
M  V30 2275 C 205.682 -0.817343 -3.37545 0
M  V30 2276 C 204.636 -1.8754 -3.84724 0
M  V30 2277 C 203.962 -1.39305 -5.16235 0
M  V30 2278 C 205.262 -3.28244 -4.06267 0
M  V30 2279 H 206.956 -2.08975 -2.14406 0
M  V30 2280 H 204.502 -1.00612 -1.03021 0
M  V30 2281 H 206.455 -0.711151 -4.15356 0
M  V30 2282 H 205.179 0.154846 -3.26233 0
M  V30 2283 H 203.838 -1.97079 -3.09121 0
M  V30 2284 H 203.486 -0.409846 -5.01328 0
M  V30 2285 H 203.186 -2.10057 -5.48771 0
M  V30 2286 H 204.71 -1.30014 -5.96598 0
M  V30 2287 H 206.124 -3.21611 -4.74594 0
M  V30 2288 H 204.521 -3.96855 -4.5014 0
M  V30 2289 H 205.591 -3.72048 -3.10979 0
M  V30 2290 N 206.934 1.1197 -1.10907 0
M  V30 2291 C 207.844 2.21433 -0.774896 0
M  V30 2292 C 208.86 1.72478 0.229657 0
M  V30 2293 O 210.036 2.01288 0.0672008 0
M  V30 2294 C 207.101 3.4602 -0.216986 0
M  V30 2295 C 206.162 4.09791 -1.27944 0
M  V30 2296 C 205.395 5.28431 -0.748055 0
M  V30 2297 O 205.618 5.68823 0.423833 0
M  V30 2298 O 204.552 5.82644 -1.51027 0
M  V30 2299 H 208.378 2.5242 -1.68873 0
M  V30 2300 H 205.963 1.20399 -0.884555 0
M  V30 2301 H 207.845 4.21304 0.090059 0
M  V30 2302 H 206.52 3.16698 0.669633 0
M  V30 2303 H 205.427 3.36265 -1.63941 0
M  V30 2304 H 206.76 4.4328 -2.13925 0
M  V30 2305 N 208.412 0.89855 1.29475 0
M  V30 2306 C 209.689 0.443416 1.90508 0
M  V30 2307 C 210.069 -1.07685 1.81569 0
M  V30 2308 O 209.417 -1.9182 1.24166 0
M  V30 2309 C 209.627 0.956708 3.35631 0
M  V30 2310 C 210.975 0.999728 4.12663 0
M  V30 2311 O 211.999 0.904299 3.4453 0
M  V30 2312 O 210.858 1.14289 5.34416 0
M  V30 2313 H 207.952 0.138025 0.815401 0
M  V30 2314 H 210.498 0.98834 1.37949 0
M  V30 2315 H 209.27 2.00067 3.36287 0
M  V30 2316 H 208.893 0.391728 3.95666 0
M  V30 2317 N 209.89 -1.43072 0.660911 0
M  V30 2318 C 211.138 -2.01323 0.177094 0
M  V30 2319 C 211.459 -1.5245 -1.2159 0
M  V30 2320 O 210.729 -0.740322 -1.81373 0
M  V30 2321 H 209.309 -0.744382 0.0624804 0
M  V30 2322 H 211.971 -1.75179 0.854305 0
M  V30 2323 H 211.067 -3.11649 0.167641 0
M  V30 2324 N 211.368 -0.403325 -1.52352 0
M  V30 2325 C 212.784 -0.0539281 -1.59509 0
M  V30 2326 C 212.984 1.43307 -1.41652 0
M  V30 2327 O 212.04 2.19924 -1.24056 0
M  V30 2328 C 213.353 -0.543654 -2.95745 0
M  V30 2329 C 214.901 -0.501125 -3.08962 0
M  V30 2330 C 215.376 -0.967267 -4.47669 0
M  V30 2331 N 216.867 -0.923849 -4.53893 0
M  V30 2332 C 217.602 -1.25578 -5.5948 0
M  V30 2333 N 217.098 -1.65889 -6.72646 0
M  V30 2334 N 218.891 -1.17613 -5.49658 0
M  V30 2335 H 211.042 -1.37123 -1.62206 0
M  V30 2336 H 213.305 -0.56294 -0.76276 0
M  V30 2337 H 213.011 -1.58275 -3.14073 0
M  V30 2338 H 212.885 0.0498042 -3.77167 0
M  V30 2339 H 215.272 0.528909 -2.90321 0
M  V30 2340 H 215.353 -1.13056 -2.2946 0
M  V30 2341 H 214.997 -1.9956 -4.67053 0
M  V30 2342 H 214.927 -0.314698 -5.25659 0
M  V30 2343 H 217.418 -0.627403 -3.72655 0
M  V30 2344 H 217.731 -1.89543 -7.49195 0
M  V30 2345 H 216.076 -1.69787 -6.73942 0
M  V30 2346 H 219.267 -0.860115 -4.6013 0
M  V30 2347 H 219.44 -1.43812 -6.3184 0
M  V30 2348 N 212.846 1.57033 -0.133567 0
M  V30 2349 C 214.093 1.95686 0.520877 0
M  V30 2350 C 214.421 1.0177 1.6575 0
M  V30 2351 O 213.676 0.0443195 1.9565 0
M  V30 2352 C 213.975 3.40674 1.08057 0
M  V30 2353 C 213.641 4.50855 0.0637899 0
M  V30 2354 C 212.303 4.80716 -0.215757 0
M  V30 2355 C 214.655 5.17398 -0.62835 0
M  V30 2356 C 211.983 5.74433 -1.19348 0
M  V30 2357 C 214.335 6.12167 -1.5948 0
M  V30 2358 C 212.999 6.40414 -1.88218 0
M  V30 2359 H 212.269 0.716067 0.190602 0
M  V30 2360 H 214.916 1.9026 -0.217556 0
M  V30 2361 H 213.221 3.42865 1.89606 0
M  V30 2362 H 214.918 3.67902 1.59529 0
M  V30 2363 H 211.508 4.27605 0.291855 0
M  V30 2364 H 215.692 4.94472 -0.425562 0
M  V30 2365 H 210.948 5.94616 -1.42272 0
M  V30 2366 H 215.122 6.6281 -2.13671 0
M  V30 2367 H 212.749 7.12838 -2.64133 0
M  V30 2368 N 214.325 -0.140222 1.56975 0
M  V30 2369 C 215.555 -0.865181 1.87612 0
M  V30 2370 C 215.963 -1.74942 0.72055 0
M  V30 2371 O 215.306 -1.80917 -0.318561 0
M  V30 2372 C 215.368 -1.76782 3.13031 0
M  V30 2373 C 215.032 -1.06005 4.44536 0
M  V30 2374 C 216.029 -0.410768 5.18275 0
M  V30 2375 C 213.714 -1.04754 4.91255 0
M  V30 2376 C 215.708 0.241572 6.36942 0
M  V30 2377 C 213.395 -0.391394 6.09845 0
M  V30 2378 C 214.393 0.252029 6.82535 0
M  V30 2379 O 214.081 0.897757 7.98871 0
M  V30 2380 H 213.813 -0.255188 0.625983 0
M  V30 2381 H 216.367 -0.135653 2.04952 0
M  V30 2382 H 214.597 -2.53846 2.91718 0
M  V30 2383 H 216.286 -2.36533 3.29859 0
M  V30 2384 H 217.052 -0.412195 4.83245 0
M  V30 2385 H 212.931 -1.53777 4.34596 0
M  V30 2386 H 216.475 0.744375 6.93617 0
M  V30 2387 H 212.372 -0.387656 6.44335 0
M  V30 2388 H 213.14 0.800102 8.1458 0
M  V30 2389 N 215.803 -1.52179 -0.40978 0
M  V30 2390 C 217.219 -1.40968 -0.74835 0
M  V30 2391 C 217.419 -0.513657 -1.94843 0
M  V30 2392 O 216.475 0.0208026 -2.52491 0
M  V30 2393 C 217.788 -2.83483 -1.0029 0
M  V30 2394 C 219.336 -2.92821 -1.10565 0
M  V30 2395 C 219.811 -4.36303 -1.39296 0
M  V30 2396 N 221.302 -4.39535 -1.46162 0
M  V30 2397 C 222.037 -5.47614 -1.70018 0
M  V30 2398 N 221.533 -6.65812 -1.91483 0
M  V30 2399 N 223.326 -5.35129 -1.72027 0
M  V30 2400 H 215.477 -2.0897 0.380186 0
M  V30 2401 H 217.74 -0.94185 0.107805 0
M  V30 2402 H 217.446 -3.51168 -0.193461 0
M  V30 2403 H 217.32 -3.24487 -1.92323 0
M  V30 2404 H 219.707 -2.25318 -1.90568 0
M  V30 2405 H 219.788 -2.55276 -0.16369 0
M  V30 2406 H 219.432 -5.04366 -0.598109 0
M  V30 2407 H 219.362 -4.71385 -2.34743 0
M  V30 2408 H 221.853 -3.54332 -1.31367 0
M  V30 2409 H 222.166 -7.43964 -2.09134 0
M  V30 2410 H 220.511 -6.68879 -1.88749 0
M  V30 2411 H 223.702 -4.41764 -1.54796 0
M  V30 2412 H 223.875 -6.19433 -1.9028 0
M  V30 2413 N 217.281 0.66697 -1.42791 0
M  V30 2414 C 218.529 1.42417 -1.43394 0
M  V30 2415 C 218.85 1.94925 -0.0542373 0
M  V30 2416 O 218.12 1.73564 0.908415 0
M  V30 2417 H 216.7 0.528515 -0.527902 0
M  V30 2418 H 219.362 0.787562 -1.78279 0
M  V30 2419 H 218.458 2.27333 -2.13837 0
M  V30 2420 N 218.759 1.29093 0.90403 0
M  V30 2421 C 219.689 1.16401 2.02418 0
M  V30 2422 C 220.67 0.0593085 1.69997 0
M  V30 2423 O 221.855 0.238021 1.92736 0
M  V30 2424 C 218.985 0.835233 3.37107 0
M  V30 2425 C 217.939 1.89578 3.83724 0
M  V30 2426 C 217.265 1.42041 5.15489 0
M  V30 2427 C 218.565 3.30394 4.04521 0
M  V30 2428 H 220.259 2.10109 2.13295 0
M  V30 2429 H 217.805 1.01157 1.02486 0
M  V30 2430 H 219.758 0.733169 4.14973 0
M  V30 2431 H 218.482 -0.137543 3.2631 0
M  V30 2432 H 217.141 1.98715 3.08071 0
M  V30 2433 H 216.789 0.436426 5.01103 0
M  V30 2434 H 216.489 2.12964 5.4765 0
M  V30 2435 H 218.013 1.33176 5.959 0
M  V30 2436 H 219.427 3.24123 4.72882 0
M  V30 2437 H 217.824 3.99237 4.48029 0
M  V30 2438 H 218.894 3.73692 3.09002 0
M  V30 2439 N 220.237 -1.11381 1.11499 0
M  V30 2440 C 221.484 -1.83132 0.864231 0
M  V30 2441 C 221.812 -1.84683 -0.610114 0
M  V30 2442 O 221.067 -1.29589 -1.46646 0
M  V30 2443 C 221.366 -3.30026 1.37177 0
M  V30 2444 C 221.032 -3.48634 2.85946 0
M  V30 2445 C 219.694 -3.53421 3.26569 0
M  V30 2446 C 222.046 -3.54837 3.81759 0
M  V30 2447 C 219.374 -3.61967 4.61733 0
M  V30 2448 C 221.726 -3.64915 5.1674 0
M  V30 2449 C 220.39 -3.67962 5.5692 0
M  V30 2450 H 219.66 -0.670127 0.316245 0
M  V30 2451 H 222.307 -1.31354 1.3935 0
M  V30 2452 H 220.612 -3.84304 0.762753 0
M  V30 2453 H 222.309 -3.84034 1.15408 0
M  V30 2454 H 218.899 -3.45579 2.53521 0
M  V30 2455 H 223.083 -3.50399 3.51474 0
M  V30 2456 H 218.339 -3.62603 4.92269 0
M  V30 2457 H 222.513 -3.68658 5.90816 0
M  V30 2458 H 220.14 -3.74336 6.61647 0
M  V30 2459 N 221.715 -0.905404 -1.28997 0
M  V30 2460 C 222.963 -0.533192 -1.9494 0
M  V30 2461 C 223.284 0.924618 -1.71685 0
M  V30 2462 O 222.554 1.65268 -1.05183 0
M  V30 2463 H 221.134 -0.194194 -0.721317 0
M  V30 2464 H 223.796 -1.15294 -1.57141 0
M  V30 2465 H 222.892 -0.72059 -3.03667 0
M  V30 2466 N 223.193 1.4272 -0.668489 0
M  V30 2467 C 224.604 1.84793 -0.266151 0
M  V30 2468 C 224.955 1.55959 1.19043 0
M  V30 2469 O 224.08 1.01622 1.91055 0
M  V30 2470 C 224.675 3.35436 -0.476271 0
M  V30 2471 C 223.234 3.76182 -0.128113 0
M  V30 2472 C 222.381 2.66344 -0.771777 0
M  V30 2473 H 225.332 1.32656 -0.871098 0
M  V30 2474 H 225.353 3.79515 0.273561 0
M  V30 2475 H 224.865 3.5639 -1.53647 0
M  V30 2476 H 222.966 3.60836 0.928891 0
M  V30 2477 H 223.079 4.75766 -0.564231 0
M  V30 2478 H 221.443 2.53885 -0.203652 0
M  V30 2479 H 222.226 2.90123 -1.83531 0
M  V30 2480 N 224.671 0.411399 1.52136 0
M  V30 2481 C 225.918 -0.163645 2.01838 0
M  V30 2482 C 226.246 -1.4495 1.29691 0
M  V30 2483 O 225.501 -1.91725 0.392431 0
M  V30 2484 C 225.8 -0.455872 3.54481 0
M  V30 2485 C 225.466 0.741055 4.44769 0
M  V30 2486 C 224.128 1.06936 4.69167 0
M  V30 2487 C 226.48 1.54075 4.97906 0
M  V30 2488 C 223.808 2.19851 5.43951 0
M  V30 2489 C 226.16 2.66067 5.73926 0
M  V30 2490 C 224.824 2.99381 5.96596 0
M  V30 2491 H 224.094 -0.0598821 0.738576 0
M  V30 2492 H 226.741 0.553283 1.83333 0
M  V30 2493 H 225.046 -1.2544 3.71177 0
M  V30 2494 H 226.743 -0.913802 3.90449 0
M  V30 2495 H 223.333 0.475192 4.25958 0
M  V30 2496 H 227.517 1.30033 4.78963 0
M  V30 2497 H 222.773 2.46006 5.59724 0
M  V30 2498 H 226.947 3.28419 6.14096 0
M  V30 2499 H 224.574 3.86992 6.54325 0
M  V30 2500 N 226.149 -1.5696 0.141893 0
M  V30 2501 C 227.374 -2.00754 -0.520838 0
M  V30 2502 C 227.799 -1.0213 -1.57959 0
M  V30 2503 O 227.157 0.00371324 -1.813 0
M  V30 2504 C 227.205 -3.43318 -1.10294 0
M  V30 2505 O 226.309 -3.47679 -2.21795 0
M  V30 2506 H 225.65 -0.651564 -0.127908 0
M  V30 2507 H 228.18 -2.03221 0.23712 0
M  V30 2508 H 228.19 -3.82012 -1.43287 0
M  V30 2509 H 226.865 -4.14608 -0.327574 0
M  V30 2510 H 225.442 -3.20824 -1.9007 0
M  V30 2511 N 227.627 0.131896 -1.57047 0
M  V30 2512 C 229.038 0.690407 -1.73465 0
M  V30 2513 C 229.389 1.8094 -0.758629 0
M  V30 2514 O 228.514 2.16282 0.0713813 0
M  V30 2515 C 229.109 1.25916 -3.14532 0
M  V30 2516 C 227.668 1.76409 -3.32501 0
M  V30 2517 C 226.815 0.658579 -2.69366 0
M  V30 2518 H 229.766 -0.0939144 -1.58422 0
M  V30 2519 H 229.787 2.12892 -3.15369 0
M  V30 2520 H 229.299 0.444515 -3.85546 0
M  V30 2521 H 227.4 2.60391 -2.66509 0
M  V30 2522 H 227.513 1.88241 -4.4057 0
M  V30 2523 H 225.877 1.08899 -2.30246 0
M  V30 2524 H 226.66 -0.14487 -3.42994 0
M  V30 2525 N 229.106 1.52395 0.401703 0
M  V30 2526 C 230.383 1.57387 1.16141 0
M  V30 2527 C 230.763 0.359359 2.08019 0
M  V30 2528 O 230.111 -0.65326 2.18963 0
M  V30 2529 C 230.321 2.90631 1.93221 0
M  V30 2530 C 231.669 3.43904 2.49028 0
M  V30 2531 O 232.693 2.92421 2.03393 0
M  V30 2532 O 231.552 4.33823 3.32356 0
M  V30 2533 H 228.646 0.634262 0.530698 0
M  V30 2534 H 231.192 1.64725 0.407883 0
M  V30 2535 H 229.964 3.70473 1.25958 0
M  V30 2536 H 229.587 2.8662 2.75563 0
M  V30 2537 N 230.584 -0.659388 1.43143 0
M  V30 2538 C 231.514 -1.78422 1.50625 0
M  V30 2539 C 232.495 -1.66216 0.361443 0
M  V30 2540 O 233.68 -1.85404 0.577834 0
M  V30 2541 C 230.81 -3.16815 1.42287 0
M  V30 2542 C 229.764 -3.43777 2.54954 0
M  V30 2543 C 229.09 -4.81905 2.31671 0
M  V30 2544 C 230.39 -3.39134 3.97222 0
M  V30 2545 H 232.084 -1.72417 2.44771 0
M  V30 2546 H 229.63 -0.828084 1.17808 0
M  V30 2547 H 231.583 -3.95253 1.46127 0
M  V30 2548 H 230.307 -3.23534 0.446435 0
M  V30 2549 H 228.966 -2.67707 2.50457 0
M  V30 2550 H 228.614 -4.85294 1.32284 0
M  V30 2551 H 228.314 -5.00906 3.07192 0
M  V30 2552 H 229.838 -5.62609 2.37284 0
M  V30 2553 H 231.252 -4.07518 4.03239 0
M  V30 2554 H 229.649 -3.69671 4.72719 0
M  V30 2555 H 230.719 -2.37426 4.22797 0
M  V30 2556 N 232.062 -1.29571 -0.897171 0
M  V30 2557 C 233.01 -1.14802 -2.02295 0
M  V30 2558 C 234.004 -0.0629637 -1.69283 0
M  V30 2559 O 235.21 -0.222945 -1.78614 0
M  V30 2560 H 231.585 -0.354692 -0.663097 0
M  V30 2561 H 233.556 -2.10108 -2.11889 0
M  V30 2562 C 232.305 -0.843966 -3.37302 0
M  V30 2563 H 231.628 -1.67093 -3.63208 0
M  V30 2564 H 233.068 -0.780672 -4.16751 0
M  V30 2565 C 231.527 0.452843 -3.33843 0
M  V30 2566 O 232.057 1.47813 -3.73516 0
M  V30 2567 N 230.263 0.459601 -2.86943 0
M  V30 2568 H 229.81 -0.375213 -2.54853 0
M  V30 2569 H 229.768 1.32726 -2.85011 0
M  V30 2570 N 233.54 1.10788 -1.12088 0
M  V30 2571 C 234.77 1.86191 -0.895351 0
M  V30 2572 C 235.178 1.80763 0.558702 0
M  V30 2573 O 234.521 1.19188 1.39785 0
M  V30 2574 C 234.583 3.35659 -1.28737 0
M  V30 2575 C 234.247 3.64849 -2.75198 0
M  V30 2576 C 235.244 3.61757 -3.734 0
M  V30 2577 C 232.929 3.93641 -3.12013 0
M  V30 2578 C 234.923 3.87045 -5.06434 0
M  V30 2579 C 232.61 4.18585 -4.4523 0
M  V30 2580 C 233.608 4.15277 -5.42249 0
M  V30 2581 O 233.296 4.3959 -6.73065 0
M  V30 2582 H 233.028 0.595425 -0.32007 0
M  V30 2583 H 235.582 1.40992 -1.49367 0
M  V30 2584 H 233.812 3.81497 -0.63224 0
M  V30 2585 H 235.501 3.92441 -1.03656 0
M  V30 2586 H 236.267 3.39557 -3.46303 0
M  V30 2587 H 232.146 3.95348 -2.37109 0
M  V30 2588 H 235.69 3.84378 -5.82151 0
M  V30 2589 H 231.587 4.40264 -4.72057 0
M  V30 2590 H 232.355 4.57123 -6.78956 0
M  V30 2591 N 235.018 0.912232 1.28515 0
M  V30 2592 C 236.295 0.463597 1.90027 0
M  V30 2593 C 236.675 -1.05753 1.82701 0
M  V30 2594 O 236.023 -1.90492 1.26194 0
M  V30 2595 C 236.233 0.992253 3.34597 0
M  V30 2596 C 237.581 1.04344 4.11579 0
M  V30 2597 O 238.605 0.94079 3.43551 0
M  V30 2598 O 237.464 1.1995 5.33174 0
M  V30 2599 H 234.558 0.146666 0.813891 0
M  V30 2600 H 237.104 1.00292 1.36893 0
M  V30 2601 H 235.876 2.03623 3.34146 0
M  V30 2602 H 235.499 0.433672 3.95228 0
M  V30 2603 N 236.496 -1.42363 0.676048 0
M  V30 2604 C 237.444 -2.32596 -0.0131507 0
M  V30 2605 C 238.438 -1.49891 -0.789238 0
M  V30 2606 O 239.644 -1.65955 -0.697061 0
M  V30 2607 H 236.019 -0.751647 -0.0230481 0
M  V30 2608 H 237.99 -2.88421 0.765243 0
M  V30 2609 C 236.739 -3.34479 -0.949702 0
M  V30 2610 H 236.062 -3.98158 -0.361938 0
M  V30 2611 H 237.502 -4.00199 -1.4006 0
M  V30 2612 C 235.961 -2.66838 -2.05667 0
M  V30 2613 O 236.491 -2.50124 -3.14326 0
M  V30 2614 N 234.697 -2.25843 -1.82875 0
M  V30 2615 H 234.244 -2.39637 -0.945085 0
M  V30 2616 H 234.202 -1.80918 -2.5713 0
M  V30 2617 N 237.974 -0.419461 -1.51915 0
M  V30 2618 C 239.385 0.0477853 -1.86639 0
M  V30 2619 C 239.736 1.43531 -1.33766 0
M  V30 2620 O 238.861 2.05401 -0.68113 0
M  V30 2621 C 239.456 0.0934885 -3.38671 0
M  V30 2622 C 238.015 0.505097 -3.72996 0
M  V30 2623 C 237.162 -0.313792 -2.75519 0
M  V30 2624 H 240.113 -0.636088 -1.45395 0
M  V30 2625 H 240.134 0.906667 -3.6954 0
M  V30 2626 H 239.646 -0.916501 -3.77123 0
M  V30 2627 H 237.747 1.52135 -3.40126 0
M  V30 2628 H 237.86 0.242309 -4.78487 0
M  V30 2629 H 236.224 0.225363 -2.53701 0
M  V30 2630 H 237.007 -1.32232 -3.16812 0
M  V30 2631 N 239.452 1.56882 -0.150215 0
M  V30 2632 C 240.384 2.14057 0.819286 0
M  V30 2633 C 241.397 1.09082 1.20851 0
M  V30 2634 O 242.586 1.36347 1.15203 0
M  V30 2635 C 239.686 2.65102 2.11127 0
M  V30 2636 C 238.859 3.94511 1.88891 0
M  V30 2637 C 237.918 4.30834 3.02107 0
M  V30 2638 O 236.944 4.99099 2.73659 0
M  V30 2639 N 238.146 3.90676 4.29363 0
M  V30 2640 H 240.911 2.97871 0.330618 0
M  V30 2641 H 238.472 1.61866 0.0332538 0
M  V30 2642 H 240.464 2.86411 2.85921 0
M  V30 2643 H 239.034 1.85994 2.51247 0
M  V30 2644 H 238.254 3.81795 0.981152 0
M  V30 2645 H 239.542 4.7907 1.71376 0
M  V30 2646 H 238.94 3.35677 4.55343 0
M  V30 2647 H 237.497 4.1703 5.00928 0
M  V30 2648 N 240.93 -0.123565 1.57115 0
M  V30 2649 C 242.176 -0.833386 1.84885 0
M  V30 2650 C 242.509 -1.79742 0.735292 0
M  V30 2651 O 241.784 -1.92764 -0.25925 0
M  V30 2652 C 242.067 -1.5873 3.23228 0
M  V30 2653 C 241.92 -0.643183 4.45178 0
M  V30 2654 C 243.239 -2.54453 3.59085 0
M  V30 2655 H 240.358 -0.301518 0.6725 0
M  V30 2656 H 243 -0.097778 1.89748 0
M  V30 2657 H 241.15 -2.21438 3.19214 0
M  V30 2658 H 242.822 -0.0253015 4.61293 0
M  V30 2659 H 241.065 0.0456139 4.33776 0
M  V30 2660 H 241.736 -1.20724 5.38637 0
M  V30 2661 H 244.212 -2.01853 3.63861 0
M  V30 2662 H 243.088 -3.04238 4.5687 0
M  V30 2663 H 243.349 -3.36906 2.86264 0
M  V30 2664 N 242.408 -1.52605 -0.393616 0
M  V30 2665 C 243.655 -1.67424 -1.1391 0
M  V30 2666 C 243.983 -0.411859 -1.90089 0
M  V30 2667 O 243.238 0.605626 -1.86093 0
M  V30 2668 C 243.537 -2.85721 -2.14705 0
M  V30 2669 C 243.203 -4.23342 -1.55218 0
M  V30 2670 C 241.865 -4.60771 -1.3872 0
M  V30 2671 C 244.217 -5.09041 -1.11924 0
M  V30 2672 C 241.545 -5.81563 -0.774689 0
M  V30 2673 C 243.897 -6.30452 -0.520853 0
M  V30 2674 C 242.561 -6.66617 -0.343134 0
M  V30 2675 H 241.831 -0.612648 -0.416826 0
M  V30 2676 H 244.478 -1.8674 -0.424315 0
M  V30 2677 H 242.783 -2.60803 -2.92385 0
M  V30 2678 H 244.48 -2.94382 -2.72288 0
M  V30 2679 H 241.07 -3.93855 -1.69045 0
M  V30 2680 H 245.254 -4.80695 -1.23473 0
M  V30 2681 H 240.51 -6.08196 -0.625154 0
M  V30 2682 H 244.684 -6.96175 -0.177065 0
M  V30 2683 H 242.311 -7.60083 0.133571 0
M  V30 2684 N 243.887 0.651787 -1.4349 0
M  V30 2685 C 245.164 1.40909 -1.35661 0
M  V30 2686 C 245.544 2.11099 -0.00511733 0
M  V30 2687 O 244.892 2.04892 1.0115 0
M  V30 2688 C 245.102 2.3926 -2.54078 0
M  V30 2689 C 246.45 3.03217 -2.97228 0
M  V30 2690 O 247.474 2.49588 -2.54135 0
M  V30 2691 O 246.333 4.00455 -3.71885 0
M  V30 2692 H 243.427 0.629625 -0.536191 0
M  V30 2693 H 245.973 0.678575 -1.55542 0
M  V30 2694 H 244.745 1.86352 -3.44076 0
M  V30 2695 H 244.368 3.1976 -2.36303 0
M  V30 2696 N 245.365 1.30045 0.890287 0
M  V30 2697 C 246.275 1.17885 2.02831 0
M  V30 2698 C 247.291 0.0999609 1.73713 0
M  V30 2699 O 248.467 0.313867 1.98939 0
M  V30 2700 C 245.532 0.866079 3.35708 0
M  V30 2701 C 244.593 2.02979 3.78283 0
M  V30 2702 C 243.826 1.73184 5.0482 0
M  V30 2703 O 244.049 0.657237 5.66601 0
M  V30 2704 O 242.983 2.58267 5.43674 0
M  V30 2705 H 246.809 2.13474 2.16015 0
M  V30 2706 H 244.394 1.09587 1.01543 0
M  V30 2707 H 246.276 0.706623 4.15433 0
M  V30 2708 H 244.951 -0.0599443 3.23644 0
M  V30 2709 H 243.858 2.24454 2.99285 0
M  V30 2710 H 245.191 2.93734 3.94944 0
M  V30 2711 N 246.843 -1.10192 1.12674 0
M  V30 2712 C 247.776 -2.15847 0.740625 0
M  V30 2713 C 248.754 -1.60352 -0.269421 0
M  V30 2714 O 249.938 -1.87796 -0.16278 0
M  V30 2715 C 247.065 -3.38562 0.096641 0
M  V30 2716 C 246.111 -4.12758 1.07391 0
M  V30 2717 S 246.944 -4.67997 2.60267 0
M  V30 2718 C 248.1 -5.94021 1.97206 0
M  V30 2719 H 248.333 -2.48266 1.63558 0
M  V30 2720 H 245.866 -1.22019 0.946087 0
M  V30 2721 H 247.824 -4.09621 -0.268535 0
M  V30 2722 H 246.485 -3.04377 -0.775462 0
M  V30 2723 H 245.678 -5.00755 0.570997 0
M  V30 2724 H 245.28 -3.47523 1.38216 0
M  V30 2725 H 247.572 -6.64589 1.31634 0
M  V30 2726 H 248.515 -6.48979 2.83253 0
M  V30 2727 H 248.923 -5.46169 1.42686 0
M  V30 2728 N 248.321 -0.919034 -1.28029 0
M  V30 2729 C 249.268 -0.410005 -2.27129 0
M  V30 2730 C 250.238 0.518405 -1.57803 0
M  V30 2731 O 251.423 0.439451 -1.8567 0
M  V30 2732 C 248.563 0.339054 -3.4343 0
M  V30 2733 C 247.676 -0.622468 -4.27492 0
M  V30 2734 C 246.811 0.145567 -5.31001 0
M  V30 2735 C 245.85 -0.809226 -6.06727 0
M  V30 2736 N 244.987 -0.0743728 -7.02061 0
M  V30 2737 H 249.827 -1.26011 -2.70047 0
M  V30 2738 H 247.364 -0.632663 -1.328 0
M  V30 2739 H 249.322 0.789586 -4.0966 0
M  V30 2740 H 247.952 1.15346 -3.01488 0
M  V30 2741 H 247.004 -1.19153 -3.61257 0
M  V30 2742 H 248.316 -1.35252 -4.80113 0
M  V30 2743 H 247.47 0.656417 -6.03139 0
M  V30 2744 H 246.209 0.908643 -4.79161 0
M  V30 2745 H 245.214 -1.3314 -5.33436 0
M  V30 2746 H 246.439 -1.57194 -6.60656 0
M  V30 2747 H 244.385 0.670616 -6.52563 0
M  V30 2748 H 244.302 -0.744157 -7.52329 0
M  V30 2749 H 245.57 0.416109 -7.78389 0
M  V30 2750 N 249.799 1.42003 -0.683588 0
M  V30 2751 C 251.215 1.55625 -0.353976 0
M  V30 2752 C 251.415 1.66151 1.14 0
M  V30 2753 O 250.471 1.63329 1.92561 0
M  V30 2754 C 251.784 2.80171 -1.092 0
M  V30 2755 C 253.332 2.93954 -1.07518 0
M  V30 2756 C 253.807 4.21372 -1.79471 0
M  V30 2757 N 255.298 4.28303 -1.76381 0
M  V30 2758 C 256.033 5.25729 -2.28904 0
M  V30 2759 N 255.529 6.29254 -2.89846 0
M  V30 2760 N 257.322 5.17586 -2.19228 0
M  V30 2761 H 249.473 1.33415 -1.6527 0
M  V30 2762 H 251.736 0.64282 -0.696769 0
M  V30 2763 H 251.442 2.78561 -2.14701 0
M  V30 2764 H 251.316 3.7133 -0.662862 0
M  V30 2765 H 253.703 2.95086 -0.028475 0
M  V30 2766 H 253.784 2.04002 -1.54328 0
M  V30 2767 H 253.428 4.21001 -2.84114 0
M  V30 2768 H 253.358 5.10275 -1.30104 0
M  V30 2769 H 255.849 3.54119 -1.31939 0
M  V30 2770 H 256.162 6.99964 -3.27522 0
M  V30 2771 H 254.507 6.29791 -2.93919 0
M  V30 2772 H 257.698 4.35631 -1.71299 0
M  V30 2773 H 257.871 5.93348 -2.60466 0
M  V30 2774 N 251.277 0.427512 1.51691 0
M  V30 2775 C 252.207 -0.3796 2.30394 0
M  V30 2776 C 253.188 -1.02982 1.35384 0
M  V30 2777 O 254.373 -1.03534 1.643 0
M  V30 2778 C 251.503 -1.48649 3.1388 0
M  V30 2779 C 250.457 -0.960294 4.17088 0
M  V30 2780 C 249.783 -2.16219 4.89033 0
M  V30 2781 C 251.083 -0.00153679 5.223 0
M  V30 2782 H 252.777 0.277164 2.98114 0
M  V30 2783 H 250.323 0.134739 1.43368 0
M  V30 2784 H 252.276 -2.05826 3.67714 0
M  V30 2785 H 251 -2.1714 2.43962 0
M  V30 2786 H 249.659 -0.410806 3.64291 0
M  V30 2787 H 249.307 -2.83307 4.15628 0
M  V30 2788 H 249.007 -1.81654 5.58816 0
M  V30 2789 H 250.531 -2.73968 5.45687 0
M  V30 2790 H 251.945 -0.482687 5.71264 0
M  V30 2791 H 250.342 0.256199 5.99553 0
M  V30 2792 H 251.412 0.938174 4.75738 0
M  V30 2793 N 252.755 -1.56801 0.158532 0
M  V30 2794 C 254.001 -1.96781 -0.490405 0
M  V30 2795 C 254.334 -1.04397 -1.63753 0
M  V30 2796 O 253.609 -0.0885805 -1.94298 0
M  V30 2797 C 253.892 -3.4635 -0.985594 0
M  V30 2798 C 253.745 -4.49512 0.160824 0
M  V30 2799 C 255.064 -3.98697 -1.86355 0
M  V30 2800 H 252.183 -0.715482 -0.176788 0
M  V30 2801 H 254.825 -1.88451 0.242088 0
M  V30 2802 H 252.975 -3.53579 -1.60978 0
M  V30 2803 H 254.647 -4.54353 0.797537 0
M  V30 2804 H 252.89 -4.26013 0.818256 0
M  V30 2805 H 253.561 -5.51531 -0.227569 0
M  V30 2806 H 256.037 -3.94019 -1.33746 0
M  V30 2807 H 254.913 -5.03792 -2.17909 0
M  V30 2808 H 255.174 -3.41744 -2.8047 0
M  V30 2809 N 254.233 0.115231 -1.57178 0
M  V30 2810 C 255.163 1.1423 -2.03651 0
M  V30 2811 C 256.144 1.42967 -0.921655 0
M  V30 2812 O 257.329 1.53343 -1.19162 0
M  V30 2813 C 254.459 2.4675 -2.44401 0
M  V30 2814 C 253.413 2.32467 -3.59365 0
M  V30 2815 C 252.739 3.69984 -3.86026 0
M  V30 2816 C 254.039 1.78203 -4.90959 0
M  V30 2817 H 255.733 0.755749 -2.89705 0
M  V30 2818 H 253.279 0.362093 -1.39373 0
M  V30 2819 H 255.232 3.18854 -2.75517 0
M  V30 2820 H 253.956 2.87302 -1.55322 0
M  V30 2821 H 252.615 1.62811 -3.28463 0
M  V30 2822 H 252.263 4.08028 -2.94147 0
M  V30 2823 H 251.963 3.61279 -4.63412 0
M  V30 2824 H 253.487 4.43587 -4.19599 0
M  V30 2825 H 254.901 2.40128 -5.20587 0
M  V30 2826 H 253.298 1.8031 -5.72371 0
M  V30 2827 H 254.368 0.739876 -4.79222 0
M  V30 2828 N 255.711 1.52812 0.385517 0
M  V30 2829 C 256.661 1.74219 1.47078 0
M  V30 2830 C 257.645 0.59632 1.49442 0
M  V30 2831 O 258.837 0.85428 1.5502 0
M  V30 2832 C 255.966 1.9176 2.84751 0
M  V30 2833 C 255.052 3.12289 2.86943 0
M  V30 2834 N 255.443 4.34575 2.58802 0
M  V30 2835 C 253.741 3.12605 3.1811 0
M  V30 2836 C 254.442 5.162 2.68166 0
M  V30 2837 N 253.418 4.51964 3.02043 0
M  V30 2838 H 257.22 2.6639 1.24152 0
M  V30 2839 H 254.734 1.51166 0.593504 0
M  V30 2840 H 256.731 2.05218 3.62893 0
M  V30 2841 H 255.391 1.00805 3.08656 0
M  V30 2842 H 256.402 4.62649 2.32759 0
M  V30 2843 H 253.079 2.31472 3.47458 0
M  V30 2844 H 254.469 6.23689 2.49923 0
M  V30 2845 N 257.189 -0.644168 1.43834 0
M  V30 2846 C 258.119 -1.76814 1.52509 0
M  V30 2847 C 259.1 -1.65823 0.379052 0
M  V30 2848 O 260.285 -1.84781 0.597466 0
M  V30 2849 C 257.415 -3.15288 1.4564 0
M  V30 2850 C 256.369 -3.41053 2.58586 0
M  V30 2851 C 255.695 -4.79421 2.36769 0
M  V30 2852 C 256.995 -3.34902 4.00797 0
M  V30 2853 H 258.689 -1.69812 2.46586 0
M  V30 2854 H 256.235 -0.815542 1.1868 0
M  V30 2855 H 258.188 -3.93681 1.50311 0
M  V30 2856 H 256.912 -3.23043 0.480725 0
M  V30 2857 H 255.571 -2.65035 2.53282 0
M  V30 2858 H 255.219 -4.83863 1.37424 0
M  V30 2859 H 254.919 -4.9762 3.12487 0
M  V30 2860 H 256.443 -5.6006 2.43238 0
M  V30 2861 H 257.857 -4.03218 4.07539 0
M  V30 2862 H 256.254 -3.64637 4.76613 0
M  V30 2863 H 257.324 -2.32928 4.25291 0
M  V30 2864 N 258.668 -1.30515 -0.883378 0
M  V30 2865 C 259.598 -1.19607 -2.00541 0
M  V30 2866 C 260.579 -0.086346 -1.69881 0
M  V30 2867 O 261.764 -0.268654 -1.92333 0
M  V30 2868 C 258.894 -0.888758 -3.35736 0
M  V30 2869 C 257.848 -1.95659 -3.8066 0
M  V30 2870 C 257.174 -1.50224 -5.13164 0
M  V30 2871 C 258.474 -3.36788 -3.99213 0
M  V30 2872 H 260.168 -2.13476 -2.09925 0
M  V30 2873 H 257.714 -1.02775 -1.00863 0
M  V30 2874 H 259.667 -0.799094 -4.13754 0
M  V30 2875 H 258.391 0.0856125 -3.26488 0
M  V30 2876 H 257.05 -2.03591 -3.04871 0
M  V30 2877 H 256.698 -0.516092 -5.00345 0
M  V30 2878 H 256.398 -2.2165 -5.44192 0
M  V30 2879 H 257.922 -1.42639 -5.93706 0
M  V30 2880 H 259.336 -3.31605 -4.67665 0
M  V30 2881 H 257.733 -4.06314 -4.41621 0
M  V30 2882 H 258.803 -3.78561 -3.03017 0
M  V30 2883 N 260.146 1.09593 -1.13257 0
M  V30 2884 C 261.423 1.78293 -0.804432 0
M  V30 2885 C 261.803 1.99004 0.70431 0
M  V30 2886 O 261.151 1.59007 1.641 0
M  V30 2887 C 261.361 3.10707 -1.5894 0
M  V30 2888 C 262.709 3.85443 -1.78099 0
M  V30 2889 O 263.733 3.20454 -1.55525 0
M  V30 2890 O 262.592 5.02108 -2.15753 0
M  V30 2891 H 259.686 0.773156 -0.293528 0
M  V30 2892 H 262.232 1.16164 -1.23709 0
M  V30 2893 H 261.004 2.91106 -2.61482 0
M  V30 2894 H 260.627 3.80558 -1.15157 0
M  V30 2895 N 261.624 0.925811 1.2754 0
M  V30 2896 C 262.557 0.367836 2.25216 0
M  V30 2897 C 263.535 -0.534738 1.53556 0
M  V30 2898 O 264.719 -0.475672 1.824 0
M  V30 2899 C 261.846 -0.47298 3.35381 0
M  V30 2900 C 260.892 0.365898 4.24928 0
M  V30 2901 S 261.725 1.78025 5.05042 0
M  V30 2902 C 262.881 0.947068 6.18693 0
M  V30 2903 H 263.114 1.19568 2.72196 0
M  V30 2904 H 260.647 0.727867 1.36167 0
M  V30 2905 H 262.605 -0.952242 3.99303 0
M  V30 2906 H 261.266 -1.27533 2.87044 0
M  V30 2907 H 260.459 -0.277582 5.03235 0
M  V30 2908 H 260.061 0.779261 3.65792 0
M  V30 2909 H 262.353 0.182201 6.77255 0
M  V30 2910 H 263.296 1.70309 6.87314 0
M  V30 2911 H 263.704 0.489913 5.6237 0
M  V30 2912 N 263.102 -1.41638 0.69111 0
M  V30 2913 C 264.35 -2.00902 0.219758 0
M  V30 2914 C 264.671 -1.54994 -1.18329 0
M  V30 2915 O 263.941 -0.778628 -1.79762 0
M  V30 2916 H 262.521 -0.74289 0.0782558 0
M  V30 2917 H 265.183 -1.73327 0.891271 0
M  V30 2918 H 264.279 -3.11224 0.233708 0
M  V30 2919 N 264.58 -0.43555 -1.51462 0
M  V30 2920 C 265.826 0.131709 -2.02372 0
M  V30 2921 C 266.159 1.42516 -1.3192 0
M  V30 2922 O 265.434 1.89606 -0.433573 0
M  V30 2923 C 265.717 0.352301 -3.58373 0
M  V30 2924 C 265.57 -0.959676 -4.39443 0
M  V30 2925 C 266.889 1.12286 -4.25535 0
M  V30 2926 H 264.008 0.0463936 -0.735538 0
M  V30 2927 H 266.65 -0.574197 -1.81116 0
M  V30 2928 H 264.8 0.9536 -3.76615 0
M  V30 2929 H 266.472 -1.59482 -4.32855 0
M  V30 2930 H 264.715 -1.56468 -4.04599 0
M  V30 2931 H 265.386 -0.759394 -5.46752 0
M  V30 2932 H 267.862 0.613545 -4.11552 0
M  V30 2933 H 266.738 1.24598 -5.34571 0
M  V30 2934 H 266.999 2.15048 -3.86273 0
M  V30 2935 N 266.058 1.56714 -0.166846 0
M  V30 2936 C 267.335 1.88412 0.525373 0
M  V30 2937 C 267.715 1.07602 1.81618 0
M  V30 2938 O 267.063 0.168621 2.27877 0
M  V30 2939 C 267.273 3.40363 0.771613 0
M  V30 2940 C 268.621 4.10007 1.1036 0
M  V30 2941 O 269.645 3.45655 0.860304 0
M  V30 2942 O 268.504 5.2369 1.56239 0
M  V30 2943 H 265.598 0.781587 0.270278 0
M  V30 2944 H 268.144 1.68458 -0.204946 0
M  V30 2945 H 266.916 3.91046 -0.141093 0
M  V30 2946 H 266.539 3.65914 1.55541 0
M  V30 2947 N 267.536 -0.106894 1.57237 0
M  V30 2948 C 268.784 -0.810921 1.85117 0
M  V30 2949 C 269.105 -1.7984 0.753827 0
M  V30 2950 O 268.375 -1.94649 -0.221056 0
M  V30 2951 H 266.955 -0.302466 0.683025 0
M  V30 2952 H 269.617 -0.0913324 1.94686 0
M  V30 2953 H 268.713 -1.34875 2.81452 0
M  V30 2954 N 269.014 -1.53014 -0.377408 0
M  V30 2955 C 270.261 -1.68623 -1.12128 0
M  V30 2956 C 270.589 -0.431997 -1.89642 0
M  V30 2957 O 269.844 0.585855 -1.86725 0
M  V30 2958 C 270.143 -2.87982 -2.11663 0
M  V30 2959 C 269.809 -4.24964 -1.50719 0
M  V30 2960 C 268.471 -4.62217 -1.33825 0
M  V30 2961 C 270.823 -5.10199 -1.06519 0
M  V30 2962 C 268.151 -5.82352 -0.712963 0
M  V30 2963 C 270.503 -6.30969 -0.453955 0
M  V30 2964 C 269.167 -6.66944 -0.272411 0
M  V30 2965 H 268.437 -0.617034 -0.410305 0
M  V30 2966 H 271.084 -1.8718 -0.404484 0
M  V30 2967 H 269.389 -2.63889 -2.89603 0
M  V30 2968 H 271.086 -2.97253 -2.6915 0
M  V30 2969 H 267.676 -3.95626 -1.64858 0
M  V30 2970 H 271.86 -4.81978 -1.18368 0
M  V30 2971 H 267.116 -6.08824 -0.560611 0
M  V30 2972 H 271.29 -6.96324 -0.103217 0
M  V30 2973 H 268.917 -7.59898 0.214181 0
M  V30 2974 N 270.492 0.636531 -1.44174 0
M  V30 2975 C 271.908 0.954104 -1.27941 0
M  V30 2976 C 272.108 2.0039 -0.211248 0
M  V30 2977 O 271.164 2.49236 0.404695 0
M  V30 2978 C 272.477 1.4225 -2.64925 0
M  V30 2979 C 274.025 1.53827 -2.72592 0
M  V30 2980 C 274.5 2.04053 -4.10032 0
M  V30 2981 N 275.991 2.11331 -4.12182 0
M  V30 2982 C 276.726 2.51352 -5.15374 0
M  V30 2983 N 276.222 2.90549 -6.2893 0
M  V30 2984 N 278.015 2.51438 -5.02728 0
M  V30 2985 H 270.166 -0.0578386 -2.12321 0
M  V30 2986 H 272.429 0.0367406 -0.947288 0
M  V30 2987 H 272.135 0.725466 -3.44136 0
M  V30 2988 H 272.009 2.39451 -2.9145 0
M  V30 2989 H 274.396 2.22628 -1.93702 0
M  V30 2990 H 274.477 0.550154 -2.49814 0
M  V30 2991 H 274.121 1.35848 -4.89395 0
M  V30 2992 H 274.051 3.03726 -4.30184 0
M  V30 2993 H 276.542 1.83745 -3.30222 0
M  V30 2994 H 276.855 3.19884 -7.03487 0
M  V30 2995 H 275.2 2.88313 -6.32377 0
M  V30 2996 H 278.391 2.20203 -4.13072 0
M  V30 2997 H 278.564 2.82304 -5.83274 0
M  V30 2998 N 271.97 1.30982 0.876444 0
M  V30 2999 C 273.217 1.20296 1.62896 0
M  V30 3000 C 273.545 -0.240395 1.93009 0
M  V30 3001 O 272.8 -1.18733 1.55567 0
M  V30 3002 C 273.099 1.98572 2.9716 0
M  V30 3003 C 272.765 3.48125 2.86566 0
M  V30 3004 C 271.427 3.88905 2.83383 0
M  V30 3005 C 273.779 4.43322 2.74071 0
M  V30 3006 C 271.107 5.2316 2.65556 0
M  V30 3007 C 273.459 5.77695 2.57781 0
M  V30 3008 C 272.123 6.17704 2.52979 0
M  V30 3009 H 271.393 0.440193 0.59608 0
M  V30 3010 H 274.04 1.62177 1.01837 0
M  V30 3011 H 272.345 1.49352 3.62217 0
M  V30 3012 H 274.042 1.8769 3.54364 0
M  V30 3013 H 270.632 3.15723 2.89856 0
M  V30 3014 H 274.816 4.12752 2.75589 0
M  V30 3015 H 270.072 5.53241 2.60259 0
M  V30 3016 H 274.246 6.51091 2.47089 0
M  V30 3017 H 271.873 7.21678 2.38924 0
M  V30 3018 N 273.449 -1.08991 1.13837 0
M  V30 3019 C 274.726 -1.77863 0.813876 0
M  V30 3020 C 275.106 -1.99375 -0.693746 0
M  V30 3021 O 274.454 -1.59875 -1.63255 0
M  V30 3022 C 274.664 -3.0986 1.60586 0
M  V30 3023 C 276.012 -3.84493 1.8014 0
M  V30 3024 O 277.036 -3.19624 1.57222 0
M  V30 3025 O 275.895 -5.00957 2.18413 0
M  V30 3026 H 272.989 -0.771589 0.297624 0
M  V30 3027 H 275.535 -1.15507 1.24323 0
M  V30 3028 H 274.307 -2.89715 2.63022 0
M  V30 3029 H 273.93 -3.79942 1.17173 0
M  V30 3030 N 274.927 -0.932562 -1.27047 0
M  V30 3031 C 275.89 -0.440064 -2.24936 0
M  V30 3032 C 276.89 0.444071 -1.54547 0
M  V30 3033 O 278.08 0.244465 -1.72476 0
M  V30 3034 C 275.212 0.36678 -3.38921 0
M  V30 3035 H 276.405 -1.305 -2.70018 0
M  V30 3036 H 273.958 -0.713707 -1.39054 0
M  V30 3037 H 274.693 1.25033 -2.99228 0
M  V30 3038 H 274.478 -0.267204 -3.91188 0
M  V30 3039 H 275.968 0.701567 -4.11665 0
M  V30 3040 N 276.405 1.4127 -0.698611 0
M  V30 3041 C 277.368 2.29158 -0.044132 0
M  V30 3042 C 278.368 1.44529 0.704841 0
M  V30 3043 O 279.558 1.65643 0.539276 0
M  V30 3044 C 276.69 3.27459 0.947809 0
M  V30 3045 H 277.883 2.88529 -0.817994 0
M  V30 3046 H 275.436 1.49307 -0.46228 0
M  V30 3047 H 276.171 2.73073 1.74933 0
M  V30 3048 H 275.956 3.8991 0.41385 0
M  V30 3049 H 277.446 3.93311 1.40344 0
M  V30 3050 N 277.883 0.443576 1.51229 0
M  V30 3051 C 278.83 -0.364716 2.279 0
M  V30 3052 C 279.8 -1.0114 1.31757 0
M  V30 3053 O 280.985 -1.02912 1.60667 0
M  V30 3054 C 278.125 -1.45644 3.12861 0
M  V30 3055 C 277.238 -0.827269 4.24005 0
M  V30 3056 C 276.373 -1.89456 4.96266 0
M  V30 3057 C 275.412 -1.24416 5.99322 0
M  V30 3058 N 274.549 -2.25309 6.64966 0
M  V30 3059 H 279.389 0.295464 2.96532 0
M  V30 3060 H 276.926 0.157554 1.46254 0
M  V30 3061 H 278.884 -2.10076 3.6045 0
M  V30 3062 H 277.514 -2.08616 2.46331 0
M  V30 3063 H 276.566 -0.0710839 3.80334 0
M  V30 3064 H 277.878 -0.312481 4.9782 0
M  V30 3065 H 277.032 -2.61535 5.47434 0
M  V30 3066 H 275.771 -2.4431 4.22095 0
M  V30 3067 H 274.776 -0.508868 5.4744 0
M  V30 3068 H 276.001 -0.702882 6.75453 0
M  V30 3069 H 273.947 -2.79231 5.93604 0
M  V30 3070 H 273.864 -1.78739 7.34567 0
M  V30 3071 H 275.132 -2.96853 7.20763 0
M  V30 3072 N 279.361 -1.56624 0.175154 0
M  V30 3073 C 280.311 -2.14747 -0.766004 0
M  V30 3074 C 281.295 -1.08275 -1.19018 0
M  V30 3075 O 282.487 -1.34388 -1.15191 0
M  V30 3076 C 279.616 -2.79478 -1.99366 0
M  V30 3077 C 278.702 -3.93114 -1.5913 0
M  V30 3078 N 279.093 -4.97752 -0.89872 0
M  V30 3079 C 277.391 -4.04345 -1.88204 0
M  V30 3080 C 278.092 -5.77473 -0.700012 0
M  V30 3081 N 277.068 -5.29207 -1.24263 0
M  V30 3082 H 280.87 -2.93015 -0.22793 0
M  V30 3083 H 278.384 -1.6238 -0.0253843 0
M  V30 3084 H 280.381 -3.19498 -2.67818 0
M  V30 3085 H 279.041 -2.02692 -2.53665 0
M  V30 3086 H 280.052 -5.14903 -0.556347 0
M  V30 3087 H 276.729 -3.38667 -2.44153 0
M  V30 3088 H 278.119 -6.71728 -0.152047 0
M  V30 3089 N 280.839 0.0985539 -1.57292 0
M  V30 3090 C 281.772 1.15082 -1.97057 0
M  V30 3091 C 282.75 1.39025 -0.843255 0
M  V30 3092 O 283.934 1.52842 -1.10325 0
M  V30 3093 C 281.061 2.50069 -2.28437 0
M  V30 3094 C 280.107 2.42428 -3.509 0
M  V30 3095 S 280.94 1.84414 -5.02744 0
M  V30 3096 C 282.096 3.21032 -5.37298 0
M  V30 3097 H 282.329 0.811815 -2.86002 0
M  V30 3098 H 279.862 0.306102 -1.51335 0
M  V30 3099 H 281.82 3.27729 -2.47192 0
M  V30 3100 H 280.481 2.8114 -1.40069 0
M  V30 3101 H 279.674 3.41911 -3.70288 0
M  V30 3102 H 279.276 1.72896 -3.31637 0
M  V30 3103 H 281.568 4.17297 -5.33731 0
M  V30 3104 H 282.511 3.06452 -6.38352 0
M  V30 3105 H 282.919 3.20404 -4.64759 0
M  V30 3106 N 282.317 1.53212 0.369288 0
M  V30 3107 C 283.733 1.42902 0.710712 0
M  V30 3108 C 283.933 0.565135 1.93413 0
M  V30 3109 O 282.989 0.0461484 2.52458 0
M  V30 3110 C 284.302 2.86042 0.927382 0
M  V30 3111 C 285.85 2.9565 1.02762 0
M  V30 3112 C 286.325 4.39843 1.27679 0
M  V30 3113 N 287.816 4.43256 1.34457 0
M  V30 3114 C 288.551 5.51929 1.55439 0
M  V30 3115 N 288.047 6.70655 1.73762 0
M  V30 3116 N 289.84 5.39502 1.57779 0
M  V30 3117 H 281.991 2.07888 -0.435457 0
M  V30 3118 H 284.254 0.938661 -0.132739 0
M  V30 3119 H 283.96 3.51557 0.100287 0
M  V30 3120 H 283.834 3.29472 1.83653 0
M  V30 3121 H 286.221 2.30291 1.84527 0
M  V30 3122 H 286.302 2.5562 0.0959504 0
M  V30 3123 H 285.946 5.05774 0.464175 0
M  V30 3124 H 285.876 4.77443 2.22162 0
M  V30 3125 H 288.367 3.5769 1.21926 0
M  V30 3126 H 288.68 7.49248 1.89335 0
M  V30 3127 H 287.025 6.73648 1.70948 0
M  V30 3128 H 290.216 4.45713 1.43029 0
M  V30 3129 H 290.389 6.2426 1.7379 0
M  V30 3130 N 283.795 -0.628877 1.44509 0
M  V30 3131 C 285.072 -1.38733 1.37886 0
M  V30 3132 C 285.452 -2.11065 0.0387008 0
M  V30 3133 O 284.8 -2.06476 -0.97878 0
M  V30 3134 C 285.01 -2.35188 2.57852 0
M  V30 3135 C 286.358 -2.9845 3.02014 0
M  V30 3136 O 287.382 -2.45513 2.58073 0
M  V30 3137 O 286.241 -3.94487 3.78209 0
M  V30 3138 H 283.335 -0.621015 0.54614 0
M  V30 3139 H 285.881 -0.653744 1.56602 0
M  V30 3140 H 284.653 -1.80855 3.46998 0
M  V30 3141 H 284.276 -3.1596 2.4136 0
M  V30 3142 N 285.273 -1.31445 -0.869486 0
M  V30 3143 C 286.501 -1.24122 -1.65534 0
M  V30 3144 C 286.916 0.193387 -1.87807 0
M  V30 3145 O 286.273 1.12557 -1.43656 0
M  V30 3146 C 286.324 -1.98229 -3.02304 0
M  V30 3147 O 286.045 -3.3609 -2.81026 0
M  V30 3148 C 287.546 -1.97751 -3.96749 0
M  V30 3149 H 284.766 -0.428868 -0.516055 0
M  V30 3150 H 287.31 -1.73328 -1.08525 0
M  V30 3151 H 285.465 -1.52782 -3.56001 0
M  V30 3152 H 285.879 -3.7383 -3.67902 0
M  V30 3153 H 287.353 -2.54114 -4.90031 0
M  V30 3154 H 287.83 -0.960137 -4.28577 0
M  V30 3155 H 288.436 -2.43079 -3.48988 0
M  V30 3156 N 286.751 1.08385 -1.14413 0
M  V30 3157 C 288 1.80153 -0.907076 0
M  V30 3158 C 288.313 1.87176 0.567851 0
M  V30 3159 O 289.519 2.55359 0.922172 0
M  V30 3160 C 287.975 3.23687 -1.57336 0
M  V30 3161 C 287.583 3.24897 -3.08457 0
M  V30 3162 C 289.327 4.00136 -1.41744 0
M  V30 3163 C 287.234 4.6302 -3.67921 0
M  V30 3164 H 286.164 0.675139 -0.335714 0
M  V30 3165 H 288.815 1.21733 -1.37307 0
M  V30 3166 H 287.197 3.82234 -1.03505 0
M  V30 3167 H 288.371 2.76055 -3.68958 0
M  V30 3168 H 286.686 2.61943 -3.2369 0
M  V30 3169 H 289.283 5.02201 -1.83572 0
M  V30 3170 H 289.626 4.14709 -0.363576 0
M  V30 3171 H 290.159 3.48058 -1.92614 0
M  V30 3172 H 286.898 4.5365 -4.73161 0
M  V30 3173 H 286.418 5.12143 -3.12201 0
M  V30 3174 H 288.097 5.31994 -3.68227 0
M  V30 3175 N 288.23 0.939286 1.26551 0
M  V30 3176 C 289.14 0.453432 2.30176 0
M  V30 3177 C 290.156 -0.471649 1.67486 0
M  V30 3178 O 291.332 -0.35164 1.98306 0
M  V30 3179 C 288.397 -0.275326 3.45605 0
M  V30 3180 C 287.458 0.686084 4.23782 0
M  V30 3181 C 286.691 -0.00798994 5.33699 0
M  V30 3182 O 286.914 -1.22528 5.57085 0
M  V30 3183 O 285.848 0.669746 5.98162 0
M  V30 3184 H 289.674 1.31416 2.73795 0
M  V30 3185 H 287.259 0.705095 1.31715 0
M  V30 3186 H 289.141 -0.685911 4.1578 0
M  V30 3187 H 287.816 -1.11147 3.0402 0
M  V30 3188 H 286.723 1.14658 3.56096 0
M  V30 3189 H 288.056 1.48979 4.69112 0
M  V30 3190 N 289.708 -1.40897 0.706093 0
M  V30 3191 C 290.64 -2.29199 0.00815776 0
M  V30 3192 C 291.653 -1.45336 -0.733582 0
M  V30 3193 O 292.842 -1.68727 -0.582537 0
M  V30 3194 C 289.942 -3.23417 -1.01265 0
M  V30 3195 C 289.115 -4.36089 -0.338387 0
M  V30 3196 C 288.174 -5.10811 -1.26326 0
M  V30 3197 O 287.2 -5.64215 -0.751651 0
M  V30 3198 N 288.402 -5.19269 -2.595 0
M  V30 3199 H 291.167 -2.89738 0.766297 0
M  V30 3200 H 288.728 -1.52164 0.55296 0
M  V30 3201 H 290.72 -3.70276 -1.63334 0
M  V30 3202 H 289.29 -2.64112 -1.67223 0
M  V30 3203 H 288.51 -3.91479 0.462352 0
M  V30 3204 H 289.798 -5.08634 0.130031 0
M  V30 3205 H 289.196 -4.77347 -3.03573 0
M  V30 3206 H 287.753 -5.69667 -3.16737 0
M  V30 3207 N 291.186 -0.45159 -1.50991 0
M  V30 3208 C 292.134 0.366864 -2.29689 0
M  V30 3209 C 293.128 1.00809 -1.36139 0
M  V30 3210 O 294.334 0.941427 -1.53418 0
M  V30 3211 H 290.709 0.137133 -0.739391 0
M  V30 3212 H 292.68 -0.317538 -2.96706 0
M  V30 3213 C 291.429 1.44751 -3.16137 0
M  V30 3214 H 290.752 0.963473 -3.88017 0
M  V30 3215 H 292.192 1.99315 -3.74232 0
M  V30 3216 C 290.651 2.43869 -2.32442 0
M  V30 3217 O 291.181 3.4872 -1.99392 0
M  V30 3218 N 289.387 2.15105 -1.95392 0
M  V30 3219 H 288.934 1.29866 -2.22469 0
M  V30 3220 H 288.892 2.81661 -1.39693 0
M  V30 3221 N 292.664 1.56529 -0.183458 0
M  V30 3222 C 293.91 1.97537 0.459036 0
M  V30 3223 C 294.243 1.06989 1.62071 0
M  V30 3224 O 293.518 0.11948 1.94133 0
M  V30 3225 C 293.801 3.47874 0.930368 0
M  V30 3226 C 293.654 4.492 -0.232317 0
M  V30 3227 C 294.973 4.01612 1.79989 0
M  V30 3228 H 292.092 0.718204 0.165383 0
M  V30 3229 H 294.734 1.88042 -0.272038 0
M  V30 3230 H 292.884 3.56095 1.55333 0
M  V30 3231 H 294.556 4.53027 -0.86972 0
M  V30 3232 H 292.799 4.24657 -0.885928 0
M  V30 3233 H 293.47 5.51823 0.139796 0
M  V30 3234 H 295.946 3.96097 1.27461 0
M  V30 3235 H 294.822 5.07195 2.09867 0
M  V30 3236 H 295.083 3.46163 2.74998 0
M  V30 3237 N 294.142 -0.090211 1.57342 0
M  V30 3238 C 295.558 -0.444547 1.53284 0
M  V30 3239 C 295.758 -1.80238 0.900914 0
M  V30 3240 O 294.814 -2.4759 0.495513 0
M  V30 3241 C 296.127 -0.402543 2.97993 0
M  V30 3242 C 297.675 -0.48405 3.09234 0
M  V30 3243 C 298.15 -0.472144 4.5556 0
M  V30 3244 N 299.641 -0.532757 4.60126 0
M  V30 3245 C 300.376 -0.545462 5.708 0
M  V30 3246 N 299.872 -0.514082 6.9089 0
M  V30 3247 N 301.665 -0.59064 5.58988 0
M  V30 3248 H 293.816 0.799121 1.96794 0
M  V30 3249 H 296.079 0.297965 0.899956 0
M  V30 3250 H 295.785 0.528106 3.47712 0
M  V30 3251 H 295.659 -1.21969 3.56936 0
M  V30 3252 H 298.046 -1.40512 2.595 0
M  V30 3253 H 298.127 0.361328 2.53235 0
M  V30 3254 H 297.771 0.445 5.05947 0
M  V30 3255 H 297.701 -1.3348 5.09402 0
M  V30 3256 H 300.192 -0.562006 3.73698 0
M  V30 3257 H 300.505 -0.527195 7.71 0
M  V30 3258 H 298.85 -0.481054 6.93333 0
M  V30 3259 H 302.041 -0.61272 4.64073 0
M  V30 3260 H 302.214 -0.597073 6.45243 0
M  V30 3261 N 295.62 -1.53406 -0.361157 0
M  V30 3262 C 296.867 -1.69802 -1.10333 0
M  V30 3263 C 297.195 -0.452087 -1.89173 0
M  V30 3264 O 296.45 0.566017 -1.87336 0
M  V30 3265 C 296.749 -2.90211 -2.08596 0
M  V30 3266 C 296.415 -4.26539 -1.46203 0
M  V30 3267 C 295.077 -4.6361 -1.28915 0
M  V30 3268 C 297.429 -5.113 -1.01101 0
M  V30 3269 C 294.757 -5.83075 -0.651157 0
M  V30 3270 C 297.109 -6.31415 -0.387007 0
M  V30 3271 C 295.773 -6.67195 -0.201657 0
M  V30 3272 H 295.043 -0.621351 -0.403737 0
M  V30 3273 H 297.69 -1.87598 -0.384609 0
M  V30 3274 H 295.995 -2.66946 -2.86788 0
M  V30 3275 H 297.692 -3.00091 -2.65982 0
M  V30 3276 H 294.282 -3.97352 -1.60653 0
M  V30 3277 H 298.466 -4.83206 -1.13249 0
M  V30 3278 H 293.722 -6.09385 -0.496006 0
M  V30 3279 H 297.896 -6.96394 -0.0293563 0
M  V30 3280 H 295.523 -7.59628 0.294766 0
M  V30 3281 N 297.098 0.621204 -1.44841 0
M  V30 3282 C 298.344 1.38073 -1.49357 0
M  V30 3283 C 298.699 1.91973 -0.128115 0
M  V30 3284 O 297.992 1.71311 0.858087 0
M  V30 3285 C 298.186 2.55675 -2.4973 0
M  V30 3286 C 298.015 2.13289 -3.95901 0
M  V30 3287 C 296.785 2.001 -4.63991 0
M  V30 3288 C 298.983 1.7159 -4.84831 0
M  V30 3289 N 296.965 1.51381 -5.94943 0
M  V30 3290 C 298.336 1.34188 -6.05304 0
M  V30 3291 C 300.391 1.59059 -4.7181 0
M  V30 3292 C 299.094 0.855085 -7.14199 0
M  V30 3293 C 301.12 1.11784 -5.8074 0
M  V30 3294 C 300.482 0.753385 -7.0036 0
M  V30 3295 H 296.581 0.499675 -0.601539 0
M  V30 3296 H 299.165 0.711609 -1.8123 0
M  V30 3297 H 297.336 3.20201 -2.19832 0
M  V30 3298 H 299.068 3.22509 -2.4448 0
M  V30 3299 H 295.823 2.20863 -4.18947 0
M  V30 3300 H 296.247 1.29293 -6.64539 0
M  V30 3301 H 300.889 1.85865 -3.79755 0
M  V30 3302 H 298.607 0.574552 -8.06055 0
M  V30 3303 H 302.193 1.02533 -5.72694 0
M  V30 3304 H 301.073 0.393183 -7.83214 0
M  V30 3305 N 298.576 1.31904 0.862503 0
M  V30 3306 C 299.523 1.20182 1.9704 0
M  V30 3307 C 300.493 0.0858247 1.65878 0
M  V30 3308 O 301.678 0.26 1.8902 0
M  V30 3309 C 298.818 0.922797 3.32533 0
M  V30 3310 C 297.931 2.12284 3.76244 0
M  V30 3311 C 297.066 1.77996 5.00491 0
M  V30 3312 C 296.105 2.94366 5.36671 0
M  V30 3313 N 295.242 2.60223 6.52095 0
M  V30 3314 H 300.082 2.14951 2.06398 0
M  V30 3315 H 297.619 1.06917 1.01031 0
M  V30 3316 H 299.577 0.741548 4.10557 0
M  V30 3317 H 298.207 0.0119227 3.22798 0
M  V30 3318 H 297.259 2.41461 2.9394 0
M  V30 3319 H 298.571 2.99357 3.98982 0
M  V30 3320 H 297.725 1.56377 5.862 0
M  V30 3321 H 296.464 0.881252 4.79672 0
M  V30 3322 H 295.469 3.16625 4.49476 0
M  V30 3323 H 296.694 3.84957 5.59451 0
M  V30 3324 H 294.64 1.72884 6.32809 0
M  V30 3325 H 294.557 3.40827 6.74814 0
M  V30 3326 H 295.825 2.42016 7.40978 0
M  V30 3327 N 300.054 -1.07777 1.14986 0
M  V30 3328 C 301.284 -1.83752 0.944402 0
M  V30 3329 C 301.692 -1.8218 -0.51058 0
M  V30 3330 O 301.035 -1.22852 -1.36576 0
M  V30 3331 C 301.097 -3.32128 1.37592 0
M  V30 3332 C 300.761 -3.57425 2.84775 0
M  V30 3333 C 301.758 -3.5173 3.8286 0
M  V30 3334 C 299.443 -3.8523 3.2234 0
M  V30 3335 C 301.437 -3.73482 5.16517 0
M  V30 3336 C 299.124 -4.06634 4.56171 0
M  V30 3337 C 300.122 -4.00754 5.53069 0
M  V30 3338 O 299.81 -4.2159 6.84483 0
M  V30 3339 H 299.542 -0.58673 0.335744 0
M  V30 3340 H 302.096 -1.36982 1.53052 0
M  V30 3341 H 300.326 -3.79686 0.733165 0
M  V30 3342 H 302.015 -3.89555 1.14024 0
M  V30 3343 H 302.781 -3.30256 3.55184 0
M  V30 3344 H 298.66 -3.88923 2.47508 0
M  V30 3345 H 302.204 -3.68808 5.92137 0
M  V30 3346 H 298.101 -4.27593 4.83564 0
M  V30 3347 H 298.869 -4.38961 6.90837 0
M  V30 3348 N 301.532 -0.945985 -1.26051 0
M  V30 3349 C 302.779 -0.596118 -1.93527 0
M  V30 3350 C 303.107 0.865559 -1.74179 0
M  V30 3351 O 302.362 1.63524 -1.0751 0
M  V30 3352 C 302.661 -0.890475 -3.46129 0
M  V30 3353 C 302.327 -2.3368 -3.85622 0
M  V30 3354 C 300.989 -2.73216 -3.96114 0
M  V30 3355 C 303.341 -3.27648 -4.05334 0
M  V30 3356 C 300.669 -4.05806 -4.2372 0
M  V30 3357 C 303.021 -4.59841 -4.3443 0
M  V30 3358 C 301.685 -4.99185 -4.43137 0
M  V30 3359 H 300.955 -0.218135 -0.708165 0
M  V30 3360 H 303.602 -1.1934 -1.49768 0
M  V30 3361 H 301.907 -0.210711 -3.91233 0
M  V30 3362 H 303.604 -0.598478 -3.96509 0
M  V30 3363 H 300.194 -2.02015 -3.78005 0
M  V30 3364 H 304.378 -2.98298 -3.96651 0
M  V30 3365 H 299.634 -4.35945 -4.28675 0
M  V30 3366 H 303.808 -5.32641 -4.48628 0
M  V30 3367 H 301.435 -6.01952 -4.64282 0
M  V30 3368 N 303.011 1.40521 -0.713556 0
M  V30 3369 C 303.941 2.33381 -0.0743864 0
M  V30 3370 C 304.922 1.52784 0.747735 0
M  V30 3371 O 306.107 1.81258 0.697071 0
M  V30 3372 C 303.237 3.36748 0.849598 0
M  V30 3373 C 302.191 4.27793 0.133247 0
M  V30 3374 C 301.517 5.21679 1.17281 0
M  V30 3375 C 302.817 5.12415 -1.01134 0
M  V30 3376 H 304.511 2.87081 -0.850007 0
M  V30 3377 H 302.057 1.38034 -0.410201 0
M  V30 3378 H 304.01 4.00648 1.30612 0
M  V30 3379 H 302.734 2.81439 1.65709 0
M  V30 3380 H 301.393 3.65342 -0.303426 0
M  V30 3381 H 301.041 4.62677 1.9733 0
M  V30 3382 H 300.741 5.83435 0.698397 0
M  V30 3383 H 302.265 5.88456 1.62947 0
M  V30 3384 H 303.679 5.69781 -0.634274 0
M  V30 3385 H 302.076 5.83203 -1.41399 0
M  V30 3386 H 303.146 4.48514 -1.84292 0
M  V30 3387 N 304.489 0.459591 1.5075 0
M  V30 3388 C 305.714 -0.0996819 2.0716 0
M  V30 3389 C 306.139 -1.33761 1.32249 0
M  V30 3390 O 305.497 -1.77551 0.366786 0
M  V30 3391 C 305.545 -0.378226 3.58611 0
M  V30 3392 O 304.649 -1.46081 3.85661 0
M  V30 3393 H 303.99 0.00791392 0.663953 0
M  V30 3394 H 306.52 0.647329 1.9409 0
M  V30 3395 H 306.53 -0.622135 4.03229 0
M  V30 3396 H 305.205 0.526439 4.12555 0
M  V30 3397 H 303.782 -1.20511 3.5289 0
M  V30 3398 N 305.967 -1.56429 0.191757 0
M  V30 3399 C 307.244 -1.89224 -0.495332 0
M  V30 3400 C 307.624 -1.10478 -1.79883 0
M  V30 3401 O 306.972 -0.204852 -2.2758 0
M  V30 3402 C 307.182 -3.41548 -0.717367 0
M  V30 3403 C 308.53 -4.11711 -1.03823 0
M  V30 3404 O 309.554 -3.4698 -0.805204 0
M  V30 3405 O 308.413 -5.2611 -1.47887 0
M  V30 3406 H 305.507 -0.785788 -0.25781 0
M  V30 3407 H 308.053 -1.68111 0.231721 0
M  V30 3408 H 306.825 -3.90772 0.203287 0
M  V30 3409 H 306.448 -3.68342 -1.497 0
M  V30 3410 N 307.445 0.0818655 -1.57387 0
M  V30 3411 C 308.375 1.09885 -2.06028 0
M  V30 3412 C 309.356 1.4098 -0.951774 0
M  V30 3413 O 310.541 1.50781 -1.22387 0
M  V30 3414 C 307.671 2.4151 -2.4958 0
M  V30 3415 C 306.625 2.24792 -3.64215 0
M  V30 3416 C 305.951 3.61712 -3.93787 0
M  V30 3417 C 307.251 1.67749 -4.94629 0
M  V30 3418 H 308.945 0.694128 -2.91243 0
M  V30 3419 H 306.491 0.332448 -1.4011 0
M  V30 3420 H 308.444 3.12939 -2.82219 0
M  V30 3421 H 307.168 2.83943 -1.61381 0
M  V30 3422 H 305.827 1.55807 -3.31843 0
M  V30 3423 H 305.475 4.01697 -3.02735 0
M  V30 3424 H 305.175 3.51368 -4.70971 0
M  V30 3425 H 306.699 4.34587 -4.28913 0
M  V30 3426 H 308.113 2.29032 -5.25564 0
M  V30 3427 H 306.51 1.68128 -5.76067 0
M  V30 3428 H 307.58 0.638059 -4.80684 0
M  V30 3429 N 308.923 1.53595 0.353017 0
M  V30 3430 C 309.87 1.80919 1.43308 0
M  V30 3431 C 310.84 0.654288 1.5267 0
M  V30 3432 O 312.025 0.897759 1.6836 0
M  V30 3433 C 309.165 2.01605 2.80089 0
M  V30 3434 C 308.278 3.29321 2.79593 0
M  V30 3435 C 307.413 3.40125 4.0803 0
M  V30 3436 C 306.452 4.61826 4.01725 0
M  V30 3437 N 305.589 4.69716 5.21834 0
M  V30 3438 H 310.429 2.73074 1.19308 0
M  V30 3439 H 307.966 1.35263 0.578131 0
M  V30 3440 H 309.924 2.11586 3.59565 0
M  V30 3441 H 308.554 1.12772 3.0246 0
M  V30 3442 H 307.606 3.28229 1.92276 0
M  V30 3443 H 308.918 4.18884 2.70809 0
M  V30 3444 H 308.072 3.49488 4.95927 0
M  V30 3445 H 306.811 2.48601 4.19582 0
M  V30 3446 H 305.816 4.52552 3.12213 0
M  V30 3447 H 307.041 5.54705 3.91764 0
M  V30 3448 H 304.987 3.81097 5.33948 0
M  V30 3449 H 304.904 5.53202 5.1527 0
M  V30 3450 H 306.172 4.83376 6.11529 0
M  V30 3451 N 310.401 -0.613514 1.45168 0
M  V30 3452 C 311.649 -1.36997 1.48581 0
M  V30 3453 C 311.97 -1.94589 0.126545 0
M  V30 3454 O 311.24 -1.76816 -0.843372 0
M  V30 3455 H 309.82 -0.508558 0.547154 0
M  V30 3456 H 312.482 -0.720853 1.81079 0
M  V30 3457 H 311.578 -2.1924 2.22127 0
M  V30 3458 N 311.879 -1.3236 -0.855495 0
M  V30 3459 C 313.128 -1.22226 -1.60448 0
M  V30 3460 C 313.441 0.214733 -1.94418 0
M  V30 3461 O 314.647 0.437917 -2.67945 0
M  V30 3462 C 313.103 -2.14063 -2.89318 0
M  V30 3463 C 312.711 -3.62839 -2.62777 0
M  V30 3464 C 314.455 -2.12764 -3.67331 0
M  V30 3465 C 312.362 -4.4664 -3.87643 0
M  V30 3466 H 311.292 -0.453904 -0.602069 0
M  V30 3467 H 313.943 -1.57314 -0.944698 0
M  V30 3468 H 312.325 -1.71889 -3.5675 0
M  V30 3469 H 313.499 -4.1335 -2.03662 0
M  V30 3470 H 311.814 -3.66261 -1.98096 0
M  V30 3471 H 314.411 -2.72611 -4.59987 0
M  V30 3472 H 314.754 -1.11841 -4.00995 0
M  V30 3473 H 315.287 -2.53214 -3.06802 0
M  V30 3474 H 312.026 -5.48373 -3.5912 0
M  V30 3475 H 311.546 -4.0088 -4.46156 0
M  V30 3476 H 313.225 -4.59597 -4.55389 0
M  V30 3477 N 313.357 1.07166 -1.15556 0
M  V30 3478 C 314.604 1.79798 -0.931604 0
M  V30 3479 C 314.932 1.8682 0.54115 0
M  V30 3480 O 314.187 1.34942 1.41736 0
M  V30 3481 C 314.486 3.24707 -1.49332 0
M  V30 3482 C 314.152 3.37781 -2.98688 0
M  V30 3483 C 312.814 3.41057 -3.39461 0
M  V30 3484 C 315.166 3.40424 -3.94665 0
M  V30 3485 C 312.494 3.4458 -4.74849 0
M  V30 3486 C 314.846 3.45485 -5.29927 0
M  V30 3487 C 313.51 3.47039 -5.70193 0
M  V30 3488 H 312.78 0.657928 -0.340898 0
M  V30 3489 H 315.427 1.26091 -1.44129 0
M  V30 3490 H 313.732 3.81208 -0.904859 0
M  V30 3491 H 315.429 3.79486 -1.29582 0
M  V30 3492 H 312.019 3.35932 -2.66172 0
M  V30 3493 H 316.203 3.37113 -3.64237 0
M  V30 3494 H 311.459 3.44083 -5.05388 0
M  V30 3495 H 315.633 3.46476 -6.04092 0
M  V30 3496 H 313.26 3.49522 -6.75084 0
M  V30 3497 N 314.835 0.952656 1.25548 0
M  V30 3498 C 315.765 0.489287 2.28316 0
M  V30 3499 C 316.746 -0.463359 1.63667 0
M  V30 3500 O 317.931 -0.36274 1.90782 0
M  V30 3501 C 315.061 -0.235603 3.465 0
M  V30 3502 C 314.015 0.631593 4.23314 0
M  V30 3503 C 313.341 -0.223923 5.34231 0
M  V30 3504 C 314.641 1.90871 4.86174 0
M  V30 3505 H 316.335 1.34822 2.67326 0
M  V30 3506 H 313.881 0.649728 1.28509 0
M  V30 3507 H 315.834 -0.570882 4.17515 0
M  V30 3508 H 314.558 -1.12877 3.06474 0
M  V30 3509 H 313.217 0.949929 3.54079 0
M  V30 3510 H 312.865 -1.11678 4.90446 0
M  V30 3511 H 312.565 0.35299 5.86539 0
M  V30 3512 H 314.089 -0.554214 6.0808 0
M  V30 3513 H 315.503 1.63997 5.49343 0
M  V30 3514 H 313.9 2.43112 5.4865 0
M  V30 3515 H 314.97 2.61304 4.08471 0
M  V30 3516 N 316.313 -1.40141 0.720998 0
M  V30 3517 C 317.276 -2.29058 0.0805834 0
M  V30 3518 C 318.276 -1.45632 -0.681758 0
M  V30 3519 O 319.466 -1.6648 -0.512856 0
M  V30 3520 C 316.598 -3.28925 -0.895593 0
M  V30 3521 H 317.791 -2.87191 0.863793 0
M  V30 3522 H 315.344 -1.48553 0.485975 0
M  V30 3523 H 316.079 -2.75822 -1.70566 0
M  V30 3524 H 315.864 -3.90519 -0.351766 0
M  V30 3525 H 317.354 -3.95494 -1.34069 0
M  V30 3526 N 317.792 -0.46758 -1.50504 0
M  V30 3527 C 318.702 0.33382 -2.32213 0
M  V30 3528 C 319.718 0.999323 -1.42441 0
M  V30 3529 O 320.894 0.988068 -1.75497 0
M  V30 3530 C 317.959 1.4035 -3.17022 0
M  V30 3531 C 317.02 0.754961 -4.2261 0
M  V30 3532 C 316.253 1.77367 -5.03365 0
M  V30 3533 O 316.476 2.99976 -4.8515 0
M  V30 3534 O 315.41 1.34744 -5.86624 0
M  V30 3535 H 319.236 -0.334067 -3.01857 0
M  V30 3536 H 316.821 -0.229496 -1.47627 0
M  V30 3537 H 318.703 2.02318 -3.69656 0
M  V30 3538 H 317.378 2.05492 -2.5011 0
M  V30 3539 H 316.285 0.0964244 -3.73976 0
M  V30 3540 H 317.618 0.146545 -4.91982 0
M  V30 3541 N 319.27 1.56325 -0.20005 0
M  V30 3542 C 320.519 1.96895 0.437652 0
M  V30 3543 C 320.832 1.08999 1.62415 0
M  V30 3544 O 322.038 1.39372 2.32997 0
M  V30 3545 C 320.494 3.50198 0.830025 0
M  V30 3546 C 320.102 4.46765 -0.332461 0
M  V30 3547 C 321.846 3.99526 1.43453 0
M  V30 3548 C 319.753 5.91344 0.0811468 0
M  V30 3549 H 318.683 0.735209 0.167282 0
M  V30 3550 H 321.334 1.81148 -0.292853 0
M  V30 3551 H 319.716 3.61467 1.61734 0
M  V30 3552 H 320.89 4.47231 -1.11 0
M  V30 3553 H 319.205 4.07657 -0.848789 0
M  V30 3554 H 321.802 5.05025 1.75652 0
M  V30 3555 H 322.145 3.44122 2.34277 0
M  V30 3556 H 322.678 3.91393 0.71109 0
M  V30 3557 H 319.417 6.50685 -0.793033 0
M  V30 3558 H 318.937 5.94121 0.823445 0
M  V30 3559 H 320.616 6.44945 0.515252 0
M  V30 3560 N 320.748 -0.0735177 1.57428 0
M  V30 3561 C 321.994 -0.768909 1.88307 0
M  V30 3562 C 322.349 -1.75273 0.793535 0
M  V30 3563 O 321.642 -1.90527 -0.202466 0
M  V30 3564 C 321.836 -1.51799 3.23561 0
M  V30 3565 C 321.665 -0.608217 4.45568 0
M  V30 3566 C 320.435 -0.245808 5.04702 0
M  V30 3567 C 322.633 0.0942904 5.14214 0
M  V30 3568 N 320.615 0.66987 6.10234 0
M  V30 3569 C 321.986 0.867222 6.13905 0
M  V30 3570 C 324.041 0.165943 4.97623 0
M  V30 3571 C 322.744 1.70515 6.98797 0
M  V30 3572 C 324.77 0.990837 5.83041 0
M  V30 3573 C 324.132 1.75182 6.82269 0
M  V30 3574 H 320.231 -0.25685 0.738615 0
M  V30 3575 H 322.815 -0.030499 1.94676 0
M  V30 3576 H 320.986 -2.22713 3.18203 0
M  V30 3577 H 322.718 -2.16226 3.42094 0
M  V30 3578 H 319.473 -0.598284 4.69806 0
M  V30 3579 H 319.897 1.1209 6.67656 0
M  V30 3580 H 324.539 -0.408064 4.20826 0
M  V30 3581 H 322.257 2.29013 7.7497 0
M  V30 3582 H 325.843 1.04923 5.72261 0
M  V30 3583 H 324.723 2.37983 7.47217 0
M  V30 3584 N 322.226 -1.5378 -0.344866 0
M  V30 3585 C 323.189 -1.80981 -1.40637 0
M  V30 3586 C 324.189 -0.680816 -1.45676 0
M  V30 3587 O 325.379 -0.949095 -1.46075 0
M  V30 3588 C 322.511 -1.95063 -2.79577 0
M  V30 3589 H 323.704 -2.75803 -1.17783 0
M  V30 3590 H 321.257 -1.45173 -0.579181 0
M  V30 3591 H 321.992 -1.02379 -3.07716 0
M  V30 3592 H 321.777 -2.77198 -2.77315 0
M  V30 3593 H 323.267 -2.17629 -3.56409 0
M  V30 3594 N 323.704 0.605807 -1.45491 0
M  V30 3595 C 324.614 1.74466 -1.56839 0
M  V30 3596 C 325.63 1.68006 -0.452772 0
M  V30 3597 O 326.806 1.8833 -0.713708 0
M  V30 3598 C 323.871 3.10931 -1.53371 0
M  V30 3599 C 322.932 3.28832 -2.75986 0
M  V30 3600 C 322.165 4.58787 -2.72673 0
M  V30 3601 O 322.388 5.4122 -1.80102 0
M  V30 3602 O 321.322 4.79438 -3.63899 0
M  V30 3603 H 325.148 1.67843 -2.53106 0
M  V30 3604 H 322.733 0.770108 -1.28022 0
M  V30 3605 H 324.615 3.92233 -1.54051 0
M  V30 3606 H 323.29 3.18042 -0.602572 0
M  V30 3607 H 322.197 2.47112 -2.80867 0
M  V30 3608 H 323.53 3.26599 -3.68231 0
M  V30 3609 N 325.182 1.32811 0.848464 0
M  V30 3610 C 326.145 1.22194 1.9391 0
M  V30 3611 C 327.145 0.143404 1.60159 0
M  V30 3612 O 328.335 0.394253 1.6968 0
M  V30 3613 C 325.467 0.88067 3.29328 0
M  V30 3614 H 326.66 2.19127 2.04752 0
M  V30 3615 H 324.213 1.16731 1.0394 0
M  V30 3616 H 324.948 -0.0865776 3.24184 0
M  V30 3617 H 324.733 1.66052 3.55203 0
M  V30 3618 H 326.223 0.830871 4.09251 0
M  V30 3619 N 326.66 -1.06551 1.16123 0
M  V30 3620 C 328.076 -1.3142 0.905585 0
M  V30 3621 C 328.276 -1.96571 -0.442964 0
M  V30 3622 O 327.332 -2.23068 -1.18308 0
M  V30 3623 C 328.645 -2.19741 2.05267 0
M  V30 3624 C 330.193 -2.33165 2.08813 0
M  V30 3625 C 330.668 -3.24838 3.22868 0
M  V30 3626 N 332.159 -3.32421 3.22568 0
M  V30 3627 C 332.894 -4.0344 4.0746 0
M  V30 3628 N 332.39 -4.77003 5.02434 0
M  V30 3629 N 334.183 -3.99464 3.95456 0
M  V30 3630 H 326.334 -0.626548 2.02949 0
M  V30 3631 H 328.597 -0.338777 0.8854 0
M  V30 3632 H 328.303 -1.79142 3.02657 0
M  V30 3633 H 328.177 -3.20313 1.99198 0
M  V30 3634 H 330.564 -2.73013 1.12018 0
M  V30 3635 H 330.645 -1.3227 2.18948 0
M  V30 3636 H 330.289 -2.85708 4.19921 0
M  V30 3637 H 330.219 -4.25707 3.0997 0
M  V30 3638 H 332.71 -2.79994 2.53795 0
M  V30 3639 H 333.023 -5.28712 5.63634 0
M  V30 3640 H 331.368 -4.75992 5.06415 0
M  V30 3641 H 334.559 -3.4111 3.20564 0
M  V30 3642 H 334.732 -4.54544 4.61837 0
M  V30 3643 N 328.138 -0.959301 -1.25041 0
M  V30 3644 C 329.071 -0.427418 -2.24161 0
M  V30 3645 C 330.049 0.493837 -1.54919 0
M  V30 3646 O 331.233 0.427144 -1.83597 0
M  V30 3647 C 328.36 0.383893 -3.36517 0
M  V30 3648 C 327.406 -0.478431 -4.23808 0
M  V30 3649 S 328.239 -1.91353 -5.00144 0
M  V30 3650 C 329.395 -1.11077 -6.15965 0
M  V30 3651 H 329.628 -1.26743 -2.6893 0
M  V30 3652 H 327.161 -0.763714 -1.34189 0
M  V30 3653 H 329.119 0.846039 -4.01687 0
M  V30 3654 H 327.78 1.19878 -2.90324 0
M  V30 3655 H 326.973 0.14406 -5.03794 0
M  V30 3656 H 326.575 -0.87597 -3.63597 0
M  V30 3657 H 328.867 -0.361699 -6.76534 0
M  V30 3658 H 329.81 -1.88472 -6.82557 0
M  V30 3659 H 330.218 -0.638843 -5.60873 0
M  V30 3660 N 329.616 1.39756 -0.72842 0
M  V30 3661 C 330.862 2.00942 -0.273892 0
M  V30 3662 C 331.195 1.57656 1.13394 0
M  V30 3663 O 330.47 0.802434 1.77176 0
M  V30 3664 C 330.753 3.58211 -0.368346 0
M  V30 3665 C 330.606 4.11534 -1.81548 0
M  V30 3666 C 331.925 4.39372 0.253054 0
M  V30 3667 H 329.044 0.730047 -0.100996 0
M  V30 3668 H 331.686 1.66056 -0.923337 0
M  V30 3669 H 329.836 3.88061 0.184588 0
M  V30 3670 H 331.508 3.92431 -2.42478 0
M  V30 3671 H 329.751 3.65341 -2.33898 0
M  V30 3672 H 330.422 5.20682 -1.83288 0
M  V30 3673 H 332.898 4.15527 -0.218224 0
M  V30 3674 H 331.774 5.48677 0.156585 0
M  V30 3675 H 332.035 4.21358 1.33826 0
M  V30 3676 N 331.094 0.475555 1.50254 0
M  V30 3677 C 332.371 -0.139685 1.95101 0
M  V30 3678 C 332.751 -1.56555 1.41611 0
M  V30 3679 O 332.099 -2.19956 0.618993 0
M  V30 3680 C 332.309 -0.0784298 3.48912 0
M  V30 3681 C 333.657 -0.265095 4.23772 0
M  V30 3682 O 334.681 -0.154808 3.55863 0
M  V30 3683 O 333.54 -0.488327 5.44314 0
M  V30 3684 H 330.634 -0.109236 0.819754 0
M  V30 3685 H 333.18 0.536276 1.61004 0
M  V30 3686 H 331.952 0.916918 3.80405 0
M  V30 3687 H 331.575 -0.795655 3.89558 0
M  V30 3688 N 332.573 -1.56217 0.208337 0
M  V30 3689 C 333.483 -2.23316 -0.718836 0
M  V30 3690 C 334.499 -1.23648 -1.22422 0
M  V30 3691 O 335.675 -1.56423 -1.26861 0
M  V30 3692 C 332.74 -2.88968 -1.91568 0
M  V30 3693 C 331.801 -4.03943 -1.45357 0
M  V30 3694 C 331.034 -4.66455 -2.59337 0
M  V30 3695 O 331.257 -4.27919 -3.77149 0
M  V30 3696 O 330.191 -5.55686 -2.31293 0
M  V30 3697 H 334.017 -3.03182 -0.177315 0
M  V30 3698 H 331.602 -1.49384 -0.0215402 0
M  V30 3699 H 333.484 -3.30455 -2.61491 0
M  V30 3700 H 332.159 -2.12071 -2.44556 0
M  V30 3701 H 331.066 -3.67052 -0.722746 0
M  V30 3702 H 332.399 -4.82543 -0.970219 0
M  V30 3703 N 334.051 0.0651679 -1.57465 0
M  V30 3704 C 335.001 1.0838 -2.00594 0
M  V30 3705 C 335.985 1.34106 -0.889071 0
M  V30 3706 O 337.177 1.34295 -1.15299 0
M  V30 3707 C 334.306 2.39565 -2.45894 0
M  V30 3708 C 333.392 2.17085 -3.64328 0
M  V30 3709 N 333.783 1.64553 -4.78285 0
M  V30 3710 C 332.081 2.4753 -3.71006 0
M  V30 3711 C 332.782 1.57042 -5.60101 0
M  V30 3712 N 331.758 2.03328 -5.04141 0
M  V30 3713 H 335.56 0.671062 -2.86136 0
M  V30 3714 H 333.074 0.27213 -1.60104 0
M  V30 3715 H 335.071 3.13308 -2.75034 0
M  V30 3716 H 333.731 2.81549 -1.61741 0
M  V30 3717 H 334.742 1.33323 -5.00445 0
M  V30 3718 H 331.419 2.92835 -2.9758 0
M  V30 3719 H 332.809 1.17223 -6.61595 0
M  V30 3720 N 335.529 1.53961 0.336706 0
M  V30 3721 C 336.777 1.71197 1.07405 0
M  V30 3722 C 337.098 0.481475 1.88962 0
M  V30 3723 O 336.368 -0.504585 1.8929 0
M  V30 3724 H 334.948 0.631185 0.399517 0
M  V30 3725 H 337.61 1.91232 0.376323 0
M  V30 3726 H 336.706 2.58587 1.74755 0
M  V30 3727 N 337.007 -0.598083 1.45811 0
M  V30 3728 C 338.423 -0.919847 1.30426 0
M  V30 3729 C 338.623 -1.99759 0.264303 0
M  V30 3730 O 337.679 -2.50221 -0.338472 0
M  V30 3731 C 338.992 -1.35176 2.68603 0
M  V30 3732 C 340.54 -1.46546 2.76574 0
M  V30 3733 C 341.015 -1.9311 4.15298 0
M  V30 3734 N 342.506 -2.00328 4.1764 0
M  V30 3735 C 343.241 -2.37599 5.21856 0
M  V30 3736 N 342.737 -2.73771 6.36413 0
M  V30 3737 N 344.53 -2.38021 5.09218 0
M  V30 3738 H 336.681 0.114111 2.12093 0
M  V30 3739 H 338.944 -0.0116121 0.947929 0
M  V30 3740 H 338.65 -0.633969 3.45939 0
M  V30 3741 H 338.524 -2.3164 2.97696 0
M  V30 3742 H 340.911 -2.17415 1.99537 0
M  V30 3743 H 340.992 -0.483727 2.51185 0
M  V30 3744 H 340.636 -1.22824 4.92825 0
M  V30 3745 H 340.566 -2.92213 4.38086 0
M  V30 3746 H 343.057 -1.74925 3.34977 0
M  V30 3747 H 343.37 -3.0112 7.11721 0
M  V30 3748 H 341.715 -2.71445 6.39799 0
M  V30 3749 H 344.906 -2.09174 4.18765 0
M  V30 3750 H 345.079 -2.66741 5.90554 0
M  V30 3751 N 338.485 -1.33259 -0.841409 0
M  V30 3752 C 339.734 -1.23921 -1.59143 0
M  V30 3753 C 340.047 0.1941 -1.94635 0
M  V30 3754 O 341.253 0.409474 -2.68394 0
M  V30 3755 C 339.709 -2.17119 -2.87032 0
M  V30 3756 C 339.317 -3.65606 -2.58914 0
M  V30 3757 C 341.061 -2.16648 -3.65053 0
M  V30 3758 C 338.968 -4.50726 -3.82884 0
M  V30 3759 H 337.898 -0.460264 -0.597221 0
M  V30 3760 H 340.549 -1.58307 -0.927959 0
M  V30 3761 H 338.931 -1.75663 -3.54906 0
M  V30 3762 H 340.105 -4.15487 -1.99267 0
M  V30 3763 H 338.42 -3.68341 -1.942 0
M  V30 3764 H 341.017 -2.77474 -4.57069 0
M  V30 3765 H 341.36 -1.16088 -3.99787 0
M  V30 3766 H 341.893 -2.56453 -3.041 0
M  V30 3767 H 338.632 -5.52151 -3.53283 0
M  V30 3768 H 338.152 -4.0559 -4.41879 0
M  V30 3769 H 339.831 -4.64401 -4.50489 0
M  V30 3770 N 339.963 1.05934 -1.16686 0
M  V30 3771 C 341.21 1.788 -0.950622 0
M  V30 3772 C 341.538 1.87384 0.521305 0
M  V30 3773 O 340.793 1.36438 1.40297 0
M  V30 3774 C 341.092 3.23105 -1.52767 0
M  V30 3775 C 340.758 3.34594 -3.02254 0
M  V30 3776 C 339.42 3.37437 -3.43059 0
M  V30 3777 C 341.772 3.36219 -3.98254 0
M  V30 3778 C 339.1 3.39525 -4.78477 0
M  V30 3779 C 341.452 3.39845 -5.33562 0
M  V30 3780 C 340.116 3.40971 -5.73842 0
M  V30 3781 H 339.386 0.654275 -0.347857 0
M  V30 3782 H 342.033 1.24555 -1.45459 0
M  V30 3783 H 340.338 3.80227 -0.94524 0
M  V30 3784 H 342.035 3.7809 -1.336 0
M  V30 3785 H 338.625 3.3309 -2.6972 0
M  V30 3786 H 342.809 3.33231 -3.67792 0
M  V30 3787 H 338.065 3.38703 -5.09009 0
M  V30 3788 H 342.239 3.4005 -6.07733 0
M  V30 3789 H 339.866 3.42342 -6.78753 0
M  V30 3790 N 341.441 0.965919 1.2453 0
M  V30 3791 C 342.689 0.625593 1.92174 0
M  V30 3792 C 343.01 -0.841652 1.75901 0
M  V30 3793 O 342.28 -1.60061 1.12948 0
M  V30 3794 H 340.86 0.228388 0.71123 0
M  V30 3795 H 343.522 1.2266 1.51461 0
M  V30 3796 H 342.618 0.864653 2.99884 0
M  V30 3797 N 342.919 -1.39368 0.735821 0
M  V30 3798 C 344.149 -2.04498 0.293967 0
M  V30 3799 C 344.557 -1.55593 -1.07645 0
M  V30 3800 O 343.9 -0.716324 -1.69158 0
M  V30 3801 C 343.962 -3.58836 0.218342 0
M  V30 3802 C 343.626 -4.30721 1.52736 0
M  V30 3803 C 344.623 -4.57305 2.47322 0
M  V30 3804 C 342.308 -4.69251 1.79189 0
M  V30 3805 C 344.302 -5.21429 3.66593 0
M  V30 3806 C 341.989 -5.33104 2.98737 0
M  V30 3807 C 342.987 -5.59125 3.9226 0
M  V30 3808 O 342.675 -6.21653 5.09708 0
M  V30 3809 H 342.407 -0.664118 0.126189 0
M  V30 3810 H 344.961 -1.79385 1.00051 0
M  V30 3811 H 343.191 -3.8285 -0.544314 0
M  V30 3812 H 344.88 -4.05447 -0.191626 0
M  V30 3813 H 345.646 -4.27983 2.28156 0
M  V30 3814 H 341.525 -4.48354 1.07239 0
M  V30 3815 H 345.069 -5.41656 4.39607 0
M  V30 3816 H 340.966 -5.61846 3.17803 0
M  V30 3817 H 341.734 -6.40146 5.10054 0
M  V30 3818 N 344.397 -0.483516 -1.5 0
M  V30 3819 C 345.33 0.350427 -2.25493 0
M  V30 3820 C 346.308 0.985549 -1.29328 0
M  V30 3821 O 347.492 1.01906 -1.58579 0
M  V30 3822 C 344.619 1.49202 -3.04066 0
M  V30 3823 C 343.665 0.973036 -4.15252 0
M  V30 3824 S 344.498 -0.122237 -5.3536 0
M  V30 3825 C 345.654 1.02294 -6.17484 0
M  V30 3826 H 345.887 -0.290381 -2.95878 0
M  V30 3827 H 343.42 -0.268562 -1.52046 0
M  V30 3828 H 345.378 2.14623 -3.49925 0
M  V30 3829 H 344.039 2.10438 -2.33183 0
M  V30 3830 H 343.232 1.82804 -4.69679 0
M  V30 3831 H 342.834 0.396335 -3.71894 0
M  V30 3832 H 345.126 1.93195 -6.49371 0
M  V30 3833 H 346.069 0.517664 -7.06205 0
M  V30 3834 H 346.477 1.28238 -5.49741 0
M  V30 3835 N 345.875 1.56104 -0.216619 0
M  V30 3836 C 346.805 2.23063 0.690296 0
M  V30 3837 C 347.786 1.20072 1.20485 0
M  V30 3838 O 348.971 1.48643 1.24976 0
M  V30 3839 C 346.101 2.90672 1.90072 0
M  V30 3840 C 345.055 4.00092 1.5202 0
M  V30 3841 C 344.381 4.54972 2.80899 0
M  V30 3842 C 345.681 5.17398 0.71391 0
M  V30 3843 H 347.375 2.99109 0.132038 0
M  V30 3844 H 344.921 1.43866 0.0620664 0
M  V30 3845 H 346.874 3.36204 2.54057 0
M  V30 3846 H 345.598 2.12066 2.48386 0
M  V30 3847 H 344.257 3.55283 0.903839 0
M  V30 3848 H 343.905 3.73102 3.37348 0
M  V30 3849 H 343.605 5.28817 2.56176 0
M  V30 3850 H 345.129 5.0322 3.45836 0
M  V30 3851 H 346.543 5.59342 1.25735 0
M  V30 3852 H 344.94 5.97444 0.563951 0
M  V30 3853 H 346.01 4.84088 -0.280527 0
M  V30 3854 N 347.353 -0.0568162 1.57498 0
M  V30 3855 C 348.301 -1.08452 2.05769 0
M  V30 3856 C 349.295 -1.39164 0.965903 0
M  V30 3857 O 350.501 -1.38395 1.15095 0
M  V30 3858 H 346.876 -0.367148 0.656282 0
M  V30 3859 H 348.847 -0.651368 2.91204 0
M  V30 3860 C 347.596 -2.38543 2.52968 0
M  V30 3861 H 346.919 -2.15765 3.36579 0
M  V30 3862 H 348.359 -3.08863 2.90481 0
M  V30 3863 C 346.818 -3.05562 1.41893 0
M  V30 3864 O 347.348 -3.94262 0.769442 0
M  V30 3865 N 345.554 -2.6643 1.16032 0
M  V30 3866 H 345.101 -1.94387 1.6903 0
M  V30 3867 H 345.059 -3.11593 0.419219 0
M  V30 3868 N 348.832 -1.54138 -0.328536 0
M  V30 3869 C 350.079 -1.72105 -1.06706 0
M  V30 3870 C 350.407 -0.492111 -1.88171 0
M  V30 3871 O 349.662 0.526153 -1.88494 0
M  V30 3872 C 349.961 -2.9457 -2.02393 0
M  V30 3873 C 349.627 -4.29544 -1.37122 0
M  V30 3874 C 348.289 -4.6624 -1.19052 0
M  V30 3875 C 350.641 -5.1333 -0.902331 0
M  V30 3876 C 347.969 -5.84325 -0.527331 0
M  V30 3877 C 350.321 -6.32094 -0.252988 0
M  V30 3878 C 348.985 -6.67473 -0.0600901 0
M  V30 3879 H 348.255 -0.629775 -0.390466 0
M  V30 3880 H 350.902 -1.88372 -0.34473 0
M  V30 3881 H 349.207 -2.72969 -2.81061 0
M  V30 3882 H 350.904 -3.05665 -2.59557 0
M  V30 3883 H 347.494 -4.0067 -1.52188 0
M  V30 3884 H 351.678 -4.855 -1.02974 0
M  V30 3885 H 346.934 -6.103 -0.366634 0
M  V30 3886 H 351.108 -6.96299 0.118366 0
M  V30 3887 H 348.735 -7.58832 0.455828 0
M  V30 3888 N 350.31 0.590341 -1.46126 0
M  V30 3889 C 351.587 1.35029 -1.41515 0
M  V30 3890 C 351.967 2.10888 -0.0946472 0
M  V30 3891 O 351.315 2.08998 0.923693 0
M  V30 3892 C 351.525 2.28269 -2.63997 0
M  V30 3893 C 352.873 2.90338 -3.09821 0
M  V30 3894 O 353.897 2.38585 -2.64492 0
M  V30 3895 O 352.756 3.84321 -3.88535 0
M  V30 3896 H 349.85 0.606317 -0.562413 0
M  V30 3897 H 352.396 0.611994 -1.58281 0
M  V30 3898 H 351.168 1.71591 -3.51671 0
M  V30 3899 H 350.791 3.0945 -2.49652 0
M  V30 3900 N 351.788 1.33704 0.83433 0
M  V30 3901 C 353.016 1.28467 1.62185 0
M  V30 3902 C 353.431 -0.143526 1.88254 0
M  V30 3903 O 352.788 -1.08709 1.4659 0
M  V30 3904 C 352.839 2.06174 2.96942 0
M  V30 3905 O 352.56 3.43422 2.72016 0
M  V30 3906 C 354.061 2.08201 3.91366 0
M  V30 3907 H 351.281 0.4424 0.504503 0
M  V30 3908 H 353.825 1.76145 1.03891 0
M  V30 3909 H 351.98 1.62167 3.51825 0
M  V30 3910 H 352.394 3.83453 3.57861 0
M  V30 3911 H 353.868 2.67017 4.83121 0
M  V30 3912 H 354.345 1.07343 4.2588 0
M  V30 3913 H 354.951 2.52246 3.42421 0
M  V30 3914 N 353.266 -1.05314 1.17247 0
M  V30 3915 C 354.491 -1.82509 0.985148 0
M  V30 3916 C 354.916 -1.82343 -0.461788 0
M  V30 3917 O 354.274 -1.23151 -1.33055 0
M  V30 3918 C 354.322 -3.26566 1.52929 0
M  V30 3919 O 353.426 -4.05666 0.742225 0
M  V30 3920 H 352.767 -0.564347 0.349869 0
M  V30 3921 H 355.297 -1.32718 1.55715 0
M  V30 3922 H 355.307 -3.77369 1.55103 0
M  V30 3923 H 353.982 -3.26001 2.58256 0
M  V30 3924 H 352.559 -3.64397 0.791794 0
M  V30 3925 N 354.744 -0.972509 -1.24016 0
M  V30 3926 C 355.694 -0.477561 -2.22942 0
M  V30 3927 C 356.678 0.44308 -1.54679 0
M  V30 3928 O 357.87 0.273219 -1.74879 0
M  V30 3929 C 354.999 0.226348 -3.42553 0
M  V30 3930 C 354.085 -0.713403 -4.18057 0
M  V30 3931 N 354.476 -1.8527 -4.70647 0
M  V30 3932 C 352.774 -0.525145 -4.42898 0
M  V30 3933 C 353.475 -2.44089 -5.28011 0
M  V30 3934 N 352.451 -1.72556 -5.15486 0
M  V30 3935 H 356.253 -1.34678 -2.61226 0
M  V30 3936 H 353.767 -0.832196 -1.39457 0
M  V30 3937 H 355.764 0.598184 -4.12586 0
M  V30 3938 H 354.424 1.09195 -3.05788 0
M  V30 3939 H 355.435 -2.2341 -4.67235 0
M  V30 3940 H 352.112 0.296096 -4.16449 0
M  V30 3941 H 353.502 -3.40259 -5.79374 0
M  V30 3942 N 356.222 1.38976 -0.743202 0
M  V30 3943 C 357.462 2.02193 -0.29954 0
M  V30 3944 C 357.826 1.5771 1.09506 0
M  V30 3945 O 359.027 2.13184 1.63726 0
M  V30 3946 C 357.298 3.55077 -0.406822 0
M  V30 3947 S 358.857 4.38778 -0.0442109 0
M  V30 3948 H 355.675 0.701335 -0.116836 0
M  V30 3949 H 358.277 1.69651 -0.971529 0
M  V30 3950 H 356.981 3.84942 -1.42295 0
M  V30 3951 H 356.512 3.92383 0.282707 0
M  V30 3952 H 358.527 4.82222 1.16947 0
M  V30 3953 N 357.7 0.491464 1.49741 0
M  V30 3954 C 358.949 -0.0582189 2.01616 0
M  V30 3955 C 359.262 -1.38927 1.3769 0
M  V30 3956 O 360.468 -2.02509 1.80838 0
M  V30 3957 C 358.924 -0.154235 3.59569 0
M  V30 3958 C 358.532 1.1696 4.32463 0
M  V30 3959 C 360.276 -0.65479 4.1942 0
M  V30 3960 C 358.183 1.03627 5.8225 0
M  V30 3961 H 357.113 -0.0255317 0.753568 0
M  V30 3962 H 359.764 0.629445 1.72367 0
M  V30 3963 H 358.146 -0.906138 3.85493 0
M  V30 3964 H 359.32 1.93405 4.18248 0
M  V30 3965 H 357.635 1.60285 3.84315 0
M  V30 3966 H 360.232 -0.771903 5.29099 0
M  V30 3967 H 360.575 -1.65127 3.8215 0
M  V30 3968 H 361.108 0.040304 3.9778 0
M  V30 3969 H 357.847 2.00672 6.24028 0
M  V30 3970 H 357.367 0.312546 5.98985 0
M  V30 3971 H 359.046 0.711114 6.4308 0
M  V30 3972 N 359.178 -1.55987 0.224894 0
M  V30 3973 C 360.125 -2.20436 -0.68385 0
M  V30 3974 C 361.095 -1.16102 -1.18783 0
M  V30 3975 O 362.28 -1.4447 -1.24632 0
M  V30 3976 C 359.42 -2.89076 -1.88491 0
M  V30 3977 C 358.533 -4.08012 -1.41951 0
M  V30 3978 C 357.668 -4.64426 -2.5784 0
M  V30 3979 C 356.707 -5.75656 -2.08053 0
M  V30 3980 N 355.844 -6.26347 -3.17227 0
M  V30 3981 H 360.684 -2.97727 -0.12754 0
M  V30 3982 H 358.221 -1.47011 -0.0511978 0
M  V30 3983 H 360.179 -3.27059 -2.59014 0
M  V30 3984 H 358.809 -2.14298 -2.41405 0
M  V30 3985 H 357.861 -3.75492 -0.609095 0
M  V30 3986 H 359.173 -4.88375 -1.01447 0
M  V30 3987 H 358.327 -5.04869 -3.3644 0
M  V30 3988 H 357.066 -3.83233 -3.01635 0
M  V30 3989 H 356.071 -5.34712 -1.27916 0
M  V30 3990 H 357.296 -6.58686 -1.65255 0
M  V30 3991 H 355.242 -5.48067 -3.60497 0
M  V30 3992 H 355.159 -7.01843 -2.80986 0
M  V30 3993 H 356.427 -6.71447 -3.95953 0
M  V30 3994 N 360.656 0.0484629 -1.57525 0
M  V30 3995 C 361.566 1.07241 -2.08654 0
M  V30 3996 C 362.582 1.409 -1.02095 0
M  V30 3997 O 363.758 1.50609 -1.33712 0
M  V30 3998 C 360.823 2.36008 -2.5397 0
M  V30 3999 C 359.884 2.09108 -3.7493 0
M  V30 4000 C 359.117 3.31736 -4.18075 0
M  V30 4001 O 359.34 4.41714 -3.60895 0
M  V30 4002 O 358.274 3.18576 -5.10679 0
M  V30 4003 H 362.1 0.667965 -2.96263 0
M  V30 4004 H 359.685 0.26417 -1.47046 0
M  V30 4005 H 361.567 3.11747 -2.83535 0
M  V30 4006 H 360.242 2.75786 -1.69481 0
M  V30 4007 H 359.149 1.31 -3.50414 0
M  V30 4008 H 360.482 1.74198 -4.60343 0
M  V30 4009 N 362.134 1.5431 0.320358 0
M  V30 4010 C 363.097 1.83195 1.3774 0
M  V30 4011 C 364.097 0.703906 1.44575 0
M  V30 4012 O 365.287 0.972214 1.44546 0
M  V30 4013 C 362.419 1.99487 2.76438 0
M  V30 4014 H 363.612 2.77642 1.1338 0
M  V30 4015 H 361.165 1.46076 0.556012 0
M  V30 4016 H 361.9 1.07262 3.06048 0
M  V30 4017 H 361.685 2.81575 2.7287 0
M  V30 4018 H 363.175 2.23271 3.52902 0
M  V30 4019 N 363.613 -0.582584 1.46437 0
M  V30 4020 C 364.859 -1.34278 1.51978 0
M  V30 4021 C 365.192 -1.93446 0.170973 0
M  V30 4022 O 364.467 -1.76481 -0.817608 0
M  V30 4023 C 364.75 -2.47203 2.61845 0
M  V30 4024 C 364.603 -1.93069 4.06257 0
M  V30 4025 C 365.922 -3.49247 2.67795 0
M  V30 4026 H 363.041 -0.486876 0.553282 0
M  V30 4027 H 365.683 -0.654437 1.78374 0
M  V30 4028 H 363.833 -3.0592 2.39469 0
M  V30 4029 H 365.505 -1.38808 4.3992 0
M  V30 4030 H 363.748 -1.23898 4.1573 0
M  V30 4031 H 364.419 -2.74586 4.7886 0
M  V30 4032 H 366.895 -3.00411 2.8791 0
M  V30 4033 H 365.771 -4.25719 3.46489 0
M  V30 4034 H 366.032 -4.06482 1.73852 0
M  V30 4035 N 365.091 -1.34144 -0.827227 0
M  V30 4036 C 366.337 -1.27455 -1.58515 0
M  V30 4037 C 366.692 0.155271 -1.91772 0
M  V30 4038 O 365.985 1.10042 -1.56848 0
M  V30 4039 C 366.179 -2.09464 -2.89585 0
M  V30 4040 C 366.008 -3.60276 -2.69131 0
M  V30 4041 C 364.778 -4.29565 -2.66087 0
M  V30 4042 C 366.976 -4.54367 -2.40947 0
M  V30 4043 N 364.958 -5.66252 -2.37132 0
M  V30 4044 C 366.329 -5.79027 -2.21648 0
M  V30 4045 C 368.384 -4.43327 -2.26639 0
M  V30 4046 C 367.087 -6.93891 -1.89492 0
M  V30 4047 C 369.113 -5.58019 -1.95878 0
M  V30 4048 C 368.475 -6.81695 -1.774 0
M  V30 4049 H 364.574 -0.521614 -0.582617 0
M  V30 4050 H 367.158 -1.68811 -0.970105 0
M  V30 4051 H 365.329 -1.70411 -3.49019 0
M  V30 4052 H 367.061 -1.94453 -3.54923 0
M  V30 4053 H 363.816 -3.81959 -2.80008 0
M  V30 4054 H 364.24 -6.38338 -2.25507 0
M  V30 4055 H 368.882 -3.48333 -2.39633 0
M  V30 4056 H 366.6 -7.88871 -1.75236 0
M  V30 4057 H 370.186 -5.5142 -1.85546 0
M  V30 4058 H 369.066 -7.68942 -1.53941 0
M  V30 4059 N 366.569 1.04691 -1.17803 0
M  V30 4060 C 367.516 2.12557 -0.899343 0
M  V30 4061 C 368.486 1.65339 0.158771 0
M  V30 4062 O 369.671 1.90789 0.0204797 0
M  V30 4063 C 366.811 3.42481 -0.424315 0
M  V30 4064 C 365.924 4.03346 -1.54713 0
M  V30 4065 C 365.059 5.21208 -1.02546 0
M  V30 4066 C 364.098 5.74089 -2.12339 0
M  V30 4067 N 363.235 6.83247 -1.61612 0
M  V30 4068 H 368.075 2.35734 -1.823 0
M  V30 4069 H 365.612 1.1564 -0.909159 0
M  V30 4070 H 367.57 4.16996 -0.130421 0
M  V30 4071 H 366.2 3.19471 0.462377 0
M  V30 4072 H 365.252 3.2622 -1.95664 0
M  V30 4073 H 366.564 4.38628 -2.37501 0
M  V30 4074 H 365.718 6.02812 -0.685718 0
M  V30 4075 H 364.457 4.87414 -0.167084 0
M  V30 4076 H 363.462 4.91111 -2.47165 0
M  V30 4077 H 364.687 6.0993 -2.98601 0
M  V30 4078 H 362.633 6.5134 -0.780533 0
M  V30 4079 H 362.55 7.17559 -2.38003 0
M  V30 4080 H 363.818 7.68491 -1.30545 0
M  V30 4081 N 368.047 0.979072 1.23499 0
M  V30 4082 C 368.957 0.526431 2.28617 0
M  V30 4083 C 369.973 -0.418126 1.68901 0
M  V30 4084 O 371.149 -0.288372 1.99325 0
M  V30 4085 C 368.214 -0.165235 3.46306 0
M  V30 4086 C 367.275 0.82056 4.21385 0
M  V30 4087 C 366.508 0.161807 5.33455 0
M  V30 4088 O 366.731 -1.04742 5.60701 0
M  V30 4089 O 365.665 0.859708 5.95729 0
M  V30 4090 H 369.491 1.4006 2.69475 0
M  V30 4091 H 367.076 0.746643 1.29405 0
M  V30 4092 H 368.958 -0.553287 4.17752 0
M  V30 4093 H 367.633 -1.01419 3.07402 0
M  V30 4094 H 366.54 1.25929 3.52268 0
M  V30 4095 H 367.873 1.63828 4.64135 0
M  V30 4096 N 369.525 -1.3858 0.750561 0
M  V30 4097 C 370.473 -2.32339 0.110162 0
M  V30 4098 C 371.467 -1.53864 -0.708674 0
M  V30 4099 O 372.673 -1.69417 -0.608112 0
M  V30 4100 H 369.048 -0.751812 0.0168275 0
M  V30 4101 H 371.019 -2.83959 0.917053 0
M  V30 4102 C 369.768 -3.39043 -0.771067 0
M  V30 4103 H 369.091 -3.99517 -0.150374 0
M  V30 4104 H 370.531 -4.07061 -1.1865 0
M  V30 4105 C 368.99 -2.77365 -1.91234 0
M  V30 4106 O 369.52 -2.66434 -3.00626 0
M  V30 4107 N 367.726 -2.35219 -1.70646 0
M  V30 4108 H 367.273 -2.4431 -0.81673 0
M  V30 4109 H 367.231 -1.94294 -2.47178 0
M  V30 4110 N 371.003 -0.499398 -1.49478 0
M  V30 4111 C 372.231 0.0425456 -2.06856 0
M  V30 4112 C 372.646 1.30964 -1.35992 0
M  V30 4113 O 372.003 1.77172 -0.437762 0
M  V30 4114 C 372.054 0.301735 -3.60239 0
M  V30 4115 O 371.775 -0.915127 -4.28436 0
M  V30 4116 C 373.276 0.887499 -4.34325 0
M  V30 4117 H 370.496 -0.0197482 -0.670709 0
M  V30 4118 H 373.04 -0.696297 -1.92281 0
M  V30 4119 H 371.195 0.990556 -3.74522 0
M  V30 4120 H 371.609 -0.676993 -5.20113 0
M  V30 4121 H 373.083 1.01845 -5.42523 0
M  V30 4122 H 373.56 1.88488 -3.96698 0
M  V30 4123 H 374.166 0.236196 -4.24644 0
M  V30 4124 N 372.481 1.55866 -0.233164 0
M  V30 4125 C 373.897 1.59133 0.121988 0
M  V30 4126 C 374.097 1.25016 1.58029 0
M  V30 4127 O 373.153 0.990922 2.32243 0
M  V30 4128 C 374.466 2.99932 -0.214792 0
M  V30 4129 C 376.014 3.12601 -0.157971 0
M  V30 4130 C 376.489 4.55597 -0.46859 0
M  V30 4131 N 377.98 4.61305 -0.418585 0
M  V30 4132 C 378.715 5.69903 -0.63227 0
M  V30 4133 N 378.211 6.86819 -0.90835 0
M  V30 4134 N 380.004 5.59264 -0.563913 0
M  V30 4135 H 372.155 1.76315 -1.18434 0
M  V30 4136 H 374.418 0.820093 -0.475553 0
M  V30 4137 H 374.124 3.29588 -1.22739 0
M  V30 4138 H 373.998 3.74327 0.464691 0
M  V30 4139 H 376.385 2.82735 0.845283 0
M  V30 4140 H 376.466 2.40511 -0.871102 0
M  V30 4141 H 376.11 4.86182 -1.46934 0
M  V30 4142 H 376.04 5.25928 0.265865 0
M  V30 4143 H 378.531 3.77297 -0.213368 0
M  V30 4144 H 378.844 7.65507 -1.05919 0
M  V30 4145 H 377.189 6.88536 -0.945673 0
M  V30 4146 H 380.38 4.66802 -0.348372 0
M  V30 4147 H 380.553 6.43831 -0.733847 0
M  V30 4148 N 373.959 -0.0401083 1.57549 0
M  V30 4149 C 375.205 -0.734211 1.89043 0
M  V30 4150 C 375.538 -1.75591 0.829535 0
M  V30 4151 O 374.813 -1.93868 -0.156706 0
M  V30 4152 C 375.096 -1.41374 3.31188 0
M  V30 4153 C 374.949 -0.406299 4.47961 0
M  V30 4154 C 376.268 -2.35061 3.72068 0
M  V30 4155 H 373.387 -0.265447 0.687537 0
M  V30 4156 H 376.029 0.00294087 1.9 0
M  V30 4157 H 374.179 -2.04206 3.30503 0
M  V30 4158 H 375.851 0.219255 4.60779 0
M  V30 4159 H 374.094 0.275485 4.32924 0
M  V30 4160 H 374.765 -0.920022 5.44279 0
M  V30 4161 H 377.241 -1.82282 3.74049 0
M  V30 4162 H 376.117 -2.79593 4.72355 0
M  V30 4163 H 376.378 -3.21258 3.0372 0
M  V30 4164 N 375.437 -1.54477 -0.31217 0
M  V30 4165 C 376.367 -1.87652 -1.38957 0
M  V30 4166 C 377.348 -0.734358 -1.53431 0
M  V30 4167 O 378.533 -0.98911 -1.67123 0
M  V30 4168 C 375.663 -2.11396 -2.75552 0
M  V30 4169 C 374.617 -3.27243 -2.75855 0
M  V30 4170 C 373.943 -3.36382 -4.15633 0
M  V30 4171 C 375.243 -4.64622 -2.38587 0
M  V30 4172 H 376.937 -2.77887 -1.11442 0
M  V30 4173 H 374.483 -1.33707 -0.534655 0
M  V30 4174 H 376.436 -2.33189 -3.51 0
M  V30 4175 H 375.16 -1.17921 -3.04569 0
M  V30 4176 H 373.819 -3.05356 -2.02863 0
M  V30 4177 H 373.467 -2.40445 -4.41809 0
M  V30 4178 H 373.167 -4.14249 -4.1674 0
M  V30 4179 H 374.691 -3.60422 -4.92877 0
M  V30 4180 H 376.105 -4.86219 -3.03749 0
M  V30 4181 H 374.502 -5.45121 -2.50925 0
M  V30 4182 H 375.572 -4.66097 -1.33723 0
M  V30 4183 N 376.915 0.57481 -1.46744 0
M  V30 4184 C 378.164 1.32898 -1.51727 0
M  V30 4185 C 378.477 1.948 -0.176692 0
M  V30 4186 O 379.683 2.71299 -0.104385 0
M  V30 4187 C 378.139 2.40901 -2.67385 0
M  V30 4188 C 377.747 1.85266 -4.07898 0
M  V30 4189 C 379.491 3.17609 -2.81646 0
M  V30 4190 C 377.398 2.90945 -5.14883 0
M  V30 4191 H 376.328 0.499631 -0.564699 0
M  V30 4192 H 378.979 0.612536 -1.72975 0
M  V30 4193 H 377.361 3.15379 -2.39483 0
M  V30 4194 H 378.535 1.17278 -4.45626 0
M  V30 4195 H 376.85 1.21199 -3.98371 0
M  V30 4196 H 379.447 3.96493 -3.58744 0
M  V30 4197 H 379.79 3.70696 -1.89448 0
M  V30 4198 H 380.323 2.50239 -3.09233 0
M  V30 4199 H 377.062 2.42736 -6.089 0
M  V30 4200 H 376.582 3.57398 -4.81691 0
M  V30 4201 H 378.261 3.54755 -5.41071 0
M  V30 4202 N 378.394 1.34581 0.820102 0
M  V30 4203 C 379.304 1.28471 1.96297 0
M  V30 4204 C 380.32 0.191902 1.72939 0
M  V30 4205 O 381.496 0.418879 1.96996 0
M  V30 4206 C 378.561 1.04281 3.30645 0
M  V30 4207 C 377.622 2.22745 3.66992 0
M  V30 4208 C 376.855 1.997 4.9493 0
M  V30 4209 O 377.078 0.956656 5.6232 0
M  V30 4210 O 376.012 2.86723 5.2922 0
M  V30 4211 H 379.838 2.24624 2.04396 0
M  V30 4212 H 377.423 1.14816 0.955913 0
M  V30 4213 H 379.305 0.925841 4.11104 0
M  V30 4214 H 377.98 0.111697 3.23507 0
M  V30 4215 H 376.887 2.40003 2.86966 0
M  V30 4216 H 378.22 3.14257 3.78819 0
M  V30 4217 N 379.872 -1.04064 1.18357 0
M  V30 4218 C 381.097 -1.81454 1.00445 0
M  V30 4219 C 381.522 -1.82823 -0.442423 0
M  V30 4220 O 380.88 -1.24555 -1.31741 0
M  V30 4221 C 380.928 -3.24925 1.56384 0
M  V30 4222 O 380.032 -4.04856 0.785209 0
M  V30 4223 H 379.373 -0.560604 0.355835 0
M  V30 4224 H 381.903 -1.31059 1.57114 0
M  V30 4225 H 381.913 -3.75702 1.59097 0
M  V30 4226 H 380.588 -3.23244 2.61699 0
M  V30 4227 H 379.165 -3.63537 0.830399 0
M  V30 4228 N 381.35 -0.985608 -1.22978 0
M  V30 4229 C 382.599 -0.652881 -1.90841 0
M  V30 4230 C 382.912 0.817842 -1.77681 0
M  V30 4231 O 384.118 1.26185 -2.40395 0
M  V30 4232 C 382.574 -1.11717 -3.42122 0
M  V30 4233 C 382.182 -2.6126 -3.63933 0
M  V30 4234 C 383.926 -0.85843 -4.1573 0
M  V30 4235 C 381.833 -3.0133 -5.08876 0
M  V30 4236 H 380.763 -0.240491 -0.714619 0
M  V30 4237 H 383.414 -1.1942 -1.39324 0
M  V30 4238 H 381.796 -0.504027 -3.92779 0
M  V30 4239 H 382.97 -3.27858 -3.23799 0
M  V30 4240 H 381.285 -2.84937 -3.03644 0
M  V30 4241 H 383.882 -1.13359 -5.22546 0
M  V30 4242 H 384.225 0.205461 -4.15793 0
M  V30 4243 H 384.758 -1.43341 -3.71077 0
M  V30 4244 H 381.497 -4.06864 -5.13947 0
M  V30 4245 H 381.017 -2.3943 -5.49939 0
M  V30 4246 H 382.696 -2.92224 -5.77247 0
M  V30 4247 N 382.828 1.3818 -0.7579 0
M  V30 4248 C 383.738 2.3421 -0.135247 0
M  V30 4249 C 384.754 1.59487 0.695683 0
M  V30 4250 O 385.93 1.91657 0.618832 0
M  V30 4251 C 382.995 3.3862 0.744139 0
M  V30 4252 C 382.056 4.2918 -0.101658 0
M  V30 4253 C 381.289 5.28603 0.735851 0
M  V30 4254 O 381.512 5.35166 1.97366 0
M  V30 4255 O 380.446 6.01707 0.152372 0
M  V30 4256 H 384.272 2.8916 -0.928436 0
M  V30 4257 H 381.857 1.40101 -0.518855 0
M  V30 4258 H 383.739 4.02539 1.2466 0
M  V30 4259 H 382.414 2.86019 1.51575 0
M  V30 4260 H 381.321 3.68407 -0.650167 0
M  V30 4261 H 382.654 4.85048 -0.836024 0
M  V30 4262 N 384.306 0.507319 1.49211 0
M  V30 4263 C 385.722 0.163682 1.58758 0
M  V30 4264 C 385.922 -1.33208 1.51188 0
M  V30 4265 O 384.978 -2.10855 1.38911 0
M  V30 4266 C 386.291 0.746095 2.91297 0
M  V30 4267 C 387.839 0.712773 3.04776 0
M  V30 4268 C 388.314 1.27336 4.39943 0
M  V30 4269 N 389.805 1.23433 4.46451 0
M  V30 4270 C 390.54 1.63821 5.495 0
M  V30 4271 N 390.036 2.11832 6.5962 0
M  V30 4272 N 391.829 1.55198 5.4025 0
M  V30 4273 H 383.98 1.47972 1.52375 0
M  V30 4274 H 386.243 0.614147 0.722168 0
M  V30 4275 H 385.949 1.79534 3.02424 0
M  V30 4276 H 385.823 0.210137 3.76614 0
M  V30 4277 H 388.21 -0.327656 2.93275 0
M  V30 4278 H 388.291 1.28595 2.21127 0
M  V30 4279 H 387.935 2.3126 4.52196 0
M  V30 4280 H 387.865 0.676066 5.22242 0
M  V30 4281 H 390.356 0.882627 3.67448 0
M  V30 4282 H 390.669 2.40703 7.34358 0
M  V30 4283 H 389.014 2.1581 6.60644 0
M  V30 4284 H 392.205 1.17505 4.53112 0
M  V30 4285 H 392.378 1.86997 6.20432 0
M  V30 4286 N 385.784 -1.5574 0.241426 0
M  V30 4287 C 386.747 -2.19877 -0.647063 0
M  V30 4288 C 387.747 -1.16642 -1.10686 0
M  V30 4289 O 388.937 -1.41757 -1.01245 0
M  V30 4290 C 386.069 -2.83797 -1.88871 0
M  V30 4291 H 387.262 -2.99772 -0.087574 0
M  V30 4292 H 384.815 -1.56298 -0.00813574 0
M  V30 4293 H 385.55 -2.07824 -2.48957 0
M  V30 4294 H 385.335 -3.59414 -1.56728 0
M  V30 4295 H 386.825 -3.32898 -2.52129 0
M  V30 4296 N 387.262 0.0317525 -1.57568 0
M  V30 4297 C 388.508 0.724175 -1.8943 0
M  V30 4298 C 388.841 1.75149 -0.838836 0
M  V30 4299 O 388.116 1.93948 0.146422 0
M  V30 4300 C 388.399 1.39615 -3.31933 0
M  V30 4301 C 388.252 0.382537 -4.4817 0
M  V30 4302 C 389.571 2.33084 -3.73309 0
M  V30 4303 H 386.69 0.261797 -0.688935 0
M  V30 4304 H 389.332 -0.013017 -1.89996 0
M  V30 4305 H 387.482 2.02451 -3.31581 0
M  V30 4306 H 389.154 -0.243689 -4.60656 0
M  V30 4307 H 387.397 -0.29844 -4.32772 0
M  V30 4308 H 388.068 0.891145 -5.44759 0
M  V30 4309 H 390.544 1.80295 -3.7501 0
M  V30 4310 H 389.42 2.77084 -4.73831 0
M  V30 4311 H 389.681 3.19643 -3.05419 0
M  V30 4312 N 388.74 1.54641 0.303973 0
M  V30 4313 C 389.989 1.7299 1.03717 0
M  V30 4314 C 390.302 0.521168 1.88529 0
M  V30 4315 O 391.508 0.586408 2.65092 0
M  V30 4316 C 389.964 3.06051 1.89369 0
M  V30 4317 C 389.572 4.34393 1.09574 0
M  V30 4318 C 391.316 3.3376 2.62306 0
M  V30 4319 C 389.223 5.58506 1.94486 0
M  V30 4320 H 388.153 0.64473 0.390947 0
M  V30 4321 H 390.804 1.81124 0.294328 0
M  V30 4322 H 389.186 2.91874 2.67629 0
M  V30 4323 H 390.36 4.59396 0.359485 0
M  V30 4324 H 388.675 4.13597 0.482324 0
M  V30 4325 H 391.272 4.23687 3.26181 0
M  V30 4326 H 391.615 2.52503 3.3098 0
M  V30 4327 H 392.148 3.48894 1.91097 0
M  V30 4328 H 388.887 6.42422 1.30287 0
M  V30 4329 H 388.407 5.37694 2.65792 0
M  V30 4330 H 390.086 5.95651 2.52605 0
M  V30 4331 N 390.218 -0.567019 1.47046 0
M  V30 4332 C 391.466 -1.322 1.52864 0
M  V30 4333 C 391.787 -1.94088 0.188388 0
M  V30 4334 O 391.057 -1.7941 -0.786693 0
M  V30 4335 H 389.637 -0.490894 0.563056 0
M  V30 4336 H 392.299 -0.662879 1.83281 0
M  V30 4337 H 391.395 -2.12062 2.2899 0
M  V30 4338 N 391.696 -1.35014 -0.812953 0
M  V30 4339 C 392.643 -1.27412 -1.92444 0
M  V30 4340 C 393.613 -0.14733 -1.65445 0
M  V30 4341 O 394.798 -0.329974 -1.87925 0
M  V30 4342 C 391.938 -1.04558 -3.28879 0
M  V30 4343 C 391.051 -2.26101 -3.68106 0
M  V30 4344 C 390.186 -1.96449 -4.9354 0
M  V30 4345 C 389.225 -3.14081 -5.25376 0
M  V30 4346 N 388.362 -2.84246 -6.41988 0
M  V30 4347 H 393.202 -2.22463 -1.98278 0
M  V30 4348 H 390.739 -1.10593 -0.969933 0
M  V30 4349 H 392.697 -0.893413 -4.07522 0
M  V30 4350 H 391.327 -0.131719 -3.22531 0
M  V30 4351 H 390.379 -2.52204 -2.84775 0
M  V30 4352 H 391.691 -3.13959 -3.87597 0
M  V30 4353 H 390.845 -1.78026 -5.79993 0
M  V30 4354 H 389.584 -1.05867 -4.76071 0
M  V30 4355 H 388.589 -3.33089 -4.37415 0
M  V30 4356 H 389.814 -4.05455 -5.44778 0
M  V30 4357 H 387.76 -1.96252 -6.25956 0
M  V30 4358 H 387.677 -3.65637 -6.61699 0
M  V30 4359 H 388.945 -2.6935 -7.31485 0
M  V30 4360 N 393.175 1.03435 -1.18907 0
M  V30 4361 C 394.452 1.73778 -0.89781 0
M  V30 4362 C 394.832 2.02458 0.597832 0
M  V30 4363 O 394.18 1.67482 1.55441 0
M  V30 4364 C 394.39 3.01845 -1.75187 0
M  V30 4365 C 395.738 3.7546 -1.9828 0
M  V30 4366 O 396.762 3.11759 -1.72293 0
M  V30 4367 O 395.621 4.89966 -2.42065 0
M  V30 4368 H 392.715 0.75651 -0.334098 0
M  V30 4369 H 395.261 1.09444 -1.29693 0
M  V30 4370 H 394.033 2.76836 -2.76545 0
M  V30 4371 H 393.656 3.73919 -1.35167 0
M  V30 4372 N 394.653 0.992116 1.22453 0
M  V30 4373 C 395.883 0.684949 1.94915 0
M  V30 4374 C 396.291 -0.754292 1.73514 0
M  V30 4375 O 395.634 -1.52056 1.03076 0
M  V30 4376 C 395.696 0.910054 3.47791 0
M  V30 4377 C 395.36 2.33363 3.92926 0
M  V30 4378 C 396.357 3.31308 4.00663 0
M  V30 4379 C 394.042 2.66785 4.25595 0
M  V30 4380 C 396.036 4.6075 4.40441 0
M  V30 4381 C 393.723 3.96446 4.65053 0
M  V30 4382 C 394.721 4.9324 4.72444 0
M  V30 4383 O 394.409 6.20584 5.1101 0
M  V30 4384 H 394.141 0.25258 0.62704 0
M  V30 4385 H 396.695 1.32939 1.56577 0
M  V30 4386 H 394.925 0.208443 3.86138 0
M  V30 4387 H 396.614 0.598257 4.01467 0
M  V30 4388 H 397.38 3.0682 3.75615 0
M  V30 4389 H 393.259 1.92148 4.19047 0
M  V30 4390 H 396.803 5.363 4.46126 0
M  V30 4391 H 392.7 4.20724 4.89552 0
M  V30 4392 H 393.468 6.24509 5.29085 0
M  V30 4393 N 396.131 -1.37776 0.765217 0
M  V30 4394 C 397.061 -2.32945 0.160953 0
M  V30 4395 C 398.042 -1.55454 -0.690516 0
M  V30 4396 O 399.227 -1.83721 -0.629318 0
M  V30 4397 C 396.357 -3.39669 -0.724031 0
M  V30 4398 C 395.311 -4.27992 0.0256173 0
M  V30 4399 C 394.637 -5.25673 -0.978383 0
M  V30 4400 C 395.937 -5.08309 1.20082 0
M  V30 4401 H 397.631 -2.83728 0.955969 0
M  V30 4402 H 395.177 -1.36416 0.461149 0
M  V30 4403 H 397.13 -4.05219 -1.15652 0
M  V30 4404 H 395.854 -2.87396 -1.5515 0
M  V30 4405 H 394.513 -3.63964 0.438812 0
M  V30 4406 H 394.161 -4.69682 -1.80022 0
M  V30 4407 H 393.861 -5.85625 -0.481378 0
M  V30 4408 H 395.385 -5.94098 -1.40995 0
M  V30 4409 H 396.799 -5.67034 0.845307 0
M  V30 4410 H 395.196 -5.77554 1.62947 0
M  V30 4411 H 396.266 -4.41365 2.00811 0
M  V30 4412 N 397.609 -0.515225 -1.4894 0
M  V30 4413 C 399.02 -0.0710067 -1.86565 0
M  V30 4414 C 399.371 1.34733 -1.42623 0
M  V30 4415 O 398.496 2.00653 -0.810379 0
M  V30 4416 C 399.091 -0.122083 -3.3858 0
M  V30 4417 C 397.65 0.266863 -3.75453 0
M  V30 4418 C 396.797 -0.488376 -2.72966 0
M  V30 4419 H 399.748 -0.727266 -1.41055 0
M  V30 4420 H 399.769 0.669818 -3.74558 0
M  V30 4421 H 399.281 -1.15448 -3.70531 0
M  V30 4422 H 397.382 1.30196 -3.49113 0
M  V30 4423 H 397.495 -0.0624811 -4.79059 0
M  V30 4424 H 395.859 0.0635622 -2.54621 0
M  V30 4425 H 396.642 -1.52113 -3.07761 0
M  V30 4426 N 399.087 1.5561 -0.249682 0
M  V30 4427 C 400.333 1.99306 0.374841 0
M  V30 4428 C 400.666 1.13767 1.57387 0
M  V30 4429 O 399.941 0.201711 1.93451 0
M  V30 4430 C 400.224 3.51507 0.781986 0
M  V30 4431 C 400.077 4.4781 -0.422629 0
M  V30 4432 C 401.396 4.08884 1.62793 0
M  V30 4433 H 398.515 0.724572 0.134773 0
M  V30 4434 H 401.157 1.86719 -0.351549 0
M  V30 4435 H 399.307 3.62363 1.4009 0
M  V30 4436 H 400.979 4.48931 -1.06108 0
M  V30 4437 H 399.222 4.20518 -1.06524 0
M  V30 4438 H 399.893 5.51919 -0.0943766 0
M  V30 4439 H 402.369 4.01147 1.10547 0
M  V30 4440 H 401.245 5.1564 1.88166 0
M  V30 4441 H 401.506 3.57515 2.60068 0
M  V30 4442 N 400.565 -0.0233959 1.57583 0
M  V30 4443 C 401.513 -1.04063 2.08023 0
M  V30 4444 C 402.507 -1.37084 0.995204 0
M  V30 4445 O 403.713 -1.35923 1.18004 0
M  V30 4446 H 400.088 -0.353144 0.663922 0
M  V30 4447 H 402.059 -0.589453 2.9252 0
M  V30 4448 C 400.808 -2.33123 2.57971 0
M  V30 4449 H 400.131 -2.08577 3.4108 0
M  V30 4450 H 401.571 -3.02632 2.96967 0
M  V30 4451 C 400.03 -3.02483 1.48342 0
M  V30 4452 O 400.56 -3.92541 0.852898 0
M  V30 4453 N 398.766 -2.63909 1.21658 0
M  V30 4454 H 398.313 -1.90758 1.73116 0
M  V30 4455 H 398.271 -3.10633 0.485218 0
M  V30 4456 N 402.043 -1.548 -0.295768 0
M  V30 4457 C 403.29 -1.74329 -1.03032 0
M  V30 4458 C 403.618 -0.531915 -1.87085 0
M  V30 4459 O 402.873 0.486052 -1.89568 0
M  V30 4460 C 403.172 -2.98797 -1.961 0
M  V30 4461 C 402.838 -4.32356 -1.2798 0
M  V30 4462 C 401.5 -4.68661 -1.09135 0
M  V30 4463 C 403.852 -5.15128 -0.793243 0
M  V30 4464 C 401.18 -5.85312 -0.403269 0
M  V30 4465 C 403.532 -6.32488 -0.118854 0
M  V30 4466 C 402.196 -6.6745 0.0815043 0
M  V30 4467 H 401.466 -0.637916 -0.37702 0
M  V30 4468 H 404.113 -1.8906 -0.304696 0
M  V30 4469 H 402.418 -2.78869 -2.75207 0
M  V30 4470 H 404.115 -3.11102 -2.53015 0
M  V30 4471 H 400.705 -4.03808 -1.43655 0
M  V30 4472 H 404.889 -4.87575 -0.92653 0
M  V30 4473 H 400.145 -6.1094 -0.237098 0
M  V30 4474 H 404.319 -6.95892 0.266035 0
M  V30 4475 H 401.946 -7.57695 0.616685 0
M  V30 4476 N 403.521 0.559213 -1.47345 0
M  V30 4477 C 404.749 1.34194 -1.57479 0
M  V30 4478 C 405.164 1.87463 -0.224261 0
M  V30 4479 O 404.521 1.64888 0.782185 0
M  V30 4480 C 404.572 2.51324 -2.59843 0
M  V30 4481 O 404.293 2.00256 -3.89653 0
M  V30 4482 C 405.794 3.43563 -2.80142 0
M  V30 4483 H 403.014 0.409136 -0.531835 0
M  V30 4484 H 405.558 0.677609 -1.92947 0
M  V30 4485 H 403.713 3.13699 -2.27314 0
M  V30 4486 H 404.127 2.76708 -4.4557 0
M  V30 4487 H 405.601 4.2217 -3.55635 0
M  V30 4488 H 406.078 3.9698 -1.87892 0
M  V30 4489 H 406.684 2.87005 -3.1386 0
M  V30 4490 N 404.999 1.35443 0.805782 0
M  V30 4491 C 406.224 1.32037 1.59941 0
M  V30 4492 C 406.649 -0.0994215 1.87837 0
M  V30 4493 O 406.007 -1.06648 1.46615 0
M  V30 4494 C 406.055 2.13354 2.90711 0
M  V30 4495 O 405.159 1.5148 3.83572 0
M  V30 4496 H 404.5 0.452666 0.485787 0
M  V30 4497 H 407.03 1.78496 1.00002 0
M  V30 4498 H 407.04 2.25338 3.40128 0
M  V30 4499 H 405.715 3.16572 2.69732 0
M  V30 4500 H 404.292 1.4834 3.42125 0
M  V30 4501 N 406.477 -1.02803 1.19454 0
M  V30 4502 C 407.425 -2.13213 0.929673 0
M  V30 4503 C 408.419 -1.69011 -0.114806 0
M  V30 4504 O 409.625 -1.79967 0.0345147 0
M  V30 4505 H 406 -0.69662 0.28324 0
M  V30 4506 H 407.971 -2.32744 1.86743 0
M  V30 4507 C 406.72 -3.4429 0.485797 0
M  V30 4508 H 406.043 -3.7872 1.28105 0
M  V30 4509 H 407.483 -4.22638 0.339582 0
M  V30 4510 C 405.942 -3.27258 -0.800244 0
M  V30 4511 O 406.472 -3.55967 -1.86146 0
M  V30 4512 N 404.678 -2.80545 -0.75781 0
M  V30 4513 H 404.225 -2.57382 0.106039 0
M  V30 4514 H 404.183 -2.6953 -1.61867 0
M  V30 4515 N 407.956 -0.998596 -1.21925 0
M  V30 4516 C 408.906 -0.524743 -2.21879 0
M  V30 4517 C 409.89 0.41017 -1.55584 0
M  V30 4518 O 411.082 0.236063 -1.75419 0
M  V30 4519 C 408.211 0.153636 -3.42956 0
M  V30 4520 C 407.297 -0.801918 -4.16449 0
M  V30 4521 N 407.688 -1.95211 -4.66611 0
M  V30 4522 C 405.986 -0.618972 -4.41684 0
M  V30 4523 C 406.687 -2.55234 -5.22715 0
M  V30 4524 N 405.663 -1.83451 -5.1171 0
M  V30 4525 H 409.465 -1.40189 -2.58311 0
M  V30 4526 H 406.979 -0.86159 -1.3766 0
M  V30 4527 H 408.976 0.510534 -4.13762 0
M  V30 4528 H 407.636 1.02684 -3.08036 0
M  V30 4529 H 408.647 -2.33271 -4.62391 0
M  V30 4530 H 405.324 0.207694 -4.16983 0
M  V30 4531 H 406.714 -3.52471 -5.72026 0
M  V30 4532 N 409.434 1.37368 -0.772513 0
M  V30 4533 C 410.711 1.93839 -0.26188 0
M  V30 4534 C 411.091 1.7061 1.24319 0
M  V30 4535 O 410.439 1.05534 2.02669 0
M  V30 4536 C 410.649 3.43154 -0.636102 0
M  V30 4537 C 411.997 4.20249 -0.606324 0
M  V30 4538 O 413.021 3.5152 -0.575538 0
M  V30 4539 O 411.88 5.42809 -0.634086 0
M  V30 4540 H 408.974 0.82478 -0.0605555 0
M  V30 4541 H 411.52 1.4665 -0.853917 0
M  V30 4542 H 410.292 3.53647 -1.6748 0
M  V30 4543 H 409.915 3.97596 -0.0170516 0
M  V30 4544 N 410.912 0.523116 1.48665 0
M  V30 4545 C 411.845 -0.290518 2.26343 0
M  V30 4546 C 412.823 -0.950913 1.31895 0
M  V30 4547 O 414.007 -0.976662 1.61225 0
M  V30 4548 C 411.134 -1.41088 3.07915 0
M  V30 4549 C 410.18 -0.862597 4.17686 0
M  V30 4550 S 411.013 0.264135 5.34848 0
M  V30 4551 C 412.169 -0.858864 6.19979 0
M  V30 4552 H 412.402 0.368726 2.95005 0
M  V30 4553 H 409.935 0.30878 1.51281 0
M  V30 4554 H 411.893 -2.0527 3.55492 0
M  V30 4555 H 410.554 -2.04182 2.38681 0
M  V30 4556 H 409.747 -1.70287 4.74361 0
M  V30 4557 H 409.349 -0.297595 3.72814 0
M  V30 4558 H 411.641 -1.7591 6.54264 0
M  V30 4559 H 412.584 -0.330244 7.07329 0
M  V30 4560 H 412.992 -1.13617 5.52948 0
M  V30 4561 N 412.39 -1.55475 0.257931 0
M  V30 4562 C 413.615 -2.04064 -0.370488 0
M  V30 4563 C 414.04 -1.13565 -1.49948 0
M  V30 4564 O 413.398 -0.130781 -1.80828 0
M  V30 4565 C 413.446 -3.50554 -0.845237 0
M  V30 4566 O 412.55 -3.63173 -1.95394 0
M  V30 4567 H 411.891 -0.659257 -0.0792243 0
M  V30 4568 H 414.421 -2.00903 0.387212 0
M  V30 4569 H 414.431 -3.91588 -1.14555 0
M  V30 4570 H 413.106 -4.15896 -0.0191259 0
M  V30 4571 H 411.683 -3.34039 -1.65748 0
M  V30 4572 N 413.868 0.0150385 -1.57593 0
M  V30 4573 C 415.284 0.370907 -1.5523 0
M  V30 4574 C 415.484 1.75735 -0.985882 0
M  V30 4575 O 414.54 2.44944 -0.613077 0
M  V30 4576 C 415.853 0.259908 -2.99575 0
M  V30 4577 C 417.401 0.335959 -3.11192 0
M  V30 4578 C 417.876 0.254253 -4.57294 0
M  V30 4579 N 419.367 0.312618 -4.62144 0
M  V30 4580 C 420.102 0.272505 -5.72752 0
M  V30 4581 N 419.598 0.183864 -6.92556 0
M  V30 4582 N 421.391 0.323267 -5.6117 0
M  V30 4583 H 413.542 -0.892104 -1.92757 0
M  V30 4584 H 415.805 -0.340563 -0.884715 0
M  V30 4585 H 415.511 -0.693403 -3.44797 0
M  V30 4586 H 415.385 1.048 -3.62349 0
M  V30 4587 H 417.772 1.27971 -2.65909 0
M  V30 4588 H 417.853 -0.481739 -2.51223 0
M  V30 4589 H 417.497 -0.685887 -5.03247 0
M  V30 4590 H 417.427 1.09024 -5.15191 0
M  V30 4591 H 419.918 0.38307 -3.75953 0
M  V30 4592 H 420.231 0.15874 -7.72637 0
M  V30 4593 H 418.576 0.149708 -6.94839 0
M  V30 4594 H 421.767 0.390607 -4.66467 0
M  V30 4595 H 421.94 0.288539 -6.47357 0
M  V30 4596 N 415.346 1.54954 0.287554 0
M  V30 4597 C 416.276 1.89839 1.35954 0
M  V30 4598 C 417.257 0.758675 1.52244 0
M  V30 4599 O 418.442 1.01557 1.65529 0
M  V30 4600 C 415.572 2.15753 2.72154 0
M  V30 4601 C 414.526 3.3159 2.70614 0
M  V30 4602 C 413.852 3.42952 4.10229 0
M  V30 4603 C 415.152 4.68359 2.31165 0
M  V30 4604 H 416.846 2.79625 1.07007 0
M  V30 4605 H 414.392 1.3454 0.513316 0
M  V30 4606 H 416.345 2.38743 3.47246 0
M  V30 4607 H 415.069 1.22752 3.02654 0
M  V30 4608 H 413.728 3.08545 1.97979 0
M  V30 4609 H 413.376 2.47443 4.37928 0
M  V30 4610 H 413.076 4.20826 4.10097 0
M  V30 4611 H 414.6 3.68218 4.87081 0
M  V30 4612 H 416.014 4.9099 2.95976 0
M  V30 4613 H 414.411 5.49044 2.42221 0
M  V30 4614 H 415.481 4.68165 1.26291 0
M  V30 4615 N 416.824 -0.551391 1.4764 0
M  V30 4616 C 417.787 -1.64007 1.60107 0
M  V30 4617 C 418.787 -1.53601 0.47576 0
M  V30 4618 O 419.977 -1.57655 0.740988 0
M  V30 4619 C 417.109 -3.03569 1.55108 0
M  V30 4620 H 418.302 -1.543 2.57161 0
M  V30 4621 H 415.855 -0.771776 1.35917 0
M  V30 4622 H 416.59 -3.18804 0.594519 0
M  V30 4623 H 416.375 -3.12532 2.36783 0
M  V30 4624 H 417.865 -3.82762 1.66982 0
M  V30 4625 N 418.302 -1.35869 -0.798587 0
M  V30 4626 C 419.527 -1.32883 -1.59238 0
M  V30 4627 C 419.952 0.0894587 -1.87887 0
M  V30 4628 O 419.31 1.05869 -1.47178 0
M  V30 4629 C 419.358 -2.14892 -2.89575 0
M  V30 4630 O 418.462 -1.53512 -3.82763 0
M  V30 4631 H 417.803 -0.455236 -0.48338 0
M  V30 4632 H 420.333 -1.79024 -0.990539 0
M  V30 4633 H 420.343 -2.27139 -3.38928 0
M  V30 4634 H 419.018 -3.17998 -2.68049 0
M  V30 4635 H 417.595 -1.50153 -3.41334 0
M  V30 4636 N 419.78 1.02168 -1.19998 0
M  V30 4637 C 421.027 1.75685 -1.00702 0
M  V30 4638 C 421.355 1.88947 0.461426 0
M  V30 4639 O 420.61 1.40832 1.35885 0
M  V30 4640 C 420.909 3.18081 -1.62969 0
M  V30 4641 C 420.575 3.24809 -3.12746 0
M  V30 4642 C 419.237 3.26352 -3.53621 0
M  V30 4643 C 421.589 3.23379 -4.08749 0
M  V30 4644 C 418.917 3.2413 -4.89036 0
M  V30 4645 C 421.269 3.22698 -5.44104 0
M  V30 4646 C 419.933 3.22542 -5.84399 0
M  V30 4647 H 419.203 0.642877 -0.368496 0
M  V30 4648 H 421.85 1.19865 -1.49348 0
M  V30 4649 H 420.155 3.77027 -1.06573 0
M  V30 4650 H 421.852 3.73648 -1.45561 0
M  V30 4651 H 418.442 3.2434 -2.80181 0
M  V30 4652 H 422.626 3.21361 -3.78207 0
M  V30 4653 H 417.882 3.22338 -5.19527 0
M  V30 4654 H 422.056 3.20543 -6.18244 0
M  V30 4655 H 419.683 3.20575 -6.89301 0
M  V30 4656 N 421.258 1.00505 1.21394 0
M  V30 4657 C 422.168 0.574806 2.27449 0
M  V30 4658 C 423.184 -0.382206 1.6975 0
M  V30 4659 O 424.36 -0.246027 1.99892 0
M  V30 4660 C 421.425 -0.0917414 3.46579 0
M  V30 4661 C 420.486 0.909758 4.1955 0
M  V30 4662 C 419.719 0.274924 5.32991 0
M  V30 4663 O 419.942 -0.928254 5.62796 0
M  V30 4664 O 418.876 0.985877 5.93771 0
M  V30 4665 H 422.702 1.45744 2.66444 0
M  V30 4666 H 420.287 0.773923 1.27792 0
M  V30 4667 H 422.169 -0.464551 4.18832 0
M  V30 4668 H 420.844 -0.948755 3.09484 0
M  V30 4669 H 419.751 1.33372 3.49518 0
M  V30 4670 H 421.084 1.73636 4.60555 0
M  V30 4671 N 422.737 -1.36956 0.779787 0
M  V30 4672 C 423.985 -1.99097 0.347079 0
M  V30 4673 C 424.306 -1.62206 -1.08232 0
M  V30 4674 O 423.576 -0.891373 -1.74446 0
M  V30 4675 H 422.156 -0.736409 0.125342 0
M  V30 4676 H 424.818 -1.67308 0.999696 0
M  V30 4677 H 423.914 -3.09107 0.431162 0
M  V30 4678 N 424.215 -0.530993 -1.48385 0
M  V30 4679 C 425.463 0.00273189 -2.021 0
M  V30 4680 C 425.784 1.34672 -1.41027 0
M  V30 4681 O 425.054 1.8724 -0.576012 0
M  V30 4682 H 423.634 0.00399774 -0.746989 0
M  V30 4683 H 426.296 -0.695054 -1.82085 0
M  V30 4684 H 425.392 0.11031 -3.11905 0
M  V30 4685 N 425.693 1.55336 -0.266172 0
M  V30 4686 C 426.94 1.99397 0.353158 0
M  V30 4687 C 427.268 1.15451 1.56529 0
M  V30 4688 O 426.523 0.209974 1.9457 0
M  V30 4689 C 426.822 3.48606 0.787957 0
M  V30 4690 C 426.488 4.49773 -0.318541 0
M  V30 4691 C 425.15 4.77158 -0.62239 0
M  V30 4692 C 427.502 5.10212 -1.06459 0
M  V30 4693 C 424.83 5.62251 -1.67602 0
M  V30 4694 C 427.182 5.96449 -2.10788 0
M  V30 4695 C 425.846 6.22158 -2.41817 0
M  V30 4696 H 425.116 0.729644 0.12923 0
M  V30 4697 H 427.763 1.87732 -0.37802 0
M  V30 4698 H 426.068 3.57701 1.59866 0
M  V30 4699 H 427.765 3.80098 1.27775 0
M  V30 4700 H 424.355 4.2854 -0.0715925 0
M  V30 4701 H 428.539 4.89086 -0.843098 0
M  V30 4702 H 423.795 5.80419 -1.92155 0
M  V30 4703 H 427.969 6.42317 -2.69076 0
M  V30 4704 H 425.596 6.87888 -3.23596 0
M  V30 4705 N 427.171 -0.0066808 1.57599 0
M  V30 4706 C 428.396 -0.707738 1.94951 0
M  V30 4707 C 428.821 -1.66882 0.867868 0
M  V30 4708 O 428.179 -1.80457 -0.17458 0
M  V30 4709 C 428.227 -1.42162 3.31394 0
M  V30 4710 O 427.331 -2.53578 3.25226 0
M  V30 4711 H 426.672 -0.188752 0.636607 0
M  V30 4712 H 429.202 0.0445193 2.04552 0
M  V30 4713 H 429.212 -1.78655 3.66806 0
M  V30 4714 H 427.887 -0.716903 4.09675 0
M  V30 4715 H 426.464 -2.19463 3.01481 0
M  V30 4716 N 428.649 -1.55105 -0.279332 0
M  V30 4717 C 429.596 -1.8755 -1.34513 0
M  V30 4718 C 430.566 -0.726384 -1.49375 0
M  V30 4719 O 431.751 -0.977063 -1.63884 0
M  V30 4720 C 428.891 -2.14738 -2.70151 0
M  V30 4721 C 428.004 -3.42285 -2.63562 0
M  V30 4722 C 427.139 -3.59206 -3.91337 0
M  V30 4723 C 426.178 -4.80467 -3.79233 0
M  V30 4724 N 425.315 -4.94079 -4.98829 0
M  V30 4725 H 430.155 -2.78456 -1.06143 0
M  V30 4726 H 427.692 -1.37867 -0.512936 0
M  V30 4727 H 429.65 -2.28501 -3.49061 0
M  V30 4728 H 428.28 -1.27075 -2.96735 0
M  V30 4729 H 427.332 -3.37029 -1.76397 0
M  V30 4730 H 428.644 -4.31328 -2.50515 0
M  V30 4731 H 427.798 -3.72751 -4.78687 0
M  V30 4732 H 426.537 -2.68337 -4.07243 0
M  V30 4733 H 425.542 -4.66932 -2.90266 0
M  V30 4734 H 426.767 -5.72765 -3.64852 0
M  V30 4735 H 424.713 -4.06139 -5.15158 0
M  V30 4736 H 424.63 -5.77156 -4.8829 0
M  V30 4737 H 425.898 -5.12003 -5.8777 0
M  V30 4738 N 430.127 0.543554 -1.4793 0
M  V30 4739 C 431.037 1.67657 -1.64098 0
M  V30 4740 C 432.053 1.65934 -0.523622 0
M  V30 4741 O 433.229 1.85133 -0.792943 0
M  V30 4742 C 430.294 3.04146 -1.66421 0
M  V30 4743 C 429.355 3.16831 -2.89684 0
M  V30 4744 C 428.588 4.46809 -2.91886 0
M  V30 4745 O 428.811 5.33095 -2.02895 0
M  V30 4746 O 427.745 4.63573 -3.83906 0
M  V30 4747 H 431.571 1.56957 -2.59997 0
M  V30 4748 H 429.156 0.715116 -1.31173 0
M  V30 4749 H 431.038 3.85346 -1.70548 0
M  V30 4750 H 429.713 3.152 -0.736923 0
M  V30 4751 H 428.62 2.34977 -2.91095 0
M  V30 4752 H 429.953 3.10687 -3.81752 0
M  V30 4753 N 431.605 1.3629 0.791371 0
M  V30 4754 C 432.552 1.30458 1.90393 0
M  V30 4755 C 433.522 0.173632 1.6519 0
M  V30 4756 O 434.707 0.35983 1.87376 0
M  V30 4757 C 431.847 1.09777 3.27174 0
M  V30 4758 C 430.96 2.31929 3.64462 0
M  V30 4759 C 430.095 2.04276 4.90352 0
M  V30 4760 C 429.134 3.224 5.20312 0
M  V30 4761 N 428.271 2.94424 6.37385 0
M  V30 4762 H 433.111 2.25589 1.94714 0
M  V30 4763 H 430.648 1.12122 0.952216 0
M  V30 4764 H 432.606 0.958133 4.06049 0
M  V30 4765 H 431.236 0.183014 3.22281 0
M  V30 4766 H 430.288 2.56703 2.80727 0
M  V30 4767 H 431.6 3.20085 3.82553 0
M  V30 4768 H 430.754 1.87231 5.77087 0
M  V30 4769 H 429.493 1.13428 4.74326 0
M  V30 4770 H 428.498 3.40005 4.32061 0
M  V30 4771 H 429.723 4.14071 5.38258 0
M  V30 4772 H 427.669 2.06185 6.22755 0
M  V30 4773 H 427.586 3.76118 6.55798 0
M  V30 4774 H 428.854 2.80953 7.27108 0
M  V30 4775 N 433.083 -1.0153 1.20538 0
M  V30 4776 C 434.332 -1.74558 1.01057 0
M  V30 4777 C 434.645 -1.90168 -0.457756 0
M  V30 4778 O 435.851 -2.60301 -0.771722 0
M  V30 4779 C 434.307 -3.13963 1.75941 0
M  V30 4780 C 433.915 -3.06361 3.26875 0
M  V30 4781 C 435.659 -3.91191 1.64832 0
M  V30 4782 C 433.566 -4.40782 3.94291 0
M  V30 4783 H 432.496 -0.654417 0.374505 0
M  V30 4784 H 435.147 -1.13521 1.44171 0
M  V30 4785 H 433.529 -3.75549 1.25614 0
M  V30 4786 H 434.703 -2.54074 3.84425 0
M  V30 4787 H 433.018 -2.42625 3.38411 0
M  V30 4788 H 435.615 -4.90644 2.12539 0
M  V30 4789 H 435.958 -4.11884 0.604745 0
M  V30 4790 H 436.491 -3.36236 2.12579 0
M  V30 4791 H 433.23 -4.25292 4.98805 0
M  V30 4792 H 432.75 -4.9307 3.41529 0
M  V30 4793 H 434.429 -5.09621 3.98617 0
M  V30 4794 N 434.561 -1.01147 -1.20859 0
M  V30 4795 C 435.508 -0.577354 -2.23462 0
M  V30 4796 C 436.478 0.399922 -1.61214 0
M  V30 4797 O 437.663 0.300515 -1.88419 0
M  V30 4798 C 434.803 0.083372 -3.44999 0
M  V30 4799 C 433.916 -0.937856 -4.21697 0
M  V30 4800 C 433.051 -0.248717 -5.30617 0
M  V30 4801 C 432.09 -1.25705 -5.99053 0
M  V30 4802 N 431.227 -0.594939 -6.99575 0
M  V30 4803 H 436.067 -1.45695 -2.59956 0
M  V30 4804 H 433.604 -0.729428 -1.27741 0
M  V30 4805 H 435.562 0.483535 -4.14388 0
M  V30 4806 H 434.192 0.926645 -3.09214 0
M  V30 4807 H 433.244 -1.45622 -3.51423 0
M  V30 4808 H 434.556 -1.70493 -4.68757 0
M  V30 4809 H 433.71 0.207215 -6.06346 0
M  V30 4810 H 432.449 0.55071 -4.84581 0
M  V30 4811 H 431.454 -1.72343 -5.2209 0
M  V30 4812 H 432.679 -2.05767 -6.47176 0
M  V30 4813 H 430.625 0.184713 -6.5574 0
M  V30 4814 H 430.542 -1.30017 -7.44736 0
M  V30 4815 H 431.81 -0.162427 -7.79331 0
M  V30 4816 N 436.039 1.36541 -0.78704 0
M  V30 4817 C 436.969 2.32659 -0.197992 0
M  V30 4818 C 437.95 1.56533 0.665697 0
M  V30 4819 O 439.135 1.84698 0.60001 0
M  V30 4820 C 436.265 3.40778 0.669901 0
M  V30 4821 C 435.219 4.27897 -0.0937039 0
M  V30 4822 C 434.545 5.27163 0.894629 0
M  V30 4823 C 435.845 5.06334 -1.28154 0
M  V30 4824 H 437.539 2.82171 -1.00099 0
M  V30 4825 H 435.085 1.35665 -0.482793 0
M  V30 4826 H 437.038 4.07008 1.09191 0
M  V30 4827 H 435.762 2.89827 1.50558 0
M  V30 4828 H 434.421 3.6322 -0.49666 0
M  V30 4829 H 434.069 4.72486 1.72527 0
M  V30 4830 H 433.769 5.86317 0.388149 0
M  V30 4831 H 435.293 5.96266 1.31525 0
M  V30 4832 H 436.707 5.65617 -0.93541 0
M  V30 4833 H 435.104 5.74888 -1.72115 0
M  V30 4834 H 436.174 4.38114 -2.07807 0
M  V30 4835 N 437.518 0.538854 1.48102 0
M  V30 4836 C 438.743 0.0102694 2.07397 0
M  V30 4837 C 439.168 -1.26562 1.39153 0
M  V30 4838 O 438.526 -1.75357 0.460387 0
M  V30 4839 C 438.574 -0.187602 3.60112 0
M  V30 4840 O 437.678 -1.25432 3.92862 0
M  V30 4841 H 437.019 0.0430975 0.6626 0
M  V30 4842 H 439.549 0.749301 1.90385 0
M  V30 4843 H 439.559 -0.407517 4.0596 0
M  V30 4844 H 438.234 0.744386 4.09184 0
M  V30 4845 H 436.811 -1.01636 3.58782 0
M  V30 4846 N 438.996 -1.55193 0.274407 0
M  V30 4847 C 440.245 -1.98758 -0.343213 0
M  V30 4848 C 440.558 -1.16624 -1.5703 0
M  V30 4849 O 441.764 -1.5033 -2.26082 0
M  V30 4850 C 440.22 -3.53759 -0.661996 0
M  V30 4851 C 439.828 -4.4467 0.54524 0
M  V30 4852 C 441.572 -4.05916 -1.24228 0
M  V30 4853 C 439.479 -5.91058 0.201084 0
M  V30 4854 H 438.409 -0.742353 -0.132014 0
M  V30 4855 H 441.06 -1.79545 0.378948 0
M  V30 4856 H 439.442 -3.68772 -1.44304 0
M  V30 4857 H 440.616 -4.41426 1.32212 0
M  V30 4858 H 438.931 -4.03143 1.04232 0
M  V30 4859 H 441.528 -5.12831 -1.51357 0
M  V30 4860 H 441.871 -3.54908 -2.17592 0
M  V30 4861 H 442.404 -3.9434 -0.523542 0
M  V30 4862 H 439.143 -6.46161 1.10258 0
M  V30 4863 H 438.663 -5.97373 -0.539045 0
M  V30 4864 H 440.342 -6.46669 -0.206954 0
M  V30 4865 N 440.474 -0.00167713 -1.576 0
M  V30 4866 C 441.699 0.69739 -1.95323 0
M  V30 4867 C 442.124 1.6642 -0.876706 0
M  V30 4868 O 441.482 1.80548 0.165007 0
M  V30 4869 C 441.53 1.40403 -3.32144 0
M  V30 4870 O 440.634 2.5185 -3.26566 0
M  V30 4871 H 439.975 0.185373 -0.637599 0
M  V30 4872 H 442.505 -0.0553665 -2.04525 0
M  V30 4873 H 442.515 1.76707 -3.67748 0
M  V30 4874 H 441.19 0.695167 -4.10049 0
M  V30 4875 H 439.767 2.17861 -3.0264 0
M  V30 4876 N 441.952 1.55251 0.271103 0
M  V30 4877 C 443.201 1.75151 1.00025 0
M  V30 4878 C 443.514 0.561041 1.87381 0
M  V30 4879 O 444.72 0.642506 2.63788 0
M  V30 4880 C 443.176 3.09999 1.82835 0
M  V30 4881 C 442.784 4.3662 1.00336 0
M  V30 4882 C 444.528 3.39249 2.55168 0
M  V30 4883 C 442.435 5.62506 1.82595 0
M  V30 4884 H 441.365 0.652877 0.377183 0
M  V30 4885 H 444.016 1.81708 0.255843 0
M  V30 4886 H 442.398 2.97485 2.61378 0
M  V30 4887 H 443.572 4.60055 0.261959 0
M  V30 4888 H 441.887 4.14527 0.394486 0
M  V30 4889 H 444.484 4.3051 3.1712 0
M  V30 4890 H 444.827 2.59467 3.2555 0
M  V30 4891 H 445.36 3.52869 1.83653 0
M  V30 4892 H 442.099 6.45041 1.16631 0
M  V30 4893 H 441.619 5.43211 2.54327 0
M  V30 4894 H 443.298 6.00875 2.39913 0
M  V30 4895 N 443.43 -0.535701 1.48216 0
M  V30 4896 C 444.36 -1.65014 1.65204 0
M  V30 4897 C 445.341 -1.62554 0.501011 0
M  V30 4898 O 446.526 -1.7984 0.732886 0
M  V30 4899 C 443.656 -3.03616 1.68626 0
M  V30 4900 C 442.61 -3.20932 2.83172 0
M  V30 4901 C 441.936 -4.60537 2.71679 0
M  V30 4902 C 443.236 -3.04249 4.24535 0
M  V30 4903 H 444.93 -1.51053 2.58502 0
M  V30 4904 H 442.476 -0.725262 1.24402 0
M  V30 4905 H 444.429 -3.81446 1.79099 0
M  V30 4906 H 443.153 -3.18587 0.719026 0
M  V30 4907 H 441.812 -2.45517 2.72244 0
M  V30 4908 H 441.46 -4.72336 1.72937 0
M  V30 4909 H 441.16 -4.73069 3.48538 0
M  V30 4910 H 442.684 -5.40475 2.84112 0
M  V30 4911 H 444.098 -3.71877 4.36326 0
M  V30 4912 H 442.495 -3.28278 5.02348 0
M  V30 4913 H 443.565 -2.00739 4.41397 0
M  V30 4914 N 444.908 -1.36708 -0.784132 0
M  V30 4915 C 446.155 -1.31231 -1.54222 0
M  V30 4916 C 446.483 0.106864 -1.94206 0
M  V30 4917 O 445.738 1.07734 -1.63376 0
M  V30 4918 C 446.037 -2.18571 -2.82774 0
M  V30 4919 C 445.703 -3.67039 -2.61903 0
M  V30 4920 C 444.365 -4.07503 -2.55919 0
M  V30 4921 C 446.717 -4.61149 -2.4288 0
M  V30 4922 C 444.045 -5.40211 -2.28886 0
M  V30 4923 C 446.397 -5.94081 -2.17373 0
M  V30 4924 C 445.061 -6.33664 -2.09825 0
M  V30 4925 H 444.331 -0.48021 -0.56434 0
M  V30 4926 H 446.978 -1.68807 -0.904233 0
M  V30 4927 H 445.283 -1.73949 -3.51068 0
M  V30 4928 H 446.98 -2.11655 -3.40592 0
M  V30 4929 H 443.57 -3.34941 -2.67418 0
M  V30 4930 H 447.754 -4.30756 -2.46501 0
M  V30 4931 H 443.01 -5.69855 -2.21529 0
M  V30 4932 H 447.184 -6.66566 -2.01649 0
M  V30 4933 H 444.811 -7.36423 -1.88641 0
M  V30 4934 N 446.386 1.0089 -1.21074 0
M  V30 4935 C 447.614 1.78191 -1.05145 0
M  V30 4936 C 448.029 1.84537 0.398952 0
M  V30 4937 O 447.386 1.30393 1.27687 0
M  V30 4938 C 447.437 3.22288 -1.63746 0
M  V30 4939 O 447.158 3.16315 -3.03111 0
M  V30 4940 C 448.659 4.16106 -1.52875 0
M  V30 4941 H 445.879 0.560129 -0.369454 0
M  V30 4942 H 448.423 1.26945 -1.60328 0
M  V30 4943 H 446.578 3.70655 -1.12664 0
M  V30 4944 H 446.992 4.06817 -3.31059 0
M  V30 4945 H 448.466 5.15026 -1.98626 0
M  V30 4946 H 448.943 4.36541 -0.482521 0
M  V30 4947 H 449.549 3.73625 -2.03185 0
M  V30 4948 N 447.864 1.01787 1.20321 0
M  V30 4949 C 448.794 0.609625 2.25401 0
M  V30 4950 C 449.775 -0.375951 1.65893 0
M  V30 4951 O 450.96 -0.261101 1.92437 0
M  V30 4952 C 448.09 -0.0515995 3.47262 0
M  V30 4953 C 447.044 0.855095 4.19371 0
M  V30 4954 C 446.37 0.0595757 5.34667 0
M  V30 4955 C 447.67 2.16374 4.75373 0
M  V30 4956 H 449.364 1.48803 2.59804 0
M  V30 4957 H 446.91 0.716934 1.24884 0
M  V30 4958 H 448.863 -0.348764 4.19954 0
M  V30 4959 H 447.587 -0.964726 3.12027 0
M  V30 4960 H 446.246 1.13628 3.48546 0
M  V30 4961 H 445.894 -0.85524 4.95676 0
M  V30 4962 H 445.594 0.663406 5.83843 0
M  V30 4963 H 447.118 -0.231105 6.10162 0
M  V30 4964 H 448.532 1.92885 5.39878 0
M  V30 4965 H 446.929 2.71853 5.34991 0
M  V30 4966 H 447.999 2.82589 3.94045 0
M  V30 4967 N 449.342 -1.36122 0.79427 0
M  V30 4968 C 450.753 -1.81646 0.431446 0
M  V30 4969 C 451.104 -1.66043 -1.04518 0
M  V30 4970 O 450.229 -1.1841 -1.8113 0
M  V30 4971 C 450.824 -3.29785 0.776341 0
M  V30 4972 C 449.383 -3.73501 0.466282 0
M  V30 4973 C 448.53 -2.58313 1.00844 0
M  V30 4974 H 451.481 -1.24274 0.986995 0
M  V30 4975 H 451.502 -3.80437 0.0692413 0
M  V30 4976 H 451.014 -3.4111 1.8511 0
M  V30 4977 H 449.115 -3.67733 -0.600245 0
M  V30 4978 H 449.228 -4.68754 0.990288 0
M  V30 4979 H 447.592 -2.5102 0.431406 0
M  V30 4980 H 448.375 -2.72421 2.08906 0
M  V30 4981 N 450.82 -0.546701 -1.47814 0
M  V30 4982 C 452.068 -0.0187037 -2.02091 0
M  V30 4983 C 452.389 1.33168 -1.42447 0
M  V30 4984 O 451.659 1.86619 -0.595839 0
M  V30 4985 H 450.239 -0.00392531 -0.74699 0
M  V30 4986 H 452.901 -0.714327 -1.81338 0
M  V30 4987 H 451.997 0.0772219 -3.12004 0
M  V30 4988 N 452.299 1.55045 -0.282633 0
M  V30 4989 C 453.545 2.00056 0.332481 0
M  V30 4990 C 453.878 1.1708 1.54939 0
M  V30 4991 O 453.153 0.2427 1.9298 0
M  V30 4992 C 453.436 3.53086 0.70725 0
M  V30 4993 C 453.289 4.46813 -0.517521 0
M  V30 4994 C 454.608 4.12245 1.54084 0
M  V30 4995 H 451.727 0.727268 0.119373 0
M  V30 4996 H 454.369 1.85932 -0.391076 0
M  V30 4997 H 452.519 3.65253 1.32372 0
M  V30 4998 H 454.191 4.46579 -1.15607 0
M  V30 4999 H 452.434 4.18163 -1.1542 0
M  V30 5000 H 453.105 5.51595 -0.211426 0
M  V30 5001 H 455.581 4.03401 1.02013 0
M  V30 5002 H 454.457 5.19515 1.77186 0
M  V30 5003 H 454.718 3.62951 2.52427 0
M  V30 5004 N 453.777 0.010035 1.57597 0
M  V30 5005 C 455.188 -0.531426 1.78977 0
M  V30 5006 C 455.539 -1.73375 0.918454 0
M  V30 5007 O 454.664 -2.16047 0.123635 0
M  V30 5008 C 455.259 -0.97086 3.24592 0
M  V30 5009 C 453.818 -1.45756 3.47033 0
M  V30 5010 C 452.965 -0.413384 2.74201 0
M  V30 5011 H 455.916 0.236166 1.56933 0
M  V30 5012 H 455.937 -1.83633 3.33255 0
M  V30 5013 H 455.449 -0.0955893 3.87982 0
M  V30 5014 H 453.55 -2.35339 2.88871 0
M  V30 5015 H 453.663 -1.4781 4.55729 0
M  V30 5016 H 452.027 -0.877266 2.39115 0
M  V30 5017 H 452.81 0.453092 3.40297 0
M  V30 5018 N 455.255 -1.55392 -0.262866 0
M  V30 5019 C 456.185 -1.91978 -1.32917 0
M  V30 5020 C 457.166 -0.7828 -1.51017 0
M  V30 5021 O 458.351 -1.04178 -1.63892 0
M  V30 5022 C 455.481 -2.20055 -2.68687 0
M  V30 5023 C 454.435 -3.35854 -2.65304 0
M  V30 5024 C 453.761 -3.49435 -4.04721 0
M  V30 5025 C 455.061 -4.71977 -2.23685 0
M  V30 5026 H 456.755 -2.81292 -1.02544 0
M  V30 5027 H 454.301 -1.3534 -0.491846 0
M  V30 5028 H 456.254 -2.44237 -3.43404 0
M  V30 5029 H 454.978 -1.27551 -3.00663 0
M  V30 5030 H 453.637 -3.11655 -1.93045 0
M  V30 5031 H 453.285 -2.54379 -4.33936 0
M  V30 5032 H 452.985 -4.27297 -4.0335 0
M  V30 5033 H 454.509 -3.7592 -4.81161 0
M  V30 5034 H 455.923 -4.95637 -2.88127 0
M  V30 5035 H 454.32 -5.52828 -2.33456 0
M  V30 5036 H 455.39 -4.70115 -1.18827 0
M  V30 5037 N 456.733 0.527833 -1.48498 0
M  V30 5038 C 457.979 1.28545 -1.56857 0
M  V30 5039 C 458.312 1.92678 -0.242651 0
M  V30 5040 O 457.587 1.79394 0.751545 0
M  V30 5041 C 457.87 2.37314 -2.70839 0
M  V30 5042 C 457.723 1.77858 -4.13142 0
M  V30 5043 C 459.042 3.39068 -2.80573 0
M  V30 5044 H 456.161 0.466006 -0.570971 0
M  V30 5045 H 458.803 0.587784 -1.8068 0
M  V30 5046 H 456.953 2.96821 -2.50658 0
M  V30 5047 H 458.625 1.22385 -4.44769 0
M  V30 5048 H 456.868 1.08383 -4.20042 0
M  V30 5049 H 457.539 2.56624 -4.88721 0
M  V30 5050 H 460.015 2.89518 -2.98862 0
M  V30 5051 H 458.891 4.12566 -3.6205 0
M  V30 5052 H 459.152 3.9975 -1.88818 0
M  V30 5053 N 458.211 1.37122 0.776871 0
M  V30 5054 C 459.458 1.32047 1.53524 0
M  V30 5055 C 459.786 -0.0965631 1.9426 0
M  V30 5056 O 459.041 -1.06866 1.63945 0
M  V30 5057 C 459.34 2.20068 2.81611 0
M  V30 5058 C 459.006 3.68423 2.59953 0
M  V30 5059 C 457.668 4.08854 2.53755 0
M  V30 5060 C 460.02 4.62431 2.40431 0
M  V30 5061 C 457.348 5.41417 2.26018 0
M  V30 5062 C 459.7 5.95225 2.14219 0
M  V30 5063 C 458.364 6.34767 2.06462 0
M  V30 5064 H 457.634 0.483196 0.561785 0
M  V30 5065 H 460.281 1.69284 0.895268 0
M  V30 5066 H 458.586 1.75809 3.50141 0
M  V30 5067 H 460.283 2.13458 3.39465 0
M  V30 5068 H 456.873 3.36354 2.65638 0
M  V30 5069 H 461.057 4.32057 2.44213 0
M  V30 5070 H 456.313 5.71022 2.18504 0
M  V30 5071 H 460.487 6.67626 1.98112 0
M  V30 5072 H 458.114 7.37413 1.84733 0
M  V30 5073 N 459.689 -1.00246 1.21608 0
M  V30 5074 C 460.919 -1.77373 1.05935 0
M  V30 5075 C 461.327 -1.85059 -0.393686 0
M  V30 5076 O 460.67 -1.31289 -1.28487 0
M  V30 5077 C 460.732 -3.22705 1.58435 0
M  V30 5078 C 460.396 -3.38591 3.06929 0
M  V30 5079 C 461.393 -3.2667 4.04454 0
M  V30 5080 C 459.078 -3.6395 3.46187 0
M  V30 5081 C 461.072 -3.39877 5.39224 0
M  V30 5082 C 458.759 -3.768 4.81108 0
M  V30 5083 C 459.757 -3.6477 5.77436 0
M  V30 5084 O 459.445 -3.77206 7.09909 0
M  V30 5085 H 459.177 -0.56419 0.372378 0
M  V30 5086 H 461.731 -1.26971 1.61454 0
M  V30 5087 H 459.961 -3.74255 0.973147 0
M  V30 5088 H 461.65 -3.81515 1.38568 0
M  V30 5089 H 462.416 -3.06999 3.75468 0
M  V30 5090 H 458.295 -3.72395 2.71741 0
M  V30 5091 H 461.839 -3.30404 6.14393 0
M  V30 5092 H 457.736 -3.95975 5.09779 0
M  V30 5093 H 458.504 -3.94138 7.17355 0
M  V30 5094 N 461.167 -1.02423 -1.1978 0
M  V30 5095 C 462.415 -0.716569 -1.8897 0
M  V30 5096 C 462.736 0.756769 -1.79716 0
M  V30 5097 O 462.006 1.5449 -1.20456 0
M  V30 5098 H 460.586 -0.262062 -0.699523 0
M  V30 5099 H 463.248 -1.29747 -1.45436 0
M  V30 5100 H 462.344 -1.00675 -2.95417 0
M  V30 5101 N 462.645 1.35699 -0.801477 0
M  V30 5102 C 463.922 1.9324 -0.302937 0
M  V30 5103 C 464.302 1.73209 1.20672 0
M  V30 5104 O 463.65 1.09809 2.00385 0
M  V30 5105 C 463.86 3.41728 -0.708747 0
M  V30 5106 C 465.208 4.18868 -0.695328 0
M  V30 5107 O 466.232 3.5022 -0.649971 0
M  V30 5108 O 465.091 5.41342 -0.749081 0
M  V30 5109 H 462.185 0.82331 -0.0780367 0
M  V30 5110 H 464.731 1.44806 -0.884832 0
M  V30 5111 H 463.503 3.50015 -1.74944 0
M  V30 5112 H 463.126 3.97471 -0.101384 0
M  V30 5113 N 464.123 0.554532 1.47522 0
M  V30 5114 C 465.033 -0.197865 2.33764 0
M  V30 5115 C 466.049 -0.914576 1.48025 0
M  V30 5116 O 467.225 -0.884067 1.80959 0
M  V30 5117 C 464.29 -1.21628 3.24665 0
M  V30 5118 C 463.351 -0.507283 4.26292 0
M  V30 5119 C 462.584 -1.47718 5.1285 0
M  V30 5120 O 462.807 -2.7118 5.01814 0
M  V30 5121 O 461.741 -1.00313 5.93482 0
M  V30 5122 H 465.567 0.50949 2.99396 0
M  V30 5123 H 463.152 0.315176 1.46038 0
M  V30 5124 H 465.034 -1.80421 3.80823 0
M  V30 5125 H 463.709 -1.9056 2.61665 0
M  V30 5126 H 462.616 0.121778 3.73902 0
M  V30 5127 H 463.949 0.140544 4.91999 0
M  V30 5128 N 465.601 -1.54893 0.290851 0
M  V30 5129 C 466.531 -2.26103 -0.583084 0
M  V30 5130 C 467.512 -1.25684 -1.14619 0
M  V30 5131 O 468.697 -1.54436 -1.17741 0
M  V30 5132 C 465.827 -2.99409 -1.75987 0
M  V30 5133 C 464.781 -4.0689 -1.32758 0
M  V30 5134 C 464.107 -4.67856 -2.58872 0
M  V30 5135 C 465.407 -5.20215 -0.46624 0
M  V30 5136 H 467.101 -2.99398 0.0108214 0
M  V30 5137 H 464.647 -1.43998 0.00664468 0
M  V30 5138 H 466.6 -3.47943 -2.37727 0
M  V30 5139 H 465.324 -2.23675 -2.37985 0
M  V30 5140 H 463.983 -3.59191 -0.733299 0
M  V30 5141 H 463.631 -3.88772 -3.19163 0
M  V30 5142 H 463.331 -5.40438 -2.30653 0
M  V30 5143 H 464.855 -5.19147 -3.21433 0
M  V30 5144 H 466.269 -5.64704 -0.989047 0
M  V30 5145 H 464.666 -5.99455 -0.27826 0
M  V30 5146 H 465.736 -4.82198 0.511173 0
M  V30 5147 N 467.08 -0.0183926 -1.57589 0
M  V30 5148 C 468.328 0.661253 -1.90976 0
M  V30 5149 C 468.649 1.73281 -0.894353 0
M  V30 5150 O 467.919 1.9579 0.0656788 0
M  V30 5151 H 466.499 0.247233 -0.704901 0
M  V30 5152 H 469.161 -0.0636639 -1.94796 0
M  V30 5153 H 468.257 1.12083 -2.9128 0
M  V30 5154 N 468.558 1.5553 0.254621 0
M  V30 5155 C 469.491 1.84624 1.34124 0
M  V30 5156 C 470.469 0.700693 1.46728 0
M  V30 5157 O 471.653 0.94564 1.63064 0
M  V30 5158 C 468.78 2.02412 2.71564 0
M  V30 5159 C 467.826 3.25028 2.7615 0
M  V30 5160 S 468.659 4.81893 2.33538 0
M  V30 5161 C 469.815 5.02677 3.72917 0
M  V30 5162 H 470.048 2.76501 1.09245 0
M  V30 5163 H 467.581 1.47537 0.455211 0
M  V30 5164 H 469.539 2.13345 3.50705 0
M  V30 5165 H 468.2 1.11391 2.93685 0
M  V30 5166 H 467.393 3.34418 3.77069 0
M  V30 5167 H 466.995 3.12781 2.05046 0
M  V30 5168 H 469.287 4.89546 4.68349 0
M  V30 5169 H 470.23 6.0468 3.68467 0
M  V30 5170 H 470.638 4.30561 3.65072 0
M  V30 5171 N 470.036 -0.519951 1.48776 0
M  V30 5172 C 470.983 -1.62352 1.64044 0
M  V30 5173 C 471.953 -1.58945 0.482251 0
M  V30 5174 O 473.138 -1.77219 0.706971 0
M  V30 5175 C 470.278 -3.00579 1.69547 0
M  V30 5176 C 469.391 -3.14145 2.96541 0
M  V30 5177 C 468.526 -4.42991 2.93142 0
M  V30 5178 C 467.565 -4.50122 4.14797 0
M  V30 5179 N 466.702 -5.7037 4.09418 0
M  V30 5180 H 471.542 -1.48643 2.58281 0
M  V30 5181 H 469.079 -0.723516 1.28077 0
M  V30 5182 H 471.037 -3.80671 1.70719 0
M  V30 5183 H 469.667 -3.13036 0.787918 0
M  V30 5184 H 468.719 -2.27239 3.05068 0
M  V30 5185 H 470.031 -3.15275 3.86527 0
M  V30 5186 H 469.185 -5.31385 2.92772 0
M  V30 5187 H 467.924 -4.44398 2.00902 0
M  V30 5188 H 466.929 -3.60133 4.15433 0
M  V30 5189 H 468.154 -4.50445 5.08208 0
M  V30 5190 H 466.1 -5.72655 3.20004 0
M  V30 5191 H 466.017 -5.73036 4.93119 0
M  V30 5192 H 467.285 -6.61023 4.13121 0
M  V30 5193 N 471.514 -1.37532 -0.769588 0
M  V30 5194 C 472.762 -1.32597 -1.5252 0
M  V30 5195 C 473.083 0.0884294 -1.94799 0
M  V30 5196 O 472.353 1.03289 -1.66458 0
M  V30 5197 H 470.933 -0.487846 -0.565699 0
M  V30 5198 H 473.595 -1.72044 -0.915806 0
M  V30 5199 H 472.691 -1.96643 -2.42359 0
M  V30 5200 N 472.992 0.995999 -1.22138 0
M  V30 5201 C 474.238 1.73767 -1.04561 0
M  V30 5202 C 474.571 1.89633 0.418698 0
M  V30 5203 O 473.846 1.43723 1.3105 0
M  V30 5204 C 474.129 3.14505 -1.75382 0
M  V30 5205 C 473.982 3.06306 -3.29388 0
M  V30 5206 C 475.301 4.13615 -1.50369 0
M  V30 5207 H 472.42 0.630728 -0.38125 0
M  V30 5208 H 475.062 1.16057 -1.50435 0
M  V30 5209 H 473.212 3.63775 -1.36383 0
M  V30 5210 H 474.884 2.64681 -3.77812 0
M  V30 5211 H 473.127 2.43186 -3.59226 0
M  V30 5212 H 473.798 4.05884 -3.74116 0
M  V30 5213 H 476.274 3.73089 -1.84239 0
M  V30 5214 H 475.15 5.10212 -2.02421 0
M  V30 5215 H 475.411 4.39949 -0.435611 0
M  V30 5216 N 474.47 1.03057 1.19235 0
M  V30 5217 C 475.7 0.746613 1.92638 0
M  V30 5218 C 476.108 -0.698708 1.75826 0
M  V30 5219 O 475.451 -1.487 1.07861 0
M  V30 5220 C 475.513 1.02024 3.44719 0
M  V30 5221 C 475.177 2.45745 3.85303 0
M  V30 5222 C 476.174 3.43887 3.8992 0
M  V30 5223 C 473.859 2.8019 4.16892 0
M  V30 5224 C 475.853 4.74529 4.2556 0
M  V30 5225 C 473.54 4.1104 4.52205 0
M  V30 5226 C 474.538 5.0802 4.56513 0
M  V30 5227 O 474.226 6.36527 4.91008 0
M  V30 5228 H 473.958 0.272401 0.618687 0
M  V30 5229 H 476.512 1.37853 1.52269 0
M  V30 5230 H 474.742 0.331184 3.85279 0
M  V30 5231 H 476.431 0.725677 3.9936 0
M  V30 5232 H 477.197 3.18614 3.65664 0
M  V30 5233 H 473.076 2.05382 4.12722 0
M  V30 5234 H 476.62 5.50222 4.28838 0
M  V30 5235 H 472.517 4.36086 4.7592 0
M  V30 5236 H 473.285 6.41025 5.08949 0
M  V30 5237 N 475.948 -1.35272 0.808662 0
M  V30 5238 C 476.88 -2.28507 0.178149 0
M  V30 5239 C 477.893 -1.50377 -0.623754 0
M  V30 5240 O 479.082 -1.72583 -0.455774 0
M  V30 5241 C 476.182 -3.30038 -0.769959 0
M  V30 5242 C 475.355 -4.37398 -0.0139749 0
M  V30 5243 C 474.414 -5.18775 -0.880875 0
M  V30 5244 O 473.44 -5.68236 -0.331059 0
M  V30 5245 N 474.642 -5.37087 -2.20267 0
M  V30 5246 H 477.407 -2.83255 0.979106 0
M  V30 5247 H 474.968 -1.47643 0.664308 0
M  V30 5248 H 476.96 -3.81371 -1.35418 0
M  V30 5249 H 475.53 -2.75789 -1.47171 0
M  V30 5250 H 474.75 -3.86971 0.751468 0
M  V30 5251 H 476.038 -5.06268 0.506965 0
M  V30 5252 H 475.436 -4.9855 -2.67328 0
M  V30 5253 H 473.993 -5.91593 -2.73608 0
M  V30 5254 N 477.426 -0.562348 -1.47226 0
M  V30 5255 C 478.373 0.182461 -2.30078 0
M  V30 5256 C 479.343 0.903503 -1.39377 0
M  V30 5257 O 480.528 0.898188 -1.68337 0
M  V30 5258 C 477.668 1.20322 -3.23445 0
M  V30 5259 C 476.781 0.487717 -4.29238 0
M  V30 5260 C 475.916 1.49422 -5.09752 0
M  V30 5261 C 474.955 0.763976 -6.07314 0
M  V30 5262 N 474.092 1.71755 -6.80768 0
M  V30 5263 H 478.932 -0.530169 -2.93246 0
M  V30 5264 H 476.469 -0.273276 -1.44539 0
M  V30 5265 H 478.427 1.80768 -3.76004 0
M  V30 5266 H 477.057 1.88382 -2.6213 0
M  V30 5267 H 476.109 -0.231374 -3.79696 0
M  V30 5268 H 477.421 -0.0841003 -4.98729 0
M  V30 5269 H 476.575 2.17206 -5.66486 0
M  V30 5270 H 475.314 2.09995 -4.40174 0
M  V30 5271 H 474.319 0.0722344 -5.49753 0
M  V30 5272 H 475.544 0.16391 -6.78902 0
M  V30 5273 H 473.49 2.31177 -6.13916 0
M  V30 5274 H 473.407 1.19802 -7.46447 0
M  V30 5275 H 474.675 2.38638 -7.42073 0
M  V30 5276 N 478.904 1.54736 -0.299062 0
M  V30 5277 C 480.315 1.8569 0.193971 0
M  V30 5278 C 480.666 1.22101 1.53577 0
M  V30 5279 O 479.791 0.51799 2.10109 0
M  V30 5280 C 480.386 3.36895 0.358733 0
M  V30 5281 C 478.945 3.67887 0.795986 0
M  V30 5282 C 478.092 2.77131 -0.096807 0
M  V30 5283 H 481.043 1.49934 -0.520134 0
M  V30 5284 H 481.064 3.61294 1.19361 0
M  V30 5285 H 480.576 3.83148 -0.617998 0
M  V30 5286 H 478.677 3.27151 1.78334 0
M  V30 5287 H 478.79 4.75114 0.616718 0
M  V30 5288 H 477.154 2.51153 0.423581 0
M  V30 5289 H 477.937 3.26204 -1.06986 0
M  V30 5290 N 480.382 0.0267497 1.57577 0
M  V30 5291 C 481.33 -0.973923 2.11229 0
M  V30 5292 C 482.324 -1.33849 1.03831 0
M  V30 5293 O 483.53 -1.321 1.22269 0
M  V30 5294 H 479.905 -0.331844 0.674821 0
M  V30 5295 H 481.876 -0.496092 2.94247 0
M  V30 5296 C 480.625 -2.24798 2.65257 0
M  V30 5297 H 479.948 -1.9762 3.47543 0
M  V30 5298 H 481.388 -2.93031 3.06445 0
M  V30 5299 C 479.847 -2.97611 1.57891 0
M  V30 5300 O 480.377 -3.89629 0.97735 0
M  V30 5301 N 478.583 -2.59905 1.29992 0
M  V30 5302 H 478.13 -1.85154 1.79097 0
M  V30 5303 H 478.088 -3.08932 0.583798 0
M  V30 5304 N 481.861 -1.55662 -0.24637 0
M  V30 5305 C 483.089 -1.81575 -0.991876 0
M  V30 5306 C 483.504 -0.602545 -1.78927 0
M  V30 5307 O 482.861 0.428795 -1.77391 0
M  V30 5308 C 482.912 -3.05711 -1.92933 0
M  V30 5309 O 482.633 -4.22348 -1.1642 0
M  V30 5310 C 484.134 -3.44428 -2.79078 0
M  V30 5311 H 481.354 -0.604209 -0.291844 0
M  V30 5312 H 483.898 -2.02722 -0.269095 0
M  V30 5313 H 482.053 -2.86612 -2.60638 0
M  V30 5314 H 482.467 -4.92706 -1.79835 0
M  V30 5315 H 483.941 -4.34388 -3.40603 0
M  V30 5316 H 484.418 -2.65037 -3.50217 0
M  V30 5317 H 485.024 -3.65879 -2.16824 0
M  V30 5318 N 483.339 0.512053 -1.4905 0
M  V30 5319 C 484.249 1.64139 -1.67617 0
M  V30 5320 C 485.265 1.64786 -0.558701 0
M  V30 5321 O 486.441 1.8341 -0.832034 0
M  V30 5322 C 483.506 3.00548 -1.72835 0
M  V30 5323 C 482.567 3.10615 -2.96339 0
M  V30 5324 C 481.8 4.40517 -3.01298 0
M  V30 5325 O 482.023 5.28671 -2.14157 0
M  V30 5326 O 480.957 4.55325 -3.93653 0
M  V30 5327 H 484.783 1.51407 -2.63267 0
M  V30 5328 H 482.368 0.687131 -1.32661 0
M  V30 5329 H 484.25 3.81641 -1.78683 0
M  V30 5330 H 482.925 3.13566 -0.803616 0
M  V30 5331 H 481.832 2.2875 -2.96014 0
M  V30 5332 H 483.165 3.0252 -3.88256 0
M  V30 5333 N 484.817 1.37938 0.762283 0
M  V30 5334 C 486.063 1.33866 1.52341 0
M  V30 5335 C 486.396 -0.0738961 1.94059 0
M  V30 5336 O 485.671 -1.03326 1.64785 0
M  V30 5337 C 485.954 2.28644 2.78197 0
M  V30 5338 C 485.807 3.78722 2.42672 0
M  V30 5339 C 487.126 2.21702 3.80179 0
M  V30 5340 H 484.245 0.487593 0.55265 0
M  V30 5341 H 486.887 1.68717 0.873767 0
M  V30 5342 H 485.037 1.99055 3.33631 0
M  V30 5343 H 486.709 4.18948 1.93081 0
M  V30 5344 H 484.952 3.96827 1.75244 0
M  V30 5345 H 485.623 4.40486 3.3268 0
M  V30 5346 H 488.099 2.47805 3.34263 0
M  V30 5347 H 486.975 2.90143 4.65949 0
M  V30 5348 H 487.236 1.21301 4.25133 0
M  V30 5349 N 486.295 -0.989507 1.22664 0
M  V30 5350 C 487.541 -1.7321 1.05481 0
M  V30 5351 C 487.874 -1.89852 -0.408635 0
M  V30 5352 O 487.149 -1.44416 -1.30285 0
M  V30 5353 C 487.432 -3.1357 1.77047 0
M  V30 5354 C 487.285 -3.04555 3.31008 0
M  V30 5355 C 488.604 -4.12812 1.5256 0
M  V30 5356 H 485.723 -0.628697 0.384589 0
M  V30 5357 H 488.365 -1.15258 1.51049 0
M  V30 5358 H 486.515 -3.63046 1.3831 0
M  V30 5359 H 488.187 -2.62674 3.7921 0
M  V30 5360 H 486.43 -2.41278 3.6051 0
M  V30 5361 H 487.101 -4.03894 3.76263 0
M  V30 5362 H 489.577 -3.72106 1.86215 0
M  V30 5363 H 488.453 -5.09132 2.05124 0
M  V30 5364 H 488.714 -4.39711 0.458936 0
M  V30 5365 N 487.773 -1.03688 -1.18687 0
M  V30 5366 C 488.703 -0.645407 -2.24403 0
M  V30 5367 C 489.684 0.349511 -1.66471 0
M  V30 5368 O 490.869 0.230453 -1.92828 0
M  V30 5369 C 487.999 -0.00365337 -3.473 0
M  V30 5370 C 486.953 -0.921705 -4.17958 0
M  V30 5371 C 486.279 -0.144629 -5.34504 0
M  V30 5372 C 487.579 -2.23909 -4.71871 0
M  V30 5373 H 489.273 -1.52917 -2.57404 0
M  V30 5374 H 486.819 -0.736711 -1.23728 0
M  V30 5375 H 488.772 0.281908 -4.20456 0
M  V30 5376 H 487.496 0.914963 -3.13522 0
M  V30 5377 H 486.155 -1.19159 -3.46694 0
M  V30 5378 H 485.803 0.776274 -4.96974 0
M  V30 5379 H 485.503 -0.756206 -5.82714 0
M  V30 5380 H 487.027 0.134004 -6.10453 0
M  V30 5381 H 488.441 -2.0145 -5.36741 0
M  V30 5382 H 486.838 -2.8033 -5.30599 0
M  V30 5383 H 487.908 -2.88822 -3.895 0
M  V30 5384 N 489.251 1.34841 -0.815825 0
M  V30 5385 C 490.528 1.92908 -0.323416 0
M  V30 5386 C 490.908 1.74479 1.18828 0
M  V30 5387 O 490.256 1.11928 1.99209 0
M  V30 5388 C 490.466 3.40957 -0.744952 0
M  V30 5389 C 491.814 4.18107 -0.739716 0
M  V30 5390 O 492.838 3.49511 -0.68708 0
M  V30 5391 O 491.697 5.40517 -0.806456 0
M  V30 5392 H 488.791 0.822436 -0.0867646 0
M  V30 5393 H 491.337 1.4386 -0.90014 0
M  V30 5394 H 490.109 3.4814 -1.78646 0
M  V30 5395 H 489.732 3.97341 -0.143535 0
M  V30 5396 N 490.729 0.570148 1.46925 0
M  V30 5397 C 492.14 0.1402 1.86173 0
M  V30 5398 C 492.491 -1.29347 1.47526 0
M  V30 5399 O 491.616 -1.97508 0.884292 0
M  V30 5400 C 492.211 0.247661 3.37894 0
M  V30 5401 C 490.77 -0.127332 3.76185 0
M  V30 5402 C 489.917 0.589349 2.70965 0
M  V30 5403 H 492.868 0.779117 1.38259 0
M  V30 5404 H 492.889 -0.530341 3.76786 0
M  V30 5405 H 492.401 1.29121 3.65991 0
M  V30 5406 H 490.502 -1.17149 3.53704 0
M  V30 5407 H 490.615 0.240238 4.78497 0
M  V30 5408 H 488.979 0.0309824 2.54681 0
M  V30 5409 H 489.762 1.6343 3.01903 0
M  V30 5410 N 492.207 -1.54576 0.307264 0
M  V30 5411 C 493.454 -2.00263 -0.300167 0
M  V30 5412 C 493.782 -1.19561 -1.53413 0
M  V30 5413 O 493.037 -0.261487 -1.93945 0
M  V30 5414 C 493.336 -3.50572 -0.695253 0
M  V30 5415 C 493.002 -4.48771 0.437679 0
M  V30 5416 C 491.664 -4.7534 0.748681 0
M  V30 5417 C 494.016 -5.0721 1.19949 0
M  V30 5418 C 491.344 -5.5761 1.8245 0
M  V30 5419 C 493.696 -5.90651 2.26527 0
M  V30 5420 C 492.36 -6.15528 2.58227 0
M  V30 5421 H 491.63 -0.732814 -0.109839 0
M  V30 5422 H 494.277 -1.86664 0.427661 0
M  V30 5423 H 492.582 -3.61814 -1.50326 0
M  V30 5424 H 494.279 -3.83352 -1.17653 0
M  V30 5425 H 490.869 -4.282 0.185187 0
M  V30 5426 H 495.053 -4.86679 0.972474 0
M  V30 5427 H 490.309 -5.75121 2.07476 0
M  V30 5428 H 494.483 -6.34957 2.86011 0
M  V30 5429 H 492.11 -6.79066 3.4172 0
M  V30 5430 N 493.685 -0.035106 -1.57561 0
M  V30 5431 C 495.096 0.502885 -1.798 0
M  V30 5432 C 495.447 1.71892 -0.945921 0
M  V30 5433 O 494.572 2.15822 -0.157991 0
M  V30 5434 C 495.167 0.919097 -3.26095 0
M  V30 5435 C 493.726 1.40216 -3.49308 0
M  V30 5436 C 492.873 0.369709 -2.74824 0
M  V30 5437 H 495.824 -0.261102 -1.56537 0
M  V30 5438 H 495.845 1.78308 -3.36135 0
M  V30 5439 H 495.357 0.0338526 -3.88085 0
M  V30 5440 H 493.458 2.30714 -2.92578 0
M  V30 5441 H 493.571 1.40541 -4.58023 0
M  V30 5442 H 491.935 0.839113 -2.40481 0
M  V30 5443 H 492.718 -0.507173 -3.39533 0
M  V30 5444 N 495.163 1.55791 0.238111 0
M  V30 5445 C 496.409 1.79211 0.962035 0
M  V30 5446 C 496.764 0.605463 1.82625 0
M  V30 5447 O 496.057 -0.40104 1.87356 0
M  V30 5448 C 496.251 3.05869 1.84875 0
M  V30 5449 C 496.08 4.36739 1.07186 0
M  V30 5450 C 494.85 4.99346 0.773424 0
M  V30 5451 C 497.048 5.1237 0.445168 0
M  V30 5452 N 495.03 6.13894 -0.0266037 0
M  V30 5453 C 496.401 6.19613 -0.219023 0
M  V30 5454 C 498.456 4.96622 0.356522 0
M  V30 5455 C 497.159 7.1282 -0.963358 0
M  V30 5456 C 499.185 5.90214 -0.374304 0
M  V30 5457 C 498.547 6.96872 -1.0271 0
M  V30 5458 H 494.646 0.707627 0.332849 0
M  V30 5459 H 497.23 1.93284 0.234368 0
M  V30 5460 H 495.401 2.93108 2.54837 0
M  V30 5461 H 497.133 3.17547 2.5089 0
M  V30 5462 H 493.888 4.60948 1.08738 0
M  V30 5463 H 494.312 6.75727 -0.414968 0
M  V30 5464 H 498.954 4.14232 0.846878 0
M  V30 5465 H 496.672 7.94704 -1.46529 0
M  V30 5466 H 500.258 5.80106 -0.443678 0
M  V30 5467 H 499.138 7.68045 -1.58358 0
M  V30 5468 N 496.642 -0.504142 1.49319 0
M  V30 5469 C 497.59 -1.62689 1.66238 0
M  V30 5470 C 498.584 -1.6095 0.528349 0
M  V30 5471 O 499.79 -1.65496 0.707887 0
M  V30 5472 H 496.165 -0.539247 0.524134 0
M  V30 5473 H 498.136 -1.45571 2.60484 0
M  V30 5474 C 496.885 -3.00841 1.74328 0
M  V30 5475 H 496.208 -3.02884 2.60963 0
M  V30 5476 H 497.648 -3.78945 1.90202 0
M  V30 5477 C 496.107 -3.33355 0.487416 0
M  V30 5478 O 496.637 -3.99819 -0.388294 0
M  V30 5479 N 494.843 -2.88469 0.351306 0
M  V30 5480 H 494.39 -2.34557 1.06492 0
M  V30 5481 H 494.348 -3.10591 -0.487899 0
M  V30 5482 N 498.12 -1.38341 -0.754957 0
M  V30 5483 C 499.03 -1.3769 -1.89944 0
M  V30 5484 C 500.046 -0.274194 -1.71826 0
M  V30 5485 O 501.222 -0.512391 -1.94773 0
M  V30 5486 C 498.287 -1.19938 -3.25293 0
M  V30 5487 C 497.348 -2.40001 -3.55946 0
M  V30 5488 C 496.581 -2.23087 -4.84838 0
M  V30 5489 O 496.804 -1.22386 -5.57116 0
M  V30 5490 O 495.738 -3.11646 -5.14937 0
M  V30 5491 H 499.564 -2.3412 -1.93446 0
M  V30 5492 H 497.149 -1.19246 -0.900044 0
M  V30 5493 H 499.031 -1.12093 -4.06218 0
M  V30 5494 H 497.706 -0.265919 -3.22606 0
M  V30 5495 H 496.613 -2.53421 -2.75188 0
M  V30 5496 H 497.946 -3.31973 -3.63394 0
M  V30 5497 N 499.598 0.982988 -1.23187 0
M  V30 5498 C 500.823 1.76455 -1.08988 0
M  V30 5499 C 501.248 1.84726 0.354691 0
M  V30 5500 O 500.606 1.30699 1.25649 0
M  V30 5501 C 500.654 3.17094 -1.71708 0
M  V30 5502 O 499.758 4.00648 -0.977477 0
M  V30 5503 H 499.099 0.542988 -0.382177 0
M  V30 5504 H 501.629 1.23413 -1.63188 0
M  V30 5505 H 501.639 3.67684 -1.76841 0
M  V30 5506 H 500.314 3.10389 -2.76823 0
M  V30 5507 H 498.891 3.59161 -1.0029 0
M  V30 5508 N 501.076 1.04316 1.18135 0
M  V30 5509 C 502.009 0.580823 2.20685 0
M  V30 5510 C 502.987 -0.385943 1.57953 0
M  V30 5511 O 504.171 -0.299654 1.86103 0
M  V30 5512 C 501.298 -0.151162 3.38363 0
M  V30 5513 C 500.344 0.769247 4.19505 0
M  V30 5514 S 501.177 2.25352 4.85774 0
M  V30 5515 C 502.333 1.53246 6.0685 0
M  V30 5516 H 502.566 1.44968 2.5956 0
M  V30 5517 H 500.099 0.85434 1.28609 0
M  V30 5518 H 502.057 -0.567315 4.06561 0
M  V30 5519 H 500.718 -0.995936 2.97892 0
M  V30 5520 H 499.911 0.203335 5.0359 0
M  V30 5521 H 499.513 1.12436 3.56699 0
M  V30 5522 H 501.805 0.82689 6.72435 0
M  V30 5523 H 502.748 2.35044 6.67952 0
M  V30 5524 H 503.156 1.0237 5.5514 0
M  V30 5525 N 502.554 -1.34406 0.822964 0
M  V30 5526 C 503.794 -2.00103 0.416915 0
M  V30 5527 C 504.158 -1.63826 -1.00125 0
M  V30 5528 O 505.359 -2.22367 -1.51018 0
M  V30 5529 C 503.63 -3.52101 0.613151 0
M  V30 5530 S 505.189 -4.37774 0.299956 0
M  V30 5531 H 502.007 -0.69333 0.157527 0
M  V30 5532 H 504.609 -1.63698 1.06879 0
M  V30 5533 H 503.313 -3.75991 1.64496 0
M  V30 5534 H 502.844 -3.93364 -0.0534554 0
M  V30 5535 H 504.859 -4.8822 -0.886336 0
M  V30 5536 N 504.032 -0.577932 -1.46621 0
M  V30 5537 C 505.278 -0.0617793 -2.02706 0
M  V30 5538 C 505.611 1.29294 -1.44903 0
M  V30 5539 O 504.886 1.8461 -0.61232 0
M  V30 5540 C 505.169 0.00911824 -3.60099 0
M  V30 5541 C 505.022 -1.37416 -4.28295 0
M  V30 5542 C 506.341 0.712159 -4.343 0
M  V30 5543 H 503.46 -0.0239246 -0.736612 0
M  V30 5544 H 506.102 -0.744211 -1.74818 0
M  V30 5545 H 504.252 0.590292 -3.83989 0
M  V30 5546 H 505.924 -2.00013 -4.15683 0
M  V30 5547 H 504.167 -1.94319 -3.87843 0
M  V30 5548 H 504.838 -1.27707 -5.37024 0
M  V30 5549 H 507.314 0.218486 -4.15526 0
M  V30 5550 H 506.19 0.730782 -5.44014 0
M  V30 5551 H 506.451 1.77251 -4.05012 0
M  V30 5552 N 505.51 1.54411 -0.315457 0
M  V30 5553 C 506.42 2.27737 0.56329 0
M  V30 5554 C 507.436 1.31787 1.13614 0
M  V30 5555 O 508.612 1.64791 1.15784 0
M  V30 5556 C 505.677 3.01478 1.71207 0
M  V30 5557 C 504.738 4.12997 1.17185 0
M  V30 5558 C 503.971 4.83212 2.26588 0
M  V30 5559 O 504.194 4.52884 3.46775 0
M  V30 5560 O 503.128 5.70299 1.92463 0
M  V30 5561 H 506.954 3.03683 -0.0319614 0
M  V30 5562 H 504.539 1.49178 -0.0814188 0
M  V30 5563 H 506.421 3.47683 2.38106 0
M  V30 5564 H 505.096 2.28414 2.29366 0
M  V30 5565 H 504.003 3.71159 0.468174 0
M  V30 5566 H 505.336 4.8808 0.635501 0
M  V30 5567 N 506.988 0.0434614 1.5754 0
M  V30 5568 C 508.236 -0.630786 1.92004 0
M  V30 5569 C 508.557 -1.71836 0.921807 0
M  V30 5570 O 507.827 -1.9587 -0.034522 0
M  V30 5571 H 506.407 -0.235988 0.708745 0
M  V30 5572 H 509.069 0.0946462 1.9467 0
M  V30 5573 H 508.165 -1.07434 2.93026 0
M  V30 5574 N 508.466 -1.55915 -0.229846 0
M  V30 5575 C 509.398 -1.88209 -1.30805 0
M  V30 5576 C 510.411 -0.769672 -1.43457 0
M  V30 5577 O 511.6 -1.04792 -1.44502 0
M  V30 5578 C 508.7 -2.06829 -2.68468 0
M  V30 5579 C 507.873 -3.37798 -2.77869 0
M  V30 5580 C 506.932 -3.45952 -3.96489 0
M  V30 5581 O 505.958 -4.19043 -3.85216 0
M  V30 5582 N 507.16 -2.76488 -5.10426 0
M  V30 5583 H 509.925 -2.81286 -1.03431 0
M  V30 5584 H 507.486 -1.5636 -0.41991 0
M  V30 5585 H 509.478 -2.09608 -3.46189 0
M  V30 5586 H 508.048 -1.20416 -2.88477 0
M  V30 5587 H 507.268 -3.4719 -1.86689 0
M  V30 5588 H 508.556 -4.24091 -2.81113 0
M  V30 5589 H 507.954 -2.16868 -5.2248 0
M  V30 5590 H 506.511 -2.84938 -5.8622 0
M  V30 5591 N 509.944 0.496216 -1.49584 0
M  V30 5592 C 511.172 1.27394 -1.63029 0
M  V30 5593 C 511.587 1.86344 -0.303569 0
M  V30 5594 O 510.944 1.68057 0.711547 0
M  V30 5595 C 510.995 2.40077 -2.70269 0
M  V30 5596 O 510.716 1.83549 -3.97796 0
M  V30 5597 C 512.217 3.31372 -2.94462 0
M  V30 5598 H 509.437 0.386211 -0.54871 0
M  V30 5599 H 511.981 0.595163 -1.95648 0
M  V30 5600 H 510.136 3.03775 -2.40415 0
M  V30 5601 H 510.55 2.57561 -4.56905 0
M  V30 5602 H 512.024 4.06707 -3.73221 0
M  V30 5603 H 512.501 3.88654 -2.0456 0
M  V30 5604 H 513.107 2.73435 -3.25751 0
M  V30 5605 N 511.423 1.38739 0.74761 0
M  V30 5606 C 512.67 1.35274 1.50689 0
M  V30 5607 C 512.998 -0.0553359 1.94421 0
M  V30 5608 O 512.253 -1.03365 1.66175 0
M  V30 5609 C 512.552 2.25992 2.7688 0
M  V30 5610 C 512.218 3.73854 2.5208 0
M  V30 5611 C 510.88 4.14145 2.45025 0
M  V30 5612 C 513.232 4.67427 2.30568 0
M  V30 5613 C 510.56 5.4609 2.14483 0
M  V30 5614 C 512.912 5.99635 2.01545 0
M  V30 5615 C 511.576 6.39004 1.92951 0
M  V30 5616 H 510.846 0.495003 0.55141 0
M  V30 5617 H 513.493 1.71145 0.859158 0
M  V30 5618 H 511.798 1.83196 3.46333 0
M  V30 5619 H 513.495 2.20611 3.34861 0
M  V30 5620 H 510.085 3.41913 2.58444 0
M  V30 5621 H 514.269 4.3714 2.34994 0
M  V30 5622 H 509.525 5.75528 2.06342 0
M  V30 5623 H 513.699 6.71678 1.83906 0
M  V30 5624 H 511.326 7.41165 1.6905 0
M  V30 5625 N 512.901 -0.976442 1.23707 0
M  V30 5626 C 514.147 -1.72158 1.08319 0
M  V30 5627 C 514.502 -1.88701 -0.375445 0
M  V30 5628 O 513.795 -1.43107 -1.274 0
M  V30 5629 C 513.989 -3.11814 1.74662 0
M  V30 5630 C 513.818 -3.08892 3.26827 0
M  V30 5631 C 512.588 -3.13861 3.96004 0
M  V30 5632 C 514.786 -2.9175 4.2354 0
M  V30 5633 N 512.768 -3.00867 5.35119 0
M  V30 5634 C 514.139 -2.8696 5.49595 0
M  V30 5635 C 516.194 -2.76265 4.14225 0
M  V30 5636 C 514.897 -2.68268 6.67401 0
M  V30 5637 C 516.923 -2.58938 5.317 0
M  V30 5638 C 516.285 -2.54849 6.56682 0
M  V30 5639 H 512.384 -0.638896 0.450927 0
M  V30 5640 H 514.968 -1.15835 1.56494 0
M  V30 5641 H 513.139 -3.66347 1.29014 0
M  V30 5642 H 514.871 -3.74984 1.52215 0
M  V30 5643 H 511.626 -3.22198 3.4711 0
M  V30 5644 H 512.05 -2.97634 6.08065 0
M  V30 5645 H 516.692 -2.78213 3.18366 0
M  V30 5646 H 514.41 -2.65063 7.63392 0
M  V30 5647 H 517.996 -2.47914 5.26336 0
M  V30 5648 H 516.876 -2.41611 7.46052 0
M  V30 5649 N 514.379 -1.04941 -1.1758 0
M  V30 5650 C 515.326 -0.648155 -2.21512 0
M  V30 5651 C 516.296 0.348431 -1.62404 0
M  V30 5652 O 517.481 0.240419 -1.89279 0
M  V30 5653 C 514.621 -0.0264291 -3.4509 0
M  V30 5654 C 513.734 -1.07154 -4.185 0
M  V30 5655 C 512.869 -0.417403 -5.29558 0
M  V30 5656 C 511.908 -1.447 -5.94751 0
M  V30 5657 N 511.045 -0.817203 -6.97328 0
M  V30 5658 H 515.885 -1.53891 -2.55189 0
M  V30 5659 H 513.422 -0.769699 -1.25356 0
M  V30 5660 H 515.38 0.351456 -4.15717 0
M  V30 5661 H 514.01 0.827802 -3.12005 0
M  V30 5662 H 513.062 -1.56728 -3.46613 0
M  V30 5663 H 514.374 -1.8532 -4.63096 0
M  V30 5664 H 513.528 0.0142061 -6.06698 0
M  V30 5665 H 512.267 0.396265 -4.86087 0
M  V30 5666 H 511.272 -1.88865 -5.16343 0
M  V30 5667 H 512.497 -2.26252 -6.40302 0
M  V30 5668 H 510.443 -0.0239995 -6.55996 0
M  V30 5669 H 510.36 -1.53644 -7.40223 0
M  V30 5670 H 511.628 -0.410283 -7.7842 0
M  V30 5671 N 515.857 1.33968 -0.830081 0
M  V30 5672 C 517.103 1.98773 -0.431394 0
M  V30 5673 C 517.458 1.64598 0.99626 0
M  V30 5674 O 516.751 0.911022 1.68555 0
M  V30 5675 C 516.945 3.52679 -0.57898 0
M  V30 5676 C 516.774 4.01807 -2.01943 0
M  V30 5677 C 515.544 4.30062 -2.65282 0
M  V30 5678 C 517.742 4.18663 -2.98707 0
M  V30 5679 N 515.724 4.65272 -4.00493 0
M  V30 5680 C 517.095 4.57133 -4.18843 0
M  V30 5681 C 519.15 4.00929 -2.95229 0
M  V30 5682 C 517.853 4.79723 -5.35965 0
M  V30 5683 C 519.879 4.2469 -4.11573 0
M  V30 5684 C 519.241 4.63454 -5.30462 0
M  V30 5685 H 515.34 0.75435 -0.206107 0
M  V30 5686 H 517.924 1.62247 -1.07629 0
M  V30 5687 H 516.095 3.88383 0.0360632 0
M  V30 5688 H 517.827 4.04412 -0.152596 0
M  V30 5689 H 514.582 4.21231 -2.16475 0
M  V30 5690 H 515.006 4.87101 -4.70172 0
M  V30 5691 H 519.648 3.70082 -2.04448 0
M  V30 5692 H 517.366 5.09434 -6.27297 0
M  V30 5693 H 520.952 4.12497 -4.10289 0
M  V30 5694 H 519.832 4.81476 -6.18992 0
M  V30 5695 N 517.335 0.585699 1.46312 0
M  V30 5696 C 518.746 0.159938 1.86014 0
M  V30 5697 C 519.097 -1.27775 1.48889 0
M  V30 5698 O 518.222 -1.96559 0.90519 0
M  V30 5699 C 518.817 0.283485 3.37612 0
M  V30 5700 C 517.376 -0.0874256 3.76298 0
M  V30 5701 C 516.523 0.618055 2.70325 0
M  V30 5702 H 519.474 0.793737 1.37425 0
M  V30 5703 H 519.495 -0.490348 3.77327 0
M  V30 5704 H 519.007 1.32995 3.64601 0
M  V30 5705 H 517.108 -1.13391 3.54927 0
M  V30 5706 H 517.221 0.290975 4.78216 0
M  V30 5707 H 515.585 0.057993 2.54634 0
M  V30 5708 H 516.368 1.66623 3.00153 0
M  V30 5709 N 518.813 -1.54241 0.323641 0
M  V30 5710 C 519.776 -2.22997 -0.529602 0
M  V30 5711 C 520.776 -1.22345 -1.04347 0
M  V30 5712 O 521.966 -1.46924 -0.935889 0
M  V30 5713 C 519.098 -2.93409 -1.73562 0
M  V30 5714 H 520.291 -2.99815 0.0714518 0
M  V30 5715 H 517.844 -1.56121 0.0747258 0
M  V30 5716 H 518.579 -2.20729 -2.37591 0
M  V30 5717 H 518.364 -3.67217 -1.37456 0
M  V30 5718 H 519.854 -3.45794 -2.34128 0
M  V30 5719 N 520.291 -0.0518155 -1.57515 0
M  V30 5720 C 521.521 0.63048 -1.96745 0
M  V30 5721 C 521.929 1.64875 -0.928054 0
M  V30 5722 O 521.272 1.83449 0.0960678 0
M  V30 5723 C 521.334 1.37381 -3.32215 0
M  V30 5724 C 520.998 0.511298 -4.54131 0
M  V30 5725 C 521.995 -0.222884 -5.19422 0
M  V30 5726 C 519.68 0.442035 -5.00351 0
M  V30 5727 C 521.674 -1.01476 -6.2927 0
M  V30 5728 C 519.361 -0.35353 -6.10077 0
M  V30 5729 C 520.359 -1.08062 -6.74397 0
M  V30 5730 O 520.047 -1.8631 -7.82013 0
M  V30 5731 H 519.779 0.177126 -0.652382 0
M  V30 5732 H 522.333 -0.114726 -2.05079 0
M  V30 5733 H 520.563 2.16466 -3.20436 0
M  V30 5734 H 522.252 1.9464 -3.56188 0
M  V30 5735 H 523.018 -0.178846 -4.8467 0
M  V30 5736 H 518.897 0.997562 -4.50077 0
M  V30 5737 H 522.441 -1.58279 -6.79407 0
M  V30 5738 H 518.338 -0.399205 -6.44264 0
M  V30 5739 H 519.106 -1.78528 -7.98793 0
M  V30 5740 N 521.769 1.56035 0.221574 0
M  V30 5741 C 522.717 1.93269 1.29421 0
M  V30 5742 C 523.711 0.814727 1.48521 0
M  V30 5743 O 524.917 0.999559 1.49696 0
M  V30 5744 H 521.292 0.614188 0.43391 0
M  V30 5745 H 523.263 2.82773 0.952987 0
M  V30 5746 C 522.012 2.26573 2.63742 0
M  V30 5747 H 521.335 3.12112 2.49853 0
M  V30 5748 H 522.775 2.5651 3.37607 0
M  V30 5749 C 521.234 1.09086 3.1875 0
M  V30 5750 O 521.764 0.351985 4.00155 0
M  V30 5751 N 519.97 0.874693 2.77124 0
M  V30 5752 H 519.517 1.47726 2.11033 0
M  V30 5753 H 519.475 0.0903349 3.1427 0
M  V30 5754 N 523.247 -0.488276 1.49845 0
M  V30 5755 C 524.495 -1.23911 1.59657 0
M  V30 5756 C 524.816 -1.92816 0.291005 0
M  V30 5757 O 524.086 -1.83328 -0.690485 0
M  V30 5758 H 522.666 -0.460357 0.588286 0
M  V30 5759 H 525.328 -0.564794 1.86537 0
M  V30 5760 H 524.424 -1.99625 2.39909 0
M  V30 5761 N 524.725 -1.39134 -0.740242 0
M  V30 5762 C 526.136 -1.32208 -1.31825 0
M  V30 5763 C 526.487 0.0159919 -1.96193 0
M  V30 5764 O 525.612 0.918111 -1.95958 0
M  V30 5765 C 526.207 -2.39436 -2.39699 0
M  V30 5766 C 524.766 -2.36048 -2.93187 0
M  V30 5767 C 523.913 -2.21599 -1.66701 0
M  V30 5768 H 526.864 -1.49298 -0.538133 0
M  V30 5769 H 526.885 -2.05922 -3.19963 0
M  V30 5770 H 526.397 -3.36811 -1.92821 0
M  V30 5771 H 524.498 -1.42295 -3.44359 0
M  V30 5772 H 524.611 -3.30704 -3.46658 0
M  V30 5773 H 522.975 -1.68681 -1.90837 0
M  V30 5774 H 523.758 -3.20936 -1.21882 0
M  V30 5775 N 526.204 0.969867 -1.24223 0
M  V30 5776 C 527.451 1.71256 -1.08063 0
M  V30 5777 C 527.779 1.90734 0.380872 0
M  V30 5778 O 527.034 1.46469 1.29789 0
M  V30 5779 C 527.333 3.10883 -1.76314 0
M  V30 5780 C 526.999 3.11252 -3.26241 0
M  V30 5781 C 525.661 3.1106 -3.67144 0
M  V30 5782 C 528.013 3.05751 -4.22097 0
M  V30 5783 C 525.341 3.03097 -5.02344 0
M  V30 5784 C 527.693 2.9933 -5.57301 0
M  V30 5785 C 526.357 2.97466 -5.97554 0
M  V30 5786 H 525.627 0.62667 -0.395431 0
M  V30 5787 H 528.274 1.13422 -1.54297 0
M  V30 5788 H 526.579 3.72168 -1.22468 0
M  V30 5789 H 528.276 3.67138 -1.61277 0
M  V30 5790 H 524.866 3.12165 -2.93685 0
M  V30 5791 H 529.05 3.05031 -3.91497 0
M  V30 5792 H 524.306 3.00013 -5.32731 0
M  V30 5793 H 528.48 2.94033 -6.31283 0
M  V30 5794 H 526.107 2.91051 -7.02277 0
M  V30 5795 N 527.682 1.05563 1.17022 0
M  V30 5796 C 528.907 0.788437 1.91829 0
M  V30 5797 C 529.332 -0.650356 1.76499 0
M  V30 5798 O 528.69 -1.45229 1.08527 0
M  V30 5799 C 528.738 1.1786 3.40795 0
M  V30 5800 O 527.842 0.312965 4.11211 0
M  V30 5801 H 527.183 0.288794 0.597908 0
M  V30 5802 H 529.713 1.40948 1.48307 0
M  V30 5803 H 529.723 1.14697 3.91546 0
M  V30 5804 H 528.398 2.22666 3.51273 0
M  V30 5805 H 526.975 0.405515 3.70689 0
M  V30 5806 N 529.16 -1.33526 0.837174 0
M  V30 5807 C 530.408 -1.97446 0.431211 0
M  V30 5808 C 530.729 -1.6665 -1.01255 0
M  V30 5809 O 529.999 -0.964559 -1.70508 0
M  V30 5810 H 528.579 -0.73043 0.156463 0
M  V30 5811 H 531.241 -1.62918 1.06976 0
M  V30 5812 H 530.337 -3.07001 0.561877 0
M  V30 5813 N 530.638 -0.59345 -1.46 0
M  V30 5814 C 531.887 -0.0808084 -2.01538 0
M  V30 5815 C 532.2 1.29112 -1.46934 0
M  V30 5816 O 533.406 1.8957 -1.94359 0
M  V30 5817 C 531.862 -0.0938311 -3.59778 0
M  V30 5818 C 531.47 -1.46474 -4.23379 0
M  V30 5819 C 533.214 0.364306 -4.22934 0
M  V30 5820 C 531.121 -1.4349 -5.73729 0
M  V30 5821 H 530.051 -0.0264407 -0.753536 0
M  V30 5822 H 532.702 -0.746689 -1.67621 0
M  V30 5823 H 531.084 0.638427 -3.9082 0
M  V30 5824 H 532.258 -2.21758 -4.03931 0
M  V30 5825 H 530.573 -1.86379 -3.7236 0
M  V30 5826 H 533.17 0.405584 -5.3316 0
M  V30 5827 H 533.513 1.38409 -3.92618 0
M  V30 5828 H 534.046 -0.31423 -3.96557 0
M  V30 5829 H 530.785 -2.43184 -6.08722 0
M  V30 5830 H 530.305 -0.724431 -5.95409 0
M  V30 5831 H 531.984 -1.15243 -6.36654 0
M  V30 5832 N 532.116 1.54067 -0.331816 0
M  V30 5833 C 533.341 2.05599 0.272705 0
M  V30 5834 C 533.766 1.2059 1.44359 0
M  V30 5835 O 533.124 0.216907 1.79998 0
M  V30 5836 C 533.172 3.54188 0.677021 0
M  V30 5837 O 532.276 3.72082 1.77844 0
M  V30 5838 H 531.617 0.662286 0.0476801 0
M  V30 5839 H 534.147 1.98826 -0.482624 0
M  V30 5840 H 534.157 3.96608 0.957415 0
M  V30 5841 H 532.832 4.15513 -0.179325 0
M  V30 5842 H 531.409 3.41566 1.49622 0
M  V30 5843 N 533.594 0.0601682 1.57485 0
M  V30 5844 C 534.84 -0.612501 1.93329 0
M  V30 5845 C 535.173 -1.6996 0.939526 0
M  V30 5846 O 534.448 -1.94472 -0.0330957 0
M  V30 5847 C 534.731 -1.20025 3.39508 0
M  V30 5848 C 534.584 -0.12059 4.49638 0
M  V30 5849 C 535.903 -2.10923 3.86264 0
M  V30 5850 H 533.022 -0.221185 0.703027 0
M  V30 5851 H 535.664 0.123768 1.89596 0
M  V30 5852 H 533.814 -1.82774 3.42821 0
M  V30 5853 H 535.486 0.51185 4.58452 0
M  V30 5854 H 533.729 0.550251 4.30296 0
M  V30 5855 H 534.4 -0.572019 5.49028 0
M  V30 5856 H 536.876 -1.58124 3.84884 0
M  V30 5857 H 535.752 -2.48987 4.8918 0
M  V30 5858 H 536.013 -3.01292 3.23536 0
M  V30 5859 N 535.072 -1.5615 -0.213296 0
M  V30 5860 C 535.982 -1.96265 -1.28519 0
M  V30 5861 C 536.998 -0.86765 -1.50824 0
M  V30 5862 O 538.174 -1.17191 -1.63793 0
M  V30 5863 C 535.239 -2.27836 -2.61327 0
M  V30 5864 C 534.3 -3.50949 -2.47252 0
M  V30 5865 C 533.533 -3.81004 -3.73727 0
M  V30 5866 O 533.756 -3.12612 -4.77106 0
M  V30 5867 O 532.69 -4.74477 -3.70344 0
M  V30 5868 H 536.516 -2.87631 -0.974795 0
M  V30 5869 H 534.101 -1.43467 -0.416832 0
M  V30 5870 H 535.983 -2.49299 -3.39747 0
M  V30 5871 H 534.658 -1.39643 -2.9203 0
M  V30 5872 H 533.565 -3.34754 -1.67004 0
M  V30 5873 H 534.898 -4.39551 -2.21486 0
M  V30 5874 N 536.55 0.480323 -1.50102 0
M  V30 5875 C 537.78 1.25475 -1.64133 0
M  V30 5876 C 538.188 1.8647 -0.320272 0
M  V30 5877 O 537.531 1.69561 0.70673 0
M  V30 5878 C 537.593 2.40996 -2.6676 0
M  V30 5879 C 537.257 2.00711 -4.10565 0
M  V30 5880 C 538.254 1.53492 -4.96725 0
M  V30 5881 C 535.939 2.09714 -4.56427 0
M  V30 5882 C 537.933 1.15806 -6.26792 0
M  V30 5883 C 535.62 1.7164 -5.86501 0
M  V30 5884 C 536.618 1.24763 -6.71508 0
M  V30 5885 O 536.306 0.872122 -7.99155 0
M  V30 5886 H 536.038 0.385983 -0.554971 0
M  V30 5887 H 538.592 0.580848 -1.97016 0
M  V30 5888 H 536.822 3.11528 -2.291 0
M  V30 5889 H 538.511 3.02981 -2.70106 0
M  V30 5890 H 539.277 1.45966 -4.62514 0
M  V30 5891 H 535.156 2.4515 -3.90413 0
M  V30 5892 H 538.7 0.791465 -6.93096 0
M  V30 5893 H 534.597 1.78822 -6.20236 0
M  V30 5894 H 535.365 1.00178 -8.12346 0
M  V30 5895 N 538.028 1.39524 0.732853 0
M  V30 5896 C 538.96 1.34318 1.85718 0
M  V30 5897 C 539.973 0.251576 1.60844 0
M  V30 5898 O 541.162 0.510685 1.71039 0
M  V30 5899 C 538.262 1.06334 3.21786 0
M  V30 5900 C 537.435 2.26813 3.73998 0
M  V30 5901 C 536.494 1.95253 4.88634 0
M  V30 5902 O 535.52 2.67957 5.02183 0
M  V30 5903 N 536.722 0.919984 5.73164 0
M  V30 5904 H 539.487 2.3121 1.90688 0
M  V30 5905 H 537.048 1.33654 0.91368 0
M  V30 5906 H 539.04 0.832363 3.96048 0
M  V30 5907 H 537.61 0.181682 3.12072 0
M  V30 5908 H 536.83 2.65849 2.91064 0
M  V30 5909 H 538.118 3.0717 4.05616 0
M  V30 5910 H 537.516 0.317487 5.64808 0
M  V30 5911 H 536.073 0.748905 6.47483 0
M  V30 5912 N 539.506 -0.963266 1.24736 0
M  V30 5913 C 540.453 -2.05857 1.04363 0
M  V30 5914 C 541.423 -1.6604 -0.0444951 0
M  V30 5915 O 542.608 -1.90477 0.110999 0
M  V30 5916 C 539.748 -3.38745 0.659235 0
M  V30 5917 C 538.861 -3.9173 1.82131 0
M  V30 5918 C 537.996 -5.12906 1.38208 0
M  V30 5919 C 537.035 -5.58098 2.51382 0
M  V30 5920 N 536.172 -6.7049 2.08295 0
M  V30 5921 H 541.012 -2.22616 1.98107 0
M  V30 5922 H 538.549 -1.09103 0.986661 0
M  V30 5923 H 540.507 -4.15107 0.417371 0
M  V30 5924 H 539.137 -3.21898 -0.241201 0
M  V30 5925 H 538.189 -3.11966 2.17672 0
M  V30 5926 H 539.501 -4.21225 2.67153 0
M  V30 5927 H 538.655 -5.96657 1.09935 0
M  V30 5928 H 537.394 -4.85105 0.502456 0
M  V30 5929 H 536.399 -4.72917 2.80409 0
M  V30 5930 H 537.624 -5.87911 3.39909 0
M  V30 5931 H 535.57 -6.44416 1.22737 0
M  V30 5932 H 535.487 -6.99458 2.86869 0
M  V30 5933 H 536.755 -7.57672 1.83175 0
M  V30 5934 N 540.985 -1.06182 -1.16461 0
M  V30 5935 C 542.401 -0.785065 -1.38956 0
M  V30 5936 C 542.601 0.616103 -1.9185 0
M  V30 5937 O 541.657 1.37686 -2.11657 0
M  V30 5938 C 542.97 -1.84902 -2.37132 0
M  V30 5939 C 544.518 -1.8724 -2.50819 0
M  V30 5940 C 544.993 -2.92686 -3.52277 0
M  V30 5941 N 546.484 -2.91712 -3.59803 0
M  V30 5942 C 547.219 -3.69949 -4.38093 0
M  V30 5943 N 546.715 -4.58 -5.19815 0
M  V30 5944 N 548.508 -3.58346 -4.33064 0
M  V30 5945 H 540.659 -1.96569 -0.804634 0
M  V30 5946 H 542.922 -0.851747 -0.416211 0
M  V30 5947 H 542.628 -2.85518 -2.0536 0
M  V30 5948 H 542.502 -1.69908 -3.36766 0
M  V30 5949 H 544.889 -0.872827 -2.81897 0
M  V30 5950 H 544.97 -2.06311 -1.51226 0
M  V30 5951 H 544.614 -3.92835 -3.21937 0
M  V30 5952 H 544.544 -2.70864 -4.51598 0
M  V30 5953 H 547.035 -2.27876 -3.01464 0
M  V30 5954 H 547.348 -5.14357 -5.76764 0
M  V30 5955 H 545.693 -4.62056 -5.19162 0
M  V30 5956 H 548.884 -2.88943 -3.68279 0
M  V30 5957 H 549.057 -4.19563 -4.93833 0
M  V30 5958 N 542.463 1.3308 -0.844243 0
M  V30 5959 C 543.74 1.92178 -0.364261 0
M  V30 5960 C 544.12 1.76961 1.15101 0
M  V30 5961 O 543.468 1.16128 1.9679 0
M  V30 5962 C 543.678 3.393 -0.817106 0
M  V30 5963 C 545.026 4.16444 -0.828236 0
M  V30 5964 O 546.05 3.47975 -0.761062 0
M  V30 5965 O 544.909 5.38685 -0.920926 0
M  V30 5966 H 542.003 0.820411 -0.10419 0
M  V30 5967 H 544.549 1.41918 -0.930453 0
M  V30 5968 H 543.321 3.44272 -1.85991 0
M  V30 5969 H 542.944 3.96947 -0.227785 0
M  V30 5970 N 543.941 0.601185 1.45683 0
M  V30 5971 C 545.352 0.179659 1.85834 0
M  V30 5972 C 545.703 -1.26189 1.50236 0
M  V30 5973 O 544.828 -1.95587 0.925987 0
M  V30 5974 C 545.423 0.319277 3.37292 0
M  V30 5975 C 543.982 -0.0475092 3.7637 0
M  V30 5976 C 543.129 0.646692 2.69654 0
M  V30 5977 H 546.08 0.808268 1.36575 0
M  V30 5978 H 546.101 -0.4503 3.77826 0
M  V30 5979 H 545.613 1.36855 3.6317 0
M  V30 5980 H 543.714 -1.0962 3.5611 0
M  V30 5981 H 543.827 0.34168 4.7788 0
M  V30 5982 H 542.191 0.0849971 2.54558 0
M  V30 5983 H 542.974 1.69797 2.98369 0
M  V30 5984 N 545.419 -1.53889 0.339982 0
M  V30 5985 C 546.696 -1.93084 -0.312719 0
M  V30 5986 C 547.076 -1.2712 -1.68534 0
M  V30 5987 O 546.424 -0.420835 -2.24591 0
M  V30 5988 C 546.634 -3.4683 -0.388558 0
M  V30 5989 C 547.982 -4.19732 -0.641088 0
M  V30 5990 O 549.006 -3.53075 -0.470818 0
M  V30 5991 O 547.865 -5.3781 -0.970685 0
M  V30 5992 H 544.959 -0.806784 -0.18174 0
M  V30 5993 H 547.505 -1.65137 0.390898 0
M  V30 5994 H 546.277 -3.87055 0.574821 0
M  V30 5995 H 545.9 -3.80933 -1.1391 0
M  V30 5996 N 546.897 -0.0685191 -1.57451 0
M  V30 5997 C 548.122 0.613919 -1.98106 0
M  V30 5998 C 548.547 1.62551 -0.946501 0
M  V30 5999 O 547.905 1.81085 0.0882824 0
M  V30 6000 C 547.953 1.26189 -3.378 0
M  V30 6001 O 547.057 2.37773 -3.36954 0
M  V30 6002 H 546.398 0.158163 -0.644888 0
M  V30 6003 H 548.928 -0.142063 -2.04106 0
M  V30 6004 H 548.938 1.60951 -3.74912 0
M  V30 6005 H 547.613 0.520625 -4.12629 0
M  V30 6006 H 546.19 2.04829 -3.11608 0
M  V30 6007 N 548.375 1.56261 0.205012 0
M  V30 6008 C 549.624 1.79236 0.925058 0
M  V30 6009 C 549.937 0.640011 1.84833 0
M  V30 6010 O 551.143 0.753809 2.60826 0
M  V30 6011 C 549.599 3.17475 1.69522 0
M  V30 6012 C 549.207 4.40482 0.817269 0
M  V30 6013 C 550.951 3.49766 2.4055 0
M  V30 6014 C 548.858 5.69744 1.58573 0
M  V30 6015 H 547.788 0.668287 0.349153 0
M  V30 6016 H 550.439 1.82629 0.178544 0
M  V30 6017 H 548.821 3.08304 2.48526 0
M  V30 6018 H 549.995 4.60752 0.0665988 0
M  V30 6019 H 548.31 4.15827 0.218316 0
M  V30 6020 H 550.907 4.43573 2.98575 0
M  V30 6021 H 551.25 2.73041 3.14252 0
M  V30 6022 H 551.783 3.60341 1.68522 0
M  V30 6023 H 548.522 6.49407 0.891679 0
M  V30 6024 H 548.042 5.53509 2.31059 0
M  V30 6025 H 549.721 6.1051 2.14212 0
M  V30 6026 N 549.853 -0.472356 1.50355 0
M  V30 6027 C 550.783 -1.57859 1.72055 0
M  V30 6028 C 551.764 -1.60283 0.569505 0
M  V30 6029 O 552.949 -1.7657 0.808503 0
M  V30 6030 C 550.079 -2.96191 1.81351 0
M  V30 6031 C 549.033 -3.08633 2.96529 0
M  V30 6032 C 548.359 -4.486 2.90968 0
M  V30 6033 C 549.659 -2.85969 4.37057 0
M  V30 6034 H 551.353 -1.39953 2.64676 0
M  V30 6035 H 548.899 -0.671846 1.27367 0
M  V30 6036 H 550.852 -3.73507 1.95117 0
M  V30 6037 H 549.576 -3.15251 0.853502 0
M  V30 6038 H 548.235 -2.33749 2.82413 0
M  V30 6039 H 547.883 -4.64577 1.92815 0
M  V30 6040 H 547.583 -4.57861 3.68289 0
M  V30 6041 H 549.107 -5.27938 3.0678 0
M  V30 6042 H 550.521 -3.53036 4.51706 0
M  V30 6043 H 548.918 -3.06677 5.15819 0
M  V30 6044 H 549.988 -1.81838 4.49514 0
M  V30 6045 N 551.331 -1.39911 -0.725443 0
M  V30 6046 C 552.556 -1.41137 -1.5197 0
M  V30 6047 C 552.981 -0.010262 -1.88097 0
M  V30 6048 O 552.339 0.979184 -1.52583 0
M  V30 6049 C 552.387 -2.2994 -2.77777 0
M  V30 6050 O 551.491 -1.73586 -3.74088 0
M  V30 6051 H 550.832 -0.480219 -0.458569 0
M  V30 6052 H 553.362 -1.84023 -0.894249 0
M  V30 6053 H 553.372 -2.44785 -3.26411 0
M  V30 6054 H 552.047 -3.31759 -2.50816 0
M  V30 6055 H 550.624 -1.68035 -3.32894 0
M  V30 6056 N 552.809 0.956637 -1.25245 0
M  V30 6057 C 553.759 2.03841 -1.02141 0
M  V30 6058 C 554.743 1.60848 0.0410058 0
M  V30 6059 O 555.935 1.76142 -0.174084 0
M  V30 6060 C 553.064 3.37282 -0.639963 0
M  V30 6061 C 552.15 3.86805 -1.73903 0
M  V30 6062 N 552.541 4.09143 -2.97381 0
M  V30 6063 C 550.839 4.15574 -1.61909 0
M  V30 6064 C 551.54 4.49923 -3.68707 0
M  V30 6065 N 550.516 4.55737 -2.96318 0
M  V30 6066 H 554.318 2.19102 -1.95886 0
M  V30 6067 H 551.832 1.1413 -1.15534 0
M  V30 6068 H 553.829 4.14403 -0.455643 0
M  V30 6069 H 552.489 3.23401 0.29018 0
M  V30 6070 H 553.5 3.96275 -3.33447 0
M  V30 6071 H 550.177 4.10566 -0.757764 0
M  V30 6072 H 551.567 4.75526 -4.74684 0
M  V30 6073 N 554.287 1.06798 1.15896 0
M  V30 6074 C 555.515 0.808694 1.90441 0
M  V30 6075 C 555.93 -0.637506 1.77711 0
M  V30 6076 O 555.287 -1.43684 1.12522 0
M  V30 6077 C 555.338 1.20068 3.40978 0
M  V30 6078 O 555.059 2.59013 3.53333 0
M  V30 6079 C 556.56 0.96987 4.3256 0
M  V30 6080 H 553.78 0.292809 0.603742 0
M  V30 6081 H 556.324 1.42296 1.46874 0
M  V30 6082 H 554.479 0.630842 3.82229 0
M  V30 6083 H 554.893 2.7485 4.46719 0
M  V30 6084 H 556.367 1.29371 5.36626 0
M  V30 6085 H 556.844 -0.0941209 4.39099 0
M  V30 6086 H 557.45 1.52433 3.97044 0
M  V30 6087 N 555.766 -1.3263 0.851289 0
M  V30 6088 C 556.696 -2.31449 0.308771 0
M  V30 6089 C 557.677 -1.59531 -0.590255 0
M  V30 6090 O 558.862 -1.87351 -0.511205 0
M  V30 6091 C 555.992 -3.43586 -0.506548 0
M  V30 6092 C 554.946 -4.26963 0.297753 0
M  V30 6093 C 554.272 -5.30831 -0.642094 0
M  V30 6094 C 555.572 -4.99643 1.52166 0
M  V30 6095 H 557.266 -2.77074 1.13447 0
M  V30 6096 H 554.812 -1.33207 0.546971 0
M  V30 6097 H 556.765 -4.11754 -0.896474 0
M  V30 6098 H 555.489 -2.96681 -1.36558 0
M  V30 6099 H 554.148 -3.60437 0.669391 0
M  V30 6100 H 553.796 -4.8018 -1.49788 0
M  V30 6101 H 553.496 -5.87501 -0.107968 0
M  V30 6102 H 555.02 -6.01862 -1.02927 0
M  V30 6103 H 556.434 -5.6051 1.20421 0
M  V30 6104 H 554.831 -5.66022 1.99347 0
M  V30 6105 H 555.901 -4.27701 2.28474 0
M  V30 6106 N 557.244 -0.608902 -1.45362 0
M  V30 6107 C 558.492 -0.104401 -2.0183 0
M  V30 6108 C 558.813 1.27007 -1.47967 0
M  V30 6109 O 558.083 1.83924 -0.674455 0
M  V30 6110 H 556.663 -0.0356042 -0.746151 0
M  V30 6111 H 559.325 -0.790596 -1.78145 0
M  V30 6112 H 558.421 -0.0551793 -3.12051 0
M  V30 6113 N 558.722 1.53707 -0.348139 0
M  V30 6114 C 559.968 2.01979 0.239986 0
M  V30 6115 C 560.323 1.23141 1.47831 0
M  V30 6116 O 559.616 0.311936 1.89044 0
M  V30 6117 C 559.81 3.52292 0.602061 0
M  V30 6118 C 559.639 4.45684 -0.599625 0
M  V30 6119 C 558.409 4.9304 -1.10635 0
M  V30 6120 C 560.607 4.93156 -1.4595 0
M  V30 6121 N 558.589 5.70394 -2.26988 0
M  V30 6122 C 559.96 5.6868 -2.46988 0
M  V30 6123 C 562.015 4.75257 -1.48441 0
M  V30 6124 C 560.718 6.28208 -3.50353 0
M  V30 6125 C 562.744 5.35639 -2.50689 0
M  V30 6126 C 562.106 6.11034 -3.50453 0
M  V30 6127 H 558.205 0.780335 0.0509992 0
M  V30 6128 H 560.789 1.88466 -0.488742 0
M  V30 6129 H 558.96 3.66002 1.29989 0
M  V30 6130 H 560.692 3.87304 1.17377 0
M  V30 6131 H 557.447 4.68784 -0.67371 0
M  V30 6132 H 557.871 6.13741 -2.85747 0
M  V30 6133 H 562.513 4.16508 -0.726707 0
M  V30 6134 H 560.231 6.86064 -4.27015 0
M  V30 6135 H 563.817 5.23693 -2.53449 0
M  V30 6136 H 562.697 6.56925 -4.28275 0
M  V30 6137 N 560.2 0.0768682 1.57412 0
M  V30 6138 C 561.428 -0.59997 1.9801 0
M  V30 6139 C 561.843 -1.62842 0.955408 0
M  V30 6140 O 561.2 -1.8241 -0.057314 0
M  V30 6141 C 561.251 -1.26401 3.38681 0
M  V30 6142 O 560.972 -0.276723 4.37225 0
M  V30 6143 C 562.473 -2.0282 3.94182 0
M  V30 6144 H 559.693 -0.162239 0.651091 0
M  V30 6145 H 562.237 0.150771 2.03943 0
M  V30 6146 H 560.392 -1.96581 3.33819 0
M  V30 6147 H 560.806 -0.753744 5.19056 0
M  V30 6148 H 562.28 -2.44667 4.94815 0
M  V30 6149 H 562.757 -2.88678 3.31001 0
M  V30 6150 H 563.363 -1.37496 4.02461 0
M  V30 6151 N 561.678 -1.56367 -0.196722 0
M  V30 6152 C 563.094 -1.49916 -0.54749 0
M  V30 6153 C 563.294 -0.77659 -1.85934 0
M  V30 6154 O 562.35 -0.32644 -2.50381 0
M  V30 6155 C 563.663 -2.94577 -0.603734 0
M  V30 6156 C 565.211 -3.05239 -0.692677 0
M  V30 6157 C 565.686 -4.51308 -0.780046 0
M  V30 6158 N 567.177 -4.55453 -0.843616 0
M  V30 6159 C 567.912 -5.65786 -0.931358 0
M  V30 6160 N 567.408 -6.85812 -0.981503 0
M  V30 6161 N 569.201 -5.53695 -0.968421 0
M  V30 6162 H 561.352 -2.01761 0.663803 0
M  V30 6163 H 563.615 -0.918094 0.236238 0
M  V30 6164 H 563.321 -3.50494 0.29105 0
M  V30 6165 H 563.195 -3.47841 -1.45898 0
M  V30 6166 H 565.582 -2.49372 -1.57789 0
M  V30 6167 H 565.663 -2.55103 0.188736 0
M  V30 6168 H 565.307 -5.078 0.100811 0
M  V30 6169 H 565.237 -4.99176 -1.67724 0
M  V30 6170 H 567.728 -3.69025 -0.814176 0
M  V30 6171 H 568.041 -7.65648 -1.04892 0
M  V30 6172 H 566.386 -6.88474 -0.950208 0
M  V30 6173 H 569.577 -4.58848 -0.926072 0
M  V30 6174 H 569.75 -6.39708 -1.03334 0
M  V30 6175 N 563.156 0.464375 -1.50603 0
M  V30 6176 C 564.403 1.21596 -1.61928 0
M  V30 6177 C 564.731 1.91804 -0.322737 0
M  V30 6178 O 563.986 1.83065 0.691776 0
M  V30 6179 C 564.285 2.278 -2.75394 0
M  V30 6180 C 563.951 1.74797 -4.1564 0
M  V30 6181 C 562.613 1.60063 -4.53799 0
M  V30 6182 C 564.965 1.35548 -5.03266 0
M  V30 6183 C 562.293 1.04514 -5.77316 0
M  V30 6184 C 564.645 0.814381 -6.27336 0
M  V30 6185 C 563.309 0.653726 -6.64291 0
M  V30 6186 H 562.579 0.444951 -0.592536 0
M  V30 6187 H 565.226 0.510964 -1.84557 0
M  V30 6188 H 563.531 3.04233 -2.46879 0
M  V30 6189 H 565.228 2.85723 -2.81359 0
M  V30 6190 H 561.818 1.87234 -3.8554 0
M  V30 6191 H 566.002 1.45763 -4.74412 0
M  V30 6192 H 561.258 0.908186 -6.04617 0
M  V30 6193 H 565.432 0.501626 -6.94591 0
M  V30 6194 H 563.059 0.22114 -7.59878 0
M  V30 6195 N 564.634 1.40294 0.718013 0
M  V30 6196 C 566.05 1.2227 1.02577 0
M  V30 6197 C 566.25 0.0961976 2.0127 0
M  V30 6198 O 565.306 -0.546695 2.46511 0
M  V30 6199 C 566.619 2.56348 1.57182 0
M  V30 6200 C 568.167 2.6334 1.69178 0
M  V30 6201 C 568.642 3.9768 2.27188 0
M  V30 6202 N 570.133 3.99409 2.34578 0
M  V30 6203 C 570.868 5.00141 2.8044 0
M  V30 6204 N 570.364 6.11268 3.26073 0
M  V30 6205 N 572.157 4.87511 2.79802 0
M  V30 6206 H 564.308 2.12304 0.0637899 0
M  V30 6207 H 566.571 0.943632 0.0909036 0
M  V30 6208 H 566.277 3.3942 0.921262 0
M  V30 6209 H 566.151 2.77266 2.55741 0
M  V30 6210 H 568.538 1.80641 2.33351 0
M  V30 6211 H 568.619 2.46255 0.692247 0
M  V30 6212 H 568.263 4.80817 1.63638 0
M  V30 6213 H 568.193 4.12093 3.27852 0
M  V30 6214 H 570.684 3.19162 2.02346 0
M  V30 6215 H 570.997 6.84023 3.59628 0
M  V30 6216 H 569.342 6.14837 3.24038 0
M  V30 6217 H 572.533 3.9979 2.43487 0
M  V30 6218 H 572.706 5.66158 3.15228 0
M  V30 6219 N 566.112 -0.949982 1.2575 0
M  V30 6220 C 567.059 -2.04738 1.06541 0
M  V30 6221 C 568.029 -1.66078 -0.0268818 0
M  V30 6222 O 569.214 -1.90348 0.131196 0
M  V30 6223 C 566.354 -3.38027 0.695127 0
M  V30 6224 C 565.467 -3.89776 1.86276 0
M  V30 6225 C 564.602 -5.11411 1.4364 0
M  V30 6226 C 563.641 -5.554 2.57287 0
M  V30 6227 N 562.778 -6.68244 2.15395 0
M  V30 6228 H 567.618 -2.20502 2.00457 0
M  V30 6229 H 565.155 -1.0805 0.998178 0
M  V30 6230 H 567.113 -4.14641 0.461375 0
M  V30 6231 H 565.743 -3.22135 -0.207046 0
M  V30 6232 H 564.795 -3.0964 2.20969 0
M  V30 6233 H 566.107 -4.18368 2.71606 0
M  V30 6234 H 565.261 -5.95457 1.16257 0
M  V30 6235 H 564 -4.84545 0.553879 0
M  V30 6236 H 563.005 -4.69916 2.85409 0
M  V30 6237 H 564.23 -5.84272 3.46125 0
M  V30 6238 H 562.176 -6.43078 1.29565 0
M  V30 6239 H 562.093 -6.96377 2.94272 0
M  V30 6240 H 563.361 -7.55687 1.91201 0
M  V30 6241 N 567.59 -1.07411 -1.15328 0
M  V30 6242 C 568.5 -0.706438 -2.23711 0
M  V30 6243 C 569.516 0.282586 -1.7169 0
M  V30 6244 O 570.692 0.129066 -2.00986 0
M  V30 6245 C 567.757 -0.11048 -3.46524 0
M  V30 6246 C 566.818 -1.15282 -4.13532 0
M  V30 6247 C 566.051 -0.585205 -5.30482 0
M  V30 6248 O 566.274 0.598549 -5.67251 0
M  V30 6249 O 565.208 -1.33039 -5.87013 0
M  V30 6250 H 569.034 -1.61031 -2.57493 0
M  V30 6251 H 566.619 -0.847113 -1.23062 0
M  V30 6252 H 568.501 0.21957 -4.20828 0
M  V30 6253 H 567.176 0.766703 -3.14489 0
M  V30 6254 H 566.083 -1.53523 -3.41147 0
M  V30 6255 H 567.416 -2.00192 -4.49649 0
M  V30 6256 N 569.068 1.32177 -0.85831 0
M  V30 6257 C 570.016 2.30729 -0.294442 0
M  V30 6258 C 571.01 1.59009 0.584165 0
M  V30 6259 O 572.216 1.73713 0.471562 0
M  V30 6260 H 568.591 0.748097 -0.0765171 0
M  V30 6261 H 570.562 2.75774 -1.1398 0
M  V30 6262 C 569.311 3.44098 0.499208 0
M  V30 6263 H 568.634 3.99449 -0.167579 0
M  V30 6264 H 570.074 4.15202 0.859273 0
M  V30 6265 C 568.533 2.91684 1.68588 0
M  V30 6266 O 569.063 2.89481 2.78503 0
M  V30 6267 N 567.269 2.48036 1.51415 0
M  V30 6268 H 566.816 2.50027 0.620006 0
M  V30 6269 H 566.774 2.13322 2.30957 0
M  V30 6270 N 570.547 0.616602 1.45037 0
M  V30 6271 C 571.479 -0.135186 2.28801 0
M  V30 6272 C 572.492 -0.82303 1.40464 0
M  V30 6273 O 573.681 -0.686909 1.64754 0
M  V30 6274 C 570.781 -1.21292 3.16451 0
M  V30 6275 C 569.954 -0.61043 4.3312 0
M  V30 6276 C 569.013 -1.58022 5.01912 0
M  V30 6277 O 568.039 -1.10301 5.58411 0
M  V30 6278 N 569.241 -2.91464 5.02025 0
M  V30 6279 H 572.006 0.583612 2.93963 0
M  V30 6280 H 569.567 0.456723 1.55324 0
M  V30 6281 H 571.559 -1.86169 3.59337 0
M  V30 6282 H 570.129 -1.83412 2.53138 0
M  V30 6283 H 569.349 0.216638 3.93604 0
M  V30 6284 H 570.637 -0.188293 5.08451 0
M  V30 6285 H 570.035 -3.32829 4.57429 0
M  V30 6286 H 568.592 -3.51741 5.48745 0
M  V30 6287 N 572.025 -1.5352 0.356285 0
M  V30 6288 C 573.271 -2.02104 -0.229271 0
M  V30 6289 C 573.626 -1.23923 -1.47176 0
M  V30 6290 O 572.919 -0.321957 -1.88876 0
M  V30 6291 C 573.113 -3.52607 -0.583369 0
M  V30 6292 C 572.942 -4.4536 0.623253 0
M  V30 6293 C 571.712 -4.92446 1.13248 0
M  V30 6294 C 573.91 -4.92375 1.48563 0
M  V30 6295 N 571.892 -5.69183 2.3001 0
M  V30 6296 C 573.263 -5.67362 2.50001 0
M  V30 6297 C 575.318 -4.74464 1.50959 0
M  V30 6298 C 574.021 -6.26341 3.5368 0
M  V30 6299 C 576.047 -5.34302 2.53526 0
M  V30 6300 C 575.409 -6.09166 3.53688 0
M  V30 6301 H 571.508 -0.780595 -0.0468602 0
M  V30 6302 H 574.092 -1.88204 0.49873 0
M  V30 6303 H 572.263 -3.66686 -1.28046 0
M  V30 6304 H 573.995 -3.87922 -1.15321 0
M  V30 6305 H 570.75 -4.6842 0.698562 0
M  V30 6306 H 571.174 -6.12216 2.88998 0
M  V30 6307 H 575.816 -4.16117 0.748785 0
M  V30 6308 H 573.534 -6.8379 4.30648 0
M  V30 6309 H 577.12 -5.22342 2.56223 0
M  V30 6310 H 576 -6.54644 4.31753 0
M  V30 6311 N 573.503 -0.0852151 -1.57369 0
M  V30 6312 C 574.752 0.580443 -1.93168 0
M  V30 6313 C 575.065 1.6995 -0.968319 0
M  V30 6314 O 576.271 2.42564 -1.21963 0
M  V30 6315 C 574.727 1.08386 -3.43192 0
M  V30 6316 C 574.335 -0.00491388 -4.48 0
M  V30 6317 C 576.079 1.72281 -3.87968 0
M  V30 6318 C 573.986 0.513299 -5.89168 0
M  V30 6319 H 572.916 0.22059 -0.72101 0
M  V30 6320 H 575.567 -0.159621 -1.82804 0
M  V30 6321 H 573.949 1.8773 -3.48674 0
M  V30 6322 H 575.123 -0.780032 -4.5415 0
M  V30 6323 H 573.438 -0.548453 -4.12772 0
M  V30 6324 H 576.035 2.12108 -4.9083 0
M  V30 6325 H 576.378 2.58811 -3.26071 0
M  V30 6326 H 576.911 0.995359 -3.85146 0
M  V30 6327 H 573.65 -0.315153 -6.54742 0
M  V30 6328 H 573.17 1.25564 -5.8651 0
M  V30 6329 H 574.849 0.985433 -6.39451 0
M  V30 6330 N 574.981 1.5647 0.188427 0
M  V30 6331 C 576.258 1.71857 0.934058 0
M  V30 6332 C 576.638 0.641867 2.01105 0
M  V30 6333 O 575.986 -0.346098 2.25864 0
M  V30 6334 C 576.196 3.14431 1.5144 0
M  V30 6335 C 577.544 3.74869 1.99396 0
M  V30 6336 O 578.568 3.17601 1.61269 0
M  V30 6337 O 577.427 4.75387 2.69573 0
M  V30 6338 H 574.521 0.701186 0.438483 0
M  V30 6339 H 577.067 1.68768 0.177599 0
M  V30 6340 H 575.839 3.8427 0.738416 0
M  V30 6341 H 575.462 3.21775 2.33552 0
M  V30 6342 N 576.459 -0.456382 1.50847 0
M  V30 6343 C 577.875 -0.791345 1.386 0
M  V30 6344 C 578.075 -1.9633 0.453498 0
M  V30 6345 O 577.131 -2.52308 -0.0984353 0
M  V30 6346 C 578.444 -1.08959 2.80265 0
M  V30 6347 C 579.992 -1.19517 2.89283 0
M  V30 6348 C 580.467 -1.52647 4.31814 0
M  V30 6349 N 581.958 -1.59609 4.34832 0
M  V30 6350 C 582.693 -1.86777 5.42127 0
M  V30 6351 N 582.189 -2.11866 6.59609 0
M  V30 6352 N 583.982 -1.88402 5.29586 0
M  V30 6353 H 576.133 0.315746 2.1004 0
M  V30 6354 H 578.396 0.0787916 0.94472 0
M  V30 6355 H 578.102 -0.301355 3.50407 0
M  V30 6356 H 577.976 -2.02211 3.18419 0
M  V30 6357 H 580.363 -1.97406 2.19351 0
M  V30 6358 H 580.444 -0.242111 2.54652 0
M  V30 6359 H 580.088 -0.752922 5.02288 0
M  V30 6360 H 580.018 -2.49127 4.63943 0
M  V30 6361 H 582.509 -1.42201 3.50125 0
M  V30 6362 H 582.822 -2.31912 7.37182 0
M  V30 6363 H 581.167 -2.09228 6.62758 0
M  V30 6364 H 584.358 -1.68307 4.36795 0
M  V30 6365 H 584.531 -2.09238 6.13289 0
M  V30 6366 N 577.937 -1.40673 -0.710563 0
M  V30 6367 C 578.9 -1.4108 -1.80635 0
M  V30 6368 C 579.9 -0.303783 -1.57904 0
M  V30 6369 O 581.09 -0.562937 -1.64853 0
M  V30 6370 C 578.222 -1.20748 -3.18799 0
M  V30 6371 H 579.415 -2.38612 -1.81671 0
M  V30 6372 H 576.968 -1.26595 -0.916704 0
M  V30 6373 H 577.703 -0.239964 -3.23411 0
M  V30 6374 H 577.488 -2.00941 -3.36698 0
M  V30 6375 H 578.978 -1.23833 -3.98817 0
M  V30 6376 N 579.415 0.9433 -1.26252 0
M  V30 6377 C 580.362 2.0417 -1.07625 0
M  V30 6378 C 581.332 1.6609 0.0180738 0
M  V30 6379 O 582.517 1.90276 -0.141289 0
M  V30 6380 C 579.657 3.37653 -0.713043 0
M  V30 6381 C 578.77 3.88783 -1.8834 0
M  V30 6382 C 577.905 5.10642 -1.4635 0
M  V30 6383 C 576.944 5.54028 -2.60229 0
M  V30 6384 N 576.081 6.67092 -2.18936 0
M  V30 6385 H 580.921 2.19436 -2.01623 0
M  V30 6386 H 578.458 1.07519 -1.00389 0
M  V30 6387 H 580.416 4.14391 -0.483358 0
M  V30 6388 H 579.046 3.22241 0.18996 0
M  V30 6389 H 578.098 3.08464 -2.22608 0
M  V30 6390 H 579.41 4.16922 -2.73821 0
M  V30 6391 H 578.564 5.94832 -1.19414 0
M  V30 6392 H 577.303 4.84244 -0.579568 0
M  V30 6393 H 576.308 4.68396 -2.87898 0
M  V30 6394 H 577.533 5.82429 -3.49219 0
M  V30 6395 H 575.479 6.42381 -1.32974 0
M  V30 6396 H 575.396 6.94806 -2.97961 0
M  V30 6397 H 576.664 7.54662 -1.95206 0
M  V30 6398 N 580.893 1.08022 1.14757 0
M  V30 6399 C 581.823 0.728248 2.21853 0
M  V30 6400 C 582.804 -0.287486 1.67653 0
M  V30 6401 O 583.989 -0.158727 1.9355 0
M  V30 6402 C 581.119 0.132549 3.47047 0
M  V30 6403 C 580.073 1.07619 4.14249 0
M  V30 6404 C 579.399 0.342907 5.33599 0
M  V30 6405 C 580.699 2.41268 4.63235 0
M  V30 6406 H 582.393 1.62365 2.51551 0
M  V30 6407 H 579.939 0.782125 1.20908 0
M  V30 6408 H 581.892 -0.125665 4.21213 0
M  V30 6409 H 580.616 -0.797971 3.16702 0
M  V30 6410 H 579.275 1.31944 3.42033 0
M  V30 6411 H 578.923 -0.59129 4.99513 0
M  V30 6412 H 578.623 0.971955 5.79506 0
M  V30 6413 H 580.147 0.0926538 6.1053 0
M  V30 6414 H 581.561 2.21232 5.28894 0
M  V30 6415 H 579.958 2.9983 5.19829 0
M  V30 6416 H 581.028 3.03079 3.78512 0
M  V30 6417 N 582.371 -1.3172 0.865308 0
M  V30 6418 C 583.281 -2.32394 0.320935 0
M  V30 6419 C 584.297 -1.64511 -0.566746 0
M  V30 6420 O 585.473 -1.95969 -0.464575 0
M  V30 6421 C 582.538 -3.43462 -0.472701 0
M  V30 6422 C 581.599 -4.27015 0.442385 0
M  V30 6423 C 580.832 -5.32779 -0.313469 0
M  V30 6424 O 581.055 -5.49158 -1.54214 0
M  V30 6425 O 579.989 -6.01015 0.326257 0
M  V30 6426 H 583.815 -2.80868 1.15528 0
M  V30 6427 H 581.4 -1.35535 0.628545 0
M  V30 6428 H 583.282 -4.11172 -0.922781 0
M  V30 6429 H 581.957 -2.97159 -1.28367 0
M  V30 6430 H 580.864 -3.62075 0.940866 0
M  V30 6431 H 582.197 -4.76871 1.21882 0
M  V30 6432 N 583.85 -0.624285 -1.44708 0
M  V30 6433 C 585.096 -0.126051 -2.02107 0
M  V30 6434 C 585.425 1.2496 -1.49048 0
M  V30 6435 O 584.68 1.84163 -0.662005 0
M  V30 6436 C 584.979 -0.0546353 -3.57358 0
M  V30 6437 C 584.644 -1.36815 -4.29642 0
M  V30 6438 C 583.307 -1.72792 -4.49106 0
M  V30 6439 C 585.659 -2.23549 -4.70824 0
M  V30 6440 C 582.986 -2.95222 -5.07012 0
M  V30 6441 C 585.339 -3.45243 -5.30085 0
M  V30 6442 C 584.003 -3.81452 -5.47769 0
M  V30 6443 H 583.273 -0.0461252 -0.739563 0
M  V30 6444 H 585.92 -0.809236 -1.73562 0
M  V30 6445 H 584.225 0.711891 -3.85278 0
M  V30 6446 H 585.922 0.347282 -3.99493 0
M  V30 6447 H 582.512 -1.07817 -4.14817 0
M  V30 6448 H 586.696 -1.9705 -4.55505 0
M  V30 6449 H 581.952 -3.23361 -5.18891 0
M  V30 6450 H 586.125 -4.12689 -5.60946 0
M  V30 6451 H 583.753 -4.76403 -5.92405 0
M  V30 6452 N 585.328 1.53329 -0.364422 0
M  V30 6453 C 586.258 2.28627 0.474543 0
M  V30 6454 C 587.239 1.31009 1.08492 0
M  V30 6455 O 588.424 1.59878 1.10239 0
M  V30 6456 C 585.554 3.07465 1.61501 0
M  V30 6457 C 584.508 4.1276 1.13194 0
M  V30 6458 C 583.834 4.79674 2.36255 0
M  V30 6459 C 585.134 5.21847 0.217507 0
M  V30 6460 H 586.828 2.99005 -0.153656 0
M  V30 6461 H 584.374 1.43803 -0.0753406 0
M  V30 6462 H 586.327 3.58889 2.20855 0
M  V30 6463 H 585.051 2.34775 2.27042 0
M  V30 6464 H 583.71 3.62281 0.56109 0
M  V30 6465 H 583.358 4.03557 3.00251 0
M  V30 6466 H 583.058 5.50827 2.04606 0
M  V30 6467 H 584.582 5.33892 2.96297 0
M  V30 6468 H 585.996 5.6878 0.718493 0
M  V30 6469 H 584.393 6.00099 -0.00806408 0
M  V30 6470 H 585.463 4.7921 -0.740653 0
M  V30 6471 N 586.806 0.0935595 1.57322 0
M  V30 6472 C 588.046 -0.573901 1.96178 0
M  V30 6473 C 588.41 -1.65445 0.97426 0
M  V30 6474 O 589.611 -2.37901 1.25126 0
M  V30 6475 C 587.882 -1.11612 3.39526 0
M  V30 6476 S 589.441 -1.79566 4.00377 0
M  V30 6477 H 586.259 -0.187315 0.685882 0
M  V30 6478 H 588.861 0.172597 1.94737 0
M  V30 6479 H 587.565 -0.31815 4.09165 0
M  V30 6480 H 587.096 -1.89848 3.4456 0
M  V30 6481 H 589.111 -3.07978 3.89056 0
M  V30 6482 N 588.284 -1.56567 -0.180126 0
M  V30 6483 C 589.231 -1.95725 -1.22313 0
M  V30 6484 C 590.201 -0.819911 -1.44453 0
M  V30 6485 O 591.386 -1.07931 -1.57339 0
M  V30 6486 C 588.526 -2.31484 -2.55947 0
M  V30 6487 C 587.639 -3.58354 -2.4126 0
M  V30 6488 C 586.774 -3.83366 -3.67701 0
M  V30 6489 C 585.813 -5.03612 -3.47909 0
M  V30 6490 N 584.95 -5.24802 -4.66398 0
M  V30 6491 H 589.79 -2.84642 -0.882198 0
M  V30 6492 H 587.327 -1.4085 -0.42422 0
M  V30 6493 H 589.285 -2.50237 -3.33822 0
M  V30 6494 H 587.915 -1.45689 -2.88053 0
M  V30 6495 H 586.967 -3.47565 -1.54606 0
M  V30 6496 H 588.279 -4.46386 -2.22577 0
M  V30 6497 H 587.433 -4.02439 -4.54013 0
M  V30 6498 H 586.172 -2.93692 -3.89353 0
M  V30 6499 H 585.177 -4.84447 -2.59983 0
M  V30 6500 H 586.402 -5.94809 -3.27688 0
M  V30 6501 H 584.348 -4.38079 -4.88286 0
M  V30 6502 H 584.265 -6.07041 -4.50596 0
M  V30 6503 H 585.533 -5.48346 -5.54019 0
M  V30 6504 N 589.762 0.448376 -1.51087 0
M  V30 6505 C 590.672 1.56882 -1.74428 0
M  V30 6506 C 591.688 1.62268 -0.62809 0
M  V30 6507 O 592.864 1.79716 -0.909075 0
M  V30 6508 C 589.929 2.92947 -1.85426 0
M  V30 6509 C 588.99 2.97766 -3.09247 0
M  V30 6510 C 588.223 4.27341 -3.19711 0
M  V30 6511 O 588.446 5.19112 -2.36387 0
M  V30 6512 O 587.38 4.38219 -4.12611 0
M  V30 6513 H 591.206 1.40104 -2.69452 0
M  V30 6514 H 588.791 0.630247 -1.35456 0
M  V30 6515 H 590.673 3.73719 -1.94709 0
M  V30 6516 H 589.348 3.09876 -0.935887 0
M  V30 6517 H 588.255 2.15989 -3.0545 0
M  V30 6518 H 589.588 2.8578 -4.00738 0
M  V30 6519 N 591.24 1.41047 0.703093 0
M  V30 6520 C 592.517 1.30493 1.45708 0
M  V30 6521 C 592.897 -0.0709892 2.10981 0
M  V30 6522 O 592.245 -1.08471 2.01113 0
M  V30 6523 C 592.455 2.45287 2.48265 0
M  V30 6524 C 593.803 2.86104 3.13735 0
M  V30 6525 O 594.827 2.44971 2.58587 0
M  V30 6526 O 593.686 3.57206 4.13601 0
M  V30 6527 H 590.78 0.513144 0.648546 0
M  V30 6528 H 593.326 1.52995 0.734208 0
M  V30 6529 H 592.098 3.37135 1.98635 0
M  V30 6530 H 591.721 2.24622 3.28071 0
M  V30 6531 N 592.718 -0.936591 1.26751 0
M  V30 6532 C 593.665 -2.03597 1.08706 0
M  V30 6533 C 594.635 -1.66097 -0.00926542 0
M  V30 6534 O 595.82 -1.90199 0.151377 0
M  V30 6535 C 592.96 -3.3727 0.73094 0
M  V30 6536 C 592.073 -3.87778 1.90399 0
M  V30 6537 C 591.208 -5.09859 1.49056 0
M  V30 6538 C 590.247 -5.5264 2.63164 0
M  V30 6539 N 589.384 -6.65921 2.22471 0
M  V30 6540 H 594.224 -2.18364 2.02784 0
M  V30 6541 H 591.761 -1.06985 1.00958 0
M  V30 6542 H 593.719 -4.14128 0.505328 0
M  V30 6543 H 592.349 -3.22337 -0.172868 0
M  V30 6544 H 591.401 -3.07279 2.2424 0
M  V30 6545 H 592.713 -4.15464 2.76028 0
M  V30 6546 H 591.867 -5.9419 1.22567 0
M  V30 6547 H 590.606 -4.8393 0.60524 0
M  V30 6548 H 589.611 -4.66863 2.90377 0
M  V30 6549 H 590.836 -5.80568 3.52303 0
M  V30 6550 H 588.782 -6.41667 1.36379 0
M  V30 6551 H 588.699 -6.93216 3.01641 0
M  V30 6552 H 589.967 -7.53616 1.99205 0
M  V30 6553 N 594.196 -1.08629 -1.14182 0
M  V30 6554 C 595.443 -0.817345 -1.85272 0
M  V30 6555 C 595.771 0.656917 -1.83071 0
M  V30 6556 O 595.026 1.49897 -1.25815 0
M  V30 6557 C 595.325 -1.28734 -3.3341 0
M  V30 6558 C 594.991 -2.76981 -3.55798 0
M  V30 6559 C 593.653 -3.17469 -3.61617 0
M  V30 6560 C 596.005 -3.72605 -3.64438 0
M  V30 6561 C 593.333 -4.52371 -3.736 0
M  V30 6562 C 595.685 -5.07286 -3.77947 0
M  V30 6563 C 594.349 -5.47376 -3.82016 0
M  V30 6564 H 593.619 -0.299088 -0.677958 0
M  V30 6565 H 596.266 -1.35962 -1.34857 0
M  V30 6566 H 594.571 -0.664702 -3.8612 0
M  V30 6567 H 596.268 -1.05598 -3.86846 0
M  V30 6568 H 592.858 -2.44644 -3.51919 0
M  V30 6569 H 597.042 -3.42443 -3.5923 0
M  V30 6570 H 592.298 -4.82882 -3.75013 0
M  V30 6571 H 596.472 -5.81243 -3.83575 0
M  V30 6572 H 594.099 -6.51906 -3.91054 0
M  V30 6573 N 595.674 1.31259 -0.872281 0
M  V30 6574 C 596.604 2.30929 -0.345554 0
M  V30 6575 C 597.585 1.60449 0.5648 0
M  V30 6576 O 598.77 1.8814 0.481335 0
M  V30 6577 C 595.9 3.44348 0.451823 0
M  V30 6578 C 594.854 4.26435 -0.365641 0
M  V30 6579 C 594.18 5.31785 0.557562 0
M  V30 6580 C 595.48 4.97159 -1.60095 0
M  V30 6581 H 597.174 2.75234 -1.17841 0
M  V30 6582 H 594.72 1.3232 -0.568094 0
M  V30 6583 H 596.673 4.13128 0.830854 0
M  V30 6584 H 595.397 2.98816 1.31821 0
M  V30 6585 H 594.056 3.59326 -0.726649 0
M  V30 6586 H 593.704 4.82502 1.4213 0
M  V30 6587 H 593.404 5.87598 0.0144878 0
M  V30 6588 H 594.928 6.03424 0.933387 0
M  V30 6589 H 596.342 5.58523 -1.29323 0
M  V30 6590 H 594.739 5.62779 -2.08327 0
M  V30 6591 H 595.809 4.24012 -2.35249 0
M  V30 6592 N 597.152 0.631951 1.44375 0
M  V30 6593 C 598.398 0.13697 2.02337 0
M  V30 6594 C 598.731 -1.23826 1.49602 0
M  V30 6595 O 598.006 -1.8221 0.680415 0
M  V30 6596 C 598.289 0.124536 3.59885 0
M  V30 6597 C 598.142 1.53217 4.229 0
M  V30 6598 C 599.461 -0.550481 4.36644 0
M  V30 6599 H 596.58 0.051247 0.735216 0
M  V30 6600 H 599.222 0.808581 1.71936 0
M  V30 6601 H 597.372 -0.44737 3.85916 0
M  V30 6602 H 599.044 2.15303 4.07973 0
M  V30 6603 H 597.287 2.0858 3.80364 0
M  V30 6604 H 597.958 1.4755 5.31914 0
M  V30 6605 H 600.434 -0.0641154 4.16051 0
M  V30 6606 H 599.31 -0.528371 5.46351 0
M  V30 6607 H 599.571 -1.62097 4.11311 0
M  V30 6608 N 598.631 -1.53133 0.372548 0
M  V30 6609 C 599.861 -2.05476 -0.215202 0
M  V30 6610 C 600.269 -1.24534 -1.42436 0
M  V30 6611 O 599.612 -0.280771 -1.81542 0
M  V30 6612 C 599.674 -3.53276 -0.666068 0
M  V30 6613 C 599.338 -4.54998 0.427342 0
M  V30 6614 C 600.335 -5.03911 1.27944 0
M  V30 6615 C 598.02 -4.98828 0.589579 0
M  V30 6616 C 600.014 -5.95263 2.27905 0
M  V30 6617 C 597.701 -5.89984 1.59255 0
M  V30 6618 C 598.699 -6.38093 2.43571 0
M  V30 6619 O 598.387 -7.27451 3.42156 0
M  V30 6620 H 598.119 -0.67481 -0.040099 0
M  V30 6621 H 600.673 -1.98409 0.531312 0
M  V30 6622 H 598.903 -3.57904 -1.4643 0
M  V30 6623 H 600.592 -3.88442 -1.1776 0
M  V30 6624 H 601.358 -4.70792 1.16532 0
M  V30 6625 H 597.237 -4.60965 -0.0569456 0
M  V30 6626 H 600.781 -6.32736 2.93753 0
M  V30 6627 H 596.678 -6.22518 1.70711 0
M  V30 6628 H 597.446 -7.45467 3.37967 0
M  V30 6629 N 600.109 -0.101901 -1.5727 0
M  V30 6630 C 601.525 0.254739 -1.57554 0
M  V30 6631 C 601.725 1.67937 -1.11352 0
M  V30 6632 O 600.781 2.39722 -0.793081 0
M  V30 6633 C 602.094 0.036975 -3.00677 0
M  V30 6634 C 603.642 0.104199 -3.12827 0
M  V30 6635 C 604.117 -0.0856565 -4.5792 0
M  V30 6636 N 605.608 -0.0310498 -4.6319 0
M  V30 6637 C 606.343 -0.153099 -5.73196 0
M  V30 6638 N 605.839 -0.330364 -6.92012 0
M  V30 6639 N 607.632 -0.0938854 -5.62022 0
M  V30 6640 H 599.783 -1.03263 -1.85609 0
M  V30 6641 H 602.046 -0.405251 -0.857016 0
M  V30 6642 H 601.752 -0.947254 -3.38703 0
M  V30 6643 H 601.626 0.776335 -3.69124 0
M  V30 6644 H 604.013 1.07894 -2.74669 0
M  V30 6645 H 604.094 -0.666762 -2.46957 0
M  V30 6646 H 603.738 -1.05729 -4.96773 0
M  V30 6647 H 603.668 0.705082 -5.21858 0
M  V30 6648 H 606.159 0.103141 -3.77759 0
M  V30 6649 H 606.472 -0.41482 -7.71686 0
M  V30 6650 H 604.817 -0.366119 -6.94035 0
M  V30 6651 H 608.008 0.0435168 -4.6808 0
M  V30 6652 H 608.181 -0.19245 -6.47714 0
M  V30 6653 N 601.587 1.56661 0.17182 0
M  V30 6654 C 602.517 1.99401 1.21498 0
M  V30 6655 C 603.498 0.869516 1.46197 0
M  V30 6656 O 604.683 1.13556 1.57539 0
M  V30 6657 C 601.813 2.35346 2.55401 0
M  V30 6658 C 600.767 3.5075 2.45272 0
M  V30 6659 C 600.093 3.72437 3.8366 0
M  V30 6660 C 601.393 4.84216 1.95787 0
M  V30 6661 H 603.087 2.86792 0.859699 0
M  V30 6662 H 600.633 1.37977 0.412103 0
M  V30 6663 H 602.586 2.63843 3.2858 0
M  V30 6664 H 601.31 1.44864 2.92715 0
M  V30 6665 H 599.969 3.2238 1.74547 0
M  V30 6666 H 599.617 2.79246 4.18367 0
M  V30 6667 H 599.317 4.50087 3.77751 0
M  V30 6668 H 600.841 4.03334 4.58426 0
M  V30 6669 H 602.255 5.11592 2.5874 0
M  V30 6670 H 600.652 5.65498 2.00827 0
M  V30 6671 H 601.722 4.76243 0.912159 0
M  V30 6672 N 603.065 -0.440357 1.51323 0
M  V30 6673 C 604.295 -1.21079 1.67402 0
M  V30 6674 C 604.703 -1.85555 0.369599 0
M  V30 6675 O 604.046 -1.71375 -0.661525 0
M  V30 6676 C 604.108 -2.33839 2.73056 0
M  V30 6677 C 603.772 -1.89755 4.15743 0
M  V30 6678 C 604.769 -1.40268 5.0062 0
M  V30 6679 C 602.454 -1.97539 4.61826 0
M  V30 6680 C 604.448 -0.991474 6.29642 0
M  V30 6681 C 602.135 -1.56029 5.90845 0
M  V30 6682 C 603.133 -1.06915 6.7458 0
M  V30 6683 O 602.821 -0.659933 8.01187 0
M  V30 6684 H 602.553 -0.371133 0.56501 0
M  V30 6685 H 605.107 -0.528409 1.98487 0
M  V30 6686 H 603.337 -3.05345 2.37279 0
M  V30 6687 H 605.026 -2.95713 2.78044 0
M  V30 6688 H 605.792 -1.33652 4.66221 0
M  V30 6689 H 601.671 -2.34713 3.96776 0
M  V30 6690 H 605.215 -0.607425 6.9495 0
M  V30 6691 H 601.112 -1.62315 6.24759 0
M  V30 6692 H 601.88 -0.786052 8.14717 0
M  V30 6693 N 604.543 -1.41418 -0.695603 0
M  V30 6694 C 605.82 -1.31264 -1.45014 0
M  V30 6695 C 606.2 0.0597994 -2.11015 0
M  V30 6696 O 605.548 1.07403 -2.01685 0
M  V30 6697 C 605.758 -2.466 -2.4696 0
M  V30 6698 C 607.106 -2.87763 -3.12214 0
M  V30 6699 O 608.13 -2.46339 -2.57285 0
M  V30 6700 O 606.989 -3.59395 -4.11701 0
M  V30 6701 H 604.083 -0.516576 -0.645816 0
M  V30 6702 H 606.629 -1.53382 -0.726084 0
M  V30 6703 H 605.401 -3.38183 -1.96845 0
M  V30 6704 H 605.024 -2.26358 -3.26876 0
M  V30 6705 N 606.021 0.929856 -1.27246 0
M  V30 6706 C 607.298 1.65544 -1.04186 0
M  V30 6707 C 607.678 2.06796 0.424097 0
M  V30 6708 O 607.026 1.80053 1.40688 0
M  V30 6709 C 607.236 2.85912 -2.00138 0
M  V30 6710 C 608.584 3.57305 -2.29387 0
M  V30 6711 O 609.608 2.96036 -1.98094 0
M  V30 6712 O 608.467 4.67688 -2.82719 0
M  V30 6713 H 605.561 0.725473 -0.397011 0
M  V30 6714 H 608.107 0.980583 -1.38501 0
M  V30 6715 H 606.879 2.52403 -2.99013 0
M  V30 6716 H 606.502 3.61118 -1.66371 0
M  V30 6717 N 607.499 1.09233 1.13605 0
M  V30 6718 C 608.431 0.687794 2.18637 0
M  V30 6719 C 609.444 -0.26936 1.60556 0
M  V30 6720 O 610.633 -0.0557162 1.78413 0
M  V30 6721 C 607.733 -0.00751901 3.38899 0
M  V30 6722 C 606.906 0.97067 4.26494 0
M  V30 6723 C 605.965 0.309129 5.25291 0
M  V30 6724 O 604.991 0.956149 5.61112 0
M  V30 6725 N 606.193 -0.937555 5.72879 0
M  V30 6726 H 608.958 1.59141 2.53957 0
M  V30 6727 H 606.519 0.979515 1.28907 0
M  V30 6728 H 608.511 -0.461238 4.02063 0
M  V30 6729 H 607.081 -0.813353 3.01833 0
M  V30 6730 H 606.301 1.603 3.60135 0
M  V30 6731 H 607.589 1.63323 4.81875 0
M  V30 6732 H 606.987 -1.48281 5.4592 0
M  V30 6733 H 605.544 -1.33463 6.3799 0
M  V30 6734 N 608.977 -1.30795 0.87923 0
M  V30 6735 C 609.927 -2.25838 0.313276 0
M  V30 6736 C 610.911 -1.51025 -0.55499 0
M  V30 6737 O 612.103 -1.72413 -0.400353 0
M  V30 6738 C 609.232 -3.39981 -0.476204 0
M  V30 6739 C 608.318 -4.22154 0.405826 0
M  V30 6740 N 608.709 -4.82934 1.50362 0
M  V30 6741 C 607.007 -4.45552 0.199909 0
M  V30 6742 C 607.708 -5.44444 2.0483 0
M  V30 6743 N 606.684 -5.26723 1.34403 0
M  V30 6744 H 610.486 -2.70374 1.15218 0
M  V30 6745 H 608 -1.45168 0.728003 0
M  V30 6746 H 609.997 -4.07108 -0.898251 0
M  V30 6747 H 608.657 -2.96986 -1.31261 0
M  V30 6748 H 609.668 -4.82319 1.8865 0
M  V30 6749 H 606.345 -4.13169 -0.599795 0
M  V30 6750 H 607.735 -6.02701 2.96986 0
M  V30 6751 N 610.455 -0.639598 -1.44038 0
M  V30 6752 C 611.68 -0.153117 -2.06834 0
M  V30 6753 C 612.105 1.16676 -1.47541 0
M  V30 6754 O 611.463 1.71769 -0.580093 0
M  V30 6755 C 611.511 -0.0609169 -3.60549 0
M  V30 6756 O 610.615 0.98071 -4.00569 0
M  V30 6757 H 609.956 -0.0886402 -0.658057 0
M  V30 6758 H 612.486 -0.878674 -1.84771 0
M  V30 6759 H 612.496 0.126892 -4.07803 0
M  V30 6760 H 611.171 -1.0245 -4.03084 0
M  V30 6761 H 609.748 0.766789 -3.64931 0
M  V30 6762 N 611.933 1.52934 -0.380664 0
M  V30 6763 C 612.863 2.29118 0.450268 0
M  V30 6764 C 613.844 1.32153 1.07096 0
M  V30 6765 O 615.029 1.61038 1.08537 0
M  V30 6766 C 612.159 3.09161 1.58231 0
M  V30 6767 C 611.113 4.13938 1.0881 0
M  V30 6768 C 610.439 4.82153 2.31155 0
M  V30 6769 C 611.739 5.22048 0.162146 0
M  V30 6770 H 613.433 2.98826 -0.185361 0
M  V30 6771 H 610.979 1.43715 -0.0905886 0
M  V30 6772 H 612.932 3.61211 2.17036 0
M  V30 6773 H 611.656 2.3717 2.2454 0
M  V30 6774 H 610.315 3.62855 0.522633 0
M  V30 6775 H 609.963 4.06719 2.95953 0
M  V30 6776 H 609.663 5.52966 1.98752 0
M  V30 6777 H 611.187 5.37004 2.90618 0
M  V30 6778 H 612.601 5.6951 0.658126 0
M  V30 6779 H 610.998 6.00057 -0.0717122 0
M  V30 6780 H 612.068 4.78398 -0.791438 0
M  V30 6781 N 613.412 0.11024 1.57214 0
M  V30 6782 C 614.359 -0.843195 2.14846 0
M  V30 6783 C 615.329 -1.26954 1.07107 0
M  V30 6784 O 616.514 -1.34861 1.34971 0
M  V30 6785 C 613.654 -2.09123 2.74521 0
M  V30 6786 C 612.767 -1.71404 3.96541 0
M  V30 6787 C 611.902 -2.91107 4.44331 0
M  V30 6788 C 610.941 -2.49586 5.58903 0
M  V30 6789 N 610.078 -3.62175 6.01477 0
M  V30 6790 H 614.918 -0.344886 2.95998 0
M  V30 6791 H 612.455 -0.15855 1.46243 0
M  V30 6792 H 614.413 -2.82234 3.07246 0
M  V30 6793 H 613.043 -2.56427 1.96074 0
M  V30 6794 H 612.095 -0.88201 3.70033 0
M  V30 6795 H 613.407 -1.36884 4.7965 0
M  V30 6796 H 612.561 -3.72454 4.78919 0
M  V30 6797 H 611.3 -3.28848 3.60153 0
M  V30 6798 H 610.305 -1.6667 5.23929 0
M  V30 6799 H 611.53 -2.12973 6.4484 0
M  V30 6800 H 609.476 -3.99605 5.20242 0
M  V30 6801 H 609.393 -3.3155 6.79419 0
M  V30 6802 H 610.661 -4.43987 6.407 0
M  V30 6803 N 614.89 -1.56749 -0.16351 0
M  V30 6804 C 616.136 -1.82704 -0.880168 0
M  V30 6805 C 616.469 -0.689311 -1.81555 0
M  V30 6806 O 615.744 0.308224 -1.92042 0
M  V30 6807 C 616.027 -3.19084 -1.66905 0
M  V30 6808 C 615.88 -4.43397 -0.756269 0
M  V30 6809 C 617.199 -3.52493 -2.63509 0
M  V30 6810 H 614.318 -0.664608 -0.318535 0
M  V30 6811 H 616.96 -1.89438 -0.146036 0
M  V30 6812 H 615.11 -3.13475 -2.2949 0
M  V30 6813 H 616.782 -4.61079 -0.14269 0
M  V30 6814 H 615.025 -4.33752 -0.0647944 0
M  V30 6815 H 615.696 -5.3539 -1.34393 0
M  V30 6816 H 618.172 -3.58606 -2.11047 0
M  V30 6817 H 617.048 -4.48979 -3.15767 0
M  V30 6818 H 617.309 -2.77597 -3.44082 0
M  V30 6819 N 616.368 0.432326 -1.51554 0
M  V30 6820 C 617.615 1.18134 -1.64471 0
M  V30 6821 C 617.943 1.91076 -0.363349 0
M  V30 6822 O 617.198 1.84492 0.65279 0
M  V30 6823 C 617.497 2.21907 -2.80164 0
M  V30 6824 C 617.163 1.65941 -4.19255 0
M  V30 6825 C 615.825 1.50401 -4.57092 0
M  V30 6826 C 618.177 1.24843 -5.06027 0
M  V30 6827 C 615.505 0.922443 -5.79403 0
M  V30 6828 C 617.857 0.68113 -6.28922 0
M  V30 6829 C 616.521 0.512673 -6.65528 0
M  V30 6830 H 615.791 0.432283 -0.601841 0
M  V30 6831 H 618.438 0.471701 -1.856 0
M  V30 6832 H 616.743 2.98928 -2.53277 0
M  V30 6833 H 618.44 2.79691 -2.87357 0
M  V30 6834 H 615.03 1.79014 -3.89425 0
M  V30 6835 H 619.214 1.35667 -4.77397 0
M  V30 6836 H 614.47 0.779733 -6.06408 0
M  V30 6837 H 618.644 0.35418 -6.95499 0
M  V30 6838 H 616.271 0.0599084 -7.60176 0
M  V30 6839 N 617.846 1.41785 0.688094 0
M  V30 6840 C 618.796 1.40684 1.79421 0
M  V30 6841 C 619.78 0.280096 1.58443 0
M  V30 6842 O 620.972 0.521332 1.69148 0
M  V30 6843 C 618.101 1.29874 3.17785 0
M  V30 6844 C 617.187 2.47442 3.44432 0
M  V30 6845 N 617.578 3.72895 3.41736 0
M  V30 6846 C 615.876 2.41416 3.75013 0
M  V30 6847 C 616.577 4.50912 3.67496 0
M  V30 6848 N 615.553 3.81131 3.87608 0
M  V30 6849 H 619.355 2.35591 1.7571 0
M  V30 6850 H 616.869 1.35946 0.888393 0
M  V30 6851 H 618.866 1.27168 3.97031 0
M  V30 6852 H 617.526 0.359587 3.22703 0
M  V30 6853 H 618.537 4.05676 3.21943 0
M  V30 6854 H 615.214 1.56011 3.87256 0
M  V30 6855 H 616.604 5.59865 3.71484 0
M  V30 6856 N 619.324 -0.923095 1.27737 0
M  V30 6857 C 620.272 -2.04567 1.10703 0
M  V30 6858 C 621.266 -1.69375 0.0288445 0
M  V30 6859 O 622.472 -1.79027 0.186913 0
M  V30 6860 H 618.847 -0.670109 0.34126 0
M  V30 6861 H 620.818 -2.1608 2.05796 0
M  V30 6862 C 619.567 -3.38934 0.775837 0
M  V30 6863 H 618.89 -3.66501 1.59741 0
M  V30 6864 H 620.33 -4.18239 0.696548 0
M  V30 6865 C 618.789 -3.32863 -0.520012 0
M  V30 6866 O 619.319 -3.70462 -1.55308 0
M  V30 6867 N 617.525 -2.85958 -0.51732 0
M  V30 6868 H 617.072 -2.55557 0.32379 0
M  V30 6869 H 617.03 -2.82279 -1.38441 0
M  V30 6870 N 620.802 -1.09834 -1.13024 0
M  V30 6871 C 621.732 -0.763451 -2.20666 0
M  V30 6872 C 622.713 0.260778 -1.68089 0
M  V30 6873 O 623.898 0.127915 -1.93778 0
M  V30 6874 C 621.028 -0.187744 -3.46792 0
M  V30 6875 C 619.982 -1.14196 -4.12484 0
M  V30 6876 C 619.308 -0.427755 -5.32986 0
M  V30 6877 C 620.608 -2.48607 -4.59338 0
M  V30 6878 H 622.302 -1.66347 -2.48936 0
M  V30 6879 H 619.848 -0.801261 -1.19649 0
M  V30 6880 H 621.801 0.0586375 -4.21359 0
M  V30 6881 H 620.525 0.747485 -3.17931 0
M  V30 6882 H 619.184 -1.37369 -3.3989 0
M  V30 6883 H 618.832 0.511747 -5.0039 0
M  V30 6884 H 618.532 -1.06403 -5.77886 0
M  V30 6885 H 620.056 -0.189772 -6.10305 0
M  V30 6886 H 621.47 -2.29618 -5.25308 0
M  V30 6887 H 619.867 -3.08062 -5.14993 0
M  V30 6888 H 620.937 -3.09062 -3.73642 0
M  V30 6889 N 622.28 1.30327 -0.886154 0
M  V30 6890 C 623.505 2.0079 -0.519425 0
M  V30 6891 C 623.93 1.65979 0.885013 0
M  V30 6892 O 623.288 0.877043 1.58675 0
M  V30 6893 C 623.336 3.53686 -0.702758 0
M  V30 6894 O 622.44 4.11637 0.250828 0
M  V30 6895 H 621.781 0.63171 -0.204544 0
M  V30 6896 H 624.311 1.66145 -1.19402 0
M  V30 6897 H 624.321 4.03531 -0.602207 0
M  V30 6898 H 622.996 3.78361 -1.72673 0
M  V30 6899 H 621.573 3.72755 0.103873 0
M  V30 6900 N 623.758 0.647228 1.43697 0
M  V30 6901 C 625.006 0.157876 2.01482 0
M  V30 6902 C 625.327 -1.23039 1.51282 0
M  V30 6903 O 624.597 -1.82071 0.722982 0
M  V30 6904 H 623.177 0.0553745 0.744945 0
M  V30 6905 H 625.839 0.83755 1.75986 0
M  V30 6906 H 624.935 0.137895 3.11795 0
M  V30 6907 N 625.236 -1.5273 0.388769 0
M  V30 6908 C 626.146 -2.30165 -0.453993 0
M  V30 6909 C 627.162 -1.37058 -1.07197 0
M  V30 6910 O 628.338 -1.70127 -1.0779 0
M  V30 6911 C 625.403 -3.09303 -1.56628 0
M  V30 6912 C 624.464 -4.18117 -0.973467 0
M  V30 6913 C 623.697 -4.93472 -2.03275 0
M  V30 6914 O 623.92 -4.68913 -3.24772 0
M  V30 6915 O 622.854 -5.78833 -1.65034 0
M  V30 6916 H 626.68 -3.03185 0.176816 0
M  V30 6917 H 624.265 -1.4862 0.152501 0
M  V30 6918 H 626.147 -3.58648 -2.21246 0
M  V30 6919 H 624.822 -2.39098 -2.18206 0
M  V30 6920 H 623.729 -3.7297 -0.290556 0
M  V30 6921 H 625.062 -4.90556 -0.401908 0
M  V30 6922 N 626.714 -0.118576 -1.57153 0
M  V30 6923 C 627.624 0.845484 -2.18835 0
M  V30 6924 C 628.64 1.29299 -1.16438 0
M  V30 6925 O 629.816 1.35607 -1.48905 0
M  V30 6926 C 626.881 2.07795 -2.77529 0
M  V30 6927 C 625.942 1.6824 -3.9496 0
M  V30 6928 C 625.175 2.85612 -4.50845 0
M  V30 6929 O 625.398 4.01025 -4.05629 0
M  V30 6930 O 624.332 2.62721 -5.41536 0
M  V30 6931 H 628.158 0.350568 -3.0167 0
M  V30 6932 H 625.743 0.107013 -1.49016 0
M  V30 6933 H 627.625 2.79978 -3.14945 0
M  V30 6934 H 626.3 2.56294 -1.97725 0
M  V30 6935 H 625.207 0.931663 -3.62313 0
M  V30 6936 H 626.54 1.24484 -4.76198 0
M  V30 6937 N 628.193 1.56834 0.155195 0
M  V30 6938 C 629.439 1.83169 0.870467 0
M  V30 6939 C 629.772 0.698929 1.81187 0
M  V30 6940 O 629.047 -0.298035 1.92203 0
M  V30 6941 C 629.33 3.19965 1.65211 0
M  V30 6942 C 629.183 4.43792 0.732744 0
M  V30 6943 C 630.502 3.53885 2.61636 0
M  V30 6944 H 627.621 0.666288 0.315006 0
M  V30 6945 H 630.263 1.89513 0.135988 0
M  V30 6946 H 628.413 3.14687 2.27825 0
M  V30 6947 H 630.085 4.61148 0.118236 0
M  V30 6948 H 628.328 4.3378 0.0417906 0
M  V30 6949 H 628.999 5.36095 1.31552 0
M  V30 6950 H 631.475 3.5972 2.09143 0
M  V30 6951 H 630.351 4.50648 3.13381 0
M  V30 6952 H 630.612 2.79418 3.42605 0
M  V30 6953 N 629.671 -0.424282 1.51781 0
M  V30 6954 C 630.917 -1.17434 1.6534 0
M  V30 6955 C 631.25 -1.90549 0.374806 0
M  V30 6956 O 630.525 -1.84145 -0.626179 0
M  V30 6957 C 630.808 -2.18093 2.86544 0
M  V30 6958 C 630.661 -1.48975 4.24413 0
M  V30 6959 C 631.98 -3.18934 3.03264 0
M  V30 6960 H 629.099 -0.425566 0.601716 0
M  V30 6961 H 631.741 -0.461921 1.84299 0
M  V30 6962 H 629.891 -2.78849 2.7051 0
M  V30 6963 H 631.563 -0.914551 4.52143 0
M  V30 6964 H 629.806 -0.791893 4.26511 0
M  V30 6965 H 630.477 -2.22347 5.05238 0
M  V30 6966 H 632.953 -2.68243 3.18096 0
M  V30 6967 H 631.829 -3.86645 3.89611 0
M  V30 6968 H 632.09 -3.85793 2.15908 0
M  V30 6969 N 631.149 -1.42148 -0.680565 0
M  V30 6970 C 632.396 -1.4231 -1.44063 0
M  V30 6971 C 632.724 -0.037488 -1.94464 0
M  V30 6972 O 631.979 0.953184 -1.70918 0
M  V30 6973 C 632.278 -2.38945 -2.65782 0
M  V30 6974 C 631.944 -3.85455 -2.33956 0
M  V30 6975 C 630.606 -4.25364 -2.24987 0
M  V30 6976 C 632.958 -4.77895 -2.08004 0
M  V30 6977 C 630.286 -5.55701 -1.88184 0
M  V30 6978 C 632.638 -6.08568 -1.72706 0
M  V30 6979 C 631.302 -6.47482 -1.62244 0
M  V30 6980 H 630.572 -0.520748 -0.527164 0
M  V30 6981 H 633.219 -1.7505 -0.776524 0
M  V30 6982 H 631.524 -1.99511 -3.37198 0
M  V30 6983 H 633.221 -2.36336 -3.23954 0
M  V30 6984 H 629.811 -3.53855 -2.41836 0
M  V30 6985 H 633.995 -4.47854 -2.1387 0
M  V30 6986 H 629.251 -5.84718 -1.78648 0
M  V30 6987 H 633.425 -6.79688 -1.5165 0
M  V30 6988 H 631.052 -7.48387 -1.33496 0
M  V30 6989 N 632.627 0.916307 -1.28225 0
M  V30 6990 C 633.537 2.05165 -1.13775 0
M  V30 6991 C 634.553 1.73879 -0.0649418 0
M  V30 6992 O 635.729 1.99531 -0.273722 0
M  V30 6993 C 632.794 3.37385 -0.798267 0
M  V30 6994 C 631.855 3.82296 -1.95316 0
M  V30 6995 C 631.088 5.08206 -1.62978 0
M  V30 6996 O 631.311 5.6781 -0.542948 0
M  V30 6997 O 630.245 5.48768 -2.47261 0
M  V30 6998 H 634.071 2.20273 -2.09078 0
M  V30 6999 H 631.656 1.0373 -1.07519 0
M  V30 7000 H 633.538 4.16773 -0.62278 0
M  V30 7001 H 632.213 3.23458 0.125139 0
M  V30 7002 H 631.12 3.03746 -2.18378 0
M  V30 7003 H 632.453 4.00782 -2.85718 0
M  V30 7004 N 634.105 1.10431 1.1244 0
M  V30 7005 C 635.353 0.845045 1.83585 0
M  V30 7006 C 635.674 -0.631168 1.84503 0
M  V30 7007 O 634.944 -1.45825 1.30813 0
M  V30 7008 H 633.524 0.309628 0.679809 0
M  V30 7009 H 636.186 1.39458 1.36153 0
M  V30 7010 H 635.282 1.20786 2.8778 0
M  V30 7011 N 635.583 -1.29855 0.893053 0
M  V30 7012 C 636.829 -1.96116 0.516349 0
M  V30 7013 C 637.162 -1.70281 -0.933695 0
M  V30 7014 O 636.437 -1.01205 -1.66096 0
M  V30 7015 C 636.72 -3.51068 0.801455 0
M  V30 7016 C 636.573 -3.86387 2.30272 0
M  V30 7017 C 637.892 -4.39186 0.283423 0
M  V30 7018 H 635.011 -0.712335 0.189072 0
M  V30 7019 H 637.653 -1.53587 1.11852 0
M  V30 7020 H 635.803 -3.87424 0.288949 0
M  V30 7021 H 637.475 -3.60012 2.88425 0
M  V30 7022 H 635.718 -3.34167 2.76613 0
M  V30 7023 H 636.389 -4.94512 2.45279 0
M  V30 7024 H 638.865 -4.09785 0.722187 0
M  V30 7025 H 637.741 -5.46505 0.512169 0
M  V30 7026 H 638.002 -4.34511 -0.815643 0
M  V30 7027 N 637.061 -0.65484 -1.43351 0
M  V30 7028 C 638.008 0.0357713 -2.30772 0
M  V30 7029 C 638.978 0.813035 -1.44841 0
M  V30 7030 O 640.163 0.789314 -1.73708 0
M  V30 7031 C 637.303 0.995084 -3.30442 0
M  V30 7032 C 636.416 0.21375 -4.31471 0
M  V30 7033 C 635.551 1.16701 -5.18222 0
M  V30 7034 C 634.59 0.376201 -6.10943 0
M  V30 7035 N 633.727 1.28113 -6.90313 0
M  V30 7036 H 638.567 -0.71559 -2.89281 0
M  V30 7037 H 636.104 -0.364645 -1.42509 0
M  V30 7038 H 638.062 1.5649 -3.86739 0
M  V30 7039 H 636.692 1.7133 -2.7358 0
M  V30 7040 H 635.744 -0.472377 -3.77456 0
M  V30 7041 H 637.056 -0.401103 -4.97185 0
M  V30 7042 H 636.21 1.8074 -5.79153 0
M  V30 7043 H 634.949 1.81577 -4.52638 0
M  V30 7044 H 633.954 -0.277534 -5.49099 0
M  V30 7045 H 635.179 -0.268178 -6.7857 0
M  V30 7046 H 633.125 1.91666 -6.27376 0
M  V30 7047 H 633.042 0.720879 -7.52555 0
M  V30 7048 H 634.31 1.90962 -7.55747 0
M  V30 7049 N 638.539 1.52521 -0.396863 0
M  V30 7050 C 639.472 2.23118 0.478926 0
M  V30 7051 C 640.45 1.23475 1.05796 0
M  V30 7052 O 641.634 1.52486 1.10817 0
M  V30 7053 C 638.761 2.95028 1.66362 0
M  V30 7054 C 637.807 4.09002 1.20913 0
M  V30 7055 S 638.64 5.35182 0.184407 0
M  V30 7056 C 639.796 6.10616 1.37471 0
M  V30 7057 H 640.029 2.97056 -0.120542 0
M  V30 7058 H 637.562 1.53334 -0.18109 0
M  V30 7059 H 639.52 3.37066 2.34301 0
M  V30 7060 H 638.181 2.20756 2.23441 0
M  V30 7061 H 637.374 4.58445 2.09389 0
M  V30 7062 H 636.976 3.69016 0.608559 0
M  V30 7063 H 639.268 6.37247 2.30048 0
M  V30 7064 H 640.211 7.02084 0.921051 0
M  V30 7065 H 640.619 5.41499 1.59495 0
M  V30 7066 N 640.017 0.126909 1.57088 0
M  V30 7067 C 640.964 -0.82036 2.15728 0
M  V30 7068 C 641.934 -1.25811 1.08447 0
M  V30 7069 O 643.119 -1.33422 1.36393 0
M  V30 7070 C 640.259 -2.06199 2.76724 0
M  V30 7071 C 639.372 -1.67188 3.98337 0
M  V30 7072 C 638.507 -2.86378 4.47393 0
M  V30 7073 C 637.546 -2.43644 5.61519 0
M  V30 7074 N 636.683 -3.55775 6.05284 0
M  V30 7075 H 641.523 -0.313472 2.96347 0
M  V30 7076 H 639.06 -0.14303 1.46403 0
M  V30 7077 H 641.018 -2.78959 3.10222 0
M  V30 7078 H 639.648 -2.54333 1.98782 0
M  V30 7079 H 638.7 -0.842714 3.70948 0
M  V30 7080 H 640.012 -1.31789 4.81075 0
M  V30 7081 H 639.166 -3.67353 4.82842 0
M  V30 7082 H 637.905 -3.25009 3.63621 0
M  V30 7083 H 636.91 -1.61104 5.25667 0
M  V30 7084 H 638.135 -2.06122 6.47063 0
M  V30 7085 H 636.081 -3.94065 5.24451 0
M  V30 7086 H 635.998 -3.24325 6.82898 0
M  V30 7087 H 637.266 -4.37166 6.45373 0
M  V30 7088 N 641.495 -1.56914 -0.146875 0
M  V30 7089 C 642.906 -1.72799 -0.706928 0
M  V30 7090 C 643.257 -0.741329 -1.81656 0
M  V30 7091 O 642.382 0.0920162 -2.16204 0
M  V30 7092 C 642.977 -3.13317 -1.28911 0
M  V30 7093 C 641.536 -3.30803 -1.79573 0
M  V30 7094 C 640.683 -2.68725 -0.684252 0
M  V30 7095 H 643.634 -1.58504 0.0787931 0
M  V30 7096 H 643.655 -3.13323 -2.15891 0
M  V30 7097 H 643.167 -3.85104 -0.481284 0
M  V30 7098 H 641.268 -2.64012 -2.62923 0
M  V30 7099 H 641.381 -4.38754 -1.92436 0
M  V30 7100 H 639.745 -2.29196 -1.11091 0
M  V30 7101 H 640.528 -3.43117 0.112134 0
M  V30 7102 N 642.974 0.416227 -1.52004 0
M  V30 7103 C 644.204 1.18401 -1.69307 0
M  V30 7104 C 644.612 1.84943 -0.399072 0
M  V30 7105 O 643.955 1.72406 0.634177 0
M  V30 7106 C 644.017 2.29465 -2.76742 0
M  V30 7107 C 643.681 1.83117 -4.18709 0
M  V30 7108 C 644.678 1.32286 -5.02789 0
M  V30 7109 C 642.363 1.90167 -4.64911 0
M  V30 7110 C 644.357 0.891178 -6.31139 0
M  V30 7111 C 642.044 1.4661 -5.93253 0
M  V30 7112 C 643.042 0.961696 -6.76196 0
M  V30 7113 O 642.73 0.532388 -8.02135 0
M  V30 7114 H 642.462 0.362098 -0.570843 0
M  V30 7115 H 645.016 0.496764 -1.99302 0
M  V30 7116 H 643.246 3.01531 -2.42107 0
M  V30 7117 H 644.935 2.91252 -2.82713 0
M  V30 7118 H 645.701 1.26218 -4.68288 0
M  V30 7119 H 641.58 2.28371 -4.00459 0
M  V30 7120 H 645.124 0.496788 -6.95829 0
M  V30 7121 H 641.021 1.52355 -6.27263 0
M  V30 7122 H 641.789 0.656339 -8.15864 0
M  V30 7123 N 644.452 1.42507 0.673017 0
M  V30 7124 C 645.399 1.46124 1.78651 0
M  V30 7125 C 646.369 0.313007 1.63124 0
M  V30 7126 O 647.554 0.517337 1.83653 0
M  V30 7127 C 644.694 1.3711 3.16694 0
M  V30 7128 C 643.807 2.61983 3.43495 0
M  V30 7129 C 642.942 2.45098 4.71275 0
M  V30 7130 C 641.981 3.65336 4.91117 0
M  V30 7131 N 641.118 3.47383 6.10139 0
M  V30 7132 H 645.958 2.4128 1.74895 0
M  V30 7133 H 643.495 1.19788 0.853766 0
M  V30 7134 H 645.453 1.29881 3.96468 0
M  V30 7135 H 644.083 0.45549 3.1957 0
M  V30 7136 H 643.135 2.79571 2.57961 0
M  V30 7137 H 644.447 3.51355 3.5405 0
M  V30 7138 H 643.601 2.35466 5.59143 0
M  V30 7139 H 642.34 1.53219 4.63007 0
M  V30 7140 H 641.345 3.754 4.0169 0
M  V30 7141 H 642.57 4.58199 5.01229 0
M  V30 7142 H 640.516 2.58222 6.0304 0
M  V30 7143 H 640.433 4.30344 6.21563 0
M  V30 7144 H 641.701 3.41565 7.00681 0
M  V30 7145 N 645.93 -0.909495 1.28709 0
M  V30 7146 C 647.158 -1.69272 1.18973 0
M  V30 7147 C 647.573 -1.87123 -0.251048 0
M  V30 7148 O 646.93 -1.40127 -1.16922 0
M  V30 7149 C 646.981 -3.08257 1.88839 0
M  V30 7150 O 646.702 -2.91228 3.27289 0
M  V30 7151 C 648.203 -4.02642 1.85457 0
M  V30 7152 H 645.423 -0.528999 0.412797 0
M  V30 7153 H 647.967 -1.13803 1.69909 0
M  V30 7154 H 646.122 -3.6053 1.41762 0
M  V30 7155 H 646.536 -3.79223 3.6234 0
M  V30 7156 H 648.01 -4.97613 2.38925 0
M  V30 7157 H 648.487 -4.31327 0.827893 0
M  V30 7158 H 649.093 -3.56298 2.32233 0
M  V30 7159 N 647.408 -1.11026 -1.11852 0
M  V30 7160 C 648.318 -0.777252 -2.2135 0
M  V30 7161 C 649.334 0.227821 -1.72502 0
M  V30 7162 O 650.51 0.0650587 -2.01295 0
M  V30 7163 C 647.575 -0.220668 -3.45997 0
M  V30 7164 C 646.636 -1.2838 -4.09655 0
M  V30 7165 C 645.869 -0.753678 -5.28352 0
M  V30 7166 O 646.092 0.417779 -5.68868 0
M  V30 7167 O 645.026 -1.51647 -5.82483 0
M  V30 7168 H 648.852 -1.69141 -2.5224 0
M  V30 7169 H 646.437 -0.885836 -1.20305 0
M  V30 7170 H 648.319 0.0855756 -4.21313 0
M  V30 7171 H 646.994 0.666262 -3.16769 0
M  V30 7172 H 645.901 -1.64299 -3.3609 0
M  V30 7173 H 647.234 -2.14396 -4.43052 0
M  V30 7174 N 648.886 1.2938 -0.899927 0
M  V30 7175 C 650.132 1.9584 -0.526742 0
M  V30 7176 C 650.465 1.70774 0.924651 0
M  V30 7177 O 649.74 1.02084 1.65557 0
M  V30 7178 C 650.023 3.50638 -0.820062 0
M  V30 7179 C 649.876 3.85161 -2.32317 0
M  V30 7180 C 651.195 4.3903 -0.30671 0
M  V30 7181 H 648.314 0.711322 -0.192848 0
M  V30 7182 H 650.956 1.52992 -1.12665 0
M  V30 7183 H 649.106 3.87265 -0.309491 0
M  V30 7184 H 650.778 3.58477 -2.9033 0
M  V30 7185 H 649.021 3.32696 -2.78381 0
M  V30 7186 H 649.692 4.93204 -2.47898 0
M  V30 7187 H 652.168 4.09396 -0.743908 0
M  V30 7188 H 651.044 5.46226 -0.541144 0
M  V30 7189 H 651.305 4.34937 0.792588 0
M  V30 7190 N 650.364 0.662433 1.43002 0
M  V30 7191 C 651.61 0.179857 2.02001 0
M  V30 7192 C 651.943 -1.20625 1.52195 0
M  V30 7193 O 651.218 -1.80726 0.718911 0
M  V30 7194 C 651.501 0.200845 3.59539 0
M  V30 7195 C 651.354 1.62153 4.19555 0
M  V30 7196 C 652.673 -0.457738 4.37713 0
M  V30 7197 H 649.792 0.0668305 0.733964 0
M  V30 7198 H 652.434 0.84487 1.70182 0
M  V30 7199 H 650.584 -0.365411 3.86778 0
M  V30 7200 H 652.256 2.23908 4.03315 0
M  V30 7201 H 650.499 2.16601 3.75854 0
M  V30 7202 H 651.17 1.58799 5.28665 0
M  V30 7203 H 653.646 0.0241495 4.16093 0
M  V30 7204 H 652.522 -0.412363 5.47349 0
M  V30 7205 H 652.783 -1.53336 4.14657 0
M  V30 7206 O 651.881 -1.51951 0.5471 0
M  V30 7207 H 652.572 -1.93655 0.0418362 0
M  V30 END ATOM
M  V30 BEGIN BOND
M  V30 END BOND
M  V30 END CTAB
M  END
$$$$
